data_POSCAR
  _audit_creation_date              2014-09-24
  _audit_creation_method            'ToBaCCo'
  _symmetry_space_group_name_H-M    'P1'
  _symmetry_Int_Tables_number       1
  _symmetry_cell_setting            triclinic
  loop_
  _symmetry_equiv_pos_as_xyz
 x,y,z
_cell_length_a 47.9663
_cell_length_b 48.0555
_cell_length_c 48.0360
_cell_angle_alpha 90.185000
_cell_angle_beta 90.129200
_cell_angle_gamma 89.917200
loop_
  _atom_site_label
  _atom_site_type_symbol
  _atom_site_fract_x
  _atom_site_fract_y
  _atom_site_fract_z
C1 C 0.23930 1.00331 -0.01630
 C2 C 0.23908 1.00313 0.01198
 C3 C 0.23514 1.02874 0.02887
 C4 C 0.24305 0.97751 0.02860
 C5 C 0.24185 0.97736 -0.03316
 C6 C 0.23775 1.02976 -0.03217
 C7 C 0.25441 1.05056 0.02828
 C8 C 0.25273 1.07228 0.04770
 C9 C 0.23208 1.07235 0.06888
 C10 C 0.21198 1.05078 0.06796
 C11 C 0.21359 1.02944 0.04838
 C12 C 0.26499 0.97676 0.04794
 C13 C 0.26640 0.95576 0.06778
 C14 C 0.24584 0.93506 0.06876
 C15 C 0.22463 0.93492 0.04846
 C16 C 0.22315 0.95614 0.02856
 C17 C 0.22242 0.97232 -0.05447
 C18 C 0.22514 0.94917 -0.07188
 C19 C 0.24743 0.93048 -0.06844
 C20 C 0.26679 0.93534 -0.04693
 C21 C 0.26417 0.95871 -0.02959
 C22 C 0.21498 1.04806 -0.02968
 C23 C 0.21386 1.07241 -0.04564
 C24 C 0.23529 1.07856 -0.06456
 C25 C 0.25817 1.06036 -0.06660
 C26 C 0.25931 1.03621 -0.05067
 H27 H 0.27159 1.05008 0.01369
 H28 H 0.26934 1.08743 0.04722
 H29 H 0.19433 1.05031 0.08189
 H30 H 0.19826 1.01290 0.04890
 H31 H 0.28046 0.99316 0.04833
 H32 H 0.28325 0.95606 0.08283
 H33 H 0.20580 0.95666 0.01410
 H34 H 0.20513 0.98648 -0.05771
 H35 H 0.20971 0.94581 -0.08803
 H36 H 0.28436 0.92147 -0.04401
 H37 H 0.27988 0.96254 -0.01383
 H38 H 0.19793 1.04325 -0.01577
 H39 H 0.19587 1.08594 -0.04388
 H40 H 0.27514 1.06475 -0.08074
 H41 H 0.27708 1.02243 -0.05281
 H42 H 0.20847 0.91921 0.04884
 C43 C 0.73349 0.50100 0.48202
 C44 C 0.73730 0.50113 0.51002
 C45 C 0.73827 0.52782 0.52545
 C46 C 0.73991 0.47568 0.52723
 C47 C 0.73227 0.47527 0.46481
 C48 C 0.73338 0.52767 0.46652
 C49 C 0.76371 0.54142 0.53003
 C50 C 0.76459 0.56577 0.54598
 C51 C 0.73994 0.57715 0.55691
 C52 C 0.71438 0.56404 0.55143
 C53 C 0.71360 0.53934 0.53603
 C54 C 0.76386 0.47208 0.54365
 C55 C 0.76470 0.45187 0.56441
 C56 C 0.74154 0.43474 0.56932
 C57 C 0.71809 0.43721 0.55179
 C58 C 0.71723 0.45763 0.53095
 C59 C 0.71087 0.47244 0.44503
 C60 C 0.71163 0.45113 0.42522
 C61 C 0.73396 0.43217 0.42454
 C62 C 0.75485 0.43428 0.44509
 C63 C 0.75409 0.45572 0.46498
 C64 C 0.70949 0.54452 0.46535
 C65 C 0.70989 0.56956 0.45048
 C66 C 0.73420 0.57805 0.43655
 C67 C 0.75822 0.56128 0.43843
 C68 C 0.75774 0.53630 0.45313
 H69 H 0.78287 0.53293 0.52166
 H70 H 0.78449 0.57566 0.54998
 H71 H 0.69520 0.57241 0.55989
 H72 H 0.69382 0.52905 0.53255
 H73 H 0.78167 0.48562 0.54109
 H74 H 0.78329 0.45006 0.57711
 H75 H 0.69839 0.46032 0.51878
 H76 H 0.69390 0.48731 0.44441
 H77 H 0.69494 0.44979 0.41006
 H78 H 0.77246 0.42015 0.44499
 H79 H 0.77121 0.45785 0.47955
 H80 H 0.69052 0.53809 0.47567
 H81 H 0.69100 0.58185 0.44922
 H82 H 0.77743 0.56745 0.42841
 H83 H 0.77643 0.52365 0.45414
 H84 H 0.69991 0.42431 0.55511
 C85 C 0.76137 0.98512 0.99541
 C86 C 0.75744 1.01297 0.99662
 C87 C 0.75433 1.02779 1.02330
 C88 C 0.75579 1.03078 0.97161
 C89 C 0.76246 0.97029 0.96846
 C90 C 0.76197 0.96791 1.02102
 C91 C 0.72849 1.02844 1.03687
 C92 C 0.72429 1.04660 1.05924
 C93 C 0.74608 1.06378 1.06848
 C94 C 0.77227 1.06208 1.05565
 C95 C 0.77626 1.04444 1.03295
 C96 C 0.73206 1.04740 0.96758
 C97 C 0.73212 1.06854 0.94782
 C98 C 0.75595 1.07351 0.93169
 C99 C 0.77922 1.05590 0.93468
 C100 C 0.77918 1.03472 0.95462
 C101 C 0.78757 0.95847 0.95933
 C102 C 0.78823 0.94250 0.93496
 C103 C 0.76362 0.93764 0.91985
 C104 C 0.73858 0.94986 0.92882
 C105 C 0.73805 0.96632 0.95283
 C106 C 0.78212 0.97214 1.04178
 C107 C 0.78192 0.95615 1.06609
 C108 C 0.76170 0.93514 1.07013
 C109 C 0.74152 0.93128 1.04892
 C110 C 0.74179 0.94732 1.02477
 H111 H 0.71132 1.01590 1.02928
 H112 H 0.70397 1.04767 1.06898
 H113 H 0.78924 1.07536 1.06239
 H114 H 0.79616 1.04435 1.02234
 H115 H 0.71382 1.04468 0.98052
 H116 H 0.71372 1.08142 0.94553
 H117 H 0.79786 1.02244 0.95782
 H118 H 0.80651 0.96128 0.97132
 H119 H 0.80767 0.93302 0.92849
 H120 H 0.71939 0.94628 0.91744
 H121 H 0.71849 0.97521 0.95978
 H122 H 0.79822 0.98766 1.03903
 H123 H 0.79848 0.95964 1.08099
 H124 H 0.72459 0.91665 1.05113
 H125 H 0.72576 0.94401 1.00920
 H126 H 0.79790 1.05937 0.92257
 C127 C 0.25539 0.48922 0.49800
 C128 C 0.25157 0.51717 0.49879
 C129 C 0.25123 0.53508 0.47373
 C130 C 0.24752 0.53183 0.52556
 C131 C 0.25473 0.47281 0.52402
 C132 C 0.25832 0.47318 0.47169
 C133 C 0.27394 0.53595 0.45535
 C134 C 0.27475 0.55590 0.43416
 C135 C 0.25306 0.57544 0.43141
 C136 C 0.23001 0.57384 0.44921
 C137 C 0.22908 0.55386 0.47009
 C138 C 0.26956 0.54714 0.53706
 C139 C 0.26522 0.56351 0.56068
 C140 C 0.23861 0.56528 0.57263
 C141 C 0.21667 0.54945 0.56146
 C142 C 0.22120 0.53253 0.53819
 C143 C 0.23240 0.45474 0.52876
 C144 C 0.23148 0.43886 0.55296
 C145 C 0.25308 0.44049 0.57276
 C146 C 0.27527 0.45900 0.56815
 C147 C 0.27610 0.47502 0.54390
 C148 C 0.23845 0.47524 0.45027
 C149 C 0.24009 0.45782 0.42693
 C150 C 0.26141 0.43778 0.42478
 C151 C 0.28149 0.43613 0.44603
 C152 C 0.27992 0.45360 0.46924
 H153 H 0.29144 0.52196 0.45807
 H154 H 0.29279 0.55682 0.42069
 H155 H 0.21281 0.58834 0.44718
 H156 H 0.21128 0.55350 0.48389
 H157 H 0.28991 0.54686 0.52734
 H158 H 0.28230 0.57580 0.56889
 H159 H 0.20400 0.52088 0.52934
 H160 H 0.21566 0.45300 0.51368
 H161 H 0.21387 0.42517 0.55614
 H162 H 0.29234 0.46045 0.58287
 H163 H 0.29357 0.48881 0.54040
 H164 H 0.22116 0.48965 0.45203
 H165 H 0.22410 0.45930 0.41105
 H166 H 0.29834 0.42115 0.44479
 H167 H 0.29538 0.45156 0.48558
 H168 H 0.19601 0.55065 0.57043
 C169 C 0.99806 0.25983 0.01852
 C170 C 0.99745 0.25780 -0.00974
 C171 C 0.97113 0.25633 -0.02625
 C172 C 1.02359 0.25776 -0.02635
 C173 C 1.02475 0.26096 0.03434
 C174 C 0.97256 0.25978 0.03602
 C175 C 0.96918 0.23682 -0.04794
 C176 C 0.94717 0.23771 -0.06693
 C177 C 0.92604 0.25807 -0.06477
 C178 C 0.92736 0.27676 -0.04196
 C179 C 0.94982 0.27613 -0.02321
 C180 C 1.04383 0.23692 -0.02323
 C181 C 1.06740 0.23644 -0.04040
 C182 C 1.07101 0.25654 -0.06155
 C183 C 1.05068 0.27776 -0.06383
 C184 C 1.02736 0.27823 -0.04660
 C185 C 1.04464 0.28183 0.02974
 C186 C 1.06872 0.28331 0.04624
 C187 C 1.07301 0.26446 0.06839
 C188 C 1.05300 0.24331 0.07234
 C189 C 1.02936 0.24161 0.05558
 C190 C 0.96873 0.28145 0.05529
 C191 C 0.94873 0.27932 0.07621
 C192 C 0.93219 0.25534 0.07849
 C193 C 0.93500 0.23422 0.05827
 C194 C 0.95511 0.23640 0.03723
 H195 H 0.98526 0.22119 -0.05065
 H196 H 0.94667 0.22191 -0.08301
 H197 H 0.91221 0.29327 -0.03948
 H198 H 0.95117 0.29196 -0.00719
 H199 H 1.04104 0.22063 -0.00797
 H200 H 1.08178 0.21927 -0.03795
 H201 H 1.01208 0.29468 -0.04911
 H202 H 1.04121 0.29738 0.01382
 H203 H 1.08298 0.30031 0.04256
 H204 H 1.05576 0.22736 0.08795
 H205 H 1.01443 0.22515 0.05932
 H206 H 0.98213 0.29957 0.05482
 H207 H 0.94668 0.29620 0.09105
 H208 H 0.92266 0.21543 0.05955
 H209 H 0.95812 0.21920 0.02292
 H210 H 1.05286 0.29467 -0.07846
 C211 C 0.49653 0.74027 0.51497
 C212 C 0.49449 0.74005 0.48677
 C213 C 0.46732 0.74016 0.47212
 C214 C 0.51974 0.74084 0.46887
 C215 C 0.52416 0.74077 0.52886
 C216 C 0.47188 0.74147 0.53368
 C217 C 0.45663 0.71517 0.46139
 C218 C 0.43334 0.71538 0.44382
 C219 C 0.42094 0.74067 0.43604
 C220 C 0.43130 0.76565 0.44722
 C221 C 0.45416 0.76537 0.46542
 C222 C 0.53912 0.71890 0.46891
 C223 C 0.56280 0.71999 0.45192
 C224 C 0.56737 0.74294 0.43440
 C225 C 0.54792 0.76486 0.43453
 C226 C 0.52437 0.76378 0.45152
 C227 C 0.54017 0.76518 0.52939
 C228 C 0.56542 0.76590 0.54399
 C229 C 0.57524 0.74207 0.55782
 C230 C 0.55949 0.71748 0.55660
 C231 C 0.53398 0.71694 0.54249
 C232 C 0.46997 0.76313 0.55325
 C233 C 0.44937 0.76288 0.57374
 C234 C 0.43017 0.74089 0.57527
 C235 C 0.43136 0.71968 0.55501
 C236 C 0.45217 0.71987 0.53449
 H237 H 0.46684 0.69560 0.46600
 H238 H 0.42578 0.69592 0.43526
 H239 H 0.42199 0.78536 0.44147
 H240 H 0.46233 0.78486 0.47330
 H241 H 0.53578 0.70086 0.48194
 H242 H 0.57722 0.70264 0.45206
 H243 H 0.50990 0.78108 0.45133
 H244 H 0.53277 0.78377 0.51902
 H245 H 0.57723 0.78509 0.54471
 H246 H 0.56650 0.69897 0.56738
 H247 H 0.52177 0.69799 0.54231
 H248 H 0.48492 0.77999 0.55309
 H249 H 0.44873 0.77976 0.58872
 H250 H 0.41699 0.70234 0.55580
 H251 H 0.45361 0.70259 0.52007
 H252 H 0.55105 0.78303 0.42164
 C253 C 0.00770 0.76164 0.00123
 C254 C -0.02053 0.76338 0.00187
 C255 C -0.03797 0.76333 -0.02371
 C256 C -0.03557 0.76399 0.02870
 C257 C 0.02438 0.75903 0.02711
 C258 C 0.02387 0.76096 -0.02503
 C259 C -0.03424 0.78297 -0.04490
 C260 C -0.05111 0.78238 -0.06875
 C261 C -0.07258 0.76241 -0.07174
 C262 C -0.07589 0.74276 -0.05018
 C263 C -0.05892 0.74329 -0.02663
 C264 C -0.04525 0.78932 0.03935
 C265 C -0.06014 0.79012 0.06429
 C266 C -0.06662 0.76534 0.07863
 C267 C -0.05645 0.73994 0.06770
 C268 C -0.04080 0.73937 0.04321
 C269 C 0.04090 0.73526 0.03092
 C270 C 0.05891 0.73336 0.05364
 C271 C 0.06081 0.75528 0.07296
 C272 C 0.04369 0.77880 0.06957
 C273 C 0.02575 0.78076 0.04666
 C274 C 0.01952 0.74035 -0.04529
 C275 C 0.03712 0.73848 -0.06843
 C276 C 0.06000 0.75676 -0.07144
 C277 C 0.06356 0.77782 -0.05117
 C278 C 0.04579 0.77981 -0.02838
 H279 H -0.01847 0.79895 -0.04285
 H280 H -0.04798 0.79849 -0.08409
 H281 H -0.09087 0.72602 -0.05170
 H282 H -0.06194 0.72761 -0.01079
 H283 H -0.04137 0.80850 0.02822
 H284 H -0.06797 0.81009 0.07123
 H285 H -0.03313 0.71966 0.03531
 H286 H 0.04017 0.71836 0.01596
 H287 H 0.07167 0.71489 0.05593
 H288 H 0.04503 0.79610 0.08401
 H289 H 0.01365 0.79956 0.04368
 H290 H 0.00312 0.72512 -0.04273
 H291 H 0.03367 0.72148 -0.08283
 H292 H 0.07975 0.79336 -0.05299
 H293 H 0.04939 0.79598 -0.01301
 H294 H -0.05986 0.72045 0.07837
 C295 C 0.51103 0.22308 0.50533
 C296 C 0.48339 0.22850 0.50558
 C297 C 0.46774 0.22950 0.53204
 C298 C 0.46694 0.23329 0.47990
 C299 C 0.52771 0.22188 0.47963
 C300 C 0.52747 0.22228 0.53124
 C301 C 0.44843 0.20850 0.53780
 C302 C 0.43158 0.21029 0.56134
 C303 C 0.43372 0.23322 0.57944
 C304 C 0.45363 0.25391 0.57403
 C305 C 0.47038 0.25217 0.55033
 C306 C 0.46562 0.21333 0.45851
 C307 C 0.44711 0.21693 0.43620
 C308 C 0.42955 0.24036 0.43520
 C309 C 0.43182 0.26076 0.45605
 C310 C 0.45027 0.25722 0.47818
 C311 C 0.53219 0.24601 0.46397
 C312 C 0.55304 0.24646 0.44371
 C313 C 0.56978 0.22285 0.43909
 C314 C 0.56420 0.19832 0.45381
 C315 C 0.54334 0.19786 0.47393
 C316 C 0.53983 0.24693 0.54076
 C317 C 0.55907 0.24626 0.56246
 C318 C 0.56677 0.22080 0.57446
 C319 C 0.55392 0.19614 0.56536
 C320 C 0.53414 0.19691 0.54394
 H321 H 0.44606 0.19099 0.52373
 H322 H 0.41651 0.19399 0.56519
 H323 H 0.45535 0.27198 0.58745
 H324 H 0.48468 0.26893 0.54575
 H325 H 0.47799 0.19451 0.45968
 H326 H 0.44558 0.20081 0.42047
 H327 H 0.45107 0.27291 0.49440
 H328 H 0.52069 0.26489 0.46855
 H329 H 0.55704 0.26568 0.43273
 H330 H 0.57647 0.17971 0.45026
 H331 H 0.54020 0.17909 0.48592
 H332 H 0.53529 0.26655 0.53067
 H333 H 0.56902 0.26545 0.56892
 H334 H 0.55964 0.17632 0.57441
 H335 H 0.52495 0.17771 0.53650
 H336 H 0.41883 0.27920 0.45555
 C337 C 1.00923 0.01278 0.24401
 C338 C 1.00739 -0.01543 0.24239
 C339 C 1.03234 -0.03380 0.24021
 C340 C 0.97996 -0.02965 0.24292
 C341 C 0.98422 0.03067 0.24774
 C342 C 1.03616 0.02800 0.24296
 C343 C 1.05245 -0.03019 0.21934
 C344 C 1.07524 -0.04838 0.21727
 C345 C 1.07813 -0.07122 0.23559
 C346 C 1.05774 -0.07445 0.25650
 C347 C 1.03536 -0.05606 0.25875
 C348 C 0.96729 -0.03768 0.21789
 C349 C 0.94263 -0.05315 0.21800
 C350 C 0.93065 -0.06212 0.24328
 C351 C 0.94354 -0.05363 0.26840
 C352 C 0.96762 -0.03720 0.26818
 C353 C 0.98288 0.04847 0.27092
 C354 C 0.96185 0.06847 0.27301
 C355 C 0.94166 0.07102 0.25196
 C356 C 0.94249 0.05265 0.22913
 C357 C 0.96378 0.03282 0.22688
 C358 C 1.05727 0.02358 0.26279
 C359 C 1.08071 0.04098 0.26356
 C360 C 1.08311 0.06328 0.24481
 C361 C 1.06237 0.06701 0.22450
 C362 C 1.03918 0.04959 0.22360
 H363 H 1.05027 -0.01357 0.20432
 H364 H 1.08968 -0.04518 0.20033
 H365 H 1.05938 -0.09059 0.27205
 H366 H 1.02047 -0.05918 0.27532
 H367 H 0.97680 -0.03231 0.19819
 H368 H 0.93417 -0.05959 0.19811
 H369 H 0.97712 -0.03104 0.28772
 H370 H 0.99865 0.04737 0.28706
 H371 H 0.96154 0.08219 0.29093
 H372 H 0.92736 0.05443 0.21246
 H373 H 0.96498 0.02003 0.20835
 H374 H 1.05510 0.00739 0.27826
 H375 H 1.09633 0.03777 0.27954
 H376 H 1.06388 0.08376 0.20954
 H377 H 1.02310 0.05342 0.20820
 H378 H 0.93475 -0.05907 0.28838
 C379 C 0.50074 0.48493 0.74286
 C380 C 0.50166 0.51311 0.74076
 C381 C 0.52826 0.52882 0.74085
 C382 C 0.47627 0.53065 0.73932
 C383 C 0.47398 0.46934 0.74376
 C384 C 0.52661 0.46788 0.74424
 C385 C 0.53237 0.54938 0.76122
 C386 C 0.55547 0.56683 0.76009
 C387 C 0.57495 0.56417 0.73847
 C388 C 0.57142 0.54292 0.71857
 C389 C 0.54810 0.52544 0.71965
 C390 C 0.45769 0.53222 0.76178
 C391 C 0.43694 0.55274 0.76228
 C392 C 0.43462 0.57204 0.74040
 C393 C 0.45251 0.56952 0.71743
 C394 C 0.47318 0.54911 0.71697
 C395 C 0.45396 0.47172 0.72249
 C396 C 0.43000 0.45506 0.72276
 C397 C 0.42585 0.43551 0.74410
 C398 C 0.44572 0.43358 0.76554
 C399 C 0.46952 0.45024 0.76532
 C400 C 0.53039 0.44622 0.72497
 C401 C 0.55388 0.42914 0.72641
 C402 C 0.57410 0.43331 0.74722
 C403 C 0.57048 0.45517 0.76639
 C404 C 0.54678 0.47216 0.76508
 H405 H 0.51729 0.55228 0.77774
 H406 H 0.55794 0.58270 0.77596
 H407 H 0.58608 0.54056 0.70161
 H408 H 0.54504 0.50994 0.70352
 H409 H 0.46014 0.51852 0.77948
 H410 H 0.42359 0.55431 0.78036
 H411 H 0.48747 0.54829 0.69955
 H412 H 0.45724 0.48587 0.70532
 H413 H 0.41520 0.45679 0.70579
 H414 H 0.44292 0.41903 0.78247
 H415 H 0.48470 0.44803 0.78190
 H416 H 0.51506 0.44252 0.70879
 H417 H 0.55628 0.41263 0.71120
 H418 H 0.58558 0.45859 0.78284
 H419 H 0.54397 0.48836 0.78055
 H420 H 0.45089 0.58372 0.70004
 C421 C 1.01435 0.99936 0.76331
 C422 C 0.98620 1.00095 0.76324
 C423 C 0.96824 0.97621 0.76607
 C424 C 0.97169 1.02783 0.75939
 C425 C 1.03172 1.02420 0.75874
 C426 C 1.02980 0.97296 0.76642
 C427 C 0.96337 0.95881 0.74310
 C428 C 0.94331 0.93785 0.74452
 C429 C 0.92731 0.93435 0.76873
 C430 C 0.93243 0.95164 0.79183
 C431 C 0.95275 0.97243 0.79048
 C432 C 0.95734 1.03304 0.73461
 C433 C 0.94230 1.05768 0.73126
 C434 C 0.94112 1.07783 0.75276
 C435 C 0.95641 1.07254 0.77740
 C436 C 0.97118 1.04769 0.78075
 C437 C 1.03980 1.04099 0.78124
 C438 C 1.05815 1.06311 0.77712
 C439 C 1.06911 1.06828 0.75055
 C440 C 1.06075 1.05156 0.72801
 C441 C 1.04208 1.02970 0.73208
 C442 C 1.04531 0.96827 0.79065
 C443 C 1.06508 0.94693 0.79162
 C444 C 1.06983 0.92960 0.76827
 C445 C 1.05292 0.93367 0.74447
 C446 C 1.03357 0.95540 0.74344
 H447 H 0.97417 0.96227 0.72367
 H448 H 0.93938 0.92520 0.72623
 H449 H 0.92043 0.94933 0.81075
 H450 H 0.95585 0.98612 0.80817
 H451 H 0.95773 1.01794 0.71782
 H452 H 0.93218 1.06100 0.71140
 H453 H 0.98162 1.04363 0.80032
 H454 H 1.03241 1.03655 0.80204
 H455 H 1.06465 1.07549 0.79486
 H456 H 1.06891 1.05524 0.70735
 H457 H 1.03618 1.01666 0.71461
 H458 H 1.04291 0.98190 0.80849
 H459 H 1.07651 0.94411 0.81085
 H460 H 1.05612 0.92177 0.72559
 H461 H 1.02284 0.95955 0.72405
 H462 H 0.95568 1.08663 0.79499
 C463 C 0.49415 0.50198 0.26435
 C464 C 0.52219 0.49942 0.26317
 C465 C 0.53647 0.47239 0.26605
 C466 C 0.54065 0.52372 0.25937
 C467 C 0.48043 0.52923 0.26098
 C468 C 0.47550 0.47767 0.26632
 C469 C 0.55056 0.46641 0.29090
 C470 C 0.56941 0.44428 0.29210
 C471 C 0.57453 0.42790 0.26837
 C472 C 0.55932 0.43313 0.24388
 C473 C 0.54057 0.45536 0.24268
 C474 C 0.54330 0.54394 0.28033
 C475 C 0.56297 0.56519 0.27778
 C476 C 0.58058 0.56620 0.25446
 C477 C 0.57757 0.54615 0.23335
 C478 C 0.55776 0.52511 0.23579
 C479 C 0.47341 0.53866 0.23432
 C480 C 0.45818 0.56322 0.23110
 C481 C 0.44996 0.57875 0.25453
 C482 C 0.45786 0.56968 0.28119
 C483 C 0.47277 0.54492 0.28439
 C484 C 0.46991 0.46161 0.24256
 C485 C 0.44950 0.44094 0.24323
 C486 C 0.43399 0.43629 0.26757
 C487 C 0.43992 0.45219 0.29148
 C488 C 0.46052 0.47275 0.29083
 H489 H 0.54796 0.47973 0.30895
 H490 H 0.58064 0.44051 0.31131
 H491 H 0.56315 0.42110 0.22518
 H492 H 0.53060 0.46028 0.22307
 H493 H 0.53085 0.54271 0.29904
 H494 H 0.56516 0.58020 0.29450
 H495 H 0.55609 0.50958 0.21949
 H496 H 0.47912 0.52661 0.21610
 H497 H 0.45234 0.56986 0.21036
 H498 H 0.45143 0.58111 0.29955
 H499 H 0.47789 0.53769 0.30512
 H500 H 0.48056 0.46583 0.22319
 H501 H 0.44504 0.42937 0.22436
 H502 H 0.42841 0.44892 0.31055
 H503 H 0.46432 0.48527 0.30923
 H504 H 0.59074 0.54665 0.21507
 O505 O 0.24993 0.18461 0.20239
 O506 O 0.28356 0.17217 0.23793
 O507 O 0.18257 0.21746 0.25092
 O508 O 0.17669 0.25169 0.28235
 O509 O 0.21183 0.26044 0.17822
 O510 O 0.25111 0.29101 0.17052
 O511 O 0.26392 0.28576 0.32146
 O512 O 0.23037 0.24886 0.32802
 O513 O 0.33100 0.24706 0.27963
 O514 O 0.33459 0.21838 0.23720
 O515 O 0.29867 0.32232 0.25184
 O516 O 0.25697 0.33504 0.22233
 O517 O 0.26291 0.32157 0.29074
 O518 O 0.23015 0.33497 0.25448
 O519 O 0.33002 0.28742 0.24543
 O520 O 0.33382 0.24999 0.20992
 O521 O 0.30019 0.24786 0.31544
 O522 O 0.26619 0.21698 0.32503
 O523 O 0.25037 0.22074 0.17189
 O524 O 0.28047 0.25914 0.16467
 O525 O 0.18150 0.25853 0.21448
 O526 O 0.17928 0.28833 0.25588
 O527 O 0.21405 0.18271 0.24430
 O528 O 0.25576 0.16960 0.27003
 Zr529 Zr 0.25270 0.20338 0.24201
 O530 O 0.28161 0.22388 0.26791
 Zr531 Zr 0.20652 0.25409 0.25008
 O532 O 0.23354 0.27706 0.27601
 Zr533 Zr 0.25127 0.25628 0.19743
 O534 O 0.28059 0.27881 0.22116
 Zr535 Zr 0.26095 0.24988 0.29636
 O536 O 0.23161 0.22629 0.27309
 Zr537 Zr 0.30579 0.25112 0.24390
 O538 O 0.27877 0.22844 0.21738
 Zr539 Zr 0.25960 0.30226 0.25158
 O540 O 0.22995 0.28198 0.22581
 O541 O 0.22614 0.22963 0.22028
 O542 O 0.28649 0.27632 0.27360
 C543 C 0.24985 0.19466 0.17760
 C544 C 0.18907 0.19162 0.24813
 C545 C 0.18702 0.26056 0.18841
 C546 C 0.26429 0.31185 0.31558
 C547 C 0.32507 0.24663 0.30571
 C548 C 0.32371 0.31314 0.24903
 H549 H 0.29307 0.20991 0.27780
 H550 H 0.29177 0.29069 0.20871
 H551 H 0.21288 0.21909 0.20849
 H552 H 0.22243 0.28802 0.28946
 H553 H 0.21710 0.23387 0.32301
 H554 H 0.18516 0.26012 0.29915
 H555 H 0.33033 0.26663 0.19835
 H556 H 0.29575 0.24606 0.16925
 H557 H 0.25521 0.20120 0.31773
 H558 H 0.24140 0.17239 0.28453
 H559 H 0.27205 0.33244 0.20855
 H560 H 0.23900 0.30523 0.17928
 H561 H 0.29699 0.17890 0.22387
 H562 H 0.33079 0.20373 0.25110
 H563 H 0.18435 0.30244 0.24180
 H564 H 0.21627 0.32965 0.26869
 O565 O 0.75227 0.82857 0.21280
 O566 O 0.72028 0.83816 0.25108
 O567 O 0.82228 0.79498 0.26056
 O568 O 0.83094 0.75815 0.28697
 O569 O 0.79188 0.75245 0.18454
 O570 O 0.75213 0.72409 0.17513
 O571 O 0.74558 0.72028 0.32685
 O572 O 0.77763 0.75918 0.33469
 O573 O 0.67588 0.76023 0.28843
 O574 O 0.67027 0.79080 0.24814
 O575 O 0.70922 0.68741 0.25521
 O576 O 0.75059 0.67737 0.22432
 O577 O 0.74650 0.68687 0.29328
 O578 O 0.77779 0.67607 0.25588
 O579 O 0.67676 0.72179 0.25290
 O580 O 0.67136 0.76076 0.21882
 O581 O 0.70698 0.75694 0.32395
 O582 O 0.74024 0.78877 0.33482
 O583 O 0.75340 0.79346 0.18096
 O584 O 0.72325 0.75577 0.17214
 O585 O 0.82389 0.75600 0.21945
 O586 O 0.82752 0.72382 0.25943
 O587 O 0.79041 0.82918 0.25281
 O588 O 0.75079 0.83989 0.28177
 Zr589 Zr 0.75213 0.80770 0.25165
 O590 O 0.72441 0.78513 0.27723
 Zr591 Zr 0.79959 0.75779 0.25597
 O592 O 0.77378 0.73286 0.28111
 Zr593 Zr 0.75321 0.75697 0.20447
 O594 O 0.72513 0.73266 0.22732
 Zr595 Zr 0.74606 0.75792 0.30389
 O596 O 0.77420 0.78349 0.28111
 Zr597 Zr 0.70018 0.75862 0.25221
 O598 O 0.72580 0.78328 0.22642
 Zr599 Zr 0.74775 0.70836 0.25564
 O600 O 0.77618 0.73057 0.23062
 O601 O 0.77867 0.78315 0.22786
 O602 O 0.72075 0.73219 0.27987
 C603 C 0.75229 0.81931 0.18759
 C604 C 0.81534 0.82065 0.25769
 C605 C 0.81702 0.75281 0.19376
 C606 C 0.74618 0.69468 0.31881
 C607 C 0.68195 0.75850 0.31440
 C608 C 0.68387 0.69608 0.25426
 H609 H 0.71282 0.79823 0.28813
 H610 H 0.71388 0.72116 0.21445
 H611 H 0.79140 0.79437 0.21623
 H612 H 0.78566 0.72153 0.29355
 H613 H 0.78964 0.77536 0.33038
 H614 H 0.82213 0.75174 0.30438
 H615 H 0.67434 0.74431 0.20675
 H616 H 0.70779 0.76811 0.17802
 H617 H 0.74655 0.80644 0.32656
 H618 H 0.76531 0.83567 0.29581
 H619 H 0.73457 0.67968 0.21151
 H620 H 0.76400 0.70903 0.18270
 H621 H 0.70656 0.83210 0.23688
 H622 H 0.67417 0.80490 0.26268
 H623 H 0.82302 0.71076 0.24409
 H624 H 0.79247 0.68137 0.26938
 O625 O 0.76159 0.17747 0.78364
 O626 O 0.72772 0.16747 0.74915
 O627 O 0.82774 0.21498 0.73935
 O628 O 0.83395 0.25164 0.71168
 O629 O 0.79744 0.25248 0.81550
 O630 O 0.75864 0.27982 0.82698
 O631 O 0.74244 0.28586 0.67411
 O632 O 0.77634 0.25296 0.66330
 O633 O 0.67827 0.24683 0.71493
 O634 O 0.67449 0.21525 0.75450
 O635 O 0.71107 0.31935 0.74754
 O636 O 0.75187 0.33145 0.77468
 O637 O 0.74525 0.32026 0.70654
 O638 O 0.78103 0.33022 0.74454
 O639 O 0.67997 0.28400 0.75116
 O640 O 0.67721 0.24419 0.78486
 O641 O 0.70825 0.24624 0.67830
 O642 O 0.74924 0.21641 0.66710
 O643 O 0.76104 0.21044 0.81774
 O644 O 0.72829 0.24852 0.82786
 O645 O 0.82835 0.25329 0.77970
 O646 O 0.82923 0.28686 0.74016
 O647 O 0.79577 0.18005 0.74052
 O648 O 0.75400 0.16962 0.71481
 Zr649 Zr 0.75734 0.19991 0.74669
 O650 O 0.72745 0.22181 0.72358
 Zr651 Zr 0.80338 0.25132 0.74334
 O652 O 0.77577 0.27519 0.71863
 Zr653 Zr 0.75853 0.24861 0.79589
 O654 O 0.72961 0.27359 0.77419
 Zr655 Zr 0.74804 0.24921 0.69676
 O656 O 0.77835 0.22529 0.71802
 Zr657 Zr 0.70405 0.24759 0.75010
 O658 O 0.73122 0.22241 0.77383
 Zr659 Zr 0.74997 0.29897 0.74489
 O660 O 0.77934 0.27691 0.76969
 O661 O 0.78395 0.22428 0.77067
 O662 O 0.72285 0.27430 0.72168
 C663 C 0.76222 0.18496 0.80928
 C664 C 0.82080 0.18915 0.73821
 C665 C 0.82233 0.25382 0.80583
 C666 C 0.74218 0.31159 0.68130
 C667 C 0.68364 0.24602 0.68883
 C668 C 0.68607 0.30994 0.74958
 H669 H 0.71556 0.20839 0.71344
 H670 H 0.71872 0.28475 0.78764
 H671 H 0.79758 0.21301 0.78129
 H672 H 0.78646 0.28695 0.70562
 H673 H 0.79300 0.24187 0.66835
 H674 H 0.82565 0.26109 0.69539
 H675 H 0.68020 0.26065 0.79691
 H676 H 0.71494 0.23347 0.82330
 H677 H 0.73419 0.20309 0.67148
 H678 H 0.76574 0.17609 0.69920
 H679 H 0.74074 0.32563 0.79094
 H680 H 0.76818 0.29610 0.81880
 H681 H 0.71343 0.17366 0.76267
 H682 H 0.67857 0.20097 0.74021
 H683 H 0.82485 0.29903 0.75623
 H684 H 0.79182 0.32813 0.72714
 O685 O 0.24727 0.82085 0.78375
 O686 O 0.27485 0.82463 0.74241
 O687 O 0.17244 0.78222 0.75148
 O688 O 0.16028 0.74292 0.73103
 O689 O 0.21181 0.75281 0.82754
 O690 O 0.25156 0.72342 0.83618
 O691 O 0.24051 0.69831 0.68636
 O692 O 0.20764 0.73529 0.67718
 O693 O 0.31426 0.73993 0.71000
 O694 O 0.32610 0.77433 0.74487
 O695 O 0.28339 0.67319 0.75874
 O696 O 0.24617 0.66815 0.79255
 O697 O 0.24558 0.66912 0.72321
 O698 O 0.21419 0.66590 0.76524
 O699 O 0.31680 0.70563 0.75089
 O700 O 0.32715 0.74947 0.77857
 O701 O 0.27855 0.73460 0.67934
 O702 O 0.24441 0.76499 0.66918
 O703 O 0.25018 0.79161 0.82072
 O704 O 0.28208 0.75430 0.83038
 O705 O 0.17606 0.74879 0.79660
 O706 O 0.16760 0.71175 0.76148
 O707 O 0.20527 0.81628 0.74915
 O708 O 0.24268 0.82116 0.71391
 Zr709 Zr 0.24353 0.79444 0.74885
 O710 O 0.26799 0.76770 0.72399
 Zr711 Zr 0.19548 0.74562 0.75745
 O712 O 0.21761 0.71699 0.73269
 Zr713 Zr 0.24786 0.75164 0.80270
 O714 O 0.27221 0.72287 0.78018
 Zr715 Zr 0.24256 0.73828 0.70402
 O716 O 0.21746 0.76720 0.72616
 Zr717 Zr 0.29473 0.74374 0.74912
 O718 O 0.27272 0.77317 0.77384
 Zr719 Zr 0.24600 0.69554 0.75814
 O720 O 0.22168 0.72209 0.78353
 O721 O 0.21990 0.77435 0.77876
 O722 O 0.27023 0.71490 0.72789
 C723 C 0.24951 0.81610 0.81001
 C724 C 0.17984 0.80779 0.74952
 C725 C 0.18572 0.75126 0.82148
 C726 C 0.24292 0.67397 0.69708
 C727 C 0.30465 0.73628 0.68522
 C728 C 0.30881 0.68040 0.75500
 H729 H 0.27831 0.77889 0.71018
 H730 H 0.28461 0.71284 0.79320
 H731 H 0.20863 0.78745 0.79003
 H732 H 0.20439 0.70439 0.72312
 H733 H 0.19579 0.75179 0.68085
 H734 H 0.16659 0.73391 0.71361
 H735 H 0.32547 0.73475 0.79281
 H736 H 0.29618 0.76612 0.82118
 H737 H 0.23536 0.78256 0.67487
 H738 H 0.22514 0.81743 0.70368
 H739 H 0.26099 0.67439 0.80548
 H740 H 0.23799 0.70832 0.83258
 H741 H 0.29060 0.81956 0.75475
 H742 H 0.31954 0.78788 0.73085
 H743 H 0.17386 0.70080 0.77777
 H744 H 0.20131 0.66625 0.74913
 O745 O 0.24746 0.32632 0.70975
 O746 O 0.21838 0.33677 0.74978
 O747 O 0.31807 0.28734 0.74988
 O748 O 0.32560 0.25086 0.77744
 O749 O 0.28042 0.24983 0.67691
 O750 O 0.23907 0.22319 0.66930
 O751 O 0.24021 0.21574 0.82112
 O752 O 0.27584 0.25156 0.82776
 O753 O 0.17175 0.26075 0.78790
 O754 O 0.16486 0.29149 0.74850
 O755 O 0.19908 0.18637 0.75002
 O756 O 0.23829 0.17484 0.71780
 O757 O 0.23720 0.18314 0.78694
 O758 O 0.26687 0.17165 0.74782
 O759 O 0.16829 0.22230 0.75179
 O760 O 0.16306 0.26237 0.71858
 O761 O 0.20474 0.25595 0.82153
 O762 O 0.24270 0.28376 0.83143
 O763 O 0.24434 0.29219 0.67704
 O764 O 0.21134 0.25638 0.66921
 O765 O 0.31447 0.24830 0.70986
 O766 O 0.31900 0.21615 0.74909
 O767 O 0.28762 0.32356 0.74803
 O768 O 0.25054 0.33515 0.77930
 Zr769 Zr 0.24813 0.30432 0.74789
 O770 O 0.22061 0.28264 0.77429
 Zr771 Zr 0.29284 0.25166 0.74790
 O772 O 0.26722 0.22768 0.77415
 Zr773 Zr 0.24339 0.25506 0.69946
 O774 O 0.21557 0.23151 0.72334
 Zr775 Zr 0.24240 0.25376 0.79905
 O776 O 0.27058 0.27811 0.77514
 Zr777 Zr 0.19353 0.25801 0.75025
 O778 O 0.21891 0.28215 0.72372
 Zr779 Zr 0.23847 0.20535 0.74971
 O780 O 0.26638 0.22663 0.72340
 O781 O 0.27169 0.27899 0.72191
 O782 O 0.21426 0.22994 0.77612
 C783 C 0.24550 0.31785 0.68434
 C784 C 0.31246 0.31351 0.74941
 C785 C 0.30600 0.24734 0.68445
 C786 C 0.23848 0.19035 0.81262
 C787 C 0.17936 0.25916 0.81347
 C788 C 0.17422 0.19624 0.75118
 H789 H 0.21026 0.29618 0.78586
 H790 H 0.20304 0.22096 0.71083
 H791 H 0.28435 0.28975 0.70977
 H792 H 0.27900 0.21535 0.78569
 H793 H 0.28934 0.26621 0.82249
 H794 H 0.31837 0.24154 0.79426
 H795 H 0.16418 0.24586 0.70629
 H796 H 0.19719 0.26965 0.67623
 H797 H 0.23824 0.30192 0.82295
 H798 H 0.26418 0.32839 0.79324
 H799 H 0.22259 0.17900 0.70508
 H800 H 0.25088 0.20749 0.67558
 H801 H 0.20341 0.33184 0.73644
 H802 H 0.17093 0.30565 0.76221
 H803 H 0.31220 0.20319 0.73453
 H804 H 0.28174 0.17516 0.76168
 O805 O 0.75013 0.67974 0.70515
 O806 O 0.77511 0.66912 0.74641
 O807 O 0.67547 0.71750 0.73987
 O808 O 0.66550 0.75387 0.76720
 O809 O 0.71619 0.75443 0.66943
 O810 O 0.75714 0.78301 0.66521
 O811 O 0.74668 0.78862 0.81703
 O812 O 0.71230 0.75351 0.82133
 O813 O 0.81870 0.74867 0.78839
 O814 O 0.82731 0.71461 0.74875
 O815 O 0.79292 0.82022 0.75020
 O816 O 0.75646 0.83214 0.71573
 O817 O 0.75325 0.82232 0.78460
 O818 O 0.72435 0.83337 0.74270
 O819 O 0.82402 0.78454 0.75037
 O820 O 0.83256 0.74484 0.72038
 O821 O 0.78274 0.74958 0.81911
 O822 O 0.74294 0.71997 0.82486
 O823 O 0.75251 0.71320 0.67180
 O824 O 0.78630 0.74991 0.66683
 O825 O 0.68090 0.75770 0.70087
 O826 O 0.67343 0.78888 0.73978
 O827 O 0.70676 0.68190 0.74031
 O828 O 0.74199 0.67130 0.77419
 Zr829 Zr 0.74572 0.70173 0.74273
 O830 O 0.77132 0.72343 0.77095
 Zr831 Zr 0.70012 0.75372 0.73997
 O832 O 0.72365 0.77772 0.76825
 Zr833 Zr 0.75216 0.75075 0.69459
 O834 O 0.77815 0.77474 0.72080
 Zr835 Zr 0.74690 0.75137 0.79417
 O836 O 0.72070 0.72722 0.76823
 Zr837 Zr 0.79923 0.74867 0.74894
 O838 O 0.77583 0.72434 0.72045
 Zr839 Zr 0.75377 0.80069 0.74637
 O840 O 0.72789 0.77910 0.71766
 O841 O 0.72313 0.72653 0.71536
 O842 O 0.77629 0.77590 0.77385
 C843 C 0.75233 0.68767 0.67974
 C844 C 0.68171 0.69143 0.73998
 C845 C 0.69036 0.75756 0.67589
 C846 C 0.74977 0.81412 0.80979
 C847 C 0.80883 0.74894 0.81327
 C848 C 0.81789 0.81052 0.75118
 H849 H 0.78131 0.71005 0.78294
 H850 H 0.79126 0.78551 0.70924
 H851 H 0.71139 0.71550 0.70244
 H852 H 0.71103 0.78977 0.77919
 H853 H 0.69818 0.74027 0.81414
 H854 H 0.67113 0.76395 0.78428
 H855 H 0.82946 0.75861 0.70542
 H856 H 0.79939 0.73565 0.67396
 H857 H 0.75567 0.70451 0.82003
 H858 H 0.72829 0.67858 0.78777
 H859 H 0.77169 0.82702 0.70284
 H860 H 0.74487 0.79844 0.67133
 H861 H 0.79197 0.67523 0.73631
 H862 H 0.82359 0.70316 0.76541
 H863 H 0.68155 0.80246 0.72664
 H864 H 0.71014 0.83083 0.75737
 O865 O 0.26055 0.67191 0.27662
 O866 O 0.23026 0.66213 0.23898
 O867 O 0.33046 0.71041 0.23876
 O868 O 0.33887 0.74710 0.21185
 O869 O 0.29350 0.74588 0.31212
 O870 O 0.25362 0.77427 0.31987
 O871 O 0.25177 0.78146 0.16680
 O872 O 0.28658 0.74837 0.15911
 O873 O 0.18374 0.74217 0.20047
 O874 O 0.17643 0.70948 0.23915
 O875 O 0.21299 0.81398 0.23770
 O876 O 0.25120 0.82570 0.26852
 O877 O 0.24991 0.81531 0.19984
 O878 O 0.28256 0.82542 0.24049
 O879 O 0.18170 0.77857 0.23882
 O880 O 0.17585 0.73767 0.27004
 O881 O 0.21727 0.74297 0.16716
 O882 O 0.25841 0.71216 0.15958
 O883 O 0.25705 0.70475 0.31061
 O884 O 0.22367 0.74228 0.31845
 O885 O 0.32717 0.74947 0.27908
 O886 O 0.33166 0.78213 0.23974
 O887 O 0.29881 0.67520 0.23666
 O888 O 0.25957 0.66481 0.20716
 Zr889 Zr 0.25977 0.69474 0.23953
 O890 O 0.23204 0.71678 0.21387
 Zr891 Zr 0.30565 0.74657 0.24073
 O892 O 0.28029 0.77059 0.21399
 Zr893 Zr 0.25635 0.74296 0.28899
 O894 O 0.22919 0.76783 0.26503
 Zr895 Zr 0.25496 0.74460 0.18946
 O896 O 0.28319 0.72055 0.21315
 Zr897 Zr 0.20599 0.74214 0.23824
 O898 O 0.23113 0.71696 0.26427
 Zr899 Zr 0.25199 0.79375 0.23812
 O900 O 0.27925 0.77167 0.26513
 O901 O 0.28408 0.71906 0.26594
 O902 O 0.22732 0.76927 0.21216
 C903 C 0.25892 0.67932 0.30227
 C904 C 0.32389 0.68454 0.23669
 C905 C 0.31902 0.74873 0.30459
 C906 C 0.24979 0.80699 0.17432
 C907 C 0.19167 0.74252 0.17495
 C908 C 0.18793 0.80455 0.23829
 H909 H 0.22121 0.70354 0.20241
 H910 H 0.21709 0.77870 0.27765
 H911 H 0.29678 0.70778 0.27764
 H912 H 0.29203 0.78259 0.20216
 H913 H 0.30227 0.73647 0.16530
 H914 H 0.33200 0.75658 0.19493
 H915 H 0.17840 0.75316 0.28341
 H916 H 0.21055 0.72758 0.31235
 H917 H 0.24265 0.69917 0.16210
 H918 H 0.27235 0.67176 0.19260
 H919 H 0.23885 0.81948 0.28372
 H920 H 0.26502 0.79005 0.31319
 H921 H 0.21448 0.66838 0.25070
 H922 H 0.18164 0.69578 0.22466
 H923 H 0.32533 0.79472 0.25480
 H924 H 0.29461 0.82380 0.22387
 O925 O 0.74652 0.31076 0.29378
 O926 O 0.77742 0.31832 0.25456
 O927 O 0.67429 0.27616 0.25188
 O928 O 0.66441 0.23962 0.22544
 O929 O 0.70732 0.23833 0.32669
 O930 O 0.74698 0.20750 0.33469
 O931 O 0.74686 0.19874 0.18356
 O932 O 0.71353 0.23695 0.17657
 O933 O 0.81833 0.23781 0.21551
 O934 O 0.82677 0.26979 0.25578
 O935 O 0.78529 0.16671 0.25479
 O936 O 0.74565 0.15872 0.28675
 O937 O 0.74984 0.16615 0.21769
 O938 O 0.71628 0.15798 0.25643
 O939 O 0.81883 0.19997 0.25345
 O940 O 0.82791 0.23988 0.28477
 O941 O 0.78426 0.23575 0.18266
 O942 O 0.74909 0.26627 0.17247
 O943 O 0.74710 0.27729 0.32712
 O944 O 0.77700 0.23917 0.33569
 O945 O 0.67440 0.23919 0.29251
 O946 O 0.66843 0.20532 0.25491
 O947 O 0.70713 0.31015 0.25502
 O948 O 0.74589 0.31888 0.22432
 Zr949 Zr 0.74531 0.28827 0.25583
 O950 O 0.77123 0.26423 0.22965
 Zr951 Zr 0.69688 0.23900 0.25534
 O952 O 0.72070 0.21264 0.22974
 Zr953 Zr 0.74556 0.23968 0.30480
 O954 O 0.77208 0.21386 0.28113
 Zr955 Zr 0.74711 0.23694 0.20521
 O956 O 0.72098 0.26375 0.22851
 Zr957 Zr 0.79646 0.23787 0.25384
 O958 O 0.77254 0.26410 0.28035
 Zr959 Zr 0.74766 0.18889 0.25480
 O960 O 0.72105 0.21259 0.28065
 O961 O 0.71957 0.26515 0.28146
 O962 O 0.77349 0.21137 0.22829
 C963 C 0.74733 0.30286 0.31939
 C964 C 0.68172 0.30180 0.25287
 C965 C 0.68182 0.23861 0.31816
 C966 C 0.74907 0.17351 0.19210
 C967 C 0.80994 0.23651 0.19003
 C968 C 0.81087 0.17441 0.25375
 H969 H 0.78253 0.27675 0.21794
 H970 H 0.78374 0.20258 0.29379
 H971 H 0.70762 0.27721 0.29317
 H972 H 0.70831 0.20096 0.21814
 H973 H 0.70122 0.25274 0.18165
 H974 H 0.67078 0.22874 0.20914
 H975 H 0.82384 0.22543 0.29879
 H976 H 0.79256 0.25047 0.32835
 H977 H 0.75500 0.28416 0.18073
 H978 H 0.73174 0.31330 0.21034
 H979 H 0.76086 0.16263 0.30013
 H980 H 0.73316 0.19338 0.32877
 H981 H 0.79189 0.31211 0.26789
 H982 H 0.82279 0.28307 0.24058
 H983 H 0.67434 0.19233 0.26975
 H984 H 0.70350 0.16093 0.24052
 C985 C 0.21943 0.08585 0.11598
 C986 C 0.23210 0.09167 0.08995
 C987 C 0.24542 0.11786 0.08709
 C988 C 0.24625 0.13703 0.10920
 C989 C 0.23412 0.13017 0.13500
 C990 C 0.22063 0.10468 0.13808
 C991 C 0.23562 0.14894 0.15735
 C992 C 0.24853 0.17491 0.15406
 C993 C 0.25992 0.18194 0.12809
 C994 C 0.25898 0.16308 0.10591
 H995 H 0.25413 0.12427 0.06738
 H996 H 0.21127 0.09907 0.15779
 H997 H 0.22637 0.14351 0.17719
 H998 H 0.26825 0.16885 0.08621
 H999 H 0.21001 0.06596 0.12047
 H1000 H 0.26995 0.20188 0.12508
 C1001 C 0.72527 0.62542 0.57005
 C1002 C 0.74106 0.60147 0.57567
 C1003 C 0.75698 0.60009 0.60014
 C1004 C 0.75664 0.62214 0.61928
 C1005 C 0.74091 0.64638 0.61343
 C1006 C 0.72547 0.64790 0.58863
 C1007 C 0.74035 0.66830 0.63284
 C1008 C 0.75444 0.66575 0.65839
 C1009 C 0.76977 0.64150 0.66404
 C1010 C 0.77117 0.62002 0.64450
 H1011 H 0.76882 0.58139 0.60470
 H1012 H 0.71315 0.66620 0.58388
 H1013 H 0.72818 0.68684 0.62857
 H1014 H 0.78319 0.60154 0.64935
 H1015 H 0.71282 0.62668 0.55125
 H1016 H 0.78079 0.63924 0.68362
 C1017 C 0.77342 0.92738 0.11988
 C1018 C 0.76174 0.91814 0.09438
 C1019 C 0.75017 0.89114 0.09361
 C1020 C 0.75006 0.87411 0.11719
 C1021 C 0.76159 0.88374 0.14251
 C1022 C 0.77320 0.91046 0.14360
 C1023 C 0.76168 0.86626 0.16604
 C1024 C 0.75089 0.83910 0.16410
 C1025 C 0.73937 0.82999 0.13871
 C1026 C 0.73887 0.84730 0.11558
 H1027 H 0.74232 0.88244 0.07432
 H1028 H 0.78212 0.91833 0.16281
 H1029 H 0.77082 0.87342 0.18544
 H1030 H 0.72992 0.83959 0.09631
 H1031 H 0.78188 0.94811 0.12210
 H1032 H 0.73069 0.80928 0.13668
 C1033 C 0.26119 0.43102 0.62377
 C1034 C 0.25304 0.42168 0.59719
 C1035 C 0.24495 0.39384 0.59371
 C1036 C 0.24469 0.37560 0.61630
 C1037 C 0.25275 0.38503 0.64303
 C1038 C 0.26100 0.41285 0.64654
 C1039 C 0.25264 0.36638 0.66559
 C1040 C 0.24479 0.33844 0.66147
 C1041 C 0.23665 0.32961 0.63468
 C1042 C 0.23658 0.34796 0.61239
 H1043 H 0.23924 0.38619 0.57322
 H1044 H 0.26729 0.42054 0.66682
 H1045 H 0.25907 0.37345 0.68607
 H1046 H 0.23028 0.34047 0.59202
 H1047 H 0.26739 0.45245 0.62700
 H1048 H 0.23027 0.30834 0.63081
 C1049 C 0.74626 0.12364 0.92128
 C1050 C 0.75671 0.09765 0.91262
 C1051 C 0.76760 0.09483 0.88569
 C1052 C 0.76743 0.11747 0.86735
 C1053 C 0.75663 0.14348 0.87613
 C1054 C 0.74631 0.14638 0.90324
 C1055 C 0.75578 0.16591 0.85746
 C1056 C 0.76504 0.16243 0.82995
 C1057 C 0.77611 0.13656 0.82165
 C1058 C 0.77742 0.11436 0.84019
 H1059 H 0.77550 0.07483 0.87876
 H1060 H 0.73801 0.16612 0.91039
 H1061 H 0.74711 0.18571 0.86403
 H1062 H 0.78586 0.09463 0.83314
 H1063 H 0.73816 0.12641 0.94214
 H1064 H 0.78367 0.13339 0.80064
 C1065 C 0.24830 0.62559 0.41877
 C1066 C 0.25461 0.59814 0.41076
 C1067 C 0.26156 0.59248 0.38295
 C1068 C 0.26147 0.61391 0.36317
 C1069 C 0.25485 0.64143 0.37140
 C1070 C 0.24854 0.64708 0.39931
 C1071 C 0.25432 0.66279 0.35156
 C1072 C 0.25994 0.65698 0.32343
 C1073 C 0.26659 0.62951 0.31554
 C1074 C 0.26744 0.60823 0.33522
 H1075 H 0.26625 0.57131 0.37660
 H1076 H 0.24351 0.66804 0.40602
 H1077 H 0.24914 0.68381 0.35799
 H1078 H 0.27255 0.58728 0.32852
 H1079 H 0.24319 0.63042 0.44020
 H1080 H 0.27123 0.62439 0.29407
 C1081 C 0.25709 0.87977 0.92268
 C1082 C 0.25051 0.90633 0.91238
 C1083 C 0.24627 0.90969 0.88359
 C1084 C 0.24806 0.88684 0.86541
 C1085 C 0.25412 0.86011 0.87603
 C1086 C 0.25880 0.85685 0.90469
 C1087 C 0.25509 0.83711 0.85786
 C1088 C 0.25016 0.84049 0.82913
 C1089 C 0.24466 0.86735 0.81886
 C1090 C 0.24359 0.89025 0.83680
 H1091 H 0.24162 0.93015 0.87533
 H1092 H 0.26351 0.83654 0.91324
 H1093 H 0.25941 0.81660 0.86617
 H1094 H 0.23897 0.91060 0.82830
 H1095 H 0.26029 0.87662 0.94477
 H1096 H 0.24065 0.87068 0.79692
 C1097 C 0.72906 0.41874 0.37417
 C1098 C 0.73592 0.41123 0.40166
 C1099 C 0.74463 0.38379 0.40698
 C1100 C 0.74603 0.36409 0.38528
 C1101 C 0.73895 0.37190 0.35780
 C1102 C 0.73058 0.39933 0.35249
 C1103 C 0.74003 0.35210 0.33616
 C1104 C 0.74773 0.32438 0.34170
 C1105 C 0.75484 0.31696 0.36916
 C1106 C 0.75411 0.33660 0.39067
 H1107 H 0.74975 0.37762 0.42806
 H1108 H 0.72512 0.40575 0.33157
 H1109 H 0.73426 0.35813 0.31520
 H1110 H 0.75963 0.33020 0.41158
 H1111 H 0.72277 0.43983 0.36934
 H1112 H 0.76095 0.29584 0.37411
 C1113 C 0.12193 0.27798 0.07768
 C1114 C 0.09623 0.26682 0.08662
 C1115 C 0.09410 0.25800 0.11454
 C1116 C 0.11687 0.25957 0.13271
 C1117 C 0.14269 0.26983 0.12321
 C1118 C 0.14493 0.27918 0.09569
 C1119 C 0.16574 0.27046 0.14140
 C1120 C 0.16294 0.26139 0.16910
 C1121 C 0.13683 0.25190 0.17835
 C1122 C 0.11409 0.25090 0.16034
 H1123 H 0.07439 0.25080 0.12275
 H1124 H 0.16454 0.28721 0.08798
 H1125 H 0.18570 0.27797 0.13406
 H1126 H 0.09437 0.24309 0.16799
 H1127 H 0.12489 0.28462 0.05640
 H1128 H 0.13405 0.24458 0.19947
 C1129 C 0.62184 0.72317 0.57224
 C1130 C 0.60077 0.74331 0.57513
 C1131 C 0.60323 0.76373 0.59594
 C1132 C 0.62591 0.76345 0.61442
 C1133 C 0.64705 0.74306 0.61148
 C1134 C 0.64499 0.72326 0.59005
 C1135 C 0.66920 0.74220 0.63072
 C1136 C 0.66969 0.76070 0.65343
 C1137 C 0.64868 0.78090 0.65603
 C1138 C 0.62721 0.78255 0.63647
 H1139 H 0.58680 0.77904 0.59853
 H1140 H 0.66088 0.70740 0.58752
 H1141 H 0.68515 0.72628 0.62894
 H1142 H 0.61114 0.79821 0.63909
 H1143 H 0.62025 0.70727 0.55628
 H1144 H 0.64877 0.79526 0.67346
 C1145 C 0.07135 0.74208 0.88056
 C1146 C 0.07934 0.75372 0.90642
 C1147 C 0.10743 0.76199 0.90984
 C1148 C 0.12675 0.75898 0.88823
 C1149 C 0.11820 0.74782 0.86240
 C1150 C 0.09049 0.73938 0.85881
 C1151 C 0.13752 0.74524 0.84065
 C1152 C 0.16546 0.75334 0.84455
 C1153 C 0.17380 0.76397 0.87056
 C1154 C 0.15461 0.76686 0.89215
 H1155 H 0.11487 0.76971 0.92970
 H1156 H 0.08354 0.73080 0.83909
 H1157 H 0.13084 0.73679 0.82078
 H1158 H 0.16155 0.77537 0.91190
 H1159 H 0.05001 0.73604 0.87649
 H1160 H 0.19512 0.77050 0.87412
 C1161 C 0.61971 0.21278 0.42780
 C1162 C 0.59382 0.22412 0.41995
 C1163 C 0.59109 0.23695 0.39393
 C1164 C 0.61381 0.23816 0.37575
 C1165 C 0.63981 0.22668 0.38374
 C1166 C 0.64255 0.21412 0.40988
 C1167 C 0.66243 0.22755 0.36526
 C1168 C 0.65908 0.23920 0.33871
 C1169 C 0.63319 0.25079 0.33117
 C1170 C 0.61082 0.25039 0.34956
 H1171 H 0.57113 0.24552 0.38764
 H1172 H 0.66228 0.20524 0.41641
 H1173 H 0.68228 0.21847 0.37117
 H1174 H 0.59108 0.25936 0.34315
 H1175 H 0.62237 0.20316 0.44799
 H1176 H 0.63019 0.26018 0.31091
 C1177 C 0.91597 0.78909 0.12073
 C1178 C 0.91618 0.76589 0.10259
 C1179 C 0.89779 0.74369 0.10820
 C1180 C 0.87888 0.74521 0.13036
 C1181 C 0.87903 0.76859 0.14829
 C1182 C 0.89793 0.79020 0.14351
 C1183 C 0.85960 0.77036 0.17006
 C1184 C 0.83928 0.74965 0.17315
 C1185 C 0.83910 0.72663 0.15515
 C1186 C 0.85904 0.72417 0.13419
 H1187 H 0.89658 0.72600 0.09422
 H1188 H 0.89838 0.80827 0.15707
 H1189 H 0.85939 0.78837 0.18372
 H1190 H 0.85848 0.70620 0.12052
 H1191 H 0.93028 0.80623 0.11789
 H1192 H 0.82341 0.71059 0.15732
 C1193 C 0.42279 0.24457 0.62929
 C1194 C 0.41377 0.23648 0.60263
 C1195 C 0.38526 0.23210 0.59777
 C1196 C 0.36588 0.23574 0.61918
 C1197 C 0.37505 0.24363 0.64605
 C1198 C 0.40358 0.24797 0.65091
 C1199 C 0.35549 0.24723 0.66748
 C1200 C 0.32688 0.24338 0.66220
 C1201 C 0.31813 0.23568 0.63529
 C1202 C 0.33745 0.23180 0.61402
 H1203 H 0.37809 0.22638 0.57710
 H1204 H 0.41100 0.25409 0.67135
 H1205 H 0.36251 0.25333 0.68808
 H1206 H 0.33012 0.22579 0.59351
 H1207 H 0.44472 0.24801 0.63343
 H1208 H 0.29627 0.23243 0.63065
 C1209 C 0.87797 0.27058 0.92138
 C1210 C 0.90462 0.25993 0.91474
 C1211 C 0.90946 0.25132 0.88692
 C1212 C 0.88839 0.25296 0.86663
 C1213 C 0.86174 0.26292 0.87399
 C1214 C 0.85680 0.27180 0.90135
 C1215 C 0.84040 0.26365 0.85392
 C1216 C 0.84544 0.25489 0.82636
 C1217 C 0.87233 0.24584 0.81907
 C1218 C 0.89357 0.24476 0.83904
 H1219 H 0.92992 0.24429 0.88051
 H1220 H 0.83644 0.27951 0.90735
 H1221 H 0.81983 0.27092 0.85980
 H1222 H 0.91398 0.23722 0.83296
 H1223 H 0.87281 0.27686 0.94238
 H1224 H 0.87677 0.23884 0.79808
 C1225 C 0.37365 0.72607 0.41950
 C1226 C 0.39837 0.74096 0.41500
 C1227 C 0.40214 0.75502 0.38968
 C1228 C 0.38160 0.75381 0.36880
 C1229 C 0.35659 0.73908 0.37364
 C1230 C 0.35277 0.72540 0.39912
 C1231 C 0.33604 0.73791 0.35277
 C1232 C 0.34045 0.75059 0.32677
 C1233 C 0.36558 0.76480 0.32205
 C1234 C 0.38585 0.76664 0.34296
 H1235 H 0.42141 0.76617 0.38598
 H1236 H 0.33382 0.71387 0.40314
 H1237 H 0.31688 0.72658 0.35653
 H1238 H 0.40495 0.77788 0.33883
 H1239 H 0.37053 0.71501 0.43885
 H1240 H 0.36943 0.77477 0.30225
 C1241 C 0.13400 0.07463 0.25040
 C1242 C 0.10630 0.08359 0.24707
 C1243 C 0.10066 0.11227 0.24556
 C1244 C 0.12235 0.13177 0.24688
 C1245 C 0.15020 0.12258 0.24964
 C1246 C 0.15579 0.09396 0.25154
 C1247 C 0.17194 0.14217 0.25030
 C1248 C 0.16617 0.17088 0.24845
 C1249 C 0.13827 0.17966 0.24616
 C1250 C 0.11660 0.16031 0.24532
 H1251 H 0.07931 0.11942 0.24348
 H1252 H 0.17701 0.08652 0.25374
 H1253 H 0.19331 0.13503 0.25220
 H1254 H 0.09534 0.16769 0.24325
 H1255 H 0.13882 0.05264 0.25153
 H1256 H 0.13314 0.20156 0.24457
 C1257 C 0.62543 0.57557 0.73085
 C1258 C 0.59807 0.58444 0.73631
 C1259 C 0.59275 0.61295 0.74030
 C1260 C 0.61450 0.63233 0.73954
 C1261 C 0.64207 0.62320 0.73467
 C1262 C 0.64729 0.59480 0.73011
 C1263 C 0.66392 0.64258 0.73466
 C1264 C 0.65857 0.67105 0.73934
 C1265 C 0.63094 0.67987 0.74366
 C1266 C 0.60913 0.66069 0.74381
 H1267 H 0.57161 0.62004 0.74401
 H1268 H 0.66830 0.58743 0.72626
 H1269 H 0.68506 0.63545 0.73106
 H1270 H 0.58807 0.66801 0.74748
 H1271 H 0.62999 0.55370 0.72779
 H1272 H 0.62616 0.70161 0.74729
 C1273 C 0.93006 0.12660 0.76516
 C1274 C 0.92406 0.10189 0.75025
 C1275 C 0.89971 0.10132 0.73365
 C1276 C 0.88138 0.12401 0.73299
 C1277 C 0.88753 0.14834 0.74838
 C1278 C 0.91215 0.14956 0.76402
 C1279 C 0.86839 0.17052 0.74872
 C1280 C 0.84277 0.16805 0.73471
 C1281 C 0.83708 0.14393 0.71916
 C1282 C 0.85634 0.12223 0.71803
 H1283 H 0.89362 0.08255 0.72272
 H1284 H 0.91734 0.16811 0.77583
 H1285 H 0.87270 0.18896 0.76107
 H1286 H 0.85126 0.10371 0.70614
 H1287 H 0.94895 0.12865 0.77733
 H1288 H 0.81746 0.14171 0.70817
 C1289 C 0.43605 0.62787 0.26572
 C1290 C 0.43103 0.60283 0.25140
 C1291 C 0.40672 0.60003 0.23536
 C1292 C 0.38710 0.62159 0.23433
 C1293 C 0.39214 0.64672 0.24890
 C1294 C 0.41688 0.64978 0.26425
 C1295 C 0.37193 0.66790 0.24863
 C1296 C 0.34643 0.66377 0.23475
 C1297 C 0.34181 0.63882 0.22017
 C1298 C 0.36208 0.61802 0.21970
 H1299 H 0.40250 0.58057 0.22467
 H1300 H 0.42109 0.66883 0.27561
 H1301 H 0.37549 0.68699 0.26018
 H1302 H 0.35790 0.59888 0.20847
 H1303 H 0.45474 0.63036 0.27817
 H1304 H 0.32236 0.63532 0.20921
 C1305 C 0.11633 0.91427 0.78399
 C1306 C 0.09187 0.90982 0.76810
 C1307 C 0.09047 0.88564 0.75132
 C1308 C 0.11276 0.86672 0.75030
 C1309 C 0.13728 0.87205 0.76574
 C1310 C 0.13878 0.89579 0.78258
 C1311 C 0.15970 0.85328 0.76445
 C1312 C 0.15743 0.82872 0.74873
 C1313 C 0.13282 0.82333 0.73382
 C1314 C 0.11078 0.84234 0.73430
 H1315 H 0.07168 0.88079 0.73975
 H1316 H 0.15741 0.90017 0.79463
 H1317 H 0.17846 0.85723 0.77646
 H1318 H 0.09207 0.83780 0.72246
 H1319 H 0.11900 0.93281 0.79652
 H1320 H 0.13068 0.80438 0.72173
 C1321 C 0.62318 0.41326 0.28039
 C1322 C 0.59715 0.40688 0.26844
 C1323 C 0.59332 0.38090 0.25552
 C1324 C 0.61522 0.36158 0.25440
 C1325 C 0.64141 0.36834 0.26617
 C1326 C 0.64513 0.39419 0.27923
 C1327 C 0.66337 0.34907 0.26490
 C1328 C 0.65931 0.32287 0.25248
 C1329 C 0.63314 0.31633 0.24096
 C1330 C 0.61135 0.33558 0.24175
 H1331 H 0.57325 0.37571 0.24647
 H1332 H 0.66504 0.39971 0.28840
 H1333 H 0.68335 0.35417 0.27420
 H1334 H 0.59141 0.33004 0.23265
 H1335 H 0.62675 0.43332 0.29008
 H1336 H 0.62951 0.29626 0.23130
 C1337 C 0.88681 0.92147 0.22190
 C1338 C 0.90703 0.92007 0.24329
 C1339 C 0.90366 0.89964 0.26414
 C1340 C 0.88148 0.88059 0.26301
 C1341 C 0.86132 0.88263 0.24162
 C1342 C 0.86406 0.90331 0.22135
 C1343 C 0.83916 0.86353 0.24050
 C1344 C 0.83766 0.84165 0.25977
 C1345 C 0.85809 0.83944 0.28061
 C1346 C 0.87957 0.85898 0.28249
 H1347 H 0.91923 0.89722 0.28033
 H1348 H 0.84881 0.90520 0.20479
 H1349 H 0.82365 0.86506 0.22410
 H1350 H 0.89496 0.85692 0.29891
 H1351 H 0.88793 0.93724 0.20591
 H1352 H 0.85725 0.82269 0.29562
 C1353 C 0.37472 0.42617 0.73672
 C1354 C 0.40149 0.41641 0.74364
 C1355 C 0.40502 0.38813 0.75022
 C1356 C 0.38223 0.36988 0.75013
 C1357 C 0.35534 0.37993 0.74345
 C1358 C 0.35183 0.40812 0.73671
 C1359 C 0.33251 0.36158 0.74351
 C1360 C 0.33629 0.33321 0.74990
 C1361 C 0.36324 0.32357 0.75635
 C1362 C 0.38594 0.34171 0.75654
 H1363 H 0.42564 0.38021 0.75509
 H1364 H 0.33139 0.41621 0.73148
 H1365 H 0.31193 0.36934 0.73828
 H1366 H 0.40643 0.33367 0.76167
 H1367 H 0.37142 0.44789 0.73173
 H1368 H 0.36685 0.30191 0.76139
 C1369 C 0.11933 0.24239 0.92676
 C1370 C 0.09376 0.25518 0.91951
 C1371 C 0.09120 0.26631 0.89243
 C1372 C 0.11320 0.26488 0.87338
 C1373 C 0.13868 0.25234 0.88110
 C1374 C 0.14151 0.24117 0.90786
 C1375 C 0.16066 0.25090 0.86175
 C1376 C 0.15709 0.26141 0.83464
 C1377 C 0.13150 0.27374 0.82734
 C1378 C 0.10985 0.27556 0.84651
 H1379 H 0.07161 0.27499 0.88532
 H1380 H 0.16091 0.23148 0.91423
 H1381 H 0.18019 0.24111 0.86756
 H1382 H 0.09040 0.28521 0.84024
 H1383 H 0.12285 0.23414 0.94740
 H1384 H 0.12818 0.28215 0.80670
 C1385 C 0.61847 0.73533 0.42476
 C1386 C 0.59197 0.74396 0.41559
 C1387 C 0.58898 0.75387 0.38824
 C1388 C 0.61201 0.75536 0.37037
 C1389 C 0.63863 0.74688 0.37981
 C1390 C 0.64160 0.73683 0.40706
 C1391 C 0.66166 0.74841 0.36174
 C1392 C 0.65827 0.75800 0.33425
 C1393 C 0.63159 0.76632 0.32526
 C1394 C 0.60876 0.76511 0.34313
 H1395 H 0.56860 0.76012 0.38070
 H1396 H 0.66180 0.73016 0.41470
 H1397 H 0.68202 0.74167 0.36891
 H1398 H 0.58850 0.77167 0.33557
 H1399 H 0.62140 0.72782 0.44579
 H1400 H 0.62829 0.77385 0.30428
 C1401 C 0.91826 0.77231 0.87850
 C1402 C 0.90952 0.76202 0.90460
 C1403 C 0.88221 0.75117 0.90657
 C1404 C 0.86448 0.75022 0.88340
 C1405 C 0.87377 0.76011 0.85740
 C1406 C 0.90068 0.77118 0.85521
 C1407 C 0.85584 0.75906 0.83420
 C1408 C 0.82853 0.74877 0.83698
 C1409 C 0.81956 0.73915 0.86307
 C1410 C 0.83738 0.73974 0.88600
 H1411 H 0.87397 0.74444 0.92639
 H1412 H 0.90821 0.77889 0.83543
 H1413 H 0.86286 0.76685 0.81426
 H1414 H 0.82990 0.73213 0.90583
 H1415 H 0.93913 0.78022 0.87548
 H1416 H 0.79868 0.73106 0.86576
 C1417 C 0.38030 0.25035 0.42192
 C1418 C 0.40741 0.24277 0.41381
 C1419 C 0.41294 0.23743 0.38555
 C1420 C 0.39160 0.23993 0.36560
 C1421 C 0.36443 0.24749 0.37414
 C1422 C 0.35901 0.25266 0.40230
 C1423 C 0.34301 0.24972 0.35445
 C1424 C 0.34819 0.24464 0.32609
 C1425 C 0.37535 0.23750 0.31767
 C1426 C 0.39686 0.23508 0.33727
 H1427 H 0.43383 0.23173 0.37911
 H1428 H 0.33828 0.25842 0.40917
 H1429 H 0.32227 0.25552 0.36130
 H1430 H 0.41755 0.22935 0.33029
 H1431 H 0.37546 0.25415 0.44361
 H1432 H 0.37993 0.23348 0.29596
 C1433 C 0.07483 0.76171 0.12295
 C1434 C 0.08179 0.75411 0.09557
 C1435 C 0.10916 0.74555 0.08960
 C1436 C 0.12936 0.74450 0.11065
 C1437 C 0.12215 0.75187 0.13822
 C1438 C 0.09482 0.76046 0.14416
 C1439 C 0.14245 0.75075 0.15928
 C1440 C 0.16999 0.74278 0.15303
 C1441 C 0.17688 0.73569 0.12547
 C1442 C 0.15673 0.73641 0.10451
 H1443 H 0.11483 0.74013 0.06843
 H1444 H 0.08893 0.76627 0.16515
 H1445 H 0.13692 0.75657 0.18039
 H1446 H 0.16259 0.73076 0.08346
 H1447 H 0.05382 0.76829 0.12798
 H1448 H 0.19790 0.72945 0.12009
 C1449 C 0.61290 0.20291 0.59038
 C1450 C 0.58971 0.22018 0.59487
 C1451 C 0.58961 0.23868 0.61750
 C1452 C 0.61275 0.24044 0.63520
 C1453 C 0.63649 0.22371 0.62998
 C1454 C 0.63622 0.20476 0.60773
 C1455 C 0.66003 0.22621 0.64712
 C1456 C 0.65972 0.24455 0.66987
 C1457 C 0.63588 0.26064 0.67528
 C1458 C 0.61266 0.25883 0.65787
 H1459 H 0.57163 0.25192 0.62106
 H1460 H 0.65415 0.19166 0.60355
 H1461 H 0.67830 0.21346 0.64324
 H1462 H 0.59460 0.27171 0.66221
 H1463 H 0.61337 0.18874 0.57280
 H1464 H 0.63538 0.27482 0.69285
 C1465 C 0.92155 0.26048 0.12945
 C1466 C 0.91306 0.25206 0.10263
 C1467 C 0.88630 0.24071 0.09911
 C1468 C 0.86807 0.23844 0.12185
 C1469 C 0.87669 0.24733 0.14863
 C1470 C 0.90359 0.25811 0.15220
 C1471 C 0.85808 0.24582 0.17121
 C1472 C 0.83076 0.23599 0.16721
 C1473 C 0.82270 0.22675 0.14051
 C1474 C 0.84115 0.22787 0.11814
 H1475 H 0.87940 0.23431 0.07856
 H1476 H 0.91067 0.26492 0.17254
 H1477 H 0.86457 0.25309 0.19161
 H1478 H 0.83420 0.22084 0.09782
 H1479 H 0.94225 0.26878 0.13289
 H1480 H 0.80189 0.21880 0.13681
 C1481 C 0.41909 0.74609 0.62598
 C1482 C 0.41006 0.73966 0.59882
 C1483 C 0.38192 0.73251 0.59448
 C1484 C 0.36298 0.73255 0.61686
 C1485 C 0.37234 0.73938 0.64396
 C1486 C 0.40048 0.74588 0.64830
 C1487 C 0.35339 0.73999 0.66624
 C1488 C 0.32493 0.73423 0.66187
 C1489 C 0.31592 0.72721 0.63482
 C1490 C 0.33474 0.72629 0.61260
 H1491 H 0.37466 0.72764 0.57365
 H1492 H 0.40808 0.75104 0.66894
 H1493 H 0.36077 0.74549 0.68688
 H1494 H 0.32712 0.72097 0.59200
 H1495 H 0.44071 0.75117 0.63000
 H1496 H 0.29421 0.72253 0.63074
 C1497 C 0.22556 0.12935 0.92624
 C1498 C 0.23337 0.10283 0.91653
 C1499 C 0.23990 0.09934 0.88829
 C1500 C 0.23929 0.12193 0.87004
 C1501 C 0.23201 0.14873 0.87989
 C1502 C 0.22499 0.15217 0.90808
 C1503 C 0.23190 0.17143 0.86133
 C1504 C 0.23864 0.16731 0.83307
 C1505 C 0.24562 0.14037 0.82379
 C1506 C 0.24600 0.11800 0.84203
 H1507 H 0.24538 0.07887 0.88045
 H1508 H 0.21921 0.17247 0.91610
 H1509 H 0.22631 0.19202 0.86873
 H1510 H 0.25162 0.09757 0.83420
 H1511 H 0.22045 0.13251 0.94797
 H1512 H 0.25112 0.13650 0.80226
 C1513 C 0.72079 0.62806 0.42693
 C1514 C 0.73433 0.60335 0.41875
 C1515 C 0.74798 0.60257 0.39294
 C1516 C 0.74825 0.62588 0.37557
 C1517 C 0.73468 0.65071 0.38381
 C1518 C 0.72103 0.65157 0.40965
 C1519 C 0.73463 0.67389 0.36580
 C1520 C 0.74756 0.67201 0.33956
 C1521 C 0.76124 0.64719 0.33204
 C1522 C 0.76167 0.62446 0.34983
 H1523 H 0.75796 0.58352 0.38602
 H1524 H 0.71044 0.67033 0.41642
 H1525 H 0.72389 0.69286 0.37174
 H1526 H 0.77224 0.60560 0.34327
 H1527 H 0.71024 0.62928 0.44680
 H1528 H 0.77162 0.64527 0.31212
 C1529 C 0.72024 0.10478 0.08714
 C1530 C 0.74136 0.08479 0.09030
 C1531 C 0.75932 0.08614 0.11329
 C1532 C 0.75656 0.10758 0.13285
 C1533 C 0.73586 0.12828 0.12909
 C1534 C 0.71761 0.12652 0.10632
 C1535 C 0.73380 0.15031 0.14819
 C1536 C 0.75157 0.15125 0.17137
 C1537 C 0.77162 0.13032 0.17526
 C1538 C 0.77431 0.10878 0.15598
 H1539 H 0.77554 0.07059 0.11577
 H1540 H 0.70153 0.14207 0.10321
 H1541 H 0.71810 0.16633 0.14542
 H1542 H 0.79020 0.09306 0.15920
 H1543 H 0.70640 0.10406 0.06930
 H1544 H 0.78549 0.13091 0.19307
 C1545 C 0.21382 0.60677 0.59130
 C1546 C 0.23347 0.58546 0.59516
 C1547 C 0.24970 0.58491 0.61947
 C1548 C 0.24687 0.60596 0.63954
 C1549 C 0.22794 0.62809 0.63490
 C1550 C 0.21119 0.62806 0.61095
 C1551 C 0.22648 0.65013 0.65399
 C1552 C 0.24320 0.65002 0.67799
 C1553 C 0.26105 0.62740 0.68308
 C1554 C 0.26307 0.60564 0.66386
 H1555 H 0.26480 0.56836 0.62247
 H1556 H 0.19645 0.64474 0.60718
 H1557 H 0.21245 0.66743 0.65017
 H1558 H 0.27753 0.58876 0.66783
 H1559 H 0.20130 0.60751 0.57252
 H1560 H 0.27413 0.62705 0.70150
 C1561 C 0.78146 0.92202 0.87337
 C1562 C 0.76362 0.91805 0.89613
 C1563 C 0.74630 0.89458 0.89685
 C1564 C 0.74697 0.87497 0.87522
 C1565 C 0.76462 0.87926 0.85207
 C1566 C 0.78173 0.90293 0.85130
 C1567 C 0.76511 0.85959 0.83036
 C1568 C 0.74887 0.83532 0.83203
 C1569 C 0.73179 0.83113 0.85534
 C1570 C 0.73061 0.85091 0.87661
 H1571 H 0.73285 0.89126 0.91465
 H1572 H 0.79553 0.90648 0.83384
 H1573 H 0.77859 0.86280 0.81256
 H1574 H 0.71710 0.84726 0.89427
 H1575 H 0.79502 0.94000 0.87263
 H1576 H 0.71903 0.81262 0.85695
 C1577 C 0.25680 0.42701 0.37378
 C1578 C 0.26208 0.41789 0.40106
 C1579 C 0.26754 0.38950 0.40573
 C1580 C 0.26744 0.37043 0.38355
 C1581 C 0.26205 0.37983 0.35622
 C1582 C 0.25688 0.40817 0.35155
 C1583 C 0.26154 0.36069 0.33409
 C1584 C 0.26601 0.33212 0.33889
 C1585 C 0.27153 0.32308 0.36617
 C1586 C 0.27232 0.34206 0.38827
 H1587 H 0.27123 0.38214 0.42673
 H1588 H 0.25274 0.41575 0.33072
 H1589 H 0.25717 0.36805 0.31322
 H1590 H 0.27653 0.33450 0.40909
 H1591 H 0.25279 0.44879 0.36964
 H1592 H 0.27520 0.30128 0.37050
 C1593 C 0.25114 0.92344 0.11923
 C1594 C 0.24607 0.91457 0.09175
 C1595 C 0.24165 0.88619 0.08642
 C1596 C 0.24297 0.86680 0.10818
 C1597 C 0.24836 0.87591 0.13571
 C1598 C 0.25219 0.90432 0.14102
 C1599 C 0.25016 0.85644 0.15739
 C1600 C 0.24705 0.82788 0.15185
 C1601 C 0.24148 0.81915 0.12437
 C1602 C 0.23939 0.83840 0.10280
 H1603 H 0.23790 0.87915 0.06527
 H1604 H 0.25623 0.91173 0.16198
 H1605 H 0.25447 0.86350 0.17842
 H1606 H 0.23519 0.83104 0.08186
 H1607 H 0.25418 0.94530 0.12389
 H1608 H 0.23870 0.79732 0.11945
 C1609 C 0.75223 0.42439 0.61939
 C1610 C 0.74169 0.41544 0.59350
 C1611 C 0.73183 0.38803 0.59088
 C1612 C 0.73326 0.36961 0.61355
 C1613 C 0.74422 0.37877 0.63938
 C1614 C 0.75340 0.40631 0.64210
 C1615 C 0.74633 0.36010 0.66183
 C1616 C 0.73816 0.33217 0.65862
 C1617 C 0.72695 0.32349 0.63289
 C1618 C 0.72440 0.34200 0.61068
 H1619 H 0.72382 0.38082 0.57101
 H1620 H 0.76177 0.41379 0.66171
 H1621 H 0.75510 0.36709 0.68146
 H1622 H 0.71588 0.33459 0.59111
 H1623 H 0.75952 0.44555 0.62211
 H1624 H 0.72020 0.30219 0.62983
 C1625 C 0.11548 0.08343 0.73292
 C1626 C 0.09055 0.08994 0.74676
 C1627 C 0.08673 0.11674 0.75788
 C1628 C 0.10780 0.13679 0.75549
 C1629 C 0.13312 0.12977 0.74215
 C1630 C 0.13666 0.10314 0.73074
 C1631 C 0.15460 0.14939 0.74068
 C1632 C 0.15105 0.17614 0.75198
 C1633 C 0.12556 0.18323 0.76451
 C1634 C 0.10415 0.16364 0.76641
 H1635 H 0.06740 0.12191 0.76837
 H1636 H 0.15590 0.09748 0.72038
 H1637 H 0.17408 0.14383 0.73068
 H1638 H 0.08484 0.16942 0.77659
 H1639 H 0.11887 0.06279 0.72444
 H1640 H 0.12242 0.20374 0.77342
 C1641 C 0.63002 0.57950 0.24515
 C1642 C 0.60283 0.58737 0.25268
 C1643 C 0.59713 0.61538 0.25888
 C1644 C 0.61837 0.63535 0.25752
 C1645 C 0.64572 0.62717 0.25019
 C1646 C 0.65131 0.59921 0.24400
 C1647 C 0.66704 0.64705 0.24919
 C1648 C 0.66134 0.67515 0.25507
 C1649 C 0.63399 0.68311 0.26204
 C1650 C 0.61272 0.66337 0.26335
 H1651 H 0.57614 0.62163 0.26446
 H1652 H 0.67215 0.59257 0.23835
 H1653 H 0.68799 0.64066 0.24363
 H1654 H 0.59187 0.67002 0.26897
 H1655 H 0.63489 0.55795 0.24059
 H1656 H 0.62907 0.70460 0.26683
 C1657 C 0.12666 0.91749 0.22211
 C1658 C 0.10059 0.90953 0.23320
 C1659 C 0.09751 0.88169 0.24214
 C1660 C 0.11969 0.86272 0.24070
 C1661 C 0.14580 0.87133 0.23039
 C1662 C 0.14898 0.89870 0.22096
 C1663 C 0.16820 0.85238 0.22969
 C1664 C 0.16456 0.82476 0.23872
 C1665 C 0.13822 0.81639 0.24834
 C1666 C 0.11607 0.83518 0.24944
 H1667 H 0.07753 0.87417 0.24936
 H1668 H 0.16885 0.90570 0.21290
 H1669 H 0.18830 0.85904 0.22189
 H1670 H 0.09611 0.82818 0.25727
 H1671 H 0.13049 0.93862 0.21548
 H1672 H 0.13479 0.79530 0.25546
 C1673 C 0.62542 0.42439 0.75345
 C1674 C 0.59828 0.41417 0.74930
 C1675 C 0.59418 0.38534 0.74678
 C1676 C 0.61682 0.36694 0.74798
 C1677 C 0.64414 0.37735 0.75165
 C1678 C 0.64819 0.40614 0.75450
 C1679 C 0.66684 0.35877 0.75231
 C1680 C 0.66245 0.32991 0.74959
 C1681 C 0.63504 0.31996 0.74630
 C1682 C 0.61251 0.33826 0.74544
 H1683 H 0.57328 0.37721 0.74406
 H1684 H 0.66894 0.41455 0.75739
 H1685 H 0.68780 0.36677 0.75494
 H1686 H 0.59169 0.32996 0.74265
 H1687 H 0.62906 0.44656 0.75533
 H1688 H 0.63092 0.29792 0.74403
 C1689 C 0.92854 0.12084 0.26015
 C1690 C 0.92052 0.09351 0.25337
 C1691 C 0.89233 0.08784 0.24787
 C1692 C 0.87234 0.10916 0.24936
 C1693 C 0.88063 0.13664 0.25598
 C1694 C 0.90881 0.14224 0.26131
 C1695 C 0.86060 0.15799 0.25727
 C1696 C 0.83227 0.15214 0.25247
 C1697 C 0.82432 0.12462 0.24618
 C1698 C 0.84415 0.10341 0.24449
 H1699 H 0.88594 0.06678 0.24288
 H1700 H 0.91559 0.16314 0.26643
 H1701 H 0.86705 0.17903 0.26228
 H1702 H 0.83740 0.08247 0.23944
 H1703 H 0.95022 0.12572 0.26419
 H1704 H 0.80270 0.11943 0.24231
 C1705 C 0.42235 0.62232 0.73344
 C1706 C 0.41446 0.59546 0.74194
 C1707 C 0.38736 0.59121 0.75205
 C1708 C 0.36833 0.61336 0.75342
 C1709 C 0.37642 0.64025 0.74470
 C1710 C 0.40353 0.64450 0.73480
 C1711 C 0.35720 0.66233 0.74577
 C1712 C 0.32986 0.65778 0.75520
 C1713 C 0.32221 0.63092 0.76398
 C1714 C 0.34124 0.60898 0.76315
 H1715 H 0.38094 0.57057 0.75841
 H1716 H 0.41017 0.66495 0.72810
 H1717 H 0.36338 0.68284 0.73877
 H1718 H 0.33468 0.58853 0.76994
 H1719 H 0.44327 0.62627 0.72600
 H1720 H 0.30135 0.62672 0.77144
 C1721 C 0.87786 0.92133 0.77917
 C1722 C 0.90434 0.91377 0.76916
 C1723 C 0.90843 0.88688 0.75835
 C1724 C 0.88625 0.86793 0.75706
 C1725 C 0.85951 0.87597 0.76650
 C1726 C 0.85561 0.90263 0.77778
 C1727 C 0.83714 0.85726 0.76436
 C1728 C 0.84127 0.83043 0.75333
 C1729 C 0.86810 0.82251 0.74457
 C1730 C 0.89034 0.84113 0.74626
 H1731 H 0.92886 0.88077 0.75088
 H1732 H 0.83531 0.90912 0.78525
 H1733 H 0.81662 0.86347 0.77151
 H1734 H 0.91072 0.83459 0.73904
 H1735 H 0.87419 0.94204 0.78736
 H1736 H 0.87184 0.80197 0.73600
 C1737 C 0.38496 0.42271 0.27931
 C1738 C 0.41086 0.41584 0.26747
 C1739 C 0.41422 0.38976 0.25458
 C1740 C 0.39196 0.37090 0.25325
 C1741 C 0.36586 0.37819 0.26480
 C1742 C 0.36263 0.40409 0.27794
 C1743 C 0.34346 0.35946 0.26304
 C1744 C 0.34696 0.33332 0.25024
 C1745 C 0.37313 0.32623 0.23911
 C1746 C 0.39537 0.34488 0.24048
 H1747 H 0.43421 0.38413 0.24567
 H1748 H 0.34280 0.41002 0.28697
 H1749 H 0.32349 0.36506 0.27200
 H1750 H 0.41525 0.33893 0.23156
 H1751 H 0.38177 0.44281 0.28907
 H1752 H 0.37639 0.30626 0.22912
   
