data_POSCAR
  _audit_creation_date              2014-09-24
  _audit_creation_method            'ToBaCCo'
  _symmetry_space_group_name_H-M    'P1'
  _symmetry_Int_Tables_number       1
  _symmetry_cell_setting            triclinic
  loop_
  _symmetry_equiv_pos_as_xyz
 x,y,z
_cell_length_a 53.9440
_cell_length_b 53.6921
_cell_length_c 52.7325
_cell_angle_alpha 89.886800
_cell_angle_beta 89.899700
_cell_angle_gamma 89.153000
loop_
  _atom_site_label
  _atom_site_type_symbol
  _atom_site_fract_x
  _atom_site_fract_y
  _atom_site_fract_z
C1 C 0.40461 -0.00279 0.29204
 H2 H 0.41654 -0.00113 0.27569
 C3 C 0.41484 -0.00177 0.31642
 H4 H 0.43461 0.00067 0.31841
 C5 C 0.36426 -0.00629 0.30936
 H6 H 0.34450 -0.00786 0.30641
 C7 C 0.37362 -0.00510 0.33393
 H8 H 0.36094 -0.00583 0.34987
 N9 N 0.37972 -0.00533 0.28901
 C10 C 0.37654 0.01325 0.21007
 H11 H 0.35912 0.02320 0.21206
 C12 C 0.38936 0.01489 0.18724
 H13 H 0.38187 0.02643 0.17212
 C14 C 0.40609 -0.01584 0.22604
 H15 H 0.41180 -0.02874 0.24076
 C16 C 0.41986 -0.01434 0.20352
 H17 H 0.43622 -0.02603 0.20112
 Zn18 Zn 0.36340 -0.00609 0.25717
 N19 N 0.38496 -0.00193 0.22898
 C20 C 0.35032 0.04386 0.25833
 N21 N 0.34030 0.02079 0.25738
 C22 C 0.31532 0.01771 0.25658
 C23 C 0.29938 0.03852 0.25616
 C24 C 0.33516 0.06507 0.25732
 C25 C 0.35019 -0.05568 0.26995
 C26 C 0.33997 -0.07904 0.26552
 C27 C 0.32427 -0.06359 0.22551
 C28 C 0.33473 -0.04053 0.23081
 N29 N 0.34742 -0.03700 0.25271
 H30 H 0.37023 0.04571 0.25937
 H31 H 0.30777 -0.00083 0.25633
 H32 H 0.27951 0.03596 0.25562
 H33 H 0.34352 0.08326 0.25804
 H34 H 0.36086 -0.05272 0.28697
 H35 H 0.34308 -0.09318 0.27977
 H36 H 0.31445 -0.06583 0.20775
 H37 H 0.33309 -0.02547 0.21723
 C38 C 0.41118 0.00097 0.18370
 C39 C 0.39919 -0.00305 0.33777
 C40 C 0.32685 -0.08349 0.24281
 C41 C 0.30935 0.06251 0.25596
 C42 C 0.09058 0.00163 0.72196
 H43 H 0.09014 -0.01395 0.73500
 C44 C 0.07420 0.00250 0.70146
 H45 H 0.06114 -0.01240 0.69924
 C46 C 0.10825 0.03984 0.70940
 H47 H 0.12156 0.05435 0.71242
 C48 C 0.09222 0.04152 0.68877
 H49 H 0.09354 0.05730 0.67603
 N50 N 0.10772 0.01972 0.72505
 C51 C 0.13274 0.00984 0.80335
 H52 H 0.15258 0.00954 0.80090
 C53 C 0.12282 0.00661 0.82752
 H54 H 0.13524 0.00363 0.84341
 C55 C 0.09255 0.01460 0.78588
 H56 H 0.08078 0.01796 0.76966
 C57 C 0.08180 0.01139 0.80976
 H58 H 0.06182 0.01182 0.81115
 Zn59 Zn 0.13239 0.01650 0.75055
 N60 N 0.11761 0.01345 0.78304
 C61 C 0.15110 0.06217 0.76839
 N62 N 0.15290 0.04460 0.74994
 C63 C 0.16925 0.04677 0.73046
 C64 C 0.18446 0.06749 0.72880
 C65 C 0.16600 0.08319 0.76752
 C66 C 0.14594 -0.02964 0.72728
 C67 C 0.16028 -0.05127 0.72428
 C68 C 0.18924 -0.03531 0.75486
 C69 C 0.17433 -0.01404 0.75729
 N70 N 0.15271 -0.01190 0.74420
 H71 H 0.13772 0.06017 0.78352
 H72 H 0.17022 0.03249 0.71603
 H73 H 0.19713 0.06913 0.71295
 H74 H 0.16355 0.09727 0.78196
 H75 H 0.12920 -0.02745 0.71637
 H76 H 0.15369 -0.06542 0.71154
 H77 H 0.20605 -0.03695 0.76599
 H78 H 0.18001 0.00077 0.76973
 C79 C 0.09707 0.00729 0.83103
 C80 C 0.07546 0.02236 0.68410
 C81 C 0.18209 -0.05447 0.73855
 C82 C 0.18299 0.08601 0.74747
 C83 C 0.59396 0.49165 0.21843
 H84 H 0.59320 0.47593 0.23126
 C85 C 0.57752 0.49318 0.19796
 H86 H 0.56419 0.47856 0.19552
 C87 C 0.61256 0.52951 0.20623
 H88 H 0.62622 0.54366 0.20935
 C89 C 0.59648 0.53184 0.18570
 H90 H 0.59815 0.54776 0.17319
 N91 N 0.61150 0.50934 0.22179
 C92 C 0.63629 0.50392 0.30074
 H93 H 0.65607 0.50500 0.29824
 C94 C 0.62662 0.50184 0.32515
 H95 H 0.63920 0.50092 0.34113
 C96 C 0.59593 0.50467 0.28321
 H97 H 0.58397 0.50587 0.26685
 C98 C 0.58541 0.50261 0.30739
 H99 H 0.56547 0.50180 0.30901
 Zn100 Zn 0.63604 0.50602 0.24759
 N101 N 0.62100 0.50489 0.28027
 C102 C 0.65452 0.55279 0.26255
 N103 N 0.65747 0.53365 0.24591
 C104 C 0.67460 0.53457 0.22700
 C105 C 0.68937 0.55555 0.22404
 C106 C 0.66896 0.57407 0.26036
 C107 C 0.64825 0.45888 0.22532
 C108 C 0.66063 0.43586 0.22401
 C109 C 0.68810 0.44960 0.25704
 C110 C 0.67522 0.47230 0.25768
 N111 N 0.65506 0.47622 0.24268
 H112 H 0.64039 0.55193 0.27707
 H113 H 0.67637 0.51921 0.21385
 H114 H 0.70258 0.55620 0.20857
 H115 H 0.66549 0.58935 0.27327
 H116 H 0.63296 0.46254 0.21268
 H117 H 0.65436 0.42244 0.21031
 H118 H 0.70363 0.44664 0.26974
 H119 H 0.68126 0.48671 0.27038
 C120 C 0.60093 0.50106 0.32878
 C121 C 0.57906 0.51330 0.18093
 C122 C 0.68043 0.43071 0.24062
 C123 C 0.68665 0.57568 0.24080
 C124 C 0.90371 0.47859 0.78958
 H125 H 0.91125 0.46529 0.77617
 C126 C 0.91415 0.48028 0.81386
 H127 H 0.92935 0.46781 0.81856
 C128 C 0.87495 0.51086 0.79920
 H129 H 0.85980 0.52296 0.79365
 C130 C 0.88461 0.51307 0.82356
 H131 H 0.87648 0.52682 0.83623
 N132 N 0.88404 0.49337 0.78289
 C133 C 0.87863 0.48387 0.70083
 H134 H 0.85910 0.47967 0.70036
 C135 C 0.89242 0.48296 0.67855
 H136 H 0.88332 0.47792 0.66104
 C137 C 0.91400 0.49552 0.72432
 H138 H 0.92223 0.50039 0.74229
 C139 C 0.92859 0.49508 0.70222
 H140 H 0.94810 0.49927 0.70350
 Zn141 Zn 0.86735 0.48943 0.75112
 N142 N 0.88948 0.48987 0.72316
 C143 C 0.84913 0.53512 0.73083
 N144 N 0.84392 0.51610 0.74699
 C145 C 0.82306 0.51665 0.76152
 C146 C 0.80691 0.53722 0.76071
 C147 C 0.83343 0.55604 0.72936
 C148 C 0.86219 0.43712 0.75823
 C149 C 0.85108 0.41393 0.75521
 C150 C 0.81633 0.43461 0.73503
 C151 C 0.82800 0.45739 0.73862
 N152 N 0.85059 0.45832 0.75002
 H153 H 0.86599 0.53454 0.71972
 H154 H 0.81941 0.50143 0.77441
 H155 H 0.79077 0.53761 0.77297
 H156 H 0.83869 0.57127 0.71715
 H157 H 0.88038 0.43798 0.76656
 H158 H 0.86112 0.39738 0.76123
 H159 H 0.79858 0.43424 0.72545
 H160 H 0.81936 0.47424 0.73139
 C161 C 0.91769 0.48862 0.67894
 C162 C 0.90422 0.49746 0.83150
 C163 C 0.82783 0.41248 0.74333
 C164 C 0.81208 0.55739 0.74469
 C165 C 0.19177 0.39531 0.99405
 H166 H 0.19409 0.37853 0.98308
 C167 C 0.16827 0.40646 0.99577
 H168 H 0.15306 0.39772 0.98610
 C169 C 0.20849 0.42567 1.02134
 H170 H 0.22409 0.43276 1.03180
 C171 C 0.18529 0.43741 1.02362
 H172 H 0.18332 0.45365 1.03566
 N173 N 0.21131 0.40483 1.00690
 C174 C 0.28982 0.39659 1.02303
 H175 H 0.28902 0.37774 1.03022
 C176 C 0.31233 0.40903 1.02311
 H177 H 0.32846 0.39934 1.03051
 C178 C 0.26992 0.43065 1.00245
 H179 H 0.25358 0.43849 0.99345
 C180 C 0.29209 0.44381 1.00215
 H181 H 0.29250 0.46203 0.99331
 Zn182 Zn 0.24180 0.38634 1.00795
 N183 N 0.26927 0.40737 1.01261
 C184 C 0.26425 0.37798 0.96088
 N185 N 0.24687 0.36883 0.97697
 C186 C 0.23289 0.34899 0.97030
 C187 C 0.23555 0.33819 0.94628
 C188 C 0.26752 0.36782 0.93683
 C189 C 0.23466 0.37649 1.05842
 C190 C 0.23286 0.36305 1.08086
 C191 C 0.24413 0.32563 1.05794
 C192 C 0.24544 0.33988 1.03566
 N193 N 0.24052 0.36483 1.03635
 H194 H 0.27523 0.39372 0.96628
 H195 H 0.21923 0.34188 0.98339
 H196 H 0.22356 0.32306 0.94119
 H197 H 0.28110 0.37584 0.92417
 H198 H 0.23132 0.39636 1.05861
 H199 H 0.22787 0.37275 1.09818
 H200 H 0.24770 0.30577 1.05705
 H201 H 0.25050 0.33104 1.01796
 C202 C 0.31378 0.43290 1.01221
 C203 C 0.16472 0.42774 1.01094
 C204 C 0.23764 0.33736 1.08089
 C205 C 0.25294 0.34789 0.92907
 C206 C 0.79583 0.09515 0.97451
 H207 H 0.79203 0.10579 0.95754
 C208 C 0.81702 0.07987 0.97547
 H209 H 0.82901 0.07958 0.95907
 C210 C 0.78419 0.08266 1.01584
 H211 H 0.77129 0.08394 1.03154
 C212 C 0.80512 0.06719 1.01768
 H213 H 0.80809 0.05664 1.03498
 N214 N 0.78032 0.09684 0.99481
 C215 C 0.70870 0.10305 1.02087
 H216 H 0.71288 0.11702 1.03481
 C217 C 0.68718 0.08911 1.02363
 H218 H 0.67514 0.09312 1.03953
 C219 C 0.71973 0.08077 0.98373
 H220 H 0.73253 0.07769 0.96819
 C221 C 0.69847 0.06644 0.98574
 H222 H 0.69502 0.05234 0.97155
 Zn223 Zn 0.75247 0.11895 0.99508
 N224 N 0.72406 0.09920 1.00070
 C225 C 0.72959 0.13252 0.94857
 N226 N 0.74986 0.13584 0.96342
 C227 C 0.76905 0.14999 0.95534
 C228 C 0.76920 0.15981 0.93073
 C229 C 0.72892 0.14202 0.92394
 C230 C 0.77642 0.14173 1.03635
 C231 C 0.77768 0.15595 1.05836
 C232 C 0.73719 0.17329 1.04888
 C233 C 0.73681 0.15881 1.02682
 N234 N 0.75574 0.14253 1.02168
 H235 H 0.71411 0.12197 0.95549
 H236 H 0.78482 0.15266 0.96765
 H237 H 0.78528 0.16996 0.92460
 H238 H 0.71292 0.13845 0.91217
 H239 H 0.79175 0.12949 1.03150
 H240 H 0.79395 0.15425 1.07029
 H241 H 0.72152 0.18540 1.05296
 H242 H 0.72081 0.15956 1.01449
 C243 C 0.68159 0.07078 1.00558
 C244 C 0.82225 0.06593 0.99757
 C245 C 0.75755 0.17125 1.06544
 C246 C 0.74910 0.15534 0.91443
 C247 C 0.29572 0.58765 0.47788
 H248 H 0.28425 0.58391 0.46156
 C249 C 0.31905 0.57598 0.48025
 H250 H 0.32522 0.56295 0.46585
 C251 C 0.30165 0.60911 0.51655
 H252 H 0.29534 0.62247 0.53045
 C253 C 0.32469 0.59760 0.51988
 H254 H 0.33556 0.60195 0.53651
 N255 N 0.28741 0.60372 0.49606
 C256 C 0.20690 0.60861 0.49890
 H257 H 0.20522 0.62870 0.49947
 C258 C 0.18594 0.59413 0.50219
 H259 H 0.16810 0.60330 0.50470
 C260 C 0.23234 0.57251 0.49427
 H261 H 0.25052 0.56423 0.49146
 C262 C 0.21168 0.55726 0.49704
 H263 H 0.21400 0.53721 0.49602
 Zn264 Zn 0.25608 0.62021 0.49286
 N265 N 0.22951 0.59770 0.49506
 C266 C 0.23695 0.62999 0.44441
 N267 N 0.25483 0.63680 0.46106
 C268 C 0.27289 0.65289 0.45410
 C269 C 0.27366 0.66240 0.42932
 C270 C 0.23698 0.63904 0.41964
 C271 C 0.24820 0.62879 0.54289
 C272 C 0.24614 0.64122 0.56584
 C273 C 0.24988 0.68031 0.54343
 C274 C 0.25205 0.66696 0.52063
 N275 N 0.25167 0.64162 0.52097
 H276 H 0.22303 0.61681 0.44996
 H277 H 0.28719 0.65763 0.46754
 H278 H 0.28863 0.67457 0.42419
 H279 H 0.22278 0.63294 0.40664
 H280 H 0.24785 0.60866 0.54258
 H281 H 0.24417 0.63049 0.58314
 H282 H 0.25118 0.70040 0.54311
 H283 H 0.25467 0.67674 0.50290
 C284 C 0.18821 0.56808 0.50139
 C285 C 0.33373 0.58094 0.50162
 C286 C 0.24726 0.66720 0.56643
 C287 C 0.25561 0.65518 0.41160
 C288 C 0.70120 0.89462 0.48014
 H289 H 0.70266 0.87855 0.46799
 C290 C 0.67866 0.90777 0.48144
 H291 H 0.66327 0.90119 0.47035
 C292 C 0.71909 0.92161 0.51018
 H293 H 0.73484 0.92689 0.52152
 C294 C 0.69694 0.93527 0.51208
 H295 H 0.69586 0.95092 0.52499
 N296 N 0.72075 0.90138 0.49475
 C297 C 0.79799 0.89118 0.51328
 H298 H 0.79668 0.87293 0.52184
 C299 C 0.82027 0.90403 0.51455
 H300 H 0.83582 0.89527 0.52410
 C301 C 0.77959 0.92354 0.48881
 H302 H 0.76385 0.93068 0.47824
 C303 C 0.80151 0.93704 0.48960
 H304 H 0.80239 0.95475 0.47979
 Zn305 Zn 0.75000 0.88097 0.49633
 N306 N 0.77829 0.90100 0.50046
 C307 C 0.77274 0.86874 0.45014
 N308 N 0.75394 0.86224 0.46593
 C309 C 0.73785 0.84404 0.45941
 C310 C 0.73974 0.83236 0.43575
 C311 C 0.77529 0.85763 0.42643
 C312 C 0.74381 0.87254 0.54747
 C313 C 0.74106 0.85948 0.57004
 C314 C 0.74705 0.82100 0.54701
 C315 C 0.74952 0.83492 0.52464
 N316 N 0.74757 0.86024 0.52528
 H317 H 0.78546 0.88311 0.45553
 H318 H 0.72311 0.83903 0.47228
 H319 H 0.72611 0.81871 0.43067
 H320 H 0.79002 0.86360 0.41392
 H321 H 0.74289 0.89262 0.54766
 H322 H 0.73774 0.86973 0.58744
 H323 H 0.74810 0.80090 0.54607
 H324 H 0.75294 0.82549 0.50687
 C325 C 0.82229 0.92727 0.50242
 C326 C 0.67622 0.92824 0.49791
 C327 C 0.74259 0.83344 0.57007
 C328 C 0.75854 0.83946 0.41877
 C329 C 0.00172 0.28756 0.41641
 H330 H 0.01790 0.27575 0.41932
 C331 C -0.00035 0.31039 0.42895
 H332 H 0.01401 0.31547 0.44217
 C333 C -0.03630 0.29526 0.39515
 H334 H -0.04985 0.28978 0.38126
 C335 C -0.03913 0.31818 0.40728
 H336 H -0.05506 0.32993 0.40291
 N337 N -0.01586 0.28073 0.39949
 C338 C -0.00004 0.20321 0.38016
 H339 H 0.00196 0.20616 0.35996
 C340 C 0.00277 0.17937 0.39016
 H341 H 0.00703 0.16408 0.37740
 C342 C -0.00825 0.21989 0.42093
 H343 H -0.01261 0.23584 0.43270
 C344 C -0.00627 0.19609 0.43176
 H345 H -0.00868 0.19435 0.45202
 Zn346 Zn -0.00910 0.25341 0.37803
 N347 N -0.00510 0.22291 0.39554
 C348 C 0.04113 0.24656 0.36671
 N349 N 0.02074 0.26048 0.36054
 C350 C 0.02246 0.28039 0.34463
 C351 C 0.04527 0.28629 0.33349
 C352 C 0.06405 0.25166 0.35598
 C353 C -0.05648 0.23978 0.36959
 C354 C -0.07849 0.23496 0.35704
 C355 C -0.05945 0.24848 0.31792
 C356 C -0.03747 0.25275 0.33129
 N357 N -0.03661 0.24864 0.35674
 H358 H 0.03993 0.23183 0.38057
 H359 H 0.00622 0.29185 0.34083
 H360 H 0.04645 0.30203 0.32070
 H361 H 0.08000 0.24046 0.36153
 H362 H -0.05518 0.23656 0.38981
 H363 H -0.09413 0.22804 0.36772
 H364 H -0.05992 0.25175 0.29768
 H365 H -0.02128 0.25935 0.32140
 C366 C -0.00069 0.17534 0.41620
 C367 C -0.02059 0.32644 0.42366
 C368 C -0.08034 0.23962 0.33102
 C369 C 0.06628 0.27150 0.33882
 C370 C 0.02462 0.70802 0.09330
 H371 H 0.04080 0.71968 0.09290
 C372 C 0.02403 0.68640 0.07863
 H373 H 0.03990 0.68143 0.06700
 C374 C -0.01573 0.70035 0.10902
 H375 H -0.03119 0.70582 0.12089
 C376 C -0.01716 0.67867 0.09460
 H377 H -0.03412 0.66823 0.09533
 N378 N 0.00485 0.71462 0.10797
 C379 C 0.00609 0.79500 0.11583
 H380 H 0.00612 0.79655 0.13628
 C381 C 0.00465 0.81640 0.10086
 H382 H 0.00330 0.83429 0.11017
 C383 C 0.00601 0.76940 0.07927
 H384 H 0.00595 0.75104 0.07096
 C385 C 0.00454 0.79035 0.06355
 H386 H 0.00369 0.78794 0.04318
 Zn387 Zn 0.00652 0.74436 0.12697
 N388 N 0.00692 0.77211 0.10490
 C389 C 0.05369 0.76015 0.14326
 N390 N 0.03567 0.74307 0.14700
 C391 C 0.03843 0.72456 0.16450
 C392 C 0.05954 0.72336 0.17981
 C393 C 0.07531 0.75929 0.15774
 C394 C -0.04363 0.75356 0.13505
 C395 C -0.06575 0.75690 0.14843
 C396 C -0.04325 0.74922 0.18732
 C397 C -0.02150 0.74649 0.17315
 N398 N -0.02215 0.74823 0.14744
 H399 H 0.05146 0.77437 0.12891
 H400 H 0.02410 0.71083 0.16668
 H401 H 0.06141 0.70872 0.19387
 H402 H 0.08936 0.77318 0.15465
 H403 H -0.04357 0.75507 0.11458
 H404 H -0.08229 0.76051 0.13747
 H405 H -0.04221 0.74737 0.20777
 H406 H -0.00421 0.74293 0.18282
 C407 C 0.00405 0.81422 0.07428
 C408 C 0.00303 0.67131 0.07925
 C409 C -0.06592 0.75457 0.17513
 C410 C 0.07837 0.74071 0.17629
 C411 C 0.52607 0.22009 0.59268
 H412 H 0.54109 0.23321 0.59314
 C413 C 0.52756 0.19936 0.57676
 H414 H 0.54386 0.19649 0.56504
 C415 C 0.48666 0.20777 0.60767
 H416 H 0.47083 0.21099 0.61984
 C417 C 0.48736 0.18684 0.59204
 H418 H 0.47158 0.17465 0.59203
 N419 N 0.50579 0.22394 0.60762
 C420 C 0.50506 0.30371 0.62101
 H421 H 0.50535 0.30410 0.64152
 C422 C 0.50415 0.32595 0.60731
 H423 H 0.50347 0.34337 0.61758
 C424 C 0.50415 0.28024 0.58300
 H425 H 0.50361 0.26240 0.57363
 C426 C 0.50310 0.30203 0.56856
 H427 H 0.50210 0.30078 0.54809
 Zn428 Zn 0.50547 0.25235 0.62871
 N429 N 0.50538 0.28149 0.60873
 C430 C 0.55223 0.26767 0.64677
 N431 N 0.53409 0.25050 0.64920
 C432 C 0.53632 0.23115 0.66580
 C433 C 0.55699 0.22911 0.68159
 C434 C 0.57349 0.26596 0.66172
 C435 C 0.45438 0.25600 0.63714
 C436 C 0.43242 0.25740 0.65114
 C437 C 0.45662 0.25491 0.68959
 C438 C 0.47810 0.25373 0.67487
 N439 N 0.47660 0.25380 0.64912
 H440 H 0.55041 0.28252 0.63304
 H441 H 0.52185 0.21745 0.66692
 H442 H 0.55850 0.21377 0.69490
 H443 H 0.58781 0.27973 0.65960
 H444 H 0.45374 0.25644 0.61664
 H445 H 0.41495 0.25832 0.64112
 H446 H 0.45810 0.25454 0.71008
 H447 H 0.49588 0.25297 0.68416
 C448 C 0.50340 0.32523 0.58067
 C449 C 0.50821 0.18223 0.57656
 C450 C 0.43345 0.25686 0.67778
 C451 C 0.57594 0.24649 0.67937
 C452 C 0.50361 0.78534 0.91405
 H453 H 0.51985 0.77348 0.91626
 C454 C 0.50173 0.80775 0.92732
 H455 H 0.51639 0.81239 0.94034
 C456 C 0.46497 0.79338 0.89407
 H457 H 0.45102 0.78813 0.88052
 C458 C 0.46239 0.81596 0.90685
 H459 H 0.44627 0.82770 0.90325
 N460 N 0.48551 0.77878 0.89760
 C461 C 0.49753 0.70072 0.87938
 H462 H 0.49707 0.70280 0.85897
 C463 C 0.50086 0.67725 0.89006
 H464 H 0.50295 0.66118 0.87781
 C465 C 0.49526 0.71935 0.92010
 H466 H 0.49299 0.73587 0.93160
 C467 C 0.49814 0.69602 0.93166
 H468 H 0.49850 0.69479 0.95214
 Zn469 Zn 0.49092 0.75114 0.87637
 N470 N 0.49523 0.72118 0.89438
 C471 C 0.53964 0.74170 0.86028
 N472 N 0.51979 0.75729 0.85706
 C473 C 0.52133 0.77795 0.84215
 C474 C 0.54337 0.78312 0.82920
 C475 C 0.56173 0.74595 0.84753
 C476 C 0.44267 0.73839 0.86975
 C477 C 0.42018 0.73460 0.85766
 C478 C 0.43916 0.74713 0.81814
 C479 C 0.46150 0.75045 0.83103
 N480 N 0.46260 0.74651 0.85646
 H481 H 0.53869 0.72616 0.87321
 H482 H 0.50556 0.79052 0.84057
 H483 H 0.54446 0.79953 0.81729
 H484 H 0.57732 0.73337 0.85061
 H485 H 0.44425 0.73518 0.88995
 H486 H 0.40436 0.72855 0.86864
 H487 H 0.43851 0.75039 0.79790
 H488 H 0.47777 0.75638 0.82082
 C489 C 0.50099 0.67467 0.91643
 C490 C 0.48121 0.82377 0.92313
 C491 C 0.41806 0.73952 0.83171
 C492 C 0.56369 0.76670 0.83151
 C493 C -0.23478 0.65147 0.96061
 H494 H -0.21867 0.64879 0.97256
 C495 C -0.23234 0.66291 0.93695
 H496 H -0.21428 0.66910 0.93078
 C497 C -0.27767 0.64563 0.95364
 H498 H -0.29528 0.63867 0.96007
 C499 C -0.27615 0.65732 0.93000
 H500 H -0.29260 0.65869 0.91835
 N501 N -0.25698 0.64217 0.96801
 C502 C -0.26077 0.66408 1.03128
 H503 H -0.27577 0.67002 1.01897
 C504 C -0.25553 0.67768 1.05325
 H505 H -0.26686 0.69391 1.05761
 C506 C -0.22859 0.63515 1.04076
 H507 H -0.21744 0.61914 1.03569
 C508 C -0.22341 0.64747 1.06327
 H509 H -0.20873 0.64024 1.07535
 Zn510 Zn -0.25770 0.62260 0.99805
 N511 N -0.24784 0.64277 1.02590
 C512 C -0.23236 0.57926 1.01496
 N513 N -0.23554 0.59482 0.99476
 C514 C -0.22224 0.59144 0.97306
 C515 C -0.20316 0.57365 0.97211
 C516 C -0.21298 0.56168 1.01509
 C517 C -0.29969 0.59489 0.98571
 C518 C -0.32311 0.58461 0.98917
 C519 C -0.32544 0.60447 1.03019
 C520 C -0.30213 0.61463 1.02580
 N521 N -0.28985 0.60987 1.00374
 H522 H -0.24382 0.58167 1.03166
 H523 H -0.22584 0.60296 0.95666
 H524 H -0.19202 0.57191 0.95507
 H525 H -0.20979 0.55036 1.03182
 H526 H -0.28926 0.59086 0.96863
 H527 H -0.33039 0.57248 0.97471
 H528 H -0.33491 0.60829 1.04792
 H529 H -0.29373 0.62599 1.04022
 C530 C -0.23716 0.66878 1.07008
 C531 C -0.25308 0.66561 0.92117
 C532 C -0.33634 0.58951 1.01165
 C533 C -0.19758 0.55945 0.99371
 C534 C -0.25455 0.33781 0.52686
 H535 H -0.27048 0.33656 0.51450
 C536 C -0.25217 0.32221 0.54671
 H537 H -0.26644 0.30865 0.54997
 C538 C -0.21652 0.35782 0.53621
 H539 H -0.20260 0.37154 0.53243
 C540 C -0.21319 0.34130 0.55821
 H541 H -0.19691 0.34376 0.56992
 N542 N -0.23612 0.35638 0.52195
 C543 C -0.23982 0.37912 0.44187
 H544 H -0.23856 0.39901 0.44394
 C545 C -0.24111 0.36900 0.41761
 H546 H -0.24144 0.38135 0.40134
 C547 C -0.24017 0.33890 0.46030
 H548 H -0.23981 0.32722 0.47700
 C549 C -0.24115 0.32790 0.43621
 H550 H -0.24202 0.30784 0.43473
 Zn551 Zn -0.23915 0.38019 0.49503
 N552 N -0.23987 0.36416 0.46271
 C553 C -0.19074 0.39504 0.48221
 N554 N -0.21116 0.40101 0.49620
 C555 C -0.21097 0.42003 0.51318
 C556 C -0.18945 0.43369 0.51690
 C557 C -0.16883 0.40823 0.48531
 C558 C -0.28591 0.39578 0.51670
 C559 C -0.30724 0.41093 0.51857
 C560 C -0.29126 0.43640 0.48471
 C561 C -0.27022 0.42105 0.48379
 N562 N -0.26813 0.40075 0.49911
 H563 H -0.19115 0.37938 0.46937
 H564 H -0.22731 0.42403 0.52447
 H565 H -0.18944 0.44842 0.53091
 H566 H -0.15265 0.40230 0.47469
 H567 H -0.28377 0.37994 0.52918
 H568 H -0.32115 0.40591 0.53234
 H569 H -0.29250 0.45215 0.47186
 H570 H -0.25543 0.42559 0.47089
 C571 C -0.24184 0.34314 0.41449
 C572 C -0.23032 0.32421 0.56388
 C573 C -0.31035 0.43147 0.50206
 C574 C -0.16795 0.42779 0.50302
 C575 C 0.24975 -0.16215 0.02148
 H576 H 0.24449 -0.17102 0.00393
 C577 C 0.25182 -0.17565 0.04292
 H578 H 0.24827 -0.19539 0.04214
 C579 C 0.26085 -0.12467 0.04256
 H580 H 0.26419 -0.10486 0.04235
 C581 C 0.26363 -0.13865 0.06634
 H582 H 0.26911 -0.12852 0.08315
 N583 N 0.25436 -0.13582 0.02181
 C584 C 0.22757 -0.12796 -0.05185
 H585 H 0.21284 -0.11621 -0.04454
 C586 C 0.22512 -0.13814 -0.07605
 H587 H 0.20867 -0.13376 -0.08703
 C588 C 0.26650 -0.14807 -0.04661
 H589 H 0.28256 -0.15212 -0.03512
 C590 C 0.26479 -0.15872 -0.07080
 H591 H 0.27999 -0.17029 -0.07749
 Zn592 Zn 0.25210 -0.11433 -0.00659
 N593 N 0.24838 -0.13232 -0.03787
 C594 C 0.30399 -0.10833 -0.00754
 N595 N 0.28201 -0.09559 -0.00659
 C596 C 0.28139 -0.07056 -0.00238
 C597 C 0.30338 -0.05750 0.00101
 C598 C 0.32640 -0.09596 -0.00462
 C599 C 0.20822 -0.09596 0.01768
 C600 C 0.18688 -0.08103 0.02026
 C601 C 0.19876 -0.05891 -0.01766
 C602 C 0.21989 -0.07415 -0.01938
 N603 N 0.22413 -0.09246 -0.00203
 H604 H 0.30421 -0.12833 -0.00926
 H605 H 0.26389 -0.06076 -0.00050
 H606 H 0.30252 -0.03771 0.00494
 H607 H 0.34352 -0.10673 -0.00460
 H608 H 0.21167 -0.11077 0.03117
 H609 H 0.17459 -0.08490 0.03591
 H610 H 0.19565 -0.04483 -0.03211
 H611 H 0.23269 -0.07178 -0.03500
 C612 C 0.24401 -0.15338 -0.08609
 C613 C 0.25923 -0.16325 0.06704
 C614 C 0.18163 -0.06232 0.00215
 C615 C 0.32625 -0.07018 -0.00014
 C616 C 0.27052 1.13563 0.46112
 H617 H 0.28326 1.12073 0.46602
 C618 C 0.27264 1.14713 0.43751
 H619 H 0.28699 1.14077 0.42456
 C620 C 0.23637 1.16177 0.47174
 H621 H 0.22231 1.16748 0.48525
 C622 C 0.23779 1.17381 0.44823
 H623 H 0.22450 1.18848 0.44411
 N624 N 0.25215 1.14255 0.47745
 C625 C 0.24111 1.13282 0.55879
 H626 H 0.23803 1.11299 0.55892
 C627 C 0.23916 1.14617 0.58128
 H628 H 0.23446 1.13640 0.59859
 C629 C 0.25116 1.16944 0.53609
 H630 H 0.25594 1.17835 0.51839
 C631 C 0.24954 1.18361 0.55836
 H632 H 0.25271 1.20342 0.55737
 Zn633 Zn 0.24804 1.12373 0.50782
 N634 N 0.24679 1.14453 0.53674
 C635 C 0.29362 1.10599 0.52810
 N636 N 0.27514 1.10103 0.51141
 C637 C 0.27625 1.08062 0.49622
 C638 C 0.29686 1.06461 0.49697
 C639 C 0.31460 1.09044 0.52950
 C640 C 0.19787 1.11444 0.49388
 C641 C 0.17529 1.10205 0.49499
 C642 C 0.19454 1.07109 0.52205
 C643 C 0.21674 1.08405 0.52040
 N644 N 0.21801 1.10548 0.50667
 H645 H 0.29249 1.12250 0.53978
 H646 H 0.26137 1.07717 0.48302
 H647 H 0.29769 1.04880 0.48426
 H648 H 0.32937 1.09547 0.54223
 H649 H 0.19898 1.13151 0.48321
 H650 H 0.15950 1.11022 0.48532
 H651 H 0.19382 1.05432 0.53347
 H652 H 0.23286 1.07725 0.53056
 C653 C 0.24339 1.17185 0.58135
 C654 C 0.25586 1.16609 0.43049
 C655 C 0.17338 1.08009 0.50939
 C656 C 0.31651 1.06951 0.51356
 C657 C 0.15224 0.45896 0.26445
 H658 H 0.15592 0.47068 0.28064
 C659 C 0.16234 0.43476 0.26338
 H660 H 0.17417 0.42819 0.27862
 C661 C 0.13255 0.45333 0.22482
 H662 H 0.12053 0.46018 0.20998
 C663 C 0.14257 0.42935 0.22278
 H664 H 0.13844 0.41830 0.20619
 N665 N 0.13784 0.46786 0.24517
 C666 C 0.14020 0.54872 0.23799
 H667 H 0.12053 0.55223 0.23572
 C668 C 0.15680 0.56821 0.23517
 H669 H 0.14962 0.58674 0.23120
 C670 C 0.17311 0.52032 0.24687
 H671 H 0.17936 0.50161 0.25133
 C672 C 0.19036 0.53942 0.24466
 H673 H 0.20986 0.53532 0.24767
 Zn674 Zn 0.12378 0.50066 0.24671
 N675 N 0.14851 0.52535 0.24379
 C676 C 0.11462 0.52298 0.29403
 N677 N 0.10719 0.50448 0.27832
 C678 C 0.09040 0.48742 0.28615
 C679 C 0.08083 0.48828 0.31089
 C680 C 0.10553 0.52458 0.31874
 C681 C 0.11533 0.50726 0.19615
 C682 C 0.10280 0.50928 0.17326
 C683 C 0.06397 0.50889 0.19621
 C684 C 0.07746 0.50667 0.21891
 N685 N 0.10267 0.50542 0.21833
 H686 H 0.12828 0.53614 0.28776
 H687 H 0.08513 0.47259 0.27348
 H688 H 0.06812 0.47400 0.31672
 H689 H 0.11215 0.53921 0.33101
 H690 H 0.13537 0.50640 0.19626
 H691 H 0.11365 0.51006 0.15595
 H692 H 0.04396 0.50920 0.19729
 H693 H 0.06780 0.50543 0.23685
 C694 C 0.18228 0.56367 0.23855
 C695 C 0.15759 0.41973 0.24216
 C696 C 0.07674 0.50974 0.17278
 C697 C 0.08871 0.50694 0.32770
 C698 C -0.14173 1.04683 0.26646
 H699 H -0.13624 1.04117 0.28532
 C700 C -0.15449 1.06942 0.26314
 H701 H -0.15863 1.08064 0.27966
 C702 C -0.14443 1.03815 0.22257
 H703 H -0.14063 1.02590 0.20681
 C704 C -0.15727 1.06057 0.21839
 H705 H -0.16320 1.06534 0.19936
 N706 N -0.13656 1.03187 0.24626
 C707 C -0.13185 0.95238 0.23910
 H708 H -0.11307 0.95058 0.23209
 C709 C -0.14740 0.93182 0.23841
 H710 H -0.14029 0.91439 0.23086
 C711 C -0.16311 0.97670 0.25926
 H712 H -0.16896 0.99420 0.26765
 C713 C -0.17914 0.95648 0.25932
 H714 H -0.19738 0.95851 0.26777
 Zn715 Zn -0.11818 1.00174 0.25147
 N716 N -0.13997 0.97434 0.24920
 C717 C -0.10952 0.98337 0.30069
 N718 N -0.10401 1.00211 0.28435
 C719 C -0.08983 1.02156 0.29173
 C720 C -0.08103 1.02293 0.31661
 C721 C -0.10110 0.98398 0.32564
 C722 C -0.10074 0.99147 0.20282
 C723 C -0.08377 0.98812 0.18317
 C724 C -0.05103 1.00007 0.21163
 C725 C -0.06871 1.00264 0.23098
 N726 N -0.09309 0.99847 0.22622
 H727 H -0.12079 0.96808 0.29453
 H728 H -0.08602 1.03643 0.27848
 H729 H -0.07046 1.03899 0.32206
 H730 H -0.10597 0.96901 0.33843
 H731 H -0.12016 0.98816 0.19942
 H732 H -0.09114 0.98329 0.16484
 H733 H -0.03177 1.00378 0.21576
 H734 H -0.06285 1.00810 0.24970
 C735 C -0.17142 0.93374 0.24865
 C736 C -0.16210 1.07674 0.23872
 C737 C -0.05831 0.99232 0.18733
 C738 C -0.08682 1.00396 0.33399
 C739 C 0.36686 0.56488 -0.25150
 H740 H 0.38690 0.56492 -0.25067
 C741 C 0.35369 0.58727 -0.25441
 H742 H 0.36380 0.60448 -0.25589
 C743 C 0.32958 0.54207 -0.25222
 H744 H 0.32032 0.52437 -0.25194
 C745 C 0.31571 0.56401 -0.25561
 H746 H 0.29577 0.56308 -0.25761
 N747 N 0.35470 0.54290 -0.25021
 C748 C 0.35451 0.46723 -0.26888
 H749 H 0.36631 0.47053 -0.28508
 C750 C 0.34118 0.44643 -0.26787
 H751 H 0.34271 0.43361 -0.28356
 C752 C 0.33986 0.48106 -0.22853
 H753 H 0.33984 0.49437 -0.21316
 C754 C 0.32493 0.45833 -0.22648
 H755 H 0.31400 0.45560 -0.20946
 Zn756 Zn 0.37413 0.51323 -0.24889
 N757 N 0.35358 0.48489 -0.24843
 C758 C 0.40628 0.49057 -0.21381
 N759 N 0.39367 0.51210 -0.21899
 C760 C 0.39265 0.53103 -0.20186
 C761 C 0.40441 0.52861 -0.17838
 C762 C 0.41797 0.48722 -0.19039
 C763 C 0.38045 0.51719 -0.30031
 C764 C 0.39232 0.51779 -0.32373
 C765 C 0.43129 0.50936 -0.30263
 C766 C 0.41857 0.50906 -0.27939
 N767 N 0.39357 0.51277 -0.27877
 H768 H 0.40636 0.47559 -0.22750
 H769 H 0.38188 0.54766 -0.20586
 H770 H 0.40249 0.54354 -0.16472
 H771 H 0.42724 0.46966 -0.18623
 H772 H 0.36061 0.52026 -0.29923
 H773 H 0.38143 0.52136 -0.34063
 H774 H 0.45119 0.50665 -0.30271
 H775 H 0.42867 0.50593 -0.26195
 C776 C 0.32542 0.44128 -0.24522
 C777 C 0.32774 0.58696 -0.25656
 C778 C 0.41800 0.51374 -0.32522
 C779 C 0.41699 0.50631 -0.17228
 C780 C 0.63875 -0.05524 -0.23117
 H781 H 0.63016 -0.05106 -0.21316
 C782 C 0.64895 -0.07785 -0.23481
 H783 H 0.64800 -0.09113 -0.21945
 C784 C 0.65181 -0.04074 -0.27164
 H785 H 0.65335 -0.02629 -0.28575
 C786 C 0.66343 -0.06538 -0.27651
 H787 H 0.67274 -0.06834 -0.29451
 N788 N 0.63957 -0.03652 -0.25074
 C789 C 0.63926 0.04057 -0.26748
 H790 H 0.62182 0.04080 -0.27749
 C791 C 0.65527 0.06068 -0.27024
 H792 H 0.64954 0.07586 -0.28247
 C793 C 0.66671 0.02098 -0.23843
 H794 H 0.67094 0.00550 -0.22592
 C795 C 0.68302 0.04090 -0.24022
 H796 H 0.69982 0.04043 -0.22899
 Zn797 Zn 0.62246 -0.00519 -0.24640
 N798 N 0.64512 0.02129 -0.25167
 C799 C 0.61681 0.01548 -0.19719
 N800 N 0.60928 -0.00304 -0.21283
 C801 C 0.59276 -0.02027 -0.20472
 C802 C 0.58377 -0.01974 -0.17984
 C803 C 0.60830 0.01671 -0.17220
 C804 C 0.60230 -0.00265 -0.29548
 C805 C 0.58414 0.00003 -0.31405
 C806 C 0.55313 0.00312 -0.28112
 C807 C 0.57203 0.00064 -0.26306
 N808 N 0.59613 -0.00228 -0.27047
 H809 H 0.62957 0.02930 -0.20394
 H810 H 0.58690 -0.03476 -0.21751
 H811 H 0.57130 -0.03419 -0.17386
 H812 H 0.61478 0.03145 -0.15999
 H813 H 0.62145 -0.00444 -0.30114
 H814 H 0.58964 -0.00070 -0.33379
 H815 H 0.53406 0.00537 -0.27499
 H816 H 0.56734 0.00132 -0.24317
 C817 C 0.67745 0.06125 -0.25620
 C818 C 0.66173 -0.08379 -0.25922
 C819 C 0.55918 0.00326 -0.30696
 C820 C 0.59165 -0.00105 -0.16314
 C821 C 0.03121 0.26523 0.83286
 H822 H 0.01651 0.27916 0.83290
 C823 C 0.05162 0.26804 0.81688
 H824 H 0.05246 0.28404 0.80438
 C825 C 0.04872 0.22822 0.85027
 H826 H 0.04782 0.21313 0.86379
 C827 C 0.06956 0.23043 0.83478
 H828 H 0.08418 0.21646 0.83604
 N829 N 0.03028 0.24573 0.84931
 C830 C -0.04641 0.24434 0.87526
 H831 H -0.04328 0.24452 0.89552
 C832 C -0.07053 0.24407 0.86585
 H833 H -0.08603 0.24402 0.87894
 C834 C -0.02991 0.24436 0.83357
 H835 H -0.01402 0.24446 0.82108
 C836 C -0.05374 0.24391 0.82332
 H837 H -0.05582 0.24425 0.80292
 Zn838 Zn 0.00500 0.24641 0.87394
 N839 N -0.02674 0.24495 0.85912
 C840 C -0.01042 0.29372 0.89156
 N841 N 0.00853 0.27676 0.89132
 C842 C 0.03112 0.28218 0.90116
 C843 C 0.03522 0.30544 0.91211
 C844 C -0.00724 0.31697 0.90257
 C845 C 0.00393 0.19621 0.88572
 C846 C 0.00399 0.17494 0.90090
 C847 C 0.01250 0.20077 0.93726
 C848 C 0.01221 0.22162 0.92133
 N849 N 0.00793 0.21893 0.89608
 H850 H -0.02787 0.28956 0.88269
 H851 H 0.04607 0.26857 0.90006
 H852 H 0.05326 0.30964 0.91985
 H853 H -0.02247 0.33034 0.90224
 H854 H 0.00049 0.19469 0.86558
 H855 H 0.00123 0.15706 0.89201
 H856 H 0.01578 0.20312 0.95737
 H857 H 0.01502 0.23993 0.92920
 C858 C -0.07443 0.24378 0.83961
 C859 C 0.07146 0.25100 0.81838
 C860 C 0.00790 0.17713 0.92716
 C861 C 0.01577 0.32297 0.91317
 C862 C 0.46355 0.26983 0.17127
 H863 H 0.47672 0.28478 0.17005
 C864 C 0.44331 0.27182 0.18784
 H865 H 0.44112 0.28826 0.19955
 C866 C 0.44948 0.23092 0.15637
 H867 H 0.45144 0.21531 0.14365
 C868 C 0.42910 0.23213 0.17264
 H869 H 0.41623 0.21686 0.17272
 N870 N 0.46600 0.24979 0.15564
 C871 C 0.54121 0.24765 0.12448
 H872 H 0.53634 0.24597 0.10467
 C873 C 0.56606 0.24858 0.13153
 H874 H 0.58031 0.24751 0.11706
 C875 C 0.52840 0.25163 0.16732
 H876 H 0.51361 0.25307 0.18111
 C877 C 0.55313 0.25237 0.17527
 H878 H 0.55704 0.25475 0.19523
 Zn879 Zn 0.49019 0.25036 0.12950
 N880 N 0.52298 0.24971 0.14223
 C881 C 0.50352 0.29688 0.10905
 N882 N 0.48484 0.28026 0.11113
 C883 C 0.46166 0.28581 0.10244
 C884 C 0.45659 0.30895 0.09118
 C885 C 0.49937 0.31997 0.09765
 C886 C 0.49309 0.19986 0.11948
 C887 C 0.49210 0.17786 0.10558
 C888 C 0.47906 0.20183 0.06902
 C889 C 0.48021 0.22347 0.08373
 N890 N 0.48710 0.22204 0.10850
 H891 H 0.52155 0.29269 0.11690
 H892 H 0.44698 0.27251 0.10491
 H893 H 0.43799 0.31335 0.08472
 H894 H 0.51439 0.33310 0.09690
 H895 H 0.49853 0.19930 0.13922
 H896 H 0.49625 0.16050 0.11519
 H897 H 0.47362 0.20318 0.04930
 H898 H 0.47576 0.24135 0.07531
 C899 C 0.57232 0.25102 0.15715
 C900 C 0.42532 0.25323 0.18799
 C901 C 0.48539 0.17868 0.07982
 C902 C 0.47565 0.32624 0.08855
 C903 C -0.05918 0.74373 0.63981
 H904 H -0.05869 0.74359 0.61929
 C905 C -0.08080 0.74206 0.65198
 H906 H -0.09729 0.74070 0.64055
 C907 C -0.03626 0.74601 0.67833
 H908 H -0.01903 0.74757 0.68851
 C909 C -0.05975 0.74446 0.69268
 H910 H -0.05903 0.74509 0.71321
 N911 N -0.03650 0.74639 0.65365
 C912 C 0.04053 0.73615 0.64688
 H913 H 0.03892 0.72331 0.63125
 C914 C 0.06264 0.73691 0.66056
 H915 H 0.07769 0.72425 0.65563
 C916 C 0.02326 0.76866 0.67194
 H917 H 0.00800 0.78138 0.67585
 C918 C 0.04485 0.76964 0.68650
 H919 H 0.04609 0.78301 0.70178
 Zn920 Zn -0.00811 0.75146 0.63319
 N921 N 0.02132 0.75179 0.65283
 C922 C 0.00666 0.79080 0.60088
 N923 N -0.01133 0.78295 0.61701
 C924 C -0.03067 0.79819 0.62353
 C925 C -0.03253 0.82225 0.61368
 C926 C 0.00549 0.81481 0.59049
 C927 C -0.00601 0.70161 0.61984
 C928 C -0.00577 0.68059 0.60434
 C929 C -0.00799 0.70759 0.56771
 C930 C -0.00809 0.72820 0.58400
 N931 N -0.00686 0.72483 0.60956
 H932 H 0.02220 0.77857 0.59652
 H933 H -0.04440 0.79206 0.63698
 H934 H -0.04792 0.83417 0.61939
 H935 H 0.02040 0.82075 0.57828
 H936 H -0.00568 0.69945 0.64024
 H937 H -0.00562 0.66240 0.61319
 H938 H -0.00898 0.71050 0.54741
 H939 H -0.00941 0.74680 0.57621
 C940 C 0.06495 0.75386 0.68063
 C941 C -0.08151 0.74286 0.68029
 C942 C -0.00646 0.68341 0.57783
 C943 C -0.01437 0.83091 0.59696
 C944 C 0.53532 0.77131 0.32977
 H945 H 0.52177 0.78636 0.33030
 C946 C 0.55531 0.77240 0.31296
 H947 H 0.55698 0.78826 0.30038
 C948 C 0.55039 0.73300 0.34653
 H949 H 0.54880 0.71799 0.36005
 C950 C 0.57065 0.73336 0.33010
 H951 H 0.58393 0.71807 0.33070
 N952 N 0.53340 0.75196 0.34629
 C953 C 0.45720 0.75306 0.37426
 H954 H 0.46071 0.75305 0.39445
 C955 C 0.43287 0.75323 0.36532
 H956 H 0.41762 0.75329 0.37871
 C957 C 0.47289 0.75310 0.33224
 H958 H 0.48854 0.75307 0.31944
 C959 C 0.44886 0.75312 0.32247
 H960 H 0.44641 0.75366 0.30212
 Zn961 Zn 0.50878 0.75404 0.37168
 N962 N 0.47658 0.75338 0.35773
 C963 C 0.49501 0.80182 0.38930
 N964 N 0.51367 0.78454 0.38850
 C965 C 0.53672 0.78974 0.39730
 C966 C 0.54162 0.81309 0.40770
 C967 C 0.49899 0.82517 0.39980
 C968 C 0.50658 0.70404 0.38396
 C969 C 0.50824 0.68260 0.39881
 C970 C 0.52002 0.70809 0.43441
 C971 C 0.51821 0.72912 0.41877
 N972 N 0.51174 0.72665 0.39400
 H973 H 0.47712 0.79781 0.38129
 H974 H 0.55140 0.77587 0.39578
 H975 H 0.56004 0.81709 0.41459
 H976 H 0.48397 0.83877 0.39991
 H977 H 0.50146 0.70269 0.36418
 H978 H 0.50486 0.66487 0.38990
 H979 H 0.52530 0.71026 0.45408
 H980 H 0.52198 0.74733 0.42641
 C981 C 0.42846 0.75311 0.33915
 C982 C 0.57366 0.75367 0.31357
 C983 C 0.51484 0.68447 0.42454
 C984 C 0.52251 0.83096 0.40930
 Zr985 Zr 0.01838 -0.01704 1.03916
 O986 O 0.03587 0.00100 1.06982
 O987 O 0.01943 -0.05427 1.05084
 O988 O -0.00285 -0.02043 1.07284
 O989 O 0.07059 -0.01929 1.00084
 O990 O -0.04210 -0.01047 1.05971
 O991 O 0.05654 -0.02676 1.04096
 O992 O -0.00104 -0.07465 1.01940
 O993 O -0.01605 -0.02993 1.02695
 O994 O 0.02452 -0.03525 1.00461
 O995 O -0.00470 0.01479 1.03642
 O996 O 0.03487 0.00959 1.01519
 Zr997 Zr -0.01781 0.01063 0.96367
 Zr998 Zr -0.03843 0.00189 1.02223
 Zr999 Zr 0.03893 -0.00858 0.98013
 Zr1000 Zr -0.00985 -0.04691 0.99205
 O1001 O 0.06775 0.01693 0.97339
 O1002 O -0.04337 -0.06465 1.00193
 O1003 O 0.00517 -0.02152 0.96593
 O1004 O -0.03388 -0.01615 0.98743
 O1005 O -0.02421 0.02906 0.99799
 O1006 O 0.01667 0.02313 0.97594
 C1007 C 0.01044 -0.07396 1.04083
 C1008 C 0.07381 -0.02625 1.02400
 C1009 C -0.02643 -0.01797 1.07645
 O1010 O -0.06924 -0.02196 1.02491
 O1011 O -0.06902 0.01718 1.00268
 O1012 O -0.05512 0.02290 0.96230
 C1013 C -0.07205 0.02420 0.97952
 O1014 O 0.03037 0.05055 1.04374
 Zr1015 Zr 0.01046 0.04023 1.01073
 O1016 O -0.01875 0.04806 0.95214
 O1017 O -0.05253 0.03192 1.04410
 O1018 O -0.01246 0.06589 1.03078
 O1019 O 0.04278 0.05989 1.00044
 O1020 O -0.00020 0.06847 0.98477
 C1021 C -0.01100 0.06789 0.96300
 O1022 O -0.03712 -0.00693 0.93386
 O1023 O 0.05485 -0.04027 0.96227
 O1024 O 0.00225 0.01134 0.92946
 O1025 O 0.04084 -0.00274 0.94065
 O1026 O 0.01241 -0.07425 0.97356
 O1027 O -0.02676 -0.05789 0.95754
 C1028 C 0.02482 0.00521 0.92430
 H1029 H 0.03601 -0.04973 1.00602
 H1030 H -0.04995 -0.02165 0.98051
 H1031 H 0.02455 0.03480 0.96394
 H1032 H -0.00693 0.02275 1.05321
 H1033 H -0.04063 -0.08283 0.99985
 H1034 H -0.08178 -0.01344 1.03572
 H1035 H -0.06940 0.02724 1.04962
 H1036 H -0.00568 0.08273 1.02794
 H1037 H 0.00486 -0.09066 0.97688
 H1038 H 0.07147 -0.03538 0.95616
 H1039 H 0.08042 0.00806 0.96304
 H1040 H 0.03940 0.07783 1.00350
 H1041 H -0.03107 -0.07573 0.95856
 H1042 H -0.04189 0.00620 0.92145
 H1043 H 0.04079 -0.01213 1.08216
 H1044 H 0.03059 0.06894 1.04504
 Zr1045 Zr 0.53104 0.49153 0.54087
 O1046 O 0.55288 0.50956 0.56843
 O1047 O 0.52871 0.45536 0.55564
 O1048 O 0.51243 0.49312 0.57615
 O1049 O 0.57988 0.48053 0.49951
 O1050 O 0.47440 0.50946 0.56614
 O1051 O 0.56780 0.47735 0.54090
 O1052 O 0.50410 0.43553 0.52717
 O1053 O 0.49451 0.48188 0.53242
 O1054 O 0.53267 0.47048 0.50757
 O1055 O 0.51145 0.52553 0.53714
 O1056 O 0.54848 0.51445 0.51376
 Zr1057 Zr 0.49245 0.51762 0.46613
 Zr1058 Zr 0.47545 0.51566 0.52677
 Zr1059 Zr 0.54810 0.49359 0.48012
 Zr1060 Zr 0.49635 0.46203 0.49851
 O1061 O 0.57898 0.51522 0.46972
 O1062 O 0.46192 0.44870 0.51196
 O1063 O 0.51215 0.48349 0.46940
 O1064 O 0.47547 0.49476 0.49330
 O1065 O 0.49054 0.53907 0.49918
 O1066 O 0.52889 0.52716 0.47483
 C1067 C 0.51699 0.43624 0.54770
 C1068 C 0.58383 0.47473 0.52291
 C1069 C 0.49039 0.50069 0.58206
 O1070 O 0.44352 0.49481 0.53533
 O1071 O 0.44461 0.53132 0.50778
 O1072 O 0.45602 0.53245 0.46612
 C1073 C 0.44039 0.53623 0.48423
 O1074 O 0.55117 0.55730 0.53846
 Zr1075 Zr 0.52712 0.54721 0.50841
 O1076 O 0.49369 0.55416 0.45213
 O1077 O 0.46552 0.54934 0.54518
 O1078 O 0.50924 0.57646 0.52868
 O1079 O 0.56003 0.56264 0.49342
 O1080 O 0.51634 0.57476 0.48173
 C1081 C 0.50357 0.57390 0.46112
 O1082 O 0.46987 0.49996 0.43891
 O1083 O 0.55921 0.45932 0.46356
 O1084 O 0.51021 0.51414 0.43067
 O1085 O 0.54793 0.49678 0.44028
 O1086 O 0.51409 0.43108 0.48087
 O1087 O 0.47588 0.45094 0.46614
 C1088 C 0.53173 0.50543 0.42448
 H1089 H 0.54256 0.45491 0.50933
 H1090 H 0.45845 0.49040 0.48812
 H1091 H 0.53687 0.53720 0.46142
 H1092 H 0.51154 0.53499 0.55323
 H1093 H 0.46259 0.43027 0.51096
 H1094 H 0.43255 0.50566 0.54577
 H1095 H 0.44884 0.54693 0.55261
 H1096 H 0.51746 0.59218 0.52394
 H1097 H 0.50489 0.41599 0.48586
 H1098 H 0.57585 0.46188 0.45608
 H1099 H 0.58996 0.50436 0.45931
 H1100 H 0.55863 0.58098 0.49521
 H1101 H 0.46976 0.43382 0.46873
 H1102 H 0.46546 0.51258 0.42583
 H1103 H 0.55727 0.49695 0.58150
 H1104 H 0.55376 0.57551 0.53807
 Zr1105 Zr 0.47927 1.01556 0.54630
 O1106 O 0.46090 1.00099 0.57847
 O1107 O 0.48147 1.05320 0.55556
 O1108 O 0.50131 1.01879 0.57935
 O1109 O 0.42668 1.02017 0.50888
 O1110 O 0.53929 1.00434 0.56635
 O1111 O 0.44202 1.02831 0.54829
 O1112 O 0.50360 1.06990 0.52290
 O1113 O 0.51458 1.02452 0.53279
 O1114 O 0.47418 1.03237 0.51080
 O1115 O 0.49936 0.98175 0.54525
 O1116 O 0.45990 0.98954 0.52426
 Zr1117 Zr 0.51148 0.98038 0.47207
 Zr1118 Zr 0.53390 0.99060 0.52964
 Zr1119 Zr 0.45702 1.00595 0.48814
 Zr1120 Zr 0.50932 1.04005 0.49702
 O1121 O 0.42599 0.98288 0.48287
 O1122 O 0.54457 1.05502 0.50516
 O1123 O 0.49171 1.01471 0.47276
 O1124 O 0.53028 1.00694 0.49382
 O1125 O 0.51673 0.96357 0.50749
 O1126 O 0.47613 0.97208 0.48567
 C1127 C 0.49218 1.07137 0.54441
 C1128 C 0.42442 1.02829 0.53176
 C1129 C 0.52460 1.01418 0.58283
 O1130 O 0.56670 1.01176 0.53056
 O1131 O 0.56297 0.97212 0.51038
 O1132 O 0.54772 0.96506 0.47079
 C1133 C 0.56497 0.96374 0.48760
 O1134 O 0.46102 0.95054 0.55554
 Zr1135 Zr 0.48128 0.95667 0.52155
 O1136 O 0.50884 0.94218 0.46341
 O1137 O 0.54567 0.96041 0.55272
 O1138 O 0.50189 0.93001 0.54285
 O1139 O 0.44696 0.93978 0.51316
 O1140 O 0.48850 0.92617 0.49762
 C1141 C 0.49916 0.92410 0.47593
 O1142 O 0.53186 0.99392 0.44069
 O1143 O 0.44362 1.03815 0.46907
 O1144 O 0.49089 0.98015 0.43817
 O1145 O 0.45413 0.99894 0.44889
 O1146 O 0.48918 1.06818 0.47724
 O1147 O 0.52665 1.04769 0.46168
 C1148 C 0.46913 0.98875 0.43278
 H1149 H 0.46401 1.04785 0.51157
 H1150 H 0.54665 1.01059 0.48628
 H1151 H 0.46701 0.96062 0.47449
 H1152 H 0.50115 0.97454 0.56246
 H1153 H 0.54346 1.07322 0.50215
 H1154 H 0.57864 1.00275 0.54167
 H1155 H 0.56295 0.96386 0.55782
 H1156 H 0.49327 0.91390 0.54148
 H1157 H 0.49810 1.08402 0.47959
 H1158 H 0.42651 1.03454 0.46351
 H1159 H 0.41397 0.99246 0.47237
 H1160 H 0.44852 0.92189 0.51763
 H1161 H 0.53235 1.06513 0.46151
 H1162 H 0.53505 0.97966 0.42913
 H1163 H 0.45734 1.01518 0.59001
 H1164 H 0.45900 0.93242 0.55818
 Zr1165 Zr -0.03975 0.50823 1.04482
 O1166 O -0.06193 0.49457 1.07482
 O1167 O -0.03780 0.54605 1.05401
 O1168 O -0.02189 0.51106 1.08039
 O1169 O -0.08784 0.51199 1.00142
 O1170 O 0.01674 0.49496 1.07272
 O1171 O -0.07709 0.52071 1.04226
 O1172 O -0.01122 0.56154 1.02439
 O1173 O -0.00297 0.51647 1.03560
 O1174 O -0.04056 0.52472 1.00884
 O1175 O -0.02017 0.47410 1.04642
 O1176 O -0.05669 0.48216 1.02079
 Zr1177 Zr 0.00018 0.47169 0.97522
 Zr1178 Zr 0.01610 0.48225 1.03508
 Zr1179 Zr -0.05524 0.49820 0.98444
 Zr1180 Zr -0.00392 0.53160 0.99924
 O1181 O -0.08553 0.47542 0.97493
 O1182 O 0.03065 0.54616 1.01063
 O1183 O -0.01896 0.50629 0.97319
 O1184 O 0.01673 0.49822 0.99890
 O1185 O 0.00122 0.45521 1.01119
 O1186 O -0.03655 0.46401 0.98459
 C1187 C -0.02492 0.56364 1.04437
 C1188 C -0.09280 0.52004 1.02386
 C1189 C 0.00041 0.50533 1.08728
 O1190 O 0.04823 0.50372 1.04062
 O1191 O 0.04743 0.46419 1.01918
 O1192 O 0.03626 0.45640 0.97828
 C1193 C 0.05178 0.45562 0.99678
 O1194 O -0.05999 0.44365 1.05223
 Zr1195 Zr -0.03570 0.44896 1.02097
 O1196 O -0.00166 0.43340 0.96689
 O1197 O 0.02523 0.45161 1.05872
 O1198 O -0.01823 0.42234 1.04502
 O1199 O -0.06898 0.43238 1.00854
 O1200 O -0.02604 0.41805 0.99853
 C1201 C -0.01290 0.41558 0.97835
 O1202 O 0.02381 0.48472 0.94610
 O1203 O -0.06623 0.53062 0.96424
 O1204 O -0.01671 0.47058 0.93920
 O1205 O -0.05340 0.49142 0.94508
 O1206 O -0.02157 0.56000 0.97750
 O1207 O 0.01699 0.53853 0.96582
 C1208 C -0.03725 0.48009 0.93101
 H1209 H -0.05060 0.54030 1.00842
 H1210 H 0.03387 0.50169 0.99331
 H1211 H -0.04447 0.45251 0.97251
 H1212 H -0.02052 0.46694 1.06373
 H1213 H 0.03017 0.56432 1.00721
 H1214 H 0.05882 0.49456 1.05295
 H1215 H 0.04171 0.45505 1.06609
 H1216 H -0.02690 0.40635 1.04279
 H1217 H -0.01266 0.57568 0.98074
 H1218 H -0.08256 0.52712 0.95655
 H1219 H -0.09608 0.48515 0.96302
 H1220 H -0.06821 0.41454 1.01339
 H1221 H 0.02258 0.55601 0.96583
 H1222 H 0.02818 0.47027 0.93518
 H1223 H -0.06664 0.50901 1.08562
 H1224 H -0.06260 0.42561 1.05483
 Zr1225 Zr -0.00635 0.48086 0.47352
 O1226 O -0.02871 0.49437 0.44334
 O1227 O -0.00162 0.44293 0.46393
 O1228 O 0.01246 0.47942 0.43851
 O1229 O -0.05538 0.47305 0.51501
 O1230 O 0.04837 0.50008 0.44586
 O1231 O -0.04230 0.46631 0.47439
 O1232 O 0.02639 0.42875 0.49317
 O1233 O 0.03077 0.47417 0.48302
 O1234 O -0.00673 0.46332 0.50888
 O1235 O 0.01008 0.51620 0.47358
 O1236 O -0.02581 0.50568 0.49775
 Zr1237 Zr 0.02916 0.51665 0.54517
 Zr1238 Zr 0.04673 0.50936 0.48477
 Zr1239 Zr -0.02434 0.48831 0.53338
 Zr1240 Zr 0.03021 0.45810 0.51909
 O1241 O -0.05663 0.50944 0.54219
 O1242 O 0.06620 0.44544 0.50855
 O1243 O 0.01224 0.48143 0.54546
 O1244 O 0.04820 0.49223 0.52052
 O1245 O 0.02969 0.53464 0.50988
 O1246 O -0.00793 0.52320 0.53538
 C1247 C 0.01272 0.42596 0.47351
 C1248 C -0.05868 0.46545 0.49210
 C1249 C 0.03332 0.48836 0.43132
 O1250 O 0.08000 0.48903 0.47815
 O1251 O 0.07632 0.52773 0.50194
 O1252 O 0.06415 0.53391 0.54298
 C1253 C 0.07981 0.53581 0.52458
 O1254 O -0.03154 0.54630 0.46866
 Zr1255 Zr -0.00737 0.53999 0.49988
 O1256 O 0.02429 0.55398 0.55560
 O1257 O 0.05427 0.54170 0.46328
 O1258 O 0.00877 0.56797 0.47702
 O1259 O -0.04193 0.55450 0.51275
 O1260 O 0.00038 0.57060 0.52399
 C1261 C 0.01279 0.57223 0.54482
 O1262 O 0.05332 0.50350 0.57399
 O1263 O -0.03344 0.45503 0.55262
 O1264 O 0.01135 0.51505 0.58102
 O1265 O -0.02434 0.49431 0.57269
 O1266 O 0.01452 0.42797 0.53930
 O1267 O 0.05051 0.45194 0.55309
 C1268 C -0.00925 0.50511 0.58788
 H1269 H -0.01552 0.44726 0.50870
 H1270 H 0.06549 0.48934 0.52620
 H1271 H -0.01688 0.53389 0.54775
 H1272 H 0.00930 0.52395 0.45655
 H1273 H 0.06716 0.42730 0.51202
 H1274 H 0.09024 0.49929 0.46666
 H1275 H 0.07112 0.53939 0.45605
 H1276 H -0.00059 0.58369 0.48013
 H1277 H 0.02525 0.41312 0.53630
 H1278 H -0.05027 0.45757 0.55981
 H1279 H -0.06685 0.49900 0.55352
 H1280 H -0.04207 0.57268 0.50947
 H1281 H 0.05757 0.43481 0.55311
 H1282 H 0.05637 0.51769 0.58555
 H1283 H -0.03199 0.48013 0.43191
 H1284 H -0.03549 0.56432 0.46732
 Zr1285 Zr 0.49082 -0.02484 -0.02089
 O1286 O 0.46831 -0.01208 -0.05127
 O1287 O 0.49692 -0.06252 -0.03038
 O1288 O 0.51007 -0.02581 -0.05569
 O1289 O 0.44131 -0.03325 0.01986
 O1290 O 0.54568 -0.00487 -0.04766
 O1291 O 0.45544 -0.04082 -0.02026
 O1292 O 0.52449 -0.07610 -0.00044
 O1293 O 0.52793 -0.03060 -0.01081
 O1294 O 0.49037 -0.04215 0.01459
 O1295 O 0.50646 0.01086 -0.02085
 O1296 O 0.47043 -0.00034 0.00288
 Zr1297 Zr 0.52463 0.01214 0.05094
 Zr1298 Zr 0.54307 0.00496 -0.00906
 Zr1299 Zr 0.47183 -0.01738 0.03865
 Zr1300 Zr 0.52726 -0.04649 0.02533
 O1301 O 0.43901 0.00314 0.04690
 O1302 O 0.56365 -0.05843 0.01540
 O1303 O 0.50840 -0.02340 0.05125
 O1304 O 0.54455 -0.01198 0.02675
 O1305 O 0.52511 0.02995 0.01557
 O1306 O 0.48753 0.01786 0.04066
 C1307 C 0.51139 -0.07916 -0.02045
 C1308 C 0.43869 -0.04158 -0.00289
 C1309 C 0.53102 -0.01676 -0.06246
 O1310 O 0.57706 -0.01442 -0.01479
 O1311 O 0.57169 0.02466 0.00826
 O1312 O 0.55928 0.03010 0.04929
 C1313 C 0.57489 0.03271 0.03096
 O1314 O 0.46408 0.03981 -0.02649
 Zr1315 Zr 0.48809 0.03436 0.00502
 O1316 O 0.51891 0.04948 0.06093
 O1317 O 0.55000 0.03715 -0.03102
 O1318 O 0.50366 0.06255 -0.01800
 O1319 O 0.45317 0.04826 0.01755
 O1320 O 0.49512 0.06529 0.02880
 C1321 C 0.50732 0.06740 0.04969
 O1322 O 0.54879 -0.00019 0.08014
 O1323 O 0.46321 -0.05073 0.05799
 O1324 O 0.50673 0.00986 0.08657
 O1325 O 0.47109 -0.01088 0.07790
 O1326 O 0.51203 -0.07691 0.04547
 O1327 O 0.54712 -0.05189 0.05973
 C1328 C 0.48605 -0.00000 0.09318
 H1329 H 0.48199 -0.05842 0.01439
 H1330 H 0.56183 -0.01439 0.03266
 H1331 H 0.47826 0.02846 0.05286
 H1332 H 0.50574 0.01848 -0.03795
 H1333 H 0.56499 -0.07650 0.01908
 H1334 H 0.58721 -0.00396 -0.02619
 H1335 H 0.56705 0.03527 -0.03787
 H1336 H 0.49387 0.07806 -0.01514
 H1337 H 0.52321 -0.09149 0.04280
 H1338 H 0.44624 -0.04850 0.06490
 H1339 H 0.42882 -0.00748 0.05809
 H1340 H 0.45269 0.06641 0.01411
 H1341 H 0.55469 -0.06881 0.05995
 H1342 H 0.55133 0.01412 0.09170
 H1343 H 0.46560 -0.02645 -0.06269
 H1344 H 0.45954 0.05769 -0.02791
 Zr1345 Zr 0.50625 0.52811 -0.02463
 O1346 O 0.52757 0.52084 -0.05765
 O1347 O 0.49879 0.56640 -0.02839
 O1348 O 0.48542 0.53314 -0.05812
 O1349 O 0.55638 0.53359 0.01585
 O1350 O 0.45182 0.50837 -0.05245
 O1351 O 0.54163 0.54428 -0.02328
 O1352 O 0.47303 0.57546 0.00479
 O1353 O 0.46930 0.53080 -0.01269
 O1354 O 0.50724 0.54055 0.01285
 O1355 O 0.49203 0.49211 -0.02897
 O1356 O 0.52847 0.50182 -0.00494
 Zr1357 Zr 0.47670 0.47999 0.04250
 Zr1358 Zr 0.45565 0.49455 -0.01518
 Zr1359 Zr 0.52738 0.51371 0.03292
 Zr1360 Zr 0.47064 0.54179 0.02523
 O1361 O 0.56117 0.49371 0.03758
 O1362 O 0.43394 0.55368 0.01659
 O1363 O 0.49108 0.51609 0.04717
 O1364 O 0.45503 0.50647 0.02263
 O1365 O 0.47567 0.46727 0.00501
 O1366 O 0.51359 0.47771 0.03038
 C1367 C 0.48514 0.58147 -0.01527
 C1368 C 0.55851 0.54406 -0.00603
 C1369 C 0.46515 0.52327 -0.06574
 O1370 O 0.42106 0.51344 -0.01789
 O1371 O 0.42777 0.47238 0.00077
 O1372 O 0.44256 0.46146 0.03984
 C1373 C 0.42591 0.46131 0.02237
 O1374 O 0.53551 0.46709 -0.04004
 Zr1375 Zr 0.51249 0.46644 -0.00729
 O1376 O 0.48396 0.44157 0.04628
 O1377 O 0.44907 0.46458 -0.04016
 O1378 O 0.49756 0.44074 -0.03343
 O1379 O 0.54849 0.45279 0.00182
 O1380 O 0.50828 0.43236 0.01201
 C1381 C 0.49655 0.42633 0.03230
 O1382 O 0.45354 0.48693 0.07427
 O1383 O 0.53539 0.54464 0.05620
 O1384 O 0.49601 0.47765 0.07736
 O1385 O 0.52910 0.50296 0.07114
 O1386 O 0.48522 0.56880 0.05018
 O1387 O 0.45047 0.54195 0.05990
 C1388 C 0.51557 0.48887 0.08506
 H1389 H 0.51511 0.55698 0.01470
 H1390 H 0.43793 0.50744 0.02943
 H1391 H 0.52375 0.46603 0.04071
 H1392 H 0.49251 0.48683 -0.04694
 H1393 H 0.43200 0.57112 0.02248
 H1394 H 0.41093 0.50403 -0.03015
 H1395 H 0.43184 0.46669 -0.04638
 H1396 H 0.50841 0.42568 -0.03329
 H1397 H 0.47386 0.58347 0.04985
 H1398 H 0.55261 0.54225 0.06236
 H1399 H 0.57115 0.50316 0.04993
 H1400 H 0.54987 0.43550 -0.00462
 H1401 H 0.44207 0.55833 0.06211
 H1402 H 0.45200 0.47100 0.08369
 H1403 H 0.52937 0.53686 -0.06684
 H1404 H 0.54070 0.44986 -0.04445
 Zr1405 Zr 0.01093 1.03059 0.47621
 O1406 O 0.03293 1.02388 0.44353
 O1407 O 0.00240 1.06877 0.47226
 O1408 O -0.00928 1.03477 0.44219
 O1409 O 0.06123 1.03513 0.51653
 O1410 O -0.04345 1.01105 0.44858
 O1411 O 0.04594 1.04750 0.47812
 O1412 O -0.02234 1.07752 0.50629
 O1413 O -0.02606 1.03289 0.48811
 O1414 O 0.01175 1.04269 0.51382
 O1415 O -0.00293 0.99443 0.47170
 O1416 O 0.03322 1.00419 0.49578
 Zr1417 Zr -0.01850 0.98156 0.54294
 Zr1418 Zr -0.03933 0.99653 0.48540
 Zr1419 Zr 0.03198 1.01575 0.53372
 Zr1420 Zr -0.02488 1.04354 0.52614
 O1421 O 0.06566 0.99570 0.53899
 O1422 O -0.06154 1.05537 0.51725
 O1423 O -0.00438 1.01775 0.54785
 O1424 O -0.04026 1.00809 0.52327
 O1425 O -0.01926 0.96915 0.50536
 O1426 O 0.01847 0.97966 0.53098
 C1427 C -0.01094 1.08376 0.48586
 C1428 C 0.06312 1.04641 0.49504
 C1429 C -0.02981 1.02523 0.43487
 O1430 O -0.07424 1.01489 0.48324
 O1431 O -0.06674 0.97347 0.50061
 O1432 O -0.05232 0.96239 0.53974
 C1433 C -0.06867 0.96200 0.52196
 O1434 O 0.04072 0.96946 0.46057
 Zr1435 Zr 0.01758 0.96865 0.49323
 O1436 O -0.01028 0.94333 0.54693
 O1437 O -0.04554 0.96714 0.45961
 O1438 O 0.00297 0.94313 0.46671
 O1439 O 0.05364 0.95534 0.50261
 O1440 O 0.01327 0.93427 0.51209
 C1441 C 0.00206 0.92812 0.53267
 O1442 O -0.04216 0.98791 0.57444
 O1443 O 0.04014 1.04684 0.55672
 O1444 O 0.00035 0.97966 0.57800
 O1445 O 0.03314 1.00544 0.57209
 O1446 O -0.01047 1.07013 0.55166
 O1447 O -0.04537 1.04336 0.56061
 C1448 C 0.01951 0.99135 0.58592
 H1449 H 0.01950 1.05917 0.51577
 H1450 H -0.05742 1.00877 0.52995
 H1451 H 0.02866 0.96804 0.54136
 H1452 H -0.00239 0.98922 0.45371
 H1453 H -0.06359 1.07276 0.52325
 H1454 H -0.08423 1.00566 0.47071
 H1455 H -0.06281 0.96911 0.45347
 H1456 H 0.01386 0.92810 0.46678
 H1457 H -0.02177 1.08485 0.55143
 H1458 H 0.05731 1.04437 0.56300
 H1459 H 0.07550 1.00520 0.55141
 H1460 H 0.05516 0.93799 0.49636
 H1461 H -0.05383 1.05970 0.56288
 H1462 H -0.04354 0.97190 0.58374
 H1463 H 0.03458 1.03997 0.43443
 H1464 H 0.04636 0.95231 0.45642
 Zr1465 Zr 0.72264 0.26427 0.20953
 O1466 O 0.72818 0.28620 0.17661
 O1467 O 0.68474 0.25584 0.20640
 O1468 O 0.71862 0.24374 0.17565
 O1469 O 0.71756 0.31500 0.24962
 O1470 O 0.74423 0.20999 0.18135
 O1471 O 0.70492 0.29954 0.21155
 O1472 O 0.67762 0.23061 0.24041
 O1473 O 0.72180 0.22713 0.22157
 O1474 O 0.71122 0.26527 0.24742
 O1475 O 0.75904 0.25047 0.20438
 O1476 O 0.74851 0.28677 0.22858
 Zr1477 Zr 0.77324 0.23514 0.27543
 Zr1478 Zr 0.75843 0.21390 0.21821
 Zr1479 Zr 0.73772 0.28574 0.26680
 Zr1480 Zr 0.71170 0.22848 0.25981
 O1481 O 0.75641 0.31983 0.27130
 O1482 O 0.70104 0.19152 0.25154
 O1483 O 0.73693 0.24927 0.28112
 O1484 O 0.74739 0.21307 0.25628
 O1485 O 0.78515 0.23428 0.23765
 O1486 O 0.77396 0.27219 0.26329
 C1487 C 0.67064 0.24219 0.22024
 C1488 C 0.70610 0.31693 0.22828
 C1489 C 0.72930 0.22351 0.16795
 O1490 O 0.74105 0.17889 0.21632
 O1491 O 0.78267 0.18651 0.23316
 O1492 O 0.79330 0.20127 0.27214
 C1493 C 0.79433 0.18484 0.25440
 O1494 O 0.78208 0.29456 0.19275
 Zr1495 Zr 0.78433 0.27123 0.22531
 O1496 O 0.81113 0.24317 0.27826
 O1497 O 0.78773 0.20755 0.19216
 O1498 O 0.80969 0.25662 0.19818
 O1499 O 0.79669 0.30745 0.23441
 O1500 O 0.81903 0.26686 0.24330
 C1501 C 0.82575 0.25543 0.26365
 O1502 O 0.76818 0.21155 0.30721
 O1503 O 0.70692 0.29354 0.29057
 O1504 O 0.77516 0.25425 0.31036
 O1505 O 0.74950 0.28798 0.30476
 O1506 O 0.68482 0.24287 0.28550
 O1507 O 0.71317 0.20823 0.29447
 C1508 C 0.76409 0.27420 0.31832
 H1509 H 0.69460 0.27304 0.24964
 H1510 H 0.74738 0.19586 0.26304
 H1511 H 0.78545 0.28246 0.27332
 H1512 H 0.76399 0.25106 0.18631
 H1513 H 0.68392 0.18942 0.25795
 H1514 H 0.75049 0.16882 0.20377
 H1515 H 0.78623 0.19018 0.18607
 H1516 H 0.82425 0.26765 0.19784
 H1517 H 0.67070 0.23127 0.28565
 H1518 H 0.70869 0.31092 0.29649
 H1519 H 0.74669 0.32988 0.28365
 H1520 H 0.81377 0.30899 0.22770
 H1521 H 0.69726 0.19966 0.29718
 H1522 H 0.78430 0.21027 0.31623
 H1523 H 0.71198 0.28777 0.16778
 H1524 H 0.79889 0.30019 0.18810
 Zr1525 Zr 0.75119 0.71656 0.70203
 O1526 O 0.73836 0.69398 0.67206
 O1527 O 0.78837 0.72111 0.69213
 O1528 O 0.75300 0.73541 0.66684
 O1529 O 0.75917 0.66774 0.74455
 O1530 O 0.73325 0.77244 0.67477
 O1531 O 0.76658 0.68017 0.70382
 O1532 O 0.80332 0.74652 0.72303
 O1533 O 0.75733 0.75379 0.71163
 O1534 O 0.76797 0.71601 0.73777
 O1535 O 0.71610 0.73411 0.70121
 O1536 O 0.72660 0.69742 0.72607
 Zr1537 Zr 0.71339 0.75321 0.77257
 Zr1538 Zr 0.72215 0.77082 0.71289
 Zr1539 Zr 0.74284 0.69912 0.76222
 Zr1540 Zr 0.77285 0.75297 0.74778
 O1541 O 0.72208 0.66707 0.77097
 O1542 O 0.78553 0.78826 0.73571
 O1543 O 0.74885 0.73588 0.77388
 O1544 O 0.73850 0.77177 0.74880
 O1545 O 0.69649 0.75385 0.73693
 O1546 O 0.70780 0.71600 0.76284
 C1547 C 0.80568 0.73371 0.70246
 C1548 C 0.76753 0.66402 0.72194
 C1549 C 0.74494 0.75713 0.66009
 O1550 O 0.74179 0.80419 0.70704
 O1551 O 0.70279 0.80112 0.72954
 O1552 O 0.69644 0.78879 0.77042
 C1553 C 0.69448 0.80467 0.75219
 O1554 O 0.68813 0.69233 0.69527
 Zr1555 Zr 0.69236 0.71655 0.72676
 O1556 O 0.67544 0.74966 0.78105
 O1557 O 0.69060 0.77876 0.69034
 O1558 O 0.66462 0.73280 0.70327
 O1559 O 0.67801 0.68200 0.73906
 O1560 O 0.66133 0.72416 0.74982
 C1561 C 0.65828 0.73740 0.76987
 O1562 O 0.72552 0.77683 0.80204
 O1563 O 0.77561 0.68972 0.78230
 O1564 O 0.71310 0.73536 0.80815
 O1565 O 0.73599 0.69981 0.80166
 O1566 O 0.80173 0.73683 0.76988
 O1567 O 0.77871 0.77454 0.78093
 C1568 C 0.72369 0.71512 0.81590
 H1569 H 0.78405 0.70689 0.73796
 H1570 H 0.74106 0.78909 0.75455
 H1571 H 0.69687 0.70722 0.77490
 H1572 H 0.70881 0.73356 0.68400
 H1573 H 0.80361 0.78870 0.73895
 H1574 H 0.73187 0.81450 0.69507
 H1575 H 0.69294 0.79560 0.68308
 H1576 H 0.64928 0.72316 0.70570
 H1577 H 0.81690 0.74658 0.76671
 H1578 H 0.77312 0.67297 0.78972
 H1579 H 0.73237 0.65682 0.78265
 H1580 H 0.66018 0.68182 0.73456
 H1581 H 0.79566 0.78138 0.78054
 H1582 H 0.71104 0.78034 0.81318
 H1583 H 0.75276 0.69032 0.66088
 H1584 H 0.67036 0.68858 0.69301
 Zr1585 Zr 0.24092 0.24321 0.78823
 O1586 O 0.25956 0.22184 0.81632
 O1587 O 0.20429 0.24342 0.80153
 O1588 O 0.23985 0.26123 0.82360
 O1589 O 0.23433 0.19464 0.74607
 O1590 O 0.25436 0.30006 0.81502
 O1591 O 0.22999 0.20570 0.78761
 O1592 O 0.18360 0.26784 0.77283
 O1593 O 0.22935 0.27977 0.78023
 O1594 O 0.22085 0.24165 0.75444
 O1595 O 0.27368 0.26383 0.78579
 O1596 O 0.26533 0.22685 0.76152
 Zr1597 Zr 0.26648 0.28403 0.71476
 Zr1598 Zr 0.26204 0.29989 0.77579
 Zr1599 Zr 0.24530 0.22738 0.72746
 Zr1600 Zr 0.21059 0.27810 0.74577
 O1601 O 0.26887 0.19741 0.71651
 O1602 O 0.19504 0.31160 0.76042
 O1603 O 0.23352 0.26339 0.71699
 O1604 O 0.24218 0.30000 0.74168
 O1605 O 0.28679 0.28585 0.74849
 O1606 O 0.27771 0.24752 0.72321
 C1607 C 0.18457 0.25410 0.79290
 C1608 C 0.22881 0.18991 0.76934
 C1609 C 0.24587 0.28337 0.83021
 O1610 O 0.23944 0.33149 0.78368
 O1611 O 0.27725 0.33130 0.75796
 O1612 O 0.28051 0.32049 0.71623
 C1613 C 0.28327 0.33579 0.73477
 O1614 O 0.30769 0.22514 0.78747
 Zr1615 Zr 0.29677 0.24923 0.75734
 O1616 O 0.30297 0.28321 0.70100
 O1617 O 0.29423 0.31020 0.79584
 O1618 O 0.32442 0.26801 0.77812
 O1619 O 0.31423 0.21665 0.74269
 O1620 O 0.32393 0.26074 0.73107
 C1621 C 0.32284 0.27339 0.71029
 O1622 O 0.24844 0.30742 0.68795
 O1623 O 0.21216 0.21518 0.71035
 O1624 O 0.26431 0.26688 0.67875
 O1625 O 0.24845 0.22873 0.68783
 O1626 O 0.18163 0.26017 0.72608
 O1627 O 0.19909 0.29982 0.71404
 C1628 C 0.25636 0.24529 0.67223
 H1629 H 0.20605 0.23102 0.75552
 H1630 H 0.23719 0.31714 0.73666
 H1631 H 0.28826 0.23989 0.70986
 H1632 H 0.28264 0.26370 0.80216
 H1633 H 0.17677 0.31040 0.75906
 H1634 H 0.24921 0.34244 0.79484
 H1635 H 0.29069 0.32675 0.80342
 H1636 H 0.34063 0.26031 0.77360
 H1637 H 0.16585 0.26865 0.73081
 H1638 H 0.21590 0.19873 0.70263
 H1639 H 0.25886 0.18630 0.70575
 H1640 H 0.33235 0.21850 0.74487
 H1641 H 0.18173 0.30555 0.71657
 H1642 H 0.26108 0.31231 0.67526
 H1643 H 0.24695 0.21660 0.82889
 H1644 H 0.32599 0.22335 0.78762
 Zr1645 Zr 0.28411 0.75278 0.26859
 O1646 O 0.27130 0.77416 0.29984
 O1647 O 0.32189 0.74748 0.27744
 O1648 O 0.28633 0.73279 0.30292
 O1649 O 0.29003 0.80383 0.22892
 O1650 O 0.26630 0.69661 0.29454
 O1651 O 0.29839 0.78905 0.26861
 O1652 O 0.33629 0.72263 0.24543
 O1653 O 0.29087 0.71594 0.25748
 O1654 O 0.30062 0.75473 0.23281
 O1655 O 0.24913 0.73590 0.26887
 O1656 O 0.25867 0.77302 0.24579
 Zr1657 Zr 0.24692 0.71953 0.19668
 Zr1658 Zr 0.25592 0.69960 0.25604
 Zr1659 Zr 0.27498 0.77309 0.20965
 Zr1660 Zr 0.30589 0.71807 0.22103
 O1661 O 0.25352 0.80568 0.20258
 O1662 O 0.31935 0.68205 0.23095
 O1663 O 0.28179 0.73686 0.19601
 O1664 O 0.27202 0.69963 0.21982
 O1665 O 0.22999 0.71752 0.23237
 O1666 O 0.24041 0.75634 0.20810
 C1667 C 0.33910 0.73477 0.26617
 C1668 C 0.29828 0.80636 0.25170
 C1669 C 0.27787 0.71145 0.30947
 O1670 O 0.27647 0.66601 0.26037
 O1671 O 0.23653 0.67071 0.23848
 O1672 O 0.22900 0.68473 0.19829
 C1673 C 0.22724 0.66840 0.21616
 O1674 O 0.21912 0.77729 0.27630
 Zr1675 Zr 0.22467 0.75425 0.24399
 O1676 O 0.20981 0.72553 0.18666
 O1677 O 0.22466 0.69091 0.27852
 O1678 O 0.19760 0.73688 0.26693
 O1679 O 0.20937 0.78923 0.23297
 O1680 O 0.19378 0.74697 0.22039
 C1681 C 0.19186 0.73619 0.19864
 O1682 O 0.25937 0.69590 0.16704
 O1683 O 0.30753 0.78316 0.18993
 O1684 O 0.24773 0.73841 0.16145
 O1685 O 0.26756 0.77459 0.17052
 O1686 O 0.33466 0.73459 0.19964
 O1687 O 0.31127 0.69822 0.18658
 C1688 C 0.25671 0.75967 0.15512
 H1689 H 0.31649 0.76375 0.23289
 H1690 H 0.27470 0.68247 0.21343
 H1691 H 0.22943 0.76580 0.19642
 H1692 H 0.24185 0.73599 0.28611
 H1693 H 0.33732 0.68143 0.22703
 H1694 H 0.26671 0.65521 0.27179
 H1695 H 0.22728 0.67370 0.28490
 H1696 H 0.18179 0.74622 0.26459
 H1697 H 0.34973 0.72399 0.20168
 H1698 H 0.30469 0.80031 0.18348
 H1699 H 0.26355 0.81645 0.19138
 H1700 H 0.19139 0.78897 0.23682
 H1701 H 0.32822 0.69090 0.18620
 H1702 H 0.24502 0.69321 0.15568
 H1703 H 0.28574 0.77719 0.31101
 H1704 H 0.20118 0.78088 0.27843
 Zr1705 Zr 0.23221 0.78327 0.69812
 O1706 O 0.24348 0.80571 0.66721
 O1707 O 0.19505 0.77680 0.68915
 O1708 O 0.23086 0.76397 0.66329
 O1709 O 0.22498 0.83299 0.73899
 O1710 O 0.25134 0.72746 0.67184
 O1711 O 0.21606 0.81928 0.69912
 O1712 O 0.18163 0.75198 0.72141
 O1713 O 0.22730 0.74615 0.70900
 O1714 O 0.21629 0.78434 0.73432
 O1715 O 0.26775 0.76675 0.69683
 O1716 O 0.25684 0.80363 0.72091
 Zr1717 Zr 0.27262 0.74959 0.76868
 Zr1718 Zr 0.26293 0.73020 0.70974
 Zr1719 Zr 0.24160 0.80245 0.75758
 Zr1720 Zr 0.21270 0.74750 0.74563
 O1721 O 0.26162 0.83520 0.76518
 O1722 O 0.20081 0.71140 0.73550
 O1723 O 0.23677 0.76590 0.77053
 O1724 O 0.24756 0.72968 0.74618
 O1725 O 0.28856 0.74851 0.73254
 O1726 O 0.27710 0.78663 0.75771
 C1727 C 0.17846 0.76381 0.70032
 C1728 C 0.21603 0.83604 0.71655
 C1729 C 0.23943 0.74237 0.65689
 O1730 O 0.24396 0.69625 0.70549
 O1731 O 0.28366 0.70109 0.72676
 O1732 O 0.29127 0.71491 0.76686
 C1733 C 0.29317 0.69866 0.74904
 O1734 O 0.29403 0.80967 0.68922
 Zr1735 Zr 0.29158 0.78559 0.72114
 O1736 O 0.31054 0.75470 0.77592
 O1737 O 0.29415 0.72235 0.68659
 O1738 O 0.31889 0.77003 0.69663
 O1739 O 0.30556 0.82049 0.73268
 O1740 O 0.32365 0.77834 0.74264
 C1741 C 0.32740 0.76604 0.76320
 O1742 O 0.26214 0.72595 0.79894
 O1743 O 0.20886 0.81162 0.77789
 O1744 O 0.27266 0.76812 0.80392
 O1745 O 0.24927 0.80320 0.79685
 O1746 O 0.18373 0.76357 0.76770
 O1747 O 0.20830 0.72694 0.77978
 C1748 C 0.26191 0.78840 0.81135
 H1749 H 0.19998 0.79305 0.73457
 H1750 H 0.24572 0.71244 0.75253
 H1751 H 0.28809 0.79591 0.76923
 H1752 H 0.27470 0.76712 0.67945
 H1753 H 0.18285 0.71053 0.73934
 H1754 H 0.25392 0.68584 0.69365
 H1755 H 0.29205 0.70528 0.67991
 H1756 H 0.33395 0.78028 0.69811
 H1757 H 0.16886 0.75320 0.76538
 H1758 H 0.21097 0.82870 0.78453
 H1759 H 0.25111 0.84561 0.77652
 H1760 H 0.32325 0.82097 0.72762
 H1761 H 0.19149 0.71977 0.78030
 H1762 H 0.27697 0.72330 0.80979
 H1763 H 0.22875 0.80861 0.65628
 H1764 H 0.31153 0.81430 0.68651
 Zr1765 Zr 0.25819 0.22456 0.21527
 O1766 O 0.24546 0.20138 0.18572
 O1767 O 0.29535 0.22918 0.20516
 O1768 O 0.25920 0.24291 0.17973
 O1769 O 0.26630 0.17628 0.25831
 O1770 O 0.23866 0.27957 0.18736
 O1771 O 0.27397 0.18835 0.21752
 O1772 O 0.31028 0.25545 0.23528
 O1773 O 0.26392 0.26202 0.22415
 O1774 O 0.27533 0.22477 0.25080
 O1775 O 0.22280 0.24152 0.21474
 O1776 O 0.23406 0.20553 0.23992
 Zr1777 Zr 0.22068 0.26187 0.28592
 Zr1778 Zr 0.22847 0.27846 0.22574
 Zr1779 Zr 0.25065 0.20800 0.27580
 Zr1780 Zr 0.27987 0.26197 0.26013
 O1781 O 0.23037 0.17596 0.28573
 O1782 O 0.29185 0.29720 0.24714
 O1783 O 0.25638 0.24499 0.28682
 O1784 O 0.24526 0.28028 0.26138
 O1785 O 0.20332 0.26166 0.25048
 O1786 O 0.21546 0.22443 0.27683
 C1787 C 0.31267 0.24208 0.21510
 C1788 C 0.27466 0.17233 0.23576
 C1789 C 0.25034 0.26425 0.17270
 O1790 O 0.24754 0.31199 0.21899
 O1791 O 0.20883 0.30859 0.24211
 O1792 O 0.20364 0.29745 0.28350
 C1793 C 0.20108 0.31277 0.26484
 O1794 O 0.19488 0.19964 0.20976
 Zr1795 Zr 0.19959 0.22416 0.24093
 O1796 O 0.18283 0.25771 0.29506
 O1797 O 0.19650 0.28564 0.20355
 O1798 O 0.17124 0.23993 0.21788
 O1799 O 0.18629 0.18936 0.25381
 O1800 O 0.16890 0.23129 0.26453
 C1801 C 0.16584 0.24472 0.28443
 O1802 O 0.23265 0.28619 0.31487
 O1803 O 0.28394 0.19913 0.29524
 O1804 O 0.22179 0.24470 0.32192
 O1805 O 0.24458 0.20916 0.31523
 O1806 O 0.30912 0.24659 0.28227
 O1807 O 0.28585 0.28426 0.29275
 C1808 C 0.23273 0.22462 0.32965
 H1809 H 0.29148 0.21576 0.25098
 H1810 H 0.24769 0.29773 0.26673
 H1811 H 0.20491 0.21567 0.28925
 H1812 H 0.21525 0.24059 0.19768
 H1813 H 0.30995 0.29800 0.25014
 H1814 H 0.23728 0.32198 0.20704
 H1815 H 0.19843 0.30244 0.19606
 H1816 H 0.15603 0.23018 0.22073
 H1817 H 0.32413 0.25648 0.27881
 H1818 H 0.28178 0.18242 0.30287
 H1819 H 0.24099 0.16597 0.29735
 H1820 H 0.16835 0.18879 0.24986
 H1821 H 0.30267 0.29137 0.29196
 H1822 H 0.21827 0.28953 0.32620
 H1823 H 0.25984 0.19774 0.17450
 H1824 H 0.17711 0.19563 0.20801
 Zr1825 Zr 0.74184 0.73539 0.27788
 O1826 O 0.76034 0.71387 0.30594
 O1827 O 0.70510 0.73537 0.29091
 O1828 O 0.74045 0.75312 0.31351
 O1829 O 0.73572 0.68693 0.23514
 O1830 O 0.75458 0.79215 0.30524
 O1831 O 0.73121 0.69780 0.27675
 O1832 O 0.68459 0.76018 0.26243
 O1833 O 0.72997 0.77188 0.27004
 O1834 O 0.72219 0.73382 0.24383
 O1835 O 0.77439 0.75640 0.27591
 O1836 O 0.76676 0.71950 0.25132
 Zr1837 Zr 0.76751 0.77718 0.20511
 Zr1838 Zr 0.76244 0.79242 0.26613
 Zr1839 Zr 0.74715 0.71991 0.21700
 Zr1840 Zr 0.71158 0.77024 0.23536
 O1841 O 0.77112 0.68993 0.20708
 O1842 O 0.69549 0.80373 0.24946
 O1843 O 0.73494 0.75592 0.20679
 O1844 O 0.74285 0.79269 0.23187
 O1845 O 0.78755 0.77889 0.23898
 O1846 O 0.77924 0.74071 0.21323
 C1847 C 0.68548 0.74640 0.28245
 C1848 C 0.73013 0.68207 0.25840
 C1849 C 0.74630 0.77528 0.32031
 O1850 O 0.73933 0.82363 0.27405
 O1851 O 0.77767 0.82411 0.24890
 O1852 O 0.78198 0.81348 0.20724
 C1853 C 0.78440 0.82866 0.22594
 O1854 O 0.80886 0.71790 0.27741
 Zr1855 Zr 0.79795 0.74235 0.24757
 O1856 O 0.80392 0.77601 0.19107
 O1857 O 0.79428 0.80295 0.28665
 O1858 O 0.82508 0.76103 0.26914
 O1859 O 0.81611 0.71037 0.23244
 O1860 O 0.82521 0.75506 0.22198
 C1861 C 0.82404 0.76720 0.20087
 O1862 O 0.75027 0.80164 0.17873
 O1863 O 0.71454 0.70806 0.19866
 O1864 O 0.76342 0.76106 0.16890
 O1865 O 0.75242 0.72105 0.17747
 O1866 O 0.68261 0.75210 0.21592
 O1867 O 0.70054 0.79140 0.20309
 C1868 C 0.75812 0.73874 0.16207
 H1869 H 0.70742 0.72312 0.24473
 H1870 H 0.73778 0.80982 0.22694
 H1871 H 0.79004 0.73338 0.19992
 H1872 H 0.78322 0.75620 0.29236
 H1873 H 0.67728 0.80240 0.24766
 H1874 H 0.74886 0.83465 0.28537
 H1875 H 0.79048 0.81939 0.29436
 H1876 H 0.84145 0.75362 0.26468
 H1877 H 0.66688 0.76086 0.22031
 H1878 H 0.71849 0.69165 0.19096
 H1879 H 0.76155 0.67878 0.19592
 H1880 H 0.83418 0.71258 0.23475
 H1881 H 0.68321 0.79733 0.20534
 H1882 H 0.76304 0.80635 0.16609
 H1883 H 0.74765 0.70843 0.31833
 H1884 H 0.82716 0.71612 0.27756
 Zr1885 Zr 0.78246 0.24700 0.76885
 O1886 O 0.77105 0.26938 0.79991
 O1887 O 0.82004 0.24013 0.77725
 O1888 O 0.78417 0.22736 0.80344
 O1889 O 0.79013 0.29702 0.72820
 O1890 O 0.76219 0.19216 0.79593
 O1891 O 0.79842 0.28260 0.76807
 O1892 O 0.83309 0.21436 0.74540
 O1893 O 0.78748 0.20974 0.75819
 O1894 O 0.79856 0.24769 0.73281
 O1895 O 0.74680 0.23160 0.76987
 O1896 O 0.75762 0.26799 0.74608
 Zr1897 Zr 0.74278 0.21439 0.69801
 Zr1898 Zr 0.75182 0.19488 0.75744
 Zr1899 Zr 0.77340 0.26677 0.70971
 Zr1900 Zr 0.80211 0.21071 0.72152
 O1901 O 0.75332 0.30018 0.70243
 O1902 O 0.81416 0.17433 0.73189
 O1903 O 0.77842 0.23012 0.69653
 O1904 O 0.76743 0.19378 0.72102
 O1905 O 0.72628 0.21359 0.73396
 O1906 O 0.73811 0.25158 0.70901
 C1907 C 0.83661 0.22663 0.76595
 C1908 C 0.79884 0.29955 0.75079
 C1909 C 0.77463 0.20664 0.81046
 O1910 O 0.77126 0.16071 0.76239
 O1911 O 0.73158 0.16626 0.74041
 O1912 O 0.72356 0.18031 0.70036
 C1913 C 0.72177 0.16402 0.71829
 O1914 O 0.71881 0.27429 0.77725
 Zr1915 Zr 0.72283 0.25069 0.74514
 O1916 O 0.70577 0.22174 0.68858
 O1917 O 0.72027 0.18770 0.78004
 O1918 O 0.69528 0.23482 0.76863
 O1919 O 0.70892 0.28619 0.73397
 O1920 O 0.69138 0.24471 0.72203
 C1921 C 0.68861 0.23364 0.70055
 O1922 O 0.75392 0.19013 0.66838
 O1923 O 0.80610 0.27504 0.68932
 O1924 O 0.74321 0.23308 0.66265
 O1925 O 0.76548 0.26803 0.67068
 O1926 O 0.83121 0.22571 0.69940
 O1927 O 0.80625 0.19011 0.68736
 C1928 C 0.75330 0.25366 0.65580
 H1929 H 0.81481 0.25601 0.73251
 H1930 H 0.76935 0.17647 0.71482
 H1931 H 0.72736 0.26140 0.69742
 H1932 H 0.73972 0.23226 0.78719
 H1933 H 0.83206 0.17289 0.72776
 H1934 H 0.76116 0.15047 0.77403
 H1935 H 0.72229 0.17053 0.78674
 H1936 H 0.67986 0.24484 0.76638
 H1937 H 0.84589 0.21457 0.70144
 H1938 H 0.80392 0.29218 0.68260
 H1939 H 0.76365 0.31030 0.69090
 H1940 H 0.69101 0.28681 0.73819
 H1941 H 0.82290 0.18210 0.68690
 H1942 H 0.73927 0.18784 0.65732
 H1943 H 0.78576 0.27186 0.81084
 H1944 H 0.70106 0.27862 0.77969
 C1945 C 0.40841 0.99879 0.36416
 C1946 C 0.43145 0.99252 0.37133
 C1947 C 0.43882 0.99452 0.39818
 C1948 C 0.46113 0.98664 0.40612
 H1949 H 0.44476 0.98541 0.35766
 H1950 H 0.42573 1.00253 0.41161
 H1951 H 0.39521 1.00468 0.37858
 H1952 H 0.47405 0.97848 0.39261
 C1953 C -0.08766 0.49949 0.85679
 C1954 C -0.06777 0.48635 0.86776
 C1955 C -0.06281 0.48906 0.89360
 C1956 C -0.04220 0.47772 0.90509
 H1957 H -0.05594 0.47424 0.85654
 H1958 H -0.07521 0.50058 0.90497
 H1959 H -0.09779 0.51238 0.86897
 H1960 H -0.02922 0.46715 0.89346
 C1961 C 0.08729 0.00325 0.85698
 C1962 C 0.06376 0.00747 0.86394
 C1963 C 0.05606 0.00341 0.89036
 C1964 C 0.03277 0.00808 0.89778
 H1965 H 0.05014 0.01443 0.85059
 H1966 H 0.06973 -0.00315 0.90397
 H1967 H 0.10038 -0.00305 0.87131
 H1968 H 0.01922 0.01473 0.88409
 C1969 C 0.59151 0.49813 0.35504
 C1970 C 0.56807 0.50255 0.36226
 C1971 C 0.56109 0.50002 0.38914
 C1972 C 0.53837 0.50618 0.39737
 H1973 H 0.55420 0.50882 0.34881
 H1974 H 0.57507 0.49367 0.40253
 H1975 H 0.60492 0.49277 0.36944
 H1976 H 0.52454 0.51284 0.38399
 C1977 C 0.56408 0.51555 0.15745
 C1978 C 0.54924 0.49803 0.14804
 C1979 C 0.53877 0.50156 0.12248
 C1980 C 0.52337 0.48538 0.11167
 H1981 H 0.54589 0.48083 0.15808
 H1982 H 0.54452 0.51778 0.11181
 H1983 H 0.56667 0.53233 0.14629
 H1984 H 0.51659 0.46961 0.12233
 C1985 C 0.06087 1.02354 0.66036
 C1986 C 0.04888 1.00435 0.65012
 C1987 C 0.03926 1.00671 0.62415
 C1988 C 0.02648 0.98874 0.61278
 H1989 H 0.04761 0.98661 0.65973
 H1990 H 0.04348 1.02354 0.61367
 H1991 H 0.06181 1.04073 0.64956
 H1992 H 0.02099 0.97233 0.62324
 C1993 C -0.06852 0.48659 0.65468
 C1994 C -0.04682 0.49728 0.64930
 C1995 C -0.03694 0.49496 0.62325
 C1996 C -0.01661 0.50654 0.61495
 H1997 H -0.03720 0.50834 0.66320
 H1998 H -0.04741 0.48379 0.61005
 H1999 H -0.07767 0.47646 0.63966
 H2000 H -0.00574 0.51758 0.62789
 C2001 C 0.42237 0.00059 0.15818
 C2002 C 0.44667 -0.00158 0.15357
 C2003 C 0.45520 -0.00268 0.12706
 C2004 C 0.47867 0.00141 0.12012
 H2005 H 0.45993 -0.00230 0.16897
 H2006 H 0.44147 -0.00650 0.11263
 H2007 H 0.40980 0.00296 0.14228
 H2008 H 0.49232 0.00642 0.13420
 C2009 C 0.33764 0.44600 0.00895
 C2010 C 0.35876 0.43967 0.02085
 C2011 C 0.38197 0.45254 0.01487
 C2012 C 0.40284 0.44795 0.02787
 H2013 H 0.35921 0.42507 0.03500
 H2014 H 0.38189 0.46622 -0.00030
 H2015 H 0.33788 0.46149 -0.00428
 H2016 H 0.40269 0.43499 0.04365
 C2017 C -0.15410 0.94104 0.50101
 C2018 C -0.13423 0.93647 0.51564
 C2019 C -0.11126 0.95041 0.51144
 C2020 C -0.09142 0.94773 0.52650
 H2021 H -0.13468 0.92268 0.53059
 H2022 H -0.11068 0.96330 0.49559
 H2023 H -0.15301 0.95578 0.48696
 H2024 H -0.09215 0.93540 0.54278
 C2025 C -0.15597 0.05149 1.00084
 C2026 C -0.13680 0.04890 0.98305
 C2027 C -0.11480 0.03656 0.98960
 C2028 C -0.09505 0.03428 0.97250
 H2029 H -0.13833 0.05689 0.96430
 H2030 H -0.11280 0.02920 1.00867
 H2031 H -0.15343 0.04222 1.01900
 H2032 H -0.09739 0.04105 0.95324
 C2033 C 0.35805 0.56872 0.50621
 C2034 C 0.37377 0.56167 0.48787
 C2035 C 0.39825 0.55110 0.49467
 C2036 C 0.41585 0.54668 0.47729
 H2037 H 0.36907 0.56450 0.46810
 H2038 H 0.40201 0.54719 0.51449
 H2039 H 0.36395 0.56690 0.52580
 H2040 H 0.41217 0.55077 0.45750
 C2041 C 0.16617 0.55215 0.50316
 C2042 C 0.14609 0.55833 0.51690
 C2043 C 0.12328 0.54387 0.51471
 C2044 C 0.10348 0.54823 0.52952
 H2045 H 0.14609 0.57467 0.52893
 H2046 H 0.12233 0.52997 0.49986
 H2047 H 0.16635 0.53493 0.49243
 H2048 H 0.10460 0.56124 0.54514
 C2049 C 0.65827 0.05647 0.00579
 C2050 C 0.64016 0.05859 0.02315
 C2051 C 0.61699 0.04493 0.01948
 C2052 C 0.59825 0.04572 0.03618
 H2053 H 0.64182 0.07060 0.03945
 H2054 H 0.61513 0.03415 0.00223
 H2055 H 0.65549 0.04386 -0.00998
 H2056 H 0.60013 0.05587 0.05379
 C2057 C 0.65230 0.94164 0.50231
 C2058 C 0.63217 0.93972 0.48760
 C2059 C 0.60879 0.95241 0.49484
 C2060 C 0.58863 0.95171 0.48009
 H2061 H 0.63263 0.92879 0.47041
 H2062 H 0.60804 0.96232 0.51273
 H2063 H 0.65115 0.95359 0.51885
 H2064 H 0.58955 0.94222 0.46198
 C2065 C 0.13987 0.43929 1.01538
 C2066 C 0.12002 0.43540 1.00074
 C2067 C 0.09567 0.44665 1.00705
 C2068 C 0.07629 0.44424 0.99147
 H2069 H 0.12153 0.42411 0.98383
 H2070 H 0.09366 0.45717 1.02448
 H2071 H 0.13787 0.45167 1.03151
 H2072 H 0.07867 0.43427 0.97375
 C2073 C -0.02258 0.35205 0.43399
 C2074 C -0.00281 0.36507 0.44095
 C2075 C -0.00518 0.39081 0.45029
 C2076 C 0.01408 0.40130 0.46167
 H2077 H 0.01560 0.35685 0.43968
 H2078 H -0.02279 0.40071 0.44892
 H2079 H -0.04074 0.36099 0.43451
 H2080 H 0.03105 0.39052 0.46433
 C2081 C 0.47897 -0.15114 -0.06539
 C2082 C 0.49830 -0.13876 -0.05629
 C2083 C 0.49532 -0.11349 -0.04601
 C2084 C 0.51351 -0.10369 -0.03240
 H2085 H 0.51671 -0.14701 -0.05650
 H2086 H 0.47804 -0.10327 -0.04880
 H2087 H 0.46090 -0.14200 -0.06554
 H2088 H 0.53008 -0.11473 -0.02848
 C2089 C 0.00180 -0.16372 1.05746
 C2090 C 0.00946 -0.14115 1.06429
 C2091 C 0.00604 -0.11926 1.04776
 C2092 C 0.01387 -0.09705 1.05549
 H2093 H 0.01851 -0.13859 1.08239
 H2094 H -0.00319 -0.12120 1.02964
 H2095 H -0.00600 -0.16623 1.03871
 H2096 H 0.02307 -0.09559 1.07369
 C2097 C 0.50199 0.34810 0.56504
 C2098 C 0.51068 0.36999 0.57273
 C2099 C 0.50876 0.39212 0.55638
 C2100 C 0.51871 0.41365 0.56343
 H2101 H 0.51971 0.37166 0.59096
 H2102 H 0.49911 0.39074 0.53842
 H2103 H 0.49426 0.34664 0.54613
 H2104 H 0.52856 0.41475 0.58130
 C2105 C 0.51035 1.15984 0.56024
 C2106 C 0.49892 1.13864 0.56591
 C2107 C 0.50164 1.11607 0.55026
 C2108 C 0.49061 1.09525 0.55786
 H2109 H 0.48784 1.13744 0.58299
 H2110 H 0.51262 1.11638 0.53303
 H2111 H 0.52261 1.16041 0.54394
 H2112 H 0.47992 1.09552 0.57532
 C2113 C 0.00282 0.64841 1.06351
 C2114 C -0.01260 0.62952 1.06763
 C2115 C -0.01148 0.60674 1.05215
 C2116 C -0.02618 0.58766 1.05768
 H2117 H -0.02573 0.63022 1.08314
 H2118 H 0.00180 0.60531 1.03674
 H2119 H 0.01655 0.64662 1.04855
 H2120 H -0.03906 0.58931 1.07343
 C2121 C 0.50435 0.64949 -0.07289
 C2122 C 0.49383 0.64226 -0.05124
 C2123 C 0.49614 0.61618 -0.04311
 C2124 C 0.48338 0.60764 -0.02331
 H2125 H 0.48257 0.65515 -0.04021
 H2126 H 0.50814 0.60369 -0.05383
 H2127 H 0.51427 0.63582 -0.08431
 H2128 H 0.47137 0.62019 -0.01268
 C2129 C 0.00158 1.15078 0.42528
 C2130 C -0.00583 1.14273 0.44927
 C2131 C -0.00318 1.11771 0.45597
 C2132 C -0.01320 1.10864 0.47849
 H2133 H -0.01473 1.15543 0.46246
 H2134 H 0.00627 1.10501 0.44309
 H2135 H 0.00839 1.13667 0.41218
 H2136 H -0.02358 1.12130 0.49068
 C2137 C 0.75035 0.67492 0.89496
 C2138 C 0.73249 0.68659 0.88175
 C2139 C 0.73639 0.69329 0.85495
 C2140 C 0.72089 0.70897 0.84298
 H2141 H 0.71487 0.69116 0.89061
 H2142 H 0.75211 0.68524 0.84490
 H2143 H 0.76837 0.67201 0.88621
 H2144 H 0.70594 0.71794 0.85344
 C2145 C 0.25748 0.17608 0.40425
 C2146 C 0.24278 0.19397 0.39447
 C2147 C 0.24490 0.20052 0.36741
 C2148 C 0.23126 0.21883 0.35697
 H2149 H 0.22889 0.20343 0.40585
 H2150 H 0.25775 0.18985 0.35572
 H2151 H 0.27127 0.16753 0.39190
 H2152 H 0.21882 0.22989 0.36872
 C2153 C 0.75536 0.33327 0.38844
 C2154 C 0.76277 0.31053 0.38094
 C2155 C 0.75900 0.30296 0.35434
 C2156 C 0.76844 0.28170 0.34490
 H2157 H 0.77188 0.29782 0.39402
 H2158 H 0.74823 0.31528 0.34215
 H2159 H 0.74749 0.34588 0.37441
 H2160 H 0.77956 0.26955 0.35691
 C2161 C 0.24162 0.83804 0.88719
 C2162 C 0.25565 0.82022 0.87630
 C2163 C 0.25224 0.81393 0.84924
 C2164 C 0.26474 0.79501 0.83840
 H2165 H 0.26955 0.81011 0.88709
 H2166 H 0.23927 0.82496 0.83805
 H2167 H 0.22732 0.84701 0.87580
 H2168 H 0.27731 0.78375 0.84981
 C2169 C 0.26200 0.82433 0.09044
 C2170 C 0.25713 0.80031 0.09511
 C2171 C 0.26081 0.79063 0.12110
 C2172 C 0.25389 0.76786 0.12845
 H2173 H 0.25014 0.78808 0.08061
 H2174 H 0.26898 0.80299 0.13490
 H2175 H 0.26836 0.83534 0.10637
 H2176 H 0.24536 0.75545 0.11496
 C2177 C 0.77292 0.31009 0.58623
 C2178 C 0.75803 0.29204 0.59461
 C2179 C 0.76262 0.28122 0.61997
 C2180 C 0.74999 0.26193 0.62923
 H2181 H 0.74237 0.28576 0.58371
 H2182 H 0.77644 0.28996 0.63178
 H2183 H 0.78872 0.31456 0.59806
 H2184 H 0.73661 0.25257 0.61742
 C2185 C 0.24066 0.18511 0.60581
 C2186 C 0.24936 0.20776 0.61104
 C2187 C 0.24704 0.21714 0.63720
 C2188 C 0.25690 0.23853 0.64506
 H2189 H 0.25905 0.21860 0.59694
 H2190 H 0.23761 0.20542 0.65081
 H2191 H 0.23182 0.17485 0.62102
 H2192 H 0.26611 0.25064 0.63168
 C2193 C 0.76686 0.67908 0.09411
 C2194 C 0.75891 0.70271 0.10194
 C2195 C 0.76024 0.70885 0.12754
 C2196 C 0.75862 0.73337 0.13619
 H2197 H 0.75253 0.71647 0.08831
 H2198 H 0.76361 0.69400 0.14116
 H2199 H 0.77741 0.66794 0.10764
 H2200 H 0.75933 0.74855 0.12263
 C2201 C 0.20037 0.58415 0.23786
 C2202 C 0.19743 0.60461 0.22351
 C2203 C 0.21419 0.62584 0.22638
 C2204 C 0.21298 0.64571 0.21098
 H2205 H 0.18215 0.60613 0.21027
 H2206 H 0.22709 0.62561 0.24213
 H2207 H 0.21659 0.58240 0.24988
 H2208 H 0.20072 0.64563 0.19472
 C2209 C 0.69363 0.08165 0.74353
 C2210 C 0.69216 0.10208 0.72693
 C2211 C 0.70734 0.12262 0.73062
 C2212 C 0.70809 0.14257 0.71345
 H2213 H 0.67950 0.10221 0.71106
 H2214 H 0.71890 0.12304 0.74742
 H2215 H 0.70854 0.08154 0.75733
 H2216 H 0.69803 0.14132 0.69573
 C2217 C 0.82426 0.10046 0.23378
 C2218 C 0.82457 0.12014 0.24934
 C2219 C 0.81020 0.14295 0.24333
 C2220 C 0.80968 0.16237 0.25920
 H2221 H 0.83548 0.11969 0.26654
 H2222 H 0.79947 0.14358 0.22597
 H2223 H 0.81394 0.10197 0.21619
 H2224 H 0.82020 0.16145 0.27669
 C2225 C 0.31306 0.60997 0.73860
 C2226 C 0.31937 0.63221 0.74774
 C2227 C 0.30463 0.65473 0.74167
 C2228 C 0.30744 0.67576 0.75481
 H2229 H 0.33530 0.63384 0.76009
 H2230 H 0.29112 0.65399 0.72650
 H2231 H 0.29610 0.60840 0.72774
 H2232 H 0.32006 0.67601 0.77079
 C2233 C 0.31186 0.41919 0.75782
 C2234 C 0.31018 0.40110 0.74040
 C2235 C 0.29707 0.37787 0.74626
 C2236 C 0.29460 0.35995 0.72885
 H2237 H 0.31859 0.40278 0.72190
 H2238 H 0.28988 0.37517 0.76527
 H2239 H 0.30222 0.41644 0.77569
 H2240 H 0.30156 0.36289 0.70979
 C2241 C 0.81211 0.91196 0.25037
 C2242 C 0.81266 0.89313 0.23374
 C2243 C 0.79772 0.87073 0.23803
 C2244 C 0.79654 0.85260 0.22069
 H2245 H 0.82457 0.89391 0.21720
 H2246 H 0.78831 0.86868 0.25608
 H2247 H 0.79902 0.91144 0.26598
 H2248 H 0.80549 0.85500 0.20245
 C2249 C 0.67205 0.89250 0.73508
 C2250 C 0.67079 0.87237 0.75018
 C2251 C 0.68227 0.84833 0.74258
 C2252 C 0.68212 0.82866 0.75825
 H2253 H 0.66140 0.87311 0.76826
 H2254 H 0.69137 0.84690 0.72428
 H2255 H 0.68154 0.89024 0.71703
 H2256 H 0.67342 0.83048 0.77672
 C2257 C 0.16875 0.39461 0.23875
 C2258 C 0.17448 0.37905 0.25778
 C2259 C 0.18538 0.35429 0.25218
 C2260 C 0.18895 0.33705 0.27024
 H2261 H 0.17083 0.38432 0.27727
 H2262 H 0.19075 0.35020 0.23279
 H2263 H 0.17139 0.38820 0.21941
 H2264 H 0.18333 0.34105 0.28957
 C2265 C 0.09416 0.25571 0.80351
 C2266 C 0.11671 0.24949 0.81212
 C2267 C 0.13919 0.25572 0.79782
 C2268 C 0.16153 0.24951 0.80693
 H2269 H 0.11877 0.24029 0.83032
 H2270 H 0.13743 0.26505 0.77964
 H2271 H 0.09244 0.26620 0.78600
 H2272 H 0.16296 0.23977 0.82492
 C2273 C 0.59601 0.75627 0.29755
 C2274 C 0.61814 0.74699 0.30444
 C2275 C 0.64046 0.75134 0.28915
 C2276 C 0.66250 0.74253 0.29685
 H2277 H 0.62016 0.73682 0.32209
 H2278 H 0.63887 0.76186 0.27164
 H2279 H 0.59462 0.76764 0.28058
 H2280 H 0.66375 0.73188 0.31431
 C2281 C 0.59883 0.25322 0.16394
 C2282 C 0.60807 0.24650 0.18646
 C2283 C 0.63469 0.24910 0.19197
 C2284 C 0.64435 0.23973 0.21332
 H2285 H 0.59615 0.23853 0.20080
 H2286 H 0.64641 0.25867 0.17849
 H2287 H 0.61141 0.25980 0.14941
 H2288 H 0.63247 0.22980 0.22638
 C2289 C 0.08809 0.75537 0.69549
 C2290 C 0.11035 0.75398 0.68439
 C2291 C 0.13344 0.75604 0.69904
 C2292 C 0.15446 0.76216 0.68731
 H2293 H 0.11162 0.75215 0.66395
 H2294 H 0.13318 0.75290 0.71936
 H2295 H 0.08679 0.75927 0.71561
 H2296 H 0.15403 0.76663 0.66724
 C2297 C 0.89619 0.74269 0.69434
 C2298 C 0.87376 0.73943 0.68409
 C2299 C 0.85091 0.74034 0.69944
 C2300 C 0.82958 0.73320 0.68910
 H2301 H 0.87164 0.73562 0.66414
 H2302 H 0.85152 0.74664 0.71894
 H2303 H 0.89716 0.74522 0.71474
 H2304 H 0.82963 0.72608 0.66986
 C2305 C 0.40245 0.25659 0.20339
 C2306 C 0.38075 0.24727 0.19602
 C2307 C 0.35762 0.25078 0.21062
 C2308 C 0.33675 0.24069 0.20200
 H2309 H 0.37972 0.23708 0.17835
 H2310 H 0.35771 0.26113 0.22825
 H2311 H 0.40316 0.26808 0.22024
 H2312 H 0.33736 0.23020 0.18443
 C2313 C 0.40255 0.75362 0.32994
 C2314 C 0.39602 0.74402 0.30763
 C2315 C 0.37018 0.74500 0.29876
 C2316 C 0.36419 0.73405 0.27696
 H2317 H 0.40981 0.73493 0.29574
 H2318 H 0.35621 0.75478 0.30987
 H2319 H 0.38831 0.76135 0.34229
 H2320 H 0.37844 0.72418 0.26628
 C2321 C 0.89985 0.24421 0.82996
 C2322 C 0.89363 0.23474 0.80749
 C2323 C 0.86789 0.23602 0.79842
 C2324 C 0.86174 0.22520 0.77660
 H2325 H 0.90751 0.22568 0.79570
 H2326 H 0.85404 0.24604 0.80947
 H2327 H 0.88543 0.25191 0.84211
 H2328 H 0.87577 0.21500 0.76592
 C2329 C 0.53949 1.00588 0.67359
 C2330 C 0.54377 1.01760 0.65166
 C2331 C 0.52718 1.01570 0.62959
 C2332 C 0.53641 1.02103 0.60675
 H2333 H 0.56120 1.02709 0.64908
 H2334 H 0.50907 1.00741 0.63147
 H2335 H 0.52175 0.99724 0.67694
 H2336 H 0.55536 1.02740 0.60533
 C2337 C 0.06561 0.51006 1.14983
 C2338 C 0.04007 0.51108 1.14490
 C2339 C 0.03213 0.50784 1.11995
 C2340 C 0.00742 0.51053 1.11225
 H2341 H 0.02655 0.51423 1.15976
 H2342 H 0.04600 0.50307 1.10578
 H2343 H 0.07763 0.50914 1.13327
 H2344 H -0.00641 0.51725 1.12563
 C2345 C -0.04040 -0.00974 1.16783
 C2346 C -0.04467 -0.02110 1.14568
 C2347 C -0.02835 -0.01852 1.12339
 C2348 C -0.03744 -0.02484 1.10081
 H2349 H -0.06140 -0.03161 1.14302
 H2350 H -0.01075 -0.00915 1.12486
 H2351 H -0.02243 -0.00142 1.17073
 H2352 H -0.05594 -0.03246 1.09985
 C2353 C 0.42967 0.51503 0.64934
 C2354 C 0.45238 0.50648 0.64336
 C2355 C 0.46083 0.50808 0.61679
 C2356 C 0.48290 0.49927 0.60900
 H2357 H 0.46429 0.49784 0.65744
 H2358 H 0.44832 0.51660 0.60311
 H2359 H 0.41830 0.52284 0.63424
 H2360 H 0.49561 0.49088 0.62255
 C2361 C 0.42707 0.50153 -0.14658
 C2362 C 0.43537 0.51945 -0.13130
 C2363 C 0.44341 0.51349 -0.10525
 C2364 C 0.45689 0.52934 -0.09167
 H2365 H 0.43639 0.53851 -0.13794
 H2366 H 0.43856 0.49559 -0.09722
 H2367 H 0.42783 0.48236 -0.14006
 H2368 H 0.46307 0.54655 -0.10022
 C2369 C -0.07932 1.00437 0.36102
 C2370 C -0.06263 1.01972 0.37104
 C2371 C -0.05628 1.01744 0.39809
 C2372 C -0.03774 1.03011 0.40855
 H2373 H -0.05303 1.03319 0.35950
 H2374 H -0.06640 1.00413 0.40945
 H2375 H -0.08773 0.99068 0.37338
 H2376 H -0.02719 1.04300 0.39711
 C2377 C 0.08116 0.50839 0.35484
 C2378 C 0.06397 0.49428 0.36595
 C2379 C 0.05849 0.49720 0.39327
 C2380 C 0.03994 0.48498 0.40435
 H2381 H 0.05368 0.48080 0.35520
 H2382 H 0.06950 0.50994 0.40434
 H2383 H 0.09047 0.52202 0.36646
 H2384 H 0.02856 0.47279 0.39303
 C2385 C 0.58381 0.00033 -0.13615
 C2386 C 0.56466 -0.01197 -0.12622
 C2387 C 0.55828 -0.00916 -0.09916
 C2388 C 0.53837 -0.02011 -0.08921
 H2389 H 0.55324 -0.02369 -0.13790
 H2390 H 0.56985 0.00237 -0.08734
 H2391 H 0.59415 0.01258 -0.12386
 H2392 H 0.52666 -0.03131 -0.10122
 C2393 C 0.63927 0.57828 0.01696
 C2394 C 0.62311 0.57218 -0.00115
 C2395 C 0.59944 0.56042 0.00546
 C2396 C 0.58192 0.55668 -0.01202
 H2397 H 0.62715 0.57602 -0.02089
 H2398 H 0.59639 0.55465 0.02492
 H2399 H 0.63414 0.57559 0.03666
 H2400 H 0.58482 0.56305 -0.03130
 C2401 C 0.14964 1.06690 0.51301
 C2402 C 0.12959 1.07014 0.49834
 C2403 C 0.10646 1.05702 0.50419
 C2404 C 0.08649 1.05918 0.48927
 H2405 H 0.13002 1.08230 0.48198
 H2406 H 0.10578 1.04547 0.52106
 H2407 H 0.14867 1.05373 0.52859
 H2408 H 0.08738 1.07043 0.47220
 C2409 C 0.15961 -0.04775 1.00202
 C2410 C 0.14141 -0.04852 1.01946
 C2411 C 0.11779 -0.03506 1.01476
 C2412 C 0.09875 -0.03563 1.03114
 H2413 H 0.14301 -0.05975 1.03641
 H2414 H 0.11545 -0.02575 0.99664
 H2415 H 0.15680 -0.03535 0.98596
 H2416 H 0.10108 -0.04467 1.04940
 C2417 C 0.66814 0.44674 0.50124
 C2418 C 0.64905 0.44599 0.51758
 C2419 C 0.62644 0.46103 0.51254
 C2420 C 0.60793 0.46295 0.52942
 H2421 H 0.64948 0.43416 0.53418
 H2422 H 0.62452 0.46988 0.49413
 H2423 H 0.66682 0.46018 0.48586
 H2424 H 0.61006 0.45461 0.54804
 C2425 C -0.14476 0.44114 0.50889
 C2426 C -0.12509 0.44164 0.49341
 C2427 C -0.10197 0.45380 0.50108
 C2428 C -0.08261 0.45449 0.48525
 H2429 H -0.12579 0.43299 0.47491
 H2430 H -0.10067 0.46185 0.51986
 H2431 H -0.14385 0.45098 0.52680
 H2432 H -0.08430 0.44657 0.46644
 C2433 C 0.34932 -0.05658 0.00549
 C2434 C 0.37146 -0.06320 -0.00404
 C2435 C 0.39418 -0.05005 0.00324
 C2436 C 0.41524 -0.05353 -0.00979
 H2437 H 0.37293 -0.07837 -0.01750
 H2438 H 0.39366 -0.03746 0.01928
 H2439 H 0.34794 -0.04031 0.01760
 H2440 H 0.41522 -0.06527 -0.02650
 C2441 C 0.33923 1.05363 0.51190
 C2442 C 0.35774 1.05346 0.52883
 C2443 C 0.38081 1.03937 0.52337
 C2444 C 0.40023 1.03932 0.53918
 H2445 H 0.35649 1.06422 0.54611
 H2446 H 0.38231 1.02987 0.50530
 H2447 H 0.34107 1.04185 0.49529
 H2448 H 0.39873 1.04864 0.55734
 C2449 C -0.17516 0.54336 0.99349
 C2450 C -0.16013 0.54092 1.01356
 C2451 C -0.13570 0.52867 1.01059
 C2452 C -0.11817 0.52970 1.02853
 H2453 H -0.16487 0.54971 1.03144
 H2454 H -0.13156 0.51976 0.99260
 H2455 H -0.16921 0.53584 0.97536
 H2456 H -0.12225 0.53860 1.04652
 C2457 C -0.00654 0.66151 0.56060
 C2458 C 0.00405 0.63966 0.56693
 C2459 C 0.00280 0.61735 0.55064
 C2460 C 0.01396 0.59622 0.55827
 H2461 H 0.01395 0.63798 0.58472
 H2462 H -0.00763 0.61799 0.53310
 H2463 H -0.01516 0.66355 0.54214
 H2464 H 0.02424 0.59624 0.57594
 C2465 C 0.48438 0.15577 0.06410
 C2466 C 0.49772 0.13524 0.06955
 C2467 C 0.49588 0.11211 0.05468
 C2468 C 0.50837 0.09176 0.06234
 H2469 H 0.51044 0.13525 0.08540
 H2470 H 0.48406 0.11156 0.03810
 H2471 H 0.47270 0.15597 0.04739
 H2472 H 0.51974 0.09279 0.07924
 C2473 C 0.00784 0.15517 0.94422
 C2474 C -0.00473 0.13451 0.93900
 C2475 C -0.00320 0.11244 0.95555
 C2476 C -0.01417 0.09131 0.94877
 H2477 H -0.01611 0.13357 0.92215
 H2478 H 0.00790 0.11315 0.97265
 H2479 H 0.01815 0.15622 0.96181
 H2480 H -0.02471 0.09075 0.93129
 C2481 C 0.51726 0.66226 0.44120
 C2482 C 0.50626 0.64062 0.43626
 C2483 C 0.51003 0.61861 0.45258
 C2484 C 0.49994 0.59688 0.44627
 H2485 H 0.49425 0.63884 0.41999
 H2486 H 0.52143 0.62005 0.46940
 H2487 H 0.52828 0.66388 0.45828
 H2488 H 0.48880 0.59575 0.42922
 C2489 C 0.52722 0.85559 0.42057
 C2490 C 0.51010 0.86689 0.43496
 C2491 C 0.51365 0.89171 0.44592
 C2492 C 0.49875 0.89919 0.46469
 H2493 H 0.49297 0.85739 0.43920
 H2494 H 0.52801 0.90372 0.43865
 H2495 H 0.54517 0.86402 0.41786
 H2496 H 0.48538 0.88629 0.47241
 C2497 C 0.01960 0.34748 0.92500
 C2498 C 0.00174 0.35821 0.93887
 C2499 C 0.00424 0.38308 0.94998
 C2500 C -0.01206 0.39050 0.96753
 H2501 H -0.01531 0.34828 0.94233
 H2502 H 0.01884 0.39528 0.94362
 H2503 H 0.03742 0.35635 0.92302
 H2504 H -0.02581 0.37750 0.97430
 C2505 C 0.47027 0.35120 0.07782
 C2506 C 0.48723 0.36371 0.06463
 C2507 C 0.48285 0.38952 0.05622
 C2508 C 0.49864 0.40012 0.04010
 H2509 H 0.50490 0.35489 0.06015
 H2510 H 0.46704 0.39995 0.06354
 H2511 H 0.45201 0.35940 0.08078
 H2512 H 0.51373 0.38909 0.03210
 C2513 C -0.01632 0.85711 0.58807
 C2514 C -0.00427 0.86617 0.56795
 C2515 C -0.00716 0.89262 0.56080
 C2516 C 0.00408 0.90172 0.54024
 H2517 H 0.00752 0.85421 0.55648
 H2518 H -0.01853 0.90478 0.57257
 H2519 H -0.02874 0.86950 0.59842
 H2520 H 0.01528 0.88937 0.52851
 C2521 C 0.23468 0.32395 0.10519
 C2522 C 0.24549 0.30213 0.11119
 C2523 C 0.24213 0.29242 0.13711
 C2524 C 0.25360 0.27190 0.14596
 H2525 H 0.25732 0.29226 0.09787
 H2526 H 0.23004 0.30302 0.14966
 H2527 H 0.22383 0.33350 0.11966
 H2528 H 0.26547 0.26085 0.13362
 C2529 C 0.73838 0.82049 0.59444
 C2530 C 0.74569 0.79716 0.59989
 C2531 C 0.74098 0.78746 0.62557
 C2532 C 0.74939 0.76527 0.63370
 H2533 H 0.75557 0.78577 0.58618
 H2534 H 0.73053 0.79934 0.63847
 H2535 H 0.72944 0.83138 0.60926
 H2536 H 0.75985 0.75320 0.62104
 C2537 C 0.24773 0.67912 0.59163
 C2538 C 0.24161 0.70284 0.59654
 C2539 C 0.24369 0.71171 0.62285
 C2540 C 0.23583 0.73424 0.63042
 H2541 H 0.23511 0.71528 0.58172
 H2542 H 0.25217 0.69915 0.63655
 H2543 H 0.25307 0.66719 0.60741
 H2544 H 0.22705 0.74689 0.61703
 C2545 C 0.75856 0.18353 0.09060
 C2546 C 0.73925 0.19421 0.10262
 C2547 C 0.74226 0.20240 0.12909
 C2548 C 0.72495 0.21567 0.14156
 H2549 H 0.72124 0.19598 0.09377
 H2550 H 0.75946 0.19753 0.13865
 H2551 H 0.77608 0.18217 0.10063
 H2552 H 0.70827 0.22193 0.13191
 C2553 C 0.74856 0.16294 0.88730
 C2554 C 0.76539 0.17727 0.87588
 C2555 C 0.76322 0.18290 0.84857
 C2556 C 0.77781 0.19954 0.83730
 H2557 H 0.78056 0.18516 0.88636
 H2558 H 0.74892 0.17381 0.83769
 H2559 H 0.73335 0.15612 0.87595
 H2560 H 0.79143 0.20935 0.84843
 C2561 C 0.25569 0.66277 0.38446
 C2562 C 0.27073 0.67958 0.37405
 C2563 C 0.26873 0.68541 0.34674
 C2564 C 0.28132 0.70406 0.33622
 H2565 H 0.28407 0.68945 0.38537
 H2566 H 0.25603 0.67479 0.33525
 H2567 H 0.24227 0.65394 0.37223
 H2568 H 0.29340 0.71517 0.34791
 C2569 C 0.76057 0.82995 0.39248
 C2570 C 0.74948 0.80957 0.38372
 C2571 C 0.75226 0.80284 0.35679
 C2572 C 0.74337 0.78168 0.34735
 H2573 H 0.73860 0.79788 0.39606
 H2574 H 0.76199 0.81557 0.34441
 H2575 H 0.77208 0.84045 0.37951
 H2576 H 0.73414 0.76862 0.35977
 C2577 C 0.25573 0.33911 0.90258
 C2578 C 0.24677 0.31780 0.89358
 C2579 C 0.25020 0.31150 0.86662
 C2580 C 0.24267 0.28982 0.85718
 H2581 H 0.23716 0.30493 0.90581
 H2582 H 0.25908 0.32489 0.85429
 H2583 H 0.26600 0.35094 0.88970
 H2584 H 0.23410 0.27632 0.86961
 C2585 C 0.81588 0.38838 0.73768
 C2586 C 0.82041 0.36725 0.75052
 C2587 C 0.80838 0.34382 0.74319
 C2588 C 0.81048 0.32333 0.75758
 H2589 H 0.83276 0.36713 0.76668
 H2590 H 0.79758 0.34340 0.72588
 H2591 H 0.80237 0.38816 0.72247
 H2592 H 0.82070 0.32413 0.77524
 C2593 C 0.31709 0.89417 0.23666
 C2594 C 0.31780 0.87269 0.25186
 C2595 C 0.30795 0.85029 0.24333
 C2596 C 0.30794 0.82925 0.25898
 H2597 H 0.32578 0.87292 0.27062
 H2598 H 0.30008 0.84934 0.22446
 H2599 H 0.30794 0.89254 0.21841
 H2600 H 0.31540 0.83075 0.27801
 C2601 C 0.19688 0.92210 0.73857
 C2602 C 0.19411 0.90355 0.72196
 C2603 C 0.20736 0.87982 0.72606
 C2604 C 0.20454 0.86036 0.71061
 H2605 H 0.18164 0.90525 0.70601
 H2606 H 0.21899 0.87798 0.74274
 H2607 H 0.21025 0.91965 0.75376
 H2608 H 0.19338 0.86223 0.69362
 C2609 C 0.69320 0.40607 0.24223
 C2610 C 0.68605 0.38544 0.23018
 C2611 C 0.69877 0.36153 0.23533
 C2612 C 0.69346 0.34079 0.22254
 H2613 H 0.67055 0.38568 0.21723
 H2614 H 0.71282 0.36092 0.25003
 H2615 H 0.70884 0.40458 0.25508
 H2616 H 0.68012 0.34148 0.20721
 C2617 C 0.70109 0.59858 0.23612
 C2618 C 0.70523 0.61591 0.25378
 C2619 C 0.71745 0.63945 0.24718
 C2620 C 0.72085 0.65709 0.26468
 H2621 H 0.69914 0.61315 0.27313
 H2622 H 0.72264 0.64281 0.22760
 H2623 H 0.70842 0.60136 0.21718
 H2624 H 0.71548 0.65354 0.28416
 C2625 C 0.19811 0.10859 0.74431
 C2626 C 0.20311 0.12449 0.76305
 C2627 C 0.21593 0.14785 0.75751
 C2628 C 0.21942 0.16500 0.77546
 H2629 H 0.19716 0.12084 0.78229
 H2630 H 0.22132 0.15165 0.73807
 H2631 H 0.20524 0.11244 0.72547
 H2632 H 0.21383 0.16121 0.79483
 C2633 C 0.29276 0.08466 0.25576
 C2634 C 0.29837 0.10542 0.24303
 C2635 C 0.28333 0.12834 0.24584
 C2636 C 0.28678 0.14806 0.23074
 H2637 H 0.31473 0.10581 0.23107
 H2638 H 0.26996 0.12942 0.26121
 H2639 H 0.27554 0.08384 0.26635
 H2640 H 0.29936 0.14659 0.21474
 C2641 C 0.79602 0.58006 0.74624
 C2642 C 0.79549 0.59834 0.72889
 C2643 C 0.78091 0.62136 0.73353
 C2644 C 0.77986 0.63986 0.71647
 H2645 H 0.80613 0.59676 0.71154
 H2646 H 0.77159 0.62351 0.75165
 H2647 H 0.78427 0.58195 0.76286
 H2648 H 0.78898 0.63754 0.69827
 C2649 C 0.91327 0.75665 0.18938
 C2650 C 0.88984 0.76385 0.18030
 C2651 C 0.86899 0.76254 0.19582
 C2652 C 0.84580 0.77059 0.18710
 H2653 H 0.88736 0.77067 0.16117
 H2654 H 0.87082 0.75472 0.21472
 H2655 H 0.91465 0.75258 0.20952
 H2656 H 0.84446 0.77951 0.16866
 C2657 C 0.41090 0.25727 0.69375
 C2658 C 0.38937 0.26751 0.68635
 C2659 C 0.36734 0.26617 0.70270
 C2660 C 0.34573 0.27634 0.69546
 H2661 H 0.38783 0.27681 0.66817
 H2662 H 0.36866 0.25606 0.72048
 H2663 H 0.41224 0.24919 0.71258
 H2664 H 0.34458 0.28639 0.67763
 C2665 C 0.39348 0.73709 0.81984
 C2666 C 0.38616 0.75111 0.80027
 C2667 C 0.36044 0.75044 0.79129
 C2668 C 0.35300 0.76539 0.77252
 H2669 H 0.39872 0.76425 0.79169
 H2670 H 0.34747 0.73796 0.80032
 H2671 H 0.38016 0.72504 0.82897
 H2672 H 0.36626 0.77746 0.76335
 C2673 C 0.89561 0.23490 0.31872
 C2674 C 0.88741 0.24705 0.29820
 C2675 C 0.86167 0.24375 0.28983
 C2676 C 0.85206 0.25707 0.27074
 H2677 H 0.89891 0.26055 0.28868
 H2678 H 0.85011 0.23080 0.30011
 H2679 H 0.88310 0.22239 0.32841
 H2680 H 0.86370 0.26977 0.26025
 C2681 C 0.09045 0.27682 0.32679
 C2682 C 0.10586 0.25824 0.32008
 C2683 C 0.13035 0.26230 0.30861
 C2684 C 0.14122 0.24353 0.29608
 H2685 H 0.09999 0.23914 0.32249
 H2686 H 0.13923 0.28021 0.31019
 H2687 H 0.09518 0.29593 0.32255
 H2688 H 0.13114 0.22641 0.29335
 C2689 C 0.58702 0.77127 0.81768
 C2690 C 0.59991 0.75233 0.80754
 C2691 C 0.62424 0.75546 0.79551
 C2692 C 0.63339 0.73718 0.78101
 H2693 H 0.59233 0.73373 0.80820
 H2694 H 0.63472 0.77222 0.79881
 H2695 H 0.59339 0.79020 0.81546
 H2696 H 0.62198 0.72125 0.77681
 C2697 C 0.59842 0.24373 0.69499
 C2698 C 0.62084 0.24549 0.68453
 C2699 C 0.64359 0.24205 0.69943
 C2700 C 0.66460 0.23559 0.68767
 H2701 H 0.62249 0.24867 0.66427
 H2702 H 0.64314 0.24473 0.71980
 H2703 H 0.59658 0.23842 0.71474
 H2704 H 0.66428 0.23166 0.66749
 C2705 C 0.10103 0.73917 0.19194
 C2706 C 0.12342 0.74275 0.18184
 C2707 C 0.14622 0.74095 0.19704
 C2708 C 0.16791 0.73691 0.18543
 H2709 H 0.12508 0.74632 0.16166
 H2710 H 0.14528 0.74276 0.21749
 H2711 H 0.09943 0.73356 0.21163
 H2712 H 0.16819 0.73375 0.16511
   
