data_POSCAR
  _audit_creation_date              2014-09-24
  _audit_creation_method            'ToBaCCo'
  _symmetry_space_group_name_H-M    'P1'
  _symmetry_Int_Tables_number       1
  _symmetry_cell_setting            triclinic
  loop_
  _symmetry_equiv_pos_as_xyz
 x,y,z
_cell_length_a 104.7529
_cell_length_b 104.8055
_cell_length_c 105.1277
_cell_angle_alpha 89.966100
_cell_angle_beta 89.969800
_cell_angle_gamma 89.938100
loop_
  _atom_site_label
  _atom_site_type_symbol
  _atom_site_fract_x
  _atom_site_fract_y
  _atom_site_fract_z
N1 N 0.35208 0.31667 0.32603
 N2 N 0.35208 0.32573 0.31736
 C3 C 0.36191 0.32379 0.30931
 C4 C 0.36831 0.31297 0.31319
 C5 C 0.36189 0.30867 0.32380
 H6 H 0.36424 0.32973 0.30122
 H7 H 0.36418 0.30034 0.32944
 Cu8 Cu 0.33920 0.33912 0.31738
 Cu9 Cu 0.33934 0.31588 0.33948
 Cu10 Cu 0.31590 0.33925 0.33943
 N11 N 0.32578 0.35197 0.31731
 N12 N 0.31669 0.35196 0.32595
 C13 C 0.30868 0.36176 0.32370
 C14 C 0.31301 0.36817 0.31310
 C15 C 0.32384 0.36178 0.30924
 H16 H 0.30034 0.36405 0.32932
 H17 H 0.32982 0.36412 0.30118
 N18 N 0.31670 0.32559 0.35228
 N19 N 0.32564 0.31668 0.35230
 C20 C 0.32359 0.30874 0.36218
 C21 C 0.31289 0.31289 0.36859
 C22 C 0.30873 0.32355 0.36214
 H23 H 0.32940 0.30054 0.36455
 H24 H 0.30052 0.32934 0.36448
 H25 H 0.32510 0.32503 0.32934
 H26 H 0.33520 0.33517 0.33991
 N27 N 0.35248 0.81702 -0.17427
 N28 N 0.35229 0.82592 -0.18310
 C29 C 0.36207 0.82396 -0.19121
 C30 C 0.36864 0.81330 -0.18717
 C31 C 0.36239 0.80910 -0.17642
 H32 H 0.36426 0.82979 -0.19941
 H33 H 0.36483 0.80092 -0.17064
 Cu34 Cu 0.33926 0.83917 -0.18311
 Cu35 Cu 0.33984 0.81631 -0.16069
 Cu36 Cu 0.31635 0.83968 -0.16072
 N37 N 0.32597 0.85215 -0.18314
 N38 N 0.31704 0.85230 -0.17432
 C39 C 0.30910 0.86219 -0.17648
 C40 C 0.31331 0.86845 -0.18721
 C41 C 0.32399 0.86192 -0.19124
 H42 H 0.30090 0.86461 -0.17071
 H43 H 0.32986 0.86413 -0.19942
 N44 N 0.31727 0.82609 -0.14779
 N45 N 0.32622 0.81719 -0.14777
 C46 C 0.32420 0.80926 -0.13787
 C47 C 0.31353 0.81341 -0.13144
 C48 C 0.30933 0.82405 -0.13790
 H49 H 0.33000 0.80105 -0.13553
 H50 H 0.30108 0.82980 -0.13558
 H51 H 0.32537 0.82525 -0.17069
 H52 H 0.33563 0.83557 -0.16048
 N53 N 0.85205 0.31730 -0.17403
 N54 N 0.85186 0.32618 -0.18288
 C55 C 0.86164 0.32420 -0.19098
 C56 C 0.86822 0.31356 -0.18693
 C57 C 0.86195 0.30938 -0.17618
 H58 H 0.86382 0.33001 -0.19920
 H59 H 0.86439 0.30119 -0.17041
 Cu60 Cu 0.83875 0.33935 -0.18298
 Cu61 Cu 0.83940 0.31657 -0.16047
 Cu62 Cu 0.81594 0.33996 -0.16049
 N63 N 0.82556 0.35243 -0.18290
 N64 N 0.81666 0.35261 -0.17406
 C65 C 0.80872 0.36250 -0.17620
 C66 C 0.81293 0.36877 -0.18693
 C67 C 0.82359 0.36222 -0.19099
 H68 H 0.80053 0.36492 -0.17042
 H69 H 0.82942 0.36441 -0.19920
 N70 N 0.81684 0.32636 -0.14757
 N71 N 0.82578 0.31745 -0.14756
 C72 C 0.82376 0.30952 -0.13766
 C73 C 0.81308 0.31368 -0.13123
 C74 C 0.80890 0.32433 -0.13769
 H75 H 0.82955 0.30131 -0.13532
 H76 H 0.80065 0.33009 -0.13537
 H77 H 0.82492 0.32550 -0.17044
 H78 H 0.83524 0.33585 -0.16032
 N79 N 0.85193 0.81700 0.32588
 N80 N 0.85168 0.82582 0.31697
 C81 C 0.86152 0.82389 0.30893
 C82 C 0.86818 0.81334 0.31307
 C83 C 0.86191 0.80917 0.32382
 H84 H 0.86368 0.82967 0.30068
 H85 H 0.86440 0.80104 0.32966
 Cu86 Cu 0.83847 0.83888 0.31675
 Cu87 Cu 0.83924 0.81626 0.33941
 Cu88 Cu 0.81579 0.83966 0.33937
 N89 N 0.82540 0.85208 0.31693
 N90 N 0.81655 0.85232 0.32582
 C91 C 0.80871 0.86230 0.32375
 C92 C 0.81292 0.86856 0.31301
 C93 C 0.82349 0.86191 0.30888
 H94 H 0.80057 0.86479 0.32958
 H95 H 0.82930 0.86407 0.30065
 N96 N 0.81665 0.82603 0.35226
 N97 N 0.82558 0.81712 0.35228
 C98 C 0.82354 0.80919 0.36217
 C99 C 0.81286 0.81335 0.36859
 C100 C 0.80869 0.82400 0.36214
 H101 H 0.82934 0.80099 0.36454
 H102 H 0.80047 0.82979 0.36447
 H103 H 0.82469 0.82513 0.32947
 H104 H 0.83508 0.83555 0.33945
 N105 N 0.64792 0.68322 0.32624
 N106 N 0.64821 0.67443 0.31731
 C107 C 0.63840 0.67639 0.30925
 C108 C 0.63171 0.68692 0.31340
 C109 C 0.63793 0.69106 0.32417
 H110 H 0.63628 0.67064 0.30097
 H111 H 0.63541 0.69916 0.33002
 Cu112 Cu 0.66143 0.66139 0.31709
 Cu113 Cu 0.66055 0.68392 0.33981
 Cu114 Cu 0.68400 0.66052 0.33979
 N115 N 0.67451 0.64820 0.31728
 N116 N 0.68330 0.64791 0.32621
 C117 C 0.69117 0.63796 0.32410
 C118 C 0.68704 0.63176 0.31332
 C119 C 0.67648 0.63843 0.30919
 H120 H 0.69929 0.63545 0.32994
 H121 H 0.67073 0.63632 0.30092
 N122 N 0.68308 0.67410 0.35272
 N123 N 0.67415 0.68301 0.35272
 C124 C 0.67618 0.69095 0.36260
 C125 C 0.68685 0.68678 0.36903
 C126 C 0.69102 0.67613 0.36260
 H127 H 0.67041 0.69918 0.36492
 H128 H 0.69927 0.67036 0.36491
 H129 H 0.67515 0.67510 0.32990
 H130 H 0.66470 0.66463 0.33981
 N131 N 0.64782 0.18278 -0.17390
 N132 N 0.64788 0.17377 -0.18261
 C133 C 0.63811 0.17576 -0.19071
 C134 C 0.63167 0.18654 -0.18680
 C135 C 0.63802 0.19079 -0.17614
 H136 H 0.63585 0.16987 -0.19884
 H137 H 0.63571 0.19911 -0.17050
 Cu138 Cu 0.66080 0.16041 -0.18262
 Cu139 Cu 0.66052 0.18352 -0.16041
 Cu140 Cu 0.68402 0.16021 -0.16051
 N141 N 0.67425 0.14759 -0.18272
 N142 N 0.68331 0.14757 -0.17405
 C143 C 0.69135 0.13779 -0.17632
 C144 C 0.68705 0.13144 -0.18695
 C145 C 0.67622 0.13782 -0.19082
 H146 H 0.69967 0.13548 -0.17067
 H147 H 0.67027 0.13552 -0.19890
 N148 N 0.68313 0.17380 -0.14759
 N149 N 0.67417 0.18268 -0.14756
 C150 C 0.67617 0.19060 -0.13766
 C151 C 0.68686 0.18645 -0.13125
 C152 C 0.69107 0.17583 -0.13771
 H153 H 0.67035 0.19879 -0.13529
 H154 H 0.69932 0.17007 -0.13540
 H155 H 0.67482 0.17447 -0.17056
 H156 H 0.66470 0.16424 -0.16006
 N157 N 0.14779 0.68309 -0.17392
 N158 N 0.14779 0.67402 -0.18257
 C159 C 0.13802 0.67599 -0.19067
 C160 C 0.13165 0.68684 -0.18684
 C161 C 0.13802 0.69113 -0.17622
 H162 H 0.13571 0.67004 -0.19874
 H163 H 0.13574 0.69947 -0.17060
 Cu164 Cu 0.16060 0.66056 -0.18246
 Cu165 Cu 0.16045 0.68382 -0.16040
 Cu166 Cu 0.18376 0.66032 -0.16027
 N167 N 0.17397 0.64765 -0.18243
 N168 N 0.18299 0.64761 -0.17373
 C169 C 0.19101 0.63782 -0.17597
 C170 C 0.18675 0.63146 -0.18661
 C171 C 0.17596 0.63788 -0.19052
 H172 H 0.19934 0.63552 -0.17033
 H173 H 0.17007 0.63561 -0.19865
 N174 N 0.18293 0.67400 -0.14744
 N175 N 0.17405 0.68296 -0.14750
 C176 C 0.17609 0.69092 -0.13764
 C177 C 0.18672 0.68672 -0.13117
 C178 C 0.19085 0.67602 -0.13755
 H179 H 0.17034 0.69917 -0.13535
 H180 H 0.19905 0.67021 -0.13518
 H181 H 0.17470 0.67458 -0.17045
 H182 H 0.16447 0.66451 -0.15991
 N183 N 0.14779 0.18322 0.32609
 N184 N 0.14803 0.17440 0.31720
 C185 C 0.13820 0.17634 0.30915
 C186 C 0.13155 0.18691 0.31329
 C187 C 0.13782 0.19107 0.32402
 H188 H 0.13605 0.17059 0.30089
 H189 H 0.13535 0.19922 0.32984
 Cu190 Cu 0.16127 0.16137 0.31696
 Cu191 Cu 0.16050 0.18400 0.33958
 Cu192 Cu 0.18400 0.16066 0.33951
 N193 N 0.17438 0.14821 0.31712
 N194 N 0.18324 0.14799 0.32598
 C195 C 0.19111 0.13804 0.32388
 C196 C 0.18691 0.13177 0.31317
 C197 C 0.17631 0.13839 0.30907
 H198 H 0.19927 0.13558 0.32968
 H199 H 0.17050 0.13621 0.30086
 N200 N 0.18313 0.17429 0.35239
 N201 N 0.17418 0.18318 0.35241
 C202 C 0.17620 0.19112 0.36229
 C203 C 0.18690 0.18699 0.36869
 C204 C 0.19109 0.17634 0.36225
 H205 H 0.17038 0.19931 0.36465
 H206 H 0.19932 0.17057 0.36458
 H207 H 0.17504 0.17516 0.32961
 H208 H 0.16470 0.16472 0.33964
 N209 N 0.64792 0.31685 0.67416
 N210 N 0.64794 0.32591 0.68281
 C211 C 0.63815 0.32398 0.69091
 C212 C 0.63175 0.31317 0.68706
 C213 C 0.63813 0.30885 0.67643
 H214 H 0.63584 0.32993 0.69899
 H215 H 0.63583 0.30053 0.67082
 Cu216 Cu 0.66081 0.33929 0.68274
 Cu217 Cu 0.66062 0.31603 0.66067
 Cu218 Cu 0.68405 0.33936 0.66061
 N219 N 0.67424 0.35211 0.68275
 N220 N 0.68330 0.35208 0.67407
 C221 C 0.69132 0.36186 0.67628
 C222 C 0.68703 0.36828 0.68689
 C223 C 0.67620 0.36192 0.69079
 H224 H 0.69964 0.36412 0.67063
 H225 H 0.67026 0.36427 0.69887
 N226 N 0.68321 0.32569 0.64778
 N227 N 0.67428 0.31681 0.64780
 C228 C 0.67629 0.30886 0.63793
 C229 C 0.68696 0.31298 0.63148
 C230 C 0.69115 0.32363 0.63789
 H231 H 0.67047 0.30068 0.63559
 H232 H 0.69936 0.32941 0.63552
 H233 H 0.67488 0.32516 0.67076
 H234 H 0.66475 0.33532 0.66020
 N235 N 0.64792 0.81685 1.17414
 N236 N 0.64791 0.82595 1.18276
 C237 C 0.63808 0.82405 1.19082
 C238 C 0.63170 0.81322 1.18700
 C239 C 0.63813 0.80885 1.17642
 H240 H 0.63573 0.83005 1.19886
 H241 H 0.63587 0.80049 1.17084
 Cu242 Cu 0.66086 0.83925 1.18271
 Cu243 Cu 0.66060 0.81605 1.16064
 Cu244 Cu 0.68407 0.83936 1.16060
 N245 N 0.67423 0.85212 1.18272
 N246 N 0.68334 0.85206 1.17409
 C247 C 0.69139 0.86180 1.17635
 C248 C 0.68705 0.86825 1.18692
 C249 C 0.67617 0.86194 1.19075
 H250 H 0.69976 0.86402 1.17076
 H251 H 0.67018 0.86433 1.19879
 N252 N 0.68320 0.82571 1.14775
 N253 N 0.67426 0.81684 1.14776
 C254 C 0.67625 0.80890 1.13787
 C255 C 0.68692 0.81302 1.13142
 C256 C 0.69113 0.82365 1.13785
 H257 H 0.67043 0.80072 1.13553
 H258 H 0.69935 0.82942 1.13549
 H259 H 0.67494 0.82509 1.17073
 H260 H 0.66482 0.83527 1.16020
 N261 N 0.14786 0.31693 1.17411
 N262 N 0.14809 0.32579 1.18298
 C263 C 0.13827 0.32387 1.19104
 C264 C 0.13164 0.31329 1.18696
 C265 C 0.13791 0.30909 1.17623
 H266 H 0.13611 0.32967 1.19927
 H267 H 0.13544 0.30094 1.17043
 Cu268 Cu 0.16129 0.33883 1.18313
 Cu269 Cu 0.16053 0.31613 1.16057
 Cu270 Cu 0.18396 0.33951 1.16050
 N271 N 0.17436 0.35200 1.18290
 N272 N 0.18320 0.35220 1.17400
 C273 C 0.19106 0.36215 1.17606
 C274 C 0.18688 0.36844 1.18678
 C275 C 0.17630 0.36183 1.19092
 H276 H 0.19920 0.36460 1.17023
 H277 H 0.17051 0.36402 1.19916
 N278 N 0.18310 0.32584 1.14766
 N279 N 0.17418 0.31694 1.14769
 C280 C 0.17621 0.30898 1.13783
 C281 C 0.18687 0.31312 1.13137
 C282 C 0.19104 0.32378 1.13778
 H283 H 0.17041 0.30078 1.13550
 H284 H 0.19925 0.32955 1.13541
 H285 H 0.17508 0.32501 1.17046
 H286 H 0.16467 0.33541 1.16044
 N287 N 0.14784 0.81693 0.67405
 N288 N 0.14810 0.82576 0.68294
 C289 C 0.13827 0.82386 0.69100
 C290 C 0.13159 0.81333 0.68687
 C291 C 0.13785 0.80913 0.67613
 H292 H 0.13613 0.82965 0.69924
 H293 H 0.13534 0.80101 0.67031
 Cu294 Cu 0.16133 0.83877 0.68313
 Cu295 Cu 0.16050 0.81614 0.66051
 Cu296 Cu 0.18396 0.83948 0.66045
 N297 N 0.17440 0.85193 0.68288
 N298 N 0.18322 0.85215 0.67397
 C299 C 0.19107 0.86211 0.67601
 C300 C 0.18691 0.86839 0.68675
 C301 C 0.17635 0.86176 0.69091
 H302 H 0.19920 0.86458 0.67016
 H303 H 0.17058 0.86394 0.69917
 N304 N 0.18308 0.82583 0.64760
 N305 N 0.17414 0.81694 0.64762
 C306 C 0.17616 0.80899 0.63775
 C307 C 0.18683 0.81312 0.63130
 C308 C 0.19101 0.82377 0.63772
 H309 H 0.17036 0.80079 0.63542
 H310 H 0.19924 0.82953 0.63536
 H311 H 0.17508 0.82497 0.67040
 H312 H 0.16466 0.83542 0.66043
 N313 N 0.35209 0.68323 0.67406
 N314 N 0.35196 0.67432 0.68289
 C315 C 0.36180 0.67627 0.69092
 C316 C 0.36833 0.68693 0.68686
 C317 C 0.36199 0.69114 0.67617
 H318 H 0.36404 0.67044 0.69911
 H319 H 0.36438 0.69934 0.67040
 Cu320 Cu 0.33889 0.66115 0.68302
 Cu321 Cu 0.33937 0.68399 0.66058
 Cu322 Cu 0.31598 0.66058 0.66065
 N323 N 0.32573 0.64807 0.68297
 N324 N 0.31680 0.64791 0.67418
 C325 C 0.30891 0.63800 0.67634
 C326 C 0.31316 0.63170 0.68703
 C327 C 0.32382 0.63825 0.69104
 H328 H 0.30069 0.63558 0.67060
 H329 H 0.32968 0.63604 0.69921
 N330 N 0.31679 0.67423 0.64777
 N331 N 0.32570 0.68315 0.64775
 C332 C 0.32364 0.69108 0.63786
 C333 C 0.31298 0.68691 0.63144
 C334 C 0.30884 0.67625 0.63790
 H335 H 0.32943 0.69928 0.63548
 H336 H 0.30064 0.67045 0.63556
 H337 H 0.32495 0.67501 0.67060
 H338 H 0.33526 0.66470 0.66039
 N339 N 0.35222 0.18317 1.17398
 N340 N 0.35223 0.17412 1.18265
 C341 C 0.36204 0.17606 1.19071
 C342 C 0.36843 0.18687 1.18681
 C343 C 0.36201 0.19118 1.17620
 H344 H 0.36438 0.17012 1.19879
 H345 H 0.36429 0.19949 1.17055
 Cu346 Cu 0.33938 0.16072 1.18263
 Cu347 Cu 0.33949 0.18397 1.16052
 Cu348 Cu 0.31611 0.16060 1.16056
 N349 N 0.32597 0.14788 1.18269
 N350 N 0.31691 0.14789 1.17404
 C351 C 0.30891 0.13809 1.17627
 C352 C 0.31322 0.13168 1.18687
 C353 C 0.32403 0.13806 1.19075
 H354 H 0.30059 0.13581 1.17063
 H355 H 0.32998 0.13572 1.19883
 N356 N 0.31690 0.17426 1.14771
 N357 N 0.32581 0.18317 1.14770
 C358 C 0.32376 0.19111 1.13782
 C359 C 0.31309 0.18696 1.13141
 C360 C 0.30895 0.17630 1.13785
 H361 H 0.32956 0.19931 1.13545
 H362 H 0.30075 0.17050 1.13550
 H363 H 0.32526 0.17481 1.17067
 H364 H 0.33540 0.16467 1.16010
 N365 N 0.85219 0.68320 1.17402
 N366 N 0.85223 0.67414 1.18269
 C367 C 0.86204 0.67611 1.19074
 C368 C 0.86838 0.68694 1.18686
 C369 C 0.86196 0.69124 1.17626
 H370 H 0.86439 0.67016 1.19882
 H371 H 0.86421 0.69957 1.17062
 Cu372 Cu 0.83942 0.66071 1.18266
 Cu373 Cu 0.83947 0.68396 1.16056
 Cu374 Cu 0.81615 0.66053 1.16059
 N375 N 0.82604 0.64784 1.18272
 N376 N 0.81697 0.64782 1.17407
 C377 C 0.80897 0.63804 1.17634
 C378 C 0.81329 0.63165 1.18696
 C379 C 0.82410 0.63805 1.19082
 H380 H 0.80063 0.63575 1.17073
 H381 H 0.83005 0.63575 1.19891
 N382 N 0.81691 0.67419 1.14774
 N383 N 0.82580 0.68313 1.14773
 C384 C 0.82373 0.69107 1.13786
 C385 C 0.81307 0.68689 1.13143
 C386 C 0.80896 0.67621 1.13787
 H387 H 0.82950 0.69929 1.13550
 H388 H 0.80077 0.67039 1.13552
 H389 H 0.82527 0.67476 1.17070
 H390 H 0.83544 0.66466 1.16013
 N391 N 0.85170 0.18358 0.67429
 N392 N 0.85202 0.17430 0.68271
 C393 C 0.86239 0.17577 0.69015
 C394 C 0.86879 0.18652 0.68612
 C395 C 0.86181 0.19129 0.67608
 H396 H 0.86499 0.16964 0.69801
 H397 H 0.86382 0.19981 0.67063
 Cu398 Cu 0.83863 0.16146 0.68349
 Cu399 Cu 0.83787 0.18533 0.66209
 Cu400 Cu 0.81648 0.16020 0.66026
 N401 N 0.82568 0.14818 0.68306
 N402 N 0.81719 0.14762 0.67385
 C403 C 0.80946 0.13755 0.67584
 C404 C 0.81337 0.13155 0.68683
 C405 C 0.82365 0.13846 0.69121
 H406 H 0.80154 0.13486 0.66982
 H407 H 0.82918 0.13655 0.69968
 N408 N 0.81721 0.17398 0.64754
 N409 N 0.82523 0.18366 0.64836
 C410 C 0.82318 0.19165 0.63852
 C411 C 0.81340 0.18673 0.63127
 C412 C 0.80981 0.17557 0.63718
 H413 H 0.82834 0.20040 0.63678
 H414 H 0.80226 0.16920 0.63422
 H415 H 0.82374 0.17458 0.67115
 H416 H 0.83550 0.16585 0.66099
 N417 N 0.31683 0.35207 0.67403
 N418 N 0.32592 0.35207 0.68266
 C419 C 0.32397 0.36187 0.69074
 C420 C 0.31313 0.36825 0.68690
 C421 C 0.30881 0.36186 0.67630
 H422 H 0.32994 0.36419 0.69880
 H423 H 0.30046 0.36415 0.67069
 Cu424 Cu 0.33935 0.33923 0.68258
 Cu425 Cu 0.31604 0.33937 0.66055
 Cu426 Cu 0.33950 0.31601 0.66047
 N427 N 0.35223 0.32584 0.68258
 N428 N 0.35223 0.31679 0.67392
 C429 C 0.36202 0.30876 0.67617
 C430 C 0.36841 0.31305 0.68679
 C431 C 0.36202 0.32387 0.69066
 H432 H 0.36430 0.30042 0.67056
 H433 H 0.36432 0.32979 0.69876
 N434 N 0.32580 0.31683 0.64767
 N435 N 0.31686 0.32573 0.64770
 C436 C 0.30888 0.32368 0.63785
 C437 C 0.31304 0.31302 0.63142
 C438 C 0.32374 0.30888 0.63781
 H439 H 0.30064 0.32945 0.63554
 H440 H 0.32955 0.30068 0.63545
 H441 H 0.32526 0.32513 0.67063
 H442 H 0.33536 0.33529 0.66005
 N443 N 0.31688 0.85225 0.17379
 N444 N 0.32595 0.85226 0.18244
 C445 C 0.32401 0.86207 0.19049
 C446 C 0.31318 0.86846 0.18662
 C447 C 0.30886 0.86206 0.17603
 H448 H 0.32996 0.86440 0.19856
 H449 H 0.30052 0.86434 0.17041
 Cu450 Cu 0.33935 0.83939 0.18240
 Cu451 Cu 0.31608 0.83953 0.16034
 Cu452 Cu 0.33947 0.81610 0.16036
 N453 N 0.35220 0.82597 0.18246
 N454 N 0.35219 0.81689 0.17382
 C455 C 0.36199 0.80887 0.17609
 C456 C 0.36839 0.81319 0.18668
 C457 C 0.36201 0.82402 0.19053
 H458 H 0.36427 0.80053 0.17047
 H459 H 0.36434 0.82998 0.19859
 N460 N 0.32580 0.81692 0.14753
 N461 N 0.31688 0.82585 0.14752
 C462 C 0.30893 0.82381 0.13766
 C463 C 0.31308 0.81313 0.13125
 C464 C 0.32375 0.80897 0.13767
 H465 H 0.30073 0.82962 0.13530
 H466 H 0.32955 0.80075 0.13533
 H467 H 0.32525 0.82530 0.17048
 H468 H 0.33539 0.83540 0.15988
 N469 N 0.81677 0.35225 0.17376
 N470 N 0.82587 0.35227 0.18238
 C471 C 0.82395 0.36209 0.19043
 C472 C 0.81311 0.36847 0.18659
 C473 C 0.80876 0.36205 0.17602
 H474 H 0.82993 0.36443 0.19847
 H475 H 0.80040 0.36432 0.17042
 Cu476 Cu 0.83928 0.33941 0.18233
 Cu477 Cu 0.81595 0.33950 0.16033
 Cu478 Cu 0.83935 0.31609 0.16031
 N479 N 0.85213 0.32599 0.18237
 N480 N 0.85211 0.31690 0.17374
 C481 C 0.86189 0.30887 0.17600
 C482 C 0.86832 0.31320 0.18658
 C483 C 0.86195 0.32404 0.19042
 H484 H 0.86415 0.30051 0.17040
 H485 H 0.86429 0.33000 0.19849
 N486 N 0.82564 0.31688 0.14751
 N487 N 0.81671 0.32581 0.14753
 C488 C 0.80873 0.32375 0.13769
 C489 C 0.81287 0.31307 0.13127
 C490 C 0.82356 0.30892 0.13767
 H491 H 0.80052 0.32955 0.13535
 H492 H 0.82936 0.30071 0.13531
 H493 H 0.82517 0.32528 0.17046
 H494 H 0.83526 0.33538 0.15982
 N495 N 0.81684 0.85254 0.67397
 N496 N 0.82592 0.85254 0.68260
 C497 C 0.82398 0.86233 0.69068
 C498 C 0.81314 0.86872 0.68683
 C499 C 0.80882 0.86233 0.67623
 H500 H 0.82994 0.86465 0.69875
 H501 H 0.80047 0.86462 0.67062
 Cu502 Cu 0.83935 0.83969 0.68253
 Cu503 Cu 0.81604 0.83983 0.66050
 Cu504 Cu 0.83947 0.81645 0.66044
 N505 N 0.85222 0.82629 0.68254
 N506 N 0.85222 0.81723 0.67388
 C507 C 0.86200 0.80920 0.67613
 C508 C 0.86839 0.81348 0.68675
 C509 C 0.86201 0.82431 0.69062
 H510 H 0.86427 0.80085 0.67052
 H511 H 0.86431 0.83023 0.69872
 N512 N 0.82577 0.81726 0.64763
 N513 N 0.81684 0.82617 0.64766
 C514 C 0.80885 0.82411 0.63783
 C515 C 0.81299 0.81344 0.63140
 C516 C 0.82369 0.80929 0.63779
 H517 H 0.80061 0.82989 0.63552
 H518 H 0.82948 0.80108 0.63544
 H519 H 0.82524 0.82560 0.67061
 H520 H 0.83534 0.83573 0.66001
 N521 N 0.68312 0.64786 0.67422
 N522 N 0.67414 0.64798 0.68298
 C523 C 0.67608 0.63817 0.69105
 C524 C 0.68680 0.63166 0.68708
 C525 C 0.69106 0.63799 0.67641
 H526 H 0.67019 0.63592 0.69920
 H527 H 0.69932 0.63561 0.67070
 Cu528 Cu 0.66092 0.66104 0.68300
 Cu529 Cu 0.68392 0.66055 0.66070
 Cu530 Cu 0.66042 0.68390 0.66057
 N531 N 0.64779 0.67418 0.68284
 N532 N 0.64766 0.68310 0.67403
 C533 C 0.63775 0.69103 0.67616
 C534 C 0.63141 0.68681 0.68684
 C535 C 0.63796 0.67613 0.69088
 H536 H 0.63538 0.69927 0.67043
 H537 H 0.63574 0.67031 0.69909
 N538 N 0.67415 0.68310 0.64777
 N539 N 0.68310 0.67420 0.64782
 C540 C 0.69110 0.67626 0.63799
 C541 C 0.68695 0.68691 0.63153
 C542 C 0.67623 0.69105 0.63790
 H543 H 0.69935 0.67049 0.63569
 H544 H 0.67042 0.69924 0.63552
 H545 H 0.67482 0.67497 0.67063
 H546 H 0.66461 0.66464 0.66038
 N547 N 0.68332 0.14757 0.17386
 N548 N 0.67430 0.14761 0.18257
 C549 C 0.67628 0.13781 0.19065
 C550 C 0.68707 0.13140 0.18673
 C551 C 0.69134 0.13777 0.17609
 H552 H 0.67036 0.13552 0.19877
 H553 H 0.69964 0.13546 0.17042
 Cu554 Cu 0.66092 0.16050 0.18257
 Cu555 Cu 0.68406 0.16027 0.16036
 Cu556 Cu 0.66069 0.18372 0.16043
 N557 N 0.64807 0.17392 0.18265
 N558 N 0.64804 0.18297 0.17397
 C559 C 0.63826 0.19100 0.17625
 C560 C 0.63190 0.18672 0.18690
 C561 C 0.63830 0.17590 0.19076
 H562 H 0.63595 0.19933 0.17062
 H563 H 0.63600 0.16997 0.19886
 N564 N 0.67430 0.18285 0.14752
 N565 N 0.68321 0.17392 0.14750
 C566 C 0.69114 0.17595 0.13761
 C567 C 0.68700 0.18663 0.13120
 C568 C 0.67634 0.19081 0.13765
 H569 H 0.69936 0.17015 0.13526
 H570 H 0.67057 0.19905 0.13534
 H571 H 0.67495 0.17455 0.17048
 H572 H 0.66475 0.16442 0.16000
 N573 N 0.18307 0.64768 0.17361
 N574 N 0.17423 0.64794 0.18250
 C575 C 0.17617 0.63814 0.19058
 C576 C 0.18676 0.63150 0.18649
 C577 C 0.19094 0.63774 0.17573
 H578 H 0.17040 0.63601 0.19884
 H579 H 0.19911 0.63527 0.16993
 Cu580 Cu 0.16118 0.66117 0.18270
 Cu581 Cu 0.18382 0.66034 0.16005
 Cu582 Cu 0.16045 0.68382 0.16008
 N583 N 0.14801 0.67426 0.18252
 N584 N 0.14780 0.68312 0.17364
 C585 C 0.13786 0.69100 0.17574
 C586 C 0.13157 0.68682 0.18647
 C587 C 0.13818 0.67622 0.19058
 H588 H 0.13541 0.69916 0.16993
 H589 H 0.13599 0.67042 0.19880
 N590 N 0.17407 0.68291 0.14716
 N591 N 0.18296 0.67396 0.14714
 C592 C 0.19091 0.67599 0.13726
 C593 C 0.18677 0.68667 0.13085
 C594 C 0.17612 0.69086 0.13729
 H595 H 0.19913 0.67020 0.13493
 H596 H 0.17038 0.69912 0.13499
 H597 H 0.17497 0.67489 0.16997
 H598 H 0.16452 0.66452 0.16000
 N599 N 0.18307 0.14743 0.67407
 N600 N 0.17406 0.14747 0.68279
 C601 C 0.17606 0.13771 0.69089
 C602 C 0.18686 0.13130 0.68699
 C603 C 0.19111 0.13764 0.67632
 H604 H 0.17016 0.13542 0.69902
 H605 H 0.19941 0.13533 0.67064
 Cu606 Cu 0.16065 0.16034 0.68275
 Cu607 Cu 0.18377 0.16007 0.66051
 Cu608 Cu 0.16034 0.18345 0.66052
 N609 N 0.14776 0.17372 0.68279
 N610 N 0.14770 0.18274 0.67408
 C611 C 0.13791 0.19076 0.67634
 C612 C 0.13157 0.18652 0.68701
 C613 C 0.13800 0.17572 0.69091
 H614 H 0.13559 0.19906 0.67067
 H615 H 0.13573 0.16983 0.69905
 N616 N 0.17394 0.18258 0.64760
 N617 N 0.18287 0.17367 0.64759
 C618 C 0.19079 0.17569 0.63770
 C619 C 0.18660 0.18634 0.63125
 C620 C 0.17594 0.19051 0.63770
 H621 H 0.19903 0.16992 0.63536
 H622 H 0.17016 0.19873 0.63537
 H623 H 0.17465 0.17435 0.67059
 H624 H 0.16446 0.16415 0.66016
 N625 N 0.31681 0.64770 0.32591
 N626 N 0.32589 0.64771 0.31725
 C627 C 0.32396 0.63792 0.30917
 C628 C 0.31315 0.63152 0.31304
 C629 C 0.30882 0.63790 0.32365
 H630 H 0.32991 0.63562 0.30108
 H631 H 0.30047 0.63562 0.32927
 Cu632 Cu 0.33926 0.66059 0.31729
 Cu633 Cu 0.31597 0.66042 0.33936
 Cu634 Cu 0.33929 0.68385 0.33935
 N635 N 0.35207 0.67402 0.31723
 N636 N 0.35203 0.68308 0.32589
 C637 C 0.36181 0.69111 0.32366
 C638 C 0.36824 0.68681 0.31306
 C639 C 0.36189 0.67599 0.30918
 H640 H 0.36407 0.69943 0.32930
 H641 H 0.36425 0.67004 0.30111
 N642 N 0.32561 0.68303 0.35218
 N643 N 0.31672 0.67409 0.35218
 C644 C 0.30876 0.67612 0.36206
 C645 C 0.31289 0.68678 0.36848
 C646 C 0.32354 0.69096 0.36205
 H647 H 0.30058 0.67030 0.36442
 H648 H 0.32932 0.69917 0.36440
 H649 H 0.32510 0.67466 0.32922
 H650 H 0.33525 0.66456 0.33981
 N651 N 0.31679 0.14769 0.82584
 N652 N 0.32563 0.14796 0.81695
 C653 C 0.32374 0.13814 0.80890
 C654 C 0.31319 0.13147 0.81302
 C655 C 0.30898 0.13772 0.82376
 H656 H 0.32955 0.13600 0.80066
 H657 H 0.30084 0.13521 0.82958
 Cu658 Cu 0.33866 0.16117 0.81677
 Cu659 Cu 0.31598 0.16034 0.83938
 Cu660 Cu 0.33933 0.18379 0.83941
 N661 N 0.35183 0.17424 0.81700
 N662 N 0.35203 0.18307 0.82590
 C663 C 0.36198 0.19093 0.82383
 C664 C 0.36828 0.18677 0.81310
 C665 C 0.36167 0.17620 0.80896
 H666 H 0.36443 0.19906 0.82967
 H667 H 0.36386 0.17043 0.80072
 N668 N 0.32567 0.18290 0.85228
 N669 N 0.31678 0.17397 0.85227
 C670 C 0.30882 0.17597 0.86215
 C671 C 0.31294 0.18664 0.86859
 C672 C 0.32359 0.19083 0.86216
 H673 H 0.30063 0.17016 0.86449
 H674 H 0.32935 0.19905 0.86451
 H675 H 0.32484 0.17491 0.82948
 H676 H 0.33527 0.16450 0.83947
 N677 N 0.81686 0.64767 0.82591
 N678 N 0.82591 0.64771 0.81723
 C679 C 0.82397 0.63793 0.80914
 C680 C 0.81317 0.63152 0.81302
 C681 C 0.80887 0.63788 0.82366
 H682 H 0.82991 0.63564 0.80104
 H683 H 0.80055 0.63557 0.82930
 Cu684 Cu 0.83929 0.66058 0.81727
 Cu685 Cu 0.81606 0.66034 0.83941
 Cu686 Cu 0.83939 0.68377 0.83941
 N687 N 0.85210 0.67401 0.81723
 N688 N 0.85208 0.68305 0.82591
 C689 C 0.86185 0.69108 0.82367
 C690 C 0.86826 0.68682 0.81305
 C691 C 0.86190 0.67600 0.80916
 H692 H 0.86412 0.69939 0.82933
 H693 H 0.86424 0.67008 0.80106
 N694 N 0.82574 0.68290 0.85228
 N695 N 0.81685 0.67397 0.85229
 C696 C 0.80891 0.67597 0.86218
 C697 C 0.81304 0.68663 0.86861
 C698 C 0.82369 0.69082 0.86217
 H699 H 0.80072 0.67016 0.86453
 H700 H 0.82946 0.69903 0.86452
 H701 H 0.82517 0.67460 0.82930
 H702 H 0.83535 0.66446 0.83983
 N703 N 0.81683 0.14765 0.32592
 N704 N 0.82568 0.14789 0.31704
 C705 C 0.82379 0.13806 0.30900
 C706 C 0.81323 0.13140 0.31313
 C707 C 0.80902 0.13767 0.32385
 H708 H 0.82960 0.13589 0.30077
 H709 H 0.80087 0.13518 0.32967
 Cu710 Cu 0.83871 0.16110 0.31682
 Cu711 Cu 0.81604 0.16031 0.33945
 Cu712 Cu 0.83943 0.18372 0.33947
 N713 N 0.85189 0.17416 0.31704
 N714 N 0.85212 0.18298 0.32594
 C715 C 0.86207 0.19083 0.32387
 C716 C 0.86835 0.18666 0.31313
 C717 C 0.86172 0.17610 0.30900
 H718 H 0.86454 0.19896 0.32969
 H719 H 0.86390 0.17033 0.30075
 N720 N 0.82577 0.18285 0.35234
 N721 N 0.81686 0.17394 0.35233
 C722 C 0.80890 0.17596 0.36221
 C723 C 0.81305 0.18660 0.36865
 C724 C 0.82372 0.19077 0.36223
 H725 H 0.80069 0.17017 0.36454
 H726 H 0.82950 0.19897 0.36459
 H727 H 0.82492 0.17485 0.32954
 H728 H 0.83534 0.16443 0.33953
 N729 N 0.68321 0.35208 0.32591
 N730 N 0.67439 0.35187 0.31701
 C731 C 0.67632 0.36173 0.30899
 C732 C 0.68688 0.36836 0.31314
 C733 C 0.69105 0.36205 0.32387
 H734 H 0.67054 0.36392 0.30075
 H735 H 0.69918 0.36451 0.32971
 Cu736 Cu 0.66135 0.33867 0.31676
 Cu737 Cu 0.68397 0.33937 0.33941
 Cu738 Cu 0.66058 0.31596 0.33932
 N739 N 0.64816 0.32561 0.31691
 N740 N 0.64793 0.31675 0.32578
 C741 C 0.63797 0.30891 0.32368
 C742 C 0.63171 0.31312 0.31295
 C743 C 0.63835 0.32370 0.30885
 H744 H 0.63549 0.30076 0.32948
 H745 H 0.63618 0.32951 0.30062
 N746 N 0.67420 0.31677 0.35222
 N747 N 0.68311 0.32568 0.35225
 C748 C 0.69103 0.32362 0.36214
 C749 C 0.68687 0.31295 0.36855
 C750 C 0.67622 0.30881 0.36209
 H751 H 0.69923 0.32941 0.36451
 H752 H 0.67043 0.30060 0.36441
 H753 H 0.67512 0.32486 0.32944
 H754 H 0.66468 0.33524 0.33945
 N755 N 0.68307 0.85218 0.82596
 N756 N 0.67403 0.85219 0.81727
 C757 C 0.67600 0.86200 0.80921
 C758 C 0.68680 0.86839 0.81312
 C759 C 0.69108 0.86198 0.82374
 H760 H 0.67007 0.86434 0.80112
 H761 H 0.69938 0.86427 0.82941
 Cu762 Cu 0.66062 0.83935 0.81730
 Cu763 Cu 0.68382 0.83947 0.83944
 Cu764 Cu 0.66043 0.81612 0.83943
 N765 N 0.64777 0.82595 0.81725
 N766 N 0.64775 0.81691 0.82593
 C767 C 0.63796 0.80891 0.82370
 C768 C 0.63158 0.81320 0.81307
 C769 C 0.63798 0.82400 0.80917
 H770 H 0.63566 0.80060 0.82935
 H771 H 0.63567 0.82993 0.80107
 N772 N 0.67407 0.81692 0.85229
 N773 N 0.68299 0.82582 0.85230
 C774 C 0.69092 0.82377 0.86218
 C775 C 0.68675 0.81312 0.86861
 C776 C 0.67609 0.80897 0.86217
 H777 H 0.69913 0.82956 0.86453
 H778 H 0.67029 0.80078 0.86452
 H779 H 0.67468 0.82524 0.82931
 H780 H 0.66452 0.83539 0.83985
 N781 N 0.18312 0.35203 0.82583
 N782 N 0.17407 0.35206 0.81716
 C783 C 0.17604 0.36188 0.80911
 C784 C 0.18685 0.36825 0.81301
 C785 C 0.19113 0.36182 0.82361
 H786 H 0.17009 0.36424 0.80103
 H787 H 0.19945 0.36409 0.82927
 Cu788 Cu 0.16066 0.33922 0.81718
 Cu789 Cu 0.18387 0.33931 0.83930
 Cu790 Cu 0.16046 0.31596 0.83928
 N791 N 0.14779 0.32584 0.81712
 N792 N 0.14777 0.31678 0.82578
 C793 C 0.13797 0.30878 0.82353
 C794 C 0.13159 0.31310 0.81291
 C795 C 0.13800 0.32391 0.80904
 H796 H 0.13568 0.30045 0.82915
 H797 H 0.13569 0.32986 0.80095
 N798 N 0.17411 0.31675 0.85214
 N799 N 0.18303 0.32564 0.85214
 C800 C 0.19096 0.32359 0.86203
 C801 C 0.18678 0.31294 0.86846
 C802 C 0.17612 0.30880 0.86202
 H803 H 0.19917 0.32937 0.86439
 H804 H 0.17031 0.30061 0.86437
 H805 H 0.17472 0.32510 0.82918
 H806 H 0.16457 0.33525 0.83973
 N807 N 0.18312 0.85218 0.32596
 N808 N 0.17406 0.85221 0.31729
 C809 C 0.17602 0.86203 0.30924
 C810 C 0.18684 0.86839 0.31313
 C811 C 0.19114 0.86197 0.32373
 H812 H 0.17008 0.86438 0.30117
 H813 H 0.19946 0.86424 0.32937
 Cu814 Cu 0.16064 0.83939 0.31734
 Cu815 Cu 0.18390 0.83945 0.33942
 Cu816 Cu 0.16046 0.81612 0.33942
 N817 N 0.14776 0.82603 0.31730
 N818 N 0.14774 0.81697 0.32596
 C819 C 0.13792 0.80899 0.32373
 C820 C 0.13152 0.81333 0.31313
 C821 C 0.13794 0.82412 0.30925
 H822 H 0.13562 0.80067 0.32936
 H823 H 0.13562 0.83007 0.30116
 N824 N 0.17414 0.81688 0.35225
 N825 N 0.18307 0.82577 0.35225
 C826 C 0.19102 0.82371 0.36212
 C827 C 0.18684 0.81305 0.36854
 C828 C 0.17617 0.80892 0.36212
 H829 H 0.19923 0.82949 0.36447
 H830 H 0.17035 0.80074 0.36448
 H831 H 0.17471 0.82525 0.32930
 H832 H 0.16459 0.83540 0.33987
 C833 C 0.25479 1.01166 0.24531
 C834 C 0.24522 1.01165 0.25472
 C835 C 0.24047 1.00004 0.25932
 C836 C 0.24515 0.98843 0.25463
 C837 C 0.25472 0.98844 0.24522
 C838 C 0.25947 1.00005 0.24062
 H839 H 0.26684 1.00005 0.23337
 H840 H 0.23310 1.00004 0.26657
 C841 C 0.25480 0.51156 0.74526
 C842 C 0.24517 0.51162 0.75461
 C843 C 0.24041 0.50004 0.75927
 C844 C 0.24513 0.48840 0.75469
 C845 C 0.25475 0.48834 0.74533
 C846 C 0.25952 0.49992 0.74069
 H847 H 0.26693 0.49988 0.73347
 H848 H 0.23299 0.50009 0.76647
 C849 C 0.75494 -0.01188 0.25483
 C850 C 0.74536 -0.01184 0.24544
 C851 C 0.74068 -0.00022 0.24078
 C852 C 0.74544 0.01138 0.24539
 C853 C 0.75501 0.01135 0.25479
 C854 C 0.75970 -0.00028 0.25943
 H855 H 0.76707 -0.00030 0.26668
 H856 H 0.73330 -0.00019 0.23354
 C857 C 0.75475 0.48825 0.75490
 C858 C 0.74526 0.48826 0.74541
 C859 C 0.74063 0.49988 0.74069
 C860 C 0.74533 0.51148 0.74534
 C861 C 0.75479 0.51147 0.75484
 C862 C 0.75944 0.49985 0.75955
 H863 H 0.76673 0.49985 0.76687
 H864 H 0.73333 0.49989 0.73337
 C865 C 0.25475 0.48836 0.25469
 C866 C 0.24510 0.48837 0.24538
 C867 C 0.24035 0.49999 0.24077
 C868 C 0.24513 0.51159 0.24533
 C869 C 0.25481 0.51158 0.25461
 C870 C 0.25955 0.49997 0.25923
 H871 H 0.26700 0.49997 0.26640
 H872 H 0.23289 0.49999 0.23361
 C873 C 0.75458 1.01185 0.74552
 C874 C 0.74502 1.01186 0.75495
 C875 C 0.74032 1.00024 0.75959
 C876 C 0.74502 0.98863 0.75494
 C877 C 0.75458 0.98863 0.74552
 C878 C 0.75930 1.00024 0.74088
 H879 H 0.76666 1.00024 0.73362
 H880 H 0.73294 1.00025 0.76684
 C881 C 0.75477 0.51167 0.24532
 C882 C 0.74516 0.51167 0.25468
 C883 C 0.74040 0.50007 0.25928
 C884 C 0.74511 0.48845 0.25464
 C885 C 0.75472 0.48845 0.24526
 C886 C 0.75948 0.50006 0.24067
 H887 H 0.76688 0.50006 0.23345
 H888 H 0.73299 0.50007 0.26650
 C889 C 0.25505 -0.01195 0.75488
 C890 C 0.24547 -0.01192 0.74548
 C891 C 0.24076 -0.00030 0.74085
 C892 C 0.24547 0.01130 0.74549
 C893 C 0.25504 0.01127 0.75490
 C894 C 0.25976 -0.00035 0.75952
 H895 H 0.26714 -0.00036 0.76676
 H896 H 0.23338 -0.00028 0.73361
 C897 C 0.24520 0.25475 1.01153
 C898 C 0.25469 0.24522 1.01152
 C899 C 0.25936 0.24052 0.99994
 C900 C 0.25468 0.24523 0.98837
 C901 C 0.24519 0.25476 0.98838
 C902 C 0.24052 0.25944 0.99996
 H903 H 0.23321 0.26679 0.99996
 H904 H 0.26668 0.23319 0.99994
 C905 C 0.24541 0.75489 0.51153
 C906 C 0.25491 0.74537 0.51152
 C907 C 0.25958 0.74068 0.49994
 C908 C 0.25490 0.74538 0.48837
 C909 C 0.24540 0.75490 0.48838
 C910 C 0.24073 0.75958 0.49996
 H911 H 0.23341 0.76692 0.49996
 H912 H 0.26690 0.73335 0.49994
 C913 C 0.25500 0.75477 -0.01183
 C914 C 0.24552 0.74526 -0.01177
 C915 C 0.24085 0.74062 -0.00016
 C916 C 0.24555 0.74535 0.01138
 C917 C 0.25506 0.75484 0.01132
 C918 C 0.25972 0.75948 -0.00029
 H919 H 0.26703 0.76681 -0.00034
 H920 H 0.23353 0.73330 -0.00011
 C921 C 0.25456 0.25472 0.48855
 C922 C 0.24508 0.24521 0.48859
 C923 C 0.24043 0.24054 0.50019
 C924 C 0.24514 0.24523 0.51175
 C925 C 0.25462 0.25474 0.51170
 C926 C 0.25926 0.25943 0.50011
 H927 H 0.26658 0.26675 0.50007
 H928 H 0.23313 0.23320 0.50023
 C929 C 0.74536 0.75483 1.01154
 C930 C 0.75485 0.74531 1.01154
 C931 C 0.75953 0.74062 0.99996
 C932 C 0.75485 0.74533 0.98838
 C933 C 0.74535 0.75485 0.98839
 C934 C 0.74068 0.75953 0.99997
 H935 H 0.73336 0.76687 0.99998
 H936 H 0.76685 0.73329 0.99995
 C937 C 0.74524 0.25465 0.51158
 C938 C 0.75473 0.24512 0.51157
 C939 C 0.75939 0.24043 0.49999
 C940 C 0.75472 0.24513 0.48842
 C941 C 0.74523 0.25467 0.48843
 C942 C 0.74056 0.25935 0.50001
 H943 H 0.73326 0.26670 0.50002
 H944 H 0.76670 0.23308 0.49998
 C945 C 0.75447 0.25492 -0.01175
 C946 C 0.74512 0.24528 -0.01171
 C947 C 0.74056 0.24051 -0.00011
 C948 C 0.74523 0.24524 0.01144
 C949 C 0.75458 0.25488 0.01140
 C950 C 0.75913 0.25966 -0.00019
 H951 H 0.76634 0.26709 -0.00022
 H952 H 0.73336 0.23307 -0.00008
 C953 C 0.75487 0.75492 0.48858
 C954 C 0.74537 0.74542 0.48852
 C955 C 0.74066 0.74067 0.50007
 C956 C 0.74531 0.74531 0.51167
 C957 C 0.75478 0.75483 0.51173
 C958 C 0.75950 0.75956 0.50019
 H959 H 0.76680 0.76689 0.50023
 H960 H 0.73335 0.73335 0.50002
 C961 C 1.01157 0.24535 0.25468
 C962 C 1.01152 0.25476 0.24512
 C963 C 0.99987 0.25934 0.24041
 C964 C 0.98829 0.25464 0.24513
 C965 C 0.98834 0.24523 0.25469
 C966 C 0.99998 0.24065 0.25940
 H967 H 1.00003 0.23340 0.26677
 H968 H 0.99983 0.26659 0.23304
 C969 C 0.51170 0.24496 0.75456
 C970 C 0.51163 0.25466 0.74528
 C971 C 0.49999 0.25943 0.74077
 C972 C 0.48840 0.25465 0.74541
 C973 C 0.48847 0.24495 0.75469
 C974 C 0.50011 0.24018 0.75920
 H975 H 0.50016 0.23271 0.76635
 H976 H 0.49994 0.26690 0.73362
 C977 C -0.01179 0.25470 0.75471
 C978 C -0.01173 0.24509 0.74536
 C979 C -0.00009 0.24038 0.74077
 C980 C 0.01150 0.24515 0.74540
 C981 C 0.01145 0.25476 0.75474
 C982 C -0.00020 0.25947 0.75934
 H983 H -0.00024 0.26687 0.76655
 H984 H -0.00005 0.23298 0.73356
 C985 C 0.48845 0.25456 0.25474
 C986 C 0.48848 0.24506 0.24527
 C987 C 0.50010 0.24042 0.24057
 C988 C 0.51171 0.24512 0.24523
 C989 C 0.51169 0.25460 0.25472
 C990 C 0.50006 0.25925 0.25940
 H991 H 0.50004 0.26656 0.26671
 H992 H 0.50012 0.23311 0.23327
 C993 C 1.01158 0.74530 0.75466
 C994 C 1.01154 0.75495 0.74533
 C995 C 0.99991 0.75972 0.74078
 C996 C 0.98831 0.75495 0.74541
 C997 C 0.98834 0.74528 0.75470
 C998 C 0.99998 0.74052 0.75927
 H999 H 1.00000 0.73308 0.76644
 H1000 H 0.99988 0.76716 0.73361
 C1001 C 0.51161 0.74529 0.25485
 C1002 C 0.51160 0.75490 0.24547
 C1003 C 0.49998 0.75958 0.24080
 C1004 C 0.48837 0.75481 0.24538
 C1005 C 0.48837 0.74522 0.25477
 C1006 C 0.49999 0.74053 0.25943
 H1007 H 0.49999 0.73313 0.26665
 H1008 H 0.49998 0.76697 0.23356
 C1009 C -0.01164 0.75478 0.25479
 C1010 C -0.01165 0.74519 0.24542
 C1011 C -0.00004 0.74048 0.24075
 C1012 C 0.01158 0.74521 0.24533
 C1013 C 0.01160 0.75480 0.25471
 C1014 C -0.00002 0.75952 0.25937
 H1015 H -0.00001 0.76691 0.26659
 H1016 H -0.00005 0.73309 0.23353
 C1017 C 0.48818 0.75504 0.75473
 C1018 C 0.48823 0.74539 0.74542
 C1019 C 0.49988 0.74065 0.74085
 C1020 C 0.51147 0.74542 0.74548
 C1021 C 0.51141 0.75508 0.75477
 C1022 C 0.49977 0.75983 0.75933
 H1023 H 0.49973 0.76726 0.76651
 H1024 H 0.49992 0.73320 0.73369
 C1025 C 0.37939 0.30736 0.30740
 C1026 C 0.38871 0.30266 0.30257
 C1027 C 0.39989 0.29708 0.29687
 C1028 C 0.41155 0.30357 0.29728
 C1029 C 0.42246 0.29812 0.29187
 C1030 C 0.42185 0.28609 0.28596
 C1031 C 0.41007 0.27967 0.28554
 C1032 C 0.39917 0.28513 0.29097
 C1033 C 0.43349 0.28025 0.28036
 C1034 C 0.43292 0.27373 0.26867
 C1035 C 0.44393 0.26834 0.26338
 C1036 C 0.45563 0.26937 0.26971
 C1037 C 0.45628 0.27578 0.28137
 C1038 C 0.44530 0.28118 0.28666
 C1039 C 0.46702 0.26398 0.26426
 C1040 C 0.47670 0.25962 0.25985
 H1041 H 0.41221 0.31284 0.30179
 H1042 H 0.43134 0.30339 0.29219
 H1043 H 0.40933 0.27033 0.28120
 H1044 H 0.39020 0.28001 0.29063
 H1045 H 0.42400 0.27298 0.26352
 H1046 H 0.44333 0.26343 0.25433
 H1047 H 0.46529 0.27660 0.28636
 H1048 H 0.44602 0.28597 0.29575
 C1049 C 0.37915 0.80802 0.80736
 C1050 C 0.38848 0.80334 0.80252
 C1051 C 0.39966 0.79776 0.79680
 C1052 C 0.41131 0.80426 0.79717
 C1053 C 0.42221 0.79882 0.79175
 C1054 C 0.42161 0.78677 0.78586
 C1055 C 0.40983 0.78034 0.78548
 C1056 C 0.39893 0.78580 0.79093
 C1057 C 0.43324 0.78092 0.78025
 C1058 C 0.43264 0.77434 0.76859
 C1059 C 0.44364 0.76891 0.76331
 C1060 C 0.45536 0.76998 0.76960
 C1061 C 0.45604 0.77646 0.78121
 C1062 C 0.44507 0.78190 0.78651
 C1063 C 0.46674 0.76455 0.76416
 C1064 C 0.47642 0.76015 0.75977
 H1065 H 0.41197 0.81354 0.80166
 H1066 H 0.43109 0.80409 0.79204
 H1067 H 0.40909 0.77099 0.78117
 H1068 H 0.38997 0.78067 0.79062
 H1069 H 0.42371 0.77355 0.76347
 H1070 H 0.44302 0.76395 0.75429
 H1071 H 0.46506 0.77731 0.78619
 H1072 H 0.44582 0.78673 0.79558
 C1073 C -0.12071 0.30794 0.80726
 C1074 C -0.11140 0.30323 0.80241
 C1075 C -0.10025 0.29762 0.79668
 C1076 C -0.08857 0.30408 0.79707
 C1077 C -0.07769 0.29860 0.79164
 C1078 C -0.07834 0.28657 0.78574
 C1079 C -0.09014 0.28018 0.78534
 C1080 C -0.10102 0.28568 0.79078
 C1081 C -0.06672 0.28068 0.78014
 C1082 C -0.06732 0.27409 0.76849
 C1083 C -0.05633 0.26863 0.76322
 C1084 C -0.04462 0.26967 0.76954
 C1085 C -0.04394 0.27614 0.78115
 C1086 C -0.05490 0.28161 0.78642
 C1087 C -0.03324 0.26422 0.76411
 C1088 C -0.02355 0.25981 0.75974
 H1089 H -0.08788 0.31335 0.80158
 H1090 H -0.06879 0.30384 0.79194
 H1091 H -0.09092 0.27085 0.78100
 H1092 H -0.11000 0.28058 0.79046
 H1093 H -0.07624 0.27333 0.76335
 H1094 H -0.05695 0.26367 0.75420
 H1095 H -0.03493 0.27697 0.78613
 H1096 H -0.05415 0.28644 0.79549
 C1097 C -0.12068 0.80778 0.30733
 C1098 C -0.11133 0.80311 0.30253
 C1099 C -0.10014 0.79754 0.29684
 C1100 C -0.08849 0.80404 0.29723
 C1101 C -0.07758 0.79859 0.29183
 C1102 C -0.07818 0.78655 0.28594
 C1103 C -0.08995 0.78011 0.28554
 C1104 C -0.10086 0.78558 0.29096
 C1105 C -0.06654 0.78070 0.28033
 C1106 C -0.06713 0.77413 0.26867
 C1107 C -0.05613 0.76870 0.26340
 C1108 C -0.04442 0.76975 0.26972
 C1109 C -0.04375 0.77621 0.28134
 C1110 C -0.05472 0.78165 0.28662
 C1111 C -0.03304 0.76432 0.26428
 C1112 C -0.02337 0.75990 0.25988
 H1113 H -0.08783 0.81332 0.30172
 H1114 H -0.06870 0.80386 0.29214
 H1115 H -0.09069 0.77077 0.28121
 H1116 H -0.10982 0.78045 0.29063
 H1117 H -0.07605 0.77337 0.26353
 H1118 H -0.05674 0.76375 0.25437
 H1119 H -0.03474 0.77704 0.28632
 H1120 H -0.05399 0.78647 0.29569
 C1121 C 0.62059 0.69248 0.30764
 C1122 C 0.61125 0.69715 0.30281
 C1123 C 0.60009 0.70271 0.29706
 C1124 C 0.59015 0.69487 0.29285
 C1125 C 0.57925 0.70025 0.28736
 C1126 C 0.57814 0.71357 0.28601
 C1127 C 0.58822 0.72137 0.29023
 C1128 C 0.59911 0.71596 0.29573
 C1129 C 0.56649 0.71930 0.28033
 C1130 C 0.56738 0.72971 0.27192
 C1131 C 0.55638 0.73509 0.26662
 C1132 C 0.54435 0.73015 0.26966
 C1133 C 0.54336 0.71981 0.27802
 C1134 C 0.55434 0.71441 0.28332
 C1135 C 0.53299 0.73568 0.26428
 C1136 C 0.52334 0.74015 0.25990
 H1137 H 0.59083 0.68460 0.29380
 H1138 H 0.57174 0.69399 0.28405
 H1139 H 0.58758 0.73165 0.28948
 H1140 H 0.60673 0.72212 0.29899
 H1141 H 0.57660 0.73359 0.26931
 H1142 H 0.55725 0.74308 0.26014
 H1143 H 0.53410 0.71594 0.28048
 H1144 H 0.55332 0.70653 0.28991
 C1145 C 0.62068 0.19223 0.80732
 C1146 C 0.61144 0.19698 0.80238
 C1147 C 0.60039 0.20261 0.79650
 C1148 C 0.59653 0.21495 0.79985
 C1149 C 0.58570 0.22037 0.79424
 C1150 C 0.57857 0.21349 0.78521
 C1151 C 0.58257 0.20111 0.78186
 C1152 C 0.59341 0.19572 0.78747
 C1153 C 0.56692 0.21913 0.77944
 C1154 C 0.55593 0.21163 0.77762
 C1155 C 0.54490 0.21696 0.77237
 C1156 C 0.54469 0.22984 0.76884
 C1157 C 0.55558 0.23737 0.77053
 C1158 C 0.56663 0.23206 0.77581
 C1159 C 0.53321 0.23531 0.76367
 C1160 C 0.52348 0.23977 0.75946
 H1161 H 0.60184 0.22035 0.80685
 H1162 H 0.58277 0.22984 0.79714
 H1163 H 0.57738 0.19565 0.77483
 H1164 H 0.59633 0.18618 0.78478
 H1165 H 0.55580 0.20171 0.78048
 H1166 H 0.53650 0.21107 0.77115
 H1167 H 0.55552 0.24734 0.76780
 H1168 H 0.57498 0.23803 0.77695
 C1169 C 1.12061 0.69247 0.80732
 C1170 C 1.11131 0.69717 0.80244
 C1171 C 1.10017 0.70273 0.79665
 C1172 C 1.08995 0.69495 0.79303
 C1173 C 1.07905 0.70034 0.78755
 C1174 C 1.07822 0.71360 0.78561
 C1175 C 1.08858 0.72133 0.78922
 C1176 C 1.09947 0.71593 0.79471
 C1177 C 1.06655 0.71933 0.77997
 C1178 C 1.06746 0.72930 0.77103
 C1179 C 1.05643 0.73468 0.76575
 C1180 C 1.04439 0.73018 0.76935
 C1181 C 1.04339 0.72028 0.77823
 C1182 C 1.05439 0.71489 0.78351
 C1183 C 1.03301 0.73568 0.76399
 C1184 C 1.02333 0.74014 0.75965
 H1185 H 1.09041 0.68472 0.79446
 H1186 H 1.07132 0.69411 0.78472
 H1187 H 1.08817 0.73159 0.78800
 H1188 H 1.10731 0.72204 0.79751
 H1189 H 1.07668 0.73283 0.76800
 H1190 H 1.05731 0.74231 0.75886
 H1191 H 1.03411 0.71676 0.78112
 H1192 H 1.05337 0.70736 0.79049
 C1193 C 1.12049 0.19257 0.30751
 C1194 C 1.11121 0.19738 0.30271
 C1195 C 1.10012 0.20318 0.29706
 C1196 C 1.09371 0.21300 0.30342
 C1197 C 1.08288 0.21859 0.29800
 C1198 C 1.07832 0.21443 0.28612
 C1199 C 1.08487 0.20458 0.27977
 C1200 C 1.09570 0.19899 0.28522
 C1201 C 1.06670 0.22023 0.28046
 C1202 C 1.06610 0.22288 0.26734
 C1203 C 1.05508 0.22821 0.26202
 C1204 C 1.04453 0.23094 0.26973
 C1205 C 1.04505 0.22838 0.28279
 C1206 C 1.05606 0.22307 0.28812
 C1207 C 1.03307 0.23614 0.26427
 C1208 C 1.02334 0.24039 0.25983
 H1209 H 1.09708 0.21634 0.31257
 H1210 H 1.07814 0.22626 0.30305
 H1211 H 1.08150 0.20106 0.27069
 H1212 H 1.10057 0.19137 0.28022
 H1213 H 1.07419 0.22093 0.26122
 H1214 H 1.05478 0.23018 0.25191
 H1215 H 1.03691 0.23040 0.28883
 H1216 H 1.05616 0.22099 0.29821
 C1217 C 0.62069 0.30757 0.69290
 C1218 C 0.61139 0.30289 0.69777
 C1219 C 0.60023 0.29734 0.70353
 C1220 C 0.58945 0.30488 0.70583
 C1221 C 0.57853 0.29949 0.71126
 C1222 C 0.57826 0.28645 0.71448
 C1223 C 0.58918 0.27897 0.71220
 C1224 C 0.60009 0.28438 0.70676
 C1225 C 0.56658 0.28068 0.72005
 C1226 C 0.56745 0.27170 0.72997
 C1227 C 0.55642 0.26630 0.73519
 C1228 C 0.54439 0.26980 0.73055
 C1229 C 0.54343 0.27870 0.72067
 C1230 C 0.55444 0.28411 0.71545
 C1231 C 0.53300 0.26431 0.73589
 C1232 C 0.52334 0.25985 0.74023
 H1233 H 0.58947 0.31493 0.70341
 H1234 H 0.57035 0.30554 0.71306
 H1235 H 0.58922 0.26888 0.71443
 H1236 H 0.60838 0.27845 0.70499
 H1237 H 0.57665 0.26898 0.73381
 H1238 H 0.55726 0.25944 0.74286
 H1239 H 0.53417 0.28144 0.71698
 H1240 H 0.55345 0.29085 0.70771
 C1241 C 0.62063 0.80763 0.19282
 C1242 C 0.61131 0.80296 0.19767
 C1243 C 0.60014 0.79742 0.20340
 C1244 C 0.58938 0.80499 0.20572
 C1245 C 0.57843 0.79961 0.21111
 C1246 C 0.57811 0.78656 0.21427
 C1247 C 0.58901 0.77904 0.21196
 C1248 C 0.59994 0.78444 0.20655
 C1249 C 0.56645 0.78084 0.21992
 C1250 C 0.56737 0.77185 0.22983
 C1251 C 0.55637 0.76651 0.23516
 C1252 C 0.54431 0.77006 0.23064
 C1253 C 0.54329 0.77898 0.22078
 C1254 C 0.55427 0.78433 0.21545
 C1255 C 0.53296 0.76457 0.23606
 C1256 C 0.52332 0.76008 0.24044
 H1257 H 0.58944 0.81505 0.20335
 H1258 H 0.57027 0.80569 0.21294
 H1259 H 0.58901 0.76895 0.21415
 H1260 H 0.60821 0.77849 0.20478
 H1261 H 0.57659 0.76908 0.23358
 H1262 H 0.55726 0.75965 0.24281
 H1263 H 0.53400 0.78177 0.21719
 H1264 H 0.55325 0.79108 0.20771
 C1265 C 1.12055 0.30773 0.19275
 C1266 C 1.11122 0.30304 0.19758
 C1267 C 1.10006 0.29747 0.20330
 C1268 C 1.08930 0.30501 0.20570
 C1269 C 1.07839 0.29958 0.21111
 C1270 C 1.07810 0.28652 0.21420
 C1271 C 1.08900 0.27903 0.21182
 C1272 C 1.09990 0.28448 0.20639
 C1273 C 1.06643 0.28072 0.21977
 C1274 C 1.06733 0.27163 0.22959
 C1275 C 1.05631 0.26621 0.23482
 C1276 C 1.04427 0.26981 0.23028
 C1277 C 1.04328 0.27881 0.22050
 C1278 C 1.05428 0.28423 0.21527
 C1279 C 1.03289 0.26433 0.23565
 C1280 C 1.02323 0.25990 0.24002
 H1281 H 1.08934 0.31508 0.20337
 H1282 H 1.07022 0.30564 0.21299
 H1283 H 1.08902 0.26892 0.21394
 H1284 H 1.10817 0.27854 0.20454
 H1285 H 1.07654 0.26883 0.23335
 H1286 H 1.05717 0.25927 0.24241
 H1287 H 1.03401 0.28163 0.21690
 H1288 H 1.05327 0.29106 0.20760
 C1289 C 1.12046 0.80780 0.69263
 C1290 C 1.11112 0.80315 0.69745
 C1291 C 1.09994 0.79761 0.70316
 C1292 C 1.08870 0.80476 0.70419
 C1293 C 1.07779 0.79936 0.70962
 C1294 C 1.07798 0.78671 0.71412
 C1295 C 1.08935 0.77961 0.71310
 C1296 C 1.10025 0.78504 0.70764
 C1297 C 1.06635 0.78092 0.71976
 C1298 C 1.06719 0.77308 0.73060
 C1299 C 1.05619 0.76769 0.73591
 C1300 C 1.04425 0.77004 0.73043
 C1301 C 1.04332 0.77779 0.71963
 C1302 C 1.05429 0.78321 0.71433
 C1303 C 1.03290 0.76456 0.73587
 C1304 C 1.02325 0.76011 0.74027
 H1305 H 1.08836 0.81452 0.70078
 H1306 H 1.06924 0.80512 0.71043
 H1307 H 1.08975 0.76981 0.71633
 H1308 H 1.10889 0.77941 0.70687
 H1309 H 1.07631 0.77127 0.73509
 H1310 H 1.05701 0.76174 0.74430
 H1311 H 1.03412 0.77964 0.71530
 H1312 H 1.05335 0.78905 0.70588
 C1313 C 0.37943 0.69253 0.69260
 C1314 C 0.38876 0.69723 0.69738
 C1315 C 0.39993 0.70284 0.70304
 C1316 C 0.41162 0.70241 0.69662
 C1317 C 0.42251 0.70780 0.70210
 C1318 C 0.42184 0.71371 0.71410
 C1319 C 0.41002 0.71413 0.72046
 C1320 C 0.39915 0.70872 0.71496
 C1321 C 0.43343 0.71936 0.71995
 C1322 C 0.43279 0.73108 0.72647
 C1323 C 0.44376 0.73643 0.73183
 C1324 C 0.45551 0.73014 0.73076
 C1325 C 0.45623 0.71846 0.72436
 C1326 C 0.44528 0.71310 0.71899
 C1327 C 0.46687 0.73568 0.73609
 C1328 C 0.47652 0.74017 0.74041
 H1329 H 0.41233 0.69792 0.68736
 H1330 H 0.43141 0.70748 0.69688
 H1331 H 0.40923 0.71848 0.72977
 H1332 H 0.39014 0.70909 0.72003
 H1333 H 0.42384 0.73620 0.72723
 H1334 H 0.44311 0.74549 0.73673
 H1335 H 0.46527 0.71350 0.72351
 H1336 H 0.44607 0.70399 0.71420
 C1337 C 0.37950 0.19249 0.19257
 C1338 C 0.38883 0.19720 0.19736
 C1339 C 0.40001 0.20279 0.20300
 C1340 C 0.39925 0.20872 0.21490
 C1341 C 0.41014 0.21411 0.22038
 C1342 C 0.42196 0.21362 0.21402
 C1343 C 0.42261 0.20767 0.20204
 C1344 C 0.41170 0.20231 0.19657
 C1345 C 0.43357 0.21924 0.21985
 C1346 C 0.44536 0.21284 0.21904
 C1347 C 0.45633 0.21817 0.22439
 C1348 C 0.45569 0.22994 0.23062
 C1349 C 0.44400 0.23636 0.23154
 C1350 C 0.43300 0.23104 0.22620
 C1351 C 0.46708 0.23545 0.23593
 C1352 C 0.47675 0.23991 0.24025
 H1353 H 0.39025 0.20912 0.21997
 H1354 H 0.40937 0.21850 0.22968
 H1355 H 0.43152 0.20730 0.19682
 H1356 H 0.41239 0.19779 0.18733
 H1357 H 0.44607 0.20366 0.21437
 H1358 H 0.46533 0.21310 0.22366
 H1359 H 0.44341 0.24551 0.23631
 H1360 H 0.42410 0.23626 0.22685
 C1361 C -0.12056 0.69259 0.19264
 C1362 C -0.11126 0.69732 0.19744
 C1363 C -0.10009 0.70294 0.20310
 C1364 C -0.10089 0.70886 0.21501
 C1365 C -0.09001 0.71427 0.22051
 C1366 C -0.07818 0.71378 0.21417
 C1367 C -0.07750 0.70783 0.20219
 C1368 C -0.08839 0.70245 0.19670
 C1369 C -0.06658 0.71938 0.22003
 C1370 C -0.05479 0.71299 0.21922
 C1371 C -0.04382 0.71831 0.22459
 C1372 C -0.04447 0.73007 0.23084
 C1373 C -0.05615 0.73649 0.23176
 C1374 C -0.06715 0.73118 0.22640
 C1375 C -0.03308 0.73557 0.23614
 C1376 C -0.02340 0.74003 0.24044
 H1377 H -0.10990 0.70927 0.22005
 H1378 H -0.09080 0.71865 0.22980
 H1379 H -0.06858 0.70746 0.19700
 H1380 H -0.08768 0.69793 0.18746
 H1381 H -0.05407 0.70381 0.21455
 H1382 H -0.03482 0.71324 0.22386
 H1383 H -0.05675 0.74563 0.23653
 H1384 H -0.07606 0.73639 0.22705
 C1385 C -0.11999 0.19202 0.69171
 C1386 C -0.11062 0.19669 0.69647
 C1387 C -0.09950 0.20229 0.70220
 C1388 C -0.08772 0.20181 0.69593
 C1389 C -0.07691 0.20723 0.70151
 C1390 C -0.07773 0.21323 0.71346
 C1391 C -0.08962 0.21370 0.71968
 C1392 C -0.10042 0.20825 0.71408
 C1393 C -0.06622 0.21894 0.71942
 C1394 C -0.06696 0.23074 0.72577
 C1395 C -0.05607 0.23613 0.73126
 C1396 C -0.04433 0.22980 0.73049
 C1397 C -0.04352 0.21803 0.72426
 C1398 C -0.05438 0.21263 0.71876
 C1399 C -0.03304 0.23538 0.73592
 C1400 C -0.02343 0.23990 0.74031
 H1401 H -0.08691 0.19726 0.68671
 H1402 H -0.06793 0.20688 0.69641
 H1403 H -0.09053 0.21811 0.72895
 H1404 H -0.10949 0.20865 0.71904
 H1405 H -0.07591 0.23589 0.72631
 H1406 H -0.05679 0.24527 0.73602
 H1407 H -0.03448 0.21303 0.72363
 H1408 H -0.05354 0.20346 0.71410
 C1409 C 0.30742 0.37926 0.30731
 C1410 C 0.30275 0.38860 0.30248
 C1411 C 0.29722 0.39979 0.29678
 C1412 C 0.28490 0.39932 0.29164
 C1413 C 0.27949 0.41024 0.28621
 C1414 C 0.28633 0.42178 0.28586
 C1415 C 0.29873 0.42213 0.29100
 C1416 C 0.30412 0.41120 0.29642
 C1417 C 0.28055 0.43344 0.28024
 C1418 C 0.28227 0.44539 0.28608
 C1419 C 0.27688 0.45637 0.28079
 C1420 C 0.26970 0.45558 0.26960
 C1421 C 0.26790 0.44375 0.26372
 C1422 C 0.27328 0.43273 0.26901
 C1423 C 0.26428 0.46696 0.26416
 C1424 C 0.25987 0.47663 0.25976
 H1425 H 0.27946 0.39054 0.29191
 H1426 H 0.26987 0.40971 0.28247
 H1427 H 0.30431 0.43082 0.29071
 H1428 H 0.31368 0.41166 0.30033
 H1429 H 0.28765 0.44622 0.29483
 H1430 H 0.27830 0.46549 0.28544
 H1431 H 0.26239 0.44304 0.25503
 H1432 H 0.27191 0.42370 0.26421
 C1433 C 0.30804 -0.12103 0.80733
 C1434 C 0.30337 -0.11169 0.80251
 C1435 C 0.29781 -0.10050 0.79680
 C1436 C 0.28531 -0.10085 0.79211
 C1437 C 0.27987 -0.08994 0.78668
 C1438 C 0.28687 -0.07852 0.78588
 C1439 C 0.29945 -0.07828 0.79058
 C1440 C 0.30487 -0.08920 0.79599
 C1441 C 0.28106 -0.06686 0.78028
 C1442 C 0.28319 -0.05484 0.78584
 C1443 C 0.27775 -0.04386 0.78058
 C1444 C 0.27011 -0.04473 0.76970
 C1445 C 0.26792 -0.05663 0.76409
 C1446 C 0.27334 -0.06764 0.76935
 C1447 C 0.26463 -0.03336 0.76429
 C1448 C 0.26018 -0.02369 0.75992
 H1449 H 0.27974 -0.10954 0.79271
 H1450 H 0.27012 -0.09038 0.78330
 H1451 H 0.30515 -0.06969 0.78995
 H1452 H 0.31456 -0.08884 0.79956
 H1453 H 0.28893 -0.05394 0.79436
 H1454 H 0.27948 -0.03470 0.78501
 H1455 H 0.26206 -0.05740 0.75564
 H1456 H 0.27166 -0.07673 0.76476
 C1457 C 0.80763 0.37927 0.80760
 C1458 C 0.80294 0.38859 0.80277
 C1459 C 0.79737 0.39977 0.79706
 C1460 C 0.78507 0.39925 0.79190
 C1461 C 0.77961 0.41014 0.78645
 C1462 C 0.78640 0.42172 0.78612
 C1463 C 0.79879 0.42212 0.79129
 C1464 C 0.80422 0.41121 0.79672
 C1465 C 0.78057 0.43336 0.78051
 C1466 C 0.78224 0.44531 0.78636
 C1467 C 0.77682 0.45628 0.78107
 C1468 C 0.76966 0.45547 0.76987
 C1469 C 0.76790 0.44363 0.76398
 C1470 C 0.77331 0.43263 0.76927
 C1471 C 0.76423 0.46684 0.76443
 C1472 C 0.75983 0.47651 0.76001
 H1473 H 0.77966 0.39044 0.79214
 H1474 H 0.77001 0.40957 0.78270
 H1475 H 0.80433 0.43083 0.79102
 H1476 H 0.81377 0.41171 0.80065
 H1477 H 0.78762 0.44616 0.79512
 H1478 H 0.77821 0.46539 0.78573
 H1479 H 0.76241 0.44291 0.75529
 H1480 H 0.77198 0.42360 0.76446
 C1481 C 0.80768 -0.12090 0.30758
 C1482 C 0.80303 -0.11154 0.30278
 C1483 C 0.79748 -0.10035 0.29708
 C1484 C 0.78498 -0.10070 0.29240
 C1485 C 0.77955 -0.08980 0.28696
 C1486 C 0.78656 -0.07838 0.28614
 C1487 C 0.79914 -0.07815 0.29084
 C1488 C 0.80455 -0.08906 0.29627
 C1489 C 0.78077 -0.06674 0.28050
 C1490 C 0.78288 -0.05471 0.28603
 C1491 C 0.77748 -0.04374 0.28072
 C1492 C 0.76989 -0.04463 0.26981
 C1493 C 0.76770 -0.05655 0.26423
 C1494 C 0.77309 -0.06755 0.26954
 C1495 C 0.76444 -0.03328 0.26434
 C1496 C 0.76003 -0.02362 0.25992
 H1497 H 0.77941 -0.10938 0.29302
 H1498 H 0.76980 -0.09024 0.28357
 H1499 H 0.80484 -0.06956 0.29019
 H1500 H 0.81425 -0.08870 0.29983
 H1501 H 0.78859 -0.05379 0.29457
 H1502 H 0.77920 -0.03456 0.28513
 H1503 H 0.76188 -0.05734 0.25576
 H1504 H 0.77142 -0.07665 0.26497
 C1505 C 0.30761 0.62060 0.69282
 C1506 C 0.30295 0.61127 0.69765
 C1507 C 0.29741 0.60010 0.70338
 C1508 C 0.30486 0.58917 0.70527
 C1509 C 0.29947 0.57826 0.71070
 C1510 C 0.28653 0.57813 0.71432
 C1511 C 0.27913 0.58919 0.71244
 C1512 C 0.28455 0.60009 0.70700
 C1513 C 0.28076 0.56646 0.71991
 C1514 C 0.27211 0.56732 0.73014
 C1515 C 0.26673 0.55630 0.73538
 C1516 C 0.26990 0.54430 0.73046
 C1517 C 0.27846 0.54335 0.72029
 C1518 C 0.28386 0.55435 0.71504
 C1519 C 0.26443 0.53292 0.73583
 C1520 C 0.25998 0.52326 0.74019
 H1521 H 0.31483 0.58909 0.70254
 H1522 H 0.30545 0.56996 0.71219
 H1523 H 0.26912 0.58933 0.71498
 H1524 H 0.27868 0.60849 0.70554
 H1525 H 0.26966 0.57650 0.73419
 H1526 H 0.26013 0.55713 0.74328
 H1527 H 0.28094 0.53411 0.71639
 H1528 H 0.29033 0.55338 0.70707
 C1529 C 0.30762 1.12059 0.19264
 C1530 C 0.30290 1.11126 0.19742
 C1531 C 0.29728 1.10007 0.20303
 C1532 C 0.29224 1.10056 0.21536
 C1533 C 0.28681 1.08967 0.22081
 C1534 C 0.28638 1.07812 0.21400
 C1535 C 0.29145 1.07774 0.20160
 C1536 C 0.29686 1.08865 0.19617
 C1537 C 0.28072 1.06650 0.21979
 C1538 C 0.28649 1.05451 0.21799
 C1539 C 0.28113 1.04355 0.22336
 C1540 C 0.26995 1.04441 0.23058
 C1541 C 0.26414 1.05629 0.23247
 C1542 C 0.26949 1.06728 0.22712
 C1543 C 0.26443 1.03305 0.23595
 C1544 C 0.25996 1.02339 0.24029
 H1545 H 0.29255 1.10936 0.22076
 H1546 H 0.28313 1.09023 0.23042
 H1547 H 0.29109 1.06905 0.19605
 H1548 H 0.30069 1.08817 0.18661
 H1549 H 0.29523 1.05361 0.21256
 H1550 H 0.28572 1.03440 0.22186
 H1551 H 0.25545 1.05705 0.23800
 H1552 H 0.26474 1.07634 0.22855
 C1553 C 0.80766 0.62063 0.19282
 C1554 C 0.80295 0.61136 0.19772
 C1555 C 0.79735 0.60026 0.20353
 C1556 C 0.78413 0.59841 0.20313
 C1557 C 0.77872 0.58754 0.20865
 C1558 C 0.78648 0.57837 0.21463
 C1559 C 0.79976 0.58035 0.21503
 C1560 C 0.80515 0.59123 0.20952
 C1561 C 0.78078 0.56670 0.22029
 C1562 C 0.78683 0.55479 0.21882
 C1563 C 0.78145 0.54378 0.22405
 C1564 C 0.76997 0.54450 0.23082
 C1565 C 0.76387 0.55629 0.23236
 C1566 C 0.76924 0.56733 0.22712
 C1567 C 0.76444 0.53309 0.23607
 C1568 C 0.75996 0.52341 0.24034
 H1569 H 0.77801 0.60533 0.19848
 H1570 H 0.76849 0.58621 0.20803
 H1571 H 0.80597 0.57355 0.21971
 H1572 H 0.81539 0.59258 0.20992
 H1573 H 0.79562 0.55396 0.21346
 H1574 H 0.78622 0.53469 0.22277
 H1575 H 0.75499 0.55695 0.23760
 H1576 H 0.76443 0.57637 0.22853
 C1577 C 0.80776 1.12048 0.69263
 C1578 C 0.80305 1.11118 0.69747
 C1579 C 0.79743 1.10005 0.70320
 C1580 C 0.78498 1.10055 0.70802
 C1581 C 0.77949 1.08970 0.71349
 C1582 C 0.78639 1.07819 0.71418
 C1583 C 0.79892 1.07781 0.70935
 C1584 C 0.80439 1.08867 0.70390
 C1585 C 0.78053 1.06659 0.71982
 C1586 C 0.78246 1.05457 0.71419
 C1587 C 0.77702 1.04364 0.71952
 C1588 C 0.76957 1.04455 0.73054
 C1589 C 0.76756 1.05646 0.73620
 C1590 C 0.77298 1.06743 0.73088
 C1591 C 0.76411 1.03322 0.73601
 C1592 C 0.75969 1.02357 0.74043
 H1593 H 0.77950 1.10931 0.70749
 H1594 H 0.76978 1.09025 0.71698
 H1595 H 0.80453 1.06915 0.70991
 H1596 H 0.81405 1.08820 0.70024
 H1597 H 0.78806 1.05363 0.70559
 H1598 H 0.77861 1.03446 0.71504
 H1599 H 0.76185 1.05727 0.74476
 H1600 H 0.77144 1.07652 0.73551
 C1601 C 0.69263 0.62068 0.30751
 C1602 C 0.69730 0.61138 0.30264
 C1603 C 0.70283 0.60025 0.29682
 C1604 C 0.69494 0.59081 0.29168
 C1605 C 0.70029 0.57992 0.28614
 C1606 C 0.71362 0.57834 0.28566
 C1607 C 0.72148 0.58792 0.29079
 C1608 C 0.71611 0.59880 0.29634
 C1609 C 0.71929 0.56667 0.27996
 C1610 C 0.73030 0.56743 0.27230
 C1611 C 0.73564 0.55640 0.26702
 C1612 C 0.73006 0.54449 0.26934
 C1613 C 0.71912 0.54365 0.27693
 C1614 C 0.71377 0.55465 0.28221
 C1615 C 0.73556 0.53309 0.26402
 C1616 C 0.74000 0.52341 0.25971
 H1617 H 0.68465 0.59185 0.29197
 H1618 H 0.69399 0.57280 0.28212
 H1619 H 0.73177 0.58691 0.29071
 H1620 H 0.72230 0.60604 0.30032
 H1621 H 0.73468 0.57656 0.27028
 H1622 H 0.74410 0.55715 0.26113
 H1623 H 0.71476 0.53447 0.27882
 H1624 H 0.70541 0.55373 0.28820
 C1625 C 0.69235 1.12097 0.80754
 C1626 C 0.69703 1.11165 0.80267
 C1627 C 0.70256 1.10049 0.79690
 C1628 C 0.69477 1.09021 0.79348
 C1629 C 0.70014 1.07930 0.78801
 C1630 C 0.71338 1.07852 0.78589
 C1631 C 0.72112 1.08894 0.78929
 C1632 C 0.71573 1.09984 0.79477
 C1633 C 0.71910 1.06684 0.78026
 C1634 C 0.72893 1.06772 0.77117
 C1635 C 0.73430 1.05669 0.76591
 C1636 C 0.72993 1.04465 0.76968
 C1637 C 0.72017 1.04368 0.77872
 C1638 C 0.71478 1.05468 0.78397
 C1639 C 0.73542 1.03326 0.76433
 C1640 C 0.73987 1.02359 0.75998
 H1641 H 0.68456 1.09063 0.79505
 H1642 H 0.69391 1.07151 0.78534
 H1643 H 0.73136 1.08857 0.78792
 H1644 H 0.72185 1.10774 0.79742
 H1645 H 0.73236 1.07693 0.76801
 H1646 H 0.74182 1.05754 0.75889
 H1647 H 0.71674 1.03441 0.78173
 H1648 H 0.70736 1.05368 0.79107
 C1649 C 0.19245 0.62048 0.80750
 C1650 C 0.19723 0.61126 0.80256
 C1651 C 0.20290 0.60024 0.79667
 C1652 C 0.21430 0.59517 0.80144
 C1653 C 0.21974 0.58438 0.79581
 C1654 C 0.21384 0.57849 0.78532
 C1655 C 0.20240 0.58370 0.78056
 C1656 C 0.19699 0.59450 0.78620
 C1657 C 0.21948 0.56688 0.77949
 C1658 C 0.21161 0.55668 0.77573
 C1659 C 0.21693 0.54565 0.77047
 C1660 C 0.23015 0.54466 0.76886
 C1661 C 0.23806 0.55478 0.77247
 C1662 C 0.23276 0.56583 0.77776
 C1663 C 0.23558 0.53315 0.76372
 C1664 C 0.24001 0.52340 0.75952
 H1665 H 0.21893 0.59951 0.80957
 H1666 H 0.22845 0.58050 0.79979
 H1667 H 0.19772 0.57948 0.77241
 H1668 H 0.18818 0.59837 0.78241
 H1669 H 0.20138 0.55714 0.77709
 H1670 H 0.21073 0.53784 0.76775
 H1671 H 0.24831 0.55412 0.77123
 H1672 H 0.23904 0.57358 0.78042
 C1673 C 0.19248 1.12065 0.30741
 C1674 C 0.19715 1.11131 0.30260
 C1675 C 0.20271 1.10014 0.29689
 C1676 C 0.21571 1.09991 0.29383
 C1677 C 0.22113 1.08901 0.28838
 C1678 C 0.21360 1.07818 0.28593
 C1679 C 0.20052 1.07853 0.28899
 C1680 C 0.19512 1.08944 0.29443
 C1681 C 0.21936 1.06652 0.28029
 C1682 C 0.21579 1.05436 0.28469
 C1683 C 0.22119 1.04338 0.27940
 C1684 C 0.23023 1.04439 0.26965
 C1685 C 0.23387 1.05644 0.26521
 C1686 C 0.22848 1.06744 0.27050
 C1687 C 0.23569 1.03303 0.26422
 C1688 C 0.24012 1.02338 0.25982
 H1689 H 0.22167 1.10813 0.29572
 H1690 H 0.23125 1.08898 0.28628
 H1691 H 0.19444 1.07041 0.28706
 H1692 H 0.18504 1.08953 0.29673
 H1693 H 0.20894 1.05333 0.29234
 H1694 H 0.21834 1.03410 0.28294
 H1695 H 0.24084 1.05733 0.25765
 H1696 H 0.23132 1.07666 0.26680
 C1697 C 0.69265 0.37936 0.69263
 C1698 C 0.69736 0.38869 0.69741
 C1699 C 0.70297 0.39987 0.70304
 C1700 C 0.70340 0.41130 0.69618
 C1701 C 0.70878 0.42220 0.70164
 C1702 C 0.71381 0.42181 0.71404
 C1703 C 0.71337 0.41025 0.72084
 C1704 C 0.70797 0.39936 0.71537
 C1705 C 0.71943 0.43343 0.71986
 C1706 C 0.73064 0.43266 0.72720
 C1707 C 0.73597 0.44365 0.73256
 C1708 C 0.73015 0.45552 0.73067
 C1709 C 0.71897 0.45638 0.72344
 C1710 C 0.71364 0.44542 0.71807
 C1711 C 0.73565 0.46688 0.73603
 C1712 C 0.74011 0.47654 0.74038
 H1713 H 0.69959 0.41180 0.68662
 H1714 H 0.70913 0.43091 0.69609
 H1715 H 0.71702 0.40968 0.73046
 H1716 H 0.70766 0.39056 0.72078
 H1717 H 0.73540 0.42360 0.72863
 H1718 H 0.74464 0.44289 0.73811
 H1719 H 0.71437 0.46552 0.72194
 H1720 H 0.70491 0.44630 0.71262
 C1721 C 0.69268 -0.12070 0.19271
 C1722 C 0.69739 -0.11140 0.19752
 C1723 C 0.70299 -0.10021 0.20316
 C1724 C 0.70370 -0.08887 0.19618
 C1725 C 0.70908 -0.07797 0.20161
 C1726 C 0.71382 -0.07826 0.21412
 C1727 C 0.71309 -0.08972 0.22107
 C1728 C 0.70770 -0.10062 0.21561
 C1729 C 0.71945 -0.06663 0.21991
 C1730 C 0.73049 -0.06743 0.22750
 C1731 C 0.73581 -0.05644 0.23285
 C1732 C 0.73016 -0.04452 0.23069
 C1733 C 0.71917 -0.04363 0.22319
 C1734 C 0.71384 -0.05460 0.21783
 C1735 C 0.73567 -0.03318 0.23606
 C1736 C 0.74016 -0.02354 0.24042
 H1737 H 0.70011 -0.08846 0.18652
 H1738 H 0.70966 -0.06934 0.19596
 H1739 H 0.71651 -0.09020 0.23077
 H1740 H 0.70716 -0.10934 0.22112
 H1741 H 0.73511 -0.07652 0.22914
 H1742 H 0.74435 -0.05722 0.23860
 H1743 H 0.71471 -0.03446 0.22147
 H1744 H 0.70525 -0.05368 0.21218
 C1745 C 0.19245 0.37955 0.19250
 C1746 C 0.19715 0.38889 0.19727
 C1747 C 0.20274 0.40007 0.20292
 C1748 C 0.20316 0.41152 0.19609
 C1749 C 0.20854 0.42241 0.20157
 C1750 C 0.21358 0.42198 0.21397
 C1751 C 0.21315 0.41040 0.22075
 C1752 C 0.20775 0.39952 0.21525
 C1753 C 0.21920 0.43358 0.21982
 C1754 C 0.23042 0.43279 0.22715
 C1755 C 0.23574 0.44377 0.23254
 C1756 C 0.22992 0.45565 0.23069
 C1757 C 0.21874 0.45652 0.22346
 C1758 C 0.21341 0.44557 0.21806
 C1759 C 0.23543 0.46700 0.23606
 C1760 C 0.23991 0.47665 0.24039
 H1761 H 0.19935 0.41203 0.18653
 H1762 H 0.20890 0.43112 0.19604
 H1763 H 0.21680 0.40981 0.23036
 H1764 H 0.20744 0.39071 0.22063
 H1765 H 0.23518 0.42373 0.22855
 H1766 H 0.24442 0.44300 0.23808
 H1767 H 0.21414 0.46567 0.22199
 H1768 H 0.20468 0.44647 0.21263
 C1769 C 0.19250 -0.12051 0.69247
 C1770 C 0.19722 -0.11118 0.69724
 C1771 C 0.20284 -0.10003 0.70289
 C1772 C 0.20357 -0.08865 0.69596
 C1773 C 0.20900 -0.07779 0.70144
 C1774 C 0.21378 -0.07816 0.71394
 C1775 C 0.21303 -0.08966 0.72082
 C1776 C 0.20759 -0.10051 0.71533
 C1777 C 0.21945 -0.06658 0.71979
 C1778 C 0.23051 -0.06746 0.72735
 C1779 C 0.23588 -0.05652 0.73274
 C1780 C 0.23026 -0.04458 0.73067
 C1781 C 0.21924 -0.04361 0.72321
 C1782 C 0.21387 -0.05453 0.71781
 C1783 C 0.23581 -0.03326 0.73607
 C1784 C 0.24030 -0.02363 0.74044
 H1785 H 0.19997 -0.08818 0.68631
 H1786 H 0.20960 -0.06914 0.69583
 H1787 H 0.21648 -0.09021 0.73051
 H1788 H 0.20705 -0.10927 0.72079
 H1789 H 0.23511 -0.07658 0.72892
 H1790 H 0.24443 -0.05736 0.73847
 H1791 H 0.21480 -0.03442 0.72158
 H1792 H 0.20526 -0.05356 0.71219
 C1793 C 0.30724 0.30726 0.37969
 C1794 C 0.30249 0.30256 0.38903
 C1795 C 0.29685 0.29699 0.40022
 C1796 C 0.29179 0.28465 0.39977
 C1797 C 0.28637 0.27922 0.41066
 C1798 C 0.28596 0.28608 0.42216
 C1799 C 0.29105 0.29850 0.42249
 C1800 C 0.29645 0.30391 0.41159
 C1801 C 0.28032 0.28031 0.43377
 C1802 C 0.28614 0.28209 0.44570
 C1803 C 0.28081 0.27673 0.45665
 C1804 C 0.26960 0.26952 0.45585
 C1805 C 0.26376 0.26765 0.44404
 C1806 C 0.26908 0.27300 0.43306
 C1807 C 0.26412 0.26414 0.46720
 C1808 C 0.25968 0.25978 0.47684
 H1809 H 0.29208 0.27920 0.39102
 H1810 H 0.28268 0.26959 0.41014
 H1811 H 0.29072 0.30409 0.43114
 H1812 H 0.30031 0.31349 0.41203
 H1813 H 0.29489 0.28751 0.44654
 H1814 H 0.28543 0.27821 0.46575
 H1815 H 0.25506 0.26212 0.44332
 H1816 H 0.26430 0.27158 0.42404
 C1817 C 0.30782 0.80770 -0.12039
 C1818 C 0.30303 0.80290 -0.11113
 C1819 C 0.29730 0.79718 -0.10007
 C1820 C 0.28457 0.79984 -0.09698
 C1821 C 0.27901 0.79433 -0.08621
 C1822 C 0.28612 0.78607 -0.07838
 C1823 C 0.29889 0.78342 -0.08159
 C1824 C 0.30444 0.78895 -0.09236
 C1825 C 0.28028 0.78033 -0.06685
 C1826 C 0.28265 0.76750 -0.06364
 C1827 C 0.27730 0.76218 -0.05267
 C1828 C 0.26953 0.76960 -0.04475
 C1829 C 0.26706 0.78234 -0.04789
 C1830 C 0.27238 0.78768 -0.05887
 C1831 C 0.26431 0.76424 -0.03328
 C1832 C 0.26003 0.75986 -0.02357
 H1833 H 0.27894 0.80616 -0.10291
 H1834 H 0.26912 0.79643 -0.08407
 H1835 H 0.30465 0.77723 -0.07566
 H1836 H 0.31431 0.78686 -0.09464
 H1837 H 0.28856 0.76157 -0.06968
 H1838 H 0.27926 0.75230 -0.05033
 H1839 H 0.26111 0.78819 -0.04179
 H1840 H 0.27051 0.79762 -0.06099
 C1841 C 0.80738 0.30799 -0.12019
 C1842 C 0.80257 0.30320 -0.11093
 C1843 C 0.79682 0.29749 -0.09987
 C1844 C 0.78410 0.30020 -0.09678
 C1845 C 0.77852 0.29470 -0.08602
 C1846 C 0.78558 0.28638 -0.07821
 C1847 C 0.79835 0.28368 -0.08142
 C1848 C 0.80392 0.28921 -0.09218
 C1849 C 0.77971 0.28062 -0.06670
 C1850 C 0.78208 0.26779 -0.06352
 C1851 C 0.77671 0.26246 -0.05256
 C1852 C 0.76893 0.26986 -0.04465
 C1853 C 0.76645 0.28261 -0.04777
 C1854 C 0.77179 0.28796 -0.05873
 C1855 C 0.76371 0.26449 -0.03318
 C1856 C 0.75944 0.26008 -0.02347
 H1857 H 0.77851 0.30657 -0.10269
 H1858 H 0.76863 0.29684 -0.08388
 H1859 H 0.80409 0.27746 -0.07551
 H1860 H 0.81378 0.28708 -0.09447
 H1861 H 0.78800 0.26187 -0.06955
 H1862 H 0.77868 0.25258 -0.05023
 H1863 H 0.76048 0.28844 -0.04168
 H1864 H 0.76992 0.29790 -0.06084
 C1865 C 0.80719 0.80772 0.37969
 C1866 C 0.80244 0.80301 0.38902
 C1867 C 0.79679 0.79743 0.40019
 C1868 C 0.79315 0.78459 0.40020
 C1869 C 0.78775 0.77916 0.41110
 C1870 C 0.78595 0.78651 0.42215
 C1871 C 0.78960 0.79943 0.42202
 C1872 C 0.79499 0.80484 0.41111
 C1873 C 0.78038 0.78073 0.43380
 C1874 C 0.78531 0.78379 0.44587
 C1875 C 0.78006 0.77840 0.45684
 C1876 C 0.76981 0.76990 0.45593
 C1877 C 0.76485 0.76676 0.44398
 C1878 C 0.77010 0.77213 0.43297
 C1879 C 0.76441 0.76447 0.46728
 C1880 C 0.76000 0.76006 0.47692
 H1881 H 0.79453 0.77876 0.39180
 H1882 H 0.78518 0.76915 0.41095
 H1883 H 0.78818 0.80539 0.43031
 H1884 H 0.79774 0.81481 0.41120
 H1885 H 0.79333 0.79022 0.44681
 H1886 H 0.78399 0.78086 0.46605
 H1887 H 0.75690 0.76020 0.44317
 H1888 H 0.76600 0.76970 0.42383
 C1889 C 0.69257 0.30732 0.62036
 C1890 C 0.69727 0.30258 0.61102
 C1891 C 0.70284 0.29693 0.59985
 C1892 C 0.69582 0.29629 0.58855
 C1893 C 0.70123 0.29088 0.57766
 C1894 C 0.71376 0.28603 0.57792
 C1895 C 0.72073 0.28668 0.58934
 C1896 C 0.71530 0.29211 0.60023
 C1897 C 0.71955 0.28039 0.56631
 C1898 C 0.72712 0.26932 0.56708
 C1899 C 0.73249 0.26400 0.55610
 C1900 C 0.73038 0.26969 0.54424
 C1901 C 0.72290 0.28073 0.54339
 C1902 C 0.71751 0.28605 0.55433
 C1903 C 0.73579 0.26422 0.53291
 C1904 C 0.74017 0.25978 0.52328
 H1905 H 0.68615 0.29996 0.58816
 H1906 H 0.69556 0.29036 0.56907
 H1907 H 0.73045 0.28318 0.58981
 H1908 H 0.72083 0.29259 0.60892
 H1909 H 0.72874 0.26466 0.57613
 H1910 H 0.73824 0.25544 0.55686
 H1911 H 0.72123 0.28523 0.53426
 H1912 H 0.71188 0.29467 0.55345
 C1913 C 0.69251 0.80738 1.12029
 C1914 C 0.69720 0.80264 1.11094
 C1915 C 0.70280 0.79699 1.09978
 C1916 C 0.69581 0.79635 1.08846
 C1917 C 0.70126 0.79093 1.07759
 C1918 C 0.71379 0.78609 1.07789
 C1919 C 0.72072 0.78673 1.08934
 C1920 C 0.71525 0.79216 1.10020
 C1921 C 0.71963 0.78048 1.06629
 C1922 C 0.72721 0.76941 1.06706
 C1923 C 0.73260 0.76411 1.05609
 C1924 C 0.73051 0.76983 1.04423
 C1925 C 0.72305 0.78088 1.04339
 C1926 C 0.71765 0.78617 1.05433
 C1927 C 0.73591 0.76437 1.03289
 C1928 C 0.74029 0.75995 1.02324
 H1929 H 0.68615 0.80003 1.08803
 H1930 H 0.69562 0.79041 1.06897
 H1931 H 0.73043 0.78323 1.08984
 H1932 H 0.72075 0.79265 1.10891
 H1933 H 0.72880 0.76473 1.07611
 H1934 H 0.73834 0.75554 1.05684
 H1935 H 0.72141 0.78540 1.03427
 H1936 H 0.71203 0.79481 1.05346
 C1937 C 0.19250 0.30744 1.12028
 C1938 C 0.19721 0.30269 1.11095
 C1939 C 0.20279 0.29704 1.09978
 C1940 C 0.21525 0.29223 1.10017
 C1941 C 0.22070 0.28681 1.08929
 C1942 C 0.21374 0.28616 1.07786
 C1943 C 0.20120 0.29099 1.07759
 C1944 C 0.19578 0.29639 1.08848
 C1945 C 0.21954 0.28052 1.06625
 C1946 C 0.21752 0.28619 1.05428
 C1947 C 0.22291 0.28086 1.04334
 C1948 C 0.23037 0.26981 1.04420
 C1949 C 0.23247 0.26412 1.05606
 C1950 C 0.22710 0.26944 1.06703
 C1951 C 0.23576 0.26433 1.03286
 C1952 C 0.24014 0.25988 1.02323
 H1953 H 0.22078 0.29271 1.10886
 H1954 H 0.23042 0.28331 1.08976
 H1955 H 0.19554 0.29047 1.06899
 H1956 H 0.18611 0.30005 1.08809
 H1957 H 0.21190 0.29482 1.05340
 H1958 H 0.22125 0.28536 1.03421
 H1959 H 0.23819 0.25554 1.05682
 H1960 H 0.22870 0.26477 1.07608
 C1961 C 0.19247 0.80744 0.62021
 C1962 C 0.19719 0.80269 0.61089
 C1963 C 0.20279 0.79704 0.59973
 C1964 C 0.19580 0.79640 0.58841
 C1965 C 0.20125 0.79101 0.57753
 C1966 C 0.21379 0.78618 0.57783
 C1967 C 0.22072 0.78682 0.58928
 C1968 C 0.21525 0.79222 0.60015
 C1969 C 0.21962 0.78057 0.56623
 C1970 C 0.22718 0.76948 0.56700
 C1971 C 0.23258 0.76419 0.55603
 C1972 C 0.23051 0.76991 0.54418
 C1973 C 0.22305 0.78095 0.54333
 C1974 C 0.21764 0.78625 0.55426
 C1975 C 0.23594 0.76444 0.53285
 C1976 C 0.24033 0.76001 0.52322
 H1977 H 0.18614 0.80007 0.58800
 H1978 H 0.19561 0.79050 0.56892
 H1979 H 0.23044 0.78332 0.58977
 H1980 H 0.22075 0.79270 0.60886
 H1981 H 0.22876 0.76480 0.57605
 H1982 H 0.23831 0.75561 0.55679
 H1983 H 0.22142 0.78548 0.53420
 H1984 H 0.21202 0.79489 0.55338
 C1985 C 0.30733 0.69253 0.62033
 C1986 C 0.30260 0.69724 0.61099
 C1987 C 0.29698 0.70283 0.59981
 C1988 C 0.29222 0.71530 0.60018
 C1989 C 0.28683 0.72076 0.58929
 C1990 C 0.28615 0.71379 0.57787
 C1991 C 0.29094 0.70124 0.57762
 C1992 C 0.29631 0.69580 0.58852
 C1993 C 0.28055 0.71960 0.56625
 C1994 C 0.28622 0.71755 0.55429
 C1995 C 0.28092 0.72295 0.54334
 C1996 C 0.26990 0.73046 0.54418
 C1997 C 0.26420 0.73259 0.55603
 C1998 C 0.26949 0.72720 0.56701
 C1999 C 0.26445 0.73588 0.53284
 C2000 C 0.26003 0.74028 0.52321
 H2001 H 0.29272 0.72083 0.60887
 H2002 H 0.28337 0.73049 0.58975
 H2003 H 0.29040 0.69557 0.56902
 H2004 H 0.29993 0.68612 0.58814
 H2005 H 0.29483 0.71190 0.55341
 H2006 H 0.28543 0.72127 0.53421
 H2007 H 0.25565 0.73835 0.55678
 H2008 H 0.26483 0.72883 0.57606
 C2009 C 0.30744 0.19259 1.12030
 C2010 C 0.30268 0.19728 1.11096
 C2011 C 0.29703 0.20285 1.09979
 C2012 C 0.29631 0.19579 1.08852
 C2013 C 0.29088 0.20119 1.07762
 C2014 C 0.28609 0.21374 1.07786
 C2015 C 0.28682 0.22074 1.08926
 C2016 C 0.29226 0.21532 1.10014
 C2017 C 0.28044 0.21951 1.06625
 C2018 C 0.26939 0.22713 1.06702
 C2019 C 0.26407 0.23248 1.05605
 C2020 C 0.26972 0.23031 1.04418
 C2021 C 0.28073 0.22279 1.04332
 C2022 C 0.28606 0.21742 1.05427
 C2023 C 0.26425 0.23572 1.03284
 C2024 C 0.25981 0.24012 1.02321
 H2025 H 0.29993 0.18611 1.08815
 H2026 H 0.29030 0.19549 1.06905
 H2027 H 0.28336 0.23047 1.08970
 H2028 H 0.29280 0.22088 1.10881
 H2029 H 0.26476 0.22879 1.07608
 H2030 H 0.25552 0.23826 1.05681
 H2031 H 0.28520 0.22107 1.03418
 H2032 H 0.29466 0.21175 1.05338
 C2033 C 0.80741 0.69251 1.12033
 C2034 C 0.80266 0.69721 1.11099
 C2035 C 0.79701 0.70279 1.09981
 C2036 C 0.79225 0.71526 1.10018
 C2037 C 0.78684 0.72070 1.08929
 C2038 C 0.78613 0.71372 1.07788
 C2039 C 0.79091 0.70117 1.07764
 C2040 C 0.79631 0.69575 1.08853
 C2041 C 0.78051 0.71951 1.06627
 C2042 C 0.78614 0.71744 1.05429
 C2043 C 0.78084 0.72284 1.04334
 C2044 C 0.76984 0.73037 1.04420
 C2045 C 0.76416 0.73252 1.05606
 C2046 C 0.76946 0.72714 1.06703
 C2047 C 0.76438 0.73580 1.03286
 C2048 C 0.75996 0.74020 1.02323
 H2049 H 0.79278 0.72081 1.10886
 H2050 H 0.78339 0.73043 1.08974
 H2051 H 0.79035 0.69549 1.06905
 H2052 H 0.79993 0.68607 1.08816
 H2053 H 0.79475 0.71177 1.05341
 H2054 H 0.78533 0.72114 1.03421
 H2055 H 0.75562 0.73830 1.05682
 H2056 H 0.76482 0.72878 1.07609
 C2057 C 0.80783 0.19230 0.62009
 C2058 C 0.80311 0.19697 0.61073
 C2059 C 0.79744 0.20255 0.59956
 C2060 C 0.79261 0.21500 0.59997
 C2061 C 0.78712 0.22044 0.58913
 C2062 C 0.78639 0.21347 0.57771
 C2063 C 0.79125 0.20095 0.57741
 C2064 C 0.79673 0.19554 0.58827
 C2065 C 0.78067 0.21926 0.56614
 C2066 C 0.78625 0.21725 0.55413
 C2067 C 0.78087 0.22265 0.54322
 C2068 C 0.76984 0.23014 0.54416
 C2069 C 0.76421 0.23223 0.55605
 C2070 C 0.76959 0.22683 0.56698
 C2071 C 0.76432 0.23559 0.53286
 C2072 C 0.75986 0.24001 0.52325
 H2073 H 0.79314 0.22053 0.60866
 H2074 H 0.78361 0.23015 0.58962
 H2075 H 0.79067 0.19528 0.56882
 H2076 H 0.80039 0.18587 0.58786
 H2077 H 0.79487 0.21162 0.55318
 H2078 H 0.78531 0.22101 0.53406
 H2079 H 0.75565 0.23798 0.55687
 H2080 H 0.76499 0.22843 0.57607
 C2081 C 0.69257 0.69251 0.38005
 C2082 C 0.69737 0.69735 0.38928
 C2083 C 0.70309 0.70313 0.40030
 C2084 C 0.70010 0.71573 0.40355
 C2085 C 0.70560 0.72133 0.41429
 C2086 C 0.71418 0.71440 0.42193
 C2087 C 0.71716 0.70175 0.41855
 C2088 C 0.71164 0.69616 0.40781
 C2089 C 0.71991 0.72028 0.43344
 C2090 C 0.73280 0.71810 0.43655
 C2091 C 0.73809 0.72344 0.44753
 C2092 C 0.73059 0.73102 0.45554
 C2093 C 0.71780 0.73334 0.45249
 C2094 C 0.71248 0.72802 0.44152
 C2095 C 0.73592 0.73620 0.46705
 C2096 C 0.74028 0.74044 0.47677
 H2097 H 0.69352 0.72122 0.39778
 H2098 H 0.70323 0.73114 0.41655
 H2099 H 0.72359 0.69610 0.42433
 H2100 H 0.71400 0.68639 0.40540
 H2101 H 0.73880 0.71233 0.43045
 H2102 H 0.74801 0.72160 0.44980
 H2103 H 0.71189 0.73915 0.45866
 H2104 H 0.70250 0.72975 0.43948
 C2105 C 0.69254 0.19214 -0.12019
 C2106 C 0.69730 0.19692 -0.11091
 C2107 C 0.70300 0.20264 -0.09985
 C2108 C 0.69594 0.21113 -0.09235
 C2109 C 0.70145 0.21666 -0.08157
 C2110 C 0.71411 0.21376 -0.07814
 C2111 C 0.72113 0.20522 -0.08576
 C2112 C 0.71561 0.19971 -0.09654
 C2113 C 0.71992 0.21951 -0.06661
 C2114 C 0.72762 0.21212 -0.05848
 C2115 C 0.73291 0.21748 -0.04751
 C2116 C 0.73061 0.23029 -0.04453
 C2117 C 0.72303 0.23775 -0.05260
 C2118 C 0.71771 0.23240 -0.06356
 C2119 C 0.73581 0.23568 -0.03308
 C2120 C 0.74009 0.24010 -0.02340
 H2121 H 0.68616 0.21344 -0.09480
 H2122 H 0.69574 0.22306 -0.07581
 H2123 H 0.73094 0.20292 -0.08345
 H2124 H 0.72117 0.19318 -0.10229
 H2125 H 0.72935 0.20213 -0.06047
 H2126 H 0.73872 0.21160 -0.04130
 H2127 H 0.72120 0.24768 -0.05039
 H2128 H 0.71196 0.23838 -0.06972
 C2129 C 0.19242 0.69242 -0.12013
 C2130 C 0.19722 0.69720 -0.11087
 C2131 C 0.20297 0.70289 -0.09982
 C2132 C 0.19594 0.71134 -0.09225
 C2133 C 0.20151 0.71684 -0.08148
 C2134 C 0.21420 0.71394 -0.07815
 C2135 C 0.22119 0.70545 -0.08584
 C2136 C 0.21561 0.69998 -0.09661
 C2137 C 0.22007 0.71966 -0.06663
 C2138 C 0.22781 0.71224 -0.05856
 C2139 C 0.23315 0.71756 -0.04760
 C2140 C 0.23086 0.73036 -0.04457
 C2141 C 0.22326 0.73785 -0.05258
 C2142 C 0.21789 0.73254 -0.06354
 C2143 C 0.23612 0.73572 -0.03312
 C2144 C 0.24044 0.74011 -0.02345
 H2145 H 0.18614 0.71363 -0.09463
 H2146 H 0.19583 0.72320 -0.07566
 H2147 H 0.23102 0.70316 -0.08361
 H2148 H 0.22115 0.69348 -0.10243
 H2149 H 0.22953 0.70226 -0.06060
 H2150 H 0.23898 0.71166 -0.04144
 H2151 H 0.22144 0.74777 -0.05033
 H2152 H 0.21211 0.73854 -0.06965
 C2153 C 0.19252 0.19264 0.37980
 C2154 C 0.19722 0.19737 0.38913
 C2155 C 0.20278 0.20300 0.40031
 C2156 C 0.21515 0.20802 0.39987
 C2157 C 0.22057 0.21342 0.41076
 C2158 C 0.21368 0.21387 0.42225
 C2159 C 0.20123 0.20884 0.42257
 C2160 C 0.19583 0.20345 0.41167
 C2161 C 0.21945 0.21949 0.43386
 C2162 C 0.21759 0.21371 0.44581
 C2163 C 0.22294 0.21902 0.45676
 C2164 C 0.23023 0.23017 0.45594
 C2165 C 0.23218 0.23599 0.44411
 C2166 C 0.22684 0.23068 0.43313
 C2167 C 0.23561 0.23564 0.46729
 C2168 C 0.23999 0.24008 0.47692
 H2169 H 0.22063 0.20770 0.39113
 H2170 H 0.23023 0.21707 0.41025
 H2171 H 0.19561 0.20920 0.43121
 H2172 H 0.18623 0.19963 0.41210
 H2173 H 0.21211 0.20500 0.44666
 H2174 H 0.22140 0.21443 0.46586
 H2175 H 0.23777 0.24464 0.44339
 H2176 H 0.22832 0.23544 0.42411
 C2177 C 0.30753 0.37932 0.69271
 C2178 C 0.30285 0.38864 0.69756
 C2179 C 0.29729 0.39981 0.70329
 C2180 C 0.30399 0.41135 0.70324
 C2181 C 0.29857 0.42226 0.70866
 C2182 C 0.28635 0.42177 0.71422
 C2183 C 0.27972 0.41010 0.71427
 C2184 C 0.28516 0.39920 0.70883
 C2185 C 0.28053 0.43340 0.71983
 C2186 C 0.27361 0.43274 0.73129
 C2187 C 0.26822 0.44375 0.73658
 C2188 C 0.26966 0.45553 0.73048
 C2189 C 0.27648 0.45627 0.71906
 C2190 C 0.28188 0.44530 0.71376
 C2191 C 0.26424 0.46691 0.73591
 C2192 C 0.25984 0.47659 0.74030
 H2193 H 0.31341 0.41192 0.69901
 H2194 H 0.30400 0.43105 0.70863
 H2195 H 0.27024 0.40945 0.71833
 H2196 H 0.27988 0.39031 0.70889
 H2197 H 0.27253 0.42376 0.73627
 H2198 H 0.26299 0.44308 0.74545
 H2199 H 0.27762 0.46534 0.71424
 H2200 H 0.28699 0.44609 0.70484
 C2201 C 0.30757 0.87953 0.19243
 C2202 C 0.30287 0.88884 0.19727
 C2203 C 0.29731 0.90001 0.20300
 C2204 C 0.28517 0.89938 0.20854
 C2205 C 0.27972 0.91027 0.21399
 C2206 C 0.28634 0.92194 0.21395
 C2207 C 0.29856 0.92245 0.20840
 C2208 C 0.30400 0.91155 0.20297
 C2209 C 0.28051 0.93357 0.21957
 C2210 C 0.28186 0.94547 0.21352
 C2211 C 0.27645 0.95644 0.21882
 C2212 C 0.26962 0.95568 0.23023
 C2213 C 0.26817 0.94389 0.23632
 C2214 C 0.27357 0.93289 0.23102
 C2215 C 0.26420 0.96705 0.23569
 C2216 C 0.25981 0.97671 0.24011
 H2217 H 0.27989 0.89049 0.20858
 H2218 H 0.27024 0.90960 0.21804
 H2219 H 0.30398 0.93124 0.20838
 H2220 H 0.31341 0.91214 0.19874
 H2221 H 0.28698 0.94628 0.20461
 H2222 H 0.27760 0.96552 0.21402
 H2223 H 0.26293 0.94320 0.24518
 H2224 H 0.27249 0.92390 0.23598
 C2225 C 0.80750 0.37954 0.19240
 C2226 C 0.80282 0.38885 0.19726
 C2227 C 0.79727 0.40002 0.20301
 C2228 C 0.78514 0.39940 0.20856
 C2229 C 0.77970 0.41029 0.21403
 C2230 C 0.78634 0.42195 0.21400
 C2231 C 0.79856 0.42245 0.20845
 C2232 C 0.80398 0.41155 0.20299
 C2233 C 0.78053 0.43358 0.21964
 C2234 C 0.78189 0.44549 0.21360
 C2235 C 0.77649 0.45646 0.21891
 C2236 C 0.76964 0.45569 0.23031
 C2237 C 0.76818 0.44390 0.23639
 C2238 C 0.77358 0.43290 0.23108
 C2239 C 0.76422 0.46706 0.23577
 C2240 C 0.75982 0.47672 0.24018
 H2241 H 0.77985 0.39052 0.20859
 H2242 H 0.77022 0.40963 0.21808
 H2243 H 0.80399 0.43124 0.20843
 H2244 H 0.81339 0.41213 0.19876
 H2245 H 0.78702 0.44631 0.20469
 H2246 H 0.77765 0.46554 0.21412
 H2247 H 0.76293 0.44321 0.24524
 H2248 H 0.77248 0.42391 0.23603
 C2249 C 0.80752 0.87978 0.69266
 C2250 C 0.80282 0.88908 0.69751
 C2251 C 0.79725 0.90024 0.70325
 C2252 C 0.80393 0.91179 0.70323
 C2253 C 0.79849 0.92268 0.70868
 C2254 C 0.78627 0.92216 0.71423
 C2255 C 0.77965 0.91048 0.71426
 C2256 C 0.78511 0.89960 0.70880
 C2257 C 0.78043 0.93378 0.71986
 C2258 C 0.77349 0.93309 0.73132
 C2259 C 0.76808 0.94408 0.73662
 C2260 C 0.76952 0.95587 0.73055
 C2261 C 0.77635 0.95665 0.71914
 C2262 C 0.78177 0.94569 0.71382
 C2263 C 0.76409 0.96724 0.73601
 C2264 C 0.75969 0.97690 0.74043
 H2265 H 0.81334 0.91239 0.69900
 H2266 H 0.80390 0.93148 0.70866
 H2267 H 0.77017 0.90980 0.71832
 H2268 H 0.77985 0.89071 0.70884
 H2269 H 0.77241 0.92409 0.73627
 H2270 H 0.76284 0.94338 0.74548
 H2271 H 0.77750 0.96573 0.71434
 H2272 H 0.78689 0.94651 0.70491
 C2273 C 0.69240 0.62056 0.69286
 C2274 C 0.69711 0.61123 0.69766
 C2275 C 0.70273 0.60005 0.70333
 C2276 C 0.69631 0.58836 0.70280
 C2277 C 0.70180 0.57746 0.70816
 C2278 C 0.71381 0.57809 0.71413
 C2279 C 0.72016 0.58990 0.71466
 C2280 C 0.71465 0.60080 0.70928
 C2281 C 0.71969 0.56646 0.71971
 C2282 C 0.72621 0.56701 0.73140
 C2283 C 0.73162 0.55600 0.73667
 C2284 C 0.73060 0.54432 0.73031
 C2285 C 0.72420 0.54368 0.71865
 C2286 C 0.71879 0.55467 0.71338
 C2287 C 0.73595 0.53291 0.73577
 C2288 C 0.74029 0.52322 0.74020
 H2289 H 0.68706 0.58768 0.69824
 H2290 H 0.69659 0.56855 0.70776
 H2291 H 0.72948 0.59067 0.71905
 H2292 H 0.71972 0.60980 0.70971
 H2293 H 0.72695 0.57591 0.73658
 H2294 H 0.73653 0.55658 0.74572
 H2295 H 0.72338 0.53469 0.71364
 H2296 H 0.71401 0.55395 0.70428
 C2297 C 0.69270 0.12034 0.19255
 C2298 C 0.69740 0.11104 0.19742
 C2299 C 0.70295 0.09990 0.20321
 C2300 C 0.71616 0.09914 0.20504
 C2301 C 0.72156 0.08825 0.21055
 C2302 C 0.71379 0.07795 0.21429
 C2303 C 0.70051 0.07884 0.21245
 C2304 C 0.69514 0.08974 0.20696
 C2305 C 0.71951 0.06629 0.21995
 C2306 C 0.71499 0.05414 0.21652
 C2307 C 0.72038 0.04315 0.22180
 C2308 C 0.73035 0.04414 0.23059
 C2309 C 0.73493 0.05618 0.23408
 C2310 C 0.72956 0.06719 0.22880
 C2311 C 0.73585 0.03278 0.23597
 C2312 C 0.74031 0.02311 0.24034
 H2313 H 0.72230 0.10693 0.20215
 H2314 H 0.73182 0.08779 0.21169
 H2315 H 0.69426 0.07116 0.21539
 H2316 H 0.68490 0.09025 0.20562
 H2317 H 0.70739 0.05312 0.20961
 H2318 H 0.71679 0.03387 0.21901
 H2319 H 0.74262 0.05705 0.24091
 H2320 H 0.73315 0.07641 0.23174
 C2321 C 0.19238 0.62045 0.19234
 C2322 C 0.19708 0.61118 0.19726
 C2323 C 0.20264 0.60009 0.20314
 C2324 C 0.21577 0.59782 0.20215
 C2325 C 0.22116 0.58699 0.20778
 C2326 C 0.21345 0.57826 0.21446
 C2327 C 0.20027 0.58067 0.21545
 C2328 C 0.19491 0.59151 0.20983
 C2329 C 0.21911 0.56661 0.22022
 C2330 C 0.21270 0.55485 0.21942
 C2331 C 0.21807 0.54384 0.22469
 C2332 C 0.22989 0.54444 0.23086
 C2333 C 0.23632 0.55610 0.23177
 C2334 C 0.23097 0.56712 0.22648
 C2335 C 0.23542 0.53302 0.23610
 C2336 C 0.23992 0.52333 0.24036
 H2337 H 0.22184 0.60439 0.19697
 H2338 H 0.23130 0.58531 0.20671
 H2339 H 0.19412 0.57422 0.22066
 H2340 H 0.18474 0.59320 0.21069
 H2341 H 0.20365 0.55411 0.21452
 H2342 H 0.21304 0.53485 0.22389
 H2343 H 0.24546 0.55666 0.23656
 H2344 H 0.23606 0.57607 0.22738
 C2345 C 0.19251 0.12025 0.69281
 C2346 C 0.19723 0.11096 0.69767
 C2347 C 0.20281 0.09981 0.70343
 C2348 C 0.19530 0.08901 0.70570
 C2349 C 0.20072 0.07812 0.71117
 C2350 C 0.21374 0.07787 0.71443
 C2351 C 0.22121 0.08880 0.71216
 C2352 C 0.21577 0.09969 0.70668
 C2353 C 0.21953 0.06622 0.72006
 C2354 C 0.22846 0.06713 0.73002
 C2355 C 0.23385 0.05612 0.73531
 C2356 C 0.23041 0.04408 0.73069
 C2357 C 0.22156 0.04309 0.72078
 C2358 C 0.21616 0.05407 0.71549
 C2359 C 0.23589 0.03271 0.73609
 C2360 C 0.24033 0.02304 0.74045
 H2361 H 0.18526 0.08902 0.70325
 H2362 H 0.19468 0.06993 0.71295
 H2363 H 0.23129 0.08885 0.71442
 H2364 H 0.22168 0.10798 0.70493
 H2365 H 0.23114 0.07634 0.73384
 H2366 H 0.24066 0.05699 0.74301
 H2367 H 0.21886 0.03381 0.71711
 H2368 H 0.20946 0.05305 0.70772
 C2369 C 0.30752 0.62050 0.30718
 C2370 C 0.30281 0.61125 0.30227
 C2371 C 0.29723 0.60016 0.29642
 C2372 C 0.30474 0.59210 0.28889
 C2373 C 0.29939 0.58125 0.28333
 C2374 C 0.28641 0.57831 0.28521
 C2375 C 0.27892 0.58652 0.29273
 C2376 C 0.28431 0.59737 0.29830
 C2377 C 0.28078 0.56666 0.27949
 C2378 C 0.26846 0.56693 0.27415
 C2379 C 0.26314 0.55589 0.26889
 C2380 C 0.27004 0.54445 0.26894
 C2381 C 0.28231 0.54409 0.27419
 C2382 C 0.28765 0.55511 0.27943
 C2383 C 0.26453 0.53301 0.26375
 C2384 C 0.26004 0.52332 0.25953
 H2385 H 0.31475 0.59420 0.28734
 H2386 H 0.30536 0.57521 0.27746
 H2387 H 0.26895 0.58443 0.29450
 H2388 H 0.27841 0.60352 0.30414
 H2389 H 0.26299 0.57570 0.27393
 H2390 H 0.25365 0.55627 0.26482
 H2391 H 0.28771 0.53527 0.27432
 H2392 H 0.29707 0.55455 0.28362
 C2393 C 0.30767 0.12034 0.80727
 C2394 C 0.30303 0.11099 0.80247
 C2395 C 0.29749 0.09981 0.79679
 C2396 C 0.30446 0.08842 0.79629
 C2397 C 0.29905 0.07750 0.79090
 C2398 C 0.28658 0.07783 0.78592
 C2399 C 0.27968 0.08935 0.78641
 C2400 C 0.28511 0.10026 0.79182
 C2401 C 0.28079 0.06618 0.78034
 C2402 C 0.27337 0.06691 0.76920
 C2403 C 0.26799 0.05590 0.76395
 C2404 C 0.26994 0.04404 0.76977
 C2405 C 0.27726 0.04323 0.78087
 C2406 C 0.28265 0.05421 0.78612
 C2407 C 0.26454 0.03266 0.76436
 C2408 C 0.26014 0.02300 0.75997
 H2409 H 0.31407 0.08798 0.80007
 H2410 H 0.30467 0.06884 0.79050
 H2411 H 0.27002 0.08987 0.78280
 H2412 H 0.27962 0.10902 0.79219
 H2413 H 0.27188 0.07596 0.76445
 H2414 H 0.26238 0.05662 0.75533
 H2415 H 0.27880 0.03410 0.78546
 H2416 H 0.28815 0.05336 0.79480
 C2417 C 0.80756 0.62047 0.80721
 C2418 C 0.80286 0.61117 0.80238
 C2419 C 0.79728 0.60001 0.79668
 C2420 C 0.80406 0.58850 0.79652
 C2421 C 0.79861 0.57760 0.79115
 C2422 C 0.78627 0.57806 0.78586
 C2423 C 0.77956 0.58970 0.78600
 C2424 C 0.78504 0.60060 0.79139
 C2425 C 0.78042 0.56642 0.78031
 C2426 C 0.77325 0.56710 0.76900
 C2427 C 0.76787 0.55608 0.76376
 C2428 C 0.76956 0.54428 0.76975
 C2429 C 0.77661 0.54352 0.78103
 C2430 C 0.78200 0.55451 0.78628
 C2431 C 0.76420 0.53288 0.76433
 C2432 C 0.75985 0.52320 0.75994
 H2433 H 0.81356 0.58795 0.80056
 H2434 H 0.80409 0.56884 0.79102
 H2435 H 0.77000 0.59033 0.78215
 H2436 H 0.77969 0.60945 0.79150
 H2437 H 0.77199 0.57610 0.76411
 H2438 H 0.76245 0.55676 0.75501
 H2439 H 0.77795 0.53443 0.78577
 H2440 H 0.78729 0.55370 0.79509
 C2441 C 0.80770 0.12027 0.30739
 C2442 C 0.80306 0.11093 0.30259
 C2443 C 0.79752 0.09975 0.29689
 C2444 C 0.80459 0.08844 0.29614
 C2445 C 0.79920 0.07753 0.29072
 C2446 C 0.78664 0.07779 0.28596
 C2447 C 0.77963 0.08923 0.28671
 C2448 C 0.78504 0.10013 0.29216
 C2449 C 0.78087 0.06616 0.28033
 C2450 C 0.77326 0.06696 0.26932
 C2451 C 0.76789 0.05597 0.26402
 C2452 C 0.77003 0.04406 0.26966
 C2453 C 0.77754 0.04318 0.28063
 C2454 C 0.78293 0.05414 0.28593
 C2455 C 0.76459 0.03271 0.26423
 C2456 C 0.76016 0.02306 0.25984
 H2457 H 0.81427 0.08805 0.29975
 H2458 H 0.80490 0.06893 0.29012
 H2459 H 0.76990 0.08969 0.28328
 H2460 H 0.77948 0.10883 0.29272
 H2461 H 0.77162 0.07605 0.26471
 H2462 H 0.76213 0.05675 0.25550
 H2463 H 0.77923 0.03401 0.28509
 H2464 H 0.78859 0.05323 0.29450
 C2465 C 0.69245 0.37949 0.30743
 C2466 C 0.69714 0.38885 0.30267
 C2467 C 0.70274 0.40004 0.29704
 C2468 C 0.70799 0.39947 0.28481
 C2469 C 0.71340 0.41036 0.27933
 C2470 C 0.71361 0.42198 0.28603
 C2471 C 0.70833 0.42244 0.29834
 C2472 C 0.70293 0.41154 0.30379
 C2473 C 0.71924 0.43360 0.28020
 C2474 C 0.71331 0.44556 0.28177
 C2475 C 0.71865 0.45652 0.27639
 C2476 C 0.72997 0.45570 0.26937
 C2477 C 0.73592 0.44386 0.26770
 C2478 C 0.73060 0.43287 0.27307
 C2479 C 0.73547 0.46707 0.26400
 C2480 C 0.73994 0.47673 0.25966
 H2481 H 0.70786 0.39062 0.27949
 H2482 H 0.71725 0.40975 0.26979
 H2483 H 0.70850 0.43119 0.30381
 H2484 H 0.69894 0.41207 0.31328
 H2485 H 0.70447 0.44641 0.28705
 H2486 H 0.71394 0.46563 0.27771
 H2487 H 0.74471 0.44313 0.26231
 H2488 H 0.73547 0.42384 0.27182
 C2489 C 0.69241 0.87948 0.80738
 C2490 C 0.69713 0.88882 0.80262
 C2491 C 0.70274 0.90003 0.79704
 C2492 C 0.70798 0.89952 0.78480
 C2493 C 0.71339 0.91044 0.77937
 C2494 C 0.71360 0.92203 0.78612
 C2495 C 0.70834 0.92242 0.79844
 C2496 C 0.70295 0.91149 0.80385
 C2497 C 0.71923 0.93368 0.78035
 C2498 C 0.71330 0.94562 0.78199
 C2499 C 0.71862 0.95661 0.77666
 C2500 C 0.72994 0.95583 0.76962
 C2501 C 0.73590 0.94400 0.76789
 C2502 C 0.73058 0.93298 0.77321
 C2503 C 0.73542 0.96722 0.76429
 C2504 C 0.73987 0.97690 0.75997
 H2505 H 0.70784 0.89070 0.77943
 H2506 H 0.71722 0.90987 0.76982
 H2507 H 0.70852 0.93114 0.80395
 H2508 H 0.69896 0.91199 0.81335
 H2509 H 0.70446 0.94644 0.78728
 H2510 H 0.71391 0.96571 0.77803
 H2511 H 0.74468 0.94331 0.76249
 H2512 H 0.73545 0.92396 0.77190
 C2513 C 0.19247 0.37934 0.80727
 C2514 C 0.19719 0.38867 0.80250
 C2515 C 0.20281 0.39987 0.79690
 C2516 C 0.20803 0.39935 0.78466
 C2517 C 0.21343 0.41026 0.77921
 C2518 C 0.21366 0.42186 0.78596
 C2519 C 0.20842 0.42226 0.79828
 C2520 C 0.20304 0.41134 0.80371
 C2521 C 0.21928 0.43350 0.78017
 C2522 C 0.21336 0.44545 0.78182
 C2523 C 0.21868 0.45643 0.77647
 C2524 C 0.22998 0.45565 0.76942
 C2525 C 0.23593 0.44382 0.76767
 C2526 C 0.23061 0.43280 0.77300
 C2527 C 0.23547 0.46703 0.76408
 C2528 C 0.23994 0.47669 0.75974
 H2529 H 0.20788 0.39053 0.77930
 H2530 H 0.21725 0.40968 0.76966
 H2531 H 0.20862 0.43099 0.80379
 H2532 H 0.19906 0.41184 0.81321
 H2533 H 0.20453 0.44627 0.78712
 H2534 H 0.21398 0.46554 0.77786
 H2535 H 0.24470 0.44312 0.76225
 H2536 H 0.23547 0.42378 0.77169
 C2537 C 0.19246 0.87947 0.30736
 C2538 C 0.19718 0.88879 0.30257
 C2539 C 0.20279 0.89998 0.29693
 C2540 C 0.20801 0.89941 0.28469
 C2541 C 0.21342 0.91031 0.27921
 C2542 C 0.21364 0.92192 0.28591
 C2543 C 0.20839 0.92237 0.29823
 C2544 C 0.20301 0.91147 0.30369
 C2545 C 0.21927 0.93355 0.28009
 C2546 C 0.21334 0.94550 0.28168
 C2547 C 0.21868 0.95646 0.27632
 C2548 C 0.22999 0.95566 0.26929
 C2549 C 0.23594 0.94382 0.26759
 C2550 C 0.23061 0.93282 0.27294
 C2551 C 0.23550 0.96703 0.26395
 C2552 C 0.23997 0.97670 0.25963
 H2553 H 0.20787 0.89057 0.27936
 H2554 H 0.21724 0.90970 0.26966
 H2555 H 0.20858 0.93112 0.30371
 H2556 H 0.19903 0.91200 0.31319
 H2557 H 0.20451 0.94634 0.28697
 H2558 H 0.21397 0.96558 0.27766
 H2559 H 0.24472 0.94310 0.26219
 H2560 H 0.23548 0.92379 0.27167
 C2561 C 0.37941 0.30738 0.69267
 C2562 C 0.38866 0.30265 0.69761
 C2563 C 0.39973 0.29705 0.70349
 C2564 C 0.40762 0.30448 0.71126
 C2565 C 0.41847 0.29911 0.71685
 C2566 C 0.42158 0.28621 0.71476
 C2567 C 0.41354 0.27880 0.70700
 C2568 C 0.40269 0.28420 0.70140
 C2569 C 0.43324 0.28057 0.72050
 C2570 C 0.43306 0.26814 0.72558
 C2571 C 0.44410 0.26281 0.73085
 C2572 C 0.45546 0.26983 0.73109
 C2573 C 0.45573 0.28220 0.72610
 C2574 C 0.44470 0.28755 0.72084
 C2575 C 0.46691 0.26432 0.73629
 C2576 C 0.47663 0.25984 0.74051
 H2577 H 0.40539 0.31443 0.71297
 H2578 H 0.42438 0.30501 0.72290
 H2579 H 0.41576 0.26890 0.70507
 H2580 H 0.39667 0.27837 0.69538
 H2581 H 0.42435 0.26258 0.72558
 H2582 H 0.44379 0.25323 0.73471
 H2583 H 0.46449 0.28769 0.72619
 H2584 H 0.44520 0.29706 0.71685
 C2585 C 0.37945 0.80758 0.19250
 C2586 C 0.38876 0.80289 0.19736
 C2587 C 0.39992 0.79734 0.20311
 C2588 C 0.41153 0.80393 0.20287
 C2589 C 0.42243 0.79851 0.20832
 C2590 C 0.42186 0.78640 0.21410
 C2591 C 0.41012 0.77988 0.21435
 C2592 C 0.39923 0.78532 0.20888
 C2593 C 0.43348 0.78058 0.21974
 C2594 C 0.43285 0.77392 0.23135
 C2595 C 0.44385 0.76852 0.23666
 C2596 C 0.45559 0.76970 0.23041
 C2597 C 0.45631 0.77626 0.21884
 C2598 C 0.44534 0.78166 0.21353
 C2599 C 0.46697 0.76429 0.23587
 C2600 C 0.47664 0.75990 0.24029
 H2601 H 0.41216 0.81325 0.19846
 H2602 H 0.43127 0.80384 0.20813
 H2603 H 0.40941 0.77049 0.21859
 H2604 H 0.39030 0.78013 0.20909
 H2605 H 0.42390 0.77305 0.23643
 H2606 H 0.44321 0.76350 0.24564
 H2607 H 0.46535 0.77719 0.21392
 H2608 H 0.44610 0.78657 0.20449
 C2609 C 0.87936 0.30755 0.19241
 C2610 C 0.88865 0.30284 0.19728
 C2611 C 0.89979 0.29724 0.20303
 C2612 C 0.89902 0.28528 0.20893
 C2613 C 0.90990 0.27979 0.21438
 C2614 C 0.92169 0.28619 0.21397
 C2615 C 0.92234 0.29823 0.20808
 C2616 C 0.91146 0.30371 0.20265
 C2617 C 0.93331 0.28030 0.21956
 C2618 C 0.94512 0.28121 0.21324
 C2619 C 0.95609 0.27578 0.21852
 C2620 C 0.95543 0.26936 0.23017
 C2621 C 0.94373 0.26833 0.23652
 C2622 C 0.93272 0.27375 0.23125
 C2623 C 0.96682 0.26399 0.23562
 C2624 C 0.97652 0.25965 0.24003
 H2625 H 0.89004 0.28018 0.20924
 H2626 H 0.90912 0.27045 0.21871
 H2627 H 0.93124 0.30348 0.20778
 H2628 H 0.91215 0.31298 0.19815
 H2629 H 0.94585 0.28601 0.20415
 H2630 H 0.96509 0.27660 0.21351
 H2631 H 0.94312 0.26340 0.24556
 H2632 H 0.92381 0.27302 0.23641
 C2633 C 0.87939 0.80780 0.69262
 C2634 C 0.88863 0.80305 0.69756
 C2635 C 0.89970 0.79744 0.70345
 C2636 C 0.90767 0.80490 0.71109
 C2637 C 0.91852 0.79952 0.71669
 C2638 C 0.92152 0.78658 0.71472
 C2639 C 0.91340 0.77914 0.70708
 C2640 C 0.90257 0.78455 0.70147
 C2641 C 0.93318 0.78092 0.72046
 C2642 C 0.93294 0.76855 0.72569
 C2643 C 0.94399 0.76322 0.73096
 C2644 C 0.95539 0.77016 0.73106
 C2645 C 0.95571 0.78247 0.72593
 C2646 C 0.94469 0.78783 0.72067
 C2647 C 0.96684 0.76464 0.73626
 C2648 C 0.97655 0.76015 0.74048
 H2649 H 0.90552 0.81488 0.71271
 H2650 H 0.92449 0.80545 0.72266
 H2651 H 0.91555 0.76920 0.70525
 H2652 H 0.89647 0.77870 0.69554
 H2653 H 0.92420 0.76306 0.72580
 H2654 H 0.94363 0.75368 0.73494
 H2655 H 0.96450 0.78791 0.72591
 H2656 H 0.94522 0.79729 0.71657
 C2657 C 0.62060 0.30757 0.30719
 C2658 C 0.61127 0.30289 0.30239
 C2659 C 0.60010 0.29729 0.29671
 C2660 C 0.58835 0.30363 0.29739
 C2661 C 0.57747 0.29815 0.29200
 C2662 C 0.57817 0.28623 0.28587
 C2663 C 0.59004 0.27997 0.28520
 C2664 C 0.60092 0.28547 0.29059
 C2665 C 0.56656 0.28035 0.28029
 C2666 C 0.56713 0.27396 0.26852
 C2667 C 0.55614 0.26853 0.26326
 C2668 C 0.54447 0.26941 0.26969
 C2669 C 0.54382 0.27568 0.28141
 C2670 C 0.55478 0.28111 0.28669
 C2671 C 0.53309 0.26403 0.26424
 C2672 C 0.52341 0.25967 0.25983
 H2673 H 0.58761 0.31281 0.30207
 H2674 H 0.56851 0.30330 0.29252
 H2675 H 0.59087 0.27072 0.28068
 H2676 H 0.60996 0.28046 0.29005
 H2677 H 0.57601 0.27334 0.26330
 H2678 H 0.55673 0.26372 0.25416
 H2679 H 0.53484 0.27638 0.28648
 H2680 H 0.55407 0.28578 0.29585
 C2681 C 0.62052 0.80758 0.80729
 C2682 C 0.61119 0.80285 0.80252
 C2683 C 0.60001 0.79720 0.79693
 C2684 C 0.58953 0.79412 0.80459
 C2685 C 0.57862 0.78872 0.79920
 C2686 C 0.57803 0.78631 0.78604
 C2687 C 0.58865 0.78938 0.77842
 C2688 C 0.59956 0.79480 0.78384
 C2689 C 0.56636 0.78073 0.78030
 C2690 C 0.56725 0.77137 0.77073
 C2691 C 0.55622 0.76610 0.76540
 C2692 C 0.54417 0.77011 0.76955
 C2693 C 0.54319 0.77944 0.77902
 C2694 C 0.55419 0.78471 0.78436
 C2695 C 0.53279 0.76469 0.76417
 C2696 C 0.52312 0.76025 0.75981
 H2697 H 0.58980 0.79590 0.81474
 H2698 H 0.57068 0.78630 0.80534
 H2699 H 0.58844 0.78779 0.76825
 H2700 H 0.60762 0.79717 0.77782
 H2701 H 0.57648 0.76800 0.76751
 H2702 H 0.55709 0.75886 0.75809
 H2703 H 0.53391 0.78264 0.78227
 H2704 H 0.55318 0.79202 0.79156
 C2705 C 0.12054 0.30750 0.80708
 C2706 C 0.11125 0.30281 0.80222
 C2707 C 0.10011 0.29724 0.79645
 C2708 C 0.09878 0.28397 0.79588
 C2709 C 0.08788 0.27857 0.79042
 C2710 C 0.07815 0.28640 0.78547
 C2711 C 0.07962 0.29973 0.78603
 C2712 C 0.09053 0.30511 0.79148
 C2713 C 0.06646 0.28069 0.77987
 C2714 C 0.05441 0.28614 0.78226
 C2715 C 0.04339 0.28077 0.77704
 C2716 C 0.04424 0.26990 0.76937
 C2717 C 0.05617 0.26440 0.76693
 C2718 C 0.06722 0.26975 0.77214
 C2719 C 0.03284 0.26441 0.76408
 C2720 C 0.02316 0.25995 0.75977
 H2721 H 0.10612 0.27779 0.79974
 H2722 H 0.08696 0.26828 0.79028
 H2723 H 0.07239 0.30601 0.78214
 H2724 H 0.09148 0.31539 0.79184
 H2725 H 0.05348 0.29444 0.78831
 H2726 H 0.03419 0.28507 0.77903
 H2727 H 0.05693 0.25599 0.76099
 H2728 H 0.07636 0.26543 0.77001
 C2729 C 0.12046 0.80774 0.30732
 C2730 C 0.11115 0.80305 0.30247
 C2731 C 0.10001 0.79748 0.29673
 C2732 C 0.09920 0.78425 0.29513
 C2733 C 0.08832 0.77883 0.28966
 C2734 C 0.07808 0.78659 0.28572
 C2735 C 0.07902 0.79989 0.28732
 C2736 C 0.08991 0.80529 0.29279
 C2737 C 0.06644 0.78085 0.28007
 C2738 C 0.05427 0.78552 0.28330
 C2739 C 0.04330 0.78011 0.27802
 C2740 C 0.04433 0.76996 0.26943
 C2741 C 0.05638 0.76523 0.26614
 C2742 C 0.06738 0.77063 0.27143
 C2743 C 0.03298 0.76443 0.26406
 C2744 C 0.02333 0.75996 0.25971
 H2745 H 0.10695 0.77812 0.29819
 H2746 H 0.08782 0.76856 0.28871
 H2747 H 0.07138 0.80613 0.28423
 H2748 H 0.09045 0.81555 0.29394
 H2749 H 0.05321 0.79324 0.29006
 H2750 H 0.03401 0.78381 0.28066
 H2751 H 0.05729 0.75740 0.25949
 H2752 H 0.07661 0.76692 0.26863
 C2753 C 0.62038 0.69247 0.69268
 C2754 C 0.61112 0.69722 0.69759
 C2755 C 0.60006 0.70288 0.70344
 C2756 C 0.59395 0.69668 0.71354
 C2757 C 0.58314 0.70211 0.71916
 C2758 C 0.57829 0.71384 0.71476
 C2759 C 0.58454 0.72002 0.70464
 C2760 C 0.59535 0.71457 0.69902
 C2761 C 0.56668 0.71951 0.72059
 C2762 C 0.56589 0.73273 0.72281
 C2763 C 0.55486 0.73807 0.72811
 C2764 C 0.54448 0.73027 0.73124
 C2765 C 0.54521 0.71710 0.72914
 C2766 C 0.55623 0.71175 0.72387
 C2767 C 0.53299 0.73575 0.73638
 C2768 C 0.52325 0.74022 0.74057
 H2769 H 0.59754 0.68765 0.71706
 H2770 H 0.57864 0.69719 0.72704
 H2771 H 0.58094 0.72897 0.70092
 H2772 H 0.59998 0.71943 0.69118
 H2773 H 0.57383 0.73893 0.72053
 H2774 H 0.55440 0.74827 0.72972
 H2775 H 0.53722 0.71099 0.73149
 H2776 H 0.55648 0.70157 0.72213
 C2777 C 0.62086 0.19236 0.19275
 C2778 C 0.61156 0.19706 0.19761
 C2779 C 0.60039 0.20262 0.20336
 C2780 C 0.60086 0.21500 0.20834
 C2781 C 0.58995 0.22045 0.21377
 C2782 C 0.57842 0.21358 0.21427
 C2783 C 0.57809 0.20112 0.20929
 C2784 C 0.58900 0.19569 0.20388
 C2785 C 0.56675 0.21941 0.21983
 C2786 C 0.55479 0.21752 0.21406
 C2787 C 0.54378 0.22292 0.21930
 C2788 C 0.54457 0.23029 0.23036
 C2789 C 0.55642 0.23229 0.23616
 C2790 C 0.56746 0.22689 0.23092
 C2791 C 0.53316 0.23569 0.23576
 C2792 C 0.52346 0.24006 0.24014
 H2793 H 0.60962 0.22046 0.20795
 H2794 H 0.59047 0.23010 0.21738
 H2795 H 0.56942 0.19552 0.20970
 H2796 H 0.58855 0.18609 0.20008
 H2797 H 0.55395 0.21198 0.20541
 H2798 H 0.53465 0.22135 0.21472
 H2799 H 0.55713 0.23796 0.24474
 H2800 H 0.57650 0.22840 0.23566
 C2801 C 0.12045 0.69241 0.19221
 C2802 C 0.11111 0.69712 0.19700
 C2803 C 0.09993 0.70275 0.20264
 C2804 C 0.09932 0.70465 0.21581
 C2805 C 0.08842 0.71007 0.22129
 C2806 C 0.07798 0.71366 0.21366
 C2807 C 0.07871 0.71174 0.20043
 C2808 C 0.08961 0.70632 0.19497
 C2809 C 0.06635 0.71932 0.21946
 C2810 C 0.05415 0.71581 0.21511
 C2811 C 0.04320 0.72116 0.22052
 C2812 C 0.04427 0.73009 0.23034
 C2813 C 0.05635 0.73364 0.23477
 C2814 C 0.06733 0.72829 0.22938
 C2815 C 0.03294 0.73559 0.23582
 C2816 C 0.02330 0.74005 0.24024
 H2817 H 0.10724 0.70189 0.22184
 H2818 H 0.08809 0.71128 0.23151
 H2819 H 0.07091 0.71456 0.19428
 H2820 H 0.09000 0.70494 0.18477
 H2821 H 0.05307 0.70880 0.20762
 H2822 H 0.03389 0.71831 0.21705
 H2823 H 0.05729 0.74056 0.24235
 H2824 H 0.07658 0.73130 0.23284
 C2825 C 0.12055 0.19218 0.69287
 C2826 C 0.11128 0.19692 0.69777
 C2827 C 0.10016 0.20252 0.70357
 C2828 C 0.09063 0.19468 0.70865
 C2829 C 0.07974 0.20009 0.71414
 C2830 C 0.07824 0.21343 0.71464
 C2831 C 0.08792 0.22123 0.70958
 C2832 C 0.09880 0.21580 0.70407
 C2833 C 0.06656 0.21915 0.72027
 C2834 C 0.06732 0.23014 0.72793
 C2835 C 0.05628 0.23552 0.73317
 C2836 C 0.04436 0.23001 0.73082
 C2837 C 0.04350 0.21909 0.72322
 C2838 C 0.05451 0.21369 0.71798
 C2839 C 0.03296 0.23553 0.73611
 C2840 C 0.02326 0.23999 0.74041
 H2841 H 0.09160 0.18440 0.70834
 H2842 H 0.07254 0.19383 0.71811
 H2843 H 0.08698 0.23151 0.70967
 H2844 H 0.10612 0.22195 0.70014
 H2845 H 0.07647 0.23448 0.72999
 H2846 H 0.05705 0.24397 0.73906
 H2847 H 0.03431 0.21477 0.72130
 H2848 H 0.05358 0.20535 0.71198
 C2849 C 0.37933 0.69243 0.30730
 C2850 C 0.38866 0.69716 0.30252
 C2851 C 0.39985 0.70277 0.29689
 C2852 C 0.39913 0.70860 0.28493
 C2853 C 0.41002 0.71402 0.27946
 C2854 C 0.42180 0.71365 0.28590
 C2855 C 0.42240 0.70779 0.29793
 C2856 C 0.41150 0.70239 0.30338
 C2857 C 0.43342 0.71929 0.28008
 C2858 C 0.44527 0.71304 0.28112
 C2859 C 0.45625 0.71838 0.27578
 C2860 C 0.45556 0.73004 0.26933
 C2861 C 0.44382 0.73632 0.26818
 C2862 C 0.43281 0.73098 0.27351
 C2863 C 0.46695 0.73556 0.26404
 C2864 C 0.47663 0.74004 0.25975
 H2865 H 0.39016 0.70893 0.27982
 H2866 H 0.40928 0.71833 0.27013
 H2867 H 0.43128 0.70751 0.30320
 H2868 H 0.41215 0.69794 0.31266
 H2869 H 0.44603 0.70394 0.28595
 H2870 H 0.46528 0.71343 0.27670
 H2871 H 0.44318 0.74538 0.26324
 H2872 H 0.42386 0.73610 0.27267
 C2873 C 0.37939 0.19237 0.80737
 C2874 C 0.38873 0.19709 0.80261
 C2875 C 0.39992 0.20272 0.79700
 C2876 C 0.41076 0.20491 0.80445
 C2877 C 0.42167 0.21031 0.79902
 C2878 C 0.42190 0.21359 0.78604
 C2879 C 0.41093 0.21139 0.77864
 C2880 C 0.40002 0.20599 0.78409
 C2881 C 0.43356 0.21918 0.78025
 C2882 C 0.43266 0.22920 0.77137
 C2883 C 0.44368 0.23449 0.76602
 C2884 C 0.45572 0.22983 0.76946
 C2885 C 0.45670 0.21984 0.77824
 C2886 C 0.44571 0.21455 0.78360
 C2887 C 0.46710 0.23530 0.76409
 C2888 C 0.47676 0.23976 0.75974
 H2889 H 0.41077 0.20246 0.81447
 H2890 H 0.42989 0.21204 0.80502
 H2891 H 0.41085 0.21367 0.76859
 H2892 H 0.39169 0.20430 0.77823
 H2893 H 0.42345 0.23307 0.76871
 H2894 H 0.44282 0.24225 0.75925
 H2895 H 0.46598 0.21614 0.78094
 H2896 H 0.44672 0.20673 0.79026
 C2897 C 0.87932 0.69247 0.80727
 C2898 C 0.88864 0.69721 0.80248
 C2899 C 0.89982 0.70285 0.79686
 C2900 C 0.89943 0.70750 0.78438
 C2901 C 0.91033 0.71292 0.77892
 C2902 C 0.92177 0.71375 0.78588
 C2903 C 0.92203 0.70909 0.79844
 C2904 C 0.91113 0.70368 0.80388
 C2905 C 0.93341 0.71936 0.78007
 C2906 C 0.94546 0.71384 0.78228
 C2907 C 0.95644 0.71917 0.77694
 C2908 C 0.95556 0.73008 0.76931
 C2909 C 0.94362 0.73562 0.76699
 C2910 C 0.93261 0.73030 0.77233
 C2911 C 0.96695 0.73559 0.76400
 C2912 C 0.97662 0.74007 0.75970
 H2913 H 0.89072 0.70688 0.77885
 H2914 H 0.90986 0.71628 0.76919
 H2915 H 0.93063 0.70976 0.80411
 H2916 H 0.91152 0.70016 0.81356
 H2917 H 0.94638 0.70531 0.78803
 H2918 H 0.96563 0.71478 0.77876
 H2919 H 0.94284 0.74409 0.76112
 H2920 H 0.92350 0.73486 0.77057
 C2921 C 0.87946 0.19225 0.30737
 C2922 C 0.88878 0.19695 0.30256
 C2923 C 0.89995 0.20255 0.29687
 C2924 C 0.91164 0.19610 0.29731
 C2925 C 0.92253 0.20158 0.29191
 C2926 C 0.92187 0.21361 0.28599
 C2927 C 0.91005 0.22000 0.28554
 C2928 C 0.89917 0.21450 0.29096
 C2929 C 0.93349 0.21949 0.28039
 C2930 C 0.93289 0.22607 0.26873
 C2931 C 0.94388 0.23149 0.26345
 C2932 C 0.95559 0.23041 0.26976
 C2933 C 0.95627 0.22396 0.28139
 C2934 C 0.94531 0.21854 0.28668
 C2935 C 0.96697 0.23579 0.26429
 C2936 C 0.97663 0.24016 0.25985
 H2937 H 0.91234 0.18683 0.30183
 H2938 H 0.93144 0.19634 0.29226
 H2939 H 0.90927 0.22933 0.28119
 H2940 H 0.89017 0.21959 0.29059
 H2941 H 0.92396 0.22684 0.26359
 H2942 H 0.94326 0.23644 0.25442
 H2943 H 0.96528 0.22311 0.28637
 H2944 H 0.94605 0.21372 0.29576
 C2945 C 0.30736 0.30733 0.62036
 C2946 C 0.30263 0.30254 0.61108
 C2947 C 0.29704 0.29680 0.59996
 C2948 C 0.28388 0.29770 0.59785
 C2949 C 0.27847 0.29221 0.58700
 C2950 C 0.28618 0.28575 0.57811
 C2951 C 0.29939 0.28487 0.58036
 C2952 C 0.30477 0.29036 0.59122
 C2953 C 0.28049 0.28009 0.56648
 C2954 C 0.28680 0.28110 0.55470
 C2955 C 0.28144 0.27583 0.54373
 C2956 C 0.26972 0.26948 0.54436
 C2957 C 0.26336 0.26840 0.55603
 C2958 C 0.26870 0.27367 0.56702
 C2959 C 0.26423 0.26416 0.53301
 C2960 C 0.25978 0.25982 0.52337
 H2961 H 0.27781 0.30270 0.60455
 H2962 H 0.26830 0.29319 0.58546
 H2963 H 0.30555 0.27982 0.57379
 H2964 H 0.31497 0.28957 0.59278
 H2965 H 0.29579 0.28613 0.55394
 H2966 H 0.28641 0.27677 0.53474
 H2967 H 0.25429 0.26347 0.55662
 H2968 H 0.26369 0.27261 0.57597
 C2969 C 0.30742 0.80749 0.12015
 C2970 C 0.30268 0.80278 0.11083
 C2971 C 0.29703 0.79721 0.09966
 C2972 C 0.29410 0.78419 0.09940
 C2973 C 0.28870 0.77877 0.08851
 C2974 C 0.28617 0.78631 0.07773
 C2975 C 0.28911 0.79941 0.07811
 C2976 C 0.29450 0.80481 0.08901
 C2977 C 0.28059 0.78056 0.06608
 C2978 C 0.28500 0.78422 0.05397
 C2979 C 0.27974 0.77885 0.04300
 C2980 C 0.27001 0.76977 0.04396
 C2981 C 0.26557 0.76603 0.05596
 C2982 C 0.27083 0.77138 0.06696
 C2983 C 0.26460 0.76436 0.03261
 C2984 C 0.26019 0.75996 0.02298
 H2985 H 0.29605 0.77821 0.10759
 H2986 H 0.28669 0.76863 0.08846
 H2987 H 0.28712 0.80551 0.07004
 H2988 H 0.29670 0.81491 0.08913
 H2989 H 0.29263 0.79111 0.05299
 H2990 H 0.28327 0.78178 0.03376
 H2991 H 0.25802 0.75902 0.05680
 H2992 H 0.26713 0.76848 0.07613
 C2993 C 0.80718 0.30743 0.12019
 C2994 C 0.80241 0.30272 0.11088
 C2995 C 0.79672 0.29717 0.09972
 C2996 C 0.79331 0.28426 0.09963
 C2997 C 0.78786 0.27885 0.08876
 C2998 C 0.78577 0.28630 0.07781
 C2999 C 0.78920 0.29929 0.07802
 C3000 C 0.79463 0.30467 0.08891
 C3001 C 0.78015 0.28056 0.06618
 C3002 C 0.78487 0.28385 0.05408
 C3003 C 0.77958 0.27850 0.04312
 C3004 C 0.76950 0.26980 0.04407
 C3005 C 0.76475 0.26643 0.05605
 C3006 C 0.77004 0.27177 0.06705
 C3007 C 0.76408 0.26439 0.03272
 C3008 C 0.75968 0.26000 0.02308
 H3009 H 0.79491 0.27836 0.10795
 H3010 H 0.78547 0.26881 0.08884
 H3011 H 0.78755 0.30531 0.06982
 H3012 H 0.79720 0.31468 0.08889
 H3013 H 0.79277 0.29044 0.05310
 H3014 H 0.78336 0.28114 0.03389
 H3015 H 0.75693 0.25972 0.05689
 H3016 H 0.76610 0.26916 0.07621
 C3017 C 0.80726 0.80775 0.62037
 C3018 C 0.80244 0.80300 0.61111
 C3019 C 0.79667 0.79737 0.60003
 C3020 C 0.78985 0.80501 0.59148
 C3021 C 0.78434 0.79959 0.58065
 C3022 C 0.78558 0.78644 0.57822
 C3023 C 0.79241 0.77883 0.58691
 C3024 C 0.79792 0.78428 0.59774
 C3025 C 0.77990 0.78073 0.56660
 C3026 C 0.77386 0.76875 0.56708
 C3027 C 0.76860 0.76338 0.55609
 C3028 C 0.76933 0.76991 0.54449
 C3029 C 0.77531 0.78182 0.54393
 C3030 C 0.78056 0.78721 0.55489
 C3031 C 0.76407 0.76439 0.53312
 C3032 C 0.75978 0.75994 0.52346
 H3033 H 0.78879 0.81515 0.59318
 H3034 H 0.77900 0.80567 0.57423
 H3035 H 0.79367 0.76872 0.58523
 H3036 H 0.80322 0.77828 0.60428
 H3037 H 0.77308 0.76360 0.57598
 H3038 H 0.76398 0.75415 0.55663
 H3039 H 0.77597 0.78693 0.53499
 H3040 H 0.78530 0.79636 0.55417
 C3041 C 0.30723 0.69240 0.37959
 C3042 C 0.30250 0.69712 0.38893
 C3043 C 0.29689 0.70273 0.40010
 C3044 C 0.29620 0.69572 0.41141
 C3045 C 0.29083 0.70117 0.42230
 C3046 C 0.28607 0.71373 0.42202
 C3047 C 0.28677 0.72069 0.41059
 C3048 C 0.29215 0.71521 0.39971
 C3049 C 0.28048 0.71957 0.43363
 C3050 C 0.26945 0.72721 0.43287
 C3051 C 0.26417 0.73261 0.44385
 C3052 C 0.26986 0.73047 0.45570
 C3053 C 0.28086 0.72293 0.45654
 C3054 C 0.28614 0.71751 0.44560
 C3055 C 0.26442 0.73589 0.46704
 C3056 C 0.26000 0.74029 0.47668
 H3057 H 0.29980 0.68603 0.41181
 H3058 H 0.29027 0.69552 0.43091
 H3059 H 0.28333 0.73042 0.41011
 H3060 H 0.29267 0.72073 0.39101
 H3061 H 0.26479 0.72884 0.42383
 H3062 H 0.25563 0.73840 0.44310
 H3063 H 0.28536 0.72124 0.46567
 H3064 H 0.29474 0.71184 0.44647
 C3065 C 0.30726 0.19227 0.87968
 C3066 C 0.30250 0.19699 0.88900
 C3067 C 0.29685 0.20260 0.90016
 C3068 C 0.29700 0.19597 0.91171
 C3069 C 0.29160 0.20143 0.92259
 C3070 C 0.28598 0.21362 0.92205
 C3071 C 0.28583 0.22019 0.91037
 C3072 C 0.29125 0.21471 0.89951
 C3073 C 0.28036 0.21947 0.93364
 C3074 C 0.26881 0.22631 0.93300
 C3075 C 0.26350 0.23171 0.94397
 C3076 C 0.26969 0.23037 0.95569
 C3077 C 0.28120 0.22363 0.95641
 C3078 C 0.28651 0.21822 0.94547
 C3079 C 0.26422 0.23577 0.96703
 C3080 C 0.25979 0.24015 0.97667
 H3081 H 0.30127 0.18657 0.91232
 H3082 H 0.29170 0.19606 0.93139
 H3083 H 0.28172 0.22965 0.90969
 H3084 H 0.29111 0.21994 0.89061
 H3085 H 0.26377 0.22731 0.92407
 H3086 H 0.25456 0.23687 0.94331
 H3087 H 0.28609 0.22256 0.96543
 H3088 H 0.29550 0.21318 0.94625
 C3089 C 0.80737 0.69226 0.87972
 C3090 C 0.80263 0.69698 0.88904
 C3091 C 0.79699 0.70260 0.90020
 C3092 C 0.79601 0.69549 0.91143
 C3093 C 0.79062 0.70095 0.92231
 C3094 C 0.78613 0.71362 0.92210
 C3095 C 0.78711 0.72066 0.91074
 C3096 C 0.79252 0.71518 0.89988
 C3097 C 0.78051 0.71945 0.93370
 C3098 C 0.76965 0.72733 0.93288
 C3099 C 0.76435 0.73274 0.94384
 C3100 C 0.76985 0.73037 0.95574
 C3101 C 0.78067 0.72259 0.95665
 C3102 C 0.78597 0.71716 0.94571
 C3103 C 0.76438 0.73582 0.96706
 C3104 C 0.75996 0.74023 0.97669
 H3105 H 0.79940 0.68573 0.91178
 H3106 H 0.78983 0.69523 0.93085
 H3107 H 0.78389 0.73047 0.91032
 H3108 H 0.79326 0.72078 0.89124
 H3109 H 0.76514 0.72915 0.92379
 H3110 H 0.75595 0.73872 0.94304
 H3111 H 0.78502 0.72072 0.96581
 H3112 H 0.79443 0.71129 0.94664
 C3113 C 0.80738 0.19223 0.37975
 C3114 C 0.80262 0.19695 0.38908
 C3115 C 0.79697 0.20254 0.40024
 C3116 C 0.79604 0.19545 0.41148
 C3117 C 0.79063 0.20089 0.42235
 C3118 C 0.78606 0.21352 0.42213
 C3119 C 0.78698 0.22056 0.41076
 C3120 C 0.79241 0.21510 0.39990
 C3121 C 0.78042 0.21933 0.43373
 C3122 C 0.76951 0.22714 0.43291
 C3123 C 0.76419 0.23253 0.44388
 C3124 C 0.76972 0.23021 0.45577
 C3125 C 0.78060 0.22250 0.45667
 C3126 C 0.78592 0.21710 0.44574
 C3127 C 0.76425 0.23564 0.46710
 C3128 C 0.75982 0.24004 0.47673
 H3129 H 0.79950 0.18571 0.41183
 H3130 H 0.78989 0.19517 0.43090
 H3131 H 0.78369 0.23035 0.41033
 H3132 H 0.79311 0.22069 0.39125
 H3133 H 0.76497 0.22891 0.42383
 H3134 H 0.75575 0.23844 0.44308
 H3135 H 0.78497 0.22067 0.46583
 H3136 H 0.79442 0.21129 0.44666
 C3137 C 0.69249 0.30728 0.37965
 C3138 C 0.69719 0.30254 0.38899
 C3139 C 0.70278 0.29690 0.40016
 C3140 C 0.69568 0.29601 0.41140
 C3141 C 0.70111 0.29062 0.42229
 C3142 C 0.71374 0.28604 0.42209
 C3143 C 0.72079 0.28693 0.41072
 C3144 C 0.71534 0.29234 0.39984
 C3145 C 0.71954 0.28042 0.43370
 C3146 C 0.72734 0.26950 0.43291
 C3147 C 0.73271 0.26419 0.44389
 C3148 C 0.73038 0.26973 0.45577
 C3149 C 0.72268 0.28061 0.45665
 C3150 C 0.71729 0.28593 0.44570
 C3151 C 0.73578 0.26426 0.46711
 C3152 C 0.74016 0.25981 0.47674
 H3153 H 0.68593 0.29947 0.41174
 H3154 H 0.69538 0.28991 0.43084
 H3155 H 0.73058 0.28364 0.41031
 H3156 H 0.72094 0.29301 0.39119
 H3157 H 0.72913 0.26496 0.42384
 H3158 H 0.73862 0.25574 0.44311
 H3159 H 0.72084 0.28500 0.46580
 H3160 H 0.71149 0.29444 0.44660
 C3161 C 0.69238 0.80746 0.87972
 C3162 C 0.69710 0.80272 0.88905
 C3163 C 0.70271 0.79708 0.90021
 C3164 C 0.69561 0.79613 0.91144
 C3165 C 0.70106 0.79074 0.92232
 C3166 C 0.71372 0.78621 0.92211
 C3167 C 0.72076 0.78716 0.91075
 C3168 C 0.71529 0.79258 0.89988
 C3169 C 0.71954 0.78058 0.93371
 C3170 C 0.72738 0.76970 0.93289
 C3171 C 0.73278 0.76439 0.94385
 C3172 C 0.73043 0.76989 0.95575
 C3173 C 0.72269 0.78074 0.95665
 C3174 C 0.71728 0.78606 0.94572
 C3175 C 0.73586 0.76442 0.96708
 C3176 C 0.74026 0.75998 0.97670
 H3177 H 0.68585 0.79956 0.91179
 H3178 H 0.69533 0.78998 0.93087
 H3179 H 0.73057 0.78391 0.91032
 H3180 H 0.72089 0.79329 0.89124
 H3181 H 0.72918 0.76518 0.92380
 H3182 H 0.73872 0.75596 0.94305
 H3183 H 0.72084 0.78510 0.96581
 H3184 H 0.71144 0.79454 0.94664
 C3185 C 0.19241 0.30728 0.87957
 C3186 C 0.19712 0.30254 0.88891
 C3187 C 0.20272 0.29692 0.90008
 C3188 C 0.21493 0.29150 0.89950
 C3189 C 0.22039 0.28610 0.91038
 C3190 C 0.21372 0.28608 0.92200
 C3191 C 0.20143 0.29151 0.92247
 C3192 C 0.19599 0.29689 0.91158
 C3193 C 0.21954 0.28047 0.93361
 C3194 C 0.21808 0.28652 0.94548
 C3195 C 0.22347 0.28121 0.95643
 C3196 C 0.23038 0.26981 0.95569
 C3197 C 0.23195 0.26374 0.94394
 C3198 C 0.22657 0.26903 0.93296
 C3199 C 0.23576 0.26434 0.96705
 C3200 C 0.24012 0.25990 0.97669
 H3201 H 0.22024 0.29150 0.89066
 H3202 H 0.22992 0.28213 0.90976
 H3203 H 0.19598 0.29148 0.93122
 H3204 H 0.18652 0.30103 0.91212
 H3205 H 0.21289 0.29542 0.94626
 H3206 H 0.22223 0.28601 0.96547
 H3207 H 0.23725 0.25489 0.94328
 H3208 H 0.22774 0.26408 0.92400
 C3209 C 0.19247 0.80740 0.37965
 C3210 C 0.19719 0.80266 0.38899
 C3211 C 0.20279 0.79704 0.40016
 C3212 C 0.21519 0.79208 0.39970
 C3213 C 0.22066 0.78668 0.41058
 C3214 C 0.21379 0.78619 0.42207
 C3215 C 0.20131 0.79118 0.42242
 C3216 C 0.19586 0.79656 0.41153
 C3217 C 0.21961 0.78058 0.43368
 C3218 C 0.21776 0.78636 0.44561
 C3219 C 0.22317 0.78106 0.45655
 C3220 C 0.23050 0.76992 0.45573
 C3221 C 0.23243 0.76411 0.44390
 C3222 C 0.22704 0.76941 0.43293
 C3223 C 0.23591 0.76445 0.46706
 C3224 C 0.24031 0.76002 0.47669
 H3225 H 0.22066 0.79244 0.39095
 H3226 H 0.23034 0.78307 0.41005
 H3227 H 0.19571 0.79078 0.43107
 H3228 H 0.18624 0.80033 0.41198
 H3229 H 0.21225 0.79506 0.44647
 H3230 H 0.22164 0.78565 0.46566
 H3231 H 0.23805 0.75546 0.44317
 H3232 H 0.22851 0.76466 0.42391
 C3233 C 0.69267 0.69258 0.62047
 C3234 C 0.69749 0.69730 0.61118
 C3235 C 0.70323 0.70287 0.60004
 C3236 C 0.70480 0.71610 0.59918
 C3237 C 0.71028 0.72151 0.58831
 C3238 C 0.71424 0.71373 0.57813
 C3239 C 0.71267 0.70043 0.57912
 C3240 C 0.70720 0.69505 0.59000
 C3241 C 0.71987 0.71945 0.56648
 C3242 C 0.71659 0.71473 0.55439
 C3243 C 0.72185 0.72010 0.54341
 C3244 C 0.73047 0.73024 0.54435
 C3245 C 0.73381 0.73502 0.55632
 C3246 C 0.72854 0.72967 0.56733
 C3247 C 0.73584 0.73571 0.53299
 C3248 C 0.74021 0.74015 0.52335
 H3249 H 0.70173 0.72224 0.60689
 H3250 H 0.71122 0.73178 0.58777
 H3251 H 0.71578 0.69417 0.57153
 H3252 H 0.70606 0.68479 0.59058
 H3253 H 0.70980 0.70701 0.55341
 H3254 H 0.71917 0.71636 0.53419
 H3255 H 0.74050 0.74286 0.55715
 H3256 H 0.73137 0.73341 0.57650
 C3257 C 0.69271 0.19233 0.12015
 C3258 C 0.69754 0.19709 0.11089
 C3259 C 0.70333 0.20273 0.09982
 C3260 C 0.69950 0.21484 0.09568
 C3261 C 0.70507 0.22028 0.08488
 C3262 C 0.71454 0.21366 0.07805
 C3263 C 0.71836 0.20151 0.08232
 C3264 C 0.71279 0.19609 0.09313
 C3265 C 0.72031 0.21933 0.06645
 C3266 C 0.72268 0.21172 0.05567
 C3267 C 0.72793 0.21707 0.04468
 C3268 C 0.73092 0.23008 0.04430
 C3269 C 0.72868 0.23772 0.05498
 C3270 C 0.72340 0.23239 0.06599
 C3271 C 0.73609 0.23557 0.03286
 C3272 C 0.74030 0.24004 0.02317
 H3273 H 0.69216 0.22004 0.10077
 H3274 H 0.70181 0.22957 0.08174
 H3275 H 0.72574 0.19625 0.07736
 H3276 H 0.71585 0.18673 0.09627
 H3277 H 0.72025 0.20168 0.05567
 H3278 H 0.72958 0.21108 0.03644
 H3279 H 0.73098 0.24779 0.05479
 H3280 H 0.72183 0.23845 0.07418
 C3281 C 0.19252 0.69241 0.11984
 C3282 C 0.19734 0.69725 0.11061
 C3283 C 0.20309 0.70303 0.09959
 C3284 C 0.21190 0.69617 0.09227
 C3285 C 0.21744 0.70176 0.08153
 C3286 C 0.21424 0.71431 0.07796
 C3287 C 0.20540 0.72114 0.08541
 C3288 C 0.19987 0.71553 0.09615
 C3289 C 0.21998 0.72019 0.06645
 C3290 C 0.21250 0.72768 0.05821
 C3291 C 0.21784 0.73301 0.04723
 C3292 C 0.23071 0.73093 0.04435
 C3293 C 0.23827 0.72358 0.05253
 C3294 C 0.23295 0.71823 0.06350
 C3295 C 0.23608 0.73611 0.03285
 C3296 C 0.24045 0.74036 0.02313
 H3297 H 0.21443 0.68648 0.09483
 H3298 H 0.22407 0.69620 0.07590
 H3299 H 0.20286 0.73086 0.08301
 H3300 H 0.19309 0.72094 0.10177
 H3301 H 0.20246 0.72923 0.06011
 H3302 H 0.21189 0.73864 0.04094
 H3303 H 0.24826 0.72193 0.05039
 H3304 H 0.23900 0.71265 0.06974
 C3305 C 0.19231 0.19206 0.62021
 C3306 C 0.19712 0.19688 0.61097
 C3307 C 0.20288 0.20262 0.59993
 C3308 C 0.21525 0.19914 0.59626
 C3309 C 0.22084 0.20467 0.58551
 C3310 C 0.21412 0.21378 0.57829
 C3311 C 0.20171 0.21725 0.58209
 C3312 C 0.19614 0.21170 0.59284
 C3313 C 0.21998 0.21954 0.56677
 C3314 C 0.21835 0.23259 0.56405
 C3315 C 0.22369 0.23793 0.55308
 C3316 C 0.23071 0.23031 0.54468
 C3317 C 0.23245 0.21734 0.54733
 C3318 C 0.22714 0.21198 0.55830
 C3319 C 0.23590 0.23570 0.53320
 C3320 C 0.24015 0.24010 0.52348
 H3321 H 0.22057 0.19215 0.60170
 H3322 H 0.23046 0.20192 0.58292
 H3323 H 0.19623 0.22410 0.57664
 H3324 H 0.18655 0.21444 0.59558
 H3325 H 0.21303 0.23869 0.57046
 H3326 H 0.22230 0.24799 0.55113
 H3327 H 0.23783 0.21134 0.54086
 H3328 H 0.22843 0.20188 0.56003
   
