data_POSCAR
  _audit_creation_date              2014-09-24
  _audit_creation_method            'ToBaCCo'
  _symmetry_space_group_name_H-M    'P1'
  _symmetry_Int_Tables_number       1
  _symmetry_cell_setting            triclinic
  loop_
  _symmetry_equiv_pos_as_xyz
 x,y,z
_cell_length_a 62.7746
_cell_length_b 62.7736
_cell_length_c 62.7398
_cell_angle_alpha 89.997300
_cell_angle_beta 89.990400
_cell_angle_gamma 89.985600
loop_
  _atom_site_label
  _atom_site_type_symbol
  _atom_site_fract_x
  _atom_site_fract_y
  _atom_site_fract_z
C1 C 0.34015 1.36865 0.34029
 C2 C 0.34929 1.37759 0.32195
 C3 C 0.36746 1.36839 0.31278
 C4 C 0.37670 1.35024 0.32196
 C5 C 0.36776 1.34110 0.34030
 C6 C 0.34940 1.35031 0.34953
 C7 C 0.32180 1.37756 0.34943
 C8 C 0.31263 1.36833 0.36760
 C9 C 0.32182 1.35017 0.37681
 C10 C 0.34017 1.34107 0.36788
 C11 C 0.34934 1.32274 0.37681
 C12 C 0.36750 1.31361 0.36760
 C13 C 0.37671 1.32278 0.34945
 H14 H 0.34217 1.39160 0.31472
 H15 H 0.39072 1.34315 0.31475
 H16 H 0.31456 1.39157 0.34233
 H17 H 0.31461 1.34306 0.39083
 H18 H 0.34228 1.31547 0.39082
 H19 H 0.39073 1.31554 0.34240
 C20 C 0.33981 0.86834 0.84075
 C21 C 0.34900 0.87729 0.82243
 C22 C 0.36716 0.86807 0.81330
 C23 C 0.37636 0.84992 0.82246
 C24 C 0.36738 0.84076 0.84077
 C25 C 0.34902 0.84998 0.84998
 C26 C 0.32145 0.87727 0.84986
 C27 C 0.31224 0.86803 0.86800
 C28 C 0.32139 0.84985 0.87721
 C29 C 0.33974 0.84073 0.86830
 C30 C 0.34887 0.82238 0.87723
 C31 C 0.36704 0.81324 0.86804
 C32 C 0.37629 0.82241 0.84991
 H33 H 0.34196 0.89131 0.81517
 H34 H 0.39037 0.84286 0.81522
 H35 H 0.31426 0.89130 0.84276
 H36 H 0.31414 0.84273 0.89121
 H37 H 0.34178 0.81510 0.89122
 H38 H 0.39032 0.81517 0.84287
 C39 C 0.84046 1.36834 0.83977
 C40 C 0.84958 1.37725 0.82141
 C41 C 0.86775 1.36804 0.81224
 C42 C 0.87699 1.34990 0.82144
 C43 C 0.86807 1.34079 0.83981
 C44 C 0.84972 1.35002 0.84903
 C45 C 0.82212 1.37727 0.84893
 C46 C 0.81300 1.36807 0.86711
 C47 C 0.82218 1.34995 0.87635
 C48 C 0.84051 1.34081 0.86741
 C49 C 0.84968 1.32250 0.87638
 C50 C 0.86783 1.31335 0.86716
 C51 C 0.87703 1.32247 0.84898
 H52 H 0.84246 1.39125 0.81417
 H53 H 0.89101 1.34280 0.81423
 H54 H 0.81484 1.39125 0.84185
 H55 H 0.81495 1.34291 0.89038
 H56 H 0.84264 1.31527 0.89041
 H57 H 0.89104 1.31522 0.84193
 C58 C 0.84088 0.86843 0.34008
 C59 C 0.85002 0.87736 0.32174
 C60 C 0.86818 0.86814 0.31256
 C61 C 0.87739 0.84998 0.32173
 C62 C 0.86845 0.84084 0.34008
 C63 C 0.85010 0.85007 0.34931
 C64 C 0.82254 0.87735 0.34922
 C65 C 0.81337 0.86813 0.36737
 C66 C 0.82252 0.84998 0.37658
 C67 C 0.84086 0.84084 0.36766
 C68 C 0.84999 0.82250 0.37659
 C69 C 0.86814 0.81334 0.36737
 C70 C 0.87737 0.82250 0.34922
 H71 H 0.84292 0.89138 0.31452
 H72 H 0.89141 0.84287 0.31451
 H73 H 0.81528 0.89136 0.34216
 H74 H 0.81525 0.84291 0.39059
 H75 H 0.84292 0.81524 0.39059
 H76 H 0.89138 0.81524 0.34216
 C77 C 0.65941 0.63179 0.34001
 C78 C 0.65025 0.62285 0.32168
 C79 C 0.63206 0.63205 0.31254
 C80 C 0.62285 0.65021 0.32174
 C81 C 0.63182 0.65935 0.34006
 C82 C 0.65019 0.65013 0.34926
 C83 C 0.67777 0.62287 0.34912
 C84 C 0.68695 0.63209 0.36726
 C85 C 0.67780 0.65023 0.37650
 C86 C 0.65944 0.65936 0.36759
 C87 C 0.65031 0.67769 0.37655
 C88 C 0.63213 0.68684 0.36736
 C89 C 0.62289 0.67768 0.34923
 H90 H 0.65735 0.60884 0.31444
 H91 H 0.60881 0.65730 0.31455
 H92 H 0.68503 0.60887 0.34205
 H93 H 0.68507 0.65730 0.39050
 H94 H 0.65739 0.68496 0.39054
 H95 H 0.60887 0.68493 0.34220
 C96 C 0.66032 0.13192 0.84069
 C97 C 0.65118 0.12299 0.82234
 C98 C 0.63299 0.13217 0.81323
 C99 C 0.62374 0.15028 0.82242
 C100 C 0.63266 0.15941 0.84076
 C101 C 0.65105 0.15022 0.84996
 C102 C 0.67869 0.12302 0.84980
 C103 C 0.68785 0.13223 0.86797
 C104 C 0.67863 0.15036 0.87723
 C105 C 0.66027 0.15945 0.86832
 C106 C 0.65108 0.17775 0.87729
 C107 C 0.63289 0.18687 0.86809
 C108 C 0.62369 0.17771 0.84994
 H109 H 0.65826 0.10901 0.81505
 H110 H 0.60970 0.15731 0.81520
 H111 H 0.68594 0.10903 0.84266
 H112 H 0.68584 0.15746 0.89125
 H113 H 0.65812 0.18501 0.89130
 H114 H 0.60966 0.18494 0.84290
 C115 C 1.16004 0.63160 0.84090
 C116 C 1.15089 0.62266 0.82256
 C117 C 1.13273 0.63187 0.81341
 C118 C 1.12351 0.65001 0.82257
 C119 C 1.13244 0.65916 0.84090
 C120 C 1.15080 0.64995 0.85013
 C121 C 1.17838 0.62268 0.85003
 C122 C 1.18755 0.63190 0.86820
 C123 C 1.17837 0.65006 0.87742
 C124 C 1.16002 0.65919 0.86848
 C125 C 1.15087 0.67752 0.87741
 C126 C 1.13271 0.68666 0.86819
 C127 C 1.12350 0.67749 0.85004
 H128 H 1.15796 0.60866 0.81530
 H129 H 1.10950 0.65706 0.81532
 H130 H 1.18560 0.60866 0.84293
 H131 H 1.18558 0.65717 0.89144
 H132 H 1.15792 0.68479 0.89142
 H133 H 1.10949 0.68474 0.84298
 C134 C 1.16028 0.13177 0.33979
 C135 C 1.15115 0.12283 0.32144
 C136 C 1.13296 0.13203 0.31229
 C137 C 1.12372 0.15017 0.32149
 C138 C 1.13266 0.15930 0.33983
 C139 C 1.15102 0.15009 0.34905
 C140 C 1.17863 0.12284 0.34893
 C141 C 1.18778 0.13206 0.36711
 C142 C 1.17858 0.15020 0.37634
 C143 C 1.16024 0.15931 0.36741
 C144 C 1.15107 0.17762 0.37637
 C145 C 1.13290 0.18676 0.36716
 C146 C 1.12370 0.17761 0.34900
 H147 H 1.15826 0.10883 0.31421
 H148 H 1.10969 0.15726 0.31429
 H149 H 1.18587 0.10884 0.34182
 H150 H 1.18578 0.15730 0.39037
 H151 H 1.15811 0.18488 0.39038
 H152 H 1.10968 0.18485 0.34196
 C153 C 0.66028 1.36835 0.65934
 C154 C 0.65112 1.37729 0.67768
 C155 C 0.63292 1.36811 0.68679
 C156 C 0.62369 1.35000 0.67759
 C157 C 0.63264 1.34085 0.65926
 C158 C 0.65103 1.35004 0.65007
 C159 C 0.67866 1.37725 0.65024
 C160 C 0.68784 1.36803 0.63208
 C161 C 0.67865 1.34990 0.62283
 C162 C 0.66028 1.34080 0.63173
 C163 C 0.65111 1.32249 0.62276
 C164 C 0.63292 1.31338 0.63194
 C165 C 0.62369 1.32255 0.65008
 H166 H 0.65819 1.39127 0.68497
 H167 H 0.60965 1.34297 0.68481
 H168 H 0.68589 1.39124 0.65737
 H169 H 0.68588 1.34279 0.60881
 H170 H 0.65817 1.31523 0.60876
 H171 H 0.60965 1.31533 0.65712
 C172 C 0.65926 0.86831 1.16009
 C173 C 0.65012 0.87725 1.17844
 C174 C 0.63194 0.86805 1.18760
 C175 C 0.62272 0.84991 1.17842
 C176 C 0.63166 0.84077 1.16007
 C177 C 0.65001 0.84998 1.15085
 C178 C 0.67760 0.87722 1.15094
 C179 C 0.68675 0.86800 1.13278
 C180 C 0.67758 0.84987 1.12356
 C181 C 0.65924 0.84075 1.13249
 C182 C 0.65009 0.82243 1.12354
 C183 C 0.63193 0.81329 1.13276
 C184 C 0.62271 0.82245 1.15091
 H185 H 0.65723 0.89125 1.18566
 H186 H 0.60869 0.84282 1.18563
 H187 H 0.68487 0.89121 1.15801
 H188 H 0.68483 0.84281 1.10954
 H189 H 0.65714 0.81517 1.10953
 H190 H 0.60870 0.81520 1.15797
 C191 C 1.15952 1.36875 1.15860
 C192 C 1.15036 1.37767 1.17694
 C193 C 1.13218 1.36849 1.18605
 C194 C 1.12294 1.35038 1.17685
 C195 C 1.13190 1.34124 1.15851
 C196 C 1.15028 1.35043 1.14933
 C197 C 1.17790 1.37764 1.14952
 C198 C 1.18710 1.36842 1.13136
 C199 C 1.17792 1.35029 1.12210
 C200 C 1.15954 1.34119 1.13099
 C201 C 1.15039 1.32287 1.12203
 C202 C 1.13221 1.31375 1.13122
 C203 C 1.12296 1.32292 1.14935
 H204 H 1.15744 1.39165 1.18424
 H205 H 1.10891 1.34334 1.18407
 H206 H 1.18514 1.39163 1.15666
 H207 H 1.18516 1.34318 1.10810
 H208 H 1.15747 1.31560 1.10804
 H209 H 1.10893 1.31569 1.15639
 C210 C 1.16016 0.86827 0.65915
 C211 C 1.15098 0.87719 0.67749
 C212 C 1.13281 0.86798 0.68660
 C213 C 1.12361 0.84984 0.67741
 C214 C 1.13258 0.84072 0.65908
 C215 C 1.15094 0.84994 0.64988
 C216 C 1.17851 0.87721 0.65004
 C217 C 1.18771 0.86801 0.63188
 C218 C 1.17855 0.84985 0.62263
 C219 C 1.16020 0.84072 0.63154
 C220 C 1.15107 0.82239 0.62258
 C221 C 1.13290 0.81324 0.63178
 C222 C 1.12366 0.82239 0.64992
 H223 H 1.15803 0.89119 0.68477
 H224 H 1.10959 0.84279 0.68464
 H225 H 1.18571 0.89122 0.65717
 H226 H 1.18579 0.84276 0.60861
 H227 H 1.15815 0.81513 0.60858
 H228 H 1.10964 0.81514 0.65696
 C229 C 0.34164 0.63094 0.65845
 C230 C 0.35076 0.62203 0.67681
 C231 C 0.36887 0.63128 0.68600
 C232 C 0.37808 0.64943 0.67685
 C233 C 0.36917 0.65856 0.65849
 C234 C 0.35085 0.64930 0.64923
 C235 C 0.32333 0.62200 0.64930
 C236 C 0.31417 0.63122 0.63115
 C237 C 0.32330 0.64938 0.62194
 C238 C 0.34162 0.65853 0.63088
 C239 C 0.35073 0.67690 0.62198
 C240 C 0.36884 0.68608 0.63123
 C241 C 0.37807 0.67692 0.64938
 H242 H 0.34371 0.60802 0.68407
 H243 H 0.39205 0.65652 0.68415
 H244 H 0.31608 0.60799 0.65636
 H245 H 0.31603 0.65645 0.60794
 H246 H 0.34366 0.68416 0.60798
 H247 H 0.39204 0.68420 0.65647
 C248 C 0.34110 0.13117 1.15968
 C249 C 0.35022 0.12225 1.17805
 C250 C 0.36836 0.13149 1.18723
 C251 C 0.37757 0.14964 1.17805
 C252 C 0.36865 0.15876 1.15969
 C253 C 0.35032 0.14951 1.15045
 C254 C 0.32277 0.12223 1.15053
 C255 C 0.31363 0.13145 1.13237
 C256 C 0.32278 0.14959 1.12315
 C257 C 0.34110 0.15873 1.13209
 C258 C 0.35023 0.17707 1.12315
 C259 C 0.36836 0.18624 1.13238
 C260 C 0.37757 0.17710 1.15054
 H261 H 0.34311 0.10824 1.18528
 H262 H 0.39157 0.15676 1.18528
 H263 H 0.31551 0.10823 1.15760
 H264 H 0.31552 0.15665 1.10913
 H265 H 0.34317 0.18433 1.10914
 H266 H 0.39156 0.18437 1.15762
 C267 C 0.84143 0.63098 1.15853
 C268 C 0.85061 0.62203 1.17684
 C269 C 0.86877 0.63125 1.18597
 C270 C 0.87796 0.64940 1.17680
 C271 C 0.86899 0.65856 1.15849
 C272 C 0.85063 0.64933 1.14929
 C273 C 0.82306 0.62207 1.14944
 C274 C 0.81385 0.63132 1.13133
 C275 C 0.82297 0.64948 1.12210
 C276 C 0.84134 0.65860 1.13098
 C277 C 0.85043 0.67696 1.12206
 C278 C 0.86859 0.68610 1.13125
 C279 C 0.87788 0.67691 1.14935
 H280 H 0.84357 0.60803 1.18411
 H281 H 0.89197 0.65647 1.18404
 H282 H 0.81582 0.60806 1.15651
 H283 H 0.81566 0.65657 1.10813
 H284 H 0.84332 0.68425 1.10809
 H285 H 0.89188 0.68417 1.15640
 C286 C 0.83912 0.13232 0.66075
 C287 C 0.84826 0.12338 0.67911
 C288 C 0.86645 0.13257 0.68825
 C289 C 0.87567 0.15072 0.67905
 C290 C 0.86673 0.15985 0.66070
 C291 C 0.84837 0.15064 0.65150
 C292 C 0.82077 0.12339 0.65162
 C293 C 0.81162 0.13259 0.63342
 C294 C 0.82082 0.15073 0.62419
 C295 C 0.83916 0.15985 0.63312
 C296 C 0.84834 0.17815 0.62415
 C297 C 0.86651 0.18728 0.63334
 C298 C 0.87570 0.17814 0.65152
 H299 H 0.84115 0.10938 0.68634
 H300 H 0.88971 0.15780 0.68624
 H301 H 0.81355 0.10939 0.65873
 H302 H 0.81363 0.15782 0.61014
 H303 H 0.84130 0.18539 0.61012
 H304 H 0.88972 0.18538 0.65856
 C305 C 1.36795 0.33945 0.66070
 C306 C 1.37686 0.34860 0.67906
 C307 C 1.36764 0.36678 0.68820
 C308 C 1.34950 0.37600 0.67898
 C309 C 1.34039 0.36705 0.66063
 C310 C 1.34962 0.34869 0.65143
 C311 C 1.37690 0.32111 0.65157
 C312 C 1.36772 0.31194 0.63338
 C313 C 1.34957 0.32112 0.62414
 C314 C 1.34043 0.33946 0.63306
 C315 C 1.32212 0.34862 0.62408
 C316 C 1.31297 0.36679 0.63326
 C317 C 1.32209 0.37600 0.65144
 H318 H 1.39086 0.34150 0.68630
 H319 H 1.34239 0.39003 0.68617
 H320 H 1.39090 0.31389 0.65870
 H321 H 1.34249 0.31392 0.61010
 H322 H 1.31489 0.34157 0.61005
 H323 H 1.31484 0.39003 0.65847
 C324 C 1.36862 0.84022 1.15896
 C325 C 1.37757 0.84942 1.17726
 C326 C 1.36839 0.86763 1.18635
 C327 C 1.35026 0.87684 1.17716
 C328 C 1.34110 0.86786 1.15886
 C329 C 1.35029 0.84945 1.14970
 C330 C 1.37751 0.82183 1.14989
 C331 C 1.36826 0.81260 1.13177
 C332 C 1.35012 0.82178 1.12252
 C333 C 1.34103 0.84017 1.13139
 C334 C 1.32270 0.84932 1.12244
 C335 C 1.31359 0.86752 1.13159
 C336 C 1.32278 0.87679 1.14970
 H337 H 1.39156 0.84236 1.18456
 H338 H 1.34323 0.89089 1.18437
 H339 H 1.39151 0.81460 1.15703
 H340 H 1.34299 0.81452 1.10854
 H341 H 1.31541 0.84222 1.10846
 H342 H 1.31556 0.89084 1.15671
 C343 C 0.86839 0.33997 1.15918
 C344 C 0.87743 0.34924 1.17740
 C345 C 0.86819 0.36737 1.18656
 C346 C 0.84992 0.37645 1.17753
 C347 C 0.84067 0.36739 1.15931
 C348 C 0.84991 0.34905 1.15008
 C349 C 0.87733 0.32162 1.15006
 C350 C 0.86798 0.31230 1.13204
 C351 C 0.84969 0.32133 1.12294
 C352 C 0.84055 0.33967 1.13187
 C353 C 0.82206 0.34866 1.12309
 C354 C 0.81289 0.36680 1.13232
 C355 C 0.82219 0.37617 1.15032
 H356 H 0.89153 0.34228 1.18457
 H357 H 0.84284 0.39045 1.18480
 H358 H 0.89145 0.31451 1.15708
 H359 H 0.84248 0.31398 1.10904
 H360 H 0.81468 0.34148 1.10920
 H361 H 0.81491 0.39016 1.15740
 C362 C 0.86884 0.84135 0.65863
 C363 C 0.87777 0.85052 0.67696
 C364 C 0.86855 0.86868 0.68609
 C365 C 0.85041 0.87789 0.67692
 C366 C 0.84127 0.86894 0.65859
 C367 C 0.85050 0.85057 0.64939
 C368 C 0.87776 0.82299 0.64953
 C369 C 0.86853 0.81380 0.63141
 C370 C 0.85039 0.82294 0.62217
 C371 C 0.84126 0.84130 0.63106
 C372 C 0.82291 0.85041 0.62213
 C373 C 0.81376 0.86858 0.63132
 C374 C 0.82293 0.87784 0.64944
 H375 H 0.89177 0.84346 0.68424
 H376 H 0.84334 0.89190 0.68416
 H377 H 0.89177 0.81574 0.65661
 H378 H 0.84331 0.81564 0.60819
 H379 H 0.81564 0.84332 0.60815
 H380 H 0.81567 0.89186 0.65648
 C381 C 0.63137 0.65900 0.65892
 C382 C 0.62243 0.64989 0.67728
 C383 C 0.63165 0.63176 0.68646
 C384 C 0.64979 0.62252 0.67732
 C385 C 0.65894 0.63141 0.65896
 C386 C 0.64971 0.64975 0.64970
 C387 C 0.62245 0.67734 0.64976
 C388 C 0.63169 0.68647 0.63160
 C389 C 0.64982 0.67728 0.62238
 C390 C 0.65895 0.65895 0.63133
 C391 C 0.67728 0.64979 0.62242
 C392 C 0.68644 0.63166 0.63167
 C393 C 0.67728 0.62247 0.64984
 H394 H 0.60844 0.65697 0.68453
 H395 H 0.65685 0.60853 0.68461
 H396 H 0.60846 0.68462 0.65682
 H397 H 0.65689 0.68452 0.60836
 H398 H 0.68455 0.65684 0.60840
 H399 H 0.68454 0.60848 0.65693
 C400 C 0.63138 1.15995 1.15880
 C401 C 0.62242 1.15079 1.17712
 C402 C 0.63163 1.13263 1.18628
 C403 C 0.64979 1.12343 1.17713
 C404 C 0.65895 1.13238 1.15881
 C405 C 0.64974 1.15073 1.14958
 C406 C 0.62246 1.17830 1.14968
 C407 C 0.63171 1.18751 1.13154
 C408 C 0.64989 1.17834 1.12233
 C409 C 0.65900 1.15999 1.13126
 C410 C 0.67736 1.15086 1.12235
 C411 C 0.68650 1.13270 1.13157
 C412 C 0.67731 1.12346 1.14970
 H413 H 0.60840 1.15784 1.18437
 H414 H 0.65684 1.10942 1.18439
 H415 H 0.60843 1.18551 1.15678
 H416 H 0.65702 1.18559 1.10834
 H417 H 0.68465 1.15793 1.10837
 H418 H 0.68456 1.10945 1.15676
 C419 C 0.13178 0.66056 1.16039
 C420 C 0.12284 0.65144 1.17875
 C421 C 0.13201 0.63323 1.18789
 C422 C 0.15013 0.62397 1.17868
 C423 C 0.15926 0.63289 1.16033
 C424 C 0.15008 0.65127 1.15112
 C425 C 0.12288 0.67893 1.15126
 C426 C 0.13210 0.68806 1.13306
 C427 C 0.15022 0.67883 1.12382
 C428 C 0.15931 0.66047 1.13275
 C429 C 0.17760 0.65126 1.12378
 C430 C 0.18670 0.63308 1.13298
 C431 C 0.17755 0.62389 1.15115
 H432 H 0.10885 0.65858 1.18599
 H433 H 0.15719 0.60992 1.18588
 H434 H 0.10890 0.68619 1.15838
 H435 H 0.15732 0.68601 1.10978
 H436 H 0.18485 0.65829 1.10975
 H437 H 0.18477 0.60986 1.15819
 C438 C 0.13097 1.15867 0.65954
 C439 C 0.12207 1.14958 0.67792
 C440 C 0.13130 1.13143 0.68712
 C441 C 0.14945 1.12219 0.67793
 C442 C 0.15855 1.13109 0.65955
 C443 C 0.14930 1.14941 0.65029
 C444 C 0.12204 1.17700 0.65037
 C445 C 0.13124 1.18611 0.63219
 C446 C 0.14937 1.17693 0.62295
 C447 C 0.15851 1.15861 0.63190
 C448 C 0.17683 1.14946 0.62296
 C449 C 0.18601 1.13134 0.63221
 C450 C 0.17688 1.12215 0.65040
 H451 H 0.10807 1.15670 0.68515
 H452 H 0.15657 1.10820 0.68517
 H453 H 0.10805 1.18428 0.65744
 H454 H 0.15642 1.18416 0.60892
 H455 H 0.18407 1.15650 0.60894
 H456 H 0.18417 1.10817 0.65748
 C457 C 1.36814 0.66060 0.33983
 C458 C 1.37708 0.65144 0.32149
 C459 C 1.36791 0.63323 0.31237
 C460 C 1.34979 0.62399 0.32159
 C461 C 1.34065 0.63294 0.33993
 C462 C 1.34983 0.65134 0.34911
 C463 C 1.37704 0.67897 0.34893
 C464 C 1.36782 0.68814 0.36711
 C465 C 1.34969 0.67894 0.37636
 C466 C 1.34060 0.66057 0.36746
 C467 C 1.32230 0.65139 0.37644
 C468 C 1.31320 0.63319 0.36727
 C469 C 1.32236 0.62397 0.34912
 H470 H 1.39107 0.65856 0.31424
 H471 H 1.34272 0.60993 0.31442
 H472 H 1.39103 0.68621 0.34180
 H473 H 1.34259 0.68615 0.39039
 H474 H 1.31504 0.65844 0.39045
 H475 H 1.31515 0.60993 0.34210
 C476 C 1.36846 1.16000 0.84098
 C477 C 1.37741 1.15086 0.82263
 C478 C 1.36823 1.13269 0.81349
 C479 C 1.35011 1.12344 0.82267
 C480 C 1.34095 1.13237 0.84100
 C481 C 1.35014 1.15074 0.85022
 C482 C 1.37736 1.17836 0.85010
 C483 C 1.36812 1.18752 0.86827
 C484 C 1.34998 1.17832 0.87750
 C485 C 1.34089 1.15996 0.86857
 C486 C 1.32257 1.15078 0.87751
 C487 C 1.31346 1.13261 0.86829
 C488 C 1.32264 1.12340 0.85015
 H489 H 1.39139 1.15794 0.81536
 H490 H 1.34308 1.10942 0.81542
 H491 H 1.39136 1.18559 0.84299
 H492 H 1.34286 1.18553 0.89152
 H493 H 1.31528 1.15784 0.89151
 H494 H 1.31542 1.10938 0.84309
 C495 C 0.86832 0.65897 0.84103
 C496 C 0.87728 0.64981 0.82271
 C497 C 0.86808 0.63165 0.81357
 C498 C 0.84993 0.62244 0.82272
 C499 C 0.84076 0.63139 0.84104
 C500 C 0.84997 0.64976 0.85025
 C501 C 0.87723 0.67732 0.85015
 C502 C 0.86798 0.68651 0.86827
 C503 C 0.84982 0.67738 0.87748
 C504 C 0.84070 0.65902 0.86857
 C505 C 0.82235 0.64991 0.87749
 C506 C 0.81322 0.63174 0.86828
 C507 C 0.82241 0.62248 0.85017
 H508 H 0.89128 0.65686 0.81545
 H509 H 0.84288 0.60843 0.81547
 H510 H 0.89124 0.68457 0.84309
 H511 H 0.84273 0.68467 0.89146
 H512 H 0.81506 0.65700 0.89147
 H513 H 0.81517 0.60847 0.84312
 C514 C 0.86871 1.15886 0.34040
 C515 C 0.87764 1.14972 0.32205
 C516 C 0.86841 1.13158 0.31287
 C517 C 0.85024 1.12238 0.32204
 C518 C 0.84111 1.13132 0.34039
 C519 C 0.85036 1.14965 0.34963
 C520 C 0.87765 1.17719 0.34954
 C521 C 0.86843 1.18635 0.36769
 C522 C 0.85028 1.17722 0.37691
 C523 C 0.84113 1.15889 0.36798
 C524 C 0.82278 1.14978 0.37691
 C525 C 0.81361 1.13165 0.36768
 C526 C 0.82276 1.12242 0.34953
 H527 H 0.89166 1.15681 0.31483
 H528 H 0.84312 1.10837 0.31482
 H529 H 0.89166 1.18443 0.34248
 H530 H 0.84321 1.18449 0.39092
 H531 H 0.81552 1.15686 0.39091
 H532 H 0.81548 1.10843 0.34247
 C533 C 0.63143 0.34118 0.34048
 C534 C 0.62249 0.35030 0.32213
 C535 C 0.63171 0.36844 0.31293
 C536 C 0.64988 0.37765 0.32208
 C537 C 0.65902 0.36873 0.34043
 C538 C 0.64978 0.35041 0.34969
 C539 C 0.62250 0.32286 0.34965
 C540 C 0.63173 0.31371 0.36780
 C541 C 0.64988 0.32286 0.37701
 C542 C 0.65902 0.34118 0.36805
 C543 C 0.67737 0.35031 0.37696
 C544 C 0.68653 0.36843 0.36771
 C545 C 0.67738 0.37764 0.34955
 H546 H 0.60847 0.34320 0.31493
 H547 H 0.65700 0.39165 0.31484
 H548 H 0.60850 0.31560 0.34260
 H549 H 0.65695 0.31561 0.39101
 H550 H 0.68463 0.34325 0.39097
 H551 H 0.68465 0.39163 0.34247
 C552 C 0.63127 0.84110 0.84120
 C553 C 0.62236 0.85022 0.82283
 C554 C 0.63159 0.86834 0.81365
 C555 C 0.64973 0.87757 0.82280
 C556 C 0.65885 0.86866 0.84117
 C557 C 0.64961 0.85034 0.85043
 C558 C 0.62234 0.82278 0.85036
 C559 C 0.63155 0.81364 0.86852
 C560 C 0.64969 0.82280 0.87775
 C561 C 0.65883 0.84113 0.86880
 C562 C 0.67717 0.85027 0.87772
 C563 C 0.68633 0.86839 0.86847
 C564 C 0.67719 0.87759 0.85030
 H565 H 0.60836 0.84315 0.81557
 H566 H 0.65680 0.89155 0.81552
 H567 H 0.60835 0.81551 0.84329
 H568 H 0.65675 0.81555 0.89176
 H569 H 0.68442 0.84322 0.89174
 H570 H 0.68446 0.89157 0.84321
 C571 C 0.13141 0.33985 0.84098
 C572 C 0.12250 0.34898 0.82262
 C573 C 0.13169 0.36716 0.81350
 C574 C 0.14978 0.37642 0.82270
 C575 C 0.15890 0.36750 0.84106
 C576 C 0.14971 0.34912 0.85027
 C577 C 0.12252 0.32148 0.85009
 C578 C 0.13172 0.31233 0.86828
 C579 C 0.14983 0.32155 0.87755
 C580 C 0.15892 0.33991 0.86863
 C581 C 0.17722 0.34910 0.87761
 C582 C 0.18633 0.36727 0.86841
 C583 C 0.17719 0.37647 0.85024
 H584 H 0.10854 0.34188 0.81532
 H585 H 0.15681 0.39045 0.81547
 H586 H 0.10854 0.31422 0.84295
 H587 H 0.15692 0.31434 0.89158
 H588 H 0.18447 0.34205 0.89162
 H589 H 0.18442 0.39050 0.84320
 C590 C 0.13201 0.83944 0.33971
 C591 C 0.12304 0.84855 0.32136
 C592 C 0.13219 0.86675 0.31219
 C593 C 0.15032 0.87602 0.32136
 C594 C 0.15948 0.86711 0.33971
 C595 C 0.15032 0.84873 0.34894
 C596 C 0.12314 0.82108 0.34886
 C597 C 0.13238 0.81195 0.36705
 C598 C 0.15051 0.82118 0.37626
 C599 C 0.15958 0.83954 0.36730
 C600 C 0.17787 0.84876 0.37624
 C601 C 0.18695 0.86694 0.36702
 C602 C 0.17778 0.87611 0.34886
 H603 H 0.10905 0.84141 0.31415
 H604 H 0.15737 0.89006 0.31415
 H605 H 0.10914 0.81382 0.34177
 H606 H 0.15763 0.81401 0.39029
 H607 H 0.18514 0.84174 0.39027
 H608 H 0.18498 0.89014 0.34180
 O609 O 1.07699 1.02070 1.10651
 O610 O 1.10180 1.02071 1.13139
 C611 C 1.08447 1.02798 1.12385
 C612 C 1.07312 1.04540 1.13502
 C613 C 1.08013 1.05266 1.15501
 H614 H 1.09359 1.04511 1.16276
 O615 O 0.92310 0.97932 1.10629
 O616 O 0.89833 0.97931 1.13121
 C617 C 0.91565 0.97205 1.12365
 C618 C 0.92703 0.95465 1.13483
 C619 C 0.92006 0.94745 1.15486
 H620 H 0.90660 0.95500 1.16262
 O621 O 1.02088 1.10607 1.07719
 O622 O 1.02092 1.13103 1.10194
 C623 C 1.02815 1.12344 1.08460
 C624 C 1.04549 1.13462 1.07313
 C625 C 1.05262 1.15470 1.07997
 H626 H 1.04507 1.16251 1.09341
 O627 O 0.97935 0.89399 1.07711
 O628 O 0.97925 0.86903 1.10185
 C629 C 0.97205 0.87662 1.08451
 C630 C 0.95471 0.86547 1.07304
 C631 C 0.94760 0.84537 1.07986
 H632 H 0.95518 0.83754 1.09326
 O633 O 1.10613 1.07681 1.02091
 O634 O 1.13105 1.10156 1.02095
 C635 C 1.12348 1.08424 1.02820
 C636 C 1.13465 1.07284 1.04560
 C637 C 1.15471 1.07973 1.05274
 H638 H 1.16250 1.09315 1.04515
 O639 O 0.89390 0.92323 1.02089
 O640 O 0.86899 0.89847 1.02092
 C641 C 0.87655 0.91579 1.02817
 C642 C 0.86537 0.92718 1.04557
 C643 C 0.84534 0.92024 1.05277
 H644 H 0.83758 0.90679 1.04522
 O645 O 0.97937 1.07694 1.10643
 O646 O 0.97935 1.10172 1.13135
 C647 C 0.97210 1.08439 1.12379
 C648 C 0.95472 1.07300 1.13497
 C649 C 0.94755 1.07991 1.15503
 H650 H 0.95512 1.09333 1.16282
 O651 O 1.02087 0.92303 1.10644
 O652 O 1.02082 0.89823 1.13134
 C653 C 1.02811 0.91555 1.12380
 C654 C 1.04551 0.92689 1.13501
 C655 C 1.05275 0.91984 1.15499
 H656 H 1.04522 0.90636 1.16271
 O657 O 1.10609 0.97914 1.07726
 O658 O 1.13106 0.97910 1.10198
 C659 C 1.12347 0.97187 1.08465
 C660 C 1.13465 0.95453 1.07319
 C661 C 1.15472 0.94737 1.08006
 H662 H 1.16250 0.95490 1.09351
 O663 O 0.89399 1.02093 1.07712
 O664 O 0.86906 1.02098 1.10188
 C665 C 0.87664 1.02822 1.08455
 C666 C 0.86548 1.04561 1.07314
 C667 C 0.84543 1.05279 1.08004
 H668 H 0.83764 1.04524 1.09348
 O669 O 0.92323 1.10628 1.02089
 O670 O 0.89848 1.13123 1.02096
 C671 C 0.91580 1.12363 1.02820
 C672 C 0.92718 1.13475 1.04563
 C673 C 0.92023 1.15476 1.05287
 H674 H 0.90679 1.16255 1.04533
 O675 O 1.07700 0.89384 1.02094
 O676 O 1.10178 0.86893 1.02095
 C677 C 1.08446 0.87649 1.02822
 C678 C 1.07310 0.86534 1.04566
 C679 C 1.08012 0.84536 1.05293
 H680 H 1.09360 0.83761 1.04540
 O681 O 0.92312 1.02087 1.10635
 O682 O 0.89834 1.02092 1.13127
 C683 C 0.91568 1.02814 1.12372
 C684 C 0.92710 1.04548 1.13493
 C685 C 0.92018 1.05264 1.15499
 H686 H 0.90672 1.04509 1.16275
 O687 O 1.07701 0.97913 1.10654
 O688 O 1.10182 0.97908 1.13142
 C689 C 1.08448 0.97184 1.12388
 C690 C 1.07311 0.95444 1.13505
 C691 C 1.08011 0.94714 1.15504
 H692 H 1.09359 0.95463 1.16279
 O693 O 1.02090 0.89391 1.07721
 O694 O 1.02085 0.86896 1.10196
 C695 C 1.02814 0.87654 1.08465
 C696 C 1.04554 0.86536 1.07327
 C697 C 1.05281 0.84538 1.08029
 H698 H 1.04530 0.83765 1.09379
 O699 O 0.97935 1.10611 1.07724
 O700 O 0.97933 1.13104 1.10201
 C701 C 0.97208 1.12347 1.08468
 C702 C 0.95471 1.13467 1.07327
 C703 C 0.94750 1.15468 1.08026
 H704 H 0.95502 1.16240 1.09375
 O705 O 0.89404 1.07714 1.02086
 O706 O 0.86914 1.10193 1.02093
 C707 C 0.87669 1.08459 1.02816
 C708 C 0.86551 1.07319 1.04554
 C709 C 0.84546 1.08011 1.05270
 H710 H 0.83770 1.09356 1.04512
 O711 O 1.10610 0.92306 1.02089
 O712 O 1.13103 0.89831 1.02089
 C713 C 1.12346 0.91563 1.02815
 C714 C 1.13465 0.92702 1.04553
 C715 C 1.15471 0.92011 1.05265
 H716 H 1.16250 0.90670 1.04504
 O717 O 0.97932 0.92311 1.10634
 O718 O 0.97920 0.89831 1.13124
 C719 C 0.97200 0.91566 1.12368
 C720 C 0.95460 0.92706 1.13484
 C721 C 0.94738 0.92011 1.15487
 H722 H 0.95492 0.90665 1.16265
 O723 O 1.02092 1.07697 1.10645
 O724 O 1.02097 1.10177 1.13136
 C725 C 1.02821 1.08443 1.12381
 C726 C 1.04560 1.07305 1.13499
 C727 C 1.05287 1.08005 1.15498
 H728 H 1.04538 1.09355 1.16272
 O729 O 0.89392 0.97938 1.07713
 O730 O 0.86899 0.97937 1.10190
 C731 C 0.87655 0.97212 1.08456
 C732 C 0.86537 0.95475 1.07316
 C733 C 0.84535 0.94756 1.08011
 H734 H 0.83759 0.95511 1.09358
 O735 O 1.10609 1.02068 1.07726
 O736 O 1.13106 1.02069 1.10198
 C737 C 1.12346 1.02794 1.08466
 C738 C 1.13464 1.04529 1.07322
 C739 C 1.15470 1.05243 1.08010
 H740 H 1.16248 1.04487 1.09354
 O741 O 0.92314 0.89411 1.02085
 O742 O 0.89838 0.86920 1.02087
 C743 C 0.91571 0.87675 1.02811
 C744 C 0.92714 0.86553 1.04545
 C745 C 0.92028 0.84543 1.05252
 H746 H 0.90688 0.83765 1.04491
 O747 O 1.07698 1.10602 1.02087
 O748 O 1.10175 1.13092 1.02089
 C749 C 1.08442 1.12337 1.02813
 C750 C 1.07301 1.13458 1.04549
 C751 C 1.07989 1.15466 1.05258
 H752 H 1.09330 1.16244 1.04496
 Cu753 Cu 1.08905 0.99991 1.08942
 Cu754 Cu 1.11893 0.99990 1.11919
 Cu755 Cu 0.91101 1.00013 1.08924
 Cu756 Cu 0.88118 1.00015 1.11906
 Cu757 Cu 1.00013 1.08904 1.08935
 Cu758 Cu 1.00014 1.11889 1.11916
 Cu759 Cu 1.00012 0.91100 1.08930
 Cu760 Cu 1.00002 0.88113 1.11909
 C761 C 1.05571 1.05558 1.12524
 H762 H 1.05039 1.05027 1.10970
 C763 C 1.07002 1.06986 1.16496
 C764 C 0.94444 0.94447 1.12505
 H765 H 0.94973 0.94974 1.10949
 C766 C 0.93023 0.93030 1.16485
 C767 C 1.05566 1.12479 1.05574
 H768 H 1.05044 1.10918 1.05055
 C769 C 1.06970 1.16469 1.06970
 C770 C 0.94450 0.87532 1.05569
 H771 H 0.94970 0.89094 1.05052
 C772 C 0.93051 0.83538 1.06960
 C773 C 1.12484 1.05548 1.05582
 H774 H 1.10925 1.05025 1.05059
 C775 C 1.16471 1.06953 1.06987
 C776 C 0.87515 0.94458 1.05574
 H777 H 0.89072 0.94985 1.05047
 C778 C 0.83536 0.93042 1.06993
 C779 C 0.94452 1.05564 1.12515
 H780 H 0.94977 1.05039 1.10956
 C781 C 0.93040 1.06974 1.16501
 C782 C 1.05566 0.94433 1.12528
 H783 H 1.05035 0.94967 1.10974
 C784 C 1.06994 0.92995 1.16497
 C785 C 1.12485 0.94437 1.05578
 H786 H 1.10925 0.94961 1.05057
 C787 C 1.16472 0.93028 1.06979
 C788 C 0.87529 1.05579 1.05574
 H789 H 0.89087 1.05053 1.05050
 C790 C 0.83545 1.06993 1.06983
 C791 C 0.94457 1.12494 1.05581
 H792 H 0.94985 1.10938 1.05051
 C793 C 0.93038 1.16469 1.07007
 C794 C 1.05567 0.87510 1.05581
 H795 H 1.05035 0.89063 1.05048
 C796 C 1.06998 0.83541 1.07013
 O797 O 1.07699 0.97925 0.89383
 O798 O 1.10177 0.97921 0.86891
 C799 C 1.08444 0.97198 0.87647
 C800 C 1.07304 0.95460 0.86529
 C801 C 1.07998 0.94741 0.84525
 H802 H 1.09343 0.95496 0.83747
 O803 O 0.92302 1.02108 0.89380
 O804 O 0.89823 1.02108 0.86890
 C805 C 0.91555 1.02834 0.87644
 C806 C 0.92690 1.04576 0.86525
 C807 C 0.91982 1.05306 0.84530
 H808 H 0.90631 1.04557 0.83759
 O809 O 0.97927 1.10623 0.92299
 O810 O 0.97931 1.13118 0.89825
 C811 C 0.97205 1.12362 0.91558
 C812 C 0.95469 1.13483 0.92700
 C813 C 0.94750 1.15485 0.92004
 H814 H 0.95503 1.16260 0.90656
 O815 O 1.02081 0.89395 0.92309
 O816 O 1.02081 0.86904 0.89831
 C817 C 1.02806 0.87659 0.91565
 C818 C 1.04542 0.86539 0.92706
 C819 C 1.05262 0.84535 0.92011
 H820 H 1.04508 0.83760 0.90664
 O821 O 1.10611 0.92302 0.97931
 O822 O 1.13103 0.89825 0.97927
 C823 C 1.12346 0.91558 0.97202
 C824 C 1.13463 0.92696 0.95461
 C825 C 1.15465 0.92000 0.94740
 H826 H 1.16241 0.90654 0.95495
 O827 O 0.89400 1.07722 0.97929
 O828 O 0.86910 1.10201 0.97930
 C829 C 0.87664 1.08469 0.97203
 C830 C 0.86545 1.07332 0.95463
 C831 C 0.84544 1.08031 0.94742
 H832 H 0.83770 1.09378 0.95497
 O833 O 1.02075 1.07697 0.89378
 O834 O 1.02084 1.10176 0.86888
 C835 C 1.02805 1.08441 0.87643
 C836 C 1.04542 1.07299 0.86525
 C837 C 1.05258 1.07989 0.84519
 H838 H 1.04501 1.09331 0.83739
 O839 O 0.97930 0.92322 0.89395
 O840 O 0.97923 0.89846 0.86900
 C841 C 0.97202 0.91581 0.87658
 C842 C 0.95468 0.92726 0.86539
 C843 C 0.94756 0.92040 0.84530
 H844 H 0.95513 0.90698 0.83750
 O845 O 1.10617 1.02076 0.92303
 O846 O 1.13111 1.02078 0.89826
 C847 C 1.12354 1.02801 0.91560
 C848 C 1.13473 1.04536 0.92703
 C849 C 1.15478 1.05254 0.92011
 H850 H 1.16254 1.04501 0.90664
 O851 O 0.89393 0.97953 0.92307
 O852 O 0.86900 0.97947 0.89831
 C853 C 0.87657 0.97225 0.91565
 C854 C 0.86540 0.95489 0.92708
 C855 C 0.84533 0.94775 0.92020
 H856 H 0.83754 0.95532 0.90677
 O857 O 1.07700 1.10598 0.97929
 O858 O 1.10178 1.13088 0.97928
 C859 C 1.08445 1.12333 0.97201
 C860 C 1.07308 1.13452 0.95462
 C861 C 1.08003 1.15455 0.94745
 H862 H 1.09348 1.16231 0.95502
 O863 O 0.92305 0.89407 0.97928
 O864 O 0.89828 0.86917 0.97926
 C865 C 0.91561 0.87672 0.97201
 C866 C 0.92700 0.86552 0.95463
 C867 C 0.92009 0.84547 0.94749
 H868 H 0.90666 0.83770 0.95506
 O869 O 0.92315 0.97953 0.89392
 O870 O 0.89837 0.97947 0.86900
 C871 C 0.91571 0.97224 0.87657
 C872 C 0.92713 0.95487 0.86538
 C873 C 0.92026 0.94776 0.84529
 H874 H 0.90686 0.95536 0.83749
 O875 O 1.07698 1.02080 0.89386
 O876 O 1.10176 1.02081 0.86893
 C877 C 1.08443 1.02806 0.87649
 C878 C 1.07302 1.04543 0.86529
 C879 C 1.07993 1.05257 0.84522
 H880 H 1.09337 1.04501 0.83744
 O881 O 0.97926 0.89399 0.92307
 O882 O 0.97920 0.86907 0.89829
 C883 C 0.97197 0.87664 0.91563
 C884 C 0.95458 0.86548 0.92704
 C885 C 0.94743 0.84543 0.92015
 H886 H 0.95499 0.83763 0.90672
 O887 O 1.02081 1.10611 0.92300
 O888 O 1.02091 1.13106 0.89825
 C889 C 1.02813 1.12345 0.91558
 C890 C 1.04552 1.13458 0.92701
 C891 C 1.05273 1.15461 0.92010
 H892 H 1.04519 1.16241 0.90665
 O893 O 0.89395 0.92332 0.97931
 O894 O 0.86903 0.89857 0.97929
 C895 C 0.87659 0.91590 0.97205
 C896 C 0.86541 0.92732 0.95468
 C897 C 0.84534 0.92043 0.94755
 H898 H 0.83756 0.90701 0.95513
 O899 O 1.10619 1.07682 0.97933
 O900 O 1.13112 1.10158 0.97932
 C901 C 1.12356 1.08425 0.97207
 C902 C 1.13474 1.07287 0.95468
 C903 C 1.15478 1.07980 0.94752
 H904 H 1.16256 1.09322 0.95510
 O905 O 1.02084 0.92309 0.89387
 O906 O 1.02083 0.89833 0.86893
 C907 C 1.02810 0.91564 0.87650
 C908 C 1.04548 0.92703 0.86530
 C909 C 1.05266 0.92008 0.84526
 H910 H 1.04512 0.90663 0.83750
 O911 O 0.97919 1.07714 0.89373
 O912 O 0.97922 1.10194 0.86883
 C913 C 0.97193 1.08463 0.87638
 C914 C 0.95448 1.07331 0.86522
 C915 C 0.94716 1.08038 0.84526
 H916 H 0.95465 1.09388 0.83752
 O917 O 0.89395 1.02108 0.92307
 O918 O 0.86900 1.02108 0.89832
 C919 C 0.87658 1.02834 0.91564
 C920 C 0.86542 1.04574 0.92704
 C921 C 0.84541 1.05298 0.92008
 H922 H 0.83764 1.04545 0.90662
 O923 O 1.10612 0.97921 0.92305
 O924 O 1.13105 0.97917 0.89827
 C925 C 1.12347 0.97193 0.91561
 C926 C 1.13463 0.95453 0.92701
 C927 C 1.15465 0.94732 0.92005
 H928 H 1.16242 0.95486 0.90658
 O929 O 1.07692 0.89388 0.97935
 O930 O 1.10169 0.86896 0.97931
 C931 C 1.08436 0.87653 0.97207
 C932 C 1.07297 0.86536 0.95468
 C933 C 1.07990 0.84533 0.94749
 H934 H 1.09334 0.83755 0.95505
 O935 O 0.92321 1.10634 0.97931
 O936 O 0.89846 1.13129 0.97932
 C937 C 0.91578 1.12371 0.97205
 C938 C 0.92716 1.13488 0.95464
 C939 C 0.92022 1.15491 0.94743
 H940 H 0.90677 1.16269 0.95499
 Cu941 Cu 1.08908 1.00001 0.91092
 Cu942 Cu 1.11892 1.00000 0.88109
 Cu943 Cu 0.91100 1.00031 0.91095
 Cu944 Cu 0.88115 1.00026 0.88114
 Cu945 Cu 1.08909 1.08892 1.00010
 Cu946 Cu 1.11892 1.11873 1.00011
 Cu947 Cu 1.08905 0.91093 1.00012
 Cu948 Cu 1.11888 0.88111 1.00010
 Cu949 Cu 0.91110 1.08926 1.00008
 Cu950 Cu 0.88131 1.11912 1.00013
 Cu951 Cu 0.91099 0.91117 1.00008
 Cu952 Cu 0.88117 0.88136 1.00009
 Cu953 Cu 0.99999 1.08912 0.91085
 Cu954 Cu 1.00009 1.11899 0.88105
 Cu955 Cu 1.00006 0.91104 0.91098
 Cu956 Cu 1.00001 0.88123 0.88113
 C957 C 1.05564 0.94443 0.87508
 H958 H 1.05038 0.94970 0.89066
 C959 C 1.06980 0.93027 0.83527
 C960 C 0.94437 1.05586 0.87497
 H961 H 0.94973 1.05050 0.89048
 C962 C 0.92994 1.07026 0.83533
 C963 C 0.94455 1.12508 0.94444
 H964 H 0.94981 1.10951 0.94972
 C965 C 0.93038 1.16486 0.93025
 C966 C 1.05558 0.87515 0.94449
 H967 H 1.05032 0.89072 0.94976
 C968 C 1.06974 0.83536 0.93032
 C969 C 1.12485 0.94438 0.94444
 H970 H 1.10930 0.94966 0.94972
 C971 C 1.16463 0.93017 0.93023
 C972 C 0.87520 1.05590 0.94446
 H973 H 0.89076 1.05060 0.94974
 C974 C 0.83545 1.07014 0.93026
 C975 C 1.05562 1.05561 0.87507
 H976 H 1.05037 1.05039 0.89066
 C977 C 1.06972 1.06968 0.83520
 C978 C 0.94448 0.94464 0.87520
 H979 H 0.94969 0.94984 0.89082
 C980 C 0.93048 0.93065 0.83528
 C981 C 1.12495 1.05550 0.94446
 H982 H 1.10938 1.05024 0.94971
 C983 C 1.16477 1.06964 0.93035
 C984 C 0.87520 0.94469 0.94447
 H985 H 0.89080 0.94992 0.94969
 C986 C 0.83533 0.93064 0.93043
 C987 C 1.05568 1.12476 0.94441
 H988 H 1.05040 1.10919 0.94966
 C989 C 1.06986 1.16457 0.93031
 C990 C 0.94439 0.87530 0.94442
 H991 H 0.94964 0.89088 0.94965
 C992 C 0.93030 0.83545 0.93037
 O993 O 0.97953 0.42292 0.39382
 O994 O 0.97952 0.39817 0.36887
 C995 C 0.97228 0.41549 0.37644
 C996 C 0.95491 0.42690 0.36525
 C997 C 0.94777 0.42000 0.34519
 H998 H 0.95534 0.40656 0.33741
 O999 O 1.02118 0.57699 0.39381
 O1000 O 1.02116 0.60174 0.36886
 C1001 C 1.02844 0.58443 0.37644
 C1002 C 1.04584 0.57306 0.36525
 C1003 C 1.05307 0.58007 0.34525
 H1004 H 1.04554 0.59356 0.33752
 O1005 O 0.89416 0.47912 0.42301
 O1006 O 0.86928 0.47912 0.39819
 C1007 C 0.87681 0.47186 0.41554
 C1008 C 0.86560 0.45450 0.42693
 C1009 C 0.84555 0.44737 0.41999
 H1010 H 0.83779 0.45496 0.40655
 O1011 O 1.10649 0.52075 0.42292
 O1012 O 1.13140 0.52075 0.39812
 C1013 C 1.12384 0.52801 0.41546
 C1014 C 1.13501 0.54540 0.42684
 C1015 C 1.15500 0.55265 0.41985
 H1016 H 1.16276 0.54513 0.40637
 O1017 O 0.92324 0.39371 0.47919
 O1018 O 0.89847 0.36880 0.47910
 C1019 C 0.91581 0.37637 0.47188
 C1020 C 0.92725 0.36520 0.45451
 C1021 C 0.92037 0.34515 0.44733
 H1022 H 0.90693 0.33736 0.45488
 O1023 O 1.07728 0.60614 0.47907
 O1024 O 1.10207 0.63103 0.47911
 C1025 C 1.08474 0.62350 0.47183
 C1026 C 1.07338 0.63469 0.45443
 C1027 C 1.08039 0.65468 0.44717
 H1028 H 1.09389 0.66240 0.45468
 O1029 O 0.92342 0.52064 0.39388
 O1030 O 0.89870 0.52068 0.36890
 C1031 C 0.91602 0.52791 0.37649
 C1032 C 0.92747 0.54525 0.36530
 C1033 C 0.92063 0.55234 0.34519
 H1034 H 0.90722 0.54474 0.33739
 O1035 O 1.07725 0.47923 0.39379
 O1036 O 1.10199 0.47917 0.36884
 C1037 C 1.08466 0.47194 0.37642
 C1038 C 1.07324 0.45458 0.36525
 C1039 C 1.08010 0.44746 0.34516
 H1040 H 1.09350 0.45505 0.33735
 O1041 O 1.02108 0.39372 0.42298
 O1042 O 1.02112 0.36883 0.39818
 C1043 C 1.02836 0.37638 0.41552
 C1044 C 1.04576 0.36520 0.42689
 C1045 C 1.05297 0.34519 0.41992
 H1046 H 1.04543 0.33743 0.40646
 O1047 O 0.97957 0.60614 0.42297
 O1048 O 0.97951 0.63103 0.39816
 C1049 C 0.97227 0.62347 0.41551
 C1050 C 0.95486 0.63464 0.42689
 C1051 C 0.94767 0.65466 0.41994
 H1052 H 0.95523 0.66243 0.40649
 O1053 O 0.89412 0.57690 0.47908
 O1054 O 0.86920 0.60167 0.47906
 C1055 C 0.87676 0.58435 0.47181
 C1056 C 0.86559 0.57295 0.45442
 C1057 C 0.84558 0.57990 0.44720
 H1058 H 0.83781 0.59337 0.45473
 O1059 O 1.10644 0.42296 0.47911
 O1060 O 1.13136 0.39818 0.47910
 C1061 C 1.12380 0.41551 0.47184
 C1062 C 1.13498 0.42691 0.45445
 C1063 C 1.15501 0.41996 0.44723
 H1064 H 1.16277 0.40650 0.45478
 O1065 O 0.97964 0.57690 0.39385
 O1066 O 0.97957 0.60163 0.36889
 C1067 C 0.97236 0.58429 0.37648
 C1068 C 0.95503 0.57284 0.36529
 C1069 C 0.94793 0.57967 0.34518
 H1070 H 0.95551 0.59308 0.33737
 O1071 O 1.02108 0.42296 0.39386
 O1072 O 1.02111 0.39822 0.36891
 C1073 C 1.02834 0.41555 0.37649
 C1074 C 1.04569 0.42698 0.36529
 C1075 C 1.05280 0.42011 0.34519
 H1076 H 1.04523 0.40669 0.33741
 O1077 O 1.10647 0.47919 0.42292
 O1078 O 1.13137 0.47913 0.39812
 C1079 C 1.12381 0.47190 0.41547
 C1080 C 1.13498 0.45450 0.42686
 C1081 C 1.15501 0.44729 0.41990
 H1082 H 1.16277 0.45484 0.40644
 O1083 O 0.89414 0.52067 0.42296
 O1084 O 0.86926 0.52072 0.39813
 C1085 C 0.87680 0.52796 0.41548
 C1086 C 0.86561 0.54536 0.42685
 C1087 C 0.84560 0.55255 0.41988
 H1088 H 0.83784 0.54500 0.40642
 O1089 O 0.92328 0.60607 0.47909
 O1090 O 0.89852 0.63099 0.47907
 C1091 C 0.91585 0.62343 0.47182
 C1092 C 0.92725 0.63461 0.45444
 C1093 C 0.92030 0.65464 0.44724
 H1094 H 0.90683 0.66240 0.45478
 O1095 O 1.07732 0.39375 0.47909
 O1096 O 1.10208 0.36882 0.47908
 C1097 C 1.08476 0.37639 0.47183
 C1098 C 1.07336 0.36521 0.45444
 C1099 C 1.08033 0.34520 0.44722
 H1100 H 1.09380 0.33745 0.45474
 O1101 O 1.07734 0.52078 0.39373
 O1102 O 1.10209 0.52078 0.36878
 C1103 C 1.08478 0.52805 0.37636
 C1104 C 1.07341 0.54547 0.36520
 C1105 C 1.08039 0.55274 0.34520
 H1106 H 1.09387 0.54522 0.33743
 O1107 O 0.92333 0.47910 0.39381
 O1108 O 0.89860 0.47909 0.36885
 C1109 C 0.91592 0.47184 0.37643
 C1110 C 0.92733 0.45447 0.36525
 C1111 C 0.92043 0.44732 0.34518
 H1112 H 0.90699 0.45487 0.33740
 O1113 O 1.02113 0.60619 0.42297
 O1114 O 1.02112 0.63108 0.39816
 C1115 C 1.02839 0.62354 0.41550
 C1116 C 1.04579 0.63472 0.42686
 C1117 C 1.05304 0.65470 0.41985
 H1118 H 1.04551 0.66245 0.40637
 O1119 O 0.97952 0.39376 0.42302
 O1120 O 0.97951 0.36886 0.39822
 C1121 C 0.97226 0.37641 0.41556
 C1122 C 0.95487 0.36523 0.42695
 C1123 C 0.94774 0.34517 0.42003
 H1124 H 0.95533 0.33740 0.40659
 O1125 O 1.10641 0.57692 0.47907
 O1126 O 1.13135 0.60166 0.47911
 C1127 C 1.12378 0.58436 0.47182
 C1128 C 1.13497 0.57298 0.45443
 C1129 C 1.15497 0.57998 0.44719
 H1130 H 1.16270 0.59345 0.45473
 O1131 O 0.89405 0.42287 0.47917
 O1132 O 0.86912 0.39812 0.47908
 C1133 C 0.87670 0.41545 0.47187
 C1134 C 0.86554 0.42689 0.45449
 C1135 C 0.84549 0.42001 0.44730
 H1136 H 0.83769 0.40658 0.45485
 Cu1137 Cu 1.00030 0.41082 0.41091
 Cu1138 Cu 1.00032 0.38102 0.38104
 Cu1139 Cu 1.00039 0.58908 0.41089
 Cu1140 Cu 1.00033 0.61887 0.38102
 Cu1141 Cu 0.91124 0.49988 0.41090
 Cu1142 Cu 0.88147 0.49991 0.38102
 Cu1143 Cu 1.08941 0.49999 0.41082
 Cu1144 Cu 1.11921 0.49995 0.38097
 C1145 C 0.94472 0.44429 0.37505
 H1146 H 0.94996 0.44953 0.39064
 C1147 C 0.93065 0.43020 0.33518
 C1148 C 1.05598 0.55561 0.37499
 H1149 H 1.05068 0.55029 0.39054
 C1150 C 1.07023 0.56992 0.33526
 C1151 C 0.87536 0.44428 0.44432
 H1152 H 0.89095 0.44949 0.44958
 C1153 C 0.83552 0.43025 0.43017
 C1154 C 1.12523 0.55555 0.44427
 H1155 H 1.10969 0.55024 0.44957
 C1156 C 1.16495 0.56982 0.43002
 C1157 C 0.94465 0.37501 0.44434
 H1158 H 0.94987 0.39059 0.44959
 C1159 C 0.93061 0.33517 0.43021
 C1160 C 1.05593 0.62496 0.44430
 H1161 H 1.05062 0.60942 0.44962
 C1162 C 1.07023 0.66465 0.42999
 C1163 C 0.94482 0.55548 0.37512
 H1164 H 0.95001 0.55029 0.39075
 C1165 C 0.93085 0.56943 0.33516
 C1166 C 1.05589 0.44436 0.37509
 H1167 H 1.05068 0.44957 0.39070
 C1168 C 1.06989 0.43035 0.33516
 C1169 C 1.05593 0.37498 0.44430
 H1170 H 1.05064 0.39053 0.44959
 C1171 C 1.07014 0.33522 0.43007
 C1172 C 0.94468 0.62485 0.44429
 H1173 H 0.94995 0.60928 0.44956
 C1174 C 0.93050 0.66463 0.43010
 C1175 C 0.87538 0.55553 0.44427
 H1176 H 0.89094 0.55026 0.44955
 C1177 C 0.83561 0.56971 0.43005
 C1178 C 1.12521 0.44433 0.44428
 H1179 H 1.10965 0.44960 0.44956
 C1180 C 1.16499 0.43014 0.43008
 O1181 O 1.02083 0.42284 0.60603
 O1182 O 1.02089 0.39807 0.63096
 C1183 C 1.02812 0.41540 0.62339
 C1184 C 1.04549 0.42680 0.63457
 C1185 C 1.05265 0.41987 0.65463
 H1186 H 1.04509 0.40642 0.66239
 O1187 O 0.97946 0.57678 0.60602
 O1188 O 0.97940 0.60153 0.63097
 C1189 C 0.97217 0.58421 0.62338
 C1190 C 0.95480 0.57279 0.63456
 C1191 C 0.94764 0.57969 0.65462
 H1192 H 0.95520 0.59312 0.66241
 O1193 O 0.89404 0.52060 0.57683
 O1194 O 0.86912 0.52068 0.60161
 C1195 C 0.87669 0.52790 0.58426
 C1196 C 0.86553 0.54528 0.57285
 C1197 C 0.84546 0.55243 0.57973
 H1198 H 0.83767 0.54484 0.59316
 O1199 O 1.10634 0.47900 0.57695
 O1200 O 1.13123 0.47897 0.60176
 C1201 C 1.12369 0.47173 0.58442
 C1202 C 1.13489 0.45434 0.57303
 C1203 C 1.15487 0.44708 0.58006
 H1204 H 1.16259 0.45459 0.59357
 O1205 O 1.07721 0.39382 0.52066
 O1206 O 1.10195 0.36887 0.52070
 C1207 C 1.08461 0.37645 0.52793
 C1208 C 1.07316 0.36526 0.54527
 C1209 C 1.08002 0.34518 0.55241
 H1210 H 1.09347 0.33739 0.54486
 O1211 O 0.92329 0.60603 0.52066
 O1212 O 0.89853 0.63096 0.52070
 C1213 C 0.91586 0.62339 0.52794
 C1214 C 0.92727 0.63456 0.54531
 C1215 C 0.92040 0.65464 0.55243
 H1216 H 0.90699 0.66244 0.54485
 O1217 O 0.92315 0.47903 0.60605
 O1218 O 0.89838 0.47905 0.63098
 C1219 C 0.91570 0.47178 0.62342
 C1220 C 0.92707 0.45438 0.63461
 C1221 C 0.92009 0.44717 0.65463
 H1222 H 0.90663 0.45471 0.66238
 O1223 O 1.07713 0.52056 0.60611
 O1224 O 1.10189 0.52059 0.63105
 C1225 C 1.08456 0.52783 0.62348
 C1226 C 1.07317 0.54522 0.63466
 C1227 C 1.08010 0.55240 0.65471
 H1228 H 1.09353 0.54483 0.66248
 O1229 O 0.97926 0.39362 0.57692
 O1230 O 0.97928 0.36870 0.60171
 C1231 C 0.97200 0.37626 0.58438
 C1232 C 0.95459 0.36510 0.57303
 C1233 C 0.94729 0.34514 0.58009
 H1234 H 0.95478 0.33741 0.59359
 O1235 O 1.02102 0.60599 0.57689
 O1236 O 1.02102 0.63090 0.60168
 C1237 C 1.02828 0.62335 0.58434
 C1238 C 1.04566 0.63453 0.57295
 C1239 C 1.05285 0.65456 0.57990
 H1240 H 1.04530 0.66232 0.59336
 O1241 O 0.89400 0.42284 0.52074
 O1242 O 0.86906 0.39809 0.52071
 C1243 C 0.87663 0.41540 0.52799
 C1244 C 0.86545 0.42680 0.54538
 C1245 C 0.84544 0.41984 0.55262
 H1246 H 0.83768 0.40637 0.54509
 O1247 O 1.10631 0.57682 0.52063
 O1248 O 1.13127 0.60155 0.52073
 C1249 C 1.12367 0.58421 0.52794
 C1250 C 1.13483 0.57275 0.54530
 C1251 C 1.15493 0.57956 0.55239
 H1252 H 1.16275 0.59296 0.54480
 O1253 O 1.02101 0.57682 0.60608
 O1254 O 1.02101 0.60157 0.63102
 C1255 C 1.02826 0.58425 0.62345
 C1256 C 1.04563 0.57284 0.63464
 C1257 C 1.05281 0.57976 0.65469
 H1258 H 1.04527 0.59323 0.66246
 O1259 O 0.97928 0.42284 0.60606
 O1260 O 0.97929 0.39807 0.63099
 C1261 C 0.97202 0.41540 0.62343
 C1262 C 0.95463 0.42678 0.63461
 C1263 C 0.94741 0.41982 0.65464
 H1264 H 0.95494 0.40635 0.66240
 O1265 O 1.10625 0.52055 0.57686
 O1266 O 1.13116 0.52057 0.60165
 C1267 C 1.12360 0.52781 0.58430
 C1268 C 1.13480 0.54516 0.57287
 C1269 C 1.15490 0.55222 0.57972
 H1270 H 1.16270 0.54461 0.59313
 O1271 O 0.89399 0.47905 0.57687
 O1272 O 0.86907 0.47907 0.60165
 C1273 C 0.87663 0.47180 0.58432
 C1274 C 0.86544 0.45440 0.57295
 C1275 C 0.84543 0.44720 0.57993
 H1276 H 0.83768 0.45475 0.59339
 O1277 O 1.07719 0.60604 0.52065
 O1278 O 1.10199 0.63093 0.52075
 C1279 C 1.08464 0.62338 0.52796
 C1280 C 1.07324 0.63454 0.54535
 C1281 C 1.08017 0.65456 0.55255
 H1282 H 1.09362 0.66233 0.54500
 O1283 O 0.92312 0.39363 0.52076
 O1284 O 0.89835 0.36873 0.52073
 C1285 C 0.91566 0.37628 0.52802
 C1286 C 0.92701 0.36510 0.54544
 C1287 C 0.91996 0.34515 0.55275
 H1288 H 0.90646 0.33743 0.54525
 O1289 O 1.07708 0.47901 0.60605
 O1290 O 1.10182 0.47898 0.63100
 C1291 C 1.08450 0.47173 0.62342
 C1292 C 1.07308 0.45436 0.63460
 C1293 C 1.07999 0.44717 0.65465
 H1294 H 1.09343 0.45471 0.66244
 O1295 O 0.92323 0.52058 0.60600
 O1296 O 0.89846 0.52065 0.63093
 C1297 C 0.91580 0.52787 0.62336
 C1298 C 0.92722 0.54523 0.63455
 C1299 C 0.92031 0.55238 0.65461
 H1300 H 0.90688 0.54482 0.66239
 O1301 O 0.97947 0.60600 0.57688
 O1302 O 0.97942 0.63091 0.60167
 C1303 C 0.97220 0.62336 0.58432
 C1304 C 0.95484 0.63455 0.57290
 C1305 C 0.94772 0.65463 0.57978
 H1306 H 0.95530 0.66242 0.59320
 O1307 O 1.02082 0.39374 0.57679
 O1308 O 1.02089 0.36881 0.60156
 C1309 C 1.02812 0.37638 0.58422
 C1310 C 1.04550 0.36522 0.57280
 C1311 C 1.05262 0.34515 0.57967
 H1312 H 1.04501 0.33734 0.59307
 O1313 O 1.10646 0.42290 0.52069
 O1314 O 1.13136 0.39811 0.52074
 C1315 C 1.12380 0.41544 0.52799
 C1316 C 1.13494 0.42680 0.54541
 C1317 C 1.15492 0.41979 0.55269
 H1318 H 1.16268 0.40631 0.54517
 O1319 O 0.89412 0.57687 0.52065
 O1320 O 0.86920 0.60164 0.52069
 C1321 C 0.87676 0.58431 0.52792
 C1322 C 0.86556 0.57289 0.54528
 C1323 C 0.84549 0.57978 0.55242
 H1324 H 0.83772 0.59322 0.54485
 Cu1325 Cu 1.00004 0.41074 0.58897
 Cu1326 Cu 1.00010 0.38091 0.61880
 Cu1327 Cu 1.00024 0.58892 0.58898
 Cu1328 Cu 1.00021 0.61872 0.61884
 Cu1329 Cu 0.91108 0.41074 0.49997
 Cu1330 Cu 0.88125 0.38094 0.49989
 Cu1331 Cu 1.08938 0.41084 0.49988
 Cu1332 Cu 1.11918 0.38100 0.49991
 Cu1333 Cu 0.91118 0.58899 0.49987
 Cu1334 Cu 0.88136 0.61882 0.49989
 Cu1335 Cu 1.08931 0.58901 0.49984
 Cu1336 Cu 1.11917 0.61879 0.49994
 Cu1337 Cu 0.91108 0.49981 0.58895
 Cu1338 Cu 0.88126 0.49987 0.61879
 Cu1339 Cu 1.08922 0.49978 0.58901
 Cu1340 Cu 1.11902 0.49978 0.61887
 C1341 C 1.05568 0.44419 0.62479
 H1342 H 1.05044 0.44945 0.60921
 C1343 C 1.06978 0.43004 0.66463
 C1344 C 0.94461 0.55541 0.62475
 H1345 H 0.94985 0.55018 0.60916
 C1346 C 0.93051 0.56949 0.66462
 C1347 C 0.87535 0.55549 0.55548
 H1348 H 0.89095 0.55026 0.55025
 C1349 C 0.83548 0.56955 0.56953
 C1350 C 1.12517 0.44422 0.55556
 H1351 H 1.10964 0.44954 0.55023
 C1352 C 1.16485 0.42992 0.56990
 C1353 C 1.05575 0.37505 0.55545
 H1354 H 1.05054 0.39065 0.55023
 C1355 C 1.06976 0.33515 0.56949
 C1356 C 0.94464 0.62475 0.55552
 H1357 H 0.94985 0.60915 0.55030
 C1358 C 0.93062 0.66465 0.56955
 C1359 C 0.94449 0.44421 0.62484
 H1360 H 0.94978 0.44949 0.60928
 C1361 C 0.93025 0.43001 0.66461
 C1362 C 1.05579 0.55542 0.62486
 H1363 H 1.05053 0.55016 0.60928
 C1364 C 1.06993 0.56955 0.66469
 C1365 C 0.94447 0.37484 0.55556
 H1366 H 0.94982 0.39035 0.55021
 C1367 C 0.93009 0.33520 0.56996
 C1368 C 1.05583 0.62476 0.55553
 H1369 H 1.05057 0.60919 0.55025
 C1370 C 1.06999 0.66454 0.56970
 C1371 C 0.87521 0.44422 0.55553
 H1372 H 0.89077 0.44950 0.55024
 C1373 C 0.83546 0.43003 0.56977
 C1374 C 1.12499 0.55540 0.55551
 H1375 H 1.10937 0.55024 0.55032
 C1376 C 1.16494 0.56930 0.56948
 O1377 O 0.47906 0.92328 0.39378
 O1378 O 0.47903 0.89856 0.36881
 C1379 C 0.47179 0.91588 0.37640
 C1380 C 0.45442 0.92730 0.36524
 C1381 C 0.44728 0.92042 0.34517
 H1382 H 0.45486 0.90700 0.33737
 O1383 O 0.52057 1.07721 0.39383
 O1384 O 0.52058 1.10199 0.36891
 C1385 C 0.52783 1.08466 0.37646
 C1386 C 0.54518 1.07326 0.36524
 C1387 C 0.55232 1.08019 0.34518
 H1388 H 0.54475 1.09365 0.33743
 O1389 O 0.39355 0.97944 0.42299
 O1390 O 0.36867 0.97944 0.39818
 C1391 C 0.37621 0.97217 0.41551
 C1392 C 0.36503 0.95476 0.42687
 C1393 C 0.34505 0.94751 0.41986
 H1394 H 0.33730 0.95505 0.40639
 O1395 O 0.60596 1.02098 0.42285
 O1396 O 0.63084 1.02103 0.39804
 C1397 C 0.62331 1.02825 0.41540
 C1398 C 0.63452 1.04559 0.42683
 C1399 C 0.65457 1.05272 0.41991
 H1400 H 0.66233 1.04517 0.40644
 O1401 O 0.42279 0.89401 0.47897
 O1402 O 0.39804 0.86908 0.47898
 C1403 C 0.41535 0.87665 0.47170
 C1404 C 0.42673 0.86549 0.45429
 C1405 C 0.41974 0.84550 0.44702
 H1406 H 0.40625 0.83776 0.45453
 O1407 O 0.57695 1.10626 0.47919
 O1408 O 0.60170 1.13120 0.47911
 C1409 C 0.58436 1.12362 0.47190
 C1410 C 0.57292 1.13480 0.45454
 C1411 C 0.57981 1.15485 0.44737
 H1412 H 0.59327 1.16262 0.45491
 O1413 O 0.42280 1.02100 0.39389
 O1414 O 0.39807 1.02106 0.36893
 C1415 C 0.41539 1.02828 0.37652
 C1416 C 0.42681 1.04565 0.36535
 C1417 C 0.41992 1.05281 0.34528
 H1418 H 0.40650 1.04524 0.33749
 O1419 O 0.57677 0.97945 0.39367
 O1420 O 0.60150 0.97944 0.36870
 C1421 C 0.58419 0.97218 0.37629
 C1422 C 0.57281 0.95479 0.36513
 C1423 C 0.57977 0.94758 0.34510
 H1424 H 0.59322 0.95512 0.33733
 O1425 O 0.52060 0.89403 0.42289
 O1426 O 0.52063 0.86915 0.39807
 C1427 C 0.52788 0.87669 0.41542
 C1428 C 0.54528 0.86552 0.42679
 C1429 C 0.55247 0.84549 0.41983
 H1430 H 0.54490 0.83771 0.40640
 O1431 O 0.47905 1.10640 0.42306
 O1432 O 0.47901 1.13133 0.39829
 C1433 C 0.47177 1.12377 0.41563
 C1434 C 0.45440 1.13495 0.42704
 C1435 C 0.44722 1.15499 0.42010
 H1436 H 0.45478 1.16276 0.40664
 O1437 O 0.39365 1.07727 0.47919
 O1438 O 0.36872 1.10204 0.47919
 C1439 C 0.37629 1.08472 0.47192
 C1440 C 0.36512 1.07334 0.45451
 C1441 C 0.34513 1.08033 0.44726
 H1442 H 0.33738 1.09382 0.45477
 O1443 O 0.60605 0.92325 0.47893
 O1444 O 0.63098 0.89849 0.47891
 C1445 C 0.62341 0.91581 0.47165
 C1446 C 0.63458 0.92721 0.45426
 C1447 C 0.65461 0.92028 0.44706
 H1448 H 0.66239 0.90684 0.45461
 O1449 O 0.47902 1.07718 0.39392
 O1450 O 0.47899 1.10196 0.36899
 C1451 C 0.47175 1.08463 0.37656
 C1452 C 0.45438 1.07322 0.36537
 C1453 C 0.44724 1.08013 0.34530
 H1454 H 0.45481 1.09356 0.33752
 O1455 O 0.52061 0.92321 0.39371
 O1456 O 0.52063 0.89848 0.36875
 C1457 C 0.52787 0.91580 0.37633
 C1458 C 0.54525 0.92720 0.36515
 C1459 C 0.55246 0.92024 0.34512
 H1460 H 0.54494 0.90677 0.33737
 O1461 O 0.60600 0.97944 0.42278
 O1462 O 0.63089 0.97944 0.39797
 C1463 C 0.62335 0.97218 0.41531
 C1464 C 0.63455 0.95480 0.42669
 C1465 C 0.65459 0.94762 0.41973
 H1466 H 0.66234 0.95518 0.40627
 O1467 O 0.39360 1.02100 0.42305
 O1468 O 0.36872 1.02107 0.39824
 C1469 C 0.37627 1.02830 0.41559
 C1470 C 0.36511 1.04572 0.42696
 C1471 C 0.34512 1.05296 0.41997
 H1472 H 0.33736 1.04541 0.40650
 O1473 O 0.42284 1.10641 0.47925
 O1474 O 0.39808 1.13133 0.47925
 C1475 C 0.41541 1.12378 0.47200
 C1476 C 0.42681 1.13496 0.45462
 C1477 C 0.41988 1.15500 0.44743
 H1478 H 0.40643 1.16277 0.45498
 O1479 O 0.57688 0.89409 0.47895
 O1480 O 0.60165 0.86918 0.47893
 C1481 C 0.58432 0.87673 0.47168
 C1482 C 0.57291 0.86554 0.45432
 C1483 C 0.57985 0.84552 0.44712
 H1484 H 0.59333 0.83776 0.45464
 O1485 O 0.57677 1.02100 0.39368
 O1486 O 0.60150 1.02106 0.36871
 C1487 C 0.58418 1.02829 0.37631
 C1488 C 0.57276 1.04567 0.36516
 C1489 C 0.57964 1.05286 0.34510
 H1490 H 0.59307 1.04531 0.33729
 O1491 O 0.42279 0.97945 0.39387
 O1492 O 0.39806 0.97946 0.36890
 C1493 C 0.41538 0.97221 0.37648
 C1494 C 0.42681 0.95486 0.36528
 C1495 C 0.41992 0.94772 0.34520
 H1496 H 0.40648 0.95528 0.33742
 O1497 O 0.52060 1.10632 0.42308
 O1498 O 0.52062 1.13125 0.39831
 C1499 C 0.52788 1.12367 0.41564
 C1500 C 0.54528 1.13483 0.42702
 C1501 C 0.55242 1.15488 0.42011
 H1502 H 0.54482 1.16268 0.40669
 O1503 O 0.47904 0.89400 0.42285
 O1504 O 0.47901 0.86912 0.39803
 C1505 C 0.47176 0.87666 0.41537
 C1506 C 0.45434 0.86549 0.42673
 C1507 C 0.44710 0.84551 0.41971
 H1508 H 0.45463 0.83777 0.40623
 O1509 O 0.60611 1.07708 0.47919
 O1510 O 0.63102 1.10185 0.47911
 C1511 C 0.62345 1.08452 0.47188
 C1512 C 0.63460 1.07311 0.45447
 C1513 C 0.65465 1.07999 0.44730
 H1514 H 0.66246 1.09340 0.45488
 O1515 O 0.39362 0.92319 0.47904
 O1516 O 0.36872 0.89841 0.47906
 C1517 C 0.37626 0.91574 0.47179
 C1518 C 0.36506 0.92713 0.45441
 C1519 C 0.34508 0.92014 0.44716
 H1520 H 0.33735 0.90664 0.45466
 Cu1521 Cu 0.49983 0.91110 0.41080
 Cu1522 Cu 0.49982 0.88133 0.38091
 Cu1523 Cu 0.49981 1.08930 0.41096
 Cu1524 Cu 0.49980 1.11913 0.38113
 Cu1525 Cu 0.41066 1.00022 0.41094
 Cu1526 Cu 0.38088 1.00026 0.38106
 Cu1527 Cu 0.58889 1.00022 0.41073
 Cu1528 Cu 0.61868 1.00025 0.38085
 C1529 C 0.44421 0.94467 0.37506
 H1530 H 0.44944 0.94989 0.39066
 C1531 C 0.43015 0.93062 0.33518
 C1532 C 0.55538 1.05585 0.37500
 H1533 H 0.55015 1.05059 0.39059
 C1534 C 0.56943 1.07000 0.33514
 C1535 C 0.37480 0.94459 0.44429
 H1536 H 0.39034 0.94990 0.44960
 C1537 C 0.33510 0.93031 0.42999
 C1538 C 0.62476 1.05576 0.44426
 H1539 H 0.60918 1.05054 0.44951
 C1540 C 0.66461 1.06980 0.43013
 C1541 C 0.44418 0.87524 0.44416
 H1542 H 0.44948 0.89077 0.44949
 C1543 C 0.42991 0.83554 0.42984
 C1544 C 0.55551 1.12502 0.44439
 H1545 H 0.55028 1.10943 0.44963
 C1546 C 0.56957 1.16486 0.43027
 C1547 C 0.44419 1.05583 0.37516
 H1548 H 0.44942 1.05059 0.39076
 C1549 C 0.43013 1.06993 0.33528
 C1550 C 0.55540 0.94462 0.37492
 H1551 H 0.55012 0.94990 0.39048
 C1552 C 0.56960 0.93041 0.33513
 C1553 C 0.55548 0.87531 0.44417
 H1554 H 0.55021 0.89088 0.44944
 C1555 C 0.56964 0.83552 0.42999
 C1556 C 0.44422 1.12517 0.44444
 H1557 H 0.44948 1.10960 0.44970
 C1558 C 0.43008 1.16498 0.43029
 C1559 C 0.37488 1.05589 0.44438
 H1560 H 0.39042 1.05058 0.44969
 C1561 C 0.33516 1.07015 0.43010
 C1562 C 0.62478 0.94461 0.44410
 H1563 H 0.60921 0.94987 0.44937
 C1564 C 0.66459 0.93048 0.42991
 O1565 O 0.52069 0.92327 0.60591
 O1566 O 0.52074 0.89849 0.63083
 C1567 C 0.52797 0.91583 0.62327
 C1568 C 0.54533 0.92723 0.63446
 C1569 C 0.55246 0.92033 0.65454
 H1570 H 0.54488 0.90690 0.66232
 O1571 O 0.47917 1.07712 0.60603
 O1572 O 0.47914 1.10186 0.63099
 C1573 C 0.47190 1.08454 0.62340
 C1574 C 0.45453 1.07312 0.63458
 C1575 C 0.44737 1.08004 0.65464
 H1576 H 0.45493 1.09347 0.66242
 O1577 O 0.39375 1.02089 0.57689
 O1578 O 0.36885 1.02091 0.60169
 C1579 C 0.37639 1.02815 0.58434
 C1580 C 0.36518 1.04551 0.57294
 C1581 C 0.34510 1.05260 0.57984
 H1582 H 0.33732 1.04499 0.59326
 O1583 O 0.60606 0.97952 0.57675
 O1584 O 0.63096 0.97941 0.60153
 C1585 C 0.62340 0.97221 0.58418
 C1586 C 0.63458 0.95486 0.57273
 C1587 C 0.65466 0.94773 0.57959
 H1588 H 0.66245 0.95530 0.59302
 O1589 O 0.57689 0.89411 0.52052
 O1590 O 0.60166 0.86919 0.52055
 C1591 C 0.58433 0.87675 0.52779
 C1592 C 0.57292 0.86557 0.54517
 C1593 C 0.57982 0.84550 0.55230
 H1594 H 0.59326 0.83773 0.54473
 O1595 O 0.42280 1.10639 0.52082
 O1596 O 0.39801 1.13130 0.52089
 C1597 C 0.41534 1.12373 0.52813
 C1598 C 0.42673 1.13488 0.54555
 C1599 C 0.41972 1.15485 0.55286
 H1600 H 0.40621 1.16259 0.54539
 O1601 O 0.42296 0.97936 0.60606
 O1602 O 0.39821 0.97934 0.63102
 C1603 C 0.41553 0.97209 0.62344
 C1604 C 0.42694 0.95471 0.63461
 C1605 C 0.42000 0.94751 0.65465
 H1606 H 0.40655 0.95505 0.66242
 O1607 O 0.57691 1.02103 0.60601
 O1608 O 0.60165 1.02098 0.63096
 C1609 C 0.58434 1.02826 0.62339
 C1610 C 0.57296 1.04565 0.63458
 C1611 C 0.57992 1.05283 0.65461
 H1612 H 0.59338 1.04527 0.66237
 O1613 O 0.47915 0.89411 0.57673
 O1614 O 0.47916 0.86916 0.60149
 C1615 C 0.47191 0.87674 0.58416
 C1616 C 0.45456 0.86553 0.57273
 C1617 C 0.44750 0.84543 0.57959
 H1618 H 0.45511 0.83764 0.59299
 O1619 O 0.52069 1.10637 0.57687
 O1620 O 0.52071 1.13127 0.60167
 C1621 C 0.52796 1.12372 0.58432
 C1622 C 0.54535 1.13489 0.57293
 C1623 C 0.55255 1.15491 0.57987
 H1624 H 0.54500 1.16269 0.59332
 O1625 O 0.39370 0.92318 0.52061
 O1626 O 0.36880 0.89840 0.52069
 C1627 C 0.37637 0.91573 0.52793
 C1628 C 0.36523 0.92711 0.54536
 C1629 C 0.34522 0.92015 0.55260
 H1630 H 0.33745 0.90670 0.54505
 O1631 O 0.60622 1.07720 0.52077
 O1632 O 0.63111 1.10198 0.52075
 C1633 C 0.62357 1.08467 0.52804
 C1634 C 0.63473 1.07332 0.54548
 C1635 C 0.65468 1.08037 0.55281
 H1636 H 0.66241 1.09387 0.54531
 O1637 O 0.52073 1.07721 0.60607
 O1638 O 0.52074 1.10196 0.63103
 C1639 C 0.52800 1.08464 0.62344
 C1640 C 0.54540 1.07324 0.63461
 C1641 C 0.55262 1.08019 0.65464
 H1642 H 0.54509 1.09365 0.66241
 O1643 O 0.47914 0.92320 0.60601
 O1644 O 0.47914 0.89841 0.63092
 C1645 C 0.47188 0.91574 0.62337
 C1646 C 0.45451 0.92712 0.63458
 C1647 C 0.44732 0.92017 0.65462
 H1648 H 0.45487 0.90671 0.66238
 O1649 O 0.60617 1.02107 0.57691
 O1650 O 0.63106 1.02102 0.60172
 C1651 C 0.62352 1.02832 0.58439
 C1652 C 0.63470 1.04574 0.57306
 C1653 C 0.65464 1.05303 0.58014
 H1654 H 0.66235 1.04553 0.59365
 O1655 O 0.39378 0.97934 0.57688
 O1656 O 0.36889 0.97931 0.60169
 C1657 C 0.37644 0.97206 0.58435
 C1658 C 0.36526 0.95467 0.57296
 C1659 C 0.34525 0.94746 0.57995
 H1660 H 0.33751 0.95499 0.59343
 O1661 O 0.57696 1.10627 0.52076
 O1662 O 0.60170 1.13121 0.52073
 C1663 C 0.58438 1.12365 0.52800
 C1664 C 0.57297 1.13484 0.54537
 C1665 C 0.57991 1.15487 0.55256
 H1666 H 0.59338 1.16261 0.54502
 O1667 O 0.42291 0.89405 0.52053
 O1668 O 0.39817 0.86911 0.52061
 C1669 C 0.41551 0.87668 0.52782
 C1670 C 0.42697 0.86551 0.54516
 C1671 C 0.42016 0.84540 0.55227
 H1672 H 0.40675 0.83759 0.54469
 O1673 O 0.57692 0.97948 0.60597
 O1674 O 0.60166 0.97938 0.63091
 C1675 C 0.58433 0.97217 0.62333
 C1676 C 0.57291 0.95480 0.63449
 C1677 C 0.57978 0.94764 0.65457
 H1678 H 0.59320 0.95521 0.66237
 O1679 O 0.42296 1.02091 0.60603
 O1680 O 0.39822 1.02094 0.63099
 C1681 C 0.41554 1.02818 0.62341
 C1682 C 0.42695 1.04556 0.63458
 C1683 C 0.42003 1.05273 0.65464
 H1684 H 0.40659 1.04518 0.66243
 O1685 O 0.47912 1.10638 0.57692
 O1686 O 0.47909 1.13126 0.60173
 C1687 C 0.47182 1.12371 0.58440
 C1688 C 0.45438 1.13487 0.57307
 C1689 C 0.44711 1.15484 0.58013
 H1690 H 0.45465 1.16257 0.59361
 O1691 O 0.52069 0.89408 0.57676
 O1692 O 0.52075 0.86915 0.60152
 C1693 C 0.52798 0.87672 0.58418
 C1694 C 0.54535 0.86555 0.57275
 C1695 C 0.55249 0.84549 0.57964
 H1696 H 0.54493 0.83769 0.59307
 O1697 O 0.60602 0.92330 0.52050
 O1698 O 0.63095 0.89854 0.52053
 C1699 C 0.62338 0.91588 0.52777
 C1700 C 0.63457 0.92729 0.54513
 C1701 C 0.65465 0.92042 0.55224
 H1702 H 0.66244 0.90700 0.54465
 O1703 O 0.39368 1.07718 0.52076
 O1704 O 0.36874 1.10192 0.52082
 C1705 C 0.37631 1.08459 0.52804
 C1706 C 0.36514 1.07313 0.54539
 C1707 C 0.34506 1.07998 0.55254
 H1708 H 0.33725 1.09341 0.54499
 Cu1709 Cu 0.49991 0.91115 0.58887
 Cu1710 Cu 0.49995 0.88130 0.61869
 Cu1711 Cu 0.49993 1.08930 0.58898
 Cu1712 Cu 0.49992 1.11908 0.61885
 Cu1713 Cu 0.41073 0.91109 0.49978
 Cu1714 Cu 0.38094 0.88125 0.49985
 Cu1715 Cu 0.58898 0.91117 0.49972
 Cu1716 Cu 0.61881 0.88135 0.49973
 Cu1717 Cu 0.41072 1.08934 0.50000
 Cu1718 Cu 0.38089 1.11915 0.50004
 Cu1719 Cu 0.58909 1.08921 0.49999
 Cu1720 Cu 0.61888 1.11906 0.49991
 Cu1721 Cu 0.41084 1.00013 0.58898
 Cu1722 Cu 0.38105 1.00013 0.61885
 Cu1723 Cu 0.58903 1.00028 0.58892
 Cu1724 Cu 0.61883 1.00018 0.61878
 C1725 C 0.55554 0.94461 0.62467
 H1726 H 0.55033 0.94985 0.60906
 C1727 C 0.56956 0.93053 0.66456
 C1728 C 0.44435 1.05573 0.62479
 H1729 H 0.44959 1.05048 0.60920
 C1730 C 0.43024 1.06985 0.66464
 C1731 C 0.37497 1.05575 0.55557
 H1732 H 0.39057 1.05056 0.55034
 C1733 C 0.33507 1.06972 0.56965
 C1734 C 0.62477 0.94466 0.55535
 H1735 H 0.60916 0.94988 0.55015
 C1736 C 0.66466 0.93063 0.56935
 C1737 C 0.55554 0.87536 0.55537
 H1738 H 0.55030 0.89095 0.55014
 C1739 C 0.56962 0.83549 0.56942
 C1740 C 0.44421 1.12513 0.55563
 H1741 H 0.44954 1.10961 0.55028
 C1742 C 0.42990 1.16480 0.57004
 C1743 C 0.44434 0.94454 0.62481
 H1744 H 0.44960 0.94982 0.60924
 C1745 C 0.43018 0.93035 0.66462
 C1746 C 0.55555 1.05583 0.62482
 H1747 H 0.55026 1.05056 0.60925
 C1748 C 0.56977 1.06999 0.66461
 C1749 C 0.44432 0.87534 0.55537
 H1750 H 0.44949 0.89096 0.55017
 C1751 C 0.43042 0.83540 0.56936
 C1752 C 0.55554 1.12509 0.55553
 H1753 H 0.55027 1.10952 0.55027
 C1754 C 0.56972 1.16487 0.56969
 C1755 C 0.37501 0.94451 0.55552
 H1756 H 0.39056 0.94979 0.55022
 C1757 C 0.33526 0.93032 0.56978
 C1758 C 0.62498 1.05586 0.55559
 H1759 H 0.60948 1.05052 0.55022
 C1760 C 0.66460 1.07024 0.57003
 O1761 O 0.47894 0.42287 0.89397
 O1762 O 0.47894 0.39808 0.86906
 C1763 C 0.47166 0.41540 0.87662
 C1764 C 0.45423 0.42674 0.86546
 C1765 C 0.44696 0.41971 0.84548
 H1766 H 0.45449 0.40624 0.83773
 O1767 O 0.52043 0.57693 0.89415
 O1768 O 0.52042 0.60169 0.86921
 C1769 C 0.52769 0.58437 0.87678
 C1770 C 0.54505 0.57297 0.86558
 C1771 C 0.55219 0.57988 0.84551
 H1772 H 0.54463 0.59333 0.83774
 O1773 O 0.39357 0.47900 0.92328
 O1774 O 0.36864 0.47899 0.89852
 C1775 C 0.37620 0.47174 0.91585
 C1776 C 0.36503 0.45438 0.92727
 C1777 C 0.34499 0.44719 0.92037
 H1778 H 0.33720 0.45473 0.90692
 O1779 O 0.60570 0.52068 0.92325
 O1780 O 0.63063 0.52075 0.89848
 C1781 C 0.62305 0.52797 0.91582
 C1782 C 0.63422 0.54535 0.92724
 C1783 C 0.65427 0.55250 0.92034
 H1784 H 0.66206 0.54492 0.90690
 O1785 O 0.42286 0.39375 0.97946
 O1786 O 0.39812 0.36882 0.97949
 C1787 C 0.41543 0.37639 0.97221
 C1788 C 0.42681 0.36521 0.95480
 C1789 C 0.41987 0.34517 0.94763
 H1790 H 0.40643 0.33740 0.95520
 O1791 O 0.57653 0.60611 0.97954
 O1792 O 0.60129 0.63103 0.97949
 C1793 C 0.58395 0.62347 0.97226
 C1794 C 0.57253 0.63466 0.95490
 C1795 C 0.57942 0.65471 0.94774
 H1796 H 0.59285 0.66249 0.95531
 O1797 O 0.42279 0.52050 0.89411
 O1798 O 0.39803 0.52056 0.86917
 C1799 C 0.41537 0.52778 0.87674
 C1800 C 0.42679 0.54513 0.86556
 C1801 C 0.41997 0.55222 0.84544
 H1802 H 0.40659 0.54460 0.83762
 O1803 O 0.57660 0.47913 0.89402
 O1804 O 0.60138 0.47915 0.86909
 C1805 C 0.58406 0.47188 0.87665
 C1806 C 0.57269 0.45449 0.86545
 C1807 C 0.57967 0.44731 0.84542
 H1808 H 0.59312 0.45488 0.83766
 O1809 O 0.52053 0.39381 0.92319
 O1810 O 0.52060 0.36886 0.89844
 C1811 C 0.52783 0.37645 0.91577
 C1812 C 0.54523 0.36531 0.92719
 C1813 C 0.55247 0.34529 0.92025
 H1814 H 0.54495 0.33751 0.90679
 O1815 O 0.47881 0.60606 0.92330
 O1816 O 0.47875 0.63096 0.89850
 C1817 C 0.47151 0.62340 0.91584
 C1818 C 0.45411 0.63456 0.92723
 C1819 C 0.44690 0.65459 0.92028
 H1820 H 0.45444 0.66236 0.90682
 O1821 O 0.39354 0.57677 0.97951
 O1822 O 0.36860 0.60152 0.97947
 C1823 C 0.37619 0.58420 0.97223
 C1824 C 0.36504 0.57280 0.95482
 C1825 C 0.34502 0.57976 0.94761
 H1826 H 0.33725 0.59321 0.95515
 O1827 O 0.60591 0.42305 0.97945
 O1828 O 0.63083 0.39829 0.97944
 C1829 C 0.62327 0.41561 0.97218
 C1830 C 0.63443 0.42699 0.95477
 C1831 C 0.65445 0.42005 0.94755
 H1832 H 0.66224 0.40661 0.95510
 O1833 O 0.47889 0.57681 0.89419
 O1834 O 0.47884 0.60155 0.86924
 C1835 C 0.47163 0.58421 0.87681
 C1836 C 0.45432 0.57275 0.86560
 C1837 C 0.44725 0.57958 0.84549
 H1838 H 0.45484 0.59300 0.83769
 O1839 O 0.52049 0.42292 0.89395
 O1840 O 0.52056 0.39813 0.86904
 C1841 C 0.52778 0.41547 0.87659
 C1842 C 0.54516 0.42688 0.86541
 C1843 C 0.55239 0.41994 0.84539
 H1844 H 0.54488 0.40648 0.83761
 O1845 O 0.60579 0.47914 0.92319
 O1846 O 0.63071 0.47916 0.89841
 C1847 C 0.62316 0.47189 0.91574
 C1848 C 0.63436 0.45453 0.92714
 C1849 C 0.65439 0.44735 0.92018
 H1850 H 0.66213 0.45489 0.90670
 O1851 O 0.39358 0.52055 0.92326
 O1852 O 0.36867 0.52061 0.89848
 C1853 C 0.37623 0.52784 0.91582
 C1854 C 0.36506 0.54523 0.92722
 C1855 C 0.34504 0.55244 0.92026
 H1856 H 0.33729 0.54491 0.90679
 O1857 O 0.42262 0.60603 0.97951
 O1858 O 0.39783 0.63093 0.97947
 C1859 C 0.41516 0.62337 0.97223
 C1860 C 0.42655 0.63455 0.95483
 C1861 C 0.41959 0.65458 0.94763
 H1862 H 0.40613 0.66234 0.95519
 O1863 O 0.57671 0.39392 0.97946
 O1864 O 0.60148 0.36901 0.97945
 C1865 C 0.58416 0.37656 0.97219
 C1866 C 0.57278 0.36537 0.95480
 C1867 C 0.57977 0.34535 0.94761
 H1868 H 0.59323 0.33761 0.95518
 O1869 O 0.57657 0.52068 0.89404
 O1870 O 0.60134 0.52076 0.86911
 C1871 C 0.58401 0.52798 0.87669
 C1872 C 0.57261 0.54537 0.86553
 C1873 C 0.57950 0.55253 0.84546
 H1874 H 0.59291 0.54495 0.83765
 O1875 O 0.42268 0.47895 0.89403
 O1876 O 0.39791 0.47895 0.86912
 C1877 C 0.41523 0.47168 0.87667
 C1878 C 0.42660 0.45427 0.86549
 C1879 C 0.41958 0.44700 0.84550
 H1880 H 0.40608 0.45449 0.83777
 O1881 O 0.52036 0.60608 0.92336
 O1882 O 0.52036 0.63099 0.89856
 C1883 C 0.52760 0.62345 0.91591
 C1884 C 0.54495 0.63465 0.92732
 C1885 C 0.55209 0.65471 0.92041
 H1886 H 0.54452 0.66248 0.90697
 O1887 O 0.47898 0.39375 0.92318
 O1888 O 0.47899 0.36879 0.89844
 C1889 C 0.47173 0.37637 0.91576
 C1890 C 0.45436 0.36520 0.92718
 C1891 C 0.44718 0.34516 0.92026
 H1892 H 0.45472 0.33739 0.90680
 O1893 O 0.60568 0.57691 0.97950
 O1894 O 0.63059 0.60168 0.97943
 C1895 C 0.62302 0.58435 0.97220
 C1896 C 0.63420 0.57293 0.95482
 C1897 C 0.65425 0.57983 0.94766
 H1898 H 0.66203 0.59327 0.95522
 O1899 O 0.39365 0.42289 0.97950
 O1900 O 0.36875 0.39811 0.97953
 C1901 C 0.37629 0.41544 0.97226
 C1902 C 0.36508 0.42682 0.95488
 C1903 C 0.34504 0.41988 0.94774
 H1904 H 0.33728 0.40644 0.95532
 Cu1905 Cu 0.49973 0.41082 0.91105
 Cu1906 Cu 0.49978 0.38096 0.88125
 Cu1907 Cu 0.49963 0.58899 0.91124
 Cu1908 Cu 0.49959 0.61880 0.88138
 Cu1909 Cu 0.41064 0.49974 0.91115
 Cu1910 Cu 0.38081 0.49978 0.88132
 Cu1911 Cu 0.58868 0.49990 0.91111
 Cu1912 Cu 0.61851 0.49996 0.88127
 C1913 C 0.44407 0.44416 0.87523
 H1914 H 0.44939 0.44949 0.89076
 C1915 C 0.42975 0.42983 0.83553
 C1916 C 0.55524 0.55557 0.87535
 H1917 H 0.55001 0.55032 0.89095
 C1918 C 0.56930 0.56967 0.83548
 C1919 C 0.37484 0.44421 0.94467
 H1920 H 0.39042 0.44947 0.94991
 C1921 C 0.33502 0.43006 0.93060
 C1922 C 0.62441 0.55554 0.94463
 H1923 H 0.60882 0.55031 0.94987
 C1924 C 0.66426 0.56962 0.93054
 C1925 C 0.44419 0.37499 0.94460
 H1926 H 0.44945 0.39057 0.94984
 C1927 C 0.43005 0.33518 0.93047
 C1928 C 0.55515 0.62486 0.94471
 H1929 H 0.54992 0.60927 0.94996
 C1930 C 0.56921 0.66471 0.93062
 C1931 C 0.44412 0.55538 0.87541
 H1932 H 0.44929 0.55019 0.89104
 C1933 C 0.43020 0.56932 0.83544
 C1934 C 0.55529 0.44430 0.87521
 H1935 H 0.54999 0.44957 0.89077
 C1936 C 0.56953 0.43015 0.83542
 C1937 C 0.55537 0.37511 0.94461
 H1938 H 0.55007 0.39067 0.94987
 C1939 C 0.56962 0.33534 0.93046
 C1940 C 0.44395 0.62478 0.94465
 H1941 H 0.44923 0.60922 0.94992
 C1942 C 0.42976 0.66456 0.93048
 C1943 C 0.37483 0.55539 0.94465
 H1944 H 0.39038 0.55012 0.94993
 C1945 C 0.33506 0.56959 0.93044
 C1946 C 0.62462 0.44438 0.94458
 H1947 H 0.60906 0.44964 0.94987
 C1948 C 0.66440 0.43022 0.93037
 O1949 O 0.52055 0.42309 1.10659
 O1950 O 0.52059 0.39832 1.13151
 C1951 C 0.52782 0.41565 1.12395
 C1952 C 0.54518 0.42706 1.13515
 C1953 C 0.55236 0.42013 1.15519
 H1954 H 0.54482 0.40668 1.16296
 O1955 O 0.47889 0.57695 1.10655
 O1956 O 0.47883 0.60175 1.13145
 C1957 C 0.47160 0.58441 1.12390
 C1958 C 0.45420 0.57304 1.13508
 C1959 C 0.44695 0.58005 1.15507
 H1960 H 0.45448 0.59352 1.16282
 O1961 O 0.39354 0.52075 1.07737
 O1962 O 0.36861 0.52074 1.10214
 C1963 C 0.37617 0.52800 1.08480
 C1964 C 0.36497 0.54536 1.07340
 C1965 C 0.34496 0.55259 1.08038
 H1966 H 0.33722 0.54507 1.09387
 O1967 O 0.60580 0.47923 1.07736
 O1968 O 0.63073 0.47920 1.10212
 C1969 C 0.62316 0.47195 1.08480
 C1970 C 0.63432 0.45454 1.07341
 C1971 C 0.65425 0.44720 1.08048
 H1972 H 0.66196 0.45465 1.09402
 O1973 O 0.57670 0.39393 1.02104
 O1974 O 0.60147 0.36900 1.02107
 C1975 C 0.58414 0.37657 1.02832
 C1976 C 0.57276 0.36541 1.04572
 C1977 C 0.57969 0.34537 1.05289
 H1978 H 0.59312 0.33759 1.04531
 O1979 O 0.42266 0.60598 1.02108
 O1980 O 0.39788 0.63089 1.02110
 C1981 C 0.41521 0.62334 1.02835
 C1982 C 0.42661 0.63454 1.04573
 C1983 C 0.41969 0.65459 1.05288
 H1984 H 0.40625 0.66236 1.04531
 O1985 O 0.42278 0.47925 1.10656
 O1986 O 0.39800 0.47918 1.13148
 C1987 C 0.41534 0.47196 1.12392
 C1988 C 0.42675 0.45459 1.13510
 C1989 C 0.41979 0.44738 1.15513
 H1990 H 0.40632 0.45492 1.16289
 O1991 O 0.57667 0.52083 1.10653
 O1992 O 0.60146 0.52089 1.13143
 C1993 C 0.58413 0.52813 1.12388
 C1994 C 0.57274 0.54552 1.13505
 C1995 C 0.57971 0.55275 1.15507
 H1996 H 0.59318 0.54523 1.16282
 O1997 O 0.47904 0.39392 1.07736
 O1998 O 0.47903 0.36899 1.10213
 C1999 C 0.47179 0.37655 1.08479
 C2000 C 0.45446 0.36534 1.07336
 C2001 C 0.44735 0.34527 1.08025
 H2002 H 0.45492 0.33751 1.09370
 O2003 O 0.52042 0.60613 1.07734
 O2004 O 0.52042 0.63107 1.10209
 C2005 C 0.52767 0.62349 1.08476
 C2006 C 0.54505 0.63467 1.07335
 C2007 C 0.55224 0.65469 1.08029
 H2008 H 0.54469 0.66247 1.09375
 O2009 O 0.39375 0.42296 1.02107
 O2010 O 0.36885 0.39818 1.02115
 C2011 C 0.37641 0.41552 1.02837
 C2012 C 0.36522 0.42694 1.04575
 C2013 C 0.34516 0.42004 1.05288
 H2014 H 0.33739 0.40661 1.04530
 O2015 O 0.60574 0.57693 1.02107
 O2016 O 0.63067 0.60168 1.02105
 C2017 C 0.62312 0.58435 1.02831
 C2018 C 0.63433 0.57293 1.04565
 C2019 C 0.65443 0.57978 1.05272
 H2020 H 0.66222 0.59318 1.04510
 O2021 O 0.52045 0.57697 1.10654
 O2022 O 0.52045 0.60176 1.13144
 C2023 C 0.52772 0.58444 1.12389
 C2024 C 0.54513 0.57308 1.13506
 C2025 C 0.55235 0.58006 1.15508
 H2026 H 0.54481 0.59352 1.16284
 O2027 O 0.47900 0.42308 1.10657
 O2028 O 0.47898 0.39830 1.13149
 C2029 C 0.47172 0.41563 1.12393
 C2030 C 0.45433 0.42701 1.13511
 C2031 C 0.44712 0.42005 1.15514
 H2032 H 0.45466 0.40659 1.16290
 O2033 O 0.60581 0.52077 1.07731
 O2034 O 0.63077 0.52081 1.10205
 C2035 C 0.62319 0.52803 1.08472
 C2036 C 0.63437 0.54537 1.07326
 C2037 C 0.65447 0.55246 1.08007
 H2038 H 0.66229 0.54487 1.09348
 O2039 O 0.39367 0.47921 1.07733
 O2040 O 0.36873 0.47914 1.10209
 C2041 C 0.37632 0.47191 1.08475
 C2042 C 0.36518 0.45452 1.07333
 C2043 C 0.34511 0.44737 1.08021
 H2044 H 0.33731 0.45494 1.09364
 O2045 O 0.57657 0.60611 1.02111
 O2046 O 0.60134 0.63102 1.02111
 C2047 C 0.58402 0.62346 1.02838
 C2048 C 0.57263 0.63465 1.04577
 C2049 C 0.57958 0.65467 1.05296
 H2050 H 0.59304 0.66243 1.04541
 O2051 O 0.42292 0.39378 1.02104
 O2052 O 0.39818 0.36885 1.02112
 C2053 C 0.41550 0.37643 1.02834
 C2054 C 0.42693 0.36527 1.04573
 C2055 C 0.42007 0.34520 1.05288
 H2056 H 0.40667 0.33739 1.04529
 O2057 O 0.57667 0.47928 1.10658
 O2058 O 0.60144 0.47928 1.13150
 C2059 C 0.58411 0.47203 1.12395
 C2060 C 0.57273 0.45465 1.13515
 C2061 C 0.57966 0.44748 1.15519
 H2062 H 0.59310 0.45504 1.16297
 O2063 O 0.42271 0.52081 1.10656
 O2064 O 0.39793 0.52080 1.13148
 C2065 C 0.41525 0.52807 1.12392
 C2066 C 0.42661 0.54548 1.13509
 C2067 C 0.41961 0.55274 1.15509
 H2068 H 0.40613 0.54523 1.16284
 O2069 O 0.47887 0.60606 1.07731
 O2070 O 0.47881 0.63101 1.10206
 C2071 C 0.47158 0.62342 1.08473
 C2072 C 0.45419 0.63458 1.07331
 C2073 C 0.44702 0.65463 1.08020
 H2074 H 0.45459 0.66243 1.09363
 O2075 O 0.52058 0.39395 1.07737
 O2076 O 0.52063 0.36902 1.10214
 C2077 C 0.52786 0.37659 1.08480
 C2078 C 0.54523 0.36542 1.07337
 C2079 C 0.55242 0.34537 1.08028
 H2080 H 0.54488 0.33760 1.09375
 O2081 O 0.60585 0.42311 1.02104
 O2082 O 0.63076 0.39833 1.02108
 C2083 C 0.62319 0.41566 1.02833
 C2084 C 0.63433 0.42701 1.04577
 C2085 C 0.65427 0.41993 1.05309
 H2086 H 0.66199 0.40642 1.04558
 O2087 O 0.39347 0.57684 1.02109
 O2088 O 0.36853 0.60160 1.02111
 C2089 C 0.37611 0.58428 1.02836
 C2090 C 0.36494 0.57290 1.04577
 C2091 C 0.34494 0.57988 1.05300
 H2092 H 0.33717 0.59334 1.04545
 Cu2093 Cu 0.49979 0.41100 1.08949
 Cu2094 Cu 0.49981 0.38116 1.11931
 Cu2095 Cu 0.49966 0.58904 1.08946
 Cu2096 Cu 0.49962 0.61890 1.11926
 Cu2097 Cu 0.41078 0.41083 1.00026
 Cu2098 Cu 0.38098 0.38099 1.00033
 Cu2099 Cu 0.58881 0.41099 1.00024
 Cu2100 Cu 0.61864 0.38116 1.00026
 Cu2101 Cu 0.41056 0.58893 1.00030
 Cu2102 Cu 0.38071 0.61873 1.00029
 Cu2103 Cu 0.58865 0.58904 1.00031
 Cu2104 Cu 0.61847 0.61885 1.00027
 Cu2105 Cu 0.41066 0.50001 1.08948
 Cu2106 Cu 0.38082 0.49996 1.11929
 Cu2107 Cu 0.58875 0.50003 1.08947
 Cu2108 Cu 0.61860 0.50005 1.11927
 C2109 C 0.55534 0.44447 1.12536
 H2110 H 0.55008 0.44972 1.10978
 C2111 C 0.56949 0.43034 1.16519
 C2112 C 0.44405 0.55562 1.12532
 H2113 H 0.44936 0.55030 1.10977
 C2114 C 0.42978 0.56991 1.16505
 C2115 C 0.37472 0.55550 1.05595
 H2116 H 0.39028 0.55021 1.05065
 C2117 C 0.33498 0.56973 1.07019
 C2118 C 0.62459 0.44446 1.05591
 H2119 H 0.60909 0.44984 1.05055
 C2120 C 0.66419 0.43001 1.07032
 C2121 C 0.55538 0.37520 1.05594
 H2122 H 0.55012 0.39078 1.05069
 C2123 C 0.56953 0.33538 1.07005
 C2124 C 0.44401 0.62476 1.05593
 H2125 H 0.44926 0.60917 1.05070
 C2126 C 0.42989 0.66461 1.06999
 C2127 C 0.44416 0.44443 1.12533
 H2128 H 0.44944 0.44970 1.10976
 C2129 C 0.42996 0.43023 1.16512
 C2130 C 0.55531 0.55567 1.12528
 H2131 H 0.55002 0.55037 1.10973
 C2132 C 0.56953 0.56990 1.16505
 C2133 C 0.44427 0.37511 1.05595
 H2134 H 0.44947 0.39072 1.05072
 C2135 C 0.43027 0.33523 1.07002
 C2136 C 0.55522 0.62488 1.05594
 H2137 H 0.54995 0.60932 1.05068
 C2138 C 0.56939 0.66467 1.07011
 C2139 C 0.37500 0.44432 1.05595
 H2140 H 0.39060 0.44956 1.05073
 C2141 C 0.33514 0.43025 1.06999
 C2142 C 0.62453 0.55558 1.05590
 H2143 H 0.60890 0.55039 1.05073
 C2144 C 0.66447 0.56955 1.06981
 C2145 C 1.10833 1.10770 1.25871
 N2146 N 1.11656 1.08972 1.24999
 N2147 N 1.10875 1.08204 1.23180
 C2148 C 1.09247 1.09211 1.22178
 N2149 N 1.08422 1.11008 1.23050
 N2150 N 1.09203 1.11776 1.24870
 C2151 C 1.11704 1.11623 1.27806
 C2152 C 1.12447 1.12356 1.29419
 C2153 C 1.08438 1.08412 1.20194
 C2154 C 1.07774 1.07755 1.18515
 C2155 C 1.10777 0.60711 0.75874
 N2156 N 1.11624 0.58931 0.74987
 N2157 N 1.10851 0.58167 0.73162
 C2158 C 1.09208 0.59160 0.72169
 N2159 N 1.08360 0.60938 0.73057
 N2160 N 1.09133 0.61702 0.74882
 C2161 C 1.11640 0.61562 0.77812
 C2162 C 1.12378 0.62294 0.79428
 C2163 C 1.08410 0.58367 0.70179
 C2164 C 1.07755 0.57715 0.68495
 C2165 C 0.60795 1.10744 0.75857
 N2166 N 0.61717 1.09040 0.74899
 N2167 N 0.60938 1.08279 0.73076
 C2168 C 0.59213 1.09199 0.72155
 N2169 N 0.58290 1.10901 0.73113
 N2170 N 0.59069 1.11663 0.74936
 C2171 C 0.61662 1.11594 0.77794
 C2172 C 0.62403 1.12324 0.79409
 C2173 C 0.58405 1.08410 0.70167
 C2174 C 0.57744 1.07760 0.68485
 C2175 C 0.60750 0.60769 1.25895
 N2176 N 0.61596 0.58988 1.25011
 N2177 N 0.60821 0.58220 1.23189
 C2178 C 0.59176 0.59209 1.22196
 N2179 N 0.58329 0.60989 1.23082
 N2180 N 0.59104 0.61758 1.24904
 C2181 C 0.61616 0.61625 1.27831
 C2182 C 0.62356 0.62359 1.29444
 C2183 C 0.58375 0.58412 1.20209
 C2184 C 0.57718 0.57756 1.18527
 C2185 C 0.89253 0.89253 1.25888
 N2186 N 0.90965 0.88330 1.24945
 N2187 N 0.91732 0.89100 1.23120
 C2188 C 0.90810 0.90815 1.22183
 N2189 N 0.89100 0.91739 1.23127
 N2190 N 0.88333 0.90970 1.24952
 C2191 C 0.88397 0.88395 1.27827
 C2192 C 0.87663 0.87660 1.29443
 C2193 C 0.91605 0.91613 1.20193
 C2194 C 0.92259 0.92267 1.18509
 C2195 C 0.89222 0.39235 0.75856
 N2196 N 0.90935 0.38307 0.74920
 N2197 N 0.91709 0.39073 0.73096
 C2198 C 0.90795 0.40789 0.72155
 N2199 N 0.89084 0.41718 0.73092
 N2200 N 0.88309 0.40953 0.74916
 C2201 C 0.88359 0.38381 0.77794
 C2202 C 0.87621 0.37648 0.79410
 C2203 C 0.91599 0.41584 0.70167
 C2204 C 0.92258 0.42237 0.68484
 C2205 C 0.39220 0.89283 0.75864
 N2206 N 0.40920 0.88341 0.74919
 N2207 N 0.41695 0.89103 0.73095
 C2208 C 0.40794 0.90831 0.72160
 N2209 N 0.39095 0.91774 0.73106
 N2210 N 0.38320 0.91012 0.74931
 C2211 C 0.38355 0.88432 0.77802
 C2212 C 0.37615 0.87701 0.79417
 C2213 C 0.41597 0.91622 0.70171
 C2214 C 0.42255 0.92273 0.68487
 C2215 C 0.39194 0.39268 1.25910
 N2216 N 0.40914 0.38346 1.24982
 N2217 N 0.41689 0.39109 1.23157
 C2218 C 0.40767 0.40817 1.22207
 N2219 N 0.39048 0.41740 1.23137
 N2220 N 0.38273 0.40977 1.24961
 C2221 C 0.38330 0.38416 1.27849
 C2222 C 0.37592 0.37684 1.29465
 C2223 C 0.41571 0.41609 1.20218
 C2224 C 0.42230 0.42260 1.18535
 C2225 C 0.89120 1.10819 0.74177
 N2226 N 0.88212 1.09102 0.75125
 N2227 N 0.89001 1.08334 0.76941
 C2228 C 0.90722 1.09258 0.77864
 N2229 N 0.91631 1.10974 0.76915
 N2230 N 0.90842 1.11742 0.75099
 C2231 C 0.88243 1.11675 0.72245
 C2232 C 0.87497 1.12410 0.70634
 C2233 C 0.91543 1.08459 0.79843
 C2234 C 0.92215 1.07800 0.81519
 C2235 C 0.89355 0.60659 0.24076
 N2236 N 0.88437 0.58944 0.25016
 N2237 N 0.89198 0.58186 0.26848
 C2238 C 0.90901 0.59120 0.27795
 N2239 N 0.91820 0.60834 0.26853
 N2240 N 0.91059 0.61592 0.25021
 C2241 C 0.88502 0.61507 0.22132
 C2242 C 0.87770 0.62236 0.20513
 C2243 C 0.91688 0.58336 0.29792
 C2244 C 0.92334 0.57693 0.31483
 C2245 C 0.39264 1.10729 0.24102
 N2246 N 0.40965 1.11665 0.25050
 N2247 N 0.41730 1.10904 0.26880
 C2248 C 0.40816 1.09185 0.27817
 N2249 N 0.39116 1.08248 0.26868
 N2250 N 0.38352 1.09008 0.25038
 C2251 C 0.38410 1.11578 0.22159
 C2252 C 0.37678 1.12308 0.20539
 C2253 C 0.41608 1.08397 0.29812
 C2254 C 0.42257 1.07749 0.31499
 C2255 C 0.39336 0.60659 0.74090
 N2256 N 0.38406 0.58949 0.75027
 N2257 N 0.39156 0.58188 0.76863
 C2258 C 0.40859 0.59114 0.77816
 N2259 N 0.41790 0.60824 0.76878
 N2260 N 0.41040 0.61585 0.75043
 C2261 C 0.38496 0.61511 0.72143
 C2262 C 0.37772 0.62240 0.70520
 C2263 C 0.41635 0.58327 0.79816
 C2264 C 0.42273 0.57682 0.81509
 C2265 C 1.10776 0.89270 0.74126
 N2266 N 1.11616 0.91053 0.75010
 N2267 N 1.10841 0.91817 0.76834
 C2268 C 1.09201 0.90821 0.77829
 N2269 N 1.08359 0.89039 0.76943
 N2270 N 1.09135 0.88275 0.75119
 C2271 C 1.11642 0.88420 0.72188
 C2272 C 1.12383 0.87690 0.70573
 C2273 C 1.08400 0.91613 0.79818
 C2274 C 1.07743 0.92265 0.81502
 C2275 C 1.10732 0.39314 0.24081
 N2276 N 1.09069 0.38340 0.25059
 N2277 N 1.08304 0.39098 0.26890
 C2278 C 1.09179 0.40853 0.27797
 N2279 N 1.10840 0.41828 0.26819
 N2280 N 1.11605 0.41070 0.24988
 C2281 C 1.11589 0.38467 0.22139
 C2282 C 1.12324 0.37738 0.20520
 C2283 C 1.08389 0.41638 0.29794
 C2284 C 1.07742 0.42283 0.31484
 C2285 C 0.60748 0.89248 0.24122
 N2286 N 0.59087 0.88277 0.25106
 N2287 N 0.58315 0.89049 0.26928
 C2288 C 0.59181 0.90816 0.27821
 N2289 N 0.60840 0.91789 0.26836
 N2290 N 0.61612 0.91017 0.25014
 C2291 C 0.61609 0.88389 0.22186
 C2292 C 0.62347 0.87653 0.20571
 C2293 C 0.58382 0.91618 0.29808
 C2294 C 0.57726 0.92275 0.31490
 C2295 C 0.60782 0.39280 0.74144
 N2296 N 0.61707 0.40978 0.75108
 N2297 N 0.60926 0.41736 0.76932
 C2298 C 0.59195 0.40820 0.77847
 N2299 N 0.58269 0.39124 0.76882
 N2300 N 0.59050 0.38365 0.75058
 C2301 C 0.61652 0.38432 0.72207
 C2302 C 0.62394 0.37703 0.70592
 C2303 C 0.58385 0.41607 0.79835
 C2304 C 0.57722 0.42255 0.81518
 C2305 C 1.25891 1.10677 1.10750
 N2306 N 1.24949 1.08961 1.11665
 N2307 N 1.23121 1.08203 1.10896
 C2308 C 1.22180 1.09138 1.09190
 N2309 N 1.23123 1.10852 1.08273
 N2310 N 1.24951 1.11610 1.09041
 C2311 C 1.27831 1.11525 1.11608
 C2312 C 1.29448 1.12254 1.12343
 C2313 C 1.20186 1.08353 1.08395
 C2314 C 1.18499 1.07708 1.07744
 C2315 C 1.25938 0.60648 0.60652
 N2316 N 1.24992 0.58946 0.61589
 N2317 N 1.23160 0.58186 0.60834
 C2318 C 1.22218 0.59105 0.59119
 N2319 N 1.23165 0.60805 0.58181
 N2320 N 1.24997 0.61566 0.58936
 C2321 C 1.27882 0.61500 0.61498
 C2322 C 1.29501 0.62232 0.62226
 C2323 C 1.20219 0.58320 0.58339
 C2324 C 1.18528 0.57677 0.57698
 C2325 C 0.75812 1.10820 0.60872
 N2326 N 0.74859 1.09112 0.61790
 N2327 N 0.73044 1.08342 0.61003
 C2328 C 0.72127 1.09257 0.59273
 N2329 N 0.73080 1.10964 0.58353
 N2330 N 0.74895 1.11734 0.59141
 C2331 C 0.77743 1.11676 0.61746
 C2332 C 0.79354 1.12411 0.62491
 C2333 C 0.70148 1.08457 0.58454
 C2334 C 0.68474 1.07797 0.57782
 C2335 C 0.75896 0.60669 1.10680
 N2336 N 0.74946 0.61600 1.08976
 N2337 N 0.73112 0.60842 1.08221
 C2338 C 0.72172 0.59132 1.09148
 N2339 N 0.73123 0.58200 1.10851
 N2340 N 0.74957 0.58958 1.11606
 C2341 C 0.77843 0.61517 1.11524
 C2342 C 0.79465 0.62245 1.12249
 C2343 C 0.70173 0.58348 1.08368
 C2344 C 0.68481 0.57705 1.07728
 C2345 C 1.25857 0.89240 0.89238
 N2346 N 1.24919 0.90956 0.88320
 N2347 N 1.23096 0.91725 0.89090
 C2348 C 1.22156 0.90800 0.90803
 N2349 N 1.23095 0.89085 0.91723
 N2350 N 1.24918 0.88316 0.90952
 C2351 C 1.27795 0.88383 0.88380
 C2352 C 1.29411 0.87649 0.87644
 C2353 C 1.20168 0.91597 0.91602
 C2354 C 1.18486 0.92252 0.92259
 C2355 C 1.25896 0.39257 0.39210
 N2356 N 1.24924 0.38286 0.40878
 N2357 N 1.23100 0.39049 0.41653
 C2358 C 1.22194 0.40807 0.40783
 N2359 N 1.23167 0.41780 0.39116
 N2360 N 1.24991 0.41017 0.38341
 C2361 C 1.27834 0.38407 0.38346
 C2362 C 1.29450 0.37676 0.37607
 C2363 C 1.20205 0.41600 0.41585
 C2364 C 1.18522 0.42252 0.42243
 C2365 C 0.75865 0.89291 0.39219
 N2366 N 0.74933 0.88376 0.40941
 N2367 N 0.73107 0.89141 0.41709
 C2368 C 0.72158 0.90845 0.40778
 N2369 N 0.73091 0.91761 0.39057
 N2370 N 0.74917 0.90996 0.38289
 C2371 C 0.77805 0.88437 0.38363
 C2372 C 0.79422 0.87705 0.37629
 C2373 C 0.70168 0.91638 0.41574
 C2374 C 0.68484 0.92289 0.42228
 C2375 C 0.75835 0.39279 0.89218
 N2376 N 0.74883 0.40989 0.88302
 N2377 N 0.73060 0.41750 0.89081
 C2378 C 0.72134 0.40824 0.90801
 N2379 N 0.73087 0.39115 0.91718
 N2380 N 0.74910 0.38354 0.90939
 C2381 C 0.77772 0.38430 0.88350
 C2382 C 0.79387 0.37700 0.87608
 C2383 C 0.70146 0.41612 0.91609
 C2384 C 0.68464 0.42261 0.92270
 C2385 C 0.74141 0.89279 1.10784
 N2386 N 0.75078 0.88353 1.09070
 N2387 N 0.76901 0.89119 1.08297
 C2388 C 0.77842 0.90834 1.09215
 N2389 N 0.76905 0.91760 1.10928
 N2390 N 0.75081 0.90994 1.11701
 C2391 C 0.72204 0.88424 1.11646
 C2392 C 0.70588 0.87692 1.12383
 C2393 C 0.79830 0.91628 1.08414
 C2394 C 0.81513 0.92280 1.07757
 C2395 C 0.74153 0.39233 0.60770
 N2396 N 0.75078 0.38325 0.59040
 N2397 N 0.76901 0.39091 0.58269
 C2398 C 0.77855 0.40790 0.59204
 N2399 N 0.76929 0.41699 0.60932
 N2400 N 0.75106 0.40932 0.61704
 C2401 C 0.72215 0.38378 0.61629
 C2402 C 0.70598 0.37646 0.62364
 C2403 C 0.79843 0.41585 0.58402
 C2404 C 0.81524 0.42239 0.57744
 C2405 C 0.24136 0.89244 0.60756
 N2406 N 0.25089 0.90938 0.61700
 N2407 N 0.26911 0.91710 0.60932
 C2408 C 0.27836 0.90811 0.59197
 N2409 N 0.26882 0.89118 0.58252
 N2410 N 0.25059 0.88346 0.59020
 C2411 C 0.22199 0.88384 0.61612
 C2412 C 0.20583 0.87647 0.62345
 C2413 C 0.29823 0.91611 0.58399
 C2414 C 0.31505 0.92267 0.57744
 C2415 C 0.24089 0.39271 1.10722
 N2416 N 0.25029 0.38357 1.09004
 N2417 N 0.26859 0.39123 1.08246
 C2418 C 0.27802 0.40826 1.09183
 N2419 N 0.26861 0.41741 1.10900
 N2420 N 0.25031 0.40975 1.11658
 C2421 C 0.22146 0.38416 1.11569
 C2422 C 0.20526 0.37683 1.12297
 C2423 C 0.29797 0.41618 1.08398
 C2424 C 0.31485 0.42268 1.07753
 C2425 C 0.74153 1.10792 0.89238
 N2426 N 0.75088 1.09071 0.88325
 N2427 N 0.76912 1.08304 0.89096
 C2428 C 0.77854 1.09234 0.90804
 N2429 N 0.76918 1.10954 0.91718
 N2430 N 0.75095 1.11721 0.90947
 C2431 C 0.72215 1.11647 0.88378
 C2432 C 0.70599 1.12380 0.87642
 C2433 C 0.79842 1.08437 0.91605
 C2434 C 0.81523 1.07781 0.92262
 C2435 C 0.74164 0.60731 0.39214
 N2436 N 0.75085 0.61639 0.40945
 N2437 N 0.76909 0.60874 0.41717
 C2438 C 0.77867 0.59178 0.40781
 N2439 N 0.76945 0.58269 0.39051
 N2440 N 0.75120 0.59033 0.38279
 C2441 C 0.72225 0.61584 0.38354
 C2442 C 0.70609 0.62317 0.37619
 C2443 C 0.79855 0.58385 0.41582
 C2444 C 0.81538 0.57733 0.42240
 C2445 C 0.24137 1.10778 0.39173
 N2446 N 0.25057 1.11697 0.40899
 N2447 N 0.26878 1.10933 0.41682
 C2448 C 0.27832 1.09227 0.40762
 N2449 N 0.26912 1.08306 0.39037
 N2450 N 0.25091 1.09070 0.38255
 C2451 C 0.22203 1.11629 0.38303
 C2452 C 0.20589 1.12361 0.37560
 C2453 C 0.29817 1.08434 0.41574
 C2454 C 0.31496 1.07781 0.42239
 C2455 C 0.24117 0.60749 0.89261
 N2456 N 0.25054 0.59033 0.88340
 N2457 N 0.26876 0.58261 0.89110
 C2458 C 0.27816 0.59182 0.90824
 N2459 N 0.26878 0.60896 0.91746
 N2460 N 0.25056 0.61668 0.90976
 C2461 C 0.22181 0.61609 0.88402
 C2462 C 0.20566 0.62345 0.87667
 C2463 C 0.29802 0.58381 0.91623
 C2464 C 0.31484 0.57724 0.92278
 C2465 C 1.10735 1.25900 1.10662
 N2466 N 1.11670 1.24934 1.08970
 N2467 N 1.10901 1.23103 1.08218
 C2468 C 1.09175 1.22184 1.09135
 N2469 N 1.08238 1.23152 1.10826
 N2470 N 1.09007 1.24982 1.11578
 C2471 C 1.11594 1.27842 1.11505
 C2472 C 1.12329 1.29460 1.12232
 C2473 C 1.08378 1.20189 1.08358
 C2474 C 1.07727 1.18500 1.07719
 C2475 C 1.10797 0.75856 0.60707
 N2476 N 1.09077 0.74930 0.61632
 N2477 N 1.08302 0.73105 0.60873
 C2478 C 1.09223 0.72151 0.59166
 N2479 N 1.10942 0.73077 0.58240
 N2480 N 1.11717 0.74902 0.58999
 C2481 C 1.11660 0.77795 0.61555
 C2482 C 1.12397 0.79411 0.62284
 C2483 C 1.08420 0.70162 0.58380
 C2484 C 1.07762 0.68478 0.57731
 C2485 C 0.60785 1.25879 0.60716
 N2486 N 0.61702 1.24927 0.59006
 N2487 N 0.60924 1.23105 0.58244
 C2488 C 0.59204 1.22179 0.59170
 N2489 N 0.58286 1.23132 0.60879
 N2490 N 0.59065 1.24954 0.61641
 C2491 C 0.61653 1.27814 0.61567
 C2492 C 0.62394 1.29428 0.62299
 C2493 C 0.58397 1.20192 0.58381
 C2494 C 0.57737 1.18510 0.57731
 C2495 C 0.60708 0.75865 1.10787
 N2496 N 0.61637 0.74921 1.09079
 N2497 N 0.60870 0.73097 1.08309
 C2498 C 0.59151 0.72162 1.09225
 N2499 N 0.58220 0.73107 1.10932
 N2500 N 0.58988 0.74931 1.11702
 C2501 C 0.61564 0.77802 1.11645
 C2502 C 0.62299 0.79417 1.12381
 C2503 C 0.58355 0.70173 1.08428
 C2504 C 0.57702 0.68490 1.07774
 C2505 C 0.89264 1.25875 0.89224
 N2506 N 0.88224 1.24837 0.90809
 N2507 N 0.88991 1.23015 0.91585
 C2508 C 0.90821 1.22177 0.90799
 N2509 N 0.91862 1.23215 0.89215
 N2510 N 0.91095 1.25037 0.88439
 C2511 C 0.88411 1.27810 0.88356
 C2512 C 0.87678 1.29424 0.87615
 C2513 C 0.91619 1.20190 0.91601
 C2514 C 0.92274 1.18509 0.92258
 C2515 C 0.89291 0.75865 0.39227
 N2516 N 0.88373 0.74934 0.40948
 N2517 N 0.89138 0.73109 0.41719
 C2518 C 0.90844 0.72160 0.40792
 N2519 N 0.91763 0.73092 0.39072
 N2520 N 0.90998 0.74917 0.38301
 C2521 C 0.88438 0.77804 0.38367
 C2522 C 0.87706 0.79420 0.37631
 C2523 C 0.91636 0.70171 0.41591
 C2524 C 0.92288 0.68487 0.42247
 C2525 C 0.39240 1.25897 0.39249
 N2526 N 0.40936 1.24942 0.38310
 N2527 N 0.41704 1.23118 0.39080
 C2528 C 0.40799 1.22195 0.40813
 N2529 N 0.39104 1.23151 0.41753
 N2530 N 0.38336 1.24975 0.40983
 C2531 C 0.38382 1.27834 0.38390
 C2532 C 0.37646 1.29449 0.37655
 C2533 C 0.41594 1.20206 0.41611
 C2534 C 0.42247 1.18523 0.42266
 C2535 C 0.39191 0.75856 0.89285
 N2536 N 0.38267 0.74910 0.90995
 N2537 N 0.39038 0.73086 0.91761
 C2538 C 0.40757 0.72153 0.90840
 N2539 N 0.41682 0.73100 0.89132
 N2540 N 0.40911 0.74924 0.88366
 C2541 C 0.38332 0.77794 0.88431
 C2542 C 0.37597 0.79410 0.87697
 C2543 C 0.41556 0.70164 0.91634
 C2544 C 0.42212 0.68480 0.92286
 C2545 C 1.10772 0.74134 0.89290
 N2546 N 1.11681 0.75075 0.91010
 N2547 N 1.10905 0.76900 0.91770
 C2548 C 1.09199 0.77838 0.90834
 N2549 N 1.08290 0.76896 0.89114
 N2550 N 1.09065 0.75071 0.88354
 C2551 C 1.11637 0.72196 0.88441
 C2552 C 1.12375 0.70580 0.87711
 C2553 C 1.08396 0.79828 0.91622
 C2554 C 1.07738 0.81511 0.92272
 C2555 C 1.10798 0.24135 0.39212
 N2556 N 1.09089 0.25080 0.38287
 N2557 N 1.08318 0.26901 0.39060
 C2558 C 1.09234 0.27833 0.40781
 N2559 N 1.10942 0.26888 0.41707
 N2560 N 1.11713 0.25067 0.40935
 C2561 C 1.11657 0.22200 0.38351
 C2562 C 1.12394 0.20587 0.37613
 C2563 C 1.08436 0.29820 0.41583
 C2564 C 1.07780 0.31501 0.42241
 C2565 C 0.60732 0.74151 0.39224
 N2566 N 0.61653 0.75089 0.40939
 N2567 N 0.60886 0.76914 0.41708
 C2568 C 0.59174 0.77855 0.40785
 N2569 N 0.58251 0.76916 0.39071
 N2570 N 0.59019 0.75092 0.38303
 C2571 C 0.61587 0.72213 0.38367
 C2572 C 0.62321 0.70597 0.37631
 C2573 C 0.58379 0.79844 0.41582
 C2574 C 0.57726 0.81528 0.42236
 C2575 C 0.60781 0.24145 0.89291
 N2576 N 0.61696 0.25093 0.91004
 N2577 N 0.60918 0.26915 0.91768
 C2578 C 0.59200 0.27844 0.90842
 N2579 N 0.58284 0.26895 0.89130
 N2580 N 0.59062 0.25073 0.88366
 C2581 C 0.61649 0.22210 0.88438
 C2582 C 0.62390 0.20597 0.87705
 C2583 C 0.58393 0.29831 0.91633
 C2584 C 0.57731 0.31512 0.92284
 C2585 C 0.89323 0.74096 1.10663
 N2586 N 0.88386 0.75053 1.08967
 N2587 N 0.89146 0.76886 1.08211
 C2588 C 0.90866 0.77816 1.09129
 N2589 N 0.91804 0.76858 1.10824
 N2590 N 0.91044 0.75025 1.11580
 C2591 C 0.88473 0.72150 1.11509
 C2592 C 0.87745 0.70529 1.12236
 C2593 C 0.91653 0.79814 1.08348
 C2594 C 0.92299 0.81505 1.07708
 C2595 C 0.89165 0.24172 0.60825
 N2596 N 0.88243 0.25116 0.59113
 N2597 N 0.89025 0.26930 0.58335
 C2598 C 0.90753 0.27854 0.59244
 N2599 N 0.91676 0.26909 0.60955
 N2600 N 0.90894 0.25095 0.61734
 C2601 C 0.88295 0.22243 0.61692
 C2602 C 0.87552 0.20635 0.62433
 C2603 C 0.91566 0.29832 0.58436
 C2604 C 0.92232 0.31506 0.57772
 C2605 C 0.39342 0.74094 0.60658
 N2606 N 0.38429 0.75023 0.58933
 N2607 N 0.39184 0.76856 0.58174
 C2608 C 0.40874 0.77816 0.59118
 N2609 N 0.41788 0.76886 0.60841
 N2610 N 0.41034 0.75053 0.61600
 C2611 C 0.38497 0.72148 0.61507
 C2612 C 0.37770 0.70527 0.62235
 C2613 C 0.41655 0.79815 0.58332
 C2614 C 0.42295 0.81506 0.57687
 C2615 C 0.39304 0.24099 1.10757
 N2616 N 0.41004 0.25052 1.11689
 N2617 N 0.41763 0.26881 1.10923
 C2618 C 0.40845 0.27812 1.09202
 N2619 N 0.39146 0.26858 1.08269
 N2620 N 0.38387 0.25029 1.09035
 C2621 C 0.38455 0.22158 1.11613
 C2622 C 0.37725 0.20540 1.12346
 C2623 C 0.41630 0.29806 1.08409
 C2624 C 0.42275 0.31494 1.07759
 C2625 C 1.10710 1.10719 0.74093
 N2626 N 1.08999 1.11641 0.75037
 N2627 N 1.08238 1.10877 0.76867
 C2628 C 1.09166 1.09167 0.77808
 N2629 N 1.10876 1.08243 0.76863
 N2630 N 1.11636 1.09008 0.75033
 C2631 C 1.11560 1.11572 0.72149
 C2632 C 1.12290 1.12303 0.70529
 C2633 C 1.08377 1.08375 0.79803
 C2634 C 1.07729 1.07725 0.81491
 C2635 C 1.10772 0.60856 0.24148
 N2636 N 1.11610 0.59053 0.24995
 N2637 N 1.10849 0.58265 0.26815
 C2638 C 1.09227 0.59256 0.27843
 N2639 N 1.08387 0.61058 0.26995
 N2640 N 1.09148 0.61846 0.25175
 C2641 C 1.11622 0.61730 0.22214
 C2642 C 1.12354 0.62474 0.20600
 C2643 C 1.08439 0.58436 0.29827
 C2644 C 1.07788 0.57767 0.31506
 C2645 C 0.60682 1.10776 0.24098
 N2646 N 0.61550 1.09009 0.24988
 N2647 N 0.60788 1.08239 0.26815
 C2648 C 0.59134 1.09215 0.27807
 N2649 N 0.58265 1.10981 0.26917
 N2650 N 0.59027 1.11751 0.25090
 C2651 C 0.61536 1.11634 0.22158
 C2652 C 0.62269 1.12369 0.20542
 C2653 C 0.58346 1.08417 0.29800
 C2654 C 0.57699 1.07762 0.31486
 C2655 C 0.60681 0.60709 0.74124
 N2656 N 0.59032 0.61695 0.75115
 N2657 N 0.58266 0.60933 0.76944
 C2658 C 0.59126 0.59164 0.77837
 N2659 N 0.60773 0.58177 0.76845
 N2660 N 0.61539 0.58938 0.75016
 C2661 C 0.61537 0.61558 0.72182
 C2662 C 0.62272 0.62287 0.70563
 C2663 C 0.58335 0.58373 0.79831
 C2664 C 0.57686 0.57724 0.81519
 C2665 C 0.89322 0.89340 0.74090
 N2666 N 0.91034 0.88417 0.75031
 N2667 N 0.91793 0.89176 0.76863
 C2668 C 0.90863 0.90882 0.77809
 N2669 N 0.89152 0.91807 0.76867
 N2670 N 0.88393 0.91047 0.75036
 C2671 C 0.88472 0.88490 0.72146
 C2672 C 0.87743 0.87759 0.70526
 C2673 C 0.91649 0.91668 0.79806
 C2674 C 0.92295 0.92313 0.81496
 C2675 C 0.89314 0.39244 0.24110
 N2676 N 0.91029 0.38326 0.25051
 N2677 N 0.91795 0.39098 0.26876
 C2678 C 0.90868 0.40810 0.27813
 N2679 N 0.89154 0.41729 0.26871
 N2680 N 0.88388 0.40957 0.25047
 C2681 C 0.88456 0.38380 0.22175
 C2682 C 0.87719 0.37639 0.20563
 C2683 C 0.91659 0.41608 0.29805
 C2684 C 0.92308 0.42261 0.31491
 C2685 C 0.39303 0.89271 0.24101
 N2686 N 0.41024 0.88367 0.25045
 N2687 N 0.41779 0.89143 0.26872
 C2688 C 0.40835 0.90846 0.27810
 N2689 N 0.39116 0.91751 0.26865
 N2690 N 0.38361 0.90975 0.25038
 C2691 C 0.38458 0.88403 0.22162
 C2692 C 0.37730 0.87662 0.20547
 C2693 C 0.41616 0.91648 0.29802
 C2694 C 0.42260 0.92304 0.31489
 C2695 C 0.39194 0.39143 0.74179
 N2696 N 0.40921 0.38242 0.75115
 N2697 N 0.41688 0.39025 0.76935
 C2698 C 0.40751 0.40732 0.77873
 N2699 N 0.39026 0.41633 0.76936
 N2700 N 0.38259 0.40851 0.75116
 C2701 C 0.38341 0.38272 0.72245
 C2702 C 0.37608 0.37529 0.70631
 C2703 C 0.41548 0.41544 0.79856
 C2704 C 0.42205 0.42210 0.81535
 C2705 C 1.10771 0.89136 1.25866
 N2706 N 1.11571 0.90965 1.25039
 N2707 N 1.10803 0.91750 1.23221
 C2708 C 1.09211 0.90730 1.22175
 N2709 N 1.08409 0.88903 1.23003
 N2710 N 1.09178 0.88117 1.24821
 C2711 C 1.11630 0.88265 1.27798
 C2712 C 1.12368 0.87523 1.29410
 C2713 C 1.08416 0.91549 1.20193
 C2714 C 1.07761 0.92219 1.18515
 C2715 C 1.10702 0.39206 0.75875
 N2716 N 1.11555 0.40991 0.75006
 N2717 N 1.10798 0.41765 0.73179
 C2718 C 1.09163 0.40779 0.72167
 N2719 N 1.08309 0.38995 0.73038
 N2720 N 1.09066 0.38221 0.74864
 C2721 C 1.11550 0.38345 0.77816
 C2722 C 1.12279 0.37609 0.79434
 C2723 C 1.08380 0.41583 0.70175
 C2724 C 1.07735 0.42241 0.68490
 C2725 C 0.60686 0.89304 0.75884
 N2726 N 0.61539 0.91081 0.75002
 N2727 N 0.60778 0.91845 0.73171
 C2728 C 0.59141 0.90853 0.72169
 N2729 N 0.58286 0.89077 0.73053
 N2730 N 0.59047 0.88313 0.74883
 C2731 C 0.61538 0.88453 0.77828
 C2732 C 0.62268 0.87723 0.79447
 C2733 C 0.58355 0.91646 0.70174
 C2734 C 0.57710 0.92296 0.68486
 C2735 C 0.60727 0.39274 1.25925
 N2736 N 0.61596 0.41034 1.25023
 N2737 N 0.60825 0.41799 1.23197
 C2738 C 0.59162 0.40827 1.22219
 N2739 N 0.58291 0.39068 1.23123
 N2740 N 0.59062 0.38303 1.24948
 C2741 C 0.61588 0.38420 1.27863
 C2742 C 0.62325 0.37688 1.29480
 C2743 C 0.58365 0.41621 1.20229
 C2744 C 0.57711 0.42273 1.18544
 C2745 C 0.89276 1.10726 1.25915
 N2746 N 0.90987 1.11651 1.24975
 N2747 N 0.91754 1.10887 1.23148
 C2748 C 0.90833 1.09174 1.22206
 N2749 N 0.89123 1.08248 1.23147
 N2750 N 0.88355 1.09013 1.24974
 C2751 C 0.88419 1.11580 1.27856
 C2752 C 0.87685 1.12313 1.29473
 C2753 C 0.91628 1.08382 1.20214
 C2754 C 0.92280 1.07732 1.18528
 C2755 C 0.89291 0.60689 0.75883
 N2756 N 0.88369 0.58978 0.74939
 N2757 N 0.89136 0.58216 0.73110
 C2758 C 0.90847 0.59143 0.72170
 N2759 N 0.91769 0.60853 0.73115
 N2760 N 0.91003 0.61615 0.74944
 C2761 C 0.88435 0.61540 0.77824
 C2762 C 0.87701 0.62272 0.79442
 C2763 C 0.91641 0.58354 0.70177
 C2764 C 0.92293 0.57706 0.68490
 C2765 C 0.39293 1.10775 0.75877
 N2766 N 0.40994 1.11701 0.74919
 N2767 N 0.41753 1.10927 0.73092
 C2768 C 0.40833 1.09204 0.72168
 N2769 N 0.39133 1.08277 0.73127
 N2770 N 0.38374 1.09051 0.74954
 C2771 C 0.38445 1.11638 0.77817
 C2772 C 0.37715 1.12375 0.79434
 C2773 C 0.41619 1.08403 0.70176
 C2774 C 0.42266 1.07746 0.68491
 C2775 C 0.39220 0.60848 1.25882
 N2776 N 0.38290 0.59130 1.24959
 N2777 N 0.39052 0.58343 1.23139
 C2778 C 0.40768 0.59249 1.22188
 N2779 N 0.41699 0.60966 1.23112
 N2780 N 0.40937 0.61754 1.24931
 C2781 C 0.38370 0.61725 1.27815
 C2782 C 0.37638 0.62471 1.29428
 C2783 C 0.41558 0.58432 1.20204
 C2784 C 0.42211 0.57764 1.18525
 C2785 C 1.10745 1.25863 0.89264
 N2786 N 1.11675 1.24919 0.90972
 N2787 N 1.10911 1.23094 0.91740
 C2788 C 1.09193 1.22157 0.90824
 N2789 N 1.08262 1.23101 0.89117
 N2790 N 1.09027 1.24927 0.88349
 C2791 C 1.11598 1.27802 0.88407
 C2792 C 1.12330 1.29419 0.87672
 C2793 C 1.08400 1.20166 0.91620
 C2794 C 1.07748 1.18482 0.92272
 C2795 C 1.10809 0.75836 0.39168
 N2796 N 1.11750 0.74890 0.40868
 N2797 N 1.10982 0.73072 0.41648
 C2798 C 1.09248 0.72144 0.40753
 N2799 N 1.08306 0.73090 0.39054
 N2800 N 1.09074 0.74909 0.38273
 C2801 C 1.11663 0.77770 0.38299
 C2802 C 1.12396 0.79384 0.37556
 C2803 C 1.08450 0.70161 0.41563
 C2804 C 1.07792 0.68483 0.42227
 C2805 C 0.60699 1.25900 0.39265
 N2806 N 0.61617 1.24967 0.40985
 N2807 N 0.60855 1.23140 0.41752
 C2808 C 0.59151 1.22192 0.40822
 N2809 N 0.58231 1.23126 0.39104
 N2810 N 0.58993 1.24953 0.38337
 C2811 C 0.61551 1.27840 0.38409
 C2812 C 0.62282 1.29457 0.37674
 C2813 C 0.58361 1.20199 0.41617
 C2814 C 0.57713 1.18514 0.42268
 C2815 C 0.60677 0.75889 0.89324
 N2816 N 0.61602 0.74942 0.91032
 N2817 N 0.60836 0.73113 0.91793
 C2818 C 0.59122 0.72178 0.90868
 N2819 N 0.58196 0.73127 0.89162
 N2820 N 0.58962 0.74955 0.88401
 C2821 C 0.61532 0.77831 0.88474
 C2822 C 0.62264 0.79449 0.87744
 C2823 C 0.58328 0.70185 0.91656
 C2824 C 0.57677 0.68499 0.92304
 C2825 C 0.89251 1.25855 1.10801
 N2826 N 0.90365 1.24517 1.12081
 N2827 N 0.91139 1.22694 1.11315
 C2828 C 0.90823 1.22154 1.09246
 N2829 N 0.89710 1.23493 1.07965
 N2830 N 0.88935 1.25316 1.08731
 C2831 C 0.88384 1.27797 1.11640
 C2832 C 0.87644 1.29415 1.12365
 C2833 C 0.91619 1.20170 1.08437
 C2834 C 0.92273 1.18490 1.07776
 C2835 C 0.89325 0.75898 0.60677
 N2836 N 0.88377 0.74933 0.58992
 N2837 N 0.89139 0.73102 0.58233
 C2838 C 0.90872 0.72181 0.59137
 N2839 N 0.91822 0.73147 0.60820
 N2840 N 0.91060 0.74978 0.61579
 C2841 C 0.88474 0.77842 0.61526
 C2842 C 0.87743 0.79462 0.62254
 C2843 C 0.91662 0.70185 0.58352
 C2844 C 0.92309 0.68495 0.57708
 C2845 C 0.39213 1.25842 0.60872
 N2846 N 0.40822 1.24807 0.61878
 N2847 N 0.41589 1.22990 0.61090
 C2848 C 0.40771 1.22153 0.59274
 N2849 N 0.39163 1.23188 0.58267
 N2850 N 0.38396 1.25005 0.59055
 C2851 C 0.38356 1.27774 0.61745
 C2852 C 0.37620 1.29385 0.62489
 C2853 C 0.41565 1.20172 0.58453
 C2854 C 0.42220 1.18496 0.57782
 C2855 C 0.39247 0.75880 1.10754
 N2856 N 0.38335 0.74952 1.09028
 N2857 N 0.39096 0.73124 1.08263
 C2858 C 0.40793 0.72168 1.09201
 N2859 N 0.41706 0.73097 1.10925
 N2860 N 0.40945 0.74926 1.11690
 C2861 C 0.38397 0.77823 1.11607
 C2862 C 0.37667 0.79443 1.12338
 C2863 C 0.41582 0.70175 1.08407
 C2864 C 0.42231 0.68489 1.07757
 C2865 C 0.89275 0.74127 0.89298
 N2866 N 0.88353 0.75070 0.91011
 N2867 N 0.89119 0.76898 0.91773
 C2868 C 0.90829 0.77837 0.90845
 N2869 N 0.91752 0.76893 0.89133
 N2870 N 0.90986 0.75066 0.88371
 C2871 C 0.88420 0.72186 0.88447
 C2872 C 0.87688 0.70568 0.87717
 C2873 C 0.91622 0.79830 0.91633
 C2874 C 0.92272 0.81517 0.92281
 C2875 C 0.89321 0.24104 0.39254
 N2876 N 0.91023 0.25055 0.38322
 N2877 N 0.91785 0.26882 0.39090
 C2878 C 0.90869 0.27812 0.40813
 N2879 N 0.89169 0.26860 0.41746
 N2880 N 0.88406 0.25033 0.40978
 C2881 C 0.88468 0.22165 0.38397
 C2882 C 0.87736 0.20549 0.37662
 C2883 C 0.91658 0.29804 0.41608
 C2884 C 0.92305 0.31490 0.42260
 C2885 C 0.39213 0.74177 0.39161
 N2886 N 0.38300 0.75100 0.40889
 N2887 N 0.39067 0.76920 0.41667
 C2888 C 0.40771 0.77872 0.40740
 N2889 N 0.41686 0.76949 0.39013
 N2890 N 0.40918 0.75128 0.38235
 C2891 C 0.38358 0.72241 0.38296
 C2892 C 0.37625 0.70627 0.37557
 C2893 C 0.41568 0.79857 0.41549
 C2894 C 0.42224 0.81535 0.42212
 C2895 C 0.39242 0.24117 0.89270
 N2896 N 0.38315 0.25058 0.90982
 N2897 N 0.39081 0.26881 0.91752
 C2898 C 0.40798 0.27820 0.90834
 N2899 N 0.41726 0.26879 0.89124
 N2900 N 0.40959 0.25055 0.88354
 C2901 C 0.38387 0.22180 0.88410
 C2902 C 0.37655 0.20564 0.87674
 C2903 C 0.41591 0.29809 0.91632
 C2904 C 0.42244 0.31493 0.92286
 C2905 C 1.10795 0.74171 1.10840
 N2906 N 1.11990 0.75379 1.09506
 N2907 N 1.11223 0.77198 1.08725
 C2908 C 1.09237 0.77864 1.09254
 N2909 N 1.08040 0.76655 1.10588
 N2910 N 1.08808 0.74836 1.11369
 C2911 C 1.11640 0.72234 1.11714
 C2912 C 1.12368 0.70619 1.12457
 C2913 C 1.08431 0.79846 1.08448
 C2914 C 1.07769 0.81523 1.07786
 C2915 C 1.10670 0.24088 0.60726
 N2916 N 1.08965 0.25045 0.61646
 N2917 N 1.08214 0.26875 0.60874
 C2918 C 1.09145 0.27802 0.59158
 N2919 N 1.10849 0.26844 0.58236
 N2920 N 1.11600 0.25014 0.59008
 C2921 C 1.11511 0.22145 0.61588
 C2922 C 1.12236 0.20527 0.62325
 C2923 C 1.08368 0.29797 0.58359
 C2924 C 1.07727 0.31486 0.57706
 C2925 C 0.60701 0.74125 0.60684
 N2926 N 0.61637 0.75075 0.58983
 N2927 N 0.60876 0.76905 0.58220
 C2928 C 0.59156 0.77839 0.59136
 N2929 N 0.58218 0.76888 0.60835
 N2930 N 0.58979 0.75058 0.61598
 C2931 C 0.61551 0.72182 0.61536
 C2932 C 0.62280 0.70563 0.62268
 C2933 C 0.58366 0.79833 0.58346
 C2934 C 0.57718 0.81521 0.57698
 C2935 C 0.60734 0.24125 1.10736
 N2936 N 0.61666 0.25084 1.09037
 N2937 N 0.60895 0.26911 1.08279
 C2938 C 0.59170 0.27835 1.09196
 N2939 N 0.58237 0.26875 1.10893
 N2940 N 0.59008 0.25048 1.11652
 C2941 C 0.61593 0.22184 1.11583
 C2942 C 0.62328 0.20565 1.12313
 C2943 C 0.58370 0.29827 1.08410
 C2944 C 0.57715 0.31512 1.07763
 C2945 C 1.25880 1.10760 0.89299
 N2946 N 1.24952 1.09044 0.88372
 N2947 N 1.23127 1.08269 0.89131
 C2948 C 1.22176 1.09187 0.90842
 N2949 N 1.23105 1.10902 0.91770
 N2950 N 1.24930 1.11677 0.91011
 C2951 C 1.27818 1.11625 0.88451
 C2952 C 1.29433 1.12364 0.87721
 C2953 C 1.20186 1.08384 0.91628
 C2954 C 1.18502 1.07727 0.92276
 C2955 C 1.25869 0.60808 0.39220
 N2956 N 1.24942 0.59087 0.38299
 N2957 N 1.23123 0.58307 0.39069
 C2958 C 1.22177 0.59224 0.40781
 N2959 N 1.23104 0.60945 0.41703
 N2960 N 1.24923 0.61725 0.40933
 C2961 C 1.27801 0.61677 0.38362
 C2962 C 1.29412 0.62419 0.37625
 C2963 C 1.20193 0.58416 0.41579
 C2964 C 1.18514 0.57753 0.42235
 C2965 C 0.75883 1.10703 0.39250
 N2966 N 0.74934 1.08996 0.38325
 N2967 N 0.73105 1.08238 0.39093
 C2968 C 0.72170 1.09164 0.40807
 N2969 N 0.73120 1.10870 0.41733
 N2970 N 0.74949 1.11628 0.40966
 C2971 C 0.77825 1.11550 0.38393
 C2972 C 0.79444 1.12277 0.37660
 C2973 C 0.70176 1.08379 0.41602
 C2974 C 0.68489 1.07734 0.42254
 C2975 C 0.75845 0.60704 0.89303
 N2976 N 0.74899 0.58997 0.88374
 N2977 N 0.73071 0.58235 0.89138
 C2978 C 0.72133 0.59157 0.90854
 N2979 N 0.73079 0.60862 0.91784
 N2980 N 0.74908 0.61624 0.91020
 C2981 C 0.77787 0.61555 0.88450
 C2982 C 0.79405 0.62285 0.87719
 C2983 C 0.70140 0.58367 0.91646
 C2984 C 0.68453 0.57719 0.92296
 C2985 C 1.25889 0.89244 1.10692
 N2986 N 1.24976 0.90980 1.11600
 N2987 N 1.23149 0.91753 1.10844
 C2988 C 1.22179 0.90813 1.09156
 N2989 N 1.23093 0.89079 1.08247
 N2990 N 1.24921 0.88306 1.09003
 C2991 C 1.27829 0.88382 1.11538
 C2992 C 1.29446 0.87646 1.12267
 C2993 C 1.20187 0.91613 1.08375
 C2994 C 1.18500 0.92268 1.07732
 C2995 C 1.25848 0.39179 0.60816
 N2996 N 1.24907 0.38252 0.59105
 N2997 N 1.23090 0.39028 0.58326
 C2998 C 1.22160 0.40754 0.59235
 N2999 N 1.23101 0.41682 0.60944
 N3000 N 1.24918 0.40907 0.61723
 C3001 C 1.27779 0.38316 0.61683
 C3002 C 1.29389 0.37577 0.62425
 C3003 C 1.20179 0.41559 0.58426
 C3004 C 1.18502 0.42221 0.57763
 C3005 C 0.75897 0.89327 0.60661
 N3006 N 0.74969 0.91053 0.61571
 N3007 N 0.73138 0.91815 0.60811
 C3008 C 0.72181 0.90873 0.59118
 N3009 N 0.73110 0.89148 0.58206
 N3010 N 0.74941 0.88387 0.58966
 C3011 C 0.77840 0.88476 0.61511
 C3012 C 0.79459 0.87747 0.62241
 C3013 C 0.70185 0.91662 0.58332
 C3014 C 0.68496 0.92309 0.57687
 C3015 C 0.75766 0.39123 1.10831
 N3016 N 0.75773 0.40493 1.09159
 N3017 N 0.73949 0.41274 1.08401
 C3018 C 0.72064 0.40709 1.09295
 N3019 N 0.72058 0.39340 1.10966
 N3020 N 0.73881 0.38559 1.11723
 C3021 C 0.77725 0.38278 1.11651
 C3022 C 0.79357 0.37556 1.12360
 C3023 C 0.70096 0.41539 1.08480
 C3024 C 0.68428 0.42216 1.07812
 C3025 C 0.74128 1.10780 1.10700
 N3026 N 0.75073 1.11688 1.08981
 N3027 N 0.76901 1.10915 1.08226
 C3028 C 0.77839 1.09211 1.09167
 N3029 N 0.76894 1.08302 1.10884
 N3030 N 0.75066 1.09075 1.11640
 C3031 C 0.72186 1.11642 1.11543
 C3032 C 0.70567 1.12378 1.12269
 C3033 C 0.79832 1.08410 1.08384
 C3034 C 0.81518 1.07754 1.07739
 C3035 C 0.74121 0.60692 0.60695
 N3036 N 0.75052 0.61604 0.58971
 N3037 N 0.76882 0.60843 0.58208
 C3038 C 0.77836 0.59146 0.59146
 N3039 N 0.76904 0.58232 0.60869
 N3040 N 0.75074 0.58994 0.61632
 C3041 C 0.72179 0.61543 0.61547
 C3042 C 0.70560 0.62274 0.62277
 C3043 C 0.79830 0.58358 0.58356
 C3044 C 0.81518 0.57711 0.57708
 C3045 C 0.24078 1.10673 0.60734
 N3046 N 0.25043 1.08981 0.61670
 N3047 N 0.26873 1.08227 0.60901
 C3048 C 0.27792 1.09142 0.59172
 N3049 N 0.26826 1.10832 0.58234
 N3050 N 0.24997 1.11586 0.59004
 C3051 C 0.22135 1.11517 0.61593
 C3052 C 0.20517 1.12244 0.62329
 C3053 C 0.29788 1.08362 0.58375
 C3054 C 0.31476 1.07721 0.57723
 C3055 C 0.24122 0.60794 1.10806
 N3056 N 0.25072 0.59097 1.11750
 N3057 N 0.26890 0.58318 1.10980
 C3058 C 0.27815 0.59211 1.09242
 N3059 N 0.26864 0.60906 1.08297
 N3060 N 0.25045 0.61685 1.09067
 C3061 C 0.22190 0.61663 1.11664
 C3062 C 0.20579 0.62406 1.12400
 C3063 C 0.29798 0.58404 1.08443
 C3064 C 0.31478 0.57742 1.07786
 C3065 C 0.74109 0.89317 0.89314
 N3066 N 0.75046 0.88404 0.91035
 N3067 N 0.76875 0.89169 0.91794
 C3068 C 0.77823 0.90869 0.90856
 N3069 N 0.76885 0.91783 0.89136
 N3070 N 0.75056 0.91019 0.88377
 C3071 C 0.72167 0.88463 0.88465
 C3072 C 0.70549 0.87730 0.87736
 C3073 C 0.79817 0.91660 0.91642
 C3074 C 0.81505 0.92309 0.92288
 C3075 C 0.74132 0.39306 0.39249
 N3076 N 0.75102 0.40988 0.38301
 N3077 N 0.76930 0.41746 0.39069
 C3078 C 0.77845 0.40843 0.40807
 N3079 N 0.76874 0.39162 0.41755
 N3080 N 0.75046 0.38404 0.40988
 C3081 C 0.72190 0.38459 0.38393
 C3082 C 0.70571 0.37732 0.37661
 C3083 C 0.79838 0.41627 0.41603
 C3084 C 0.81525 0.42272 0.42256
 C3085 C 0.24143 0.89211 0.39197
 N3086 N 0.25097 0.90902 0.38250
 N3087 N 0.26915 0.91682 0.39023
 C3088 C 0.27832 0.90793 0.40767
 N3089 N 0.26877 0.89102 0.41714
 N3090 N 0.25060 0.88323 0.40941
 C3091 C 0.22212 0.88342 0.38336
 C3092 C 0.20603 0.87598 0.37599
 C3093 C 0.29814 0.91600 0.41569
 C3094 C 0.31492 0.92261 0.42229
 C3095 C 0.24096 0.39223 0.89320
 N3096 N 0.25036 0.40929 0.88385
 N3097 N 0.26862 0.41701 0.89147
 C3098 C 0.27801 0.40790 0.90866
 N3099 N 0.26860 0.39085 0.91802
 N3100 N 0.25035 0.38313 0.91041
 C3101 C 0.22159 0.38361 0.88468
 C3102 C 0.20545 0.37624 0.87735
 C3103 C 0.29792 0.41589 0.91655
 C3104 C 0.31476 0.42244 0.92303
   
