data_POSCAR
  _audit_creation_date              2014-09-24
  _audit_creation_method            'ToBaCCo'
  _symmetry_space_group_name_H-M    'P1'
  _symmetry_Int_Tables_number       1
  _symmetry_cell_setting            triclinic
  loop_
  _symmetry_equiv_pos_as_xyz
 x,y,z
_cell_length_a 47.1974
_cell_length_b 47.3033
_cell_length_c 49.6795
_cell_angle_alpha 89.891900
_cell_angle_beta 89.902600
_cell_angle_gamma 90.289900
loop_
  _atom_site_label
  _atom_site_type_symbol
  _atom_site_fract_x
  _atom_site_fract_y
  _atom_site_fract_z
O1 O 0.34264 0.30908 -0.01592
 O2 O 0.30694 0.35452 0.03357
 O3 O 0.34589 0.31586 0.03585
 O4 O 0.30437 0.34874 -0.01840
 O5 O 0.27080 0.31669 -0.01284
 O6 O 0.31276 0.28315 0.04080
 O7 O 0.27328 0.32225 0.03838
 O8 O 0.30929 0.27666 -0.01076
 Cu9 Cu 0.32831 0.33527 0.00821
 Cu10 Cu 0.28824 0.29637 0.01442
 C11 C 0.33234 0.28492 -0.02148
 C12 C 0.28370 0.34633 0.04396
 C13 C 0.33664 0.29363 0.04729
 C14 C 0.28010 0.33886 -0.02445
 O15 O 0.65894 0.59114 0.02889
 O16 O 0.61172 0.62803 -0.01914
 O17 O 0.65025 0.58962 -0.02366
 O18 O 0.61861 0.62763 0.03315
 O19 O 0.64905 0.66275 0.02725
 O20 O 0.68405 0.62179 -0.02668
 O21 O 0.64476 0.66070 -0.02471
 O22 O 0.68976 0.62613 0.02491
 Cu23 Cu 0.63173 0.60561 0.00524
 Cu24 Cu 0.67008 0.64621 -0.00037
 C25 C 0.68226 0.60285 0.03547
 C26 C 0.62048 0.65072 -0.03023
 C27 C 0.67267 0.59891 -0.03482
 C28 C 0.62821 0.65173 0.03975
 O29 O 0.61113 0.37124 1.01666
 O30 O 0.66026 0.39344 0.96263
 O31 O 0.61582 0.36428 0.96227
 O32 O 0.65799 0.40389 1.01140
 O33 O 0.67829 0.36448 1.02496
 O34 O 0.64106 0.32609 0.97076
 O35 O 0.68774 0.35747 0.97343
 O36 O 0.63491 0.33163 1.02212
 Cu37 Cu 0.63269 0.38643 0.98836
 Cu38 Cu 0.66320 0.34105 0.99837
 C39 C 0.61453 0.34762 1.02848
 C40 C 0.68309 0.37969 0.95973
 C41 C 0.62191 0.33870 0.95744
 C42 C 0.67532 0.39114 1.02668
 O43 O 0.41212 0.62840 1.01829
 O44 O 0.36780 0.59270 0.96757
 O45 O 0.40721 0.63060 0.96608
 O46 O 0.37323 0.58975 1.02043
 O47 O 0.34008 0.62217 1.02400
 O48 O 0.37543 0.66435 0.97110
 O49 O 0.33531 0.62584 0.97200
 O50 O 0.37940 0.66124 1.02288
 Cu51 Cu 0.39324 0.60692 0.99268
 Cu52 Cu 0.35423 0.64666 0.99793
 C53 C 0.40331 0.65100 1.02920
 C54 C 0.34420 0.60342 0.96092
 C55 C 0.39729 0.65453 0.95954
 C56 C 0.35092 0.59896 1.03170
 O57 O 0.03345 0.34277 0.38338
 O58 O -0.01869 0.37231 0.33662
 O59 O -0.02149 0.33667 0.37630
 O60 O 0.03588 0.37707 0.34271
 O61 O 0.04453 0.34018 0.31677
 O62 O -0.01435 0.30151 0.34808
 O63 O -0.01034 0.33768 0.30804
 O64 O 0.03912 0.30588 0.35668
 Cu65 Cu 0.00649 0.36077 0.36256
 Cu66 Cu 0.01526 0.31781 0.32942
 C67 C 0.04513 0.31933 0.37803
 C68 C -0.02326 0.36029 0.31424
 C69 C -0.02771 0.31201 0.36786
 C70 C 0.05040 0.36505 0.32450
 O71 O 0.04369 0.67127 0.62847
 O72 O -0.01541 0.63303 0.66199
 O73 O -0.01091 0.66605 0.62026
 O74 O 0.03908 0.63484 0.66836
 O75 O 0.03230 0.67060 0.69617
 O76 O -0.01530 0.70359 0.64611
 O77 O -0.02273 0.67051 0.68750
 O78 O 0.03795 0.70645 0.65700
 Cu79 Cu 0.01484 0.64767 0.64204
 Cu80 Cu 0.00739 0.69127 0.67454
 C81 C 0.05080 0.69562 0.63715
 C82 C -0.02941 0.64573 0.68016
 C83 C -0.02148 0.69026 0.62463
 C84 C 0.04396 0.64716 0.69051
 O85 O 1.02853 0.63782 0.32742
 O86 O 0.96853 0.66445 0.36774
 O87 O 0.97534 0.62466 0.33164
 O88 O 1.02160 0.67723 0.36409
 O89 O 1.01873 0.70403 0.32784
 O90 O 0.96435 0.65600 0.30034
 O91 O 0.96246 0.69785 0.33719
 O92 O 1.01640 0.66576 0.29374
 Cu93 Cu 0.99935 0.64796 0.35103
 Cu94 Cu 0.98852 0.68457 0.31227
 C95 C 1.03229 0.64673 0.30345
 C96 C 0.95601 0.68648 0.35954
 C97 C 0.96213 0.63137 0.31038
 C98 C 1.02942 0.69888 0.35080
 O99 O 0.97406 0.34318 0.60771
 O100 O 1.02599 0.38834 0.64256
 O101 O 1.02888 0.35160 0.60351
 O102 O 0.97181 0.37831 0.64785
 O103 O 0.97989 0.34321 0.67605
 O104 O 1.03649 0.31715 0.63250
 O105 O 1.03358 0.35400 0.67177
 O106 O 0.98306 0.30819 0.63592
 Cu107 Cu 0.99940 0.36883 0.62248
 Cu108 Cu 1.00919 0.32728 0.65699
 C109 C 0.96992 0.31799 0.61571
 C110 C 1.03832 0.37902 0.66342
 C111 C 1.04218 0.32936 0.61035
 C112 C 0.96613 0.36517 0.66959
 O113 O 0.37243 0.03105 0.30931
 O114 O 0.32904 -0.02419 0.34281
 O115 O 0.36886 -0.02407 0.30591
 O116 O 0.33437 0.03006 0.34749
 O117 O 0.30247 0.03683 0.31562
 O118 O 0.33552 -0.01940 0.27514
 O119 O 0.29562 -0.01787 0.31244
 O120 O 0.33971 0.03457 0.27778
 Cu121 Cu 0.35453 0.00257 0.32945
 Cu122 Cu 0.31488 0.00878 0.29223
 C123 C 0.36341 0.04198 0.28753
 C124 C 0.30451 -0.02984 0.33366
 C125 C 0.35835 -0.03070 0.28326
 C126 C 0.31281 0.04287 0.33851
 O127 O 0.62161 0.03594 0.67207
 O128 O 0.64919 -0.01720 0.62482
 O129 O 0.62616 -0.01875 0.67216
 O130 O 0.64492 0.03828 0.62459
 O131 O 0.68733 0.04144 0.64311
 O132 O 0.66826 -0.01490 0.69113
 O133 O 0.69150 -0.01304 0.64339
 O134 O 0.66378 0.03947 0.69095
 Cu135 Cu 0.63127 0.00927 0.64640
 Cu136 Cu 0.68198 0.01366 0.66895
 C137 C 0.63784 0.04640 0.68988
 C138 C 0.67508 -0.02421 0.62618
 C139 C 0.64388 -0.02635 0.68996
 C140 C 0.66940 0.04950 0.62573
 O141 O 0.37117 0.96268 0.67955
 O142 O 0.33009 1.01569 0.64174
 O143 O 0.36434 1.01678 0.68305
 O144 O 0.33819 0.96153 0.63736
 O145 O 0.30219 0.95311 0.66484
 O146 O 0.32705 1.01042 0.70940
 O147 O 0.29342 1.00720 0.66817
 O148 O 0.33444 0.95547 0.70643
 Cu149 Cu 0.35464 0.98996 0.65772
 Cu150 Cu 0.31062 0.98091 0.68998
 C151 C 0.35962 0.94997 0.69931
 C152 C 0.30452 1.02028 0.64844
 C153 C 0.35010 1.02316 0.70382
 C154 C 0.31597 0.94773 0.64350
 O155 O 0.64726 1.02518 0.37668
 O156 O 0.62690 0.96953 0.32864
 O157 O 0.66408 0.97326 0.36766
 O158 O 0.61200 1.02134 0.33634
 O159 O 0.64599 1.03900 0.31059
 O160 O 0.69587 0.98679 0.33765
 O161 O 0.65741 0.98693 0.29915
 O162 O 0.68224 1.03793 0.34978
 Cu163 Cu 0.63438 0.99572 0.35528
 Cu164 Cu 0.67373 1.01401 0.32144
 C165 C 0.66868 1.04074 0.37174
 C166 C 0.63771 0.96964 0.30524
 C167 C 0.68898 0.97185 0.35790
 C168 C 0.62032 1.03855 0.31824
 C169 C 0.84445 0.81358 0.48853
 C170 C 0.84639 0.81905 0.51656
 C171 C 0.82668 0.83742 0.52837
 C172 C 0.80560 0.85057 0.51315
 C173 C 0.80268 0.84400 0.48562
 C174 C 0.82216 0.82557 0.47361
 H175 H 0.82061 0.82145 0.45220
 H176 H 0.82817 0.84234 0.54964
 C177 C 0.17677 0.19256 0.48823
 C178 C 0.18064 0.19612 0.51620
 C179 C 0.20297 0.18195 0.52885
 C180 C 0.22017 0.16279 0.51486
 C181 C 0.21579 0.15865 0.48690
 C182 C 0.19458 0.17431 0.47391
 H183 H 0.19058 0.17095 0.45266
 H184 H 0.20598 0.18465 0.55034
 C185 C 0.18146 0.79278 0.50000
 C186 C 0.17407 0.79738 0.47256
 C187 C 0.19102 0.81607 0.45725
 C188 C 0.21299 0.83195 0.46904
 C189 C 0.21660 0.83098 0.49732
 C190 C 0.20185 0.81033 0.51207
 H191 H 0.20555 0.80841 0.53350
 H192 H 0.18693 0.81878 0.43600
 C193 C 0.80487 0.23328 0.50866
 C194 C 0.80739 0.23459 0.48033
 C195 C 0.79280 0.21464 0.46469
 C196 C 0.77824 0.19178 0.47650
 C197 C 0.77609 0.19044 0.50488
 C198 C 0.78864 0.21172 0.52055
 H199 H 0.78793 0.21003 0.54232
 H200 H 0.79452 0.21585 0.44295
 C201 C 0.50351 0.83608 0.80933
 C202 C 0.53262 0.83098 0.80427
 C203 C 0.54753 0.81260 0.82125
 C204 C 0.53380 0.79816 0.84231
 C205 C 0.50430 0.80167 0.84596
 C206 C 0.48960 0.82076 0.82968
 H207 H 0.46726 0.82430 0.83345
 H208 H 0.57001 0.80943 0.81802
 C209 C 0.49256 0.20342 0.22210
 C210 C 0.52233 0.20203 0.21834
 C211 C 0.53471 0.21797 0.19742
 C212 C 0.51827 0.23459 0.18002
 C213 C 0.48886 0.23698 0.18473
 C214 C 0.47652 0.22164 0.20587
 H215 H 0.45374 0.22257 0.20870
 H216 H 0.55721 0.21596 0.19345
 C217 C 0.50536 0.16604 0.80696
 C218 C 0.47654 0.15897 0.81207
 C219 C 0.46134 0.17478 0.83112
 C220 C 0.47481 0.19554 0.84682
 C221 C 0.50446 0.19921 0.84446
 C222 C 0.51916 0.18544 0.82385
 H223 H 0.54162 0.18956 0.82129
 H224 H 0.43893 0.17070 0.83397
 C225 C 0.52303 0.81971 0.20334
 C226 C 0.49316 0.82195 0.20157
 C227 C 0.47894 0.80765 0.18081
 C228 C 0.49374 0.79188 0.16151
 C229 C 0.52359 0.79034 0.16305
 C230 C 0.53783 0.80389 0.18411
 H231 H 0.56078 0.80303 0.18497
 H232 H 0.45605 0.80895 0.17958
 C233 C 0.79110 0.48625 0.81162
 C234 C 0.79978 0.51404 0.81877
 C235 C 0.82124 0.52720 0.80345
 C236 C 0.83451 0.51324 0.78201
 C237 C 0.82503 0.48595 0.77451
 C238 C 0.80346 0.47283 0.78941
 H239 H 0.79666 0.45163 0.78406
 H240 H 0.82824 0.54835 0.80860
 C241 C 0.22000 0.49296 0.18318
 C242 C 0.22218 0.52287 0.18201
 C243 C 0.20733 0.53895 0.20111
 C244 C 0.18865 0.52622 0.21952
 C245 C 0.18394 0.49667 0.21835
 C246 C 0.20068 0.48032 0.20108
 H247 H 0.19767 0.45759 0.20053
 H248 H 0.20959 0.56178 0.20103
 C249 C 0.77357 0.49596 0.19255
 C250 C 0.78140 0.46712 0.19011
 C251 C 0.80197 0.45631 0.20773
 C252 C 0.81581 0.47364 0.22662
 C253 C 0.80909 0.50279 0.22775
 C254 C 0.78764 0.51331 0.21110
 H255 H 0.78244 0.53560 0.21187
 H256 H 0.80765 0.43420 0.20645
 C257 C 0.19005 0.50970 0.84589
 C258 C 0.19304 0.48007 0.84367
 C259 C 0.17560 0.46530 0.82576
 C260 C 0.15476 0.47898 0.81047
 C261 C 0.15183 0.50878 0.81247
 C262 C 0.16979 0.52368 0.83014
 H263 H 0.16727 0.54631 0.83252
 H264 H 0.17794 0.44257 0.82406
 C265 C 0.28232 0.38164 0.08116
 C266 C 0.26739 0.40087 0.09726
 C267 C 0.23801 0.40481 0.09306
 C268 C 0.22385 0.38850 0.07371
 C269 C 0.23870 0.36872 0.05844
 C270 C 0.26803 0.36550 0.06176
 C271 C 0.22325 0.42484 0.10834
 C272 C 0.23722 0.44017 0.12852
 C273 C 0.26626 0.43516 0.13364
 C274 C 0.28129 0.41601 0.11761
 C275 C 0.27962 0.44894 0.15514
 C276 C 0.26439 0.46756 0.17133
 C277 C 0.23615 0.47406 0.16529
 C278 C 0.22247 0.45999 0.14413
 H279 H 0.30495 0.37897 0.08388
 H280 H 0.20133 0.39105 0.07038
 H281 H 0.22744 0.35652 0.04340
 H282 H 0.20084 0.42820 0.10480
 H283 H 0.30367 0.41254 0.12125
 H284 H 0.30165 0.44485 0.15978
 H285 H 0.27470 0.47715 0.18854
 H286 H 0.20026 0.46407 0.14027
 C287 C 0.69080 0.56947 0.07409
 C288 C 0.70833 0.55945 0.09487
 C289 C 0.73638 0.56989 0.09714
 C290 C 0.74657 0.58978 0.07861
 C291 C 0.72902 0.59980 0.05828
 C292 C 0.70095 0.59003 0.05591
 C293 C 0.75388 0.56045 0.11794
 C294 C 0.74386 0.54056 0.13656
 C295 C 0.71591 0.52988 0.13443
 C296 C 0.69825 0.53946 0.11361
 C297 C 0.70635 0.50950 0.15299
 C298 C 0.72462 0.49922 0.17286
 C299 C 0.75259 0.50934 0.17452
 C300 C 0.76177 0.53061 0.15683
 H301 H 0.66915 0.56191 0.07253
 H302 H 0.76804 0.59787 0.08003
 H303 H 0.73742 0.61550 0.04448
 H304 H 0.77538 0.56849 0.11956
 H305 H 0.67680 0.53133 0.11193
 H306 H 0.68502 0.50104 0.15172
 H307 H 0.71731 0.48274 0.18638
 H308 H 0.78346 0.53820 0.15795
 C309 C 0.69697 0.40260 0.91644
 C310 C 0.71742 0.41539 0.89982
 C311 C 0.74595 0.41688 0.90845
 C312 C 0.75378 0.40416 0.93283
 C313 C 0.73340 0.39077 0.94889
 C314 C 0.70484 0.39050 0.94111
 C315 C 0.76609 0.43131 0.89273
 C316 C 0.75824 0.44350 0.86811
 C317 C 0.73007 0.44054 0.85875
 C318 C 0.70975 0.42689 0.87485
 C319 C 0.72270 0.45133 0.83342
 C320 C 0.74290 0.46541 0.81772
 C321 C 0.77037 0.46989 0.82762
 C322 C 0.77811 0.45860 0.85264
 H323 H 0.67493 0.40218 0.91031
 H324 H 0.77557 0.40486 0.93963
 H325 H 0.73975 0.38167 0.96796
 H326 H 0.78781 0.43306 0.89966
 H327 H 0.68801 0.42524 0.86797
 H328 H 0.70135 0.44891 0.82576
 H329 H 0.73689 0.47374 0.79824
 H330 H 0.79956 0.46157 0.85992
 C331 C 0.29798 0.58573 0.94324
 C332 C 0.28174 0.57323 0.92276
 C333 C 0.29472 0.56618 0.89798
 C334 C 0.32389 0.57071 0.89451
 C335 C 0.34007 0.58216 0.91537
 C336 C 0.32719 0.59006 0.93966
 C337 C 0.27845 0.55438 0.87721
 C338 C 0.24968 0.54821 0.88133
 C339 C 0.23696 0.55411 0.90650
 C340 C 0.25290 0.56722 0.92683
 C341 C 0.20863 0.54630 0.91106
 C342 C 0.19335 0.53201 0.89116
 C343 C 0.20589 0.52612 0.86622
 C344 C 0.23363 0.53532 0.86098
 H345 H 0.28810 0.59157 0.96214
 H346 H 0.33422 0.56521 0.87576
 H347 H 0.36258 0.58552 0.91233
 H348 H 0.28835 0.54927 0.85811
 H349 H 0.24305 0.57210 0.94600
 H350 H 0.19855 0.55057 0.93023
 H351 H 0.17180 0.52528 0.89528
 H352 H 0.24301 0.53144 0.84141
 C353 C 0.06600 0.27917 0.40340
 C354 C 0.08734 0.26788 0.41975
 C355 C 0.11000 0.28539 0.42831
 C356 C 0.11010 0.31418 0.42157
 C357 C 0.08829 0.32542 0.40598
 C358 C 0.06651 0.30789 0.39638
 C359 C 0.13224 0.27380 0.44329
 C360 C 0.13167 0.24515 0.45053
 C361 C 0.10825 0.22802 0.44326
 C362 C 0.08644 0.23939 0.42757
 C363 C 0.10722 0.19969 0.45162
 C364 C 0.12926 0.18843 0.46692
 C365 C 0.15276 0.20519 0.47367
 C366 C 0.15419 0.23333 0.46494
 H367 H 0.04896 0.26573 0.39619
 H368 H 0.12713 0.32795 0.42818
 H369 H 0.08891 0.34762 0.40061
 H370 H 0.14992 0.28706 0.44936
 H371 H 0.06880 0.22610 0.42144
 H372 H 0.08942 0.18628 0.44632
 H373 H 0.12823 0.16651 0.47320
 H374 H 0.17285 0.24594 0.46938
 C375 C 0.08673 0.70315 0.60009
 C376 C 0.10580 0.72104 0.58629
 C377 C 0.11158 0.74836 0.59653
 C378 C 0.09927 0.75697 0.62074
 C379 C 0.08044 0.73922 0.63425
 C380 C 0.07341 0.71243 0.62385
 C381 C 0.12895 0.76705 0.58212
 C382 C 0.14067 0.75894 0.55747
 C383 C 0.13602 0.73131 0.54757
 C384 C 0.11859 0.71246 0.56207
 C385 C 0.14837 0.72333 0.52302
 C386 C 0.16423 0.74289 0.50802
 C387 C 0.16756 0.77085 0.51710
 C388 C 0.15628 0.77845 0.54221
 H389 H 0.08161 0.68253 0.59191
 H390 H 0.10370 0.77774 0.62895
 H391 H 0.07077 0.74690 0.65260
 H392 H 0.13280 0.78819 0.58979
 H393 H 0.11448 0.69146 0.55423
 H394 H 0.14533 0.70217 0.51519
 H395 H 0.17314 0.73651 0.48888
 H396 H 0.15860 0.79998 0.54935
 C397 C 0.94202 0.72145 0.39403
 C398 C 0.92148 0.73448 0.41017
 C399 C 0.89288 0.72547 0.40861
 C400 C 0.88546 0.70334 0.39114
 C401 C 0.90612 0.69043 0.37521
 C402 C 0.93436 0.69954 0.37651
 C403 C 0.87220 0.73886 0.42435
 C404 C 0.87973 0.76117 0.44154
 C405 C 0.90838 0.76991 0.44330
 C406 C 0.92906 0.75648 0.42765
 C407 C 0.91584 0.79226 0.46043
 C408 C 0.89508 0.80613 0.47538
 C409 C 0.86656 0.79772 0.47371
 C410 C 0.85902 0.77516 0.45677
 H411 H 0.96396 0.72834 0.39498
 H412 H 0.86369 0.69613 0.38972
 H413 H 0.90008 0.67348 0.36172
 H414 H 0.85026 0.73209 0.42303
 H415 H 0.95099 0.76332 0.42889
 H416 H 0.93767 0.79926 0.46197
 H417 H 0.90121 0.82379 0.48797
 H418 H 0.83700 0.76867 0.45538
 C419 C 0.92360 0.31013 0.59287
 C420 C 0.90467 0.29267 0.57875
 C421 C 0.91280 0.26482 0.57193
 C422 C 0.93916 0.25454 0.58032
 C423 C 0.95745 0.27176 0.59513
 C424 C 0.94999 0.29971 0.60111
 C425 C 0.89448 0.24770 0.55685
 C426 C 0.86781 0.25775 0.54914
 C427 C 0.85910 0.28510 0.55704
 C428 C 0.87775 0.30253 0.57149
 C429 C 0.83186 0.29451 0.55027
 C430 C 0.81369 0.27723 0.53530
 C431 C 0.82288 0.25077 0.52625
 C432 C 0.84972 0.24090 0.53356
 H433 H 0.91771 0.33163 0.59783
 H434 H 0.94561 0.23319 0.57546
 H435 H 0.97778 0.26349 0.60138
 H436 H 0.90093 0.22655 0.55117
 H437 H 0.87130 0.32369 0.57714
 H438 H 0.82468 0.31523 0.55644
 H439 H 0.79279 0.28479 0.53005
 H440 H 0.85651 0.22020 0.52685
 C441 C 0.40030 0.08064 0.28595
 C442 C 0.41493 0.10183 0.27152
 C443 C 0.40986 0.10506 0.24361
 C444 C 0.39042 0.08739 0.23060
 C445 C 0.37571 0.06685 0.24509
 C446 C 0.38035 0.06330 0.27281
 C447 C 0.42406 0.12605 0.22901
 C448 C 0.44315 0.14419 0.24187
 C449 C 0.44833 0.14139 0.26975
 C450 C 0.43423 0.12008 0.28445
 C451 C 0.46755 0.15997 0.28228
 C452 C 0.48164 0.18085 0.26718
 C453 C 0.47676 0.18324 0.23940
 C454 C 0.45728 0.16501 0.22702
 H455 H 0.40386 0.07814 0.30737
 H456 H 0.38638 0.08962 0.20924
 H457 H 0.36063 0.05362 0.23449
 H458 H 0.42015 0.12836 0.20760
 H459 H 0.43814 0.11779 0.30585
 H460 H 0.47182 0.15823 0.30363
 H461 H 0.49666 0.19478 0.27701
 H462 H 0.45367 0.16667 0.20551
 C463 C 0.60024 0.07973 0.70549
 C464 C 0.58792 0.09649 0.72559
 C465 C 0.60155 0.09941 0.75077
 C466 C 0.62781 0.08645 0.75502
 C467 C 0.64006 0.07002 0.73481
 C468 C 0.62616 0.06605 0.71010
 C469 C 0.58848 0.11477 0.77144
 C470 C 0.56201 0.12736 0.76720
 C471 C 0.54892 0.12535 0.74168
 C472 C 0.56192 0.10990 0.72105
 C473 C 0.52275 0.13844 0.73733
 C474 C 0.50921 0.15258 0.75832
 C475 C 0.52131 0.15346 0.78413
 C476 C 0.54810 0.14139 0.78827
 H477 H 0.58947 0.07701 0.68640
 H478 H 0.63864 0.08861 0.77412
 H479 H 0.66003 0.05968 0.73885
 H480 H 0.59868 0.11654 0.79092
 H481 H 0.55160 0.10793 0.70165
 H482 H 0.51257 0.13740 0.71783
 H483 H 0.48885 0.16229 0.75458
 H484 H 0.55762 0.14203 0.80810
 C485 C 0.40275 0.93406 0.72358
 C486 C 0.41733 0.91367 0.73862
 C487 C 0.40477 0.88683 0.74318
 C488 C 0.37751 0.88118 0.73333
 C489 C 0.36276 0.90196 0.71923
 C490 C 0.37539 0.92833 0.71407
 C491 C 0.41950 0.86621 0.75773
 C492 C 0.44624 0.87235 0.76854
 C493 C 0.45832 0.89952 0.76484
 C494 C 0.44399 0.91986 0.74956
 C495 C 0.48446 0.90597 0.77670
 C496 C 0.49867 0.88561 0.79180
 C497 C 0.48751 0.85813 0.79451
 C498 C 0.46104 0.85177 0.78313
 H499 H 0.41227 0.95463 0.71990
 H500 H 0.36749 0.86084 0.73680
 H501 H 0.34160 0.89736 0.71197
 H502 H 0.41003 0.84552 0.76091
 H503 H 0.45342 0.94058 0.74647
 H504 H 0.49383 0.92681 0.77445
 H505 H 0.51861 0.89123 0.80116
 H506 H 0.45216 0.83071 0.78539
 C507 C 0.61355 0.92468 0.29192
 C508 C 0.59942 0.90814 0.27269
 C509 C 0.59720 0.91797 0.24586
 C510 C 0.61049 0.94340 0.23843
 C511 C 0.62500 0.95944 0.25758
 C512 C 0.62604 0.95058 0.28456
 C513 C 0.58144 0.90248 0.22702
 C514 C 0.56843 0.87692 0.23449
 C515 C 0.57197 0.86629 0.26091
 C516 C 0.58714 0.88214 0.27994
 C517 C 0.56033 0.83992 0.26782
 C518 C 0.54488 0.82447 0.24887
 C519 C 0.53974 0.83576 0.22325
 C520 C 0.55198 0.86172 0.21593
 H521 H 0.61448 0.91765 0.31269
 H522 H 0.60923 0.95112 0.21792
 H523 H 0.63435 0.97943 0.25155
 H524 H 0.57920 0.91035 0.20662
 H525 H 0.58930 0.87431 0.30036
 H526 H 0.56335 0.83116 0.28777
 H527 H 0.53659 0.80384 0.25430
 H528 H 0.54876 0.86993 0.19577
 C529 C 0.37007 0.27654 0.94407
 C530 C 0.38613 0.25835 0.92790
 C531 C 0.38017 0.22902 0.92790
 C532 C 0.35772 0.21854 0.94357
 C533 C 0.34164 0.23685 0.95944
 C534 C 0.34788 0.26593 0.96011
 C535 C 0.39681 0.21070 0.91233
 C536 C 0.41904 0.22144 0.89645
 C537 C 0.42444 0.25088 0.89601
 C538 C 0.40813 0.26909 0.91187
 C539 C 0.44595 0.26174 0.87950
 C540 C 0.46202 0.24365 0.86357
 C541 C 0.45757 0.21425 0.86439
 C542 C 0.43583 0.20327 0.88082
 H543 H 0.37498 0.29896 0.94429
 H544 H 0.35274 0.19615 0.94374
 H545 H 0.32472 0.22812 0.97170
 H546 H 0.39241 0.18818 0.91252
 H547 H 0.41252 0.29163 0.91167
 H548 H 0.45009 0.28428 0.87860
 H549 H 0.47774 0.25276 0.85021
 H550 H 0.43201 0.18066 0.88143
 C551 C 0.60868 0.69435 0.94412
 C552 C 0.59279 0.70899 0.92491
 C553 C 0.57058 0.69502 0.91118
 C554 C 0.56426 0.66673 0.91749
 C555 C 0.58006 0.65234 0.93696
 C556 C 0.60261 0.66593 0.95018
 C557 C 0.55514 0.70956 0.89143
 C558 C 0.56137 0.73801 0.88566
 C559 C 0.58317 0.75207 0.89993
 C560 C 0.59888 0.73741 0.91927
 C561 C 0.58890 0.78064 0.89466
 C562 C 0.57288 0.79534 0.87573
 C563 C 0.55114 0.78165 0.86150
 C564 C 0.54598 0.75276 0.86604
 H565 H 0.62582 0.70516 0.95442
 H566 H 0.54721 0.65571 0.90729
 H567 H 0.57502 0.63044 0.94130
 H568 H 0.53820 0.69885 0.88073
 H569 H 0.61578 0.74815 0.93001
 H570 H 0.60552 0.79172 0.90543
 H571 H 0.57722 0.81758 0.87237
 H572 H 0.53011 0.74177 0.85433
 C573 C 0.41692 0.69434 0.05488
 C574 C 0.43326 0.70813 0.07448
 C575 C 0.45355 0.69271 0.08932
 C576 C 0.45768 0.66397 0.08377
 C577 C 0.44165 0.65052 0.06390
 C578 C 0.42093 0.66547 0.04953
 C579 C 0.46930 0.70622 0.10950
 C580 C 0.46533 0.73507 0.11472
 C581 C 0.44564 0.75067 0.09934
 C582 C 0.42958 0.73706 0.07944
 C583 C 0.44221 0.77964 0.10426
 C584 C 0.45810 0.79301 0.12427
 C585 C 0.47749 0.77763 0.13983
 C586 C 0.48071 0.74855 0.13516
 H587 H 0.40121 0.70613 0.04365
 H588 H 0.47326 0.65188 0.09484
 H589 H 0.44509 0.62826 0.06011
 H590 H 0.48466 0.69434 0.12108
 H591 H 0.41423 0.74896 0.06787
 H592 H 0.42729 0.79194 0.09261
 H593 H 0.45528 0.81544 0.12763
 H594 H 0.49484 0.73634 0.14771
 C595 C 0.59112 0.30983 0.05562
 C596 C 0.57599 0.30090 0.07843
 C597 C 0.56533 0.32115 0.09668
 C598 C 0.56875 0.35005 0.09097
 C599 C 0.58353 0.35877 0.06793
 C600 C 0.59544 0.33874 0.05050
 C601 C 0.55190 0.31216 0.12048
 C602 C 0.54857 0.28318 0.12595
 C603 C 0.55808 0.26303 0.10699
 C604 C 0.57192 0.27201 0.08349
 C605 C 0.55396 0.23415 0.11203
 C606 C 0.54066 0.22525 0.13568
 C607 C 0.53161 0.24499 0.15486
 C608 C 0.53603 0.27395 0.15011
 H609 H 0.60003 0.29425 0.04207
 H610 H 0.56050 0.36588 0.10459
 H611 H 0.58673 0.38116 0.06438
 H612 H 0.54422 0.32765 0.13477
 H613 H 0.57976 0.25651 0.06928
 H614 H 0.56103 0.21845 0.09769
 H615 H 0.53754 0.20283 0.13916
 H616 H 0.53018 0.28919 0.16531
 C617 C 0.29876 0.05650 0.61172
 C618 C 0.28178 0.07543 0.59712
 C619 C 0.25290 0.07855 0.60417
 C620 C 0.24156 0.06308 0.62569
 C621 C 0.25852 0.04441 0.64007
 C622 C 0.28719 0.04077 0.63322
 C623 C 0.23567 0.09693 0.58953
 C624 C 0.24683 0.11230 0.56786
 C625 C 0.27571 0.10960 0.56080
 C626 C 0.29306 0.09114 0.57552
 C627 C 0.28654 0.12526 0.53900
 C628 C 0.26880 0.14311 0.52418
 C629 C 0.23999 0.14539 0.53091
 C630 C 0.22929 0.13011 0.55294
 H631 H 0.32084 0.05393 0.60627
 H632 H 0.21949 0.06531 0.63133
 H633 H 0.24902 0.03263 0.65650
 H634 H 0.21349 0.09913 0.59490
 H635 H 0.31520 0.08886 0.57008
 H636 H 0.30863 0.12355 0.53330
 H637 H 0.27740 0.15487 0.50729
 H638 H 0.20699 0.13162 0.55805
 C639 C 0.70411 0.07451 0.38747
 C640 C 0.71352 0.09448 0.40625
 C641 C 0.69584 0.10225 0.42796
 C642 C 0.66947 0.08886 0.43113
 C643 C 0.66064 0.06811 0.41288
 C644 C 0.67764 0.06102 0.39056
 C645 C 0.70489 0.12315 0.44612
 C646 C 0.73180 0.13563 0.44328
 C647 C 0.74994 0.12671 0.42228
 C648 C 0.74054 0.10656 0.40370
 C649 C 0.77723 0.13814 0.42010
 C650 C 0.78641 0.15859 0.43827
 C651 C 0.76830 0.16856 0.45862
 C652 C 0.74091 0.15693 0.46100
 H653 H 0.71783 0.06904 0.37075
 H654 H 0.65572 0.09430 0.44780
 H655 H 0.64019 0.05812 0.41596
 H656 H 0.69113 0.12952 0.46251
 H657 H 0.75432 0.10017 0.38732
 H658 H 0.79151 0.13125 0.40434
 H659 H 0.80777 0.16684 0.43627
 H660 H 0.72654 0.16480 0.47620
 C661 C 0.71351 0.95773 0.59673
 C662 C 0.72525 0.93658 0.58051
 C663 C 0.70996 0.91124 0.57594
 C664 C 0.68254 0.90818 0.58656
 C665 C 0.67070 0.92972 0.60214
 C666 C 0.68636 0.95428 0.60780
 C667 C 0.72249 0.88931 0.56118
 C668 C 0.74986 0.89267 0.55050
 C669 C 0.76445 0.91864 0.55392
 C670 C 0.75216 0.94031 0.56908
 C671 C 0.79141 0.92234 0.54256
 C672 C 0.80411 0.90030 0.52847
 C673 C 0.79021 0.87421 0.52573
 C674 C 0.76311 0.87039 0.53682
 H675 H 0.72547 0.97689 0.60081
 H676 H 0.67039 0.88905 0.58306
 H677 H 0.64971 0.92679 0.61056
 H678 H 0.71106 0.86962 0.55819
 H679 H 0.76367 0.95994 0.57223
 H680 H 0.80280 0.94212 0.54486
 H681 H 0.82516 0.90334 0.52019
 H682 H 0.75269 0.85000 0.53530
 C683 C 0.29627 0.93293 0.36890
 C684 C 0.27794 0.91539 0.38380
 C685 C 0.24858 0.91534 0.37815
 C686 C 0.23817 0.93220 0.35721
 C687 C 0.25655 0.94939 0.34234
 C688 C 0.28568 0.95024 0.34824
 C689 C 0.23005 0.89868 0.39365
 C690 C 0.24053 0.88181 0.41459
 C691 C 0.26999 0.88125 0.41975
 C692 C 0.28849 0.89812 0.40441
 C693 C 0.28046 0.86389 0.44028
 C694 C 0.26192 0.84756 0.45582
 C695 C 0.23250 0.84865 0.45151
 C696 C 0.22198 0.86565 0.43058
 H697 H 0.31871 0.93328 0.37354
 H698 H 0.21575 0.93233 0.35251
 H699 H 0.24780 0.96255 0.32658
 H700 H 0.20749 0.89895 0.38950
 H701 H 0.31103 0.89793 0.40863
 H702 H 0.30298 0.86297 0.44436
 H703 H 0.27056 0.83416 0.47145
 H704 H 0.19935 0.86673 0.42710
 C705 C 0.06295 0.39241 0.70592
 C706 C 0.08021 0.41071 0.72090
 C707 C 0.09316 0.43428 0.70826
 C708 C 0.08822 0.43930 0.68083
 C709 C 0.07047 0.42127 0.66616
 C710 C 0.05779 0.39764 0.67855
 C711 C 0.11061 0.45249 0.72329
 C712 C 0.11485 0.44764 0.75089
 C713 C 0.10133 0.42432 0.76351
 C714 C 0.08433 0.40594 0.74842
 C715 C 0.10500 0.41970 0.79110
 C716 C 0.12203 0.43785 0.80613
 C717 C 0.13594 0.46085 0.79387
 C718 C 0.13233 0.46565 0.76615
 H719 H 0.05295 0.37446 0.71575
 H720 H 0.09786 0.45730 0.67079
 H721 H 0.06674 0.42574 0.64508
 H722 H 0.12071 0.47047 0.71359
 H723 H 0.07417 0.38800 0.75815
 H724 H 0.09467 0.40205 0.80109
 H725 H 0.12443 0.43392 0.82749
 H726 H 0.14317 0.48325 0.75656
 C727 C 0.07490 0.61581 0.29704
 C728 C 0.09605 0.60429 0.28048
 C729 C 0.09745 0.61208 0.25299
 C730 C 0.07806 0.63156 0.24264
 C731 C 0.05714 0.64289 0.25919
 C732 C 0.05514 0.63500 0.28645
 C733 C 0.11781 0.59991 0.23613
 C734 C 0.13658 0.57969 0.24626
 C735 C 0.13561 0.57223 0.27384
 C736 C 0.11550 0.58475 0.29083
 C737 C 0.15423 0.55170 0.28377
 C738 C 0.17264 0.53773 0.26629
 C739 C 0.17284 0.54422 0.23869
 C740 C 0.15549 0.56592 0.22895
 H741 H 0.07369 0.60966 0.31804
 H742 H 0.07887 0.63780 0.22165
 H743 H 0.04228 0.65767 0.25049
 H744 H 0.11856 0.60562 0.21498
 H745 H 0.11452 0.57878 0.31191
 H746 H 0.15390 0.54579 0.30485
 H747 H 0.18602 0.52109 0.27408
 H748 H 0.15546 0.57079 0.20761
 C749 C 0.93586 0.39210 0.30524
 C750 C 0.91623 0.40452 0.28778
 C751 C 0.91701 0.39806 0.26002
 C752 C 0.93712 0.37881 0.25034
 C753 C 0.95635 0.36616 0.26799
 C754 C 0.95605 0.37289 0.29551
 C755 C 0.89764 0.41086 0.24247
 C756 C 0.87719 0.42960 0.25244
 C757 C 0.87609 0.43555 0.28031
 C758 C 0.89577 0.42317 0.29775
 C759 C 0.85516 0.45363 0.29033
 C760 C 0.83546 0.46575 0.27292
 C761 C 0.83674 0.46056 0.24511
 C762 C 0.85767 0.44235 0.23502
 H763 H 0.93524 0.39720 0.32650
 H764 H 0.93794 0.37351 0.22914
 H765 H 0.97174 0.35145 0.26004
 H766 H 0.89834 0.40608 0.22113
 H767 H 0.89503 0.42790 0.31910
 H768 H 0.85385 0.45819 0.31166
 H769 H 0.81910 0.47916 0.28121
 H770 H 0.85881 0.43822 0.21359
 C771 C 0.94814 0.60386 0.70221
 C772 C 0.92535 0.59133 0.71607
 C773 C 0.89992 0.60662 0.71969
 C774 C 0.89797 0.63438 0.70999
 C775 C 0.92110 0.64701 0.69710
 C776 C 0.94618 0.63181 0.69299
 C777 C 0.87699 0.59410 0.73325
 C778 C 0.87942 0.56679 0.74397
 C779 C 0.90514 0.55184 0.74110
 C780 C 0.92780 0.56404 0.72685
 C781 C 0.90785 0.52499 0.75273
 C782 C 0.88518 0.51289 0.76674
 C783 C 0.85913 0.52702 0.76865
 C784 C 0.85653 0.55420 0.75759
 H785 H 0.96771 0.59230 0.69942
 H786 H 0.87874 0.64646 0.71273
 H787 H 0.91936 0.66864 0.69012
 H788 H 0.85741 0.60572 0.73575
 H789 H 0.94742 0.55246 0.72446
 H790 H 0.92752 0.51339 0.75108
 H791 H 0.88784 0.49225 0.77582
 H792 H 0.83657 0.56531 0.75929
 C793 C 0.71283 0.58863 0.93547
 C794 C 0.72452 0.57335 0.91392
 C795 C 0.70716 0.55468 0.89897
 C796 C 0.67907 0.55004 0.90697
 C797 C 0.66811 0.56393 0.92943
 C798 C 0.68454 0.58394 0.94356
 C799 C 0.71825 0.54064 0.87649
 C800 C 0.74698 0.54358 0.86978
 C801 C 0.76487 0.56049 0.88594
 C802 C 0.75338 0.57596 0.90742
 C803 C 0.79397 0.56146 0.88042
 C804 C 0.80523 0.54576 0.85915
 C805 C 0.78750 0.52971 0.84218
 C806 C 0.75818 0.52946 0.84738
 H807 H 0.72607 0.60340 0.94648
 H808 H 0.66561 0.53544 0.89601
 H809 H 0.64630 0.55973 0.93506
 H810 H 0.70470 0.52690 0.86462
 H811 H 0.76698 0.58957 0.91936
 H812 H 0.80812 0.57396 0.89282
 H813 H 0.82792 0.54625 0.85596
 H814 H 0.74389 0.51857 0.83393
 C815 C 0.27373 0.37640 0.94207
 C816 C 0.25601 0.39204 0.92499
 C817 C 0.22697 0.38486 0.92302
 C818 C 0.21649 0.36130 0.93703
 C819 C 0.23437 0.34539 0.95343
 C820 C 0.26303 0.35312 0.95678
 C821 C 0.20887 0.40138 0.90717
 C822 C 0.21961 0.42446 0.89254
 C823 C 0.24891 0.43076 0.89338
 C824 C 0.26685 0.41480 0.90994
 C825 C 0.25981 0.45265 0.87731
 C826 C 0.24182 0.46832 0.86077
 C827 C 0.21246 0.46343 0.86105
 C828 C 0.20155 0.44115 0.87678
 H829 H 0.29581 0.38252 0.94396
 H830 H 0.19437 0.35530 0.93548
 H831 H 0.22536 0.32760 0.96429
 H832 H 0.18649 0.39618 0.90609
 H833 H 0.28924 0.41998 0.91097
 H834 H 0.28232 0.45725 0.87708
 H835 H 0.25100 0.48382 0.84733
 H836 H 0.17899 0.43670 0.87652
 C837 C 0.31145 0.59096 0.06288
 C838 C 0.29936 0.57622 0.08463
 C839 C 0.31491 0.55472 0.09765
 C840 C 0.34167 0.54731 0.08776
 C841 C 0.35313 0.56129 0.06542
 C842 C 0.33849 0.58372 0.05304
 C843 C 0.30339 0.54087 0.12020
 C844 C 0.27595 0.54735 0.12914
 C845 C 0.25985 0.56778 0.11519
 C846 C 0.27184 0.58250 0.09340
 C847 C 0.23194 0.57312 0.12323
 C848 C 0.22000 0.55817 0.14470
 C849 C 0.23591 0.53817 0.15915
 C850 C 0.26422 0.53349 0.15161
 H851 H 0.29954 0.60779 0.05338
 H852 H 0.35375 0.53064 0.09728
 H853 H 0.37393 0.55506 0.05843
 H854 H 0.31555 0.52474 0.13049
 H855 H 0.25964 0.59858 0.08308
 H856 H 0.21920 0.58855 0.11266
 H857 H 0.19814 0.56222 0.15008
 H858 H 0.27734 0.51955 0.16334
 C859 C 0.70336 0.39350 0.06797
 C860 C 0.71898 0.40936 0.08672
 C861 C 0.72506 0.43813 0.08137
 C862 C 0.71363 0.45111 0.05851
 C863 C 0.69629 0.43576 0.04106
 C864 C 0.69154 0.40665 0.04515
 C865 C 0.74179 0.45371 0.09933
 C866 C 0.75030 0.44166 0.12379
 C867 C 0.74220 0.41369 0.13027
 C868 C 0.72766 0.39726 0.11119
 C869 C 0.74808 0.40300 0.15601
 C870 C 0.76073 0.42032 0.17544
 C871 C 0.76920 0.44811 0.16902
 C872 C 0.76553 0.45776 0.14246
 H873 H 0.69926 0.37128 0.07185
 H874 H 0.71763 0.47328 0.05441
 H875 H 0.68754 0.44652 0.02371
 H876 H 0.74697 0.47561 0.09492
 H877 H 0.72208 0.37552 0.11584
 H878 H 0.74179 0.38169 0.16148
 H879 H 0.76346 0.41212 0.19562
 H880 H 0.77349 0.47832 0.13652
 C881 C 0.95187 0.73082 0.60753
 C882 C 0.93348 0.74276 0.58845
 C883 C 0.92192 0.72571 0.56783
 C884 C 0.92997 0.69733 0.56591
 C885 C 0.94910 0.68584 0.58432
 C886 C 0.95995 0.70224 0.60566
 C887 C 0.90255 0.73731 0.54947
 C888 C 0.89527 0.76601 0.55096
 C889 C 0.90801 0.78335 0.57075
 C890 C 0.92668 0.77156 0.58958
 C891 C 0.90175 0.81223 0.57150
 C892 C 0.88258 0.82377 0.55323
 C893 C 0.86874 0.80662 0.53417
 C894 C 0.87536 0.77765 0.53311
 H895 H 0.96030 0.74402 0.62347
 H896 H 0.92155 0.68400 0.55008
 H897 H 0.95484 0.66382 0.58215
 H898 H 0.89326 0.72406 0.53399
 H899 H 0.93597 0.78482 0.60506
 H900 H 0.91162 0.82591 0.58627
 H901 H 0.87832 0.84622 0.55420
 H902 H 0.86466 0.76409 0.51876
 C903 C 0.93240 0.30809 0.39953
 C904 C 0.91096 0.29172 0.41176
 C905 C 0.90867 0.26261 0.40561
 C906 C 0.92693 0.25061 0.38667
 C907 C 0.94744 0.26716 0.37391
 C908 C 0.95081 0.29599 0.38038
 C909 C 0.88804 0.24591 0.41833
 C910 C 0.86893 0.25805 0.43646
 C911 C 0.87026 0.28736 0.44183
 C912 C 0.89158 0.30396 0.42977
 C913 C 0.85005 0.29949 0.45898
 C914 C 0.82899 0.28267 0.47091
 C915 C 0.82840 0.25332 0.46666
 C916 C 0.84837 0.24126 0.44917
 H917 H 0.93430 0.33032 0.40455
 H918 H 0.92526 0.22840 0.38159
 H919 H 0.96113 0.25703 0.35934
 H920 H 0.88666 0.22349 0.41388
 H921 H 0.89290 0.32638 0.43417
 H922 H 0.85034 0.32201 0.46294
 H923 H 0.81309 0.29264 0.48331
 H924 H 0.84799 0.21865 0.44561
 C925 C 0.07313 0.29025 0.59856
 C926 C 0.09275 0.27756 0.58129
 C927 C 0.10365 0.29281 0.55907
 C928 C 0.09377 0.32024 0.55398
 C929 C 0.07320 0.33236 0.57068
 C930 C 0.06288 0.31765 0.59337
 C931 C 0.12394 0.28021 0.54222
 C932 C 0.13246 0.25216 0.54676
 C933 C 0.12042 0.23662 0.56832
 C934 C 0.10112 0.24957 0.58572
 C935 C 0.12783 0.20829 0.57215
 C936 C 0.14696 0.19535 0.55477
 C937 C 0.15960 0.21062 0.53360
 C938 C 0.15264 0.23925 0.53002
 H939 H 0.06516 0.27823 0.61560
 H940 H 0.10166 0.33218 0.53688
 H941 H 0.06576 0.35343 0.56602
 H942 H 0.13267 0.29200 0.52538
 H943 H 0.09229 0.23772 0.60250
 H944 H 0.11864 0.19605 0.58847
 H945 H 0.15207 0.17329 0.55793
 H946 H 0.16318 0.25162 0.51467
 C947 C 0.05381 0.71947 0.38920
 C948 C 0.07620 0.73552 0.39978
 C949 C 0.09752 0.74611 0.38242
 C950 C 0.09413 0.74351 0.35449
 C951 C 0.07032 0.72972 0.34395
 C952 C 0.05073 0.71633 0.36121
 C953 C 0.12167 0.75922 0.39333
 C954 C 0.12344 0.76413 0.42116
 C955 C 0.10025 0.75692 0.43788
 C956 C 0.07737 0.74155 0.42736
 C957 C 0.10012 0.76568 0.46473
 C958 C 0.12319 0.78052 0.47517
 C959 C 0.14820 0.78430 0.45998
 C960 C 0.14774 0.77656 0.43254
 H961 H 0.03824 0.71018 0.40272
 H962 H 0.10985 0.75217 0.34081
 H963 H 0.06839 0.72775 0.32230
 H964 H 0.13874 0.76608 0.38017
 H965 H 0.06024 0.73480 0.44051
 H966 H 0.08189 0.76165 0.47750
 H967 H 0.12149 0.78857 0.49545
 H968 H 0.16620 0.77993 0.41997
 C969 C 0.61319 0.93314 0.70465
 C970 C 0.60405 0.91380 0.72434
 C971 C 0.61745 0.91334 0.74978
 C972 C 0.64049 0.93141 0.75467
 C973 C 0.64965 0.95039 0.73486
 C974 C 0.63575 0.95183 0.70991
 C975 C 0.60720 0.89530 0.77008
 C976 C 0.58371 0.87773 0.76526
 C977 C 0.57108 0.87738 0.73944
 C978 C 0.58135 0.89538 0.71916
 C979 C 0.54785 0.85956 0.73455
 C980 C 0.53635 0.84328 0.75536
 C981 C 0.54768 0.84475 0.78145
 C982 C 0.57201 0.86125 0.78608
 H983 H 0.60252 0.93389 0.68535
 H984 H 0.65114 0.93121 0.77398
 H985 H 0.66708 0.96457 0.73938
 H986 H 0.61708 0.89541 0.78978
 H987 H 0.57126 0.89551 0.69955
 H988 H 0.53811 0.85878 0.71483
 H989 H 0.51786 0.83029 0.75137
 H990 H 0.58086 0.86238 0.80617
 C991 C 0.39245 0.92941 0.27681
 C992 C 0.40836 0.91166 0.25998
 C993 C 0.40571 0.91407 0.23171
 C994 C 0.38641 0.93337 0.22080
 C995 C 0.37027 0.95055 0.23769
 C996 C 0.37347 0.94909 0.26577
 C997 C 0.42245 0.89725 0.21481
 C998 C 0.44130 0.87753 0.22579
 C999 C 0.44313 0.87431 0.25403
 C1000 C 0.42692 0.89163 0.27096
 C1001 C 0.46090 0.85353 0.26484
 C1002 C 0.47685 0.83625 0.24786
 C1003 C 0.47627 0.84018 0.21985
 C1004 C 0.45816 0.86074 0.20895
 H1005 H 0.39489 0.92799 0.29846
 H1006 H 0.38396 0.93535 0.19920
 H1007 H 0.35590 0.96566 0.22873
 H1008 H 0.42070 0.89943 0.19313
 H1009 H 0.42865 0.88943 0.29263
 H1010 H 0.46206 0.85028 0.28641
 H1011 H 0.48914 0.81942 0.25665
 H1012 H 0.45711 0.86350 0.18729
 C1013 C 0.60762 0.08563 0.29917
 C1014 C 0.58901 0.10323 0.28494
 C1015 C 0.56278 0.09232 0.27579
 C1016 C 0.55499 0.06447 0.28231
 C1017 C 0.57330 0.04737 0.29720
 C1018 C 0.59992 0.05762 0.30521
 C1019 C 0.54487 0.10936 0.26020
 C1020 C 0.55240 0.13748 0.25445
 C1021 C 0.57788 0.14882 0.26488
 C1022 C 0.59625 0.13150 0.27965
 C1023 C 0.58459 0.17732 0.26029
 C1024 C 0.56620 0.19447 0.24560
 C1025 C 0.54107 0.18337 0.23463
 C1026 C 0.53474 0.15453 0.23859
 H1027 H 0.62809 0.09366 0.30557
 H1028 H 0.53487 0.05584 0.27570
 H1029 H 0.56712 0.02575 0.30159
 H1030 H 0.52501 0.10082 0.25272
 H1031 H 0.61611 0.14005 0.28711
 H1032 H 0.60394 0.18642 0.26826
 H1033 H 0.57164 0.21655 0.24273
 H1034 H 0.51612 0.14529 0.22936
 C1035 C 0.38830 0.04425 0.73169
 C1036 C 0.39946 0.06659 0.74695
 C1037 C 0.38310 0.09116 0.75123
 C1038 C 0.35527 0.09226 0.74136
 C1039 C 0.34403 0.06951 0.72683
 C1040 C 0.36069 0.04572 0.72146
 C1041 C 0.39494 0.11425 0.76506
 C1042 C 0.42263 0.11273 0.77528
 C1043 C 0.43828 0.08750 0.77224
 C1044 C 0.42676 0.06477 0.75781
 C1045 C 0.46527 0.08539 0.78366
 C1046 C 0.47703 0.10827 0.79737
 C1047 C 0.46261 0.13417 0.79900
 C1048 C 0.43505 0.13604 0.78837
 H1049 H 0.40105 0.02570 0.72770
 H1050 H 0.34231 0.11078 0.74465
 H1051 H 0.32270 0.07089 0.71894
 H1052 H 0.38267 0.13336 0.76780
 H1053 H 0.43907 0.04569 0.75499
 H1054 H 0.47729 0.06601 0.78202
 H1055 H 0.49774 0.10586 0.80639
 H1056 H 0.42351 0.15573 0.78984
 C1057 C 0.60844 0.69555 0.06041
 C1058 C 0.59436 0.70925 0.08161
 C1059 C 0.58797 0.69417 0.10552
 C1060 C 0.59509 0.66551 0.10754
 C1061 C 0.60812 0.65181 0.08600
 C1062 C 0.61503 0.66672 0.06242
 C1063 C 0.57411 0.70777 0.12682
 C1064 C 0.56557 0.73597 0.12419
 C1065 C 0.57111 0.75082 0.09997
 C1066 C 0.58595 0.73754 0.07904
 C1067 C 0.56130 0.77860 0.09695
 C1068 C 0.54581 0.79137 0.11756
 C1069 C 0.54052 0.77684 0.14167
 C1070 C 0.55091 0.74938 0.14516
 H1071 H 0.61340 0.70696 0.04203
 H1072 H 0.59019 0.65359 0.12562
 H1073 H 0.61308 0.62955 0.08781
 H1074 H 0.56942 0.69623 0.14520
 H1075 H 0.59040 0.74901 0.06057
 H1076 H 0.56520 0.79025 0.07850
 H1077 H 0.53790 0.81263 0.11474
 H1078 H 0.54669 0.73820 0.16383
 C1079 C 0.37522 0.29434 0.08183
 C1080 C 0.39340 0.28028 0.09969
 C1081 C 0.39112 0.25063 0.10287
 C1082 C 0.36999 0.23574 0.08895
 C1083 C 0.35163 0.24997 0.07162
 C1084 C 0.35437 0.27925 0.06755
 C1085 C 0.41002 0.23633 0.11980
 C1086 C 0.43074 0.25138 0.13414
 C1087 C 0.43230 0.28115 0.13182
 C1088 C 0.41386 0.29538 0.11435
 C1089 C 0.45204 0.29622 0.14732
 C1090 C 0.47021 0.28191 0.16480
 C1091 C 0.46979 0.25230 0.16615
 C1092 C 0.44975 0.23714 0.15103
 H1093 H 0.37731 0.31698 0.07897
 H1094 H 0.36781 0.21305 0.09129
 H1095 H 0.33582 0.23790 0.06074
 H1096 H 0.40852 0.21354 0.12191
 H1097 H 0.41534 0.31817 0.11228
 H1098 H 0.45309 0.31909 0.14630
 H1099 H 0.48428 0.29400 0.17756
 H1100 H 0.44886 0.21429 0.15267
 C1101 C 0.59581 0.29637 0.94061
 C1102 C 0.58046 0.28231 0.92042
 C1103 C 0.57707 0.29517 0.89489
 C1104 C 0.58829 0.32228 0.89032
 C1105 C 0.60261 0.33655 0.91087
 C1106 C 0.60672 0.32359 0.93597
 C1107 C 0.56225 0.28090 0.87449
 C1108 C 0.54986 0.25439 0.87960
 C1109 C 0.55231 0.24210 0.90550
 C1110 C 0.56801 0.25588 0.92556
 C1111 C 0.53876 0.21629 0.91101
 C1112 C 0.52291 0.20278 0.89111
 C1113 C 0.52088 0.21447 0.86523
 C1114 C 0.53467 0.24012 0.85940
 H1115 H 0.59862 0.28653 0.96016
 H1116 H 0.58572 0.33257 0.87098
 H1117 H 0.61091 0.35758 0.90704
 H1118 H 0.55997 0.29061 0.85482
 H1119 H 0.57016 0.24624 0.94527
 H1120 H 0.54024 0.20668 0.93077
 H1121 H 0.51242 0.18294 0.89577
 H1122 H 0.53295 0.24917 0.83941
 C1123 C 0.41893 0.69928 0.94244
 C1124 C 0.43354 0.71449 0.92240
 C1125 C 0.43947 0.70142 0.89742
 C1126 C 0.43151 0.67317 0.89324
 C1127 C 0.41794 0.65792 0.91364
 C1128 C 0.41134 0.67092 0.93818
 C1129 C 0.45358 0.71663 0.87716
 C1130 C 0.46278 0.74440 0.88186
 C1131 C 0.45784 0.75717 0.90715
 C1132 C 0.44280 0.74231 0.92711
 C1133 C 0.46826 0.78453 0.91208
 C1134 C 0.48366 0.79896 0.89223
 C1135 C 0.48836 0.78643 0.86709
 C1136 C 0.47731 0.75947 0.86176
 H1137 H 0.41421 0.70915 0.96161
 H1138 H 0.43610 0.66278 0.87431
 H1139 H 0.41223 0.63601 0.91017
 H1140 H 0.45785 0.70669 0.85793
 H1141 H 0.43870 0.75219 0.94640
 H1142 H 0.46478 0.79462 0.93136
 H1143 H 0.49186 0.81992 0.89640
 H1144 H 0.48068 0.75002 0.84215
 C1145 C 0.70312 0.93436 0.39125
 C1146 C 0.72408 0.91871 0.40468
 C1147 C 0.75291 0.92245 0.39762
 C1148 C 0.76021 0.94108 0.37675
 C1149 C 0.73927 0.95640 0.36341
 C1150 C 0.71058 0.95357 0.37073
 C1151 C 0.77403 0.90783 0.41173
 C1152 C 0.76672 0.88938 0.43278
 C1153 C 0.73784 0.88498 0.43933
 C1154 C 0.71673 0.89971 0.42530
 C1155 C 0.73058 0.86603 0.45998
 C1156 C 0.75171 0.85212 0.47445
 C1157 C 0.78042 0.85730 0.46889
 C1158 C 0.78784 0.87550 0.44764
 H1159 H 0.68109 0.93187 0.39703
 H1160 H 0.78217 0.94409 0.37098
 H1161 H 0.74568 0.97104 0.34773
 H1162 H 0.79614 0.91106 0.40653
 H1163 H 0.69462 0.89659 0.43060
 H1164 H 0.70857 0.86205 0.46503
 H1165 H 0.74564 0.83733 0.49009
 H1166 H 0.81003 0.87927 0.44311
 C1167 C 0.29444 0.93197 0.60049
 C1168 C 0.28386 0.91054 0.58373
 C1169 C 0.28591 0.88193 0.59186
 C1170 C 0.29803 0.87533 0.61686
 C1171 C 0.30768 0.89689 0.63378
 C1172 C 0.30603 0.92520 0.62562
 C1173 C 0.27520 0.86047 0.57519
 C1174 C 0.26135 0.86733 0.55108
 C1175 C 0.25877 0.89597 0.54331
 C1176 C 0.27057 0.91734 0.55936
 C1177 C 0.24356 0.90288 0.52007
 C1178 C 0.23029 0.88172 0.50507
 C1179 C 0.23300 0.85305 0.51224
 C1180 C 0.24908 0.84605 0.53514
 H1181 H 0.29298 0.95395 0.59440
 H1182 H 0.29963 0.85356 0.62349
 H1183 H 0.31663 0.89151 0.65319
 H1184 H 0.27684 0.83854 0.58140
 H1185 H 0.26863 0.93929 0.55332
 H1186 H 0.24103 0.92474 0.51402
 H1187 H 0.21724 0.88794 0.48820
 H1188 H 0.25141 0.82411 0.54098
 C1189 C 0.29224 0.05918 0.38181
 C1190 C 0.27953 0.08008 0.39770
 C1191 C 0.27530 0.10745 0.38692
 C1192 C 0.28285 0.11306 0.36010
 C1193 C 0.29452 0.09178 0.34412
 C1194 C 0.29961 0.06492 0.35499
 C1195 C 0.26329 0.12860 0.40301
 C1196 C 0.25434 0.12242 0.42933
 C1197 C 0.25743 0.09473 0.43965
 C1198 C 0.27055 0.07390 0.42399
 C1199 C 0.24673 0.08815 0.46524
 C1200 C 0.23299 0.10876 0.48044
 C1201 C 0.23100 0.13674 0.47100
 C1202 C 0.24171 0.14333 0.44529
 H1203 H 0.29586 0.03826 0.39006
 H1204 H 0.27953 0.13381 0.35143
 H1205 H 0.30015 0.09642 0.32342
 H1206 H 0.26040 0.14969 0.39487
 H1207 H 0.27325 0.05276 0.43206
 H1208 H 0.24833 0.06689 0.47322
 H1209 H 0.22364 0.10267 0.49950
 H1210 H 0.23980 0.16469 0.43756
 C1211 C 0.70463 0.07322 0.59577
 C1212 C 0.71260 0.09530 0.57839
 C1213 C 0.69318 0.11716 0.57260
 C1214 C 0.66567 0.11579 0.58331
 C1215 C 0.65766 0.09327 0.60000
 C1216 C 0.67722 0.07219 0.60675
 C1217 C 0.70166 0.14009 0.55645
 C1218 C 0.72911 0.14112 0.54556
 C1219 C 0.74801 0.11850 0.55026
 C1220 C 0.73973 0.09589 0.56684
 C1221 C 0.77508 0.11906 0.53860
 C1222 C 0.78365 0.14212 0.52297
 C1223 C 0.76543 0.16506 0.51902
 C1224 C 0.73817 0.16453 0.53030
 H1225 H 0.71965 0.05671 0.60065
 H1226 H 0.65042 0.13219 0.57890
 H1227 H 0.63642 0.09275 0.60829
 H1228 H 0.68698 0.15717 0.55249
 H1229 H 0.75445 0.07887 0.57089
 H1230 H 0.78974 0.10183 0.54183
 H1231 H 0.80481 0.14247 0.51450
 H1232 H 0.72419 0.18238 0.52727
 C1233 C 0.91593 0.60882 0.29816
 C1234 C 0.90057 0.58751 0.28478
 C1235 C 0.91516 0.56729 0.26907
 C1236 C 0.94480 0.56836 0.26742
 C1237 C 0.95988 0.58931 0.28110
 C1238 C 0.94558 0.60967 0.29632
 C1239 C 0.89996 0.54635 0.25522
 C1240 C 0.87034 0.54515 0.25700
 C1241 C 0.85574 0.56493 0.27314
 C1242 C 0.87093 0.58605 0.28685
 C1243 C 0.82612 0.56341 0.27505
 C1244 C 0.81108 0.54280 0.26081
 C1245 C 0.82535 0.52332 0.24439
 C1246 C 0.85505 0.52464 0.24261
 H1247 H 0.90499 0.62450 0.31014
 H1248 H 0.95632 0.55299 0.25559
 H1249 H 0.98279 0.58980 0.27967
 H1250 H 0.91118 0.53105 0.24300
 H1251 H 0.85970 0.60138 0.29902
 H1252 H 0.81457 0.57831 0.28739
 H1253 H 0.78820 0.54213 0.26244
 H1254 H 0.86618 0.51003 0.22960
 C1255 C 0.92710 0.39909 0.68117
 C1256 C 0.90703 0.40964 0.69946
 C1257 C 0.90353 0.39641 0.72483
 C1258 C 0.91957 0.37252 0.73122
 C1259 C 0.93947 0.36221 0.71299
 C1260 C 0.94375 0.37554 0.68796
 C1261 C 0.88458 0.40760 0.74368
 C1262 C 0.86932 0.43214 0.73772
 C1263 C 0.87220 0.44504 0.71214
 C1264 C 0.89088 0.43358 0.69308
 C1265 C 0.85700 0.46973 0.70640
 C1266 C 0.84027 0.48228 0.72625
 C1267 C 0.83846 0.47029 0.75209
 C1268 C 0.85219 0.44467 0.75740
 H1269 H 0.93008 0.40948 0.66190
 H1270 H 0.91707 0.36207 0.75051
 H1271 H 0.95187 0.34399 0.71876
 H1272 H 0.88231 0.39768 0.76329
 H1273 H 0.89343 0.44372 0.67362
 H1274 H 0.85878 0.47984 0.68687
 H1275 H 0.82962 0.50198 0.72184
 H1276 H 0.85091 0.43547 0.77738
 C1277 C 0.05624 0.60864 0.72255
 C1278 C 0.07601 0.59454 0.73883
 C1279 C 0.10376 0.60565 0.74147
 C1280 C 0.11083 0.63130 0.72881
 C1281 C 0.09082 0.64547 0.71313
 C1282 C 0.06366 0.63399 0.70956
 C1283 C 0.12406 0.59081 0.75646
 C1284 C 0.11680 0.56535 0.76937
 C1285 C 0.08870 0.55498 0.76779
 C1286 C 0.06857 0.56944 0.75227
 C1287 C 0.08121 0.53031 0.78184
 C1288 C 0.10144 0.51576 0.79692
 C1289 C 0.12984 0.52489 0.79738
 C1290 C 0.13721 0.55006 0.78384
 H1291 H 0.03519 0.59983 0.71974
 H1292 H 0.13191 0.64021 0.73078
 H1293 H 0.09680 0.66492 0.70302
 H1294 H 0.14548 0.59904 0.75802
 H1295 H 0.04717 0.56116 0.75064
 H1296 H 0.05964 0.52236 0.78132
 H1297 H 0.09486 0.49721 0.80814
 H1298 H 0.15893 0.55759 0.78437
 C1299 C 0.07144 0.40619 0.30018
 C1300 C 0.09452 0.41934 0.28730
 C1301 C 0.12149 0.40637 0.28779
 C1302 C 0.12471 0.38013 0.30056
 C1303 C 0.10140 0.36671 0.31242
 C1304 C 0.07476 0.37973 0.31244
 C1305 C 0.14464 0.41956 0.27510
 C1306 C 0.14096 0.44501 0.26104
 C1307 C 0.11378 0.45745 0.25983
 C1308 C 0.09088 0.44484 0.27336
 C1309 C 0.10980 0.48204 0.24463
 C1310 C 0.13249 0.49428 0.23082
 C1311 C 0.15990 0.48291 0.23282
 C1312 C 0.16392 0.45802 0.24778
 H1313 H 0.05072 0.41601 0.29990
 H1314 H 0.14514 0.36978 0.30099
 H1315 H 0.10416 0.34623 0.32183
 H1316 H 0.16535 0.40973 0.27571
 H1317 H 0.07013 0.45455 0.27258
 H1318 H 0.08903 0.49157 0.24305
 H1319 H 0.12860 0.51271 0.21845
 H1320 H 0.18487 0.44883 0.24906
   
