data_POSCAR
  _audit_creation_date              2014-09-24
  _audit_creation_method            'ToBaCCo'
  _symmetry_space_group_name_H-M    'P1'
  _symmetry_Int_Tables_number       1
  _symmetry_cell_setting            triclinic
  loop_
  _symmetry_equiv_pos_as_xyz
 x,y,z
_cell_length_a 51.4188
_cell_length_b 48.3836
_cell_length_c 50.5177
_cell_angle_alpha 90.011000
_cell_angle_beta 90.328200
_cell_angle_gamma 89.524800
loop_
  _atom_site_label
  _atom_site_type_symbol
  _atom_site_fract_x
  _atom_site_fract_y
  _atom_site_fract_z
C1 C 0.31253 0.45139 0.92984
 N2 N 0.33495 0.45164 0.94429
 C3 C 0.33935 0.43210 0.96324
 N4 N 0.32123 0.41244 0.96757
 C5 C 0.29887 0.41206 0.95328
 N6 N 0.29462 0.43147 0.93434
 C7 C 0.45000 0.82561 0.42833
 N8 N 0.46440 0.80964 0.41164
 C9 C 0.46150 0.78192 0.41101
 N10 N 0.44322 0.77019 0.42624
 C11 C 0.42784 0.78565 0.44221
 N12 N 0.43142 0.81359 0.44371
 C13 C 0.94209 0.93506 0.81665
 N14 N 0.94122 0.94840 0.84036
 C15 C 0.92359 0.96907 0.84437
 N16 N 0.90716 0.97646 0.82446
 C17 C 0.90819 0.96357 0.80068
 N18 N 0.92552 0.94268 0.79689
 C19 C 0.44346 -0.08749 0.30936
 N20 N 0.44678 -0.06922 0.32946
 C21 C 0.43190 -0.04600 0.33122
 N22 N 0.41320 -0.04098 0.31256
 C23 C 0.40980 -0.05897 0.29208
 N24 N 0.42504 -0.08215 0.29056
 C25 C 0.81061 0.30443 0.32984
 N26 N 0.83042 0.28572 0.32845
 C27 C 0.84883 0.28820 0.30931
 N28 N 0.84753 0.30971 0.29193
 C29 C 0.82770 0.32832 0.29355
 N30 N 0.80947 0.32547 0.31241
 C31 C -0.19217 0.84058 0.78808
 N32 N -0.16853 0.82800 0.78909
 C33 C -0.16422 0.80624 0.80540
 N34 N -0.18393 0.79648 0.82034
 C35 C -0.20791 0.80849 0.81906
 N36 N -0.21185 0.83085 0.80319
 C37 C 0.95382 0.33069 0.45780
 N38 N 0.96110 0.31021 0.44109
 C39 C 0.94508 0.28881 0.43593
 N40 N 0.92130 0.28799 0.44742
 C41 C 0.91381 0.30848 0.46421
 N42 N 0.93010 0.32985 0.46935
 C43 C 0.44153 0.46012 0.83272
 N44 N 0.44214 0.43219 0.82869
 C45 C 0.42733 0.42112 0.80889
 N46 N 0.41168 0.43768 0.79402
 C47 C 0.41161 0.46530 0.79760
 N48 N 0.42657 0.47631 0.81681
 C49 C 0.78012 0.92095 0.94406
 N50 N 0.79467 0.93316 0.96321
 C51 C 0.81338 0.95159 0.95704
 N52 N 0.81650 0.95906 0.93136
 C53 C 0.80137 0.94787 0.91198
 N54 N 0.78365 0.92813 0.91826
 C55 C 0.32122 0.81762 0.30418
 N56 N 0.30361 0.80815 0.32219
 C57 C 0.30885 0.78421 0.33574
 N58 N 0.33138 0.77010 0.33115
 C59 C 0.34896 0.77982 0.31367
 N60 N 0.34367 0.80335 0.30037
 C61 C 0.80915 0.42845 0.44641
 N62 N 0.82910 0.43478 0.46307
 C63 C 0.84855 0.45159 0.45484
 N64 N 0.84824 0.46152 0.42974
 C65 C 0.82863 0.45509 0.41279
 N66 N 0.80892 0.43878 0.42129
 C67 C 0.93088 0.84617 -0.05472
 N68 N 0.90907 0.83077 -0.05618
 C69 C 0.90667 0.81062 -0.07447
 N70 N 0.92668 0.80517 -0.09110
 C71 C 0.94901 0.81998 -0.08948
 N72 N 0.95090 0.84089 -0.07151
 C73 C 0.29836 0.33193 0.81367
 N74 N 0.28946 0.31540 0.83343
 C75 C 0.29326 0.28768 0.83251
 N76 N 0.30628 0.27657 0.81193
 C77 C 0.31578 0.29259 0.79235
 N78 N 0.31198 0.32055 0.79317
 C79 C 0.17285 0.55417 0.55647
 N80 N 0.17316 0.53962 0.57950
 C81 C 0.18706 0.54886 0.60061
 N82 N 0.20102 0.57235 0.59837
 C83 C 0.20085 0.58696 0.57548
 N84 N 0.18659 0.57794 0.55450
 C85 C 0.59131 0.68014 0.05139
 N86 N 0.58274 0.70199 0.06596
 C87 C 0.55965 0.70045 0.07894
 N88 N 0.54537 0.67696 0.07744
 C89 C 0.55370 0.65530 0.06261
 N90 N 0.57662 0.65702 0.04970
 C91 C 0.68409 0.20531 0.65981
 N92 N 0.66389 0.22262 0.66501
 C93 C 0.65099 0.22059 0.68834
 N94 N 0.65842 0.20134 0.70649
 C95 C 0.67891 0.18435 0.70152
 N96 N 0.69149 0.18626 0.67812
 C97 C 1.07826 0.01886 0.20756
 N98 N 1.07712 0.04017 0.22504
 C99 C 1.06441 0.06375 0.21866
 N100 N 1.05180 0.06556 0.19538
 C101 C 1.05201 0.04449 0.17782
 N102 N 1.06604 0.02105 0.18346
 C103 C 0.04363 0.17432 1.07586
 N104 N 0.04471 0.18832 1.09919
 C105 C 0.06631 0.20274 1.10605
 N106 N 0.08682 0.20336 1.08917
 C107 C 0.08600 0.18914 1.06597
 N108 N 0.06448 0.17450 1.05953
 C109 C 0.16572 0.72027 0.68918
 N110 N 0.18513 0.72755 0.67265
 C111 C 0.20800 0.71332 0.67290
 N112 N 0.21125 0.69133 0.68949
 C113 C 0.19171 0.68402 0.70604
 N114 N 0.16917 0.69868 0.70588
 C115 C 1.18545 0.15047 0.19521
 N116 N 1.17300 0.16604 0.21375
 C117 C 1.17580 0.19376 0.21444
 N118 N 1.18994 0.20619 0.19551
 C119 C 1.20142 0.19137 0.17590
 N120 N 1.19977 0.16316 0.17606
 C121 C 0.65996 1.04826 0.54595
 N122 N 0.67331 1.04218 0.56829
 C123 C 0.69267 1.05867 0.57703
 N124 N 0.69952 1.08131 0.56273
 C125 C 0.68664 1.08714 0.53967
 N126 N 0.66676 1.07061 0.53155
 C127 C 0.57807 0.53357 0.16292
 N128 N 0.56508 0.55807 0.16373
 C129 C 0.56973 0.57650 0.18341
 N130 N 0.58734 0.57016 0.20266
 C131 C 0.60045 0.54563 0.20205
 N132 N 0.59597 0.52751 0.18198
 C133 C 0.67731 0.70909 0.17761
 N134 N 0.68346 0.68870 0.19506
 C135 C 0.70421 0.67184 0.19077
 N136 N 0.71887 0.67537 0.16882
 C137 C 0.71298 0.69571 0.15122
 N138 N 0.69210 0.71256 0.15560
 C139 C 0.14451 0.05042 1.04535
 N140 N 0.14909 0.02860 1.06178
 C141 C 0.17240 0.02593 1.07438
 N142 N 0.19100 0.04523 1.07059
 C143 C 0.18676 0.06689 1.05417
 N144 N 0.16347 0.06947 1.04155
 C145 C 0.57637 0.20060 0.53847
 N146 N 0.56794 0.22105 0.55490
 C147 C 0.54703 0.21679 0.57069
 N148 N 0.53511 0.19188 0.57044
 C149 C 0.54351 0.17139 0.55426
 N150 N 0.56403 0.17587 0.53814
 C151 C 0.08118 0.55964 0.71338
 N152 N 0.06640 0.58294 0.71525
 C153 C 0.05191 0.59168 0.69431
 N154 N 0.05226 0.57702 0.67138
 C155 C 0.06730 0.55393 0.66919
 N156 N 0.08183 0.54535 0.69022
 C157 C 0.67359 0.54538 0.03843
 N158 N 0.69097 0.56388 0.02932
 C159 C 0.71226 0.57031 0.04388
 N160 N 0.71598 0.55853 0.06805
 C161 C 0.69841 0.54018 0.07741
 N162 N 0.67729 0.53362 0.06250
 C163 C 0.05205 0.71517 0.58671
 N164 N 0.07588 0.72728 0.58599
 C165 C 0.09479 0.71688 0.56995
 N166 N 0.08970 0.69445 0.55480
 C167 C 0.06621 0.68200 0.55583
 N168 N 0.04740 0.69237 0.57176
 C169 C 0.55308 1.04143 0.66031
 N170 N 0.57218 1.03738 0.67865
 C171 C 0.57749 1.05726 0.69690
 N172 N 0.56383 1.08150 0.69653
 C173 C 0.54504 1.08592 0.67794
 N174 N 0.53973 1.06579 0.66003
 C175 C 0.45051 0.31562 0.93400
 N176 N 0.43073 0.31126 0.95122
 C177 C 0.41235 0.29191 0.94589
 N178 N 0.41365 0.27709 0.92306
 C179 C 0.43330 0.28142 0.90572
 N180 N 0.45161 0.30062 0.91132
 C181 C 0.94503 0.45457 0.33857
 N182 N 0.95458 0.42849 0.33969
 C183 C 0.94984 0.41016 0.32006
 N184 N 0.93556 0.41814 0.29864
 C185 C 0.92571 0.44436 0.29732
 N186 N 0.93024 0.46241 0.31747
 C187 C 0.30451 0.95833 0.40226
 N188 N 0.31837 0.97237 0.42050
 C189 C 0.32841 0.95927 0.44201
 N190 N 0.32393 0.93184 0.44567
 C191 C 0.30883 0.91810 0.42789
 N192 N 0.29967 0.93131 0.40609
 O193 O 0.22792 0.58029 0.73313
 O194 O 0.27355 0.57197 0.72623
 O195 O 0.19726 0.49995 0.70884
 O196 O 0.19941 0.45658 0.72268
 O197 O 0.17042 0.54216 0.78054
 O198 O 0.18807 0.54489 0.82444
 O199 O 0.28015 0.44058 0.77565
 O200 O 0.26620 0.44289 0.73052
 O201 O 0.31423 0.51956 0.78923
 O202 O 0.29950 0.56674 0.78830
 O203 O 0.25883 0.48394 0.84296
 O204 O 0.21038 0.48281 0.84260
 O205 O 0.25529 0.44384 0.81260
 O206 O 0.20770 0.45012 0.81804
 O207 O 0.28819 0.51707 0.83269
 O208 O 0.27805 0.56682 0.82088
 O209 O 0.31132 0.48072 0.76399
 O210 O 0.29364 0.47559 0.72001
 O211 O 0.20383 0.58210 0.77076
 O212 O 0.21426 0.57683 0.81663
 O213 O 0.16713 0.50675 0.75104
 O214 O 0.18071 0.45789 0.76120
 O215 O 0.22353 0.53646 0.70029
 O216 O 0.26991 0.53848 0.70092
 Zr217 Zr 0.24614 0.54094 0.73487
 O218 O 0.27663 0.52100 0.75525
 Zr219 Zr 0.20522 0.49028 0.74869
 O220 O 0.23431 0.46796 0.76953
 Zr221 Zr 0.21031 0.54396 0.78937
 O222 O 0.23931 0.52423 0.81218
 Zr223 Zr 0.27132 0.47782 0.75513
 O224 O 0.24205 0.49763 0.73192
 Zr225 Zr 0.27575 0.53206 0.79548
 O226 O 0.24700 0.55464 0.77445
 Zr227 Zr 0.23495 0.48130 0.80913
 O228 O 0.20378 0.50117 0.78900
 O229 O 0.20947 0.53297 0.74954
 O230 O 0.27215 0.48916 0.79490
 C231 C 0.21240 0.59265 0.74924
 C232 C 0.20608 0.51888 0.69358
 C233 C 0.15747 0.52695 0.76445
 C234 C 0.27206 0.43142 0.79806
 C235 C 0.32425 0.49918 0.77663
 C236 C 0.27908 0.49839 0.84808
 H237 H 0.29304 0.52650 0.74670
 H238 H 0.23834 0.53057 0.83074
 H239 H 0.19607 0.54302 0.73910
 H240 H 0.23115 0.44789 0.76806
 H241 H 0.25419 0.44864 0.71611
 H242 H 0.21246 0.44223 0.72729
 H243 H 0.26765 0.56303 0.83686
 H244 H 0.23094 0.58589 0.81250
 H245 H 0.30141 0.49393 0.71698
 H246 H 0.26894 0.51917 0.69453
 H247 H 0.21359 0.50044 0.85194
 H248 H 0.18101 0.52608 0.82678
 H249 H 0.27468 0.58393 0.74209
 H250 H 0.30574 0.56533 0.76986
 H251 H 0.17291 0.46370 0.77821
 H252 H 0.20760 0.43682 0.80318
 O253 O 0.22314 0.04201 0.19089
 O254 O 0.26979 0.03925 0.18463
 O255 O 0.20018 -0.04114 0.16753
 O256 O 0.21374 -0.08455 0.17911
 O257 O 0.17028 -0.00702 0.23859
 O258 O 0.18832 0.00168 0.28245
 O259 O 0.29039 -0.08920 0.23499
 O260 O 0.27565 -0.08903 0.18812
 O261 O 0.31535 -0.01536 0.25545
 O262 O 0.29888 0.03433 0.24023
 O263 O 0.26341 -0.04572 0.30253
 O264 O 0.21431 -0.05579 0.29910
 O265 O 0.26652 -0.08967 0.27275
 O266 O 0.22169 -0.09144 0.27901
 O267 O 0.28509 -0.00626 0.29261
 O268 O 0.27719 0.03766 0.27436
 O269 O 0.31693 -0.04832 0.22351
 O270 O 0.30310 -0.05454 0.18064
 O271 O 0.19685 0.03824 0.22675
 O272 O 0.20763 0.03711 0.27238
 O273 O 0.17150 -0.04273 0.20928
 O274 O 0.19100 -0.08732 0.21747
 O275 O 0.22340 -0.00237 0.15856
 O276 O 0.26915 0.00609 0.15840
 Zr277 Zr 0.24581 0.00503 0.19271
 O278 O 0.27876 -0.01099 0.21290
 Zr279 Zr 0.21156 -0.05141 0.20641
 O280 O 0.24255 -0.06917 0.22837
 Zr281 Zr 0.20943 0.00267 0.24665
 O282 O 0.24081 -0.01180 0.26950
 Zr283 Zr 0.27776 -0.05435 0.21353
 O284 O 0.24701 -0.03855 0.18972
 Zr285 Zr 0.27653 0.00020 0.25283
 O286 O 0.24472 0.01855 0.23227
 Zr287 Zr 0.24165 -0.05521 0.26795
 O288 O 0.20849 -0.04070 0.24681
 O289 O 0.21034 -0.00844 0.20714
 O290 O 0.27732 -0.04274 0.25319
 C291 C 0.20472 0.05084 0.20600
 C292 C 0.20675 -0.02102 0.15243
 C293 C 0.15934 -0.02497 0.22351
 C294 C 0.28442 -0.09931 0.25767
 C295 C 0.32748 -0.03408 0.24204
 C296 C 0.27830 -0.02533 0.30856
 H297 H 0.29495 -0.00426 0.20474
 H298 H 0.23825 -0.00450 0.28758
 H299 H 0.19535 -0.00069 0.19717
 H300 H 0.24189 -0.08955 0.22733
 H301 H 0.26551 -0.08323 0.17230
 H302 H 0.22564 -0.09873 0.18659
 H303 H 0.26123 0.03811 0.28521
 H304 H 0.22179 0.04965 0.26708
 H305 H 0.30223 -0.03592 0.17268
 H306 H 0.26954 -0.01294 0.15118
 H307 H 0.21680 -0.03880 0.30970
 H308 H 0.18196 -0.01744 0.28459
 H309 H 0.27053 0.05029 0.20111
 H310 H 0.31441 0.02720 0.23088
 H311 H 0.18463 -0.08421 0.23570
 H312 H 0.21816 -0.10196 0.26262
 O313 O 0.58433 0.72493 0.22490
 O314 O 0.58272 0.71545 0.27093
 O315 O 0.51554 0.68467 0.19568
 O316 O 0.47292 0.68870 0.19830
 O317 O 0.53690 0.76799 0.17137
 O318 O 0.52945 0.81232 0.19132
 O319 O 0.45162 0.73118 0.28527
 O320 O 0.46349 0.68790 0.26853
 O321 O 0.51509 0.76796 0.31823
 O322 O 0.55910 0.77482 0.30685
 O323 O 0.47191 0.81413 0.26433
 O324 O 0.46551 0.81508 0.21901
 O325 O 0.44256 0.77117 0.26326
 O326 O 0.44541 0.77931 0.21187
 O327 O 0.50725 0.81140 0.29146
 O328 O 0.55611 0.80724 0.28083
 O329 O 0.49082 0.72905 0.31439
 O330 O 0.49864 0.68362 0.29331
 O331 O 0.57639 0.76513 0.20273
 O332 O 0.56122 0.81054 0.21840
 O333 O 0.51064 0.73060 0.16717
 O334 O 0.46381 0.72904 0.18310
 O335 O 0.55146 0.68152 0.22215
 O336 O 0.55699 0.68259 0.26994
 Zr337 Zr 0.54971 0.71760 0.24587
 O338 O 0.52849 0.73222 0.27861
 Zr339 Zr 0.49790 0.72230 0.20602
 O340 O 0.47414 0.73560 0.23751
 Zr341 Zr 0.53764 0.77547 0.21237
 O342 O 0.51487 0.79214 0.24320
 Zr343 Zr 0.48942 0.72121 0.27362
 O344 O 0.51090 0.70445 0.24196
 Zr345 Zr 0.52788 0.77568 0.27942
 O346 O 0.55252 0.76099 0.24882
 Zr347 Zr 0.47604 0.77890 0.24008
 O348 O 0.49811 0.76576 0.20677
 O349 O 0.53684 0.73260 0.20968
 O350 O 0.48906 0.76425 0.27655
 C351 C 0.59104 0.74451 0.20918
 C352 C 0.53609 0.67215 0.20408
 C353 C 0.52615 0.74880 0.15769
 C354 C 0.43672 0.75168 0.27954
 C355 C 0.50087 0.74875 0.32786
 C356 C 0.48612 0.82316 0.28340
 H357 H 0.53604 0.72456 0.29511
 H358 H 0.51611 0.81251 0.24267
 H359 H 0.54750 0.72467 0.19527
 H360 H 0.45614 0.72913 0.23480
 H361 H 0.47110 0.67573 0.25479
 H362 H 0.46060 0.68764 0.21320
 H363 H 0.54905 0.82330 0.27093
 H364 H 0.57385 0.80565 0.23254
 H365 H 0.51442 0.68643 0.30423
 H366 H 0.54140 0.67079 0.26859
 H367 H 0.48184 0.82492 0.21518
 H368 H 0.51177 0.81030 0.18373
 H369 H 0.58875 0.73467 0.27336
 H370 H 0.56578 0.75563 0.30745
 H371 H 0.46554 0.74732 0.17450
 H372 H 0.43344 0.76407 0.21620
 O373 O 0.06986 0.73670 0.72923
 O374 O 0.07133 0.73217 0.77605
 O375 O -0.00401 0.69838 0.71095
 O376 O -0.04604 0.70592 0.72011
 O377 O 0.02069 0.77245 0.67393
 O378 O 0.01612 0.82057 0.68676
 O379 O -0.05677 0.76163 0.79797
 O380 O -0.04634 0.71610 0.79151
 O381 O 0.01628 0.79809 0.82053
 O382 O 0.06004 0.79706 0.79987
 O383 O -0.03131 0.83835 0.76818
 O384 O -0.04083 0.83683 0.72339
 O385 O -0.06484 0.79847 0.77103
 O386 O -0.06446 0.80257 0.72019
 O387 O 0.00719 0.83656 0.79055
 O388 O 0.05287 0.82868 0.77431
 O389 O -0.01707 0.76785 0.82419
 O390 O -0.00820 0.71568 0.81210
 O391 O 0.06233 0.77379 0.70238
 O392 O 0.05050 0.82155 0.71018
 O393 O -0.01076 0.73995 0.67801
 O394 O -0.05477 0.74325 0.69941
 O395 O 0.03421 0.69574 0.73386
 O396 O 0.04340 0.70171 0.78046
 Zr397 Zr 0.03667 0.73438 0.75343
 O398 O 0.02056 0.75576 0.78591
 Zr399 Zr -0.01850 0.73808 0.71891
 O400 O -0.03736 0.75845 0.75024
 Zr401 Zr 0.02504 0.78757 0.71280
 O402 O 0.00769 0.81087 0.74329
 Zr403 Zr -0.01959 0.74864 0.78671
 O404 O -0.00318 0.72490 0.75570
 Zr405 Zr 0.02380 0.79850 0.77977
 O406 O 0.04308 0.77715 0.74907
 Zr407 Zr -0.03202 0.80129 0.74614
 O408 O -0.01535 0.78096 0.71292
 O409 O 0.02118 0.74505 0.71687
 O410 O -0.01596 0.79116 0.78265
 C411 C 0.07648 0.75371 0.71092
 C412 C 0.01680 0.68563 0.71826
 C413 C 0.00587 0.75358 0.66445
 C414 C -0.07116 0.78153 0.78953
 C415 C -0.00198 0.78657 0.83358
 C416 C -0.01452 0.84824 0.78455
 H417 H 0.02914 0.74989 0.80256
 H418 H 0.01014 0.83081 0.73994
 H419 H 0.02996 0.73434 0.70279
 H420 H -0.05589 0.75318 0.74981
 H421 H -0.04073 0.70106 0.77948
 H422 H -0.05469 0.70717 0.73749
 H423 H 0.04560 0.84335 0.76273
 H424 H 0.06336 0.81935 0.72469
 H425 H 0.00278 0.72314 0.82653
 H426 H 0.02646 0.69257 0.78305
 H427 H -0.02501 0.84118 0.71325
 H428 H -0.00189 0.81766 0.68037
 H429 H 0.07839 0.75114 0.77653
 H430 H 0.06056 0.78006 0.81074
 H431 H -0.05362 0.76027 0.68861
 H432 H -0.07585 0.78695 0.72485
 O433 O -0.02880 0.08742 0.05363
 O434 O -0.07184 0.07437 0.05924
 O435 O 0.01456 0.01556 0.07913
 O436 O 0.01582 -0.02910 0.06846
 O437 O 0.03593 0.05649 0.00670
 O438 O 0.01793 0.05905 -0.03645
 O439 O -0.05976 -0.05672 0.01386
 O440 O -0.04906 -0.05242 0.05823
 O441 O -0.10195 0.01016 -0.01035
 O442 O -0.09674 0.06192 -0.00270
 O443 O -0.04138 -0.01340 -0.05590
 O444 O 0.00573 -0.01009 -0.05377
 O445 O -0.03467 -0.05322 -0.02291
 O446 O 0.01279 -0.03992 -0.02687
 O447 O -0.07316 0.01869 -0.04892
 O448 O -0.07396 0.06696 -0.03499
 O449 O -0.09571 -0.02289 0.02111
 O450 O -0.07868 -0.02112 0.06779
 O451 O -0.00094 0.09217 0.01909
 O452 O -0.01298 0.08661 -0.02810
 O453 O 0.04377 0.02140 0.03575
 O454 O 0.03538 -0.02853 0.02984
 O455 O -0.01847 0.04638 0.08596
 O456 O -0.06597 0.04012 0.08389
 Zr457 Zr -0.04107 0.04643 0.05131
 O458 O -0.06828 0.02272 0.03033
 Zr459 Zr 0.00737 0.00192 0.04012
 O460 O -0.01810 -0.02450 0.01945
 Zr461 Zr -0.00401 0.05406 -0.00155
 O462 O -0.02886 0.02940 -0.02481
 Zr463 Zr -0.05648 -0.01869 0.03259
 O464 O -0.03054 0.00466 0.05595
 Zr465 Zr -0.06691 0.03250 -0.01010
 O466 O -0.04246 0.05943 0.01156
 Zr467 Zr -0.01915 -0.01282 -0.02067
 O468 O 0.00818 0.01228 -0.00038
 O469 O -0.00290 0.04342 0.03813
 O470 O -0.05735 -0.00931 -0.00769
 C471 C -0.01226 0.10115 0.04019
 C472 C 0.00235 0.03354 0.09320
 C473 C 0.05106 0.04205 0.02162
 C474 C -0.05034 -0.06630 -0.00767
 C475 C -0.10956 -0.01057 0.00337
 C476 C -0.06149 0.00062 -0.06324
 H477 H -0.08584 0.02572 0.03765
 H478 H -0.02777 0.03560 -0.04341
 H479 H 0.00945 0.05494 0.04827
 H480 H -0.01248 -0.04394 0.02182
 H481 H -0.03746 -0.04553 0.07244
 H482 H 0.00511 -0.04533 0.06393
 H483 H -0.05905 0.06839 -0.04718
 H484 H -0.02902 0.09565 -0.02149
 H485 H -0.09258 -0.00689 0.06707
 H486 H -0.06058 0.02243 0.09219
 H487 H 0.00230 0.00793 -0.06241
 H488 H 0.02663 0.04105 -0.03974
 H489 H -0.07748 0.08181 0.04187
 H490 H -0.10753 0.05500 0.01199
 H491 H 0.04230 -0.02339 0.01229
 H492 H 0.01236 -0.05438 -0.01304
 O493 O 0.08367 0.54081 0.49076
 O494 O 0.06370 0.53735 0.44425
 O495 O 0.02489 0.57823 0.53521
 O496 O -0.01849 0.57086 0.54241
 O497 O 0.06054 0.50198 0.56190
 O498 O 0.05493 0.45366 0.54835
 O499 O -0.05871 0.50447 0.47830
 O500 O -0.05130 0.55310 0.48837
 O501 O -0.00365 0.47767 0.42937
 O502 O 0.04711 0.48136 0.42957
 O503 O -0.01777 0.43376 0.49839
 O504 O -0.00452 0.44219 0.54695
 O505 O -0.05230 0.47092 0.50921
 O506 O -0.03521 0.46792 0.55211
 O507 O 0.00703 0.43692 0.46140
 O508 O 0.04918 0.44598 0.45078
 O509 O -0.03200 0.51290 0.43772
 O510 O -0.02754 0.55777 0.44935
 O511 O 0.08922 0.50383 0.51810
 O512 O 0.07934 0.45677 0.51603
 O513 O 0.03122 0.53646 0.56985
 O514 O -0.01477 0.53454 0.56988
 O515 O 0.04691 0.57932 0.49630
 O516 O 0.04237 0.57318 0.45356
 Zr517 Zr 0.04357 0.53990 0.48062
 O518 O 0.01459 0.51908 0.45909
 Zr519 Zr 0.00817 0.53811 0.53537
 O520 O -0.02148 0.51500 0.51662
 Zr521 Zr 0.05171 0.48846 0.52317
 O522 O 0.02466 0.46436 0.50234
 Zr523 Zr -0.02229 0.52460 0.47622
 O524 O 0.00599 0.54955 0.49517
 Zr525 Zr 0.02208 0.47669 0.46239
 O526 O 0.05248 0.49757 0.48236
 Zr527 Zr -0.01249 0.47237 0.51761
 O528 O 0.01495 0.49520 0.53998
 O529 O 0.04525 0.53083 0.52079
 O530 O -0.01518 0.48217 0.47749
 C531 C 0.09776 0.52465 0.50526
 C532 C 0.03922 0.59036 0.51788
 C533 C 0.05027 0.52065 0.57676
 C534 C -0.06657 0.48416 0.49260
 C535 C -0.02290 0.49363 0.42302
 C536 C -0.00787 0.42373 0.47705
 H537 H 0.01475 0.52553 0.44052
 H538 H 0.02990 0.44474 0.50414
 H539 H 0.05839 0.54182 0.53045
 H540 H -0.03852 0.51895 0.52484
 H541 H -0.04216 0.56986 0.49452
 H542 H -0.03614 0.56411 0.53816
 H543 H 0.05628 0.43772 0.46723
 H544 H 0.08382 0.45792 0.49704
 H545 H -0.01740 0.57344 0.45642
 H546 H 0.02495 0.57288 0.44519
 H547 H 0.00758 0.42839 0.53928
 H548 H 0.04142 0.45579 0.56210
 H549 H 0.07653 0.52206 0.44592
 H550 H 0.03915 0.49511 0.41742
 H551 H -0.01229 0.51547 0.57657
 H552 H -0.04233 0.48639 0.55654
 O553 O 0.49707 0.05944 0.54662
 O554 O 0.45148 0.04876 0.54700
 O555 O 0.53093 -0.02066 0.56310
 O556 O 0.52601 -0.06353 0.54532
 O557 O 0.56310 0.02904 0.50346
 O558 O 0.55100 0.03909 0.45841
 O559 O 0.45646 -0.07172 0.47784
 O560 O 0.46445 -0.07636 0.52488
 O561 O 0.42203 0.00885 0.47187
 O562 O 0.43591 0.05595 0.48243
 O563 O 0.48313 -0.01918 0.42192
 O564 O 0.53216 -0.01803 0.42781
 O565 O 0.48656 -0.06272 0.44630
 O566 O 0.53384 -0.05437 0.44751
 O567 O 0.45256 0.01301 0.43268
 O568 O 0.45981 0.06015 0.45188
 O569 O 0.42225 -0.03358 0.49129
 O570 O 0.43301 -0.04605 0.53423
 O571 O 0.52653 0.06798 0.51422
 O572 O 0.52313 0.06984 0.46729
 O573 O 0.56357 -0.01276 0.52422
 O574 O 0.55129 -0.05874 0.50991
 O575 O 0.50166 0.01322 0.57312
 O576 O 0.45499 0.01167 0.56787
 Zr577 Zr 0.48164 0.02059 0.53736
 O578 O 0.45464 0.00451 0.51029
 Zr579 Zr 0.52523 -0.02714 0.52210
 O580 O 0.50000 -0.04556 0.49419
 Zr581 Zr 0.52437 0.03285 0.48952
 O582 O 0.49904 0.01720 0.46023
 Zr583 Zr 0.46105 -0.03820 0.50467
 O584 O 0.48637 -0.02264 0.53462
 Zr585 Zr 0.46049 0.02217 0.47277
 O586 O 0.48560 0.04079 0.50065
 Zr587 Zr 0.50410 -0.02573 0.45739
 O588 O 0.53166 -0.00970 0.48450
 O589 O 0.52021 0.01527 0.52664
 O590 O 0.46518 -0.02030 0.46748
 C591 C 0.51393 0.07472 0.53522
 C592 C 0.52044 -0.00329 0.57922
 C593 C 0.57462 0.00944 0.51632
 C594 C 0.46845 -0.07747 0.45616
 C595 C 0.41075 -0.01308 0.47985
 C596 C 0.46315 -0.00407 0.41641
 H597 H 0.43711 0.00856 0.51729
 H598 H 0.50206 0.02641 0.44309
 H599 H 0.53243 0.02383 0.53937
 H600 H 0.50375 -0.06560 0.49310
 H601 H 0.47240 -0.07238 0.54236
 H602 H 0.51558 -0.07755 0.53586
 H603 H 0.47255 0.05897 0.43733
 H604 H 0.50531 0.07742 0.46927
 H605 H 0.42923 -0.02829 0.54312
 H606 H 0.45793 -0.00789 0.57293
 H607 H 0.52769 -0.00028 0.41913
 H608 H 0.55800 0.02063 0.45371
 H609 H 0.45156 0.06336 0.53327
 H610 H 0.42576 0.05065 0.49819
 H611 H 0.55970 -0.05220 0.49351
 H612 H 0.53236 -0.07037 0.45959
 O613 O 0.43453 0.47199 -0.01781
 O614 O 0.43584 0.51896 -0.00544
 O615 O 0.49667 0.46273 -0.07287
 O616 O 0.53917 0.46785 -0.07363
 O617 O 0.48459 0.40424 -0.01016
 O618 O 0.49806 0.40353 0.03545
 O619 O 0.56850 0.52898 -0.00347
 O620 O 0.54968 0.53505 -0.04430
 O621 O 0.50589 0.54421 0.05080
 O622 O 0.46374 0.52385 0.05751
 O623 O 0.55683 0.47523 0.06197
 O624 O 0.56157 0.43142 0.04361
 O625 O 0.58118 0.49155 0.02077
 O626 O 0.57757 0.44000 0.00760
 O627 O 0.52316 0.50245 0.07538
 O628 O 0.47526 0.48886 0.07604
 O629 O 0.53104 0.55666 0.01597
 O630 O 0.51550 0.55793 -0.03156
 O631 O 0.44584 0.43482 0.00750
 O632 O 0.46728 0.42800 0.05005
 O633 O 0.50862 0.41704 -0.04570
 O634 O 0.55375 0.43627 -0.04741
 O635 O 0.46323 0.49045 -0.05947
 O636 O 0.45709 0.53346 -0.03665
 Zr637 Zr 0.46844 0.49588 -0.01844
 O638 O 0.49156 0.52109 0.00581
 Zr639 Zr 0.51918 0.45835 -0.03836
 O640 O 0.54475 0.48295 -0.01598
 Zr641 Zr 0.48603 0.43934 0.01459
 O642 O 0.51102 0.46197 0.03971
 Zr643 Zr 0.52900 0.52277 -0.01026
 O644 O 0.50522 0.49952 -0.03600
 Zr645 Zr 0.49693 0.50267 0.04313
 O646 O 0.47047 0.47930 0.02010
 Zr647 Zr 0.54784 0.46625 0.02230
 O648 O 0.52397 0.43991 -0.00094
 O649 O 0.48182 0.45563 -0.02330
 O650 O 0.53418 0.50651 0.02759
 C651 C 0.42932 0.44926 -0.00593
 C652 C 0.47610 0.47720 -0.07723
 C653 C 0.49486 0.39955 -0.03288
 C654 C 0.58549 0.51482 0.00933
 C655 C 0.52014 0.56149 0.03836
 C656 C 0.54530 0.49052 0.07910
 H657 H 0.48335 0.53956 0.00726
 H658 H 0.51237 0.45273 0.05711
 H659 H 0.47013 0.44496 -0.03505
 H660 H 0.56171 0.48366 -0.02506
 H661 H 0.54059 0.52689 -0.05973
 H662 H 0.55120 0.48309 -0.06945
 H663 H 0.48506 0.47359 0.08461
 H664 H 0.45638 0.44401 0.05531
 H665 H 0.50216 0.56759 -0.02089
 H666 H 0.47187 0.53927 -0.04775
 H667 H 0.54625 0.42277 0.05181
 H668 H 0.51513 0.39800 0.02810
 H669 H 0.43220 0.51272 0.01282
 H670 H 0.45783 0.53671 0.04346
 H671 H 0.55509 0.42065 -0.03481
 H672 H 0.58665 0.45002 -0.00665
 O673 O 0.76900 0.33659 0.49912
 O674 O 0.75826 0.32196 0.54552
 O675 O 0.81289 0.27184 0.46897
 O676 O 0.80972 0.22582 0.46387
 O677 O 0.74442 0.30151 0.42575
 O678 O 0.69762 0.29627 0.43259
 O679 O 0.73861 0.18468 0.51919
 O680 O 0.78584 0.19571 0.51735
 O681 O 0.70307 0.24719 0.55874
 O682 O 0.70181 0.30026 0.55198
 O683 O 0.67638 0.22007 0.48327
 O684 O 0.69040 0.23121 0.43642
 O685 O 0.71346 0.18693 0.48214
 O686 O 0.71852 0.20225 0.43699
 O687 O 0.67034 0.24786 0.51907
 O688 O 0.67247 0.29544 0.52436
 O689 O 0.73684 0.21664 0.55695
 O690 O 0.78195 0.22239 0.55340
 O691 O 0.73957 0.33729 0.46533
 O692 O 0.69531 0.32543 0.46272
 O693 O 0.77971 0.27274 0.42691
 O694 O 0.78040 0.22401 0.43129
 O695 O 0.80593 0.30052 0.50399
 O696 O 0.79089 0.29516 0.54767
 Zr697 Zr 0.76688 0.29522 0.51357
 O698 O 0.74484 0.26515 0.53359
 Zr699 Zr 0.77663 0.25216 0.46320
 O700 O 0.75372 0.22097 0.48017
 Zr701 Zr 0.72636 0.29652 0.46272
 O702 O 0.70168 0.26789 0.48097
 Zr703 Zr 0.75518 0.22482 0.52138
 O704 O 0.78018 0.25468 0.50466
 Zr705 Zr 0.70564 0.26944 0.52248
 O706 O 0.72736 0.30137 0.50414
 Zr707 Zr 0.71436 0.22810 0.47054
 O708 O 0.73764 0.25676 0.45045
 O709 O 0.76546 0.29222 0.47262
 O710 O 0.71603 0.22936 0.51175
 C711 C 0.75683 0.34885 0.47994
 C712 C 0.82042 0.28987 0.48611
 C713 C 0.76477 0.29042 0.41541
 C714 C 0.72264 0.17410 0.50227
 C715 C 0.71706 0.22730 0.56837
 C716 C 0.66274 0.22934 0.50256
 H717 H 0.74727 0.26775 0.55284
 H718 H 0.68350 0.27146 0.47537
 H719 H 0.77685 0.30548 0.46344
 H720 H 0.75976 0.20246 0.47447
 H721 H 0.80175 0.20635 0.51347
 H722 H 0.80396 0.20721 0.46930
 H723 H 0.66930 0.30244 0.50624
 H724 H 0.69387 0.33246 0.48107
 H725 H 0.78003 0.23943 0.56402
 H726 H 0.80072 0.27748 0.54740
 H727 H 0.67568 0.24374 0.44057
 H728 H 0.70156 0.28027 0.42103
 H729 H 0.74249 0.33263 0.54045
 H730 H 0.71498 0.29636 0.56586
 H731 H 0.76392 0.22488 0.42109
 H732 H 0.73531 0.19227 0.43874
 O733 O 0.73001 0.77628 -0.09163
 O734 O 0.68828 0.76517 -0.07528
 O735 O 0.76641 0.81912 -0.02919
 O736 O 0.77728 0.81109 0.01398
 O737 O 0.80695 0.75162 -0.06962
 O738 O 0.80494 0.70392 -0.06824
 O739 O 0.72659 0.73420 0.05127
 O740 O 0.71808 0.78240 0.04327
 O741 O 0.68798 0.69314 -0.00934
 O742 O 0.68729 0.69283 -0.05498
 O743 O 0.76530 0.67109 0.01117
 O744 O 0.80701 0.68844 0.00190
 O745 O 0.76311 0.70809 0.04564
 O746 O 0.80763 0.72179 0.02619
 O747 O 0.72822 0.66399 -0.01249
 O748 O 0.72227 0.67360 -0.06371
 O749 O 0.68644 0.72691 0.02191
 O750 O 0.68816 0.77962 0.01740
 O751 O 0.76534 0.74852 -0.09823
 O752 O 0.76949 0.69793 -0.08854
 O753 O 0.80894 0.78529 -0.03821
 O754 O 0.80735 0.78310 0.01109
 O755 O 0.72893 0.81407 -0.05293
 O756 O 0.68678 0.79326 -0.04403
 Zr757 Zr 0.72161 0.77104 -0.05130
 O758 O 0.70603 0.74222 -0.02447
 Zr759 Zr 0.77506 0.77949 -0.01478
 O760 O 0.76068 0.75298 0.01475
 Zr761 Zr 0.77302 0.73060 -0.06095
 O762 O 0.76114 0.70117 -0.03300
 Zr763 Zr 0.71963 0.75142 0.01373
 O764 O 0.73396 0.78155 -0.01283
 Zr765 Zr 0.72052 0.70210 -0.03193
 O766 O 0.73228 0.73021 -0.06163
 Zr767 Zr 0.77284 0.71280 0.00539
 O768 O 0.78872 0.73949 -0.02320
 O769 O 0.76199 0.77121 -0.05275
 O770 O 0.73235 0.71121 0.00652
 C771 C 0.74818 0.76621 -0.10614
 C772 C 0.74711 0.82876 -0.04257
 C773 C 0.81809 0.77201 -0.05837
 C774 C 0.74435 0.71762 0.05976
 C775 C 0.67769 0.70486 0.01077
 C776 C 0.74640 0.65605 0.00353
 H777 H 0.68684 0.74293 -0.02567
 H778 H 0.76796 0.68272 -0.03792
 H779 H 0.76896 0.78499 -0.06528
 H780 H 0.76723 0.75887 0.03227
 H781 H 0.73610 0.78587 0.04923
 H782 H 0.75930 0.81409 0.02032
 H783 H 0.73637 0.66013 -0.05986
 H784 H 0.75198 0.69956 -0.09668
 H785 H 0.67373 0.77287 0.00616
 H786 H 0.68964 0.80405 -0.02764
 H787 H 0.80598 0.67856 -0.01520
 H788 H 0.81587 0.70428 -0.05205
 H789 H 0.69065 0.74715 -0.08427
 H790 H 0.67786 0.71048 -0.05780
 H791 H 0.81983 0.76829 0.00623
 H792 H 0.80327 0.73417 0.04113
 O793 O 1.09219 0.21210 0.28053
 O794 O 1.07840 0.21093 0.32760
 O795 O 1.03371 0.16856 0.24109
 O796 O 0.99097 0.17146 0.23302
 O797 O 1.05875 0.25030 0.21410
 O798 O 1.04699 0.29659 0.22906
 O799 O 0.94816 0.22440 0.30462
 O800 O 0.96370 0.17863 0.29400
 O801 O 1.00281 0.26119 0.35119
 O802 O 1.05311 0.26544 0.34727
 O803 O 0.97590 0.30412 0.28527
 O804 O 0.98375 0.29987 0.23678
 O805 O 0.94659 0.26257 0.27834
 O806 O 0.95961 0.26767 0.23138
 O807 O 1.00249 0.30227 0.32136
 O808 O 1.04839 0.30100 0.32608
 O809 O 0.97740 0.22390 0.34287
 O810 O 0.98988 0.17708 0.32923
 O811 O 1.09028 0.25115 0.25541
 O812 O 1.07329 0.29676 0.26093
 O813 O 1.03315 0.21299 0.20625
 O814 O 0.98649 0.20899 0.21029
 O815 O 1.06119 0.16958 0.27660
 O816 O 1.05644 0.17490 0.32174
 Zr817 Zr 1.05367 0.20764 0.29416
 O818 O 1.02441 0.22351 0.31895
 Zr819 Zr 1.01333 0.20676 0.24220
 O820 O 0.98255 0.22368 0.26463
 Zr821 Zr 1.05056 0.26134 0.25360
 O822 O 1.02184 0.28040 0.27706
 Zr823 Zr 0.98753 0.21241 0.30440
 O824 O 1.01686 0.19324 0.28173
 Zr825 Zr 1.02499 0.26663 0.31648
 O826 O 1.05618 0.25090 0.29369
 Zr827 Zr 0.98490 0.26719 0.26461
 O828 O 1.01365 0.25023 0.23925
 O829 O 1.05020 0.21838 0.25440
 O830 O 0.98791 0.25545 0.30412
 C831 C 1.10258 0.23063 0.26580
 C832 C 1.05109 0.15768 0.25650
 C833 C 1.04989 0.23107 0.19905
 C834 C 0.93611 0.24493 0.29393
 C835 C 0.98501 0.24388 0.35751
 C836 C 0.98463 0.31371 0.30732
 H837 H 1.02734 0.21706 0.33728
 H838 H 1.02367 0.30067 0.27573
 H839 H 1.06366 0.20942 0.24331
 H840 H 0.96565 0.21716 0.25776
 H841 H 0.97514 0.16464 0.28557
 H842 H 0.97407 0.17348 0.24209
 H843 H 1.04983 0.31238 0.30991
 H844 H 1.07974 0.29511 0.27937
 H845 H 1.00254 0.18077 0.34359
 H846 H 1.03974 0.16493 0.32068
 H847 H 0.99703 0.31348 0.24214
 H848 H 1.03199 0.29330 0.21713
 H849 H 1.08637 0.22948 0.32693
 H850 H 1.04895 0.24980 0.35908
 H851 H 0.98619 0.22843 0.20417
 H852 H 0.95107 0.24946 0.23033
 O853 O 0.73141 1.09010 0.72373
 O854 O 0.77810 1.08593 0.71983
 O855 O 0.70998 1.01478 0.68041
 O856 O 0.70170 0.97192 0.68814
 O857 O 0.67467 1.04249 0.75969
 O858 O 0.69094 1.03370 0.80400
 O859 O 0.78581 0.94629 0.73499
 O860 O 0.77253 0.95936 0.69170
 O861 O 0.81819 1.01319 0.77118
 O862 O 0.80476 1.06344 0.77574
 O863 O 0.76198 0.97036 0.81142
 O864 O 0.71634 0.96670 0.80991
 O865 O 0.76045 0.93820 0.77088
 O866 O 0.71060 0.94456 0.77586
 O867 O 0.79013 1.00634 0.81008
 O868 O 0.78219 1.05685 0.80786
 O869 O 0.81600 0.98508 0.73517
 O870 O 0.79920 0.99466 0.68976
 O871 O 0.70718 1.08319 0.76069
 O872 O 0.71750 1.06686 0.80461
 O873 O 0.67278 1.01567 0.72275
 O874 O 0.68735 0.96413 0.72457
 O875 O 0.73248 1.05509 0.68159
 O876 O 0.77761 1.06018 0.68687
 Zr877 Zr 0.75185 1.05254 0.71844
 O878 O 0.78234 1.02832 0.73443
 Zr879 Zr 0.71096 0.99934 0.71931
 O880 O 0.73985 0.97271 0.73492
 Zr881 Zr 0.71427 1.04168 0.77057
 O882 O 0.74301 1.01681 0.78898
 Zr883 Zr 0.77676 0.98678 0.72401
 O884 O 0.74795 1.01121 0.70581
 Zr885 Zr 0.78002 1.02866 0.77588
 O886 O 0.75140 1.05581 0.75998
 Zr887 Zr 0.73946 0.97550 0.77652
 O888 O 0.70843 0.99995 0.76085
 O889 O 0.71470 1.04073 0.72929
 O890 O 0.77656 0.98733 0.76522
 C891 C 0.71506 1.09812 0.74140
 C892 C 0.71913 1.03662 0.66949
 C893 C 0.66238 1.03191 0.73998
 C894 C 0.77786 0.93105 0.75395
 C895 C 0.82824 0.99605 0.75460
 C896 C 0.78117 0.98433 0.82073
 H897 H 0.79925 1.03526 0.72820
 H898 H 0.74140 1.01844 0.80841
 H899 H 0.70171 1.05258 0.72012
 H900 H 0.73693 0.95367 0.72850
 H901 H 0.76003 0.96818 0.67926
 H902 H 0.71735 0.96030 0.68521
 H903 H 0.76895 1.05149 0.82098
 H904 H 0.73350 1.07786 0.80240
 H905 H 0.81103 1.01019 0.69360
 H906 H 0.77943 1.04253 0.67713
 H907 H 0.71356 0.98433 0.81941
 H908 H 0.68297 1.01538 0.80109
 H909 H 0.77888 1.09211 0.73849
 H910 H 0.81466 1.06321 0.75901
 H911 H 0.67645 0.96763 0.74033
 H912 H 0.71398 0.93247 0.76044
 O913 O 0.74999 0.57281 0.21295
 O914 O 0.79450 0.56819 0.20209
 O915 O 0.71893 0.49549 0.18468
 O916 O 0.72095 0.45110 0.19412
 O917 O 0.69788 0.53037 0.26105
 O918 O 0.71864 0.52813 0.30369
 O919 O 0.80693 0.43150 0.23401
 O920 O 0.79005 0.43971 0.19189
 O921 O 0.84134 0.50043 0.26266
 O922 O 0.83325 0.54791 0.26034
 O923 O 0.78891 0.46574 0.31158
 O924 O 0.74496 0.45967 0.31408
 O925 O 0.78672 0.42876 0.27391
 O926 O 0.73643 0.43433 0.28286
 O927 O 0.81564 0.50214 0.30433
 O928 O 0.80682 0.55323 0.29227
 O929 O 0.83632 0.46936 0.22930
 O930 O 0.81539 0.47613 0.18395
 O931 O 0.72979 0.57070 0.25287
 O932 O 0.74526 0.56018 0.29747
 O933 O 0.69215 0.49772 0.22920
 O934 O 0.70744 0.44753 0.23363
 O935 O 0.74504 0.53220 0.17618
 O936 O 0.79265 0.53598 0.17533
 Zr937 Zr 0.76975 0.53452 0.20993
 O938 O 0.80219 0.51315 0.22598
 Zr939 Zr 0.72996 0.48195 0.22228
 O940 O 0.76095 0.45778 0.23714
 Zr941 Zr 0.73839 0.53088 0.26720
 O942 O 0.76871 0.50820 0.28530
 Zr943 Zr 0.79631 0.47070 0.22072
 O944 O 0.76490 0.49197 0.20276
 Zr945 Zr 0.80410 0.51829 0.26724
 O946 O 0.77403 0.54333 0.25069
 Zr947 Zr 0.76453 0.46563 0.27789
 O948 O 0.73180 0.48817 0.26340
 O949 O 0.73444 0.52430 0.22673
 O950 O 0.80002 0.47606 0.26154
 C951 C 0.73570 0.58318 0.23134
 C952 C 0.72679 0.51522 0.16994
 C953 C 0.68362 0.51674 0.24476
 C954 C 0.80177 0.41915 0.25568
 C955 C 0.84990 0.48122 0.24732
 C956 C 0.80754 0.48183 0.31838
 H957 H 0.81846 0.51944 0.21766
 H958 H 0.76858 0.51246 0.30444
 H959 H 0.72019 0.53500 0.21825
 H960 H 0.75777 0.43803 0.23336
 H961 H 0.77703 0.44720 0.17921
 H962 H 0.73629 0.43872 0.19302
 H963 H 0.79733 0.54889 0.30872
 H964 H 0.75935 0.57231 0.29117
 H965 H 0.82917 0.49010 0.18618
 H966 H 0.79039 0.51804 0.16622
 H967 H 0.74093 0.47829 0.32109
 H968 H 0.71072 0.50956 0.30426
 H969 H 0.79695 0.57809 0.21906
 H970 H 0.82833 0.55761 0.24383
 H971 H 0.69914 0.45225 0.25070
 H972 H 0.74028 0.41938 0.27007
 O973 O 0.55261 0.23317 0.72535
 O974 O 0.54138 0.22197 0.77092
 O975 O 0.48935 0.19471 0.68300
 O976 O 0.44659 0.19995 0.67851
 O977 O 0.51593 0.27872 0.66541
 O978 O 0.50480 0.32275 0.68592
 O979 O 0.40985 0.24216 0.75710
 O980 O 0.42500 0.19763 0.74362
 O981 O 0.47038 0.27230 0.80642
 O982 O 0.51847 0.27756 0.79987
 O983 O 0.43659 0.32091 0.75010
 O984 O 0.44434 0.32653 0.69968
 O985 O 0.40731 0.28370 0.73607
 O986 O 0.41785 0.29611 0.69160
 O987 O 0.46800 0.31782 0.78187
 O988 O 0.51551 0.31389 0.78070
 O989 O 0.44230 0.23796 0.79559
 O990 O 0.45211 0.19276 0.77652
 O991 O 0.54903 0.27449 0.70397
 O992 O 0.53303 0.31888 0.71647
 O993 O 0.49019 0.24210 0.65534
 O994 O 0.44224 0.24044 0.66135
 O995 O 0.52017 0.19004 0.71526
 O996 O 0.51751 0.18869 0.76174
 Zr997 Zr 0.51452 0.22539 0.73922
 O998 O 0.48764 0.23899 0.76786
 Zr999 Zr 0.47082 0.23272 0.69084
 O1000 O 0.44215 0.24673 0.71738
 Zr1001 Zr 0.50961 0.28478 0.70616
 O1002 O 0.48303 0.30114 0.73369
 Zr1003 Zr 0.44942 0.23049 0.75523
 O1004 O 0.47650 0.21377 0.72805
 Zr1005 Zr 0.48900 0.28226 0.77072
 O1006 O 0.51787 0.26848 0.74400
 Zr1007 Zr 0.44528 0.28975 0.72241
 O1008 O 0.47172 0.27612 0.69302
 O1009 O 0.50868 0.24194 0.70182
 O1010 O 0.45076 0.27315 0.76004
 C1011 C 0.56211 0.25351 0.71214
 C1012 C 0.50792 0.18141 0.69461
 C1013 C 0.50720 0.26038 0.64933
 C1014 C 0.39728 0.26369 0.74900
 C1015 C 0.45247 0.25496 0.81212
 C1016 C 0.44747 0.32879 0.77173
 H1017 H 0.49172 0.23014 0.78501
 H1018 H 0.48492 0.32143 0.73468
 H1019 H 0.52163 0.23426 0.68934
 H1020 H 0.42480 0.24140 0.71070
 H1021 H 0.43546 0.18537 0.73204
 H1022 H 0.43108 0.20020 0.68998
 H1023 H 0.51284 0.32926 0.76804
 H1024 H 0.54092 0.31451 0.73390
 H1025 H 0.46683 0.19398 0.78913
 H1026 H 0.50057 0.17931 0.75987
 H1027 H 0.45430 0.34079 0.70932
 H1028 H 0.48875 0.32116 0.67513
 H1029 H 0.54796 0.24081 0.77433
 H1030 H 0.51713 0.25876 0.80740
 H1031 H 0.44438 0.25982 0.65551
 H1032 H 0.41192 0.27770 0.68574
 O1033 O 0.25296 0.77419 0.43218
 O1034 O 0.20795 0.77295 0.45108
 O1035 O 0.29639 0.82055 0.48521
 O1036 O 0.30051 0.82292 0.53011
 O1037 O 0.32529 0.73914 0.46734
 O1038 O 0.31332 0.69530 0.47068
 O1039 O 0.23954 0.76147 0.58056
 O1040 O 0.24714 0.80876 0.56578
 O1041 O 0.19302 0.72427 0.52770
 O1042 O 0.19513 0.71673 0.47756
 O1043 O 0.26305 0.68756 0.55367
 O1044 O 0.30754 0.69076 0.53833
 O1045 O 0.27188 0.72913 0.58073
 O1046 O 0.31512 0.72679 0.56413
 O1047 O 0.22653 0.68391 0.52828
 O1048 O 0.21886 0.68334 0.48196
 O1049 O 0.20037 0.76293 0.55217
 O1050 O 0.20955 0.80753 0.53924
 O1051 O 0.28243 0.73885 0.43306
 O1052 O 0.27693 0.69215 0.45167
 O1053 O 0.33080 0.78026 0.48855
 O1054 O 0.32875 0.78676 0.53520
 O1055 O 0.25909 0.81662 0.46103
 O1056 O 0.21651 0.81302 0.47031
 Zr1057 Zr 0.24290 0.77931 0.47250
 O1058 O 0.22186 0.76241 0.50428
 Zr1059 Zr 0.29599 0.78507 0.50963
 O1060 O 0.27760 0.76744 0.54276
 Zr1061 Zr 0.28612 0.72821 0.47345
 O1062 O 0.26678 0.70853 0.50479
 Zr1063 Zr 0.23753 0.77523 0.54077
 O1064 O 0.25616 0.79569 0.50894
 Zr1065 Zr 0.22693 0.71933 0.50421
 O1066 O 0.24588 0.73603 0.47058
 Zr1067 Zr 0.28077 0.72409 0.54082
 O1068 O 0.30200 0.74178 0.50965
 O1069 O 0.28263 0.77083 0.47326
 O1070 O 0.24093 0.73241 0.54074
 C1071 C 0.26877 0.75727 0.42082
 C1072 C 0.28036 0.82865 0.46710
 C1073 C 0.33906 0.76004 0.47443
 C1074 C 0.25416 0.74335 0.59218
 C1075 C 0.18627 0.74249 0.54506
 C1076 C 0.24207 0.67535 0.54656
 H1077 H 0.20336 0.76785 0.50260
 H1078 H 0.26952 0.68831 0.50363
 H1079 H 0.29265 0.77906 0.45862
 H1080 H 0.28497 0.77488 0.55939
 H1081 H 0.25296 0.82393 0.55414
 H1082 H 0.29605 0.81967 0.54888
 H1083 H 0.23563 0.67381 0.47880
 H1084 H 0.25942 0.69511 0.44386
 H1085 H 0.21642 0.82167 0.52704
 H1086 H 0.20411 0.81100 0.48504
 H1087 H 0.32180 0.69681 0.52663
 H1088 H 0.31039 0.68291 0.48593
 H1089 H 0.20952 0.75471 0.44232
 H1090 H 0.18400 0.73325 0.48026
 H1091 H 0.33644 0.76793 0.53569
 H1092 H 0.31628 0.74577 0.57126
 O1093 O 0.31899 0.24487 0.97393
 O1094 O 0.31517 0.19530 0.98148
 O1095 O 0.25032 0.26528 0.93093
 O1096 O 0.20719 0.25925 0.93605
 O1097 O 0.27337 0.31339 0.99729
 O1098 O 0.26867 0.30718 1.04494
 O1099 O 0.18445 0.19381 1.00442
 O1100 O 0.19498 0.19615 0.95916
 O1101 O 0.25199 0.16737 1.04395
 O1102 O 0.29887 0.18305 1.04228
 O1103 O 0.21426 0.23832 1.07247
 O1104 O 0.20923 0.28696 1.05595
 O1105 O 0.18026 0.22771 1.03543
 O1106 O 0.18163 0.27744 1.02986
 O1107 O 0.24720 0.20691 1.07657
 O1108 O 0.29350 0.21350 1.06932
 O1109 O 0.22107 0.16226 1.01201
 O1110 O 0.23170 0.16565 0.96491
 O1111 O 0.31359 0.27923 1.00423
 O1112 O 0.30128 0.28148 1.04913
 O1113 O 0.24328 0.30681 0.96475
 O1114 O 0.19905 0.29069 0.96654
 O1115 O 0.28349 0.23409 0.93541
 O1116 O 0.28974 0.18857 0.95040
 Zr1117 Zr 0.28355 0.22287 0.97556
 O1118 O 0.26217 0.19571 0.99958
 Zr1119 Zr 0.23272 0.26525 0.96850
 O1120 O 0.20943 0.24021 0.99264
 Zr1121 Zr 0.27518 0.27508 1.01728
 O1122 O 0.25407 0.25009 1.04347
 Zr1123 Zr 0.22241 0.19912 0.99044
 O1124 O 0.24404 0.22358 0.96394
 Zr1125 Zr 0.26515 0.20830 1.03923
 O1126 O 0.28886 0.23393 1.01550
 Zr1127 Zr 0.21459 0.25106 1.03261
 O1128 O 0.23536 0.27864 1.00810
 O1129 O 0.27216 0.26409 0.97765
 O1130 O 0.22558 0.20973 1.03034
 C1131 C 0.32714 0.26592 0.98713
 C1132 C 0.26940 0.25094 0.92176
 C1133 C 0.25949 0.32180 0.97755
 C1134 C 0.17181 0.20662 1.02260
 C1135 C 0.23418 0.15354 1.03200
 C1136 C 0.22818 0.22110 1.08590
 H1137 H 0.26841 0.17652 0.99695
 H1138 H 0.25700 0.25695 1.06167
 H1139 H 0.28245 0.27599 0.96577
 H1140 H 0.19104 0.24183 0.98702
 H1141 H 0.20439 0.20050 0.94264
 H1142 H 0.19329 0.24673 0.94200
 H1143 H 0.28987 0.23133 1.07819
 H1144 H 0.31101 0.26391 1.05153
 H1145 H 0.21724 0.15223 0.96558
 H1146 H 0.27249 0.18372 0.94304
 H1147 H 0.22407 0.28801 1.06846
 H1148 H 0.25136 0.31522 1.04079
 H1149 H 0.32288 0.19993 0.99891
 H1150 H 0.29777 0.16857 1.02851
 H1151 H 0.19846 0.30137 0.98325
 H1152 H 0.17307 0.27392 1.01262
 N1153 N 0.28194 0.40005 0.83532
 N1154 N 0.28875 0.37411 0.83943
 C1155 C 0.29399 0.36203 0.81604
 C1156 C 0.29066 0.38152 0.79588
 C1157 C 0.28256 0.40536 0.80915
 H1158 H 0.29162 0.37817 0.77473
 H1159 H 0.27602 0.41361 0.85026
 H1160 H 0.28887 0.36463 0.85801
 N1161 N 0.32347 -0.12892 0.25598
 N1162 N 0.33387 -0.15151 0.26938
 C1163 C 0.31683 -0.15914 0.28819
 C1164 C 0.29532 -0.14133 0.28747
 C1165 C 0.30034 -0.12283 0.26687
 H1166 H 0.27827 -0.14191 0.29991
 H1167 H 0.33263 -0.11855 0.24052
 H1168 H 0.35169 -0.16082 0.26479
 N1169 N 0.81367 0.89811 0.74511
 N1170 N 0.82245 0.87296 0.75523
 C1171 C 0.80452 0.86402 0.77250
 C1172 C 0.78407 0.88294 0.77383
 C1173 C 0.79081 0.90412 0.75674
 H1174 H 0.76744 0.88234 0.78687
 H1175 H 0.82426 0.91071 0.73239
 H1176 H 0.84027 0.86366 0.75062
 N1177 N 0.48963 0.85795 0.31943
 N1178 N 0.47772 0.88280 0.32657
 C1179 C 0.45910 0.88861 0.30844
 C1180 C 0.45858 0.86753 0.28954
 C1181 C 0.47807 0.84882 0.29714
 H1182 H 0.44598 0.86615 0.27237
 H1183 H 0.50488 0.84847 0.32984
 H1184 H 0.48284 0.89455 0.34313
 N1185 N -0.00772 0.88342 0.81978
 N1186 N -0.01932 0.90607 0.82855
 C1187 C -0.03972 0.91190 0.81263
 C1188 C -0.04129 0.89204 0.79289
 C1189 C -0.02065 0.87430 0.79823
 H1190 H -0.05582 0.89027 0.77741
 H1191 H 0.00835 0.87404 0.82891
 H1192 H -0.01346 0.91709 0.84531
 N1193 N -0.08073 -0.10498 -0.00391
 N1194 N -0.08632 -0.12920 -0.01743
 C1195 C -0.06825 -0.13247 -0.03638
 C1196 C -0.05080 -0.11063 -0.03554
 C1197 C -0.05963 -0.09374 -0.01516
 H1198 H -0.03482 -0.10674 -0.04885
 H1199 H -0.09217 -0.09657 0.01114
 H1200 H -0.10222 -0.14183 -0.01351
 N1201 N 0.00409 0.38065 0.45408
 N1202 N -0.00574 0.35613 0.44922
 C1203 C -0.02877 0.35422 0.46157
 C1204 C -0.03376 0.37858 0.47533
 C1205 C -0.01238 0.39485 0.46975
 H1206 H -0.05097 0.38420 0.48640
 H1207 H 0.02163 0.38764 0.44631
 H1208 H 0.00293 0.34137 0.43694
 N1209 N 0.47261 -0.10651 0.41648
 N1210 N 0.46820 -0.13367 0.40908
 C1211 C 0.45470 -0.14594 0.42852
 C1212 C 0.44986 -0.12673 0.44872
 C1213 C 0.46223 -0.10249 0.44062
 H1214 H 0.44115 -0.13069 0.46778
 H1215 H 0.48392 -0.09271 0.40570
 H1216 H 0.47530 -0.14272 0.39175
 N1217 N 0.50152 0.36485 -0.06843
 N1218 N 0.48875 0.34153 -0.07791
 C1219 C 0.46901 0.33608 -0.06130
 C1220 C 0.46905 0.35528 -0.04073
 C1221 C 0.48946 0.37309 -0.04616
 H1222 H 0.45492 0.35729 -0.02502
 H1223 H 0.51668 0.37481 -0.07813
 H1224 H 0.49326 0.33135 -0.09555
 N1225 N 0.74933 0.39226 0.45494
 N1226 N 0.76337 0.41251 0.44514
 C1227 C 0.78749 0.41100 0.45550
 C1228 C 0.78877 0.38879 0.47308
 C1229 C 0.76409 0.37714 0.47181
 H1230 H 0.80591 0.38047 0.48285
 H1231 H 0.73039 0.38786 0.44877
 H1232 H 0.75675 0.42641 0.43074
 N1233 N 0.74127 0.87335 -0.02110
 N1234 N 0.75248 0.89920 -0.02402
 C1235 C 0.76257 0.90056 -0.04850
 C1236 C 0.75789 0.87580 -0.06179
 C1237 C 0.74517 0.85900 -0.04358
 H1238 H 0.76678 0.86914 -0.08011
 H1239 H 0.73543 0.86514 -0.00298
 H1240 H 0.75467 0.91358 -0.00876
 N1241 N 0.75801 0.31712 0.37402
 N1242 N 0.76995 0.32032 0.35121
 C1243 C 0.79117 0.30375 0.35083
 C1244 C 0.79288 0.28931 0.37434
 C1245 C 0.77156 0.29861 0.38853
 H1246 H 0.80802 0.27507 0.38067
 H1247 H 0.74121 0.32785 0.37960
 H1248 H 0.76392 0.33413 0.33647
 N1249 N 0.73496 0.79686 -0.14342
 N1250 N 0.74798 0.80970 -0.16416
 C1251 C 0.77207 0.79859 -0.16523
 C1252 C 0.77467 0.77812 -0.14619
 C1253 C 0.75136 0.77810 -0.13259
 H1254 H 0.79231 0.76704 -0.14081
 H1255 H 0.71697 0.80325 -0.13599
 H1256 H 0.74072 0.82642 -0.17508
 N1257 N 0.31541 0.50476 0.88060
 N1258 N 0.32438 0.49221 0.90210
 C1259 C 0.30811 0.47156 0.90841
 C1260 C 0.28786 0.47104 0.89022
 C1261 C 0.29328 0.49233 0.87283
 H1262 H 0.27214 0.45634 0.88902
 H1263 H 0.32479 0.52098 0.87104
 H1264 H 0.34168 0.49732 0.91180
 N1265 N 0.29885 0.00079 0.34509
 N1266 N 0.30497 -0.00305 0.37020
 C1267 C 0.29753 -0.02861 0.37719
 C1268 C 0.28601 -0.04162 0.35577
 C1269 C 0.28746 -0.02228 0.33580
 H1270 H 0.27873 -0.06251 0.35457
 H1271 H 0.30271 0.01885 0.33454
 H1272 H 0.31481 0.01128 0.38194
 N1273 N -0.09231 0.01074 -0.09995
 N1274 N -0.09624 0.00208 -0.12593
 C1275 C -0.07826 -0.01754 -0.13127
 C1276 C -0.06259 -0.02187 -0.10909
 C1277 C -0.07199 -0.00369 -0.09002
 H1278 H -0.04633 -0.03610 -0.10714
 H1279 H -0.10323 0.02602 -0.09041
 H1280 H -0.11076 0.00974 -0.13855
 N1281 N -0.05140 0.50902 0.38575
 N1282 N -0.06026 0.49816 0.36178
 C1283 C -0.04989 0.47265 0.35937
 C1284 C -0.03410 0.46685 0.38117
 C1285 C -0.03559 0.49002 0.39713
 H1286 H -0.02331 0.44798 0.38518
 H1287 H -0.05646 0.52844 0.39323
 H1288 H -0.07317 0.50809 0.34880
 N1289 N 0.43033 0.00718 0.38102
 N1290 N 0.42181 -0.00408 0.35873
 C1291 C 0.43636 -0.02668 0.35342
 C1292 C 0.45515 -0.02971 0.37307
 C1293 C 0.45064 -0.00787 0.39025
 H1294 H 0.46923 -0.04632 0.37530
 H1295 H 0.42182 0.02439 0.39009
 H1296 H 0.40585 0.00321 0.34784
 N1297 N 0.45844 0.50442 -0.11423
 N1298 N 0.44974 0.49973 -0.13989
 C1299 C 0.45279 0.47254 -0.14514
 C1300 C 0.46438 0.45949 -0.12346
 C1301 C 0.46706 0.48019 -0.10452
 H1302 H 0.46827 0.43762 -0.12093
 H1303 H 0.45753 0.52338 -0.10436
 H1304 H 0.44063 0.51469 -0.15173
 N1305 N 0.48564 0.72798 0.36969
 N1306 N 0.47488 0.73690 0.39178
 C1307 C 0.47626 0.76468 0.39242
 C1308 C 0.48901 0.77386 0.37004
 C1309 C 0.49425 0.74990 0.35596
 H1310 H 0.49103 0.79498 0.36332
 H1311 H 0.48548 0.70741 0.36339
 H1312 H 0.46527 0.72423 0.40524
 N1313 N 0.00682 0.81719 0.87211
 N1314 N -0.00763 0.82747 0.89330
 C1315 C -0.03040 0.81390 0.89359
 C1316 C -0.03077 0.79447 0.87335
 C1317 C -0.00738 0.79743 0.86016
 H1318 H -0.04696 0.78165 0.86744
 H1319 H 0.02429 0.82550 0.86549
 H1320 H -0.00202 0.84388 0.90545
 N1321 N 0.40363 0.73360 0.31080
 N1322 N 0.38060 0.74099 0.32002
 C1323 C 0.37339 0.76491 0.30845
 C1324 C 0.39265 0.77313 0.29104
 C1325 C 0.41149 0.75268 0.29314
 H1326 H 0.39300 0.79151 0.27883
 H1327 H 0.41380 0.71586 0.31673
 H1328 H 0.37017 0.72983 0.33406
 N1329 N -0.10614 0.76815 0.82085
 N1330 N -0.13093 0.77423 0.82471
 C1331 C -0.13805 0.79417 0.80750
 C1332 C -0.11692 0.80132 0.79219
 C1333 C -0.09712 0.78423 0.80118
 H1334 H -0.11629 0.81618 0.77619
 H1335 H -0.09582 0.75290 0.83122
 H1336 H -0.14269 0.76466 0.83874
 N1337 N 0.85568 0.32106 0.50072
 N1338 N 0.88018 0.32604 0.49502
 C1339 C 0.88787 0.30827 0.47609
 C1340 C 0.86732 0.29116 0.46930
 C1341 C 0.84723 0.30009 0.48542
 H1342 H 0.86692 0.27500 0.45449
 H1343 H 0.84491 0.33217 0.51466
 H1344 H 0.89128 0.34152 0.50389
 N1345 N 0.85298 0.76791 -0.09189
 N1346 N 0.87656 0.77750 -0.09597
 C1347 C 0.88216 0.79563 -0.07664
 C1348 C 0.86118 0.79791 -0.05956
 C1349 C 0.84313 0.77982 -0.06991
 H1350 H 0.85960 0.81033 -0.04180
 H1351 H 0.84401 0.75313 -0.10386
 H1352 H 0.88852 0.77157 -0.11166
 N1353 N -0.14898 -0.03703 0.01537
 N1354 N -0.17067 -0.04753 0.00224
 C1355 C -0.16986 -0.03881 -0.02311
 C1356 C -0.14825 -0.02202 -0.02649
 C1357 C -0.13559 -0.02174 -0.00205
 H1358 H -0.14142 -0.01308 -0.04480
 H1359 H -0.14363 -0.04174 0.03484
 H1360 H -0.18388 -0.06128 0.01054
 N1361 N -0.10517 0.45805 0.50768
 N1362 N -0.12731 0.44903 0.49768
 C1363 C -0.13007 0.45903 0.47295
 C1364 C -0.10886 0.47556 0.46708
 C1365 C -0.09344 0.47423 0.48966
 H1366 H -0.10446 0.48556 0.44849
 H1367 H -0.09786 0.45242 0.52627
 H1368 H -0.13982 0.43554 0.50739
 N1369 N 0.36914 0.00961 0.46953
 N1370 N 0.34563 0.00172 0.45842
 C1371 C 0.34512 -0.02609 0.45827
 C1372 C 0.36768 -0.03665 0.46993
 C1373 C 0.38263 -0.01356 0.47549
 H1374 H 0.37429 -0.05795 0.46978
 H1375 H 0.37605 0.02985 0.46969
 H1376 H 0.33250 0.01525 0.44917
 N1377 N 0.39399 0.41621 0.00423
 N1378 N 0.36864 0.41157 -0.00448
 C1379 C 0.36265 0.43120 -0.02253
 C1380 C 0.38361 0.44880 -0.02549
 C1381 C 0.40280 0.43862 -0.00857
 H1382 H 0.38509 0.46617 -0.03890
 H1383 H 0.40417 0.40384 0.01777
 H1384 H 0.35708 0.39511 0.00158
 N1385 N 0.36793 0.51942 0.78147
 N1386 N 0.39172 0.51037 0.78640
 C1387 C 0.39184 0.48259 0.78488
 C1388 C 0.36722 0.47354 0.77802
 C1389 C 0.35258 0.49753 0.77675
 H1390 H 0.36013 0.45253 0.77822
 H1391 H 0.36203 0.54005 0.78322
 H1392 H 0.40692 0.52288 0.79294
 N1393 N 0.36897 -0.05935 0.23426
 N1394 N 0.39010 -0.06654 0.24763
 C1395 C 0.39005 -0.05356 0.27119
 C1396 C 0.36775 -0.03699 0.27277
 C1397 C 0.35473 -0.04154 0.24887
 H1398 H 0.36094 -0.02529 0.28966
 H1399 H 0.36385 -0.06763 0.21587
 H1400 H 0.40391 -0.08083 0.24092
 N1401 N 0.11730 0.55394 0.77372
 N1402 N 0.09726 0.56323 0.75978
 C1403 C 0.09744 0.55086 0.73590
 C1404 C 0.11813 0.53242 0.73478
 C1405 C 0.13050 0.53534 0.75903
 H1406 H 0.12514 0.52131 0.71760
 H1407 H 0.12282 0.56174 0.79218
 H1408 H 0.08474 0.57903 0.76599
 N1409 N 0.11691 -0.02607 0.24511
 N1410 N 0.09310 -0.01315 0.24032
 C1411 C 0.09268 -0.00434 0.21499
 C1412 C 0.11602 -0.01188 0.20303
 C1413 C 0.13088 -0.02462 0.22278
 H1414 H 0.12344 -0.00368 0.18463
 H1415 H 0.12407 -0.03101 0.26393
 H1416 H 0.08011 -0.00731 0.25518
 N1417 N 0.62493 0.75863 0.17668
 N1418 N 0.64750 0.74905 0.16801
 C1419 C 0.65416 0.72653 0.18226
 C1420 C 0.63503 0.72159 0.20084
 C1421 C 0.61676 0.74233 0.19657
 H1422 H 0.63398 0.70458 0.21470
 H1423 H 0.61498 0.77551 0.16848
 H1424 H 0.65782 0.75755 0.15227
 N1425 N 0.11122 0.76542 0.67870
 N1426 N 0.13493 0.75665 0.67293
 C1427 C 0.14101 0.73544 0.68915
 C1428 C 0.12040 0.73039 0.70585
 C1429 C 0.10197 0.74988 0.69864
 H1430 H 0.11912 0.71492 0.72126
 H1431 H 0.10170 0.78180 0.66916
 H1432 H 0.14662 0.76512 0.65822
 N1433 N 0.62832 0.19532 0.49199
 N1434 N 0.60567 0.18763 0.50153
 C1435 C 0.59930 0.20449 0.52173
 C1436 C 0.61877 0.22383 0.52528
 C1437 C 0.63692 0.21711 0.50606
 H1438 H 0.62015 0.23956 0.54045
 H1439 H 0.63802 0.18518 0.47664
 H1440 H 0.59509 0.17074 0.49460
 N1441 N 0.64838 0.66495 0.01403
 N1442 N 0.62574 0.65856 0.02429
 C1443 C 0.61666 0.68040 0.03800
 C1444 C 0.63461 0.70180 0.03667
 C1445 C 0.65443 0.69101 0.02101
 H1446 H 0.63306 0.72233 0.04503
 H1447 H 0.65934 0.65161 0.00215
 H1448 H 0.61663 0.63953 0.02160
 N1449 N 0.08782 0.07293 0.01051
 N1450 N 0.11404 0.07527 0.01721
 C1451 C 0.12016 0.05409 0.03348
 C1452 C 0.09828 0.03788 0.03744
 C1453 C 0.07849 0.05046 0.02289
 H1454 H 0.09675 0.01977 0.04991
 H1455 H 0.07748 0.08684 -0.00144
 H1456 H 0.12617 0.09118 0.01098
 N1457 N 0.14387 0.51094 0.50810
 N1458 N 0.16395 0.51854 0.52270
 C1459 C 0.15865 0.54332 0.53355
 C1460 C 0.13417 0.55200 0.52533
 C1461 C 0.12532 0.53073 0.50929
 H1462 H 0.12277 0.56885 0.53349
 H1463 H 0.14187 0.49132 0.49974
 H1464 H 0.17997 0.50586 0.52698
 N1465 N 0.61555 -0.00720 0.53704
 N1466 N 0.63788 0.00310 0.54511
 C1467 C 0.63919 0.02964 0.53730
 C1468 C 0.61670 0.03661 0.52339
 C1469 C 0.60205 0.01260 0.52404
 H1470 H 0.61092 0.05674 0.51597
 H1471 H 0.60928 -0.02715 0.54148
 H1472 H 0.65155 -0.00769 0.55656
 N1473 N 0.62007 0.54573 -0.00666
 N1474 N 0.64343 0.55367 0.00085
 C1475 C 0.65012 0.53971 0.02294
 C1476 C 0.63036 0.52177 0.02966
 C1477 C 0.61162 0.52644 0.01040
 H1478 H 0.62916 0.50847 0.04683
 H1479 H 0.60994 0.55388 -0.02290
 H1480 H 0.65411 0.56906 -0.00855
 N1481 N 0.00680 0.06705 0.12908
 N1482 N 0.02131 0.07047 0.15198
 C1483 C 0.03644 0.04779 0.15530
 C1484 C 0.03229 0.02955 0.13432
 C1485 C 0.01344 0.04253 0.11850
 H1486 H 0.04141 0.00959 0.13114
 H1487 H -0.00633 0.08165 0.12147
 H1488 H 0.01976 0.08769 0.16438
 N1489 N 0.08020 0.50879 0.61433
 N1490 N 0.08450 0.51740 0.63881
 C1491 C 0.06826 0.53870 0.64399
 C1492 C 0.05298 0.54391 0.62186
 C1493 C 0.06112 0.52444 0.60352
 H1494 H 0.03793 0.55951 0.61952
 H1495 H 0.09010 0.49238 0.60536
 H1496 H 0.09837 0.50879 0.65163
 N1497 N 0.55126 -0.01595 0.61587
 N1498 N 0.56080 -0.00283 0.63856
 C1499 C 0.54757 0.02117 0.64138
 C1500 C 0.52913 0.02351 0.62132
 C1501 C 0.53219 0.00015 0.60567
 H1502 H 0.51646 0.04104 0.61738
 H1503 H 0.55911 -0.03390 0.60755
 H1504 H 0.57646 -0.00992 0.65000
 N1505 N 0.57956 0.48071 0.11315
 N1506 N 0.58819 0.49203 0.13532
 C1507 C 0.57325 0.51424 0.14096
 C1508 C 0.55407 0.51699 0.12172
 C1509 C 0.55880 0.49534 0.10442
 H1510 H 0.53950 0.53316 0.11990
 H1511 H 0.58813 0.46361 0.10395
 H1512 H 0.60451 0.48508 0.14588
 N1513 N 0.17761 0.50367 0.65603
 N1514 N 0.17269 0.51146 0.63138
 C1515 C 0.18724 0.53374 0.62586
 C1516 C 0.20204 0.54041 0.64788
 C1517 C 0.19541 0.52085 0.66656
 H1518 H 0.21570 0.55718 0.65003
 H1519 H 0.16889 0.48689 0.66536
 H1520 H 0.15948 0.50174 0.61873
 N1521 N 0.17001 -0.02911 0.12099
 N1522 N 0.15978 -0.01496 0.09912
 C1523 C 0.17689 0.00481 0.09259
 C1524 C 0.19827 0.00336 0.10930
 C1525 C 0.19302 -0.01749 0.12712
 H1526 H 0.21431 0.01771 0.11026
 H1527 H 0.15994 -0.04361 0.13219
 H1528 H 0.14126 -0.01800 0.09108
 N1529 N 0.72433 0.19298 0.60378
 N1530 N 0.71607 0.18740 0.62778
 C1531 C 0.69744 0.20582 0.63423
 C1532 C 0.69348 0.22405 0.61321
 C1533 C 0.71116 0.21511 0.59430
 H1534 H 0.68013 0.24143 0.61208
 H1535 H 0.73898 0.18178 0.59421
 H1536 H 0.72324 0.17121 0.63946
 N1537 N 0.75922 0.68992 0.09864
 N1538 N 0.75083 0.68406 0.12265
 C1539 C 0.72882 0.69857 0.12719
 C1540 C 0.72296 0.71450 0.10512
 C1541 C 0.74269 0.70826 0.08740
 H1542 H 0.70614 0.72771 0.10194
 H1543 H 0.77559 0.68087 0.08995
 H1544 H 0.75982 0.66988 0.13541
 N1545 N 0.55280 0.76130 0.11858
 N1546 N 0.56247 0.74798 0.09795
 C1547 C 0.55086 0.72321 0.09607
 C1548 C 0.53267 0.72090 0.11602
 C1549 C 0.53482 0.74527 0.13021
 H1550 H 0.52204 0.70257 0.12156
 H1551 H 0.55998 0.78002 0.12574
 H1552 H 0.57790 0.75507 0.08650
 N1553 N -0.00588 0.72751 0.62388
 N1554 N 0.00674 0.71661 0.60367
 C1555 C 0.03127 0.72619 0.60373
 C1556 C 0.03423 0.74452 0.62458
 C1557 C 0.01027 0.74446 0.63712
 H1558 H 0.05210 0.75378 0.63156
 H1559 H -0.02463 0.72189 0.62949
 H1560 H -0.00098 0.70166 0.59101
 N1561 N 0.52942 0.63565 0.17022
 N1562 N 0.53804 0.61050 0.16493
 C1563 C 0.55611 0.60339 0.18314
 C1564 C 0.55936 0.62517 0.20077
 C1565 C 0.54193 0.64521 0.19184
 H1566 H 0.57213 0.62608 0.21785
 H1567 H 0.51508 0.64595 0.15921
 H1568 H 0.53143 0.59843 0.14915
 N1569 N 0.00752 0.64835 0.68584
 N1570 N 0.01689 0.62382 0.67929
 C1571 C 0.03635 0.61721 0.69610
 C1572 C 0.03970 0.63859 0.71413
 C1573 C 0.02102 0.65800 0.70680
 H1574 H 0.05404 0.64009 0.72982
 H1575 H -0.00750 0.65850 0.67566
 H1576 H 0.01008 0.61196 0.66345
 N1577 N -0.01673 0.13925 0.07258
 N1578 N -0.00034 0.15901 0.08356
 C1579 C 0.02156 0.15924 0.06911
 C1580 C 0.01948 0.14032 0.04842
 C1581 C -0.00450 0.12780 0.05167
 H1582 H 0.03462 0.13419 0.03476
 H1583 H -0.03404 0.13265 0.08117
 H1584 H -0.00414 0.17007 0.10089
 N1585 N 0.06678 0.62991 0.50618
 N1586 N 0.07422 0.65369 0.51621
 C1587 C 0.06133 0.65805 0.53889
 C1588 C 0.04484 0.63596 0.54371
 C1589 C 0.04916 0.61840 0.52241
 H1590 H 0.03256 0.63260 0.56072
 H1591 H 0.07437 0.62143 0.48881
 H1592 H 0.08816 0.66648 0.50772
 N1593 N 0.50585 0.11146 0.56861
 N1594 N 0.51328 0.13703 0.57338
 C1595 C 0.53097 0.14425 0.55513
 C1596 C 0.53509 0.12226 0.53800
 C1597 C 0.51864 0.10191 0.54722
 H1598 H 0.54779 0.12141 0.52100
 H1599 H 0.49199 0.10096 0.57971
 H1600 H 0.50625 0.14924 0.58887
 N1601 N 0.51027 0.59848 0.07132
 N1602 N 0.51886 0.62334 0.07753
 C1603 C 0.53847 0.62974 0.06112
 C1604 C 0.54245 0.60808 0.04359
 C1605 C 0.52411 0.58869 0.05071
 H1606 H 0.55682 0.60653 0.02806
 H1607 H 0.49517 0.58848 0.08110
 H1608 H 0.51162 0.63544 0.09300
 N1609 N 0.69637 0.13477 0.48738
 N1610 N 0.68505 0.11153 0.49832
 C1611 C 0.69444 0.10857 0.52309
 C1612 C 0.71203 0.12978 0.52853
 C1613 C 0.71228 0.14600 0.50568
 H1614 H 0.72179 0.13394 0.54713
 H1615 H 0.69147 0.14287 0.46882
 H1616 H 0.67148 0.09912 0.48861
 N1617 N 0.76288 0.61888 0.03315
 N1618 N 0.75366 0.59644 0.04447
 C1619 C 0.73005 0.59134 0.03409
 C1620 C 0.72401 0.61115 0.01518
 C1621 C 0.74523 0.62846 0.01546
 H1622 H 0.70578 0.61405 0.00467
 H1623 H 0.78034 0.62825 0.03862
 H1624 H 0.76297 0.58560 0.05974
 N1625 N 0.18417 0.63352 0.75683
 N1626 N 0.17882 0.65747 0.74556
 C1627 C 0.19419 0.66052 0.72429
 C1628 C 0.21011 0.63733 0.72178
 C1629 C 0.20290 0.62061 0.74284
 H1630 H 0.22406 0.63283 0.70638
 H1631 H 0.17464 0.62598 0.77351
 H1632 H 0.16456 0.67128 0.75220
 N1633 N 0.16736 0.08213 0.21133
 N1634 N 0.16243 0.11027 0.20932
 C1635 C 0.18237 0.12181 0.19632
 C1636 C 0.20035 0.10122 0.18929
 C1637 C 0.19055 0.07680 0.20009
 H1638 H 0.21954 0.10424 0.18116
 H1639 H 0.15615 0.06850 0.22244
 H1640 H 0.14666 0.12040 0.21811
 N1641 N 0.68553 1.13651 0.75517
 N1642 N 0.67562 1.15921 0.74445
 C1643 C 0.68676 1.16306 0.72069
 C1644 C 0.70473 1.14216 0.71619
 C1645 C 0.70318 1.12563 0.73842
 H1646 H 0.71589 1.13840 0.69842
 H1647 H 0.67942 1.12809 0.77311
 H1648 H 0.66083 1.17117 0.75289
 N1649 N 0.70708 0.62278 0.24373
 N1650 N 0.69856 0.64604 0.23295
 C1651 C 0.71017 0.64928 0.20934
 C1652 C 0.72688 0.62717 0.20488
 C1653 C 0.72420 0.61075 0.22713
 H1654 H 0.73839 0.62300 0.18742
 H1655 H 0.70064 0.61499 0.26180
 H1656 H 0.68465 0.65909 0.24146
 N1657 N 0.50424 0.14388 0.66113
 N1658 N 0.51368 0.11881 0.65696
 C1659 C 0.53086 0.11256 0.67634
 C1660 C 0.53252 0.13486 0.69364
 C1661 C 0.51517 0.15429 0.68326
 H1662 H 0.54423 0.13650 0.71144
 H1663 H 0.49031 0.15351 0.64905
 H1664 H 0.50830 0.10622 0.64108
 N1665 N 1.07667 0.11537 0.26740
 N1666 N 1.07976 0.09015 0.25790
 C1667 C 1.06505 0.08787 0.23593
 C1668 C 1.05207 0.11254 0.23113
 C1669 C 1.06000 0.12940 0.25153
 H1670 H 1.03886 0.11753 0.21503
 H1671 H 1.08580 0.12270 0.28451
 H1672 H 1.09194 0.07505 0.26618
 N1673 N 0.24626 0.64196 0.58370
 N1674 N 0.23508 0.61891 0.59151
 C1675 C 0.21687 0.61182 0.57352
 C1676 C 0.21627 0.63125 0.55342
 C1677 C 0.23523 0.65001 0.56070
 H1678 H 0.20380 0.63174 0.53608
 H1679 H 0.26094 0.65207 0.59419
 H1680 H 0.24001 0.60825 0.60883
 N1681 N 0.24126 0.11214 1.06070
 N1682 N 0.22872 0.08916 1.06634
 C1683 C 0.20678 0.08823 1.05162
 C1684 C 0.20537 0.11146 1.03575
 C1685 C 0.22758 0.12611 1.04218
 H1686 H 0.18987 0.11744 1.02228
 H1687 H 0.25858 0.11827 1.06976
 H1688 H 0.23482 0.07480 1.08056
 N1689 N 0.26562 0.72005 0.63440
 N1690 N 0.25310 0.71110 0.65543
 C1691 C 0.22877 0.72148 0.65479
 C1692 C 0.22575 0.73819 0.63266
 C1693 C 0.24950 0.73639 0.62002
 H1694 H 0.20797 0.74759 0.62525
 H1695 H 0.28432 0.71355 0.62916
 H1696 H 0.26078 0.69707 0.66917
 N1697 N 0.21840 0.24240 1.12880
 N1698 N 0.21177 0.23406 1.15416
 C1699 C 0.21187 0.20616 1.15470
 C1700 C 0.21950 0.19609 1.12998
 C1701 C 0.22288 0.21958 1.11435
 H1702 H 0.22022 0.17476 1.12355
 H1703 H 0.21875 0.26287 1.12226
 H1704 H 0.20589 0.24757 1.16916
 N1705 N 0.69211 0.50301 0.13801
 N1706 N 0.68479 0.50927 0.11369
 C1707 C 0.70121 0.52818 0.10396
 C1708 C 0.71985 0.53445 0.12302
 C1709 C 0.71329 0.51790 0.14435
 H1710 H 0.73582 0.54879 0.12155
 H1711 H 0.68263 0.48871 0.14999
 H1712 H 0.66876 0.50065 0.10405
 N1713 N 0.72179 1.01587 0.62534
 N1714 N 0.71636 1.02227 0.60060
 C1715 C 0.70802 1.04869 0.59954
 C1716 C 0.70834 1.05985 0.62493
 C1717 C 0.71696 1.03802 0.64065
 H1718 H 0.70069 1.07963 0.63135
 H1719 H 0.72779 0.99627 0.63170
 H1720 H 0.71662 1.00813 0.58497
 N1721 N 0.53852 0.27454 0.61430
 N1722 N 0.54957 0.26262 0.59358
 C1723 C 0.53785 0.23824 0.58911
 C1724 C 0.51823 0.23478 0.60737
 C1725 C 0.51945 0.25803 0.62321
 H1726 H 0.50660 0.21652 0.61048
 H1727 H 0.54509 0.29274 0.62312
 H1728 H 0.56578 0.27035 0.58375
 N1729 N 1.08289 0.24054 0.16434
 N1730 N 1.08769 0.23214 0.13838
 C1731 C 1.06782 0.21596 0.13064
 C1732 C 1.05017 0.21356 0.15129
 C1733 C 1.06041 0.22900 0.17203
 H1734 H 1.03260 0.20138 0.15155
 H1735 H 1.09539 0.25255 0.17584
 H1736 H 1.10411 0.23739 0.12745
 N1737 N 0.60004 0.27092 0.68735
 N1738 N 0.62342 0.26208 0.68064
 C1739 C 0.62822 0.23808 0.69322
 C1740 C 0.60705 0.23124 0.70869
 C1741 C 0.58947 0.25252 0.70412
 H1742 H 0.60412 0.21250 0.71994
 H1743 H 0.59110 0.28860 0.67951
 H1744 H 0.63545 0.27195 0.66706
 N1745 N 1.14489 0.24819 0.25031
 N1746 N 1.16425 0.23832 0.23597
 C1747 C 1.16168 0.21072 0.23388
 C1748 C 1.14012 0.20257 0.24815
 C1749 C 1.12976 0.22706 0.25789
 H1750 H 1.13103 0.18246 0.24795
 H1751 H 1.14097 0.26923 0.25293
 H1752 H 1.17774 0.25060 0.22615
 N1753 N 0.15227 0.75778 0.57703
 N1754 N 0.12824 0.75128 0.58357
 C1755 C 0.12066 0.72970 0.56867
 C1756 C 0.14088 0.72203 0.55194
 C1757 C 0.16057 0.74048 0.55783
 H1758 H 0.14105 0.70571 0.53729
 H1759 H 0.16270 0.77399 0.58555
 H1760 H 0.11728 0.76159 0.59791
 N1761 N 0.13338 0.17642 1.01563
 N1762 N 0.11072 0.17196 1.02697
 C1763 C 0.10846 0.18879 1.04811
 C1764 C 0.13059 0.20476 1.05029
 C1765 C 0.14588 0.19628 1.02925
 H1766 H 0.13501 0.22017 1.06515
 H1767 H 0.14008 0.16595 0.99888
 H1768 H 0.09723 0.15741 1.02042
 N1769 N 0.64531 0.54590 0.25647
 N1770 N 0.62356 0.55414 0.24473
 C1771 C 0.62027 0.53939 0.22237
 C1772 C 0.64064 0.52062 0.21997
 C1773 C 0.65633 0.52570 0.24184
 H1774 H 0.64495 0.50746 0.20319
 H1775 H 0.65325 0.55528 0.27326
 H1776 H 0.61196 0.57055 0.25130
 N1777 N 0.62356 1.06100 0.75023
 N1778 N 0.60148 1.06823 0.73855
 C1779 C 0.59853 1.05302 0.71644
 C1780 C 0.61965 1.03516 0.71398
 C1781 C 0.63525 1.04111 0.73574
 H1782 H 0.62402 1.02146 0.69763
 H1783 H 0.63104 1.07059 0.76713
 H1784 H 0.58911 1.08394 0.74525
 N1785 N 0.88650 0.44860 0.23874
 N1786 N 0.90621 0.43814 0.25244
 C1787 C 0.90885 0.45264 0.27503
 C1788 C 0.89024 0.47352 0.27556
 C1789 C 0.87615 0.46997 0.25234
 H1790 H 0.88557 0.48702 0.29199
 H1791 H 0.87913 0.43986 0.22136
 H1792 H 0.91666 0.42043 0.24704
 N1793 N 0.86804 0.96924 0.74294
 N1794 N 0.88907 0.96009 0.75538
 C1795 C 0.88978 0.97147 0.77969
 C1796 C 0.86857 0.98895 0.78274
 C1797 C 0.85510 0.98670 0.75909
 H1798 H 0.86248 0.99961 0.80053
 H1799 H 0.86198 0.96238 0.72430
 H1800 H 0.90193 0.94532 0.74775
 N1801 N 0.35425 0.24331 0.75815
 N1802 N 0.33203 0.25140 0.76867
 C1803 C 0.33265 0.27895 0.77279
 C1804 C 0.35619 0.28894 0.76378
 C1805 C 0.36948 0.26551 0.75518
 H1806 H 0.36397 0.30938 0.76674
 H1807 H 0.35941 0.22271 0.75466
 H1808 H 0.31763 0.23785 0.77500
 N1809 N 0.89574 0.23385 0.31876
 N1810 N 0.87281 0.24548 0.32312
 C1811 C 0.87071 0.26847 0.30818
 C1812 C 0.89320 0.27153 0.29356
 C1813 C 0.90866 0.24923 0.30098
 H1814 H 0.89823 0.28846 0.28059
 H1815 H 0.90270 0.21627 0.32858
 H1816 H 0.85922 0.23814 0.33664
 N1817 N 0.37987 0.73687 0.46102
 N1818 N 0.40359 0.74365 0.45397
 C1819 C 0.40588 0.77141 0.45469
 C1820 C 0.38247 0.78287 0.46307
 C1821 C 0.36645 0.76009 0.46651
 H1822 H 0.37723 0.80453 0.46448
 H1823 H 0.37295 0.71664 0.46163
 H1824 H 0.41760 0.72940 0.44760
 N1825 N 0.36491 0.29590 0.99736
 N1826 N 0.38726 0.30279 0.98658
 C1827 C 0.39053 0.28803 0.96423
 C1828 C 0.36934 0.27071 0.96073
 C1829 C 0.35346 0.27650 0.98219
 H1830 H 0.36546 0.25691 0.94434
 H1831 H 0.35743 0.30485 1.01456
 H1832 H 0.39967 0.31788 0.99414
 N1833 N 0.84242 0.48990 0.35179
 N1834 N 0.84781 0.48302 0.37652
 C1835 C 0.82915 0.46606 0.38550
 C1836 C 0.81111 0.46172 0.36534
 C1837 C 0.82027 0.47737 0.34430
 H1838 H 0.79352 0.44962 0.36611
 H1839 H 0.85367 0.50321 0.34039
 H1840 H 0.86392 0.49018 0.38711
 N1841 N 0.81755 0.98489 0.85319
 N1842 N 0.82306 0.97505 0.87694
 C1843 C 0.80356 0.95856 0.88474
 C1844 C 0.78480 0.95762 0.86476
 C1845 C 0.79437 0.97499 0.84521
 H1846 H 0.76606 0.94763 0.86528
 H1847 H 0.82922 0.99886 0.84302
 H1848 H 0.83950 0.98046 0.88796
 N1849 N 0.27414 0.73718 0.37612
 N1850 N 0.28452 0.74455 0.35337
 C1851 C 0.29000 0.77173 0.35406
 C1852 C 0.28250 0.78220 0.37856
 C1853 C 0.27262 0.75944 0.39201
 H1854 H 0.28722 0.80219 0.38679
 H1855 H 0.26997 0.71680 0.38134
 H1856 H 0.28970 0.73066 0.33843
 N1857 N 0.28706 0.23319 0.87959
 N1858 N 0.29294 0.24276 0.85596
 C1859 C 0.28599 0.26964 0.85464
 C1860 C 0.27470 0.27747 0.87842
 C1861 C 0.27599 0.25366 0.89372
 H1862 H 0.26824 0.29788 0.88438
 H1863 H 0.29119 0.21312 0.88609
 H1864 H 0.30257 0.23125 0.84145
 N1865 N 0.42260 0.23970 0.84805
 N1866 N 0.41745 0.24675 0.87278
 C1867 C 0.43408 0.26669 0.88027
 C1868 C 0.45055 0.27255 0.85947
 C1869 C 0.44255 0.25510 0.83937
 H1870 H 0.46550 0.28815 0.85870
 H1871 H 0.41214 0.22512 0.83718
 H1872 H 0.40244 0.23842 0.88402
 N1873 N 0.95078 0.23263 0.39035
 N1874 N 0.93978 0.24476 0.41092
 C1875 C 0.95303 0.26791 0.41655
 C1876 C 0.97346 0.27056 0.39902
 C1877 C 0.97118 0.24793 0.38255
 H1878 H 0.98668 0.28774 0.39712
 H1879 H 0.94356 0.21498 0.38105
 H1880 H 0.92293 0.23782 0.42017
 N1881 N 0.40880 0.35548 0.78524
 N1882 N 0.40342 0.37952 0.79620
 C1883 C 0.42577 0.39134 0.80415
 C1884 C 0.44643 0.37371 0.79840
 C1885 C 0.43467 0.35140 0.78599
 H1886 H 0.46700 0.37810 0.79969
 H1887 H 0.39506 0.34289 0.77606
 H1888 H 0.38490 0.38857 0.79635
 N1889 N 0.97803 0.34717 0.34341
 N1890 N 0.96922 0.37254 0.34667
 C1891 C 0.95946 0.38174 0.32348
 C1892 C 0.96181 0.36107 0.30449
 C1893 C 0.97406 0.33958 0.31807
 H1894 H 0.95689 0.36214 0.28366
 H1895 H 0.98721 0.33558 0.35826
 H1896 H 0.97045 0.38347 0.36446
 N1897 N 0.27824 0.85292 0.42466
 N1898 N 0.28655 0.87591 0.41392
 C1899 C 0.30084 0.88958 0.43199
 C1900 C 0.30222 0.87437 0.45527
 C1901 C 0.28720 0.85143 0.44970
 H1902 H 0.31115 0.88006 0.47393
 H1903 H 0.26620 0.83879 0.41503
 H1904 H 0.28152 0.88251 0.39487
 N1905 N 0.24808 0.36222 0.94919
 N1906 N 0.25847 0.38615 0.94271
 C1907 C 0.28028 0.38961 0.95717
 C1908 C 0.28380 0.36711 0.97380
 C1909 C 0.26306 0.35013 0.96795
 H1910 H 0.30007 0.36283 0.98691
 H1911 H 0.23151 0.35399 0.94021
 H1912 H 0.25122 0.39925 0.92794
 N1913 N 0.83390 0.38182 0.24521
 N1914 N 0.84109 0.35769 0.25529
 C1915 C 0.82603 0.35255 0.27638
 C1916 C 0.80871 0.37418 0.28001
 C1917 C 0.81432 0.39226 0.25993
 H1918 H 0.79424 0.37659 0.29535
 H1919 H 0.84257 0.39106 0.22883
 H1920 H 0.85604 0.34520 0.24789
   
