data_POSCAR
  _audit_creation_date              2014-09-24
  _audit_creation_method            'ToBaCCo'
  _symmetry_space_group_name_H-M    'P1'
  _symmetry_Int_Tables_number       1
  _symmetry_cell_setting            triclinic
  loop_
  _symmetry_equiv_pos_as_xyz
 x,y,z
_cell_length_a 71.1194
_cell_length_b 71.1709
_cell_length_c 61.7439
_cell_angle_alpha 90.592800
_cell_angle_beta 90.134300
_cell_angle_gamma 89.410600
loop_
  _atom_site_label
  _atom_site_type_symbol
  _atom_site_fract_x
  _atom_site_fract_y
  _atom_site_fract_z
C1 C 0.32840 -0.02969 0.24652
 C2 C 0.33954 -0.01415 0.24171
 C3 C 0.35196 -0.01495 0.22421
 C4 C 0.35344 -0.03125 0.21139
 C5 C 0.34203 -0.04665 0.21607
 C6 C 0.32932 -0.04623 0.23367
 C7 C 0.33891 0.00279 0.25555
 C8 C 0.35075 0.00400 0.27365
 C9 C 0.35124 0.02043 0.28670
 C10 C 0.33905 0.03543 0.28110
 C11 C 0.32712 0.03433 0.26295
 C12 C 0.32720 0.01794 0.25016
 H13 H 0.31865 -0.02841 0.25989
 H14 H 0.36087 -0.00303 0.22102
 H15 H 0.35921 -0.00822 0.27758
 H16 H 0.31819 0.01693 0.23602
 H17 H 0.34378 -0.05924 0.20631
 H18 H 0.33963 0.04866 0.28984
 C19 C 0.16768 -0.02186 0.75255
 C20 C 0.15445 -0.00742 0.75620
 C21 C 0.14017 -0.00981 0.77149
 C22 C 0.13905 -0.02644 0.78341
 C23 C 0.15237 -0.04078 0.77965
 C24 C 0.16666 -0.03869 0.76420
 C25 C 0.15477 0.00991 0.74339
 C26 C 0.14073 0.01305 0.72786
 C27 C 0.14009 0.02979 0.71578
 C28 C 0.15400 0.04336 0.72006
 C29 C 0.16804 0.04045 0.73577
 C30 C 0.16841 0.02358 0.74733
 H31 H 0.17858 -0.02006 0.74054
 H32 H 0.12979 0.00128 0.77387
 H33 H 0.13080 0.00190 0.72484
 H34 H 0.17909 0.02120 0.75957
 H35 H 0.15152 -0.05372 0.78868
 H36 H 0.15335 0.05689 0.71228
 C37 C 0.67081 0.48086 0.25059
 C38 C 0.65851 0.49558 0.25627
 C39 C 0.64637 0.49369 0.27391
 C40 C 0.64635 0.47709 0.28601
 C41 C 0.65888 0.46248 0.28033
 C42 C 0.67117 0.46425 0.26266
 C43 C 0.65768 0.51270 0.24323
 C44 C 0.64610 0.51328 0.22488
 C45 C 0.64429 0.52984 0.21285
 C46 C 0.65440 0.54578 0.21938
 C47 C 0.66605 0.54536 0.23781
 C48 C 0.66766 0.52869 0.24966
 H49 H 0.68013 0.48242 0.23688
 H50 H 0.63659 0.50500 0.27779
 H51 H 0.63847 0.50081 0.22007
 H52 H 0.67630 0.52823 0.26413
 H53 H 0.65897 0.44963 0.28957
 H54 H 0.65301 0.55864 0.21025
 C55 C 0.83065 0.47317 0.74742
 C56 C 0.84302 0.48796 0.74359
 C57 C 0.85751 0.48570 0.72843
 C58 C 0.85974 0.46871 0.71691
 C59 C 0.84721 0.45401 0.72079
 C60 C 0.83267 0.45606 0.73605
 C61 C 0.84179 0.50536 0.75660
 C62 C 0.85348 0.50742 0.77472
 C63 C 0.85345 0.52420 0.78713
 C64 C 0.84111 0.53881 0.78072
 C65 C 0.82933 0.53687 0.76252
 C66 C 0.82978 0.52006 0.75046
 H67 H 0.81961 0.47494 0.75935
 H68 H 0.86702 0.49722 0.72567
 H69 H 0.86323 0.49608 0.77823
 H70 H 0.82087 0.51842 0.73633
 H71 H 0.84923 0.44065 0.71252
 H72 H 0.84028 0.55175 0.79000
 C73 C 0.24962 0.38807 1.03071
 C74 C 0.25715 0.39860 1.01383
 C75 C 0.27296 0.40963 1.01746
 C76 C 0.28133 0.41048 1.03800
 C77 C 0.27385 0.39973 1.05484
 C78 C 0.25799 0.38816 1.05150
 C79 C 0.24846 0.39807 0.99222
 C80 C 0.23150 0.40765 0.98865
 C81 C 0.22313 0.40764 0.96803
 C82 C 0.23194 0.39769 0.95101
 C83 C 0.24892 0.38778 0.95450
 C84 C 0.25718 0.38825 0.97519
 H85 H 0.23783 0.37911 1.02695
 H86 H 0.27878 0.41751 1.00417
 H87 H 0.22506 0.41544 1.00191
 H88 H 0.27038 0.38096 0.97811
 H89 H 0.28007 0.40119 1.07076
 H90 H 0.22523 0.39711 0.93526
 C91 C 0.75227 0.11415 1.02676
 C92 C 0.74490 0.10297 1.01004
 C93 C 0.73001 0.09091 1.01412
 C94 C 0.72234 0.08978 1.03494
 C95 C 0.72975 0.10106 1.05165
 C96 C 0.74472 0.11358 1.04790
 C97 C 0.75295 0.10369 0.98818
 C98 C 0.76857 0.09243 0.98304
 C99 C 0.77647 0.09279 0.96224
 C100 C 0.76854 0.10477 0.94665
 C101 C 0.75285 0.11622 0.95164
 C102 C 0.74504 0.11547 0.97250
 H103 H 0.76335 0.12380 1.02271
 H104 H 0.72429 0.08256 1.00094
 H105 H 0.77470 0.08357 0.99543
 H106 H 0.73306 0.12429 0.97672
 H107 H 0.72425 0.09925 1.06779
 H108 H 0.77439 0.10492 0.93047
 C109 C 0.25909 0.61391 0.52864
 C110 C 0.25011 0.60475 0.51138
 C111 C 0.23338 0.59510 0.51501
 C112 C 0.22557 0.59437 0.53586
 C113 C 0.23464 0.60376 0.55305
 C114 C 0.25132 0.61376 0.54953
 C115 C 0.25823 0.60528 0.48948
 C116 C 0.27613 0.59761 0.48567
 C117 C 0.28409 0.59799 0.46489
 C118 C 0.27397 0.60647 0.44796
 C119 C 0.25608 0.61453 0.45166
 C120 C 0.24821 0.61360 0.47247
 H121 H 0.27206 0.62133 0.52570
 H122 H 0.22670 0.58781 0.50160
 H123 H 0.28365 0.59096 0.49887
 H124 H 0.23437 0.61954 0.47555
 H125 H 0.22831 0.60387 0.56899
 H126 H 0.28033 0.60740 0.43209
 C127 C 0.74978 0.88905 0.52994
 C128 C 0.75719 0.90046 0.51385
 C129 C 0.77274 0.91170 0.51833
 C130 C 0.78124 0.91186 0.53904
 C131 C 0.77367 0.90000 0.55499
 C132 C 0.75805 0.88857 0.55056
 C133 C 0.74859 0.90081 0.49220
 C134 C 0.73199 0.91108 0.48891
 C135 C 0.72375 0.91197 0.46826
 C136 C 0.73237 0.90232 0.45091
 C137 C 0.74901 0.89181 0.45406
 C138 C 0.75712 0.89127 0.47483
 H139 H 0.73786 0.88023 0.52618
 H140 H 0.77845 0.91978 0.50518
 H141 H 0.72570 0.91864 0.50244
 H142 H 0.77007 0.88347 0.47752
 H143 H 0.77923 0.90020 0.57131
 H144 H 0.72573 0.90243 0.43510
 C145 C -0.02002 0.24539 0.37380
 C146 C -0.00512 0.24440 0.38855
 C147 C -0.00315 0.22886 0.40207
 C148 C -0.01604 0.21393 0.40109
 C149 C -0.03118 0.21539 0.38623
 C150 C -0.03337 0.23092 0.37229
 C151 C 0.00921 0.25917 0.38871
 C152 C 0.00755 0.27465 0.40280
 C153 C 0.02085 0.28913 0.40237
 C154 C 0.03594 0.28774 0.38770
 C155 C 0.03773 0.27226 0.37347
 C156 C 0.02421 0.25803 0.37410
 H157 H -0.02046 0.25718 0.36288
 H158 H 0.00912 0.22821 0.41244
 H159 H -0.00436 0.27559 0.41369
 H160 H 0.02513 0.24617 0.36300
 H161 H -0.04216 0.20505 0.38671
 H162 H 0.04655 0.29854 0.38767
 C163 C -0.02678 0.75650 0.12214
 C164 C -0.01157 0.75690 0.10780
 C165 C -0.00876 0.77261 0.09485
 C166 C -0.02112 0.78807 0.09610
 C167 C -0.03642 0.78751 0.11049
 C168 C -0.03952 0.77181 0.12387
 C169 C 0.00209 0.74125 0.10743
 C170 C -0.00075 0.72564 0.09383
 C171 C 0.01179 0.71009 0.09411
 C172 C 0.02738 0.71097 0.10839
 C173 C 0.03024 0.72654 0.12215
 C174 C 0.01749 0.74165 0.12152
 H175 H -0.02789 0.74448 0.13263
 H176 H 0.00333 0.77294 0.08422
 H177 H -0.01331 0.72551 0.08392
 H178 H 0.01928 0.75362 0.13228
 H179 H -0.04634 0.79911 0.11034
 H180 H 0.03800 0.69999 0.10825
 C181 C 0.47422 0.25835 0.61804
 C182 C 0.48999 0.25908 0.60455
 C183 C 0.49332 0.27518 0.59232
 C184 C 0.48088 0.29064 0.59342
 C185 C 0.46508 0.28972 0.60704
 C186 C 0.46169 0.27369 0.61952
 C187 C 0.50348 0.24326 0.60410
 C188 C 0.49992 0.22732 0.59129
 C189 C 0.51239 0.21186 0.59152
 C190 C 0.52845 0.21263 0.60485
 C191 C 0.53208 0.22851 0.61790
 C192 C 0.51951 0.24384 0.61729
 H193 H 0.47204 0.24600 0.62780
 H194 H 0.50578 0.27575 0.58229
 H195 H 0.48728 0.22686 0.58148
 H196 H 0.52186 0.25607 0.62750
 H197 H 0.45519 0.30138 0.60762
 H198 H 0.53836 0.20097 0.60477
 C199 C 0.48015 0.73997 0.87866
 C200 C 0.49617 0.73915 0.89176
 C201 C 0.49965 0.72338 0.90460
 C202 C 0.48711 0.70808 0.90460
 C203 C 0.47092 0.70934 0.89128
 C204 C 0.46742 0.72508 0.87824
 C205 C 0.50974 0.75460 0.89130
 C206 C 0.50709 0.77048 0.90456
 C207 C 0.51967 0.78556 0.90370
 C208 C 0.53496 0.78446 0.88927
 C209 C 0.53771 0.76860 0.87580
 C210 C 0.52498 0.75368 0.87701
 H211 H 0.47784 0.75209 0.86847
 H212 H 0.51264 0.72293 0.91374
 H213 H 0.49502 0.77118 0.91522
 H214 H 0.52664 0.74148 0.86652
 H215 H 0.46035 0.69854 0.89167
 H216 H 0.54497 0.79581 0.88885
 C217 C -0.27394 0.58179 1.00106
 C218 C -0.25991 0.59511 1.00504
 C219 C -0.26283 0.60933 1.02047
 C220 C -0.27964 0.61037 1.03219
 C221 C -0.29360 0.59698 1.02819
 C222 C -0.29113 0.58253 1.01252
 C223 C -0.24242 0.59492 0.99232
 C224 C -0.23976 0.60870 0.97662
 C225 C -0.22281 0.60971 0.96483
 C226 C -0.20856 0.59639 0.96952
 C227 C -0.21102 0.58259 0.98538
 C228 C -0.22806 0.58189 0.99670
 H229 H -0.27111 0.57078 0.98925
 H230 H -0.25186 0.61952 1.02343
 H231 H -0.25081 0.61909 0.97452
 H232 H -0.23010 0.57141 1.00906
 H233 H -0.30690 0.59881 1.03644
 H234 H -0.19547 0.59633 0.96065
 C235 C -0.27059 0.42033 0.50766
 C236 C -0.25480 0.40972 0.50125
 C237 C -0.25606 0.39717 0.48375
 C238 C -0.27303 0.39506 0.47248
 C239 C -0.28876 0.40578 0.47892
 C240 C -0.28798 0.41837 0.49677
 C241 C -0.23751 0.41001 0.51434
 C242 C -0.23537 0.39707 0.53109
 C243 C -0.21865 0.39619 0.54315
 C244 C -0.20413 0.40871 0.53841
 C245 C -0.20606 0.42176 0.52155
 C246 C -0.22286 0.42228 0.50949
 H247 H -0.26939 0.42913 0.52199
 H248 H -0.24394 0.38858 0.47943
 H249 H -0.24678 0.38760 0.53462
 H250 H -0.22455 0.43214 0.49636
 H251 H -0.30140 0.40469 0.46925
 H252 H -0.19099 0.40774 0.54725
 C253 C 0.22673 -0.07675 0.00202
 C254 C 0.24149 -0.08917 -0.00297
 C255 C 0.24001 -0.10147 -0.02072
 C256 C 0.22372 -0.10167 -0.03386
 C257 C 0.20910 -0.08882 -0.02867
 C258 C 0.21044 -0.07646 -0.01082
 C259 C 0.25833 -0.09005 0.01088
 C260 C 0.25913 -0.10298 0.02780
 C261 C 0.27544 -0.10495 0.04073
 C262 C 0.29084 -0.09325 0.03614
 C263 C 0.29018 -0.08027 0.01913
 C264 C 0.27381 -0.07877 0.00653
 H265 H 0.22792 -0.06740 0.01592
 H266 H 0.25196 -0.11047 -0.02436
 H267 H 0.24666 -0.11106 0.03099
 H268 H 0.27311 -0.06890 -0.00671
 H269 H 0.19594 -0.08916 -0.03747
 H270 H 0.30400 -0.09499 0.04474
 C271 C 0.22644 1.07944 0.50090
 C272 C 0.24039 1.09251 0.50612
 C273 C 0.23748 1.10543 0.52304
 C274 C 0.22075 1.10534 0.53504
 C275 C 0.20688 1.09217 0.52975
 C276 C 0.20954 1.07924 0.51262
 C277 C 0.25800 1.09300 0.49374
 C278 C 0.26072 1.10714 0.47847
 C279 C 0.27771 1.10828 0.46674
 C280 C 0.29191 1.09483 0.47117
 C281 C 0.28934 1.08072 0.48660
 C282 C 0.27226 1.07983 0.49777
 H283 H 0.22873 1.06953 0.48769
 H284 H 0.24843 1.11538 0.52703
 H285 H 0.24912 1.11669 0.47537
 H286 H 0.27011 1.06903 0.50974
 H287 H 0.19368 1.09244 0.53848
 H288 H 0.30559 1.09587 0.46370
 C289 C 0.13586 0.49058 0.22375
 C290 C 0.14528 0.49990 0.24059
 C291 C 0.15470 0.51662 0.23648
 C292 C 0.15496 0.52414 0.21556
 C293 C 0.14538 0.51477 0.19876
 C294 C 0.13560 0.49805 0.20277
 C295 C 0.14559 0.49205 0.26253
 C296 C 0.15508 0.47510 0.26638
 C297 C 0.15607 0.46773 0.28736
 C298 C 0.14712 0.47743 0.30445
 C299 C 0.13727 0.49436 0.30072
 C300 C 0.13680 0.50169 0.27968
 H301 H 0.12866 0.47758 0.22706
 H302 H 0.16221 0.52353 0.24956
 H303 H 0.16212 0.46795 0.25306
 H304 H 0.12957 0.51487 0.27657
 H305 H 0.14498 0.52086 0.18276
 H306 H 0.14729 0.47146 0.32051
 C307 C -0.14010 1.00605 0.22231
 C308 C -0.15119 0.99883 0.23886
 C309 C -0.16275 0.98346 0.23487
 C310 C -0.16359 0.97495 0.21418
 C311 C -0.15228 0.98245 0.19764
 C312 C -0.14023 0.99787 0.20140
 C313 C -0.15067 1.00736 0.26062
 C314 C -0.16174 1.02327 0.26514
 C315 C -0.16147 1.03195 0.28581
 C316 C -0.14957 1.02406 0.30175
 C317 C -0.13833 1.00810 0.29730
 C318 C -0.13909 0.99974 0.27667
 H319 H -0.13078 1.01749 0.22633
 H320 H -0.17048 0.97786 0.24838
 H321 H -0.16990 1.02915 0.25198
 H322 H -0.13039 0.98756 0.27289
 H323 H -0.15395 0.97716 0.18131
 H324 H -0.14953 1.02969 0.31809
 C325 C 0.35799 0.50211 -0.28123
 C326 C 0.34700 0.49483 -0.26457
 C327 C 0.33531 0.47957 -0.26861
 C328 C 0.33438 0.47143 -0.28932
 C329 C 0.34546 0.47874 -0.30600
 C330 C 0.35758 0.49413 -0.30230
 C331 C 0.34774 0.50321 -0.24273
 C332 C 0.33620 0.51864 -0.23765
 C333 C 0.33674 0.52723 -0.21693
 C334 C 0.34938 0.51968 -0.20149
 C335 C 0.36106 0.50414 -0.20650
 C336 C 0.36005 0.49593 -0.22720
 H337 H 0.36742 0.51344 -0.27716
 H338 H 0.32714 0.47391 -0.25544
 H339 H 0.32748 0.52429 -0.25046
 H340 H 0.36911 0.48413 -0.23145
 H341 H 0.34385 0.47279 -0.32208
 H342 H 0.34969 0.52523 -0.18513
 C343 C 0.63793 -0.00800 -0.27824
 C344 C 0.64688 0.00119 -0.26097
 C345 C 0.65647 0.01787 -0.26452
 C346 C 0.65740 0.02548 -0.28532
 C347 C 0.64834 0.01625 -0.30260
 C348 C 0.63816 -0.00050 -0.29935
 C349 C 0.64646 -0.00678 -0.23909
 C350 C 0.65564 -0.02384 -0.23499
 C351 C 0.65578 -0.03141 -0.21408
 C352 C 0.64631 -0.02176 -0.19732
 C353 C 0.63676 -0.00471 -0.20134
 C354 C 0.63715 0.00280 -0.22228
 H355 H 0.63117 -0.02122 -0.27499
 H356 H 0.66356 0.02469 -0.25107
 H357 H 0.66308 -0.03096 -0.24805
 H358 H 0.63013 0.01605 -0.22559
 H359 H 0.64831 0.02302 -0.31820
 H360 H 0.64583 -0.02787 -0.18134
 C361 C -0.00875 0.22506 0.87237
 C362 C -0.00960 0.24026 0.85820
 C363 C -0.02555 0.24304 0.84521
 C364 C -0.04075 0.23061 0.84627
 C365 C -0.03969 0.21534 0.86056
 C366 C -0.02377 0.21248 0.87374
 C367 C 0.00592 0.25373 0.85776
 C368 C 0.02166 0.25025 0.84467
 C369 C 0.03694 0.26261 0.84505
 C370 C 0.03617 0.27855 0.85872
 C371 C 0.02048 0.28211 0.87202
 C372 C 0.00535 0.26960 0.87135
 H373 H 0.00349 0.22332 0.88267
 H374 H -0.02622 0.25510 0.83466
 H375 H 0.02214 0.23770 0.83459
 H376 H -0.00671 0.27189 0.88178
 H377 H -0.05113 0.20543 0.86111
 H378 H 0.04768 0.28839 0.85873
 C379 C 0.50954 0.22773 0.12644
 C380 C 0.50997 0.24385 0.13961
 C381 C 0.52563 0.24732 0.15281
 C382 C 0.54096 0.23471 0.15295
 C383 C 0.54033 0.21853 0.13968
 C384 C 0.52472 0.21494 0.12630
 C385 C 0.49419 0.25734 0.13905
 C386 C 0.47854 0.25484 0.15239
 C387 C 0.46314 0.26734 0.15143
 C388 C 0.46369 0.28241 0.13687
 C389 C 0.47931 0.28502 0.12333
 C390 C 0.49456 0.27236 0.12460
 H391 H 0.49750 0.22538 0.11600
 H392 H 0.52595 0.26002 0.16264
 H393 H 0.47826 0.24294 0.16319
 H394 H 0.50659 0.27392 0.11406
 H395 H 0.55187 0.20848 0.14012
 H396 H 0.45210 0.29239 0.13641
 C397 C 0.00899 0.73147 0.62630
 C398 C 0.00968 0.74734 0.63985
 C399 C 0.02527 0.75019 0.65335
 C400 C 0.04028 0.73719 0.65344
 C401 C 0.03940 0.72126 0.63976
 C402 C 0.02383 0.71830 0.62609
 C403 C -0.00581 0.76118 0.63946
 C404 C -0.02167 0.75867 0.65246
 C405 C -0.03709 0.77136 0.65166
 C406 C -0.03588 0.78669 0.63730
 C407 C -0.02002 0.78923 0.62410
 C408 C -0.00502 0.77636 0.62536
 H409 H -0.00300 0.72961 0.61566
 H410 H 0.02579 0.76270 0.66348
 H411 H -0.02208 0.74624 0.66237
 H412 H 0.00718 0.77789 0.61505
 H413 H 0.05068 0.71092 0.64013
 H414 H -0.04680 0.79736 0.63697
 C415 C 0.48921 0.72700 0.37015
 C416 C 0.48849 0.74200 0.35569
 C417 C 0.47300 0.74416 0.34186
 C418 C 0.45808 0.73136 0.34244
 C419 C 0.45905 0.71625 0.35697
 C420 C 0.47455 0.71396 0.37091
 C421 C 0.50375 0.75578 0.35566
 C422 C 0.51915 0.75329 0.34177
 C423 C 0.53427 0.76584 0.34257
 C424 C 0.53359 0.78104 0.35729
 C425 C 0.51825 0.78365 0.37133
 C426 C 0.50332 0.77090 0.37037
 H427 H 0.50112 0.72572 0.38105
 H428 H 0.47240 0.75606 0.33108
 H429 H 0.51956 0.74130 0.33082
 H430 H 0.49153 0.77246 0.38135
 H431 H 0.44788 0.70602 0.35710
 H432 H 0.54494 0.79108 0.35756
 B433 B -0.02170 0.01168 1.00577
 B434 B -0.02983 0.00710 0.98072
 B435 B -0.01309 0.02328 0.98434
 B436 B 0.00156 0.01603 1.00422
 B437 B -0.00630 -0.00520 1.01277
 B438 B -0.02595 -0.01072 0.99810
 B439 B 0.00356 -0.00863 0.97005
 B440 B 0.01170 -0.00401 0.99506
 B441 B -0.00507 -0.02023 0.99144
 B442 B -0.01972 -0.01295 0.97155
 B443 B -0.01182 0.00823 0.96301
 B444 B 0.00778 0.01381 0.97767
 B445 B 0.48530 0.51727 0.50926
 B446 B 0.47861 0.51330 0.48323
 B447 B 0.49568 0.52888 0.48898
 B448 B 0.50882 0.52065 0.50964
 B449 B 0.49964 0.49956 0.51688
 B450 B 0.48069 0.49517 0.50066
 B451 B 0.51192 0.49650 0.47505
 B452 B 0.51868 0.50030 0.50076
 B453 B 0.50151 0.48489 0.49535
 B454 B 0.48846 0.49314 0.47453
 B455 B 0.49776 0.51419 0.46730
 B456 B 0.51659 0.51851 0.48372
 B457 B 0.51815 0.98619 0.50570
 B458 B 0.52695 0.99158 0.48134
 B459 B 0.51118 0.97428 0.48342
 B460 B 0.49527 0.98033 0.50258
 B461 B 0.50143 1.00190 0.51234
 B462 B 0.52119 1.00894 0.49905
 B463 B 0.49307 1.00531 0.46925
 B464 B 0.48427 0.99966 0.49354
 B465 B 0.50001 1.01713 0.49151
 B466 B 0.51589 1.01110 0.47226
 B467 B 0.50990 0.98945 0.46261
 B468 B 0.49012 0.98250 0.47567
 B469 B 0.01767 0.48522 1.00594
 B470 B 0.02699 0.49065 0.98185
 B471 B 0.01071 0.47379 0.98331
 B472 B -0.00533 0.48003 1.00226
 B473 B 0.00127 0.50130 1.01251
 B474 B 0.02144 0.50795 0.99975
 B475 B -0.00631 0.50549 0.96935
 B476 B -0.01566 0.49978 0.99335
 B477 B 0.00061 0.51682 0.99193
 B478 B 0.01662 0.51058 0.97290
 B479 B 0.01016 0.48926 0.96276
 B480 B -0.01001 0.48268 0.97529
 B481 B 0.02348 0.51208 0.49984
 B482 B 0.03210 0.50799 0.52473
 B483 B 0.01486 0.52400 0.52145
 B484 B 0.00012 0.51632 0.50183
 B485 B 0.00843 0.49500 0.49310
 B486 B 0.02844 0.48984 0.50738
 B487 B -0.00070 0.49222 0.53602
 B488 B -0.00934 0.49637 0.51118
 B489 B 0.00792 0.48031 0.51440
 B490 B 0.02267 0.48801 0.53406
 B491 B 0.01432 0.50929 0.54279
 B492 B -0.00563 0.51450 0.52851
 B493 B 0.52070 0.01023 -0.00458
 B494 B 0.53042 0.00438 0.01927
 B495 B 0.51406 0.02153 0.01830
 B496 B 0.49774 0.01576 -0.00048
 B497 B 0.50427 -0.00550 -0.01114
 B498 B 0.52467 -0.01262 0.00122
 B499 B 0.49738 -0.01005 0.03207
 B500 B 0.48764 -0.00393 0.00831
 B501 B 0.50401 -0.02125 0.00921
 B502 B 0.52027 -0.01548 0.02809
 B503 B 0.51390 0.00585 0.03864
 B504 B 0.49351 0.01289 0.02651
 B505 B 0.48416 0.48409 -0.01302
 B506 B 0.47519 0.48996 0.01131
 B507 B 0.49096 0.47231 0.00925
 B508 B 0.50704 0.47777 -0.00971
 B509 B 0.50097 0.49937 -0.01936
 B510 B 0.48109 0.50698 -0.00622
 B511 B 0.50898 0.50315 0.02382
 B512 B 0.51799 0.49702 -0.00040
 B513 B 0.50220 0.51483 0.00160
 B514 B 0.48619 0.50935 0.02063
 B515 B 0.49212 0.48773 0.03017
 B516 B 0.51199 0.48018 0.01728
 B517 B -0.01941 0.99084 0.49337
 B518 B -0.02736 0.99574 0.51842
 B519 B -0.01050 0.97933 0.51488
 B520 B 0.00391 0.98623 0.49484
 B521 B -0.00421 1.00747 0.48608
 B522 B -0.02379 1.01336 0.50079
 B523 B 0.00597 1.01117 0.52870
 B524 B 0.01394 1.00623 0.50370
 B525 B -0.00294 1.02268 0.50721
 B526 B -0.01735 1.01575 0.52728
 B527 B -0.00919 0.99455 0.53603
 B528 B 0.01033 0.98862 0.52133
 B529 B 0.76374 0.23524 0.24363
 B530 B 0.75975 0.22769 0.26888
 B531 B 0.77621 0.24398 0.26464
 B532 B 0.76865 0.25842 0.24481
 B533 B 0.74697 0.25088 0.23693
 B534 B 0.74148 0.23165 0.25195
 B535 B 0.74510 0.26158 0.27963
 B536 B 0.74910 0.26914 0.25442
 B537 B 0.73263 0.25282 0.25863
 B538 B 0.74022 0.23842 0.27848
 B539 B 0.76185 0.24597 0.28635
 B540 B 0.76740 0.26515 0.27134
 B541 B 0.73917 0.76751 0.74321
 B542 B 0.74349 0.77537 0.76847
 B543 B 0.72770 0.75832 0.76446
 B544 B 0.73533 0.74413 0.74414
 B545 B 0.75642 0.75258 0.73571
 B546 B 0.76146 0.77215 0.75089
 B547 B 0.75998 0.74224 0.77813
 B548 B 0.75559 0.73433 0.75293
 B549 B 0.77143 0.75142 0.75692
 B550 B 0.76376 0.76562 0.77724
 B551 B 0.74274 0.75711 0.78567
 B552 B 0.73764 0.73761 0.77051
 B553 B 0.26149 0.26840 0.75695
 B554 B 0.25514 0.27753 0.73301
 B555 B 0.27276 0.26168 0.73413
 B556 B 0.26762 0.24553 0.75303
 B557 B 0.24626 0.25164 0.76360
 B558 B 0.23847 0.27161 0.75108
 B559 B 0.24152 0.24391 0.72044
 B560 B 0.24813 0.23473 0.74427
 B561 B 0.23035 0.25060 0.74321
 B562 B 0.23549 0.26669 0.72424
 B563 B 0.25689 0.26073 0.71378
 B564 B 0.26462 0.24075 0.72605
 B565 B 0.23329 0.72677 0.25376
 B566 B 0.23856 0.71761 0.22930
 B567 B 0.22167 0.73417 0.23157
 B568 B 0.22801 0.74989 0.25083
 B569 B 0.24938 0.74280 0.26047
 B570 B 0.25598 0.72265 0.24701
 B571 B 0.25324 0.75076 0.21746
 B572 B 0.24769 0.75994 0.24183
 B573 B 0.26476 0.74338 0.23962
 B574 B 0.25842 0.72771 0.22025
 B575 B 0.23699 0.73465 0.21072
 B576 B 0.23045 0.75479 0.22395
 B577 B 0.26341 0.73192 0.74745
 B578 B 0.25736 0.72287 0.77144
 B579 B 0.27452 0.73886 0.77024
 B580 B 0.26890 0.75485 0.75120
 B581 B 0.24772 0.74851 0.74061
 B582 B 0.24049 0.72856 0.75326
 B583 B 0.24279 0.75647 0.78370
 B584 B 0.24912 0.76555 0.75980
 B585 B 0.23179 0.74957 0.76092
 B586 B 0.23740 0.73362 0.78006
 B587 B 0.25866 0.73980 0.79054
 B588 B 0.26580 0.75976 0.77812
 B589 B 0.24053 0.26694 0.24437
 B590 B 0.24457 0.27491 0.26964
 B591 B 0.22852 0.25814 0.26544
 B592 B 0.23620 0.24365 0.24544
 B593 B 0.25759 0.25162 0.23740
 B594 B 0.26277 0.27120 0.25249
 B595 B 0.26024 0.24156 0.28000
 B596 B 0.25612 0.23353 0.25479
 B597 B 0.27222 0.25033 0.25894
 B598 B 0.26450 0.26484 0.27895
 B599 B 0.24317 0.25681 0.28700
 B600 B 0.23794 0.23730 0.27193
 B601 B 0.75831 0.77388 0.25404
 B602 B 0.75408 0.78209 0.22908
 B603 B 0.77057 0.76535 0.23269
 B604 B 0.76318 0.75063 0.25215
 B605 B 0.74159 0.75846 0.26041
 B606 B 0.73596 0.77813 0.24602
 B607 B 0.73932 0.74877 0.21743
 B608 B 0.74354 0.74054 0.24237
 B609 B 0.72705 0.75731 0.23876
 B610 B 0.73445 0.77201 0.21931
 B611 B 0.75602 0.76417 0.21104
 B612 B 0.76168 0.74452 0.22544
 B613 B 0.73333 0.22967 0.75444
 B614 B 0.73950 0.22003 0.73049
 B615 B 0.72278 0.23685 0.73146
 B616 B 0.72855 0.25281 0.75072
 B617 B 0.74940 0.24558 0.76171
 B618 B 0.75623 0.22511 0.74907
 B619 B 0.75520 0.25275 0.71881
 B620 B 0.74875 0.26241 0.74263
 B621 B 0.76564 0.24558 0.74174
 B622 B 0.75988 0.22969 0.72237
 B623 B 0.73900 0.23678 0.71149
 B624 B 0.73221 0.25721 0.72391
 C625 C 0.39368 1.01353 0.32206
 C626 C 0.38979 1.02593 0.33918
 C627 C 0.37305 1.03635 0.33919
 C628 C 0.36027 1.03448 0.32206
 C629 C 0.36397 1.02207 0.30445
 C630 C 0.38097 1.01157 0.30493
 C631 C 0.40300 1.02766 0.35677
 C632 C 0.41439 1.02842 0.37123
 C633 C 0.42806 1.02831 0.38783
 C634 C 0.43998 1.02715 0.40167
 C635 C 0.45440 1.02425 0.41772
 C636 C 0.45266 1.03187 0.43860
 C637 C 0.46559 1.02688 0.45473
 C638 C 0.48026 1.01394 0.45029
 C639 C 0.48235 1.00721 0.42886
 C640 C 0.46952 1.01230 0.41280
 H641 H 0.40667 1.00544 0.32185
 H642 H 0.36978 1.04584 0.35252
 H643 H 0.34723 1.04236 0.32322
 H644 H 0.38511 1.00239 0.29168
 H645 H 0.44097 1.04113 0.44262
 H646 H 0.46349 1.03252 0.47089
 H647 H 0.49344 0.99739 0.42449
 H648 H 0.47102 1.00632 0.39667
 C649 C -0.11504 0.51270 0.83402
 C650 C -0.10873 0.53049 0.84011
 C651 C -0.11527 0.54632 0.82913
 C652 C -0.12793 0.54436 0.81191
 C653 C -0.13425 0.52640 0.80518
 C654 C -0.12763 0.51062 0.81681
 C655 C -0.09509 0.53222 0.85723
 C656 C -0.08343 0.53274 0.87140
 C657 C -0.06960 0.53211 0.88777
 C658 C -0.05769 0.53038 0.90154
 C659 C -0.04352 0.52674 0.91764
 C660 C -0.04534 0.53395 0.93868
 C661 C -0.03288 0.52816 0.95491
 C662 C -0.01858 0.51483 0.95039
 C663 C -0.01637 0.50848 0.92883
 C664 C -0.02875 0.51437 0.91266
 H665 H -0.11017 0.50034 0.84256
 H666 H -0.11033 0.56018 0.83362
 H667 H -0.13187 0.55696 0.80331
 H668 H -0.13252 0.49660 0.81323
 H669 H -0.05679 0.54351 0.94274
 H670 H -0.03507 0.53352 0.97116
 H671 H -0.00555 0.49837 0.92443
 H672 H -0.02722 0.50867 0.89641
 C673 C 0.10093 -0.04830 0.81774
 C674 C 0.09625 -0.03332 0.83163
 C675 C 0.10533 -0.01608 0.82955
 C676 C 0.11913 -0.01382 0.81377
 C677 C 0.12406 -0.02880 0.79982
 C678 C 0.11476 -0.04606 0.80191
 C679 C 0.08252 -0.03550 0.84845
 C680 C 0.07141 -0.03628 0.86310
 C681 C 0.05900 -0.03575 0.88088
 C682 C 0.04909 -0.03383 0.89656
 C683 C 0.03829 -0.02959 0.91568
 C684 C 0.04545 -0.01654 0.93046
 C685 C 0.03465 -0.01046 0.94797
 C686 C 0.01647 -0.01756 0.95134
 C687 C 0.00949 -0.03105 0.93660
 C688 C 0.02036 -0.03702 0.91884
 H689 H 0.09398 -0.06170 0.81921
 H690 H 0.10188 -0.00443 0.84029
 H691 H 0.12620 -0.00045 0.81277
 H692 H 0.11808 -0.05777 0.79121
 H693 H 0.05923 -0.01055 0.92807
 H694 H 0.04050 0.00017 0.95859
 H695 H -0.00456 -0.03648 0.93825
 H696 H 0.01459 -0.04699 0.90731
 C697 C 0.61066 0.45600 0.32421
 C698 C 0.60720 0.47111 0.33839
 C699 C 0.61668 0.48804 0.33561
 C700 C 0.62949 0.48995 0.31867
 C701 C 0.63301 0.47491 0.30426
 C702 C 0.62349 0.45788 0.30725
 C703 C 0.59390 0.46948 0.35579
 C704 C 0.58294 0.46902 0.37063
 C705 C 0.57044 0.46974 0.38834
 C706 C 0.56022 0.47162 0.40377
 C707 C 0.54877 0.47561 0.42248
 C708 C 0.55566 0.48790 0.43829
 C709 C 0.54418 0.49387 0.45530
 C710 C 0.52557 0.48744 0.45710
 C711 C 0.51889 0.47466 0.44136
 C712 C 0.53043 0.46879 0.42415
 H713 H 0.60336 0.44285 0.32619
 H714 H 0.61416 0.49981 0.34653
 H715 H 0.63676 0.50315 0.31696
 H716 H 0.62572 0.44613 0.29624
 H717 H 0.56975 0.49342 0.43706
 H718 H 0.54987 0.50396 0.46672
 H719 H 0.50456 0.46975 0.44179
 H720 H 0.52487 0.45943 0.41181
 C721 C 0.62460 0.54056 0.15704
 C722 C 0.60693 0.53215 0.15812
 C723 C 0.60148 0.52306 0.17705
 C724 C 0.61363 0.52231 0.19481
 C725 C 0.63145 0.53064 0.19389
 C726 C 0.63680 0.53984 0.17483
 C727 C 0.59447 0.53231 0.13973
 C728 C 0.58374 0.53174 0.12462
 C729 C 0.57088 0.53011 0.10730
 C730 C 0.55967 0.52776 0.09289
 C731 C 0.54611 0.52364 0.07624
 C732 C 0.53135 0.51152 0.08081
 C733 C 0.51917 0.50573 0.06439
 C734 C 0.52153 0.51192 0.04296
 C735 C 0.53597 0.52481 0.03877
 C736 C 0.54824 0.53053 0.05526
 H737 H 0.62900 0.54754 0.14241
 H738 H 0.58783 0.51650 0.17805
 H739 H 0.60901 0.51538 0.20937
 H740 H 0.65050 0.54623 0.17358
 H741 H 0.52958 0.50609 0.09700
 H742 H 0.50826 0.49592 0.06854
 H743 H 0.53830 0.53001 0.02262
 H744 H 0.55966 0.53990 0.05152
 C745 C 0.09451 1.02677 0.68523
 C746 C 0.09800 1.03849 0.66773
 C747 C 0.11518 1.04772 0.66635
 C748 C 0.12894 1.04507 0.68225
 C749 C 0.12587 1.03297 0.69994
 C750 C 0.10822 1.02402 0.70116
 C751 C 0.08456 1.03986 0.65037
 C752 C 0.07366 1.04008 0.63541
 C753 C 0.06144 1.03905 0.61743
 C754 C 0.05161 1.03683 0.60172
 C755 C 0.04079 1.03239 0.58268
 C756 C 0.04800 1.01904 0.56813
 C757 C 0.03716 1.01287 0.55073
 C758 C 0.01891 1.02015 0.54724
 C759 C 0.01189 1.03391 0.56176
 C760 C 0.02279 1.03999 0.57939
 H761 H 0.08122 1.01955 0.68646
 H762 H 0.11815 1.05660 0.65265
 H763 H 0.14231 1.05181 0.67981
 H764 H 0.10458 1.01525 0.71468
 H765 H 0.06184 1.01292 0.57063
 H766 H 0.04305 1.00203 0.54028
 H767 H -0.00221 1.03950 0.56004
 H768 H 0.01698 1.05019 0.59074
 C769 C -0.09210 0.47094 0.69069
 C770 C -0.09540 0.46186 0.67086
 C771 C -0.11324 0.45472 0.66622
 C772 C -0.12779 0.45681 0.68126
 C773 C -0.12469 0.46615 0.70114
 C774 C -0.10663 0.47306 0.70576
 C775 C -0.08095 0.46116 0.65459
 C776 C -0.06928 0.46145 0.64047
 C777 C -0.05631 0.46306 0.62337
 C778 C -0.04602 0.46577 0.60827
 C779 C -0.03496 0.47084 0.58979
 C780 C -0.04206 0.48465 0.57607
 C781 C -0.03132 0.49101 0.55890
 C782 C -0.01325 0.48348 0.55481
 C783 C -0.00626 0.46936 0.56858
 C784 C -0.01707 0.46307 0.58599
 H785 H -0.07837 0.47663 0.69438
 H786 H -0.11601 0.44787 0.65081
 H787 H -0.14158 0.45153 0.67714
 H788 H -0.10374 0.48006 0.72104
 H789 H -0.05583 0.49086 0.57892
 H790 H -0.03726 0.50203 0.54897
 H791 H 0.00770 0.46353 0.56631
 H792 H -0.01136 0.45246 0.59668
 C793 C 0.38309 -0.01838 0.16283
 C794 C 0.39411 -0.03464 0.16008
 C795 C 0.39176 -0.04984 0.17397
 C796 C 0.37848 -0.04877 0.19060
 C797 C 0.36736 -0.03246 0.19354
 C798 C 0.36980 -0.01728 0.17946
 C799 C 0.40816 -0.03547 0.14336
 C800 C 0.42004 -0.03564 0.12947
 C801 C 0.43404 -0.03501 0.11336
 C802 C 0.44603 -0.03351 0.09976
 C803 C 0.46029 -0.03032 0.08377
 C804 C 0.45862 -0.03780 0.06282
 C805 C 0.47115 -0.03243 0.04664
 C806 C 0.48535 -0.01925 0.05109
 C807 C 0.48746 -0.01270 0.07259
 C808 C 0.47502 -0.01817 0.08872
 H809 H 0.38482 -0.00652 0.15218
 H810 H 0.40031 -0.06243 0.17208
 H811 H 0.37713 -0.06057 0.20140
 H812 H 0.36134 -0.00462 0.18122
 H813 H 0.44722 -0.04719 0.05879
 H814 H 0.46901 -0.03789 0.03043
 H815 H 0.49819 -0.00268 0.07694
 H816 H 0.47645 -0.01229 0.10489
 C817 C 0.31555 0.45081 0.03416
 C818 C 0.33112 0.44357 0.04530
 C819 C 0.33002 0.42601 0.05520
 C820 C 0.31359 0.41547 0.05345
 C821 C 0.29810 0.42235 0.04164
 C822 C 0.29912 0.44030 0.03238
 C823 C 0.34879 0.45319 0.04461
 C824 C 0.36391 0.46051 0.04292
 C825 C 0.38194 0.46801 0.03966
 C826 C 0.39760 0.47328 0.03576
 C827 C 0.41650 0.47799 0.02981
 C828 C 0.42511 0.49437 0.03746
 C829 C 0.44363 0.49836 0.03144
 C830 C 0.45375 0.48599 0.01768
 C831 C 0.44473 0.46965 0.01008
 C832 C 0.42636 0.46573 0.01607
 H833 H 0.31629 0.46433 0.02633
 H834 H 0.34207 0.42018 0.06366
 H835 H 0.31328 0.40164 0.06056
 H836 H 0.28732 0.44607 0.02345
 H837 H 0.41757 0.50398 0.04812
 H838 H 0.44999 0.51105 0.03771
 H839 H 0.45181 0.45970 -0.00050
 H840 H 0.41984 0.45301 0.01002
 C841 C -0.18364 0.95054 0.53471
 C842 C -0.17013 0.94492 0.54980
 C843 C -0.17317 0.92899 0.56230
 C844 C -0.18943 0.91838 0.55930
 C845 C -0.20294 0.92337 0.54343
 C846 C -0.19986 0.93997 0.53157
 C847 C -0.15238 0.95440 0.55071
 C848 C -0.13721 0.96175 0.55013
 C849 C -0.11915 0.96947 0.54784
 C850 C -0.10352 0.97508 0.54451
 C851 C -0.08471 0.98037 0.53888
 C852 C -0.07684 0.99717 0.54637
 C853 C -0.05865 1.00209 0.54000
 C854 C -0.04814 0.99027 0.52599
 C855 C -0.05636 0.97340 0.51871
 C856 C -0.07440 0.96854 0.52510
 H857 H -0.18145 0.96291 0.52497
 H858 H -0.16264 0.92437 0.57385
 H859 H -0.19062 0.90562 0.56853
 H860 H -0.21006 0.94516 0.52001
 H861 H -0.08476 1.00649 0.55701
 H862 H -0.05291 1.01518 0.54599
 H863 H -0.04901 0.96388 0.50786
 H864 H -0.08038 0.95554 0.51910
 C865 C -0.17514 0.07795 0.94237
 C866 C -0.17357 0.05980 0.95078
 C867 C -0.18876 0.05202 0.96176
 C868 C -0.20526 0.06253 0.96489
 C869 C -0.20674 0.08102 0.95714
 C870 C -0.19163 0.08848 0.94546
 C871 C -0.15578 0.05000 0.95014
 C872 C -0.14057 0.04242 0.95078
 C873 C -0.12242 0.03446 0.95295
 C874 C -0.10668 0.02866 0.95607
 C875 C -0.08772 0.02314 0.96135
 C876 C -0.07729 0.03481 0.97501
 C877 C -0.05908 0.02975 0.98101
 C878 C -0.05078 0.01286 0.97345
 C879 C -0.06140 0.00121 0.95955
 C880 C -0.07977 0.00632 0.95356
 H881 H -0.16338 0.08419 0.93406
 H882 H -0.18767 0.03804 0.96845
 H883 H -0.21675 0.05632 0.97367
 H884 H -0.19228 0.10273 0.93951
 H885 H -0.08332 0.04783 0.98122
 H886 H -0.05165 0.03915 0.99180
 H887 H -0.05562 -0.01190 0.95336
 H888 H -0.08777 -0.00286 0.94300
 C889 C 0.32415 0.56965 0.43974
 C890 C 0.33831 0.57208 0.45528
 C891 C 0.33496 0.58350 0.47347
 C892 C 0.31745 0.59220 0.47636
 C893 C 0.30300 0.58958 0.46108
 C894 C 0.30659 0.57840 0.44258
 C895 C 0.35614 0.56248 0.45320
 C896 C 0.37122 0.55462 0.45262
 C897 C 0.38904 0.54574 0.45330
 C898 C 0.40438 0.53855 0.45510
 C899 C 0.42279 0.53061 0.45876
 C900 C 0.42478 0.51396 0.47042
 C901 C 0.44260 0.50787 0.47711
 C902 C 0.45862 0.51875 0.47289
 C903 C 0.45658 0.53439 0.45925
 C904 C 0.43877 0.54047 0.45260
 H905 H 0.32658 0.56080 0.42562
 H906 H 0.34583 0.58551 0.48557
 H907 H 0.31520 0.60095 0.49059
 H908 H 0.29567 0.57602 0.43065
 H909 H 0.41251 0.50609 0.47510
 H910 H 0.44360 0.49528 0.48674
 H911 H 0.46864 0.54229 0.45411
 H912 H 0.43744 0.55321 0.44323
 C913 C 0.17659 0.57514 0.52726
 C914 C 0.17450 0.56374 0.54540
 C915 C 0.18898 0.56258 0.56075
 C916 C 0.20556 0.57270 0.55784
 C917 C 0.20783 0.58404 0.53949
 C918 C 0.19310 0.58522 0.52431
 C919 C 0.15736 0.55339 0.54791
 C920 C 0.14254 0.54535 0.54874
 C921 C 0.12468 0.53689 0.54813
 C922 C 0.10903 0.53074 0.54617
 C923 C 0.09002 0.52497 0.54199
 C924 C 0.08288 0.50811 0.54991
 C925 C 0.06447 0.50273 0.54470
 C926 C 0.05301 0.51413 0.53144
 C927 C 0.06051 0.53108 0.52379
 C928 C 0.07873 0.53640 0.52903
 H929 H 0.16543 0.57623 0.51535
 H930 H 0.18750 0.55380 0.57487
 H931 H 0.21673 0.57140 0.56969
 H932 H 0.19429 0.59405 0.51022
 H933 H 0.09156 0.49909 0.55992
 H934 H 0.05932 0.48958 0.55091
 H935 H 0.05249 0.54025 0.51336
 H936 H 0.08411 0.54943 0.52268
 C937 C 0.68993 0.04777 0.03209
 C938 C 0.67464 0.05425 0.04438
 C939 C 0.67537 0.07191 0.05452
 C940 C 0.69110 0.08326 0.05194
 C941 C 0.70632 0.07711 0.03909
 C942 C 0.70570 0.05910 0.02949
 C943 C 0.65748 0.04376 0.04477
 C944 C 0.64258 0.03586 0.04416
 C945 C 0.62459 0.02785 0.04229
 C946 C 0.60881 0.02230 0.03961
 C947 C 0.58962 0.01743 0.03505
 C948 C 0.58183 0.00061 0.04218
 C949 C 0.56308 -0.00363 0.03722
 C950 C 0.55192 0.00893 0.02504
 C951 C 0.56010 0.02576 0.01806
 C952 C 0.57869 0.02993 0.02301
 H953 H 0.68947 0.03418 0.02404
 H954 H 0.66351 0.07716 0.06385
 H955 H 0.69106 0.09713 0.05932
 H956 H 0.71731 0.05387 0.01975
 H957 H 0.59021 -0.00920 0.05152
 H958 H 0.55739 -0.01672 0.04292
 H959 H 0.55228 0.03582 0.00854
 H960 H 0.58458 0.04297 0.01734
 C961 C 0.67494 0.93201 0.47790
 C962 C 0.67236 0.94329 0.45969
 C963 C 0.68651 0.94423 0.44403
 C964 C 0.70325 0.93396 0.44669
 C965 C 0.70597 0.92268 0.46505
 C966 C 0.69159 0.92178 0.48058
 C967 C 0.65492 0.95346 0.45731
 C968 C 0.63977 0.96117 0.45669
 C969 C 0.62149 0.96896 0.45763
 C970 C 0.60550 0.97433 0.45990
 C971 C 0.58616 0.97892 0.46440
 C972 C 0.57767 0.99550 0.45702
 C973 C 0.55888 0.99959 0.46229
 C974 C 0.54842 0.98714 0.47504
 C975 C 0.55729 0.97054 0.48222
 C976 C 0.57590 0.96651 0.47695
 H977 H 0.66401 0.93107 0.49003
 H978 H 0.68463 0.95289 0.42985
 H979 H 0.71415 0.93505 0.43457
 H980 H 0.69312 0.91298 0.49469
 H981 H 0.58555 1.00526 0.44733
 H982 H 0.55264 1.01251 0.45643
 H983 H 0.55002 0.96058 0.49219
 H984 H 0.58235 0.95367 0.48286
 C985 C 0.18524 0.43888 0.94334
 C986 C 0.17126 0.43814 0.95923
 C987 C 0.17406 0.42710 0.97759
 C988 C 0.19081 0.41701 0.98025
 C989 C 0.20507 0.41781 0.96457
 C990 C 0.20207 0.42874 0.94597
 C991 C 0.15388 0.44850 0.95709
 C992 C 0.13887 0.45649 0.95672
 C993 C 0.12080 0.46478 0.95794
 C994 C 0.10500 0.47068 0.96041
 C995 C 0.08586 0.47602 0.96507
 C996 C 0.07517 0.46401 0.97770
 C997 C 0.05672 0.46871 0.98300
 C998 C 0.04840 0.48559 0.97579
 C999 C 0.05930 0.49764 0.96302
 C1000 C 0.07794 0.49288 0.95771
 H1001 H 0.18319 0.44736 0.92904
 H1002 H 0.16329 0.42631 0.98992
 H1003 H 0.19257 0.40849 0.99456
 H1004 H 0.21287 0.42973 0.93372
 H1005 H 0.08116 0.45095 0.98358
 H1006 H 0.04908 0.45899 0.99292
 H1007 H 0.05350 0.51074 0.95711
 H1008 H 0.08614 0.50233 0.94796
 C1009 C 0.02069 0.33975 0.42244
 C1010 C 0.01486 0.33781 0.44393
 C1011 C 0.01101 0.31993 0.45193
 C1012 C 0.01296 0.30406 0.43848
 C1013 C 0.01882 0.30589 0.41683
 C1014 C 0.02266 0.32394 0.40899
 C1015 C 0.01269 0.35433 0.45746
 C1016 C 0.01098 0.36864 0.46796
 C1017 C 0.00908 0.38599 0.47915
 C1018 C 0.00754 0.40132 0.48756
 C1019 C 0.00581 0.42023 0.49597
 C1020 C -0.00365 0.43371 0.48365
 C1021 C -0.00367 0.45254 0.49009
 C1022 C 0.00558 0.45833 0.50922
 C1023 C 0.01465 0.44455 0.52184
 C1024 C 0.01475 0.42563 0.51525
 H1025 H 0.02362 0.35352 0.41602
 H1026 H 0.00649 0.31824 0.46854
 H1027 H 0.01009 0.29034 0.44506
 H1028 H 0.02690 0.32589 0.39234
 H1029 H -0.01048 0.42976 0.46859
 H1030 H -0.01055 0.46263 0.47964
 H1031 H 0.02237 0.44840 0.53630
 H1032 H 0.02232 0.41535 0.52481
 C1033 C 0.51664 -0.16343 -0.07793
 C1034 C 0.51071 -0.16516 -0.05645
 C1035 C 0.50777 -0.18302 -0.04789
 C1036 C 0.51073 -0.19908 -0.06080
 C1037 C 0.51668 -0.19746 -0.08244
 C1038 C 0.51961 -0.17943 -0.09083
 C1039 C 0.50762 -0.14847 -0.04345
 C1040 C 0.50526 -0.13398 -0.03346
 C1041 C 0.50283 -0.11635 -0.02302
 C1042 C 0.50113 -0.10072 -0.01547
 C1043 C 0.49966 -0.08139 -0.00844
 C1044 C 0.49729 -0.06756 -0.02411
 C1045 C 0.49788 -0.04861 -0.01832
 C1046 C 0.50048 -0.04296 0.00342
 C1047 C 0.50258 -0.05704 0.01919
 C1048 C 0.50211 -0.07612 0.01330
 H1049 H 0.51890 -0.14967 -0.08476
 H1050 H 0.50322 -0.18455 -0.03128
 H1051 H 0.50855 -0.21277 -0.05378
 H1052 H 0.52391 -0.17767 -0.10749
 H1053 H 0.49572 -0.07143 -0.04103
 H1054 H 0.49713 -0.03851 -0.03124
 H1055 H 0.50524 -0.05334 0.03596
 H1056 H 0.50424 -0.08671 0.02556
 C1057 C -0.01770 -0.16099 1.07910
 C1058 C -0.01213 -0.16285 1.05745
 C1059 C -0.00941 -0.18077 1.04837
 C1060 C -0.01229 -0.19678 1.06090
 C1061 C -0.01797 -0.19503 1.08267
 C1062 C -0.02059 -0.17694 1.09162
 C1063 C -0.00929 -0.14622 1.04479
 C1064 C -0.00714 -0.13183 1.03498
 C1065 C -0.00491 -0.11442 1.02455
 C1066 C -0.00327 -0.09907 1.01670
 C1067 C -0.00169 -0.08018 1.00880
 C1068 C 0.00684 -0.06658 1.02189
 C1069 C 0.00651 -0.04775 1.01583
 C1070 C -0.00221 -0.04212 0.99638
 C1071 C -0.01027 -0.05604 0.98298
 C1072 C -0.01000 -0.07493 0.98917
 H1073 H -0.01979 -0.14719 1.08633
 H1074 H -0.00513 -0.18238 1.03162
 H1075 H -0.01033 -0.21052 1.05349
 H1076 H -0.02467 -0.17511 1.10840
 H1077 H 0.01319 -0.07042 1.03721
 H1078 H 0.01267 -0.03754 1.02678
 H1079 H -0.01750 -0.05233 0.96819
 H1080 H -0.01684 -0.08532 0.97900
 C1081 C 0.49398 0.32289 0.54718
 C1082 C 0.49072 0.34061 0.55658
 C1083 C 0.48442 0.34197 0.57800
 C1084 C 0.48132 0.32574 0.58997
 C1085 C 0.48444 0.30785 0.58067
 C1086 C 0.49089 0.30660 0.55915
 C1087 C 0.49375 0.35752 0.54448
 C1088 C 0.49606 0.37215 0.53519
 C1089 C 0.49852 0.38982 0.52541
 C1090 C 0.50041 0.40537 0.51819
 C1091 C 0.50242 0.42449 0.51116
 C1092 C 0.49543 0.43033 0.49108
 C1093 C 0.49583 0.44937 0.48552
 C1094 C 0.50326 0.46283 0.49999
 C1095 C 0.51053 0.45662 0.51997
 C1096 C 0.51021 0.43767 0.52541
 H1097 H 0.49884 0.32166 0.53060
 H1098 H 0.48193 0.35560 0.58549
 H1099 H 0.47665 0.32720 0.60658
 H1100 H 0.49325 0.29304 0.55147
 H1101 H 0.48917 0.42027 0.48000
 H1102 H 0.48969 0.45355 0.47026
 H1103 H 0.51617 0.46645 0.53174
 H1104 H 0.51553 0.43336 0.54107
 C1105 C 0.50862 1.16072 0.57419
 C1106 C 0.50200 1.16230 0.55292
 C1107 C 0.49854 1.18011 0.54425
 C1108 C 0.50178 1.19627 0.55681
 C1109 C 0.50858 1.19480 0.57817
 C1110 C 0.51187 1.17682 0.58673
 C1111 C 0.49903 1.14548 0.54020
 C1112 C 0.49696 1.13080 0.53056
 C1113 C 0.49507 1.11293 0.52064
 C1114 C 0.49397 1.09709 0.51361
 C1115 C 0.49333 1.07756 0.50728
 C1116 C 0.49207 1.06410 0.52347
 C1117 C 0.49346 1.04504 0.51832
 C1118 C 0.49579 1.03890 0.49670
 C1119 C 0.49681 1.05260 0.48040
 C1120 C 0.49553 1.07180 0.48566
 H1121 H 0.51129 1.14702 0.58111
 H1122 H 0.49345 1.18151 0.52779
 H1123 H 0.49927 1.20992 0.54970
 H1124 H 0.51682 1.17518 0.60321
 H1125 H 0.49071 1.06837 0.54030
 H1126 H 0.49352 1.03527 0.53159
 H1127 H 0.49921 1.04853 0.46369
 H1128 H 0.49682 1.08211 0.47299
 C1129 C 0.01314 0.66028 1.07358
 C1130 C 0.00292 0.66168 1.05433
 C1131 C -0.00446 0.67909 1.04813
 C1132 C -0.00161 0.69505 1.06114
 C1133 C 0.00879 0.69396 1.08071
 C1134 C 0.01605 0.67613 1.08661
 C1135 C -0.00005 0.64501 1.04138
 C1136 C -0.00204 0.63040 1.03162
 C1137 C -0.00380 0.61255 1.02163
 C1138 C -0.00480 0.59673 1.01456
 C1139 C -0.00535 0.57723 1.00812
 C1140 C -0.00270 0.57158 0.98654
 C1141 C -0.00150 0.55241 0.98117
 C1142 C -0.00311 0.53863 0.99729
 C1143 C -0.00576 0.54465 1.01890
 C1144 C -0.00705 0.56370 1.02417
 H1145 H 0.01873 0.64681 1.07870
 H1146 H -0.01235 0.68036 1.03317
 H1147 H -0.00703 0.70830 1.05525
 H1148 H 0.02335 0.67399 1.10177
 H1149 H -0.00105 0.58196 0.97399
 H1150 H 0.00121 0.54844 0.96449
 H1151 H -0.00611 0.53478 1.03206
 H1152 H -0.00874 0.56788 1.04099
 C1153 C 0.50537 0.67670 -0.05121
 C1154 C 0.49777 0.65944 -0.05742
 C1155 C 0.48671 0.65826 -0.07608
 C1156 C 0.48320 0.67418 -0.08852
 C1157 C 0.49069 0.69186 -0.08261
 C1158 C 0.50192 0.69274 -0.06363
 C1159 C 0.50137 0.64272 -0.04506
 C1160 C 0.50388 0.62810 -0.03573
 C1161 C 0.50621 0.61027 -0.02618
 C1162 C 0.50762 0.59448 -0.01943
 C1163 C 0.50854 0.57500 -0.01336
 C1164 C 0.51013 0.56139 -0.02971
 C1165 C 0.50887 0.54239 -0.02480
 C1166 C 0.50635 0.53647 -0.00329
 C1167 C 0.50499 0.55033 0.01314
 C1168 C 0.50615 0.56946 0.00814
 H1169 H 0.51390 0.67781 -0.03670
 H1170 H 0.48092 0.64490 -0.08121
 H1171 H 0.47523 0.67221 -0.10329
 H1172 H 0.50757 0.70587 -0.05770
 H1173 H 0.51161 0.56550 -0.04647
 H1174 H 0.50902 0.53249 -0.03819
 H1175 H 0.50240 0.54646 0.02977
 H1176 H 0.50458 0.57990 0.02092
 C1177 C -0.01885 1.16429 0.42076
 C1178 C -0.00907 1.16542 0.44035
 C1179 C -0.00165 1.18261 0.44714
 C1180 C -0.00395 1.19861 0.43434
 C1181 C -0.01381 1.19778 0.41439
 C1182 C -0.02121 1.18019 0.40793
 C1183 C -0.00647 1.14873 0.45309
 C1184 C -0.00454 1.13428 0.46294
 C1185 C -0.00256 1.11680 0.47341
 C1186 C -0.00113 1.10140 0.48129
 C1187 C 0.00028 1.08247 0.48925
 C1188 C 0.00868 1.06859 0.47624
 C1189 C 0.00833 1.04981 0.48244
 C1190 C -0.00027 1.04449 0.50197
 C1191 C -0.00827 1.05867 0.51524
 C1192 C -0.00799 1.07752 0.50891
 H1193 H -0.02448 1.15099 0.41520
 H1194 H 0.00588 1.18368 0.46237
 H1195 H 0.00150 1.21169 0.44067
 H1196 H -0.02816 1.17826 0.39248
 H1197 H 0.01498 1.07221 0.46089
 H1198 H 0.01442 1.03941 0.47156
 H1199 H -0.01544 1.05520 0.53007
 H1200 H -0.01473 1.08812 0.51902
 C1201 C 0.80048 0.64343 0.92715
 C1202 C 0.78492 0.65103 0.91643
 C1203 C 0.76686 0.64522 0.92186
 C1204 C 0.76428 0.63177 0.93784
 C1205 C 0.77982 0.62369 0.94883
 C1206 C 0.79801 0.62993 0.94318
 C1207 C 0.78724 0.66429 0.89925
 C1208 C 0.78811 0.67508 0.88439
 C1209 C 0.78765 0.68717 0.86647
 C1210 C 0.78577 0.69691 0.85075
 C1211 C 0.78155 0.70759 0.83169
 C1212 C 0.76874 0.70022 0.81679
 C1213 C 0.76251 0.71099 0.79948
 C1214 C 0.76920 0.72935 0.79644
 C1215 C 0.78250 0.73650 0.81125
 C1216 C 0.78863 0.72567 0.82879
 H1217 H 0.81455 0.64792 0.92313
 H1218 H 0.75470 0.65087 0.91344
 H1219 H 0.75006 0.62718 0.94066
 H1220 H 0.81046 0.62500 0.95153
 H1221 H 0.76302 0.68631 0.81899
 H1222 H 0.75203 0.70499 0.78881
 H1223 H 0.78764 0.75068 0.80984
 H1224 H 0.79839 0.73160 0.84042
 C1225 C 0.29562 0.13346 0.41796
 C1226 C 0.28551 0.15035 0.41922
 C1227 C 0.27309 0.15354 0.43638
 C1228 C 0.27059 0.13983 0.45213
 C1229 C 0.28051 0.12249 0.45105
 C1230 C 0.29322 0.11971 0.43365
 C1231 C 0.28682 0.16377 0.40206
 C1232 C 0.28714 0.17460 0.38719
 C1233 C 0.28634 0.18667 0.36925
 C1234 C 0.28442 0.19637 0.35351
 C1235 C 0.28038 0.20703 0.33438
 C1236 C 0.26742 0.19986 0.31952
 C1237 C 0.26163 0.21058 0.30196
 C1238 C 0.26890 0.22867 0.29866
 C1239 C 0.28232 0.23561 0.31345
 C1240 C 0.28802 0.22484 0.33122
 H1241 H 0.30504 0.13071 0.40450
 H1242 H 0.26517 0.16660 0.43751
 H1243 H 0.26125 0.14324 0.46542
 H1244 H 0.30070 0.10655 0.43128
 H1245 H 0.26130 0.18615 0.32188
 H1246 H 0.25108 0.20473 0.29126
 H1247 H 0.28793 0.24959 0.31180
 H1248 H 0.29794 0.23060 0.34279
 C1249 C 0.70798 0.35711 0.43494
 C1250 C 0.72253 0.35534 0.41983
 C1251 C 0.73853 0.36651 0.42191
 C1252 C 0.74001 0.37942 0.43902
 C1253 C 0.72545 0.38135 0.45427
 C1254 C 0.70942 0.37003 0.45206
 C1255 C 0.72118 0.34210 0.40213
 C1256 C 0.72073 0.33125 0.38703
 C1257 C 0.72127 0.31893 0.36900
 C1258 C 0.72290 0.30889 0.35327
 C1259 C 0.72653 0.29770 0.33417
 C1260 C 0.71843 0.28000 0.33119
 C1261 C 0.72366 0.26871 0.31341
 C1262 C 0.73706 0.27501 0.29844
 C1263 C 0.74482 0.29298 0.30160
 C1264 C 0.73950 0.30421 0.31917
 H1265 H 0.69557 0.34849 0.43352
 H1266 H 0.74986 0.36527 0.41026
 H1267 H 0.75242 0.38807 0.44016
 H1268 H 0.69811 0.37100 0.46373
 H1269 H 0.70850 0.27473 0.34287
 H1270 H 0.71769 0.25485 0.31188
 H1271 H 0.75537 0.29836 0.29076
 H1272 H 0.74597 0.31782 0.32139
 C1273 C 0.22981 0.85507 0.93152
 C1274 C 0.21795 0.85911 0.91409
 C1275 C 0.20804 0.87614 0.91372
 C1276 C 0.20992 0.88910 0.93077
 C1277 C 0.22188 0.88530 0.94862
 C1278 C 0.23179 0.86795 0.94856
 C1279 C 0.21644 0.84584 0.89645
 C1280 C 0.21595 0.83442 0.88192
 C1281 C 0.21650 0.82073 0.86524
 C1282 C 0.21811 0.80883 0.85133
 C1283 C 0.22162 0.79448 0.83522
 C1284 C 0.21459 0.79620 0.81415
 C1285 C 0.22028 0.78345 0.79798
 C1286 C 0.23336 0.76900 0.80258
 C1287 C 0.23948 0.76691 0.82416
 C1288 C 0.23368 0.77955 0.84027
 H1289 H 0.23750 0.84186 0.93202
 H1290 H 0.19898 0.87951 0.90014
 H1291 H 0.20250 0.90236 0.92931
 H1292 H 0.24055 0.86375 0.96203
 H1293 H 0.20526 0.80775 0.81003
 H1294 H 0.21510 0.78554 0.78170
 H1295 H 0.24937 0.75598 0.82865
 H1296 H 0.23922 0.77808 0.85653
 C1297 C 0.26675 0.85154 0.07287
 C1298 C 0.27897 0.85409 0.09036
 C1299 C 0.28997 0.87020 0.09160
 C1300 C 0.28881 0.88372 0.07535
 C1301 C 0.27652 0.88144 0.05744
 C1302 C 0.26549 0.86500 0.05662
 C1303 C 0.27983 0.84025 0.10718
 C1304 C 0.27988 0.82849 0.12108
 C1305 C 0.27897 0.81456 0.13713
 C1306 C 0.27720 0.80259 0.15061
 C1307 C 0.27368 0.78834 0.16640
 C1308 C 0.28124 0.78967 0.18728
 C1309 C 0.27572 0.77706 0.20324
 C1310 C 0.26233 0.76309 0.19864
 C1311 C 0.25562 0.76137 0.17721
 C1312 C 0.26122 0.77390 0.16130
 H1313 H 0.25822 0.83904 0.07170
 H1314 H 0.29932 0.87243 0.10524
 H1315 H 0.29709 0.89627 0.07750
 H1316 H 0.25639 0.86192 0.04303
 H1317 H 0.29087 0.80084 0.19144
 H1318 H 0.28133 0.77889 0.21941
 H1319 H 0.24543 0.75083 0.17273
 H1320 H 0.25527 0.77273 0.14518
 C1321 C 0.77945 0.34980 0.57259
 C1322 C 0.78746 0.35453 0.59260
 C1323 C 0.79392 0.37279 0.59634
 C1324 C 0.79217 0.38635 0.58018
 C1325 C 0.78382 0.38178 0.56014
 C1326 C 0.77765 0.36331 0.55647
 C1327 C 0.78801 0.34080 0.60953
 C1328 C 0.78755 0.32908 0.62346
 C1329 C 0.78584 0.31520 0.63946
 C1330 C 0.78326 0.30333 0.65287
 C1331 C 0.77874 0.28928 0.66855
 C1332 C 0.78533 0.29072 0.68985
 C1333 C 0.77880 0.27844 0.70561
 C1334 C 0.76535 0.26468 0.70039
 C1335 C 0.75959 0.26284 0.67861
 C1336 C 0.76621 0.27505 0.66289
 H1337 H 0.77437 0.33572 0.56954
 H1338 H 0.80003 0.37663 0.61184
 H1339 H 0.79693 0.40050 0.58351
 H1340 H 0.77146 0.35929 0.54108
 H1341 H 0.79499 0.30175 0.69444
 H1342 H 0.78368 0.28038 0.72207
 H1343 H 0.74939 0.25246 0.67369
 H1344 H 0.76098 0.27382 0.64644
 C1345 C 0.22084 0.15074 0.56767
 C1346 C 0.21311 0.14496 0.58730
 C1347 C 0.20742 0.12633 0.58970
 C1348 C 0.20966 0.11347 0.57260
 C1349 C 0.21771 0.11910 0.55294
 C1350 C 0.22312 0.13792 0.55059
 C1351 C 0.21211 0.15795 0.60526
 C1352 C 0.21218 0.16902 0.62014
 C1353 C 0.21345 0.18218 0.63728
 C1354 C 0.21567 0.19355 0.65161
 C1355 C 0.21981 0.20720 0.66822
 C1356 C 0.21345 0.20488 0.68942
 C1357 C 0.21951 0.21705 0.70589
 C1358 C 0.23224 0.23156 0.70144
 C1359 C 0.23783 0.23417 0.67979
 C1360 C 0.23169 0.22208 0.66339
 H1361 H 0.22534 0.16512 0.56567
 H1362 H 0.20157 0.12168 0.60490
 H1363 H 0.20554 0.09903 0.57494
 H1364 H 0.22910 0.14271 0.53554
 H1365 H 0.20429 0.19335 0.69336
 H1366 H 0.21473 0.21457 0.72221
 H1367 H 0.24747 0.24515 0.67543
 H1368 H 0.23673 0.22398 0.64702
 C1369 C 0.72025 0.65832 0.05970
 C1370 C 0.71205 0.65423 0.07966
 C1371 C 0.70619 0.63593 0.08393
 C1372 C 0.70870 0.62171 0.06840
 C1373 C 0.71720 0.62561 0.04841
 C1374 C 0.72279 0.64412 0.04414
 C1375 C 0.71104 0.66838 0.09641
 C1376 C 0.71109 0.67982 0.11092
 C1377 C 0.71239 0.69259 0.12846
 C1378 C 0.71477 0.70279 0.14388
 C1379 C 0.71933 0.71391 0.16269
 C1380 C 0.73275 0.70693 0.17712
 C1381 C 0.73866 0.71784 0.19462
 C1382 C 0.73104 0.73595 0.19832
 C1383 C 0.71736 0.74282 0.18379
 C1384 C 0.71152 0.73184 0.16608
 H1385 H 0.72496 0.67241 0.05630
 H1386 H 0.70003 0.63257 0.09943
 H1387 H 0.70444 0.60757 0.07224
 H1388 H 0.72912 0.64760 0.02878
 H1389 H 0.73901 0.69314 0.17455
 H1390 H 0.74943 0.71206 0.20508
 H1391 H 0.71157 0.75684 0.18564
 H1392 H 0.70126 0.73747 0.15482
 C1393 C 0.18663 0.56042 0.19000
 C1394 C 0.18548 0.57504 0.20530
 C1395 C 0.17396 0.57322 0.22347
 C1396 C 0.16382 0.55680 0.22657
 C1397 C 0.16507 0.54189 0.21152
 C1398 C 0.17644 0.54391 0.19306
 C1399 C 0.19602 0.59202 0.20286
 C1400 C 0.20415 0.60678 0.20234
 C1401 C 0.21256 0.62462 0.20355
 C1402 C 0.21852 0.64027 0.20616
 C1403 C 0.22385 0.65926 0.21115
 C1404 C 0.21193 0.67005 0.22429
 C1405 C 0.21664 0.68834 0.23002
 C1406 C 0.23347 0.69639 0.22270
 C1407 C 0.24544 0.68540 0.20938
 C1408 C 0.24066 0.66692 0.20366
 H1409 H 0.19550 0.56170 0.17586
 H1410 H 0.17287 0.58449 0.23535
 H1411 H 0.15497 0.55578 0.24074
 H1412 H 0.17776 0.53259 0.18130
 H1413 H 0.19892 0.66425 0.23029
 H1414 H 0.20701 0.69604 0.24038
 H1415 H 0.25850 0.69100 0.20338
 H1416 H 0.25006 0.65863 0.19351
 C1417 C 0.68952 0.06223 0.69082
 C1418 C 0.68766 0.07678 0.70612
 C1419 C 0.67560 0.07473 0.72378
 C1420 C 0.66559 0.05816 0.72635
 C1421 C 0.66752 0.04333 0.71128
 C1422 C 0.67946 0.04557 0.69335
 C1423 C 0.69798 0.09395 0.70415
 C1424 C 0.70588 0.10883 0.70392
 C1425 C 0.71403 0.12678 0.70532
 C1426 C 0.71980 0.14250 0.70794
 C1427 C 0.72498 0.16156 0.71274
 C1428 C 0.74221 0.16892 0.70617
 C1429 C 0.74691 0.18745 0.71174
 C1430 C 0.73442 0.19880 0.72400
 C1431 C 0.71717 0.19106 0.73039
 C1432 C 0.71253 0.17271 0.72481
 H1433 H 0.69880 0.06369 0.67707
 H1434 H 0.67397 0.08595 0.73565
 H1435 H 0.65628 0.05696 0.74011
 H1436 H 0.68130 0.03432 0.68159
 H1437 H 0.75201 0.16036 0.69686
 H1438 H 0.76031 0.19280 0.70647
 H1439 H 0.70716 0.19904 0.74000
 H1440 H 0.69920 0.16713 0.73011
 C1441 C 0.80084 0.06896 0.28147
 C1442 C 0.80701 0.08222 0.29663
 C1443 C 0.82297 0.07844 0.30912
 C1444 C 0.83307 0.06167 0.30606
 C1445 C 0.82750 0.04834 0.29018
 C1446 C 0.81089 0.05221 0.27829
 C1447 C 0.79809 0.10042 0.29771
 C1448 C 0.79128 0.11598 0.29744
 C1449 C 0.78423 0.13448 0.29569
 C1450 C 0.77915 0.15047 0.29289
 C1451 C 0.77435 0.16962 0.28796
 C1452 C 0.75797 0.17819 0.29602
 C1453 C 0.75338 0.19666 0.29021
 C1454 C 0.76512 0.20676 0.27620
 C1455 C 0.78160 0.19787 0.26842
 C1456 C 0.78614 0.17955 0.27426
 H1457 H 0.78844 0.07173 0.27173
 H1458 H 0.82803 0.08876 0.32071
 H1459 H 0.84590 0.05994 0.31529
 H1460 H 0.80530 0.04224 0.26668
 H1461 H 0.74870 0.17057 0.30661
 H1462 H 0.74057 0.20289 0.29656
 H1463 H 0.79099 0.20488 0.25749
 H1464 H 0.79881 0.17302 0.26783
 C1465 C 0.29779 0.56307 0.78005
 C1466 C 0.30392 0.57654 0.79498
 C1467 C 0.32026 0.57321 0.80700
 C1468 C 0.33078 0.55672 0.80365
 C1469 C 0.32527 0.54324 0.78791
 C1470 C 0.30825 0.54660 0.77658
 C1471 C 0.29453 0.59453 0.79627
 C1472 C 0.28737 0.60995 0.79620
 C1473 C 0.28001 0.62838 0.79475
 C1474 C 0.27483 0.64439 0.79230
 C1475 C 0.27022 0.66371 0.78789
 C1476 C 0.25331 0.67199 0.79483
 C1477 C 0.24916 0.69075 0.78972
 C1478 C 0.26189 0.70142 0.77755
 C1479 C 0.27883 0.69277 0.77080
 C1480 C 0.28292 0.67418 0.77592
 H1481 H 0.28510 0.56547 0.77069
 H1482 H 0.32529 0.58368 0.81842
 H1483 H 0.34386 0.55535 0.81248
 H1484 H 0.30268 0.53646 0.76515
 H1485 H 0.24332 0.66397 0.80407
 H1486 H 0.23598 0.69680 0.79524
 H1487 H 0.28900 0.70019 0.76125
 H1488 H 0.29601 0.66791 0.77035
 C1489 C 0.29353 0.43771 0.71407
 C1490 C 0.30059 0.42219 0.70249
 C1491 C 0.31816 0.42321 0.69243
 C1492 C 0.32889 0.43947 0.69447
 C1493 C 0.32221 0.45491 0.70671
 C1494 C 0.30424 0.45400 0.71613
 C1495 C 0.29082 0.40460 0.70289
 C1496 C 0.28350 0.38947 0.70425
 C1497 C 0.27611 0.37135 0.70704
 C1498 C 0.27101 0.35558 0.71048
 C1499 C 0.26658 0.33652 0.71584
 C1500 C 0.24996 0.32805 0.70872
 C1501 C 0.24619 0.30940 0.71425
 C1502 C 0.25901 0.29902 0.72697
 C1503 C 0.27561 0.30788 0.73399
 C1504 C 0.27931 0.32638 0.72849
 H1505 H 0.28000 0.43704 0.72204
 H1506 H 0.32385 0.41119 0.68364
 H1507 H 0.34275 0.43967 0.68724
 H1508 H 0.29862 0.46576 0.72540
 H1509 H 0.23998 0.33580 0.69891
 H1510 H 0.23328 0.30317 0.70847
 H1511 H 0.28589 0.30062 0.74382
 H1512 H 0.29221 0.33280 0.73413
 C1513 C 0.81861 0.92952 0.19109
 C1514 C 0.80303 0.92640 0.20425
 C1515 C 0.79790 0.93975 0.21993
 C1516 C 0.80857 0.95594 0.22288
 C1517 C 0.82478 0.95913 0.21022
 C1518 C 0.82932 0.94571 0.19392
 C1519 C 0.79350 0.90870 0.20320
 C1520 C 0.78626 0.89348 0.20337
 C1521 C 0.77883 0.87526 0.20487
 C1522 C 0.77352 0.85942 0.20736
 C1523 C 0.76860 0.84032 0.21185
 C1524 C 0.78046 0.82981 0.22520
 C1525 C 0.77593 0.81145 0.23046
 C1526 C 0.75939 0.80311 0.22246
 C1527 C 0.74757 0.81380 0.20884
 C1528 C 0.75216 0.83231 0.20359
 H1529 H 0.82288 0.91910 0.17911
 H1530 H 0.78582 0.93747 0.23021
 H1531 H 0.80376 0.96603 0.23490
 H1532 H 0.84183 0.94691 0.18413
 H1533 H 0.79320 0.83589 0.23176
 H1534 H 0.78541 0.80396 0.24107
 H1535 H 0.73472 0.80799 0.20233
 H1536 H 0.74284 0.84038 0.19326
 C1537 C 0.68715 0.93140 0.81157
 C1538 C 0.68588 0.91682 0.79625
 C1539 C 0.67433 0.91896 0.77806
 C1540 C 0.66431 0.93566 0.77494
 C1541 C 0.66571 0.95054 0.78999
 C1542 C 0.67707 0.94818 0.80849
 C1543 C 0.69645 0.89962 0.79861
 C1544 C 0.70471 0.88477 0.79903
 C1545 C 0.71342 0.86691 0.79763
 C1546 C 0.71978 0.85133 0.79479
 C1547 C 0.72578 0.83250 0.78941
 C1548 C 0.71441 0.82187 0.77564
 C1549 C 0.72000 0.80390 0.76918
 C1550 C 0.73714 0.79603 0.77638
 C1551 C 0.74848 0.80682 0.79044
 C1552 C 0.74283 0.82498 0.79688
 H1553 H 0.69606 0.92988 0.82571
 H1554 H 0.67316 0.90773 0.76615
 H1555 H 0.65545 0.93696 0.76073
 H1556 H 0.67852 0.95946 0.82026
 H1557 H 0.70124 0.82758 0.76962
 H1558 H 0.71085 0.79637 0.75821
 H1559 H 0.76176 0.80135 0.79637
 H1560 H 0.75181 0.83316 0.80749
 C1561 C 0.18873 0.43119 0.31215
 C1562 C 0.18712 0.41643 0.29712
 C1563 C 0.17499 0.41825 0.27938
 C1564 C 0.16469 0.43481 0.27643
 C1565 C 0.16639 0.44985 0.29121
 C1566 C 0.17837 0.44783 0.30924
 C1567 C 0.19791 0.39935 0.29934
 C1568 C 0.20630 0.38457 0.29969
 C1569 C 0.21510 0.36676 0.29825
 C1570 C 0.22147 0.35119 0.29537
 C1571 C 0.22742 0.33236 0.28996
 C1572 C 0.21620 0.32193 0.27583
 C1573 C 0.22164 0.30388 0.26952
 C1574 C 0.23848 0.29573 0.27722
 C1575 C 0.24969 0.30634 0.29160
 C1576 C 0.24419 0.32458 0.29790
 H1577 H 0.19808 0.42992 0.32593
 H1578 H 0.17357 0.40687 0.26771
 H1579 H 0.15537 0.43584 0.26259
 H1580 H 0.18006 0.45926 0.32077
 H1581 H 0.20323 0.32783 0.26947
 H1582 H 0.21258 0.29648 0.25834
 H1583 H 0.26274 0.30066 0.29791
 H1584 H 0.25304 0.33260 0.30881
 C1585 C 0.06832 0.24894 0.79749
 C1586 C 0.08620 0.25214 0.80625
 C1587 C 0.08794 0.25850 0.82767
 C1588 C 0.07194 0.26179 0.84027
 C1589 C 0.05389 0.25878 0.83162
 C1590 C 0.05225 0.25220 0.81011
 C1591 C 0.10292 0.24920 0.79348
 C1592 C 0.11753 0.24718 0.78380
 C1593 C 0.13531 0.24538 0.77383
 C1594 C 0.15106 0.24436 0.76667
 C1595 C 0.17046 0.24384 0.76002
 C1596 C 0.17560 0.24653 0.73841
 C1597 C 0.19463 0.24790 0.73282
 C1598 C 0.20879 0.24644 0.74877
 C1599 C 0.20329 0.24366 0.77040
 C1600 C 0.18437 0.24220 0.77589
 H1601 H 0.06681 0.24405 0.78091
 H1602 H 0.10170 0.26097 0.83465
 H1603 H 0.07370 0.26654 0.85686
 H1604 H 0.03854 0.24991 0.80295
 H1605 H 0.16492 0.24813 0.72601
 H1606 H 0.19819 0.25069 0.71614
 H1607 H 0.21344 0.24340 0.78344
 H1608 H 0.18057 0.24048 0.79273
 C1609 C 0.56507 0.75527 0.29356
 C1610 C 0.58302 0.75827 0.30221
 C1611 C 0.58500 0.76341 0.32402
 C1612 C 0.56916 0.76571 0.33711
 C1613 C 0.55103 0.76293 0.32858
 C1614 C 0.54914 0.75754 0.30668
 C1615 C 0.59960 0.75629 0.28901
 C1616 C 0.61412 0.75498 0.27904
 C1617 C 0.63181 0.75378 0.26876
 C1618 C 0.64745 0.75301 0.26130
 C1619 C 0.66670 0.75237 0.25413
 C1620 C 0.67217 0.76115 0.23500
 C1621 C 0.69125 0.76212 0.22955
 C1622 C 0.70512 0.75427 0.24316
 C1623 C 0.69930 0.74528 0.26222
 C1624 C 0.68031 0.74424 0.26754
 H1625 H 0.56338 0.75129 0.27669
 H1626 H 0.59882 0.76568 0.33092
 H1627 H 0.57110 0.76953 0.35398
 H1628 H 0.53536 0.75544 0.29963
 H1629 H 0.66176 0.76774 0.22465
 H1630 H 0.69508 0.76964 0.21513
 H1631 H 0.70944 0.73932 0.27337
 H1632 H 0.67628 0.73759 0.28251
 C1633 C 0.59172 0.23823 0.17147
 C1634 C 0.58966 0.24515 0.19263
 C1635 C 0.57165 0.24883 0.20086
 C1636 C 0.55577 0.24552 0.18796
 C1637 C 0.55773 0.23846 0.16669
 C1638 C 0.57591 0.23491 0.15859
 C1639 C 0.60616 0.24837 0.20568
 C1640 C 0.62050 0.25077 0.21576
 C1641 C 0.63791 0.25323 0.22642
 C1642 C 0.65331 0.25500 0.23436
 C1643 C 0.67232 0.25670 0.24219
 C1644 C 0.67789 0.24859 0.26178
 C1645 C 0.69692 0.24825 0.26773
 C1646 C 0.71064 0.25601 0.25414
 C1647 C 0.70468 0.26457 0.23477
 C1648 C 0.68573 0.26500 0.22896
 H1649 H 0.60559 0.23541 0.16489
 H1650 H 0.56988 0.25416 0.21723
 H1651 H 0.54196 0.24821 0.19473
 H1652 H 0.57791 0.22975 0.14218
 H1653 H 0.66765 0.24193 0.27204
 H1654 H 0.70088 0.24115 0.28248
 H1655 H 0.71471 0.27048 0.22365
 H1656 H 0.68163 0.27117 0.21366
 C1657 C 0.07066 0.75008 0.70210
 C1658 C 0.08870 0.74613 0.69413
 C1659 C 0.09088 0.73931 0.67293
 C1660 C 0.07517 0.73642 0.65974
 C1661 C 0.05696 0.74030 0.66756
 C1662 C 0.05488 0.74720 0.68890
 C1663 C 0.10512 0.74901 0.70745
 C1664 C 0.11945 0.75110 0.71766
 C1665 C 0.13694 0.75312 0.72829
 C1666 C 0.15251 0.75441 0.73595
 C1667 C 0.17180 0.75534 0.74304
 C1668 C 0.17684 0.75307 0.76481
 C1669 C 0.19588 0.75210 0.77077
 C1670 C 0.21013 0.75350 0.75503
 C1671 C 0.20470 0.75591 0.73325
 C1672 C 0.18580 0.75699 0.72740
 H1673 H 0.06878 0.75533 0.71849
 H1674 H 0.10478 0.73627 0.66655
 H1675 H 0.07728 0.73138 0.64331
 H1676 H 0.04104 0.75013 0.69547
 H1677 H 0.16611 0.75149 0.77706
 H1678 H 0.19941 0.74962 0.78757
 H1679 H 0.21493 0.75613 0.72035
 H1680 H 0.18210 0.75842 0.71046
 C1681 C 0.91285 0.77307 0.67091
 C1682 C 0.91408 0.76291 0.69010
 C1683 C 0.93145 0.75569 0.69677
 C1684 C 0.94754 0.75851 0.68426
 C1685 C 0.94663 0.76868 0.66467
 C1686 C 0.92886 0.77595 0.65834
 C1687 C 0.89734 0.75967 0.70257
 C1688 C 0.88292 0.75712 0.71233
 C1689 C 0.86555 0.75433 0.72280
 C1690 C 0.85025 0.75218 0.73076
 C1691 C 0.83143 0.74995 0.73884
 C1692 C 0.82598 0.75789 0.75873
 C1693 C 0.80710 0.75752 0.76514
 C1694 C 0.79340 0.74917 0.75173
 C1695 C 0.79924 0.74082 0.73202
 C1696 C 0.81806 0.74113 0.72574
 H1697 H 0.89941 0.77857 0.66545
 H1698 H 0.93260 0.74789 0.71171
 H1699 H 0.96073 0.75319 0.69055
 H1700 H 0.92689 0.78318 0.64318
 H1701 H 0.83619 0.76494 0.76892
 H1702 H 0.80321 0.76449 0.78013
 H1703 H 0.78920 0.73447 0.72105
 H1704 H 0.82206 0.73506 0.71023
 C1705 C 0.41238 0.26455 0.16987
 C1706 C 0.41449 0.25905 0.19144
 C1707 C 0.43254 0.25627 0.20002
 C1708 C 0.44839 0.25898 0.18706
 C1709 C 0.44638 0.26453 0.16534
 C1710 C 0.42817 0.26727 0.15691
 C1711 C 0.39803 0.25620 0.20452
 C1712 C 0.38377 0.25396 0.21468
 C1713 C 0.36650 0.25153 0.22549
 C1714 C 0.35122 0.24965 0.23360
 C1715 C 0.33236 0.24769 0.24167
 C1716 C 0.32685 0.25610 0.26129
 C1717 C 0.30791 0.25606 0.26751
 C1718 C 0.29422 0.24761 0.25418
 C1719 C 0.30013 0.23878 0.23477
 C1720 C 0.31900 0.23874 0.22869
 H1721 H 0.39848 0.26667 0.16302
 H1722 H 0.43435 0.25204 0.21671
 H1723 H 0.46221 0.25695 0.19409
 H1724 H 0.42613 0.27126 0.14018
 H1725 H 0.33705 0.26327 0.27137
 H1726 H 0.30397 0.26340 0.28226
 H1727 H 0.29011 0.23236 0.22383
 H1728 H 0.32305 0.23232 0.21338
 C1729 C 0.40736 0.73339 0.32339
 C1730 C 0.40935 0.73907 0.30189
 C1731 C 0.42731 0.74222 0.29353
 C1732 C 0.44321 0.73970 0.30666
 C1733 C 0.44132 0.73396 0.32831
 C1734 C 0.42319 0.73086 0.33650
 C1735 C 0.39278 0.74169 0.28874
 C1736 C 0.37827 0.74362 0.27882
 C1737 C 0.36053 0.74552 0.26869
 C1738 C 0.34475 0.74678 0.26160
 C1739 C 0.32525 0.74777 0.25531
 C1740 C 0.31172 0.74945 0.27157
 C1741 C 0.29267 0.74868 0.26645
 C1742 C 0.28661 0.74659 0.24481
 C1743 C 0.30038 0.74501 0.22848
 C1744 C 0.31958 0.74568 0.23369
 H1745 H 0.39352 0.73099 0.33007
 H1746 H 0.42903 0.74660 0.27691
 H1747 H 0.45699 0.74202 0.29982
 H1748 H 0.42121 0.72674 0.35317
 H1749 H 0.31592 0.75073 0.28840
 H1750 H 0.28282 0.74898 0.27975
 H1751 H 0.29637 0.74271 0.21174
 H1752 H 0.32995 0.74406 0.22097
 C1753 C 0.92742 0.24235 0.79857
 C1754 C 0.90961 0.23950 0.80751
 C1755 C 0.90806 0.23381 0.82905
 C1756 C 0.92418 0.23094 0.84162
 C1757 C 0.94215 0.23371 0.83281
 C1758 C 0.94360 0.23950 0.81114
 C1759 C 0.89280 0.24231 0.79481
 C1760 C 0.87822 0.24440 0.78507
 C1761 C 0.86052 0.24649 0.77488
 C1762 C 0.84488 0.24793 0.76743
 C1763 C 0.82560 0.24914 0.76032
 C1764 C 0.82066 0.24675 0.73850
 C1765 C 0.80167 0.24633 0.73238
 C1766 C 0.78733 0.24849 0.74799
 C1767 C 0.79264 0.25087 0.76986
 C1768 C 0.81152 0.25137 0.77588
 H1769 H 0.92880 0.24672 0.78189
 H1770 H 0.89436 0.23162 0.83618
 H1771 H 0.92257 0.22678 0.85832
 H1772 H 0.95724 0.24157 0.80383
 H1773 H 0.83145 0.24471 0.72632
 H1774 H 0.79824 0.24379 0.71553
 H1775 H 0.78230 0.25161 0.78264
 H1776 H 0.81513 0.25287 0.79286
 C1777 C 0.62226 0.98618 0.64465
 C1778 C 0.60601 0.97606 0.64906
 C1779 C 0.60095 0.97276 0.67050
 C1780 C 0.61181 0.97997 0.68751
 C1781 C 0.62795 0.99088 0.68342
 C1782 C 0.63313 0.99348 0.66156
 C1783 C 0.59377 0.97069 0.63152
 C1784 C 0.58357 0.96753 0.61632
 C1785 C 0.57194 0.96565 0.59791
 C1786 C 0.56252 0.96583 0.58166
 C1787 C 0.55225 0.96845 0.56181
 C1788 C 0.53473 0.96014 0.55813
 C1789 C 0.52414 0.96497 0.53976
 C1790 C 0.53095 0.97820 0.52495
 C1791 C 0.54873 0.98616 0.52887
 C1792 C 0.55928 0.98118 0.54693
 H1793 H 0.62636 0.98878 0.62806
 H1794 H 0.58823 0.96515 0.67410
 H1795 H 0.60665 0.97789 0.70376
 H1796 H 0.64577 1.00089 0.65726
 H1797 H 0.52901 0.95046 0.56975
 H1798 H 0.51035 0.95894 0.53770
 H1799 H 0.55441 0.99672 0.51832
 H1800 H 0.57269 0.98790 0.54974
 C1801 C 0.12047 0.48030 1.14732
 C1802 C 0.10225 0.47406 1.15156
 C1803 C 0.09530 0.47476 1.17274
 C1804 C 0.10636 0.48207 1.18952
 C1805 C 0.12449 0.48889 1.18529
 C1806 C 0.13153 0.48765 1.16405
 C1807 C 0.09016 0.46881 1.13382
 C1808 C 0.08019 0.46572 1.11841
 C1809 C 0.06890 0.46386 1.09970
 C1810 C 0.05987 0.46404 1.08316
 C1811 C 0.05014 0.46666 1.06294
 C1812 C 0.03243 0.45891 1.05888
 C1813 C 0.02237 0.46390 1.04017
 C1814 C 0.02992 0.47674 1.02539
 C1815 C 0.04791 0.48409 1.02966
 C1816 C 0.05793 0.47895 1.04805
 H1817 H 0.12595 0.47995 1.13096
 H1818 H 0.08114 0.47020 1.17616
 H1819 H 0.10045 0.48306 1.20564
 H1820 H 0.14551 0.49258 1.16035
 H1821 H 0.02613 0.44959 1.07050
 H1822 H 0.00841 0.45834 1.03784
 H1823 H 0.05415 0.49437 1.01917
 H1824 H 0.07150 0.48524 1.05114
 C1825 C -0.11094 0.03025 1.16787
 C1826 C -0.10536 0.01819 1.15104
 C1827 C -0.11118 -0.00048 1.15093
 C1828 C -0.12259 -0.00714 1.16744
 C1829 C -0.12856 0.00478 1.18462
 C1830 C -0.12237 0.02365 1.18453
 C1831 C -0.09380 0.02461 1.13357
 C1832 C -0.08430 0.02855 1.11816
 C1833 C -0.07353 0.03126 1.09932
 C1834 C -0.06480 0.03175 1.08264
 C1835 C -0.05513 0.02994 1.06227
 C1836 C -0.06306 0.01855 1.04623
 C1837 C -0.05280 0.01367 1.02782
 C1838 C -0.03442 0.02038 1.02480
 C1839 C -0.02684 0.03256 1.04064
 C1840 C -0.03713 0.03726 1.05931
 H1841 H -0.10661 0.04481 1.16803
 H1842 H -0.10678 -0.01001 1.13806
 H1843 H -0.12601 -0.02191 1.16696
 H1844 H -0.12689 0.03369 1.19676
 H1845 H -0.07688 0.01259 1.04846
 H1846 H -0.05909 0.00394 1.01641
 H1847 H -0.01263 0.03768 1.03924
 H1848 H -0.03074 0.04589 1.07181
 C1849 C 0.38733 0.52656 0.66483
 C1850 C 0.39283 0.51471 0.64778
 C1851 C 0.38653 0.49619 0.64708
 C1852 C 0.37487 0.48946 0.66335
 C1853 C 0.36917 0.50114 0.68089
 C1854 C 0.37566 0.51990 0.68121
 C1855 C 0.40512 0.52123 0.63102
 C1856 C 0.41546 0.52575 0.61658
 C1857 C 0.42755 0.52978 0.59917
 C1858 C 0.43777 0.53196 0.58388
 C1859 C 0.44972 0.53280 0.56514
 C1860 C 0.46926 0.53191 0.56744
 C1861 C 0.48065 0.52877 0.54930
 C1862 C 0.47266 0.52613 0.52852
 C1863 C 0.45308 0.52861 0.52638
 C1864 C 0.44174 0.53185 0.54449
 H1865 H 0.39201 0.54100 0.66545
 H1866 H 0.39086 0.48682 0.63403
 H1867 H 0.37114 0.47479 0.66246
 H1868 H 0.37129 0.52983 0.69362
 H1869 H 0.47565 0.53260 0.58338
 H1870 H 0.49564 0.52717 0.55188
 H1871 H 0.44622 0.52756 0.51100
 H1872 H 0.42661 0.53263 0.54245
 C1873 C 0.38935 0.47024 -0.17168
 C1874 C 0.39950 0.48273 -0.15860
 C1875 C 0.39726 0.50212 -0.16138
 C1876 C 0.38485 0.50904 -0.17701
 C1877 C 0.37444 0.49665 -0.19012
 C1878 C 0.37692 0.47716 -0.18741
 C1879 C 0.41161 0.47600 -0.14156
 C1880 C 0.42152 0.47162 -0.12652
 C1881 C 0.43268 0.46826 -0.10800
 C1882 C 0.44160 0.46720 -0.09142
 C1883 C 0.45121 0.46846 -0.07091
 C1884 C 0.44364 0.48049 -0.05517
 C1885 C 0.45372 0.48456 -0.03642
 C1886 C 0.47155 0.47637 -0.03265
 C1887 C 0.47880 0.46363 -0.04823
 C1888 C 0.46869 0.45975 -0.06732
 H1889 H 0.39086 0.45521 -0.16957
 H1890 H 0.40501 0.51192 -0.15132
 H1891 H 0.38347 0.52410 -0.17892
 H1892 H 0.36897 0.46728 -0.19714
 H1893 H 0.43025 0.48751 -0.05785
 H1894 H 0.44772 0.49482 -0.02531
 H1895 H 0.49261 0.45738 -0.04624
 H1896 H 0.47482 0.45058 -0.07956
 C1897 C -0.10351 1.00568 0.34370
 C1898 C -0.10224 0.98632 0.34721
 C1899 C -0.11246 0.97393 0.33407
 C1900 C -0.12406 0.98094 0.31759
 C1901 C -0.12563 1.00043 0.31422
 C1902 C -0.11509 1.01269 0.32734
 C1903 C -0.09104 0.97961 0.36502
 C1904 C -0.08178 0.97541 0.38065
 C1905 C -0.07122 0.97236 0.39969
 C1906 C -0.06260 0.97157 0.41648
 C1907 C -0.05296 0.97301 0.43693
 C1908 C -0.03484 0.96556 0.43979
 C1909 C -0.02452 0.97005 0.45850
 C1910 C -0.03219 0.98216 0.47446
 C1911 C -0.05071 0.98896 0.47157
 C1912 C -0.06099 0.98429 0.45313
 H1913 H -0.09567 1.01540 0.35378
 H1914 H -0.11166 0.95892 0.33674
 H1915 H -0.13212 0.97118 0.30783
 H1916 H -0.11579 1.02774 0.32491
 H1917 H -0.02836 0.95703 0.42718
 H1918 H -0.01022 0.96488 0.45979
 H1919 H -0.05706 0.99867 0.48307
 H1920 H -0.07490 0.99036 0.45097
 C1921 C 0.12441 0.51289 0.35663
 C1922 C 0.10609 0.51959 0.35316
 C1923 C 0.09832 0.51894 0.33233
 C1924 C 0.10868 0.51122 0.31513
 C1925 C 0.12691 0.50394 0.31859
 C1926 C 0.13477 0.50513 0.33947
 C1927 C 0.09471 0.52529 0.37136
 C1928 C 0.08526 0.52880 0.38710
 C1929 C 0.07448 0.53120 0.40609
 C1930 C 0.06573 0.53157 0.42278
 C1931 C 0.05609 0.52974 0.44309
 C1932 C 0.03788 0.53693 0.44619
 C1933 C 0.02779 0.53236 0.46488
 C1934 C 0.03579 0.52048 0.48060
 C1935 C 0.05432 0.51381 0.47738
 C1936 C 0.06438 0.51855 0.45897
 H1937 H 0.13052 0.51320 0.37272
 H1938 H 0.08407 0.52387 0.32950
 H1939 H 0.10215 0.51028 0.29929
 H1940 H 0.14885 0.49985 0.34258
 H1941 H 0.03121 0.54538 0.43382
 H1942 H 0.01344 0.53738 0.46640
 H1943 H 0.06095 0.50427 0.48867
 H1944 H 0.07836 0.51268 0.45662
 C1945 C 0.59681 0.02000 -0.17156
 C1946 C 0.60378 0.02050 -0.15036
 C1947 C 0.62189 0.01362 -0.14600
 C1948 C 0.63284 0.00584 -0.16266
 C1949 C 0.62577 0.00481 -0.18392
 C1950 C 0.60775 0.01226 -0.18826
 C1951 C 0.59176 0.02616 -0.13268
 C1952 C 0.58186 0.02953 -0.11729
 C1953 C 0.57069 0.03162 -0.09856
 C1954 C 0.56180 0.03153 -0.08197
 C1955 C 0.55234 0.02890 -0.06169
 C1956 C 0.56039 0.01637 -0.04705
 C1957 C 0.55063 0.01117 -0.02863
 C1958 C 0.53264 0.01872 -0.02407
 C1959 C 0.52480 0.03179 -0.03862
 C1960 C 0.53460 0.03682 -0.05738
 H1961 H 0.58271 0.02504 -0.17506
 H1962 H 0.62737 0.01379 -0.12961
 H1963 H 0.64673 0.00042 -0.15888
 H1964 H 0.60183 0.01146 -0.20441
 H1965 H 0.57398 0.00993 -0.05035
 H1966 H 0.55706 0.00068 -0.01837
 H1967 H 0.51081 0.03748 -0.03610
 H1968 H 0.52809 0.04632 -0.06882
 C1969 C 0.67617 0.55037 -0.01761
 C1970 C 0.66259 0.54715 -0.00178
 C1971 C 0.66504 0.55448 0.01908
 C1972 C 0.68056 0.56557 0.02397
 C1973 C 0.69409 0.56974 0.00800
 C1974 C 0.69186 0.56142 -0.01277
 C1975 C 0.64552 0.53733 -0.00686
 C1976 C 0.63062 0.52983 -0.00993
 C1977 C 0.61263 0.52181 -0.01210
 C1978 C 0.59694 0.51556 -0.01265
 C1979 C 0.57797 0.50879 -0.01166
 C1980 C 0.57257 0.49779 0.00582
 C1981 C 0.55371 0.49328 0.00871
 C1982 C 0.53979 0.50000 -0.00566
 C1983 C 0.54557 0.50998 -0.02400
 C1984 C 0.56450 0.51454 -0.02685
 H1985 H 0.67437 0.54481 -0.03388
 H1986 H 0.65472 0.55188 0.03156
 H1987 H 0.68196 0.57058 0.04048
 H1988 H 0.70146 0.56432 -0.02584
 H1989 H 0.58285 0.49326 0.01770
 H1990 H 0.55000 0.48528 0.02286
 H1991 H 0.53552 0.51462 -0.03595
 H1992 H 0.56855 0.52296 -0.04055
 C1993 C 0.17261 1.05380 0.47948
 C1994 C 0.16210 1.04537 0.49582
 C1995 C 0.16807 1.04672 0.51739
 C1996 C 0.18401 1.05707 0.52275
 C1997 C 0.19420 1.06625 0.50658
 C1998 C 0.18865 1.06411 0.48481
 C1999 C 0.14411 1.03724 0.49108
 C2000 C 0.12844 1.03138 0.48834
 C2001 C 0.10956 1.02566 0.48670
 C2002 C 0.09311 1.02180 0.48675
 C2003 C 0.07328 1.01843 0.48866
 C2004 C 0.06214 1.03175 0.49950
 C2005 C 0.04327 1.02818 0.50357
 C2006 C 0.03504 1.01117 0.49679
 C2007 C 0.04628 0.99805 0.48527
 C2008 C 0.06529 1.00165 0.48129
 H2009 H 0.16800 1.05301 0.46276
 H2010 H 0.15999 1.04035 0.53018
 H2011 H 0.18810 1.05832 0.53960
 H2012 H 0.19615 1.07118 0.47207
 H2013 H 0.06821 1.04472 0.50547
 H2014 H 0.03545 1.03853 0.51286
 H2015 H 0.04061 0.98476 0.47985
 H2016 H 0.07384 0.99117 0.47298
 C2017 C 0.16774 -0.04471 0.98345
 C2018 C 0.16086 -0.04427 1.00467
 C2019 C 0.17103 -0.05312 1.02119
 C2020 C 0.18769 -0.06292 1.01636
 C2021 C 0.19424 -0.06411 0.99490
 C2022 C 0.18431 -0.05455 0.97858
 C2023 C 0.14247 -0.03641 1.00878
 C2024 C 0.12659 -0.03066 1.01106
 C2025 C 0.10757 -0.02492 1.01228
 C2026 C 0.09106 -0.02090 1.01199
 C2027 C 0.07121 -0.01721 1.00994
 C2028 C 0.06314 -0.00038 1.01749
 C2029 C 0.04409 0.00354 1.01353
 C2030 C 0.03289 -0.00930 1.00183
 C2031 C 0.04122 -0.02635 0.99483
 C2032 C 0.06013 -0.03024 0.99887
 H2033 H 0.15995 -0.03799 0.97051
 H2034 H 0.16574 -0.05301 1.03763
 H2035 H 0.19495 -0.07031 1.02920
 H2036 H 0.18915 -0.05507 0.96196
 H2037 H 0.07163 0.00989 1.02599
 H2038 H 0.03835 0.01686 1.01914
 H2039 H 0.03342 -0.03651 0.98541
 H2040 H 0.06626 -0.04325 0.99276
 C2041 C 0.66138 0.43103 0.50561
 C2042 C 0.66274 0.44851 0.51591
 C2043 C 0.68045 0.45588 0.52062
 C2044 C 0.69677 0.44588 0.51471
 C2045 C 0.69564 0.42838 0.50368
 C2046 C 0.67754 0.42108 0.49959
 C2047 C 0.64571 0.45890 0.52043
 C2048 C 0.63064 0.46653 0.52275
 C2049 C 0.61226 0.47412 0.52363
 C2050 C 0.59612 0.47939 0.52272
 C2051 C 0.57661 0.48415 0.51953
 C2052 C 0.56892 0.50119 0.52700
 C2053 C 0.55030 0.50605 0.52182
 C2054 C 0.53919 0.49396 0.50897
 C2055 C 0.54712 0.47670 0.50206
 C2056 C 0.56556 0.47186 0.50733
 H2057 H 0.64773 0.42510 0.50205
 H2058 H 0.68166 0.46951 0.52846
 H2059 H 0.71014 0.45246 0.51789
 H2060 H 0.67560 0.40735 0.49231
 H2061 H 0.57741 0.51089 0.53636
 H2062 H 0.54485 0.51950 0.52738
 H2063 H 0.53944 0.46710 0.49177
 H2064 H 0.57141 0.45871 0.50127
 C2065 C -0.16325 0.45259 0.52771
 C2066 C -0.15738 0.45417 0.50620
 C2067 C -0.16819 0.44627 0.48951
 C2068 C -0.18451 0.43634 0.49440
 C2069 C -0.19009 0.43408 0.51607
 C2070 C -0.17949 0.44264 0.53263
 C2071 C -0.13937 0.46232 0.50170
 C2072 C -0.12378 0.46834 0.49899
 C2073 C -0.10502 0.47440 0.49719
 C2074 C -0.08866 0.47867 0.49692
 C2075 C -0.06887 0.48258 0.49830
 C2076 C -0.06144 0.49933 0.49050
 C2077 C -0.04239 0.50343 0.49378
 C2078 C -0.03055 0.49083 0.50503
 C2079 C -0.03825 0.47386 0.51229
 C2080 C -0.05714 0.46979 0.50893
 H2081 H -0.15497 0.45858 0.54076
 H2082 H -0.16368 0.44725 0.47282
 H2083 H -0.19229 0.42974 0.48135
 H2084 H -0.18357 0.44131 0.54943
 H2085 H -0.07043 0.50941 0.48233
 H2086 H -0.03715 0.51669 0.48802
 H2087 H -0.02995 0.46388 0.52139
 H2088 H -0.06275 0.45684 0.51522
 C2089 C 0.32999 -0.05789 -0.01193
 C2090 C 0.34075 -0.05035 0.00500
 C2091 C 0.33443 -0.05168 0.02637
 C2092 C 0.31769 -0.06093 0.03089
 C2093 C 0.30703 -0.06901 0.01407
 C2094 C 0.31318 -0.06712 -0.00744
 C2095 C 0.35881 -0.04222 0.00084
 C2096 C 0.37428 -0.03582 -0.00165
 C2097 C 0.39268 -0.02876 -0.00331
 C2098 C 0.40857 -0.02306 -0.00355
 C2099 C 0.42766 -0.01661 -0.00230
 C2100 C 0.43321 -0.00570 0.01548
 C2101 C 0.45206 -0.00103 0.01827
 C2102 C 0.46582 -0.00746 0.00346
 C2103 C 0.45989 -0.01750 -0.01505
 C2104 C 0.44096 -0.02221 -0.01779
 H2105 H 0.33480 -0.05702 -0.02852
 H2106 H 0.34265 -0.04591 0.03961
 H2107 H 0.31319 -0.06199 0.04758
 H2108 H 0.30536 -0.07338 -0.02069
 H2109 H 0.42304 -0.00126 0.02758
 H2110 H 0.45587 0.00698 0.03258
 H2111 H 0.46981 -0.02197 -0.02728
 H2112 H 0.43679 -0.03055 -0.03174
 C2113 C 0.33185 1.04898 0.47935
 C2114 C 0.33740 1.04618 0.50084
 C2115 C 0.32641 1.05349 0.51778
 C2116 C 0.31023 1.06409 0.51320
 C2117 C 0.30502 1.06760 0.49161
 C2118 C 0.31577 1.05961 0.47475
 C2119 C 0.35521 1.03723 0.50513
 C2120 C 0.37062 1.03040 0.50754
 C2121 C 0.38908 1.02311 0.50887
 C2122 C 0.40508 1.01742 0.50866
 C2123 C 0.42429 1.01120 0.50670
 C2124 C 0.43792 1.01718 0.52154
 C2125 C 0.45691 1.01290 0.51794
 C2126 C 0.46254 1.00295 0.49920
 C2127 C 0.44852 0.99615 0.48505
 C2128 C 0.42961 1.00039 0.48869
 H2129 H 0.34029 1.04342 0.46612
 H2130 H 0.33067 1.05152 0.53447
 H2131 H 0.30229 1.07025 0.52648
 H2132 H 0.31194 1.06194 0.45799
 H2133 H 0.43393 1.02548 0.53563
 H2134 H 0.46710 1.01763 0.52970
 H2135 H 0.45212 0.98817 0.47060
 H2136 H 0.41918 0.99570 0.47707
 C2137 C -0.16874 0.55048 0.97809
 C2138 C -0.16259 0.54845 0.99949
 C2139 C -0.17319 0.55630 1.01647
 C2140 C -0.18953 0.56671 1.01197
 C2141 C -0.19532 0.56948 0.99043
 C2142 C -0.18499 0.56090 0.97358
 C2143 C -0.14463 0.53965 1.00358
 C2144 C -0.12917 0.53285 1.00585
 C2145 C -0.11070 0.52548 1.00714
 C2146 C -0.09475 0.51960 1.00700
 C2147 C -0.07560 0.51303 1.00525
 C2148 C -0.06204 0.51844 1.02049
 C2149 C -0.04311 0.51361 1.01728
 C2150 C -0.03742 0.50365 0.99857
 C2151 C -0.05140 0.49743 0.98400
 C2152 C -0.07026 0.50223 0.98724
 H2153 H -0.16065 0.54448 0.96483
 H2154 H -0.16850 0.55491 1.03309
 H2155 H -0.19715 0.57330 1.02523
 H2156 H -0.18925 0.56265 0.95686
 H2157 H -0.06604 0.52670 1.03460
 H2158 H -0.03300 0.51791 1.02935
 H2159 H -0.04778 0.48948 0.96954
 H2160 H -0.08061 0.49794 0.97532
 C2161 C 0.03845 0.67898 0.58735
 C2162 C 0.02159 0.66918 0.58494
 C2163 C 0.00543 0.67557 0.59573
 C2164 C 0.00612 0.69159 0.60898
 C2165 C 0.02303 0.70145 0.61168
 C2166 C 0.03917 0.69502 0.60061
 C2167 C 0.02109 0.65199 0.57242
 C2168 C 0.02068 0.63721 0.56270
 C2169 C 0.02025 0.61938 0.55246
 C2170 C 0.01998 0.60366 0.54498
 C2171 C 0.01983 0.58432 0.53789
 C2172 C 0.01183 0.57893 0.51805
 C2173 C 0.01070 0.55984 0.51235
 C2174 C 0.01757 0.54592 0.52646
 C2175 C 0.02577 0.55167 0.54624
 C2176 C 0.02696 0.57063 0.55179
 H2177 H 0.05107 0.67412 0.57915
 H2178 H -0.00765 0.66799 0.59416
 H2179 H -0.00649 0.69604 0.61749
 H2180 H 0.05233 0.70243 0.60212
 H2181 H 0.00612 0.58943 0.50721
 H2182 H 0.00402 0.55603 0.49721
 H2183 H 0.03117 0.54152 0.55767
 H2184 H 0.03312 0.57460 0.56722
 C2185 C 0.50738 0.17119 0.09710
 C2186 C 0.52364 0.16514 0.08624
 C2187 C 0.54018 0.17550 0.08820
 C2188 C 0.54051 0.19177 0.10110
 C2189 C 0.52428 0.19788 0.11224
 C2190 C 0.50767 0.18745 0.10999
 C2191 C 0.52352 0.14785 0.07390
 C2192 C 0.52336 0.13307 0.06419
 C2193 C 0.52308 0.11534 0.05371
 C2194 C 0.52274 0.09982 0.04572
 C2195 C 0.52216 0.08081 0.03756
 C2196 C 0.52951 0.06634 0.05024
 C2197 C 0.52751 0.04766 0.04370
 C2198 C 0.51823 0.04304 0.02418
 C2199 C 0.51131 0.05777 0.01123
 C2200 C 0.51326 0.07652 0.01790
 H2201 H 0.49453 0.16319 0.09583
 H2202 H 0.55286 0.17093 0.07991
 H2203 H 0.55344 0.19963 0.10227
 H2204 H 0.49502 0.19164 0.11856
 H2205 H 0.53636 0.06947 0.06553
 H2206 H 0.53300 0.03683 0.05423
 H2207 H 0.50384 0.05486 -0.00367
 H2208 H 0.50739 0.08763 0.00801
 C2209 C -0.00527 0.17087 0.90568
 C2210 C -0.02122 0.16577 0.91739
 C2211 C -0.03796 0.17608 0.91506
 C2212 C -0.03878 0.19134 0.90097
 C2213 C -0.02286 0.19646 0.88897
 C2214 C -0.00606 0.18611 0.89160
 C2215 C -0.02068 0.14930 0.93074
 C2216 C -0.02023 0.13503 0.94110
 C2217 C -0.01975 0.11769 0.95201
 C2218 C -0.01943 0.10228 0.95995
 C2219 C -0.01918 0.08318 0.96740
 C2220 C -0.02613 0.06917 0.95367
 C2221 C -0.02466 0.05036 0.95943
 C2222 C -0.01637 0.04508 0.97926
 C2223 C -0.00976 0.05933 0.99324
 C2224 C -0.01115 0.07828 0.98733
 H2225 H 0.00771 0.16287 0.90718
 H2226 H -0.05042 0.17221 0.92396
 H2227 H -0.05184 0.19918 0.89953
 H2228 H 0.00637 0.18954 0.88240
 H2229 H -0.03230 0.07276 0.93817
 H2230 H -0.02984 0.03994 0.94806
 H2231 H -0.00302 0.05587 1.00843
 H2232 H -0.00558 0.08902 0.99803
 C2233 C 0.46034 0.67719 0.41185
 C2234 C 0.47739 0.66760 0.41506
 C2235 C 0.49348 0.67320 0.40393
 C2236 C 0.49256 0.68828 0.38963
 C2237 C 0.47549 0.69799 0.38621
 C2238 C 0.45939 0.69230 0.39753
 C2239 C 0.47839 0.65157 0.42909
 C2240 C 0.47974 0.63779 0.44021
 C2241 C 0.48196 0.62117 0.45228
 C2242 C 0.48444 0.60651 0.46154
 C2243 C 0.48814 0.58843 0.47102
 C2244 C 0.50418 0.57839 0.46462
 C2245 C 0.50696 0.55992 0.47132
 C2246 C 0.49370 0.55103 0.48462
 C2247 C 0.47808 0.56165 0.49190
 C2248 C 0.47524 0.58017 0.48501
 H2249 H 0.44779 0.67295 0.42033
 H2250 H 0.50672 0.66579 0.40614
 H2251 H 0.50513 0.69212 0.38095
 H2252 H 0.44610 0.69963 0.39546
 H2253 H 0.51425 0.58460 0.45374
 H2254 H 0.51920 0.55247 0.46520
 H2255 H 0.46742 0.55546 0.50183
 H2256 H 0.46268 0.58778 0.48998
 C2257 C 0.53434 0.82049 0.41201
 C2258 C 0.51785 0.83108 0.41502
 C2259 C 0.50131 0.82580 0.40433
 C2260 C 0.50132 0.81017 0.39042
 C2261 C 0.51793 0.79966 0.38695
 C2262 C 0.53438 0.80487 0.39811
 C2263 C 0.51820 0.84803 0.42793
 C2264 C 0.51856 0.86263 0.43799
 C2265 C 0.51897 0.88023 0.44872
 C2266 C 0.51919 0.89571 0.45682
 C2267 C 0.51920 0.91472 0.46499
 C2268 C 0.51064 0.91937 0.48474
 C2269 C 0.50890 0.93822 0.49125
 C2270 C 0.51568 0.95266 0.47803
 C2271 C 0.52474 0.94766 0.45849
 C2272 C 0.52654 0.92889 0.45212
 H2273 H 0.54723 0.82447 0.42016
 H2274 H 0.48851 0.83399 0.40641
 H2275 H 0.48849 0.80662 0.38190
 H2276 H 0.54731 0.79689 0.39602
 H2277 H 0.50477 0.90850 0.49477
 H2278 H 0.50157 0.94142 0.50617
 H2279 H 0.53006 0.95828 0.44774
 H2280 H 0.53311 0.92547 0.43674
 C2281 C 0.00308 0.32536 0.90276
 C2282 C 0.01932 0.33074 0.91397
 C2283 C 0.03585 0.32008 0.91175
 C2284 C 0.03621 0.30419 0.89823
 C2285 C 0.02001 0.29878 0.88671
 C2286 C 0.00340 0.30948 0.88924
 C2287 C 0.01923 0.34771 0.92687
 C2288 C 0.01915 0.36229 0.93699
 C2289 C 0.01902 0.37984 0.94786
 C2290 C 0.01884 0.39529 0.95606
 C2291 C 0.01850 0.41429 0.96429
 C2292 C 0.00983 0.41882 0.98402
 C2293 C 0.00803 0.43764 0.99065
 C2294 C 0.01486 0.45217 0.97758
 C2295 C 0.02395 0.44728 0.95802
 C2296 C 0.02580 0.42855 0.95152
 H2297 H -0.00976 0.33360 0.90422
 H2298 H 0.04852 0.32414 0.92031
 H2299 H 0.04913 0.29609 0.89687
 H2300 H -0.00923 0.30580 0.88041
 H2301 H 0.00399 0.40788 0.99397
 H2302 H 0.00072 0.44078 1.00561
 H2303 H 0.02935 0.45794 0.94739
 H2304 H 0.03248 0.42522 0.93617
 C2305 C 0.49657 0.32635 0.09070
 C2306 C 0.48030 0.33151 0.07933
 C2307 C 0.46377 0.32131 0.08207
 C2308 C 0.46347 0.30610 0.09623
 C2309 C 0.47971 0.30092 0.10791
 C2310 C 0.49630 0.31116 0.10487
 C2311 C 0.48036 0.34790 0.06583
 C2312 C 0.48050 0.36207 0.05528
 C2313 C 0.48078 0.37925 0.04404
 C2314 C 0.48113 0.39447 0.03566
 C2315 C 0.48170 0.41333 0.02746
 C2316 C 0.47481 0.42802 0.04044
 C2317 C 0.47707 0.44660 0.03416
 C2318 C 0.48614 0.45093 0.01458
 C2319 C 0.49245 0.43600 0.00121
 C2320 C 0.49028 0.41731 0.00766
 H2321 H 0.50940 0.33426 0.08887
 H2322 H 0.45107 0.32521 0.07341
 H2323 H 0.45055 0.29834 0.09799
 H2324 H 0.50896 0.30768 0.11381
 H2325 H 0.46821 0.42514 0.05584
 H2326 H 0.47203 0.45757 0.04501
 H2327 H 0.49966 0.43871 -0.01382
 H2328 H 0.49578 0.40603 -0.00248
 C2329 C -0.00161 0.83092 0.59292
 C2330 C -0.01760 0.83649 0.58129
 C2331 C -0.03430 0.82644 0.58336
 C2332 C -0.03507 0.81099 0.59714
 C2333 C -0.01912 0.80540 0.60909
 C2334 C -0.00234 0.81548 0.60670
 C2335 C -0.01714 0.85316 0.56826
 C2336 C -0.01678 0.86756 0.55815
 C2337 C -0.01643 0.88501 0.54747
 C2338 C -0.01621 0.90046 0.53965
 C2339 C -0.01606 0.91958 0.53221
 C2340 C -0.00844 0.92429 0.51210
 C2341 C -0.00720 0.94320 0.50610
 C2342 C -0.01356 0.95760 0.52018
 C2343 C -0.02143 0.95253 0.54021
 C2344 C -0.02274 0.93375 0.54606
 H2345 H 0.01134 0.83871 0.59161
 H2346 H -0.04679 0.83067 0.57451
 H2347 H -0.04811 0.80337 0.59840
 H2348 H 0.01011 0.81168 0.61586
 H2349 H -0.00309 0.91341 0.50130
 H2350 H -0.00081 0.94649 0.49075
 H2351 H -0.02642 0.96307 0.55163
 H2352 H -0.02859 0.93030 0.56170
 C2353 C 0.22527 0.35927 0.08511
 C2354 C 0.23733 0.35334 0.10162
 C2355 C 0.25605 0.35905 0.10171
 C2356 C 0.26279 0.37058 0.08538
 C2357 C 0.25093 0.37673 0.06839
 C2358 C 0.23196 0.37081 0.06865
 C2359 C 0.23082 0.34141 0.11867
 C2360 C 0.22665 0.33153 0.13362
 C2361 C 0.22352 0.32028 0.15192
 C2362 C 0.22259 0.31114 0.16820
 C2363 C 0.22384 0.30109 0.18826
 C2364 C 0.23464 0.30883 0.20493
 C2365 C 0.23899 0.29832 0.22316
 C2366 C 0.23231 0.27986 0.22541
 C2367 C 0.22074 0.27243 0.20892
 C2368 C 0.21659 0.28298 0.19040
 H2369 H 0.21067 0.35506 0.08500
 H2370 H 0.26556 0.35442 0.11436
 H2371 H 0.27760 0.37385 0.08579
 H2372 H 0.22191 0.37555 0.05668
 H2373 H 0.24056 0.32272 0.20335
 H2374 H 0.24832 0.30450 0.23506
 H2375 H 0.21570 0.25816 0.20972
 H2376 H 0.20843 0.27673 0.17742
 C2377 C 0.75601 0.85396 0.59673
 C2378 C 0.73660 0.85223 0.59973
 C2379 C 0.72411 0.86227 0.58653
 C2380 C 0.73104 0.87406 0.57044
 C2381 C 0.75055 0.87599 0.56746
 C2382 C 0.76294 0.86574 0.58073
 C2383 C 0.72986 0.84062 0.61695
 C2384 C 0.72546 0.83101 0.63205
 C2385 C 0.72203 0.82007 0.65053
 C2386 C 0.72085 0.81118 0.66696
 C2387 C 0.72184 0.80135 0.68719
 C2388 C 0.71491 0.78311 0.68933
 C2389 C 0.71911 0.77269 0.70793
 C2390 C 0.73045 0.78037 0.72449
 C2391 C 0.73667 0.79900 0.72232
 C2392 C 0.73225 0.80939 0.70401
 H2393 H 0.76581 0.84628 0.60686
 H2394 H 0.70907 0.86113 0.58881
 H2395 H 0.72116 0.88192 0.56060
 H2396 H 0.77801 0.86671 0.57862
 H2397 H 0.70705 0.77664 0.67624
 H2398 H 0.71440 0.75831 0.70869
 H2399 H 0.74582 0.80539 0.73425
 H2400 H 0.73792 0.82339 0.70243
 C2401 C 0.27415 0.65377 0.58066
 C2402 C 0.27470 0.64659 0.60165
 C2403 C 0.26838 0.62835 0.60546
 C2404 C 0.26116 0.61748 0.58845
 C2405 C 0.26013 0.62474 0.56738
 C2406 C 0.26696 0.64292 0.56361
 C2407 C 0.27996 0.65848 0.61963
 C2408 C 0.28309 0.66838 0.63515
 C2409 C 0.28502 0.67967 0.65392
 C2410 C 0.28487 0.68879 0.67048
 C2411 C 0.28225 0.69868 0.69070
 C2412 C 0.26975 0.69117 0.70558
 C2413 C 0.26454 0.70142 0.72391
 C2414 C 0.27203 0.71936 0.72814
 C2415 C 0.28510 0.72663 0.71337
 C2416 C 0.29015 0.71634 0.69471
 H2417 H 0.27877 0.66795 0.57757
 H2418 H 0.26860 0.62270 0.62169
 H2419 H 0.25621 0.60347 0.59180
 H2420 H 0.26612 0.64900 0.54764
 H2421 H 0.26333 0.67765 0.70252
 H2422 H 0.25404 0.69541 0.73435
 H2423 H 0.29075 0.74056 0.71565
 H2424 H 0.29963 0.72244 0.68308
 C2425 C 0.74706 0.14215 0.09918
 C2426 C 0.76549 0.14869 0.09864
 C2427 C 0.77716 0.14371 0.08130
 C2428 C 0.77040 0.13218 0.06454
 C2429 C 0.75177 0.12531 0.06483
 C2430 C 0.74025 0.13064 0.08256
 C2431 C 0.77207 0.16047 0.11610
 C2432 C 0.77628 0.17018 0.13144
 C2433 C 0.77947 0.18123 0.15018
 C2434 C 0.78049 0.19026 0.16675
 C2435 C 0.77944 0.20037 0.18702
 C2436 C 0.78730 0.21822 0.18961
 C2437 C 0.78343 0.22895 0.20829
 C2438 C 0.77156 0.22197 0.22452
 C2439 C 0.76430 0.20373 0.22188
 C2440 C 0.76834 0.19303 0.20345
 H2441 H 0.73782 0.14608 0.11244
 H2442 H 0.79152 0.14860 0.08079
 H2443 H 0.78019 0.12816 0.05191
 H2444 H 0.72564 0.12668 0.08342
 H2445 H 0.79571 0.22416 0.17684
 H2446 H 0.78895 0.24303 0.20941
 H2447 H 0.75477 0.19789 0.23360
 H2448 H 0.76199 0.17934 0.20153
 C2449 C 0.74945 0.15105 0.90576
 C2450 C 0.72999 0.15262 0.90282
 C2451 C 0.71787 0.14263 0.91622
 C2452 C 0.72525 0.13095 0.93235
 C2453 C 0.74484 0.12906 0.93512
 C2454 C 0.75684 0.13938 0.92177
 C2455 C 0.72285 0.16374 0.88520
 C2456 C 0.71825 0.17279 0.86962
 C2457 C 0.71476 0.18290 0.85045
 C2458 C 0.71367 0.19091 0.83338
 C2459 C 0.71498 0.19945 0.81241
 C2460 C 0.72613 0.19045 0.79682
 C2461 C 0.73087 0.19964 0.77787
 C2462 C 0.72421 0.21799 0.77374
 C2463 C 0.71216 0.22662 0.78907
 C2464 C 0.70765 0.21742 0.80836
 H2465 H 0.75897 0.15868 0.89546
 H2466 H 0.70278 0.14363 0.91399
 H2467 H 0.71568 0.12306 0.94228
 H2468 H 0.77195 0.13844 0.92373
 H2469 H 0.73213 0.17666 0.79989
 H2470 H 0.74066 0.19260 0.76705
 H2471 H 0.70712 0.24086 0.78683
 H2472 H 0.69922 0.22466 0.82048
 C2473 C 0.23783 0.62761 0.39597
 C2474 C 0.22935 0.64510 0.40020
 C2475 C 0.22878 0.65216 0.42142
 C2476 C 0.23702 0.64197 0.43827
 C2477 C 0.24604 0.62461 0.43407
 C2478 C 0.24611 0.61741 0.41278
 C2479 C 0.22294 0.65647 0.38243
 C2480 C 0.21885 0.66590 0.36699
 C2481 C 0.21580 0.67663 0.34819
 C2482 C 0.21498 0.68528 0.33152
 C2483 C 0.21644 0.69466 0.31107
 C2484 C 0.22793 0.68647 0.29525
 C2485 C 0.23238 0.69633 0.27666
 C2486 C 0.22508 0.71454 0.27315
 C2487 C 0.21287 0.72243 0.28881
 C2488 C 0.20862 0.71255 0.30771
 H2489 H 0.23846 0.62206 0.37958
 H2490 H 0.22246 0.66579 0.42485
 H2491 H 0.23695 0.64799 0.45445
 H2492 H 0.25275 0.60400 0.40909
 H2493 H 0.23430 0.67276 0.29778
 H2494 H 0.24225 0.68983 0.26550
 H2495 H 0.20736 0.73656 0.28705
 H2496 H 0.19991 0.71915 0.32005
 C2497 C 0.76477 0.87776 0.39748
 C2498 C 0.77077 0.85919 0.40064
 C2499 C 0.77062 0.85162 0.42146
 C2500 C 0.76406 0.86242 0.43898
 C2501 C 0.75746 0.88091 0.43584
 C2502 C 0.75818 0.88856 0.41496
 C2503 C 0.77526 0.84748 0.38219
 C2504 C 0.77780 0.83778 0.36632
 C2505 C 0.77915 0.82673 0.34728
 C2506 C 0.77875 0.81771 0.33066
 C2507 C 0.77620 0.80765 0.31056
 C2508 C 0.78408 0.78975 0.30714
 C2509 C 0.77927 0.77928 0.28862
 C2510 C 0.76646 0.78659 0.27334
 C2511 C 0.75903 0.80481 0.27688
 C2512 C 0.76398 0.81523 0.29517
 H2513 H 0.76472 0.88373 0.38141
 H2514 H 0.77503 0.83720 0.42405
 H2515 H 0.76348 0.85607 0.45482
 H2516 H 0.75341 0.90282 0.41209
 H2517 H 0.79339 0.78363 0.31913
 H2518 H 0.78495 0.76520 0.28681
 H2519 H 0.74888 0.81091 0.26585
 H2520 H 0.75762 0.82898 0.29775
 C2521 C 0.26518 0.37211 0.89861
 C2522 C 0.27204 0.35398 0.90274
 C2523 C 0.27210 0.34721 0.92394
 C2524 C 0.26499 0.35838 0.94086
 C2525 C 0.25762 0.37645 0.93677
 C2526 C 0.25804 0.38328 0.91549
 C2527 C 0.27729 0.34183 0.88493
 C2528 C 0.28044 0.33179 0.86948
 C2529 C 0.28239 0.32043 0.85074
 C2530 C 0.28227 0.31130 0.83418
 C2531 C 0.27968 0.30145 0.81394
 C2532 C 0.28822 0.28397 0.80964
 C2533 C 0.28334 0.27376 0.79091
 C2534 C 0.26981 0.28091 0.77636
 C2535 C 0.26169 0.29868 0.78086
 C2536 C 0.26672 0.30886 0.79927
 H2537 H 0.26495 0.37744 0.88224
 H2538 H 0.27715 0.33313 0.92730
 H2539 H 0.26464 0.35264 0.95702
 H2540 H 0.25268 0.39720 0.91188
 H2541 H 0.29810 0.27797 0.82108
 H2542 H 0.28954 0.25997 0.78837
 H2543 H 0.25089 0.30462 0.77055
 H2544 H 0.25984 0.32225 0.80253
 C2545 C 0.80593 0.41868 0.76627
 C2546 C 0.79968 0.40733 0.74911
 C2547 C 0.80324 0.41255 0.72773
 C2548 C 0.81345 0.42875 0.72349
 C2549 C 0.82027 0.43996 0.74060
 C2550 C 0.81612 0.43496 0.76205
 C2551 C 0.79067 0.38971 0.75314
 C2552 C 0.78362 0.37454 0.75546
 C2553 C 0.77589 0.35642 0.75683
 C2554 C 0.76968 0.34073 0.75673
 C2555 C 0.76270 0.32187 0.75496
 C2556 C 0.75207 0.31679 0.73682
 C2557 C 0.74699 0.29811 0.73348
 C2558 C 0.75274 0.28405 0.74809
 C2559 C 0.76249 0.28953 0.76694
 C2560 C 0.76762 0.30828 0.77024
 H2561 H 0.80333 0.41471 0.78288
 H2562 H 0.79848 0.40387 0.71433
 H2563 H 0.81625 0.43238 0.70682
 H2564 H 0.82137 0.44324 0.77554
 H2565 H 0.74817 0.32718 0.72487
 H2566 H 0.73923 0.29466 0.71890
 H2567 H 0.76644 0.27937 0.77901
 H2568 H 0.77575 0.31210 0.78445
 C2569 C 0.30245 0.91763 0.26455
 C2570 C 0.29830 0.90471 0.24807
 C2571 C 0.30353 0.90846 0.22680
 C2572 C 0.31332 0.92476 0.22199
 C2573 C 0.31825 0.93780 0.23845
 C2574 C 0.31222 0.93408 0.25982
 C2575 C 0.28937 0.88716 0.25272
 C2576 C 0.28234 0.87201 0.25532
 C2577 C 0.27462 0.85389 0.25681
 C2578 C 0.26841 0.83820 0.25671
 C2579 C 0.26145 0.81934 0.25488
 C2580 C 0.25024 0.81446 0.23713
 C2581 C 0.24522 0.79579 0.23360
 C2582 C 0.25162 0.78154 0.24759
 C2583 C 0.26193 0.78679 0.26613
 C2584 C 0.26699 0.80554 0.26963
 H2585 H 0.29853 0.91480 0.28114
 H2586 H 0.30017 0.89865 0.21384
 H2587 H 0.31655 0.92721 0.20516
 H2588 H 0.31589 0.94319 0.27326
 H2589 H 0.24586 0.82502 0.22559
 H2590 H 0.23700 0.79251 0.21931
 H2591 H 0.26636 0.77647 0.27780
 H2592 H 0.27557 0.80918 0.28354
 C2593 C 0.19815 0.91892 0.77326
 C2594 C 0.20118 0.91258 0.75201
 C2595 C 0.19418 0.92305 0.73462
 C2596 C 0.18366 0.93947 0.73852
 C2597 C 0.17989 0.94547 0.75987
 C2598 C 0.18760 0.93525 0.77717
 C2599 C 0.21012 0.89457 0.74844
 C2600 C 0.21699 0.87908 0.74652
 C2601 C 0.22439 0.86061 0.74556
 C2602 C 0.23023 0.84465 0.74589
 C2603 C 0.23667 0.82548 0.74774
 C2604 C 0.23149 0.81189 0.73237
 C2605 C 0.23610 0.79296 0.73563
 C2606 C 0.24562 0.78730 0.75452
 C2607 C 0.25166 0.80131 0.76922
 C2608 C 0.24707 0.82017 0.76593
 H2609 H 0.20347 0.91093 0.78684
 H2610 H 0.19635 0.91821 0.71811
 H2611 H 0.17774 0.94699 0.72491
 H2612 H 0.18509 0.93967 0.79376
 H2613 H 0.22354 0.81586 0.71811
 H2614 H 0.23198 0.78282 0.72346
 H2615 H 0.25929 0.79770 0.78380
 H2616 H 0.25118 0.83056 0.77795
 C2617 C 0.69644 0.42664 0.22951
 C2618 C 0.70564 0.41651 0.24578
 C2619 C 0.70450 0.42268 0.26734
 C2620 C 0.69375 0.43856 0.27273
 C2621 C 0.68395 0.44848 0.25662
 C2622 C 0.68572 0.44261 0.23487
 C2623 C 0.71456 0.39874 0.24099
 C2624 C 0.72114 0.38324 0.23824
 C2625 C 0.72768 0.36451 0.23668
 C2626 C 0.73214 0.34814 0.23690
 C2627 C 0.73597 0.32839 0.23919
 C2628 C 0.72330 0.31770 0.25094
 C2629 C 0.72722 0.29891 0.25518
 C2630 C 0.74391 0.29027 0.24765
 C2631 C 0.75642 0.30107 0.23533
 C2632 C 0.75249 0.32004 0.23118
 H2633 H 0.69706 0.42187 0.21281
 H2634 H 0.71146 0.41488 0.28008
 H2635 H 0.69283 0.44291 0.28956
 H2636 H 0.67819 0.44991 0.22217
 H2637 H 0.71056 0.32405 0.25740
 H2638 H 0.71733 0.29144 0.26507
 H2639 H 0.76946 0.29506 0.22933
 H2640 H 0.76247 0.32826 0.22216
 C2641 C 0.67649 0.59640 0.25013
 C2642 C 0.69553 0.59551 0.25582
 C2643 C 0.70483 0.57808 0.25652
 C2644 C 0.69515 0.56163 0.25114
 C2645 C 0.67613 0.56251 0.24483
 C2646 C 0.66685 0.58004 0.24468
 C2647 C 0.70552 0.61274 0.25936
 C2648 C 0.71292 0.62783 0.26110
 C2649 C 0.72031 0.64613 0.26160
 C2650 C 0.72539 0.66219 0.26059
 C2651 C 0.72981 0.68166 0.25754
 C2652 C 0.74633 0.68955 0.26576
 C2653 C 0.75056 0.70834 0.26141
 C2654 C 0.73832 0.71942 0.24871
 C2655 C 0.72167 0.71121 0.24086
 C2656 C 0.71748 0.69260 0.24525
 H2657 H 0.66917 0.60981 0.24948
 H2658 H 0.71960 0.57726 0.26075
 H2659 H 0.70265 0.54832 0.25126
 H2660 H 0.65214 0.58110 0.24022
 H2661 H 0.75603 0.68115 0.27524
 H2662 H 0.76355 0.71402 0.26772
 H2663 H 0.71192 0.71893 0.23079
 H2664 H 0.70469 0.68661 0.23868
 C2665 C 0.20030 0.08179 0.72823
 C2666 C 0.20285 0.08793 0.74962
 C2667 C 0.19539 0.07755 0.76666
 C2668 C 0.18482 0.06145 0.76225
 C2669 C 0.18148 0.05571 0.74073
 C2670 C 0.18970 0.06579 0.72379
 C2671 C 0.21166 0.10576 0.75365
 C2672 C 0.21837 0.12115 0.75593
 C2673 C 0.22552 0.13956 0.75727
 C2674 C 0.23111 0.15549 0.75723
 C2675 C 0.23719 0.17466 0.75568
 C2676 C 0.23177 0.18811 0.77121
 C2677 C 0.23594 0.20708 0.76818
 C2678 C 0.24524 0.21292 0.74935
 C2679 C 0.25155 0.19906 0.73450
 C2680 C 0.24741 0.18016 0.73756
 H2681 H 0.20597 0.08972 0.71490
 H2682 H 0.19718 0.08225 0.78328
 H2683 H 0.17849 0.05405 0.77558
 H2684 H 0.18748 0.06157 0.70708
 H2685 H 0.22397 0.18399 0.78541
 H2686 H 0.23163 0.21711 0.78046
 H2687 H 0.25902 0.20282 0.71995
 H2688 H 0.25170 0.16989 0.72542
 C2689 C 0.30533 0.07386 0.23025
 C2690 C 0.29634 0.08441 0.24653
 C2691 C 0.29629 0.07786 0.26782
 C2692 C 0.30572 0.06119 0.27299
 C2693 C 0.31537 0.05083 0.25692
 C2694 C 0.31474 0.05710 0.23539
 C2695 C 0.28872 0.10279 0.24207
 C2696 C 0.28309 0.11864 0.23951
 C2697 C 0.27742 0.13765 0.23800
 C2698 C 0.27341 0.15414 0.23809
 C2699 C 0.26970 0.17401 0.23996
 C2700 C 0.28253 0.18518 0.25122
 C2701 C 0.27855 0.20409 0.25520
 C2702 C 0.26161 0.21236 0.24793
 C2703 C 0.24900 0.20108 0.23601
 C2704 C 0.25300 0.18202 0.23211
 H2705 H 0.30560 0.07888 0.21375
 H2706 H 0.28945 0.08594 0.28057
 H2707 H 0.30581 0.05658 0.28966
 H2708 H 0.32220 0.04950 0.22273
 H2709 H 0.29542 0.17910 0.25756
 H2710 H 0.28853 0.21195 0.26479
 H2711 H 0.23577 0.20678 0.23021
 H2712 H 0.24289 0.17347 0.22347
 C2713 C 0.80710 0.57540 0.72873
 C2714 C 0.79746 0.58583 0.74463
 C2715 C 0.79701 0.57937 0.76595
 C2716 C 0.80673 0.56299 0.77157
 C2717 C 0.81709 0.55282 0.75593
 C2718 C 0.81679 0.55891 0.73432
 C2719 C 0.78967 0.60407 0.73985
 C2720 C 0.78389 0.61986 0.73712
 C2721 C 0.77804 0.63881 0.73550
 C2722 C 0.77386 0.65527 0.73553
 C2723 C 0.76993 0.67511 0.73739
 C2724 C 0.78285 0.68650 0.74820
 C2725 C 0.77864 0.70534 0.75234
 C2726 C 0.76137 0.71331 0.74570
 C2727 C 0.74867 0.70183 0.73417
 C2728 C 0.75291 0.68284 0.73012
 H2729 H 0.80768 0.58034 0.71221
 H2730 H 0.78967 0.58736 0.77841
 H2731 H 0.80655 0.55849 0.78828
 H2732 H 0.82477 0.55142 0.72200
 H2733 H 0.79600 0.68064 0.75412
 H2734 H 0.78869 0.71334 0.76167
 H2735 H 0.73519 0.70728 0.72886
 H2736 H 0.74272 0.67410 0.72184
 C2737 C 0.92164 0.78797 0.16097
 C2738 C 0.91402 0.77087 0.16723
 C2739 C 0.92194 0.75406 0.15954
 C2740 C 0.93731 0.75431 0.14547
 C2741 C 0.94511 0.77148 0.13861
 C2742 C 0.93699 0.78833 0.14688
 C2743 C 0.89734 0.77062 0.18042
 C2744 C 0.88291 0.77049 0.19063
 C2745 C 0.86541 0.77044 0.20137
 C2746 C 0.84989 0.77051 0.20920
 C2747 C 0.83071 0.77072 0.21660
 C2748 C 0.82553 0.76222 0.23603
 C2749 C 0.80650 0.76115 0.24176
 C2750 C 0.79244 0.76856 0.22809
 C2751 C 0.79799 0.77732 0.20878
 C2752 C 0.81689 0.77848 0.20321
 H2753 H 0.91564 0.80111 0.16688
 H2754 H 0.91596 0.74071 0.16403
 H2755 H 0.94231 0.74092 0.13924
 H2756 H 0.94270 0.80193 0.14313
 H2757 H 0.83613 0.75600 0.24643
 H2758 H 0.80285 0.75395 0.25647
 H2759 H 0.78772 0.78303 0.19762
 H2760 H 0.82070 0.78498 0.18807
 C2761 C 0.42427 0.28852 0.66024
 C2762 C 0.41368 0.27212 0.66176
 C2763 C 0.41890 0.25616 0.64968
 C2764 C 0.43456 0.25661 0.63604
 C2765 C 0.44520 0.27308 0.63425
 C2766 C 0.43992 0.28901 0.64660
 C2767 C 0.39700 0.27189 0.67495
 C2768 C 0.38268 0.27169 0.68537
 C2769 C 0.36543 0.27140 0.69665
 C2770 C 0.35023 0.27107 0.70525
 C2771 C 0.33148 0.27054 0.71398
 C2772 C 0.31660 0.27773 0.70170
 C2773 C 0.29811 0.27560 0.70860
 C2774 C 0.29409 0.26635 0.72811
 C2775 C 0.30922 0.25968 0.74073
 C2776 C 0.32780 0.26174 0.73368
 H2777 H 0.42034 0.30097 0.66948
 H2778 H 0.41073 0.24343 0.65059
 H2779 H 0.43812 0.24420 0.62656
 H2780 H 0.44798 0.30181 0.64583
 H2781 H 0.31926 0.28450 0.68638
 H2782 H 0.28696 0.28088 0.69829
 H2783 H 0.30676 0.25226 0.75564
 H2784 H 0.33922 0.25600 0.74326
 C2785 C 0.42824 0.71057 0.83983
 C2786 C 0.41778 0.72727 0.83832
 C2787 C 0.42369 0.74333 0.84958
 C2788 C 0.43990 0.74269 0.86243
 C2789 C 0.45041 0.72592 0.86424
 C2790 C 0.44445 0.70989 0.85268
 C2791 C 0.40056 0.72772 0.82602
 C2792 C 0.38582 0.72812 0.81632
 C2793 C 0.36815 0.72865 0.80585
 C2794 C 0.35267 0.72920 0.79786
 C2795 C 0.33370 0.73001 0.78970
 C2796 C 0.32956 0.73845 0.76984
 C2797 C 0.31084 0.74062 0.76313
 C2798 C 0.29601 0.73440 0.77624
 C2799 C 0.30047 0.72558 0.79596
 C2800 C 0.31912 0.72335 0.80254
 H2801 H 0.42379 0.69803 0.83123
 H2802 H 0.41562 0.75630 0.84866
 H2803 H 0.44398 0.75520 0.87131
 H2804 H 0.45238 0.69684 0.85351
 H2805 H 0.34075 0.74378 0.75982
 H2806 H 0.30804 0.74771 0.74805
 H2807 H 0.28956 0.72062 0.80660
 H2808 H 0.32214 0.71686 0.81798
 C2809 C 0.92735 0.21647 0.33513
 C2810 C 0.92040 0.23390 0.32843
 C2811 C 0.92901 0.25034 0.33573
 C2812 C 0.94435 0.24942 0.34991
 C2813 C 0.95140 0.23193 0.35729
 C2814 C 0.94265 0.21545 0.34933
 C2815 C 0.90366 0.23489 0.31530
 C2816 C 0.88913 0.23560 0.30520
 C2817 C 0.87150 0.23628 0.29467
 C2818 C 0.85586 0.23674 0.28709
 C2819 C 0.83653 0.23714 0.28009
 C2820 C 0.83116 0.24495 0.26024
 C2821 C 0.81205 0.24652 0.25478
 C2822 C 0.79811 0.24032 0.26914
 C2823 C 0.80385 0.23223 0.28887
 C2824 C 0.82282 0.23058 0.29418
 H2825 H 0.92082 0.20362 0.32953
 H2826 H 0.92357 0.26395 0.33089
 H2827 H 0.94990 0.26260 0.35585
 H2828 H 0.94782 0.20160 0.35347
 H2829 H 0.84168 0.25021 0.24926
 H2830 H 0.80824 0.25309 0.23966
 H2831 H 0.79368 0.22739 0.30051
 H2832 H 0.82678 0.22459 0.30962
 C2833 C 0.07830 0.25243 0.34017
 C2834 C 0.08454 0.26846 0.32953
 C2835 C 0.07527 0.28569 0.33292
 C2836 C 0.05994 0.28691 0.34704
 C2837 C 0.05370 0.27091 0.35802
 C2838 C 0.06298 0.25361 0.35428
 C2839 C 0.10122 0.26746 0.31635
 C2840 C 0.11568 0.26664 0.30620
 C2841 C 0.13326 0.26575 0.29564
 C2842 C 0.14888 0.26510 0.28807
 C2843 C 0.16820 0.26452 0.28117
 C2844 C 0.17352 0.25691 0.26104
 C2845 C 0.19262 0.25536 0.25557
 C2846 C 0.20660 0.26137 0.27022
 C2847 C 0.20091 0.26919 0.29027
 C2848 C 0.18196 0.27082 0.29558
 H2849 H 0.08549 0.23906 0.33786
 H2850 H 0.08004 0.29822 0.32486
 H2851 H 0.05294 0.30037 0.34933
 H2852 H 0.05868 0.24109 0.36269
 H2853 H 0.16296 0.25186 0.24980
 H2854 H 0.19640 0.24904 0.24017
 H2855 H 0.21109 0.27395 0.30210
 H2856 H 0.17804 0.27666 0.31123
 C2857 C 0.57448 0.78262 0.83456
 C2858 C 0.58461 0.76580 0.83186
 C2859 C 0.57927 0.74984 0.84330
 C2860 C 0.56397 0.75071 0.85748
 C2861 C 0.55380 0.76761 0.86047
 C2862 C 0.55917 0.78353 0.84874
 C2863 C 0.60115 0.76515 0.81842
 C2864 C 0.61547 0.76462 0.80799
 C2865 C 0.63289 0.76407 0.79703
 C2866 C 0.64837 0.76371 0.78909
 C2867 C 0.66758 0.76349 0.78172
 C2868 C 0.68150 0.76981 0.79592
 C2869 C 0.70037 0.76856 0.79012
 C2870 C 0.70581 0.76111 0.76980
 C2871 C 0.69167 0.75510 0.75537
 C2872 C 0.67265 0.75627 0.76132
 H2873 H 0.57853 0.79509 0.82588
 H2874 H 0.58712 0.73679 0.84153
 H2875 H 0.56036 0.73828 0.86645
 H2876 H 0.55147 0.79667 0.85045
 H2877 H 0.67778 0.77538 0.81176
 H2878 H 0.71068 0.77334 0.80180
 H2879 H 0.69527 0.74909 0.73975
 H2880 H 0.66197 0.75123 0.75023
 C2881 C 0.57537 0.24578 0.64797
 C2882 C 0.58084 0.22970 0.65934
 C2883 C 0.57028 0.21328 0.65733
 C2884 C 0.55439 0.21291 0.64394
 C2885 C 0.54886 0.22897 0.63232
 C2886 C 0.55949 0.24544 0.63458
 C2887 C 0.59772 0.22982 0.67229
 C2888 C 0.61218 0.22992 0.68254
 C2889 C 0.62957 0.23002 0.69364
 C2890 C 0.64488 0.23013 0.70209
 C2891 C 0.66374 0.23030 0.71066
 C2892 C 0.67840 0.22323 0.69787
 C2893 C 0.69697 0.22474 0.70485
 C2894 C 0.70131 0.23328 0.72494
 C2895 C 0.68639 0.23987 0.73803
 C2896 C 0.66772 0.23842 0.73090
 H2897 H 0.58352 0.25852 0.64926
 H2898 H 0.57439 0.20073 0.66601
 H2899 H 0.54635 0.20009 0.64280
 H2900 H 0.55573 0.25796 0.62567
 H2901 H 0.67551 0.21694 0.68216
 H2902 H 0.70794 0.21944 0.69424
 H2903 H 0.68911 0.24666 0.75346
 H2904 H 0.65647 0.24403 0.74092
 C2905 C 0.06788 0.71102 0.16207
 C2906 C 0.07825 0.72750 0.16464
 C2907 C 0.07272 0.74377 0.15369
 C2908 C 0.05700 0.74354 0.14006
 C2909 C 0.04662 0.72698 0.13713
 C2910 C 0.05215 0.71075 0.14844
 C2911 C 0.09518 0.72744 0.17748
 C2912 C 0.10976 0.72737 0.18747
 C2913 C 0.12736 0.72731 0.19808
 C2914 C 0.14288 0.72729 0.20598
 C2915 C 0.16199 0.72736 0.21373
 C2916 C 0.16667 0.73554 0.23372
 C2917 C 0.18556 0.73704 0.23994
 C2918 C 0.20000 0.73042 0.22618
 C2919 C 0.19498 0.72183 0.20634
 C2920 C 0.17618 0.72026 0.20027
 H2921 H 0.07207 0.69832 0.17041
 H2922 H 0.08075 0.75656 0.15541
 H2923 H 0.05323 0.75619 0.13140
 H2924 H 0.04430 0.69786 0.14676
 H2925 H 0.15577 0.74119 0.24423
 H2926 H 0.18881 0.74392 0.25517
 H2927 H 0.20557 0.71657 0.19521
 H2928 H 0.17274 0.71395 0.18473
   
