data_POSCAR
  _audit_creation_date              2014-09-24
  _audit_creation_method            'ToBaCCo'
  _symmetry_space_group_name_H-M    'P1'
  _symmetry_Int_Tables_number       1
  _symmetry_cell_setting            triclinic
  loop_
  _symmetry_equiv_pos_as_xyz
 x,y,z
_cell_length_a 85.3942
_cell_length_b 85.4639
_cell_length_c 85.7061
_cell_angle_alpha 89.969800
_cell_angle_beta 89.975300
_cell_angle_gamma 89.935100
loop_
  _atom_site_label
  _atom_site_type_symbol
  _atom_site_fract_x
  _atom_site_fract_y
  _atom_site_fract_z
N1 N 0.35691 0.31350 0.32478
 N2 N 0.35677 0.32450 0.31405
 C3 C 0.36930 0.32263 0.30466
 C4 C 0.37773 0.30985 0.30990
 C5 C 0.36951 0.30429 0.32262
 H6 H 0.37227 0.33012 0.29493
 H7 H 0.37266 0.29447 0.32995
 Cu8 Cu 0.34065 0.34060 0.31404
 Cu9 Cu 0.34133 0.31251 0.34136
 Cu10 Cu 0.31252 0.34127 0.34134
 N11 N 0.32452 0.35668 0.31402
 N12 N 0.31351 0.35682 0.32474
 C13 C 0.30427 0.36940 0.32255
 C14 C 0.30983 0.37759 0.30980
 C15 C 0.32263 0.36918 0.30460
 H16 H 0.29444 0.37255 0.32986
 H17 H 0.33013 0.37213 0.29486
 N18 N 0.31360 0.32452 0.35713
 N19 N 0.32454 0.31358 0.35714
 C20 C 0.32258 0.30439 0.36976
 C21 C 0.30987 0.30986 0.37809
 C22 C 0.30439 0.32255 0.36975
 H23 H 0.33000 0.29463 0.37289
 H24 H 0.29461 0.32996 0.37287
 H25 H 0.32350 0.32345 0.32917
 H26 H 0.33606 0.33601 0.34176
 N27 N 0.35718 0.81375 -0.17561
 N28 N 0.35706 0.82471 -0.18640
 C29 C 0.36961 0.82279 -0.19575
 C30 C 0.37810 0.81007 -0.19040
 C31 C 0.36981 0.80454 -0.17768
 H32 H 0.37257 0.83025 -0.20550
 H33 H 0.37295 0.79480 -0.17025
 Cu34 Cu 0.34116 0.84105 -0.18636
 Cu35 Cu 0.34163 0.81287 -0.15902
 Cu36 Cu 0.31287 0.84150 -0.15903
 N37 N 0.32474 0.85689 -0.18642
 N38 N 0.31377 0.85700 -0.17565
 C39 C 0.30448 0.86955 -0.17778
 C40 C 0.30998 0.87779 -0.19053
 C41 C 0.32276 0.86937 -0.19583
 H42 H 0.29470 0.87267 -0.17039
 H43 H 0.33022 0.87233 -0.20559
 N44 N 0.31397 0.82483 -0.14318
 N45 N 0.32493 0.81392 -0.14318
 C46 C 0.32297 0.80472 -0.13055
 C47 C 0.31024 0.81015 -0.12223
 C48 C 0.30476 0.82285 -0.13057
 H49 H 0.33040 0.79495 -0.12745
 H50 H 0.29494 0.83023 -0.12749
 H51 H 0.32393 0.82395 -0.17142
 H52 H 0.33644 0.83650 -0.15867
 N53 N 0.85654 0.31400 -0.17539
 N54 N 0.85649 0.32502 -0.18611
 C55 C 0.86897 0.32301 -0.19552
 C56 C 0.87732 0.31018 -0.19030
 C57 C 0.86907 0.30469 -0.17757
 H58 H 0.87199 0.33048 -0.20526
 H59 H 0.87220 0.29490 -0.17021
 Cu60 Cu 0.84070 0.34145 -0.18603
 Cu61 Cu 0.84104 0.31311 -0.15878
 Cu62 Cu 0.81236 0.34183 -0.15877
 N63 N 0.82431 0.35728 -0.18606
 N64 N 0.81328 0.35736 -0.17534
 C65 C 0.80403 0.36993 -0.17747
 C66 C 0.80959 0.37822 -0.19016
 C67 C 0.82238 0.36980 -0.19544
 H68 H 0.79424 0.37306 -0.17009
 H69 H 0.82987 0.37278 -0.20517
 N70 N 0.81344 0.32514 -0.14295
 N71 N 0.82438 0.31421 -0.14295
 C72 C 0.82244 0.30503 -0.13032
 C73 C 0.80974 0.31049 -0.12198
 C74 C 0.80425 0.32319 -0.13031
 H75 H 0.82986 0.29525 -0.12723
 H76 H 0.79447 0.33060 -0.12721
 H77 H 0.82346 0.32423 -0.17126
 H78 H 0.83596 0.33670 -0.15840
 N79 N 0.85663 0.81384 0.32468
 N80 N 0.85654 0.82485 0.31395
 C81 C 0.86910 0.82296 0.30461
 C82 C 0.87749 0.81017 0.30986
 C83 C 0.86923 0.80462 0.32256
 H84 H 0.87213 0.83047 0.29491
 H85 H 0.87236 0.79482 0.32992
 Cu86 Cu 0.84054 0.84109 0.31396
 Cu87 Cu 0.84109 0.81290 0.34127
 Cu88 Cu 0.81233 0.84161 0.34123
 N89 N 0.82428 0.85706 0.31392
 N90 N 0.81326 0.85716 0.32465
 C91 C 0.80403 0.86976 0.32253
 C92 C 0.80962 0.87804 0.30984
 C93 C 0.82241 0.86961 0.30457
 H94 H 0.79422 0.87287 0.32989
 H95 H 0.82995 0.87260 0.29488
 N96 N 0.81339 0.82488 0.35703
 N97 N 0.82435 0.81396 0.35705
 C98 C 0.82240 0.80478 0.36969
 C99 C 0.80969 0.81024 0.37802
 C100 C 0.80419 0.82291 0.36965
 H101 H 0.82984 0.79503 0.37281
 H102 H 0.79439 0.83030 0.37276
 H103 H 0.82341 0.82390 0.32891
 H104 H 0.83595 0.83646 0.34160
 N105 N 0.64328 0.68662 0.32483
 N106 N 0.64367 0.67589 0.31385
 C107 C 0.63123 0.67783 0.30440
 C108 C 0.62256 0.69036 0.30983
 C109 C 0.63057 0.69573 0.32276
 H110 H 0.62852 0.67057 0.29444
 H111 H 0.62718 0.70530 0.33030
 Cu112 Cu 0.65989 0.65988 0.31348
 Cu113 Cu 0.65872 0.68742 0.34149
 Cu114 Cu 0.68732 0.65854 0.34167
 N115 N 0.67581 0.64358 0.31396
 N116 N 0.68646 0.64308 0.32503
 C117 C 0.69551 0.63034 0.32297
 C118 C 0.69021 0.62243 0.30995
 C119 C 0.67777 0.63119 0.30446
 H120 H 0.70504 0.62688 0.33055
 H121 H 0.67059 0.62858 0.29442
 N122 N 0.68617 0.67522 0.35751
 N123 N 0.67532 0.68623 0.35740
 C124 C 0.67726 0.69545 0.37000
 C125 C 0.68987 0.68992 0.37843
 C126 C 0.69530 0.67715 0.37019
 H127 H 0.66992 0.70532 0.37300
 H128 H 0.70504 0.66970 0.37336
 H129 H 0.67679 0.67657 0.32938
 H130 H 0.66382 0.66382 0.34142
 N131 N 0.64345 0.18629 -0.17543
 N132 N 0.64388 0.17560 -0.18646
 C133 C 0.63140 0.17753 -0.19588
 C134 C 0.62264 0.18995 -0.19036
 C135 C 0.63067 0.19531 -0.17743
 H136 H 0.62861 0.17018 -0.20574
 H137 H 0.62725 0.20485 -0.16987
 Cu138 Cu 0.65986 0.15934 -0.18659
 Cu139 Cu 0.65884 0.18700 -0.15872
 Cu140 Cu 0.68746 0.15815 -0.15851
 N141 N 0.67603 0.14328 -0.18632
 N142 N 0.68665 0.14275 -0.17521
 C143 C 0.69565 0.12995 -0.17720
 C144 C 0.69034 0.12202 -0.19023
 C145 C 0.67798 0.13086 -0.19580
 H146 H 0.70516 0.12652 -0.16961
 H147 H 0.67071 0.12819 -0.20576
 N148 N 0.68626 0.17480 -0.14263
 N149 N 0.67540 0.18580 -0.14275
 C150 C 0.67737 0.19506 -0.13019
 C151 C 0.68999 0.18956 -0.12175
 C152 C 0.69541 0.17676 -0.12998
 H153 H 0.67003 0.20493 -0.12721
 H154 H 0.70516 0.16934 -0.12681
 H155 H 0.67687 0.17602 -0.17079
 H156 H 0.66395 0.16331 -0.15866
 N157 N 0.14318 0.68646 -0.17520
 N158 N 0.14327 0.67541 -0.18587
 C159 C 0.13073 0.67727 -0.19523
 C160 C 0.12233 0.69008 -0.19004
 C161 C 0.13059 0.69568 -0.17738
 H162 H 0.12770 0.66972 -0.20489
 H163 H 0.12748 0.70554 -0.17010
 Cu164 Cu 0.15934 0.65929 -0.18583
 Cu165 Cu 0.15874 0.68745 -0.15863
 Cu166 Cu 0.18751 0.65863 -0.15861
 N167 N 0.17543 0.64319 -0.18585
 N168 N 0.18648 0.64307 -0.17517
 C169 C 0.19566 0.63045 -0.17733
 C170 C 0.19004 0.62222 -0.19000
 C171 C 0.17726 0.63066 -0.19521
 H172 H 0.20551 0.62730 -0.17004
 H173 H 0.16970 0.62765 -0.20487
 N174 N 0.18647 0.67541 -0.14286
 N175 N 0.17553 0.68637 -0.14287
 C176 C 0.17752 0.69556 -0.13026
 C177 C 0.19021 0.69008 -0.12193
 C178 C 0.19567 0.67738 -0.13026
 H179 H 0.17011 0.70534 -0.12715
 H180 H 0.20544 0.66995 -0.12714
 H181 H 0.17654 0.67645 -0.17080
 H182 H 0.16399 0.66395 -0.15814
 N183 N 0.14308 0.18640 0.32482
 N184 N 0.14333 0.17553 0.31397
 C185 C 0.13077 0.17735 0.30464
 C186 C 0.12220 0.18998 0.31000
 C187 C 0.13038 0.19550 0.32276
 H188 H 0.12788 0.16993 0.29484
 H189 H 0.12714 0.20522 0.33018
 Cu190 Cu 0.15962 0.15960 0.31392
 Cu191 Cu 0.15864 0.18740 0.34141
 Cu192 Cu 0.18747 0.15864 0.34138
 N193 N 0.17559 0.14336 0.31393
 N194 N 0.18649 0.14310 0.32477
 C195 C 0.19563 0.13044 0.32268
 C196 C 0.19011 0.12229 0.30991
 C197 C 0.17744 0.13083 0.30457
 H198 H 0.20536 0.12720 0.33008
 H199 H 0.17001 0.12795 0.29477
 N200 N 0.18638 0.17539 0.35717
 N201 N 0.17542 0.18631 0.35718
 C202 C 0.17742 0.19554 0.36976
 C203 C 0.19015 0.19010 0.37806
 C204 C 0.19562 0.17739 0.36975
 H205 H 0.17001 0.20532 0.37287
 H206 H 0.20543 0.17001 0.37284
 H207 H 0.17656 0.17655 0.32937
 H208 H 0.16387 0.16384 0.34171
 N209 N 0.64326 0.31350 0.67548
 N210 N 0.64324 0.32458 0.68613
 C211 C 0.63073 0.32260 0.69552
 C212 C 0.62246 0.30972 0.69036
 C213 C 0.63078 0.30416 0.67770
 H214 H 0.62764 0.33013 0.70518
 H215 H 0.62773 0.29431 0.67040
 Cu216 Cu 0.65895 0.34106 0.68599
 Cu217 Cu 0.65874 0.31267 0.65884
 Cu218 Cu 0.68722 0.34152 0.65859
 N219 N 0.67533 0.35689 0.68597
 N220 N 0.68628 0.35703 0.67518
 C221 C 0.69554 0.36957 0.67735
 C222 C 0.69009 0.37772 0.69017
 C223 C 0.67732 0.36931 0.69543
 H224 H 0.70531 0.37274 0.66998
 H225 H 0.66991 0.37224 0.70524
 N226 N 0.68615 0.32482 0.64279
 N227 N 0.67534 0.31379 0.64293
 C228 C 0.67730 0.30455 0.63035
 C229 C 0.68987 0.31009 0.62186
 C230 C 0.69526 0.32289 0.63008
 H231 H 0.66999 0.29468 0.62738
 H232 H 0.70494 0.33037 0.62687
 H233 H 0.67634 0.32396 0.67119
 H234 H 0.66371 0.33633 0.65834
 N235 N 0.64310 0.81365 1.17535
 N236 N 0.64318 0.82468 1.18603
 C237 C 0.63062 0.82285 1.19538
 C238 C 0.62224 0.81005 1.19019
 C239 C 0.63051 0.80444 1.17752
 H240 H 0.62761 0.83038 1.20506
 H241 H 0.62740 0.79460 1.17023
 Cu242 Cu 0.65929 0.84076 1.18605
 Cu243 Cu 0.65868 0.81260 1.15880
 Cu244 Cu 0.68744 0.84135 1.15881
 N245 N 0.67541 0.85682 1.18607
 N246 N 0.68645 0.85692 1.17538
 C247 C 0.69567 0.86949 1.17754
 C248 C 0.69007 0.87774 1.19023
 C249 C 0.67725 0.86936 1.19544
 H250 H 0.70552 0.87260 1.17025
 H251 H 0.66972 0.87235 1.20513
 N252 N 0.68640 0.82458 1.14303
 N253 N 0.67548 0.81364 1.14305
 C254 C 0.67745 0.80445 1.13044
 C255 C 0.69013 0.80992 1.12208
 C256 C 0.69559 0.82261 1.13040
 H257 H 0.67005 0.79469 1.12733
 H258 H 0.70535 0.83002 1.12726
 H259 H 0.67644 0.82350 1.17099
 H260 H 0.66389 0.83605 1.15836
 N261 N 0.14304 0.31376 1.17529
 N262 N 0.14314 0.32480 1.18597
 C263 C 0.13058 0.32297 1.19533
 C264 C 0.12219 0.31017 1.19014
 C265 C 0.13045 0.30456 1.17746
 H266 H 0.12756 0.33051 1.20500
 H267 H 0.12735 0.29470 1.17019
 Cu268 Cu 0.15923 0.34089 1.18594
 Cu269 Cu 0.15861 0.31272 1.15872
 Cu270 Cu 0.18738 0.34147 1.15872
 N271 N 0.17534 0.35697 1.18597
 N272 N 0.18638 0.35706 1.17527
 C273 C 0.19557 0.36966 1.17741
 C274 C 0.18994 0.37793 1.19008
 C275 C 0.17715 0.36953 1.19530
 H276 H 0.20543 0.37277 1.17012
 H277 H 0.16959 0.37254 1.20496
 N278 N 0.18635 0.32469 1.14295
 N279 N 0.17542 0.31376 1.14297
 C280 C 0.17741 0.30454 1.13037
 C281 C 0.19011 0.30999 1.12203
 C282 C 0.19556 0.32269 1.13034
 H283 H 0.17001 0.29478 1.12727
 H284 H 0.20533 0.33009 1.12721
 H285 H 0.17639 0.32363 1.17090
 H286 H 0.16384 0.33617 1.15825
 N287 N 0.14318 0.81369 0.67521
 N288 N 0.14322 0.82472 0.68590
 C289 C 0.13074 0.82274 0.69533
 C290 C 0.12242 0.80990 0.69014
 C291 C 0.13067 0.80437 0.67742
 H292 H 0.12772 0.83022 0.70505
 H293 H 0.12756 0.79457 0.67009
 Cu294 Cu 0.15895 0.84118 0.68584
 Cu295 Cu 0.15866 0.81279 0.65860
 Cu296 Cu 0.18735 0.84140 0.65864
 N297 N 0.17543 0.85688 0.68592
 N298 N 0.18649 0.85689 0.67524
 C299 C 0.19581 0.86939 0.67742
 C300 C 0.19024 0.87768 0.69009
 C301 C 0.17738 0.86937 0.69530
 H302 H 0.20563 0.87248 0.67008
 H303 H 0.16986 0.87241 0.70499
 N304 N 0.18627 0.82478 0.64279
 N305 N 0.17533 0.81388 0.64277
 C306 C 0.17726 0.80472 0.63012
 C307 C 0.18996 0.81018 0.62178
 C308 C 0.19545 0.82284 0.63015
 H309 H 0.16984 0.79497 0.62701
 H310 H 0.20524 0.83022 0.62706
 H311 H 0.17617 0.82381 0.67116
 H312 H 0.16372 0.83630 0.65823
 N313 N 0.35693 0.68637 0.67522
 N314 N 0.35671 0.67549 0.68607
 C315 C 0.36931 0.67731 0.69537
 C316 C 0.37785 0.68994 0.68998
 C317 C 0.36963 0.69546 0.67723
 H318 H 0.37222 0.66989 0.70517
 H319 H 0.37284 0.70519 0.66981
 Cu320 Cu 0.34048 0.65951 0.68649
 Cu321 Cu 0.34132 0.68735 0.65871
 Cu322 Cu 0.31268 0.65864 0.65866
 N323 N 0.32453 0.64325 0.68603
 N324 N 0.31367 0.64303 0.67516
 C325 C 0.30461 0.63030 0.67714
 C326 C 0.31012 0.62209 0.68989
 C327 C 0.32271 0.63065 0.69532
 H328 H 0.29490 0.62709 0.66970
 H329 H 0.33012 0.62774 0.70512
 N330 N 0.31366 0.67543 0.64293
 N331 N 0.32456 0.68637 0.64296
 C332 C 0.32251 0.69565 0.63041
 C333 C 0.30981 0.69022 0.62207
 C334 C 0.30440 0.67747 0.63036
 H335 H 0.32988 0.70546 0.62734
 H336 H 0.29463 0.67007 0.62724
 H337 H 0.32351 0.67643 0.67085
 H338 H 0.33632 0.66371 0.65860
 N339 N 0.35708 0.18630 1.17524
 N340 N 0.35699 0.17525 1.18592
 C341 C 0.36952 0.17708 1.19529
 C342 C 0.37792 0.18988 1.19010
 C343 C 0.36967 0.19550 1.17742
 H344 H 0.37251 0.16955 1.20498
 H345 H 0.37279 0.20535 1.17013
 Cu346 Cu 0.34089 0.15916 1.18593
 Cu347 Cu 0.34151 0.18735 1.15868
 Cu348 Cu 0.31274 0.15858 1.15872
 N349 N 0.32478 0.14309 1.18596
 N350 N 0.31374 0.14301 1.17528
 C351 C 0.30454 0.13042 1.17744
 C352 C 0.31016 0.12214 1.19010
 C353 C 0.32295 0.13054 1.19531
 H354 H 0.29469 0.12730 1.17014
 H355 H 0.33050 0.12754 1.20498
 N356 N 0.31378 0.17537 1.14294
 N357 N 0.32470 0.18631 1.14294
 C358 C 0.32270 0.19552 1.13033
 C359 C 0.31001 0.19005 1.12201
 C360 C 0.30457 0.17735 1.13034
 H361 H 0.33010 0.20529 1.12721
 H362 H 0.29480 0.16995 1.12722
 H363 H 0.32373 0.17642 1.17087
 H364 H 0.33629 0.16390 1.15823
 N365 N 0.85717 0.68611 1.17504
 N366 N 0.85681 0.67535 1.18600
 C367 C 0.86938 0.67716 1.19533
 C368 C 0.87807 0.68963 1.18982
 C369 C 0.86996 0.69508 1.17698
 H370 H 0.87219 0.66982 1.20523
 H371 H 0.87330 0.70467 1.16945
 Cu372 Cu 0.84050 0.65946 1.18649
 Cu373 Cu 0.84158 0.68717 1.15855
 Cu374 Cu 0.81266 0.65865 1.15881
 N375 N 0.82445 0.64330 1.18618
 N376 N 0.81355 0.64310 1.17536
 C377 C 0.80449 0.63038 1.17736
 C378 C 0.81006 0.62212 1.19005
 C379 C 0.82268 0.63067 1.19544
 H380 H 0.79477 0.62717 1.16993
 H381 H 0.83017 0.62770 1.20517
 N382 N 0.81371 0.67535 1.14299
 N383 N 0.82476 0.68615 1.14285
 C384 C 0.82277 0.69533 1.13022
 C385 C 0.80992 0.69001 1.12205
 C386 C 0.80438 0.67742 1.13049
 H387 H 0.83025 0.70500 1.12701
 H388 H 0.79446 0.67016 1.12753
 H389 H 0.82380 0.67651 1.17072
 H390 H 0.83649 0.66362 1.15853
 N391 N 0.85695 0.18624 0.67508
 N392 N 0.85673 0.17537 0.68594
 C393 C 0.86933 0.17719 0.69522
 C394 C 0.87786 0.18981 0.68981
 C395 C 0.86965 0.19533 0.67707
 H396 H 0.87224 0.16979 0.70503
 H397 H 0.87286 0.20504 0.66964
 Cu398 Cu 0.84047 0.15944 0.68647
 Cu399 Cu 0.84134 0.18725 0.65860
 Cu400 Cu 0.81268 0.15858 0.65864
 N401 N 0.82455 0.14317 0.68596
 N402 N 0.81367 0.14296 0.67511
 C403 C 0.80462 0.13023 0.67707
 C404 C 0.81019 0.12197 0.68977
 C405 C 0.82278 0.13053 0.69520
 H406 H 0.79492 0.12701 0.66962
 H407 H 0.83021 0.12760 0.70499
 N408 N 0.81363 0.17535 0.64291
 N409 N 0.82456 0.18627 0.64289
 C410 C 0.82254 0.19551 0.63030
 C411 C 0.80981 0.19007 0.62201
 C412 C 0.80437 0.17737 0.63035
 H413 H 0.82993 0.20528 0.62719
 H414 H 0.79459 0.16998 0.62727
 H415 H 0.82358 0.17642 0.67081
 H416 H 0.83638 0.16364 0.65858
 N417 N 0.31340 0.35682 0.67526
 N418 N 0.32442 0.35674 0.68597
 C419 C 0.32246 0.36923 0.69535
 C420 C 0.30964 0.37760 0.69012
 C421 C 0.30410 0.36936 0.67742
 H422 H 0.32997 0.37225 0.70504
 H423 H 0.29426 0.37246 0.67010
 Cu424 Cu 0.34094 0.34105 0.68590
 Cu425 Cu 0.31253 0.34134 0.65867
 Cu426 Cu 0.34121 0.31265 0.65869
 N427 N 0.35664 0.32452 0.68600
 N428 N 0.35670 0.31351 0.67529
 C429 C 0.36925 0.30421 0.67746
 C430 C 0.37750 0.30974 0.69016
 C431 C 0.36913 0.32256 0.69539
 H432 H 0.37234 0.29437 0.67015
 H433 H 0.37216 0.33007 0.70507
 N434 N 0.32456 0.31376 0.64285
 N435 N 0.31363 0.32469 0.64284
 C436 C 0.30443 0.32273 0.63023
 C437 C 0.30990 0.31003 0.62191
 C438 C 0.32261 0.30456 0.63024
 H439 H 0.29463 0.33013 0.62713
 H440 H 0.33001 0.29478 0.62716
 H441 H 0.32364 0.32379 0.67119
 H442 H 0.33611 0.33623 0.65827
 N443 N 0.31367 0.85712 0.17496
 N444 N 0.32474 0.85704 0.18561
 C445 C 0.32292 0.86958 0.19495
 C446 C 0.31011 0.87798 0.18976
 C447 C 0.30446 0.86971 0.17713
 H448 H 0.33049 0.87259 0.20458
 H449 H 0.29458 0.87283 0.16987
 Cu450 Cu 0.34085 0.84096 0.18559
 Cu451 Cu 0.31266 0.84156 0.15841
 Cu452 Cu 0.34147 0.81277 0.15845
 N453 N 0.35691 0.82485 0.18568
 N454 N 0.35702 0.81378 0.17503
 C455 C 0.36960 0.80456 0.17724
 C456 C 0.37784 0.81019 0.18990
 C457 C 0.36943 0.82300 0.19506
 H458 H 0.37273 0.79468 0.17000
 H459 H 0.37242 0.83056 0.20471
 N460 N 0.32469 0.81383 0.14268
 N461 N 0.31374 0.82476 0.14267
 C462 C 0.30453 0.82278 0.13006
 C463 C 0.31002 0.81008 0.12175
 C464 C 0.32272 0.80462 0.13008
 H465 H 0.29475 0.83018 0.12693
 H466 H 0.33014 0.79486 0.12697
 H467 H 0.32363 0.82375 0.17058
 H468 H 0.33615 0.83625 0.15790
 N469 N 0.81358 0.35704 0.17507
 N470 N 0.82459 0.35696 0.18578
 C471 C 0.82267 0.36947 0.19514
 C472 C 0.80988 0.37786 0.18989
 C473 C 0.80432 0.36961 0.17721
 H474 H 0.83019 0.37250 0.20482
 H475 H 0.79448 0.37273 0.16989
 Cu476 Cu 0.84109 0.34125 0.18573
 Cu477 Cu 0.81269 0.34155 0.15849
 Cu478 Cu 0.84132 0.31284 0.15854
 N479 N 0.85676 0.32473 0.18583
 N480 N 0.85680 0.31369 0.17514
 C481 C 0.86934 0.30439 0.17731
 C482 C 0.87761 0.30995 0.18999
 C483 C 0.86927 0.32278 0.19520
 H484 H 0.87243 0.29454 0.17001
 H485 H 0.87233 0.33031 0.20485
 N486 N 0.82467 0.31394 0.14270
 N487 N 0.81376 0.32489 0.14267
 C488 C 0.80457 0.32294 0.13005
 C489 C 0.81002 0.31021 0.12175
 C490 C 0.82270 0.30472 0.13011
 H491 H 0.79480 0.33035 0.12694
 H492 H 0.83008 0.29491 0.12705
 H493 H 0.82378 0.32402 0.17103
 H494 H 0.83627 0.33644 0.15811
 N495 N 0.81362 0.85733 0.67511
 N496 N 0.82466 0.85721 0.68580
 C497 C 0.82284 0.86975 0.69516
 C498 C 0.81006 0.87820 0.68994
 C499 C 0.80444 0.86996 0.67726
 H500 H 0.83037 0.87272 0.70484
 H501 H 0.79459 0.87311 0.66997
 Cu502 Cu 0.84076 0.84109 0.68579
 Cu503 Cu 0.81261 0.84174 0.65856
 Cu504 Cu 0.84138 0.81291 0.65860
 N505 N 0.85684 0.82495 0.68584
 N506 N 0.85694 0.81391 0.67516
 C507 C 0.86954 0.80469 0.67733
 C508 C 0.87779 0.81030 0.69000
 C509 C 0.86938 0.82310 0.69521
 H510 H 0.87267 0.79485 0.67004
 H511 H 0.87238 0.83063 0.70488
 N512 N 0.82459 0.81398 0.64284
 N513 N 0.81366 0.82493 0.64282
 C514 C 0.80446 0.82295 0.63020
 C515 C 0.80993 0.81023 0.62190
 C516 C 0.82262 0.80476 0.63025
 H517 H 0.79469 0.83036 0.62707
 H518 H 0.83003 0.79498 0.62715
 H519 H 0.82358 0.82389 0.67076
 H520 H 0.83614 0.83639 0.65811
 N521 N 0.68645 0.64299 0.67535
 N522 N 0.67542 0.64311 0.68605
 C523 C 0.67726 0.63057 0.69542
 C524 C 0.69006 0.62216 0.69021
 C525 C 0.69567 0.63040 0.67752
 H526 H 0.66972 0.62757 0.70510
 H527 H 0.70552 0.62726 0.67022
 Cu528 Cu 0.65930 0.65919 0.68603
 Cu529 Cu 0.68747 0.65856 0.65877
 Cu530 Cu 0.65866 0.68734 0.65880
 N531 N 0.64320 0.67531 0.68608
 N532 N 0.64309 0.68634 0.67538
 C533 C 0.63049 0.69556 0.67755
 C534 C 0.62224 0.68996 0.69025
 C535 C 0.63065 0.67716 0.69545
 H536 H 0.62736 0.70540 0.67026
 H537 H 0.62766 0.66962 0.70514
 N538 N 0.67545 0.68628 0.64302
 N539 N 0.68640 0.67535 0.64301
 C540 C 0.69561 0.67732 0.63040
 C541 C 0.69013 0.69002 0.62207
 C542 C 0.67742 0.69548 0.63040
 H543 H 0.70539 0.66991 0.62728
 H544 H 0.67000 0.70525 0.62729
 H545 H 0.67651 0.67635 0.67097
 H546 H 0.66396 0.66383 0.65834
 N547 N 0.68647 0.14263 0.17495
 N548 N 0.67555 0.14281 0.18577
 C549 C 0.67734 0.13018 0.19502
 C550 C 0.68999 0.12166 0.18963
 C551 C 0.69557 0.12992 0.17694
 H552 H 0.66991 0.12726 0.20481
 H553 H 0.70529 0.12670 0.16951
 Cu554 Cu 0.65964 0.15910 0.18638
 Cu555 Cu 0.68750 0.15827 0.15852
 Cu556 Cu 0.65880 0.18696 0.15857
 N557 N 0.64334 0.17502 0.18582
 N558 N 0.64316 0.18595 0.17502
 C559 C 0.63046 0.19506 0.17704
 C560 C 0.62221 0.18949 0.18975
 C561 C 0.63073 0.17683 0.19510
 H562 H 0.62725 0.20479 0.16963
 H563 H 0.62781 0.16939 0.20489
 N564 N 0.67560 0.18602 0.14286
 N565 N 0.68653 0.17509 0.14284
 C566 C 0.69579 0.17712 0.13027
 C567 C 0.69035 0.18987 0.12199
 C568 C 0.67762 0.19529 0.13030
 H569 H 0.70559 0.16973 0.12717
 H570 H 0.67021 0.20509 0.12723
 H571 H 0.67663 0.17603 0.17078
 H572 H 0.66386 0.16330 0.15851
 N573 N 0.18630 0.64298 0.17496
 N574 N 0.17529 0.64313 0.18570
 C575 C 0.17706 0.63053 0.19500
 C576 C 0.18978 0.62205 0.18971
 C577 C 0.19542 0.63030 0.17704
 H578 H 0.16951 0.62752 0.20468
 H579 H 0.20527 0.62717 0.16975
 Cu580 Cu 0.15920 0.65924 0.18575
 Cu581 Cu 0.18732 0.65856 0.15842
 Cu582 Cu 0.15860 0.68739 0.15848
 N583 N 0.14313 0.67537 0.18573
 N584 N 0.14302 0.68640 0.17503
 C585 C 0.13038 0.69557 0.17715
 C586 C 0.12210 0.68994 0.18980
 C587 C 0.13052 0.67717 0.19504
 H588 H 0.12729 0.70544 0.16988
 H589 H 0.12748 0.66960 0.20470
 N590 N 0.17540 0.68634 0.14272
 N591 N 0.18631 0.67538 0.14269
 C592 C 0.19553 0.67736 0.13009
 C593 C 0.19010 0.69010 0.12179
 C594 C 0.17741 0.69558 0.13014
 H595 H 0.20529 0.66993 0.12695
 H596 H 0.17001 0.70537 0.12704
 H597 H 0.17638 0.67634 0.17067
 H598 H 0.16375 0.66381 0.15808
 N599 N 0.18624 0.14260 0.67525
 N600 N 0.17522 0.14272 0.68597
 C601 C 0.17706 0.13017 0.69532
 C602 C 0.18984 0.12173 0.69009
 C603 C 0.19544 0.12997 0.67739
 H604 H 0.16954 0.12720 0.70503
 H605 H 0.20526 0.12682 0.67007
 Cu606 Cu 0.15912 0.15885 0.68598
 Cu607 Cu 0.18725 0.15821 0.65870
 Cu608 Cu 0.15849 0.18703 0.65874
 N609 N 0.14303 0.17499 0.68602
 N610 N 0.14292 0.18602 0.67532
 C611 C 0.13032 0.19524 0.67749
 C612 C 0.12207 0.18965 0.69018
 C613 C 0.13048 0.17685 0.69539
 H614 H 0.12718 0.20508 0.67018
 H615 H 0.12749 0.16933 0.70509
 N616 N 0.17527 0.18598 0.64296
 N617 N 0.18621 0.17503 0.64294
 C618 C 0.19541 0.17702 0.63032
 C619 C 0.18994 0.18974 0.62201
 C620 C 0.17725 0.19520 0.63037
 H621 H 0.20518 0.16960 0.62718
 H622 H 0.16984 0.20499 0.62728
 H623 H 0.17629 0.17605 0.67090
 H624 H 0.16372 0.16355 0.65827
 N625 N 0.31355 0.64304 0.32465
 N626 N 0.32461 0.64313 0.31397
 C627 C 0.32277 0.63061 0.30460
 C628 C 0.30997 0.62223 0.30981
 C629 C 0.30434 0.63046 0.32248
 H630 H 0.33032 0.62761 0.29492
 H631 H 0.29449 0.62734 0.32977
 Cu632 Cu 0.34070 0.65918 0.31398
 Cu633 Cu 0.31251 0.65857 0.34122
 Cu634 Cu 0.34132 0.68727 0.34123
 N635 N 0.35679 0.67524 0.31396
 N636 N 0.35689 0.68626 0.32466
 C637 C 0.36949 0.69546 0.32249
 C638 C 0.37772 0.68986 0.30979
 C639 C 0.36932 0.67708 0.30458
 H640 H 0.37261 0.70529 0.32978
 H641 H 0.37231 0.66956 0.29489
 N642 N 0.32452 0.68624 0.35699
 N643 N 0.31357 0.67533 0.35697
 C644 C 0.30434 0.67732 0.36957
 C645 C 0.30982 0.68998 0.37791
 C646 C 0.32254 0.69542 0.36960
 H647 H 0.29456 0.66993 0.37267
 H648 H 0.32996 0.70517 0.37273
 H649 H 0.32347 0.67633 0.32905
 H650 H 0.33601 0.66376 0.34168
 N651 N 0.31351 0.14280 0.82487
 N652 N 0.32456 0.14291 0.81418
 C653 C 0.32273 0.13039 0.80481
 C654 C 0.30992 0.12200 0.81000
 C655 C 0.30430 0.13023 0.82269
 H656 H 0.33027 0.12739 0.79514
 H657 H 0.29444 0.12711 0.82997
 Cu658 Cu 0.34066 0.15897 0.81418
 Cu659 Cu 0.31247 0.15833 0.84144
 Cu660 Cu 0.34124 0.18707 0.84143
 N661 N 0.35674 0.17505 0.81417
 N662 N 0.35684 0.18608 0.82487
 C663 C 0.36942 0.19528 0.82269
 C664 C 0.37768 0.18969 0.81000
 C665 C 0.36929 0.17689 0.80481
 H666 H 0.37253 0.20513 0.82997
 H667 H 0.37229 0.16936 0.79513
 N668 N 0.32444 0.18602 0.85719
 N669 N 0.31351 0.17510 0.85719
 C670 C 0.30430 0.17706 0.86981
 C671 C 0.30976 0.18973 0.87814
 C672 C 0.32246 0.19520 0.86981
 H673 H 0.29454 0.16965 0.87293
 H674 H 0.32986 0.20496 0.87293
 H675 H 0.32339 0.17610 0.82926
 H676 H 0.33595 0.16355 0.84188
 N677 N 0.81384 0.64287 0.82498
 N678 N 0.82474 0.64307 0.81414
 C679 C 0.82295 0.63046 0.80488
 C680 C 0.81031 0.62193 0.81027
 C681 C 0.80475 0.63017 0.82298
 H682 H 0.83039 0.62753 0.79510
 H683 H 0.79499 0.62700 0.83037
 Cu684 Cu 0.84069 0.65932 0.81371
 Cu685 Cu 0.81282 0.65849 0.84146
 Cu686 Cu 0.84146 0.68721 0.84140
 N687 N 0.85690 0.67531 0.81409
 N688 N 0.85706 0.68622 0.82490
 C689 C 0.86974 0.69534 0.82287
 C690 C 0.87800 0.68980 0.81017
 C691 C 0.86951 0.67714 0.80480
 H692 H 0.87289 0.70510 0.83025
 H693 H 0.87247 0.66970 0.79504
 N694 N 0.82468 0.68622 0.85713
 N695 N 0.81377 0.67528 0.85717
 C696 C 0.80453 0.67730 0.86975
 C697 C 0.80995 0.69004 0.87803
 C698 C 0.82265 0.69548 0.86969
 H699 H 0.79476 0.66990 0.87287
 H700 H 0.83003 0.70528 0.87275
 H701 H 0.82368 0.67630 0.82920
 H702 H 0.83646 0.66359 0.84154
 N703 N 0.81386 0.14272 0.32486
 N704 N 0.82478 0.14290 0.31404
 C705 C 0.82301 0.13029 0.30479
 C706 C 0.81036 0.12179 0.31017
 C707 C 0.80478 0.13002 0.32286
 H708 H 0.83049 0.12734 0.29504
 H709 H 0.79501 0.12684 0.33024
 Cu710 Cu 0.84067 0.15916 0.31351
 Cu711 Cu 0.81279 0.15831 0.34132
 Cu712 Cu 0.84140 0.18701 0.34125
 N713 N 0.85690 0.17509 0.31399
 N714 N 0.85704 0.18602 0.32478
 C715 C 0.86971 0.19514 0.32275
 C716 C 0.87798 0.18958 0.31006
 C717 C 0.86952 0.17689 0.30472
 H718 H 0.87285 0.20493 0.33010
 H719 H 0.87250 0.16942 0.29498
 N720 N 0.82461 0.18605 0.35696
 N721 N 0.81372 0.17510 0.35700
 C722 C 0.80448 0.17709 0.36959
 C723 C 0.80989 0.18982 0.37788
 C724 C 0.82258 0.19529 0.36953
 H725 H 0.79474 0.16966 0.37272
 H726 H 0.82996 0.20508 0.37261
 H727 H 0.82357 0.17607 0.32902
 H728 H 0.83637 0.16335 0.34132
 N729 N 0.68631 0.35698 0.32480
 N730 N 0.67541 0.35680 0.31397
 C731 C 0.67721 0.36941 0.30471
 C732 C 0.68984 0.37792 0.31010
 C733 C 0.69539 0.36968 0.32280
 H734 H 0.66976 0.37236 0.29494
 H735 H 0.70512 0.37287 0.33022
 Cu736 Cu 0.65950 0.34055 0.31344
 Cu737 Cu 0.68734 0.34138 0.34127
 Cu738 Cu 0.65868 0.31272 0.34125
 N739 N 0.64324 0.32464 0.31396
 N740 N 0.64306 0.31374 0.32479
 C741 C 0.63036 0.30464 0.32277
 C742 C 0.62213 0.31019 0.31006
 C743 C 0.63064 0.32284 0.30468
 H744 H 0.62717 0.29490 0.33018
 H745 H 0.62771 0.33028 0.29491
 N746 N 0.67546 0.31367 0.35696
 N747 N 0.68638 0.32460 0.35696
 C748 C 0.69564 0.32257 0.36951
 C749 C 0.69022 0.30985 0.37782
 C750 C 0.67750 0.30441 0.36952
 H751 H 0.70542 0.32996 0.37260
 H752 H 0.67011 0.29463 0.37261
 H753 H 0.67653 0.32364 0.32904
 H754 H 0.66373 0.33640 0.34130
 N755 N 0.68640 0.85702 0.82483
 N756 N 0.67551 0.85685 0.81399
 C757 C 0.67740 0.86941 0.80466
 C758 C 0.69006 0.87787 0.81004
 C759 C 0.69556 0.86965 0.82278
 H760 H 0.66996 0.87241 0.79492
 H761 H 0.70528 0.87284 0.83021
 Cu762 Cu 0.65925 0.84093 0.81404
 Cu763 Cu 0.68735 0.84155 0.84145
 Cu764 Cu 0.65861 0.81292 0.84149
 N765 N 0.64327 0.82473 0.81404
 N766 N 0.64307 0.81386 0.82489
 C767 C 0.63040 0.80473 0.82287
 C768 C 0.62218 0.81024 0.81012
 C769 C 0.63069 0.82287 0.80472
 H770 H 0.62720 0.79503 0.83030
 H771 H 0.62771 0.83030 0.79496
 N772 N 0.67532 0.81397 0.85729
 N773 N 0.68626 0.82488 0.85726
 C774 C 0.69554 0.82285 0.86980
 C775 C 0.69011 0.81014 0.87813
 C776 C 0.67736 0.80472 0.86986
 H777 H 0.70537 0.83020 0.87284
 H778 H 0.66999 0.79493 0.87295
 H779 H 0.67633 0.82397 0.82922
 H780 H 0.66368 0.83663 0.84178
 N781 N 0.18618 0.35696 0.82484
 N782 N 0.17516 0.35686 0.81414
 C783 C 0.17700 0.36940 0.80478
 C784 C 0.18979 0.37779 0.80999
 C785 C 0.19539 0.36955 0.82268
 H786 H 0.16947 0.37240 0.79510
 H787 H 0.20523 0.37266 0.82997
 Cu788 Cu 0.15906 0.34078 0.81417
 Cu789 Cu 0.18720 0.34139 0.84142
 Cu790 Cu 0.15844 0.31263 0.84142
 N791 N 0.14297 0.32468 0.81415
 N792 N 0.14287 0.31365 0.82485
 C793 C 0.13028 0.30446 0.82269
 C794 C 0.12203 0.31006 0.81001
 C795 C 0.13043 0.32284 0.80479
 H796 H 0.12716 0.29461 0.82999
 H797 H 0.12743 0.33038 0.79511
 N798 N 0.17523 0.31367 0.85718
 N799 N 0.18616 0.32460 0.85718
 C800 C 0.19536 0.32262 0.86980
 C801 C 0.18989 0.30993 0.87813
 C802 C 0.17721 0.30447 0.86979
 H803 H 0.20512 0.33002 0.87292
 H804 H 0.16980 0.29470 0.87291
 H805 H 0.17625 0.32358 0.82924
 H806 H 0.16368 0.33612 0.84187
 N807 N 0.18622 0.85712 0.32464
 N808 N 0.17556 0.85665 0.31358
 C809 C 0.17746 0.86909 0.30411
 C810 C 0.18986 0.87783 0.30965
 C811 C 0.19521 0.86988 0.32263
 H812 H 0.17020 0.87180 0.29413
 H813 H 0.20472 0.87331 0.33022
 Cu814 Cu 0.15966 0.84040 0.31350
 Cu815 Cu 0.18717 0.84166 0.34133
 Cu816 Cu 0.15863 0.81268 0.34112
 N817 N 0.14353 0.82437 0.31345
 N818 N 0.14321 0.81355 0.32436
 C819 C 0.13053 0.80445 0.32226
 C820 C 0.12244 0.80994 0.30941
 C821 C 0.13105 0.82251 0.30402
 H822 H 0.12723 0.79480 0.32972
 H823 H 0.12818 0.82994 0.29420
 N824 N 0.17528 0.81388 0.35703
 N825 N 0.18606 0.82496 0.35716
 C826 C 0.19521 0.82303 0.36982
 C827 C 0.18991 0.81018 0.37801
 C828 C 0.17734 0.80460 0.36957
 H829 H 0.20485 0.83055 0.37304
 H830 H 0.17011 0.79466 0.37253
 H831 H 0.17666 0.82357 0.32912
 H832 H 0.16374 0.83623 0.34129
 C833 C 0.26006 0.96688 0.23989
 C834 C 0.24977 0.95892 0.24970
 C835 C 0.23966 0.96688 0.25972
 C836 C 0.23971 0.98340 0.26004
 C837 C 0.25005 0.99168 0.25001
 C838 C 0.26031 0.98340 0.23989
 C839 C 0.27044 0.99182 0.23007
 C840 C 0.27047 1.00813 0.23011
 C841 C 0.26038 1.01655 0.23998
 C842 C 0.25009 1.00827 0.25006
 C843 C 0.22969 0.99181 0.26998
 C844 C 0.22974 1.00813 0.27005
 C845 C 0.23981 1.01655 0.26016
 C846 C 0.23990 1.03307 0.26001
 C847 C 0.25004 1.04103 0.25003
 C848 C 0.26023 1.03307 0.24010
 H849 H 0.27839 0.98583 0.22224
 H850 H 0.27846 1.01411 0.22232
 H851 H 0.22170 0.98583 0.27778
 H852 H 0.22180 1.01411 0.27789
 H853 H 0.24965 0.94621 0.24957
 H854 H 0.25000 1.05374 0.25000
 C855 C 0.26010 0.53306 0.74003
 C856 C 0.24996 0.54103 0.75001
 C857 C 0.23981 0.53306 0.75997
 C858 C 0.23968 0.51655 0.76011
 C859 C 0.24995 0.50826 0.75002
 C860 C 0.26022 0.51654 0.73990
 C861 C 0.27028 0.50810 0.73001
 C862 C 0.27028 0.49179 0.73002
 C863 C 0.26022 0.48338 0.73993
 C864 C 0.24995 0.49167 0.75003
 C865 C 0.22961 0.50814 0.77001
 C866 C 0.22961 0.49183 0.77002
 C867 C 0.23968 0.48339 0.76014
 C868 C 0.23980 0.46687 0.76002
 C869 C 0.24997 0.45890 0.75007
 C870 C 0.26010 0.46686 0.74009
 H871 H 0.27823 0.51408 0.72218
 H872 H 0.27823 0.48579 0.72220
 H873 H 0.22165 0.51413 0.77783
 H874 H 0.22165 0.48585 0.77785
 H875 H 0.24995 0.55373 0.75002
 H876 H 0.24997 0.44620 0.75008
 C877 C 0.76040 -0.03328 0.26017
 C878 C 0.75026 -0.04123 0.25021
 C879 C 0.74010 -0.03326 0.24025
 C880 C 0.73998 -0.01674 0.24011
 C881 C 0.75025 -0.00846 0.25019
 C882 C 0.76052 -0.01676 0.26030
 C883 C 0.77056 -0.00834 0.27020
 C884 C 0.77057 0.00798 0.27016
 C885 C 0.76052 0.01640 0.26025
 C886 C 0.75025 0.00813 0.25017
 C887 C 0.72992 -0.00831 0.23021
 C888 C 0.72992 0.00801 0.23019
 C889 C 0.73998 0.01642 0.24007
 C890 C 0.74012 0.03294 0.24018
 C891 C 0.75028 0.04090 0.25010
 C892 C 0.76042 0.03292 0.26007
 H893 H 0.77851 -0.01433 0.27803
 H894 H 0.77853 0.01396 0.27797
 H895 H 0.72197 -0.01429 0.22239
 H896 H 0.72196 0.01400 0.22236
 H897 H 0.75026 -0.05394 0.25022
 H898 H 0.75030 0.05361 0.25007
 C899 C 0.76024 0.46675 0.76015
 C900 C 0.75007 0.45880 0.75022
 C901 C 0.73993 0.46678 0.74024
 C902 C 0.73985 0.48330 0.74006
 C903 C 0.75014 0.49157 0.75014
 C904 C 0.76040 0.48327 0.76024
 C905 C 0.77049 0.49168 0.77011
 C906 C 0.77050 0.50800 0.77010
 C907 C 0.76044 0.51644 0.76021
 C908 C 0.75016 0.50816 0.75012
 C909 C 0.72979 0.49174 0.73018
 C910 C 0.72980 0.50805 0.73016
 C911 C 0.73988 0.51646 0.74004
 C912 C 0.73999 0.53298 0.74018
 C913 C 0.75015 0.54093 0.75012
 C914 C 0.76031 0.53297 0.76008
 H915 H 0.77845 0.48568 0.77793
 H916 H 0.77846 0.51397 0.77791
 H917 H 0.72181 0.48576 0.72238
 H918 H 0.72184 0.51405 0.72234
 H919 H 0.75004 0.44609 0.75025
 H920 H 0.75014 0.55364 0.75012
 C921 C 0.26021 0.46698 0.25995
 C922 C 0.25008 0.45902 0.24998
 C923 C 0.23991 0.46699 0.24003
 C924 C 0.23977 0.48351 0.23991
 C925 C 0.25003 0.49178 0.25001
 C926 C 0.26031 0.48349 0.26010
 C927 C 0.27035 0.49190 0.27001
 C928 C 0.27033 0.50822 0.27001
 C929 C 0.26027 0.51665 0.26011
 C930 C 0.25002 0.50837 0.25001
 C931 C 0.22971 0.49194 0.23002
 C932 C 0.22970 0.50825 0.23002
 C933 C 0.23975 0.51666 0.23992
 C934 C 0.23986 0.53318 0.24005
 C935 C 0.24999 0.54114 0.25001
 C936 C 0.26014 0.53316 0.25997
 H937 H 0.27831 0.48591 0.27783
 H938 H 0.27828 0.51419 0.27784
 H939 H 0.22176 0.48597 0.22219
 H940 H 0.22174 0.51425 0.22221
 H941 H 0.25010 0.44632 0.24997
 H942 H 0.24999 0.55384 0.25001
 C943 C 0.76009 0.96715 0.74038
 C944 C 0.74995 0.95917 0.75034
 C945 C 0.73978 0.96712 0.76030
 C946 C 0.73963 0.98364 0.76045
 C947 C 0.74989 0.99195 0.75036
 C948 C 0.76019 0.98368 0.74027
 C949 C 0.77026 0.99212 0.73039
 C950 C 0.77022 1.00844 0.73039
 C951 C 0.76009 1.01685 0.74024
 C952 C 0.74983 1.00854 0.75033
 C953 C 0.72954 0.99205 0.77034
 C954 C 0.72946 1.00837 0.77029
 C955 C 0.73947 1.01681 0.76037
 C956 C 0.73940 1.03333 0.76008
 C957 C 0.74954 1.04132 0.75011
 C958 C 0.75985 1.03337 0.74028
 H959 H 0.77825 0.98615 0.72259
 H960 H 0.77817 1.01443 0.72257
 H961 H 0.72161 0.98605 0.77818
 H962 H 0.72146 1.01434 0.77809
 H963 H 0.74996 0.94647 0.75031
 H964 H 0.74941 1.05402 0.75002
 C965 C 0.76024 0.46687 0.24021
 C966 C 0.75008 0.45890 0.25015
 C967 C 0.73993 0.46686 0.26013
 C968 C 0.73980 0.48338 0.26028
 C969 C 0.75007 0.49167 0.25019
 C970 C 0.76037 0.48339 0.24011
 C971 C 0.77045 0.49182 0.23024
 C972 C 0.77040 0.50814 0.23021
 C973 C 0.76027 0.51656 0.24004
 C974 C 0.75001 0.50826 0.25016
 C975 C 0.72971 0.49179 0.27016
 C976 C 0.72965 0.50811 0.27012
 C977 C 0.73967 0.51654 0.26019
 C978 C 0.73960 0.53306 0.25989
 C979 C 0.74972 0.54103 0.24990
 C980 C 0.76002 0.53308 0.24006
 H981 H 0.77844 0.48584 0.22245
 H982 H 0.77836 0.51412 0.22239
 H983 H 0.72176 0.48580 0.27799
 H984 H 0.72165 0.51408 0.27792
 H985 H 0.75006 0.44619 0.25011
 H986 H 0.74961 0.55374 0.24980
 C987 C 0.26063 -0.03348 0.76010
 C988 C 0.25050 -0.04145 0.75013
 C989 C 0.24031 -0.03349 0.74020
 C990 C 0.24012 -0.01697 0.74010
 C991 C 0.25037 -0.00868 0.75019
 C992 C 0.26069 -0.01696 0.76026
 C993 C 0.27073 -0.00853 0.77015
 C994 C 0.27065 0.00779 0.77018
 C995 C 0.26055 0.01621 0.76032
 C996 C 0.25030 0.00791 0.75022
 C997 C 0.23001 -0.00855 0.73024
 C998 C 0.22995 0.00777 0.73025
 C999 C 0.23999 0.01620 0.74014
 C1000 C 0.24005 0.03272 0.74030
 C1001 C 0.25016 0.04068 0.75028
 C1002 C 0.26035 0.03272 0.76021
 H1003 H 0.27874 -0.01451 0.77793
 H1004 H 0.27859 0.01378 0.77801
 H1005 H 0.22205 -0.01454 0.72243
 H1006 H 0.22197 0.01375 0.72244
 H1007 H 0.25054 -0.05415 0.75011
 H1008 H 0.25011 0.05339 0.75030
 C1009 C 0.23991 0.26003 1.03304
 C1010 C 0.24998 0.24995 1.04098
 C1011 C 0.26002 0.23985 1.03304
 C1012 C 0.26012 0.23969 1.01657
 C1013 C 0.24993 0.24991 1.00830
 C1014 C 0.23976 0.26015 1.01656
 C1015 C 0.22979 0.27017 1.00817
 C1016 C 0.22977 0.27016 0.99189
 C1017 C 0.23973 0.26011 0.98349
 C1018 C 0.24991 0.24989 0.99176
 C1019 C 0.27007 0.22965 1.00817
 C1020 C 0.27005 0.22963 0.99190
 C1021 C 0.26008 0.23965 0.98350
 C1022 C 0.25992 0.23976 0.96703
 C1023 C 0.24987 0.24985 0.95908
 C1024 C 0.23983 0.25996 0.96702
 H1025 H 0.22193 0.27812 1.01413
 H1026 H 0.22189 0.27808 0.98592
 H1027 H 0.27796 0.22172 1.01414
 H1028 H 0.27792 0.22169 0.98593
 H1029 H 0.24999 0.24997 1.05365
 H1030 H 0.24985 0.24983 0.94641
 C1031 C 0.25995 0.73994 0.46684
 C1032 C 0.24981 0.74996 0.45891
 C1033 C 0.23982 0.76011 0.46687
 C1034 C 0.23982 0.76034 0.48333
 C1035 C 0.25005 0.75015 0.49159
 C1036 C 0.26019 0.73990 0.48332
 C1037 C 0.27023 0.72993 0.49171
 C1038 C 0.27029 0.72998 0.50798
 C1039 C 0.26033 0.74001 0.51639
 C1040 C 0.25011 0.75021 0.50813
 C1041 C 0.22987 0.77038 0.49174
 C1042 C 0.22993 0.77043 0.50801
 C1043 C 0.23994 0.76044 0.51640
 C1044 C 0.24012 0.76036 0.53287
 C1045 C 0.25023 0.75031 0.54081
 C1046 C 0.26026 0.74019 0.53287
 H1047 H 0.27810 0.72199 0.48573
 H1048 H 0.27821 0.72209 0.51395
 H1049 H 0.22194 0.77826 0.48577
 H1050 H 0.22205 0.77837 0.51397
 H1051 H 0.24971 0.74988 0.44624
 H1052 H 0.25027 0.75035 0.55348
 C1053 C 0.26045 0.76006 -0.03317
 C1054 C 0.25040 0.74999 -0.04111
 C1055 C 0.24030 0.73995 -0.03316
 C1056 C 0.24013 0.73984 -0.01669
 C1057 C 0.25032 0.75002 -0.00842
 C1058 C 0.26055 0.76019 -0.01669
 C1059 C 0.27054 0.77016 -0.00828
 C1060 C 0.27049 0.77018 0.00799
 C1061 C 0.26046 0.76022 0.01639
 C1062 C 0.25027 0.75004 0.00812
 C1063 C 0.23009 0.72989 -0.00829
 C1064 C 0.23005 0.72990 0.00798
 C1065 C 0.24004 0.73988 0.01639
 C1066 C 0.24011 0.74003 0.03286
 C1067 C 0.25016 0.75010 0.04080
 C1068 C 0.26027 0.76013 0.03286
 H1069 H 0.27847 0.77803 -0.01424
 H1070 H 0.27839 0.77806 0.01397
 H1071 H 0.22219 0.72201 -0.01426
 H1072 H 0.22212 0.72204 0.01395
 H1073 H 0.25042 0.74997 -0.05378
 H1074 H 0.25012 0.75013 0.05348
 C1075 C 0.26000 0.25997 0.46708
 C1076 C 0.24994 0.24991 0.45914
 C1077 C 0.23987 0.23985 0.46709
 C1078 C 0.23973 0.23972 0.48356
 C1079 C 0.24992 0.24990 0.49182
 C1080 C 0.26012 0.26010 0.48356
 C1081 C 0.27010 0.27008 0.49196
 C1082 C 0.27009 0.27007 0.50823
 C1083 C 0.26009 0.26009 0.51663
 C1084 C 0.24990 0.24990 0.50837
 C1085 C 0.22973 0.22973 0.49196
 C1086 C 0.22971 0.22973 0.50823
 C1087 C 0.23970 0.23971 0.51663
 C1088 C 0.23981 0.23984 0.53311
 C1089 C 0.24987 0.24990 0.54105
 C1090 C 0.25995 0.25996 0.53311
 H1091 H 0.27801 0.27797 0.48599
 H1092 H 0.27798 0.27796 0.51420
 H1093 H 0.22184 0.22184 0.48599
 H1094 H 0.22181 0.22183 0.51420
 H1095 H 0.24995 0.24991 0.44647
 H1096 H 0.24986 0.24990 0.55372
 C1097 C 0.76021 0.74005 0.96702
 C1098 C 0.75018 0.75018 0.95908
 C1099 C 0.74011 0.76026 0.96703
 C1100 C 0.73996 0.76036 0.98350
 C1101 C 0.75011 0.75010 0.99176
 C1102 C 0.76030 0.73988 0.98349
 C1103 C 0.77024 0.72983 0.99189
 C1104 C 0.77020 0.72978 1.00816
 C1105 C 0.76022 0.73979 1.01656
 C1106 C 0.75007 0.75006 1.00830
 C1107 C 0.72998 0.77038 0.99190
 C1108 C 0.72995 0.77034 1.00817
 C1109 C 0.73988 0.76027 1.01657
 C1110 C 0.73994 0.76007 1.03304
 C1111 C 0.74993 0.74991 1.04098
 C1112 C 0.76001 0.73985 1.03304
 H1113 H 0.77813 0.72191 0.98592
 H1114 H 0.77805 0.72182 1.01413
 H1115 H 0.72212 0.77833 0.98593
 H1116 H 0.72207 0.77827 1.01414
 H1117 H 0.75019 0.75020 0.94640
 H1118 H 0.74986 0.74986 1.05365
 C1119 C 0.76009 0.23981 0.46687
 C1120 C 0.75006 0.24993 0.45893
 C1121 C 0.73999 0.26001 0.46688
 C1122 C 0.73981 0.26010 0.48335
 C1123 C 0.74998 0.24986 0.49162
 C1124 C 0.76018 0.23965 0.48335
 C1125 C 0.77015 0.22963 0.49175
 C1126 C 0.77011 0.22959 0.50802
 C1127 C 0.76009 0.23956 0.51642
 C1128 C 0.74992 0.24981 0.50816
 C1129 C 0.72981 0.27009 0.49175
 C1130 C 0.72975 0.27004 0.50803
 C1131 C 0.73969 0.25999 0.51644
 C1132 C 0.73971 0.25974 0.53292
 C1133 C 0.74973 0.24959 0.54084
 C1134 C 0.75988 0.23960 0.53289
 H1135 H 0.77807 0.22173 0.48578
 H1136 H 0.77798 0.22165 0.51398
 H1137 H 0.72194 0.27804 0.48578
 H1138 H 0.72184 0.27793 0.51400
 H1139 H 0.75008 0.24995 0.44626
 H1140 H 0.74966 0.24950 0.55352
 C1141 C 0.75987 0.26034 -0.03307
 C1142 C 0.74976 0.25033 -0.04101
 C1143 C 0.73977 0.24018 -0.03308
 C1144 C 0.73973 0.23995 -0.01660
 C1145 C 0.74993 0.25012 -0.00833
 C1146 C 0.76008 0.26037 -0.01660
 C1147 C 0.77009 0.27032 -0.00819
 C1148 C 0.77014 0.27026 0.00808
 C1149 C 0.76018 0.26023 0.01648
 C1150 C 0.74998 0.25005 0.00821
 C1151 C 0.72979 0.22991 -0.00820
 C1152 C 0.72983 0.22984 0.00807
 C1153 C 0.73982 0.23981 0.01647
 C1154 C 0.73999 0.23988 0.03295
 C1155 C 0.75006 0.24994 0.04089
 C1156 C 0.76008 0.26005 0.03296
 H1157 H 0.77796 0.27825 -0.01416
 H1158 H 0.77804 0.27813 0.01405
 H1159 H 0.72188 0.22203 -0.01417
 H1160 H 0.72197 0.22191 0.01404
 H1161 H 0.74969 0.25041 -0.05369
 H1162 H 0.75008 0.24990 0.05357
 C1163 C 0.73982 0.74020 0.46710
 C1164 C 0.74984 0.75032 0.45915
 C1165 C 0.75995 0.76032 0.46709
 C1166 C 0.76014 0.76038 0.48356
 C1167 C 0.74998 0.75015 0.49183
 C1168 C 0.73977 0.73998 0.48357
 C1169 C 0.72981 0.72996 0.49197
 C1170 C 0.72984 0.72991 0.50824
 C1171 C 0.73983 0.73989 0.51664
 C1172 C 0.75000 0.75010 0.50838
 C1173 C 0.77015 0.77034 0.49196
 C1174 C 0.77017 0.77029 0.50824
 C1175 C 0.76020 0.76028 0.51664
 C1176 C 0.76009 0.76012 0.53311
 C1177 C 0.75003 0.75004 0.54105
 C1178 C 0.73997 0.73999 0.53311
 H1179 H 0.72191 0.72207 0.48600
 H1180 H 0.72196 0.72199 0.51421
 H1181 H 0.77802 0.77825 0.48599
 H1182 H 0.77808 0.77817 0.51421
 H1183 H 0.74977 0.75038 0.44648
 H1184 H 0.75004 0.75002 0.55373
 C1185 C 0.96677 0.26023 0.24004
 C1186 C 0.95881 0.25003 0.24995
 C1187 C 0.96680 0.23988 0.25989
 C1188 C 0.98333 0.23980 0.26007
 C1189 C 0.99161 0.25012 0.25002
 C1190 C 0.98330 0.26039 0.23994
 C1191 C 0.99171 0.27049 0.23008
 C1192 C 1.00804 0.27052 0.23009
 C1193 C 1.01648 0.26045 0.23997
 C1194 C 1.00821 0.25015 0.25004
 C1195 C 0.99177 0.22974 0.26995
 C1196 C 1.00811 0.22979 0.26999
 C1197 C 1.01652 0.23988 0.26013
 C1198 C 1.03305 0.24004 0.26001
 C1199 C 1.04100 0.25022 0.25007
 C1200 C 1.03301 0.26036 0.24012
 H1201 H 0.98571 0.27846 0.22228
 H1202 H 1.01401 0.27850 0.22229
 H1203 H 0.98580 0.22174 0.27774
 H1204 H 1.01411 0.22184 0.27781
 H1205 H 0.94610 0.25000 0.24991
 H1206 H 1.05372 0.25025 0.25008
 C1207 C 0.46681 0.26010 0.74024
 C1208 C 0.45886 0.24995 0.75020
 C1209 C 0.46685 0.23980 0.76016
 C1210 C 0.48339 0.23971 0.76030
 C1211 C 0.49166 0.24999 0.75021
 C1212 C 0.48334 0.26025 0.74011
 C1213 C 0.49175 0.27032 0.73022
 C1214 C 0.50809 0.27031 0.73019
 C1215 C 0.51654 0.26022 0.74005
 C1216 C 0.50827 0.24997 0.75017
 C1217 C 0.49184 0.22965 0.77018
 C1218 C 0.50817 0.22961 0.77013
 C1219 C 0.51659 0.23964 0.76020
 C1220 C 0.53313 0.23963 0.75992
 C1221 C 0.54107 0.24978 0.74994
 C1222 C 0.53308 0.26003 0.74008
 H1223 H 0.48575 0.27827 0.72240
 H1224 H 0.51405 0.27827 0.72236
 H1225 H 0.48586 0.22170 0.77802
 H1226 H 0.51417 0.22163 0.77792
 H1227 H 0.44614 0.24992 0.75018
 H1228 H 0.55379 0.24973 0.74985
 C1229 C -0.03335 0.26019 0.76008
 C1230 C -0.04132 0.25003 0.75015
 C1231 C -0.03334 0.23986 0.74021
 C1232 C -0.01681 0.23972 0.74007
 C1233 C -0.00852 0.25000 0.75014
 C1234 C -0.01682 0.26030 0.76020
 C1235 C -0.00839 0.27038 0.77005
 C1236 C 0.00794 0.27035 0.77006
 C1237 C 0.01638 0.26026 0.76020
 C1238 C 0.00809 0.24998 0.75013
 C1239 C -0.00837 0.22963 0.73022
 C1240 C 0.00796 0.22962 0.73020
 C1241 C 0.01639 0.23969 0.74006
 C1242 C 0.03292 0.23980 0.74018
 C1243 C 0.04089 0.24994 0.75013
 C1244 C 0.03291 0.26011 0.76007
 H1245 H -0.01438 0.27838 0.77783
 H1246 H 0.01393 0.27831 0.77786
 H1247 H -0.01436 0.22165 0.72243
 H1248 H 0.01395 0.22165 0.72240
 H1249 H -0.05404 0.25006 0.75014
 H1250 H 0.05360 0.24993 0.75014
 C1251 C 0.46707 0.23957 0.24016
 C1252 C 0.45908 0.24971 0.25012
 C1253 C 0.46704 0.25988 0.26005
 C1254 C 0.48357 0.26003 0.26016
 C1255 C 0.49188 0.24976 0.25008
 C1256 C 0.48361 0.23947 0.24002
 C1257 C 0.49206 0.22941 0.23014
 C1258 C 0.50839 0.22942 0.23013
 C1259 C 0.51680 0.23951 0.23998
 C1260 C 0.50849 0.24978 0.25006
 C1261 C 0.49198 0.27011 0.27002
 C1262 C 0.50832 0.27014 0.26999
 C1263 C 0.51676 0.26008 0.26011
 C1264 C 0.53329 0.25999 0.25994
 C1265 C 0.54129 0.24985 0.24999
 C1266 C 0.53333 0.23966 0.24009
 H1267 H 0.48608 0.22143 0.22235
 H1268 H 0.51439 0.22145 0.22232
 H1269 H 0.48598 0.27807 0.27783
 H1270 H 0.51429 0.27813 0.27778
 H1271 H 0.44637 0.24969 0.25013
 H1272 H 0.55400 0.24988 0.24996
 C1273 C 0.96690 0.76031 0.74004
 C1274 C 0.95893 0.75015 0.74998
 C1275 C 0.96691 0.74001 0.75996
 C1276 C 0.98344 0.73991 0.76011
 C1277 C 0.99173 0.75020 0.75004
 C1278 C 0.98343 0.76046 0.73994
 C1279 C 0.99184 0.77055 0.73007
 C1280 C 1.00817 0.77058 0.73009
 C1281 C 1.01661 0.76053 0.73999
 C1282 C 1.00833 0.75024 0.75007
 C1283 C 0.99188 0.72985 0.77000
 C1284 C 1.00821 0.72989 0.77004
 C1285 C 1.01663 0.73998 0.76018
 C1286 C 1.03316 0.74016 0.76009
 C1287 C 1.04112 0.75035 0.75017
 C1288 C 1.03314 0.76045 0.74016
 H1289 H 0.98585 0.77850 0.72224
 H1290 H 1.01415 0.77857 0.72230
 H1291 H 0.98591 0.72186 0.77780
 H1292 H 1.01421 0.72193 0.77786
 H1293 H 0.94622 0.75013 0.74997
 H1294 H 1.05383 0.75040 0.75021
 C1295 C 0.46684 0.76025 0.24015
 C1296 C 0.45888 0.75005 0.25006
 C1297 C 0.46687 0.73993 0.26005
 C1298 C 0.48339 0.73986 0.26024
 C1299 C 0.49168 0.75017 0.25018
 C1300 C 0.48337 0.76043 0.24008
 C1301 C 0.49179 0.77054 0.23023
 C1302 C 0.50811 0.77057 0.23026
 C1303 C 0.51655 0.76046 0.24011
 C1304 C 0.50828 0.75017 0.25018
 C1305 C 0.49183 0.72981 0.27013
 C1306 C 0.50816 0.72979 0.27012
 C1307 C 0.51658 0.73985 0.26022
 C1308 C 0.53311 0.73987 0.25999
 C1309 C 0.54107 0.75005 0.25005
 C1310 C 0.53308 0.76030 0.24019
 H1311 H 0.48579 0.77849 0.22241
 H1312 H 0.51409 0.77856 0.22248
 H1313 H 0.48585 0.72185 0.27795
 H1314 H 0.51415 0.72181 0.27791
 H1315 H 0.44617 0.74999 0.25001
 H1316 H 0.55379 0.75000 0.24998
 C1317 C -0.03318 0.76016 0.26015
 C1318 C -0.04115 0.74997 0.25026
 C1319 C -0.03319 0.73983 0.24029
 C1320 C -0.01665 0.73975 0.24009
 C1321 C -0.00836 0.75005 0.25013
 C1322 C -0.01665 0.76033 0.26022
 C1323 C -0.00822 0.77043 0.27005
 C1324 C 0.00811 0.77049 0.26996
 C1325 C 0.01654 0.76044 0.26005
 C1326 C 0.00825 0.75010 0.25006
 C1327 C -0.00822 0.72967 0.23022
 C1328 C 0.00811 0.72970 0.23016
 C1329 C 0.01654 0.73983 0.23997
 C1330 C 0.03308 0.74004 0.23998
 C1331 C 0.04105 0.75030 0.24981
 C1332 C 0.03307 0.76045 0.25978
 H1333 H -0.01421 0.77838 0.27787
 H1334 H 0.01409 0.77849 0.27772
 H1335 H -0.01420 0.72167 0.22246
 H1336 H 0.01410 0.72173 0.22236
 H1337 H -0.05386 0.74994 0.25033
 H1338 H 0.05376 0.75038 0.24972
 C1339 C 0.46674 0.76036 0.76019
 C1340 C 0.45878 0.75021 0.75024
 C1341 C 0.46675 0.74006 0.74028
 C1342 C 0.48329 0.73994 0.74014
 C1343 C 0.49158 0.75021 0.75022
 C1344 C 0.48328 0.76048 0.76031
 C1345 C 0.49171 0.77053 0.77020
 C1346 C 0.50805 0.77052 0.77019
 C1347 C 0.51649 0.76047 0.76029
 C1348 C 0.50820 0.75020 0.75021
 C1349 C 0.49173 0.72988 0.73025
 C1350 C 0.50807 0.72988 0.73024
 C1351 C 0.51650 0.73993 0.74012
 C1352 C 0.53304 0.74003 0.74025
 C1353 C 0.54100 0.75019 0.75019
 C1354 C 0.53303 0.76036 0.76013
 H1355 H 0.48572 0.77847 0.77803
 H1356 H 0.51404 0.77846 0.77801
 H1357 H 0.48575 0.72193 0.72244
 H1358 H 0.51406 0.72192 0.72242
 H1359 H 0.44606 0.75022 0.75025
 H1360 H 0.55372 0.75018 0.75017
 C1361 C 0.41986 0.29231 0.29209
 N1362 N 0.41284 0.30490 0.28537
 N1363 N 0.39948 0.31057 0.29110
 C1364 C 0.39260 0.30380 0.30369
 N1365 N 0.39968 0.29130 0.31047
 N1366 N 0.41303 0.28564 0.30475
 C1367 C 0.43383 0.28521 0.28499
 N1368 N 0.44005 0.27189 0.29103
 N1369 N 0.45151 0.26437 0.28360
 C1370 C 0.45728 0.26999 0.26996
 N1371 N 0.45122 0.28341 0.26402
 N1372 N 0.43976 0.29094 0.27145
 C1373 C 0.41953 0.79281 0.79225
 N1374 N 0.41254 0.80539 0.78552
 N1375 N 0.39916 0.81107 0.79121
 C1376 C 0.39223 0.80432 0.80379
 N1377 N 0.39932 0.79183 0.81060
 N1378 N 0.41269 0.78616 0.80492
 C1379 C 0.43351 0.78569 0.78516
 N1380 N 0.43969 0.77233 0.79116
 N1381 N 0.45115 0.76481 0.78372
 C1382 C 0.45697 0.77047 0.77012
 N1383 N 0.45095 0.78392 0.76421
 N1384 N 0.43949 0.79145 0.77165
 C1385 C -0.08047 0.29264 0.79212
 N1386 N -0.08746 0.30523 0.78538
 N1387 N -0.10085 0.31089 0.79104
 C1388 C -0.10779 0.30412 0.80359
 N1389 N -0.10074 0.29162 0.81040
 N1390 N -0.08736 0.28596 0.80475
 C1391 C -0.06650 0.28554 0.78505
 N1392 N -0.06028 0.27222 0.79108
 N1393 N -0.04884 0.26469 0.78364
 C1394 C -0.04307 0.27031 0.76999
 N1395 N -0.04912 0.28374 0.76407
 N1396 N -0.06056 0.29128 0.77151
 C1397 C -0.08041 0.79257 0.29209
 N1398 N -0.08736 0.80520 0.28542
 N1399 N -0.10072 0.81090 0.29115
 C1400 C -0.10764 0.80411 0.30370
 N1401 N -0.10062 0.79156 0.31044
 N1402 N -0.08727 0.78587 0.30472
 C1403 C -0.06643 0.78547 0.28502
 N1404 N -0.06027 0.77211 0.29104
 N1405 N -0.04879 0.76460 0.28364
 C1406 C -0.04292 0.77027 0.27005
 N1407 N -0.04893 0.78373 0.26413
 N1408 N -0.06042 0.79125 0.27153
 C1409 C 0.58018 0.70729 0.29204
 N1410 N 0.58765 0.69513 0.28503
 N1411 N 0.60108 0.68965 0.29076
 C1412 C 0.60760 0.69620 0.30365
 N1413 N 0.60007 0.70825 0.31073
 N1414 N 0.58663 0.71372 0.30501
 C1415 C 0.56617 0.71429 0.28491
 N1416 N 0.55947 0.72722 0.29127
 N1417 N 0.54806 0.73479 0.28380
 C1418 C 0.54285 0.72961 0.26977
 N1419 N 0.54937 0.71656 0.26351
 N1420 N 0.56076 0.70898 0.27099
 C1421 C 0.58021 0.20692 0.79192
 N1422 N 0.58669 0.21332 0.80489
 N1423 N 0.60013 0.20783 0.81059
 C1424 C 0.60765 0.19578 0.80349
 N1425 N 0.60112 0.18928 0.79059
 N1426 N 0.58768 0.19478 0.78488
 C1427 C 0.56622 0.21398 0.78479
 N1428 N 0.56077 0.20869 0.77088
 N1429 N 0.54938 0.21630 0.76342
 C1430 C 0.54288 0.22936 0.76970
 N1431 N 0.54815 0.23453 0.78371
 N1432 N 0.55956 0.22693 0.79116
 C1433 C 1.08028 0.70769 0.79212
 N1434 N 1.08724 0.69504 0.78546
 N1435 N 1.10058 0.68934 0.79121
 C1436 C 1.10748 0.69614 0.80375
 N1437 N 1.10048 0.70872 0.81045
 N1438 N 1.08715 0.71441 0.80472
 C1439 C 1.06633 0.71481 0.78503
 N1440 N 1.06021 0.72820 0.79100
 N1441 N 1.04877 0.73574 0.78357
 C1442 C 1.04291 0.73007 0.77000
 N1443 N 1.04888 0.71658 0.76412
 N1444 N 1.06032 0.70903 0.77155
 C1445 C 1.08007 0.20749 0.29219
 N1446 N 1.08710 0.19491 0.28549
 N1447 N 1.10045 0.18923 0.29124
 C1448 C 1.10730 0.19598 0.30384
 N1449 N 1.10020 0.20847 0.31062
 N1450 N 1.08686 0.21414 0.30488
 C1451 C 1.06615 0.21463 0.28505
 N1452 N 1.05995 0.22797 0.29105
 N1453 N 1.04854 0.23553 0.28358
 C1454 C 1.04280 0.22993 0.26993
 N1455 N 1.04885 0.21649 0.26401
 N1456 N 1.06026 0.20892 0.27149
 C1457 C 0.58017 0.29231 0.70786
 N1458 N 0.58708 0.30496 0.71451
 N1459 N 0.60050 0.31057 0.70888
 C1460 C 0.60755 0.30368 0.69646
 N1461 N 0.60059 0.29111 0.68973
 N1462 N 0.58717 0.28550 0.69536
 C1463 C 0.56616 0.28526 0.71491
 N1464 N 0.56012 0.27180 0.70906
 N1465 N 0.54870 0.26429 0.71655
 C1466 C 0.54279 0.27008 0.73007
 N1467 N 0.54865 0.28365 0.73580
 N1468 N 0.56007 0.29117 0.72831
 C1469 C 0.58011 0.79261 0.20798
 N1470 N 0.58701 0.78584 0.19540
 N1471 N 0.60037 0.79147 0.18968
 C1472 C 0.60738 0.80403 0.19638
 N1473 N 0.60044 0.81088 0.20890
 N1474 N 0.58707 0.80524 0.21462
 C1475 C 0.56615 0.78555 0.21508
 N1476 N 0.56016 0.79137 0.22857
 N1477 N 0.54875 0.78386 0.23606
 C1478 C 0.54278 0.77037 0.23023
 N1479 N 0.54858 0.76467 0.21663
 N1480 N 0.56000 0.77218 0.20914
 C1481 C 1.08010 0.29270 0.20799
 N1482 N 1.08695 0.28597 0.19536
 N1483 N 1.10030 0.29161 0.18962
 C1484 C 1.10734 0.30414 0.19635
 N1485 N 1.10045 0.31094 0.20892
 N1486 N 1.08710 0.30528 0.21466
 C1487 C 1.06614 0.28563 0.21509
 N1488 N 1.06023 0.29138 0.22864
 N1489 N 1.04879 0.28387 0.23610
 C1490 C 1.04272 0.27046 0.23018
 N1491 N 1.04846 0.26483 0.21653
 N1492 N 1.05991 0.27233 0.20907
 C1493 C 1.08021 0.79259 0.70784
 N1494 N 1.08729 0.80509 0.71458
 N1495 N 1.10068 0.81068 0.70887
 C1496 C 1.10753 0.80390 0.69628
 N1497 N 1.10040 0.79147 0.68946
 N1498 N 1.08700 0.78589 0.69516
 C1499 C 1.06622 0.78561 0.71496
 N1500 N 1.05983 0.77239 0.70891
 N1501 N 1.04842 0.76492 0.71645
 C1502 C 1.04286 0.77051 0.73020
 N1503 N 1.04908 0.78384 0.73613
 N1504 N 1.06048 0.79131 0.72859
 C1505 C 0.41984 0.70759 0.70792
 N1506 N 0.41304 0.71425 0.69523
 N1507 N 0.39975 0.70854 0.68944
 C1508 C 0.39272 0.69599 0.69617
 N1509 N 0.39959 0.68923 0.70877
 N1510 N 0.41288 0.69495 0.71456
 C1511 C 0.43371 0.71476 0.71513
 N1512 N 0.43961 0.70900 0.72868
 N1513 N 0.45100 0.71653 0.73619
 C1514 C 0.45703 0.72999 0.73032
 N1515 N 0.45128 0.73565 0.71668
 N1516 N 0.43989 0.72813 0.70918
 C1517 C 0.41999 0.20732 0.20798
 N1518 N 0.41298 0.19472 0.21465
 N1519 N 0.39964 0.18909 0.20889
 C1520 C 0.39277 0.19590 0.19632
 N1521 N 0.39983 0.20843 0.18960
 N1522 N 0.41317 0.21406 0.19534
 C1523 C 0.43395 0.21438 0.21510
 N1524 N 0.44021 0.22768 0.20909
 N1525 N 0.45164 0.23516 0.21656
 C1526 C 0.45736 0.22950 0.23022
 N1527 N 0.45127 0.21609 0.23612
 N1528 N 0.43984 0.20861 0.22865
 C1529 C -0.08006 0.70730 0.20797
 N1530 N -0.08664 0.71376 0.19506
 N1531 N -0.09988 0.70802 0.18919
 C1532 C -0.10708 0.69564 0.19605
 N1533 N -0.10044 0.68908 0.20888
 N1534 N -0.08720 0.69483 0.21475
 C1535 C -0.06624 0.71449 0.21523
 N1536 N -0.06062 0.70894 0.22898
 N1537 N -0.04924 0.71648 0.23648
 C1538 C -0.04293 0.72971 0.23041
 N1539 N -0.04841 0.73517 0.21658
 N1540 N -0.05980 0.72764 0.20907
 C1541 C -0.08018 0.20744 0.70777
 N1542 N -0.08698 0.21413 0.69510
 N1543 N -0.10026 0.20841 0.68929
 C1544 C -0.10728 0.19585 0.69600
 N1545 N -0.10041 0.18906 0.70858
 N1546 N -0.08712 0.19478 0.71439
 C1547 C -0.06633 0.21460 0.71500
 N1548 N -0.06048 0.20884 0.72857
 N1549 N -0.04912 0.21637 0.73611
 C1550 C -0.04306 0.22981 0.73024
 N1551 N -0.04875 0.23547 0.71658
 N1552 N -0.06012 0.22795 0.70905
 C1553 C 0.29243 0.41975 0.29202
 N1554 N 0.30499 0.41268 0.28529
 N1555 N 0.31060 0.39930 0.29100
 C1556 C 0.30379 0.39244 0.30358
 N1557 N 0.29130 0.39955 0.31036
 N1558 N 0.28570 0.41293 0.30466
 C1559 C 0.28541 0.43376 0.28495
 N1560 N 0.27211 0.44004 0.29098
 N1561 N 0.26464 0.45152 0.28354
 C1562 C 0.27030 0.45725 0.26990
 N1563 N 0.28371 0.45114 0.26397
 N1564 N 0.29119 0.43967 0.27141
 C1565 C 0.29282 -0.08078 0.79210
 N1566 N 0.30537 -0.08782 0.78536
 N1567 N 0.31099 -0.10121 0.79104
 C1568 C 0.30420 -0.10813 0.80361
 N1569 N 0.29170 -0.10103 0.81040
 N1570 N 0.28609 -0.08763 0.80473
 C1571 C 0.28581 -0.06674 0.78507
 N1572 N 0.27254 -0.06043 0.79112
 N1573 N 0.26507 -0.04894 0.78369
 C1574 C 0.27072 -0.04321 0.77004
 N1575 N 0.28412 -0.04935 0.76410
 N1576 N 0.29159 -0.06083 0.77153
 C1577 C 0.79247 0.41964 0.79242
 N1578 N 0.80506 0.41261 0.78573
 N1579 N 0.81069 0.39924 0.79144
 C1580 C 0.80387 0.39233 0.80400
 N1581 N 0.79135 0.39944 0.81076
 N1582 N 0.78574 0.41281 0.80505
 C1583 C 0.78541 0.43360 0.78529
 N1584 N 0.77207 0.43986 0.79126
 N1585 N 0.76460 0.45130 0.78376
 C1586 C 0.77030 0.45702 0.77013
 N1587 N 0.78374 0.45092 0.76426
 N1588 N 0.79122 0.43948 0.77176
 C1589 C 0.79251 -0.08059 0.29230
 N1590 N 0.80512 -0.08761 0.28565
 N1591 N 0.81074 -0.10098 0.29140
 C1592 C 0.80389 -0.10788 0.30395
 N1593 N 0.79133 -0.10079 0.31064
 N1594 N 0.78572 -0.08742 0.30490
 C1595 C 0.78551 -0.06657 0.28520
 N1596 N 0.77219 -0.06029 0.29119
 N1597 N 0.76475 -0.04880 0.28374
 C1598 C 0.77047 -0.04303 0.27013
 N1599 N 0.78390 -0.04915 0.26424
 N1600 N 0.79134 -0.06064 0.27169
 C1601 C 0.29252 0.58007 0.70777
 N1602 N 0.30513 0.58705 0.71445
 N1603 N 0.31083 0.60036 0.70868
 C1604 C 0.30409 0.60721 0.69606
 N1605 N 0.29158 0.60016 0.68929
 N1606 N 0.28588 0.58686 0.69506
 C1607 C 0.28537 0.56618 0.71495
 N1608 N 0.27205 0.55995 0.70895
 N1609 N 0.26454 0.54852 0.71643
 C1610 C 0.27019 0.54279 0.73008
 N1611 N 0.28360 0.54888 0.73599
 N1612 N 0.29111 0.56029 0.72852
 C1613 C 0.29267 1.08004 0.20789
 N1614 N 0.30530 1.08700 0.21455
 N1615 N 0.31097 1.10035 0.20882
 C1616 C 0.30415 1.10727 0.19628
 N1617 N 0.29160 1.10025 0.18955
 N1618 N 0.28595 1.08691 0.19527
 C1619 C 0.28555 1.06612 0.21501
 N1620 N 0.27214 1.06002 0.20907
 N1621 N 0.26461 1.04862 0.21656
 C1622 C 0.27031 1.04279 0.23014
 N1623 N 0.28382 1.04872 0.23597
 N1624 N 0.29136 1.06012 0.22849
 C1625 C 0.79263 0.57991 0.20769
 N1626 N 0.80533 0.58679 0.21429
 N1627 N 0.81100 0.60015 0.20858
 C1628 C 0.80413 0.60715 0.19612
 N1629 N 0.79154 0.60018 0.18941
 N1630 N 0.78587 0.58683 0.19512
 C1631 C 0.78544 0.56603 0.21486
 N1632 N 0.77194 0.56004 0.20901
 N1633 N 0.76436 0.54869 0.21654
 C1634 C 0.77009 0.54280 0.23008
 N1635 N 0.78368 0.54864 0.23584
 N1636 N 0.79127 0.55998 0.22831
 C1637 C 0.79254 1.07999 0.70770
 N1638 N 0.80525 1.08688 0.71427
 N1639 N 0.81100 1.10015 0.70845
 C1640 C 0.80419 1.10707 0.69590
 N1641 N 0.79160 1.10009 0.68922
 N1642 N 0.78585 1.08682 0.69503
 C1643 C 0.78528 1.06621 0.71498
 N1644 N 0.77180 1.06018 0.70913
 N1645 N 0.76421 1.04888 0.71671
 C1646 C 0.76991 1.04309 0.73031
 N1647 N 0.78348 1.04897 0.73607
 N1648 N 0.79108 1.06027 0.72849
 C1649 C 0.70711 0.58017 0.29192
 N1650 N 0.71339 0.58640 0.30508
 N1651 N 0.70793 0.59980 0.31088
 C1652 C 0.69606 0.60752 0.30368
 N1653 N 0.68968 0.60124 0.29060
 N1654 N 0.69515 0.58784 0.28480
 C1655 C 0.71407 0.56617 0.28476
 N1656 N 0.70892 0.56100 0.27069
 N1657 N 0.71646 0.54959 0.26323
 C1658 C 0.72930 0.54278 0.26964
 N1659 N 0.73431 0.54776 0.28382
 N1660 N 0.72678 0.55919 0.29128
 C1661 C 0.70705 1.08056 0.79205
 N1662 N 0.71349 1.08694 0.80504
 N1663 N 0.70802 1.10034 0.81083
 C1664 C 0.69594 1.10792 0.80380
 N1665 N 0.68944 1.10149 0.79083
 N1666 N 0.69493 1.08809 0.78504
 C1667 C 0.71400 1.06655 0.78490
 N1668 N 0.70871 1.06122 0.77095
 N1669 N 0.71620 1.04976 0.76351
 C1670 C 0.72913 1.04305 0.76986
 N1671 N 0.73429 1.04820 0.78392
 N1672 N 0.72681 1.05968 0.79135
 C1673 C 0.20750 0.58016 0.79212
 N1674 N 0.21423 0.58695 0.80475
 N1675 N 0.20859 0.60029 0.81050
 C1676 C 0.19605 0.60737 0.80378
 N1677 N 0.18925 0.60053 0.79120
 N1678 N 0.19490 0.58719 0.78544
 C1679 C 0.21456 0.56621 0.78500
 N1680 N 0.20879 0.56032 0.77147
 N1681 N 0.21629 0.54888 0.76400
 C1682 C 0.22972 0.54279 0.76990
 N1683 N 0.23539 0.54852 0.78353
 N1684 N 0.22789 0.55997 0.79099
 C1685 C 0.20748 1.08012 0.29214
 N1686 N 0.21418 1.08691 0.30481
 N1687 N 0.20857 1.10027 0.31052
 C1688 C 0.19609 1.10740 0.30374
 N1689 N 0.18931 1.10057 0.29115
 N1690 N 0.19493 1.08720 0.28543
 C1691 C 0.21455 1.06616 0.28504
 N1692 N 0.20883 1.06030 0.27147
 N1693 N 0.21637 1.04888 0.26400
 C1694 C 0.22978 1.04278 0.26993
 N1695 N 0.23539 1.04847 0.28360
 N1696 N 0.22786 1.05989 0.29107
 C1697 C 0.70761 0.41970 0.70815
 N1698 N 0.71413 0.41310 0.69528
 N1699 N 0.70848 0.39978 0.68950
 C1700 C 0.69616 0.39253 0.69641
 N1701 N 0.68956 0.39918 0.70921
 N1702 N 0.69522 0.41250 0.71500
 C1703 C 0.71466 0.43364 0.71528
 N1704 N 0.70909 0.43927 0.72902
 N1705 N 0.71659 0.45070 0.73648
 C1706 C 0.72979 0.45706 0.73037
 N1707 N 0.73524 0.45158 0.71653
 N1708 N 0.72776 0.44014 0.70908
 C1709 C 0.70764 -0.08024 0.20810
 N1710 N 0.69501 -0.08720 0.21477
 N1711 N 0.68932 -0.10052 0.20901
 C1712 C 0.69611 -0.10741 0.19644
 N1713 N 0.70867 -0.10039 0.18971
 N1714 N 0.71435 -0.08708 0.19545
 C1715 C 0.71477 -0.06632 0.21523
 N1716 N 0.72814 -0.06017 0.20925
 N1717 N 0.73568 -0.04877 0.21671
 C1718 C 0.73001 -0.04298 0.23033
 N1719 N 0.71653 -0.04897 0.23621
 N1720 N 0.70899 -0.06037 0.22874
 C1721 C 0.20746 0.41999 0.20791
 N1722 N 0.21419 0.41314 0.19528
 N1723 N 0.20852 0.39981 0.18955
 C1724 C 0.19597 0.39279 0.19627
 N1725 N 0.18915 0.39969 0.20883
 N1726 N 0.19482 0.41302 0.21457
 C1727 C 0.21458 0.43391 0.21503
 N1728 N 0.20879 0.43989 0.22853
 N1729 N 0.21633 0.45130 0.23598
 C1730 C 0.22982 0.45727 0.23010
 N1731 N 0.23550 0.45144 0.21651
 N1732 N 0.22797 0.44003 0.20906
 C1733 C 0.20780 -0.08027 0.70784
 N1734 N 0.19517 -0.08723 0.71451
 N1735 N 0.18948 -0.10055 0.70878
 C1736 C 0.19628 -0.10745 0.69622
 N1737 N 0.20881 -0.10043 0.68946
 N1738 N 0.21450 -0.08711 0.69519
 C1739 C 0.21494 -0.06640 0.71501
 N1740 N 0.22833 -0.06025 0.70907
 N1741 N 0.23589 -0.04892 0.71660
 C1742 C 0.23024 -0.04321 0.73026
 N1743 N 0.21675 -0.04920 0.73611
 N1744 N 0.20918 -0.06053 0.72857
 C1745 C 0.29227 0.29226 0.42012
 N1746 N 0.30493 0.28556 0.41323
 N1747 N 0.31062 0.29125 0.39991
 C1748 C 0.30380 0.30379 0.39295
 N1749 N 0.29122 0.31058 0.39990
 N1750 N 0.28554 0.30489 0.41322
 C1751 C 0.28517 0.28515 0.43403
 N1752 N 0.27169 0.29104 0.44007
 N1753 N 0.26420 0.28354 0.45147
 C1754 C 0.27002 0.27000 0.45738
 N1755 N 0.28359 0.26421 0.45149
 N1756 N 0.29108 0.27171 0.44008
 C1757 C 0.29256 0.79239 -0.08027
 N1758 N 0.30525 0.78573 -0.08716
 N1759 N 0.31094 0.79146 -0.10046
 C1760 C 0.30412 0.80401 -0.10741
 N1761 N 0.29150 0.81074 -0.10048
 N1762 N 0.28580 0.80501 -0.08717
 C1763 C 0.28549 0.78526 -0.06634
 N1764 N 0.27204 0.79115 -0.06023
 N1765 N 0.26461 0.78365 -0.04878
 C1766 C 0.27046 0.77011 -0.04289
 N1767 N 0.28399 0.76432 -0.04886
 N1768 N 0.29143 0.77181 -0.06031
 C1769 C 0.79207 0.29272 -0.08005
 N1770 N 0.80476 0.28606 -0.08693
 N1771 N 0.81046 0.29180 -0.10022
 C1772 C 0.80364 0.30436 -0.10716
 N1773 N 0.79103 0.31109 -0.10022
 N1774 N 0.78532 0.30535 -0.08693
 C1775 C 0.78496 0.28557 -0.06615
 N1776 N 0.77145 0.29140 -0.06014
 N1777 N 0.76398 0.28389 -0.04873
 C1778 C 0.76986 0.27039 -0.04278
 N1779 N 0.78347 0.26466 -0.04864
 N1780 N 0.79094 0.27217 -0.06006
 C1781 C 0.79211 0.79263 0.42006
 N1782 N 0.80481 0.78597 0.41320
 N1783 N 0.81049 0.79166 0.39987
 C1784 C 0.80363 0.80417 0.39288
 N1785 N 0.79101 0.81090 0.39979
 N1786 N 0.78533 0.80521 0.41312
 C1787 C 0.78501 0.78551 0.43396
 N1788 N 0.77148 0.79132 0.43994
 N1789 N 0.76402 0.78383 0.45137
 C1790 C 0.76993 0.77038 0.45737
 N1791 N 0.78356 0.76466 0.45155
 N1792 N 0.79102 0.77215 0.44011
 C1793 C 0.70747 0.29210 0.57997
 N1794 N 0.69506 0.28525 0.58715
 N1795 N 0.68937 0.29107 0.60041
 C1796 C 0.69593 0.30391 0.60704
 N1797 N 0.70825 0.31084 0.59981
 N1798 N 0.71394 0.30502 0.58654
 C1799 C 0.71457 0.28488 0.56609
 N1800 N 0.72774 0.29100 0.55965
 N1801 N 0.73519 0.28350 0.54820
 C1802 C 0.72962 0.26971 0.54266
 N1803 N 0.71637 0.26368 0.54898
 N1804 N 0.70891 0.27117 0.56041
 C1805 C 0.70765 0.79234 1.08002
 N1806 N 0.69507 0.78560 1.08698
 N1807 N 0.68940 0.79128 1.10031
 C1808 C 0.69617 0.80386 1.10721
 N1809 N 0.70867 0.81070 1.10019
 N1810 N 0.71433 0.80501 1.08685
 C1811 C 0.71476 0.78523 1.06611
 N1812 N 0.72817 0.79115 1.06000
 N1813 N 0.73566 0.78366 1.04859
 C1814 C 0.72990 0.77008 1.04275
 N1815 N 0.71639 0.76426 1.04871
 N1816 N 0.70890 0.77174 1.06013
 C1817 C 0.20766 0.29237 1.08000
 N1818 N 0.21438 0.30500 1.08687
 N1819 N 0.20871 0.31069 1.10019
 C1820 C 0.19616 0.30392 1.10717
 N1821 N 0.18935 0.29137 1.10024
 N1822 N 0.19502 0.28568 1.08692
 C1823 C 0.21476 0.28525 1.06610
 N1824 N 0.20883 0.27184 1.06003
 N1825 N 0.21631 0.26434 1.04862
 C1826 C 0.22990 0.27008 1.04274
 N1827 N 0.23574 0.28358 1.04867
 N1828 N 0.22826 0.29108 1.06008
 C1829 C 0.20768 0.79260 0.57979
 N1830 N 0.19499 0.78592 0.58664
 N1831 N 0.18927 0.79160 0.59995
 C1832 C 0.19607 0.80411 0.60694
 N1833 N 0.20867 0.81087 0.60004
 N1834 N 0.21440 0.80519 0.58674
 C1835 C 0.21484 0.78551 0.56590
 N1836 N 0.22838 0.79133 0.55998
 N1837 N 0.23592 0.78385 0.54859
 C1838 C 0.23008 0.77039 0.54257
 N1839 N 0.21644 0.76466 0.54834
 N1840 N 0.20891 0.77214 0.55974
 C1841 C 0.29233 0.70787 0.57999
 N1842 N 0.28563 0.69521 0.58684
 N1843 N 0.29125 0.68952 0.60019
 C1844 C 0.30374 0.69634 0.60723
 N1845 N 0.31051 0.70894 0.60034
 N1846 N 0.30488 0.71462 0.58699
 C1847 C 0.28530 0.71498 0.56603
 N1848 N 0.29118 0.72848 0.56007
 N1849 N 0.28374 0.73598 0.54863
 C1850 C 0.27028 0.73015 0.54259
 N1851 N 0.26451 0.71655 0.54839
 N1852 N 0.27194 0.70905 0.55984
 C1853 C 0.29239 0.20761 1.07998
 N1854 N 0.30500 0.21435 1.08688
 N1855 N 0.31070 0.20868 1.10021
 C1856 C 0.30394 0.19611 1.10716
 N1857 N 0.29141 0.18929 1.10020
 N1858 N 0.28571 0.19497 1.08688
 C1859 C 0.28526 0.21471 1.06609
 N1860 N 0.27180 0.20882 1.06007
 N1861 N 0.26428 0.21630 1.04867
 C1862 C 0.27007 0.22984 1.04274
 N1863 N 0.28362 0.23564 1.04861
 N1864 N 0.29114 0.22816 1.06001
 C1865 C 0.79219 0.70750 1.08004
 N1866 N 0.80506 0.71400 1.08669
 N1867 N 0.81078 0.70836 1.10001
 C1868 C 0.80379 0.69606 1.10722
 N1869 N 0.79099 0.68948 1.10052
 N1870 N 0.78527 0.69513 1.08720
 C1871 C 0.78505 0.71458 1.06614
 N1872 N 0.77134 0.70897 1.06042
 N1873 N 0.76387 0.71647 1.04901
 C1874 C 0.76994 0.72972 1.04275
 N1875 N 0.78374 0.73524 1.04832
 N1876 N 0.79122 0.72775 1.05974
 C1877 C 0.79226 0.20744 0.57987
 N1878 N 0.80491 0.21417 0.58672
 N1879 N 0.81057 0.20857 0.60009
 C1880 C 0.80373 0.19610 0.60714
 N1881 N 0.79116 0.18930 0.60025
 N1882 N 0.78550 0.19490 0.58688
 C1883 C 0.78514 0.21447 0.56593
 N1884 N 0.77158 0.20866 0.56005
 N1885 N 0.76405 0.21613 0.54865
 C1886 C 0.76992 0.22956 0.54258
 N1887 N 0.78358 0.23527 0.54829
 N1888 N 0.79111 0.22781 0.55970
 C1889 C 0.70751 0.70788 0.42025
 N1890 N 0.71405 0.69500 0.41362
 N1891 N 0.70835 0.68920 0.40036
 C1892 C 0.69596 0.69611 0.39321
 N1893 N 0.68936 0.70892 0.39988
 N1894 N 0.69505 0.71472 0.41314
 C1895 C 0.71461 0.71507 0.43410
 N1896 N 0.70893 0.72875 0.43982
 N1897 N 0.71642 0.73626 0.45120
 C1898 C 0.72974 0.73025 0.45741
 N1899 N 0.73533 0.71647 0.45184
 N1900 N 0.72784 0.70897 0.44045
 C1901 C 0.70763 0.20769 -0.07998
 N1902 N 0.71418 0.19479 -0.08656
 N1903 N 0.70849 0.18893 -0.09980
 C1904 C 0.69608 0.19580 -0.10698
 N1905 N 0.68947 0.20862 -0.10035
 N1906 N 0.69516 0.21448 -0.08712
 C1907 C 0.71469 0.21493 -0.06613
 N1908 N 0.70900 0.22865 -0.06049
 N1909 N 0.71644 0.23619 -0.04910
 C1910 C 0.72972 0.23019 -0.04279
 N1911 N 0.73532 0.21639 -0.04828
 N1912 N 0.72789 0.20884 -0.05969
 C1913 C 0.20786 0.70767 -0.07996
 N1914 N 0.19521 0.71438 -0.08684
 N1915 N 0.18949 0.70869 -0.10014
 C1916 C 0.19629 0.69613 -0.10709
 N1917 N 0.20885 0.68933 -0.10015
 N1918 N 0.21457 0.69502 -0.08685
 C1919 C 0.21502 0.71480 -0.06611
 N1920 N 0.22851 0.70890 -0.06010
 N1921 N 0.23604 0.71640 -0.04874
 C1922 C 0.23026 0.72996 -0.04285
 N1923 N 0.21669 0.73576 -0.04871
 N1924 N 0.20915 0.72827 -0.06008
 C1925 C 0.20769 0.20764 0.42010
 N1926 N 0.19505 0.21436 0.41320
 N1927 N 0.18940 0.20871 0.39986
 C1928 C 0.19624 0.19618 0.39289
 N1929 N 0.20881 0.18940 0.39984
 N1930 N 0.21446 0.19505 0.41318
 C1931 C 0.21475 0.21470 0.43404
 N1932 N 0.22822 0.20882 0.44007
 N1933 N 0.23570 0.21630 0.45148
 C1934 C 0.22986 0.22983 0.45739
 N1935 N 0.21629 0.23561 0.45152
 N1936 N 0.20881 0.22813 0.44011
 C1937 C 0.29230 0.41979 0.70780
 N1938 N 0.30485 0.41272 0.71452
 N1939 N 0.31044 0.39933 0.70882
 C1940 C 0.30363 0.39247 0.69627
 N1941 N 0.29115 0.39958 0.68948
 N1942 N 0.28556 0.41298 0.69517
 C1943 C 0.28528 0.43376 0.71492
 N1944 N 0.27196 0.44005 0.70894
 N1945 N 0.26448 0.45147 0.71646
 C1946 C 0.27015 0.45713 0.73012
 N1947 N 0.28356 0.45098 0.73600
 N1948 N 0.29105 0.43957 0.72848
 C1949 C 0.29261 0.92004 0.20759
 N1950 N 0.28580 0.91314 0.19506
 N1951 N 0.29146 0.89980 0.18933
 C1952 C 0.30409 0.89283 0.19596
 N1953 N 0.31099 0.89978 0.20843
 N1954 N 0.30532 0.91312 0.21417
 C1955 C 0.28546 0.93393 0.21473
 N1956 N 0.29135 0.94002 0.22812
 N1957 N 0.28377 0.95139 0.23562
 C1958 C 0.27013 0.95718 0.22991
 N1959 N 0.26434 0.95125 0.21642
 N1960 N 0.27192 0.93989 0.20892
 C1961 C 0.79251 0.41998 0.20770
 N1962 N 0.80509 0.41292 0.21437
 N1963 N 0.81070 0.39956 0.20862
 C1964 C 0.80388 0.39273 0.19606
 N1965 N 0.79138 0.39985 0.18931
 N1966 N 0.78577 0.41321 0.19505
 C1967 C 0.78544 0.43388 0.21490
 N1968 N 0.77208 0.44014 0.20899
 N1969 N 0.76458 0.45151 0.21656
 C1970 C 0.77028 0.45716 0.23021
 N1971 N 0.78372 0.45104 0.23604
 N1972 N 0.79123 0.43967 0.22847
 C1973 C 0.79248 0.92018 0.70800
 N1974 N 0.78578 0.91342 0.69531
 N1975 N 0.79147 0.90012 0.68950
 C1976 C 0.80401 0.89304 0.69619
 N1977 N 0.81080 0.89985 0.70880
 N1978 N 0.80511 0.91315 0.71462
 C1979 C 0.78536 0.93408 0.71520
 N1980 N 0.79113 0.93994 0.72874
 N1981 N 0.78362 0.95134 0.73626
 C1982 C 0.77017 0.95743 0.73040
 N1983 N 0.76449 0.95172 0.71677
 N1984 N 0.77200 0.94031 0.70925
 C1985 C 0.70761 0.58012 0.70811
 N1986 N 0.71432 0.58693 0.69546
 N1987 N 0.70865 0.60026 0.68970
 C1988 C 0.69611 0.60732 0.69643
 N1989 N 0.68932 0.60046 0.70902
 N1990 N 0.69500 0.58713 0.71479
 C1991 C 0.71470 0.56616 0.71522
 N1992 N 0.70894 0.56024 0.72875
 N1993 N 0.71646 0.54879 0.73619
 C1994 C 0.72989 0.54272 0.73026
 N1995 N 0.73555 0.54849 0.71664
 N1996 N 0.72803 0.55994 0.70919
 C1997 C 0.70762 0.07971 0.20763
 N1998 N 0.69492 0.08665 0.21421
 N1999 N 0.68918 0.09992 0.20837
 C2000 C 0.69599 0.10678 0.19579
 N2001 N 0.70858 0.09975 0.18911
 N2002 N 0.71431 0.08649 0.19495
 C2003 C 0.71480 0.06588 0.21489
 N2004 N 0.72822 0.05973 0.20899
 N2005 N 0.73577 0.04838 0.21656
 C2006 C 0.73007 0.04266 0.23019
 N2007 N 0.71656 0.04868 0.23600
 N2008 N 0.70901 0.06002 0.22843
 C2009 C 0.20733 0.58005 0.20769
 N2010 N 0.21405 0.58684 0.19502
 N2011 N 0.20838 0.60016 0.18924
 C2012 C 0.19583 0.60722 0.19595
 N2013 N 0.18902 0.60038 0.20854
 N2014 N 0.19469 0.58705 0.21432
 C2015 C 0.21450 0.56619 0.21490
 N2016 N 0.20874 0.56031 0.22846
 N2017 N 0.21630 0.54893 0.23597
 C2018 C 0.22977 0.54290 0.23010
 N2019 N 0.23543 0.54864 0.21646
 N2020 N 0.22788 0.56002 0.20895
 C2021 C 0.20751 0.07974 0.70808
 N2022 N 0.19490 0.08675 0.71476
 N2023 N 0.18917 0.10005 0.70896
 C2024 C 0.19590 0.10687 0.69632
 N2025 N 0.20843 0.09980 0.68957
 N2026 N 0.21415 0.08650 0.69536
 C2027 C 0.21467 0.06583 0.71525
 N2028 N 0.22798 0.05958 0.70922
 N2029 N 0.23552 0.04816 0.71669
 C2030 C 0.22992 0.04246 0.73037
 N2031 N 0.21651 0.04856 0.73632
 N2032 N 0.20896 0.05997 0.72884
 C2033 C 0.29250 0.58020 0.29201
 N2034 N 0.28577 0.58704 0.30464
 N2035 N 0.29141 0.60038 0.31035
 C2036 C 0.30394 0.60741 0.30360
 N2037 N 0.31075 0.60052 0.29104
 N2038 N 0.30510 0.58718 0.28532
 C2039 C 0.28542 0.56626 0.28493
 N2040 N 0.29120 0.56031 0.27142
 N2041 N 0.28368 0.54888 0.26398
 C2042 C 0.27023 0.54287 0.26989
 N2043 N 0.26456 0.54866 0.28351
 N2044 N 0.27207 0.56009 0.29094
 C2045 C 0.29250 0.07995 0.79219
 N2046 N 0.30510 0.08695 0.78550
 N2047 N 0.31072 0.10030 0.79123
 C2048 C 0.30389 0.10718 0.80378
 N2049 N 0.29135 0.10014 0.81051
 N2050 N 0.28573 0.08679 0.80479
 C2051 C 0.28547 0.06596 0.78512
 N2052 N 0.27214 0.05976 0.79113
 N2053 N 0.26468 0.04828 0.78372
 C2054 C 0.27041 0.04245 0.77014
 N2055 N 0.28385 0.04849 0.76424
 N2056 N 0.29131 0.05998 0.77165
 C2057 C 0.79265 0.57999 0.79232
 N2058 N 0.78598 0.58678 0.80501
 N2059 N 0.79170 0.60006 0.81080
 C2060 C 0.80425 0.60708 0.80408
 N2061 N 0.81101 0.60024 0.79146
 N2062 N 0.80528 0.58695 0.78567
 C2063 C 0.78552 0.56609 0.78515
 N2064 N 0.79129 0.56021 0.77160
 N2065 N 0.78379 0.54880 0.76412
 C2066 C 0.77037 0.54271 0.77002
 N2067 N 0.76469 0.54845 0.78365
 N2068 N 0.77218 0.55987 0.79114
 C2069 C 0.79278 0.07985 0.29227
 N2070 N 0.80538 0.08684 0.28558
 N2071 N 0.81109 0.10013 0.29136
 C2072 C 0.80433 0.10696 0.30399
 N2073 N 0.79181 0.09991 0.31074
 N2074 N 0.78611 0.08662 0.30497
 C2075 C 0.78566 0.06598 0.28510
 N2076 N 0.77237 0.05971 0.29114
 N2077 N 0.76487 0.04830 0.28367
 C2078 C 0.77050 0.04262 0.26999
 N2079 N 0.78388 0.04875 0.26404
 N2080 N 0.79138 0.06016 0.27151
 C2081 C 0.70744 0.41993 0.29231
 N2082 N 0.71410 0.41310 0.30498
 N2083 N 0.70838 0.39980 0.31073
 C2084 C 0.69585 0.39279 0.30397
 N2085 N 0.68910 0.39968 0.29138
 N2086 N 0.69482 0.41298 0.28562
 C2087 C 0.71459 0.43381 0.28516
 N2088 N 0.70887 0.43969 0.27159
 N2089 N 0.71642 0.45108 0.26411
 C2090 C 0.72983 0.45714 0.27004
 N2091 N 0.73545 0.45141 0.28370
 N2092 N 0.72791 0.44001 0.29118
 C2093 C 0.70742 0.92007 0.79244
 N2094 N 0.71415 0.91320 0.80506
 N2095 N 0.70853 0.89983 0.81074
 C2096 C 0.69603 0.89278 0.80396
 N2097 N 0.68923 0.89970 0.79141
 N2098 N 0.69485 0.91308 0.78573
 C2099 C 0.71451 0.93400 0.78533
 N2100 N 0.70874 0.93992 0.77180
 N2101 N 0.71625 0.95134 0.76433
 C2102 C 0.72969 0.95738 0.77022
 N2103 N 0.73536 0.95161 0.78384
 N2104 N 0.72785 0.94018 0.79131
 C2105 C 0.20737 0.41980 0.79210
 N2106 N 0.19477 0.41282 0.78541
 N2107 N 0.18908 0.39950 0.79117
 C2108 C 0.19585 0.39262 0.80376
 N2109 N 0.20839 0.39964 0.81049
 N2110 N 0.21407 0.41297 0.80475
 C2111 C 0.21447 0.43375 0.78500
 N2112 N 0.22782 0.43992 0.79101
 N2113 N 0.23534 0.45135 0.78356
 C2114 C 0.22969 0.45715 0.76994
 N2115 N 0.21625 0.45113 0.76403
 N2116 N 0.20872 0.43971 0.77148
 C2117 C 0.20697 0.92000 0.29174
 N2118 N 0.21325 0.91366 0.30485
 N2119 N 0.20772 0.90028 0.31062
 C2120 C 0.19576 0.89272 0.30344
 N2121 N 0.18939 0.89912 0.29040
 N2122 N 0.19493 0.91249 0.28463
 C2123 C 0.21401 0.93393 0.28458
 N2124 N 0.20886 0.93917 0.27054
 N2125 N 0.21647 0.95052 0.26306
 C2126 C 0.22937 0.95718 0.26946
 N2127 N 0.23439 0.95213 0.28361
 N2128 N 0.22680 0.94076 0.29108
 C2129 C 0.41968 0.29231 0.70790
 N2130 N 0.41285 0.28558 0.69527
 N2131 N 0.39947 0.29120 0.68957
 C2132 C 0.39238 0.30370 0.69633
 N2133 N 0.39926 0.31051 0.70888
 N2134 N 0.41264 0.30488 0.71459
 C2135 C 0.43365 0.28526 0.71504
 N2136 N 0.43953 0.29106 0.72856
 N2137 N 0.45095 0.28358 0.73608
 C2138 C 0.45705 0.27013 0.73025
 N2139 N 0.45132 0.26443 0.71663
 N2140 N 0.43989 0.27190 0.70911
 C2141 C 0.41989 0.79269 0.20784
 N2142 N 0.41290 0.80534 0.21446
 N2143 N 0.39956 0.81100 0.20869
 C2144 C 0.39268 0.80416 0.19615
 N2145 N 0.39972 0.79159 0.18948
 N2146 N 0.41305 0.78593 0.19524
 C2147 C 0.43380 0.78557 0.21500
 N2148 N 0.43990 0.77213 0.20911
 N2149 N 0.45129 0.76459 0.21662
 C2150 C 0.45712 0.77031 0.23018
 N2151 N 0.45118 0.78385 0.23597
 N2152 N 0.43978 0.79139 0.22847
 C2153 C 0.91980 0.29255 0.20768
 N2154 N 0.91293 0.28578 0.19510
 N2155 N 0.89955 0.29139 0.18940
 C2156 C 0.89249 0.30392 0.19613
 N2157 N 0.89940 0.31077 0.20864
 N2158 N 0.91279 0.30516 0.21434
 C2159 C 0.93373 0.28547 0.21483
 N2160 N 0.93964 0.29129 0.22834
 N2161 N 0.95103 0.28376 0.23587
 C2162 C 0.95704 0.27027 0.23006
 N2163 N 0.95129 0.26456 0.21646
 N2164 N 0.93990 0.27207 0.20893
 C2165 C 0.91987 0.79275 0.70784
 N2166 N 0.91304 0.78603 0.69522
 N2167 N 0.89969 0.79170 0.68948
 C2168 C 0.89265 0.80425 0.69620
 N2169 N 0.89954 0.81105 0.70876
 N2170 N 0.91288 0.80537 0.71450
 C2171 C 0.93381 0.78563 0.71496
 N2172 N 0.93975 0.79141 0.72848
 N2173 N 0.95116 0.78386 0.73596
 C2174 C 0.95717 0.77039 0.73010
 N2175 N 0.95140 0.76473 0.71649
 N2176 N 0.93999 0.77226 0.70900
 C2177 C 0.58022 0.29248 0.29211
 N2178 N 0.58703 0.28583 0.30480
 N2179 N 0.60029 0.29158 0.31059
 C2180 C 0.60729 0.30415 0.30387
 N2181 N 0.60042 0.31088 0.29126
 N2182 N 0.58715 0.30513 0.28545
 C2183 C 0.56635 0.28531 0.28494
 N2184 N 0.56045 0.29104 0.27139
 N2185 N 0.54905 0.28351 0.26392
 C2186 C 0.54301 0.27008 0.26985
 N2187 N 0.54876 0.26445 0.28349
 N2188 N 0.56017 0.27198 0.29096
 C2189 C 0.58006 0.79277 0.79234
 N2190 N 0.58688 0.78608 0.80501
 N2191 N 0.60021 0.79174 0.81075
 C2192 C 0.60727 0.80425 0.80399
 N2193 N 0.60040 0.81103 0.79140
 N2194 N 0.58706 0.80536 0.78565
 C2195 C 0.56617 0.78564 0.78517
 N2196 N 0.56025 0.79140 0.77162
 N2197 N 0.54884 0.78388 0.76415
 C2198 C 0.54279 0.77044 0.77005
 N2199 N 0.54857 0.76477 0.78367
 N2200 N 0.55999 0.77228 0.79114
 C2201 C 0.08001 0.29248 0.79213
 N2202 N 0.08684 0.28578 0.80478
 N2203 N 0.10017 0.29146 0.81052
 C2204 C 0.10720 0.30400 0.80379
 N2205 N 0.10032 0.31077 0.79119
 N2206 N 0.08699 0.30508 0.78544
 C2207 C 0.06606 0.28539 0.78503
 N2208 N 0.06011 0.29115 0.77151
 N2209 N 0.04867 0.28363 0.76407
 C2210 C 0.04265 0.27020 0.76999
 N2211 N 0.04844 0.26454 0.78361
 N2212 N 0.05988 0.27205 0.79105
 C2213 C 0.08004 0.79302 0.29179
 N2214 N 0.08663 0.78648 0.30466
 N2215 N 0.10008 0.79195 0.31032
 C2216 C 0.10748 0.80410 0.30328
 N2217 N 0.10083 0.81074 0.29050
 N2218 N 0.08738 0.80527 0.28483
 C2219 C 0.06605 0.78601 0.28470
 N2220 N 0.06051 0.79142 0.27086
 N2221 N 0.04915 0.78382 0.26339
 C2222 C 0.04277 0.77068 0.26958
 N2223 N 0.04811 0.76541 0.28354
 N2224 N 0.05949 0.77299 0.29100
 C2225 C 0.58020 0.70759 0.70818
 N2226 N 0.58703 0.71427 0.69552
 N2227 N 0.60035 0.70858 0.68975
 C2228 C 0.60739 0.69603 0.69648
 N2229 N 0.60052 0.68926 0.70908
 N2230 N 0.58719 0.69497 0.71485
 C2231 C 0.56625 0.71471 0.71529
 N2232 N 0.56028 0.70895 0.72881
 N2233 N 0.54883 0.71649 0.73625
 C2234 C 0.54279 0.72993 0.73033
 N2235 N 0.54860 0.73558 0.71672
 N2236 N 0.56006 0.72806 0.70928
 C2237 C 0.58023 0.20715 0.20771
 N2238 N 0.58705 0.21385 0.19505
 N2239 N 0.60033 0.20811 0.18924
 C2240 C 0.60733 0.19551 0.19591
 N2241 N 0.60044 0.18871 0.20848
 N2242 N 0.58715 0.19445 0.21430
 C2243 C 0.56636 0.21433 0.21491
 N2244 N 0.56042 0.20853 0.22843
 N2245 N 0.54904 0.21608 0.23595
 C2246 C 0.54307 0.22960 0.23014
 N2247 N 0.54886 0.23530 0.21653
 N2248 N 0.56024 0.22775 0.20901
 C2249 C 0.08005 0.70753 0.20770
 N2250 N 0.08697 0.71434 0.19515
 N2251 N 0.10031 0.70866 0.18941
 C2252 C 0.10727 0.69602 0.19604
 N2253 N 0.10030 0.68913 0.20851
 N2254 N 0.08695 0.69481 0.21427
 C2255 C 0.06615 0.71469 0.21486
 N2256 N 0.06004 0.70881 0.22827
 N2257 N 0.04863 0.71636 0.23575
 C2258 C 0.04280 0.72997 0.23000
 N2259 N 0.04875 0.73575 0.21651
 N2260 N 0.06015 0.72820 0.20902
 C2261 C 0.07998 0.20728 0.70802
 N2262 N 0.08696 0.19466 0.71471
 N2263 N 0.10030 0.18895 0.70896
 C2264 C 0.10719 0.19571 0.69638
 N2265 N 0.10015 0.20825 0.68962
 N2266 N 0.08682 0.21395 0.69536
 C2267 C 0.06604 0.21442 0.71515
 N2268 N 0.05986 0.22778 0.70915
 N2269 N 0.04844 0.23533 0.71662
 C2270 C 0.04267 0.22970 0.73026
 N2271 N 0.04870 0.21625 0.73616
 N2272 N 0.06011 0.20869 0.72869
 C2273 C 0.41977 0.70741 0.29196
 N2274 N 0.41294 0.71407 0.30463
 N2275 N 0.39960 0.70840 0.31035
 C2276 C 0.39256 0.69591 0.30357
 N2277 N 0.39943 0.68917 0.29096
 N2278 N 0.41277 0.69485 0.28523
 C2279 C 0.43372 0.71453 0.28489
 N2280 N 0.43966 0.70885 0.27133
 N2281 N 0.45110 0.71641 0.26392
 C2282 C 0.45714 0.72979 0.26992
 N2283 N 0.45136 0.73536 0.28357
 N2284 N 0.43992 0.72782 0.29098
 C2285 C 0.41970 0.20730 0.79209
 N2286 N 0.41286 0.21398 0.80475
 N2287 N 0.39953 0.20829 0.81049
 C2288 C 0.39251 0.19576 0.80376
 N2289 N 0.39939 0.18901 0.79116
 N2290 N 0.41272 0.19471 0.78540
 C2291 C 0.43365 0.21442 0.78501
 N2292 N 0.43964 0.20870 0.77148
 N2293 N 0.45110 0.21624 0.76408
 C2294 C 0.45712 0.22966 0.77005
 N2295 N 0.45129 0.23527 0.78367
 N2296 N 0.43983 0.22774 0.79106
 C2297 C 0.91996 0.70753 0.79224
 N2298 N 0.91303 0.69489 0.78559
 N2299 N 0.89974 0.68914 0.79138
 C2300 C 0.89285 0.69588 0.80398
 N2301 N 0.89984 0.70844 0.81070
 N2302 N 0.91313 0.71418 0.80492
 C2303 C 0.93385 0.71469 0.78507
 N2304 N 0.94002 0.72804 0.79104
 N2305 N 0.95141 0.73558 0.78354
 C2306 C 0.95717 0.72993 0.76990
 N2307 N 0.95114 0.71649 0.76402
 N2308 N 0.93975 0.70895 0.77152
 C2309 C 0.91988 0.20733 0.29208
 N2310 N 0.91305 0.21398 0.30476
 N2311 N 0.89978 0.20823 0.31055
 C2312 C 0.89280 0.19566 0.30384
 N2313 N 0.89967 0.18893 0.29124
 N2314 N 0.91295 0.19469 0.28543
 C2315 C 0.93374 0.21451 0.28491
 N2316 N 0.93966 0.20879 0.27135
 N2317 N 0.95106 0.21635 0.26388
 C2318 C 0.95709 0.22977 0.26981
 N2319 N 0.95132 0.23539 0.28345
 N2320 N 0.93992 0.22784 0.29092
 C2321 C 0.29221 0.29228 0.58001
 N2322 N 0.30487 0.28559 0.58691
 N2323 N 0.31058 0.29132 0.60018
 C2324 C 0.30379 0.30391 0.60710
 N2325 N 0.29121 0.31067 0.60015
 N2326 N 0.28550 0.30494 0.58687
 C2327 C 0.28509 0.28514 0.56614
 N2328 N 0.27164 0.29104 0.56007
 N2329 N 0.26416 0.28354 0.54867
 C2330 C 0.26996 0.26997 0.54281
 N2331 N 0.28351 0.26417 0.54873
 N2332 N 0.29099 0.27167 0.56012
 C2333 C 0.29246 0.79245 0.07977
 N2334 N 0.30512 0.78575 0.08667
 N2335 N 0.31079 0.79146 0.09998
 C2336 C 0.30397 0.80401 0.10691
 N2337 N 0.29139 0.81078 0.09996
 N2338 N 0.28572 0.80508 0.08665
 C2339 C 0.28536 0.78532 0.06590
 N2340 N 0.27189 0.79119 0.05985
 N2341 N 0.26442 0.78369 0.04845
 C2342 C 0.27026 0.77015 0.04256
 N2343 N 0.28382 0.76437 0.04847
 N2344 N 0.29129 0.77187 0.05987
 C2345 C 0.79234 0.29241 0.07987
 N2346 N 0.80495 0.28568 0.08681
 N2347 N 0.81066 0.29144 0.10008
 C2348 C 0.80392 0.30407 0.10694
 N2349 N 0.79138 0.31088 0.09994
 N2350 N 0.78567 0.30513 0.08666
 C2351 C 0.78522 0.28525 0.06600
 N2352 N 0.77182 0.29120 0.05984
 N2353 N 0.76435 0.28368 0.04845
 C2354 C 0.77010 0.27006 0.04267
 N2355 N 0.78359 0.26421 0.04868
 N2356 N 0.79107 0.27172 0.06007
 C2357 C 0.79235 0.79251 0.57995
 N2358 N 0.78564 0.80518 0.58678
 N2359 N 0.79132 0.81091 0.60008
 C2360 C 0.80387 0.80412 0.60707
 N2361 N 0.81066 0.79153 0.60018
 N2362 N 0.80498 0.78580 0.58689
 C2363 C 0.78524 0.78535 0.56609
 N2364 N 0.79112 0.77185 0.56013
 N2365 N 0.78363 0.76433 0.54875
 C2366 C 0.77010 0.77014 0.54281
 N2367 N 0.76431 0.78373 0.54862
 N2368 N 0.77180 0.79125 0.56000
 C2369 C 0.29218 0.70755 0.41991
 N2370 N 0.30489 0.71419 0.41308
 N2371 N 0.31060 0.70851 0.39976
 C2372 C 0.30374 0.69603 0.39276
 N2373 N 0.29111 0.68931 0.39964
 N2374 N 0.28541 0.69500 0.41295
 C2375 C 0.28505 0.71468 0.43379
 N2376 N 0.27149 0.70891 0.43973
 N2377 N 0.26401 0.71643 0.45113
 C2378 C 0.26992 0.72987 0.45713
 N2379 N 0.28357 0.73554 0.45133
 N2380 N 0.29105 0.72803 0.43993
 C2381 C 0.29219 0.20731 0.92017
 N2382 N 0.30484 0.21399 0.91327
 N2383 N 0.31053 0.20830 0.89996
 C2384 C 0.30371 0.19577 0.89300
 N2385 N 0.29115 0.18900 0.89996
 N2386 N 0.28546 0.19469 0.91328
 C2387 C 0.28506 0.21446 0.93404
 N2388 N 0.27158 0.20863 0.94008
 N2389 N 0.26409 0.21617 0.95146
 C2390 C 0.26992 0.22970 0.95733
 N2391 N 0.28349 0.23543 0.95143
 N2392 N 0.29098 0.22790 0.94005
 C2393 C 0.79248 0.70765 0.92010
 N2394 N 0.80506 0.71438 0.91312
 N2395 N 0.81069 0.70870 0.89978
 C2396 C 0.80390 0.69613 0.89288
 N2397 N 0.79141 0.68931 0.89992
 N2398 N 0.78577 0.69499 0.91327
 C2399 C 0.78539 0.71478 0.93401
 N2400 N 0.77198 0.70888 0.94015
 N2401 N 0.76449 0.71641 0.95154
 C2402 C 0.77024 0.73002 0.95732
 N2403 N 0.78375 0.73582 0.95133
 N2404 N 0.79125 0.72829 0.93995
 C2405 C 0.79238 0.20738 0.41996
 N2406 N 0.78570 0.19471 0.41313
 N2407 N 0.79136 0.18903 0.39979
 C2408 C 0.80384 0.19587 0.39275
 N2409 N 0.81061 0.20845 0.39965
 N2410 N 0.80495 0.21413 0.41299
 C2411 C 0.78528 0.21452 0.43387
 N2412 N 0.79112 0.22804 0.43979
 N2413 N 0.78362 0.23558 0.45116
 C2414 C 0.77012 0.22976 0.45717
 N2415 N 0.76438 0.21615 0.45140
 N2416 N 0.77188 0.20861 0.44002
 C2417 C 0.70774 0.29234 0.41990
 N2418 N 0.69513 0.28561 0.41299
 N2419 N 0.68948 0.29126 0.39964
 C2420 C 0.69629 0.30379 0.39267
 N2421 N 0.70883 0.31059 0.39963
 N2422 N 0.71448 0.30494 0.41298
 C2423 C 0.71483 0.28524 0.43383
 N2424 N 0.72829 0.29111 0.43988
 N2425 N 0.73577 0.28360 0.45128
 C2426 C 0.72997 0.27006 0.45717
 N2427 N 0.71642 0.26428 0.45127
 N2428 N 0.70893 0.27179 0.43986
 C2429 C 0.70778 0.79260 0.92014
 N2430 N 0.71453 0.80517 0.91317
 N2431 N 0.70883 0.81083 0.89984
 C2432 C 0.69624 0.80406 0.89294
 N2433 N 0.68942 0.79156 0.89996
 N2434 N 0.69512 0.78590 0.91329
 C2435 C 0.71489 0.78551 0.93405
 N2436 N 0.70896 0.77210 0.94015
 N2437 N 0.71648 0.76459 0.95153
 C2438 C 0.73009 0.77031 0.95734
 N2439 N 0.73592 0.78382 0.95140
 N2440 N 0.72840 0.79134 0.94002
 C2441 C 0.20747 0.29232 0.92015
 N2442 N 0.21417 0.30497 0.91327
 N2443 N 0.20848 0.31066 0.89995
 C2444 C 0.19594 0.30387 0.89299
 N2445 N 0.18916 0.29131 0.89993
 N2446 N 0.19485 0.28561 0.91325
 C2447 C 0.21461 0.28518 0.93402
 N2448 N 0.20874 0.27170 0.94003
 N2449 N 0.21626 0.26419 0.95142
 C2450 C 0.22980 0.26999 0.95732
 N2451 N 0.23557 0.28355 0.95146
 N2452 N 0.22806 0.29107 0.94007
 C2453 C 0.20746 0.79243 0.41999
 N2454 N 0.19512 0.78548 0.41281
 N2455 N 0.18947 0.79120 0.39949
 C2456 C 0.19600 0.80404 0.39282
 N2457 N 0.20827 0.81106 0.40004
 N2458 N 0.21392 0.80533 0.41336
 C2459 C 0.21452 0.78529 0.43389
 N2460 N 0.22767 0.79145 0.44033
 N2461 N 0.23518 0.78392 0.45171
 C2462 C 0.22970 0.77007 0.45719
 N2463 N 0.21645 0.76402 0.45091
 N2464 N 0.20894 0.77154 0.43954
 C2465 C 0.70771 0.70765 0.58005
 N2466 N 0.69505 0.71434 0.58695
 N2467 N 0.68937 0.70864 0.60027
 C2468 C 0.69619 0.69609 0.60722
 N2469 N 0.70876 0.68931 0.60026
 N2470 N 0.71444 0.69501 0.58694
 C2471 C 0.71482 0.71478 0.56616
 N2472 N 0.72829 0.70890 0.56011
 N2473 N 0.73578 0.71641 0.54871
 C2474 C 0.72995 0.72996 0.54282
 N2475 N 0.71639 0.73574 0.54872
 N2476 N 0.70890 0.72824 0.56013
 C2477 C 0.70786 0.20750 0.07994
 N2478 N 0.69523 0.21421 0.08687
 N2479 N 0.68959 0.20853 0.10022
 C2480 C 0.69643 0.19598 0.10716
 N2481 N 0.70899 0.18920 0.10017
 N2482 N 0.71463 0.19488 0.08683
 C2483 C 0.71492 0.21462 0.06601
 N2484 N 0.72838 0.20875 0.05993
 N2485 N 0.73584 0.21627 0.04851
 C2486 C 0.73000 0.22982 0.04265
 N2487 N 0.71644 0.23559 0.04858
 N2488 N 0.70898 0.22807 0.05999
 C2489 C 0.20773 0.70776 0.07979
 N2490 N 0.19513 0.71451 0.08673
 N2491 N 0.18943 0.70880 0.10004
 C2492 C 0.19617 0.69618 0.10694
 N2493 N 0.20869 0.68934 0.09994
 N2494 N 0.21440 0.69505 0.08663
 C2495 C 0.21487 0.71489 0.06591
 N2496 N 0.22827 0.70892 0.05978
 N2497 N 0.23577 0.71642 0.04838
 C2498 C 0.23005 0.73004 0.04257
 N2499 N 0.21656 0.73592 0.04856
 N2500 N 0.20905 0.72843 0.05996
 C2501 C 0.20752 0.20747 0.58003
 N2502 N 0.21423 0.19480 0.58686
 N2503 N 0.20855 0.18907 0.60017
 C2504 C 0.19600 0.19585 0.60717
 N2505 N 0.18921 0.20845 0.60027
 N2506 N 0.19489 0.21418 0.58696
 C2507 C 0.21463 0.21463 0.56614
 N2508 N 0.20875 0.22813 0.56016
 N2509 N 0.21625 0.23564 0.54876
 C2510 C 0.22978 0.22982 0.54281
 N2511 N 0.23556 0.21623 0.54865
 N2512 N 0.22807 0.20872 0.56004
   
