data_POSCAR
  _audit_creation_date              2014-09-24
  _audit_creation_method            'ToBaCCo'
  _symmetry_space_group_name_H-M    'P1'
  _symmetry_Int_Tables_number       1
  _symmetry_cell_setting            triclinic
  loop_
  _symmetry_equiv_pos_as_xyz
 x,y,z
_cell_length_a 114.3738
_cell_length_b 114.6205
_cell_length_c 114.8532
_cell_angle_alpha 89.944500
_cell_angle_beta 89.985500
_cell_angle_gamma 89.952900
loop_
  _atom_site_label
  _atom_site_type_symbol
  _atom_site_fract_x
  _atom_site_fract_y
  _atom_site_fract_z
N1 N 0.35681 0.32442 0.33272
 N2 N 0.35644 0.33226 0.32438
 C3 C 0.36563 0.33063 0.31722
 C4 C 0.37213 0.32124 0.32127
 C5 C 0.36621 0.31754 0.33114
 H6 H 0.36745 0.33594 0.30966
 H7 H 0.36858 0.31043 0.33686
 Cu8 Cu 0.34420 0.34405 0.32373
 Cu9 Cu 0.34521 0.32383 0.34508
 Cu10 Cu 0.32381 0.34520 0.34493
 N11 N 0.33241 0.35630 0.32423
 N12 N 0.32450 0.35671 0.33251
 C13 C 0.31763 0.36611 0.33085
 C14 C 0.32143 0.37198 0.32099
 C15 C 0.33085 0.36545 0.31703
 H16 H 0.31048 0.36851 0.33651
 H17 H 0.33624 0.36724 0.30952
 N18 N 0.32455 0.33279 0.35678
 N19 N 0.33271 0.32466 0.35685
 C20 C 0.33096 0.31758 0.36605
 C21 C 0.32122 0.32143 0.37212
 C22 C 0.31740 0.33110 0.36594
 H23 H 0.33644 0.31021 0.36817
 H24 H 0.30998 0.33658 0.36797
 H25 H 0.33180 0.33176 0.33595
 H26 H 0.34154 0.34153 0.34464
 N27 N 0.35704 0.82457 -0.16751
 N28 N 0.35671 0.83249 -0.17576
 C29 C 0.36592 0.83093 -0.18290
 C30 C 0.37244 0.82148 -0.17893
 C31 C 0.36644 0.81769 -0.16910
 H32 H 0.36774 0.83637 -0.19037
 H33 H 0.36871 0.81053 -0.16342
 Cu34 Cu 0.34447 0.84430 -0.17632
 Cu35 Cu 0.34541 0.82392 -0.15516
 Cu36 Cu 0.32398 0.84527 -0.15523
 N37 N 0.33263 0.85650 -0.17585
 N38 N 0.32467 0.85684 -0.16762
 C39 C 0.31777 0.86621 -0.16927
 C40 C 0.32159 0.87217 -0.17911
 C41 C 0.33108 0.86567 -0.18303
 H42 H 0.31058 0.86849 -0.16363
 H43 H 0.33655 0.86746 -0.19048
 N44 N 0.32474 0.83282 -0.14342
 N45 N 0.33290 0.82469 -0.14340
 C46 C 0.33118 0.81760 -0.13420
 C47 C 0.32146 0.82144 -0.12808
 C48 C 0.31762 0.83112 -0.13424
 H49 H 0.33668 0.81024 -0.13209
 H50 H 0.31022 0.83660 -0.13217
 H51 H 0.33202 0.83191 -0.16426
 H52 H 0.34171 0.84160 -0.15544
 N53 N 0.85673 0.32495 -0.16742
 N54 N 0.85662 0.33316 -0.17541
 C55 C 0.86580 0.33160 -0.18259
 C56 C 0.87203 0.32187 -0.17892
 C57 C 0.86595 0.31789 -0.16925
 H58 H 0.86782 0.33719 -0.18990
 H59 H 0.86807 0.31047 -0.16385
 Cu60 Cu 0.84463 0.34522 -0.17543
 Cu61 Cu 0.84507 0.32413 -0.15509
 Cu62 Cu 0.82363 0.34553 -0.15495
 N63 N 0.83253 0.35718 -0.17527
 N64 N 0.82437 0.35725 -0.16723
 C65 C 0.81729 0.36647 -0.16896
 C66 C 0.82120 0.37261 -0.17865
 C67 C 0.83092 0.36637 -0.18241
 H68 H 0.80990 0.36851 -0.16346
 H69 H 0.83650 0.36836 -0.18973
 N70 N 0.82438 0.33293 -0.14327
 N71 N 0.83253 0.32479 -0.14333
 C72 C 0.83080 0.31759 -0.13422
 C73 C 0.82108 0.32137 -0.12807
 C74 C 0.81725 0.33113 -0.13412
 H75 H 0.83629 0.31020 -0.13218
 H76 H 0.80987 0.33660 -0.13198
 H77 H 0.83187 0.33244 -0.16418
 H78 H 0.84130 0.34178 -0.15475
 N79 N 0.85670 0.82449 0.33286
 N80 N 0.85668 0.83273 0.32491
 C81 C 0.86586 0.83113 0.31774
 C82 C 0.87201 0.82134 0.32139
 C83 C 0.86588 0.81737 0.33103
 H84 H 0.86795 0.83675 0.31048
 H85 H 0.86794 0.80991 0.33641
 Cu86 Cu 0.84479 0.84488 0.32489
 Cu87 Cu 0.84500 0.82374 0.34518
 Cu88 Cu 0.82357 0.84519 0.34511
 N89 N 0.83265 0.85678 0.32484
 N90 N 0.82439 0.85684 0.33277
 C91 C 0.81728 0.86601 0.33091
 C92 C 0.82127 0.87212 0.32123
 C93 C 0.83108 0.86592 0.31763
 H94 H 0.80982 0.86804 0.33630
 H95 H 0.83674 0.86790 0.31037
 N96 N 0.82427 0.83266 0.35686
 N97 N 0.83241 0.82450 0.35689
 C98 C 0.83064 0.81739 0.36605
 C99 C 0.82090 0.82122 0.37214
 C100 C 0.81710 0.83093 0.36601
 H101 H 0.83612 0.81001 0.36817
 H102 H 0.80972 0.83642 0.36808
 H103 H 0.83191 0.83209 0.33598
 H104 H 0.84123 0.84139 0.34554
 N105 N 0.64341 0.67568 0.33287
 N106 N 0.64349 0.66754 0.32484
 C107 C 0.63433 0.66920 0.31765
 C108 C 0.62814 0.67892 0.32137
 C109 C 0.63422 0.68279 0.33107
 H110 H 0.63230 0.66367 0.31032
 H111 H 0.63211 0.69018 0.33652
 Cu112 Cu 0.65542 0.65543 0.32473
 Cu113 Cu 0.65505 0.67632 0.34524
 Cu114 Cu 0.67641 0.65482 0.34520
 N115 N 0.66745 0.64341 0.32480
 N116 N 0.67564 0.64324 0.33282
 C117 C 0.68269 0.63402 0.33098
 C118 C 0.67872 0.62801 0.32127
 C119 C 0.66902 0.63428 0.31759
 H120 H 0.69009 0.63184 0.33640
 H121 H 0.66344 0.63232 0.31027
 N122 N 0.67569 0.66730 0.35699
 N123 N 0.66757 0.67547 0.35701
 C124 C 0.66931 0.68253 0.36621
 C125 C 0.67901 0.67864 0.37233
 C126 C 0.68282 0.66895 0.36617
 H127 H 0.66384 0.68991 0.36832
 H128 H 0.69018 0.66343 0.36826
 H129 H 0.66822 0.66805 0.33609
 H130 H 0.65876 0.65866 0.34545
 N131 N 0.64338 0.17519 -0.16751
 N132 N 0.64344 0.16697 -0.17546
 C133 C 0.63428 0.16858 -0.18266
 C134 C 0.62811 0.17835 -0.17903
 C135 C 0.63420 0.18231 -0.16936
 H136 H 0.63222 0.16299 -0.18994
 H137 H 0.63212 0.18975 -0.16399
 Cu138 Cu 0.65536 0.15485 -0.17539
 Cu139 Cu 0.65503 0.17595 -0.15516
 Cu140 Cu 0.67645 0.15450 -0.15507
 N141 N 0.66745 0.14289 -0.17535
 N142 N 0.67567 0.14281 -0.16737
 C143 C 0.68276 0.13361 -0.16917
 C144 C 0.67880 0.12749 -0.17884
 C145 C 0.66903 0.13373 -0.18252
 H146 H 0.69019 0.13156 -0.16373
 H147 H 0.66341 0.13176 -0.18980
 N148 N 0.67572 0.16708 -0.14337
 N149 N 0.66757 0.17522 -0.14341
 C150 C 0.66931 0.18238 -0.13428
 C151 C 0.67903 0.17858 -0.12815
 C152 C 0.68286 0.16885 -0.13422
 H153 H 0.66382 0.18977 -0.13223
 H154 H 0.69025 0.16337 -0.13210
 H155 H 0.66819 0.16762 -0.16426
 H156 H 0.65880 0.15832 -0.15474
 N157 N 0.14325 0.67563 -0.16717
 N158 N 0.14330 0.66742 -0.17513
 C159 C 0.13416 0.66905 -0.18234
 C160 C 0.12800 0.67883 -0.17871
 C161 C 0.13409 0.68277 -0.16904
 H162 H 0.13210 0.66347 -0.18962
 H163 H 0.13202 0.69021 -0.16366
 Cu164 Cu 0.15519 0.65526 -0.17511
 Cu165 Cu 0.15489 0.67633 -0.15480
 Cu166 Cu 0.17629 0.65486 -0.15479
 N167 N 0.16730 0.64334 -0.17512
 N168 N 0.17553 0.64325 -0.16714
 C169 C 0.18264 0.63408 -0.16899
 C170 C 0.17868 0.62802 -0.17866
 C171 C 0.16890 0.63420 -0.18231
 H172 H 0.19008 0.63198 -0.16360
 H173 H 0.16330 0.63217 -0.18960
 N174 N 0.17555 0.66736 -0.14303
 N175 N 0.16742 0.67553 -0.14303
 C176 C 0.16916 0.68261 -0.13385
 C177 C 0.17886 0.67874 -0.12772
 C178 C 0.18267 0.66904 -0.13385
 H179 H 0.16369 0.69000 -0.13175
 H180 H 0.19003 0.66352 -0.13175
 H181 H 0.16802 0.66801 -0.16395
 H182 H 0.15863 0.65869 -0.15444
 N183 N 0.14332 0.17551 0.33266
 N184 N 0.14343 0.16736 0.32463
 C185 C 0.13428 0.16899 0.31743
 C186 C 0.12807 0.17871 0.32113
 C187 C 0.13412 0.18260 0.33084
 H188 H 0.13228 0.16345 0.31009
 H189 H 0.13198 0.18998 0.33628
 Cu190 Cu 0.15539 0.15527 0.32455
 Cu191 Cu 0.15494 0.17618 0.34504
 Cu192 Cu 0.17634 0.15474 0.34507
 N193 N 0.16746 0.14328 0.32467
 N194 N 0.17562 0.14314 0.33271
 C195 C 0.18268 0.13392 0.33093
 C196 C 0.17875 0.12789 0.32122
 C197 C 0.16905 0.13414 0.31749
 H198 H 0.19006 0.13176 0.33639
 H199 H 0.16349 0.13214 0.31016
 N200 N 0.17557 0.16722 0.35684
 N201 N 0.16743 0.17538 0.35682
 C202 C 0.16916 0.18247 0.36600
 C203 C 0.17886 0.17862 0.37214
 C204 C 0.18269 0.16892 0.36602
 H205 H 0.16368 0.18986 0.36808
 H206 H 0.19006 0.16342 0.36812
 H207 H 0.16814 0.16794 0.33591
 H208 H 0.15867 0.15854 0.34527
 N209 N 0.64307 0.32467 0.66747
 N210 N 0.64316 0.33291 0.67540
 C211 C 0.63400 0.33137 0.68262
 C212 C 0.62780 0.32161 0.67902
 C213 C 0.63387 0.31760 0.66936
 H214 H 0.63197 0.33699 0.68988
 H215 H 0.63177 0.31015 0.66402
 Cu216 Cu 0.65512 0.34497 0.67531
 Cu217 Cu 0.65472 0.32381 0.65512
 Cu218 Cu 0.67622 0.34515 0.65498
 N219 N 0.66728 0.35684 0.67525
 N220 N 0.67550 0.35685 0.66726
 C221 C 0.68263 0.36600 0.66905
 C222 C 0.67870 0.37212 0.67870
 C223 C 0.66892 0.36599 0.68240
 H224 H 0.69008 0.36805 0.66364
 H225 H 0.66333 0.36808 0.68969
 N226 N 0.67544 0.33257 0.64331
 N227 N 0.66727 0.32445 0.64337
 C228 C 0.66899 0.31727 0.63425
 C229 C 0.67872 0.32103 0.62810
 C230 C 0.68256 0.33076 0.63415
 H231 H 0.66348 0.30991 0.63221
 H232 H 0.68996 0.33621 0.63202
 H233 H 0.66789 0.33208 0.66422
 H234 H 0.65854 0.34140 0.65467
 N235 N 0.64321 0.82444 1.16721
 N236 N 0.64330 0.83266 1.17518
 C237 C 0.63415 0.83107 1.18239
 C238 C 0.62795 0.82133 1.17875
 C239 C 0.63402 0.81736 1.16908
 H240 H 0.63211 0.83667 1.18967
 H241 H 0.63191 0.80993 1.16370
 Cu242 Cu 0.65523 0.84474 1.17514
 Cu243 Cu 0.65485 0.82369 1.15483
 Cu244 Cu 0.67629 0.84508 1.15477
 N245 N 0.66737 0.85662 1.17512
 N246 N 0.67557 0.85670 1.16713
 C247 C 0.68270 0.86585 1.16896
 C248 C 0.67876 0.87190 1.17865
 C249 C 0.66899 0.86574 1.18233
 H250 H 0.69013 0.86794 1.16355
 H251 H 0.66341 0.86778 1.18963
 N252 N 0.67551 0.83258 1.14301
 N253 N 0.66736 0.82444 1.14304
 C254 C 0.66906 0.81735 1.13386
 C255 C 0.67875 0.82119 1.12769
 C256 C 0.68260 0.83088 1.13380
 H257 H 0.66356 0.80999 1.13178
 H258 H 0.68996 0.83637 1.13168
 H259 H 0.66802 0.83196 1.16394
 H260 H 0.65863 0.84131 1.15446
 N261 N 0.14327 0.32472 1.16729
 N262 N 0.14337 0.33293 1.17526
 C263 C 0.13422 0.33136 1.18247
 C264 C 0.12800 0.32163 1.17883
 C265 C 0.13407 0.31766 1.16915
 H266 H 0.13220 0.33695 1.18976
 H267 H 0.13195 0.31024 1.16376
 Cu268 Cu 0.15534 0.34499 1.17524
 Cu269 Cu 0.15492 0.32395 1.15492
 Cu270 Cu 0.17641 0.34529 1.15488
 N271 N 0.16750 0.35685 1.17524
 N272 N 0.17571 0.35691 1.16724
 C273 C 0.18285 0.36605 1.16908
 C274 C 0.17893 0.37211 1.17877
 C275 C 0.16915 0.36596 1.18245
 H276 H 0.19028 0.36814 1.16366
 H277 H 0.16358 0.36799 1.18976
 N278 N 0.17561 0.33279 1.14312
 N279 N 0.16745 0.32467 1.14314
 C280 C 0.16915 0.31756 1.13397
 C281 C 0.17885 0.32137 1.12782
 C282 C 0.18271 0.33106 1.13392
 H283 H 0.16365 0.31020 1.13190
 H284 H 0.19009 0.33653 1.13179
 H285 H 0.16810 0.33219 1.16403
 H286 H 0.15874 0.34157 1.15456
 N287 N 0.14322 0.82475 0.66725
 N288 N 0.14332 0.83295 0.67522
 C289 C 0.13418 0.83136 0.68244
 C290 C 0.12797 0.82163 0.67879
 C291 C 0.13403 0.81768 0.66911
 H292 H 0.13215 0.83695 0.68973
 H293 H 0.13191 0.81026 0.66372
 Cu294 Cu 0.15528 0.84502 0.67519
 Cu295 Cu 0.15485 0.82400 0.65486
 Cu296 Cu 0.17634 0.84535 0.65481
 N297 N 0.16744 0.85688 0.67519
 N298 N 0.17565 0.85695 0.66719
 C299 C 0.18280 0.86608 0.66904
 C300 C 0.17888 0.87212 0.67875
 C301 C 0.16910 0.86598 0.68242
 H302 H 0.19024 0.86816 0.66364
 H303 H 0.16353 0.86801 0.68974
 N304 N 0.17552 0.83286 0.64303
 N305 N 0.16736 0.82474 0.64307
 C306 C 0.16905 0.81763 0.63389
 C307 C 0.17875 0.82145 0.62773
 C308 C 0.18261 0.83114 0.63383
 H309 H 0.16354 0.81028 0.63182
 H310 H 0.18999 0.83660 0.63171
 H311 H 0.16805 0.83224 0.66397
 H312 H 0.15867 0.84162 0.65451
 N313 N 0.35687 0.67574 0.66734
 N314 N 0.35649 0.66787 0.67565
 C315 C 0.36564 0.66950 0.68285
 C316 C 0.37212 0.67891 0.67885
 C317 C 0.36623 0.68264 0.66897
 H318 H 0.36746 0.66415 0.69038
 H319 H 0.36859 0.68978 0.66329
 Cu320 Cu 0.34427 0.65607 0.67618
 Cu321 Cu 0.34533 0.67635 0.65491
 Cu322 Cu 0.32394 0.65501 0.65496
 N323 N 0.33245 0.64387 0.67569
 N324 N 0.32456 0.64350 0.66740
 C325 C 0.31765 0.63416 0.66904
 C326 C 0.32139 0.62827 0.67892
 C327 C 0.33083 0.63473 0.68289
 H328 H 0.31049 0.63181 0.66338
 H329 H 0.33620 0.63290 0.69041
 N330 N 0.32476 0.66739 0.64310
 N331 N 0.33290 0.67552 0.64308
 C332 C 0.33120 0.68259 0.63386
 C333 C 0.32150 0.67874 0.62773
 C334 C 0.31766 0.66908 0.63390
 H335 H 0.33669 0.68996 0.63176
 H336 H 0.31027 0.66360 0.63183
 H337 H 0.33190 0.66842 0.66398
 H338 H 0.34167 0.65867 0.65527
 N339 N 0.35695 0.17530 1.16717
 N340 N 0.35691 0.16707 1.17513
 C341 C 0.36608 0.16867 1.18231
 C342 C 0.37225 0.17843 1.17864
 C343 C 0.36613 0.18240 1.16899
 H344 H 0.36816 0.16306 1.18958
 H345 H 0.36821 0.18983 1.16359
 Cu346 Cu 0.34499 0.15496 1.17513
 Cu347 Cu 0.34528 0.17607 1.15483
 Cu348 Cu 0.32384 0.15469 1.15485
 N349 N 0.33285 0.14307 1.17515
 N350 N 0.32461 0.14304 1.16719
 C351 C 0.31750 0.13387 1.16902
 C352 C 0.32148 0.12775 1.17866
 C353 C 0.33126 0.13390 1.18232
 H354 H 0.31005 0.13181 1.16362
 H355 H 0.33689 0.13181 1.18958
 N356 N 0.32458 0.16722 1.14310
 N357 N 0.33273 0.17535 1.14309
 C358 C 0.33100 0.18246 1.13391
 C359 C 0.32128 0.17864 1.12780
 C360 C 0.31745 0.16895 1.13394
 H361 H 0.33649 0.18982 1.13180
 H362 H 0.31007 0.16347 1.13185
 H363 H 0.33216 0.16778 1.16400
 H364 H 0.34151 0.15845 1.15447
 N365 N 0.85680 0.67556 1.16690
 N366 N 0.85673 0.66737 1.17492
 C367 C 0.86589 0.66899 1.18210
 C368 C 0.87207 0.67872 1.17840
 C369 C 0.86598 0.68265 1.16871
 H370 H 0.86794 0.66342 1.18941
 H371 H 0.86808 0.69006 1.16329
 Cu372 Cu 0.84479 0.65528 1.17496
 Cu373 Cu 0.84514 0.67628 1.15456
 Cu374 Cu 0.82366 0.65492 1.15466
 N375 N 0.83265 0.64340 1.17503
 N376 N 0.82441 0.64333 1.16707
 C377 C 0.81729 0.63418 1.16896
 C378 C 0.82125 0.62813 1.17865
 C379 C 0.83104 0.63429 1.18227
 H380 H 0.80983 0.63209 1.16359
 H381 H 0.83664 0.63226 1.18956
 N382 N 0.82442 0.66740 1.14285
 N383 N 0.83259 0.67552 1.14281
 C384 C 0.83085 0.68261 1.13362
 C385 C 0.82112 0.67880 1.12753
 C386 C 0.81728 0.66912 1.13369
 H387 H 0.83635 0.68997 1.13149
 H388 H 0.80988 0.66366 1.13163
 H389 H 0.83198 0.66805 1.16375
 H390 H 0.84133 0.65866 1.15428
 N391 N 0.85676 0.17533 0.66742
 N392 N 0.85625 0.16759 0.67583
 C393 C 0.86541 0.16917 0.68302
 C394 C 0.87204 0.17843 0.67892
 C395 C 0.86623 0.18211 0.66898
 H396 H 0.86712 0.16391 0.69064
 H397 H 0.86871 0.18912 0.66321
 Cu398 Cu 0.84387 0.15597 0.67656
 Cu399 Cu 0.84521 0.17602 0.65503
 Cu400 Cu 0.82379 0.15474 0.65503
 N401 N 0.83217 0.14367 0.67583
 N402 N 0.82442 0.14319 0.66742
 C403 C 0.81759 0.13377 0.66900
 C404 C 0.82125 0.12795 0.67894
 C405 C 0.83055 0.13453 0.68303
 H406 H 0.81055 0.13132 0.66324
 H407 H 0.83582 0.13280 0.69064
 N408 N 0.82460 0.16718 0.64322
 N409 N 0.83276 0.17529 0.64323
 C410 C 0.83106 0.18241 0.63405
 C411 C 0.82134 0.17862 0.62792
 C412 C 0.81748 0.16893 0.63405
 H413 H 0.83656 0.18977 0.63198
 H414 H 0.81007 0.16348 0.63197
 H415 H 0.83170 0.16817 0.66403
 H416 H 0.84157 0.15828 0.65557
 N417 N 0.32420 0.35666 0.66727
 N418 N 0.33210 0.35630 0.67555
 C419 C 0.33048 0.36544 0.68273
 C420 C 0.32102 0.37191 0.67875
 C421 C 0.31728 0.36601 0.66890
 H422 H 0.33584 0.36727 0.69025
 H423 H 0.31012 0.36836 0.66322
 Cu424 Cu 0.34395 0.34410 0.67608
 Cu425 Cu 0.32358 0.34514 0.65487
 Cu426 Cu 0.34504 0.32382 0.65485
 N427 N 0.35621 0.33233 0.67554
 N428 N 0.35661 0.32446 0.66725
 C429 C 0.36601 0.31759 0.66888
 C430 C 0.37190 0.32134 0.67874
 C431 C 0.36538 0.33073 0.68272
 H432 H 0.36841 0.31047 0.66320
 H433 H 0.36717 0.33607 0.69026
 N434 N 0.33258 0.32461 0.64304
 N435 N 0.32440 0.33273 0.64306
 C436 C 0.31729 0.33102 0.63388
 C437 C 0.32115 0.32135 0.62773
 C438 C 0.33088 0.31753 0.63385
 H439 H 0.30987 0.33648 0.63182
 H440 H 0.33639 0.31018 0.63175
 H441 H 0.33159 0.33176 0.66392
 H442 H 0.34131 0.34152 0.65517
 N443 N 0.32439 0.85693 0.16683
 N444 N 0.33265 0.85692 0.17478
 C445 C 0.33104 0.86610 0.18191
 C446 C 0.32124 0.87223 0.17825
 C447 C 0.31726 0.86609 0.16863
 H448 H 0.33666 0.86820 0.18917
 H449 H 0.30979 0.86813 0.16326
 Cu450 Cu 0.34480 0.84503 0.17480
 Cu451 Cu 0.32363 0.84523 0.15455
 Cu452 Cu 0.34513 0.82386 0.15462
 N453 N 0.35676 0.83295 0.17485
 N454 N 0.35683 0.82469 0.16693
 C455 C 0.36603 0.81761 0.16880
 C456 C 0.37213 0.82163 0.17843
 C457 C 0.36594 0.83140 0.18204
 H458 H 0.36812 0.81015 0.16346
 H459 H 0.36799 0.83703 0.18929
 N460 N 0.33255 0.82453 0.14290
 N461 N 0.32437 0.83265 0.14288
 C462 C 0.31724 0.83088 0.13373
 C463 C 0.32108 0.82117 0.12764
 C464 C 0.33082 0.81738 0.13376
 H465 H 0.30984 0.83635 0.13162
 H466 H 0.33633 0.81002 0.13168
 H467 H 0.33198 0.83218 0.16376
 H468 H 0.34129 0.84148 0.15417
 N469 N 0.82439 0.35699 0.16695
 N470 N 0.83257 0.35688 0.17498
 C471 C 0.83098 0.36604 0.18214
 C472 C 0.82126 0.37226 0.17841
 C473 C 0.81732 0.36620 0.16873
 H474 H 0.83655 0.36805 0.18945
 H475 H 0.80992 0.36833 0.16329
 Cu476 Cu 0.84466 0.34491 0.17509
 Cu477 Cu 0.82365 0.34535 0.15462
 Cu478 Cu 0.84509 0.32394 0.15468
 N479 N 0.85665 0.33286 0.17502
 N480 N 0.85675 0.32468 0.16702
 C481 C 0.86597 0.31762 0.16882
 C482 C 0.87206 0.32156 0.17848
 C483 C 0.86583 0.33127 0.18218
 H484 H 0.86810 0.31022 0.16339
 H485 H 0.86786 0.33684 0.18948
 N486 N 0.83256 0.32467 0.14293
 N487 N 0.82441 0.33281 0.14290
 C488 C 0.81728 0.33107 0.13374
 C489 C 0.82111 0.32135 0.12765
 C490 C 0.83083 0.31753 0.13378
 H491 H 0.80990 0.33655 0.13163
 H492 H 0.83631 0.31014 0.13172
 H493 H 0.83188 0.33221 0.16380
 H494 H 0.84131 0.34159 0.15440
 N495 N 0.82434 0.85703 0.66709
 N496 N 0.83224 0.85666 0.67538
 C497 C 0.83064 0.86581 0.68254
 C498 C 0.82121 0.87230 0.67855
 C499 C 0.81745 0.86641 0.66870
 H500 H 0.83600 0.86763 0.69006
 H501 H 0.81030 0.86878 0.66302
 Cu502 Cu 0.84406 0.84444 0.67593
 Cu503 Cu 0.82372 0.84550 0.65470
 Cu504 Cu 0.84514 0.82416 0.65470
 N505 N 0.85632 0.83266 0.67539
 N506 N 0.85671 0.82479 0.66710
 C507 C 0.86611 0.81792 0.66873
 C508 C 0.87201 0.82167 0.67859
 C509 C 0.86549 0.83107 0.68257
 H510 H 0.86850 0.81079 0.66306
 H511 H 0.86730 0.83642 0.69009
 N512 N 0.83269 0.82495 0.64289
 N513 N 0.82453 0.83308 0.64289
 C514 C 0.81742 0.83137 0.63370
 C515 C 0.82128 0.82169 0.62757
 C516 C 0.83100 0.81786 0.63370
 H517 H 0.81002 0.83684 0.63162
 H518 H 0.83649 0.81049 0.63162
 H519 H 0.83170 0.83210 0.66376
 H520 H 0.84144 0.84184 0.65502
 N521 N 0.67566 0.64327 0.66741
 N522 N 0.66777 0.64362 0.67570
 C523 C 0.66941 0.63449 0.68290
 C524 C 0.67887 0.62803 0.67893
 C525 C 0.68260 0.63393 0.66905
 H526 H 0.66407 0.63267 0.69044
 H527 H 0.68976 0.63158 0.66338
 Cu528 Cu 0.65592 0.65582 0.67621
 Cu529 Cu 0.67625 0.65479 0.65498
 Cu530 Cu 0.65484 0.67616 0.65501
 N531 N 0.64370 0.66765 0.67574
 N532 N 0.64332 0.67555 0.66746
 C533 C 0.63397 0.68247 0.66914
 C534 C 0.62809 0.67873 0.67903
 C535 C 0.63457 0.66928 0.68297
 H536 H 0.63161 0.68963 0.66350
 H537 H 0.63276 0.66392 0.69050
 N538 N 0.66725 0.67533 0.64314
 N539 N 0.67540 0.66719 0.64313
 C540 C 0.68248 0.66887 0.63391
 C541 C 0.67861 0.67855 0.62776
 C542 C 0.66893 0.68241 0.63392
 H543 H 0.68986 0.66339 0.63182
 H544 H 0.66344 0.68979 0.63183
 H545 H 0.66828 0.66818 0.66404
 H546 H 0.65853 0.65847 0.65530
 N547 N 0.67523 0.14266 0.16687
 N548 N 0.66721 0.14297 0.17506
 C549 C 0.66883 0.13388 0.18232
 C550 C 0.67840 0.12749 0.17850
 C551 C 0.68222 0.13338 0.16864
 H552 H 0.66341 0.13206 0.18981
 H553 H 0.68954 0.13114 0.16313
 Cu554 Cu 0.65525 0.15503 0.17507
 Cu555 Cu 0.67611 0.15435 0.15455
 Cu556 Cu 0.65700 0.17781 0.15687
 N557 N 0.64344 0.16724 0.17512
 N558 N 0.64418 0.17612 0.16792
 C559 C 0.63502 0.18328 0.16965
 C560 C 0.62809 0.17864 0.17842
 C561 C 0.63375 0.16844 0.18167
 H562 H 0.63361 0.19130 0.16489
 H563 H 0.63098 0.16227 0.18824
 N564 N 0.66849 0.17625 0.14417
 N565 N 0.67560 0.16723 0.14316
 C566 C 0.68208 0.16856 0.13346
 C567 C 0.67890 0.17890 0.12805
 C568 C 0.67024 0.18352 0.13512
 H569 H 0.68856 0.16237 0.13051
 H570 H 0.66550 0.19156 0.13379
 H571 H 0.66949 0.16716 0.16488
 H572 H 0.65881 0.16003 0.15487
 N573 N 0.17555 0.64321 0.16700
 N574 N 0.16764 0.64361 0.17527
 C575 C 0.16920 0.63445 0.18246
 C576 C 0.17861 0.62793 0.17849
 C577 C 0.18241 0.63381 0.16863
 H578 H 0.16381 0.63265 0.18997
 H579 H 0.18957 0.63143 0.16297
 Cu580 Cu 0.15586 0.65586 0.17579
 Cu581 Cu 0.17625 0.65476 0.15460
 Cu582 Cu 0.15488 0.67615 0.15451
 N583 N 0.14362 0.66767 0.17518
 N584 N 0.14328 0.67554 0.16687
 C585 C 0.13388 0.68243 0.16845
 C586 C 0.12794 0.67869 0.17830
 C587 C 0.13443 0.66928 0.18233
 H588 H 0.13153 0.68956 0.16276
 H589 H 0.13258 0.66394 0.18986
 N590 N 0.16738 0.67534 0.14274
 N591 N 0.17551 0.66718 0.14277
 C592 C 0.18266 0.66887 0.13361
 C593 C 0.17886 0.67857 0.12745
 C594 C 0.16913 0.68243 0.13355
 H595 H 0.19005 0.66338 0.13156
 H596 H 0.16367 0.68982 0.13144
 H597 H 0.16827 0.66818 0.16362
 H598 H 0.15852 0.65846 0.15489
 N599 N 0.17547 0.14281 0.66728
 N600 N 0.16725 0.14288 0.67526
 C601 C 0.16886 0.13373 0.68246
 C602 C 0.17863 0.12756 0.67880
 C603 C 0.18259 0.13364 0.66912
 H604 H 0.16326 0.13169 0.68976
 H605 H 0.19004 0.13155 0.66372
 Cu606 Cu 0.15511 0.15479 0.67527
 Cu607 Cu 0.17622 0.15443 0.65492
 Cu608 Cu 0.15485 0.17592 0.65497
 N609 N 0.14325 0.16698 0.67531
 N610 N 0.14323 0.17522 0.66736
 C611 C 0.13409 0.18238 0.66924
 C612 C 0.12800 0.17844 0.67891
 C613 C 0.13412 0.16863 0.68253
 H614 H 0.13204 0.18985 0.66387
 H615 H 0.13205 0.16303 0.68981
 N616 N 0.16736 0.17513 0.64318
 N617 N 0.17548 0.16695 0.64316
 C618 C 0.18259 0.16865 0.63397
 C619 C 0.17879 0.17838 0.62786
 C620 C 0.16910 0.18224 0.63400
 H621 H 0.18995 0.16314 0.63186
 H622 H 0.16364 0.18964 0.63193
 H623 H 0.16797 0.16755 0.66412
 H624 H 0.15857 0.15827 0.65460
 N625 N 0.32427 0.64298 0.33290
 N626 N 0.33244 0.64312 0.32485
 C627 C 0.33086 0.63397 0.31768
 C628 C 0.32116 0.62773 0.32139
 C629 C 0.31722 0.63377 0.33109
 H630 H 0.33642 0.63199 0.31034
 H631 H 0.30983 0.63160 0.33655
 Cu632 Cu 0.34449 0.65510 0.32475
 Cu633 Cu 0.32351 0.65458 0.34526
 Cu634 Cu 0.34490 0.67602 0.34523
 N635 N 0.35644 0.66717 0.32483
 N636 N 0.35654 0.67532 0.33287
 C637 C 0.36573 0.68240 0.33106
 C638 C 0.37181 0.67850 0.32137
 C639 C 0.36562 0.66878 0.31766
 H640 H 0.36787 0.68977 0.33652
 H641 H 0.36764 0.66325 0.31033
 N642 N 0.33238 0.67523 0.35700
 N643 N 0.32425 0.66708 0.35702
 C644 C 0.31715 0.66877 0.36621
 C645 C 0.32097 0.67847 0.37233
 C646 C 0.33066 0.68232 0.36619
 H647 H 0.30978 0.66327 0.36833
 H648 H 0.33614 0.68969 0.36827
 H649 H 0.33171 0.66778 0.33612
 H650 H 0.34118 0.65837 0.34548
 N651 N 0.32427 0.14292 0.83290
 N652 N 0.33215 0.14333 0.82459
 C653 C 0.33059 0.13418 0.81742
 C654 C 0.32121 0.12764 0.82143
 C655 C 0.31743 0.13351 0.83129
 H656 H 0.33595 0.13240 0.80989
 H657 H 0.31031 0.13110 0.83699
 Cu658 Cu 0.34391 0.15559 0.82402
 Cu659 Cu 0.32362 0.15444 0.84531
 Cu660 Cu 0.34495 0.17583 0.84530
 N661 N 0.35613 0.16739 0.82457
 N662 N 0.35650 0.17524 0.83288
 C663 C 0.36588 0.18213 0.83126
 C664 C 0.37178 0.17842 0.82139
 C665 C 0.36529 0.16902 0.81739
 H666 H 0.36825 0.18924 0.83695
 H667 H 0.36711 0.16369 0.80984
 N668 N 0.33252 0.17499 0.85713
 N669 N 0.32439 0.16684 0.85714
 C670 C 0.31729 0.16852 0.86634
 C671 C 0.32111 0.17821 0.87247
 C672 C 0.33081 0.18207 0.86633
 H673 H 0.30991 0.16304 0.86842
 H674 H 0.33627 0.18945 0.86840
 H675 H 0.33153 0.16787 0.83626
 H676 H 0.34133 0.15813 0.84494
 N677 N 0.82440 0.64292 0.83301
 N678 N 0.83255 0.64302 0.82494
 C679 C 0.83091 0.63388 0.81777
 C680 C 0.82121 0.62766 0.82154
 C681 C 0.81732 0.63372 0.83125
 H682 H 0.83643 0.63187 0.81041
 H683 H 0.80996 0.63158 0.83675
 Cu684 Cu 0.84463 0.65498 0.82479
 Cu685 Cu 0.82371 0.65453 0.84536
 Cu686 Cu 0.84514 0.67590 0.84527
 N687 N 0.85661 0.66704 0.82484
 N688 N 0.85674 0.67518 0.83288
 C689 C 0.86595 0.68224 0.83107
 C690 C 0.87199 0.67834 0.82134
 C691 C 0.86575 0.66865 0.81763
 H692 H 0.86811 0.68960 0.83653
 H693 H 0.86774 0.66313 0.81027
 N694 N 0.83265 0.67516 0.85708
 N695 N 0.82449 0.66703 0.85711
 C696 C 0.81739 0.66877 0.86629
 C697 C 0.82123 0.67846 0.87239
 C698 C 0.83094 0.68228 0.86624
 H699 H 0.81000 0.66330 0.86841
 H700 H 0.83644 0.68964 0.86831
 H701 H 0.83191 0.66769 0.83617
 H702 H 0.84138 0.65827 0.84551
 N703 N 0.82446 0.14292 0.33282
 N704 N 0.83272 0.14299 0.32486
 C705 C 0.83115 0.13385 0.31768
 C706 C 0.82138 0.12767 0.32131
 C707 C 0.81737 0.13375 0.33097
 H708 H 0.83678 0.13181 0.31041
 H709 H 0.80991 0.13165 0.33633
 Cu710 Cu 0.84481 0.15491 0.32488
 Cu711 Cu 0.82364 0.15457 0.34514
 Cu712 Cu 0.84502 0.17602 0.34513
 N713 N 0.85670 0.16704 0.32486
 N714 N 0.85671 0.17528 0.33281
 C715 C 0.86587 0.18240 0.33097
 C716 C 0.87201 0.17844 0.32134
 C717 C 0.86589 0.16865 0.31770
 H718 H 0.86791 0.18985 0.33635
 H719 H 0.86799 0.16305 0.31044
 N720 N 0.83246 0.17526 0.35686
 N721 N 0.82433 0.16710 0.35687
 C722 C 0.81718 0.16883 0.36602
 C723 C 0.82097 0.17855 0.37212
 C724 C 0.83068 0.18239 0.36601
 H725 H 0.80981 0.16334 0.36812
 H726 H 0.83615 0.18978 0.36809
 H727 H 0.83193 0.16769 0.33597
 H728 H 0.84130 0.15839 0.34552
 N729 N 0.67554 0.35700 0.33262
 N730 N 0.66729 0.35697 0.32468
 C731 C 0.66886 0.36613 0.31750
 C732 C 0.67863 0.37229 0.32113
 C733 C 0.68264 0.36618 0.33078
 H734 H 0.66322 0.36820 0.31024
 H735 H 0.69010 0.36826 0.33615
 Cu736 Cu 0.65515 0.34508 0.32469
 Cu737 Cu 0.67633 0.34534 0.34495
 Cu738 Cu 0.65492 0.32391 0.34493
 N739 N 0.64327 0.33294 0.32466
 N740 N 0.64325 0.32468 0.33260
 C741 C 0.63409 0.31757 0.33076
 C742 C 0.62796 0.32156 0.32112
 C743 C 0.63410 0.33135 0.31749
 H744 H 0.63204 0.31011 0.33613
 H745 H 0.63201 0.33697 0.31023
 N746 N 0.66746 0.32464 0.35668
 N747 N 0.67560 0.33278 0.35669
 C748 C 0.68272 0.33104 0.36586
 C749 C 0.67890 0.32133 0.37197
 C750 C 0.66919 0.31751 0.36584
 H751 H 0.69009 0.33653 0.36797
 H752 H 0.66370 0.31014 0.36793
 H753 H 0.66801 0.33226 0.33577
 H754 H 0.65866 0.34155 0.34534
 N755 N 0.67407 0.85817 0.83425
 N756 N 0.66696 0.85724 0.82532
 C757 C 0.66947 0.86566 0.81755
 C758 C 0.67863 0.87232 0.82186
 C759 C 0.68130 0.86725 0.83251
 H760 H 0.66483 0.86693 0.80945
 H761 H 0.68782 0.87008 0.83871
 Cu762 Cu 0.65454 0.84568 0.82525
 Cu763 Cu 0.67285 0.84792 0.84776
 Cu764 Cu 0.65771 0.82222 0.84232
 N765 N 0.64317 0.83310 0.82506
 N766 N 0.64444 0.82389 0.83177
 C767 C 0.63555 0.81646 0.82983
 C768 C 0.62822 0.82130 0.82149
 C769 C 0.63338 0.83188 0.81868
 H770 H 0.63458 0.80814 0.83417
 H771 H 0.63024 0.83827 0.81251
 N772 N 0.66839 0.82421 0.85564
 N773 N 0.67390 0.83407 0.85787
 C774 C 0.68013 0.83283 0.86773
 C775 C 0.67842 0.82165 0.87201
 C776 C 0.67091 0.81645 0.86408
 H777 H 0.68541 0.83963 0.87155
 H778 H 0.66745 0.80769 0.86443
 H779 H 0.66931 0.83507 0.83633
 H780 H 0.65664 0.83957 0.84552
 N781 N 0.17551 0.35683 0.83290
 N782 N 0.16730 0.35683 0.82491
 C783 C 0.16898 0.36596 0.81771
 C784 C 0.17879 0.37205 0.82139
 C785 C 0.18269 0.36594 0.83107
 H786 H 0.16342 0.36804 0.81041
 H787 H 0.19014 0.36798 0.83648
 Cu788 Cu 0.15511 0.34499 0.82489
 Cu789 Cu 0.17618 0.34519 0.84526
 Cu790 Cu 0.15466 0.32388 0.84520
 N791 N 0.14317 0.33291 0.82484
 N792 N 0.14306 0.32468 0.83281
 C793 C 0.13388 0.31760 0.83092
 C794 C 0.12784 0.32158 0.82122
 C795 C 0.13404 0.33133 0.81760
 H796 H 0.13176 0.31016 0.83629
 H797 H 0.13203 0.33693 0.81030
 N798 N 0.16716 0.32458 0.85700
 N799 N 0.17535 0.33268 0.85702
 C800 C 0.18243 0.33092 0.86622
 C801 C 0.17854 0.32124 0.87234
 C802 C 0.16883 0.31746 0.86618
 H803 H 0.18983 0.33637 0.86834
 H804 H 0.16330 0.31012 0.86827
 H805 H 0.16786 0.33213 0.83607
 H806 H 0.15850 0.34149 0.84556
 N807 N 0.17561 0.85677 0.33272
 N808 N 0.16738 0.85675 0.32475
 C809 C 0.16903 0.86587 0.31754
 C810 C 0.17883 0.87199 0.32119
 C811 C 0.18276 0.86589 0.33087
 H812 H 0.16344 0.86794 0.31025
 H813 H 0.19022 0.86795 0.33626
 Cu814 Cu 0.15519 0.84491 0.32479
 Cu815 Cu 0.17632 0.84515 0.34509
 Cu816 Cu 0.15478 0.82386 0.34514
 N817 N 0.14322 0.83284 0.32480
 N818 N 0.14313 0.82464 0.33279
 C819 C 0.13393 0.81757 0.33096
 C820 C 0.12787 0.82153 0.32127
 C821 C 0.13408 0.83125 0.31759
 H822 H 0.13181 0.81015 0.33636
 H823 H 0.13206 0.83683 0.31028
 N824 N 0.16732 0.82456 0.35689
 N825 N 0.17551 0.83265 0.35687
 C826 C 0.18263 0.83090 0.36605
 C827 C 0.17875 0.82123 0.37220
 C828 C 0.16901 0.81745 0.36609
 H829 H 0.19004 0.83635 0.36813
 H830 H 0.16348 0.81013 0.36821
 H831 H 0.16795 0.83208 0.33597
 H832 H 0.15863 0.84148 0.34547
 C833 C 0.24947 0.96408 0.25800
 C834 C 0.25794 0.96405 0.24955
 C835 C 0.25823 0.97522 0.24492
 N836 N 0.25023 0.98206 0.25025
 C837 C 0.24490 0.97528 0.25828
 C838 C 0.26522 0.97868 0.23538
 C839 C 0.26642 0.99041 0.23174
 C840 C 0.27125 0.99390 0.22122
 C841 C 0.27129 1.00590 0.22122
 C842 C 0.26648 1.00941 0.23174
 N843 N 0.26362 0.99991 0.23813
 C844 C 0.26536 1.02113 0.23539
 C845 C 0.25837 1.02461 0.24491
 C846 C 0.25824 1.03574 0.24963
 C847 C 0.24973 1.03577 0.25804
 C848 C 0.24495 1.02466 0.25818
 N849 N 0.25023 1.01786 0.25013
 C850 C 0.23534 1.02123 0.26511
 C851 C 0.23169 1.00951 0.26633
 C852 C 0.22117 1.00602 0.27123
 C853 C 0.22120 0.99401 0.27130
 C854 C 0.23172 0.99051 0.26640
 N855 N 0.23810 1.00001 0.26349
 C856 C 0.23540 0.97880 0.26529
 H857 H 0.24690 0.95667 0.26326
 H858 H 0.26320 0.95661 0.24703
 H859 H 0.24680 1.00000 0.26091
 H860 H 0.27443 0.98837 0.21427
 H861 H 0.27451 1.01142 0.21427
 H862 H 0.26364 1.04310 0.24722
 H863 H 0.24729 1.04315 0.26339
 H864 H 0.21428 0.98849 0.27460
 H865 H 0.26108 0.99992 0.24681
 H866 H 0.21422 1.01154 0.27446
 C867 C 0.24600 0.46343 0.75429
 C868 C 0.25400 0.46345 0.74542
 C869 C 0.25638 0.47504 0.74290
 N870 N 0.25004 0.48207 0.74993
 C871 C 0.24368 0.47501 0.75691
 C872 C 0.26459 0.47881 0.73449
 C873 C 0.26738 0.49062 0.73212
 C874 C 0.27668 0.49414 0.72521
 C875 C 0.27672 0.50612 0.72526
 C876 C 0.26743 0.50966 0.73219
 N877 N 0.26166 0.50014 0.73617
 C878 C 0.26473 0.52147 0.73466
 C879 C 0.25643 0.52521 0.74301
 C880 C 0.25397 0.53679 0.74550
 C881 C 0.24588 0.53678 0.75428
 C882 C 0.24354 0.52518 0.75685
 N883 N 0.25002 0.51815 0.74995
 C884 C 0.23530 0.52141 0.76525
 C885 C 0.23265 0.50959 0.76775
 C886 C 0.22345 0.50604 0.77477
 C887 C 0.22351 0.49406 0.77482
 C888 C 0.23273 0.49055 0.76780
 N889 N 0.23839 0.50009 0.76370
 C890 C 0.23551 0.47875 0.76538
 H891 H 0.24226 0.45574 0.75830
 H892 H 0.25770 0.45577 0.74136
 H893 H 0.24617 0.50010 0.75909
 H894 H 0.28294 0.48866 0.72073
 H895 H 0.28303 0.51160 0.72085
 H896 H 0.25766 0.54449 0.74146
 H897 H 0.24211 0.54446 0.75827
 H898 H 0.21731 0.48856 0.77936
 H899 H 0.25383 0.50014 0.74068
 H900 H 0.21718 0.51151 0.77926
 C901 C 0.75425 -0.03699 0.25439
 C902 C 0.74605 -0.03697 0.24571
 C903 C 0.74361 -0.02538 0.24323
 N904 N 0.75013 -0.01835 0.25007
 C905 C 0.75667 -0.02541 0.25690
 C906 C 0.73523 -0.02161 0.23497
 C907 C 0.73247 -0.00979 0.23258
 C908 C 0.72308 -0.00624 0.22579
 C909 C 0.72306 0.00574 0.22582
 C910 C 0.73244 0.00925 0.23262
 N911 N 0.73825 -0.00028 0.23653
 C912 C 0.73517 0.02106 0.23504
 C913 C 0.74356 0.02480 0.24330
 C914 C 0.74599 0.03638 0.24580
 C915 C 0.75421 0.03636 0.25446
 C916 C 0.75666 0.02477 0.25694
 N917 N 0.75012 0.01774 0.25011
 C918 C 0.76506 0.02100 0.26518
 C919 C 0.76780 0.00918 0.26759
 C920 C 0.77718 0.00563 0.27438
 C921 C 0.77717 -0.00635 0.27438
 C922 C 0.76779 -0.00986 0.26759
 N923 N 0.76200 -0.00033 0.26365
 C924 C 0.76504 -0.02167 0.26517
 H925 H 0.75804 -0.04469 0.25834
 H926 H 0.74229 -0.04465 0.24173
 H927 H 0.75412 -0.00032 0.25923
 H928 H 0.71674 -0.01172 0.22143
 H929 H 0.71671 0.01123 0.22147
 H930 H 0.74220 0.04408 0.24185
 H931 H 0.75799 0.04404 0.25842
 H932 H 0.78351 -0.01184 0.27874
 H933 H 0.74614 -0.00028 0.24095
 H934 H 0.78352 0.01110 0.27874
 C935 C 0.74944 0.53579 0.74197
 C936 C 0.75791 0.53582 0.75042
 C937 C 0.75820 0.52466 0.75506
 N938 N 0.75021 0.51782 0.74975
 C939 C 0.74488 0.52460 0.74170
 C940 C 0.76520 0.52120 0.76460
 C941 C 0.76639 0.50947 0.76826
 C942 C 0.77120 0.50599 0.77879
 C943 C 0.77123 0.49398 0.77881
 C944 C 0.76645 0.49047 0.76829
 N945 N 0.76360 0.49996 0.76188
 C946 C 0.76533 0.47874 0.76466
 C947 C 0.75835 0.47526 0.75513
 C948 C 0.75824 0.46413 0.75041
 C949 C 0.74975 0.46410 0.74199
 C950 C 0.74496 0.47522 0.74184
 N951 N 0.75021 0.48202 0.74989
 C952 C 0.73536 0.47865 0.73489
 C953 C 0.73170 0.49037 0.73368
 C954 C 0.72118 0.49387 0.72878
 C955 C 0.72120 0.50587 0.72870
 C956 C 0.73171 0.50937 0.73359
 N957 N 0.73809 0.49987 0.73651
 C958 C 0.73537 0.52108 0.73471
 H959 H 0.74687 0.54319 0.73670
 H960 H 0.76317 0.54325 0.75292
 H961 H 0.74679 0.49988 0.73909
 H962 H 0.77437 0.51152 0.78574
 H963 H 0.77443 0.48848 0.78577
 H964 H 0.76365 0.45677 0.75284
 H965 H 0.74733 0.45672 0.73665
 H966 H 0.71427 0.51140 0.72540
 H967 H 0.76107 0.49995 0.75319
 H968 H 0.71423 0.48835 0.72554
 C969 C 0.24196 0.46414 0.24954
 C970 C 0.25058 0.46411 0.25783
 C971 C 0.25522 0.47528 0.25804
 N972 N 0.24973 0.48212 0.25016
 C973 C 0.24159 0.47534 0.24499
 C974 C 0.26490 0.47874 0.26485
 C975 C 0.26855 0.49047 0.26597
 C976 C 0.27919 0.49396 0.27060
 C977 C 0.27917 0.50596 0.27063
 C978 C 0.26853 0.50947 0.26601
 N979 N 0.26208 0.49998 0.26328
 C980 C 0.26483 0.52120 0.26496
 C981 C 0.25515 0.52468 0.25815
 C982 C 0.25038 0.53580 0.25810
 C983 C 0.24180 0.53583 0.24977
 C984 C 0.24159 0.52472 0.24502
 N985 N 0.24978 0.51792 0.25013
 C986 C 0.23447 0.52129 0.23558
 C987 C 0.23323 0.50957 0.23196
 C988 C 0.22815 0.50608 0.22157
 C989 C 0.22811 0.49408 0.22160
 C990 C 0.23320 0.49057 0.23199
 N991 N 0.23619 0.50007 0.23829
 C992 C 0.23441 0.47886 0.23563
 H993 H 0.23664 0.45674 0.24707
 H994 H 0.25320 0.45668 0.26304
 H995 H 0.23893 0.50006 0.24691
 H996 H 0.28623 0.48844 0.27365
 H997 H 0.28619 0.51148 0.27371
 H998 H 0.25289 0.54316 0.26344
 H999 H 0.23638 0.54322 0.24744
 H1000 H 0.22470 0.48856 0.21475
 H1001 H 0.25332 0.49999 0.26090
 H1002 H 0.22478 0.51161 0.21469
 C1003 C 0.74933 1.03596 0.75803
 C1004 C 0.75794 1.03595 0.74972
 C1005 C 0.75831 1.02476 0.74517
 N1006 N 0.75018 1.01796 0.75036
 C1007 C 0.74470 1.02478 0.75825
 C1008 C 0.76549 1.02126 0.73580
 C1009 C 0.76666 1.00956 0.73213
 C1010 C 0.77169 1.00609 0.72171
 C1011 C 0.77164 0.99409 0.72166
 C1012 C 0.76662 0.99056 0.73208
 N1013 N 0.76369 1.00005 0.73844
 C1014 C 0.76540 0.97884 0.73570
 C1015 C 0.75836 0.97538 0.74520
 C1016 C 0.75820 0.96426 0.74995
 C1017 C 0.74968 0.96426 0.75834
 C1018 C 0.74490 0.97538 0.75843
 N1019 N 0.75020 0.98216 0.75037
 C1020 C 0.73526 0.97884 0.76531
 C1021 C 0.73153 0.99055 0.76638
 C1022 C 0.72092 0.99403 0.77108
 C1023 C 0.72087 1.00603 0.77102
 C1024 C 0.73145 1.00956 0.76629
 N1025 N 0.73793 1.00007 0.76357
 C1026 C 0.73506 1.02130 0.76511
 H1027 H 0.74673 1.04337 0.76325
 H1028 H 0.76325 1.04336 0.74724
 H1029 H 0.74667 1.00008 0.76110
 H1030 H 0.77507 1.01163 0.71485
 H1031 H 0.77497 0.98858 0.71476
 H1032 H 0.76361 0.95688 0.74757
 H1033 H 0.74722 0.95689 0.76370
 H1034 H 0.71384 1.01154 0.77413
 H1035 H 0.76101 1.00004 0.74708
 H1036 H 0.71395 0.98849 0.77425
 C1037 C 0.74955 0.46435 0.25803
 C1038 C 0.75815 0.46432 0.24972
 C1039 C 0.75841 0.47545 0.24499
 N1040 N 0.75023 0.48226 0.25011
 C1041 C 0.74483 0.47549 0.25810
 C1042 C 0.76554 0.47889 0.23556
 C1043 C 0.76684 0.49062 0.23196
 C1044 C 0.77194 0.49413 0.22157
 C1045 C 0.77201 0.50614 0.22161
 C1046 C 0.76692 0.50962 0.23200
 N1047 N 0.76390 0.50011 0.23830
 C1048 C 0.76572 0.52133 0.23565
 C1049 C 0.75853 0.52484 0.24500
 C1050 C 0.75818 0.53602 0.24956
 C1051 C 0.74955 0.53605 0.25784
 C1052 C 0.74488 0.52489 0.25804
 N1053 N 0.75036 0.51806 0.25015
 C1054 C 0.73519 0.52143 0.26484
 C1055 C 0.73150 0.50971 0.26594
 C1056 C 0.72085 0.50624 0.27056
 C1057 C 0.72083 0.49423 0.27058
 C1058 C 0.73147 0.49071 0.26597
 N1059 N 0.73795 0.50020 0.26324
 C1060 C 0.73514 0.47898 0.26490
 H1061 H 0.74701 0.45697 0.26335
 H1062 H 0.76355 0.45693 0.24738
 H1063 H 0.74671 0.50017 0.26086
 H1064 H 0.77529 0.48862 0.21469
 H1065 H 0.77543 0.51167 0.21477
 H1066 H 0.76351 0.54342 0.24710
 H1067 H 0.74694 0.54347 0.26305
 H1068 H 0.71379 0.48873 0.27365
 H1069 H 0.76115 0.50011 0.24692
 H1070 H 0.71382 0.51177 0.27362
 C1071 C 0.24220 -0.03613 0.74969
 C1072 C 0.25081 -0.03619 0.75798
 C1073 C 0.25547 -0.02503 0.75822
 N1074 N 0.24999 -0.01816 0.75035
 C1075 C 0.24184 -0.02492 0.74516
 C1076 C 0.26515 -0.02159 0.76504
 C1077 C 0.26882 -0.00988 0.76619
 C1078 C 0.27946 -0.00641 0.77083
 C1079 C 0.27946 0.00559 0.77089
 C1080 C 0.26882 0.00913 0.76628
 N1081 N 0.26236 -0.00035 0.76352
 C1082 C 0.26514 0.02086 0.76526
 C1083 C 0.25546 0.02437 0.75846
 C1084 C 0.25071 0.03550 0.75843
 C1085 C 0.24212 0.03556 0.75011
 C1086 C 0.24191 0.02446 0.74533
 N1087 N 0.25008 0.01764 0.75043
 C1088 C 0.23479 0.02106 0.73588
 C1089 C 0.23353 0.00935 0.73223
 C1090 C 0.22847 0.00590 0.72181
 C1091 C 0.22841 -0.00611 0.72181
 C1092 C 0.23347 -0.00965 0.73220
 N1093 N 0.23648 -0.00017 0.73853
 C1094 C 0.23466 -0.02137 0.73581
 H1095 H 0.23687 -0.04352 0.74720
 H1096 H 0.25342 -0.04364 0.76317
 H1097 H 0.23920 -0.00021 0.74716
 H1098 H 0.28649 -0.01195 0.77387
 H1099 H 0.28649 0.01109 0.77399
 H1100 H 0.25322 0.04285 0.76379
 H1101 H 0.23671 0.04296 0.74779
 H1102 H 0.22500 -0.01161 0.71495
 H1103 H 0.25360 -0.00033 0.76113
 H1104 H 0.22512 0.01144 0.71495
 C1105 C 0.24983 0.25817 1.03573
 C1106 C 0.25830 0.24970 1.03572
 C1107 C 0.25835 0.24490 1.02464
 N1108 N 0.25020 0.25014 1.01790
 C1109 C 0.24499 0.25827 1.02467
 C1110 C 0.26527 0.23529 1.02120
 C1111 C 0.26639 0.23163 1.00950
 C1112 C 0.27114 0.22106 1.00601
 C1113 C 0.27112 0.22107 0.99403
 C1114 C 0.26635 0.23163 0.99054
 N1115 N 0.26357 0.23805 1.00002
 C1116 C 0.26518 0.23530 0.97884
 C1117 C 0.25824 0.24491 0.97542
 C1118 C 0.25811 0.24971 0.96434
 C1119 C 0.24964 0.25817 0.96436
 C1120 C 0.24486 0.25826 0.97545
 N1121 N 0.25011 0.25013 0.98220
 C1122 C 0.23524 0.26518 0.97890
 C1123 C 0.23160 0.26633 0.99061
 C1124 C 0.22103 0.27111 0.99413
 C1125 C 0.22107 0.27112 1.00611
 C1126 C 0.23166 0.26635 1.00957
 N1127 N 0.23806 0.26354 1.00008
 C1128 C 0.23537 0.26521 1.02126
 H1129 H 0.24745 0.26357 1.04309
 H1130 H 0.26373 0.24729 1.04305
 H1131 H 0.24679 0.26102 1.00005
 H1132 H 0.27432 0.21408 1.01151
 H1133 H 0.27428 0.21409 0.98852
 H1134 H 0.26351 0.24731 0.95698
 H1135 H 0.24721 0.26357 0.95701
 H1136 H 0.21410 0.27430 1.01163
 H1137 H 0.26106 0.24676 1.00002
 H1138 H 0.21403 0.27428 0.98864
 C1139 C 0.24981 0.75830 0.53573
 C1140 C 0.25829 0.74984 0.53573
 C1141 C 0.25837 0.74504 0.52466
 N1142 N 0.25023 0.75026 0.51791
 C1143 C 0.24500 0.75839 0.52466
 C1144 C 0.26531 0.73543 0.52124
 C1145 C 0.26643 0.73175 0.50955
 C1146 C 0.27118 0.72118 0.50607
 C1147 C 0.27117 0.72117 0.49409
 C1148 C 0.26641 0.73174 0.49058
 N1149 N 0.26363 0.73817 0.50006
 C1150 C 0.26526 0.73540 0.47888
 C1151 C 0.25835 0.74502 0.47545
 C1152 C 0.25826 0.74982 0.46436
 C1153 C 0.24981 0.75830 0.46436
 C1154 C 0.24501 0.75841 0.47544
 N1155 N 0.25023 0.75027 0.48220
 C1156 C 0.23540 0.76535 0.47887
 C1157 C 0.23172 0.76650 0.49056
 C1158 C 0.22115 0.77128 0.49405
 C1159 C 0.22114 0.77127 0.50603
 C1160 C 0.23171 0.76648 0.50953
 N1161 N 0.23814 0.76368 0.50005
 C1162 C 0.23538 0.76533 0.52122
 H1163 H 0.24742 0.76371 0.54307
 H1164 H 0.26371 0.74744 0.54308
 H1165 H 0.24687 0.76115 0.50005
 H1166 H 0.27435 0.71420 0.51158
 H1167 H 0.27432 0.71418 0.48859
 H1168 H 0.26366 0.74740 0.45701
 H1169 H 0.24741 0.76370 0.45700
 H1170 H 0.21415 0.77445 0.51154
 H1171 H 0.26113 0.74688 0.50005
 H1172 H 0.21416 0.77447 0.48854
 C1173 C 0.24196 0.74962 -0.03593
 C1174 C 0.25035 0.75814 -0.03599
 C1175 C 0.25515 0.75836 -0.02491
 N1176 N 0.24999 0.75024 -0.01809
 C1177 C 0.24190 0.74490 -0.02481
 C1178 C 0.26467 0.76542 -0.02152
 C1179 C 0.26833 0.76670 -0.00984
 C1180 C 0.27880 0.77172 -0.00638
 C1181 C 0.27880 0.77180 0.00560
 C1182 C 0.26835 0.76678 0.00912
 N1183 N 0.26198 0.76380 -0.00033
 C1184 C 0.26471 0.76562 0.02082
 C1185 C 0.25528 0.75853 0.02437
 C1186 C 0.25073 0.75822 0.03555
 C1187 C 0.24234 0.74968 0.03562
 C1188 C 0.24208 0.74502 0.02449
 N1189 N 0.25002 0.75042 0.01763
 C1190 C 0.23518 0.73539 0.02108
 C1191 C 0.23402 0.73171 0.00939
 C1192 C 0.22930 0.72111 0.00595
 C1193 C 0.22926 0.72108 -0.00603
 C1194 C 0.23396 0.73165 -0.00958
 N1195 N 0.23675 0.73811 -0.00013
 C1196 C 0.23503 0.73529 -0.02129
 H1197 H 0.23657 0.74712 -0.04326
 H1198 H 0.25271 0.76351 -0.04338
 H1199 H 0.23920 0.74683 -0.00017
 H1200 H 0.28570 0.77502 -0.01192
 H1201 H 0.28569 0.77518 0.01109
 H1202 H 0.25325 0.76353 0.04292
 H1203 H 0.23711 0.74713 0.04305
 H1204 H 0.22612 0.71407 -0.01150
 H1205 H 0.25331 0.76111 -0.00030
 H1206 H 0.22619 0.71413 0.01150
 C1207 C 0.24554 0.24588 0.46338
 C1208 C 0.25429 0.25403 0.46337
 C1209 C 0.25681 0.25644 0.47493
 N1210 N 0.24993 0.24995 0.48197
 C1211 C 0.24303 0.24347 0.47495
 C1212 C 0.26515 0.26476 0.47865
 C1213 C 0.26760 0.26748 0.49044
 C1214 C 0.27448 0.27680 0.49395
 C1215 C 0.27450 0.27679 0.50590
 C1216 C 0.26763 0.26747 0.50944
 N1217 N 0.26364 0.26171 0.49995
 C1218 C 0.26521 0.26473 0.52124
 C1219 C 0.25688 0.25641 0.52499
 C1220 C 0.25437 0.25400 0.53656
 C1221 C 0.24562 0.24586 0.53658
 C1222 C 0.24310 0.24344 0.52502
 N1223 N 0.24998 0.24993 0.51798
 C1224 C 0.23476 0.23512 0.52130
 C1225 C 0.23231 0.23240 0.50951
 C1226 C 0.22543 0.22308 0.50600
 C1227 C 0.22541 0.22309 0.49405
 C1228 C 0.23228 0.23241 0.49051
 N1229 N 0.23627 0.23817 0.50000
 C1230 C 0.23470 0.23515 0.47871
 H1231 H 0.24153 0.24213 0.45572
 H1232 H 0.25828 0.25777 0.45568
 H1233 H 0.24075 0.24601 0.49999
 H1234 H 0.27887 0.28311 0.48847
 H1235 H 0.27891 0.28309 0.51136
 H1236 H 0.25837 0.25775 0.54423
 H1237 H 0.24163 0.24211 0.54427
 H1238 H 0.22100 0.21679 0.48859
 H1239 H 0.25916 0.25387 0.49996
 H1240 H 0.22103 0.21677 0.51148
 C1241 C 0.74952 0.75858 1.03540
 C1242 C 0.75800 0.75014 1.03544
 C1243 C 0.75812 0.74530 1.02439
 N1244 N 0.74998 0.75050 1.01759
 C1245 C 0.74473 0.75863 1.02431
 C1246 C 0.76507 0.73569 1.02101
 C1247 C 0.76624 0.73200 1.00932
 C1248 C 0.77104 0.72143 1.00588
 C1249 C 0.77106 0.72140 0.99390
 C1250 C 0.76627 0.73194 0.99036
 N1251 N 0.76344 0.73838 0.99981
 C1252 C 0.76512 0.73556 0.97865
 C1253 C 0.75815 0.74512 0.97516
 C1254 C 0.75804 0.74987 0.96406
 C1255 C 0.74952 0.75829 0.96401
 C1256 C 0.74471 0.75842 0.97509
 N1257 N 0.74998 0.75035 0.98189
 C1258 C 0.73507 0.76533 0.97848
 C1259 C 0.73140 0.76653 0.99018
 C1260 C 0.72082 0.77131 0.99365
 C1261 C 0.72082 0.77136 1.00563
 C1262 C 0.73141 0.76662 1.00914
 N1263 N 0.73784 0.76378 0.99967
 C1264 C 0.73509 0.76553 1.02084
 H1265 H 0.74709 0.76400 1.04272
 H1266 H 0.76340 0.74776 1.04281
 H1267 H 0.74657 0.76128 0.99968
 H1268 H 0.77422 0.71448 1.01142
 H1269 H 0.77426 0.71441 0.98843
 H1270 H 0.76346 0.74746 0.95672
 H1271 H 0.74710 0.76365 0.95663
 H1272 H 0.71383 0.77455 1.01113
 H1273 H 0.76090 0.74708 0.99977
 H1274 H 0.71382 0.77445 0.98813
 C1275 C 0.75430 0.24587 0.53666
 C1276 C 0.74539 0.25386 0.53666
 C1277 C 0.74283 0.25624 0.52509
 N1278 N 0.74990 0.24993 0.51807
 C1279 C 0.75692 0.24358 0.52510
 C1280 C 0.73432 0.26439 0.52135
 C1281 C 0.73186 0.26714 0.50956
 C1282 C 0.72472 0.27627 0.50604
 C1283 C 0.72477 0.27633 0.49408
 C1284 C 0.73192 0.26721 0.49055
 N1285 N 0.73602 0.26152 0.50005
 C1286 C 0.73446 0.26457 0.47876
 C1287 C 0.74288 0.25632 0.47502
 C1288 C 0.74536 0.25388 0.46345
 C1289 C 0.75418 0.24579 0.46345
 C1290 C 0.75679 0.24346 0.47502
 N1291 N 0.74987 0.24993 0.48204
 C1292 C 0.76527 0.23527 0.47876
 C1293 C 0.76789 0.23269 0.49056
 C1294 C 0.77517 0.22367 0.49409
 C1295 C 0.77523 0.22373 0.50605
 C1296 C 0.76797 0.23276 0.50957
 N1297 N 0.76372 0.23832 0.50005
 C1298 C 0.76547 0.23546 0.52135
 H1299 H 0.75834 0.24214 0.54433
 H1300 H 0.74131 0.25754 0.54433
 H1301 H 0.75888 0.24594 0.50004
 H1302 H 0.72008 0.28240 0.51152
 H1303 H 0.72018 0.28251 0.48862
 H1304 H 0.74129 0.25756 0.45578
 H1305 H 0.75818 0.24204 0.45578
 H1306 H 0.77998 0.21766 0.51153
 H1307 H 0.74071 0.25380 0.50005
 H1308 H 0.77984 0.21755 0.48863
 C1309 C 0.74513 0.24631 -0.03674
 C1310 C 0.75395 0.25439 -0.03673
 C1311 C 0.75669 0.25654 -0.02516
 N1312 N 0.74982 0.25001 -0.01815
 C1313 C 0.74273 0.24375 -0.02518
 C1314 C 0.76529 0.26459 -0.02141
 C1315 C 0.76792 0.26716 -0.00961
 C1316 C 0.77562 0.27581 -0.00608
 C1317 C 0.77554 0.27585 0.00589
 C1318 C 0.76782 0.26720 0.00941
 N1319 N 0.76339 0.26183 -0.00010
 C1320 C 0.76504 0.26473 0.02119
 C1321 C 0.75643 0.25666 0.02493
 C1322 C 0.75363 0.25453 0.03649
 C1323 C 0.74484 0.24641 0.03648
 C1324 C 0.74257 0.24377 0.02491
 N1325 N 0.74967 0.25005 0.01791
 C1326 C 0.73428 0.23540 0.02116
 C1327 C 0.73191 0.23264 0.00936
 C1328 C 0.72503 0.22334 0.00582
 C1329 C 0.72505 0.22335 -0.00614
 C1330 C 0.73197 0.23265 -0.00965
 N1331 N 0.73592 0.23840 -0.00014
 C1332 C 0.73438 0.23544 -0.02144
 H1333 H 0.74102 0.24268 -0.04441
 H1334 H 0.75788 0.25825 -0.04439
 H1335 H 0.74035 0.24626 -0.00014
 H1336 H 0.78067 0.28161 -0.01154
 H1337 H 0.78053 0.28170 0.01136
 H1338 H 0.75749 0.25841 0.04416
 H1339 H 0.74066 0.24283 0.04414
 H1340 H 0.72060 0.21709 -0.01162
 H1341 H 0.75803 0.25460 -0.00010
 H1342 H 0.72057 0.21706 0.01128
 C1343 C 0.74171 0.74960 0.53581
 C1344 C 0.75009 0.75814 0.53584
 C1345 C 0.75488 0.75834 0.52475
 N1346 N 0.74972 0.75021 0.51797
 C1347 C 0.74164 0.74487 0.52471
 C1348 C 0.76439 0.76542 0.52133
 C1349 C 0.76804 0.76668 0.50964
 C1350 C 0.77849 0.77172 0.50615
 C1351 C 0.77848 0.77178 0.49417
 C1352 C 0.76803 0.76675 0.49068
 N1353 N 0.76168 0.76376 0.50015
 C1354 C 0.76439 0.76557 0.47899
 C1355 C 0.75497 0.75845 0.47548
 C1356 C 0.75041 0.75812 0.46430
 C1357 C 0.74205 0.74956 0.46427
 C1358 C 0.74181 0.74491 0.47542
 N1359 N 0.74974 0.75033 0.48224
 C1360 C 0.73493 0.73527 0.47886
 C1361 C 0.73376 0.73161 0.49056
 C1362 C 0.72905 0.72102 0.49405
 C1363 C 0.72901 0.72101 0.50603
 C1364 C 0.73370 0.73159 0.50953
 N1365 N 0.73649 0.73803 0.50006
 C1366 C 0.73478 0.73525 0.52123
 H1367 H 0.73633 0.74711 0.54316
 H1368 H 0.75245 0.76352 0.54321
 H1369 H 0.73893 0.74676 0.50007
 H1370 H 0.78540 0.77505 0.51166
 H1371 H 0.78537 0.77517 0.48866
 H1372 H 0.75291 0.76343 0.45691
 H1373 H 0.73682 0.74699 0.45685
 H1374 H 0.72587 0.71401 0.51153
 H1375 H 0.75302 0.76106 0.50014
 H1376 H 0.72596 0.71402 0.48853
 C1377 C 0.96404 0.24200 0.25009
 C1378 C 0.96409 0.25058 0.24176
 C1379 C 0.97525 0.25531 0.24174
 N1380 N 0.98200 0.24993 0.24977
 C1381 C 0.97517 0.24177 0.25486
 C1382 C 0.97875 0.26498 0.23495
 C1383 C 0.99050 0.26865 0.23393
 C1384 C 0.99403 0.27927 0.22934
 C1385 C 1.00606 0.27926 0.22939
 C1386 C 1.00955 0.26863 0.23401
 N1387 N 1.00001 0.26219 0.23668
 C1388 C 1.02129 0.26495 0.23514
 C1389 C 1.02474 0.25526 0.24194
 C1390 C 1.03593 0.25059 0.24215
 C1391 C 1.03588 0.24196 0.25042
 C1392 C 1.02465 0.24161 0.25496
 N1393 N 1.01787 0.24978 0.24980
 C1394 C 1.02111 0.23443 0.26430
 C1395 C 1.00937 0.23325 0.26793
 C1396 C 1.00585 0.22817 0.27832
 C1397 C 0.99382 0.22826 0.27833
 C1398 C 0.99033 0.23335 0.26794
 N1399 N 0.99986 0.23629 0.26161
 C1400 C 0.97859 0.23464 0.26431
 H1401 H 0.95664 0.23661 0.25240
 H1402 H 0.95673 0.25310 0.23641
 H1403 H 0.99988 0.23903 0.25299
 H1404 H 0.98851 0.28630 0.22626
 H1405 H 1.01161 0.28628 0.22635
 H1406 H 1.04339 0.25320 0.23696
 H1407 H 1.04329 0.23662 0.25289
 H1408 H 0.98828 0.22491 0.28520
 H1409 H 0.99999 0.25344 0.23905
 H1410 H 1.01138 0.22474 0.28516
 C1411 C 0.53585 0.25038 0.74227
 C1412 C 0.53581 0.24175 0.75054
 C1413 C 0.52458 0.24139 0.75508
 N1414 N 0.51779 0.24955 0.74992
 C1415 C 0.52466 0.25504 0.74206
 C1416 C 0.52104 0.23419 0.76441
 C1417 C 0.50930 0.23299 0.76802
 C1418 C 0.50578 0.22789 0.77840
 C1419 C 0.49375 0.22796 0.77841
 C1420 C 0.49026 0.23307 0.76802
 N1421 N 0.49980 0.23603 0.76171
 C1422 C 0.47852 0.23436 0.76439
 C1423 C 0.47509 0.24151 0.75496
 C1424 C 0.46396 0.24177 0.75020
 C1425 C 0.46400 0.25037 0.74190
 C1426 C 0.47515 0.25509 0.74187
 N1427 N 0.48192 0.24968 0.74988
 C1428 C 0.47866 0.26477 0.73509
 C1429 C 0.49041 0.26843 0.73406
 C1430 C 0.49394 0.27906 0.72947
 C1431 C 0.50597 0.27904 0.72952
 C1432 C 0.50946 0.26841 0.73414
 N1433 N 0.49992 0.26197 0.73681
 C1434 C 0.52120 0.26473 0.73527
 H1435 H 0.54330 0.25299 0.73708
 H1436 H 0.54322 0.23642 0.75301
 H1437 H 0.49990 0.25322 0.73917
 H1438 H 0.51131 0.22445 0.78524
 H1439 H 0.48821 0.22459 0.78527
 H1440 H 0.45655 0.23637 0.75251
 H1441 H 0.45663 0.25291 0.73656
 H1442 H 0.51152 0.28606 0.72648
 H1443 H 0.49981 0.23879 0.75309
 H1444 H 0.48843 0.28608 0.72638
 C1445 C -0.03593 0.25054 0.75816
 C1446 C -0.03595 0.24192 0.74990
 C1447 C -0.02481 0.24166 0.74515
 N1448 N -0.01799 0.24984 0.75022
 C1449 C -0.02478 0.25526 0.75819
 C1450 C -0.02136 0.23450 0.73576
 C1451 C -0.00961 0.23321 0.73215
 C1452 C -0.00610 0.22810 0.72178
 C1453 C 0.00593 0.22803 0.72181
 C1454 C 0.00942 0.23313 0.73218
 N1455 N -0.00010 0.23616 0.73847
 C1456 C 0.02116 0.23432 0.73582
 C1457 C 0.02467 0.24150 0.74516
 C1458 C 0.03588 0.24185 0.74973
 C1459 C 0.03591 0.25048 0.75798
 C1460 C 0.02472 0.25515 0.75815
 N1461 N 0.01788 0.24967 0.75028
 C1462 C 0.02126 0.26485 0.76490
 C1463 C 0.00951 0.26855 0.76598
 C1464 C 0.00602 0.27920 0.77055
 C1465 C -0.00601 0.27923 0.77056
 C1466 C -0.00953 0.26860 0.76599
 N1467 N -0.00002 0.26212 0.76331
 C1468 C -0.02129 0.26495 0.76493
 H1469 H -0.04332 0.25309 0.76348
 H1470 H -0.04335 0.23652 0.74759
 H1471 H -0.00004 0.25337 0.76097
 H1472 H -0.01163 0.22473 0.71492
 H1473 H 0.01146 0.22459 0.71498
 H1474 H 0.04330 0.23650 0.74729
 H1475 H 0.04334 0.25308 0.76319
 H1476 H -0.01153 0.28627 0.77360
 H1477 H -0.00010 0.23892 0.74709
 H1478 H 0.01157 0.28622 0.77358
 C1479 C 0.53603 0.25014 0.25797
 C1480 C 0.53601 0.24166 0.24957
 C1481 C 0.52486 0.24155 0.24483
 N1482 N 0.51809 0.24969 0.25003
 C1483 C 0.52490 0.25494 0.25808
 C1484 C 0.52138 0.23459 0.23530
 C1485 C 0.50962 0.23342 0.23172
 C1486 C 0.50606 0.22861 0.22123
 C1487 C 0.49403 0.22859 0.22130
 C1488 C 0.49058 0.23338 0.23184
 N1489 N 0.50013 0.23623 0.23817
 C1490 C 0.47885 0.23451 0.23556
 C1491 C 0.47543 0.24150 0.24510
 C1492 C 0.46433 0.24162 0.24994
 C1493 C 0.46435 0.25014 0.25830
 C1494 C 0.47547 0.25495 0.25830
 N1495 N 0.48223 0.24967 0.25021
 C1496 C 0.47893 0.26459 0.26511
 C1497 C 0.49068 0.26827 0.26616
 C1498 C 0.49420 0.27886 0.27081
 C1499 C 0.50623 0.27885 0.27077
 C1500 C 0.50972 0.26825 0.26609
 N1501 N 0.50019 0.26183 0.26338
 C1502 C 0.52146 0.26456 0.26496
 H1503 H 0.54343 0.25256 0.26332
 H1504 H 0.54338 0.23625 0.24717
 H1505 H 0.50019 0.25310 0.26095
 H1506 H 0.51156 0.22543 0.21424
 H1507 H 0.48847 0.22537 0.21439
 H1508 H 0.45695 0.23619 0.24763
 H1509 H 0.45699 0.25257 0.26371
 H1510 H 0.51177 0.28584 0.27385
 H1511 H 0.50017 0.23877 0.24685
 H1512 H 0.48868 0.28586 0.27394
 C1513 C 1.03590 0.75068 0.74226
 C1514 C 1.03584 0.74206 0.75054
 C1515 C 1.02461 0.74171 0.75506
 N1516 N 1.01783 0.74987 0.74989
 C1517 C 1.02471 0.75534 0.74203
 C1518 C 1.02105 0.73453 0.76440
 C1519 C 1.00931 0.73335 0.76801
 C1520 C 1.00577 0.72827 0.77839
 C1521 C 0.99374 0.72834 0.77838
 C1522 C 0.99027 0.73342 0.76798
 N1523 N 0.99981 0.73637 0.76168
 C1524 C 0.97853 0.73469 0.76432
 C1525 C 0.97512 0.74182 0.75487
 C1526 C 0.96400 0.74206 0.75007
 C1527 C 0.96406 0.75064 0.74176
 C1528 C 0.97521 0.75538 0.74176
 N1529 N 0.98195 0.75000 0.74980
 C1530 C 0.97872 0.76506 0.73498
 C1531 C 0.99048 0.76872 0.73397
 C1532 C 0.99401 0.77934 0.72938
 C1533 C 1.00604 0.77933 0.72944
 C1534 C 1.00952 0.76870 0.73406
 N1535 N 0.99998 0.76226 0.73673
 C1536 C 1.02127 0.76502 0.73521
 H1537 H 1.04336 0.75328 0.73707
 H1538 H 1.04325 0.73673 0.75302
 H1539 H 0.99996 0.75351 0.73910
 H1540 H 1.01128 0.72484 0.78525
 H1541 H 0.98818 0.72498 0.78524
 H1542 H 0.95660 0.73665 0.75237
 H1543 H 0.95670 0.75317 0.73639
 H1544 H 1.01159 0.78635 0.72640
 H1545 H 0.99984 0.73911 0.75306
 H1546 H 0.98850 0.78637 0.72628
 C1547 C 0.53583 0.74190 0.25057
 C1548 C 0.53587 0.75050 0.24226
 C1549 C 0.52468 0.75515 0.24203
 N1550 N 0.51781 0.74969 0.24991
 C1551 C 0.52460 0.74156 0.25510
 C1552 C 0.52122 0.76481 0.23520
 C1553 C 0.50948 0.76850 0.23408
 C1554 C 0.50599 0.77913 0.22946
 C1555 C 0.49396 0.77916 0.22944
 C1556 C 0.49043 0.76854 0.23404
 N1557 N 0.49994 0.76207 0.23677
 C1558 C 0.47868 0.76489 0.23509
 C1559 C 0.47518 0.75521 0.24187
 C1560 C 0.46403 0.75047 0.24189
 C1561 C 0.46399 0.74188 0.25020
 C1562 C 0.47512 0.74165 0.25498
 N1563 N 0.48194 0.74982 0.24989
 C1564 C 0.47854 0.73452 0.26442
 C1565 C 0.49028 0.73325 0.26806
 C1566 C 0.49376 0.72819 0.27847
 C1567 C 0.50580 0.72813 0.27847
 C1568 C 0.50932 0.73320 0.26808
 N1569 N 0.49982 0.73620 0.26175
 C1570 C 0.52106 0.73440 0.26447
 H1571 H 0.54324 0.73659 0.25307
 H1572 H 0.54333 0.75309 0.23707
 H1573 H 0.49983 0.73893 0.25312
 H1574 H 0.51154 0.78614 0.22640
 H1575 H 0.48845 0.78619 0.22636
 H1576 H 0.45666 0.75299 0.23653
 H1577 H 0.45659 0.73648 0.25251
 H1578 H 0.51132 0.72473 0.28533
 H1579 H 0.49992 0.75333 0.23915
 H1580 H 0.48822 0.72484 0.28534
 C1581 C 0.03585 0.74171 0.24969
 C1582 C 0.03586 0.75023 0.25806
 C1583 C 0.02474 0.75504 0.25813
 N1584 N 0.01794 0.74976 0.25009
 C1585 C 0.02471 0.74159 0.24493
 C1586 C 0.02130 0.76470 0.26497
 C1587 C 0.00956 0.76838 0.26608
 C1588 C 0.00606 0.77899 0.27074
 C1589 C -0.00597 0.77900 0.27076
 C1590 C -0.00949 0.76840 0.26612
 N1591 N 0.00003 0.76195 0.26337
 C1592 C -0.02124 0.76473 0.26505
 C1593 C -0.02470 0.75508 0.25824
 C1594 C -0.03582 0.75029 0.25821
 C1595 C -0.03584 0.74177 0.24986
 C1596 C -0.02472 0.74162 0.24505
 N1597 N -0.01793 0.74978 0.25017
 C1598 C -0.02129 0.73461 0.23553
 C1599 C -0.00955 0.73344 0.23185
 C1600 C -0.00607 0.72861 0.22134
 C1601 C 0.00596 0.72861 0.22131
 C1602 C 0.00949 0.73344 0.23180
 N1603 N -0.00002 0.73629 0.23820
 C1604 C 0.02124 0.73460 0.23542
 H1605 H 0.04322 0.73629 0.24732
 H1606 H 0.04325 0.75267 0.26341
 H1607 H -0.00000 0.73886 0.24688
 H1608 H 0.01159 0.78599 0.27382
 H1609 H -0.01150 0.78600 0.27387
 H1610 H -0.04320 0.75274 0.26360
 H1611 H -0.04322 0.73635 0.24753
 H1612 H 0.01148 0.72539 0.21436
 H1613 H 0.00002 0.75322 0.26095
 H1614 H -0.01161 0.72539 0.21442
 C1615 C 0.53598 0.74192 0.75002
 C1616 C 0.53601 0.75045 0.75839
 C1617 C 0.52485 0.75518 0.75855
 N1618 N 0.51802 0.74984 0.75059
 C1619 C 0.52479 0.74169 0.74540
 C1620 C 0.52140 0.76481 0.76542
 C1621 C 0.50967 0.76857 0.76647
 C1622 C 0.50621 0.77918 0.77114
 C1623 C 0.49418 0.77928 0.77107
 C1624 C 0.49062 0.76873 0.76638
 N1625 N 0.50011 0.76222 0.76367
 C1626 C 0.47885 0.76515 0.76523
 C1627 C 0.47534 0.75554 0.75837
 C1628 C 0.46417 0.75086 0.75827
 C1629 C 0.46415 0.74231 0.74993
 C1630 C 0.47530 0.74205 0.74521
 N1631 N 0.48213 0.75017 0.75037
 C1632 C 0.47876 0.73494 0.73578
 C1633 C 0.49051 0.73367 0.73218
 C1634 C 0.49404 0.72864 0.72178
 C1635 C 0.50607 0.72853 0.72185
 C1636 C 0.50955 0.73353 0.73227
 N1637 N 0.50002 0.73654 0.73856
 C1638 C 0.52128 0.73462 0.73598
 H1639 H 0.54338 0.73657 0.74757
 H1640 H 0.54343 0.75295 0.76366
 H1641 H 0.50000 0.73922 0.74720
 H1642 H 0.51178 0.78613 0.77428
 H1643 H 0.48869 0.78632 0.77416
 H1644 H 0.45678 0.75338 0.76359
 H1645 H 0.45673 0.73695 0.74756
 H1646 H 0.51162 0.72513 0.71501
 H1647 H 0.50005 0.75350 0.76123
 H1648 H 0.48852 0.72534 0.71487
 C1649 C 0.39864 0.31694 0.30174
 C1650 C 0.40377 0.30703 0.30668
 C1651 C 0.39860 0.30176 0.31638
 C1652 C 0.38833 0.30636 0.32113
 C1653 C 0.38306 0.31634 0.31623
 C1654 C 0.38837 0.32157 0.30647
 C1655 C 0.41424 0.30216 0.30170
 C1656 C 0.42293 0.29801 0.29743
 C1657 C 0.43298 0.29302 0.29231
 C1658 C 0.44141 0.28863 0.28779
 C1659 C 0.45127 0.28321 0.28219
 C1660 C 0.45981 0.27747 0.28881
 C1661 C 0.46900 0.27162 0.28326
 C1662 C 0.46968 0.27145 0.27106
 C1663 C 0.46123 0.27743 0.26448
 C1664 C 0.45206 0.28326 0.27002
 H1665 H 0.40256 0.32108 0.29421
 H1666 H 0.40248 0.29405 0.32026
 H1667 H 0.38455 0.30203 0.32860
 H1668 H 0.38465 0.32924 0.30243
 H1669 H 0.45926 0.27735 0.29822
 H1670 H 0.47544 0.26703 0.28845
 H1671 H 0.46165 0.27739 0.25506
 H1672 H 0.44550 0.28765 0.26482
 C1673 C 0.39821 0.81721 0.80149
 C1674 C 0.40363 0.80760 0.80670
 C1675 C 0.39874 0.80260 0.81667
 C1676 C 0.38846 0.80716 0.82143
 C1677 C 0.38284 0.81686 0.81628
 C1678 C 0.38792 0.82181 0.80622
 C1679 C 0.41411 0.80276 0.80170
 C1680 C 0.42280 0.79861 0.79744
 C1681 C 0.43285 0.79362 0.79233
 C1682 C 0.44129 0.78922 0.78782
 C1683 C 0.45117 0.78379 0.78225
 C1684 C 0.45954 0.77782 0.78888
 C1685 C 0.46875 0.77198 0.78336
 C1686 C 0.46961 0.77204 0.77117
 C1687 C 0.46134 0.77824 0.76458
 C1688 C 0.45215 0.78407 0.77010
 H1689 H 0.40191 0.82114 0.79374
 H1690 H 0.40285 0.79513 0.82076
 H1691 H 0.38499 0.80299 0.82913
 H1692 H 0.38404 0.82923 0.80188
 H1693 H 0.45884 0.77751 0.79828
 H1694 H 0.47504 0.76720 0.78855
 H1695 H 0.46189 0.77837 0.75517
 H1696 H 0.44571 0.78865 0.76489
 C1697 C -0.10155 0.30236 0.81603
 C1698 C -0.09652 0.30753 0.80620
 C1699 C -0.10174 0.31738 0.80122
 C1700 C -0.11196 0.32204 0.80603
 C1701 C -0.11712 0.31692 0.81593
 C1702 C -0.11176 0.30700 0.82086
 C1703 C -0.08609 0.30265 0.80116
 C1704 C -0.07743 0.29847 0.79689
 C1705 C -0.06738 0.29346 0.79179
 C1706 C -0.05893 0.28905 0.78731
 C1707 C -0.04904 0.28361 0.78179
 C1708 C -0.04803 0.28384 0.76964
 C1709 C -0.03881 0.27800 0.76417
 C1710 C -0.03053 0.27187 0.77081
 C1711 C -0.03143 0.27186 0.78300
 C1712 C -0.04067 0.27770 0.78847
 H1713 H -0.09760 0.29471 0.81995
 H1714 H -0.09794 0.32144 0.79359
 H1715 H -0.11576 0.32965 0.80195
 H1716 H -0.11540 0.30277 0.82845
 H1717 H -0.05447 0.28836 0.76439
 H1718 H -0.03824 0.27808 0.75476
 H1719 H -0.02513 0.26712 0.78823
 H1720 H -0.04139 0.27744 0.79787
 C1721 C -0.10150 0.80190 0.31645
 C1722 C -0.09649 0.80703 0.30660
 C1723 C -0.10176 0.81681 0.30153
 C1724 C -0.11200 0.82145 0.30631
 C1725 C -0.11713 0.81638 0.31625
 C1726 C -0.11173 0.80652 0.32125
 C1727 C -0.08602 0.80218 0.30159
 C1728 C -0.07733 0.79804 0.29732
 C1729 C -0.06727 0.79308 0.29220
 C1730 C -0.05882 0.78871 0.28769
 C1731 C -0.04894 0.78331 0.28210
 C1732 C -0.04811 0.78340 0.26993
 C1733 C -0.03893 0.77758 0.26440
 C1734 C -0.03050 0.77159 0.27099
 C1735 C -0.03121 0.77173 0.28319
 C1736 C -0.04042 0.77756 0.28872
 H1737 H -0.09750 0.79430 0.32042
 H1738 H -0.09798 0.82083 0.29387
 H1739 H -0.11585 0.82900 0.30216
 H1740 H -0.11536 0.80233 0.32888
 H1741 H -0.05467 0.78780 0.26472
 H1742 H -0.03848 0.77756 0.25498
 H1743 H -0.02479 0.76713 0.28839
 H1744 H -0.04099 0.77742 0.29814
 C1745 C 0.60188 0.68354 0.30158
 C1746 C 0.59669 0.69338 0.30659
 C1747 C 0.60176 0.69852 0.31640
 C1748 C 0.61198 0.69385 0.32119
 C1749 C 0.61730 0.68394 0.31624
 C1750 C 0.61210 0.67885 0.30635
 C1751 C 0.58622 0.69827 0.30161
 C1752 C 0.57752 0.70244 0.29739
 C1753 C 0.56742 0.70743 0.29237
 C1754 C 0.55891 0.71182 0.28799
 C1755 C 0.54892 0.71725 0.28261
 C1756 C 0.54627 0.72893 0.28504
 C1757 C 0.53700 0.73443 0.27932
 C1758 C 0.53028 0.72828 0.27116
 C1759 C 0.53279 0.71653 0.26891
 C1760 C 0.54211 0.71103 0.27460
 H1761 H 0.59803 0.67950 0.29396
 H1762 H 0.59783 0.70616 0.32034
 H1763 H 0.61566 0.69806 0.32877
 H1764 H 0.61587 0.67124 0.30224
 H1765 H 0.55149 0.73382 0.29119
 H1766 H 0.53517 0.74353 0.28109
 H1767 H 0.52773 0.71172 0.26256
 H1768 H 0.54412 0.70202 0.27261
 C1769 C 0.60167 0.19787 0.81601
 C1770 C 0.59668 0.19279 0.80613
 C1771 C 0.60195 0.18302 0.80105
 C1772 C 0.61217 0.17833 0.80585
 C1773 C 0.61728 0.18336 0.81582
 C1774 C 0.61188 0.19320 0.82083
 C1775 C 0.58623 0.19769 0.80114
 C1776 C 0.57753 0.20189 0.79694
 C1777 C 0.56743 0.20693 0.79197
 C1778 C 0.55892 0.21138 0.78765
 C1779 C 0.54892 0.21686 0.78235
 C1780 C 0.54202 0.21069 0.77438
 C1781 C 0.53269 0.21624 0.76877
 C1782 C 0.53026 0.22802 0.77105
 C1783 C 0.53708 0.23412 0.77916
 C1784 C 0.54636 0.22856 0.78480
 H1785 H 0.59767 0.20545 0.82000
 H1786 H 0.59818 0.17904 0.79338
 H1787 H 0.61601 0.17079 0.80170
 H1788 H 0.61548 0.19735 0.82847
 H1789 H 0.54396 0.20167 0.77237
 H1790 H 0.52755 0.21147 0.76245
 H1791 H 0.53531 0.24323 0.78095
 H1792 H 0.55165 0.23342 0.79093
 C1793 C 1.10190 0.68351 0.80131
 C1794 C 1.09661 0.69327 0.80637
 C1795 C 1.10157 0.69835 0.81627
 C1796 C 1.11177 0.69368 0.82111
 C1797 C 1.11718 0.68384 0.81611
 C1798 C 1.11210 0.67882 0.80613
 C1799 C 1.08616 0.69814 0.80136
 C1800 C 1.07746 0.70230 0.79712
 C1801 C 1.06737 0.70730 0.79210
 C1802 C 1.05886 0.71172 0.78773
 C1803 C 1.04888 0.71719 0.78240
 C1804 C 1.04632 0.72889 0.78485
 C1805 C 1.03705 0.73445 0.77918
 C1806 C 1.03025 0.72835 0.77106
 C1807 C 1.03268 0.71658 0.76878
 C1808 C 1.04199 0.71102 0.77442
 H1809 H 1.09815 0.67952 0.79362
 H1810 H 1.09756 0.70593 0.82025
 H1811 H 1.11536 0.69783 0.82877
 H1812 H 1.11596 0.67129 0.80198
 H1813 H 1.05160 0.73375 0.79098
 H1814 H 1.03528 0.74356 0.78097
 H1815 H 1.02756 0.71181 0.76245
 H1816 H 1.04394 0.70200 0.77241
 C1817 C 1.10168 0.19827 0.31609
 C1818 C 1.09664 0.19312 0.30627
 C1819 C 1.10186 0.18330 0.30127
 C1820 C 1.11207 0.17862 0.30606
 C1821 C 1.11723 0.18370 0.31597
 C1822 C 1.11189 0.19361 0.32091
 C1823 C 1.08619 0.19800 0.30126
 C1824 C 1.07749 0.20217 0.29703
 C1825 C 1.06740 0.20718 0.29201
 C1826 C 1.05890 0.21160 0.28763
 C1827 C 1.04893 0.21708 0.28229
 C1828 C 1.04204 0.21091 0.27431
 C1829 C 1.03274 0.21647 0.26867
 C1830 C 1.03032 0.22825 0.27094
 C1831 C 1.03711 0.23435 0.27907
 C1832 C 1.04637 0.22877 0.28474
 H1833 H 1.09772 0.20590 0.32002
 H1834 H 1.09805 0.17926 0.29364
 H1835 H 1.11587 0.17102 0.30196
 H1836 H 1.11554 0.19782 0.32850
 H1837 H 1.04399 0.20189 0.27231
 H1838 H 1.02761 0.21171 0.26234
 H1839 H 1.03534 0.24345 0.28087
 H1840 H 1.05165 0.23363 0.29088
 C1841 C 0.60133 0.30222 0.68412
 C1842 C 0.59642 0.30732 0.69403
 C1843 C 0.60174 0.31706 0.69908
 C1844 C 0.61194 0.32171 0.69422
 C1845 C 0.61698 0.31667 0.68423
 C1846 C 0.61153 0.30685 0.67924
 C1847 C 0.58600 0.30245 0.69910
 C1848 C 0.57733 0.29828 0.70339
 C1849 C 0.56730 0.29326 0.70849
 C1850 C 0.55886 0.28885 0.71296
 C1851 C 0.54897 0.28339 0.71847
 C1852 C 0.54790 0.28366 0.73061
 C1853 C 0.53868 0.27781 0.73606
 C1854 C 0.53047 0.27162 0.72941
 C1855 C 0.53143 0.27158 0.71723
 C1856 C 0.54066 0.27743 0.71178
 H1857 H 0.59730 0.29466 0.68015
 H1858 H 0.59802 0.32105 0.70678
 H1859 H 0.61582 0.32923 0.69836
 H1860 H 0.61507 0.30269 0.67157
 H1861 H 0.55428 0.28822 0.73586
 H1862 H 0.53805 0.27792 0.74547
 H1863 H 0.52518 0.26681 0.71199
 H1864 H 0.54143 0.27714 0.70238
 C1865 C 0.60183 0.81682 0.19875
 C1866 C 0.59649 0.80710 0.19368
 C1867 C 0.60141 0.80200 0.18377
 C1868 C 0.61163 0.80660 0.17892
 C1869 C 0.61710 0.81640 0.18393
 C1870 C 0.61205 0.82144 0.19392
 C1871 C 0.58604 0.80226 0.19874
 C1872 C 0.57736 0.79812 0.20304
 C1873 C 0.56732 0.79316 0.20817
 C1874 C 0.55887 0.78879 0.21268
 C1875 C 0.54898 0.78338 0.21824
 C1876 C 0.54065 0.77738 0.21160
 C1877 C 0.53142 0.77157 0.21710
 C1878 C 0.53049 0.77167 0.22928
 C1879 C 0.53872 0.77790 0.23588
 C1880 C 0.54792 0.78371 0.23038
 H1881 H 0.59811 0.82082 0.20645
 H1882 H 0.59736 0.79445 0.17979
 H1883 H 0.61519 0.80244 0.17126
 H1884 H 0.61595 0.82895 0.19808
 H1885 H 0.54140 0.77704 0.20220
 H1886 H 0.52516 0.76677 0.21190
 H1887 H 0.53810 0.77807 0.24529
 H1888 H 0.55432 0.78831 0.23560
 C1889 C 1.10192 0.31708 0.19887
 C1890 C 1.09657 0.30738 0.19379
 C1891 C 1.10146 0.30230 0.18386
 C1892 C 1.11167 0.30691 0.17899
 C1893 C 1.11716 0.31669 0.18401
 C1894 C 1.11213 0.32172 0.19403
 C1895 C 1.08613 0.30253 0.19887
 C1896 C 1.07746 0.29839 0.20317
 C1897 C 1.06742 0.29341 0.20830
 C1898 C 1.05897 0.28903 0.21280
 C1899 C 1.04907 0.28359 0.21832
 C1900 C 1.04077 0.27762 0.21164
 C1901 C 1.03153 0.27177 0.21709
 C1902 C 1.03057 0.27184 0.22928
 C1903 C 1.03878 0.27804 0.23592
 C1904 C 1.04799 0.28388 0.23046
 H1905 H 1.09822 0.32107 0.20659
 H1906 H 1.09740 0.29476 0.17987
 H1907 H 1.11521 0.30277 0.17131
 H1908 H 1.11604 0.32921 0.19819
 H1909 H 1.04154 0.27731 0.20224
 H1910 H 1.02528 0.26699 0.21186
 H1911 H 1.03814 0.27817 0.24532
 H1912 H 1.05438 0.28846 0.23571
 C1913 C 1.10187 0.81708 0.69881
 C1914 C 1.09653 0.80736 0.69375
 C1915 C 1.10146 0.80227 0.68383
 C1916 C 1.11167 0.80689 0.67897
 C1917 C 1.11713 0.81669 0.68398
 C1918 C 1.11208 0.82172 0.69398
 C1919 C 1.08610 0.80251 0.69882
 C1920 C 1.07743 0.79836 0.70312
 C1921 C 1.06739 0.79339 0.70826
 C1922 C 1.05894 0.78901 0.71276
 C1923 C 1.04904 0.78359 0.71830
 C1924 C 1.04072 0.77761 0.71165
 C1925 C 1.03148 0.77179 0.71713
 C1926 C 1.03054 0.77188 0.72931
 C1927 C 1.03877 0.77809 0.73593
 C1928 C 1.04798 0.78391 0.73044
 H1929 H 1.09815 0.82108 0.70652
 H1930 H 1.09741 0.79472 0.67986
 H1931 H 1.11522 0.80273 0.67130
 H1932 H 1.11597 0.82923 0.69813
 H1933 H 1.04148 0.77728 0.70225
 H1934 H 1.02522 0.76701 0.71192
 H1935 H 1.03814 0.77824 0.74534
 H1936 H 1.05438 0.78849 0.73568
 C1937 C 0.39868 0.69825 0.68366
 C1938 C 0.40366 0.69317 0.69356
 C1939 C 0.39837 0.68343 0.69867
 C1940 C 0.38813 0.67879 0.69390
 C1941 C 0.38302 0.68383 0.68393
 C1942 C 0.38845 0.69363 0.67888
 C1943 C 0.41409 0.69806 0.69858
 C1944 C 0.42275 0.70228 0.70281
 C1945 C 0.43277 0.70739 0.70785
 C1946 C 0.44119 0.71193 0.71223
 C1947 C 0.45104 0.71758 0.71760
 C1948 C 0.45934 0.71104 0.72377
 C1949 C 0.46855 0.71667 0.72948
 C1950 C 0.46949 0.72887 0.72908
 C1951 C 0.46128 0.73536 0.72270
 C1952 C 0.45209 0.72974 0.71700
 H1953 H 0.40269 0.70582 0.67966
 H1954 H 0.40214 0.67944 0.70636
 H1955 H 0.38428 0.67126 0.69807
 H1956 H 0.38483 0.69781 0.67124
 H1957 H 0.45858 0.70164 0.72432
 H1958 H 0.47480 0.71155 0.73440
 H1959 H 0.46190 0.74478 0.72232
 H1960 H 0.44571 0.73488 0.71226
 C1961 C 0.39847 0.18300 0.19846
 C1962 C 0.40371 0.19279 0.19340
 C1963 C 0.39867 0.19791 0.18355
 C1964 C 0.38846 0.19327 0.17876
 C1965 C 0.38309 0.18340 0.18376
 C1966 C 0.38825 0.17833 0.19369
 C1967 C 0.41414 0.19769 0.19839
 C1968 C 0.42281 0.20190 0.20261
 C1969 C 0.43284 0.20701 0.20762
 C1970 C 0.44127 0.21154 0.21199
 C1971 C 0.45111 0.21721 0.21735
 C1972 C 0.45196 0.22939 0.21707
 C1973 C 0.46114 0.23500 0.22279
 C1974 C 0.46956 0.22847 0.22886
 C1975 C 0.46883 0.21625 0.22892
 C1976 C 0.45962 0.21063 0.22320
 H1977 H 0.40228 0.17898 0.20612
 H1978 H 0.40264 0.20552 0.17957
 H1979 H 0.38482 0.19745 0.17114
 H1980 H 0.38444 0.17077 0.19784
 H1981 H 0.44542 0.23455 0.21259
 H1982 H 0.46161 0.24444 0.22265
 H1983 H 0.47525 0.21110 0.23359
 H1984 H 0.45904 0.20121 0.22348
 C1985 C -0.10171 0.68332 0.19824
 C1986 C -0.09647 0.69310 0.19317
 C1987 C -0.10150 0.69822 0.18331
 C1988 C -0.11172 0.69357 0.17852
 C1989 C -0.11708 0.68371 0.18353
 C1990 C -0.11193 0.67864 0.19346
 C1991 C -0.08603 0.69800 0.19817
 C1992 C -0.07736 0.70220 0.20239
 C1993 C -0.06732 0.70728 0.20742
 C1994 C -0.05889 0.71179 0.21181
 C1995 C -0.04904 0.71741 0.21721
 C1996 C -0.04815 0.72959 0.21695
 C1997 C -0.03896 0.73517 0.22270
 C1998 C -0.03058 0.72861 0.22879
 C1999 C -0.03135 0.71638 0.22883
 C2000 C -0.04057 0.71081 0.22307
 H2001 H -0.09791 0.67930 0.20590
 H2002 H -0.09754 0.70583 0.17934
 H2003 H -0.11536 0.69775 0.17090
 H2004 H -0.11574 0.67108 0.19761
 H2005 H -0.05466 0.73479 0.21246
 H2006 H -0.03847 0.74460 0.22258
 H2007 H -0.02497 0.71121 0.23351
 H2008 H -0.04119 0.70138 0.22334
 C2009 C -0.10150 0.18264 0.69850
 C2010 C -0.09640 0.19259 0.69362
 C2011 C -0.10156 0.19790 0.68393
 C2012 C -0.11180 0.19330 0.67915
 C2013 C -0.11704 0.18330 0.68398
 C2014 C -0.11174 0.17801 0.69372
 C2015 C -0.08597 0.19749 0.69864
 C2016 C -0.07733 0.20173 0.70288
 C2017 C -0.06734 0.20688 0.70790
 C2018 C -0.05893 0.21146 0.71227
 C2019 C -0.04909 0.21713 0.71762
 C2020 C -0.04804 0.22928 0.71700
 C2021 C -0.03885 0.23491 0.72270
 C2022 C -0.03064 0.22842 0.72909
 C2023 C -0.03158 0.21622 0.72950
 C2024 C -0.04079 0.21060 0.72379
 H2025 H -0.09757 0.17846 0.70601
 H2026 H -0.09770 0.20563 0.68010
 H2027 H -0.11558 0.19767 0.67170
 H2028 H -0.11543 0.17030 0.69770
 H2029 H -0.05441 0.23442 0.71226
 H2030 H -0.03822 0.24433 0.72231
 H2031 H -0.02533 0.21111 0.73442
 H2032 H -0.04154 0.20119 0.72435
 C2033 C 0.30206 0.39848 0.31595
 C2034 C 0.30739 0.40358 0.30625
 C2035 C 0.31730 0.39839 0.30135
 C2036 C 0.32188 0.38813 0.30612
 C2037 C 0.31659 0.38290 0.31590
 C2038 C 0.30661 0.38822 0.32075
 C2039 C 0.30256 0.41404 0.30121
 C2040 C 0.29842 0.42271 0.29693
 C2041 C 0.29344 0.43275 0.29181
 C2042 C 0.28904 0.44119 0.28731
 C2043 C 0.28360 0.45106 0.28177
 C2044 C 0.28392 0.45212 0.26962
 C2045 C 0.27806 0.46131 0.26414
 C2046 C 0.27181 0.46950 0.27075
 C2047 C 0.27171 0.46856 0.28293
 C2048 C 0.27757 0.45936 0.28842
 H2049 H 0.29436 0.40241 0.31980
 H2050 H 0.32148 0.40226 0.29381
 H2051 H 0.32955 0.38437 0.30212
 H2052 H 0.30224 0.38450 0.32822
 H2053 H 0.28853 0.44575 0.26439
 H2054 H 0.27821 0.46193 0.25473
 H2055 H 0.26689 0.47480 0.28814
 H2056 H 0.27724 0.45860 0.29782
 C2057 C 0.31735 -0.10218 0.80120
 C2058 C 0.30771 -0.09676 0.80636
 C2059 C 0.30267 -0.10161 0.81633
 C2060 C 0.30723 -0.11186 0.82114
 C2061 C 0.31697 -0.11747 0.81605
 C2062 C 0.32195 -0.11242 0.80598
 C2063 C 0.30286 -0.08631 0.80132
 C2064 C 0.29871 -0.07765 0.79704
 C2065 C 0.29371 -0.06762 0.79192
 C2066 C 0.28930 -0.05918 0.78743
 C2067 C 0.28384 -0.04931 0.78190
 C2068 C 0.27780 -0.04103 0.78857
 C2069 C 0.27194 -0.03182 0.78310
 C2070 C 0.27204 -0.03085 0.77092
 C2071 C 0.27831 -0.03903 0.76429
 C2072 C 0.28417 -0.04822 0.76976
 H2073 H 0.32130 -0.09850 0.79345
 H2074 H 0.29517 -0.09750 0.82038
 H2075 H 0.30303 -0.11529 0.82884
 H2076 H 0.32940 -0.11631 0.80167
 H2077 H 0.27747 -0.04181 0.79796
 H2078 H 0.26711 -0.02560 0.78832
 H2079 H 0.27847 -0.03839 0.75488
 H2080 H 0.28880 -0.05458 0.76452
 C2081 C 0.81683 0.39842 0.80189
 C2082 C 0.80698 0.40359 0.80692
 C2083 C 0.80183 0.39849 0.81671
 C2084 C 0.80649 0.38827 0.82148
 C2085 C 0.81645 0.38292 0.81652
 C2086 C 0.82153 0.38820 0.80662
 C2087 C 0.80207 0.41403 0.80195
 C2088 C 0.79784 0.42270 0.79775
 C2089 C 0.79274 0.43275 0.79276
 C2090 C 0.78822 0.44119 0.78839
 C2091 C 0.78259 0.45106 0.78303
 C2092 C 0.77040 0.45210 0.78348
 C2093 C 0.76481 0.46128 0.77774
 C2094 C 0.77136 0.46951 0.77146
 C2095 C 0.78360 0.46860 0.77122
 C2096 C 0.78919 0.45938 0.77697
 H2097 H 0.82088 0.40228 0.79427
 H2098 H 0.79417 0.40241 0.82066
 H2099 H 0.80220 0.38466 0.82905
 H2100 H 0.82915 0.38452 0.80243
 H2101 H 0.76521 0.44570 0.78813
 H2102 H 0.75536 0.46188 0.77799
 H2103 H 0.78876 0.47486 0.76637
 H2104 H 0.79862 0.45864 0.77654
 C2105 C 0.81708 -0.10217 0.30161
 C2106 C 0.80719 -0.09698 0.30654
 C2107 C 0.80193 -0.10204 0.31629
 C2108 C 0.80655 -0.11224 0.32114
 C2109 C 0.81655 -0.11760 0.31630
 C2110 C 0.82173 -0.11237 0.30643
 C2111 C 0.80235 -0.08653 0.30152
 C2112 C 0.79821 -0.07783 0.29728
 C2113 C 0.79323 -0.06775 0.29225
 C2114 C 0.78884 -0.05926 0.28786
 C2115 C 0.78340 -0.04931 0.28247
 C2116 C 0.77450 -0.04324 0.28828
 C2117 C 0.76872 -0.03403 0.28275
 C2118 C 0.77178 -0.03084 0.27136
 C2119 C 0.78086 -0.03676 0.26565
 C2120 C 0.78663 -0.04598 0.27118
 H2121 H 0.82120 -0.09833 0.29403
 H2122 H 0.79424 -0.09810 0.32016
 H2123 H 0.80218 -0.11583 0.32868
 H2124 H 0.82938 -0.11607 0.30231
 H2125 H 0.77191 -0.04577 0.29700
 H2126 H 0.76170 -0.02954 0.28723
 H2127 H 0.78328 -0.03439 0.25684
 H2128 H 0.79348 -0.05063 0.26660
 C2129 C 0.31686 0.60205 0.69873
 C2130 C 0.30715 0.59673 0.69357
 C2131 C 0.30209 0.60169 0.68366
 C2132 C 0.30670 0.61193 0.67890
 C2133 C 0.31647 0.61738 0.68399
 C2134 C 0.32149 0.61229 0.69398
 C2135 C 0.30228 0.58627 0.69854
 C2136 C 0.29808 0.57758 0.70272
 C2137 C 0.29304 0.56752 0.70770
 C2138 C 0.28859 0.55904 0.71205
 C2139 C 0.28311 0.54909 0.71741
 C2140 C 0.27411 0.54317 0.71164
 C2141 C 0.26831 0.53395 0.71715
 C2142 C 0.27146 0.53063 0.72848
 C2143 C 0.28063 0.53642 0.73415
 C2144 C 0.28643 0.54563 0.72864
 H2145 H 0.32083 0.59829 0.70643
 H2146 H 0.29455 0.59767 0.67961
 H2147 H 0.30254 0.61553 0.67124
 H2148 H 0.32900 0.61616 0.69819
 H2149 H 0.27145 0.54580 0.70297
 H2150 H 0.26121 0.52957 0.71270
 H2151 H 0.28312 0.53395 0.74291
 H2152 H 0.29335 0.55017 0.73320
 C2153 C 0.30200 1.10132 0.18352
 C2154 C 0.30714 1.09628 0.19336
 C2155 C 0.31693 1.10151 0.19843
 C2156 C 0.32159 1.11173 0.19368
 C2157 C 0.31651 1.11690 0.18376
 C2158 C 0.30664 1.11155 0.17875
 C2159 C 0.30225 1.08583 0.19832
 C2160 C 0.29804 1.07715 0.20251
 C2161 C 0.29294 1.06710 0.20749
 C2162 C 0.28841 1.05866 0.21183
 C2163 C 0.28274 1.04880 0.21715
 C2164 C 0.28931 1.04043 0.22320
 C2165 C 0.28368 1.03122 0.22890
 C2166 C 0.27144 1.03035 0.22863
 C2167 C 0.26492 1.03862 0.22236
 C2168 C 0.27055 1.04781 0.21665
 H2169 H 0.29439 1.09737 0.17954
 H2170 H 0.32095 1.09769 0.20608
 H2171 H 0.32916 1.11554 0.19784
 H2172 H 0.30245 1.11519 0.17114
 H2173 H 0.29874 1.04113 0.22366
 H2174 H 0.28881 1.02492 0.23374
 H2175 H 0.25547 1.03806 0.22207
 H2176 H 0.26539 1.05424 0.21202
 C2177 C 0.80176 0.60175 0.18374
 C2178 C 0.80688 0.59680 0.19364
 C2179 C 0.81666 0.60209 0.19868
 C2180 C 0.82132 0.61227 0.19384
 C2181 C 0.81626 0.61734 0.18386
 C2182 C 0.80640 0.61193 0.17888
 C2183 C 0.80203 0.58637 0.19868
 C2184 C 0.79788 0.57769 0.20293
 C2185 C 0.79290 0.56761 0.20797
 C2186 C 0.78849 0.55912 0.21234
 C2187 C 0.78302 0.54915 0.21767
 C2188 C 0.78923 0.54226 0.22564
 C2189 C 0.78368 0.53296 0.23128
 C2190 C 0.77189 0.53054 0.22901
 C2191 C 0.76575 0.53734 0.22090
 C2192 C 0.77131 0.54660 0.21523
 H2193 H 0.79416 0.59774 0.17978
 H2194 H 0.82068 0.59835 0.20637
 H2195 H 0.82887 0.61613 0.19798
 H2196 H 0.80222 0.61550 0.17123
 H2197 H 0.79827 0.54420 0.22764
 H2198 H 0.78848 0.52783 0.23760
 H2199 H 0.75663 0.53557 0.21911
 H2200 H 0.76642 0.55188 0.20911
 C2201 C 0.81698 1.10158 0.69859
 C2202 C 0.80703 1.09646 0.69371
 C2203 C 0.80173 1.10160 0.68401
 C2204 C 0.80634 1.11181 0.67919
 C2205 C 0.81635 1.11706 0.68403
 C2206 C 0.82162 1.11179 0.69380
 C2207 C 0.80216 1.08604 0.69876
 C2208 C 0.79797 1.07739 0.70303
 C2209 C 0.79292 1.06737 0.70809
 C2210 C 0.78846 1.05892 0.71248
 C2211 C 0.78292 1.04901 0.71784
 C2212 C 0.77119 1.04652 0.71541
 C2213 C 0.76558 1.03729 0.72108
 C2214 C 0.77168 1.03046 0.72919
 C2215 C 0.78349 1.03282 0.73146
 C2216 C 0.78909 1.04209 0.72582
 H2217 H 0.82115 1.09769 0.70612
 H2218 H 0.79399 1.09773 0.68018
 H2219 H 0.80198 1.11557 0.67173
 H2220 H 0.82933 1.11549 0.69778
 H2221 H 0.76633 1.05182 0.70927
 H2222 H 0.75645 1.03557 0.71929
 H2223 H 0.78827 1.02766 0.73777
 H2224 H 0.79814 1.04397 0.72781
 C2225 C 0.69815 0.60157 0.31615
 C2226 C 0.69293 0.59659 0.30634
 C2227 C 0.68310 0.60187 0.30137
 C2228 C 0.67848 0.61207 0.30620
 C2229 C 0.68365 0.61718 0.31610
 C2230 C 0.69356 0.61177 0.32100
 C2231 C 0.69776 0.58616 0.30128
 C2232 C 0.70187 0.57749 0.29697
 C2233 C 0.70681 0.56746 0.29183
 C2234 C 0.71117 0.55901 0.28732
 C2235 C 0.71657 0.54913 0.28177
 C2236 C 0.71622 0.54808 0.26963
 C2237 C 0.72205 0.53889 0.26414
 C2238 C 0.72830 0.53067 0.27074
 C2239 C 0.72842 0.53160 0.28292
 C2240 C 0.72259 0.54081 0.28842
 H2241 H 0.70580 0.59757 0.32005
 H2242 H 0.67900 0.59811 0.29375
 H2243 H 0.67088 0.61591 0.30213
 H2244 H 0.69782 0.61537 0.32859
 H2245 H 0.71161 0.55448 0.26441
 H2246 H 0.72188 0.53828 0.25473
 H2247 H 0.73324 0.52535 0.28813
 H2248 H 0.72294 0.54156 0.29781
 C2249 C 0.69814 1.10164 0.81627
 C2250 C 0.69291 1.09660 0.80650
 C2251 C 0.68303 1.10180 0.80157
 C2252 C 0.67837 1.11199 0.80637
 C2253 C 0.68352 1.11721 0.81625
 C2254 C 0.69352 1.11184 0.82111
 C2255 C 0.69775 1.08616 0.80146
 C2256 C 0.70186 1.07748 0.79716
 C2257 C 0.70678 1.06743 0.79203
 C2258 C 0.71110 1.05896 0.78753
 C2259 C 0.71647 1.04904 0.78200
 C2260 C 0.71606 1.04793 0.76987
 C2261 C 0.72186 1.03871 0.76439
 C2262 C 0.72815 1.03053 0.77100
 C2263 C 0.72832 1.03152 0.78318
 C2264 C 0.72252 1.04076 0.78866
 H2265 H 0.70583 1.09770 0.82014
 H2266 H 0.67892 1.09798 0.79397
 H2267 H 0.67072 1.11569 0.80225
 H2268 H 0.69786 1.11542 0.82866
 H2269 H 0.71142 1.05430 0.76463
 H2270 H 0.72164 1.03806 0.75498
 H2271 H 0.73317 1.02530 0.78839
 H2272 H 0.72292 1.04155 0.79805
 C2273 C 0.19814 0.60158 0.81642
 C2274 C 0.19306 0.59664 0.80651
 C2275 C 0.18331 0.60194 0.80141
 C2276 C 0.17864 0.61215 0.80620
 C2277 C 0.18366 0.61721 0.81619
 C2278 C 0.19350 0.61178 0.82123
 C2279 C 0.19794 0.58620 0.80153
 C2280 C 0.20212 0.57752 0.79732
 C2281 C 0.20714 0.56745 0.79232
 C2282 C 0.21155 0.55897 0.78796
 C2283 C 0.21700 0.54902 0.78258
 C2284 C 0.21349 0.54545 0.77146
 C2285 C 0.21926 0.53624 0.76592
 C2286 C 0.22859 0.53055 0.77147
 C2287 C 0.23193 0.53398 0.78271
 C2288 C 0.22616 0.54319 0.78824
 H2289 H 0.20572 0.59756 0.82042
 H2290 H 0.17932 0.59821 0.79372
 H2291 H 0.17110 0.61602 0.80203
 H2292 H 0.19765 0.61534 0.82889
 H2293 H 0.20645 0.54992 0.76700
 H2294 H 0.21663 0.53369 0.75723
 H2295 H 0.23915 0.52968 0.78706
 H2296 H 0.22896 0.54591 0.79683
 C2297 C 0.19823 1.10146 0.31626
 C2298 C 0.19304 1.09644 0.30645
 C2299 C 0.18321 1.10168 0.30144
 C2300 C 0.17857 1.11189 0.30622
 C2301 C 0.18370 1.11704 0.31610
 C2302 C 0.19361 1.11168 0.32106
 C2303 C 0.19790 1.08600 0.30144
 C2304 C 0.20205 1.07733 0.29717
 C2305 C 0.20702 1.06730 0.29206
 C2306 C 0.21139 1.05886 0.28757
 C2307 C 0.21680 1.04897 0.28204
 C2308 C 0.21643 1.04790 0.26990
 C2309 C 0.22224 1.03870 0.26442
 C2310 C 0.22851 1.03050 0.27103
 C2311 C 0.22866 1.03146 0.28321
 C2312 C 0.22285 1.04068 0.28869
 H2313 H 0.20588 1.09749 0.32019
 H2314 H 0.17914 1.09787 0.29382
 H2315 H 0.17097 1.11571 0.30211
 H2316 H 0.19786 1.11532 0.32863
 H2317 H 0.21180 1.05427 0.26467
 H2318 H 0.22204 1.03806 0.25501
 H2319 H 0.23349 1.02521 0.28842
 H2320 H 0.22322 1.04145 0.29809
 C2321 C 0.68338 0.39825 0.69854
 C2322 C 0.69315 0.40350 0.69343
 C2323 C 0.69823 0.39851 0.68354
 C2324 C 0.69356 0.38832 0.67875
 C2325 C 0.68371 0.38294 0.68381
 C2326 C 0.67869 0.38805 0.69378
 C2327 C 0.69805 0.41392 0.69842
 C2328 C 0.70220 0.42258 0.70269
 C2329 C 0.70718 0.43261 0.70780
 C2330 C 0.71154 0.44105 0.71230
 C2331 C 0.71693 0.45092 0.71786
 C2332 C 0.72299 0.45922 0.71124
 C2333 C 0.72878 0.46844 0.71676
 C2334 C 0.72856 0.46939 0.72894
 C2335 C 0.72228 0.46118 0.73552
 C2336 C 0.71649 0.45199 0.73000
 H2337 H 0.67940 0.40202 0.70623
 H2338 H 0.70582 0.40250 0.67952
 H2339 H 0.69770 0.38471 0.67110
 H2340 H 0.67115 0.38422 0.69797
 H2341 H 0.72341 0.45845 0.70185
 H2342 H 0.73363 0.47468 0.71158
 H2343 H 0.72203 0.46181 0.74492
 H2344 H 0.71185 0.44562 0.73521
 C2345 C 0.68338 -0.10203 0.19859
 C2346 C 0.69314 -0.09674 0.19349
 C2347 C 0.69824 -0.10169 0.18359
 C2348 C 0.69359 -0.11188 0.17878
 C2349 C 0.68375 -0.11729 0.18381
 C2350 C 0.67872 -0.11223 0.19380
 C2351 C 0.69800 -0.08631 0.19849
 C2352 C 0.70215 -0.07763 0.20272
 C2353 C 0.70713 -0.06757 0.20775
 C2354 C 0.71152 -0.05910 0.21216
 C2355 C 0.71694 -0.04917 0.21759
 C2356 C 0.72582 -0.04307 0.21179
 C2357 C 0.73159 -0.03388 0.21735
 C2358 C 0.72851 -0.03075 0.22875
 C2359 C 0.71944 -0.03670 0.23444
 C2360 C 0.71368 -0.04589 0.22888
 H2361 H 0.67939 -0.09829 0.20628
 H2362 H 0.70582 -0.09768 0.17959
 H2363 H 0.69775 -0.11546 0.17112
 H2364 H 0.67118 -0.11608 0.19797
 H2365 H 0.72843 -0.04556 0.20307
 H2366 H 0.73860 -0.02937 0.21289
 H2367 H 0.71701 -0.03437 0.24325
 H2368 H 0.70685 -0.05056 0.23345
 C2369 C 0.18347 0.39828 0.19859
 C2370 C 0.19336 0.40344 0.19362
 C2371 C 0.19858 0.39836 0.18384
 C2372 C 0.19391 0.38818 0.17903
 C2373 C 0.18394 0.38290 0.18393
 C2374 C 0.17879 0.38809 0.19380
 C2375 C 0.19823 0.41387 0.19862
 C2376 C 0.20239 0.42255 0.20284
 C2377 C 0.20737 0.43262 0.20786
 C2378 C 0.21175 0.44111 0.21224
 C2379 C 0.21719 0.45107 0.21759
 C2380 C 0.22890 0.45368 0.21514
 C2381 C 0.23442 0.46293 0.22082
 C2382 C 0.22827 0.46966 0.22898
 C2383 C 0.21649 0.46718 0.23126
 C2384 C 0.21097 0.45789 0.22560
 H2385 H 0.17938 0.40212 0.20619
 H2386 H 0.20626 0.40227 0.17994
 H2387 H 0.19817 0.38450 0.17147
 H2388 H 0.17114 0.38435 0.19787
 H2389 H 0.23380 0.44846 0.20898
 H2390 H 0.24354 0.46474 0.21902
 H2391 H 0.21168 0.47226 0.23760
 H2392 H 0.20194 0.45590 0.22761
 C2393 C 0.18361 -0.10188 0.69876
 C2394 C 0.19340 -0.09662 0.69369
 C2395 C 0.19847 -0.10157 0.68378
 C2396 C 0.19379 -0.11172 0.67893
 C2397 C 0.18392 -0.11711 0.68394
 C2398 C 0.17891 -0.11204 0.69394
 C2399 C 0.19829 -0.08621 0.69871
 C2400 C 0.20248 -0.07755 0.70294
 C2401 C 0.20750 -0.06750 0.70797
 C2402 C 0.21192 -0.05903 0.71235
 C2403 C 0.21739 -0.04909 0.71772
 C2404 C 0.22910 -0.04650 0.71527
 C2405 C 0.23465 -0.03728 0.72098
 C2406 C 0.22851 -0.03054 0.72914
 C2407 C 0.21672 -0.03300 0.73141
 C2408 C 0.21118 -0.04226 0.72573
 H2409 H 0.17963 -0.09815 0.70647
 H2410 H 0.20607 -0.09758 0.67979
 H2411 H 0.19793 -0.11529 0.67126
 H2412 H 0.17135 -0.11588 0.69810
 H2413 H 0.23399 -0.05173 0.70911
 H2414 H 0.24377 -0.03549 0.71919
 H2415 H 0.21191 -0.02791 0.73776
 H2416 H 0.20214 -0.04422 0.72773
 C2417 C 0.31633 0.30180 0.39839
 C2418 C 0.30646 0.30692 0.40345
 C2419 C 0.30138 0.31674 0.39829
 C2420 C 0.30615 0.32145 0.38811
 C2421 C 0.31610 0.31640 0.38293
 C2422 C 0.32112 0.30649 0.38821
 C2423 C 0.30149 0.30201 0.41387
 C2424 C 0.29727 0.29784 0.42254
 C2425 C 0.29225 0.29284 0.43260
 C2426 C 0.28786 0.28845 0.44108
 C2427 C 0.28247 0.28303 0.45103
 C2428 C 0.27116 0.28631 0.45440
 C2429 C 0.26563 0.28056 0.46361
 C2430 C 0.27136 0.27148 0.46950
 C2431 C 0.28277 0.26838 0.46627
 C2432 C 0.28830 0.27413 0.45706
 H2433 H 0.32032 0.29417 0.40230
 H2434 H 0.29371 0.32075 0.40212
 H2435 H 0.30199 0.32904 0.38436
 H2436 H 0.32875 0.30231 0.38455
 H2437 H 0.26656 0.29315 0.44977
 H2438 H 0.25680 0.28301 0.46601
 H2439 H 0.28726 0.26136 0.47073
 H2440 H 0.29704 0.27151 0.45450
 C2441 C 0.31671 0.80179 -0.10181
 C2442 C 0.30687 0.80690 -0.09668
 C2443 C 0.30178 0.81675 -0.10179
 C2444 C 0.30650 0.82147 -0.11199
 C2445 C 0.31641 0.81641 -0.11725
 C2446 C 0.32145 0.80649 -0.11200
 C2447 C 0.30192 0.80196 -0.08627
 C2448 C 0.29772 0.79772 -0.07761
 C2449 C 0.29271 0.79263 -0.06759
 C2450 C 0.28834 0.78813 -0.05916
 C2451 C 0.28296 0.78255 -0.04930
 C2452 C 0.27684 0.78916 -0.04104
 C2453 C 0.27110 0.78362 -0.03181
 C2454 C 0.27141 0.77142 -0.03081
 C2455 C 0.27774 0.76485 -0.03897
 C2456 C 0.28348 0.77040 -0.04818
 H2457 H 0.32071 0.79414 -0.09794
 H2458 H 0.29414 0.82076 -0.09791
 H2459 H 0.30233 0.82908 -0.11570
 H2460 H 0.32905 0.80230 -0.11572
 H2461 H 0.27636 0.79857 -0.04184
 H2462 H 0.26622 0.78879 -0.02559
 H2463 H 0.27806 0.75543 -0.03831
 H2464 H 0.28816 0.76519 -0.05453
 C2465 C 0.81634 0.30151 -0.10194
 C2466 C 0.80651 0.30659 -0.09676
 C2467 C 0.80140 0.31646 -0.10182
 C2468 C 0.80610 0.32125 -0.11199
 C2469 C 0.81602 0.31623 -0.11729
 C2470 C 0.82106 0.30627 -0.11212
 C2471 C 0.80161 0.30163 -0.08633
 C2472 C 0.79745 0.29741 -0.07765
 C2473 C 0.79249 0.29237 -0.06758
 C2474 C 0.78816 0.28794 -0.05909
 C2475 C 0.78286 0.28247 -0.04912
 C2476 C 0.77312 0.28757 -0.04376
 C2477 C 0.76756 0.28189 -0.03451
 C2478 C 0.77172 0.27108 -0.03056
 C2479 C 0.78161 0.26608 -0.03580
 C2480 C 0.78715 0.27176 -0.04505
 H2481 H 0.82035 0.29384 -0.09812
 H2482 H 0.79377 0.32045 -0.09790
 H2483 H 0.80192 0.32888 -0.11565
 H2484 H 0.82865 0.30211 -0.11588
 H2485 H 0.76970 0.29583 -0.04686
 H2486 H 0.75989 0.28580 -0.03057
 H2487 H 0.78485 0.25770 -0.03287
 H2488 H 0.79466 0.26772 -0.04916
 C2489 C 0.81607 0.80159 0.39843
 C2490 C 0.80621 0.80670 0.40350
 C2491 C 0.80111 0.81652 0.39835
 C2492 C 0.80585 0.82123 0.38816
 C2493 C 0.81580 0.81618 0.38295
 C2494 C 0.82084 0.80628 0.38823
 C2495 C 0.80125 0.80180 0.41394
 C2496 C 0.79707 0.79762 0.42262
 C2497 C 0.79209 0.79262 0.43270
 C2498 C 0.78775 0.78822 0.44120
 C2499 C 0.78243 0.78278 0.45118
 C2500 C 0.77446 0.78900 0.45807
 C2501 C 0.76882 0.78349 0.46737
 C2502 C 0.77107 0.77171 0.46980
 C2503 C 0.77919 0.76556 0.46301
 C2504 C 0.78486 0.77108 0.45375
 H2505 H 0.82008 0.79397 0.40233
 H2506 H 0.79345 0.82054 0.40219
 H2507 H 0.80168 0.82882 0.38441
 H2508 H 0.82846 0.80210 0.38456
 H2509 H 0.77246 0.79803 0.45612
 H2510 H 0.76249 0.78829 0.47249
 H2511 H 0.78096 0.75644 0.46478
 H2512 H 0.79099 0.76618 0.44847
 C2513 C 0.68340 0.30122 0.60196
 C2514 C 0.69322 0.30630 0.59677
 C2515 C 0.69835 0.31614 0.60182
 C2516 C 0.69367 0.32092 0.61200
 C2517 C 0.68376 0.31591 0.61731
 C2518 C 0.67870 0.30598 0.61214
 C2519 C 0.69810 0.30134 0.58633
 C2520 C 0.70224 0.29713 0.57764
 C2521 C 0.70718 0.29211 0.56756
 C2522 C 0.71149 0.28770 0.55905
 C2523 C 0.71681 0.28228 0.54907
 C2524 C 0.72708 0.28692 0.54431
 C2525 C 0.73264 0.28125 0.53505
 C2526 C 0.72794 0.27092 0.53050
 C2527 C 0.71754 0.26641 0.53513
 C2528 C 0.71199 0.27207 0.54439
 H2529 H 0.67938 0.29358 0.59814
 H2530 H 0.70598 0.32012 0.59789
 H2531 H 0.69786 0.32853 0.61565
 H2532 H 0.67110 0.30183 0.61591
 H2533 H 0.73090 0.29479 0.54787
 H2534 H 0.74070 0.28477 0.53159
 H2535 H 0.71388 0.25839 0.53174
 H2536 H 0.70408 0.26838 0.54804
 C2537 C 0.68332 0.80164 1.10134
 C2538 C 0.69312 0.80677 1.09616
 C2539 C 0.69826 0.81657 1.10127
 C2540 C 0.69362 0.82125 1.11152
 C2541 C 0.68374 0.81618 1.11682
 C2542 C 0.67866 0.80630 1.11159
 C2543 C 0.69798 0.80188 1.08568
 C2544 C 0.70210 0.79769 1.07698
 C2545 C 0.70702 0.79264 1.06690
 C2546 C 0.71133 0.78817 1.05843
 C2547 C 0.71666 0.78260 1.04854
 C2548 C 0.72249 0.78924 1.04010
 C2549 C 0.72826 0.78371 1.03088
 C2550 C 0.72824 0.77149 1.03006
 C2551 C 0.72215 0.76489 1.03839
 C2552 C 0.71640 0.77042 1.04759
 H2553 H 0.67929 0.79403 1.09747
 H2554 H 0.70588 0.82059 1.09735
 H2555 H 0.69783 0.82883 1.11522
 H2556 H 0.67108 0.80211 1.11534
 H2557 H 0.72277 0.79866 1.04077
 H2558 H 0.73295 0.78891 1.02454
 H2559 H 0.72206 0.75546 1.03787
 H2560 H 0.71193 0.76520 1.05408
 C2561 C 0.19861 0.31645 1.10162
 C2562 C 0.19332 0.30679 1.09640
 C2563 C 0.18333 0.30187 1.10142
 C2564 C 0.17864 0.30658 1.11162
 C2565 C 0.18387 0.31632 1.11698
 C2566 C 0.19393 0.32119 1.11183
 C2567 C 0.19821 0.30182 1.08597
 C2568 C 0.20236 0.29757 1.07731
 C2569 C 0.20731 0.29245 1.06727
 C2570 C 0.21164 0.28793 1.05884
 C2571 C 0.21699 0.28233 1.04897
 C2572 C 0.21679 0.27015 1.04809
 C2573 C 0.22254 0.26460 1.03890
 C2574 C 0.22857 0.27118 1.03052
 C2575 C 0.22854 0.28341 1.03128
 C2576 C 0.22278 0.28895 1.04049
 H2577 H 0.20637 0.32031 1.09783
 H2578 H 0.17918 0.29436 1.09746
 H2579 H 0.17091 0.30255 1.11525
 H2580 H 0.19826 0.32864 1.11564
 H2581 H 0.21236 0.26493 1.05461
 H2582 H 0.22248 0.25516 1.03842
 H2583 H 0.23317 0.28860 1.02490
 H2584 H 0.22300 0.29838 1.04111
 C2585 C 0.19833 0.81669 0.60137
 C2586 C 0.19319 0.80686 0.59630
 C2587 C 0.18337 0.80177 0.60148
 C2588 C 0.17868 0.80649 0.61168
 C2589 C 0.18376 0.81640 0.61689
 C2590 C 0.19366 0.82143 0.61158
 C2591 C 0.19809 0.80190 0.58587
 C2592 C 0.20225 0.79765 0.57721
 C2593 C 0.20720 0.79254 0.56718
 C2594 C 0.21155 0.78803 0.55875
 C2595 C 0.21692 0.78243 0.54889
 C2596 C 0.21673 0.77025 0.54800
 C2597 C 0.22250 0.76470 0.53882
 C2598 C 0.22855 0.77129 0.53046
 C2599 C 0.22852 0.78352 0.53123
 C2600 C 0.22273 0.78906 0.54043
 H2601 H 0.20596 0.82068 0.59745
 H2602 H 0.17935 0.79414 0.59764
 H2603 H 0.17109 0.80232 0.61544
 H2604 H 0.19785 0.82902 0.61526
 H2605 H 0.21228 0.76503 0.55450
 H2606 H 0.22245 0.75526 0.53834
 H2607 H 0.23317 0.78871 0.52486
 H2608 H 0.22296 0.79849 0.54105
 C2609 C 0.30181 0.68341 0.60146
 C2610 C 0.30691 0.69322 0.59631
 C2611 C 0.31675 0.69834 0.60141
 C2612 C 0.32149 0.69366 0.61162
 C2613 C 0.31645 0.68376 0.61689
 C2614 C 0.30653 0.67871 0.61166
 C2615 C 0.30196 0.69813 0.58587
 C2616 C 0.29772 0.70230 0.57721
 C2617 C 0.29262 0.70727 0.56718
 C2618 C 0.28811 0.71163 0.55875
 C2619 C 0.28249 0.71701 0.54890
 C2620 C 0.28912 0.72279 0.54042
 C2621 C 0.28355 0.72857 0.53123
 C2622 C 0.27130 0.72862 0.53048
 C2623 C 0.26471 0.72260 0.53886
 C2624 C 0.27028 0.71683 0.54803
 H2625 H 0.29417 0.67940 0.59760
 H2626 H 0.32075 0.70597 0.59751
 H2627 H 0.32909 0.69784 0.61532
 H2628 H 0.30235 0.67112 0.61540
 H2629 H 0.29857 0.72300 0.54102
 H2630 H 0.28875 0.73320 0.52484
 H2631 H 0.25525 0.72255 0.53839
 H2632 H 0.26506 0.71240 0.55455
 C2633 C 0.31658 0.19821 1.10145
 C2634 C 0.30674 0.19310 1.09635
 C2635 C 0.30162 0.18331 1.10151
 C2636 C 0.30631 0.17862 1.11173
 C2637 C 0.31623 0.18367 1.11696
 C2638 C 0.32130 0.19354 1.11167
 C2639 C 0.30180 0.19800 1.08590
 C2640 C 0.29758 0.20215 1.07722
 C2641 C 0.29249 0.20710 1.06718
 C2642 C 0.28798 0.21145 1.05873
 C2643 C 0.28238 0.21682 1.04887
 C2644 C 0.27018 0.21665 1.04798
 C2645 C 0.26463 0.22242 1.03880
 C2646 C 0.27124 0.22845 1.03043
 C2647 C 0.28349 0.22839 1.03120
 C2648 C 0.28904 0.22260 1.04040
 H2649 H 0.32060 0.20582 1.09754
 H2650 H 0.29397 0.17930 1.09765
 H2651 H 0.30212 0.17105 1.11547
 H2652 H 0.32891 0.19772 1.11537
 H2653 H 0.26494 0.21222 1.05448
 H2654 H 0.25517 0.22239 1.03831
 H2655 H 0.28870 0.23303 1.02483
 H2656 H 0.29849 0.22280 1.04103
 C2657 C 0.80137 0.68351 1.10130
 C2658 C 0.80647 0.69333 1.09615
 C2659 C 0.81632 0.69843 1.10124
 C2660 C 0.82108 0.69373 1.11143
 C2661 C 0.81604 0.68384 1.11671
 C2662 C 0.80611 0.67879 1.11149
 C2663 C 0.80149 0.69826 1.08573
 C2664 C 0.79725 0.70244 1.07708
 C2665 C 0.79215 0.70744 1.06705
 C2666 C 0.78766 0.71183 1.05862
 C2667 C 0.78208 0.71723 1.04876
 C2668 C 0.78877 0.72298 1.04029
 C2669 C 0.78326 0.72877 1.03108
 C2670 C 0.77101 0.72888 1.03029
 C2671 C 0.76436 0.72290 1.03866
 C2672 C 0.76988 0.71712 1.04786
 H2673 H 0.79372 0.67951 1.09745
 H2674 H 0.82031 0.70606 1.09734
 H2675 H 0.82869 0.69791 1.11512
 H2676 H 0.80194 0.67120 1.11522
 H2677 H 0.79822 0.72313 1.04092
 H2678 H 0.78850 0.73337 1.02470
 H2679 H 0.75490 0.72290 1.03817
 H2680 H 0.76462 0.71272 1.05437
 C2681 C 0.80164 0.18346 0.60168
 C2682 C 0.80674 0.19331 0.59659
 C2683 C 0.81657 0.19840 0.60174
 C2684 C 0.82131 0.19365 0.61192
 C2685 C 0.81627 0.18371 0.61712
 C2686 C 0.80636 0.17869 0.61186
 C2687 C 0.80182 0.19827 0.58617
 C2688 C 0.79765 0.20249 0.57750
 C2689 C 0.79269 0.20755 0.56744
 C2690 C 0.78835 0.21200 0.55896
 C2691 C 0.78303 0.21748 0.54901
 C2692 C 0.78765 0.22790 0.54458
 C2693 C 0.78209 0.23360 0.53535
 C2694 C 0.77187 0.22893 0.53050
 C2695 C 0.76736 0.21840 0.53482
 C2696 C 0.77293 0.21269 0.54404
 H2697 H 0.79401 0.17947 0.59778
 H2698 H 0.82057 0.20605 0.59789
 H2699 H 0.82890 0.19783 0.61566
 H2700 H 0.80218 0.17108 0.61554
 H2701 H 0.79543 0.23170 0.54839
 H2702 H 0.78560 0.24177 0.53214
 H2703 H 0.75943 0.21475 0.53118
 H2704 H 0.76927 0.20466 0.54742
 C2705 C 0.68379 0.69814 0.39868
 C2706 C 0.69366 0.69302 0.40374
 C2707 C 0.69876 0.68322 0.39856
 C2708 C 0.69402 0.67855 0.38836
 C2709 C 0.68408 0.68362 0.38317
 C2710 C 0.67903 0.69349 0.38847
 C2711 C 0.69864 0.69790 0.41416
 C2712 C 0.70290 0.70206 0.42281
 C2713 C 0.70799 0.70702 0.43284
 C2714 C 0.71248 0.71139 0.44127
 C2715 C 0.71801 0.71677 0.45116
 C2716 C 0.73019 0.71637 0.45228
 C2717 C 0.73568 0.72216 0.46148
 C2718 C 0.72902 0.72842 0.46963
 C2719 C 0.71679 0.72859 0.46863
 C2720 C 0.71131 0.72280 0.45941
 H2721 H 0.67979 0.70575 0.40260
 H2722 H 0.70643 0.67920 0.40239
 H2723 H 0.69820 0.67098 0.38460
 H2724 H 0.67140 0.69768 0.38481
 H2725 H 0.73546 0.71175 0.44594
 H2726 H 0.74512 0.72195 0.46214
 H2727 H 0.71155 0.73342 0.47483
 H2728 H 0.70188 0.72319 0.45860
 C2729 C 0.69873 0.18344 -0.10192
 C2730 C 0.69360 0.19329 -0.09685
 C2731 C 0.68376 0.19837 -0.10200
 C2732 C 0.67903 0.19362 -0.11217
 C2733 C 0.68410 0.18369 -0.11736
 C2734 C 0.69402 0.17867 -0.11209
 C2735 C 0.69850 0.19824 -0.08642
 C2736 C 0.70265 0.20245 -0.07774
 C2737 C 0.70757 0.20749 -0.06766
 C2738 C 0.71187 0.21191 -0.05916
 C2739 C 0.71713 0.21737 -0.04918
 C2740 C 0.71201 0.22732 -0.04427
 C2741 C 0.71748 0.23303 -0.03500
 C2742 C 0.72811 0.22883 -0.03060
 C2743 C 0.73313 0.21875 -0.03539
 C2744 C 0.72765 0.21303 -0.04465
 H2745 H 0.70637 0.17945 -0.09801
 H2746 H 0.67973 0.20601 -0.09816
 H2747 H 0.67142 0.19778 -0.11591
 H2748 H 0.69821 0.17106 -0.11576
 H2749 H 0.70391 0.23078 -0.04773
 H2750 H 0.71357 0.24086 -0.03142
 H2751 H 0.74138 0.21548 -0.03210
 H2752 H 0.73171 0.20537 -0.04840
 C2753 C 0.18361 0.69826 -0.10138
 C2754 C 0.19344 0.69312 -0.09627
 C2755 C 0.19854 0.68331 -0.10143
 C2756 C 0.19383 0.67864 -0.11164
 C2757 C 0.18392 0.68372 -0.11687
 C2758 C 0.17887 0.69361 -0.11159
 C2759 C 0.19840 0.69799 -0.08584
 C2760 C 0.20264 0.70214 -0.07717
 C2761 C 0.20774 0.70709 -0.06714
 C2762 C 0.21225 0.71144 -0.05871
 C2763 C 0.21786 0.71681 -0.04886
 C2764 C 0.23005 0.71643 -0.04786
 C2765 C 0.23562 0.72220 -0.03870
 C2766 C 0.22903 0.72843 -0.03047
 C2767 C 0.21679 0.72858 -0.03135
 C2768 C 0.21123 0.72280 -0.04053
 H2769 H 0.17961 0.70588 -0.09747
 H2770 H 0.20619 0.67927 -0.09757
 H2771 H 0.19801 0.67106 -0.11538
 H2772 H 0.17127 0.69782 -0.11529
 H2773 H 0.23527 0.71183 -0.05426
 H2774 H 0.24507 0.72201 -0.03814
 H2775 H 0.21160 0.73338 -0.02508
 H2776 H 0.20179 0.72318 -0.04124
 C2777 C 0.19855 0.18329 0.39840
 C2778 C 0.19341 0.19309 0.40354
 C2779 C 0.18356 0.19819 0.39844
 C2780 C 0.17883 0.19352 0.38823
 C2781 C 0.18391 0.18364 0.38296
 C2782 C 0.19384 0.17859 0.38819
 C2783 C 0.19834 0.19799 0.41398
 C2784 C 0.20252 0.20216 0.42266
 C2785 C 0.20752 0.20715 0.43272
 C2786 C 0.21190 0.21153 0.44120
 C2787 C 0.21731 0.21693 0.45114
 C2788 C 0.21150 0.22584 0.45716
 C2789 C 0.21706 0.23157 0.46637
 C2790 C 0.22847 0.22844 0.46959
 C2791 C 0.23417 0.21935 0.46370
 C2792 C 0.22861 0.21362 0.45450
 H2793 H 0.20620 0.17928 0.40226
 H2794 H 0.17953 0.20580 0.40233
 H2795 H 0.17121 0.19769 0.38453
 H2796 H 0.19804 0.17102 0.38446
 H2797 H 0.20278 0.22848 0.45461
 H2798 H 0.21259 0.23861 0.47082
 H2799 H 0.24300 0.21689 0.46608
 H2800 H 0.23320 0.20677 0.44988
 C2801 C 0.30148 0.39830 0.68363
 C2802 C 0.30673 0.40344 0.69334
 C2803 C 0.31664 0.39831 0.69831
 C2804 C 0.32130 0.38807 0.69359
 C2805 C 0.31609 0.38280 0.68380
 C2806 C 0.30611 0.38806 0.67888
 C2807 C 0.30183 0.41389 0.69829
 C2808 C 0.29762 0.42257 0.70247
 C2809 C 0.29256 0.43264 0.70742
 C2810 C 0.28810 0.44113 0.71175
 C2811 C 0.28262 0.45109 0.71706
 C2812 C 0.28717 0.45576 0.72737
 C2813 C 0.28146 0.46501 0.73291
 C2814 C 0.27116 0.46965 0.72815
 C2815 C 0.26673 0.46510 0.71772
 C2816 C 0.27244 0.45584 0.71220
 H2817 H 0.29378 0.40218 0.67973
 H2818 H 0.32076 0.40220 0.70586
 H2819 H 0.32897 0.38435 0.69764
 H2820 H 0.30180 0.38432 0.67140
 H2821 H 0.29501 0.45213 0.73123
 H2822 H 0.28492 0.46841 0.74100
 H2823 H 0.25873 0.46856 0.71402
 H2824 H 0.26881 0.45226 0.70426
 C2825 C 0.31656 0.89840 0.19805
 C2826 C 0.30676 0.90362 0.19296
 C2827 C 0.30166 0.89861 0.18310
 C2828 C 0.30635 0.88841 0.17832
 C2829 C 0.31623 0.88306 0.18335
 C2830 C 0.32127 0.88820 0.19329
 C2831 C 0.30182 0.91404 0.19795
 C2832 C 0.29758 0.92269 0.20216
 C2833 C 0.29248 0.93271 0.20718
 C2834 C 0.28797 0.94113 0.21157
 C2835 C 0.28237 0.95099 0.21697
 C2836 C 0.27019 0.95211 0.21647
 C2837 C 0.26463 0.96129 0.22224
 C2838 C 0.27121 0.96943 0.22858
 C2839 C 0.28344 0.96844 0.22886
 C2840 C 0.28900 0.95923 0.22309
 H2841 H 0.32056 0.90219 0.20571
 H2842 H 0.29405 0.90257 0.17911
 H2843 H 0.30219 0.88479 0.17069
 H2844 H 0.32884 0.88439 0.19746
 H2845 H 0.26498 0.94578 0.21177
 H2846 H 0.25519 0.96196 0.22195
 H2847 H 0.28862 0.97463 0.23375
 H2848 H 0.29842 0.95843 0.22355
 C2849 C 0.81679 0.39850 0.19818
 C2850 C 0.80695 0.40372 0.19317
 C2851 C 0.80176 0.39869 0.18337
 C2852 C 0.80639 0.38847 0.17857
 C2853 C 0.81631 0.38312 0.18353
 C2854 C 0.82144 0.38828 0.19341
 C2855 C 0.80207 0.41415 0.19818
 C2856 C 0.79788 0.42282 0.20243
 C2857 C 0.79282 0.43285 0.20747
 C2858 C 0.78833 0.44128 0.21187
 C2859 C 0.78274 0.45115 0.21726
 C2860 C 0.77057 0.45230 0.21670
 C2861 C 0.76500 0.46150 0.22244
 C2862 C 0.77157 0.46962 0.22882
 C2863 C 0.78379 0.46858 0.22918
 C2864 C 0.78936 0.45936 0.22343
 H2865 H 0.82086 0.40230 0.20580
 H2866 H 0.79411 0.40265 0.17944
 H2867 H 0.80215 0.38482 0.17100
 H2868 H 0.82905 0.38448 0.19751
 H2869 H 0.76536 0.44599 0.21197
 H2870 H 0.75556 0.46219 0.22209
 H2871 H 0.78897 0.47476 0.23410
 H2872 H 0.79878 0.45853 0.22395
 C2873 C 0.81697 0.89876 0.69807
 C2874 C 0.80703 0.90389 0.69316
 C2875 C 0.80173 0.89874 0.68348
 C2876 C 0.80632 0.88849 0.67872
 C2877 C 0.81632 0.88322 0.68359
 C2878 C 0.82159 0.88851 0.69333
 C2879 C 0.80215 0.91432 0.69816
 C2880 C 0.79794 0.92298 0.70241
 C2881 C 0.79285 0.93298 0.70748
 C2882 C 0.78833 0.94138 0.71190
 C2883 C 0.78269 0.95120 0.71734
 C2884 C 0.77051 0.95227 0.71682
 C2885 C 0.76491 0.96143 0.72260
 C2886 C 0.77145 0.96959 0.72895
 C2887 C 0.78368 0.96862 0.72927
 C2888 C 0.78928 0.95944 0.72349
 H2889 H 0.82114 0.90266 0.70559
 H2890 H 0.79400 0.90262 0.67962
 H2891 H 0.80196 0.88473 0.67127
 H2892 H 0.82929 0.88479 0.69735
 H2893 H 0.76532 0.94594 0.71210
 H2894 H 0.75546 0.96207 0.72228
 H2895 H 0.78884 0.97483 0.73418
 H2896 H 0.79871 0.95867 0.72398
 C2897 C 0.68323 0.60162 0.69853
 C2898 C 0.69317 0.59651 0.69361
 C2899 C 0.69846 0.60167 0.68391
 C2900 C 0.69383 0.61191 0.67914
 C2901 C 0.68381 0.61715 0.68401
 C2902 C 0.67857 0.61186 0.69378
 C2903 C 0.69805 0.58606 0.69859
 C2904 C 0.70221 0.57736 0.70282
 C2905 C 0.70721 0.56729 0.70785
 C2906 C 0.71161 0.55880 0.71225
 C2907 C 0.71703 0.54884 0.71766
 C2908 C 0.72499 0.54198 0.71140
 C2909 C 0.73074 0.53270 0.71686
 C2910 C 0.72861 0.53027 0.72864
 C2911 C 0.72051 0.53705 0.73484
 C2912 C 0.71472 0.54628 0.72936
 H2913 H 0.67908 0.59771 0.70606
 H2914 H 0.70619 0.59781 0.68005
 H2915 H 0.69817 0.61568 0.67167
 H2916 H 0.67087 0.61556 0.69779
 H2917 H 0.72688 0.54392 0.70236
 H2918 H 0.73705 0.52759 0.71202
 H2919 H 0.71883 0.53527 0.74395
 H2920 H 0.70861 0.55154 0.73429
 C2921 C 0.69795 0.10116 0.18372
 C2922 C 0.69276 0.09619 0.19357
 C2923 C 0.68288 0.10142 0.19850
 C2924 C 0.67822 0.11159 0.19363
 C2925 C 0.68338 0.11670 0.18372
 C2926 C 0.69331 0.11133 0.17883
 C2927 C 0.69763 0.08579 0.19866
 C2928 C 0.70180 0.07713 0.20295
 C2929 C 0.70682 0.06710 0.20804
 C2930 C 0.71125 0.05864 0.21246
 C2931 C 0.71673 0.04870 0.21784
 C2932 C 0.71354 0.04536 0.22914
 C2933 C 0.71934 0.03614 0.23464
 C2934 C 0.72840 0.03023 0.22889
 C2935 C 0.73142 0.03344 0.21749
 C2936 C 0.72561 0.04265 0.21199
 H2937 H 0.70563 0.09720 0.17985
 H2938 H 0.67880 0.09765 0.20614
 H2939 H 0.67058 0.11539 0.19767
 H2940 H 0.69757 0.11494 0.17124
 H2941 H 0.70671 0.05000 0.23376
 H2942 H 0.71696 0.03376 0.24346
 H2943 H 0.73843 0.02896 0.21298
 H2944 H 0.72817 0.04520 0.20327
 C2945 C 0.19803 0.60145 0.18351
 C2946 C 0.19270 0.59632 0.19320
 C2947 C 0.18277 0.60148 0.19809
 C2948 C 0.17817 0.61173 0.19332
 C2949 C 0.18347 0.61700 0.18356
 C2950 C 0.19346 0.61171 0.17872
 C2951 C 0.19756 0.58589 0.19823
 C2952 C 0.20176 0.57723 0.20249
 C2953 C 0.20685 0.56722 0.20756
 C2954 C 0.21139 0.55881 0.21196
 C2955 C 0.21706 0.54898 0.21736
 C2956 C 0.21051 0.54070 0.22354
 C2957 C 0.21615 0.53151 0.22926
 C2958 C 0.22838 0.53056 0.22888
 C2959 C 0.23488 0.53875 0.22250
 C2960 C 0.22924 0.54792 0.21678
 H2961 H 0.20576 0.59755 0.17967
 H2962 H 0.17858 0.59759 0.20561
 H2963 H 0.17048 0.61547 0.19731
 H2964 H 0.19784 0.61545 0.17126
 H2965 H 0.20108 0.54146 0.22407
 H2966 H 0.21103 0.52527 0.23418
 H2967 H 0.24432 0.53812 0.22213
 H2968 H 0.23439 0.55428 0.21204
 C2969 C 0.19817 0.10117 0.68377
 C2970 C 0.19303 0.09615 0.69361
 C2971 C 0.18320 0.10138 0.69865
 C2972 C 0.17853 0.11159 0.69387
 C2973 C 0.18362 0.11674 0.68394
 C2974 C 0.19352 0.11138 0.67896
 C2975 C 0.19793 0.08573 0.69863
 C2976 C 0.20214 0.07707 0.70287
 C2977 C 0.20724 0.06705 0.70791
 C2978 C 0.21176 0.05863 0.71231
 C2979 C 0.21742 0.04879 0.71769
 C2980 C 0.21085 0.04052 0.72385
 C2981 C 0.21648 0.03131 0.72958
 C2982 C 0.22871 0.03034 0.72920
 C2983 C 0.23522 0.03854 0.72283
 C2984 C 0.22960 0.04772 0.71712
 H2985 H 0.20581 0.09721 0.67981
 H2986 H 0.17917 0.09758 0.70630
 H2987 H 0.17095 0.11540 0.69800
 H2988 H 0.19773 0.11501 0.67136
 H2989 H 0.20143 0.04128 0.72438
 H2990 H 0.21135 0.02507 0.73448
 H2991 H 0.24467 0.03789 0.72246
 H2992 H 0.23476 0.05408 0.71239
 C2993 C 0.31675 0.60155 0.30157
 C2994 C 0.30695 0.59628 0.30659
 C2995 C 0.30175 0.60127 0.31641
 C2996 C 0.30635 0.61149 0.32123
 C2997 C 0.31623 0.61688 0.31627
 C2998 C 0.32137 0.61176 0.30636
 C2999 C 0.30212 0.58584 0.30155
 C3000 C 0.29802 0.57717 0.29726
 C3001 C 0.29310 0.56713 0.29212
 C3002 C 0.28876 0.55869 0.28760
 C3003 C 0.28337 0.54883 0.28201
 C3004 C 0.27745 0.54043 0.28863
 C3005 C 0.27164 0.53124 0.28310
 C3006 C 0.27169 0.53042 0.27091
 C3007 C 0.27786 0.53871 0.26433
 C3008 C 0.28366 0.54788 0.26986
 H3009 H 0.32083 0.59777 0.29394
 H3010 H 0.29414 0.59728 0.32036
 H3011 H 0.30211 0.61510 0.32883
 H3012 H 0.32895 0.61559 0.30225
 H3013 H 0.27714 0.54110 0.29803
 H3014 H 0.26689 0.52493 0.28828
 H3015 H 0.27798 0.53818 0.25492
 H3016 H 0.28821 0.55433 0.26466
 C3017 C 0.30190 0.10110 0.81651
 C3018 C 0.30725 0.09598 0.80683
 C3019 C 0.31715 0.10117 0.80191
 C3020 C 0.32170 0.11144 0.80664
 C3021 C 0.31639 0.11671 0.81639
 C3022 C 0.30642 0.11138 0.82126
 C3023 C 0.30247 0.08550 0.80183
 C3024 C 0.29838 0.07681 0.79757
 C3025 C 0.29346 0.06676 0.79245
 C3026 C 0.28911 0.05832 0.78793
 C3027 C 0.28373 0.04845 0.78234
 C3028 C 0.28402 0.04751 0.77019
 C3029 C 0.27820 0.03835 0.76465
 C3030 C 0.27202 0.03006 0.77122
 C3031 C 0.27196 0.03088 0.78341
 C3032 C 0.27778 0.04006 0.78895
 H3033 H 0.29421 0.09718 0.82036
 H3034 H 0.32135 0.09729 0.79439
 H3035 H 0.32937 0.11520 0.80262
 H3036 H 0.30204 0.11512 0.82871
 H3037 H 0.28857 0.05396 0.76499
 H3038 H 0.27833 0.03782 0.75524
 H3039 H 0.26720 0.02457 0.78859
 H3040 H 0.27747 0.04073 0.79835
 C3041 C 0.80138 0.60155 0.81644
 C3042 C 0.80675 0.59626 0.80687
 C3043 C 0.81683 0.60122 0.80205
 C3044 C 0.82153 0.61142 0.80680
 C3045 C 0.81621 0.61683 0.81645
 C3046 C 0.80606 0.61175 0.82121
 C3047 C 0.80183 0.58585 0.80189
 C3048 C 0.79760 0.57719 0.79768
 C3049 C 0.79249 0.56718 0.79268
 C3050 C 0.78798 0.55875 0.78831
 C3051 C 0.78237 0.54889 0.78294
 C3052 C 0.78899 0.54063 0.77682
 C3053 C 0.78342 0.53142 0.77107
 C3054 C 0.77120 0.53044 0.77138
 C3055 C 0.76462 0.53861 0.77772
 C3056 C 0.77019 0.54779 0.78346
 H3057 H 0.79355 0.59781 0.82022
 H3058 H 0.82104 0.59721 0.79461
 H3059 H 0.82933 0.61500 0.80287
 H3060 H 0.80166 0.61561 0.82859
 H3061 H 0.79841 0.54142 0.77634
 H3062 H 0.78860 0.52521 0.76618
 H3063 H 0.75518 0.53796 0.77803
 H3064 H 0.76498 0.55414 0.78815
 C3065 C 0.81689 0.10159 0.30136
 C3066 C 0.80715 0.09625 0.30644
 C3067 C 0.80203 0.10118 0.31635
 C3068 C 0.80662 0.11138 0.32117
 C3069 C 0.81644 0.11684 0.31615
 C3070 C 0.82151 0.11180 0.30617
 C3071 C 0.80234 0.08581 0.30143
 C3072 C 0.79822 0.07712 0.29719
 C3073 C 0.79326 0.06704 0.29216
 C3074 C 0.78888 0.05855 0.28777
 C3075 C 0.78344 0.04860 0.28240
 C3076 C 0.77457 0.04254 0.28824
 C3077 C 0.76877 0.03333 0.28274
 C3078 C 0.77182 0.03014 0.27135
 C3079 C 0.78088 0.03605 0.26561
 C3080 C 0.78667 0.04526 0.27112
 H3081 H 0.82091 0.09787 0.29367
 H3082 H 0.79446 0.09713 0.32034
 H3083 H 0.80245 0.11493 0.32883
 H3084 H 0.82903 0.11570 0.30200
 H3085 H 0.77198 0.04508 0.29696
 H3086 H 0.76177 0.02886 0.28724
 H3087 H 0.78328 0.03368 0.25680
 H3088 H 0.79350 0.04991 0.26651
 C3089 C 0.69801 0.39878 0.31616
 C3090 C 0.69283 0.40378 0.30632
 C3091 C 0.68305 0.39850 0.30129
 C3092 C 0.67844 0.38827 0.30607
 C3093 C 0.68356 0.38314 0.31599
 C3094 C 0.69342 0.38855 0.32097
 C3095 C 0.69765 0.41425 0.30131
 C3096 C 0.70176 0.42293 0.29703
 C3097 C 0.70670 0.43299 0.29192
 C3098 C 0.71106 0.44144 0.28742
 C3099 C 0.71647 0.45132 0.28186
 C3100 C 0.71620 0.45234 0.26971
 C3101 C 0.72204 0.46152 0.26421
 C3102 C 0.72823 0.46976 0.27082
 C3103 C 0.72826 0.46887 0.28301
 C3104 C 0.72242 0.45967 0.28851
 H3105 H 0.70561 0.40278 0.32012
 H3106 H 0.67899 0.40228 0.29364
 H3107 H 0.67088 0.38442 0.30194
 H3108 H 0.69765 0.38493 0.32858
 H3109 H 0.71164 0.44593 0.26449
 H3110 H 0.72193 0.46210 0.25480
 H3111 H 0.73303 0.47514 0.28821
 H3112 H 0.72271 0.45895 0.29791
 C3113 C 0.68379 0.89817 0.80176
 C3114 C 0.69370 0.90324 0.80677
 C3115 C 0.69881 0.89813 0.81659
 C3116 C 0.69398 0.88803 0.82145
 C3117 C 0.68395 0.88289 0.81654
 C3118 C 0.67894 0.88807 0.80659
 C3119 C 0.69862 0.91368 0.80180
 C3120 C 0.70274 0.92238 0.79757
 C3121 C 0.70760 0.93249 0.79248
 C3122 C 0.71185 0.94100 0.78799
 C3123 C 0.71707 0.95097 0.78242
 C3124 C 0.72307 0.95932 0.78901
 C3125 C 0.72873 0.96861 0.78347
 C3126 C 0.72846 0.96958 0.77129
 C3127 C 0.72221 0.96134 0.76475
 C3128 C 0.71656 0.95207 0.77029
 H3129 H 0.67977 0.90204 0.79414
 H3130 H 0.70652 0.90196 0.82051
 H3131 H 0.69816 0.88428 0.82902
 H3132 H 0.67122 0.88445 0.80257
 H3133 H 0.72355 0.95853 0.79840
 H3134 H 0.73355 0.97488 0.78863
 H3135 H 0.72193 0.96198 0.75534
 H3136 H 0.71196 0.94566 0.76510
 C3137 C 0.19851 0.39828 0.81645
 C3138 C 0.19346 0.40332 0.80657
 C3139 C 0.18364 0.39815 0.80148
 C3140 C 0.17887 0.38798 0.80627
 C3141 C 0.18387 0.38283 0.81624
 C3142 C 0.19377 0.38813 0.82126
 C3143 C 0.19842 0.41373 0.80160
 C3144 C 0.20266 0.42240 0.79742
 C3145 C 0.20773 0.43247 0.79247
 C3146 C 0.21218 0.44097 0.78815
 C3147 C 0.21763 0.45096 0.78284
 C3148 C 0.21292 0.45579 0.77266
 C3149 C 0.21859 0.46506 0.76712
 C3150 C 0.22899 0.46957 0.77174
 C3151 C 0.23359 0.46486 0.78204
 C3152 C 0.22792 0.45557 0.78757
 H3153 H 0.20613 0.40221 0.82045
 H3154 H 0.17966 0.40196 0.79381
 H3155 H 0.17129 0.38422 0.80211
 H3156 H 0.19790 0.38449 0.82890
 H3157 H 0.20499 0.45226 0.76890
 H3158 H 0.21501 0.46859 0.75913
 H3159 H 0.24166 0.46822 0.78564
 H3160 H 0.23167 0.45187 0.79541
 C3161 C 0.18345 0.89819 0.30137
 C3162 C 0.19332 0.90334 0.30636
 C3163 C 0.19850 0.89825 0.31616
 C3164 C 0.19382 0.88806 0.32096
 C3165 C 0.18386 0.88279 0.31603
 C3166 C 0.17874 0.88800 0.30616
 C3167 C 0.19822 0.91378 0.30138
 C3168 C 0.20239 0.92246 0.29716
 C3169 C 0.20738 0.93254 0.29214
 C3170 C 0.21175 0.94104 0.28775
 C3171 C 0.21714 0.95101 0.28234
 C3172 C 0.22506 0.95789 0.28860
 C3173 C 0.23078 0.96719 0.28314
 C3174 C 0.22865 0.96961 0.27136
 C3175 C 0.22058 0.96282 0.26516
 C3176 C 0.21483 0.95356 0.27064
 H3177 H 0.17938 0.90204 0.29376
 H3178 H 0.20618 0.90214 0.32008
 H3179 H 0.19805 0.88437 0.32853
 H3180 H 0.17110 0.88426 0.30207
 H3181 H 0.22696 0.95596 0.29764
 H3182 H 0.23706 0.97231 0.28798
 H3183 H 0.21890 0.96458 0.25604
 H3184 H 0.20874 0.94829 0.26571
 C3185 C 0.39831 0.30182 0.68386
 C3186 C 0.40356 0.30724 0.69342
 C3187 C 0.39850 0.31727 0.69819
 C3188 C 0.38823 0.32186 0.69343
 C3189 C 0.38284 0.31648 0.68381
 C3190 C 0.38803 0.30639 0.67908
 C3191 C 0.41402 0.30241 0.69846
 C3192 C 0.42270 0.29826 0.70275
 C3193 C 0.43274 0.29328 0.70789
 C3194 C 0.44117 0.28889 0.71242
 C3195 C 0.45103 0.28345 0.71802
 C3196 C 0.45197 0.28368 0.73017
 C3197 C 0.46113 0.27783 0.73571
 C3198 C 0.46944 0.27166 0.72914
 C3199 C 0.46862 0.27165 0.71695
 C3200 C 0.45944 0.27751 0.71141
 H3201 H 0.40213 0.29403 0.68012
 H3202 H 0.40248 0.32153 0.70562
 H3203 H 0.38457 0.32963 0.69733
 H3204 H 0.38419 0.30194 0.67173
 H3205 H 0.44550 0.28823 0.73537
 H3206 H 0.46165 0.27792 0.74513
 H3207 H 0.47495 0.26690 0.71177
 H3208 H 0.45878 0.27725 0.70200
 C3209 C 0.39824 0.81711 0.19844
 C3210 C 0.40357 0.80735 0.19341
 C3211 C 0.39864 0.80224 0.18351
 C3212 C 0.38843 0.80686 0.17865
 C3213 C 0.38298 0.81669 0.18362
 C3214 C 0.38803 0.82175 0.19359
 C3215 C 0.41400 0.80250 0.19849
 C3216 C 0.42267 0.79835 0.20281
 C3217 C 0.43270 0.79337 0.20797
 C3218 C 0.44113 0.78898 0.21250
 C3219 C 0.45101 0.78355 0.21808
 C3220 C 0.45942 0.77764 0.21145
 C3221 C 0.46862 0.77180 0.21696
 C3222 C 0.46945 0.77179 0.22916
 C3223 C 0.46113 0.77792 0.23575
 C3224 C 0.45195 0.78377 0.23023
 H3225 H 0.40197 0.82112 0.20613
 H3226 H 0.40268 0.79466 0.17956
 H3227 H 0.38488 0.80268 0.17099
 H3228 H 0.38414 0.82928 0.19772
 H3229 H 0.45875 0.77740 0.20204
 H3230 H 0.47495 0.76707 0.21177
 H3231 H 0.46166 0.77799 0.24516
 H3232 H 0.44548 0.78829 0.23544
 C3233 C 0.89853 0.30209 0.18345
 C3234 C 0.90357 0.30726 0.19326
 C3235 C 0.89834 0.31708 0.19827
 C3236 C 0.88810 0.32173 0.19349
 C3237 C 0.88293 0.31661 0.18360
 C3238 C 0.88829 0.30672 0.17865
 C3239 C 0.91402 0.30239 0.19828
 C3240 C 0.92270 0.29824 0.20257
 C3241 C 0.93275 0.29326 0.20770
 C3242 C 0.94119 0.28890 0.21222
 C3243 C 0.95107 0.28351 0.21783
 C3244 C 0.95200 0.28379 0.22998
 C3245 C 0.96119 0.27800 0.23554
 C3246 C 0.96953 0.27185 0.22898
 C3247 C 0.96872 0.27180 0.21679
 C3248 C 0.95950 0.27760 0.21123
 H3249 H 0.90249 0.29446 0.17952
 H3250 H 0.90215 0.32113 0.20589
 H3251 H 0.88429 0.32931 0.19760
 H3252 H 0.88464 0.30250 0.17107
 H3253 H 0.94552 0.28832 0.23517
 H3254 H 0.96171 0.27811 0.24495
 H3255 H 0.97506 0.26706 0.21162
 H3256 H 0.95884 0.27730 0.20183
 C3257 C 0.89851 0.80225 0.68360
 C3258 C 0.90366 0.80757 0.69328
 C3259 C 0.89850 0.81749 0.69816
 C3260 C 0.88823 0.82209 0.69340
 C3261 C 0.88295 0.81681 0.68366
 C3262 C 0.88824 0.80683 0.67882
 C3263 C 0.91412 0.80272 0.69831
 C3264 C 0.92280 0.79857 0.70260
 C3265 C 0.93283 0.79358 0.70775
 C3266 C 0.94126 0.78918 0.71228
 C3267 C 0.95111 0.78373 0.71788
 C3268 C 0.95203 0.78396 0.73004
 C3269 C 0.96118 0.77810 0.73558
 C3270 C 0.96950 0.77195 0.72902
 C3271 C 0.96870 0.77194 0.71682
 C3272 C 0.95952 0.77780 0.71128
 H3273 H 0.90241 0.79454 0.67977
 H3274 H 0.90240 0.82166 0.70568
 H3275 H 0.88450 0.82977 0.69739
 H3276 H 0.88448 0.80246 0.67137
 H3277 H 0.94556 0.78850 0.73523
 H3278 H 0.96170 0.77819 0.74500
 H3279 H 0.97503 0.76719 0.71165
 H3280 H 0.95887 0.77754 0.70187
 C3281 C 0.60156 0.30206 0.31619
 C3282 C 0.59652 0.30718 0.30634
 C3283 C 0.60175 0.31698 0.30128
 C3284 C 0.61197 0.32166 0.30606
 C3285 C 0.61713 0.31658 0.31599
 C3286 C 0.61177 0.30671 0.32098
 C3287 C 0.58609 0.30229 0.30134
 C3288 C 0.57743 0.29809 0.29709
 C3289 C 0.56741 0.29305 0.29200
 C3290 C 0.55899 0.28861 0.28751
 C3291 C 0.54916 0.28315 0.28194
 C3292 C 0.54833 0.28320 0.26978
 C3293 C 0.53916 0.27737 0.26427
 C3294 C 0.53074 0.27139 0.27087
 C3295 C 0.53146 0.27155 0.28307
 C3296 C 0.54065 0.27740 0.28859
 H3297 H 0.59760 0.29444 0.32015
 H3298 H 0.59795 0.32100 0.29363
 H3299 H 0.61578 0.32922 0.30191
 H3300 H 0.61541 0.30251 0.32860
 H3301 H 0.55487 0.28760 0.26455
 H3302 H 0.53871 0.27734 0.25485
 H3303 H 0.52505 0.26696 0.28828
 H3304 H 0.54123 0.27728 0.29800
 C3305 C 0.60167 0.81662 0.80218
 C3306 C 0.59658 0.80680 0.80731
 C3307 C 0.60178 0.80171 0.81710
 C3308 C 0.61206 0.80641 0.82173
 C3309 C 0.61728 0.81629 0.81662
 C3310 C 0.61194 0.82135 0.80679
 C3311 C 0.58612 0.80184 0.80240
 C3312 C 0.57745 0.79767 0.79814
 C3313 C 0.56742 0.79271 0.79297
 C3314 C 0.55899 0.78838 0.78839
 C3315 C 0.54913 0.78305 0.78272
 C3316 C 0.54070 0.77706 0.78926
 C3317 C 0.53148 0.77135 0.78365
 C3318 C 0.53066 0.77156 0.77145
 C3319 C 0.53899 0.77778 0.76496
 C3320 C 0.54819 0.78348 0.77058
 H3321 H 0.59775 0.82061 0.79457
 H3322 H 0.59792 0.79409 0.82114
 H3323 H 0.61584 0.80232 0.82934
 H3324 H 0.61570 0.82888 0.80254
 H3325 H 0.54136 0.77665 0.79866
 H3326 H 0.52514 0.76656 0.78876
 H3327 H 0.53846 0.77802 0.75555
 H3328 H 0.55466 0.78808 0.76543
 C3329 C 0.10180 0.31703 0.80115
 C3330 C 0.09647 0.30729 0.80620
 C3331 C 0.10138 0.30218 0.81612
 C3332 C 0.11157 0.30680 0.82100
 C3333 C 0.11702 0.31662 0.81601
 C3334 C 0.11199 0.32168 0.80601
 C3335 C 0.08605 0.30244 0.80112
 C3336 C 0.07738 0.29829 0.79683
 C3337 C 0.06735 0.29332 0.79171
 C3338 C 0.05890 0.28893 0.78723
 C3339 C 0.04900 0.28350 0.78171
 C3340 C 0.04069 0.27753 0.78840
 C3341 C 0.03146 0.27169 0.78295
 C3342 C 0.03052 0.27175 0.77076
 C3343 C 0.03873 0.27795 0.76412
 C3344 C 0.04794 0.28379 0.76957
 H3345 H 0.09808 0.32104 0.79345
 H3346 H 0.09734 0.29460 0.82008
 H3347 H 0.11511 0.30263 0.82867
 H3348 H 0.11587 0.32921 0.80187
 H3349 H 0.04145 0.27723 0.79780
 H3350 H 0.02520 0.26691 0.78818
 H3351 H 0.03811 0.27808 0.75471
 H3352 H 0.05433 0.28837 0.76431
 C3353 C 0.10167 0.81705 0.30138
 C3354 C 0.09645 0.80721 0.30636
 C3355 C 0.10147 0.80203 0.31619
 C3356 C 0.11168 0.80665 0.32102
 C3357 C 0.11703 0.81657 0.31610
 C3358 C 0.11188 0.82170 0.30620
 C3359 C 0.08601 0.80235 0.30132
 C3360 C 0.07735 0.79819 0.29703
 C3361 C 0.06732 0.79319 0.29191
 C3362 C 0.05889 0.78879 0.28741
 C3363 C 0.04903 0.78334 0.28186
 C3364 C 0.04052 0.77763 0.28853
 C3365 C 0.03131 0.77177 0.28305
 C3366 C 0.03058 0.77155 0.27085
 C3367 C 0.03900 0.77750 0.26422
 C3368 C 0.04819 0.78335 0.26970
 H3369 H 0.09787 0.82112 0.29375
 H3370 H 0.09752 0.79439 0.32010
 H3371 H 0.11532 0.80242 0.32861
 H3372 H 0.11568 0.82930 0.30211
 H3373 H 0.04110 0.77755 0.29795
 H3374 H 0.02490 0.76720 0.28829
 H3375 H 0.03854 0.77742 0.25480
 H3376 H 0.05473 0.78772 0.26445
 C3377 C 0.60174 0.68311 0.69877
 C3378 C 0.59662 0.69305 0.69388
 C3379 C 0.60174 0.69832 0.68416
 C3380 C 0.61195 0.69368 0.67933
 C3381 C 0.61722 0.68367 0.68416
 C3382 C 0.61196 0.67844 0.69396
 C3383 C 0.58619 0.69795 0.69893
 C3384 C 0.57752 0.70215 0.70319
 C3385 C 0.56748 0.70722 0.70824
 C3386 C 0.55901 0.71168 0.71263
 C3387 C 0.54907 0.71721 0.71799
 C3388 C 0.54654 0.72892 0.71554
 C3389 C 0.53730 0.73451 0.72121
 C3390 C 0.53049 0.72843 0.72936
 C3391 C 0.53289 0.71665 0.73165
 C3392 C 0.54218 0.71106 0.72600
 H3393 H 0.59786 0.67897 0.70632
 H3394 H 0.59786 0.70604 0.68032
 H3395 H 0.61569 0.69800 0.67184
 H3396 H 0.61568 0.67074 0.69795
 H3397 H 0.55183 0.73376 0.70938
 H3398 H 0.53555 0.74362 0.71940
 H3399 H 0.52775 0.71189 0.73798
 H3400 H 0.54409 0.70203 0.72801
 C3401 C 0.60162 0.18331 0.19788
 C3402 C 0.59631 0.19293 0.19256
 C3403 C 0.60131 0.19783 0.18257
 C3404 C 0.61161 0.19318 0.17795
 C3405 C 0.61708 0.18354 0.18326
 C3406 C 0.61192 0.17864 0.19327
 C3407 C 0.58586 0.19791 0.19746
 C3408 C 0.57720 0.20218 0.20167
 C3409 C 0.56721 0.20732 0.20673
 C3410 C 0.55881 0.21186 0.21118
 C3411 C 0.54900 0.21748 0.21667
 C3412 C 0.54813 0.22966 0.21651
 C3413 C 0.53898 0.23521 0.22237
 C3414 C 0.53063 0.22862 0.22846
 C3415 C 0.53140 0.21640 0.22841
 C3416 C 0.54056 0.21085 0.22254
 H3417 H 0.59784 0.17947 0.20563
 H3418 H 0.59727 0.20529 0.17839
 H3419 H 0.61523 0.19716 0.17021
 H3420 H 0.61587 0.17127 0.19766
 H3421 H 0.55462 0.23487 0.21202
 H3422 H 0.53849 0.24465 0.22232
 H3423 H 0.52504 0.21120 0.23310
 H3424 H 0.54118 0.20142 0.22274
 C3425 C 0.10149 0.69821 0.18319
 C3426 C 0.09629 0.69292 0.19286
 C3427 C 0.10139 0.68298 0.19779
 C3428 C 0.11166 0.67834 0.19306
 C3429 C 0.11700 0.68359 0.18332
 C3430 C 0.11176 0.69359 0.17844
 C3431 C 0.08584 0.69782 0.19786
 C3432 C 0.07717 0.70204 0.20209
 C3433 C 0.06715 0.70715 0.20714
 C3434 C 0.05874 0.71169 0.21156
 C3435 C 0.04891 0.71734 0.21699
 C3436 C 0.04045 0.71075 0.22289
 C3437 C 0.03127 0.71635 0.22868
 C3438 C 0.03050 0.72857 0.22864
 C3439 C 0.03887 0.73512 0.22252
 C3440 C 0.04803 0.72952 0.21674
 H3441 H 0.09764 0.70593 0.17932
 H3442 H 0.09745 0.67883 0.20530
 H3443 H 0.11536 0.67065 0.19708
 H3444 H 0.11556 0.69794 0.17100
 H3445 H 0.04107 0.70132 0.22316
 H3446 H 0.02489 0.71119 0.23339
 H3447 H 0.03839 0.74455 0.22241
 H3448 H 0.05453 0.73470 0.21222
 C3449 C 0.10184 0.18311 0.69883
 C3450 C 0.09661 0.19293 0.69380
 C3451 C 0.10164 0.19805 0.68395
 C3452 C 0.11184 0.19337 0.67912
 C3453 C 0.11719 0.18347 0.68409
 C3454 C 0.11204 0.17841 0.69403
 C3455 C 0.08617 0.19783 0.69881
 C3456 C 0.07749 0.20202 0.70305
 C3457 C 0.06741 0.20705 0.70807
 C3458 C 0.05893 0.21148 0.71245
 C3459 C 0.04897 0.21697 0.71781
 C3460 C 0.04641 0.22867 0.71535
 C3461 C 0.03716 0.23424 0.72104
 C3462 C 0.03038 0.22814 0.72920
 C3463 C 0.03281 0.21637 0.73149
 C3464 C 0.04210 0.21081 0.72583
 H3465 H 0.09804 0.17909 0.70649
 H3466 H 0.09768 0.20567 0.67999
 H3467 H 0.11547 0.19756 0.67150
 H3468 H 0.11584 0.17082 0.69816
 H3469 H 0.05167 0.23352 0.70919
 H3470 H 0.03538 0.24335 0.71923
 H3471 H 0.02769 0.21160 0.73784
 H3472 H 0.04405 0.20178 0.72785
 C3473 C 0.39823 0.69801 0.31641
 C3474 C 0.40330 0.69285 0.30661
 C3475 C 0.39810 0.68303 0.30160
 C3476 C 0.38788 0.67836 0.30637
 C3477 C 0.38268 0.68347 0.31625
 C3478 C 0.38801 0.69337 0.32121
 C3479 C 0.41375 0.69774 0.30160
 C3480 C 0.42242 0.70195 0.29736
 C3481 C 0.43246 0.70703 0.29233
 C3482 C 0.44090 0.71155 0.28795
 C3483 C 0.45075 0.71719 0.28258
 C3484 C 0.45905 0.71064 0.27642
 C3485 C 0.46828 0.71625 0.27071
 C3486 C 0.46925 0.72845 0.27110
 C3487 C 0.46104 0.73495 0.27747
 C3488 C 0.45183 0.72935 0.28317
 H3489 H 0.40217 0.70563 0.32036
 H3490 H 0.40195 0.67897 0.29399
 H3491 H 0.38410 0.67076 0.30227
 H3492 H 0.38433 0.69758 0.32879
 H3493 H 0.45827 0.70124 0.27587
 H3494 H 0.47453 0.71113 0.26580
 H3495 H 0.46168 0.74437 0.27784
 H3496 H 0.44546 0.73450 0.28790
 C3497 C 0.39819 0.19793 0.81641
 C3498 C 0.40336 0.19266 0.80671
 C3499 C 0.39826 0.18273 0.80181
 C3500 C 0.38801 0.17809 0.80656
 C3501 C 0.38270 0.18332 0.81632
 C3502 C 0.38794 0.19331 0.82118
 C3503 C 0.41380 0.19756 0.80170
 C3504 C 0.42246 0.20178 0.79746
 C3505 C 0.43248 0.20689 0.79241
 C3506 C 0.44090 0.21142 0.78801
 C3507 C 0.45075 0.21706 0.78261
 C3508 C 0.45905 0.21050 0.77646
 C3509 C 0.46827 0.21611 0.77073
 C3510 C 0.46922 0.22831 0.77108
 C3511 C 0.46101 0.23482 0.77744
 C3512 C 0.45182 0.22922 0.78317
 H3513 H 0.40205 0.20565 0.82026
 H3514 H 0.40218 0.17859 0.79428
 H3515 H 0.38431 0.17040 0.80256
 H3516 H 0.38416 0.19765 0.82864
 H3517 H 0.45829 0.20110 0.77595
 H3518 H 0.47452 0.21098 0.76583
 H3519 H 0.46165 0.24424 0.77779
 H3520 H 0.44545 0.23437 0.78789
 C3521 C 0.89814 0.69812 0.81607
 C3522 C 0.90340 0.69275 0.80647
 C3523 C 0.89842 0.68269 0.80172
 C3524 C 0.88822 0.67800 0.80652
 C3525 C 0.88283 0.68333 0.81619
 C3526 C 0.88794 0.69346 0.82089
 C3527 C 0.91381 0.69767 0.80143
 C3528 C 0.92246 0.70191 0.79718
 C3529 C 0.93247 0.70704 0.79214
 C3530 C 0.94089 0.71160 0.78775
 C3531 C 0.95074 0.71728 0.78239
 C3532 C 0.95907 0.71076 0.77624
 C3533 C 0.96830 0.71639 0.77056
 C3534 C 0.96923 0.72860 0.77097
 C3535 C 0.96099 0.73507 0.77732
 C3536 C 0.95178 0.72943 0.78300
 H3537 H 0.90190 0.70594 0.81980
 H3538 H 0.90242 0.67847 0.79427
 H3539 H 0.88462 0.67021 0.80263
 H3540 H 0.88410 0.69786 0.82828
 H3541 H 0.95832 0.70135 0.77570
 H3542 H 0.97457 0.71129 0.76566
 H3543 H 0.96160 0.74449 0.77771
 H3544 H 0.94539 0.73456 0.78771
 C3545 C 0.89842 0.19796 0.31644
 C3546 C 0.90345 0.19289 0.30657
 C3547 C 0.89822 0.18311 0.30149
 C3548 C 0.88801 0.17841 0.30627
 C3549 C 0.88286 0.18343 0.31622
 C3550 C 0.88821 0.19328 0.32124
 C3551 C 0.91386 0.19783 0.30157
 C3552 C 0.92251 0.20209 0.29734
 C3553 C 0.93253 0.20723 0.29232
 C3554 C 0.94095 0.21177 0.28793
 C3555 C 0.95080 0.21740 0.28254
 C3556 C 0.95909 0.21083 0.27639
 C3557 C 0.96832 0.21641 0.27066
 C3558 C 0.96929 0.22861 0.27101
 C3559 C 0.96109 0.23514 0.27736
 C3560 C 0.95189 0.22955 0.28310
 H3561 H 0.90238 0.20556 0.32043
 H3562 H 0.90203 0.17913 0.29382
 H3563 H 0.88420 0.17086 0.30211
 H3564 H 0.88458 0.19743 0.32887
 H3565 H 0.95831 0.20142 0.27588
 H3566 H 0.97455 0.21127 0.26575
 H3567 H 0.96174 0.24456 0.27771
 H3568 H 0.94553 0.23472 0.28781
 C3569 C 0.31621 0.30152 0.60167
 C3570 C 0.30652 0.30678 0.59641
 C3571 C 0.30158 0.31677 0.60136
 C3572 C 0.30632 0.32151 0.61154
 C3573 C 0.31608 0.31631 0.61693
 C3574 C 0.32096 0.30623 0.61185
 C3575 C 0.30158 0.30185 0.58599
 C3576 C 0.29739 0.29767 0.57732
 C3577 C 0.29239 0.29267 0.56726
 C3578 C 0.28801 0.28830 0.55878
 C3579 C 0.28260 0.28291 0.54883
 C3580 C 0.27130 0.28623 0.54547
 C3581 C 0.26575 0.28052 0.53626
 C3582 C 0.27145 0.27143 0.53036
 C3583 C 0.28286 0.26829 0.53358
 C3584 C 0.28841 0.27401 0.54280
 H3585 H 0.32008 0.29375 0.59793
 H3586 H 0.29406 0.32091 0.59737
 H3587 H 0.30228 0.32925 0.61511
 H3588 H 0.32843 0.30192 0.61569
 H3589 H 0.26672 0.29308 0.55010
 H3590 H 0.25693 0.28300 0.53387
 H3591 H 0.28733 0.26126 0.52912
 H3592 H 0.29713 0.27135 0.54535
 C3593 C 0.30143 0.81640 0.10137
 C3594 C 0.30656 0.80658 0.09626
 C3595 C 0.31640 0.80149 0.10141
 C3596 C 0.32111 0.80620 0.11161
 C3597 C 0.31604 0.81610 0.11683
 C3598 C 0.30611 0.82113 0.11156
 C3599 C 0.30167 0.80167 0.08582
 C3600 C 0.29752 0.79749 0.07713
 C3601 C 0.29256 0.79250 0.06704
 C3602 C 0.28822 0.78813 0.05854
 C3603 C 0.28288 0.78272 0.04857
 C3604 C 0.28527 0.77102 0.04600
 C3605 C 0.27956 0.76553 0.03675
 C3606 C 0.27144 0.77172 0.02998
 C3607 C 0.26924 0.78351 0.03241
 C3608 C 0.27492 0.78898 0.04170
 H3609 H 0.29378 0.82040 0.09747
 H3610 H 0.32044 0.79386 0.09755
 H3611 H 0.32872 0.80203 0.11534
 H3612 H 0.30191 0.82872 0.11526
 H3613 H 0.29138 0.76609 0.05127
 H3614 H 0.28129 0.75641 0.03498
 H3615 H 0.26292 0.78835 0.02731
 H3616 H 0.27296 0.79802 0.04365
 C3617 C 0.81633 0.30162 0.10147
 C3618 C 0.80646 0.30670 0.09636
 C3619 C 0.80135 0.31654 0.10147
 C3620 C 0.80609 0.32129 0.11163
 C3621 C 0.81603 0.31627 0.11686
 C3622 C 0.82109 0.30636 0.11163
 C3623 C 0.80150 0.30176 0.08596
 C3624 C 0.79727 0.29757 0.07731
 C3625 C 0.79224 0.29257 0.06727
 C3626 C 0.78784 0.28818 0.05880
 C3627 C 0.78246 0.28276 0.04885
 C3628 C 0.77162 0.28676 0.04481
 C3629 C 0.76607 0.28107 0.03558
 C3630 C 0.77133 0.27133 0.03035
 C3631 C 0.78228 0.26748 0.03427
 C3632 C 0.78783 0.27318 0.04350
 H3633 H 0.82034 0.29399 0.09760
 H3634 H 0.79368 0.32053 0.09760
 H3635 H 0.80190 0.32889 0.11533
 H3636 H 0.82872 0.30220 0.11533
 H3637 H 0.76738 0.29414 0.04891
 H3638 H 0.75758 0.28408 0.03266
 H3639 H 0.78639 0.25993 0.03033
 H3640 H 0.79619 0.26999 0.04658
 C3641 C 0.80158 0.81693 0.60133
 C3642 C 0.80666 0.80707 0.59626
 C3643 C 0.81651 0.80197 0.60139
 C3644 C 0.82126 0.80670 0.61155
 C3645 C 0.81623 0.81664 0.61676
 C3646 C 0.80631 0.82169 0.61149
 C3647 C 0.80169 0.80209 0.58588
 C3648 C 0.79748 0.79783 0.57726
 C3649 C 0.79246 0.79271 0.56727
 C3650 C 0.78807 0.78819 0.55887
 C3651 C 0.78269 0.78259 0.54903
 C3652 C 0.78322 0.77044 0.54795
 C3653 C 0.77748 0.76488 0.53877
 C3654 C 0.77113 0.77143 0.53059
 C3655 C 0.77081 0.78363 0.53156
 C3656 C 0.77655 0.78919 0.54076
 H3657 H 0.79393 0.82094 0.59744
 H3658 H 0.82050 0.79431 0.59755
 H3659 H 0.82886 0.80252 0.61528
 H3660 H 0.80215 0.82931 0.61517
 H3661 H 0.78793 0.76525 0.55430
 H3662 H 0.77781 0.75545 0.53812
 H3663 H 0.76591 0.78879 0.52533
 H3664 H 0.77606 0.79860 0.54154
 C3665 C 0.31629 0.69803 0.39866
 C3666 C 0.30646 0.69293 0.40379
 C3667 C 0.30133 0.68313 0.39865
 C3668 C 0.30602 0.67843 0.38844
 C3669 C 0.31594 0.68348 0.38318
 C3670 C 0.32100 0.69336 0.38844
 C3671 C 0.30153 0.69784 0.41422
 C3672 C 0.29733 0.70202 0.42289
 C3673 C 0.29227 0.70702 0.43293
 C3674 C 0.28780 0.71141 0.44136
 C3675 C 0.28225 0.71683 0.45121
 C3676 C 0.27004 0.71671 0.45215
 C3677 C 0.26454 0.72252 0.46132
 C3678 C 0.27119 0.72854 0.46964
 C3679 C 0.28344 0.72845 0.46882
 C3680 C 0.28894 0.72263 0.45963
 H3681 H 0.32032 0.70564 0.40255
 H3682 H 0.29369 0.67912 0.40254
 H3683 H 0.30183 0.67086 0.38471
 H3684 H 0.32861 0.69754 0.38472
 H3685 H 0.26478 0.71228 0.44568
 H3686 H 0.25508 0.72251 0.46184
 H3687 H 0.28868 0.73309 0.47515
 H3688 H 0.29839 0.72280 0.45897
 C3689 C 0.30139 0.18292 0.89872
 C3690 C 0.30648 0.19274 0.90384
 C3691 C 0.31633 0.19784 0.89873
 C3692 C 0.32108 0.19314 0.88854
 C3693 C 0.31605 0.18324 0.88329
 C3694 C 0.30612 0.17820 0.88853
 C3695 C 0.30151 0.19767 0.91424
 C3696 C 0.29728 0.20187 0.92289
 C3697 C 0.29220 0.20689 0.93290
 C3698 C 0.28772 0.21130 0.94132
 C3699 C 0.28215 0.21674 0.95117
 C3700 C 0.28886 0.22251 0.95959
 C3701 C 0.28335 0.22834 0.96878
 C3702 C 0.27110 0.22846 0.96959
 C3703 C 0.26445 0.22245 0.96126
 C3704 C 0.26995 0.21663 0.95209
 H3705 H 0.29373 0.17892 0.90258
 H3706 H 0.32033 0.20547 0.90261
 H3707 H 0.32870 0.19732 0.88484
 H3708 H 0.30195 0.17061 0.88481
 H3709 H 0.29830 0.22267 0.95894
 H3710 H 0.28860 0.23296 0.97512
 H3711 H 0.25499 0.22245 0.96178
 H3712 H 0.26468 0.21220 0.94562
 C3713 C 0.81654 0.69814 0.89864
 C3714 C 0.80670 0.69305 0.90378
 C3715 C 0.80158 0.68324 0.89868
 C3716 C 0.80627 0.67850 0.88849
 C3717 C 0.81620 0.68352 0.88322
 C3718 C 0.82126 0.69342 0.88844
 C3719 C 0.80177 0.69800 0.91420
 C3720 C 0.79754 0.70219 0.92285
 C3721 C 0.79245 0.70720 0.93286
 C3722 C 0.78794 0.71160 0.94127
 C3723 C 0.78231 0.71701 0.95109
 C3724 C 0.77011 0.71684 0.95196
 C3725 C 0.76453 0.72265 0.96110
 C3726 C 0.77112 0.72872 0.96944
 C3727 C 0.78337 0.72866 0.96869
 C3728 C 0.78895 0.72284 0.95953
 H3729 H 0.82056 0.70577 0.90250
 H3730 H 0.79393 0.67925 0.90257
 H3731 H 0.80208 0.67091 0.88479
 H3732 H 0.82886 0.69759 0.88471
 H3733 H 0.76489 0.71238 0.94548
 H3734 H 0.75507 0.72260 0.96158
 H3735 H 0.78857 0.73333 0.97504
 H3736 H 0.79840 0.72304 0.95892
 C3737 C 0.80120 0.18329 0.39833
 C3738 C 0.80630 0.19311 0.40346
 C3739 C 0.81615 0.19821 0.39835
 C3740 C 0.82091 0.19351 0.38817
 C3741 C 0.81587 0.18361 0.38292
 C3742 C 0.80594 0.17857 0.38815
 C3743 C 0.80136 0.19802 0.41389
 C3744 C 0.79718 0.20220 0.42257
 C3745 C 0.79221 0.20721 0.43264
 C3746 C 0.78787 0.21161 0.44114
 C3747 C 0.78253 0.21704 0.45111
 C3748 C 0.78819 0.22626 0.45679
 C3749 C 0.78270 0.23201 0.46602
 C3750 C 0.77150 0.22858 0.46962
 C3751 C 0.76595 0.21918 0.46408
 C3752 C 0.77145 0.21344 0.45485
 H3753 H 0.79355 0.17929 0.40220
 H3754 H 0.82015 0.20584 0.40223
 H3755 H 0.82852 0.19768 0.38447
 H3756 H 0.80177 0.17098 0.38444
 H3757 H 0.79675 0.22913 0.45394
 H3758 H 0.78704 0.23927 0.47020
 H3759 H 0.75728 0.21649 0.46677
 H3760 H 0.76698 0.20635 0.45050
 C3761 C 0.69857 0.31655 0.39824
 C3762 C 0.69345 0.30674 0.40337
 C3763 C 0.68361 0.30165 0.39825
 C3764 C 0.67889 0.30637 0.38805
 C3765 C 0.68395 0.31626 0.38280
 C3766 C 0.69387 0.32129 0.38804
 C3767 C 0.69836 0.30181 0.41382
 C3768 C 0.70253 0.29763 0.42251
 C3769 C 0.70750 0.29262 0.43259
 C3770 C 0.71185 0.28823 0.44110
 C3771 C 0.71719 0.28281 0.45108
 C3772 C 0.71142 0.27378 0.45697
 C3773 C 0.71692 0.26804 0.46621
 C3774 C 0.72824 0.27128 0.46961
 C3775 C 0.73390 0.28049 0.46386
 C3776 C 0.72840 0.28622 0.45462
 H3777 H 0.70622 0.32055 0.40212
 H3778 H 0.67959 0.29403 0.40213
 H3779 H 0.67128 0.30220 0.38433
 H3780 H 0.69806 0.32887 0.38432
 H3781 H 0.70277 0.27105 0.45427
 H3782 H 0.71249 0.26091 0.47056
 H3783 H 0.74266 0.28303 0.46638
 H3784 H 0.73296 0.29317 0.45010
 C3785 C 0.68350 0.80117 0.89755
 C3786 C 0.69269 0.80674 0.90334
 C3787 C 0.69723 0.81715 0.89889
 C3788 C 0.69261 0.82200 0.88871
 C3789 C 0.68336 0.81648 0.88280
 C3790 C 0.67886 0.80599 0.88735
 C3791 C 0.69755 0.80169 0.91375
 C3792 C 0.70171 0.79740 0.92240
 C3793 C 0.70670 0.79228 0.93242
 C3794 C 0.71109 0.78779 0.94085
 C3795 C 0.71651 0.78224 0.95072
 C3796 C 0.72231 0.78893 0.95913
 C3797 C 0.72812 0.78345 0.96836
 C3798 C 0.72821 0.77123 0.96921
 C3799 C 0.72218 0.76458 0.96089
 C3800 C 0.71637 0.77006 0.95168
 H3801 H 0.67991 0.79309 0.90091
 H3802 H 0.70439 0.82151 0.90328
 H3803 H 0.69638 0.83001 0.88544
 H3804 H 0.67170 0.80152 0.88313
 H3805 H 0.72249 0.79836 0.95845
 H3806 H 0.73277 0.78869 0.97469
 H3807 H 0.72216 0.75515 0.96143
 H3808 H 0.71194 0.76480 0.94522
 C3809 C 0.19806 0.31647 0.89873
 C3810 C 0.19292 0.30663 0.90381
 C3811 C 0.18311 0.30155 0.89862
 C3812 C 0.17845 0.30627 0.88839
 C3813 C 0.18353 0.31618 0.88319
 C3814 C 0.19341 0.32121 0.88851
 C3815 C 0.19780 0.30167 0.91425
 C3816 C 0.20195 0.29742 0.92292
 C3817 C 0.20691 0.29232 0.93296
 C3818 C 0.21128 0.28781 0.94139
 C3819 C 0.21667 0.28223 0.95125
 C3820 C 0.21647 0.27005 0.95219
 C3821 C 0.22228 0.26453 0.96137
 C3822 C 0.22837 0.27113 0.96967
 C3823 C 0.22834 0.28335 0.96885
 C3824 C 0.22252 0.28888 0.95966
 H3825 H 0.20568 0.32046 0.90266
 H3826 H 0.17908 0.29391 0.90246
 H3827 H 0.17087 0.30210 0.88463
 H3828 H 0.19761 0.32881 0.88483
 H3829 H 0.21199 0.26483 0.94573
 H3830 H 0.22222 0.25509 0.96189
 H3831 H 0.23303 0.28856 0.97518
 H3832 H 0.22275 0.29831 0.95899
 C3833 C 0.19833 0.81652 0.39855
 C3834 C 0.19321 0.80668 0.40365
 C3835 C 0.18341 0.80157 0.39848
 C3836 C 0.17871 0.80627 0.38826
 C3837 C 0.18377 0.81619 0.38304
 C3838 C 0.19365 0.82124 0.38833
 C3839 C 0.19811 0.80175 0.41409
 C3840 C 0.20226 0.79753 0.42278
 C3841 C 0.20722 0.79246 0.43283
 C3842 C 0.21157 0.78798 0.44128
 C3843 C 0.21694 0.78240 0.45116
 C3844 C 0.21672 0.77023 0.45210
 C3845 C 0.22250 0.76470 0.46130
 C3846 C 0.22856 0.77130 0.46962
 C3847 C 0.22855 0.78352 0.46879
 C3848 C 0.22276 0.78905 0.45958
 H3849 H 0.20594 0.82053 0.40246
 H3850 H 0.17940 0.79392 0.40234
 H3851 H 0.17114 0.80208 0.38451
 H3852 H 0.19783 0.82885 0.38464
 H3853 H 0.21226 0.76500 0.44563
 H3854 H 0.22243 0.75526 0.46183
 H3855 H 0.23322 0.78873 0.47513
 H3856 H 0.22300 0.79848 0.45891
 C3857 C 0.69828 0.68321 0.60146
 C3858 C 0.69319 0.69305 0.59633
 C3859 C 0.68335 0.69817 0.60144
 C3860 C 0.67861 0.69348 0.61165
 C3861 C 0.68365 0.68357 0.61691
 C3862 C 0.69356 0.67850 0.61166
 C3863 C 0.69816 0.69797 0.58590
 C3864 C 0.70241 0.70214 0.57724
 C3865 C 0.70753 0.70711 0.56721
 C3866 C 0.71204 0.71145 0.55878
 C3867 C 0.71764 0.71681 0.54890
 C3868 C 0.71100 0.72279 0.54056
 C3869 C 0.71655 0.72855 0.53134
 C3870 C 0.72879 0.72840 0.53045
 C3871 C 0.73539 0.72219 0.53869
 C3872 C 0.72984 0.71643 0.54788
 H3873 H 0.70593 0.67919 0.59758
 H3874 H 0.67935 0.70581 0.59756
 H3875 H 0.67100 0.69767 0.61536
 H3876 H 0.69774 0.67090 0.61538
 H3877 H 0.70157 0.72317 0.54129
 H3878 H 0.71136 0.73335 0.52507
 H3879 H 0.74484 0.72200 0.53811
 H3880 H 0.73506 0.71185 0.55429
 C3881 C 0.68286 0.19822 0.10142
 C3882 C 0.69282 0.19331 0.09632
 C3883 C 0.69821 0.18369 0.10155
 C3884 C 0.69369 0.17899 0.11184
 C3885 C 0.68368 0.18387 0.11708
 C3886 C 0.67831 0.19354 0.11172
 C3887 C 0.69764 0.19825 0.08584
 C3888 C 0.70181 0.20244 0.07715
 C3889 C 0.70683 0.20742 0.06708
 C3890 C 0.71127 0.21179 0.05862
 C3891 C 0.71675 0.21719 0.04870
 C3892 C 0.72817 0.21405 0.04557
 C3893 C 0.73378 0.21979 0.03639
 C3894 C 0.72802 0.22871 0.03029
 C3895 C 0.71650 0.23166 0.03328
 C3896 C 0.71089 0.22592 0.04246
 H3897 H 0.67862 0.20568 0.09745
 H3898 H 0.70596 0.17984 0.09771
 H3899 H 0.69814 0.17162 0.11571
 H3900 H 0.67057 0.19751 0.11540
 H3901 H 0.73280 0.20733 0.05034
 H3902 H 0.74269 0.21745 0.03418
 H3903 H 0.71198 0.23856 0.02866
 H3904 H 0.70207 0.22844 0.04483
 C3905 C 0.19871 0.68327 0.10130
 C3906 C 0.19364 0.69310 0.09614
 C3907 C 0.18375 0.69821 0.10119
 C3908 C 0.17895 0.69351 0.11136
 C3909 C 0.18397 0.68360 0.11665
 C3910 C 0.19393 0.67855 0.11147
 C3911 C 0.19865 0.69803 0.08574
 C3912 C 0.20293 0.70220 0.07710
 C3913 C 0.20807 0.70719 0.06709
 C3914 C 0.21258 0.71156 0.05867
 C3915 C 0.21815 0.71695 0.04880
 C3916 C 0.21149 0.72298 0.04051
 C3917 C 0.21701 0.72876 0.03130
 C3918 C 0.22924 0.72857 0.03033
 C3919 C 0.23586 0.72232 0.03852
 C3920 C 0.23034 0.71654 0.04772
 H3921 H 0.20639 0.67927 0.09748
 H3922 H 0.17977 0.70584 0.09728
 H3923 H 0.17132 0.69769 0.11502
 H3924 H 0.19809 0.67096 0.11521
 H3925 H 0.20205 0.72337 0.04129
 H3926 H 0.21179 0.73358 0.02506
 H3927 H 0.24531 0.72210 0.03788
 H3928 H 0.23558 0.71192 0.05408
 C3929 C 0.19856 0.18313 0.60165
 C3930 C 0.19347 0.19297 0.59653
 C3931 C 0.18361 0.19807 0.60162
 C3932 C 0.17884 0.19335 0.61180
 C3933 C 0.18387 0.18343 0.61705
 C3934 C 0.19381 0.17839 0.61183
 C3935 C 0.19843 0.19790 0.58611
 C3936 C 0.20264 0.20209 0.57744
 C3937 C 0.20766 0.20709 0.56739
 C3938 C 0.21206 0.21148 0.55891
 C3939 C 0.21745 0.21689 0.54895
 C3940 C 0.21161 0.22578 0.54291
 C3941 C 0.21714 0.23151 0.53368
 C3942 C 0.22855 0.22841 0.53045
 C3943 C 0.23428 0.21933 0.53635
 C3944 C 0.22875 0.21360 0.54558
 H3945 H 0.20622 0.17913 0.59780
 H3946 H 0.17961 0.20571 0.59774
 H3947 H 0.17122 0.19752 0.61549
 H3948 H 0.19799 0.17079 0.61555
 H3949 H 0.20288 0.22840 0.54547
 H3950 H 0.21264 0.23853 0.52921
 H3951 H 0.24311 0.21688 0.53396
 H3952 H 0.23336 0.20676 0.55021
   
