data_POSCAR
  _audit_creation_date              2014-09-24
  _audit_creation_method            'ToBaCCo'
  _symmetry_space_group_name_H-M    'P1'
  _symmetry_Int_Tables_number       1
  _symmetry_cell_setting            triclinic
  loop_
  _symmetry_equiv_pos_as_xyz
 x,y,z
_cell_length_a 81.2336
_cell_length_b 81.3747
_cell_length_c 81.0311
_cell_angle_alpha 90.029000
_cell_angle_beta 89.982900
_cell_angle_gamma 89.880500
loop_
  _atom_site_label
  _atom_site_type_symbol
  _atom_site_fract_x
  _atom_site_fract_y
  _atom_site_fract_z
C1 C 0.35716 0.33360 0.34545
 C2 C 0.34488 0.33352 0.35761
 C3 C 0.33278 0.34556 0.35761
 C4 C 0.33282 0.35781 0.34545
 C5 C 0.34496 0.35788 0.33342
 C6 C 0.35720 0.34570 0.33343
 C7 C 0.37006 0.32312 0.34208
 N8 N 0.37782 0.32865 0.32838
 C9 C 0.37013 0.34239 0.32293
 C10 C 0.34161 0.37076 0.32293
 N11 N 0.32781 0.37841 0.32836
 C12 C 0.32228 0.37065 0.34207
 C13 C 0.32219 0.34210 0.37043
 N14 N 0.32766 0.32834 0.37809
 C15 C 0.34146 0.32295 0.37042
 H16 H 0.37340 0.31216 0.34888
 H17 H 0.37353 0.34927 0.31202
 H18 H 0.34850 0.37417 0.31201
 H19 H 0.31129 0.37396 0.34887
 H20 H 0.31121 0.34889 0.37378
 H21 H 0.34831 0.31201 0.37375
 C22 C 0.35740 0.83371 -0.15502
 C23 C 0.34513 0.83364 -0.14284
 C24 C 0.33305 0.84569 -0.14282
 C25 C 0.33308 0.85794 -0.15498
 C26 C 0.34521 0.85801 -0.16702
 C27 C 0.35744 0.84582 -0.16704
 C28 C 0.37030 0.82322 -0.15840
 N29 N 0.37805 0.82877 -0.17210
 C30 C 0.37036 0.84252 -0.17755
 C31 C 0.34186 0.87090 -0.17752
 N32 N 0.32807 0.87855 -0.17204
 C33 C 0.32255 0.87080 -0.15833
 C34 C 0.32247 0.84225 -0.13000
 N35 N 0.32792 0.82848 -0.12235
 C36 C 0.34171 0.82307 -0.13003
 H37 H 0.37363 0.81226 -0.15158
 H38 H 0.37375 0.84941 -0.18847
 H39 H 0.34874 0.87429 -0.18845
 H40 H 0.31156 0.87409 -0.15150
 H41 H 0.31150 0.84905 -0.12664
 H42 H 0.34854 0.81212 -0.12671
 C43 C 0.85773 0.33392 -0.15477
 C44 C 0.84539 0.33386 -0.14267
 C45 C 0.83334 0.34594 -0.14268
 C46 C 0.83350 0.35824 -0.15480
 C47 C 0.84570 0.35830 -0.16676
 C48 C 0.85788 0.34607 -0.16675
 C49 C 0.87059 0.32338 -0.15813
 N50 N 0.87843 0.32893 -0.17178
 C51 C 0.87083 0.34274 -0.17722
 C52 C 0.84244 0.37122 -0.17725
 N53 N 0.82863 0.37888 -0.17184
 C54 C 0.82300 0.37112 -0.15819
 C55 C 0.82266 0.34247 -0.12996
 N56 N 0.82800 0.32865 -0.12233
 C57 C 0.84183 0.32323 -0.12994
 H58 H 0.87383 0.31237 -0.15135
 H59 H 0.87429 0.34964 -0.18810
 H60 H 0.84939 0.37461 -0.18814
 H61 H 0.81197 0.37441 -0.15143
 H62 H 0.81167 0.34929 -0.12667
 H63 H 0.84860 0.31224 -0.12662
 C64 C 0.85775 0.83417 0.34584
 C65 C 0.84548 0.83405 0.35802
 C66 C 0.83336 0.84605 0.35805
 C67 C 0.83335 0.85832 0.34590
 C68 C 0.84548 0.85844 0.33386
 C69 C 0.85775 0.84630 0.33383
 C70 C 0.87066 0.82370 0.34243
 N71 N 0.87837 0.82927 0.32871
 C72 C 0.87065 0.84302 0.32329
 C73 C 0.84205 0.87130 0.32335
 N74 N 0.82822 0.87887 0.32882
 C75 C 0.82274 0.87111 0.34253
 C76 C 0.82274 0.84251 0.37081
 N77 N 0.82821 0.82873 0.37842
 C78 C 0.84205 0.82340 0.37076
 H79 H 0.87401 0.81273 0.34922
 H80 H 0.87400 0.84991 0.31237
 H81 H 0.84890 0.87471 0.31241
 H82 H 0.81172 0.87434 0.34935
 H83 H 0.81172 0.84924 0.37414
 H84 H 0.84889 0.81245 0.37404
 C85 C 0.64216 0.66655 0.34553
 C86 C 0.65430 0.66656 0.35783
 C87 C 0.66632 0.65444 0.35795
 C88 C 0.66634 0.64219 0.34578
 C89 C 0.65434 0.64219 0.33363
 C90 C 0.64217 0.65444 0.33351
 C91 C 0.62938 0.67713 0.34199
 N92 N 0.62176 0.67165 0.32820
 C93 C 0.62941 0.65784 0.32285
 C94 C 0.65774 0.62930 0.32314
 N95 N 0.67145 0.62159 0.32870
 C96 C 0.67686 0.62930 0.34248
 C97 C 0.67680 0.65785 0.37086
 N98 N 0.67136 0.67165 0.37846
 C99 C 0.65767 0.67713 0.37066
 H100 H 0.62606 0.68814 0.34874
 H101 H 0.62612 0.65099 0.31188
 H102 H 0.65097 0.62595 0.31213
 H103 H 0.68778 0.62595 0.34937
 H104 H 0.68771 0.65099 0.37430
 H105 H 0.65087 0.68812 0.37392
 C106 C 0.64163 0.16625 -0.15496
 C107 C 0.65378 0.16630 -0.14267
 C108 C 0.66583 0.15422 -0.14255
 C109 C 0.66588 0.14195 -0.15471
 C110 C 0.65387 0.14191 -0.16686
 C111 C 0.64168 0.15413 -0.16698
 C112 C 0.62883 0.17680 -0.15848
 N113 N 0.62121 0.17128 -0.17227
 C114 C 0.62889 0.15749 -0.17763
 C115 C 0.65730 0.12901 -0.17733
 N116 N 0.67103 0.12134 -0.17174
 C117 C 0.67644 0.12909 -0.15798
 C118 C 0.67631 0.15766 -0.12965
 N119 N 0.67084 0.17145 -0.12205
 C120 C 0.65713 0.17689 -0.12985
 H121 H 0.62549 0.18781 -0.15173
 H122 H 0.62562 0.15061 -0.18860
 H123 H 0.65052 0.12563 -0.18833
 H124 H 0.68736 0.12578 -0.15107
 H125 H 0.68725 0.15084 -0.12621
 H126 H 0.65030 0.18786 -0.12659
 C127 C 0.14190 0.66607 -0.15516
 C128 C 0.15407 0.66614 -0.14289
 C129 C 0.16613 0.65407 -0.14275
 C130 C 0.16616 0.64178 -0.15489
 C131 C 0.15414 0.64171 -0.16703
 C132 C 0.14194 0.65392 -0.16716
 C133 C 0.12909 0.67661 -0.15868
 N134 N 0.12146 0.67106 -0.17246
 C135 C 0.12915 0.65726 -0.17781
 C136 C 0.15758 0.62881 -0.17750
 N137 N 0.17132 0.62117 -0.17191
 C138 C 0.17673 0.62893 -0.15816
 C139 C 0.17662 0.65755 -0.12988
 N140 N 0.17115 0.67135 -0.12230
 C141 C 0.15742 0.67676 -0.13009
 H142 H 0.12576 0.68762 -0.15194
 H143 H 0.12586 0.65037 -0.18876
 H144 H 0.15081 0.62541 -0.18849
 H145 H 0.18768 0.62566 -0.15126
 H146 H 0.18756 0.65073 -0.12643
 H147 H 0.15059 0.68773 -0.12684
 C148 C 0.14216 0.16651 0.34484
 C149 C 0.15433 0.16651 0.35711
 C150 C 0.16640 0.15445 0.35715
 C151 C 0.16644 0.14225 0.34492
 C152 C 0.15441 0.14225 0.33279
 C153 C 0.14220 0.15445 0.33276
 C154 C 0.12932 0.17706 0.34140
 N155 N 0.12169 0.17160 0.32759
 C156 C 0.12939 0.15785 0.32214
 C157 C 0.15784 0.12941 0.32224
 N158 N 0.17158 0.12174 0.32777
 C159 C 0.17701 0.12941 0.34157
 C160 C 0.17688 0.15782 0.37006
 N161 N 0.17139 0.17156 0.37775
 C162 C 0.15767 0.17703 0.37000
 H163 H 0.12598 0.18802 0.34822
 H164 H 0.12612 0.15103 0.31114
 H165 H 0.15105 0.12608 0.31124
 H166 H 0.18794 0.12608 0.34846
 H167 H 0.18782 0.15099 0.37346
 H168 H 0.15082 0.18796 0.37334
 C169 C 0.64239 0.33359 0.65434
 C170 C 0.65459 0.33352 0.64209
 C171 C 0.66671 0.34549 0.64210
 C172 C 0.66677 0.35766 0.65436
 C173 C 0.65471 0.35773 0.66646
 C174 C 0.64245 0.34562 0.66645
 C175 C 0.62952 0.32314 0.65776
 N176 N 0.62188 0.32861 0.67157
 C177 C 0.62961 0.34230 0.67704
 C178 C 0.65818 0.37049 0.67706
 N179 N 0.67198 0.37806 0.67161
 C180 C 0.67738 0.37038 0.65780
 C181 C 0.67725 0.34202 0.62924
 N182 N 0.67174 0.32832 0.62153
 C183 C 0.65795 0.32298 0.62922
 H184 H 0.62614 0.31222 0.65092
 H185 H 0.62632 0.34911 0.68804
 H186 H 0.65140 0.37384 0.68807
 H187 H 0.68837 0.37363 0.65097
 H188 H 0.68825 0.34875 0.62591
 H189 H 0.65110 0.31207 0.62588
 C190 C 0.64174 0.83375 1.15466
 C191 C 0.65395 0.83363 1.14242
 C192 C 0.66610 0.84555 1.14243
 C193 C 0.66619 0.85774 1.15467
 C194 C 0.65412 0.85786 1.16676
 C195 C 0.64182 0.84579 1.16676
 C196 C 0.62882 0.82334 1.15805
 N197 N 0.62118 0.82888 1.17184
 C198 C 0.62896 0.84253 1.17733
 C199 C 0.65761 0.87064 1.17733
 N200 N 0.67142 0.87818 1.17186
 C201 C 0.67682 0.87045 1.15807
 C202 C 0.67662 0.84205 1.12956
 N203 N 0.67107 0.82837 1.12185
 C204 C 0.65727 0.82307 1.12955
 H205 H 0.62541 0.81243 1.15120
 H206 H 0.62568 0.84938 1.18832
 H207 H 0.65082 0.87405 1.18832
 H208 H 0.68781 0.87368 1.15124
 H209 H 0.68764 0.84875 1.12622
 H210 H 0.65038 0.81219 1.12620
 C211 C 0.14211 0.33319 1.15455
 C212 C 0.15436 0.33314 1.14236
 C213 C 0.16638 0.34519 1.14234
 C214 C 0.16630 0.35745 1.15451
 C215 C 0.15419 0.35750 1.16657
 C216 C 0.14203 0.34530 1.16659
 C217 C 0.12928 0.32268 1.15794
 N218 N 0.12153 0.32821 1.17167
 C219 C 0.12914 0.34197 1.17712
 C220 C 0.15750 0.37040 1.17706
 N221 N 0.17123 0.37806 1.17159
 C222 C 0.17677 0.37031 1.15787
 C223 C 0.17697 0.34175 1.12950
 N224 N 0.17158 0.32798 1.12185
 C225 C 0.15782 0.32256 1.12954
 H226 H 0.12601 0.31171 1.15113
 H227 H 0.12574 0.34885 1.18805
 H228 H 0.15062 0.37380 1.18799
 H229 H 0.18773 0.37363 1.15103
 H230 H 0.18791 0.34856 1.12614
 H231 H 0.15104 0.31160 1.12622
 C232 C 0.14242 0.83376 0.65439
 C233 C 0.15464 0.83375 0.64216
 C234 C 0.16670 0.84577 0.64219
 C235 C 0.16668 0.85794 0.65445
 C236 C 0.15460 0.85795 0.66654
 C237 C 0.14240 0.84579 0.66650
 C238 C 0.12958 0.82326 0.65776
 N239 N 0.12188 0.82869 0.67155
 C240 C 0.12955 0.84240 0.67706
 C241 C 0.15799 0.87072 0.67717
 N242 N 0.17176 0.87835 0.67173
 C243 C 0.17724 0.87072 0.65791
 C244 C 0.17727 0.84236 0.62934
 N245 N 0.17183 0.82864 0.62162
 C246 C 0.15806 0.82323 0.62930
 H247 H 0.12626 0.81233 0.65090
 H248 H 0.12620 0.84919 0.68806
 H249 H 0.15117 0.87400 0.68818
 H250 H 0.18823 0.87401 0.65111
 H251 H 0.18824 0.84913 0.62602
 H252 H 0.15125 0.81229 0.62594
 C253 C 0.35774 0.66629 0.65492
 C254 C 0.34554 0.66631 0.64268
 C255 C 0.33348 0.65429 0.64267
 C256 C 0.33348 0.64210 0.65490
 C257 C 0.34553 0.64209 0.66700
 C258 C 0.35773 0.65425 0.66701
 C259 C 0.37057 0.67679 0.65833
 N260 N 0.37825 0.67133 0.67212
 C261 C 0.37056 0.65762 0.67758
 C262 C 0.34215 0.62926 0.67755
 N263 N 0.32841 0.62161 0.67206
 C264 C 0.32295 0.62929 0.65828
 C265 C 0.32297 0.65768 0.62978
 N266 N 0.32843 0.67139 0.62207
 C267 C 0.34217 0.67682 0.62980
 H268 H 0.37391 0.68772 0.65151
 H269 H 0.37389 0.65081 0.68857
 H270 H 0.34897 0.62591 0.68852
 H271 H 0.31201 0.62597 0.65144
 H272 H 0.31203 0.65089 0.62641
 H273 H 0.34900 0.68773 0.62644
 C274 C 0.35800 0.16600 1.15495
 C275 C 0.34581 0.16604 1.14270
 C276 C 0.33376 0.15401 1.14266
 C277 C 0.33375 0.14180 1.15486
 C278 C 0.34580 0.14176 1.16698
 C279 C 0.35799 0.15393 1.16702
 C280 C 0.37084 0.17649 1.15838
 N281 N 0.37851 0.17101 1.17217
 C282 C 0.37082 0.15728 1.17760
 C283 C 0.34240 0.12892 1.17750
 N284 N 0.32867 0.12128 1.17197
 C285 C 0.32322 0.12898 1.15820
 C286 C 0.32325 0.15742 1.12977
 N287 N 0.32871 0.17115 1.12210
 C288 C 0.34244 0.17657 1.12983
 H289 H 0.37418 0.18743 1.15157
 H290 H 0.37415 0.15045 1.18857
 H291 H 0.34922 0.12555 1.18848
 H292 H 0.31228 0.12568 1.15132
 H293 H 0.31232 0.15062 1.12637
 H294 H 0.34927 0.18749 1.12650
 C295 C 0.85780 0.66677 1.15533
 C296 C 0.84564 0.66672 1.14305
 C297 C 0.83366 0.65462 1.14298
 C298 C 0.83369 0.64243 1.15520
 C299 C 0.84570 0.64247 1.16734
 C300 C 0.85782 0.65471 1.16741
 C301 C 0.87056 0.67734 1.15880
 N302 N 0.87822 0.67191 1.17261
 C303 C 0.87060 0.65815 1.17803
 C304 C 0.84235 0.62961 1.17786
 N305 N 0.82868 0.62188 1.17231
 C306 C 0.82323 0.62955 1.15852
 C307 C 0.82316 0.65796 1.13006
 N308 N 0.82856 0.67172 1.12239
 C309 C 0.84224 0.67722 1.13016
 H310 H 0.87386 0.68829 1.15199
 H311 H 0.87394 0.65134 1.18901
 H312 H 0.84916 0.62627 1.18885
 H313 H 0.81234 0.62615 1.15162
 H314 H 0.81228 0.65110 1.12665
 H315 H 0.84901 0.68818 1.12684
 C316 C 0.85822 0.16664 0.65553
 C317 C 0.84606 0.16665 0.64326
 C318 C 0.83400 0.15462 0.64322
 C319 C 0.83397 0.14244 0.65545
 C320 C 0.84598 0.14243 0.66759
 C321 C 0.85818 0.15460 0.66763
 C322 C 0.87105 0.17714 0.65897
 N323 N 0.87868 0.17167 0.67278
 C324 C 0.87098 0.15796 0.67824
 C325 C 0.84256 0.12961 0.67813
 N326 N 0.82884 0.12196 0.67261
 C327 C 0.82343 0.12963 0.65881
 C328 C 0.82352 0.15801 0.63030
 N329 N 0.82899 0.17172 0.62261
 C330 C 0.84270 0.17716 0.63036
 H331 H 0.87440 0.18807 0.65213
 H332 H 0.87428 0.15114 0.68924
 H333 H 0.84934 0.12627 0.68914
 H334 H 0.81251 0.12630 0.65192
 H335 H 0.81258 0.15120 0.62691
 H336 H 0.84953 0.18808 0.62703
 C337 C 0.33354 0.35798 0.65443
 C338 C 0.33337 0.34576 0.64222
 C339 C 0.34538 0.33363 0.64214
 C340 C 0.35769 0.33358 0.65427
 C341 C 0.35785 0.34566 0.66633
 C342 C 0.34571 0.35793 0.66641
 C343 C 0.32308 0.37086 0.65792
 N344 N 0.32869 0.37852 0.67165
 C345 C 0.34246 0.37078 0.67699
 C346 C 0.37076 0.34221 0.67680
 N347 N 0.37833 0.32841 0.67130
 C348 C 0.37050 0.32298 0.65760
 C349 C 0.34182 0.32309 0.62934
 N350 N 0.32802 0.32860 0.62175
 C351 C 0.32270 0.34239 0.62946
 H352 H 0.31206 0.37424 0.65119
 H353 H 0.34938 0.37408 0.68792
 H354 H 0.37423 0.34904 0.68773
 H355 H 0.37373 0.31200 0.65076
 H356 H 0.34855 0.31209 0.62597
 H357 H 0.31175 0.34926 0.62619
 C358 C 0.33317 0.85813 0.15412
 C359 C 0.33306 0.84589 0.14194
 C360 C 0.34510 0.83379 0.14190
 C361 C 0.35739 0.83380 0.15404
 C362 C 0.35750 0.84590 0.16609
 C363 C 0.34532 0.85813 0.16613
 C364 C 0.32269 0.87101 0.15755
 N365 N 0.32827 0.87873 0.17125
 C366 C 0.34204 0.87102 0.17665
 C367 C 0.37042 0.84253 0.17655
 N368 N 0.37805 0.82875 0.17108
 C369 C 0.37025 0.82326 0.15738
 C370 C 0.34161 0.82325 0.12907
 N371 N 0.32783 0.82873 0.12143
 C372 C 0.32244 0.84250 0.12913
 H373 H 0.31169 0.87437 0.15078
 H374 H 0.34895 0.87437 0.18757
 H375 H 0.37387 0.84939 0.18747
 H376 H 0.37354 0.81229 0.15056
 H377 H 0.34841 0.81229 0.12570
 H378 H 0.31150 0.84936 0.12581
 C379 C 0.83359 0.35761 0.15424
 C380 C 0.83352 0.34542 0.14200
 C381 C 0.84557 0.33333 0.14195
 C382 C 0.85783 0.33330 0.15413
 C383 C 0.85789 0.34535 0.16622
 C384 C 0.84570 0.35757 0.16628
 C385 C 0.82310 0.37048 0.15767
 N386 N 0.82863 0.37815 0.17142
 C387 C 0.84239 0.37043 0.17684
 C388 C 0.87079 0.34194 0.17671
 N389 N 0.87845 0.32820 0.17120
 C390 C 0.87069 0.32276 0.15746
 C391 C 0.84213 0.32285 0.12906
 N392 N 0.82837 0.32835 0.12140
 C393 C 0.82295 0.34209 0.12915
 H394 H 0.81213 0.37387 0.15087
 H395 H 0.84927 0.37376 0.18778
 H396 H 0.87420 0.34876 0.18766
 H397 H 0.87400 0.31182 0.15059
 H398 H 0.84894 0.31191 0.12565
 H399 H 0.81201 0.34895 0.12583
 C400 C 0.83357 0.85818 0.65480
 C401 C 0.83354 0.84595 0.64260
 C402 C 0.84558 0.83386 0.64262
 C403 C 0.85780 0.83385 0.65485
 C404 C 0.85783 0.84593 0.66691
 C405 C 0.84564 0.85816 0.66689
 C406 C 0.82307 0.87105 0.65817
 N407 N 0.82855 0.87875 0.67193
 C408 C 0.84229 0.87104 0.67741
 C409 C 0.87066 0.84252 0.67748
 N410 N 0.87831 0.82874 0.67204
 C411 C 0.87061 0.82329 0.65827
 C412 C 0.84217 0.82332 0.62977
 N413 N 0.82844 0.82880 0.62206
 C414 C 0.82300 0.84257 0.62973
 H415 H 0.81213 0.87442 0.65133
 H416 H 0.84913 0.87439 0.68837
 H417 H 0.87402 0.84934 0.68844
 H418 H 0.87393 0.81231 0.65146
 H419 H 0.84898 0.81236 0.62644
 H420 H 0.81207 0.84942 0.62636
 C421 C 0.66644 0.64226 0.65507
 C422 C 0.66648 0.65452 0.64292
 C423 C 0.65443 0.66660 0.64298
 C424 C 0.64219 0.66655 0.65519
 C425 C 0.64215 0.65442 0.66719
 C426 C 0.65435 0.64221 0.66714
 C427 C 0.67695 0.62937 0.65838
 N428 N 0.67145 0.62162 0.67209
 C429 C 0.65770 0.62929 0.67760
 C430 C 0.62928 0.65777 0.67775
 N431 N 0.62162 0.67155 0.67236
 C432 C 0.62934 0.67707 0.65863
 C433 C 0.65785 0.67718 0.63018
 N434 N 0.67161 0.67174 0.62246
 C435 C 0.67704 0.65795 0.63008
 H436 H 0.68790 0.62604 0.65153
 H437 H 0.65084 0.62589 0.68853
 H438 H 0.62591 0.65090 0.68867
 H439 H 0.62602 0.68806 0.65186
 H440 H 0.65103 0.68814 0.62687
 H441 H 0.68798 0.65112 0.62669
 C442 C 0.66683 0.14214 0.15456
 C443 C 0.66679 0.15441 0.14242
 C444 C 0.65469 0.16644 0.14252
 C445 C 0.64249 0.16634 0.15477
 C446 C 0.64254 0.15422 0.16677
 C447 C 0.65478 0.14205 0.16667
 C448 C 0.67739 0.12929 0.15785
 N449 N 0.67196 0.12151 0.17158
 C450 C 0.65820 0.12914 0.17712
 C451 C 0.62968 0.15751 0.17736
 N452 N 0.62195 0.17126 0.17200
 C453 C 0.62961 0.17681 0.15825
 C454 C 0.65803 0.17704 0.12971
 N455 N 0.67178 0.17165 0.12194
 C456 C 0.67729 0.15788 0.12954
 H457 H 0.68834 0.12599 0.15096
 H458 H 0.65139 0.12572 0.18808
 H459 H 0.62637 0.15062 0.18830
 H460 H 0.62622 0.18779 0.15150
 H461 H 0.65116 0.18798 0.12644
 H462 H 0.68824 0.15109 0.12611
 C463 C 0.16584 0.64267 0.15442
 C464 C 0.16584 0.65496 0.14229
 C465 C 0.15381 0.66705 0.14244
 C466 C 0.14163 0.66700 0.15471
 C467 C 0.14163 0.65486 0.16669
 C468 C 0.15381 0.64262 0.16655
 C469 C 0.17634 0.62976 0.15767
 N470 N 0.17090 0.62200 0.17140
 C471 C 0.15719 0.62969 0.17698
 C472 C 0.12882 0.65820 0.17732
 N473 N 0.12115 0.67200 0.17199
 C474 C 0.12881 0.67754 0.15824
 C475 C 0.15719 0.67765 0.12964
 N476 N 0.17090 0.67220 0.12184
 C477 C 0.17634 0.65839 0.12941
 H478 H 0.18726 0.62643 0.15077
 H479 H 0.15038 0.62630 0.18795
 H480 H 0.12549 0.65132 0.18825
 H481 H 0.12547 0.68855 0.15151
 H482 H 0.15037 0.68863 0.12639
 H483 H 0.18725 0.65154 0.12595
 C484 C 0.16572 0.14155 0.65447
 C485 C 0.16582 0.15389 0.64239
 C486 C 0.15380 0.16600 0.64250
 C487 C 0.14154 0.16592 0.65469
 C488 C 0.14144 0.15372 0.66662
 C489 C 0.15360 0.14147 0.66651
 C490 C 0.17621 0.12864 0.65775
 N491 N 0.17067 0.12084 0.67142
 C492 C 0.15692 0.12851 0.67693
 C493 C 0.12859 0.15707 0.67720
 N494 N 0.12100 0.17093 0.67190
 C495 C 0.12875 0.17649 0.65820
 C496 C 0.15732 0.17668 0.62980
 N497 N 0.17109 0.17125 0.62210
 C498 C 0.17644 0.15739 0.62963
 H499 H 0.18719 0.12534 0.65092
 H500 H 0.15005 0.12509 0.68785
 H501 H 0.12520 0.15016 0.68809
 H502 H 0.12550 0.18755 0.65152
 H503 H 0.15057 0.18771 0.62658
 H504 H 0.18739 0.15056 0.62625
 C505 C 0.33365 0.64225 0.34447
 C506 C 0.33370 0.65442 0.35673
 C507 C 0.34578 0.66641 0.35672
 C508 C 0.35796 0.66639 0.34446
 C509 C 0.35791 0.65437 0.33234
 C510 C 0.34568 0.64223 0.33234
 C511 C 0.32310 0.62946 0.34108
 N512 N 0.32852 0.62179 0.32727
 C513 C 0.34226 0.62943 0.32177
 C514 C 0.37074 0.65772 0.32175
 N515 N 0.37847 0.67140 0.32724
 C516 C 0.37082 0.67686 0.34105
 C517 C 0.34245 0.67691 0.36964
 N518 N 0.32871 0.67150 0.37737
 C519 C 0.32321 0.65781 0.36965
 H520 H 0.31216 0.62615 0.34795
 H521 H 0.34906 0.62607 0.31078
 H522 H 0.37404 0.65092 0.31074
 H523 H 0.37420 0.68777 0.34791
 H524 H 0.34931 0.68781 0.37301
 H525 H 0.31225 0.65104 0.37302
 C526 C 0.33350 0.14179 0.84463
 C527 C 0.33356 0.15398 0.85687
 C528 C 0.34567 0.16595 0.85686
 C529 C 0.35787 0.16588 0.84461
 C530 C 0.35781 0.15383 0.83251
 C531 C 0.34556 0.14172 0.83252
 C532 C 0.32294 0.12901 0.84126
 N533 N 0.32836 0.12129 0.82748
 C534 C 0.34212 0.12890 0.82198
 C535 C 0.37066 0.15713 0.82194
 N536 N 0.37841 0.17081 0.82741
 C537 C 0.37075 0.17631 0.84120
 C538 C 0.34233 0.17648 0.86975
 N539 N 0.32858 0.17111 0.87747
 C540 C 0.32306 0.15742 0.86977
 H541 H 0.31200 0.12572 0.84814
 H542 H 0.34894 0.12550 0.81101
 H543 H 0.37397 0.15030 0.81096
 H544 H 0.37414 0.18723 0.84804
 H545 H 0.34921 0.18737 0.87311
 H546 H 0.31210 0.15066 0.87315
 C547 C 0.83402 0.64192 0.84545
 C548 C 0.83405 0.65414 0.85766
 C549 C 0.84613 0.66613 0.85764
 C550 C 0.85835 0.66605 0.84540
 C551 C 0.85832 0.65397 0.83333
 C552 C 0.84609 0.64184 0.83336
 C553 C 0.82346 0.62914 0.84207
 N554 N 0.82891 0.62141 0.82831
 C555 C 0.84268 0.62901 0.82282
 C556 C 0.87116 0.65729 0.82276
 N557 N 0.87887 0.67100 0.82819
 C558 C 0.87120 0.67651 0.84197
 C559 C 0.84276 0.67669 0.87049
 N560 N 0.82900 0.67132 0.87821
 C561 C 0.82352 0.65760 0.87053
 H562 H 0.81250 0.62586 0.84892
 H563 H 0.84950 0.62561 0.81185
 H564 H 0.87448 0.65045 0.81177
 H565 H 0.87455 0.68747 0.84877
 H566 H 0.84961 0.68760 0.87382
 H567 H 0.81255 0.65084 0.87390
 C568 C 0.83459 0.14155 0.34525
 C569 C 0.83459 0.15375 0.35748
 C570 C 0.84662 0.16580 0.35744
 C571 C 0.85879 0.16579 0.34516
 C572 C 0.85878 0.15374 0.33307
 C573 C 0.84661 0.14155 0.33312
 C574 C 0.82408 0.12872 0.34190
 N575 N 0.82951 0.12104 0.32810
 C576 C 0.84322 0.12871 0.32258
 C577 C 0.87158 0.15714 0.32246
 N578 N 0.87923 0.17088 0.32790
 C579 C 0.87158 0.17633 0.34171
 C580 C 0.84323 0.17633 0.37031
 N581 N 0.82951 0.17088 0.37806
 C582 C 0.82408 0.15714 0.37039
 H583 H 0.81315 0.12539 0.34877
 H584 H 0.85001 0.12537 0.31157
 H585 H 0.87490 0.15033 0.31146
 H586 H 0.87490 0.18728 0.34853
 H587 H 0.85003 0.18727 0.37364
 H588 H 0.81315 0.15033 0.37378
 C589 C 0.66700 0.35750 0.34538
 C590 C 0.66704 0.34522 0.35751
 C591 C 0.65497 0.33321 0.35745
 C592 C 0.64272 0.33334 0.34526
 C593 C 0.64269 0.34548 0.33327
 C594 C 0.65489 0.35763 0.33333
 C595 C 0.67751 0.37034 0.34206
 N596 N 0.67200 0.37815 0.32837
 C597 C 0.65823 0.37055 0.32288
 C598 C 0.62979 0.34222 0.32274
 N599 N 0.62211 0.32847 0.32813
 C600 C 0.62985 0.32289 0.34183
 C601 C 0.65838 0.32260 0.37024
 N602 N 0.67215 0.32795 0.37795
 C603 C 0.67760 0.34171 0.37033
 H604 H 0.68848 0.37361 0.34889
 H605 H 0.65136 0.37400 0.31197
 H606 H 0.62640 0.34913 0.31184
 H607 H 0.62652 0.31192 0.34860
 H608 H 0.65155 0.31167 0.37353
 H609 H 0.68856 0.34848 0.37371
 C610 C 0.66639 0.85804 0.84564
 C611 C 0.66643 0.84575 0.85777
 C612 C 0.65436 0.83374 0.85772
 C613 C 0.64210 0.83388 0.84553
 C614 C 0.64207 0.84602 0.83354
 C615 C 0.65428 0.85817 0.83360
 C616 C 0.67691 0.87086 0.84232
 N617 N 0.67141 0.87867 0.82864
 C618 C 0.65763 0.87108 0.82315
 C619 C 0.62917 0.84276 0.82301
 N620 N 0.62149 0.82902 0.82840
 C621 C 0.62923 0.82344 0.84210
 C622 C 0.65777 0.82312 0.87049
 N623 N 0.67155 0.82847 0.87820
 C624 C 0.67700 0.84224 0.87059
 H625 H 0.68789 0.87412 0.84915
 H626 H 0.65077 0.87453 0.81223
 H627 H 0.62578 0.84968 0.81211
 H628 H 0.62590 0.81246 0.84887
 H629 H 0.65095 0.81219 0.87378
 H630 H 0.68796 0.84899 0.87397
 C631 C 0.16625 0.35789 0.84589
 C632 C 0.16620 0.34563 0.85805
 C633 C 0.15409 0.33366 0.85797
 C634 C 0.14190 0.33380 0.84573
 C635 C 0.14195 0.34591 0.83371
 C636 C 0.15420 0.35803 0.83379
 C637 C 0.17685 0.37065 0.84256
 N638 N 0.17145 0.37842 0.82882
 C639 C 0.15767 0.37087 0.82330
 C640 C 0.12912 0.34263 0.82311
 N641 N 0.12139 0.32891 0.82848
 C642 C 0.12904 0.32336 0.84225
 C643 C 0.15746 0.32303 0.87076
 N644 N 0.17123 0.32834 0.87849
 C645 C 0.17673 0.34209 0.87089
 H646 H 0.18783 0.37386 0.84941
 H647 H 0.15089 0.37429 0.81231
 H648 H 0.12581 0.34952 0.81216
 H649 H 0.12566 0.31240 0.84902
 H650 H 0.15060 0.31211 0.87403
 H651 H 0.18772 0.34881 0.87427
 C652 C 0.16677 0.85859 0.34547
 C653 C 0.16687 0.84635 0.35765
 C654 C 0.15479 0.83434 0.35769
 C655 C 0.14249 0.83443 0.34556
 C656 C 0.14240 0.84652 0.33353
 C657 C 0.15461 0.85867 0.33348
 C658 C 0.17727 0.87141 0.34206
 N659 N 0.17170 0.87917 0.32837
 C660 C 0.15791 0.87155 0.32297
 C661 C 0.12946 0.84322 0.32307
 N662 N 0.12181 0.82950 0.32855
 C663 C 0.12961 0.82397 0.34223
 C664 C 0.15826 0.82377 0.37050
 N665 N 0.17206 0.82915 0.37813
 C666 C 0.17748 0.84289 0.37044
 H667 H 0.18827 0.87471 0.34884
 H668 H 0.15098 0.87497 0.31208
 H669 H 0.12602 0.85009 0.31216
 H670 H 0.12631 0.81302 0.34906
 H671 H 0.15144 0.81286 0.37387
 H672 H 0.18846 0.84966 0.37375
 O673 O 0.27107 0.98464 0.24832
 O674 O 0.24831 1.01677 0.27089
 O675 O 0.24830 0.98473 0.27091
 O676 O 0.27110 1.01667 0.24830
 O677 O 0.25196 1.01670 0.22890
 O678 O 0.22915 0.98475 0.25151
 O679 O 0.22917 1.01679 0.25148
 O680 O 0.25193 0.98467 0.22892
 Cu681 Cu 0.26163 1.00070 0.26157
 Cu682 Cu 0.23862 1.00073 0.23825
 C683 C 0.26531 0.97920 0.23484
 C684 C 0.23492 1.02223 0.26497
 C685 C 0.23490 0.97932 0.26501
 C686 C 0.26536 1.02210 0.23480
 O687 O 0.27113 0.48409 0.74900
 O688 O 0.24823 0.51609 0.77158
 O689 O 0.24838 0.48405 0.77161
 O690 O 0.27096 0.51612 0.74896
 O691 O 0.25179 0.51603 0.72959
 O692 O 0.22921 0.48396 0.75224
 O693 O 0.22905 0.51601 0.75222
 O694 O 0.25195 0.48400 0.72963
 Cu695 Cu 0.26161 0.50009 0.76225
 Cu696 Cu 0.23856 0.49999 0.73897
 C697 C 0.26538 0.47861 0.73552
 C698 C 0.23480 0.52149 0.76569
 C699 C 0.23501 0.47855 0.76572
 C700 C 0.26517 0.52151 0.73547
 O701 O 0.72944 0.01579 0.24829
 O702 O 0.75195 -0.01622 0.27120
 O703 O 0.75213 0.01581 0.27097
 O704 O 0.72931 -0.01625 0.24850
 O705 O 0.74856 -0.01651 0.22919
 O706 O 0.77136 0.01553 0.25165
 O707 O 0.77119 -0.01650 0.25189
 O708 O 0.74868 0.01553 0.22897
 Cu709 Cu 0.73876 -0.00018 0.26169
 Cu710 Cu 0.76189 -0.00051 0.23848
 C711 C 0.73527 0.02109 0.23479
 C712 C 0.76534 -0.02180 0.26539
 C713 C 0.76558 0.02110 0.26508
 C714 C 0.73512 -0.02183 0.23508
 O715 O 0.75224 0.48380 0.77104
 O716 O 0.72932 0.51571 0.74839
 O717 O 0.72950 0.48366 0.74845
 O718 O 0.75207 0.51582 0.77101
 O719 O 0.77123 0.51586 0.75162
 O720 O 0.74867 0.48370 0.72906
 O721 O 0.74849 0.51575 0.72901
 O722 O 0.77141 0.48383 0.75165
 Cu723 Cu 0.73884 0.49975 0.76167
 Cu724 Cu 0.76188 0.49979 0.73837
 C725 C 0.76568 0.47840 0.76515
 C726 C 0.73506 0.52115 0.73490
 C727 C 0.73531 0.47821 0.73497
 C728 C 0.76544 0.52129 0.76510
 O729 O 0.24774 0.48394 0.22859
 O730 O 0.27054 0.51605 0.25096
 O731 O 0.27048 0.48401 0.25119
 O732 O 0.24775 0.51598 0.22840
 O733 O 0.22860 0.51617 0.24780
 O734 O 0.25132 0.48422 0.27059
 O735 O 0.25138 0.51626 0.27037
 O736 O 0.22857 0.48413 0.24798
 Cu737 Cu 0.26106 0.49998 0.23783
 Cu738 Cu 0.23804 0.50021 0.26114
 C739 C 0.23433 0.47859 0.23452
 C740 C 0.26479 0.52161 0.26442
 C741 C 0.26471 0.47869 0.26472
 C742 C 0.23437 0.52150 0.23428
 O743 O 0.74808 1.01641 0.77165
 O744 O 0.77092 0.98439 0.74901
 O745 O 0.77088 1.01642 0.74908
 O746 O 0.74814 0.98438 0.77160
 O747 O 0.72900 0.98442 0.75219
 O748 O 0.75175 1.01647 0.72967
 O749 O 0.75178 0.98444 0.72960
 O750 O 0.72895 1.01645 0.75224
 Cu751 Cu 0.76143 1.00040 0.76229
 Cu752 Cu 0.73844 1.00045 0.73897
 C753 C 0.73468 1.02186 0.76574
 C754 C 0.76518 0.97898 0.73550
 C755 C 0.76513 1.02188 0.73560
 C756 C 0.73475 0.97897 0.76568
 O757 O 0.75213 0.51601 0.22936
 O758 O 0.72946 0.48395 0.25193
 O759 O 0.72942 0.51598 0.25202
 O760 O 0.75215 0.48398 0.22926
 O761 O 0.77136 0.48391 0.24859
 O762 O 0.74863 0.51592 0.27136
 O763 O 0.74866 0.48389 0.27126
 O764 O 0.77134 0.51595 0.24870
 Cu765 Cu 0.73885 0.49999 0.23869
 Cu766 Cu 0.76194 0.49991 0.26193
 C767 C 0.76554 0.52142 0.23524
 C768 C 0.73525 0.47848 0.26539
 C769 C 0.73520 0.52138 0.26550
 C770 C 0.76557 0.47851 0.23511
 O771 O 0.27060 0.01543 0.75126
 O772 O 0.24798 -0.01681 0.72887
 O773 O 0.24781 0.01523 0.72869
 O774 O 0.27075 -0.01661 0.75145
 O775 O 0.25160 -0.01653 0.77085
 O776 O 0.22867 0.01530 0.74810
 O777 O 0.22883 -0.01675 0.74828
 O778 O 0.25145 0.01550 0.77067
 Cu779 Cu 0.26121 -0.00070 0.73811
 Cu780 Cu 0.23820 -0.00061 0.76143
 C781 C 0.26483 0.02093 0.76473
 C782 C 0.23462 -0.02226 0.73483
 C783 C 0.23439 0.02066 0.73457
 C784 C 0.26502 -0.02198 0.76497
 O785 O 0.24849 0.27033 0.98380
 O786 O 0.27131 0.24778 1.01592
 O787 O 0.27125 0.24777 0.98374
 O788 O 0.24857 0.27035 1.01597
 O789 O 0.22940 0.25109 1.01601
 O790 O 0.25208 0.22851 0.98379
 O791 O 0.25213 0.22852 1.01596
 O792 O 0.22933 0.25107 0.98384
 Cu793 Cu 0.26184 0.26100 0.99985
 Cu794 Cu 0.23880 0.23785 0.99990
 C795 C 0.23508 0.26448 0.97837
 C796 C 0.26554 0.23436 1.02140
 C797 C 0.26547 0.23435 0.97830
 C798 C 0.23518 0.26451 1.02146
 O799 O 0.24898 0.77096 0.48370
 O800 O 0.27146 0.74814 0.51586
 O801 O 0.27154 0.74819 0.48368
 O802 O 0.24888 0.77086 0.51587
 O803 O 0.22956 0.75174 0.51576
 O804 O 0.25222 0.72908 0.48358
 O805 O 0.25215 0.72902 0.51575
 O806 O 0.22967 0.75184 0.48359
 Cu807 Cu 0.26217 0.76146 0.49979
 Cu808 Cu 0.23895 0.73849 0.49966
 C809 C 0.23554 0.76523 0.47819
 C810 C 0.26557 0.73476 0.52127
 C811 C 0.26568 0.73484 0.47817
 C812 C 0.23541 0.76510 0.52127
 O813 O 0.27015 0.75192 -0.01648
 O814 O 0.24745 0.72947 0.01574
 O815 O 0.24752 0.72934 -0.01644
 O816 O 0.27011 0.75202 0.01569
 O817 O 0.25085 0.77128 0.01561
 O818 O 0.22826 0.74859 -0.01653
 O819 O 0.22820 0.74872 0.01565
 O820 O 0.25090 0.77117 -0.01656
 Cu821 Cu 0.26075 0.73874 -0.00036
 Cu822 Cu 0.23761 0.76188 -0.00047
 C823 C 0.26434 0.76531 -0.02199
 C824 C 0.23402 0.73533 0.02116
 C825 C 0.23410 0.73515 -0.02193
 C826 C 0.26427 0.76545 0.02111
 O827 O 0.22846 0.24799 0.48401
 O828 O 0.25095 0.27079 0.51614
 O829 O 0.25098 0.27069 0.48396
 O830 O 0.22846 0.24808 0.51620
 O831 O 0.24783 0.22894 0.51624
 O832 O 0.27035 0.25156 0.48401
 O833 O 0.27032 0.25165 0.51619
 O834 O 0.24783 0.22885 0.48405
 Cu835 Cu 0.23776 0.26132 0.50007
 Cu836 Cu 0.26103 0.23832 0.50013
 C837 C 0.23437 0.23460 0.47858
 C838 C 0.26441 0.26504 0.52162
 C839 C 0.26445 0.26492 0.47852
 C840 C 0.23438 0.23473 0.52170
 O841 O 0.74829 0.77067 0.98401
 O842 O 0.77096 0.74814 1.01624
 O843 O 0.77106 0.74813 0.98407
 O844 O 0.74817 0.77067 1.01618
 O845 O 0.72903 0.75138 1.01610
 O846 O 0.75192 0.72885 0.98400
 O847 O 0.75182 0.72885 1.01617
 O848 O 0.72916 0.75138 0.98394
 Cu849 Cu 0.76155 0.76135 1.00013
 Cu850 Cu 0.73855 0.73817 1.00005
 C851 C 0.73492 0.76481 0.97850
 C852 C 0.76520 0.73471 1.02168
 C853 C 0.76534 0.73471 0.97859
 C854 C 0.73475 0.76480 1.02159
 O855 O 0.74904 0.27036 0.48379
 O856 O 0.77165 0.24789 0.51611
 O857 O 0.77176 0.24776 0.48393
 O858 O 0.74890 0.27045 0.51596
 O859 O 0.72973 0.25120 0.51594
 O860 O 0.75259 0.22851 0.48392
 O861 O 0.75248 0.22864 0.51610
 O862 O 0.72986 0.25110 0.48378
 Cu863 Cu 0.76228 0.26106 0.49995
 Cu864 Cu 0.73923 0.23792 0.49993
 C865 C 0.73565 0.26450 0.47831
 C866 C 0.76586 0.23450 0.52160
 C867 C 0.76601 0.23433 0.47849
 C868 C 0.73548 0.26463 0.52138
 O869 O 0.77025 0.25192 -0.01664
 O870 O 0.74783 0.22937 0.01570
 O871 O 0.74763 0.22933 -0.01647
 O872 O 0.77045 0.25197 0.01553
 O873 O 0.75117 0.27121 0.01564
 O874 O 0.72835 0.24856 -0.01637
 O875 O 0.72855 0.24860 0.01581
 O876 O 0.75097 0.27115 -0.01654
 Cu877 Cu 0.76098 0.23871 -0.00048
 Cu878 Cu 0.73781 0.26182 -0.00035
 C879 C 0.76437 0.26532 -0.02208
 C880 C 0.73443 0.23520 0.02123
 C881 C 0.73416 0.23515 -0.02185
 C882 C 0.76464 0.26539 0.02101
 O883 O 0.74831 0.72919 0.51647
 O884 O 0.77080 0.75173 0.48418
 O885 O 0.77090 0.75183 0.51635
 O886 O 0.74818 0.72915 0.48430
 O887 O 0.72889 0.74837 0.48435
 O888 O 0.75160 0.77104 0.51639
 O889 O 0.75151 0.77095 0.48422
 O890 O 0.72902 0.74841 0.51652
 Cu891 Cu 0.76149 0.73853 0.50033
 Cu892 Cu 0.73831 0.76163 0.50038
 C893 C 0.73488 0.73501 0.52197
 C894 C 0.76492 0.76511 0.47871
 C895 C 0.76506 0.76525 0.52181
 C896 C 0.73472 0.73495 0.47888
 O897 O 1.01676 0.22892 0.25096
 O898 O 0.98457 0.25160 0.22841
 O899 O 1.01666 0.25170 0.22843
 O900 O 0.98466 0.22884 0.25095
 O901 O 0.98455 0.24792 0.27040
 O902 O 1.01655 0.27078 0.24787
 O903 O 0.98445 0.27069 0.24785
 O904 O 1.01665 0.24800 0.27040
 Cu905 Cu 1.00067 0.23834 0.23773
 Cu906 Cu 1.00054 0.26127 0.26110
 C907 C 1.02217 0.23466 0.26446
 C908 C 0.97905 0.26495 0.23434
 C909 C 1.02203 0.26508 0.23437
 C910 C 0.97917 0.23455 0.26445
 O911 O 0.51639 0.22872 0.75099
 O912 O 0.48424 0.25145 0.72844
 O913 O 0.51633 0.25161 0.72858
 O914 O 0.48429 0.22861 0.75090
 O915 O 0.48410 0.24761 0.77043
 O916 O 0.51613 0.27060 0.74811
 O917 O 0.48404 0.27045 0.74797
 O918 O 0.51620 0.24771 0.77052
 Cu919 Cu 0.50033 0.23818 0.73776
 Cu920 Cu 0.50010 0.26101 0.76123
 C921 C 0.52175 0.23440 0.76454
 C922 C 0.47869 0.26477 0.73442
 C923 C 0.52167 0.26497 0.73460
 C924 C 0.47875 0.23425 0.76441
 O925 O 0.01554 0.24818 0.72950
 O926 O -0.01652 0.27117 0.75197
 O927 O 0.01557 0.27115 0.75186
 O928 O -0.01655 0.24823 0.72957
 O929 O -0.01648 0.22930 0.74915
 O930 O 0.01564 0.25222 0.77143
 O931 O -0.01645 0.25224 0.77154
 O932 O 0.01561 0.22926 0.74908
 Cu933 Cu -0.00050 0.26159 0.73875
 Cu934 Cu -0.00041 0.23885 0.76228
 C935 C 0.02102 0.23486 0.73552
 C936 C -0.02192 0.26556 0.76553
 C937 C 0.02106 0.26553 0.76538
 C938 C -0.02196 0.23491 0.73562
 O939 O 0.51608 0.25204 0.27128
 O940 O 0.48402 0.22914 0.24889
 O941 O 0.51611 0.22913 0.24888
 O942 O 0.48399 0.25203 0.27133
 O943 O 0.48393 0.27100 0.25179
 O944 O 0.51606 0.24809 0.22933
 O945 O 0.48396 0.24811 0.22935
 O946 O 0.51602 0.27101 0.25174
 Cu947 Cu 0.50005 0.23867 0.26206
 Cu948 Cu 0.49999 0.26147 0.23858
 C949 C 0.52150 0.26537 0.26526
 C950 C 0.47855 0.23478 0.23536
 C951 C 0.52154 0.23477 0.23534
 C952 C 0.47852 0.26536 0.26533
 O953 O 0.98444 0.74772 0.77081
 O954 O 1.01639 0.77064 0.74829
 O955 O 0.98430 0.77062 0.74842
 O956 O 1.01653 0.74771 0.77067
 O957 O 1.01650 0.72876 0.75110
 O958 O 0.98426 0.75167 0.72885
 O959 O 1.01636 0.75168 0.72872
 O960 O 0.98440 0.72877 0.75123
 Cu961 Cu 1.00042 0.76109 0.76152
 Cu962 Cu 1.00038 0.73831 0.73800
 C963 C 0.97899 0.73440 0.76479
 C964 C 1.02180 0.76501 0.73472
 C965 C 0.97880 0.76498 0.73490
 C966 C 1.02198 0.73439 0.76462
 O967 O 0.51636 0.72951 0.25088
 O968 O 0.48421 0.75221 0.22830
 O969 O 0.51630 0.75237 0.22844
 O970 O 0.48427 0.72938 0.25077
 O971 O 0.48406 0.74839 0.27029
 O972 O 0.51609 0.77138 0.24795
 O973 O 0.48400 0.77122 0.24782
 O974 O 0.51616 0.74852 0.27040
 Cu975 Cu 0.50031 0.73895 0.23763
 Cu976 Cu 0.50006 0.76180 0.26108
 C977 C 0.52172 0.73520 0.26443
 C978 C 0.47865 0.76553 0.23427
 C979 C 0.52163 0.76574 0.23445
 C980 C 0.47872 0.73503 0.26427
 O981 O -0.01639 0.77192 0.25239
 O982 O 0.01571 0.74903 0.22988
 O983 O -0.01639 0.74905 0.22993
 O984 O 0.01570 0.77189 0.25235
 O985 O 0.01574 0.75289 0.27186
 O986 O -0.01635 0.73006 0.24944
 O987 O 0.01575 0.73003 0.24939
 O988 O -0.01635 0.75293 0.27190
 Cu989 Cu -0.00035 0.76239 0.23917
 Cu990 Cu -0.00030 0.73956 0.26261
 C991 C -0.02181 0.76627 0.26593
 C992 C 0.02118 0.73569 0.23586
 C993 C -0.02182 0.73572 0.23593
 C994 C 0.02117 0.76622 0.26587
 O995 O 0.48347 0.77142 0.75182
 O996 O 0.51567 0.74856 0.72942
 O997 O 0.48358 0.74852 0.72939
 O998 O 0.51556 0.77148 0.75182
 O999 O 0.51561 0.75252 0.77137
 O1000 O 0.48363 0.72956 0.74893
 O1001 O 0.51572 0.72960 0.74897
 O1002 O 0.48352 0.75246 0.77136
 Cu1003 Cu 0.49956 0.76191 0.73864
 Cu1004 Cu 0.49962 0.73912 0.76213
 C1005 C 0.47804 0.76578 0.76536
 C1006 C 0.52116 0.73525 0.73544
 C1007 C 0.47818 0.73518 0.73539
 C1008 C 0.52102 0.76585 0.76536
 C1009 C 0.39120 0.32095 0.32064
 C1010 C 0.40264 0.31427 0.31393
 C1011 C 0.41618 0.30617 0.30581
 C1012 C 0.42358 0.29239 0.31306
 C1013 C 0.43650 0.28430 0.30499
 C1014 C 0.44205 0.28997 0.28964
 C1015 C 0.43470 0.30381 0.28244
 C1016 C 0.42179 0.31190 0.29051
 C1017 C 0.45505 0.28141 0.28115
 C1018 C 0.46583 0.27414 0.27396
 H1019 H 0.41932 0.28785 0.32487
 H1020 H 0.44207 0.27360 0.31065
 H1021 H 0.43888 0.30828 0.27057
 H1022 H 0.41613 0.32253 0.28479
 C1023 C 0.39070 0.82148 0.82056
 C1024 C 0.40214 0.81478 0.81385
 C1025 C 0.41567 0.80667 0.80574
 C1026 C 0.42120 0.81228 0.79036
 C1027 C 0.43410 0.80416 0.78231
 C1028 C 0.44154 0.79042 0.78960
 C1029 C 0.43608 0.78487 0.80502
 C1030 C 0.42317 0.79298 0.81308
 C1031 C 0.45455 0.78184 0.78113
 C1032 C 0.46534 0.77456 0.77397
 H1033 H 0.41547 0.82283 0.78457
 H1034 H 0.43821 0.80854 0.77037
 H1035 H 0.44172 0.77424 0.81076
 H1036 H 0.41898 0.78853 0.82495
 C1037 C -0.10894 0.32159 0.82089
 C1038 C -0.09753 0.31485 0.81417
 C1039 C -0.08404 0.30668 0.80605
 C1040 C -0.07690 0.29269 0.81315
 C1041 C -0.06404 0.28453 0.80507
 C1042 C -0.05827 0.29033 0.78986
 C1043 C -0.06535 0.30439 0.78281
 C1044 C -0.07821 0.31255 0.79089
 C1045 C -0.04532 0.28171 0.78136
 C1046 C -0.03457 0.27439 0.77417
 H1047 H -0.08133 0.28803 0.82486
 H1048 H -0.05868 0.27366 0.81062
 H1049 H -0.06101 0.30897 0.77104
 H1050 H -0.08366 0.32334 0.78527
 C1051 C -0.10900 0.82199 0.32133
 C1052 C -0.09759 0.81531 0.31456
 C1053 C -0.08409 0.80723 0.30637
 C1054 C -0.08062 0.81078 0.28982
 C1055 C -0.06773 0.80267 0.28173
 C1056 C -0.05826 0.79097 0.29017
 C1057 C -0.06168 0.78748 0.30676
 C1058 C -0.07456 0.79559 0.31484
 C1059 C -0.04526 0.78236 0.28173
 C1060 C -0.03448 0.77506 0.27456
 H1061 H -0.08792 0.81973 0.28314
 H1062 H -0.06522 0.80544 0.26890
 H1063 H -0.05445 0.77844 0.31339
 H1064 H -0.07716 0.79274 0.32764
 C1065 C 0.60859 0.67948 0.32024
 C1066 C 0.59735 0.68627 0.31330
 C1067 C 0.58408 0.69448 0.30490
 C1068 C 0.56846 0.69547 0.31220
 C1069 C 0.55564 0.70360 0.30404
 C1070 C 0.55838 0.71076 0.28856
 C1071 C 0.57398 0.70973 0.28125
 C1072 C 0.58680 0.70161 0.28940
 C1073 C 0.54528 0.71928 0.28019
 C1074 C 0.53444 0.72651 0.27306
 H1075 H 0.56623 0.69001 0.32418
 H1076 H 0.54362 0.70433 0.30981
 H1077 H 0.57624 0.71523 0.26929
 H1078 H 0.59882 0.70092 0.28365
 C1079 C 0.60873 0.17866 0.82020
 C1080 C 0.59746 0.18543 0.81329
 C1081 C 0.58415 0.19362 0.80491
 C1082 C 0.56920 0.19647 0.81307
 C1083 C 0.55636 0.20461 0.80495
 C1084 C 0.55842 0.20992 0.78863
 C1085 C 0.57335 0.20701 0.78046
 C1086 C 0.58618 0.19888 0.78858
 C1087 C 0.54532 0.21846 0.78028
 C1088 C 0.53448 0.22569 0.77316
 H1089 H 0.56750 0.19245 0.82570
 H1090 H 0.54487 0.20679 0.81139
 H1091 H 0.57508 0.21107 0.76784
 H1092 H 0.59768 0.19674 0.78214
 C1093 C 1.10898 0.67844 0.82002
 C1094 C 1.09770 0.68521 0.81313
 C1095 C 1.08438 0.69340 0.80478
 C1096 C 1.08601 0.69776 0.78814
 C1097 C 1.07317 0.70591 0.78004
 C1098 C 1.05865 0.70974 0.78855
 C1099 C 1.05698 0.70534 0.80518
 C1100 C 1.06983 0.69719 0.81329
 C1101 C 1.04556 0.71833 0.78022
 C1102 C 1.03472 0.72561 0.77315
 H1103 H 1.09721 0.69491 0.78146
 H1104 H 1.07460 0.70927 0.76718
 H1105 H 1.04581 0.70825 0.81189
 H1106 H 1.06844 0.69389 0.82616
 C1107 C 1.10922 0.17902 0.32011
 C1108 C 1.09795 0.18583 0.31323
 C1109 C 1.08467 0.19408 0.30487
 C1110 C 1.08777 0.20273 0.29025
 C1111 C 1.07493 0.21084 0.28213
 C1112 C 1.05893 0.21035 0.28857
 C1113 C 1.05582 0.20168 0.30318
 C1114 C 1.06867 0.19356 0.31132
 C1115 C 1.04579 0.21881 0.28021
 C1116 C 1.03492 0.22599 0.27308
 H1117 H 1.10009 0.20322 0.28516
 H1118 H 1.07747 0.21752 0.27084
 H1119 H 1.04350 0.20122 0.30828
 H1120 H 1.06615 0.18691 0.32261
 C1121 C 0.60859 0.32090 0.67940
 C1122 C 0.59724 0.31420 0.68620
 C1123 C 0.58382 0.30609 0.69443
 C1124 C 0.57236 0.29700 0.68532
 C1125 C 0.55951 0.28886 0.69338
 C1126 C 0.55808 0.28978 0.71059
 C1127 C 0.56950 0.29895 0.71969
 C1128 C 0.58234 0.30709 0.71163
 C1129 C 0.54509 0.28113 0.71895
 C1130 C 0.53433 0.27379 0.72604
 H1131 H 0.57340 0.29613 0.67201
 H1132 H 0.55076 0.28179 0.68622
 H1133 H 0.56852 0.29973 0.73301
 H1134 H 0.59115 0.31407 0.71881
 C1135 C 0.60858 0.82162 0.17924
 C1136 C 0.59719 0.81496 0.18603
 C1137 C 0.58373 0.80688 0.19422
 C1138 C 0.57319 0.79654 0.18532
 C1139 C 0.56035 0.78841 0.19338
 C1140 C 0.55799 0.79057 0.21038
 C1141 C 0.56847 0.80099 0.21926
 C1142 C 0.58131 0.80912 0.21120
 C1143 C 0.54502 0.78191 0.21876
 C1144 C 0.53427 0.77457 0.22588
 H1145 H 0.57497 0.79470 0.17220
 H1146 H 0.55233 0.78036 0.18640
 H1147 H 0.56678 0.80273 0.23241
 H1148 H 0.58940 0.81707 0.21821
 C1149 C 1.10894 0.32089 0.17903
 C1150 C 1.09756 0.31416 0.18577
 C1151 C 1.08410 0.30603 0.19389
 C1152 C 1.07663 0.29236 0.18654
 C1153 C 1.06379 0.28423 0.19461
 C1154 C 1.05836 0.28974 0.21007
 C1155 C 1.06577 0.30346 0.21739
 C1156 C 1.07861 0.31159 0.20932
 C1157 C 1.04541 0.28114 0.21855
 C1158 C 1.03467 0.27386 0.22573
 H1159 H 1.08080 0.28793 0.17463
 H1160 H 1.05817 0.27361 0.18885
 H1161 H 1.06169 0.30781 0.22935
 H1162 H 1.08432 0.32213 0.21513
 C1163 C 1.10860 0.82092 0.67933
 C1164 C 1.09724 0.81417 0.68607
 C1165 C 1.08380 0.80601 0.69419
 C1166 C 1.07763 0.81216 0.70912
 C1167 C 1.06480 0.80402 0.71720
 C1168 C 1.05809 0.78969 0.71039
 C1169 C 1.06420 0.78359 0.69541
 C1170 C 1.07703 0.79173 0.68733
 C1171 C 1.04515 0.78110 0.71889
 C1172 C 1.03442 0.77380 0.72608
 H1173 H 1.08279 0.82317 0.71455
 H1174 H 1.06019 0.80882 0.72879
 H1175 H 1.05913 0.77250 0.69005
 H1176 H 1.08173 0.78685 0.67581
 C1177 C 0.39148 0.67910 0.67997
 C1178 C 0.40279 0.68585 0.68681
 C1179 C 0.41614 0.69401 0.69510
 C1180 C 0.41641 0.69478 0.71237
 C1181 C 0.42921 0.70295 0.72046
 C1182 C 0.44179 0.71039 0.71132
 C1183 C 0.44157 0.70956 0.69404
 C1184 C 0.42876 0.70139 0.68595
 C1185 C 0.45478 0.71905 0.71968
 C1186 C 0.46554 0.72637 0.72679
 H1187 H 0.40670 0.68914 0.71957
 H1188 H 0.42925 0.70354 0.73382
 H1189 H 0.45123 0.71529 0.68685
 H1190 H 0.42866 0.70088 0.67259
 C1191 C 0.39175 0.17876 0.18002
 C1192 C 0.40307 0.18550 0.18685
 C1193 C 0.41643 0.19366 0.19513
 C1194 C 0.42918 0.20081 0.18598
 C1195 C 0.44199 0.20898 0.19407
 C1196 C 0.44211 0.21003 0.21133
 C1197 C 0.42939 0.20281 0.22047
 C1198 C 0.41658 0.19464 0.21239
 C1199 C 0.45511 0.21867 0.21968
 C1200 C 0.46588 0.22599 0.22678
 H1201 H 0.42917 0.20014 0.17263
 H1202 H 0.45175 0.21454 0.18687
 H1203 H 0.42934 0.20357 0.23382
 H1204 H 0.40678 0.18918 0.21959
 C1205 C -0.10859 0.67974 0.18049
 C1206 C -0.09732 0.68653 0.18734
 C1207 C -0.08400 0.69471 0.19565
 C1208 C -0.07083 0.70119 0.18657
 C1209 C -0.05802 0.70935 0.19467
 C1210 C -0.05833 0.71107 0.21188
 C1211 C -0.07146 0.70454 0.22095
 C1212 C -0.08426 0.69639 0.21286
 C1213 C -0.04530 0.71968 0.22024
 C1214 C -0.03451 0.72696 0.22734
 H1215 H -0.07051 0.69998 0.17326
 H1216 H -0.04793 0.71436 0.18754
 H1217 H -0.07183 0.70582 0.23426
 H1218 H -0.09439 0.69145 0.22000
 C1219 C -0.10880 0.17902 0.68023
 C1220 C -0.09749 0.18575 0.68708
 C1221 C -0.08413 0.19388 0.69538
 C1222 C -0.08412 0.19506 0.71263
 C1223 C -0.07130 0.20320 0.72073
 C1224 C -0.05844 0.21018 0.71161
 C1225 C -0.05841 0.20894 0.69436
 C1226 C -0.07124 0.20081 0.68626
 C1227 C -0.04543 0.21881 0.71997
 C1228 C -0.03464 0.22612 0.72706
 H1229 H -0.09404 0.18977 0.71980
 H1230 H -0.07146 0.20411 0.73407
 H1231 H -0.04854 0.21432 0.68719
 H1232 H -0.07114 0.19998 0.67292
 C1233 C 0.32006 0.39172 0.32060
 C1234 C 0.31334 0.40311 0.31386
 C1235 C 0.30520 0.41658 0.30572
 C1236 C 0.31318 0.42511 0.29302
 C1237 C 0.30513 0.43797 0.28487
 C1238 C 0.28905 0.44234 0.28939
 C1239 C 0.28110 0.43387 0.30215
 C1240 C 0.28916 0.42101 0.31029
 C1241 C 0.28060 0.45531 0.28076
 C1242 C 0.27341 0.46606 0.27347
 H1243 H 0.32558 0.42176 0.28936
 H1244 H 0.31137 0.44442 0.27500
 H1245 H 0.26867 0.43713 0.30572
 H1246 H 0.28286 0.41448 0.32008
 C1247 C 0.32072 -0.10886 0.82064
 C1248 C 0.31397 -0.09747 0.81392
 C1249 C 0.30579 -0.08400 0.80582
 C1250 C 0.31365 -0.07557 0.79297
 C1251 C 0.30554 -0.06272 0.78486
 C1252 C 0.28955 -0.05824 0.78957
 C1253 C 0.28173 -0.06662 0.80248
 C1254 C 0.28984 -0.07946 0.81059
 C1255 C 0.28103 -0.04530 0.78097
 C1256 C 0.27379 -0.03458 0.77370
 H1257 H 0.32598 -0.07899 0.78917
 H1258 H 0.31168 -0.05636 0.77487
 H1259 H 0.26934 -0.06329 0.80619
 H1260 H 0.28364 -0.08592 0.82049
 C1261 C 0.82134 0.39150 0.82079
 C1262 C 0.81465 0.40289 0.81404
 C1263 C 0.80655 0.41638 0.80589
 C1264 C 0.81270 0.42240 0.79091
 C1265 C 0.80459 0.43524 0.78280
 C1266 C 0.79030 0.44212 0.78963
 C1267 C 0.78420 0.43616 0.80465
 C1268 C 0.79231 0.42331 0.81277
 C1269 C 0.78173 0.45506 0.78108
 C1270 C 0.77446 0.46578 0.77384
 H1271 H 0.82368 0.41710 0.78547
 H1272 H 0.80939 0.43974 0.77118
 H1273 H 0.77314 0.44136 0.81003
 H1274 H 0.78744 0.41873 0.82433
 C1275 C 0.82077 -0.10862 0.32145
 C1276 C 0.81392 -0.09732 0.31469
 C1277 C 0.80561 -0.08396 0.30653
 C1278 C 0.81468 -0.07094 0.29983
 C1279 C 0.80659 -0.05811 0.29165
 C1280 C 0.78940 -0.05827 0.29015
 C1281 C 0.78034 -0.07126 0.29691
 C1282 C 0.78843 -0.08407 0.30508
 C1283 C 0.78106 -0.04525 0.28150
 C1284 C 0.77395 -0.03447 0.27418
 H1285 H 0.82797 -0.07074 0.30086
 H1286 H 0.81372 -0.04814 0.28645
 H1287 H 0.76705 -0.07151 0.29580
 H1288 H 0.78130 -0.09409 0.31020
 C1289 C 0.32065 0.60834 0.67984
 C1290 C 0.31391 0.59700 0.68659
 C1291 C 0.30579 0.58356 0.69476
 C1292 C 0.31178 0.57771 0.70987
 C1293 C 0.30369 0.56489 0.71799
 C1294 C 0.28958 0.55786 0.71102
 C1295 C 0.28364 0.56365 0.69586
 C1296 C 0.29173 0.57648 0.68774
 C1297 C 0.28105 0.54491 0.71954
 C1298 C 0.27384 0.53417 0.72677
 H1299 H 0.32263 0.58312 0.71542
 H1300 H 0.30837 0.56053 0.72971
 H1301 H 0.27272 0.55832 0.69037
 H1302 H 0.28698 0.58092 0.67608
 C1303 C 0.32130 1.10873 0.17930
 C1304 C 0.31453 1.09738 0.18602
 C1305 C 0.30636 1.08396 0.19416
 C1306 C 0.31205 1.07837 0.20949
 C1307 C 0.30390 1.06557 0.21759
 C1308 C 0.29002 1.05831 0.21039
 C1309 C 0.28438 1.06384 0.19501
 C1310 C 0.29254 1.07664 0.18692
 C1311 C 0.28141 1.04541 0.21890
 C1312 C 0.27412 1.03471 0.22612
 H1313 H 0.32272 1.08396 0.21522
 H1314 H 0.30835 1.06141 0.22948
 H1315 H 0.27365 1.05833 0.18935
 H1316 H 0.28802 1.08088 0.17508
 C1317 C 0.82098 0.60853 0.18002
 C1318 C 0.81428 0.59713 0.18670
 C1319 C 0.80618 0.58363 0.19478
 C1320 C 0.81243 0.57741 0.20964
 C1321 C 0.80435 0.56454 0.21769
 C1322 C 0.78998 0.55784 0.21091
 C1323 C 0.78378 0.56401 0.19601
 C1324 C 0.79186 0.57688 0.18796
 C1325 C 0.78146 0.54485 0.21939
 C1326 C 0.77423 0.53409 0.22658
 H1327 H 0.82348 0.58256 0.21504
 H1328 H 0.80923 0.55988 0.22922
 H1329 H 0.77266 0.55894 0.19068
 H1330 H 0.78690 0.58162 0.17650
 C1331 C 0.82105 1.10869 0.68036
 C1332 C 0.81428 1.09735 0.68709
 C1333 C 0.80610 1.08393 0.69521
 C1334 C 0.81133 1.07879 0.71086
 C1335 C 0.80317 1.06597 0.71891
 C1336 C 0.78975 1.05823 0.71135
 C1337 C 0.78458 1.06331 0.69566
 C1338 C 0.79273 1.07614 0.68761
 C1339 C 0.78115 1.04528 0.71979
 C1340 C 0.77387 1.03454 0.72696
 H1341 H 0.82164 1.08474 0.71686
 H1342 H 0.80726 1.06215 0.73105
 H1343 H 0.77420 1.05743 0.68971
 H1344 H 0.78857 1.08003 0.67552
 C1345 C 0.67925 0.60828 0.32097
 C1346 C 0.68601 0.59690 0.31425
 C1347 C 0.69419 0.58345 0.30611
 C1348 C 0.68871 0.57807 0.29063
 C1349 C 0.69688 0.56523 0.28256
 C1350 C 0.71056 0.55771 0.28993
 C1351 C 0.71598 0.56303 0.30545
 C1352 C 0.70782 0.57587 0.31352
 C1353 C 0.71918 0.54475 0.28144
 C1354 C 0.72647 0.53401 0.27423
 H1355 H 0.67821 0.58386 0.28478
 H1356 H 0.69260 0.56123 0.27055
 H1357 H 0.72657 0.55733 0.31124
 H1358 H 0.71217 0.57996 0.32547
 C1359 C 0.67844 1.10875 0.82097
 C1360 C 0.68524 1.09737 0.81428
 C1361 C 0.69346 1.08391 0.80620
 C1362 C 0.68774 1.07818 0.79093
 C1363 C 0.69596 1.06535 0.78289
 C1364 C 0.70992 1.05818 0.79008
 C1365 C 0.71558 1.06385 0.80539
 C1366 C 0.70736 1.07668 0.81343
 C1367 C 0.71858 1.04523 0.78162
 C1368 C 0.72590 1.03450 0.77443
 H1369 H 0.67702 1.08370 0.78521
 H1370 H 0.69149 1.06108 0.77104
 H1371 H 0.72638 1.05842 0.81105
 H1372 H 0.71190 1.08104 0.82522
 C1373 C 0.17878 0.60860 0.82080
 C1374 C 0.18566 0.59726 0.81413
 C1375 C 0.19403 0.58386 0.80610
 C1376 C 0.21124 0.58394 0.80485
 C1377 C 0.21941 0.57108 0.79683
 C1378 C 0.21041 0.55806 0.79002
 C1379 C 0.19321 0.55793 0.79132
 C1380 C 0.18504 0.57081 0.79935
 C1381 C 0.21885 0.54499 0.78153
 C1382 C 0.22606 0.53418 0.77434
 H1383 H 0.21831 0.59398 0.81001
 H1384 H 0.23271 0.57131 0.79588
 H1385 H 0.18613 0.54794 0.78608
 H1386 H 0.17173 0.57063 0.80022
 C1387 C 0.17898 1.10918 0.32042
 C1388 C 0.18576 1.09782 0.31367
 C1389 C 0.19395 1.08438 0.30551
 C1390 C 0.20743 1.07664 0.31301
 C1391 C 0.21559 1.06380 0.30492
 C1392 C 0.21029 1.05864 0.28930
 C1393 C 0.19676 1.06633 0.28184
 C1394 C 0.18860 1.07917 0.28993
 C1395 C 0.21890 1.04567 0.28082
 C1396 C 0.22618 1.03491 0.27363
 H1397 H 0.21168 1.08059 0.32505
 H1398 H 0.22606 1.05796 0.31079
 H1399 H 0.19258 1.06246 0.26975
 H1400 H 0.17820 1.08508 0.28401
 C1401 C 0.67987 0.39120 0.67948
 C1402 C 0.68673 0.40242 0.68633
 C1403 C 0.69503 0.41567 0.69461
 C1404 C 0.70757 0.41222 0.70597
 C1405 C 0.71566 0.42505 0.71407
 C1406 C 0.71124 0.44139 0.71086
 C1407 C 0.69871 0.44485 0.69949
 C1408 C 0.69062 0.43201 0.69138
 C1409 C 0.71960 0.45455 0.71924
 C1410 C 0.72671 0.46544 0.72637
 H1411 H 0.71109 0.39963 0.70856
 H1412 H 0.72534 0.42224 0.72283
 H1413 H 0.69520 0.45744 0.69690
 H1414 H 0.68094 0.43481 0.68262
 C1415 C 0.67932 -0.10864 0.17967
 C1416 C 0.68619 -0.09739 0.18643
 C1417 C 0.69453 -0.08408 0.19458
 C1418 C 0.71167 -0.08459 0.19651
 C1419 C 0.71980 -0.07178 0.20460
 C1420 C 0.71084 -0.05840 0.21080
 C1421 C 0.69371 -0.05786 0.20884
 C1422 C 0.68557 -0.07068 0.20074
 C1423 C 0.71924 -0.04534 0.21930
 C1424 C 0.72641 -0.03453 0.22647
 H1425 H 0.71872 -0.09490 0.19182
 H1426 H 0.73305 -0.07233 0.20608
 H1427 H 0.68666 -0.04759 0.21360
 H1428 H 0.67231 -0.07017 0.19934
 C1429 C 0.17893 0.39141 0.17931
 C1430 C 0.18563 0.40281 0.18601
 C1431 C 0.19378 0.41630 0.19406
 C1432 C 0.21005 0.42020 0.18990
 C1433 C 0.21811 0.43308 0.19796
 C1434 C 0.20994 0.44211 0.21021
 C1435 C 0.19364 0.43827 0.21432
 C1436 C 0.18557 0.42538 0.20626
 C1437 C 0.21839 0.45513 0.21874
 C1438 C 0.22560 0.46591 0.22592
 H1439 H 0.21652 0.41324 0.18052
 H1440 H 0.23073 0.43593 0.19471
 H1441 H 0.18721 0.44515 0.22379
 H1442 H 0.17300 0.42245 0.20959
 C1443 C 0.17919 -0.10922 0.67923
 C1444 C 0.18601 -0.09801 0.68613
 C1445 C 0.19427 -0.08476 0.69448
 C1446 C 0.20609 -0.08824 0.70658
 C1447 C 0.21416 -0.07542 0.71471
 C1448 C 0.21045 -0.05906 0.71078
 C1449 C 0.19862 -0.05557 0.69869
 C1450 C 0.19054 -0.06840 0.69055
 C1451 C 0.21884 -0.04591 0.71916
 C1452 C 0.22598 -0.03504 0.72627
 H1453 H 0.20906 -0.10084 0.70971
 H1454 H 0.22329 -0.07825 0.72403
 H1455 H 0.19567 -0.04296 0.69555
 H1456 H 0.18142 -0.06558 0.68122
 C1457 C 0.31988 0.32052 0.39136
 C1458 C 0.31315 0.31372 0.40272
 C1459 C 0.30504 0.30548 0.41617
 C1460 C 0.29343 0.31389 0.42580
 C1461 C 0.28534 0.30578 0.43867
 C1462 C 0.28885 0.28923 0.44197
 C1463 C 0.30052 0.28085 0.43238
 C1464 C 0.30860 0.28896 0.41951
 C1465 C 0.28031 0.28078 0.45500
 C1466 C 0.27310 0.27359 0.46580
 H1467 H 0.29056 0.32666 0.42330
 H1468 H 0.27632 0.31236 0.44599
 H1469 H 0.30330 0.26805 0.43480
 H1470 H 0.31754 0.28234 0.41212
 C1471 C 0.32012 0.82066 -0.10909
 C1472 C 0.31335 0.81387 -0.09775
 C1473 C 0.30520 0.80563 -0.08434
 C1474 C 0.29514 0.81452 -0.07346
 C1475 C 0.28700 0.80644 -0.06060
 C1476 C 0.28890 0.78944 -0.05856
 C1477 C 0.29901 0.78057 -0.06939
 C1478 C 0.30714 0.78864 -0.08225
 C1479 C 0.28031 0.78105 -0.04552
 C1480 C 0.27305 0.77392 -0.03471
 H1481 H 0.29353 0.82765 -0.07497
 H1482 H 0.27920 0.81341 -0.05230
 H1483 H 0.30054 0.76742 -0.06795
 H1484 H 0.31487 0.78165 -0.09060
 C1485 C 0.82004 0.32078 -0.10920
 C1486 C 0.81313 0.31394 -0.09798
 C1487 C 0.80476 0.30567 -0.08472
 C1488 C 0.81000 0.30781 -0.06838
 C1489 C 0.80186 0.29972 -0.05552
 C1490 C 0.78845 0.28947 -0.05896
 C1491 C 0.78321 0.28735 -0.07530
 C1492 C 0.79135 0.29543 -0.08814
 C1493 C 0.78006 0.28108 -0.04579
 C1494 C 0.77295 0.27394 -0.03489
 H1495 H 0.82037 0.31569 -0.06559
 H1496 H 0.80602 0.30144 -0.04294
 H1497 H 0.77287 0.27944 -0.07810
 H1498 H 0.78721 0.29368 -0.10073
 C1499 C 0.82033 0.82078 0.39156
 C1500 C 0.81348 0.81389 0.40279
 C1501 C 0.80518 0.80556 0.41605
 C1502 C 0.81063 0.80746 0.43235
 C1503 C 0.80254 0.79933 0.44521
 C1504 C 0.78897 0.78927 0.44182
 C1505 C 0.78353 0.78739 0.42552
 C1506 C 0.79161 0.79551 0.41267
 C1507 C 0.78062 0.78086 0.45500
 C1508 C 0.77351 0.77373 0.46590
 H1509 H 0.82112 0.81519 0.43510
 H1510 H 0.80686 0.80086 0.45777
 H1511 H 0.77305 0.77964 0.42276
 H1512 H 0.78730 0.79396 0.40012
 C1513 C 0.67952 0.32047 0.60825
 C1514 C 0.68627 0.31363 0.59690
 C1515 C 0.69441 0.30534 0.58349
 C1516 C 0.69244 0.28836 0.58141
 C1517 C 0.70059 0.28021 0.56859
 C1518 C 0.71075 0.28900 0.55777
 C1519 C 0.71266 0.30599 0.55979
 C1520 C 0.70451 0.31415 0.57263
 C1521 C 0.71939 0.28053 0.54479
 C1522 C 0.72670 0.27332 0.53404
 H1523 H 0.68468 0.28142 0.58976
 H1524 H 0.69905 0.26706 0.56716
 H1525 H 0.72051 0.31290 0.55152
 H1526 H 0.70614 0.32727 0.57413
 C1527 C 0.67882 0.82051 1.10856
 C1528 C 0.68554 0.81366 1.09720
 C1529 C 0.69367 0.80537 1.08377
 C1530 C 0.69175 0.78839 1.08172
 C1531 C 0.69990 0.78025 1.06888
 C1532 C 0.71000 0.78907 1.05803
 C1533 C 0.71186 0.80607 1.06003
 C1534 C 0.70371 0.81421 1.07288
 C1535 C 0.71864 0.78062 1.04504
 C1536 C 0.72596 0.77345 1.03427
 H1537 H 0.68404 0.78143 1.09009
 H1538 H 0.69839 0.76710 1.06746
 H1539 H 0.71966 0.81300 1.05173
 H1540 H 0.70530 0.82734 1.07437
 C1541 C 0.17940 0.32014 1.10858
 C1542 C 0.18618 0.31332 1.09724
 C1543 C 0.19433 0.30504 1.08382
 C1544 C 0.19275 0.28799 1.08202
 C1545 C 0.20089 0.27987 1.06916
 C1546 C 0.21063 0.28876 1.05805
 C1547 C 0.21215 0.30582 1.05981
 C1548 C 0.20402 0.31395 1.07267
 C1549 C 0.21922 0.28033 1.04500
 C1550 C 0.22647 0.27317 1.03419
 H1551 H 0.18531 0.28098 1.09058
 H1552 H 0.19964 0.26667 1.06792
 H1553 H 0.21968 0.31281 1.05130
 H1554 H 0.20534 0.32713 1.07397
 C1555 C 0.17965 0.82081 0.60835
 C1556 C 0.18642 0.81398 0.59701
 C1557 C 0.19457 0.80567 0.58361
 C1558 C 0.20339 0.81468 0.57184
 C1559 C 0.21153 0.80655 0.55897
 C1560 C 0.21086 0.78938 0.55784
 C1561 C 0.20197 0.78038 0.56957
 C1562 C 0.19384 0.78851 0.58242
 C1563 C 0.21945 0.78095 0.54479
 C1564 C 0.22671 0.77378 0.53399
 H1565 H 0.20405 0.82795 0.57264
 H1566 H 0.21838 0.81362 0.54998
 H1567 H 0.20139 0.76710 0.56882
 H1568 H 0.18707 0.78142 0.59147
 C1569 C 0.32070 0.67914 0.60871
 C1570 C 0.31400 0.68587 0.59728
 C1571 C 0.30591 0.69401 0.58375
 C1572 C 0.31245 0.70857 0.57730
 C1573 C 0.30442 0.71667 0.56437
 C1574 C 0.28981 0.71024 0.55786
 C1575 C 0.28331 0.69564 0.56426
 C1576 C 0.29135 0.68754 0.57718
 C1577 C 0.28135 0.71878 0.54481
 C1578 C 0.27419 0.72602 0.53399
 H1579 H 0.32369 0.71370 0.58231
 H1580 H 0.30953 0.72797 0.55953
 H1581 H 0.27201 0.69057 0.55933
 H1582 H 0.28618 0.67630 0.58210
 C1583 C 0.32098 0.17892 1.10875
 C1584 C 0.31427 0.18566 1.09733
 C1585 C 0.30616 0.19380 1.08382
 C1586 C 0.29190 0.18702 1.07689
 C1587 C 0.28384 0.19511 1.06398
 C1588 C 0.29000 0.21001 1.05794
 C1589 C 0.30430 0.21675 1.06482
 C1590 C 0.31236 0.20866 1.07773
 C1591 C 0.28149 0.21852 1.04491
 C1592 C 0.27427 0.22572 1.03411
 H1593 H 0.28699 0.17555 1.08153
 H1594 H 0.27277 0.18981 1.05878
 H1595 H 0.30915 0.22829 1.06026
 H1596 H 0.32336 0.21403 1.08301
 C1597 C 0.82080 0.67943 1.10903
 C1598 C 0.81407 0.68614 1.09760
 C1599 C 0.80593 0.69424 1.08409
 C1600 C 0.81199 0.70920 1.07809
 C1601 C 0.80388 0.71726 1.06518
 C1602 C 0.78968 0.71040 1.05822
 C1603 C 0.78367 0.69539 1.06416
 C1604 C 0.79178 0.68733 1.07707
 C1605 C 0.78114 0.71887 1.04520
 C1606 C 0.77390 0.72606 1.03440
 H1607 H 0.82291 0.71467 1.08344
 H1608 H 0.80862 0.72887 1.06070
 H1609 H 0.77269 0.68999 1.05889
 H1610 H 0.78697 0.67579 1.08163
 C1611 C 0.82124 0.17947 0.60926
 C1612 C 0.81447 0.18617 0.59785
 C1613 C 0.80624 0.19422 0.58435
 C1614 C 0.78919 0.19252 0.58241
 C1615 C 0.78112 0.20053 0.56947
 C1616 C 0.79005 0.21028 0.55840
 C1617 C 0.80712 0.21193 0.56029
 C1618 C 0.81520 0.20391 0.57325
 C1619 C 0.78166 0.21874 0.54527
 C1620 C 0.77451 0.22590 0.53439
 H1621 H 0.78215 0.18507 0.59094
 H1622 H 0.76792 0.19920 0.56813
 H1623 H 0.81414 0.21945 0.55182
 H1624 H 0.82838 0.20532 0.57465
 C1625 C 0.67909 0.67944 0.39179
 C1626 C 0.68581 0.68619 0.40318
 C1627 C 0.69393 0.69436 0.41666
 C1628 C 0.70746 0.68694 0.42440
 C1629 C 0.71558 0.69504 0.43727
 C1630 C 0.71019 0.71058 0.44245
 C1631 C 0.69661 0.71795 0.43476
 C1632 C 0.68850 0.70986 0.42190
 C1633 C 0.71876 0.71907 0.45544
 C1634 C 0.72601 0.72627 0.46621
 H1635 H 0.71179 0.67498 0.42043
 H1636 H 0.72609 0.68924 0.44310
 H1637 H 0.69236 0.72998 0.43865
 H1638 H 0.67806 0.71572 0.41598
 C1639 C 0.67857 0.17928 -0.10874
 C1640 C 0.68528 0.18607 -0.09737
 C1641 C 0.69338 0.19428 -0.08391
 C1642 C 0.70746 0.18733 -0.07673
 C1643 C 0.71555 0.19549 -0.06389
 C1644 C 0.70960 0.21063 -0.05818
 C1645 C 0.69547 0.21754 -0.06530
 C1646 C 0.68738 0.20938 -0.07813
 C1647 C 0.71814 0.21921 -0.04523
 C1648 C 0.72540 0.22645 -0.03449
 H1649 H 0.71222 0.17567 -0.08111
 H1650 H 0.72648 0.19006 -0.05850
 H1651 H 0.69078 0.22926 -0.06100
 H1652 H 0.67652 0.21487 -0.08361
 C1653 C 0.17886 0.67920 -0.10900
 C1654 C 0.18556 0.68601 -0.09763
 C1655 C 0.19364 0.69425 -0.08417
 C1656 C 0.18768 0.70940 -0.07849
 C1657 C 0.19572 0.71757 -0.06563
 C1658 C 0.20976 0.71062 -0.05839
 C1659 C 0.21568 0.69542 -0.06401
 C1660 C 0.20763 0.68725 -0.07687
 C1661 C 0.21825 0.71919 -0.04540
 C1662 C 0.22544 0.72644 -0.03462
 H1663 H 0.17688 0.71493 -0.08407
 H1664 H 0.19107 0.72933 -0.06141
 H1665 H 0.22654 0.68995 -0.05852
 H1666 H 0.21236 0.67555 -0.08118
 C1667 C 0.17910 0.17929 0.39113
 C1668 C 0.18580 0.18599 0.40257
 C1669 C 0.19391 0.19406 0.41611
 C1670 C 0.20867 0.18770 0.42240
 C1671 C 0.21674 0.19574 0.43533
 C1672 C 0.21008 0.21018 0.44202
 C1673 C 0.19528 0.21650 0.43578
 C1674 C 0.18721 0.20845 0.42285
 C1675 C 0.21857 0.21867 0.45506
 C1676 C 0.22575 0.22588 0.46587
 H1677 H 0.21397 0.17659 0.41725
 H1678 H 0.22819 0.19077 0.44003
 H1679 H 0.19004 0.22767 0.44084
 H1680 H 0.17582 0.21350 0.41806
 C1681 C 0.32101 0.39180 0.67956
 C1682 C 0.31435 0.40313 0.68646
 C1683 C 0.30629 0.41652 0.69483
 C1684 C 0.29840 0.42889 0.68576
 C1685 C 0.29031 0.44172 0.69394
 C1686 C 0.29007 0.44222 0.71123
 C1687 C 0.29804 0.42989 0.72029
 C1688 C 0.30613 0.41707 0.71211
 C1689 C 0.28146 0.45521 0.71968
 C1690 C 0.27417 0.46596 0.72686
 H1691 H 0.29844 0.42857 0.67239
 H1692 H 0.28418 0.45118 0.68681
 H1693 H 0.29792 0.43015 0.73366
 H1694 H 0.31217 0.40755 0.71925
 C1695 C 0.32058 0.89204 0.17908
 C1696 C 0.31392 0.90342 0.18591
 C1697 C 0.30590 0.91686 0.19423
 C1698 C 0.29691 0.92849 0.18519
 C1699 C 0.28888 0.94138 0.19334
 C1700 C 0.28981 0.94267 0.21056
 C1701 C 0.29886 0.93108 0.21958
 C1702 C 0.30688 0.91820 0.21144
 C1703 C 0.28127 0.95571 0.21901
 C1704 C 0.27404 0.96650 0.22619
 H1705 H 0.29605 0.92755 0.17188
 H1706 H 0.28190 0.95026 0.18624
 H1707 H 0.29963 0.93195 0.23291
 H1708 H 0.31378 0.90926 0.21855
 C1709 C 0.82093 0.39147 0.17924
 C1710 C 0.81426 0.40286 0.18603
 C1711 C 0.80620 0.41634 0.19426
 C1712 C 0.79342 0.42487 0.18640
 C1713 C 0.78536 0.43774 0.19455
 C1714 C 0.79005 0.44212 0.21059
 C1715 C 0.80289 0.43365 0.21842
 C1716 C 0.81095 0.42078 0.21027
 C1717 C 0.78152 0.45510 0.21914
 C1718 C 0.77428 0.46586 0.22638
 H1719 H 0.78963 0.42151 0.17403
 H1720 H 0.77543 0.44419 0.18839
 H1721 H 0.80660 0.43692 0.23083
 H1722 H 0.82080 0.41425 0.21647
 C1723 C 0.82081 0.89208 0.67969
 C1724 C 0.81408 0.90347 0.68643
 C1725 C 0.80594 0.91694 0.69458
 C1726 C 0.81332 0.92458 0.70819
 C1727 C 0.80522 0.93742 0.71634
 C1728 C 0.78970 0.94266 0.71092
 C1729 C 0.78236 0.93508 0.69725
 C1730 C 0.79046 0.92225 0.68910
 C1731 C 0.78118 0.95561 0.71953
 C1732 C 0.77393 0.96634 0.72679
 H1733 H 0.82528 0.92055 0.71255
 H1734 H 0.81100 0.94318 0.72691
 H1735 H 0.77035 0.93902 0.69297
 H1736 H 0.78463 0.91641 0.67861
 C1737 C 0.67918 0.60825 0.67978
 C1738 C 0.68590 0.59682 0.68645
 C1739 C 0.69405 0.58331 0.69451
 C1740 C 0.70790 0.57599 0.68724
 C1741 C 0.71604 0.56311 0.69526
 C1742 C 0.71037 0.55750 0.71058
 C1743 C 0.69647 0.56475 0.71781
 C1744 C 0.68832 0.57763 0.70979
 C1745 C 0.71898 0.54452 0.71904
 C1746 C 0.72627 0.53378 0.72623
 H1747 H 0.71244 0.58031 0.67544
 H1748 H 0.72680 0.55761 0.68958
 H1749 H 0.69200 0.56052 0.72966
 H1750 H 0.67764 0.58321 0.71553
 C1751 C 0.67976 0.10817 0.17925
 C1752 C 0.68651 0.09677 0.18593
 C1753 C 0.69463 0.08327 0.19404
 C1754 C 0.70873 0.07618 0.18702
 C1755 C 0.71684 0.06331 0.19511
 C1756 C 0.71087 0.05748 0.21023
 C1757 C 0.69672 0.06451 0.21720
 C1758 C 0.68862 0.07737 0.20911
 C1759 C 0.71942 0.04450 0.21875
 C1760 C 0.72663 0.03375 0.22601
 H1761 H 0.71351 0.08067 0.17539
 H1762 H 0.72779 0.05799 0.18963
 H1763 H 0.69202 0.06011 0.22890
 H1764 H 0.67775 0.08278 0.21466
 C1765 C 0.17866 0.60864 0.17906
 C1766 C 0.18539 0.59721 0.18571
 C1767 C 0.19354 0.58369 0.19376
 C1768 C 0.18723 0.57737 0.20855
 C1769 C 0.19536 0.56449 0.21658
 C1770 C 0.20982 0.55787 0.20986
 C1771 C 0.21607 0.56413 0.19503
 C1772 C 0.20795 0.57701 0.18699
 C1773 C 0.21840 0.54489 0.21835
 C1774 C 0.22565 0.53414 0.22556
 H1775 H 0.17611 0.58247 0.21390
 H1776 H 0.19043 0.55976 0.22806
 H1777 H 0.22727 0.55912 0.18974
 H1778 H 0.21295 0.58183 0.17558
 C1779 C 0.17841 0.10748 0.67911
 C1780 C 0.18514 0.09607 0.68580
 C1781 C 0.19329 0.08258 0.69390
 C1782 C 0.18744 0.07682 0.70910
 C1783 C 0.19560 0.06399 0.71718
 C1784 C 0.20964 0.05686 0.71009
 C1785 C 0.21542 0.06254 0.69484
 C1786 C 0.20726 0.07538 0.68676
 C1787 C 0.21827 0.04394 0.71861
 C1788 C 0.22559 0.03324 0.72585
 H1789 H 0.17667 0.08232 0.71474
 H1790 H 0.19104 0.05970 0.72898
 H1791 H 0.22628 0.05714 0.68926
 H1792 H 0.21191 0.07976 0.67502
 C1793 C 0.32073 0.60854 0.31949
 C1794 C 0.31397 0.59721 0.31272
 C1795 C 0.30582 0.58382 0.30451
 C1796 C 0.30679 0.58232 0.28731
 C1797 C 0.29864 0.56949 0.27927
 C1798 C 0.28947 0.55810 0.28840
 C1799 C 0.28854 0.55956 0.30561
 C1800 C 0.29670 0.57240 0.31365
 C1801 C 0.28083 0.54509 0.28007
 C1802 C 0.27354 0.53430 0.27298
 H1803 H 0.31379 0.59109 0.28012
 H1804 H 0.29941 0.56849 0.26596
 H1805 H 0.28147 0.55084 0.31278
 H1806 H 0.29585 0.57346 0.32695
 C1807 C 0.32058 0.10801 0.81974
 C1808 C 0.31382 0.09665 0.81303
 C1809 C 0.30565 0.08320 0.80493
 C1810 C 0.31086 0.07806 0.78927
 C1811 C 0.30272 0.06521 0.78125
 C1812 C 0.28934 0.05744 0.78885
 C1813 C 0.28418 0.06254 0.80455
 C1814 C 0.29232 0.07539 0.81257
 C1815 C 0.28077 0.04444 0.78045
 C1816 C 0.27352 0.03364 0.77332
 H1817 H 0.32114 0.08404 0.78324
 H1818 H 0.30681 0.06138 0.76911
 H1819 H 0.27383 0.05663 0.81053
 H1820 H 0.28816 0.07930 0.82466
 C1821 C 0.82111 0.60815 0.82054
 C1822 C 0.81435 0.59681 0.81381
 C1823 C 0.80619 0.58338 0.80566
 C1824 C 0.79213 0.57632 0.81272
 C1825 C 0.78401 0.56350 0.80463
 C1826 C 0.78991 0.55768 0.78946
 C1827 C 0.80401 0.56469 0.78244
 C1828 C 0.81213 0.57752 0.79052
 C1829 C 0.78136 0.54472 0.78097
 C1830 C 0.77412 0.53396 0.77377
 H1831 H 0.78742 0.58078 0.82440
 H1832 H 0.77310 0.55819 0.81015
 H1833 H 0.80865 0.56031 0.77070
 H1834 H 0.82297 0.58291 0.78494
 C1835 C 0.82172 0.10778 0.32033
 C1836 C 0.81496 0.09644 0.31358
 C1837 C 0.80679 0.08304 0.30542
 C1838 C 0.79511 0.07363 0.31392
 C1839 C 0.78691 0.06083 0.30586
 C1840 C 0.79036 0.05740 0.28926
 C1841 C 0.80210 0.06675 0.28079
 C1842 C 0.81030 0.07954 0.28885
 C1843 C 0.78169 0.04446 0.28085
 C1844 C 0.77436 0.03374 0.27371
 H1845 H 0.79228 0.07625 0.32672
 H1846 H 0.77784 0.05369 0.31252
 H1847 H 0.80485 0.06421 0.26795
 H1848 H 0.81928 0.08676 0.28215
 C1849 C 0.67973 0.39148 0.32068
 C1850 C 0.68645 0.40288 0.31400
 C1851 C 0.69459 0.41636 0.30594
 C1852 C 0.71002 0.42164 0.31152
 C1853 C 0.71812 0.43449 0.30346
 C1854 C 0.71082 0.44212 0.28979
 C1855 C 0.69534 0.43689 0.28426
 C1856 C 0.68725 0.42404 0.29232
 C1857 C 0.71933 0.45508 0.28127
 C1858 C 0.72655 0.46583 0.27405
 H1859 H 0.71582 0.41577 0.32202
 H1860 H 0.73009 0.43841 0.30782
 H1861 H 0.68960 0.44268 0.27369
 H1862 H 0.67533 0.42003 0.28789
 C1863 C 0.67915 0.89199 0.82094
 C1864 C 0.68588 0.90338 0.81426
 C1865 C 0.69403 0.91685 0.80620
 C1866 C 0.70939 0.92225 0.81188
 C1867 C 0.71749 0.93510 0.80383
 C1868 C 0.71027 0.94261 0.79005
 C1869 C 0.69487 0.93727 0.78441
 C1870 C 0.68677 0.92442 0.79247
 C1871 C 0.71879 0.95557 0.78153
 C1872 C 0.72602 0.96632 0.77433
 H1873 H 0.71513 0.91646 0.82247
 H1874 H 0.72940 0.93910 0.80827
 H1875 H 0.68920 0.94297 0.77375
 H1876 H 0.67492 0.92032 0.78795
 C1877 C 0.17936 0.39161 0.82104
 C1878 C 0.18625 0.40286 0.81429
 C1879 C 0.19461 0.41612 0.80610
 C1880 C 0.18895 0.43231 0.80782
 C1881 C 0.19709 0.44515 0.79976
 C1882 C 0.21091 0.44184 0.78994
 C1883 C 0.21657 0.42565 0.78824
 C1884 C 0.20844 0.41283 0.79629
 C1885 C 0.21927 0.45497 0.78153
 C1886 C 0.22640 0.46583 0.77437
 H1887 H 0.17826 0.43500 0.81537
 H1888 H 0.19260 0.45762 0.80115
 H1889 H 0.22724 0.42295 0.78067
 H1890 H 0.21292 0.40035 0.79486
 C1891 C 0.17940 0.89248 0.32060
 C1892 C 0.18609 0.90386 0.31387
 C1893 C 0.19422 0.91732 0.30575
 C1894 C 0.20966 0.92262 0.31128
 C1895 C 0.21774 0.93545 0.30317
 C1896 C 0.21042 0.94304 0.28949
 C1897 C 0.19493 0.93780 0.28401
 C1898 C 0.18685 0.92497 0.29212
 C1899 C 0.21893 0.95597 0.28092
 C1900 C 0.22616 0.96670 0.27369
 H1901 H 0.21548 0.91678 0.32178
 H1902 H 0.22972 0.93938 0.30749
 H1903 H 0.18917 0.94356 0.27343
 H1904 H 0.17492 0.92095 0.28772
 C1905 C 0.39164 0.32058 0.67902
 C1906 C 0.40301 0.31380 0.68572
 C1907 C 0.41648 0.30561 0.69384
 C1908 C 0.42296 0.29105 0.68725
 C1909 C 0.43582 0.28290 0.69533
 C1910 C 0.44224 0.28929 0.71004
 C1911 C 0.43582 0.30390 0.71659
 C1912 C 0.42296 0.31204 0.70850
 C1913 C 0.45523 0.28073 0.71855
 C1914 C 0.46600 0.27349 0.72576
 H1915 H 0.41802 0.28595 0.67594
 H1916 H 0.44067 0.27160 0.69018
 H1917 H 0.44068 0.30893 0.72797
 H1918 H 0.41802 0.32328 0.71372
 C1919 C 0.39141 0.82100 0.17880
 C1920 C 0.40282 0.81428 0.18551
 C1921 C 0.41633 0.80616 0.19363
 C1922 C 0.42300 0.81280 0.20811
 C1923 C 0.43589 0.80472 0.21620
 C1924 C 0.44216 0.78996 0.20986
 C1925 C 0.43554 0.78336 0.19533
 C1926 C 0.42266 0.79144 0.18724
 C1927 C 0.45517 0.78145 0.21838
 C1928 C 0.46595 0.77423 0.22560
 H1929 H 0.41818 0.82416 0.21317
 H1930 H 0.44090 0.80992 0.22744
 H1931 H 0.44028 0.77194 0.19033
 H1932 H 0.41757 0.78618 0.17607
 C1933 C 0.89179 0.32042 0.17891
 C1934 C 0.90319 0.31366 0.18560
 C1935 C 0.91669 0.30548 0.19368
 C1936 C 0.92592 0.31374 0.20569
 C1937 C 0.93881 0.30566 0.21378
 C1938 C 0.94251 0.28928 0.20990
 C1939 C 0.93333 0.28104 0.19783
 C1940 C 0.92044 0.28913 0.18974
 C1941 C 0.95554 0.28083 0.21845
 C1942 C 0.96634 0.27364 0.22568
 H1943 H 0.92310 0.32637 0.20885
 H1944 H 0.94582 0.31213 0.22311
 H1945 H 0.93606 0.26837 0.19476
 H1946 H 0.91336 0.28261 0.18050
 C1947 C 0.89156 0.82092 0.67988
 C1948 C 0.90287 0.81414 0.68670
 C1949 C 0.91623 0.80593 0.69498
 C1950 C 0.93075 0.80218 0.68642
 C1951 C 0.94363 0.79403 0.69446
 C1952 C 0.94203 0.78959 0.71109
 C1953 C 0.92753 0.79339 0.71966
 C1954 C 0.91466 0.80154 0.71162
 C1955 C 0.95516 0.78102 0.71936
 C1956 C 0.96603 0.77375 0.72640
 H1957 H 0.93209 0.80551 0.67354
 H1958 H 0.95479 0.79114 0.68772
 H1959 H 0.92616 0.79000 0.73252
 H1960 H 0.90348 0.80436 0.71836
 C1961 C 0.60877 0.32082 0.32036
 C1962 C 0.59735 0.31417 0.31362
 C1963 C 0.58384 0.30610 0.30551
 C1964 C 0.57613 0.29265 0.31302
 C1965 C 0.56322 0.28459 0.30498
 C1966 C 0.55797 0.28994 0.28941
 C1967 C 0.56562 0.30345 0.28195
 C1968 C 0.57853 0.31152 0.28998
 C1969 C 0.54496 0.28140 0.28098
 C1970 C 0.53418 0.27414 0.27384
 H1971 H 0.58015 0.28835 0.32501
 H1972 H 0.55741 0.27414 0.31085
 H1973 H 0.56168 0.30767 0.26990
 H1974 H 0.58442 0.32189 0.28406
 C1975 C 0.60815 0.82137 0.82062
 C1976 C 0.59673 0.81471 0.81388
 C1977 C 0.58323 0.80665 0.80575
 C1978 C 0.57549 0.79321 0.81325
 C1979 C 0.56261 0.78514 0.80518
 C1980 C 0.55741 0.79047 0.78959
 C1981 C 0.56510 0.80396 0.78213
 C1982 C 0.57798 0.81204 0.79019
 C1983 C 0.54443 0.78191 0.78112
 C1984 C 0.53367 0.77464 0.77396
 H1985 H 0.57948 0.78893 0.82526
 H1986 H 0.55678 0.77470 0.81105
 H1987 H 0.56120 0.80816 0.77005
 H1988 H 0.58390 0.82239 0.78427
 C1989 C 0.10810 0.32124 0.82063
 C1990 C 0.09673 0.31455 0.81384
 C1991 C 0.08328 0.30644 0.80568
 C1992 C 0.07539 0.29316 0.81330
 C1993 C 0.06253 0.28505 0.80523
 C1994 C 0.05751 0.29018 0.78951
 C1995 C 0.06535 0.30351 0.78192
 C1996 C 0.07821 0.31162 0.78999
 C1997 C 0.04453 0.28161 0.78106
 C1998 C 0.03375 0.27432 0.77394
 H1999 H 0.07923 0.28903 0.82541
 H2000 H 0.05657 0.27473 0.81119
 H2001 H 0.06159 0.30757 0.76976
 H2002 H 0.08425 0.32186 0.78398
 C2003 C 0.10844 0.82180 0.32085
 C2004 C 0.09701 0.81511 0.31416
 C2005 C 0.08349 0.80701 0.30610
 C2006 C 0.07597 0.79341 0.31351
 C2007 C 0.06307 0.78532 0.30550
 C2008 C 0.05764 0.79080 0.29004
 C2009 C 0.06510 0.80446 0.28266
 C2010 C 0.07800 0.81255 0.29067
 C2011 C 0.04463 0.78224 0.28161
 C2012 C 0.03385 0.77498 0.27447
 H2013 H 0.08015 0.78901 0.32542
 H2014 H 0.05741 0.77475 0.31130
 H2015 H 0.06102 0.80878 0.27070
 H2016 H 0.08375 0.82303 0.28481
 C2017 C 0.60834 0.67932 0.68021
 C2018 C 0.59701 0.68607 0.68705
 C2019 C 0.58362 0.69423 0.69534
 C2020 C 0.56979 0.69945 0.68643
 C2021 C 0.55692 0.70761 0.69450
 C2022 C 0.55784 0.71059 0.71151
 C2023 C 0.57165 0.70532 0.72042
 C2024 C 0.58451 0.69716 0.71236
 C2025 C 0.54475 0.71920 0.71981
 C2026 C 0.53391 0.72649 0.72688
 H2027 H 0.56898 0.69726 0.67326
 H2028 H 0.54630 0.71165 0.68748
 H2029 H 0.57250 0.70757 0.73357
 H2030 H 0.59516 0.69320 0.71937
 C2031 C 0.60866 0.17897 0.17989
 C2032 C 0.59731 0.18566 0.18675
 C2033 C 0.58391 0.19377 0.19508
 C2034 C 0.57040 0.19965 0.18608
 C2035 C 0.55754 0.20779 0.19418
 C2036 C 0.55814 0.21008 0.21132
 C2037 C 0.57162 0.20414 0.22031
 C2038 C 0.58447 0.19600 0.21222
 C2039 C 0.54508 0.21870 0.21966
 C2040 C 0.53426 0.22599 0.22676
 H2041 H 0.56985 0.19801 0.17282
 H2042 H 0.54718 0.21235 0.18710
 H2043 H 0.57223 0.20586 0.23356
 H2044 H 0.59487 0.19152 0.21929
 C2045 C 0.10792 0.67977 0.17993
 C2046 C 0.09663 0.68651 0.18686
 C2047 C 0.08331 0.69465 0.19527
 C2048 C 0.06938 0.69983 0.18648
 C2049 C 0.05658 0.70799 0.19467
 C2050 C 0.05766 0.71098 0.21167
 C2051 C 0.07155 0.70572 0.22046
 C2052 C 0.08435 0.69757 0.21228
 C2053 C 0.04464 0.71960 0.22008
 C2054 C 0.03386 0.72690 0.22723
 H2055 H 0.06846 0.69764 0.17333
 H2056 H 0.04590 0.71201 0.18775
 H2057 H 0.07252 0.70799 0.23360
 H2058 H 0.09506 0.69362 0.21919
 C2059 C 0.10778 0.17873 0.67982
 C2060 C 0.09650 0.18550 0.68671
 C2061 C 0.08317 0.19368 0.69509
 C2062 C 0.08423 0.19674 0.71208
 C2063 C 0.07143 0.20491 0.72022
 C2064 C 0.05751 0.21007 0.71142
 C2065 C 0.05641 0.20697 0.69444
 C2066 C 0.06922 0.19879 0.68629
 C2067 C 0.04448 0.21872 0.71979
 C2068 C 0.03370 0.22605 0.72692
 H2069 H 0.09497 0.19286 0.71900
 H2070 H 0.07242 0.20727 0.73334
 H2071 H 0.04571 0.21092 0.68751
 H2072 H 0.06829 0.19651 0.67315
 C2073 C 0.39173 0.67914 0.31941
 C2074 C 0.40306 0.68586 0.31259
 C2075 C 0.41644 0.69399 0.30431
 C2076 C 0.41588 0.69630 0.28719
 C2077 C 0.42872 0.70444 0.27914
 C2078 C 0.44219 0.71029 0.28817
 C2079 C 0.44280 0.70792 0.30529
 C2080 C 0.42995 0.69978 0.31335
 C2081 C 0.45524 0.71892 0.27988
 C2082 C 0.46604 0.72622 0.27281
 H2083 H 0.40548 0.69189 0.28009
 H2084 H 0.42811 0.70622 0.26590
 H2085 H 0.45316 0.71241 0.31240
 H2086 H 0.43050 0.69807 0.32660
 C2087 C 0.39170 0.17851 0.81958
 C2088 C 0.40305 0.18519 0.81276
 C2089 C 0.41644 0.19328 0.80448
 C2090 C 0.43008 0.19883 0.81347
 C2091 C 0.44294 0.20695 0.80540
 C2092 C 0.44221 0.20954 0.78832
 C2093 C 0.42861 0.20392 0.77933
 C2094 C 0.41576 0.19581 0.78739
 C2095 C 0.45527 0.21815 0.78002
 C2096 C 0.46607 0.22545 0.77295
 H2097 H 0.43073 0.19695 0.82669
 H2098 H 0.45339 0.21126 0.81248
 H2099 H 0.42790 0.20588 0.76613
 H2100 H 0.40526 0.19159 0.78032
 C2101 C 0.89211 0.67873 0.82032
 C2102 C 0.90342 0.68545 0.81345
 C2103 C 0.91676 0.69356 0.80511
 C2104 C 0.91552 0.69705 0.78822
 C2105 C 0.92835 0.70515 0.78011
 C2106 C 0.94247 0.70980 0.78885
 C2107 C 0.94374 0.70628 0.80573
 C2108 C 0.93090 0.69817 0.81384
 C2109 C 0.95553 0.71837 0.78051
 C2110 C 0.96632 0.72564 0.77340
 H2111 H 0.90463 0.69357 0.78135
 H2112 H 0.92724 0.70784 0.76706
 H2113 H 0.95459 0.70984 0.81261
 H2114 H 0.93197 0.69556 0.82691
 C2115 C 0.89243 0.17868 0.32002
 C2116 C 0.90371 0.18546 0.31316
 C2117 C 0.91703 0.19363 0.30483
 C2118 C 0.91642 0.19586 0.28770
 C2119 C 0.92922 0.20400 0.27959
 C2120 C 0.94269 0.20994 0.28857
 C2121 C 0.94334 0.20766 0.30570
 C2122 C 0.93052 0.19952 0.31382
 C2123 C 0.95572 0.21852 0.28020
 C2124 C 0.96650 0.22579 0.27307
 H2125 H 0.90603 0.19137 0.28064
 H2126 H 0.92859 0.20571 0.26634
 H2127 H 0.95369 0.21222 0.31276
 H2128 H 0.93111 0.19788 0.32707
 C2129 C 0.32007 0.32081 0.60856
 C2130 C 0.31315 0.31404 0.59729
 C2131 C 0.30477 0.30585 0.58398
 C2132 C 0.28843 0.30079 0.58600
 C2133 C 0.28030 0.29266 0.57318
 C2134 C 0.28847 0.28956 0.55827
 C2135 C 0.30481 0.29466 0.55622
 C2136 C 0.31295 0.30280 0.56906
 C2137 C 0.28012 0.28101 0.54518
 C2138 C 0.27301 0.27377 0.53435
 H2139 H 0.28199 0.30307 0.59750
 H2140 H 0.26767 0.28875 0.57490
 H2141 H 0.31126 0.29231 0.54475
 H2142 H 0.32560 0.30665 0.56737
 C2143 C 0.31999 0.82098 0.10815
 C2144 C 0.31321 0.81423 0.09679
 C2145 C 0.30506 0.80604 0.08334
 C2146 C 0.29256 0.81408 0.07456
 C2147 C 0.28442 0.80598 0.06171
 C2148 C 0.28876 0.78982 0.05758
 C2149 C 0.30131 0.78181 0.06632
 C2150 C 0.30944 0.78990 0.07917
 C2151 C 0.28018 0.78135 0.04458
 C2152 C 0.27295 0.77415 0.03380
 H2153 H 0.28905 0.82655 0.07770
 H2154 H 0.27471 0.81228 0.05505
 H2155 H 0.30474 0.76930 0.06326
 H2156 H 0.31907 0.78356 0.08590
 C2157 C 0.82057 0.32066 0.10806
 C2158 C 0.81380 0.31398 0.09665
 C2159 C 0.80561 0.30591 0.08316
 C2160 C 0.81238 0.29163 0.07623
 C2161 C 0.80422 0.28358 0.06337
 C2162 C 0.78927 0.28977 0.05737
 C2163 C 0.78255 0.30410 0.06424
 C2164 C 0.79070 0.31215 0.07710
 C2165 C 0.78068 0.28127 0.04440
 C2166 C 0.77340 0.27407 0.03366
 H2167 H 0.82389 0.28669 0.08083
 H2168 H 0.80951 0.27249 0.05817
 H2169 H 0.77097 0.30897 0.05972
 H2170 H 0.78535 0.32317 0.08238
 C2171 C 0.82066 0.82104 0.60875
 C2172 C 0.81392 0.81428 0.59737
 C2173 C 0.80579 0.80610 0.58390
 C2174 C 0.79136 0.81276 0.57716
 C2175 C 0.78326 0.80461 0.56432
 C2176 C 0.78955 0.78978 0.55817
 C2177 C 0.80403 0.78317 0.56485
 C2178 C 0.81213 0.79132 0.57769
 C2179 C 0.78101 0.78121 0.54521
 C2180 C 0.77378 0.77396 0.53446
 H2181 H 0.78633 0.82417 0.58190
 H2182 H 0.77206 0.80982 0.55927
 H2183 H 0.80899 0.77170 0.56020
 H2184 H 0.82326 0.78605 0.58283
 C2185 C 0.32100 0.67925 0.39075
 C2186 C 0.31431 0.68599 0.40219
 C2187 C 0.30624 0.69414 0.41573
 C2188 C 0.29227 0.68713 0.42301
 C2189 C 0.28421 0.69523 0.43593
 C2190 C 0.29009 0.71038 0.44162
 C2191 C 0.30411 0.71736 0.43441
 C2192 C 0.31217 0.70925 0.42149
 C2193 C 0.28158 0.71891 0.45465
 C2194 C 0.27437 0.72614 0.46546
 H2195 H 0.28757 0.67546 0.41863
 H2196 H 0.27337 0.68975 0.44140
 H2197 H 0.30874 0.72908 0.43869
 H2198 H 0.32294 0.71480 0.41593
 C2199 C 0.32086 0.17889 0.89084
 C2200 C 0.31417 0.18564 0.90227
 C2201 C 0.30607 0.19379 0.91580
 C2202 C 0.31185 0.20902 0.92141
 C2203 C 0.30377 0.21710 0.93433
 C2204 C 0.28990 0.21000 0.94169
 C2205 C 0.28417 0.19474 0.93614
 C2206 C 0.29225 0.18665 0.92322
 C2207 C 0.28138 0.21849 0.95474
 C2208 C 0.27416 0.22569 0.96556
 H2209 H 0.32251 0.21466 0.91574
 H2210 H 0.30828 0.22891 0.93851
 H2211 H 0.27344 0.18915 0.94173
 H2212 H 0.28766 0.17490 0.91895
 C2213 C 0.82124 0.67914 0.89152
 C2214 C 0.81450 0.68591 0.90291
 C2215 C 0.80634 0.69409 0.91639
 C2216 C 0.79249 0.68694 0.92377
 C2217 C 0.78435 0.69505 0.93663
 C2218 C 0.79002 0.71034 0.94217
 C2219 C 0.80391 0.71745 0.93485
 C2220 C 0.81206 0.70934 0.92198
 C2221 C 0.78142 0.71885 0.95515
 C2222 C 0.77412 0.72605 0.96591
 H2223 H 0.78795 0.67517 0.91952
 H2224 H 0.77360 0.68946 0.94218
 H2225 H 0.80838 0.72928 0.93901
 H2226 H 0.82274 0.71499 0.91635
 C2227 C 0.82175 0.17866 0.39140
 C2228 C 0.81502 0.18542 0.40280
 C2229 C 0.80689 0.19359 0.41630
 C2230 C 0.79292 0.18655 0.42356
 C2231 C 0.78480 0.19467 0.43643
 C2232 C 0.79061 0.20986 0.44209
 C2233 C 0.80463 0.21685 0.43489
 C2234 C 0.81275 0.20873 0.42202
 C2235 C 0.78204 0.21839 0.45507
 C2236 C 0.77477 0.22563 0.46583
 H2237 H 0.78827 0.17486 0.41920
 H2238 H 0.77396 0.18916 0.44189
 H2239 H 0.80921 0.22861 0.43916
 H2240 H 0.82352 0.21430 0.41648
 C2241 C 0.67994 0.32008 0.39120
 C2242 C 0.68668 0.31323 0.40253
 C2243 C 0.69481 0.30493 0.41593
 C2244 C 0.69426 0.28775 0.41700
 C2245 C 0.70239 0.27964 0.42985
 C2246 C 0.71111 0.28866 0.44169
 C2247 C 0.71161 0.30584 0.44067
 C2248 C 0.70347 0.31396 0.42781
 C2249 C 0.71970 0.28026 0.45474
 C2250 C 0.72695 0.27312 0.46556
 H2251 H 0.68762 0.28065 0.40787
 H2252 H 0.70195 0.26635 0.43051
 H2253 H 0.71833 0.31294 0.44975
 H2254 H 0.70399 0.32725 0.42709
 C2255 C 0.67934 0.82058 0.89144
 C2256 C 0.68608 0.81372 0.90277
 C2257 C 0.69420 0.80540 0.91616
 C2258 C 0.70331 0.81436 0.92775
 C2259 C 0.71141 0.80621 0.94061
 C2260 C 0.71043 0.78906 0.94192
 C2261 C 0.70126 0.78012 0.93036
 C2262 C 0.69317 0.78827 0.91751
 C2263 C 0.71899 0.78062 0.95496
 C2264 C 0.72622 0.77345 0.96577
 H2265 H 0.70421 0.82760 0.92681
 H2266 H 0.71849 0.81324 0.94946
 H2267 H 0.70044 0.76686 0.93124
 H2268 H 0.68618 0.78122 0.90861
 C2269 C 0.17902 0.32041 0.89172
 C2270 C 0.18577 0.31351 0.90301
 C2271 C 0.19394 0.30516 0.91636
 C2272 C 0.19308 0.28801 0.91757
 C2273 C 0.20126 0.27984 0.93035
 C2274 C 0.21034 0.28878 0.94198
 C2275 C 0.21114 0.30594 0.94082
 C2276 C 0.20295 0.31412 0.92804
 C2277 C 0.21899 0.28032 0.95495
 C2278 C 0.22630 0.27314 0.96570
 H2279 H 0.18617 0.28096 0.90860
 H2280 H 0.20058 0.26656 0.93112
 H2281 H 0.21814 0.31297 0.94974
 H2282 H 0.20371 0.32738 0.92720
 C2283 C 0.17990 0.82133 0.39139
 C2284 C 0.18668 0.81452 0.40272
 C2285 C 0.19485 0.80628 0.41614
 C2286 C 0.20902 0.81311 0.42318
 C2287 C 0.21715 0.80493 0.43600
 C2288 C 0.21113 0.78988 0.44182
 C2289 C 0.19691 0.78309 0.43483
 C2290 C 0.18878 0.79127 0.42201
 C2291 C 0.21968 0.78129 0.45477
 C2292 C 0.22689 0.77400 0.46552
 H2293 H 0.21382 0.82469 0.41872
 H2294 H 0.22815 0.81027 0.44130
 H2295 H 0.19217 0.77145 0.43921
 H2296 H 0.17785 0.78586 0.41664
 C2297 C 0.67939 0.67953 0.60916
 C2298 C 0.68614 0.68628 0.59779
 C2299 C 0.69429 0.69443 0.58432
 C2300 C 0.70869 0.68772 0.57756
 C2301 C 0.71679 0.69581 0.56468
 C2302 C 0.71052 0.71064 0.55852
 C2303 C 0.69608 0.71731 0.56524
 C2304 C 0.68798 0.70922 0.57811
 C2305 C 0.71904 0.71914 0.54551
 C2306 C 0.72624 0.72634 0.53470
 H2307 H 0.71369 0.67630 0.58229
 H2308 H 0.72796 0.69056 0.55960
 H2309 H 0.69115 0.72879 0.56058
 H2310 H 0.67687 0.71453 0.58327
 C2311 C 0.67948 0.17948 0.10862
 C2312 C 0.68616 0.18627 0.09723
 C2313 C 0.69422 0.19448 0.08374
 C2314 C 0.68803 0.20944 0.07782
 C2315 C 0.69604 0.21758 0.06492
 C2316 C 0.71026 0.21078 0.05788
 C2317 C 0.71641 0.19578 0.06375
 C2318 C 0.70840 0.18765 0.07666
 C2319 C 0.71868 0.21931 0.04482
 C2320 C 0.72582 0.22653 0.03399
 H2321 H 0.67709 0.21485 0.08324
 H2322 H 0.69120 0.22918 0.06049
 H2323 H 0.72742 0.19043 0.05842
 H2324 H 0.71331 0.17610 0.08116
 C2325 C 0.17863 0.67999 0.10852
 C2326 C 0.18534 0.68675 0.09712
 C2327 C 0.19343 0.69491 0.08363
 C2328 C 0.18794 0.71038 0.07837
 C2329 C 0.19600 0.71846 0.06546
 C2330 C 0.20959 0.71110 0.05776
 C2331 C 0.21504 0.69559 0.06297
 C2332 C 0.20698 0.68752 0.07588
 C2333 C 0.21810 0.71956 0.04472
 C2334 C 0.22532 0.72672 0.03390
 H2335 H 0.17750 0.71622 0.08430
 H2336 H 0.19171 0.73045 0.06156
 H2337 H 0.22556 0.68981 0.05712
 H2338 H 0.21135 0.67558 0.07986
 C2339 C 0.17900 0.17916 0.60895
 C2340 C 0.18587 0.18601 0.59771
 C2341 C 0.19419 0.19429 0.58442
 C2342 C 0.18947 0.19147 0.56803
 C2343 C 0.19755 0.19959 0.55515
 C2344 C 0.21038 0.21054 0.55862
 C2345 C 0.21511 0.21333 0.57501
 C2346 C 0.20703 0.20522 0.58788
 C2347 C 0.21871 0.21895 0.54542
 C2348 C 0.22580 0.22610 0.53451
 H2349 H 0.17955 0.18304 0.56521
 H2350 H 0.19380 0.19734 0.54252
 H2351 H 0.22501 0.22177 0.57783
 H2352 H 0.21078 0.20749 0.60050
   
