data_POSCAR
  _audit_creation_date              2014-09-24
  _audit_creation_method            'ToBaCCo'
  _symmetry_space_group_name_H-M    'P1'
  _symmetry_Int_Tables_number       1
  _symmetry_cell_setting            triclinic
  loop_
  _symmetry_equiv_pos_as_xyz
 x,y,z
_cell_length_a 62.7768
_cell_length_b 62.8492
_cell_length_c 63.0226
_cell_angle_alpha 89.977800
_cell_angle_beta 89.977200
_cell_angle_gamma 89.915600
loop_
  _atom_site_label
  _atom_site_type_symbol
  _atom_site_fract_x
  _atom_site_fract_y
  _atom_site_fract_z
N1 N 0.36547 0.30627 0.32157
 N2 N 0.36520 0.32117 0.30689
 C3 C 0.38158 0.31794 0.29344
 C4 C 0.39252 0.30014 0.30015
 C5 C 0.38200 0.29309 0.31799
 H6 H 0.38529 0.32772 0.27981
 H7 H 0.38605 0.27941 0.32761
 Cu8 Cu 0.34329 0.34309 0.30692
 Cu9 Cu 0.34429 0.30495 0.34412
 Cu10 Cu 0.30509 0.34407 0.34404
 N11 N 0.32133 0.36497 0.30682
 N12 N 0.30639 0.36523 0.32147
 C13 C 0.29320 0.38175 0.31786
 C14 C 0.30028 0.39225 0.30001
 C15 C 0.31812 0.38132 0.29334
 H16 H 0.27951 0.38581 0.32747
 H17 H 0.32794 0.38502 0.27974
 N18 N 0.30653 0.32128 0.36554
 N19 N 0.32144 0.30641 0.36557
 C20 C 0.31804 0.29318 0.38206
 C21 C 0.30021 0.30011 0.39276
 C22 C 0.29327 0.31789 0.38202
 H23 H 0.32773 0.27951 0.38601
 H24 H 0.27958 0.32758 0.38596
 H25 H 0.32018 0.31989 0.32763
 H26 H 0.33727 0.33704 0.34469
 N27 N 0.36617 0.80642 -0.17871
 N28 N 0.36589 0.82130 -0.19341
 C29 C 0.38236 0.81814 -0.20679
 C30 C 0.39331 0.80036 -0.20002
 C31 C 0.38276 0.79327 -0.18221
 H32 H 0.38609 0.82794 -0.22041
 H33 H 0.38680 0.77960 -0.17258
 Cu34 Cu 0.34384 0.84316 -0.19350
 Cu35 Cu 0.34495 0.80502 -0.15622
 Cu36 Cu 0.30570 0.84412 -0.15635
 N37 N 0.32186 0.86515 -0.19357
 N38 N 0.30694 0.86540 -0.17890
 C39 C 0.29373 0.88194 -0.18247
 C40 C 0.30080 0.89252 -0.20031
 C41 C 0.31866 0.88158 -0.20700
 H42 H 0.28003 0.88595 -0.17283
 H43 H 0.32852 0.88530 -0.22058
 N44 N 0.30711 0.82125 -0.13485
 N45 N 0.32204 0.80639 -0.13482
 C46 C 0.31867 0.79316 -0.11831
 C47 C 0.30083 0.80006 -0.10759
 C48 C 0.29387 0.81784 -0.11834
 H49 H 0.32842 0.77954 -0.11433
 H50 H 0.28019 0.82751 -0.11438
 H51 H 0.32082 0.81979 -0.17272
 H52 H 0.33793 0.83698 -0.15574
 N53 N 0.86514 0.30712 -0.17857
 N54 N 0.86489 0.32202 -0.19323
 C55 C 0.88128 0.31881 -0.20668
 C56 C 0.89220 0.30098 -0.20000
 C57 C 0.88166 0.29392 -0.18217
 H58 H 0.88501 0.32860 -0.22030
 H59 H 0.88567 0.28021 -0.17259
 Cu60 Cu 0.84299 0.34397 -0.19322
 Cu61 Cu 0.84395 0.30581 -0.15605
 Cu62 Cu 0.80481 0.34500 -0.15601
 N63 N 0.82109 0.36590 -0.19321
 N64 N 0.80617 0.36620 -0.17854
 C65 C 0.79301 0.38276 -0.18212
 C66 C 0.80013 0.39325 -0.19995
 C67 C 0.81794 0.38230 -0.20666
 H68 H 0.77930 0.38681 -0.17252
 H69 H 0.82777 0.38597 -0.22028
 N70 N 0.80621 0.32213 -0.13456
 N71 N 0.82110 0.30723 -0.13459
 C72 C 0.81770 0.29398 -0.11812
 C73 C 0.79990 0.30090 -0.10738
 C74 C 0.79297 0.31872 -0.11807
 H75 H 0.82739 0.28030 -0.11420
 H76 H 0.77930 0.32842 -0.11409
 H77 H 0.81973 0.32082 -0.17248
 H78 H 0.83689 0.33790 -0.15545
 N79 N 0.86520 0.80693 0.32144
 N80 N 0.86494 0.82181 0.30675
 C81 C 0.88131 0.81855 0.29328
 C82 C 0.89223 0.80074 0.30000
 C83 C 0.88172 0.79372 0.31786
 H84 H 0.88501 0.82831 0.27964
 H85 H 0.88575 0.78003 0.32747
 Cu86 Cu 0.84302 0.84373 0.30677
 Cu87 Cu 0.84404 0.80565 0.34400
 Cu88 Cu 0.80481 0.84474 0.34396
 N89 N 0.82106 0.86561 0.30670
 N90 N 0.80613 0.86589 0.32137
 C91 C 0.79291 0.88239 0.31775
 C92 C 0.80000 0.89286 0.29988
 C93 C 0.81784 0.88195 0.29320
 H94 H 0.77921 0.88644 0.32736
 H95 H 0.82766 0.88563 0.27958
 N96 N 0.80629 0.82194 0.36547
 N97 N 0.82121 0.80708 0.36548
 C98 C 0.81780 0.79381 0.38194
 C99 C 0.79996 0.80069 0.39265
 C100 C 0.79302 0.81850 0.38194
 H101 H 0.82749 0.78012 0.38585
 H102 H 0.77930 0.82815 0.38587
 H103 H 0.81980 0.82060 0.32751
 H104 H 0.83690 0.83777 0.34454
 N105 N 0.63459 0.69369 0.32165
 N106 N 0.63486 0.67878 0.30700
 C107 C 0.61849 0.68199 0.29355
 C108 C 0.60755 0.69979 0.30024
 C109 C 0.61805 0.70685 0.31807
 H110 H 0.61478 0.67221 0.27993
 H111 H 0.61398 0.72052 0.32769
 Cu112 Cu 0.65677 0.65689 0.30703
 Cu113 Cu 0.65575 0.69502 0.34419
 Cu114 Cu 0.69496 0.65592 0.34415
 N115 N 0.67873 0.63504 0.30694
 N116 N 0.69367 0.63478 0.32158
 C117 C 0.70687 0.61827 0.31797
 C118 C 0.69980 0.60778 0.30013
 C119 C 0.68196 0.61870 0.29347
 H120 H 0.72055 0.61420 0.32758
 H121 H 0.67214 0.61499 0.27987
 N122 N 0.69350 0.67872 0.36563
 N123 N 0.67858 0.69359 0.36563
 C124 C 0.68196 0.70682 0.38211
 C125 C 0.69978 0.69991 0.39282
 C126 C 0.70674 0.68213 0.38211
 H127 H 0.67225 0.72048 0.38606
 H128 H 0.72044 0.67245 0.38605
 H129 H 0.67990 0.68007 0.32773
 H130 H 0.66280 0.66293 0.34480
 N131 N 0.63454 0.19338 -0.17841
 N132 N 0.63483 0.17847 -0.19306
 C133 C 0.61839 0.18164 -0.20647
 C134 C 0.60742 0.19942 -0.19976
 C135 C 0.61796 0.20651 -0.18196
 H136 H 0.61468 0.17184 -0.22007
 H137 H 0.61388 0.22019 -0.17236
 Cu138 Cu 0.65682 0.15659 -0.19311
 Cu139 Cu 0.65573 0.19477 -0.15592
 Cu140 Cu 0.69499 0.15567 -0.15601
 N141 N 0.67881 0.13467 -0.19320
 N142 N 0.69375 0.13442 -0.17856
 C143 C 0.70696 0.11788 -0.18217
 C144 C 0.69987 0.10735 -0.20001
 C145 C 0.68200 0.11828 -0.20666
 H146 H 0.72066 0.11384 -0.17257
 H147 H 0.67213 0.11458 -0.22023
 N148 N 0.69354 0.17854 -0.13453
 N149 N 0.67861 0.19340 -0.13452
 C150 C 0.68198 0.20666 -0.11806
 C151 C 0.69981 0.19979 -0.10735
 C152 C 0.70678 0.18199 -0.11805
 H153 H 0.67224 0.22030 -0.11412
 H154 H 0.72049 0.17234 -0.11409
 H155 H 0.67987 0.17993 -0.17238
 H156 H 0.66278 0.16278 -0.15533
 N157 N 0.13465 0.69360 -0.17841
 N158 N 0.13487 0.67867 -0.19305
 C159 C 0.11850 0.68191 -0.20650
 C160 C 0.10761 0.69974 -0.19982
 C161 C 0.11814 0.70681 -0.18201
 H162 H 0.11476 0.67211 -0.22010
 H163 H 0.11412 0.72051 -0.17243
 Cu164 Cu 0.15673 0.65673 -0.19300
 Cu165 Cu 0.15582 0.69491 -0.15590
 Cu166 Cu 0.19492 0.65569 -0.15589
 N167 N 0.17861 0.63481 -0.19305
 N168 N 0.19355 0.63453 -0.17841
 C169 C 0.20670 0.61798 -0.18200
 C170 C 0.19959 0.60748 -0.19981
 C171 C 0.18179 0.61844 -0.20650
 H172 H 0.22040 0.61390 -0.17241
 H173 H 0.17196 0.61474 -0.22009
 N174 N 0.19354 0.67852 -0.13446
 N175 N 0.17867 0.69344 -0.13447
 C176 C 0.18212 0.70670 -0.11803
 C177 C 0.19993 0.69975 -0.10733
 C178 C 0.20682 0.68192 -0.11801
 H179 H 0.17246 0.72040 -0.11410
 H180 H 0.22049 0.67222 -0.11408
 H181 H 0.17994 0.67986 -0.17237
 H182 H 0.16278 0.66279 -0.15526
 N183 N 0.13455 0.19359 0.32155
 N184 N 0.13483 0.17871 0.30687
 C185 C 0.11846 0.18193 0.29342
 C186 C 0.10751 0.19972 0.30014
 C187 C 0.11801 0.20676 0.31798
 H188 H 0.11475 0.17216 0.27980
 H189 H 0.11392 0.22041 0.32761
 Cu190 Cu 0.15674 0.15681 0.30689
 Cu191 Cu 0.15570 0.19490 0.34409
 Cu192 Cu 0.19490 0.15579 0.34403
 N193 N 0.17869 0.13496 0.30679
 N194 N 0.19362 0.13468 0.32144
 C195 C 0.20681 0.11817 0.31783
 C196 C 0.19975 0.10769 0.29997
 C197 C 0.18192 0.11863 0.29330
 H198 H 0.22048 0.11408 0.32744
 H199 H 0.17211 0.11493 0.27970
 N200 N 0.19343 0.17856 0.36552
 N201 N 0.17852 0.19344 0.36554
 C202 C 0.18190 0.20665 0.38203
 C203 C 0.19972 0.19973 0.39273
 C204 C 0.20667 0.18195 0.38200
 H205 H 0.17220 0.22031 0.38598
 H206 H 0.22037 0.17227 0.38594
 H207 H 0.17985 0.17995 0.32762
 H208 H 0.16272 0.16280 0.34467
 N209 N 0.63446 0.30641 0.67844
 N210 N 0.63471 0.32130 0.69310
 C211 C 0.61831 0.31810 0.70655
 C212 C 0.60738 0.30033 0.69984
 C213 C 0.61793 0.29326 0.68200
 H214 H 0.61458 0.32789 0.72017
 H215 H 0.61389 0.27961 0.67238
 Cu216 Cu 0.65663 0.34319 0.69306
 Cu217 Cu 0.65566 0.30506 0.65590
 Cu218 Cu 0.69484 0.34410 0.65593
 N219 N 0.67859 0.36505 0.69314
 N220 N 0.69353 0.36528 0.67849
 C221 C 0.70672 0.38177 0.68209
 C222 C 0.69965 0.39230 0.69993
 C223 C 0.68181 0.38140 0.70661
 H224 H 0.72041 0.38578 0.67247
 H225 H 0.67199 0.38512 0.72022
 N226 N 0.69341 0.32128 0.63444
 N227 N 0.67851 0.30644 0.63444
 C228 C 0.68191 0.29320 0.61796
 C229 C 0.69974 0.30007 0.60725
 C230 C 0.70667 0.31785 0.61796
 H231 H 0.67221 0.27956 0.61402
 H232 H 0.72035 0.32749 0.61401
 H233 H 0.67980 0.31997 0.67235
 H234 H 0.66268 0.33713 0.65528
 N235 N 0.63465 0.80682 1.17864
 N236 N 0.63490 0.82172 1.19330
 C237 C 0.61852 0.81854 1.20676
 C238 C 0.60758 0.80077 1.20006
 C239 C 0.61811 0.79369 1.18222
 H240 H 0.61482 0.82833 1.22038
 H241 H 0.61407 0.78002 1.17262
 Cu242 Cu 0.65681 0.84354 1.19326
 Cu243 Cu 0.65586 0.80548 1.15611
 Cu244 Cu 0.69505 0.84447 1.15610
 N245 N 0.67873 0.86533 1.19329
 N246 N 0.69367 0.86556 1.17864
 C247 C 0.70686 0.88201 1.18223
 C248 C 0.69977 0.89250 1.20006
 C249 C 0.68194 0.88165 1.20675
 H250 H 0.72057 0.88604 1.17264
 H251 H 0.67214 0.88538 1.22037
 N252 N 0.69361 0.82169 1.13466
 N253 N 0.67871 0.80686 1.13465
 C254 C 0.68213 0.79362 1.11818
 C255 C 0.69996 0.80050 1.10749
 C256 C 0.70688 0.81827 1.11819
 H257 H 0.67244 0.77997 1.11423
 H258 H 0.72057 0.82791 1.11426
 H259 H 0.68010 0.82045 1.17258
 H260 H 0.66298 0.83764 1.15551
 N261 N 0.13459 0.30696 1.17859
 N262 N 0.13481 0.32188 1.19322
 C263 C 0.11844 0.31870 1.20669
 C264 C 0.10753 0.30089 1.20003
 C265 C 0.11808 0.29379 1.18221
 H266 H 0.11472 0.32851 1.22029
 H267 H 0.11407 0.28010 1.17263
 Cu268 Cu 0.15667 0.34376 1.19307
 Cu269 Cu 0.15580 0.30560 1.15605
 Cu270 Cu 0.19495 0.34466 1.15595
 N271 N 0.17859 0.36556 1.19313
 N272 N 0.19353 0.36578 1.17848
 C273 C 0.20671 0.38226 1.18206
 C274 C 0.19960 0.39277 1.19987
 C275 C 0.18178 0.38190 1.20657
 H276 H 0.22042 0.38627 1.17247
 H277 H 0.17198 0.38564 1.22019
 N278 N 0.19352 0.32183 1.13454
 N279 N 0.17864 0.30697 1.13458
 C280 C 0.18207 0.29370 1.11813
 C281 C 0.19988 0.30058 1.10741
 C282 C 0.20679 0.31838 1.11808
 H283 H 0.17240 0.28003 1.11422
 H284 H 0.22047 0.32803 1.11413
 H285 H 0.18003 0.32066 1.17248
 H286 H 0.16290 0.33776 1.15533
 N287 N 0.13468 0.80695 0.67841
 N288 N 0.13494 0.82184 0.69307
 C289 C 0.11857 0.81865 0.70655
 C290 C 0.10764 0.80087 0.69988
 C291 C 0.11816 0.79380 0.68202
 H292 H 0.11488 0.82845 0.72018
 H293 H 0.11412 0.78013 0.67243
 Cu294 Cu 0.15682 0.84369 0.69299
 Cu295 Cu 0.15588 0.80562 0.65586
 Cu296 Cu 0.19503 0.84465 0.65580
 N297 N 0.17872 0.86549 0.69300
 N298 N 0.19364 0.86574 0.67834
 C299 C 0.20682 0.88220 0.68192
 C300 C 0.19974 0.89268 0.69976
 C301 C 0.18193 0.88182 0.70647
 H302 H 0.22054 0.88623 0.67233
 H303 H 0.17215 0.88553 0.72011
 N304 N 0.19360 0.82187 0.63437
 N305 N 0.17871 0.80702 0.63438
 C306 C 0.18212 0.79379 0.61789
 C307 C 0.19993 0.80069 0.60718
 C308 C 0.20685 0.81847 0.61789
 H309 H 0.17244 0.78014 0.61395
 H310 H 0.22053 0.82813 0.61394
 H311 H 0.18013 0.82063 0.67230
 H312 H 0.16298 0.83779 0.65523
 N313 N 0.36543 0.69357 0.67845
 N314 N 0.36517 0.67864 0.69310
 C315 C 0.38155 0.68182 0.70656
 C316 C 0.39248 0.69963 0.69991
 C317 C 0.38195 0.70672 0.68207
 H318 H 0.38527 0.67200 0.72017
 H319 H 0.38598 0.72042 0.67249
 Cu320 Cu 0.34327 0.65673 0.69307
 Cu321 Cu 0.34425 0.69493 0.65591
 Cu322 Cu 0.30516 0.65577 0.65585
 N323 N 0.32138 0.63481 0.69305
 N324 N 0.30648 0.63455 0.67837
 C325 C 0.29334 0.61801 0.68194
 C326 C 0.30042 0.60747 0.69977
 C327 C 0.31821 0.61841 0.70648
 H328 H 0.27967 0.61398 0.67232
 H329 H 0.32802 0.61470 0.72009
 N330 N 0.30655 0.67864 0.63442
 N331 N 0.32140 0.69353 0.63445
 C332 C 0.31798 0.70679 0.61798
 C333 C 0.30019 0.69988 0.60725
 C334 C 0.29330 0.68206 0.61794
 H335 H 0.32765 0.72046 0.61405
 H336 H 0.27965 0.67239 0.61396
 H337 H 0.32006 0.67997 0.67231
 H338 H 0.33728 0.66287 0.65529
 N339 N 0.36553 0.19298 1.17850
 N340 N 0.36528 0.17808 1.19316
 C341 C 0.38171 0.18118 1.20655
 C342 C 0.39265 0.19897 1.19987
 C343 C 0.38209 0.20609 1.18206
 H344 H 0.38545 0.17133 1.22013
 H345 H 0.38612 0.21979 1.17248
 Cu346 Cu 0.34336 0.15625 1.19313
 Cu347 Cu 0.34427 0.19437 1.15601
 Cu348 Cu 0.30513 0.15533 1.15597
 N349 N 0.32149 0.13441 1.19310
 N350 N 0.30658 0.13417 1.17844
 C351 C 0.29345 0.11765 1.18198
 C352 C 0.30058 0.10711 1.19976
 C353 C 0.31836 0.11799 1.20648
 H354 H 0.27974 0.11363 1.17239
 H355 H 0.32819 0.11422 1.22007
 N356 N 0.30649 0.17819 1.13461
 N357 N 0.32137 0.19305 1.13461
 C358 C 0.31795 0.20630 1.11814
 C359 C 0.30013 0.19940 1.10744
 C360 C 0.29323 0.18161 1.11814
 H361 H 0.32764 0.21994 1.11417
 H362 H 0.27958 0.17192 1.11419
 H363 H 0.31998 0.17937 1.17249
 H364 H 0.33716 0.16222 1.15543
 N365 N 0.86536 0.69313 1.17860
 N366 N 0.86511 0.67822 1.19325
 C367 C 0.88150 0.68138 1.20671
 C368 C 0.89241 0.69919 1.20004
 C369 C 0.88187 0.70628 1.18221
 H370 H 0.88522 0.67157 1.22032
 H371 H 0.88588 0.71999 1.17263
 Cu372 Cu 0.84322 0.65637 1.19319
 Cu373 Cu 0.84413 0.69448 1.15608
 Cu374 Cu 0.80501 0.65538 1.15602
 N375 N 0.82137 0.63451 1.19318
 N376 N 0.80646 0.63425 1.17853
 C377 C 0.79332 0.61774 1.18211
 C378 C 0.80044 0.60723 1.19992
 C379 C 0.81823 0.61813 1.20662
 H380 H 0.77962 0.61370 1.17253
 H381 H 0.82803 0.61440 1.22024
 N382 N 0.80640 0.67823 1.13462
 N383 N 0.82127 0.69311 1.13463
 C384 C 0.81784 0.70636 1.11817
 C385 C 0.80004 0.69946 1.10746
 C386 C 0.79314 0.68165 1.11815
 H387 H 0.82751 0.72002 1.11423
 H388 H 0.77949 0.67197 1.11420
 H389 H 0.81983 0.67946 1.17248
 H390 H 0.83701 0.66235 1.15543
 N391 N 0.86496 0.19332 0.67871
 N392 N 0.86489 0.17829 0.69325
 C393 C 0.88137 0.18142 0.70658
 C394 C 0.89217 0.19931 0.69996
 C395 C 0.88146 0.20650 0.68227
 H396 H 0.88525 0.17149 0.72006
 H397 H 0.88539 0.22024 0.67271
 Cu398 Cu 0.84322 0.15621 0.69314
 Cu399 Cu 0.84372 0.19460 0.65622
 Cu400 Cu 0.80497 0.15526 0.65584
 N401 N 0.82125 0.13447 0.69308
 N402 N 0.80640 0.13416 0.67835
 C403 C 0.79325 0.11766 0.68191
 C404 C 0.80029 0.10721 0.69977
 C405 C 0.81804 0.11812 0.70653
 H406 H 0.77958 0.11362 0.67229
 H407 H 0.82778 0.11442 0.72020
 N408 N 0.80630 0.17812 0.63449
 N409 N 0.82097 0.19318 0.63470
 C410 C 0.81755 0.20642 0.61823
 C411 C 0.79995 0.19932 0.60732
 C412 C 0.79317 0.18141 0.61790
 H413 H 0.82713 0.22018 0.61438
 H414 H 0.77967 0.17157 0.61379
 H415 H 0.81956 0.17908 0.67261
 H416 H 0.83697 0.16226 0.65542
 N417 N 0.30644 0.36549 0.67834
 N418 N 0.32137 0.36523 0.69299
 C419 C 0.31821 0.38164 0.70639
 C420 C 0.30037 0.39255 0.69971
 C421 C 0.29326 0.38202 0.68192
 H422 H 0.32800 0.38533 0.72001
 H423 H 0.27955 0.38605 0.67233
 Cu424 Cu 0.34312 0.34318 0.69301
 Cu425 Cu 0.30502 0.34425 0.65586
 Cu426 Cu 0.34418 0.30509 0.65588
 N427 N 0.36516 0.32143 0.69300
 N428 N 0.36541 0.30650 0.67837
 C429 C 0.38192 0.29331 0.68196
 C430 C 0.39247 0.30040 0.69976
 C431 C 0.38157 0.31824 0.70643
 H432 H 0.38594 0.27959 0.67239
 H433 H 0.38528 0.32802 0.72004
 N434 N 0.32130 0.30648 0.63449
 N435 N 0.30640 0.32137 0.63447
 C436 C 0.29316 0.31797 0.61800
 C437 C 0.30008 0.30016 0.60732
 C438 C 0.31790 0.29323 0.61803
 H439 H 0.27949 0.32767 0.61403
 H440 H 0.32760 0.27957 0.61408
 H441 H 0.31993 0.32001 0.67235
 H442 H 0.33712 0.33715 0.65533
 N443 N 0.30671 0.86574 0.17808
 N444 N 0.32163 0.86548 0.19273
 C445 C 0.31844 0.88187 0.20616
 C446 C 0.30064 0.89280 0.19945
 C447 C 0.29354 0.88228 0.18164
 H448 H 0.32824 0.88557 0.21977
 H449 H 0.27984 0.88633 0.17205
 Cu450 Cu 0.34353 0.84359 0.19275
 Cu451 Cu 0.30535 0.84455 0.15558
 Cu452 Cu 0.34450 0.80539 0.15568
 N453 N 0.36539 0.82166 0.19284
 N454 N 0.36565 0.80673 0.17822
 C455 C 0.38215 0.79353 0.18185
 C456 C 0.39265 0.80062 0.19968
 C457 C 0.38174 0.81845 0.20632
 H458 H 0.38619 0.77981 0.17230
 H459 H 0.38545 0.82826 0.21992
 N460 N 0.32168 0.80680 0.13422
 N461 N 0.30679 0.82169 0.13418
 C462 C 0.29353 0.81825 0.11772
 C463 C 0.30045 0.80041 0.10708
 C464 C 0.31827 0.79351 0.11780
 H465 H 0.27984 0.82792 0.11376
 H466 H 0.32794 0.77981 0.11391
 H467 H 0.32030 0.82044 0.17212
 H468 H 0.33746 0.83753 0.15501
 N469 N 0.80665 0.36581 0.17818
 N470 N 0.82158 0.36553 0.19282
 C471 C 0.81844 0.38193 0.20624
 C472 C 0.80065 0.39289 0.19955
 C473 C 0.79352 0.38238 0.18175
 H474 H 0.82827 0.38563 0.21984
 H475 H 0.77981 0.38644 0.17217
 Cu476 Cu 0.84345 0.34361 0.19284
 Cu477 Cu 0.80526 0.34461 0.15570
 Cu478 Cu 0.84439 0.30542 0.15575
 N479 N 0.86532 0.32170 0.19287
 N480 N 0.86558 0.30677 0.17825
 C481 C 0.88212 0.29360 0.18186
 C482 C 0.89264 0.30071 0.19967
 C483 C 0.88172 0.31853 0.20632
 H484 H 0.88616 0.27989 0.17230
 H485 H 0.88544 0.32835 0.21991
 N486 N 0.82153 0.30683 0.13432
 N487 N 0.80665 0.32174 0.13430
 C488 C 0.79339 0.31833 0.11784
 C489 C 0.80029 0.30050 0.10717
 C490 C 0.81811 0.29357 0.11788
 H491 H 0.77972 0.32803 0.11388
 H492 H 0.82779 0.27988 0.11395
 H493 H 0.82021 0.32043 0.17218
 H494 H 0.83737 0.33750 0.15510
 N495 N 0.80670 0.86596 0.67822
 N496 N 0.82158 0.86567 0.69292
 C497 C 0.81839 0.88209 0.70631
 C498 C 0.80061 0.89308 0.69958
 C499 C 0.79354 0.88253 0.68176
 H500 H 0.82818 0.88579 0.71993
 H501 H 0.77981 0.88653 0.67218
 Cu502 Cu 0.84352 0.84376 0.69309
 Cu503 Cu 0.80531 0.84470 0.65579
 Cu504 Cu 0.84410 0.80526 0.65616
 N505 N 0.86532 0.82173 0.69301
 N506 N 0.86539 0.80666 0.67852
 C507 C 0.88195 0.79349 0.68205
 C508 C 0.89270 0.80075 0.69965
 C509 C 0.88189 0.81865 0.70627
 H510 H 0.88587 0.77970 0.67256
 H511 H 0.88581 0.82862 0.71969
 N512 N 0.82128 0.80664 0.63473
 N513 N 0.80660 0.82173 0.63450
 C514 C 0.79348 0.81843 0.61790
 C515 C 0.80029 0.80048 0.60735
 C516 C 0.81790 0.79338 0.61827
 H517 H 0.78000 0.82830 0.61374
 H518 H 0.82754 0.77964 0.61442
 H519 H 0.82000 0.82070 0.67258
 H520 H 0.83741 0.83745 0.65538
 N521 N 0.69359 0.63448 0.67858
 N522 N 0.67869 0.63476 0.69327
 C523 C 0.68186 0.61835 0.70667
 C524 C 0.69965 0.60737 0.69995
 C525 C 0.70674 0.61790 0.68211
 H526 H 0.67200 0.61462 0.72023
 H527 H 0.72041 0.61382 0.67247
 Cu528 Cu 0.65655 0.65649 0.69326
 Cu529 Cu 0.69484 0.65566 0.65607
 Cu530 Cu 0.65572 0.69477 0.65609
 N531 N 0.63484 0.67863 0.69329
 N532 N 0.63456 0.69353 0.67862
 C533 C 0.61800 0.70669 0.68217
 C534 C 0.60747 0.69962 0.70000
 C535 C 0.61842 0.68183 0.70671
 H536 H 0.61393 0.72036 0.67254
 H537 H 0.61469 0.67198 0.72027
 N538 N 0.67854 0.69336 0.63462
 N539 N 0.69344 0.67848 0.63461
 C540 C 0.70669 0.68190 0.61813
 C541 C 0.69977 0.69972 0.60743
 C542 C 0.68195 0.70663 0.61816
 H543 H 0.72038 0.67221 0.61417
 H544 H 0.67226 0.72031 0.61423
 H545 H 0.67975 0.67969 0.67267
 H546 H 0.66260 0.66259 0.65552
 N547 N 0.69365 0.13398 0.17823
 N548 N 0.67871 0.13422 0.19288
 C549 C 0.68190 0.11783 0.20632
 C550 C 0.69971 0.10689 0.19961
 C551 C 0.70682 0.11744 0.18180
 H552 H 0.67208 0.11411 0.21993
 H553 H 0.72055 0.11342 0.17222
 Cu554 Cu 0.65678 0.15611 0.19286
 Cu555 Cu 0.69500 0.15520 0.15572
 Cu556 Cu 0.65584 0.19436 0.15581
 N557 N 0.63490 0.17805 0.19297
 N558 N 0.63466 0.19300 0.17834
 C559 C 0.61814 0.20618 0.18197
 C560 C 0.60761 0.19908 0.19978
 C561 C 0.61853 0.18125 0.20644
 H562 H 0.61412 0.21992 0.17242
 H563 H 0.61480 0.17143 0.22004
 N564 N 0.67868 0.19297 0.13434
 N565 N 0.69358 0.17808 0.13430
 C566 C 0.70686 0.18155 0.11784
 C567 C 0.69994 0.19940 0.10719
 C568 C 0.68211 0.20628 0.11792
 H569 H 0.72056 0.17189 0.11389
 H570 H 0.67244 0.21998 0.11403
 H571 H 0.67999 0.17932 0.17224
 H572 H 0.66287 0.16226 0.15512
 N573 N 0.19326 0.63433 0.17807
 N574 N 0.17835 0.63462 0.19275
 C575 C 0.18145 0.61816 0.20612
 C576 C 0.19926 0.60721 0.19942
 C577 C 0.20640 0.61776 0.18163
 H578 H 0.17163 0.61446 0.21974
 H579 H 0.22017 0.61378 0.17209
 Cu580 Cu 0.15655 0.65664 0.19278
 Cu581 Cu 0.19468 0.65558 0.15561
 Cu582 Cu 0.15558 0.69480 0.15565
 N583 N 0.13457 0.67848 0.19279
 N584 N 0.13432 0.69340 0.17814
 C585 C 0.11777 0.70657 0.18172
 C586 C 0.10720 0.69944 0.19951
 C587 C 0.11811 0.68161 0.20618
 H588 H 0.11382 0.72034 0.17220
 H589 H 0.11439 0.67179 0.21979
 N590 N 0.17850 0.69341 0.13426
 N591 N 0.19336 0.67849 0.13424
 C592 C 0.20665 0.68191 0.11778
 C593 C 0.19977 0.69975 0.10709
 C594 C 0.18195 0.70668 0.11781
 H595 H 0.22031 0.67219 0.11382
 H596 H 0.17227 0.72037 0.11387
 H597 H 0.17980 0.67984 0.17214
 H598 H 0.16258 0.66275 0.15512
 N599 N 0.19322 0.13404 0.67837
 N600 N 0.17831 0.13431 0.69305
 C601 C 0.18145 0.11784 0.70641
 C602 C 0.19926 0.10686 0.69970
 C603 C 0.20636 0.11745 0.68190
 H604 H 0.17161 0.11410 0.72000
 H605 H 0.22006 0.11342 0.67229
 Cu606 Cu 0.15640 0.15628 0.69306
 Cu607 Cu 0.19459 0.15531 0.65588
 Cu608 Cu 0.15545 0.19450 0.65595
 N609 N 0.13446 0.17819 0.69308
 N610 N 0.13421 0.19311 0.67843
 C611 C 0.11764 0.20626 0.68197
 C612 C 0.10706 0.19915 0.69976
 C613 C 0.11799 0.18134 0.70645
 H614 H 0.11360 0.21996 0.67238
 H615 H 0.11423 0.17150 0.72003
 N616 N 0.17833 0.19314 0.63453
 N617 N 0.19321 0.17824 0.63450
 C618 C 0.20644 0.18164 0.61799
 C619 C 0.19951 0.19946 0.60730
 C620 C 0.18171 0.20639 0.61805
 H621 H 0.22009 0.17193 0.61398
 H622 H 0.17198 0.22003 0.61410
 H623 H 0.17965 0.17946 0.67237
 H624 H 0.16247 0.16240 0.65533
 N625 N 0.30645 0.63438 0.32147
 N626 N 0.32139 0.63463 0.30681
 C627 C 0.31824 0.61825 0.29339
 C628 C 0.30043 0.60733 0.30007
 C629 C 0.29331 0.61785 0.31789
 H630 H 0.32807 0.61452 0.27979
 H631 H 0.27962 0.61381 0.32750
 Cu632 Cu 0.34328 0.65651 0.30680
 Cu633 Cu 0.30507 0.65556 0.34398
 Cu634 Cu 0.34421 0.69465 0.34395
 N635 N 0.36519 0.67839 0.30679
 N636 N 0.36543 0.69330 0.32144
 C637 C 0.38197 0.70644 0.31786
 C638 C 0.39253 0.69936 0.30004
 C639 C 0.38161 0.68156 0.29336
 H640 H 0.38599 0.72011 0.32746
 H641 H 0.38535 0.67175 0.27975
 N642 N 0.32133 0.69328 0.36539
 N643 N 0.30645 0.67842 0.36540
 C644 C 0.29319 0.68185 0.38189
 C645 C 0.30011 0.69964 0.39258
 C646 C 0.31792 0.70653 0.38186
 H647 H 0.27953 0.67218 0.38586
 H648 H 0.32761 0.72017 0.38579
 H649 H 0.32001 0.67970 0.32754
 H650 H 0.33716 0.66256 0.34458
 N651 N 0.30638 0.13411 0.82171
 N652 N 0.32128 0.13440 0.80703
 C653 C 0.31816 0.11799 0.79362
 C654 C 0.30037 0.10705 0.80033
 C655 C 0.29325 0.11757 0.81815
 H656 H 0.32800 0.11426 0.78003
 H657 H 0.27957 0.11352 0.82776
 Cu658 Cu 0.34317 0.15628 0.80703
 Cu659 Cu 0.30498 0.15528 0.84424
 Cu660 Cu 0.34407 0.19439 0.84420
 N661 N 0.36507 0.17818 0.80703
 N662 N 0.36531 0.19306 0.82170
 C663 C 0.38185 0.20620 0.81816
 C664 C 0.39243 0.19913 0.80034
 C665 C 0.38151 0.18134 0.79363
 H666 H 0.38585 0.21987 0.82776
 H667 H 0.38527 0.17154 0.78003
 N668 N 0.32120 0.19302 0.86564
 N669 N 0.30634 0.17814 0.86566
 C670 C 0.29310 0.18154 0.88217
 C671 C 0.30002 0.19933 0.89287
 C672 C 0.31780 0.20624 0.88213
 H673 H 0.27946 0.17184 0.88615
 H674 H 0.32750 0.21988 0.88608
 H675 H 0.31986 0.17944 0.82775
 H676 H 0.33706 0.16230 0.84478
 N677 N 0.80698 0.63422 0.82196
 N678 N 0.82174 0.63460 0.80714
 C679 C 0.81851 0.61823 0.79369
 C680 C 0.80079 0.60722 0.80050
 C681 C 0.79384 0.61768 0.81844
 H682 H 0.82823 0.61459 0.77998
 H683 H 0.78022 0.61361 0.82813
 Cu684 Cu 0.84358 0.65659 0.80710
 Cu685 Cu 0.80568 0.65537 0.84455
 Cu686 Cu 0.84474 0.69452 0.84449
 N687 N 0.86552 0.67847 0.80708
 N688 N 0.86587 0.69324 0.82188
 C689 C 0.88238 0.70641 0.81831
 C690 C 0.89283 0.69949 0.80037
 C691 C 0.88187 0.68175 0.79359
 H692 H 0.88642 0.72004 0.82797
 H693 H 0.88554 0.67206 0.77989
 N694 N 0.82192 0.69309 0.86599
 N695 N 0.80706 0.67820 0.86601
 C696 C 0.79371 0.68171 0.88241
 C697 C 0.80054 0.69957 0.89303
 C698 C 0.81840 0.70643 0.88236
 H699 H 0.78000 0.67209 0.88632
 H700 H 0.82800 0.72015 0.88623
 H701 H 0.82042 0.67974 0.82810
 H702 H 0.83773 0.66252 0.84489
 N703 N 0.80674 0.13398 0.32158
 N704 N 0.82163 0.13429 0.30689
 C705 C 0.81848 0.11791 0.29344
 C706 C 0.80072 0.10694 0.30017
 C707 C 0.79363 0.11743 0.31802
 H708 H 0.82827 0.11422 0.27979
 H709 H 0.77996 0.11336 0.32764
 Cu710 Cu 0.84345 0.15624 0.30681
 Cu711 Cu 0.80526 0.15516 0.34408
 Cu712 Cu 0.84401 0.19463 0.34366
 N713 N 0.86527 0.17820 0.30673
 N714 N 0.86531 0.19327 0.32122
 C715 C 0.88183 0.20643 0.31766
 C716 C 0.89258 0.19922 0.30001
 C717 C 0.88179 0.18130 0.29341
 H718 H 0.88575 0.22017 0.32720
 H719 H 0.88572 0.17136 0.27995
 N720 N 0.82119 0.19321 0.36514
 N721 N 0.80654 0.17812 0.36539
 C722 C 0.79342 0.18142 0.38200
 C723 C 0.80020 0.19934 0.39256
 C724 C 0.81779 0.20645 0.38162
 H725 H 0.77996 0.17155 0.38617
 H726 H 0.82739 0.22018 0.38548
 H727 H 0.81986 0.17917 0.32745
 H728 H 0.83729 0.16242 0.34460
 N729 N 0.69363 0.36553 0.32143
 N730 N 0.67867 0.36533 0.30681
 C731 C 0.68184 0.38172 0.29338
 C732 C 0.69966 0.39260 0.30006
 C733 C 0.70678 0.38205 0.31785
 H734 H 0.67201 0.38548 0.27981
 H735 H 0.72046 0.38609 0.32746
 Cu736 Cu 0.65673 0.34349 0.30685
 Cu737 Cu 0.69498 0.34440 0.34399
 Cu738 Cu 0.65559 0.30560 0.34422
 N739 N 0.63480 0.32162 0.30684
 N740 N 0.63443 0.30685 0.32164
 C741 C 0.61794 0.29366 0.31805
 C742 C 0.60754 0.30055 0.30006
 C743 C 0.61852 0.31829 0.29329
 H744 H 0.61387 0.28004 0.32773
 H745 H 0.61493 0.32795 0.27955
 N746 N 0.67843 0.30695 0.36566
 N747 N 0.69349 0.32163 0.36551
 C748 C 0.70684 0.31809 0.38188
 C749 C 0.69981 0.30039 0.39268
 C750 C 0.68184 0.29368 0.38212
 H751 H 0.72066 0.32759 0.38569
 H752 H 0.67209 0.28010 0.38612
 H753 H 0.67989 0.32033 0.32765
 H754 H 0.66291 0.33773 0.34463
 N755 N 0.69350 0.86582 0.82177
 N756 N 0.67857 0.86559 0.80711
 C757 C 0.68177 0.88195 0.79366
 C758 C 0.69962 0.89281 0.80031
 C759 C 0.70671 0.88229 0.81814
 H760 H 0.67198 0.88564 0.78004
 H761 H 0.72044 0.88629 0.82770
 Cu762 Cu 0.65667 0.84370 0.80705
 Cu763 Cu 0.69487 0.84465 0.84428
 Cu764 Cu 0.65573 0.80559 0.84432
 N765 N 0.63471 0.82186 0.80716
 N766 N 0.63448 0.80696 0.82183
 C767 C 0.61797 0.79378 0.81825
 C768 C 0.60742 0.80085 0.80042
 C769 C 0.61832 0.81867 0.79374
 H770 H 0.61398 0.78007 0.82783
 H771 H 0.61463 0.82845 0.78011
 N772 N 0.67860 0.80695 0.86574
 N773 N 0.69349 0.82181 0.86573
 C774 C 0.70677 0.81837 0.88219
 C775 C 0.69987 0.80057 0.89289
 C776 C 0.68204 0.79369 0.88220
 H777 H 0.72046 0.82801 0.88611
 H778 H 0.67237 0.78003 0.88615
 H779 H 0.67997 0.82048 0.82784
 H780 H 0.66282 0.83762 0.84486
 N781 N 0.19323 0.36543 0.82174
 N782 N 0.17832 0.36518 0.80707
 C783 C 0.18148 0.38161 0.79367
 C784 C 0.19928 0.39253 0.80038
 C785 C 0.20637 0.38197 0.81819
 H786 H 0.17165 0.38535 0.78008
 H787 H 0.22006 0.38598 0.82780
 Cu788 Cu 0.15643 0.34326 0.80707
 Cu789 Cu 0.19459 0.34421 0.84426
 Cu790 Cu 0.15546 0.30512 0.84426
 N791 N 0.13448 0.32140 0.80709
 N792 N 0.13422 0.30650 0.82176
 C793 C 0.11767 0.29337 0.81822
 C794 C 0.10710 0.30046 0.80041
 C795 C 0.11804 0.31825 0.79369
 H796 H 0.11365 0.27969 0.82783
 H797 H 0.11429 0.32807 0.78010
 N798 N 0.17835 0.30647 0.86568
 N799 N 0.19322 0.32133 0.86568
 C800 C 0.20647 0.31793 0.88217
 C801 C 0.19955 0.30014 0.89289
 C802 C 0.18175 0.29323 0.88218
 H803 H 0.22011 0.32761 0.88614
 H804 H 0.17206 0.27960 0.88615
 H805 H 0.17968 0.32003 0.82781
 H806 H 0.16249 0.33718 0.84483
 N807 N 0.19335 0.86579 0.32142
 N808 N 0.17844 0.86554 0.30675
 C809 C 0.18163 0.88192 0.29332
 C810 C 0.19943 0.89282 0.30003
 C811 C 0.20653 0.88228 0.31784
 H812 H 0.17183 0.88564 0.27970
 H813 H 0.22029 0.88623 0.32738
 Cu814 Cu 0.15663 0.84358 0.30675
 Cu815 Cu 0.19475 0.84460 0.34392
 Cu816 Cu 0.15562 0.80554 0.34395
 N817 N 0.13462 0.82180 0.30677
 N818 N 0.13436 0.80692 0.32145
 C819 C 0.11785 0.79375 0.31789
 C820 C 0.10728 0.80083 0.30007
 C821 C 0.11821 0.81862 0.29334
 H822 H 0.11390 0.78001 0.32744
 H823 H 0.11451 0.82841 0.27972
 N824 N 0.17850 0.80690 0.36537
 N825 N 0.19338 0.82176 0.36536
 C826 C 0.20664 0.81835 0.38183
 C827 C 0.19973 0.80057 0.39255
 C828 C 0.18192 0.79367 0.38186
 H829 H 0.22030 0.82803 0.38578
 H830 H 0.17224 0.78002 0.38583
 H831 H 0.17989 0.82038 0.32744
 H832 H 0.16269 0.83758 0.34443
 C833 C 0.25798 1.01938 0.24205
 C834 C 0.24202 1.01941 0.25775
 C835 C 0.23418 1.00005 0.26547
 C836 C 0.24205 0.98069 0.25770
 C837 C 0.25802 0.98069 0.24200
 C838 C 0.26585 1.00004 0.23428
 H839 H 0.27814 1.00006 0.22216
 H840 H 0.22190 1.00005 0.27758
 C841 C 0.25789 0.51931 0.74214
 C842 C 0.24194 0.51931 0.75786
 C843 C 0.23409 0.49995 0.76562
 C844 C 0.24191 0.48056 0.75789
 C845 C 0.25787 0.48055 0.74217
 C846 C 0.26572 0.49991 0.73441
 H847 H 0.27799 0.49988 0.72228
 H848 H 0.22181 0.49998 0.77775
 C849 C 0.75827 -0.01979 0.25806
 C850 C 0.74233 -0.01976 0.24236
 C851 C 0.73448 -0.00042 0.23456
 C852 C 0.74229 0.01894 0.24226
 C853 C 0.75824 0.01895 0.25798
 C854 C 0.76609 -0.00042 0.26577
 H855 H 0.77836 -0.00041 0.27789
 H856 H 0.72220 -0.00044 0.22244
 C857 C 0.75812 0.48040 0.75811
 C858 C 0.74216 0.48041 0.74239
 C859 C 0.73433 0.49981 0.73466
 C860 C 0.74215 0.51919 0.74240
 C861 C 0.75811 0.51918 0.75812
 C862 C 0.76595 0.49978 0.76585
 H863 H 0.77822 0.49976 0.77797
 H864 H 0.72205 0.49983 0.72254
 C865 C 0.25797 0.48061 0.25780
 C866 C 0.24202 0.48065 0.24209
 C867 C 0.23417 0.50001 0.23433
 C868 C 0.24198 0.51936 0.24205
 C869 C 0.25794 0.51935 0.25777
 C870 C 0.26579 0.49997 0.26553
 H871 H 0.27807 0.49996 0.27764
 H872 H 0.22189 0.50000 0.22221
 C873 C 0.75771 1.01970 0.74244
 C874 C 0.74175 1.01977 0.75816
 C875 C 0.73396 1.00037 0.76588
 C876 C 0.74186 0.98099 0.75811
 C877 C 0.75781 0.98098 0.74238
 C878 C 0.76559 1.00035 0.73466
 H879 H 0.77786 1.00037 0.72252
 H880 H 0.72170 1.00035 0.77801
 C881 C 0.75794 0.51942 0.24220
 C882 C 0.74199 0.51944 0.25791
 C883 C 0.73417 0.50008 0.26565
 C884 C 0.74202 0.48072 0.25788
 C885 C 0.75798 0.48072 0.24216
 C886 C 0.76579 0.50008 0.23443
 H887 H 0.77807 0.50009 0.22230
 H888 H 0.72190 0.50009 0.27778
 C889 C 0.25849 -0.01993 0.75803
 C890 C 0.24249 -0.01986 0.74235
 C891 C 0.23455 -0.00050 0.73462
 C892 C 0.24230 0.01888 0.74232
 C893 C 0.25828 0.01887 0.75801
 C894 C 0.26623 -0.00051 0.76575
 H895 H 0.27852 -0.00049 0.77784
 H896 H 0.22225 -0.00053 0.72252
 C897 C 0.24204 0.25784 1.01951
 C898 C 0.25782 0.24189 1.01951
 C899 C 0.26558 0.23403 1.00019
 C900 C 0.25779 0.24186 0.98087
 C901 C 0.24198 0.25779 0.98087
 C902 C 0.23424 0.26566 1.00020
 H903 H 0.22207 0.27794 1.00020
 H904 H 0.27774 0.22175 1.00020
 C905 C 0.24214 0.75823 0.51919
 C906 C 0.25795 0.74230 0.51919
 C907 C 0.26571 0.73444 0.49987
 C908 C 0.25791 0.74225 0.48055
 C909 C 0.24210 0.75818 0.48055
 C910 C 0.23434 0.76603 0.49987
 H911 H 0.22215 0.77830 0.49987
 H912 H 0.27789 0.72218 0.49988
 C913 C 0.25832 0.75788 -0.01949
 C914 C 0.24242 0.74208 -0.01948
 C915 C 0.23456 0.73432 -0.00016
 C916 C 0.24234 0.74211 0.01916
 C917 C 0.25822 0.75792 0.01916
 C918 C 0.26608 0.76567 -0.00016
 H919 H 0.27832 0.77785 -0.00016
 H920 H 0.22232 0.72215 -0.00016
 C921 C 0.25783 0.25779 0.48075
 C922 C 0.24198 0.24195 0.48075
 C923 C 0.23416 0.23415 0.50006
 C924 C 0.24194 0.24193 0.51939
 C925 C 0.25780 0.25777 0.51939
 C926 C 0.26561 0.26557 0.50008
 H927 H 0.27782 0.27778 0.50008
 H928 H 0.22195 0.22195 0.50006
 C929 C 0.74215 0.75803 1.01949
 C930 C 0.75793 0.74207 1.01948
 C931 C 0.76572 0.73426 1.00016
 C932 C 0.75797 0.74214 0.98084
 C933 C 0.74216 0.75807 0.98086
 C934 C 0.73438 0.76589 1.00018
 H935 H 0.72221 0.77817 1.00020
 H936 H 0.77789 0.72198 1.00015
 C937 C 0.74202 0.25762 0.51922
 C938 C 0.75784 0.24170 0.51922
 C939 C 0.76566 0.23390 0.49991
 C940 C 0.75791 0.24175 0.48058
 C941 C 0.74208 0.25766 0.48058
 C942 C 0.73427 0.26547 0.49990
 H943 H 0.72208 0.27773 0.49990
 H944 H 0.77785 0.22164 0.49991
 C945 C 0.75783 0.25821 -0.01938
 C946 C 0.74204 0.24230 -0.01938
 C947 C 0.73431 0.23443 -0.00005
 C948 C 0.74210 0.24220 0.01928
 C949 C 0.75789 0.25810 0.01928
 C950 C 0.76563 0.26598 -0.00005
 H951 H 0.77779 0.27823 -0.00004
 H952 H 0.72215 0.22217 -0.00005
 C953 C 0.75787 0.75819 0.48076
 C954 C 0.74205 0.74231 0.48077
 C955 C 0.73429 0.73448 0.50010
 C956 C 0.74208 0.74226 0.51943
 C957 C 0.75791 0.75813 0.51941
 C958 C 0.76567 0.76596 0.50008
 H959 H 0.77786 0.77819 0.50008
 H960 H 0.72210 0.72225 0.50010
 C961 C 1.01940 0.24223 0.25783
 C962 C 1.01938 0.25824 0.24218
 C963 C 0.99998 0.26605 0.23445
 C964 C 0.98061 0.25814 0.24216
 C965 C 0.98063 0.24215 0.25782
 C966 C 1.00004 0.23433 0.26554
 H967 H 1.00007 0.22202 0.27761
 H968 H 0.99995 0.27836 0.22237
 C969 C 0.51924 0.24191 0.75792
 C970 C 0.51922 0.25785 0.74220
 C971 C 0.49981 0.26566 0.73447
 C972 C 0.48044 0.25780 0.74222
 C973 C 0.48045 0.24186 0.75793
 C974 C 0.49986 0.23405 0.76567
 H975 H 0.49989 0.22178 0.77778
 H976 H 0.49978 0.27793 0.72235
 C977 C -0.01975 0.25795 0.75785
 C978 C -0.01973 0.24192 0.74223
 C979 C -0.00032 0.23406 0.73453
 C980 C 0.01906 0.24192 0.74224
 C981 C 0.01905 0.25791 0.75789
 C982 C -0.00036 0.26579 0.76557
 H983 H -0.00039 0.27811 0.77764
 H984 H -0.00030 0.22175 0.72246
 C985 C 0.48071 0.25762 0.25786
 C986 C 0.48071 0.24162 0.24221
 C987 C 0.50011 0.23378 0.23447
 C988 C 0.51950 0.24165 0.24216
 C989 C 0.51950 0.25765 0.25782
 C990 C 0.50009 0.26549 0.26555
 H991 H 0.50007 0.27779 0.27762
 H992 H 0.50012 0.22148 0.22240
 C993 C 1.01953 0.74235 0.75786
 C994 C 1.01952 0.75833 0.74219
 C995 C 1.00012 0.76615 0.73445
 C996 C 0.98074 0.75828 0.74217
 C997 C 0.98075 0.74233 0.75788
 C998 C 1.00015 0.73449 0.76560
 H999 H 1.00017 0.72220 0.77770
 H1000 H 1.00010 0.77843 0.72234
 C1001 C 0.51941 0.74221 0.25791
 C1002 C 0.51942 0.75820 0.24224
 C1003 C 0.50003 0.76602 0.23449
 C1004 C 0.48065 0.75813 0.24218
 C1005 C 0.48064 0.74215 0.25785
 C1006 C 0.50003 0.73433 0.26560
 H1007 H 0.50005 0.72202 0.27769
 H1008 H 0.50002 0.77832 0.22240
 C1009 C -0.01957 0.75808 0.25781
 C1010 C -0.01956 0.74205 0.24219
 C1011 C -0.00015 0.73422 0.23445
 C1012 C 0.01923 0.74211 0.24212
 C1013 C 0.01923 0.75811 0.25777
 C1014 C -0.00018 0.76596 0.26549
 H1015 H -0.00021 0.77828 0.27755
 H1016 H -0.00014 0.72190 0.22239
 C1017 C 0.48048 0.75821 0.75811
 C1018 C 0.48051 0.74226 0.74241
 C1019 C 0.49993 0.73443 0.73468
 C1020 C 0.51932 0.74226 0.74242
 C1021 C 0.51930 0.75822 0.75812
 C1022 C 0.49987 0.76605 0.76584
 H1023 H 0.49984 0.77832 0.77794
 H1024 H 0.49996 0.72215 0.72259
 C1025 C 0.41106 0.29082 0.29056
 C1026 C 0.42670 0.28297 0.28268
 C1027 C 0.44516 0.27386 0.27370
 C1028 C 0.46117 0.26629 0.26630
 C1029 C 0.41087 0.79151 0.79091
 C1030 C 0.42649 0.78362 0.78301
 C1031 C 0.44493 0.77446 0.77399
 C1032 C 0.46093 0.76687 0.76657
 C1033 C -0.08930 0.29158 0.79038
 C1034 C -0.07371 0.28363 0.78251
 C1035 C -0.05528 0.27438 0.77356
 C1036 C -0.03929 0.26671 0.76622
 C1037 C -0.08923 0.79138 0.29042
 C1038 C -0.07360 0.78350 0.28256
 C1039 C -0.05513 0.77436 0.27361
 C1040 C -0.03912 0.76676 0.26623
 C1041 C 0.58901 0.70909 0.29066
 C1042 C 0.57338 0.71692 0.28278
 C1043 C 0.55493 0.72601 0.27378
 C1044 C 0.53893 0.73357 0.26637
 C1045 C 0.58887 0.20873 0.79066
 C1046 C 0.57324 0.21659 0.78278
 C1047 C 0.55478 0.22571 0.77379
 C1048 C 0.53878 0.23327 0.76638
 C1049 C 1.08910 0.70909 0.79058
 C1050 C 1.07349 0.71696 0.78268
 C1051 C 1.05505 0.72609 0.77369
 C1052 C 1.03906 0.73368 0.76629
 C1053 C 1.08898 0.20903 0.29056
 C1054 C 1.07336 0.21689 0.28267
 C1055 C 1.05492 0.22600 0.27367
 C1056 C 1.03893 0.23358 0.26627
 C1057 C 0.58882 0.29102 0.70941
 C1058 C 0.57319 0.28318 0.71730
 C1059 C 0.55473 0.27409 0.72630
 C1060 C 0.53874 0.26652 0.73372
 C1061 C 0.58903 0.79148 0.20966
 C1062 C 0.57340 0.78365 0.21753
 C1063 C 0.55494 0.77452 0.22649
 C1064 C 0.53894 0.76692 0.23385
 C1065 C 1.08899 0.29159 0.20962
 C1066 C 1.07336 0.28374 0.21749
 C1067 C 1.05490 0.27459 0.22643
 C1068 C 1.03891 0.26697 0.23379
 C1069 C 1.08911 0.79158 0.70949
 C1070 C 1.07349 0.78374 0.71738
 C1071 C 1.05504 0.77462 0.72637
 C1072 C 1.03904 0.76703 0.73376
 C1073 C 0.41099 0.70897 0.70956
 C1074 C 0.42658 0.71684 0.71748
 C1075 C 0.44500 0.72599 0.72651
 C1076 C 0.46098 0.73358 0.73394
 C1077 C 0.41118 0.20827 0.20950
 C1078 C 0.42677 0.21613 0.21741
 C1079 C 0.44520 0.22529 0.22642
 C1080 C 0.46118 0.23291 0.23381
 C1081 C -0.08908 0.70853 0.20965
 C1082 C -0.07349 0.71644 0.21753
 C1083 C -0.05506 0.72565 0.22647
 C1084 C -0.03909 0.73331 0.23382
 C1085 C -0.08927 0.20862 0.70951
 C1086 C -0.07366 0.21648 0.71739
 C1087 C -0.05523 0.22562 0.72639
 C1088 C -0.03925 0.23323 0.73379
 C1089 C 0.29099 0.41083 0.29044
 C1090 C 0.28319 0.42650 0.28257
 C1091 C 0.27415 0.44502 0.27362
 C1092 C 0.26662 0.46106 0.26625
 C1093 C 0.29194 -0.08986 0.79062
 C1094 C 0.28404 -0.07417 0.78275
 C1095 C 0.27487 -0.05561 0.77380
 C1096 C 0.26725 -0.03954 0.76645
 C1097 C 0.79133 0.41080 0.79095
 C1098 C 0.78349 0.42642 0.78302
 C1099 C 0.77437 0.44488 0.77400
 C1100 C 0.76679 0.46087 0.76658
 C1101 C 0.79121 -0.08957 0.29081
 C1102 C 0.78342 -0.07390 0.28292
 C1103 C 0.77440 -0.05538 0.27394
 C1104 C 0.76690 -0.03934 0.26655
 C1105 C 0.29111 0.58891 0.70936
 C1106 C 0.28326 0.57328 0.71725
 C1107 C 0.27415 0.55482 0.72624
 C1108 C 0.26657 0.53883 0.73366
 C1109 C 0.29125 1.08867 0.20935
 C1110 C 0.28338 1.07313 0.21725
 C1111 C 0.27424 1.05478 0.22625
 C1112 C 0.26664 1.03885 0.23364
 C1113 C 0.79114 0.58877 0.20951
 C1114 C 0.78328 0.57321 0.21739
 C1115 C 0.77416 0.55483 0.22637
 C1116 C 0.76658 0.53888 0.23377
 C1117 C 0.79094 1.08881 0.70940
 C1118 C 0.78307 1.07331 0.71737
 C1119 C 0.77393 1.05502 0.72646
 C1120 C 0.76634 1.03913 0.73395
 C1121 C 0.70907 0.58921 0.29057
 C1122 C 0.71685 0.57354 0.28271
 C1123 C 0.72587 0.55502 0.27375
 C1124 C 0.73337 0.53898 0.26637
 C1125 C 0.70866 1.08971 0.79091
 C1126 C 0.71647 1.07401 0.78302
 C1127 C 0.72553 1.05544 0.77403
 C1128 C 0.73307 1.03937 0.76664
 C1129 C 0.20886 0.58893 0.79060
 C1130 C 0.21667 0.57329 0.78271
 C1131 C 0.22574 0.55483 0.77373
 C1132 C 0.23329 0.53883 0.76632
 C1133 C 0.20903 1.08913 0.29039
 C1134 C 0.21682 1.07348 0.28253
 C1135 C 0.22586 1.05497 0.27357
 C1136 C 0.23337 1.03894 0.26620
 C1137 C 0.70898 0.41084 0.70954
 C1138 C 0.71683 0.42645 0.71744
 C1139 C 0.72593 0.44490 0.72647
 C1140 C 0.73350 0.46089 0.73391
 C1141 C 0.70910 -0.08907 0.20967
 C1142 C 0.71697 -0.07352 0.21756
 C1143 C 0.72609 -0.05516 0.22655
 C1144 C 0.73368 -0.03923 0.23394
 C1145 C 0.20889 0.41125 0.20943
 C1146 C 0.21673 0.42683 0.21730
 C1147 C 0.22582 0.44523 0.22626
 C1148 C 0.23338 0.46118 0.23365
 C1149 C 0.20910 -0.08894 0.70940
 C1150 C 0.21702 -0.07345 0.71735
 C1151 C 0.22621 -0.05517 0.72642
 C1152 C 0.23384 -0.03929 0.73388
 C1153 C 0.29078 0.29070 0.41129
 C1154 C 0.28293 0.28286 0.42689
 C1155 C 0.27389 0.27384 0.44532
 C1156 C 0.26641 0.26636 0.46129
 C1157 C 0.29143 0.79064 -0.08903
 C1158 C 0.28358 0.78281 -0.07340
 C1159 C 0.27450 0.77382 -0.05495
 C1160 C 0.26697 0.76638 -0.03898
 C1161 C 0.79050 0.29144 -0.08884
 C1162 C 0.78270 0.28354 -0.07324
 C1163 C 0.77374 0.27443 -0.05481
 C1164 C 0.76632 0.26687 -0.03885
 C1165 C 0.79056 0.79124 0.41119
 C1166 C 0.78277 0.78337 0.42682
 C1167 C 0.77381 0.77431 0.44528
 C1168 C 0.76639 0.76680 0.46127
 C1169 C 0.70915 0.29063 0.58872
 C1170 C 0.71698 0.28276 0.57311
 C1171 C 0.72600 0.27371 0.55467
 C1172 C 0.73346 0.26621 0.53870
 C1173 C 0.70939 0.79107 1.08897
 C1174 C 0.71722 0.78321 1.07337
 C1175 C 0.72621 0.77415 1.05494
 C1176 C 0.73364 0.76664 1.03897
 C1177 C 0.20933 0.29110 1.08893
 C1178 C 0.21716 0.28319 1.07335
 C1179 C 0.22614 0.27407 1.05494
 C1180 C 0.23356 0.26650 1.03898
 C1181 C 0.20936 0.79128 0.58865
 C1182 C 0.21720 0.78343 0.57305
 C1183 C 0.22619 0.77437 0.55461
 C1184 C 0.23363 0.76686 0.53865
 C1185 C 0.29078 0.70931 0.58871
 C1186 C 0.28295 0.71717 0.57310
 C1187 C 0.27395 0.72621 0.55465
 C1188 C 0.26650 0.73371 0.53867
 C1189 C 0.29069 0.20883 1.08893
 C1190 C 0.28283 0.21669 1.07334
 C1191 C 0.27381 0.22575 1.05493
 C1192 C 0.26635 0.23327 1.03897
 C1193 C 0.79061 0.70890 1.08895
 C1194 C 0.78279 0.71677 1.07334
 C1195 C 0.77383 0.72586 1.05491
 C1196 C 0.76642 0.73341 1.03894
 C1197 C 0.79059 0.20869 0.58874
 C1198 C 0.78279 0.21651 0.57310
 C1199 C 0.77381 0.22556 0.55465
 C1200 C 0.76636 0.23308 0.53869
 C1201 C 0.70920 0.70935 0.41134
 C1202 C 0.71703 0.71721 0.42693
 C1203 C 0.72604 0.72625 0.44535
 C1204 C 0.73350 0.73374 0.46131
 C1205 C 0.70921 0.20926 -0.08883
 C1206 C 0.71702 0.21716 -0.07324
 C1207 C 0.72602 0.22624 -0.05482
 C1208 C 0.73348 0.23374 -0.03886
 C1209 C 0.20940 0.70918 -0.08885
 C1210 C 0.21728 0.71703 -0.07328
 C1211 C 0.22634 0.72605 -0.05488
 C1212 C 0.23385 0.73353 -0.03894
 C1213 C 0.20912 0.20912 0.41126
 C1214 C 0.21695 0.21694 0.42687
 C1215 C 0.22596 0.22595 0.44531
 C1216 C 0.23342 0.23341 0.46128
 C1217 C 0.29103 0.41105 0.70933
 C1218 C 0.28318 0.42664 0.71725
 C1219 C 0.27407 0.44506 0.72629
 C1220 C 0.26651 0.46104 0.73371
 C1221 C 0.29131 0.91130 0.20906
 C1222 C 0.28345 0.92688 0.21699
 C1223 C 0.27431 0.94527 0.22605
 C1224 C 0.26670 0.96121 0.23351
 C1225 C 0.79133 0.41138 0.20918
 C1226 C 0.78345 0.42695 0.21713
 C1227 C 0.77429 0.44532 0.22620
 C1228 C 0.76666 0.46124 0.23367
 C1229 C 0.79122 0.91157 0.70923
 C1230 C 0.78332 0.92714 0.71722
 C1231 C 0.77414 0.94552 0.72635
 C1232 C 0.76651 0.96147 0.73385
 C1233 C 0.70894 0.58880 0.70954
 C1234 C 0.71676 0.57317 0.71747
 C1235 C 0.72586 0.55471 0.72650
 C1236 C 0.73345 0.53872 0.73392
 C1237 C 0.70904 0.08838 0.20923
 C1238 C 0.71690 0.07279 0.21717
 C1239 C 0.72602 0.05438 0.22625
 C1240 C 0.73361 0.03843 0.23373
 C1241 C 0.20864 0.58875 0.20908
 C1242 C 0.21652 0.57319 0.21704
 C1243 C 0.22567 0.55479 0.22610
 C1244 C 0.23329 0.53885 0.23356
 C1245 C 0.20863 0.08831 0.70932
 C1246 C 0.21657 0.07273 0.71726
 C1247 C 0.22582 0.05433 0.72635
 C1248 C 0.23352 0.03839 0.73383
 C1249 C 0.29112 0.58883 0.29047
 C1250 C 0.28327 0.57324 0.28258
 C1251 C 0.27415 0.55482 0.27360
 C1252 C 0.26658 0.53885 0.26620
 C1253 C 0.29110 0.08852 0.79073
 C1254 C 0.28332 0.07290 0.78284
 C1255 C 0.27431 0.05443 0.77385
 C1256 C 0.26684 0.03841 0.76646
 C1257 C 0.79140 0.58872 0.79091
 C1258 C 0.78350 0.57313 0.78302
 C1259 C 0.77435 0.55469 0.77402
 C1260 C 0.76677 0.53871 0.76660
 C1261 C 0.79142 0.08844 0.29059
 C1262 C 0.78357 0.07284 0.28272
 C1263 C 0.77446 0.05442 0.27376
 C1264 C 0.76688 0.03845 0.26639
 C1265 C 0.70893 0.41115 0.29050
 C1266 C 0.71675 0.42678 0.28264
 C1267 C 0.72582 0.44523 0.27369
 C1268 C 0.73338 0.46122 0.26631
 C1269 C 0.70892 0.91132 0.79072
 C1270 C 0.71674 0.92695 0.78285
 C1271 C 0.72578 0.94543 0.77391
 C1272 C 0.73328 0.96145 0.76655
 C1273 C 0.20863 0.41105 0.79076
 C1274 C 0.21650 0.42665 0.78285
 C1275 C 0.22564 0.44507 0.77381
 C1276 C 0.23323 0.46104 0.76638
 C1277 C 0.20881 0.91125 0.29039
 C1278 C 0.21670 0.92680 0.28247
 C1279 C 0.22583 0.94521 0.27349
 C1280 C 0.23340 0.96118 0.26612
 C1281 C 0.41094 0.29104 0.70938
 C1282 C 0.42652 0.28316 0.71731
 C1283 C 0.44493 0.27402 0.72635
 C1284 C 0.46091 0.26644 0.73377
 C1285 C 0.41114 0.79129 0.20931
 C1286 C 0.42674 0.78345 0.21723
 C1287 C 0.44516 0.77435 0.22627
 C1288 C 0.46114 0.76678 0.23371
 C1289 C 0.91113 0.29138 0.20930
 C1290 C 0.92671 0.28351 0.21724
 C1291 C 0.94512 0.27438 0.22627
 C1292 C 0.96109 0.26679 0.23371
 C1293 C 0.91125 0.79143 0.70922
 C1294 C 0.92684 0.78357 0.71715
 C1295 C 0.94525 0.77447 0.72622
 C1296 C 0.96122 0.76691 0.73369
 C1297 C 0.58906 0.29115 0.29043
 C1298 C 0.57346 0.28322 0.28255
 C1299 C 0.55502 0.27402 0.27359
 C1300 C 0.53904 0.26638 0.26622
 C1301 C 0.58889 0.79150 0.79082
 C1302 C 0.57328 0.78363 0.78294
 C1303 C 0.55483 0.77448 0.77397
 C1304 C 0.53883 0.76688 0.76657
 C1305 C 0.08858 0.29113 0.79079
 C1306 C 0.07299 0.28326 0.78286
 C1307 C 0.05456 0.27413 0.77381
 C1308 C 0.03858 0.26656 0.76637
 C1309 C 0.08880 0.79145 0.29043
 C1310 C 0.07322 0.78356 0.28253
 C1311 C 0.05477 0.77441 0.27355
 C1312 C 0.03877 0.76681 0.26618
 C1313 C 0.58892 0.70893 0.70962
 C1314 C 0.57330 0.71679 0.71754
 C1315 C 0.55485 0.72593 0.72657
 C1316 C 0.53886 0.73355 0.73398
 C1317 C 0.58908 0.20841 0.20940
 C1318 C 0.57347 0.21627 0.21730
 C1319 C 0.55502 0.22539 0.22630
 C1320 C 0.53902 0.23298 0.23371
 C1321 C 0.08874 0.70883 0.20919
 C1322 C 0.07316 0.71672 0.21715
 C1323 C 0.05474 0.72584 0.22621
 C1324 C 0.03876 0.73343 0.23365
 C1325 C 0.08855 0.20852 0.70938
 C1326 C 0.07296 0.21642 0.71731
 C1327 C 0.05456 0.22561 0.72635
 C1328 C 0.03859 0.23323 0.73379
 C1329 C 0.41107 0.70869 0.29045
 C1330 C 0.42668 0.71660 0.28258
 C1331 C 0.44512 0.72579 0.27362
 C1332 C 0.46110 0.73343 0.26625
 C1333 C 0.41094 0.20850 0.79073
 C1334 C 0.42652 0.21640 0.78281
 C1335 C 0.44494 0.22557 0.77379
 C1336 C 0.46092 0.23317 0.76638
 C1337 C 0.91129 0.70893 0.79073
 C1338 C 0.92685 0.71687 0.78280
 C1339 C 0.94525 0.72606 0.77377
 C1340 C 0.96122 0.73366 0.76634
 C1341 C 0.91114 0.20857 0.29046
 C1342 C 0.92674 0.21650 0.28261
 C1343 C 0.94516 0.22573 0.27364
 C1344 C 0.96112 0.23340 0.26625
 C1345 C 0.29067 0.29073 0.58881
 C1346 C 0.28283 0.28287 0.57322
 C1347 C 0.27381 0.27382 0.55481
 C1348 C 0.26634 0.26634 0.53886
 C1349 C 0.29103 0.79094 0.08859
 C1350 C 0.28320 0.78305 0.07301
 C1351 C 0.27420 0.77399 0.05459
 C1352 C 0.26675 0.76650 0.03863
 C1353 C 0.79085 0.29106 0.08867
 C1354 C 0.78299 0.28319 0.07309
 C1355 C 0.77394 0.27414 0.05469
 C1356 C 0.76646 0.26666 0.03874
 C1357 C 0.79092 0.79108 0.58880
 C1358 C 0.78309 0.78323 0.57320
 C1359 C 0.77403 0.77417 0.55480
 C1360 C 0.76651 0.76668 0.53887
 C1361 C 0.29069 0.70909 0.41110
 C1362 C 0.28287 0.71698 0.42670
 C1363 C 0.27388 0.72608 0.44513
 C1364 C 0.26643 0.73362 0.46108
 C1365 C 0.29061 0.20875 0.91141
 C1366 C 0.28279 0.21662 0.92702
 C1367 C 0.27378 0.22571 0.94545
 C1368 C 0.26632 0.23323 0.96141
 C1369 C 0.79100 0.70911 0.91145
 C1370 C 0.78309 0.71702 0.92700
 C1371 C 0.77402 0.72608 0.94540
 C1372 C 0.76653 0.73357 0.96136
 C1373 C 0.79084 0.20872 0.41115
 C1374 C 0.78302 0.21658 0.42677
 C1375 C 0.77399 0.22564 0.44519
 C1376 C 0.76649 0.23316 0.46113
 C1377 C 0.70928 0.29086 0.41114
 C1378 C 0.71712 0.28293 0.42672
 C1379 C 0.72612 0.27382 0.44513
 C1380 C 0.73356 0.26629 0.46110
 C1381 C 0.70931 0.79112 0.91140
 C1382 C 0.71715 0.78325 0.92700
 C1383 C 0.72616 0.77420 0.94544
 C1384 C 0.73362 0.76668 0.96140
 C1385 C 0.20898 0.29072 0.91143
 C1386 C 0.21683 0.28288 0.92704
 C1387 C 0.22589 0.27385 0.94546
 C1388 C 0.23339 0.26636 0.96141
 C1389 C 0.20916 0.79115 0.41109
 C1390 C 0.21701 0.78330 0.42670
 C1391 C 0.22604 0.77426 0.44512
 C1392 C 0.23353 0.76676 0.46108
 C1393 C 0.70920 0.70917 0.58890
 C1394 C 0.71704 0.71705 0.57330
 C1395 C 0.72607 0.72613 0.55487
 C1396 C 0.73354 0.73365 0.53891
 C1397 C 0.70938 0.20891 0.08870
 C1398 C 0.71720 0.21684 0.07312
 C1399 C 0.72618 0.22598 0.05471
 C1400 C 0.73361 0.23354 0.03875
 C1401 C 0.20924 0.70918 0.08859
 C1402 C 0.21713 0.71704 0.07300
 C1403 C 0.22621 0.72608 0.05459
 C1404 C 0.23373 0.73356 0.03864
 C1405 C 0.20892 0.20891 0.58878
 C1406 C 0.21678 0.21678 0.57319
 C1407 C 0.22584 0.22585 0.55479
 C1408 C 0.23335 0.23336 0.53885
   
