data_POSCAR
  _audit_creation_date              2014-09-24
  _audit_creation_method            'ToBaCCo'
  _symmetry_space_group_name_H-M    'P1'
  _symmetry_Int_Tables_number       1
  _symmetry_cell_setting            triclinic
  loop_
  _symmetry_equiv_pos_as_xyz
 x,y,z
_cell_length_a 67.4076
_cell_length_b 64.6485
_cell_length_c 67.6290
_cell_angle_alpha 90.048200
_cell_angle_beta 89.966000
_cell_angle_gamma 90.281300
loop_
  _atom_site_label
  _atom_site_type_symbol
  _atom_site_fract_x
  _atom_site_fract_y
  _atom_site_fract_z
C1 C 0.31365 0.31563 -0.01136
 C2 C 0.31485 0.31510 0.00876
 C3 C 0.30189 0.32825 0.02132
 C4 C 0.32946 0.30190 0.01923
 C5 C 0.32575 0.30192 -0.02424
 C6 C 0.30104 0.33102 -0.02156
 C7 C 0.31044 0.34175 0.03517
 C8 C 0.29849 0.35436 0.04693
 C9 C 0.27770 0.35361 0.04520
 C10 C 0.26916 0.33986 0.03146
 C11 C 0.28114 0.32724 0.01969
 C12 C 0.34975 0.30272 0.01449
 C13 C 0.36326 0.29006 0.02434
 C14 C 0.35680 0.27675 0.03947
 C15 C 0.33659 0.27632 0.04453
 C16 C 0.32305 0.28877 0.03449
 C17 C 0.32603 0.28045 -0.02154
 C18 C 0.33825 0.26796 -0.03320
 C19 C 0.35043 0.27650 -0.04831
 C20 C 0.34933 0.29822 -0.05117
 C21 C 0.33724 0.31059 -0.03936
 C22 C 0.28578 0.32437 -0.03416
 C23 C 0.27422 0.33879 -0.04426
 C24 C 0.27803 0.36007 -0.04221
 C25 C 0.29339 0.36669 -0.02964
 C26 C 0.30478 0.35227 -0.01935
 H27 H 0.32641 0.34275 0.03666
 H28 H 0.30556 0.36497 0.05717
 H29 H 0.25320 0.33866 0.03000
 H30 H 0.27424 0.31663 0.00935
 H31 H 0.35513 0.31318 0.00317
 H32 H 0.37882 0.29094 0.02041
 H33 H 0.30750 0.28801 0.03849
 H34 H 0.31677 0.27333 -0.01033
 H35 H 0.33721 0.25150 -0.03067
 H36 H 0.35866 0.30632 -0.06161
 H37 H 0.33736 0.32717 -0.04166
 H38 H 0.28284 0.30801 -0.03612
 H39 H 0.26261 0.33332 -0.05404
 H40 H 0.29655 0.38301 -0.02777
 H41 H 0.31667 0.35764 -0.00986
 H42 H 0.33124 0.26613 0.05608
 C43 C 0.68346 0.68420 -0.01244
 C44 C 0.68365 0.68416 0.00770
 C45 C 0.69807 0.67177 0.01923
 C46 C 0.66887 0.69602 0.01925
 C47 C 0.67003 0.69809 -0.02361
 C48 C 0.69640 0.67033 -0.02428
 C49 C 0.69111 0.65766 0.03340
 C50 C 0.70438 0.64543 0.04398
 C51 C 0.72494 0.64720 0.04078
 C52 C 0.73190 0.66166 0.02684
 C53 C 0.71858 0.67389 0.01621
 C54 C 0.64855 0.69156 0.01754
 C55 C 0.63472 0.70256 0.02871
 C56 C 0.64099 0.71828 0.04167
 C57 C 0.66135 0.72269 0.04335
 C58 C 0.67520 0.71151 0.03235
 C59 C 0.67083 0.71960 -0.02089
 C60 C 0.65796 0.73252 -0.03128
 C61 C 0.64408 0.72417 -0.04466
 C62 C 0.64354 0.70262 -0.04753
 C63 C 0.65646 0.68973 -0.03718
 C64 C 0.70791 0.67855 -0.03972
 C65 C 0.72015 0.66573 -0.05096
 C66 C 0.72115 0.64445 -0.04692
 C67 C 0.70945 0.63618 -0.03164
 C68 C 0.69699 0.64896 -0.02058
 H69 H 0.67534 0.65578 0.03594
 H70 H 0.69850 0.63424 0.05438
 H71 H 0.74765 0.66363 0.02426
 H72 H 0.72425 0.68496 0.00558
 H73 H 0.64345 0.67947 0.00763
 H74 H 0.61910 0.69894 0.02710
 H75 H 0.69084 0.71502 0.03393
 H76 H 0.68147 0.72637 -0.01075
 H77 H 0.65903 0.74906 -0.02901
 H78 H 0.63288 0.69566 -0.05752
 H79 H 0.65566 0.67316 -0.03948
 H80 H 0.70757 0.69496 -0.04292
 H81 H 0.72908 0.67249 -0.06262
 H82 H 0.70970 0.61976 -0.02848
 H83 H 0.68779 0.64216 -0.00916
 H84 H 0.66656 0.73459 0.05339
 C85 C 0.68959 0.30935 1.00826
 C86 C 0.68935 0.30631 0.98832
 C87 C 0.70307 0.31745 0.97478
 C88 C 0.67456 0.29240 0.97892
 C89 C 0.67585 0.29790 1.02155
 C90 C 0.70317 0.32450 1.01788
 C91 C 0.69521 0.32944 0.95941
 C92 C 0.70771 0.34102 0.94720
 C93 C 0.72837 0.34074 0.94997
 C94 C 0.73627 0.32822 0.96502
 C95 C 0.72373 0.31660 0.97726
 C96 C 0.65421 0.29667 0.98018
 C97 C 0.64040 0.28360 0.97107
 C98 C 0.64672 0.26601 0.96064
 C99 C 0.66712 0.26179 0.95942
 C100 C 0.68093 0.27500 0.96834
 C101 C 0.67571 0.27620 1.02217
 C102 C 0.66256 0.26569 1.03467
 C103 C 0.64942 0.27671 1.04689
 C104 C 0.64982 0.29845 1.04639
 C105 C 0.66295 0.30892 1.03391
 C106 C 0.71485 0.31821 1.03387
 C107 C 0.72736 0.33223 1.04348
 C108 C 0.72863 0.35309 1.03733
 C109 C 0.71675 0.35925 1.02115
 C110 C 0.70400 0.34522 1.01179
 H111 H 0.67932 0.33031 0.95725
 H112 H 0.70111 0.35070 0.93595
 H113 H 0.75214 0.32741 0.96733
 H114 H 0.73009 0.30715 0.98883
 H115 H 0.64907 0.31017 0.98813
 H116 H 0.62476 0.28714 0.97229
 H117 H 0.69660 0.27158 0.96714
 H118 H 0.68583 0.26742 1.01302
 H119 H 0.66285 0.24895 1.03495
 H120 H 0.63972 0.30740 1.05541
 H121 H 0.66287 0.32568 1.03366
 H122 H 0.71443 0.30227 1.03882
 H123 H 0.73656 0.32630 1.05525
 H124 H 0.71642 0.37515 1.01621
 H125 H 0.69460 0.35062 0.99991
 H126 H 0.67237 0.24847 0.95126
 C127 C 0.30990 0.69484 1.00996
 C128 C 0.30957 0.69443 0.98982
 C129 C 0.29551 0.68078 0.97895
 C130 C 0.32364 0.70682 0.97765
 C131 C 0.32273 0.70940 1.02128
 C132 C 0.29837 0.67954 1.02162
 C133 C 0.30275 0.66635 0.96528
 C134 C 0.28971 0.65329 0.95511
 C135 C 0.26912 0.65454 0.95829
 C136 C 0.26190 0.66921 0.97184
 C137 C 0.27497 0.68225 0.98202
 C138 C 0.34418 0.70606 0.98111
 C139 C 0.35726 0.71755 0.96939
 C140 C 0.35009 0.72959 0.95369
 C141 C 0.32959 0.73002 0.94999
 C142 C 0.31649 0.71876 0.96189
 C143 C 0.32256 0.73072 1.01752
 C144 C 0.33535 0.74406 1.02776
 C145 C 0.34851 0.73647 1.04231
 C146 C 0.34809 0.71498 1.04624
 C147 C 0.33538 0.70174 1.03592
 C148 C 0.28323 0.68609 1.03427
 C149 C 0.27235 0.67167 1.04528
 C150 C 0.27673 0.65032 1.04428
 C151 C 0.29228 0.64405 1.03161
 C152 C 0.30284 0.65847 1.02037
 H153 H 0.31856 0.66499 0.96271
 H154 H 0.29578 0.64198 0.94499
 H155 H 0.24612 0.67079 0.97437
 H156 H 0.26907 0.69357 0.99224
 H157 H 0.35010 0.69645 0.99279
 H158 H 0.37303 0.71668 0.97231
 H159 H 0.30073 0.71941 0.95885
 H160 H 0.31254 0.73705 1.00661
 H161 H 0.33427 0.76039 1.02457
 H162 H 0.35823 0.70791 1.05657
 H163 H 0.33587 0.68530 1.03900
 H164 H 0.27978 0.70238 1.03555
 H165 H 0.26111 0.67755 1.05520
 H166 H 0.29591 0.62790 1.02963
 H167 H 0.31457 0.65319 1.01066
 H168 H 0.32370 0.73926 0.93803
 C169 C -0.00964 0.31575 0.31580
 C170 C 0.01050 0.31503 0.31474
 C171 C 0.02206 0.30029 0.32695
 C172 C 0.02199 0.32980 0.30247
 C173 C -0.02164 0.32965 0.30308
 C174 C -0.02058 0.30336 0.33068
 C175 C 0.03633 0.30778 0.34026
 C176 C 0.04663 0.29417 0.35250
 C177 C 0.04300 0.27274 0.35155
 C178 C 0.02900 0.26524 0.33785
 C179 C 0.01868 0.27889 0.32562
 C180 C 0.02070 0.35116 0.30588
 C181 C 0.03211 0.36497 0.29472
 C182 C 0.04491 0.35762 0.27992
 C183 C 0.04612 0.33623 0.27651
 C184 C 0.03489 0.32241 0.28784
 C185 C -0.01952 0.32965 0.28246
 C186 C -0.03116 0.34261 0.27071
 C187 C -0.04553 0.35579 0.27925
 C188 C -0.04748 0.35552 0.30007
 C189 C -0.03577 0.34263 0.31173
 C190 C -0.03350 0.28760 0.32465
 C191 C -0.04379 0.27583 0.33865
 C192 C -0.04180 0.27995 0.35910
 C193 C -0.02884 0.29612 0.36489
 C194 C -0.01831 0.30756 0.35085
 H195 H 0.03912 0.32424 0.34152
 H196 H 0.05711 0.30048 0.36306
 H197 H 0.02611 0.24882 0.33651
 H198 H 0.00796 0.27279 0.31519
 H199 H 0.01100 0.35710 0.31731
 H200 H 0.03085 0.38140 0.29756
 H201 H 0.03617 0.30595 0.28516
 H202 H -0.00905 0.31935 0.27540
 H203 H -0.02936 0.34142 0.25486
 H204 H -0.05748 0.36580 0.30772
 H205 H -0.03757 0.34303 0.32764
 H206 H -0.03554 0.28435 0.30906
 H207 H -0.05398 0.26416 0.33324
 H208 H -0.02612 0.29957 0.38031
 H209 H -0.00835 0.31974 0.35571
 H210 H 0.05604 0.33019 0.26532
 C211 C -0.01493 0.68756 0.68410
 C212 C 0.00527 0.68661 0.68520
 C213 C 0.01820 0.70013 0.67288
 C214 C 0.01558 0.67167 0.69833
 C215 C -0.02791 0.67502 0.69731
 C216 C -0.02514 0.70089 0.66936
 C217 C 0.03226 0.69116 0.66027
 C218 C 0.04394 0.70352 0.64794
 C219 C 0.04195 0.72516 0.64810
 C220 C 0.02817 0.73416 0.66112
 C221 C 0.01646 0.72176 0.67346
 C222 C 0.01101 0.65044 0.69778
 C223 C 0.02082 0.63664 0.71026
 C224 C 0.03573 0.64374 0.72313
 C225 C 0.04059 0.66489 0.72333
 C226 C 0.03059 0.67872 0.71106
 C227 C -0.02583 0.67575 0.71791
 C228 C -0.03771 0.66331 0.73005
 C229 C -0.05228 0.64994 0.72192
 C230 C -0.05454 0.64989 0.70112
 C231 C -0.04256 0.66225 0.68907
 C232 C -0.04020 0.71427 0.67555
 C233 C -0.04997 0.72686 0.66194
 C234 C -0.04482 0.72657 0.64168
 C235 C -0.02974 0.71284 0.63561
 C236 C -0.02031 0.69996 0.64921
 H237 H 0.03383 0.67450 0.65962
 H238 H 0.05420 0.69606 0.63791
 H239 H 0.02651 0.75079 0.66184
 H240 H 0.00591 0.72899 0.68335
 H241 H -0.00010 0.64454 0.68765
 H242 H 0.01703 0.62035 0.70961
 H243 H 0.03446 0.69499 0.71161
 H244 H -0.01496 0.68596 0.72462
 H245 H -0.03577 0.66486 0.74585
 H246 H -0.06484 0.63958 0.69379
 H247 H -0.04439 0.66143 0.67318
 H248 H -0.04422 0.71519 0.69103
 H249 H -0.06095 0.73745 0.66765
 H250 H -0.02572 0.71121 0.62020
 H251 H -0.00926 0.68916 0.64395
 H252 H 0.05197 0.67076 0.73318
 C253 C 1.00767 0.68563 0.31521
 C254 C 0.98751 0.68731 0.31457
 C255 C 0.97642 0.69925 0.32970
 C256 C 0.97548 0.67636 0.29941
 C257 C 1.01860 0.67090 0.30227
 C258 C 1.01972 0.69836 0.32908
 C259 C 0.97789 0.69414 0.34981
 C260 C 0.96679 0.70487 0.36391
 C261 C 0.95410 0.72096 0.35815
 C262 C 0.95273 0.72610 0.33801
 C263 C 0.96366 0.71520 0.32389
 C264 C 0.96021 0.66294 0.30538
 C265 C 0.94965 0.65144 0.29141
 C266 C 0.95401 0.65326 0.27114
 C267 C 0.96890 0.66723 0.26515
 C268 C 0.97948 0.67875 0.27916
 C269 C 1.03505 0.67772 0.29136
 C270 C 1.04532 0.66411 0.27902
 C271 C 1.03932 0.64322 0.27709
 C272 C 1.02293 0.63646 0.28847
 C273 C 1.01296 0.65002 0.30108
 C274 C 1.01797 0.71994 0.32944
 C275 C 1.02926 0.73179 0.34260
 C276 C 1.04288 0.72239 0.35568
 C277 C 1.04468 0.70060 0.35487
 C278 C 1.03330 0.68883 0.34173
 H279 H 0.98745 0.68167 0.35454
 H280 H 0.96819 0.70067 0.37935
 H281 H 0.94289 0.73827 0.33316
 H282 H 0.96222 0.71922 0.30841
 H283 H 0.95691 0.66087 0.32093
 H284 H 0.93847 0.64063 0.29655
 H285 H 0.99100 0.68930 0.27425
 H286 H 1.03974 0.69375 0.29212
 H287 H 1.05738 0.67044 0.27033
 H288 H 1.01817 0.62046 0.28841
 H289 H 1.00080 0.64417 0.30996
 H290 H 1.00795 0.72766 0.31937
 H291 H 1.02774 0.74840 0.34175
 H292 H 1.05421 0.69227 0.36490
 H293 H 1.03483 0.67216 0.34171
 H294 H 0.97238 0.66923 0.24963
 C295 C 1.01375 0.31371 0.68337
 C296 C 0.99360 0.31507 0.68385
 C297 C 0.98098 0.30228 0.67055
 C298 C 0.98321 0.32958 0.69735
 C299 C 1.02668 0.32525 0.69739
 C300 C 1.02396 0.30143 0.66796
 C301 C 0.96736 0.31186 0.65790
 C302 C 0.95555 0.30003 0.64519
 C303 C 0.95698 0.27832 0.64502
 C304 C 0.97046 0.26875 0.65794
 C305 C 0.98230 0.28062 0.67062
 C306 C 0.98826 0.35069 0.69785
 C307 C 0.97869 0.36406 0.71095
 C308 C 0.96359 0.35667 0.72344
 C309 C 0.95818 0.33568 0.72252
 C310 C 0.96791 0.32226 0.70959
 C311 C 1.02406 0.32362 0.71793
 C312 C 1.03596 0.33519 0.73083
 C313 C 1.05084 0.34839 0.72341
 C314 C 1.05367 0.34961 0.70285
 C315 C 1.04177 0.33811 0.69000
 C316 C 1.03580 0.28467 0.67336
 C317 C 1.04592 0.27336 0.65897
 C318 C 1.04486 0.27891 0.63878
 C319 C 1.03290 0.29598 0.63361
 C320 C 1.02251 0.30699 0.64802
 H321 H 0.96611 0.32856 0.65766
 H322 H 0.94552 0.30791 0.63526
 H323 H 0.97167 0.25207 0.65844
 H324 H 0.99244 0.27291 0.68057
 H325 H 0.99962 0.35680 0.68813
 H326 H 0.98289 0.38025 0.71112
 H327 H 0.96369 0.30607 0.70933
 H328 H 1.01274 0.31348 0.72396
 H329 H 1.03361 0.33371 0.74661
 H330 H 1.06481 0.35985 0.69665
 H331 H 1.04404 0.33962 0.67421
 H332 H 1.03723 0.28037 0.68877
 H333 H 1.05535 0.26093 0.66398
 H334 H 1.03091 0.30056 0.61837
 H335 H 1.01345 0.32000 0.64365
 H336 H 0.94664 0.32958 0.73205
 C337 C 0.31958 -0.01326 0.31845
 C338 C 0.31924 0.00781 0.31785
 C339 C 0.33123 0.01994 0.30348
 C340 C 0.30732 0.01987 0.33217
 C341 C 0.30617 -0.02502 0.33186
 C342 C 0.33340 -0.02558 0.30603
 C343 C 0.34428 0.03528 0.31040
 C344 C 0.35615 0.04640 0.29721
 C345 C 0.35510 0.04258 0.27677
 C346 C 0.34169 0.02748 0.26982
 C347 C 0.32981 0.01632 0.28305
 C348 C 0.31110 0.01846 0.35252
 C349 C 0.29991 0.02998 0.36594
 C350 C 0.28473 0.04300 0.35921
 C351 C 0.28105 0.04444 0.33881
 C352 C 0.29239 0.03309 0.32538
 C353 C 0.28551 -0.02258 0.33086
 C354 C 0.27307 -0.03360 0.34365
 C355 C 0.28103 -0.04739 0.35759
 C356 C 0.30173 -0.04999 0.35835
 C357 C 0.31415 -0.03898 0.34555
 C358 C 0.32619 -0.04248 0.29518
 C359 C 0.33892 -0.05421 0.28342
 C360 C 0.35931 -0.04922 0.28200
 C361 C 0.36645 -0.03235 0.29327
 C362 C 0.35374 -0.02095 0.30535
 H363 H 0.34560 0.03831 0.32610
 H364 H 0.36651 0.05768 0.30309
 H365 H 0.34028 0.02440 0.25414
 H366 H 0.31958 0.00478 0.27739
 H367 H 0.32274 0.00848 0.35797
 H368 H 0.30296 0.02853 0.38160
 H369 H 0.28941 0.03444 0.30970
 H370 H 0.27905 -0.01220 0.32012
 H371 H 0.25718 -0.03153 0.34245
 H372 H 0.30836 -0.06028 0.36906
 H373 H 0.33005 -0.04109 0.34651
 H374 H 0.31055 -0.04641 0.29556
 H375 H 0.33242 -0.06655 0.27474
 H376 H 0.38205 -0.02834 0.29355
 H377 H 0.35982 -0.00851 0.31424
 H378 H 0.26956 0.05454 0.33326
 C379 C 0.68473 -0.00625 0.68554
 C380 C 0.68400 0.01476 0.68554
 C381 C 0.67046 0.02582 0.69914
 C382 C 0.69572 0.02752 0.67144
 C383 C 0.69848 -0.01801 0.67262
 C384 C 0.67163 -0.01836 0.69874
 C385 C 0.65069 0.02919 0.69365
 C386 C 0.63779 0.03949 0.70647
 C387 C 0.64462 0.04692 0.72477
 C388 C 0.66444 0.04350 0.73024
 C389 C 0.67720 0.03278 0.71760
 C390 C 0.69488 0.02360 0.65101
 C391 C 0.70654 0.03510 0.63789
 C392 C 0.71884 0.05108 0.64491
 C393 C 0.71914 0.05548 0.66524
 C394 C 0.70772 0.04378 0.67838
 C395 C 0.71902 -0.01431 0.67318
 C396 C 0.73174 -0.02484 0.66032
 C397 C 0.72418 -0.03937 0.64674
 C398 C 0.70364 -0.04330 0.64653
 C399 C 0.69096 -0.03281 0.65939
 C400 C 0.67805 -0.02380 0.71767
 C401 C 0.66550 -0.03477 0.73039
 C402 C 0.64623 -0.04081 0.72434
 C403 C 0.64006 -0.03516 0.70511
 C404 C 0.65257 -0.02398 0.69256
 H405 H 0.64527 0.02378 0.67948
 H406 H 0.62258 0.04202 0.70195
 H407 H 0.66994 0.04893 0.74437
 H408 H 0.69235 0.02998 0.72217
 H409 H 0.68531 0.01154 0.64523
 H410 H 0.70583 0.03164 0.62224
 H411 H 0.70861 0.04719 0.69402
 H412 H 0.72517 -0.00316 0.68348
 H413 H 0.74751 -0.02169 0.66110
 H414 H 0.69726 -0.05414 0.63608
 H415 H 0.67518 -0.03588 0.65860
 H416 H 0.69279 -0.01950 0.72260
 H417 H 0.67139 -0.03916 0.74464
 H418 H 0.62523 -0.03848 0.69985
 H419 H 0.64730 -0.01949 0.67807
 H420 H 0.72858 0.06767 0.67101
 C421 C 0.31049 1.01085 0.68708
 C422 C 0.31128 0.98979 0.68719
 C423 C 0.32529 0.97821 0.70003
 C424 C 0.29847 0.97730 0.67386
 C425 C 0.29876 1.02206 0.67198
 C426 C 0.32206 1.02372 0.70120
 C427 C 0.34566 0.98293 0.70018
 C428 C 0.35868 0.97167 0.71207
 C429 C 0.35164 0.95517 0.72367
 C430 C 0.33132 0.95026 0.72326
 C431 C 0.31828 0.96168 0.71156
 C432 C 0.30709 0.96337 0.66053
 C433 C 0.29524 0.95200 0.64750
 C434 C 0.27449 0.95422 0.64767
 C435 C 0.26587 0.96790 0.66135
 C436 C 0.27775 0.97928 0.67437
 C437 C 0.28318 1.03502 0.67777
 C438 C 0.27210 1.04560 0.66356
 C439 C 0.27671 1.04369 0.64338
 C440 C 0.29249 1.03089 0.63765
 C441 C 0.30339 1.02011 0.65183
 C442 C 0.32087 1.02039 0.72169
 C443 C 0.33261 1.03202 0.73467
 C444 C 0.34558 1.04734 0.72739
 C445 C 0.34632 1.05096 0.70690
 C446 C 0.33463 1.03932 0.69397
 H447 H 0.35152 0.99520 0.69096
 H448 H 0.37432 0.97555 0.71186
 H449 H 0.32549 0.93769 0.73214
 H450 H 0.30266 0.95766 0.71155
 H451 H 0.32306 0.96163 0.65994
 H452 H 0.30235 0.94179 0.63699
 H453 H 0.27081 0.98968 0.68482
 H454 H 0.27952 1.03678 0.69327
 H455 H 0.26014 1.05554 0.66835
 H456 H 0.29628 1.02909 0.62218
 H457 H 0.31551 1.01033 0.64713
 H458 H 0.31098 1.00868 0.72759
 H459 H 0.33151 1.02910 0.75039
 H460 H 0.35633 1.06245 0.70081
 H461 H 0.33580 1.04213 0.67822
 H462 H 0.24992 0.96968 0.66209
 C463 C 0.68694 1.01361 0.31235
 C464 C 0.68778 0.99254 0.31192
 C465 C 0.67344 0.98025 0.30007
 C466 C 0.70218 0.98071 0.32401
 C467 C 0.69885 1.02619 0.32654
 C468 C 0.67352 1.02504 0.29883
 C469 C 0.65304 0.98133 0.30406
 C470 C 0.63958 0.96962 0.29298
 C471 C 0.64629 0.95674 0.27765
 C472 C 0.66673 0.95567 0.27371
 C473 C 0.68022 0.96718 0.28497
 C474 C 0.69527 0.96520 0.33680
 C475 C 0.70842 0.95463 0.34904
 C476 C 0.72883 0.95921 0.34862
 C477 C 0.73581 0.97440 0.33542
 C478 C 0.72261 0.98499 0.32315
 C479 C 0.70957 1.04342 0.31980
 C480 C 0.72086 1.05536 0.33290
 C481 C 0.72191 1.05027 0.35320
 C482 C 0.71071 1.03309 0.35986
 C483 C 0.69912 1.02148 0.34678
 C484 C 0.67475 1.02233 0.27827
 C485 C 0.66160 1.03257 0.26571
 C486 C 0.64709 1.04585 0.27348
 C487 C 0.64620 1.04885 0.29407
 C488 C 0.65934 1.03859 0.30660
 H489 H 0.64759 0.99119 0.31580
 H490 H 0.62389 0.97080 0.29623
 H491 H 0.67227 0.94569 0.26209
 H492 H 0.69593 0.96609 0.28181
 H493 H 0.67957 0.96168 0.33771
 H494 H 0.70252 0.94324 0.35922
 H495 H 0.72828 0.99666 0.31313
 H496 H 0.70949 1.04745 0.30426
 H497 H 0.72947 1.06796 0.32675
 H498 H 0.71011 1.02898 0.37535
 H499 H 0.69029 1.00880 0.35251
 H500 H 0.68586 1.01223 0.27196
 H501 H 0.66290 1.03023 0.24991
 H502 H 0.63505 1.05879 0.30053
 H503 H 0.65818 1.04088 0.32243
 H504 H 0.75148 0.97804 0.33453
 O505 O 0.83378 0.86919 0.51863
 O506 O 0.86358 0.84245 0.48083
 O507 O 0.83481 0.86912 0.48003
 O508 O 0.86238 0.84196 0.51926
 O509 O 0.83981 0.81711 0.51913
 O510 O 0.81333 0.84330 0.47894
 O511 O 0.84211 0.81657 0.48077
 O512 O 0.81156 0.84406 0.51748
 Cu513 Cu 0.85081 0.85826 0.49979
 Cu514 Cu 0.82448 0.82775 0.49897
 C515 C 0.81754 0.86123 0.52450
 C516 C 0.85805 0.82485 0.47447
 C517 C 0.81943 0.86070 0.47263
 C518 C 0.85570 0.82492 0.52594
 O519 O 0.15730 0.12720 0.51631
 O520 O 0.13157 0.15687 0.47747
 O521 O 0.15838 0.12793 0.47776
 O522 O 0.13018 0.15559 0.51599
 O523 O 0.15323 0.17995 0.51677
 O524 O 0.18209 0.15152 0.47947
 O525 O 0.15536 0.18039 0.47841
 O526 O 0.18050 0.15135 0.51770
 Cu527 Cu 0.14200 0.13950 0.49673
 Cu528 Cu 0.17012 0.16822 0.49824
 C529 C 0.17335 0.13423 0.52362
 C530 C 0.13914 0.17370 0.47125
 C531 C 0.17514 0.13487 0.47221
 C532 C 0.13681 0.17256 0.52282
 O533 O 0.14186 0.82834 0.51995
 O534 O 0.17066 0.85535 0.48137
 O535 O 0.14228 0.82768 0.48144
 O536 O 0.17024 0.85584 0.51982
 O537 O 0.19250 0.83095 0.52030
 O538 O 0.16450 0.80277 0.48208
 O539 O 0.19282 0.83037 0.48185
 O540 O 0.16421 0.80355 0.52056
 Cu541 Cu 0.15402 0.84429 0.50056
 Cu542 Cu 0.18073 0.81441 0.50122
 C543 C 0.14815 0.81134 0.52691
 C544 C 0.18672 0.84751 0.47506
 C545 C 0.14857 0.81035 0.47525
 C546 C 0.18617 0.84821 0.52663
 O547 O 0.87367 0.15377 0.51873
 O548 O 0.84435 0.12623 0.48098
 O549 O 0.87292 0.15352 0.48013
 O550 O 0.84495 0.12645 0.51918
 O551 O 0.82281 0.15148 0.51924
 O552 O 0.85135 0.17908 0.48108
 O553 O 0.82272 0.15174 0.48072
 O554 O 0.85141 0.17865 0.51942
 Cu555 Cu 0.86123 0.13751 0.49974
 Cu556 Cu 0.83486 0.16775 0.50013
 C557 C 0.86755 0.17090 0.52558
 C558 C 0.82849 0.13423 0.47443
 C559 C 0.86699 0.17102 0.47406
 C560 C 0.82894 0.13421 0.52570
 O561 O 0.48294 0.87189 0.83908
 O562 O 0.52093 0.84069 0.86428
 O563 O 0.52130 0.86851 0.83645
 O564 O 0.48267 0.84404 0.86714
 O565 O 0.47904 0.81945 0.84478
 O566 O 0.51724 0.84423 0.81385
 O567 O 0.51743 0.81632 0.84167
 O568 O 0.47897 0.84712 0.81696
 Cu569 Cu 0.50231 0.85875 0.85398
 Cu570 Cu 0.49782 0.82931 0.82709
 C571 C 0.47447 0.86484 0.82368
 C572 C 0.52569 0.82315 0.85727
 C573 C 0.52579 0.86064 0.81983
 C574 C 0.47433 0.82748 0.86126
 O575 O 0.51793 0.16237 0.13508
 O576 O 0.47932 0.13674 0.16480
 O577 O 0.47941 0.16373 0.13602
 O578 O 0.51798 0.13632 0.16448
 O579 O 0.51898 0.16224 0.18568
 O580 O 0.48024 0.18913 0.15782
 O581 O 0.48039 0.16231 0.18638
 O582 O 0.51886 0.18824 0.15635
 Cu583 Cu 0.49854 0.14720 0.14796
 Cu584 Cu 0.49972 0.17805 0.17370
 C585 C 0.52498 0.17970 0.14055
 C586 C 0.47326 0.14506 0.18070
 C587 C 0.47324 0.18115 0.14215
 C588 C 0.52511 0.14469 0.17996
 O589 O 0.47794 0.15163 0.87495
 O590 O 0.51572 0.12333 0.84649
 O591 O 0.51664 0.15242 0.87356
 O592 O 0.47722 0.12311 0.84780
 O593 O 0.47664 0.14697 0.82451
 O594 O 0.51514 0.17658 0.85062
 O595 O 0.51536 0.14770 0.82366
 O596 O 0.47674 0.17539 0.85159
 Cu597 Cu 0.49705 0.13523 0.86304
 Cu598 Cu 0.49593 0.16403 0.83525
 C599 C 0.47076 0.16828 0.86808
 C600 C 0.52195 0.13064 0.83019
 C601 C 0.52241 0.16969 0.86660
 C602 C 0.47019 0.13010 0.83171
 O603 O 0.48143 0.84512 0.12976
 O604 O 0.52216 0.87238 0.15551
 O605 O 0.52014 0.84443 0.12793
 O606 O 0.48372 0.87343 0.15734
 O607 O 0.48371 0.84870 0.17982
 O608 O 0.52058 0.81998 0.15067
 O609 O 0.52218 0.84814 0.17845
 O610 O 0.48209 0.82066 0.15246
 Cu611 Cu 0.50180 0.86126 0.14031
 Cu612 Cu 0.50223 0.83190 0.16761
 C613 C 0.47481 0.82817 0.13674
 C614 C 0.52897 0.86500 0.17152
 C615 C 0.52662 0.82726 0.13428
 C616 C 0.47752 0.86605 0.17363
 O617 O 0.87205 0.51853 0.84473
 O618 O 0.84685 0.47637 0.87144
 O619 O 0.87268 0.47836 0.84268
 O620 O 0.84555 0.51651 0.87289
 O621 O 0.82178 0.51708 0.85050
 O622 O 0.84821 0.47831 0.82103
 O623 O 0.82255 0.47680 0.84963
 O624 O 0.84820 0.51852 0.82242
 Cu625 Cu 0.86171 0.49742 0.86014
 Cu626 Cu 0.83276 0.49773 0.83370
 C627 C 0.86456 0.52564 0.82892
 C628 C 0.83035 0.46942 0.86519
 C629 C 0.86499 0.47177 0.82670
 C630 C 0.82900 0.52333 0.86679
 O631 O 0.15663 0.48323 0.12842
 O632 O 0.13031 0.52199 0.15859
 O633 O 0.15637 0.52356 0.13007
 O634 O 0.13024 0.48187 0.15658
 O635 O 0.15369 0.48189 0.17932
 O636 O 0.18105 0.52175 0.15142
 O637 O 0.15506 0.52207 0.17993
 O638 O 0.18010 0.48160 0.15106
 Cu639 Cu 0.14099 0.50275 0.14118
 Cu640 Cu 0.16989 0.50172 0.16764
 C641 C 0.17283 0.47568 0.13467
 C642 C 0.13827 0.52873 0.17438
 C643 C 0.17329 0.52960 0.13606
 C644 C 0.13732 0.47500 0.17267
 O645 O 0.86818 0.48149 0.15794
 O646 O 0.83819 0.52064 0.13223
 O647 O 0.86585 0.52174 0.15911
 O648 O 0.83997 0.48054 0.13128
 O649 O 0.81780 0.47814 0.15520
 O650 O 0.84291 0.51989 0.18232
 O651 O 0.81542 0.51832 0.15558
 O652 O 0.84576 0.47982 0.18166
 Cu653 Cu 0.85535 0.50126 0.14279
 Cu654 Cu 0.82822 0.49880 0.17103
 C655 C 0.86218 0.47407 0.17429
 C656 C 0.82164 0.52615 0.13948
 C657 C 0.85866 0.52797 0.17544
 C658 C 0.82441 0.47234 0.13852
 O659 O 0.15667 0.52472 0.86776
 O660 O 0.12891 0.48278 0.84305
 O661 O 0.15596 0.48451 0.87047
 O662 O 0.12948 0.52282 0.84013
 O663 O 0.15294 0.52082 0.81745
 O664 O 0.17956 0.48295 0.84791
 O665 O 0.15246 0.48065 0.82049
 O666 O 0.17987 0.52289 0.84482
 Cu667 Cu 0.14041 0.50395 0.85765
 Cu668 Cu 0.16852 0.50160 0.83037
 C669 C 0.17307 0.53094 0.86055
 C670 C 0.13595 0.47454 0.82751
 C671 C 0.17237 0.47728 0.86441
 C672 C 0.13665 0.52828 0.82354
 C673 C 0.26998 0.37090 0.07756
 C674 C 0.25845 0.38413 0.08914
 C675 C 0.24179 0.39383 0.08114
 C676 C 0.23662 0.39002 0.06134
 C677 C 0.24817 0.37681 0.04971
 C678 C 0.26506 0.36719 0.05766
 N679 N 0.23070 0.40775 0.09334
 N680 N 0.21513 0.41684 0.08732
 C681 C 0.20446 0.43105 0.09959
 C682 C 0.18711 0.44012 0.09234
 C683 C 0.17666 0.45444 0.10378
 C684 C 0.18347 0.46002 0.12272
 C685 C 0.20083 0.45076 0.13002
 C686 C 0.21121 0.43640 0.11859
 H687 H 0.28269 0.36350 0.08423
 H688 H 0.26255 0.38690 0.10440
 H689 H 0.22384 0.39741 0.05479
 H690 H 0.24412 0.37447 0.03437
 H691 H 0.18176 0.43615 0.07772
 H692 H 0.16336 0.46130 0.09772
 H693 H 0.20648 0.45469 0.14454
 H694 H 0.22460 0.42964 0.12455
 C695 C 0.75550 0.62511 0.04224
 C696 C 0.76812 0.61170 0.05239
 C697 C 0.76440 0.60661 0.07216
 C698 C 0.74806 0.61545 0.08186
 C699 C 0.73549 0.62892 0.07177
 C700 C 0.73893 0.63374 0.05177
 N701 N 0.77712 0.59216 0.08191
 N702 N 0.77358 0.58576 0.09936
 C703 C 0.78604 0.57113 0.10919
 C704 C 0.78044 0.56393 0.12788
 C705 C 0.79200 0.54933 0.13776
 C706 C 0.80949 0.54175 0.12909
 C707 C 0.81517 0.54915 0.11036
 C708 C 0.80353 0.56368 0.10046
 H709 H 0.75843 0.62830 0.02679
 H710 H 0.78065 0.60496 0.04475
 H711 H 0.74494 0.61188 0.09719
 H712 H 0.72308 0.63559 0.07964
 H713 H 0.76700 0.56956 0.13476
 H714 H 0.78724 0.54400 0.15218
 H715 H 0.82855 0.54361 0.10327
 H716 H 0.80817 0.56904 0.08601
 C717 C 0.73741 0.35681 0.91734
 C718 C 0.74882 0.37046 0.90600
 C719 C 0.76452 0.38148 0.91456
 C720 C 0.76898 0.37838 0.93464
 C721 C 0.75753 0.36478 0.94604
 C722 C 0.74145 0.35401 0.93757
 N723 N 0.77516 0.39621 0.90276
 N724 N 0.79000 0.40629 0.90938
 C725 C 0.80018 0.42154 0.89776
 C726 C 0.81721 0.43097 0.90549
 C727 C 0.82716 0.44636 0.89482
 C728 C 0.82010 0.45272 0.87623
 C729 C 0.80303 0.44314 0.86845
 C730 C 0.79317 0.42765 0.87909
 H731 H 0.72533 0.34852 0.91029
 H732 H 0.74527 0.37266 0.89053
 H733 H 0.78101 0.38679 0.94162
 H734 H 0.76088 0.36319 0.96162
 H735 H 0.82272 0.42645 0.91988
 H736 H 0.84024 0.45345 0.90125
 H737 H 0.79724 0.44766 0.85417
 H738 H 0.77998 0.42063 0.87283
 C739 C 0.23879 0.63176 0.95720
 C740 C 0.22611 0.61815 0.94716
 C741 C 0.22970 0.61301 0.92739
 C742 C 0.24605 0.62189 0.91760
 C743 C 0.25869 0.63553 0.92758
 C744 C 0.25530 0.64052 0.94754
 N745 N 0.21683 0.59848 0.91771
 N746 N 0.22004 0.59242 0.90009
 C747 C 0.20757 0.57764 0.89028
 C748 C 0.21299 0.57078 0.87144
 C749 C 0.20165 0.55578 0.86169
 C750 C 0.18455 0.54745 0.87061
 C751 C 0.17891 0.55465 0.88942
 C752 C 0.19035 0.56959 0.89922
 H753 H 0.23589 0.63509 0.97262
 H754 H 0.21360 0.61138 0.95489
 H755 H 0.24910 0.61825 0.90227
 H756 H 0.27108 0.64226 0.91962
 H757 H 0.22621 0.57689 0.86440
 H758 H 0.20638 0.55063 0.84720
 H759 H 0.16583 0.54852 0.89670
 H760 H 0.18585 0.57470 0.91378
 C761 C 0.04346 0.24157 0.37377
 C762 C 0.05321 0.22854 0.38707
 C763 C 0.07310 0.23207 0.39196
 C764 C 0.08332 0.24866 0.38312
 C765 C 0.07363 0.26165 0.36978
 C766 C 0.05353 0.25838 0.36507
 N767 N 0.08246 0.21893 0.40620
 N768 N 0.10011 0.22225 0.41213
 C769 C 0.10965 0.20950 0.42655
 C770 C 0.12863 0.21505 0.43305
 C771 C 0.13823 0.20337 0.44749
 C772 C 0.12902 0.18576 0.45565
 C773 C 0.11002 0.18005 0.44892
 C774 C 0.10038 0.19185 0.43452
 H775 H 0.02792 0.23877 0.37067
 H776 H 0.04515 0.21584 0.39381
 H777 H 0.09874 0.25166 0.38656
 H778 H 0.08189 0.27424 0.36310
 H779 H 0.13592 0.22861 0.42702
 H780 H 0.15287 0.20817 0.45229
 H781 H 0.10253 0.16659 0.45491
 H782 H 0.08570 0.18724 0.42969
 C783 C 0.04545 0.75525 0.62478
 C784 C 0.05650 0.76684 0.61118
 C785 C 0.07614 0.76155 0.60689
 C786 C 0.08481 0.74471 0.61670
 C787 C 0.07382 0.73317 0.63035
 C788 C 0.05394 0.73816 0.63441
 N789 N 0.08681 0.77319 0.59228
 N790 N 0.10418 0.76815 0.58675
 C791 C 0.11495 0.77944 0.57199
 C792 C 0.13353 0.77218 0.56605
 C793 C 0.14433 0.78254 0.55142
 C794 C 0.13672 0.80048 0.54251
 C795 C 0.11809 0.80784 0.54862
 C796 C 0.10726 0.79739 0.56321
 H797 H 0.03011 0.75935 0.62738
 H798 H 0.04963 0.77976 0.60370
 H799 H 0.10002 0.74039 0.61375
 H800 H 0.08091 0.72033 0.63775
 H801 H 0.13960 0.75836 0.57271
 H802 H 0.15864 0.77648 0.54710
 H803 H 0.11182 0.82160 0.54205
 H804 H 0.09292 0.80331 0.56758
 C805 C 0.93153 0.72103 0.38762
 C806 C 0.91984 0.73146 0.40144
 C807 C 0.91861 0.75306 0.40114
 C808 C 0.92918 0.76420 0.38668
 C809 C 0.94070 0.75376 0.37269
 C810 C 0.94202 0.73207 0.37305
 N811 N 0.90644 0.76324 0.41551
 N812 N 0.90650 0.78280 0.41763
 C813 C 0.89413 0.79298 0.43183
 C814 C 0.89709 0.81407 0.43548
 C815 C 0.88542 0.82444 0.44937
 C816 C 0.87033 0.81389 0.45968
 C817 C 0.86722 0.79274 0.45581
 C818 C 0.87909 0.78234 0.44209
 H819 H 0.93213 0.70430 0.38809
 H820 H 0.91172 0.72271 0.41246
 H821 H 0.92843 0.78091 0.38611
 H822 H 0.94874 0.76264 0.36169
 H823 H 0.90860 0.82246 0.42763
 H824 H 0.88813 0.84074 0.45196
 H825 H 0.85576 0.78418 0.46354
 H826 H 0.87646 0.76603 0.43945
 C827 C 0.92467 0.27126 0.62767
 C828 C 0.91305 0.25968 0.61456
 C829 C 0.92093 0.24238 0.60497
 C830 C 0.94067 0.23669 0.60870
 C831 C 0.95234 0.24830 0.62176
 C832 C 0.94450 0.26576 0.63137
 N833 N 0.90867 0.23113 0.59136
 N834 N 0.91458 0.21480 0.58267
 C835 C 0.90237 0.20383 0.56880
 C836 C 0.90950 0.18555 0.56035
 C837 C 0.89813 0.17470 0.54647
 C838 C 0.87939 0.18204 0.54071
 C839 C 0.87222 0.20036 0.54931
 C840 C 0.88358 0.21115 0.56325
 H841 H 0.91808 0.28441 0.63503
 H842 H 0.89785 0.26419 0.61184
 H843 H 0.94713 0.22343 0.60139
 H844 H 0.96762 0.24381 0.62407
 H845 H 0.92396 0.17976 0.56448
 H846 H 0.90410 0.16066 0.54011
 H847 H 0.85785 0.20643 0.54523
 H848 H 0.87773 0.22526 0.56955
 C849 C 0.37713 0.04390 0.24677
 C850 C 0.39024 0.05450 0.23429
 C851 C 0.39477 0.07535 0.23770
 C852 C 0.38569 0.08568 0.25356
 C853 C 0.37252 0.07514 0.26599
 C854 C 0.36824 0.05406 0.26288
 N855 N 0.40889 0.08551 0.22514
 N856 N 0.41471 0.10398 0.22832
 C857 C 0.42904 0.11410 0.21596
 C858 C 0.43559 0.13397 0.22106
 C859 C 0.44991 0.14410 0.20960
 C860 C 0.45788 0.13450 0.19272
 C861 C 0.45112 0.11461 0.18752
 C862 C 0.43686 0.10447 0.19905
 H863 H 0.37437 0.02763 0.24410
 H864 H 0.39717 0.04636 0.22213
 H865 H 0.38883 0.10184 0.25643
 H866 H 0.36567 0.08351 0.27805
 H867 H 0.42967 0.14156 0.23406
 H868 H 0.45476 0.15942 0.21399
 H869 H 0.45695 0.10678 0.17462
 H870 H 0.43202 0.08911 0.19479
 C871 C 0.63659 0.07810 0.74510
 C872 C 0.62363 0.08928 0.75716
 C873 C 0.60530 0.08082 0.76271
 C874 C 0.59992 0.06104 0.75584
 C875 C 0.61269 0.05003 0.74342
 C876 C 0.63116 0.05845 0.73802
 N877 N 0.59227 0.09274 0.77493
 N878 N 0.57781 0.08452 0.78419
 C879 C 0.56435 0.09647 0.79590
 C880 C 0.55212 0.08633 0.80955
 C881 C 0.53861 0.09751 0.82100
 C882 C 0.53679 0.11901 0.81860
 C883 C 0.54898 0.12916 0.80477
 C884 C 0.56280 0.11802 0.79363
 H885 H 0.65071 0.08493 0.74099
 H886 H 0.62791 0.10454 0.76228
 H887 H 0.58576 0.05426 0.75982
 H888 H 0.60825 0.03488 0.73815
 H889 H 0.55311 0.06973 0.81136
 H890 H 0.52931 0.08926 0.83144
 H891 H 0.54790 0.14572 0.80265
 H892 H 0.57201 0.12616 0.78305
 C893 C 0.36435 0.92112 0.73577
 C894 C 0.37759 0.90942 0.74699
 C895 C 0.39203 0.91916 0.75863
 C896 C 0.39318 0.94087 0.75888
 C897 C 0.38007 0.95260 0.74749
 C898 C 0.36550 0.94283 0.73585
 N899 N 0.40551 0.90662 0.76969
 N900 N 0.41773 0.91422 0.78210
 C901 C 0.43145 0.90150 0.79269
 C902 C 0.44308 0.91037 0.80762
 C903 C 0.45687 0.89842 0.81795
 C904 C 0.45939 0.87738 0.81332
 C905 C 0.44764 0.86851 0.79834
 C906 C 0.43374 0.88042 0.78818
 H907 H 0.35342 0.91318 0.72677
 H908 H 0.37663 0.89270 0.74660
 H909 H 0.40427 0.94875 0.76772
 H910 H 0.38117 0.96932 0.74791
 H911 H 0.44148 0.92660 0.81122
 H912 H 0.46574 0.90572 0.82935
 H913 H 0.44920 0.85235 0.79445
 H914 H 0.42497 0.87320 0.77666
 C915 C 0.61699 0.93291 0.27542
 C916 C 0.60342 0.92128 0.26439
 C917 C 0.60437 0.92114 0.24373
 C918 C 0.61933 0.93257 0.23413
 C919 C 0.63310 0.94399 0.24517
 C920 C 0.63197 0.94436 0.26592
 N921 N 0.58999 0.90932 0.23292
 N922 N 0.58814 0.91066 0.21424
 C923 C 0.57370 0.89869 0.20364
 C924 C 0.56990 0.90336 0.18380
 C925 C 0.55541 0.89238 0.17327
 C926 C 0.54471 0.87628 0.18239
 C927 C 0.54886 0.87134 0.20219
 C928 C 0.56314 0.88251 0.21277
 H929 H 0.61593 0.93278 0.29140
 H930 H 0.59200 0.91248 0.27194
 H931 H 0.62040 0.93264 0.21816
 H932 H 0.64444 0.95280 0.23751
 H933 H 0.57797 0.91576 0.17659
 H934 H 0.55260 0.89650 0.15802
 H935 H 0.54084 0.85906 0.20964
 H936 H 0.56589 0.87852 0.22806
 C937 C 0.37045 0.27137 0.92204
 C938 C 0.38379 0.25951 0.91111
 C939 C 0.39017 0.24039 0.91806
 C940 C 0.38271 0.23292 0.93604
 C941 C 0.36925 0.24466 0.94705
 C942 C 0.36293 0.26445 0.94053
 N943 N 0.40446 0.22914 0.90670
 N944 N 0.41164 0.21198 0.91239
 C945 C 0.42617 0.20113 0.90094
 C946 C 0.43383 0.18253 0.90816
 C947 C 0.44829 0.17179 0.89750
 C948 C 0.45533 0.17952 0.87935
 C949 C 0.44752 0.19816 0.87209
 C950 C 0.43309 0.20888 0.88277
 H951 H 0.36559 0.28557 0.91523
 H952 H 0.38922 0.26529 0.89707
 H953 H 0.38753 0.21815 0.94178
 H954 H 0.36497 0.23840 0.96124
 H955 H 0.42863 0.17641 0.92215
 H956 H 0.45397 0.15748 0.90350
 H957 H 0.45261 0.20453 0.85817
 H958 H 0.42742 0.22323 0.87686
 C959 C 0.62155 0.75502 0.95396
 C960 C 0.60825 0.76772 0.94385
 C961 C 0.60319 0.76348 0.92420
 C962 C 0.61178 0.74643 0.91462
 C963 C 0.62516 0.73377 0.92468
 C964 C 0.63015 0.73786 0.94451
 N965 N 0.58923 0.77660 0.91440
 N966 N 0.58303 0.77284 0.89698
 C967 C 0.56900 0.78588 0.88719
 C968 C 0.56172 0.77991 0.86868
 C969 C 0.54770 0.79204 0.85889
 C970 C 0.54082 0.81050 0.86745
 C971 C 0.54835 0.81658 0.88597
 C972 C 0.56227 0.80436 0.89579
 H973 H 0.62484 0.75844 0.96929
 H974 H 0.60169 0.78078 0.95141
 H975 H 0.60819 0.74290 0.89938
 H976 H 0.63174 0.72089 0.91686
 H977 H 0.56680 0.76572 0.86189
 H978 H 0.54225 0.78694 0.84463
 H979 H 0.54334 0.83069 0.89298
 H980 H 0.56772 0.80933 0.91009
 C981 C 0.36857 0.76865 0.04401
 C982 C 0.38252 0.78116 0.05369
 C983 C 0.39016 0.77538 0.07206
 C984 C 0.38338 0.75704 0.08090
 C985 C 0.36950 0.74449 0.07130
 C986 C 0.36195 0.74981 0.05248
 N987 N 0.40504 0.78804 0.08128
 N988 N 0.41283 0.78293 0.09770
 C989 C 0.42798 0.79490 0.10722
 C990 C 0.43574 0.78769 0.12508
 C991 C 0.45087 0.79856 0.13467
 C992 C 0.45855 0.81695 0.12655
 C993 C 0.45062 0.82428 0.10864
 C994 C 0.43546 0.81333 0.09902
 H995 H 0.36390 0.77342 0.02943
 H996 H 0.38768 0.79524 0.04667
 H997 H 0.38884 0.75234 0.09525
 H998 H 0.36438 0.73091 0.07914
 H999 H 0.43011 0.77350 0.13152
 H1000 H 0.45659 0.79248 0.14844
 H1001 H 0.45621 0.83839 0.10201
 H1002 H 0.42967 0.81918 0.08520
 C1003 C 0.63117 0.27311 0.07913
 C1004 C 0.61741 0.26301 0.09127
 C1005 C 0.60749 0.24528 0.08460
 C1006 C 0.61160 0.23761 0.06558
 C1007 C 0.62533 0.24771 0.05341
 C1008 C 0.63522 0.26563 0.06001
 N1009 N 0.59318 0.23558 0.09728
 N1010 N 0.58401 0.21913 0.09228
 C1011 C 0.56949 0.20950 0.10476
 C1012 C 0.56061 0.19104 0.09851
 C1013 C 0.54623 0.18130 0.11018
 C1014 C 0.54039 0.18997 0.12835
 C1015 C 0.54935 0.20854 0.13462
 C1016 C 0.56381 0.21822 0.12295
 H1017 H 0.63874 0.28669 0.08477
 H1018 H 0.61442 0.26904 0.10591
 H1019 H 0.60407 0.22395 0.06006
 H1020 H 0.62791 0.24172 0.03868
 H1021 H 0.56484 0.18419 0.08452
 H1022 H 0.53961 0.16704 0.10489
 H1023 H 0.54520 0.21560 0.14853
 H1024 H 0.57045 0.23253 0.12808
 C1025 C 0.27525 0.06634 0.61342
 C1026 C 0.26456 0.07743 0.59931
 C1027 C 0.24381 0.07741 0.59965
 C1028 C 0.23377 0.06629 0.61448
 C1029 C 0.24447 0.05541 0.62879
 C1030 C 0.26531 0.05527 0.62833
 N1031 N 0.23338 0.08897 0.58493
 N1032 N 0.21470 0.08753 0.58254
 C1033 C 0.20452 0.09948 0.56790
 C1034 C 0.18470 0.09482 0.56353
 C1035 C 0.17451 0.10604 0.54909
 C1036 C 0.18395 0.12237 0.53901
 C1037 C 0.20377 0.12718 0.54363
 C1038 C 0.21401 0.11577 0.55785
 H1039 H 0.29131 0.06664 0.61286
 H1040 H 0.27245 0.08601 0.58800
 H1041 H 0.21772 0.06612 0.61508
 H1042 H 0.23647 0.04690 0.64007
 H1043 H 0.17721 0.08233 0.57120
 H1044 H 0.15922 0.10203 0.54590
 H1045 H 0.21147 0.13962 0.53608
 H1046 H 0.22930 0.11975 0.56103
 C1047 C 0.73802 0.08313 0.36301
 C1048 C 0.74979 0.09457 0.37611
 C1049 C 0.75811 0.08518 0.39272
 C1050 C 0.75423 0.06418 0.39635
 C1051 C 0.74215 0.05278 0.38352
 C1052 C 0.73387 0.06197 0.36646
 N1053 N 0.77029 0.09725 0.40574
 N1054 N 0.78124 0.08886 0.41877
 C1055 C 0.79316 0.10070 0.43220
 C1056 C 0.80747 0.09051 0.44349
 C1057 C 0.81920 0.10149 0.45696
 C1058 C 0.81653 0.12287 0.45962
 C1059 C 0.80208 0.13308 0.44831
 C1060 C 0.79058 0.12212 0.43459
 H1061 H 0.73156 0.09128 0.35064
 H1062 H 0.75251 0.11081 0.37326
 H1063 H 0.76050 0.05657 0.40913
 H1064 H 0.74012 0.03651 0.38667
 H1065 H 0.80955 0.07400 0.44182
 H1066 H 0.83011 0.09316 0.46554
 H1067 H 0.79972 0.14954 0.45004
 H1068 H 0.77951 0.13030 0.42609
 C1069 C 0.75334 0.96044 0.62348
 C1070 C 0.76538 0.95046 0.60961
 C1071 C 0.76180 0.92979 0.60450
 C1072 C 0.74618 0.91904 0.61372
 C1073 C 0.73420 0.92895 0.62765
 C1074 C 0.73751 0.94984 0.63258
 N1075 N 0.77403 0.92018 0.58980
 N1076 N 0.77058 0.90194 0.58353
 C1077 C 0.78261 0.89215 0.56880
 C1078 C 0.77714 0.87249 0.56200
 C1079 C 0.78842 0.86248 0.54757
 C1080 C 0.80551 0.87196 0.53970
 C1081 C 0.81101 0.89172 0.54660
 C1082 C 0.79964 0.90175 0.56099
 H1083 H 0.75615 0.97660 0.62672
 H1084 H 0.77736 0.95894 0.60259
 H1085 H 0.74319 0.90300 0.61015
 H1086 H 0.72236 0.92023 0.63462
 H1087 H 0.76405 0.86493 0.56790
 H1088 H 0.78379 0.84727 0.54263
 H1089 H 0.82408 0.89945 0.54085
 H1090 H 0.80418 0.91696 0.56602
 C1091 C 0.25126 0.95064 0.37995
 C1092 C 0.23907 0.93982 0.39315
 C1093 C 0.24321 0.91926 0.39804
 C1094 C 0.25967 0.90951 0.38941
 C1095 C 0.27185 0.92029 0.37618
 C1096 C 0.26785 0.94102 0.37136
 N1097 N 0.23065 0.90876 0.41192
 N1098 N 0.23410 0.89035 0.41758
 C1099 C 0.22173 0.87980 0.43160
 C1100 C 0.22711 0.85998 0.43782
 C1101 C 0.21568 0.84942 0.45184
 C1102 C 0.19854 0.85851 0.45983
 C1103 C 0.19303 0.87836 0.45338
 C1104 C 0.20455 0.88894 0.43941
 H1105 H 0.24791 0.96666 0.37676
 H1106 H 0.22646 0.94753 0.39974
 H1107 H 0.26314 0.89359 0.39288
 H1108 H 0.28431 0.91233 0.36959
 H1109 H 0.24032 0.85278 0.43191
 H1110 H 0.22032 0.83416 0.45645
 H1111 H 0.17993 0.88580 0.45925
 H1112 H 0.20006 0.90425 0.43481
 C1113 C 0.08348 0.36419 0.73316
 C1114 C 0.09480 0.37739 0.74506
 C1115 C 0.08608 0.38785 0.76091
 C1116 C 0.06586 0.38463 0.76506
 C1117 C 0.05449 0.37143 0.75315
 C1118 C 0.06313 0.36127 0.73691
 N1119 N 0.09790 0.40221 0.77200
 N1120 N 0.09109 0.41222 0.78670
 C1121 C 0.10287 0.42710 0.79720
 C1122 C 0.09474 0.43710 0.81364
 C1123 C 0.10557 0.45232 0.82371
 C1124 C 0.12475 0.45787 0.81737
 C1125 C 0.13296 0.44762 0.80097
 C1126 C 0.12215 0.43236 0.79099
 H1127 H 0.09063 0.35635 0.72095
 H1128 H 0.11037 0.37971 0.74175
 H1129 H 0.05877 0.39261 0.77721
 H1130 H 0.03882 0.36968 0.75628
 H1131 H 0.07988 0.43323 0.81855
 H1132 H 0.09881 0.45992 0.83627
 H1133 H 0.14770 0.45150 0.79573
 H1134 H 0.12877 0.42488 0.77828
 C1135 C 0.03948 0.61236 0.25553
 C1136 C 0.04939 0.59889 0.24276
 C1137 C 0.06949 0.60179 0.23853
 C1138 C 0.07961 0.61862 0.24698
 C1139 C 0.06969 0.63236 0.25948
 C1140 C 0.04941 0.62945 0.26417
 N1141 N 0.07925 0.58743 0.22568
 N1142 N 0.09804 0.58710 0.22381
 C1143 C 0.10782 0.57281 0.21091
 C1144 C 0.12836 0.57033 0.21256
 C1145 C 0.13829 0.55604 0.20065
 C1146 C 0.12783 0.54425 0.18658
 C1147 C 0.10726 0.54711 0.18463
 C1148 C 0.09730 0.56116 0.19680
 H1149 H 0.02381 0.60970 0.25787
 H1150 H 0.04138 0.58607 0.23618
 H1151 H 0.09520 0.62116 0.24394
 H1152 H 0.07832 0.64470 0.26608
 H1153 H 0.13663 0.57926 0.22333
 H1154 H 0.15415 0.55425 0.20242
 H1155 H 0.09882 0.53820 0.17396
 H1156 H 0.08142 0.56291 0.19518
 C1157 C 0.92360 0.37557 0.27421
 C1158 C 0.91183 0.38864 0.26278
 C1159 C 0.91829 0.39542 0.24429
 C1160 C 0.93673 0.38878 0.23712
 C1161 C 0.94857 0.37562 0.24848
 C1162 C 0.94235 0.36883 0.26740
 N1163 N 0.90591 0.40920 0.23330
 N1164 N 0.91080 0.41641 0.21647
 C1165 C 0.89823 0.43041 0.20591
 C1166 C 0.90453 0.43821 0.18765
 C1167 C 0.89278 0.45227 0.17725
 C1168 C 0.87446 0.45877 0.18498
 C1169 C 0.86809 0.45074 0.20325
 C1170 C 0.87985 0.43671 0.21362
 H1171 H 0.91744 0.37027 0.28807
 H1172 H 0.89753 0.39349 0.26837
 H1173 H 0.94210 0.39394 0.22286
 H1174 H 0.96297 0.37164 0.24259
 H1175 H 0.91866 0.43348 0.18155
 H1176 H 0.89811 0.45815 0.16322
 H1177 H 0.85407 0.45541 0.20963
 H1178 H 0.87462 0.43090 0.22771
 C1179 C 0.91717 0.62947 0.72781
 C1180 C 0.90599 0.61591 0.73948
 C1181 C 0.91311 0.60923 0.75774
 C1182 C 0.93153 0.61656 0.76447
 C1183 C 0.94277 0.63018 0.75289
 C1184 C 0.93595 0.63678 0.73414
 N1185 N 0.90158 0.59465 0.76889
 N1186 N 0.90737 0.58756 0.78545
 C1187 C 0.89603 0.57263 0.79636
 C1188 C 0.90354 0.56525 0.81428
 C1189 C 0.89323 0.55016 0.82498
 C1190 C 0.87512 0.54216 0.81791
 C1191 C 0.86747 0.54980 0.80001
 C1192 C 0.87783 0.56490 0.78932
 H1193 H 0.91059 0.63458 0.71410
 H1194 H 0.89170 0.61053 0.73421
 H1195 H 0.93743 0.61151 0.77854
 H1196 H 0.95723 0.63457 0.75841
 H1197 H 0.91755 0.57108 0.81986
 H1198 H 0.89953 0.54463 0.83870
 H1199 H 0.85358 0.54398 0.79416
 H1200 H 0.87171 0.57036 0.77549
 C1201 C 0.73445 0.63235 0.92052
 C1202 C 0.74660 0.61938 0.90932
 C1203 C 0.75891 0.60500 0.91861
 C1204 C 0.75887 0.60359 0.93935
 C1205 C 0.74653 0.61638 0.95057
 C1206 C 0.73423 0.63090 0.94124
 N1207 N 0.77090 0.59175 0.90663
 N1208 N 0.78416 0.58006 0.91391
 C1209 C 0.79561 0.56644 0.90176
 C1210 C 0.81163 0.55586 0.91009
 C1211 C 0.82277 0.54209 0.89867
 C1212 C 0.81785 0.53850 0.87875
 C1213 C 0.80179 0.54922 0.87043
 C1214 C 0.79083 0.56313 0.88178
 H1215 H 0.72496 0.64328 0.91298
 H1216 H 0.74643 0.62053 0.89335
 H1217 H 0.76821 0.59252 0.94685
 H1218 H 0.74673 0.61508 0.96653
 H1219 H 0.81543 0.55824 0.92548
 H1220 H 0.83500 0.53400 0.90551
 H1221 H 0.79767 0.54683 0.85511
 H1222 H 0.77848 0.57107 0.87501
 C1223 C 0.27602 0.39121 0.93597
 C1224 C 0.26510 0.40527 0.92476
 C1225 C 0.24440 0.40387 0.92402
 C1226 C 0.23464 0.38812 0.93459
 C1227 C 0.24557 0.37386 0.94560
 C1228 C 0.26636 0.37531 0.94641
 N1229 N 0.23374 0.41838 0.91216
 N1230 N 0.21493 0.41987 0.91273
 C1231 C 0.20449 0.43419 0.90044
 C1232 C 0.18438 0.43789 0.90407
 C1233 C 0.17388 0.45196 0.89243
 C1234 C 0.18332 0.46229 0.87671
 C1235 C 0.20346 0.45832 0.87293
 C1236 C 0.21399 0.44450 0.88476
 H1237 H 0.29204 0.39252 0.93619
 H1238 H 0.27277 0.41730 0.91661
 H1239 H 0.21863 0.38669 0.93417
 H1240 H 0.23780 0.36179 0.95361
 H1241 H 0.17689 0.42999 0.91608
 H1242 H 0.15837 0.45465 0.89564
 H1243 H 0.21114 0.46609 0.86097
 H1244 H 0.22950 0.44180 0.88158
 C1245 C 0.27481 0.61696 0.06188
 C1246 C 0.26422 0.60256 0.07314
 C1247 C 0.24446 0.60613 0.07819
 C1248 C 0.23537 0.62453 0.07214
 C1249 C 0.24601 0.63919 0.06120
 C1250 C 0.26595 0.63564 0.05568
 N1251 N 0.23402 0.59086 0.08951
 N1252 N 0.21525 0.59111 0.09151
 C1253 C 0.20499 0.57589 0.10306
 C1254 C 0.18439 0.57398 0.10118
 C1255 C 0.17404 0.55889 0.11187
 C1256 C 0.18414 0.54574 0.12494
 C1257 C 0.20477 0.54797 0.12710
 C1258 C 0.21515 0.56281 0.11614
 H1259 H 0.29023 0.61365 0.05881
 H1260 H 0.27145 0.58849 0.07791
 H1261 H 0.22005 0.62761 0.07589
 H1262 H 0.23819 0.65286 0.05640
 H1263 H 0.17640 0.58402 0.09119
 H1264 H 0.15812 0.55759 0.10999
 H1265 H 0.21295 0.53801 0.13703
 H1266 H 0.23106 0.56409 0.11793
 C1267 C 0.74917 0.38487 0.03741
 C1268 C 0.76145 0.39896 0.04732
 C1269 C 0.76583 0.39627 0.06733
 C1270 C 0.75809 0.37903 0.07733
 C1271 C 0.74607 0.36474 0.06743
 C1272 C 0.74121 0.36741 0.04726
 N1273 N 0.77791 0.41132 0.07727
 N1274 N 0.77965 0.41142 0.09601
 C1275 C 0.79157 0.42631 0.10629
 C1276 C 0.78960 0.42794 0.12681
 C1277 C 0.80039 0.44281 0.13731
 C1278 C 0.81366 0.45608 0.12744
 C1279 C 0.81603 0.45407 0.10687
 C1280 C 0.80495 0.43940 0.09633
 H1281 H 0.74661 0.38742 0.02181
 H1282 H 0.76746 0.41213 0.03940
 H1283 H 0.76122 0.37663 0.09286
 H1284 H 0.73992 0.35217 0.07605
 H1285 H 0.77938 0.41789 0.13464
 H1286 H 0.79834 0.44393 0.15316
 H1287 H 0.82611 0.46415 0.09889
 H1288 H 0.80679 0.43832 0.08046
 C1289 C 0.95509 0.74634 0.61046
 C1290 C 0.94537 0.75898 0.59682
 C1291 C 0.92568 0.76477 0.59989
 C1292 C 0.91585 0.75818 0.61707
 C1293 C 0.92561 0.74589 0.63094
 C1294 C 0.94540 0.73951 0.62784
 N1295 N 0.91588 0.77706 0.58528
 N1296 N 0.89712 0.77913 0.58518
 C1297 C 0.88708 0.79132 0.57069
 C1298 C 0.86658 0.78883 0.56848
 C1299 C 0.85638 0.79982 0.55396
 C1300 C 0.86649 0.81389 0.54169
 C1301 C 0.88700 0.81683 0.54429
 C1302 C 0.89727 0.80547 0.55857
 H1303 H 0.97046 0.74265 0.60758
 H1304 H 0.95316 0.76412 0.58369
 H1305 H 0.90058 0.76246 0.61976
 H1306 H 0.91715 0.74067 0.64360
 H1307 H 0.85857 0.77802 0.57779
 H1308 H 0.84056 0.79736 0.55235
 H1309 H 0.89514 0.82754 0.53498
 H1310 H 0.91312 0.80773 0.56013
 C1311 C 0.94195 0.27721 0.39167
 C1312 C 0.93108 0.26590 0.40556
 C1313 C 0.92578 0.24537 0.40184
 C1314 C 0.93124 0.23622 0.38385
 C1315 C 0.94176 0.24760 0.36971
 C1316 C 0.94744 0.26834 0.37337
 N1317 N 0.91459 0.23431 0.41642
 N1318 N 0.91245 0.21475 0.41590
 C1319 C 0.90083 0.20402 0.43038
 C1320 C 0.90270 0.18255 0.43217
 C1321 C 0.89178 0.17175 0.44645
 C1322 C 0.87847 0.18228 0.45885
 C1323 C 0.87636 0.20378 0.45677
 C1324 C 0.88755 0.21459 0.44277
 H1325 H 0.94518 0.29323 0.39508
 H1326 H 0.92676 0.27317 0.41933
 H1327 H 0.92727 0.22032 0.38066
 H1328 H 0.94607 0.23972 0.35627
 H1329 H 0.91283 0.17423 0.42266
 H1330 H 0.89362 0.15517 0.44767
 H1331 H 0.86626 0.21229 0.46617
 H1332 H 0.88575 0.23117 0.44156
 C1333 C 0.06230 0.27768 0.60672
 C1334 C 0.07341 0.26691 0.59266
 C1335 C 0.07782 0.24604 0.59540
 C1336 C 0.07116 0.23596 0.61253
 C1337 C 0.06038 0.24675 0.62682
 C1338 C 0.05567 0.26786 0.62421
 N1339 N 0.08929 0.23550 0.58074
 N1340 N 0.09072 0.21589 0.58044
 C1341 C 0.10252 0.20536 0.56605
 C1342 C 0.09993 0.18405 0.56351
 C1343 C 0.11102 0.17337 0.54938
 C1344 C 0.12522 0.18383 0.53786
 C1345 C 0.12807 0.20518 0.54068
 C1346 C 0.11669 0.21591 0.55455
 H1347 H 0.05980 0.29397 0.60414
 H1348 H 0.07863 0.27489 0.57956
 H1349 H 0.07438 0.21977 0.61495
 H1350 H 0.05515 0.23816 0.63953
 H1351 H 0.08912 0.17576 0.57236
 H1352 H 0.10861 0.15690 0.54759
 H1353 H 0.13888 0.21362 0.53195
 H1354 H 0.11904 0.23238 0.55637
 C1355 C 0.04779 0.75399 0.37580
 C1356 C 0.05897 0.76561 0.38925
 C1357 C 0.07696 0.75815 0.39646
 C1358 C 0.08378 0.73883 0.39000
 C1359 C 0.07266 0.72712 0.37659
 C1360 C 0.05434 0.73439 0.36919
 N1361 N 0.08790 0.77035 0.41043
 N1362 N 0.10434 0.76432 0.41759
 C1363 C 0.11527 0.77632 0.43171
 C1364 C 0.13313 0.76851 0.43902
 C1365 C 0.14403 0.77961 0.45307
 C1366 C 0.13721 0.79880 0.46006
 C1367 C 0.11931 0.80669 0.45258
 C1368 C 0.10842 0.79554 0.43852
 H1369 H 0.03361 0.76021 0.37138
 H1370 H 0.05347 0.78044 0.39425
 H1371 H 0.09777 0.73278 0.39524
 H1372 H 0.07901 0.71272 0.37159
 H1373 H 0.13856 0.75371 0.43388
 H1374 H 0.15775 0.77310 0.45852
 H1375 H 0.11364 0.82141 0.45766
 H1376 H 0.09464 0.80190 0.43308
 C1377 C 0.63512 0.94954 0.75794
 C1378 C 0.62227 0.93867 0.77045
 C1379 C 0.60765 0.92566 0.76266
 C1380 C 0.60590 0.92364 0.74209
 C1381 C 0.61853 0.93466 0.72951
 C1382 C 0.63344 0.94789 0.73715
 N1383 N 0.59454 0.91497 0.77587
 N1384 N 0.58231 0.90134 0.76976
 C1385 C 0.56877 0.89098 0.78276
 C1386 C 0.55718 0.87475 0.77532
 C1387 C 0.54342 0.86465 0.78744
 C1388 C 0.54089 0.87081 0.80722
 C1389 C 0.55262 0.88707 0.81469
 C1390 C 0.56651 0.89703 0.80259
 H1391 H 0.64572 0.95992 0.76476
 H1392 H 0.62364 0.94050 0.78632
 H1393 H 0.59473 0.91359 0.73569
 H1394 H 0.61693 0.93204 0.71380
 H1395 H 0.55876 0.86999 0.76005
 H1396 H 0.53456 0.85223 0.78122
 H1397 H 0.55104 0.89215 0.82987
 H1398 H 0.57527 0.90959 0.80866
 C1399 C 0.36840 0.91817 0.26538
 C1400 C 0.38115 0.90686 0.25324
 C1401 C 0.39770 0.91629 0.24465
 C1402 C 0.40165 0.93721 0.24859
 C1403 C 0.38918 0.94849 0.26104
 C1404 C 0.37218 0.93924 0.26961
 N1405 N 0.41041 0.90427 0.23224
 N1406 N 0.42337 0.91261 0.22107
 C1407 C 0.43646 0.90057 0.20906
 C1408 C 0.44763 0.91048 0.19440
 C1409 C 0.46075 0.89920 0.18261
 C1410 C 0.46314 0.87785 0.18560
 C1411 C 0.45196 0.86794 0.20039
 C1412 C 0.43860 0.87918 0.21195
 H1413 H 0.35607 0.90998 0.27205
 H1414 H 0.37808 0.89065 0.25047
 H1415 H 0.41442 0.94484 0.24210
 H1416 H 0.39254 0.96472 0.26315
 H1417 H 0.44614 0.92697 0.19209
 H1418 H 0.46926 0.90726 0.17139
 H1419 H 0.45348 0.85150 0.20299
 H1420 H 0.43019 0.87122 0.22328
 C1421 C 0.62437 0.04592 0.24402
 C1422 C 0.61059 0.05577 0.23183
 C1423 C 0.60499 0.07621 0.23558
 C1424 C 0.61352 0.08684 0.25163
 C1425 C 0.62730 0.07703 0.26381
 C1426 C 0.63282 0.05642 0.26022
 N1427 N 0.59049 0.08574 0.22312
 N1428 N 0.58442 0.10405 0.22630
 C1429 C 0.56981 0.11386 0.21422
 C1430 C 0.56365 0.13379 0.21925
 C1431 C 0.54919 0.14380 0.20808
 C1432 C 0.54062 0.13402 0.19155
 C1433 C 0.54694 0.11402 0.18641
 C1434 C 0.56141 0.10398 0.19767
 H1435 H 0.62813 0.02996 0.24101
 H1436 H 0.60409 0.04739 0.21955
 H1437 H 0.60951 0.10269 0.25481
 H1438 H 0.63376 0.08564 0.27597
 H1439 H 0.57003 0.14155 0.23196
 H1440 H 0.54471 0.15921 0.21243
 H1441 H 0.54063 0.10608 0.17377
 H1442 H 0.56596 0.08855 0.19350
 C1443 C 0.36210 0.08045 0.73779
 C1444 C 0.37544 0.09136 0.74970
 C1445 C 0.38555 0.08137 0.76497
 C1446 C 0.38187 0.06028 0.76852
 C1447 C 0.36853 0.04931 0.75659
 C1448 C 0.35868 0.05923 0.74093
 N1449 N 0.39994 0.09284 0.77608
 N1450 N 0.40959 0.08503 0.79039
 C1451 C 0.42439 0.09668 0.80084
 C1452 C 0.43374 0.08782 0.81722
 C1453 C 0.44855 0.09868 0.82741
 C1454 C 0.45435 0.11858 0.82122
 C1455 C 0.44489 0.12743 0.80477
 C1456 C 0.43003 0.11662 0.79470
 H1457 H 0.35452 0.08859 0.72605
 H1458 H 0.37812 0.10763 0.74687
 H1459 H 0.38957 0.05221 0.78023
 H1460 H 0.36638 0.03293 0.75924
 H1461 H 0.42957 0.07244 0.82206
 H1462 H 0.45557 0.09144 0.84001
 H1463 H 0.44896 0.14274 0.79965
 H1464 H 0.42308 0.12380 0.78204
 C1465 C 0.61131 0.71949 0.06390
 C1466 C 0.59766 0.73051 0.07530
 C1467 C 0.59865 0.75211 0.07627
 C1468 C 0.61361 0.76265 0.06580
 C1469 C 0.62743 0.75163 0.05461
 C1470 C 0.62636 0.72995 0.05351
 N1471 N 0.58442 0.76294 0.08805
 N1472 N 0.58278 0.78253 0.08745
 C1473 C 0.56876 0.79340 0.09943
 C1474 C 0.56541 0.81437 0.09571
 C1475 C 0.55166 0.82539 0.10699
 C1476 C 0.54124 0.81563 0.12242
 C1477 C 0.54483 0.79462 0.12631
 C1478 C 0.55839 0.78355 0.11483
 H1479 H 0.61030 0.70277 0.06343
 H1480 H 0.58624 0.72223 0.08335
 H1481 H 0.61471 0.77935 0.06637
 H1482 H 0.63882 0.76004 0.04662
 H1483 H 0.57336 0.82214 0.08392
 H1484 H 0.54928 0.84158 0.10371
 H1485 H 0.53700 0.78667 0.13807
 H1486 H 0.56082 0.76736 0.11805
 C1487 C 0.38542 0.25212 0.03973
 C1488 C 0.39896 0.23971 0.04989
 C1489 C 0.39863 0.23879 0.07056
 C1490 C 0.38436 0.25021 0.08102
 C1491 C 0.37068 0.26240 0.07088
 C1492 C 0.37114 0.26356 0.05015
 N1493 N 0.41301 0.22639 0.08061
 N1494 N 0.41514 0.22730 0.09929
 C1495 C 0.42939 0.21511 0.10970
 C1496 C 0.43307 0.21960 0.12958
 C1497 C 0.44727 0.20850 0.14013
 C1498 C 0.45785 0.19242 0.13099
 C1499 C 0.45385 0.18761 0.11110
 C1500 C 0.43981 0.19898 0.10047
 H1501 H 0.38597 0.25261 0.02373
 H1502 H 0.40986 0.23096 0.04166
 H1503 H 0.38377 0.24972 0.09701
 H1504 H 0.35992 0.27120 0.07926
 H1505 H 0.42508 0.23195 0.13685
 H1506 H 0.44993 0.21248 0.15546
 H1507 H 0.46181 0.17534 0.10369
 H1508 H 0.43713 0.19518 0.08511
 C1509 C 0.63343 0.23073 0.95242
 C1510 C 0.61977 0.21788 0.94275
 C1511 C 0.60482 0.22639 0.93099
 C1512 C 0.60344 0.24801 0.92926
 C1513 C 0.61692 0.26086 0.93911
 C1514 C 0.63212 0.25234 0.95068
 N1515 N 0.59129 0.21287 0.92089
 N1516 N 0.57932 0.21966 0.90791
 C1517 C 0.56548 0.20661 0.89772
 C1518 C 0.55468 0.21496 0.88203
 C1519 C 0.54089 0.20287 0.87179
 C1520 C 0.53748 0.18216 0.87723
 C1521 C 0.54833 0.17377 0.89305
 C1522 C 0.56231 0.18588 0.90317
 H1523 H 0.64492 0.22380 0.96139
 H1524 H 0.62096 0.20126 0.94426
 H1525 H 0.59196 0.25498 0.92032
 H1526 H 0.61569 0.27746 0.93740
 H1527 H 0.55697 0.23093 0.87773
 H1528 H 0.53272 0.20984 0.85975
 H1529 H 0.54603 0.15788 0.89758
 H1530 H 0.57047 0.17912 0.91531
 C1531 C 0.36218 0.74073 0.92032
 C1532 C 0.37553 0.75159 0.90834
 C1533 C 0.39069 0.76350 0.91679
 C1534 C 0.39247 0.76439 0.93748
 C1535 C 0.37927 0.75334 0.94949
 C1536 C 0.36399 0.74143 0.94101
 N1537 N 0.40427 0.77418 0.90406
 N1538 N 0.41696 0.78710 0.91064
 C1539 C 0.43085 0.79734 0.89790
 C1540 C 0.44275 0.81318 0.90561
 C1541 C 0.45670 0.82322 0.89365
 C1542 C 0.45913 0.81735 0.87377
 C1543 C 0.44714 0.80143 0.86606
 C1544 C 0.43305 0.79157 0.87798
 H1545 H 0.35066 0.73150 0.91342
 H1546 H 0.37407 0.75072 0.89241
 H1547 H 0.40413 0.77344 0.94436
 H1548 H 0.38088 0.75423 0.96540
 H1549 H 0.44122 0.81773 0.92095
 H1550 H 0.46578 0.83537 0.90004
 H1551 H 0.44863 0.79659 0.85080
 H1552 H 0.42406 0.77930 0.87170
 C1553 C 0.75790 0.95939 0.37190
 C1554 C 0.77003 0.94948 0.38571
 C1555 C 0.76705 0.92857 0.39021
 C1556 C 0.75207 0.91746 0.38033
 C1557 C 0.74000 0.92731 0.36648
 C1558 C 0.74259 0.94845 0.36230
 N1559 N 0.77897 0.91911 0.40520
 N1560 N 0.77579 0.90064 0.41091
 C1561 C 0.78723 0.89095 0.42610
 C1562 C 0.78198 0.87098 0.43212
 C1563 C 0.79244 0.86115 0.44722
 C1564 C 0.80849 0.87116 0.45654
 C1565 C 0.81386 0.89119 0.45035
 C1566 C 0.80329 0.90104 0.43527
 H1567 H 0.76014 0.97574 0.36919
 H1568 H 0.78151 0.95822 0.39324
 H1569 H 0.74955 0.90123 0.38342
 H1570 H 0.72858 0.91837 0.35909
 H1571 H 0.76962 0.86306 0.42517
 H1572 H 0.78795 0.84571 0.45158
 H1573 H 0.82614 0.89930 0.45723
 H1574 H 0.80763 0.91651 0.43085
 C1575 C 0.24560 0.95192 0.62431
 C1576 C 0.23411 0.94100 0.61059
 C1577 C 0.23873 0.92055 0.60576
 C1578 C 0.25493 0.91096 0.61499
 C1579 C 0.26641 0.92183 0.62874
 C1580 C 0.26195 0.94248 0.63348
 N1581 N 0.22694 0.90996 0.59129
 N1582 N 0.23098 0.89169 0.58559
 C1583 C 0.21937 0.88106 0.57103
 C1584 C 0.22527 0.86136 0.56492
 C1585 C 0.21448 0.85065 0.55052
 C1586 C 0.19749 0.85950 0.54201
 C1587 C 0.19151 0.87926 0.54828
 C1588 C 0.20237 0.88998 0.56264
 H1589 H 0.24194 0.96788 0.62743
 H1590 H 0.22169 0.94857 0.60354
 H1591 H 0.25875 0.89511 0.61157
 H1592 H 0.27870 0.91403 0.63577
 H1593 H 0.23835 0.85434 0.57129
 H1594 H 0.21947 0.83545 0.54606
 H1595 H 0.17850 0.88651 0.54201
 H1596 H 0.19751 0.90521 0.56714
 C1597 C 0.28209 0.06624 0.38870
 C1598 C 0.27081 0.07774 0.40207
 C1599 C 0.25012 0.07808 0.40056
 C1600 C 0.24075 0.06692 0.38533
 C1601 C 0.25202 0.05562 0.37181
 C1602 C 0.27279 0.05511 0.37342
 N1603 N 0.23902 0.08987 0.41461
 N1604 N 0.22019 0.08880 0.41565
 C1605 C 0.20914 0.10074 0.42963
 C1606 C 0.18894 0.09651 0.43220
 C1607 C 0.17783 0.10760 0.44603
 C1608 C 0.18676 0.12336 0.45733
 C1609 C 0.20699 0.12781 0.45448
 C1610 C 0.21813 0.11652 0.44083
 H1611 H 0.29809 0.06624 0.39014
 H1612 H 0.27819 0.08633 0.41371
 H1613 H 0.22476 0.06700 0.38384
 H1614 H 0.24452 0.04703 0.36023
 H1615 H 0.18184 0.08442 0.42361
 H1616 H 0.16225 0.10388 0.44784
 H1617 H 0.21429 0.13982 0.46300
 H1618 H 0.23372 0.12015 0.43902
 C1619 C 0.73233 0.08466 0.63212
 C1620 C 0.74449 0.09583 0.61919
 C1621 C 0.75626 0.08552 0.60531
 C1622 C 0.75555 0.06381 0.60429
 C1623 C 0.74319 0.05264 0.61702
 C1624 C 0.73155 0.06296 0.63112
 N1625 N 0.76862 0.09741 0.59234
 N1626 N 0.78165 0.08903 0.58137
 C1627 C 0.79370 0.10083 0.56803
 C1628 C 0.80932 0.09104 0.55820
 C1629 C 0.82106 0.10199 0.54472
 C1630 C 0.81716 0.12290 0.54068
 C1631 C 0.80151 0.13273 0.55065
 C1632 C 0.78993 0.12182 0.56429
 H1633 H 0.72337 0.09296 0.64277
 H1634 H 0.74485 0.11255 0.62005
 H1635 H 0.76445 0.05551 0.59361
 H1636 H 0.74295 0.03591 0.61609
 H1637 H 0.81234 0.07486 0.56095
 H1638 H 0.83296 0.09397 0.53721
 H1639 H 0.79816 0.14883 0.54787
 H1640 H 0.77788 0.12971 0.57167
 C1641 C 0.95379 0.63098 0.24067
 C1642 C 0.94409 0.61742 0.22772
 C1643 C 0.92400 0.61266 0.23040
 C1644 C 0.91348 0.62215 0.24587
 C1645 C 0.92311 0.63577 0.25874
 C1646 C 0.94345 0.64010 0.25649
 N1647 N 0.91478 0.59764 0.21775
 N1648 N 0.89714 0.59132 0.22083
 C1649 C 0.88770 0.57596 0.20879
 C1650 C 0.86886 0.56887 0.21424
 C1651 C 0.85941 0.55335 0.20335
 C1652 C 0.86864 0.54470 0.18665
 C1653 C 0.88748 0.55207 0.18099
 C1654 C 0.89699 0.56754 0.19202
 H1655 H 0.96951 0.63380 0.23867
 H1656 H 0.95236 0.61018 0.21588
 H1657 H 0.89789 0.61886 0.24816
 H1658 H 0.91466 0.64282 0.27056
 H1659 H 0.86157 0.57525 0.22714
 H1660 H 0.84488 0.54810 0.20806
 H1661 H 0.89497 0.54571 0.16820
 H1662 H 0.91157 0.57280 0.18752
 C1663 C 0.96433 0.38493 0.74884
 C1664 C 0.95466 0.39829 0.76190
 C1665 C 0.93396 0.39797 0.76346
 C1666 C 0.92297 0.38389 0.75193
 C1667 C 0.93263 0.37039 0.73903
 C1668 C 0.95340 0.37084 0.73729
 N1669 N 0.92442 0.41215 0.77664
 N1670 N 0.90566 0.41416 0.77693
 C1671 C 0.89583 0.42826 0.78994
 C1672 C 0.87554 0.43167 0.78735
 C1673 C 0.86552 0.44575 0.79935
 C1674 C 0.87562 0.45648 0.81440
 C1675 C 0.89595 0.45275 0.81726
 C1676 C 0.90603 0.43882 0.80504
 H1677 H 0.98037 0.38544 0.74791
 H1678 H 0.96328 0.40904 0.77073
 H1679 H 0.90695 0.38332 0.75289
 H1680 H 0.92385 0.35980 0.73018
 H1681 H 0.86753 0.42357 0.77579
 H1682 H 0.84984 0.44821 0.79685
 H1683 H 0.90412 0.46082 0.82871
 H1684 H 0.92172 0.43635 0.80737
 C1685 C 0.03577 0.61440 0.74733
 C1686 C 0.04582 0.60079 0.75982
 C1687 C 0.06654 0.60146 0.76115
 C1688 C 0.07715 0.61611 0.74996
 C1689 C 0.06711 0.62990 0.73767
 C1690 C 0.04633 0.62913 0.73619
 N1691 N 0.07643 0.58720 0.77395
 N1692 N 0.09520 0.58519 0.77378
 C1693 C 0.10527 0.57113 0.78662
 C1694 C 0.12539 0.56720 0.78333
 C1695 C 0.13561 0.55328 0.79534
 C1696 C 0.12590 0.54329 0.81109
 C1697 C 0.10576 0.54754 0.81459
 C1698 C 0.09548 0.56125 0.80238
 H1699 H 0.01973 0.61364 0.74658
 H1700 H 0.03748 0.58961 0.76841
 H1701 H 0.09317 0.61697 0.75077
 H1702 H 0.07559 0.64100 0.72912
 H1703 H 0.13310 0.57478 0.77128
 H1704 H 0.15113 0.55040 0.79234
 H1705 H 0.09788 0.54003 0.82658
 H1706 H 0.07994 0.56415 0.80526
 C1707 C 0.06788 0.38808 0.27768
 C1708 C 0.07958 0.40175 0.26667
 C1709 C 0.08054 0.40002 0.24607
 C1710 C 0.06979 0.38423 0.23653
 C1711 C 0.05828 0.37037 0.24755
 C1712 C 0.05715 0.37223 0.26822
 N1713 N 0.09246 0.41447 0.23523
 N1714 N 0.09187 0.41562 0.21646
 C1715 C 0.10385 0.43006 0.20566
 C1716 C 0.09991 0.43325 0.18560
 C1717 C 0.11086 0.44778 0.17480
 C1718 C 0.12621 0.45911 0.18388
 C1719 C 0.13045 0.45552 0.20393
 C1720 C 0.11928 0.44121 0.21478
 H1721 H 0.06741 0.38970 0.29362
 H1722 H 0.08784 0.41383 0.27418
 H1723 H 0.07034 0.38255 0.22061
 H1724 H 0.05004 0.35835 0.23992
 H1725 H 0.08809 0.42470 0.17840
 H1726 H 0.10731 0.45015 0.15936
 H1727 H 0.14215 0.46406 0.21134
 H1728 H 0.12268 0.43891 0.23027
   
