data_POSCAR
  _audit_creation_date              2014-09-24
  _audit_creation_method            'ToBaCCo'
  _symmetry_space_group_name_H-M    'P1'
  _symmetry_Int_Tables_number       1
  _symmetry_cell_setting            triclinic
  loop_
  _symmetry_equiv_pos_as_xyz
 x,y,z
_cell_length_a 59.1886
_cell_length_b 58.8283
_cell_length_c 62.2391
_cell_angle_alpha 89.674700
_cell_angle_beta 90.842900
_cell_angle_gamma 89.585600
loop_
  _atom_site_label
  _atom_site_type_symbol
  _atom_site_fract_x
  _atom_site_fract_y
  _atom_site_fract_z
C1 C 0.39197 -0.00643 0.24985
 C2 C 0.10809 0.00439 0.75140
 C3 C 0.60176 0.50471 0.25142
 C4 C 0.89890 0.49744 0.74975
 C5 C 0.25055 0.35927 1.00110
 C6 C 0.74708 0.14378 0.99969
 C7 C 0.24777 0.64078 0.50188
 C8 C 0.75093 0.85605 0.50328
 C9 C -0.00401 0.24132 0.36638
 C10 C -0.00750 0.75548 0.13306
 C11 C 0.50139 0.24933 0.62367
 C12 C 0.50579 0.75558 0.86461
 C13 C -0.25164 0.64922 1.00420
 C14 C -0.25010 0.35192 0.49802
 C15 C 0.24914 -0.14421 -0.00026
 C16 C 0.24862 1.14113 0.50043
 C17 C 0.10331 0.49551 0.25017
 C18 C -0.10782 1.00370 0.24750
 C19 C 0.39830 0.50187 -0.25222
 C20 C 0.60656 -0.00115 -0.24727
 C21 C 0.00621 0.25709 0.88014
 C22 C 0.49253 0.25444 0.12485
 C23 C 0.00491 0.74079 0.62186
 C24 C 0.49579 0.74615 0.37703
 Zr25 Zr 0.02016 -0.01328 1.02928
 O26 O 0.04236 -0.00074 1.05334
 O27 O 0.01850 -0.04772 1.03739
 O28 O 0.00549 -0.01475 1.06027
 O29 O 0.06165 -0.01829 0.99092
 O30 O -0.02998 -0.00030 1.05449
 O31 O 0.05341 -0.02650 1.02579
 O32 O -0.00559 -0.06234 1.01219
 O33 O -0.01381 -0.02099 1.02281
 O34 O 0.01891 -0.02836 0.99893
 O35 O 0.00269 0.01795 1.03048
 O36 O 0.03474 0.01047 1.00808
 Zr37 Zr -0.01944 0.01927 0.97068
 Zr38 Zr -0.03084 0.01029 1.02232
 Zr39 Zr 0.03163 -0.00445 0.97768
 Zr40 Zr -0.01484 -0.03482 0.99203
 O41 O 0.05886 0.01676 0.96924
 O42 O -0.04518 -0.04833 1.00432
 O43 O -0.00194 -0.01210 0.96922
 O44 O -0.03357 -0.00452 0.99192
 O45 O -0.01840 0.03452 1.00098
 O46 O 0.01450 0.02666 0.97732
 C47 C 0.00764 -0.06422 1.02873
 C48 C 0.06677 -0.02670 1.00953
 C49 C -0.01446 -0.00908 1.06664
 O50 O -0.06001 -0.00924 1.02825
 O51 O -0.05945 0.02745 1.01006
 O52 O -0.05216 0.03384 0.97468
 C53 C -0.06487 0.03537 0.99136
 O54 O 0.04011 0.04603 1.03260
 Zr55 Zr 0.01555 0.04071 1.00791
 O56 O -0.01841 0.05388 0.96303
 O57 O -0.03778 0.03847 1.04222
 O58 O 0.00208 0.06481 1.02957
 O59 O 0.04417 0.05666 0.99453
 O60 O 0.00323 0.06874 0.99002
 C61 C -0.00951 0.07065 0.97316
 O62 O -0.04251 0.00710 0.94718
 O63 O 0.04091 -0.03376 0.96017
 O64 O -0.00537 0.01915 0.93935
 O65 O 0.02853 0.00103 0.94453
 O66 O -0.00066 -0.06038 0.97235
 O67 O -0.03630 -0.04131 0.96511
 C68 C 0.01324 0.01034 0.93246
 H69 H 0.02782 -0.04262 0.99806
 H70 H -0.04950 -0.00766 0.98798
 H71 H 0.02098 0.03715 0.96659
 H72 H 0.00391 0.02474 1.04497
 H73 H -0.04495 -0.06493 1.00168
 H74 H -0.06910 -0.00072 1.03880
 H75 H -0.05250 0.03554 1.04905
 H76 H 0.00972 0.07948 1.02693
 H77 H -0.00869 -0.07475 0.97539
 H78 H 0.05551 -0.03047 0.95324
 H79 H 0.06812 0.00808 0.95895
 H80 H 0.04317 0.07305 0.99802
 H81 H -0.04213 -0.05701 0.96609
 H82 H -0.04685 0.02025 0.93792
 H83 H 0.04683 -0.01384 1.06261
 H84 H 0.04354 0.06244 1.03358
 Zr85 Zr 0.51978 0.47872 0.52883
 O86 O 0.54086 0.48757 0.55522
 O87 O 0.51825 0.44337 0.53208
 O88 O 0.50407 0.47294 0.55881
 O89 O 0.56301 0.47964 0.49194
 O90 O 0.46855 0.48751 0.55370
 O91 O 0.55335 0.46663 0.52512
 O92 O 0.49546 0.43235 0.50423
 O93 O 0.48621 0.47161 0.52006
 O94 O 0.52012 0.46835 0.49675
 O95 O 0.50176 0.50922 0.53346
 O96 O 0.53494 0.50558 0.51174
 Zr97 Zr 0.48223 0.51902 0.47368
 Zr98 Zr 0.46868 0.50244 0.52306
 Zr99 Zr 0.53346 0.49536 0.47954
 Zr100 Zr 0.48676 0.46255 0.48769
 O101 O 0.56108 0.51761 0.47582
 O102 O 0.45609 0.44698 0.49669
 O103 O 0.50041 0.48854 0.46872
 O104 O 0.46748 0.49224 0.49093
 O105 O 0.48171 0.52971 0.50569
 O106 O 0.51573 0.52589 0.48264
 C107 C 0.50804 0.42820 0.52084
 C108 C 0.56742 0.46880 0.50957
 C109 C 0.48393 0.47764 0.56526
 O110 O 0.43968 0.48177 0.52515
 O111 O 0.44039 0.52114 0.51201
 O112 O 0.44929 0.53267 0.47818
 C113 C 0.43584 0.53179 0.49434
 O114 O 0.53839 0.53716 0.54114
 Zr115 Zr 0.51525 0.53527 0.51477
 O116 O 0.48324 0.55439 0.47070
 O117 O 0.46031 0.52725 0.54618
 O118 O 0.50017 0.55582 0.53860
 O119 O 0.54440 0.55317 0.50507
 O120 O 0.50375 0.56558 0.50003
 C121 C 0.49169 0.56965 0.48307
 O122 O 0.46010 0.51043 0.44800
 O123 O 0.54342 0.46939 0.45817
 O124 O 0.49730 0.52304 0.44311
 O125 O 0.53235 0.50713 0.44774
 O126 O 0.50201 0.44015 0.46551
 O127 O 0.46680 0.46030 0.45912
 C128 C 0.51698 0.51710 0.43624
 H129 H 0.52927 0.45447 0.49436
 H130 H 0.45177 0.48957 0.48593
 H131 H 0.52251 0.53797 0.47373
 H132 H 0.50230 0.51387 0.54872
 H133 H 0.45663 0.43103 0.49166
 H134 H 0.42996 0.48857 0.53628
 H135 H 0.44532 0.52315 0.55189
 H136 H 0.50774 0.57079 0.53832
 H137 H 0.49370 0.42559 0.46603
 H138 H 0.55838 0.47370 0.45254
 H139 H 0.57098 0.51076 0.46486
 H140 H 0.54311 0.56884 0.51070
 H141 H 0.46072 0.44473 0.45780
 H142 H 0.45609 0.52477 0.44033
 H143 H 0.54508 0.47325 0.56283
 H144 H 0.54141 0.55330 0.54449
 Zr145 Zr 0.47882 1.01266 0.53168
 O146 O 0.45764 1.00018 0.55613
 O147 O 0.48024 1.04727 0.53893
 O148 O 0.49436 1.01466 0.56255
 O149 O 0.43590 1.01668 0.49350
 O150 O 0.52973 1.00030 0.55718
 O151 O 0.44534 1.02529 0.52815
 O152 O 0.50324 1.06180 0.51327
 O153 O 0.51247 1.02069 0.52499
 O154 O 0.47883 1.02736 0.50101
 O155 O 0.49665 0.98164 0.53355
 O156 O 0.46374 0.98848 0.51112
 Zr157 Zr 0.51673 0.97987 0.47378
 Zr158 Zr 0.52981 0.98957 0.52516
 Zr159 Zr 0.46561 1.00305 0.48039
 Zr160 Zr 0.51228 1.03410 0.49388
 O161 O 0.43833 0.98145 0.47251
 O162 O 0.54280 1.04819 0.50587
 O163 O 0.49880 1.01098 0.47165
 O164 O 0.53134 1.00403 0.49444
 O165 O 0.51690 0.96493 0.50439
 O166 O 0.48310 0.97216 0.48067
 C167 C 0.49047 1.06379 0.52972
 C168 C 0.43138 1.02515 0.51200
 C169 C 0.51445 1.00905 0.56911
 O170 O 0.55885 1.00959 0.53071
 O171 O 0.55824 0.97269 0.51313
 O172 O 0.54967 0.96569 0.47797
 C173 C 0.56303 0.96458 0.49459
 O174 O 0.45979 0.95311 0.53657
 Zr175 Zr 0.48325 0.95847 0.51155
 O176 O 0.51561 0.94521 0.46678
 O177 O 0.53786 0.96166 0.54554
 O178 O 0.49794 0.93472 0.53349
 O179 O 0.45418 0.94221 0.49879
 O180 O 0.49490 0.93040 0.49400
 C181 C 0.50700 0.92848 0.47711
 O182 O 0.53896 0.99189 0.45000
 O183 O 0.45537 1.03201 0.46226
 O184 O 0.50177 0.97973 0.44247
 O185 O 0.46765 0.99709 0.44740
 O186 O 0.49725 1.05923 0.47358
 O187 O 0.53280 1.04036 0.46677
 C188 C 0.48276 0.98808 0.43545
 H189 H 0.46969 1.04148 0.49984
 H190 H 0.54710 1.00731 0.49038
 H191 H 0.47634 0.96150 0.47017
 H192 H 0.49597 0.97499 0.54817
 H193 H 0.54227 1.06474 0.50278
 H194 H 0.56841 1.00129 0.54140
 H195 H 0.55276 0.96488 0.55229
 H196 H 0.49038 0.91994 0.53121
 H197 H 0.50530 1.07369 0.47620
 H198 H 0.44054 1.02847 0.45552
 H199 H 0.42861 0.98990 0.46207
 H200 H 0.45540 0.92586 0.50262
 H201 H 0.53861 1.05609 0.46741
 H202 H 0.54309 0.97868 0.44099
 H203 H 0.45329 1.01333 0.56513
 H204 H 0.45668 0.93666 0.53797
 Zr205 Zr -0.01792 0.52688 1.02782
 O206 O -0.04047 0.51421 1.05104
 O207 O -0.01728 0.56148 1.03519
 O208 O -0.00432 0.52909 1.05948
 O209 O -0.05824 0.53096 0.98705
 O210 O 0.03148 0.51502 1.05612
 O211 O -0.05135 0.53899 1.02233
 O212 O 0.00771 0.57624 1.01142
 O213 O 0.01616 0.53490 1.02332
 O214 O -0.01579 0.54188 0.99738
 O215 O -0.00024 0.49584 1.03061
 O216 O -0.03154 0.50292 1.00615
 Zr217 Zr 0.02393 0.49450 0.97232
 Zr218 Zr 0.03349 0.50377 1.02436
 Zr219 Zr -0.02750 0.51777 0.97575
 Zr220 Zr 0.01815 0.54863 0.99247
 O221 O -0.05400 0.49620 0.96562
 O222 O 0.04775 0.56254 1.00660
 O223 O 0.00627 0.52569 0.96929
 O224 O 0.03716 0.51848 0.99397
 O225 O 0.02195 0.47933 1.00270
 O226 O -0.01015 0.48682 0.97693
 C227 C -0.00636 0.57809 1.02691
 C228 C -0.06420 0.53892 1.00536
 C229 C 0.01546 0.52383 1.06710
 O230 O 0.06251 0.52332 1.03143
 O231 O 0.06242 0.48623 1.01418
 O232 O 0.05624 0.47973 0.97852
 C233 C 0.06829 0.47805 0.99595
 O234 O -0.03734 0.46742 1.03106
 Zr235 Zr -0.01215 0.47286 1.00763
 O236 O 0.02318 0.45991 0.96484
 O237 O 0.03975 0.47602 1.04547
 O238 O 0.00093 0.44892 1.03027
 O239 O -0.04029 0.45673 0.99295
 O240 O 0.00072 0.44490 0.99065
 C241 C 0.01393 0.44309 0.97451
 O242 O 0.04799 0.50673 0.95031
 O243 O -0.03670 0.54701 0.95752
 O244 O 0.01134 0.49462 0.94019
 O245 O -0.02278 0.51263 0.94289
 O246 O 0.00459 0.57387 0.97140
 O247 O 0.04067 0.55516 0.96691
 C248 C -0.00689 0.50347 0.93199
 H249 H -0.02492 0.55596 0.99577
 H250 H 0.05321 0.52166 0.99092
 H251 H -0.01615 0.47628 0.96593
 H252 H -0.00191 0.48918 1.04514
 H253 H 0.04748 0.57911 1.00365
 H254 H 0.07121 0.51497 1.04273
 H255 H 0.05426 0.47908 1.05302
 H256 H -0.00649 0.43417 1.02739
 H257 H 0.01237 0.58834 0.97466
 H258 H -0.05090 0.54343 0.94964
 H259 H -0.06290 0.50477 0.95463
 H260 H -0.03935 0.44036 0.99675
 H261 H 0.04637 0.57090 0.96806
 H262 H 0.05276 0.49362 0.94147
 H263 H -0.04553 0.52734 1.05972
 H264 H -0.04059 0.45097 1.03214
 Zr265 Zr -0.01546 0.47037 0.47158
 O266 O -0.03758 0.48277 0.44710
 O267 O -0.01341 0.43587 0.46412
 O268 O -0.00064 0.46847 0.44078
 O269 O -0.05688 0.46545 0.50996
 O270 O 0.03436 0.48361 0.44614
 O271 O -0.04870 0.45760 0.47508
 O272 O 0.01143 0.42143 0.48910
 O273 O 0.01875 0.46310 0.47795
 O274 O -0.01373 0.45519 0.50202
 O275 O 0.00119 0.50179 0.46997
 O276 O -0.03058 0.49386 0.49261
 Zr277 Zr 0.02347 0.50324 0.52962
 Zr278 Zr 0.03498 0.49460 0.47809
 Zr279 Zr -0.02693 0.47888 0.52312
 Zr280 Zr 0.02028 0.44913 0.50878
 O281 O -0.05442 0.49981 0.53204
 O282 O 0.05077 0.43599 0.49621
 O283 O 0.00688 0.47164 0.53142
 O284 O 0.03822 0.47971 0.50858
 O285 O 0.02187 0.51858 0.49922
 O286 O -0.01070 0.51020 0.52311
 C287 C -0.00215 0.41942 0.47287
 C288 C -0.06210 0.45753 0.49131
 C289 C 0.01912 0.47431 0.43426
 O290 O 0.06489 0.47573 0.47254
 O291 O 0.06292 0.51274 0.49003
 O292 O 0.05539 0.51882 0.52534
 C293 C 0.06793 0.52093 0.50862
 O294 O -0.03691 0.52938 0.46760
 Zr295 Zr -0.01227 0.52431 0.49238
 O296 O 0.02114 0.53775 0.53724
 O297 O 0.04088 0.52266 0.45753
 O298 O 0.00061 0.54870 0.47061
 O299 O -0.04142 0.53971 0.50557
 O300 O -0.00097 0.55240 0.51018
 C301 C 0.01163 0.55441 0.52707
 O302 O 0.04731 0.49143 0.55287
 O303 O -0.03568 0.44925 0.54052
 O304 O 0.00988 0.50240 0.56104
 O305 O -0.02346 0.48371 0.55625
 O306 O 0.00698 0.42348 0.52896
 O307 O 0.04224 0.44284 0.53552
 C308 C -0.00827 0.49305 0.56814
 H309 H -0.02243 0.44092 0.50303
 H310 H 0.05426 0.47686 0.51250
 H311 H -0.01742 0.52050 0.53384
 H312 H -0.00027 0.50852 0.45539
 H313 H 0.05102 0.41940 0.49903
 H314 H 0.07365 0.48438 0.46182
 H315 H 0.05572 0.51997 0.45078
 H316 H -0.00743 0.56325 0.47314
 H317 H 0.01533 0.40919 0.52603
 H318 H -0.05028 0.45242 0.54756
 H319 H -0.06337 0.49092 0.54241
 H320 H -0.04097 0.55612 0.50191
 H321 H 0.04850 0.42723 0.53458
 H322 H 0.05123 0.50458 0.56209
 H323 H -0.04189 0.46959 0.43807
 H324 H -0.04073 0.54576 0.46642
 Zr325 Zr 0.47781 -0.01496 -0.02872
 O326 O 0.45516 -0.00161 -0.05230
 O327 O 0.48017 -0.04904 -0.03775
 O328 O 0.49230 -0.01525 -0.05981
 O329 O 0.43697 -0.02211 0.00995
 O330 O 0.52731 -0.00028 -0.05397
 O331 O 0.44486 -0.02853 -0.02527
 O332 O 0.50514 -0.06437 -0.01337
 O333 O 0.51207 -0.02238 -0.02284
 O334 O 0.47991 -0.03141 0.00114
 O335 O 0.49434 0.01658 -0.02922
 O336 O 0.46288 0.00758 -0.00665
 Zr337 Zr 0.51730 0.01557 0.03033
 Zr338 Zr 0.52817 0.00913 -0.02163
 Zr339 Zr 0.46686 -0.00869 0.02325
 Zr340 Zr 0.51394 -0.03762 0.00745
 O341 O 0.43917 0.01163 0.03282
 O342 O 0.54443 -0.05010 -0.00568
 O343 O 0.50075 -0.01614 0.03108
 O344 O 0.53177 -0.00703 0.00824
 O345 O 0.51538 0.03225 0.00054
 O346 O 0.48304 0.02263 0.02429
 C347 C 0.49164 -0.06574 -0.02972
 C348 C 0.43172 -0.02955 -0.00887
 C349 C 0.51206 -0.00910 -0.06615
 O350 O 0.55790 -0.00954 -0.02842
 O351 O 0.55645 0.02617 -0.00927
 O352 O 0.54948 0.03094 0.02634
 C353 C 0.56192 0.03334 0.00956
 O354 O 0.45654 0.04448 -0.03036
 Zr355 Zr 0.48114 0.03811 -0.00581
 O356 O 0.51493 0.04966 0.03936
 O357 O 0.53391 0.03822 -0.04090
 O358 O 0.49419 0.06350 -0.02643
 O359 O 0.45181 0.05259 0.00789
 O360 O 0.49204 0.06535 0.01343
 C361 C 0.50481 0.06664 0.03029
 O362 O 0.54115 0.00276 0.05309
 O363 O 0.45868 -0.03898 0.03988
 O364 O 0.50376 0.01374 0.06176
 O365 O 0.47035 -0.00473 0.05650
 O366 O 0.50077 -0.06418 0.02663
 O367 O 0.53606 -0.04503 0.03382
 C368 C 0.48552 0.00433 0.06862
 H369 H 0.47136 -0.04580 0.00168
 H370 H 0.54785 -0.01008 0.01189
 H371 H 0.47630 0.03244 0.03541
 H372 H 0.49275 0.02396 -0.04350
 H373 H 0.54473 -0.06681 -0.00351
 H374 H 0.56657 -0.00043 -0.03886
 H375 H 0.54865 0.03587 -0.04794
 H376 H 0.48626 0.07795 -0.02321
 H377 H 0.50908 -0.07832 0.02304
 H378 H 0.44410 -0.03625 0.04710
 H379 H 0.43037 0.00232 0.04299
 H380 H 0.45216 0.06917 0.00500
 H381 H 0.54223 -0.06062 0.03232
 H382 H 0.54518 0.01552 0.06273
 H383 H 0.45090 -0.01436 -0.06186
 H384 H 0.45294 0.06094 -0.03095
 Zr385 Zr 0.51816 0.52503 -0.02786
 O386 O 0.54101 0.51269 -0.05097
 O387 O 0.51650 0.55961 -0.03563
 O388 O 0.50436 0.52723 -0.05953
 O389 O 0.55836 0.52916 0.01289
 O390 O 0.46897 0.51266 -0.05598
 O391 O 0.55133 0.53754 -0.02241
 O392 O 0.49103 0.57401 -0.01208
 O393 O 0.48388 0.53263 -0.02336
 O394 O 0.51567 0.53995 0.00245
 O395 O 0.50125 0.49380 -0.03033
 O396 O 0.53233 0.50115 -0.00596
 Zr397 Zr 0.47716 0.49207 0.02805
 Zr398 Zr 0.46734 0.50132 -0.02410
 Zr399 Zr 0.52794 0.51589 0.02431
 Zr400 Zr 0.48157 0.54631 0.00735
 O401 O 0.55505 0.49468 0.03468
 O402 O 0.45148 0.55985 -0.00668
 O403 O 0.49401 0.52346 0.03079
 O404 O 0.46333 0.51595 0.00617
 O405 O 0.47947 0.47695 -0.00220
 O406 O 0.51140 0.48477 0.02340
 C407 C 0.50497 0.57603 -0.02765
 C408 C 0.56419 0.53730 -0.00543
 C409 C 0.48468 0.52179 -0.06707
 O410 O 0.43783 0.52059 -0.03134
 O411 O 0.43884 0.48353 -0.01371
 O412 O 0.44517 0.47707 0.02202
 C413 C 0.43314 0.47531 0.00461
 O414 O 0.53885 0.46559 -0.03069
 Zr415 Zr 0.51372 0.47087 -0.00715
 O416 O 0.47882 0.45752 0.03586
 O417 O 0.46175 0.47354 -0.04493
 O418 O 0.50090 0.44681 -0.02936
 O419 O 0.54249 0.45519 0.00744
 O420 O 0.50194 0.44276 0.01043
 C421 C 0.48876 0.44083 0.02659
 O422 O 0.45292 0.50406 0.05003
 O423 O 0.53626 0.54525 0.04222
 O424 O 0.48996 0.49193 0.06014
 O425 O 0.52357 0.51039 0.05723
 O426 O 0.49464 0.57174 0.02800
 O427 O 0.45905 0.55256 0.03299
 C428 C 0.50806 0.50082 0.06823
 H429 H 0.52443 0.55414 0.00388
 H430 H 0.44721 0.51897 0.00920
 H431 H 0.51774 0.47428 0.03447
 H432 H 0.50306 0.48719 -0.04481
 H433 H 0.45130 0.57642 -0.00388
 H434 H 0.42931 0.51216 -0.04253
 H435 H 0.44715 0.47645 -0.05248
 H436 H 0.50862 0.43211 -0.02634
 H437 H 0.48647 0.58611 0.02460
 H438 H 0.55058 0.54189 0.05010
 H439 H 0.56373 0.50336 0.04557
 H440 H 0.54200 0.43880 0.00386
 H441 H 0.45304 0.56828 0.03178
 H442 H 0.44849 0.49088 0.05901
 H443 H 0.54569 0.52590 -0.05979
 H444 H 0.54229 0.44914 -0.03174
 Zr445 Zr 0.02194 1.00941 0.46942
 O446 O 0.04265 0.99786 0.44421
 O447 O 0.01953 1.04416 0.46273
 O448 O 0.00533 1.01225 0.43897
 O449 O 0.06591 1.01243 0.50657
 O450 O -0.02963 0.99773 0.44517
 O451 O 0.05527 1.02224 0.47236
 O452 O -0.00288 1.05795 0.48923
 O453 O -0.01155 1.01724 0.47731
 O454 O 0.02278 1.02305 0.50040
 O455 O 0.00443 0.97850 0.46747
 O456 O 0.03800 0.98453 0.48905
 Zr457 Zr -0.01359 0.97469 0.52784
 Zr458 Zr -0.02851 0.98617 0.47706
 Zr459 Zr 0.03698 0.99797 0.52015
 Zr460 Zr -0.01045 1.02962 0.50866
 O461 O 0.06509 0.97631 0.52613
 O462 O -0.04171 1.04400 0.49823
 O463 O 0.00404 1.00570 0.53005
 O464 O -0.02915 0.99960 0.50809
 O465 O -0.01461 0.96083 0.49692
 O466 O 0.01984 0.96713 0.51973
 C467 C 0.00915 1.06037 0.47230
 C468 C 0.06968 1.02165 0.48817
 C469 C -0.01489 1.00679 0.43288
 O470 O -0.05786 1.00652 0.47265
 O471 O -0.05636 0.96906 0.48967
 O472 O -0.04658 0.96095 0.52445
 C473 C -0.06048 0.96045 0.50824
 O474 O 0.04163 0.95020 0.46282
 Zr475 Zr 0.01885 0.95458 0.48858
 O476 O -0.01190 0.93966 0.53394
 O477 O -0.03697 0.95885 0.45654
 O478 O 0.00387 0.93165 0.46647
 O479 O 0.04842 0.93774 0.50022
 O480 O 0.00795 0.92590 0.50568
 C481 C -0.00360 0.92331 0.52284
 O482 O -0.03518 0.98571 0.55259
 O483 O 0.04692 1.02609 0.53905
 O484 O 0.00231 0.97386 0.55872
 O485 O 0.03681 0.98964 0.55290
 O486 O 0.00503 1.05429 0.52864
 O487 O -0.02976 1.03489 0.53674
 C488 C 0.02198 0.98073 0.56517
 H489 H 0.03166 1.03719 0.50154
 H490 H -0.04479 1.00278 0.51271
 H491 H 0.02704 0.95603 0.52974
 H492 H 0.00470 0.97233 0.45272
 H493 H -0.04133 1.06043 0.50165
 H494 H -0.06774 0.99853 0.46220
 H495 H -0.05213 0.96230 0.45030
 H496 H 0.01176 0.91682 0.46817
 H497 H -0.00343 1.06875 0.52659
 H498 H 0.06210 1.02246 0.54515
 H499 H 0.07511 0.98431 0.53645
 H500 H 0.04725 0.92156 0.49604
 H501 H -0.03586 1.05061 0.53666
 H502 H -0.03874 0.97217 0.56147
 H503 H 0.04641 1.01133 0.43532
 H504 H 0.04500 0.93382 0.46101
 Zr505 Zr 0.72593 0.27313 0.21673
 O506 O 0.73701 0.29401 0.19121
 O507 O 0.69103 0.27322 0.21156
 O508 O 0.72075 0.25755 0.18634
 O509 O 0.72651 0.31627 0.25433
 O510 O 0.73337 0.22121 0.19189
 O511 O 0.71484 0.30723 0.22036
 O512 O 0.67765 0.25079 0.23847
 O513 O 0.71712 0.23966 0.22461
 O514 O 0.71407 0.27371 0.24823
 O515 O 0.75572 0.25386 0.21341
 O516 O 0.75228 0.28729 0.23548
 Zr517 Zr 0.76185 0.23366 0.27336
 Zr518 Zr 0.74721 0.22088 0.22302
 Zr519 Zr 0.74050 0.28600 0.26708
 Zr520 Zr 0.70652 0.24041 0.25642
 O521 O 0.76341 0.31292 0.27234
 O522 O 0.69033 0.21036 0.24586
 O523 O 0.73195 0.25299 0.27698
 O524 O 0.73551 0.21993 0.25456
 O525 O 0.77392 0.23290 0.24195
 O526 O 0.77031 0.26710 0.26526
 C527 C 0.67493 0.26376 0.22186
 C528 C 0.71666 0.32114 0.23627
 C529 C 0.72461 0.23701 0.18004
 O530 O 0.72598 0.19227 0.21978
 O531 O 0.76457 0.19190 0.23441
 O532 O 0.77502 0.20035 0.26883
 C533 C 0.77453 0.18703 0.25237
 O534 O 0.78516 0.28970 0.20779
 Zr535 Zr 0.78115 0.26640 0.23365
 O536 O 0.79684 0.23354 0.27842
 O537 O 0.77239 0.21177 0.20079
 O538 O 0.80214 0.25055 0.21072
 O539 O 0.79961 0.29492 0.24468
 O540 O 0.81004 0.25352 0.24979
 C541 C 0.81289 0.24138 0.26689
 O542 O 0.75116 0.21144 0.29802
 O543 O 0.71409 0.29690 0.28724
 O544 O 0.76499 0.24848 0.30434
 O545 O 0.75059 0.28427 0.29945
 O546 O 0.68391 0.25645 0.27780
 O547 O 0.70187 0.22003 0.28429
 C548 C 0.75947 0.26845 0.31121
 H549 H 0.70053 0.28343 0.25008
 H550 H 0.73211 0.20420 0.25916
 H551 H 0.78212 0.27345 0.27488
 H552 H 0.76102 0.25425 0.19840
 H553 H 0.67422 0.21157 0.24986
 H554 H 0.73280 0.18237 0.20877
 H555 H 0.76806 0.19685 0.19473
 H556 H 0.81728 0.25756 0.21191
 H557 H 0.66908 0.24888 0.27622
 H558 H 0.71865 0.31176 0.29329
 H559 H 0.75645 0.32306 0.28309
 H560 H 0.81539 0.29299 0.23987
 H561 H 0.68606 0.21467 0.28460
 H562 H 0.76486 0.20681 0.30636
 H563 H 0.72336 0.29886 0.18288
 H564 H 0.80145 0.29210 0.20529
 Zr565 Zr 0.77774 0.73247 0.72474
 O566 O 0.76568 0.71047 0.70040
 O567 O 0.81225 0.73331 0.71835
 O568 O 0.78056 0.74706 0.69363
 O569 O 0.78070 0.69077 0.76416
 O570 O 0.76641 0.78293 0.69781
 O571 O 0.78963 0.69867 0.72941
 O572 O 0.82648 0.75782 0.74327
 O573 O 0.78561 0.76660 0.73061
 O574 O 0.79205 0.73374 0.75563
 O575 O 0.74696 0.75032 0.72172
 O576 O 0.75354 0.71815 0.74530
 Zr577 Zr 0.74440 0.77295 0.78080
 Zr578 Zr 0.75468 0.78404 0.72935
 Zr579 Zr 0.76765 0.72139 0.77622
 Zr580 Zr 0.79865 0.76773 0.76187
 O581 O 0.74599 0.69457 0.78506
 O582 O 0.81271 0.79791 0.74917
 O583 O 0.77538 0.75515 0.78402
 O584 O 0.76867 0.78687 0.76025
 O585 O 0.72998 0.77179 0.74994
 O586 O 0.73689 0.73883 0.77482
 C587 C 0.82859 0.74409 0.72738
 C588 C 0.78901 0.68525 0.74591
 C589 C 0.77541 0.76714 0.68652
 O590 O 0.77426 0.81340 0.72379
 O591 O 0.73703 0.81283 0.74005
 O592 O 0.72975 0.80555 0.77527
 C593 C 0.72845 0.81817 0.75823
 O594 O 0.71888 0.71290 0.71930
 Zr595 Zr 0.72370 0.73766 0.74366
 O596 O 0.70983 0.77186 0.78733
 O597 O 0.72748 0.79097 0.70777
 O598 O 0.70035 0.75130 0.72076
 O599 O 0.70735 0.70902 0.75701
 O600 O 0.69558 0.75022 0.76014
 C601 C 0.69337 0.76295 0.77672
 O602 O 0.75595 0.79664 0.80390
 O603 O 0.79642 0.71153 0.79475
 O604 O 0.74421 0.75948 0.81255
 O605 O 0.76211 0.72523 0.80910
 O606 O 0.82330 0.75345 0.78313
 O607 O 0.80464 0.78964 0.78836
 C608 C 0.75295 0.74094 0.82035
 H609 H 0.80601 0.72450 0.75729
 H610 H 0.77176 0.80291 0.76393
 H611 H 0.72621 0.73250 0.78535
 H612 H 0.74062 0.74904 0.70697
 H613 H 0.82913 0.79756 0.75254
 H614 H 0.76618 0.82248 0.71259
 H615 H 0.73068 0.80575 0.70078
 H616 H 0.68567 0.74369 0.72296
 H617 H 0.83776 0.76132 0.78051
 H618 H 0.79273 0.69701 0.80202
 H619 H 0.75434 0.68528 0.79591
 H620 H 0.69117 0.71006 0.75277
 H621 H 0.82033 0.79532 0.78785
 H622 H 0.74271 0.80111 0.81256
 H623 H 0.77893 0.70564 0.69191
 H624 H 0.70257 0.70957 0.71769
 Zr625 Zr 0.24056 0.23269 0.77963
 O626 O 0.25331 0.21018 0.80361
 O627 O 0.20704 0.23686 0.78885
 O628 O 0.24085 0.24817 0.81044
 O629 O 0.23237 0.19053 0.74179
 O630 O 0.25673 0.28272 0.80408
 O631 O 0.22609 0.19985 0.77674
 O632 O 0.19248 0.26200 0.76422
 O633 O 0.23399 0.26710 0.77297
 O634 O 0.22407 0.23419 0.74968
 O635 O 0.27229 0.24857 0.77999
 O636 O 0.26250 0.21641 0.75799
 Zr637 Zr 0.27151 0.26973 0.71996
 Zr638 Zr 0.26561 0.28252 0.77168
 Zr639 Zr 0.24632 0.21982 0.72794
 Zr640 Zr 0.21873 0.26836 0.74258
 O641 O 0.26583 0.19118 0.71910
 O642 O 0.20721 0.30022 0.75403
 O643 O 0.23963 0.25379 0.71935
 O644 O 0.24950 0.28554 0.74164
 O645 O 0.28809 0.26837 0.74990
 O646 O 0.27787 0.23534 0.72673
 C647 C 0.19098 0.24933 0.78106
 C648 C 0.22483 0.18607 0.76064
 C649 C 0.24763 0.26801 0.81652
 O650 O 0.24756 0.31288 0.77803
 O651 O 0.28283 0.31028 0.75873
 O652 O 0.28699 0.30212 0.72324
 C653 C 0.28969 0.31513 0.73977
 O654 O 0.29858 0.20924 0.78154
 Zr655 Zr 0.29324 0.23403 0.75698
 O656 O 0.30557 0.26708 0.71185
 O657 O 0.29494 0.28835 0.79065
 O658 O 0.31867 0.24631 0.77820
 O659 O 0.30745 0.20439 0.74320
 O660 O 0.32073 0.24503 0.73869
 C661 C 0.32236 0.25770 0.72188
 O662 O 0.25919 0.29295 0.69639
 O663 O 0.21595 0.21183 0.71133
 O664 O 0.26953 0.25496 0.68883
 O665 O 0.25038 0.22202 0.69466
 O666 O 0.19148 0.25473 0.72440
 O667 O 0.21183 0.28913 0.71517
 C668 C 0.25977 0.23660 0.68227
 H669 H 0.20949 0.22605 0.74943
 H670 H 0.24675 0.30164 0.73762
 H671 H 0.28756 0.22814 0.71582
 H672 H 0.27965 0.24722 0.79433
 H673 H 0.19062 0.30090 0.75165
 H674 H 0.25694 0.32180 0.78821
 H675 H 0.29292 0.30338 0.79751
 H676 H 0.33278 0.23774 0.77530
 H677 H 0.17779 0.26375 0.72777
 H678 H 0.21827 0.19685 0.70446
 H679 H 0.25631 0.18215 0.70913
 H680 H 0.32391 0.20462 0.74633
 H681 H 0.19637 0.29556 0.71611
 H682 H 0.27198 0.29648 0.68682
 H683 H 0.24059 0.20660 0.81324
 H684 H 0.31474 0.20474 0.78208
 Zr685 Zr 0.26323 0.76446 0.27895
 O686 O 0.25333 0.78533 0.30483
 O687 O 0.29805 0.76167 0.28423
 O688 O 0.26729 0.74768 0.30915
 O689 O 0.26492 0.80881 0.24222
 O690 O 0.25214 0.71270 0.30320
 O691 O 0.27611 0.79787 0.27597
 O692 O 0.31015 0.73907 0.25699
 O693 O 0.27025 0.73073 0.27043
 O694 O 0.27522 0.76528 0.24750
 O695 O 0.23244 0.74721 0.28182
 O696 O 0.23776 0.78098 0.26040
 Zr697 Zr 0.22547 0.72936 0.22138
 Zr698 Zr 0.23922 0.71403 0.27165
 Zr699 Zr 0.24954 0.77994 0.22881
 Zr700 Zr 0.28094 0.73180 0.23862
 O701 O 0.22805 0.80846 0.22397
 O702 O 0.29541 0.70019 0.24818
 O703 O 0.25634 0.74675 0.21825
 O704 O 0.25095 0.71333 0.24009
 O705 O 0.21329 0.72838 0.25280
 O706 O 0.21874 0.76303 0.23012
 C707 C 0.31354 0.75115 0.27390
 C708 C 0.27495 0.81244 0.26037
 C709 C 0.26185 0.72745 0.31532
 O710 O 0.25935 0.68431 0.27498
 O711 O 0.22123 0.68630 0.25935
 O712 O 0.21142 0.69640 0.22502
 C713 C 0.21157 0.68239 0.24111
 O714 O 0.20508 0.78504 0.28779
 Zr715 Zr 0.20783 0.76205 0.26172
 O716 O 0.19042 0.73144 0.21657
 O717 O 0.21300 0.70571 0.29301
 O718 O 0.18601 0.74728 0.28456
 O719 O 0.19079 0.79192 0.25092
 O720 O 0.17839 0.75124 0.24567
 C721 C 0.17484 0.73974 0.22846
 O722 O 0.23489 0.70752 0.19606
 O723 O 0.27665 0.78971 0.20904
 O724 O 0.22344 0.74549 0.19064
 O725 O 0.23966 0.78006 0.19637
 O726 O 0.30458 0.74715 0.21788
 O727 O 0.28446 0.71237 0.21016
 C728 C 0.23011 0.76527 0.18420
 H729 H 0.28929 0.77407 0.24593
 H730 H 0.25368 0.69758 0.23520
 H731 H 0.20730 0.77041 0.22059
 H732 H 0.22703 0.74753 0.29679
 H733 H 0.31153 0.70039 0.24412
 H734 H 0.25183 0.67442 0.28561
 H735 H 0.21657 0.69043 0.29898
 H736 H 0.17131 0.75541 0.28350
 H737 H 0.31893 0.73843 0.21925
 H738 H 0.27293 0.80506 0.20327
 H739 H 0.23561 0.81853 0.21352
 H740 H 0.17493 0.79088 0.25569
 H741 H 0.30000 0.70608 0.20957
 H742 H 0.22095 0.70417 0.18764
 H743 H 0.26721 0.78895 0.31324
 H744 H 0.18896 0.78864 0.29023
 Zr745 Zr 0.23411 0.77218 0.71974
 O746 O 0.24322 0.79305 0.69348
 O747 O 0.19916 0.76996 0.71539
 O748 O 0.22917 0.75557 0.68972
 O749 O 0.23358 0.81623 0.75642
 O750 O 0.24437 0.72028 0.69558
 O751 O 0.22143 0.80585 0.72296
 O752 O 0.18792 0.74715 0.74291
 O753 O 0.22750 0.73842 0.72852
 O754 O 0.22300 0.77281 0.75150
 O755 O 0.26487 0.75458 0.71617
 O756 O 0.26003 0.78819 0.73766
 Zr757 Zr 0.27358 0.73601 0.77645
 Zr758 Zr 0.25853 0.72136 0.72660
 Zr759 Zr 0.24913 0.78694 0.76955
 Zr760 Zr 0.21764 0.73929 0.76056
 O761 O 0.27075 0.81506 0.77406
 O762 O 0.20305 0.70795 0.75131
 O763 O 0.24275 0.75371 0.78029
 O764 O 0.24765 0.72046 0.75843
 O765 O 0.28492 0.73525 0.74475
 O766 O 0.27993 0.76972 0.76753
 C767 C 0.18401 0.75946 0.72608
 C768 C 0.22314 0.82028 0.73850
 C769 C 0.23427 0.73519 0.68363
 O770 O 0.23865 0.69171 0.72407
 O771 O 0.27726 0.69340 0.73838
 O772 O 0.28787 0.70305 0.77246
 C773 C 0.28751 0.68925 0.75636
 O774 O 0.29196 0.79208 0.70937
 Zr775 Zr 0.28997 0.76897 0.73564
 O776 O 0.30872 0.73793 0.78053
 O777 O 0.28399 0.71315 0.70435
 O778 O 0.31125 0.75409 0.71238
 O779 O 0.30706 0.79865 0.74590
 O780 O 0.31989 0.75790 0.75109
 C781 C 0.32394 0.74627 0.76829
 O782 O 0.26509 0.71381 0.80193
 O783 O 0.22244 0.79693 0.78980
 O784 O 0.27598 0.75163 0.80721
 O785 O 0.25956 0.78646 0.80186
 O786 O 0.19455 0.75465 0.78190
 O787 O 0.21491 0.71957 0.78912
 C788 C 0.26926 0.77132 0.81385
 H789 H 0.20898 0.78180 0.75338
 H790 H 0.24516 0.70468 0.76342
 H791 H 0.29155 0.77690 0.77682
 H792 H 0.26983 0.75496 0.70105
 H793 H 0.18703 0.70829 0.75572
 H794 H 0.24588 0.68188 0.71323
 H795 H 0.28038 0.69791 0.69858
 H796 H 0.32594 0.76205 0.71305
 H797 H 0.18019 0.74611 0.78089
 H798 H 0.22628 0.81214 0.79549
 H799 H 0.26342 0.82509 0.78468
 H800 H 0.32279 0.79754 0.74075
 H801 H 0.19945 0.71336 0.79002
 H802 H 0.27927 0.71031 0.81005
 H803 H 0.22909 0.79691 0.68543
 H804 H 0.30800 0.79551 0.70654
 Zr805 Zr 0.26190 0.22340 0.21794
 O806 O 0.25037 0.20297 0.19218
 O807 O 0.29659 0.22439 0.21256
 O808 O 0.26559 0.23992 0.18775
 O809 O 0.26371 0.17914 0.25485
 O810 O 0.25208 0.27571 0.19378
 O811 O 0.27393 0.18948 0.22099
 O812 O 0.31036 0.24642 0.23971
 O813 O 0.27021 0.25683 0.22631
 O814 O 0.27493 0.22215 0.24936
 O815 O 0.23158 0.24206 0.21502
 O816 O 0.23659 0.20806 0.23657
 Zr817 Zr 0.22715 0.26035 0.27529
 Zr818 Zr 0.23966 0.27496 0.22511
 Zr819 Zr 0.24946 0.20870 0.26813
 Zr820 Zr 0.28198 0.25538 0.25805
 O821 O 0.22736 0.18112 0.27310
 O822 O 0.29707 0.28619 0.24809
 O823 O 0.25759 0.24161 0.27851
 O824 O 0.25249 0.27521 0.25660
 O825 O 0.21391 0.26178 0.24395
 O826 O 0.21916 0.22696 0.26671
 C827 C 0.31279 0.23410 0.22285
 C828 C 0.27302 0.17505 0.23668
 C829 C 0.26087 0.26048 0.18170
 O830 O 0.26029 0.30398 0.22194
 O831 O 0.22246 0.30338 0.23723
 O832 O 0.21363 0.29370 0.27159
 C833 C 0.21339 0.30762 0.25545
 O834 O 0.20288 0.20561 0.20901
 Zr835 Zr 0.20720 0.22834 0.23516
 O836 O 0.19228 0.25967 0.28035
 O837 O 0.21327 0.28424 0.20340
 O838 O 0.18505 0.24423 0.21247
 O839 O 0.18973 0.19913 0.24587
 O840 O 0.17863 0.24015 0.25147
 C841 C 0.17604 0.25178 0.26871
 O842 O 0.23822 0.28187 0.30042
 O843 O 0.27686 0.19783 0.28799
 O844 O 0.22537 0.24454 0.30599
 O845 O 0.24057 0.20931 0.30059
 O846 O 0.30579 0.23918 0.27895
 O847 O 0.28711 0.27488 0.28633
 C848 C 0.23170 0.22458 0.31260
 H849 H 0.28877 0.21274 0.25097
 H850 H 0.25577 0.29086 0.26145
 H851 H 0.20783 0.22008 0.27628
 H852 H 0.22572 0.24197 0.20004
 H853 H 0.31333 0.28525 0.25203
 H854 H 0.25276 0.31410 0.21120
 H855 H 0.21706 0.29940 0.19749
 H856 H 0.17013 0.23680 0.21360
 H857 H 0.32036 0.24719 0.27746
 H858 H 0.27284 0.18271 0.29386
 H859 H 0.23495 0.17084 0.28366
 H860 H 0.17376 0.20083 0.24110
 H861 H 0.30280 0.28061 0.28671
 H862 H 0.22473 0.28596 0.30890
 H863 H 0.26381 0.19867 0.18371
 H864 H 0.18657 0.20286 0.20653
 Zr865 Zr 0.72551 0.73633 0.28139
 O866 O 0.73791 0.71414 0.30581
 O867 O 0.69106 0.73755 0.28796
 O868 O 0.72281 0.75096 0.31232
 O869 O 0.72172 0.69474 0.24247
 O870 O 0.73720 0.78651 0.30776
 O871 O 0.71322 0.70288 0.27722
 O872 O 0.67659 0.76206 0.26271
 O873 O 0.71767 0.77060 0.27528
 O874 O 0.71097 0.73789 0.25059
 O875 O 0.75638 0.75361 0.28399
 O876 O 0.74948 0.72153 0.26081
 Zr877 Zr 0.75843 0.77623 0.22464
 Zr878 Zr 0.74868 0.78747 0.27610
 Zr879 Zr 0.73509 0.72503 0.22998
 Zr880 Zr 0.70437 0.77199 0.24411
 O881 O 0.75663 0.69779 0.22143
 O882 O 0.69043 0.80218 0.25699
 O883 O 0.72739 0.75895 0.22190
 O884 O 0.73441 0.79058 0.24527
 O885 O 0.77313 0.77479 0.25540
 O886 O 0.76590 0.74196 0.23092
 C887 C 0.67459 0.74823 0.27868
 C888 C 0.71342 0.68949 0.26085
 C889 C 0.72812 0.77090 0.31923
 O890 O 0.72930 0.81722 0.28149
 O891 O 0.76642 0.81590 0.26501
 O892 O 0.77330 0.80857 0.22978
 C893 C 0.77486 0.82112 0.24671
 O894 O 0.78441 0.71571 0.28656
 Zr895 Zr 0.77939 0.74054 0.26198
 O896 O 0.79289 0.77452 0.21784
 O897 O 0.77607 0.79386 0.29742
 O898 O 0.80299 0.75380 0.28452
 O899 O 0.79553 0.71161 0.24879
 O900 O 0.80740 0.75260 0.24509
 C901 C 0.80945 0.76531 0.22836
 O902 O 0.74675 0.80016 0.20142
 O903 O 0.70623 0.71565 0.21164
 O904 O 0.75822 0.76274 0.19300
 O905 O 0.74034 0.72876 0.19701
 O906 O 0.67961 0.75841 0.22291
 O907 O 0.69819 0.79428 0.21764
 C908 C 0.74935 0.74434 0.18550
 H909 H 0.69699 0.72890 0.24904
 H910 H 0.73136 0.80669 0.24148
 H911 H 0.77645 0.73545 0.22035
 H912 H 0.76283 0.75220 0.29871
 H913 H 0.67398 0.80209 0.25380
 H914 H 0.73749 0.82609 0.29259
 H915 H 0.77297 0.80869 0.30431
 H916 H 0.81763 0.74595 0.28228
 H917 H 0.66517 0.76650 0.22557
 H918 H 0.70983 0.70104 0.20456
 H919 H 0.74818 0.68861 0.21077
 H920 H 0.81176 0.71238 0.25287
 H921 H 0.68259 0.80040 0.21839
 H922 H 0.75992 0.80438 0.19261
 H923 H 0.72478 0.70950 0.31451
 H924 H 0.80073 0.71211 0.28806
 Zr925 Zr 0.77083 0.26786 0.77794
 O926 O 0.75946 0.29110 0.80134
 O927 O 0.80507 0.26489 0.78589
 O928 O 0.77288 0.25372 0.80944
 O929 O 0.77579 0.30840 0.73776
 O930 O 0.75763 0.21848 0.80523
 O931 O 0.78425 0.30083 0.77296
 O932 O 0.81849 0.23895 0.76208
 O933 O 0.77745 0.23326 0.77284
 O934 O 0.78531 0.26519 0.74758
 O935 O 0.73940 0.25166 0.78022
 O936 O 0.74730 0.28294 0.75627
 Zr937 Zr 0.73631 0.22793 0.72138
 Zr938 Zr 0.74596 0.21746 0.77338
 Zr939 Zr 0.76148 0.27832 0.72590
 Zr940 Zr 0.79065 0.23080 0.74208
 O941 O 0.74107 0.30629 0.71609
 O942 O 0.80336 0.19984 0.75522
 O943 O 0.76796 0.24406 0.71888
 O944 O 0.76000 0.21329 0.74300
 O945 O 0.72178 0.23045 0.75175
 O946 O 0.73009 0.26252 0.72662
 C947 C 0.82093 0.25265 0.77800
 C948 C 0.78427 0.31387 0.75616
 C949 C 0.76716 0.23395 0.81660
 O950 O 0.76450 0.18731 0.78021
 O951 O 0.72776 0.18923 0.76261
 O952 O 0.72086 0.19591 0.72700
 C953 C 0.71930 0.18369 0.74426
 O954 O 0.71264 0.29038 0.78110
 Zr955 Zr 0.71675 0.26502 0.75726
 O956 O 0.70182 0.23051 0.71390
 O957 O 0.71834 0.21236 0.79403
 O958 O 0.69278 0.25285 0.77948
 O959 O 0.70165 0.29434 0.74300
 O960 O 0.68826 0.25386 0.73987
 C961 C 0.68567 0.24076 0.72357
 O962 O 0.74717 0.20350 0.69886
 O963 O 0.79068 0.28590 0.70802
 O964 O 0.73617 0.24115 0.68947
 O965 O 0.75541 0.27445 0.69293
 O966 O 0.81620 0.24369 0.72192
 O967 O 0.79605 0.20850 0.71587
 C968 C 0.74537 0.25922 0.68165
 H969 H 0.79968 0.27357 0.74636
 H970 H 0.76257 0.19704 0.73970
 H971 H 0.71968 0.26926 0.71569
 H972 H 0.73304 0.25353 0.79473
 H973 H 0.81979 0.19924 0.75242
 H974 H 0.75606 0.17885 0.79129
 H975 H 0.72098 0.19761 0.80145
 H976 H 0.67839 0.26115 0.77668
 H977 H 0.83030 0.23511 0.72527
 H978 H 0.78770 0.30048 0.70040
 H979 H 0.74983 0.31490 0.70535
 H980 H 0.68542 0.29427 0.74670
 H981 H 0.81160 0.20221 0.71680
 H982 H 0.73379 0.19950 0.68990
 H983 H 0.77281 0.29531 0.81025
 H984 H 0.69644 0.29445 0.78219
 C985 C 0.43152 0.98888 0.30983
 C986 C 0.43625 0.97461 0.29259
 C987 C 0.42366 0.97650 0.27345
 C988 C 0.40639 0.99313 0.27086
 C989 C 0.40134 1.00679 0.28879
 C990 C 0.41396 1.00485 0.30790
 C991 C 0.44395 0.98683 0.32989
 C992 C 0.45327 0.98610 0.34728
 C993 C 0.46257 0.98687 0.36882
 C994 C 0.47881 0.97112 0.37642
 C995 C 0.48623 0.97172 0.39800
 C996 C 0.47721 0.98791 0.41212
 C997 C 0.46142 1.00394 0.40403
 C998 C 0.45423 1.00340 0.38266
 H999 H 0.44948 0.96185 0.29399
 H1000 H 0.42739 0.96491 0.26051
 H1001 H 0.38728 1.01861 0.28846
 H1002 H 0.40974 1.01562 0.32135
 H1003 H 0.48539 0.95820 0.36582
 H1004 H 0.49837 0.95917 0.40379
 H1005 H 0.45433 1.01685 0.41433
 H1006 H 0.44174 1.01571 0.37702
 C1007 C -0.05821 0.50132 0.80759
 C1008 C -0.08162 0.49905 0.80904
 C1009 C -0.09509 0.49866 0.79045
 C1010 C -0.08542 0.49970 0.76984
 C1011 C -0.06193 0.50393 0.76879
 C1012 C -0.04845 0.50432 0.78747
 C1013 C -0.04458 0.50122 0.82696
 C1014 C -0.03439 0.50148 0.84390
 C1015 C -0.02416 0.50280 0.86500
 C1016 C -0.02918 0.52166 0.87763
 C1017 C -0.02247 0.52212 0.89914
 C1018 C -0.01049 0.50373 0.90846
 C1019 C -0.00432 0.48530 0.89547
 C1020 C -0.01132 0.48476 0.87380
 H1021 H -0.08949 0.49739 0.82457
 H1022 H -0.11316 0.49665 0.79208
 H1023 H -0.05373 0.50710 0.75369
 H1024 H -0.03043 0.50700 0.78620
 H1025 H -0.03912 0.53567 0.87106
 H1026 H -0.02727 0.53663 0.90873
 H1027 H 0.00479 0.47090 0.90232
 H1028 H -0.00746 0.46998 0.86418
 C1029 C 0.06715 0.00963 0.80942
 C1030 C 0.06265 0.02357 0.79159
 C1031 C 0.07567 0.02153 0.77307
 C1032 C 0.09315 0.00507 0.77168
 C1033 C 0.09798 -0.00822 0.79020
 C1034 C 0.08494 -0.00615 0.80868
 C1035 C 0.05412 0.01167 0.82881
 C1036 C 0.04416 0.01235 0.84564
 C1037 C 0.03385 0.01148 0.86655
 C1038 C 0.02000 0.02911 0.87418
 C1039 C 0.01205 0.02847 0.89540
 C1040 C 0.01819 0.01033 0.90916
 C1041 C 0.03136 -0.00758 0.90099
 C1042 C 0.03904 -0.00700 0.87995
 H1043 H 0.04923 0.03616 0.79204
 H1044 H 0.07209 0.03288 0.75967
 H1045 H 0.11215 -0.01990 0.79079
 H1046 H 0.08898 -0.01669 0.82256
 H1047 H 0.01587 0.04356 0.86396
 H1048 H 0.00205 0.04253 0.90131
 H1049 H 0.03621 -0.02190 0.91111
 H1050 H 0.04966 -0.02076 0.87432
 C1051 C 0.56423 0.51154 0.31122
 C1052 C 0.55887 0.52509 0.29335
 C1053 C 0.57062 0.52232 0.27420
 C1054 C 0.58772 0.50554 0.27224
 C1055 C 0.59327 0.49240 0.29069
 C1056 C 0.58146 0.49522 0.30983
 C1057 C 0.55319 0.51528 0.33145
 C1058 C 0.54499 0.51822 0.34889
 C1059 C 0.53690 0.52116 0.37047
 C1060 C 0.51388 0.51936 0.37531
 C1061 C 0.50690 0.51962 0.39680
 C1062 C 0.52296 0.52139 0.41357
 C1063 C 0.54583 0.52431 0.40841
 C1064 C 0.55270 0.52422 0.38708
 H1065 H 0.54592 0.53814 0.29432
 H1066 H 0.56653 0.53354 0.26083
 H1067 H 0.60722 0.48045 0.29076
 H1068 H 0.58620 0.48503 0.32375
 H1069 H 0.50147 0.51694 0.36257
 H1070 H 0.48922 0.51714 0.40034
 H1071 H 0.55859 0.52584 0.42097
 H1072 H 0.57052 0.52569 0.38360
 C1073 C 0.56062 0.49861 0.19261
 C1074 C 0.55099 0.49398 0.21251
 C1075 C 0.56386 0.49609 0.23145
 C1076 C 0.58654 0.50361 0.23095
 C1077 C 0.59617 0.50715 0.21058
 C1078 C 0.58329 0.50502 0.19172
 C1079 C 0.54740 0.49720 0.17300
 C1080 C 0.53732 0.49703 0.15599
 C1081 C 0.52692 0.49848 0.13490
 C1082 C 0.51447 0.48046 0.12608
 C1083 C 0.50690 0.48153 0.10456
 C1084 C 0.51208 0.50049 0.09173
 C1085 C 0.52371 0.51879 0.10109
 C1086 C 0.53099 0.51780 0.12245
 H1087 H 0.53357 0.48857 0.21341
 H1088 H 0.55598 0.49136 0.24636
 H1089 H 0.61380 0.51170 0.20931
 H1090 H 0.59107 0.50834 0.17638
 H1091 H 0.51128 0.46536 0.13556
 H1092 H 0.49811 0.46716 0.09767
 H1093 H 0.52779 0.53368 0.09164
 H1094 H 0.54057 0.53184 0.12903
 C1095 C 0.07046 0.99553 0.69085
 C1096 C 0.05978 0.99148 0.71038
 C1097 C 0.07132 0.99509 0.72987
 C1098 C 0.09375 1.00339 0.73033
 C1099 C 0.10430 1.00693 0.71038
 C1100 C 0.09273 1.00333 0.69095
 C1101 C 0.05919 0.99071 0.67063
 C1102 C 0.05092 0.98680 0.65316
 C1103 C 0.04286 0.98258 0.63152
 C1104 C 0.01971 0.98238 0.62623
 C1105 C 0.01257 0.98039 0.60466
 C1106 C 0.02856 0.97886 0.58822
 C1107 C 0.05168 0.97811 0.59390
 C1108 C 0.05871 0.97993 0.61529
 H1109 H 0.04272 0.98495 0.71056
 H1110 H 0.06280 0.99044 0.74447
 H1111 H 0.12181 1.01207 0.70984
 H1112 H 0.10138 1.00615 0.67596
 H1113 H 0.00724 0.98442 0.63865
 H1114 H -0.00532 0.98118 0.60077
 H1115 H 0.06444 0.97678 0.58166
 H1116 H 0.07664 0.97997 0.61911
 C1117 C -0.06158 0.49392 0.69077
 C1118 C -0.07983 0.50901 0.69195
 C1119 C -0.09304 0.50972 0.71033
 C1120 C -0.08777 0.49592 0.72847
 C1121 C -0.07056 0.47934 0.72616
 C1122 C -0.05731 0.47867 0.70769
 C1123 C -0.04813 0.49358 0.67164
 C1124 C -0.03789 0.49335 0.65500
 C1125 C -0.02736 0.49244 0.63427
 C1126 C -0.01432 0.51049 0.62650
 C1127 C -0.00680 0.51039 0.60517
 C1128 C -0.01263 0.49238 0.59147
 C1129 C -0.02485 0.47397 0.59979
 C1130 C -0.03211 0.47400 0.62097
 H1131 H -0.08395 0.52022 0.67856
 H1132 H -0.10739 0.52117 0.71005
 H1133 H -0.06683 0.46742 0.73908
 H1134 H -0.04372 0.46631 0.70667
 H1135 H -0.01065 0.52494 0.63665
 H1136 H 0.00251 0.52479 0.59912
 H1137 H -0.02939 0.45973 0.58968
 H1138 H -0.04218 0.45998 0.62673
 C1139 C 0.43220 0.00016 0.19157
 C1140 C 0.44203 0.00485 0.21158
 C1141 C 0.42949 0.00243 0.23034
 C1142 C 0.40692 -0.00546 0.22960
 C1143 C 0.39708 -0.00920 0.20911
 C1144 C 0.40965 -0.00676 0.19040
 C1145 C 0.44507 0.00231 0.17214
 C1146 C 0.45503 0.00330 0.15535
 C1147 C 0.46544 0.00304 0.13452
 C1148 C 0.47856 0.02120 0.12709
 C1149 C 0.48643 0.02131 0.10586
 C1150 C 0.48091 0.00339 0.09192
 C1151 C 0.46856 -0.01510 0.09990
 C1152 C 0.46095 -0.01526 0.12097
 H1153 H 0.45933 0.01067 0.21269
 H1154 H 0.43750 0.00734 0.24530
 H1155 H 0.37950 -0.01400 0.20761
 H1156 H 0.40170 -0.01012 0.17496
 H1157 H 0.48211 0.03551 0.13744
 H1158 H 0.49579 0.03580 0.10006
 H1159 H 0.46422 -0.02925 0.08961
 H1160 H 0.45089 -0.02941 0.12647
 C1161 C 0.31362 0.39852 0.00112
 C1162 C 0.29629 0.40338 -0.01382
 C1163 C 0.27648 0.39040 -0.01413
 C1164 C 0.27309 0.37284 0.00109
 C1165 C 0.29167 0.36709 0.01478
 C1166 C 0.31139 0.38001 0.01504
 C1167 C 0.33379 0.41227 0.00223
 C1168 C 0.35074 0.42363 0.00336
 C1169 C 0.37104 0.43719 0.00434
 C1170 C 0.37680 0.45065 -0.01331
 C1171 C 0.39671 0.46329 -0.01293
 C1172 C 0.41136 0.46277 0.00515
 C1173 C 0.40529 0.44947 0.02302
 C1174 C 0.38528 0.43674 0.02258
 H1175 H 0.29801 0.41728 -0.02514
 H1176 H 0.26340 0.39450 -0.02590
 H1177 H 0.29134 0.35248 0.02535
 H1178 H 0.32497 0.37551 0.02617
 H1179 H 0.36598 0.45121 -0.02750
 H1180 H 0.40069 0.47334 -0.02699
 H1181 H 0.41618 0.44856 0.03714
 H1182 H 0.38105 0.42638 0.03637
 C1183 C -0.18527 0.89317 0.50934
 C1184 C -0.20401 0.89946 0.52146
 C1185 C -0.22455 0.88799 0.51894
 C1186 C -0.22710 0.87033 0.50377
 C1187 C -0.20774 0.86383 0.49214
 C1188 C -0.18725 0.87532 0.49470
 C1189 C -0.16400 0.90495 0.51172
 C1190 C -0.14614 0.91482 0.51286
 C1191 C -0.12490 0.92687 0.51276
 C1192 C -0.12021 0.94117 0.49541
 C1193 C -0.09948 0.95225 0.49429
 C1194 C -0.08285 0.94930 0.51055
 C1195 C -0.08778 0.93518 0.52820
 C1196 C -0.10867 0.92398 0.52926
 H1197 H -0.20269 0.91306 0.53306
 H1198 H -0.23849 0.89274 0.52908
 H1199 H -0.20805 0.84941 0.48147
 H1200 H -0.17280 0.87000 0.48545
 H1201 H -0.13254 0.94358 0.48254
 H1202 H -0.09646 0.96304 0.48049
 H1203 H -0.07537 0.93245 0.54094
 H1204 H -0.11203 0.91290 0.54277
 C1205 C -0.18918 0.10583 0.99352
 C1206 C -0.19072 0.12363 1.00828
 C1207 C -0.21117 0.13538 1.01095
 C1208 C -0.23089 0.12925 0.99928
 C1209 C -0.22880 0.11158 0.98409
 C1210 C -0.20834 0.09986 0.98146
 C1211 C -0.16796 0.09375 0.99085
 C1212 C -0.15021 0.08350 0.98928
 C1213 C -0.12910 0.07085 0.98874
 C1214 C -0.12341 0.05652 1.00599
 C1215 C -0.10282 0.04477 1.00644
 C1216 C -0.08730 0.04704 0.98959
 C1217 C -0.09326 0.06116 0.97202
 C1218 C -0.11402 0.07304 0.97164
 H1219 H -0.17596 0.12870 1.01752
 H1220 H -0.21118 0.14975 1.02170
 H1221 H -0.24308 0.10703 0.97396
 H1222 H -0.20741 0.08631 0.96978
 H1223 H -0.13484 0.05459 1.01932
 H1224 H -0.09901 0.03400 1.02021
 H1225 H -0.08172 0.06340 0.95884
 H1226 H -0.11816 0.08410 0.95816
 C1227 C 0.31188 0.60317 0.49640
 C1228 C 0.31160 0.62612 0.50213
 C1229 C 0.29104 0.63777 0.50434
 C1230 C 0.27010 0.62666 0.50145
 C1231 C 0.27077 0.60363 0.49499
 C1232 C 0.29138 0.59201 0.49279
 C1233 C 0.33317 0.59107 0.49430
 C1234 C 0.35093 0.58079 0.49305
 C1235 C 0.37203 0.56813 0.49256
 C1236 C 0.38760 0.57129 0.47601
 C1237 C 0.40824 0.55926 0.47622
 C1238 C 0.41361 0.54393 0.49304
 C1239 C 0.39767 0.54076 0.50940
 C1240 C 0.37717 0.55271 0.50913
 H1241 H 0.32730 0.63512 0.50473
 H1242 H 0.29147 0.65568 0.50821
 H1243 H 0.25547 0.59457 0.49098
 H1244 H 0.29129 0.57434 0.48797
 H1245 H 0.38389 0.58319 0.46307
 H1246 H 0.42009 0.56222 0.46343
 H1247 H 0.40107 0.52911 0.52261
 H1248 H 0.36536 0.55004 0.52202
 C1249 C 0.18641 0.59964 0.50841
 C1250 C 0.18704 0.61715 0.49313
 C1251 C 0.20658 0.63021 0.49069
 C1252 C 0.22635 0.62565 0.50311
 C1253 C 0.22501 0.60853 0.51910
 C1254 C 0.20545 0.59550 0.52149
 C1255 C 0.16627 0.58590 0.51048
 C1256 C 0.14943 0.57433 0.51153
 C1257 C 0.12935 0.56031 0.51165
 C1258 C 0.11447 0.56047 0.52902
 C1259 C 0.09469 0.54734 0.52841
 C1260 C 0.08948 0.53390 0.51035
 C1261 C 0.10476 0.53369 0.49318
 C1262 C 0.12442 0.54672 0.49385
 H1263 H 0.17231 0.62089 0.48315
 H1264 H 0.20585 0.64416 0.47932
 H1265 H 0.23927 0.60520 0.52977
 H1266 H 0.20518 0.58224 0.53363
 H1267 H 0.11801 0.57093 0.54292
 H1268 H 0.08331 0.54804 0.54185
 H1269 H 0.10146 0.52357 0.47901
 H1270 H 0.13570 0.54637 0.48030
 C1271 C 0.68445 0.10505 0.00693
 C1272 C 0.68392 0.12740 -0.00088
 C1273 C 0.70403 0.13935 -0.00385
 C1274 C 0.72536 0.12910 0.00036
 C1275 C 0.72550 0.10668 0.00876
 C1276 C 0.70533 0.09476 0.01172
 C1277 C 0.66359 0.09267 0.00982
 C1278 C 0.64614 0.08219 0.01152
 C1279 C 0.62535 0.06930 0.01214
 C1280 C 0.61044 0.07081 0.02944
 C1281 C 0.58995 0.05876 0.02909
 C1282 C 0.58410 0.04515 0.01134
 C1283 C 0.59948 0.04352 -0.00570
 C1284 C 0.61980 0.05543 -0.00528
 H1285 H 0.66791 0.13572 -0.00446
 H1286 H 0.70293 0.15686 -0.00921
 H1287 H 0.74111 0.09842 0.01373
 H1288 H 0.70604 0.07758 0.01806
 H1289 H 0.61449 0.08150 0.04306
 H1290 H 0.57852 0.06048 0.04242
 H1291 H 0.59576 0.03314 -0.01961
 H1292 H 0.63110 0.05401 -0.01875
 C1293 C 0.68758 0.89484 0.49687
 C1294 C 0.68765 0.87236 0.50429
 C1295 C 0.70803 0.86041 0.50699
 C1296 C 0.72905 0.87077 0.50290
 C1297 C 0.72859 0.89335 0.49492
 C1298 C 0.70813 0.90529 0.49223
 C1299 C 0.66642 0.90713 0.49418
 C1300 C 0.64866 0.91740 0.49260
 C1301 C 0.62750 0.92992 0.49201
 C1302 C 0.61170 0.92731 0.47515
 C1303 C 0.59084 0.93893 0.47552
 C1304 C 0.58550 0.95319 0.49286
 C1305 C 0.60172 0.95590 0.50946
 C1306 C 0.62243 0.94441 0.50901
 H1307 H 0.67189 0.86393 0.50774
 H1308 H 0.70738 0.84279 0.51204
 H1309 H 0.74391 0.90171 0.49006
 H1310 H 0.70834 0.92259 0.48618
 H1311 H 0.61537 0.91610 0.46189
 H1312 H 0.57875 0.93637 0.46255
 H1313 H 0.59837 0.96680 0.52302
 H1314 H 0.63442 0.94664 0.52214
 C1315 C 0.18890 0.40135 1.00157
 C1316 C 0.18777 0.37770 0.99993
 C1317 C 0.20753 0.36452 1.00078
 C1318 C 0.22910 0.37468 1.00251
 C1319 C 0.22972 0.39841 1.00605
 C1320 C 0.20988 0.41158 1.00520
 C1321 C 0.16852 0.41502 0.99958
 C1322 C 0.15143 0.42638 0.99799
 C1323 C 0.13098 0.44001 0.99672
 C1324 C 0.11666 0.43934 0.97856
 C1325 C 0.09647 0.45207 0.97793
 C1326 C 0.09030 0.46559 0.99554
 C1327 C 0.10504 0.46635 1.01353
 C1328 C 0.12513 0.45371 1.01408
 H1329 H 0.17162 0.36943 0.99766
 H1330 H 0.20612 0.34627 0.99906
 H1331 H 0.24537 0.40706 1.00947
 H1332 H 0.21094 0.42982 1.00727
 H1333 H 0.12096 0.42878 0.96499
 H1334 H 0.08551 0.45097 0.96389
 H1335 H 0.10098 0.47658 1.02738
 H1336 H 0.13600 0.45444 1.02822
 C1337 C -0.01261 0.29472 0.41355
 C1338 C -0.03163 0.28668 0.40254
 C1339 C -0.02931 0.26934 0.38752
 C1340 C -0.00772 0.26045 0.38274
 C1341 C 0.01094 0.26776 0.39524
 C1342 C 0.00855 0.28495 0.41024
 C1343 C -0.01411 0.31441 0.42669
 C1344 C -0.01403 0.33174 0.43668
 C1345 C -0.01257 0.35311 0.44725
 C1346 C -0.02560 0.37139 0.43962
 C1347 C -0.02222 0.39301 0.44799
 C1348 C -0.00566 0.39654 0.46406
 C1349 C 0.00707 0.37791 0.47191
 C1350 C 0.00366 0.35629 0.46346
 H1351 H -0.04815 0.29404 0.40532
 H1352 H -0.04447 0.26304 0.37982
 H1353 H 0.02759 0.26051 0.39289
 H1354 H 0.02334 0.29102 0.41887
 H1355 H -0.03800 0.36903 0.42685
 H1356 H -0.03246 0.40694 0.44174
 H1357 H 0.01986 0.38006 0.48434
 H1358 H 0.01402 0.34220 0.46920
 C1359 C 0.48904 -0.18875 -0.09273
 C1360 C 0.47205 -0.19775 -0.10584
 C1361 C 0.47697 -0.21577 -0.11952
 C1362 C 0.49926 -0.22444 -0.12081
 C1363 C 0.51572 -0.21600 -0.10633
 C1364 C 0.51073 -0.19813 -0.09268
 C1365 C 0.48504 -0.16891 -0.08027
 C1366 C 0.48344 -0.15171 -0.07022
 C1367 C 0.48354 -0.13077 -0.05882
 C1368 C 0.47154 -0.11205 -0.06703
 C1369 C 0.47403 -0.09084 -0.05746
 C1370 C 0.48869 -0.08820 -0.03965
 C1371 C 0.50031 -0.10729 -0.03128
 C1372 C 0.49775 -0.12846 -0.04087
 H1373 H 0.45507 -0.19074 -0.10562
 H1374 H 0.46320 -0.22285 -0.12881
 H1375 H 0.53269 -0.22299 -0.10598
 H1376 H 0.52392 -0.19135 -0.08235
 H1377 H 0.46073 -0.11373 -0.08113
 H1378 H 0.46473 -0.07651 -0.06421
 H1379 H 0.51160 -0.10587 -0.01751
 H1380 H 0.50731 -0.14289 -0.03463
 C1381 C 0.00944 -0.18812 1.09105
 C1382 C -0.01254 -0.19641 1.09162
 C1383 C -0.01764 -0.21443 1.10516
 C1384 C -0.00096 -0.22414 1.11891
 C1385 C 0.02152 -0.21642 1.11708
 C1386 C 0.02656 -0.19826 1.10351
 C1387 C 0.01376 -0.16834 1.07851
 C1388 C 0.01568 -0.15112 1.06840
 C1389 C 0.01595 -0.13005 1.05701
 C1390 C 0.00206 -0.12721 1.03884
 C1391 C -0.00045 -0.10581 1.02943
 C1392 C 0.01088 -0.08701 1.03821
 C1393 C 0.02533 -0.09021 1.05615
 C1394 C 0.02777 -0.11166 1.06554
 H1395 H -0.02583 -0.18873 1.08180
 H1396 H -0.03481 -0.22065 1.10524
 H1397 H 0.03537 -0.22442 1.12579
 H1398 H 0.04373 -0.19209 1.10280
 H1399 H -0.00738 -0.14140 1.03236
 H1400 H -0.01157 -0.10394 1.01555
 H1401 H 0.03442 -0.07612 1.06320
 H1402 H 0.03833 -0.11375 1.07979
 C1403 C 0.51224 0.30039 0.57423
 C1404 C 0.49063 0.29211 0.57795
 C1405 C 0.48746 0.27567 0.59373
 C1406 C 0.50576 0.26775 0.60660
 C1407 C 0.52773 0.27508 0.60138
 C1408 C 0.53084 0.29160 0.58560
 C1409 C 0.51477 0.31983 0.56075
 C1410 C 0.51596 0.33729 0.55089
 C1411 C 0.51623 0.35920 0.54103
 C1412 C 0.50040 0.36468 0.52492
 C1413 C 0.49800 0.38714 0.51797
 C1414 C 0.51130 0.40430 0.52729
 C1415 C 0.52770 0.39842 0.54296
 C1416 C 0.53010 0.37596 0.54981
 H1417 H 0.47614 0.29883 0.56909
 H1418 H 0.47053 0.26949 0.59635
 H1419 H 0.54264 0.26816 0.60930
 H1420 H 0.54768 0.29783 0.58256
 H1421 H 0.48937 0.35177 0.51832
 H1422 H 0.48531 0.39114 0.50580
 H1423 H 0.53839 0.41120 0.55025
 H1424 H 0.54219 0.37182 0.56251
 C1425 C 0.48518 1.19096 0.58409
 C1426 C 0.50698 1.19975 0.58455
 C1427 C 0.51183 1.21853 0.59716
 C1428 C 0.49509 1.22848 0.61009
 C1429 C 0.47272 1.22033 0.60814
 C1430 C 0.46794 1.20141 0.59553
 C1431 C 0.48126 1.17025 0.57297
 C1432 C 0.47979 1.15230 0.56416
 C1433 C 0.48024 1.13055 0.55428
 C1434 C 0.49337 1.12739 0.53608
 C1435 C 0.49664 1.10563 0.52802
 C1436 C 0.48683 1.08679 0.53819
 C1437 C 0.47320 1.09024 0.55624
 C1438 C 0.47000 1.11206 0.56428
 H1439 H 0.52036 1.19181 0.57548
 H1440 H 0.52890 1.22504 0.59729
 H1441 H 0.45878 1.22845 0.61614
 H1442 H 0.45089 1.19484 0.59486
 H1443 H 0.50159 1.14167 0.52847
 H1444 H 0.50708 1.10358 0.51401
 H1445 H 0.46529 1.07610 0.56433
 H1446 H 0.46007 1.11444 0.57860
 C1447 C -0.01815 0.70266 1.08554
 C1448 C -0.03685 0.71173 1.09595
 C1449 C -0.03388 0.72894 1.11104
 C1450 C -0.01197 0.73664 1.11651
 C1451 C 0.00641 0.72831 1.10458
 C1452 C 0.00337 0.71127 1.08950
 C1453 C -0.02032 0.68304 1.07238
 C1454 C -0.02051 0.66574 1.06235
 C1455 C -0.01894 0.64441 1.05172
 C1456 C -0.03119 0.62593 1.05935
 C1457 C -0.02721 0.60431 1.05118
 C1458 C -0.01079 0.60099 1.03535
 C1459 C 0.00107 0.61983 1.02744
 C1460 C -0.00296 0.64143 1.03566
 H1461 H -0.05364 0.70529 1.09266
 H1462 H -0.04882 0.73607 1.11824
 H1463 H 0.02331 0.73463 1.10747
 H1464 H 0.01793 0.70440 1.08132
 H1465 H -0.04336 0.62813 1.07204
 H1466 H -0.03677 0.59019 1.05748
 H1467 H 0.01371 0.61787 1.01518
 H1468 H 0.00683 0.65568 1.02995
 C1469 C 0.51371 0.70061 -0.08886
 C1470 C 0.53295 0.70954 -0.09837
 C1471 C 0.53083 0.72733 -0.11319
 C1472 C 0.50925 0.73585 -0.11929
 C1473 C 0.49027 0.72754 -0.10831
 C1474 C 0.49245 0.70987 -0.09351
 C1475 C 0.51530 0.68080 -0.07561
 C1476 C 0.51548 0.66348 -0.06541
 C1477 C 0.51442 0.64219 -0.05444
 C1478 C 0.52768 0.62401 -0.06137
 C1479 C 0.52472 0.60246 -0.05254
 C1480 C 0.50836 0.59891 -0.03670
 C1481 C 0.49544 0.61746 -0.02953
 C1482 C 0.49844 0.63900 -0.03843
 H1483 H 0.54953 0.70261 -0.09450
 H1484 H 0.54616 0.73433 -0.11960
 H1485 H 0.47357 0.73447 -0.11166
 H1486 H 0.47749 0.70314 -0.08601
 H1487 H 0.53990 0.62638 -0.07397
 H1488 H 0.53506 0.58857 -0.05829
 H1489 H 0.48279 0.61531 -0.01731
 H1490 H 0.48793 0.65302 -0.03320
 C1491 C 0.00884 1.18456 0.40991
 C1492 C 0.02681 1.19368 0.39855
 C1493 C 0.02302 1.21180 0.38438
 C1494 C 0.00096 1.22055 0.38086
 C1495 C -0.01668 1.21178 0.39342
 C1496 C -0.01283 1.19376 0.40755
 C1497 C 0.01212 1.16492 0.42312
 C1498 C 0.01380 1.14779 0.43351
 C1499 C 0.01453 1.12669 0.44485
 C1500 C 0.02788 1.10895 0.43716
 C1501 C 0.02640 1.08740 0.44635
 C1502 C 0.01144 1.08340 0.46330
 C1503 C -0.00142 1.10157 0.47135
 C1504 C 0.00008 1.12312 0.46208
 H1505 H 0.04374 1.18678 0.40062
 H1506 H 0.03752 1.21903 0.37660
 H1507 H -0.03360 1.21884 0.39207
 H1508 H -0.02680 1.18686 0.41650
 H1509 H 0.03895 1.11161 0.42367
 H1510 H 0.03670 1.07382 0.43992
 H1511 H -0.01302 1.09905 0.48442
 H1512 H -0.01048 1.13681 0.46792
 C1513 C 0.75046 0.68980 0.94486
 C1514 C 0.76596 0.69366 0.96160
 C1515 C 0.76557 0.68023 0.98025
 C1516 C 0.74909 0.66318 0.98292
 C1517 C 0.73484 0.65845 0.96504
 C1518 C 0.73527 0.67186 0.94648
 C1519 C 0.75088 0.70308 0.92533
 C1520 C 0.75128 0.71303 0.90833
 C1521 C 0.75252 0.72303 0.88719
 C1522 C 0.73502 0.73678 0.87866
 C1523 C 0.73545 0.74383 0.85704
 C1524 C 0.75321 0.73681 0.84382
 C1525 C 0.77104 0.72382 0.85285
 C1526 C 0.77070 0.71704 0.87431
 H1527 H 0.77839 0.70700 0.96023
 H1528 H 0.77777 0.68356 0.99295
 H1529 H 0.72337 0.64425 0.96499
 H1530 H 0.72385 0.66803 0.93325
 H1531 H 0.72077 0.74140 0.88848
 H1532 H 0.72149 0.75376 0.85045
 H1533 H 0.78509 0.71837 0.84313
 H1534 H 0.78429 0.70641 0.88065
 C1535 C 0.24029 0.17777 0.43927
 C1536 C 0.23594 0.18899 0.45852
 C1537 C 0.23912 0.17771 0.47824
 C1538 C 0.24731 0.15502 0.47917
 C1539 C 0.25094 0.14387 0.45945
 C1540 C 0.24777 0.15518 0.43983
 C1541 C 0.23639 0.18887 0.41877
 C1542 C 0.23342 0.19690 0.40102
 C1543 C 0.23050 0.20460 0.37907
 C1544 C 0.23009 0.22779 0.37363
 C1545 C 0.22928 0.23460 0.35194
 C1546 C 0.22914 0.21822 0.33554
 C1547 C 0.22868 0.19505 0.34130
 C1548 C 0.22933 0.18835 0.36282
 H1549 H 0.22963 0.20633 0.45831
 H1550 H 0.23440 0.18668 0.49262
 H1551 H 0.25604 0.12616 0.45926
 H1552 H 0.25081 0.14612 0.42502
 H1553 H 0.23101 0.24056 0.38608
 H1554 H 0.22977 0.25254 0.34800
 H1555 H 0.22839 0.18199 0.32910
 H1556 H 0.22957 0.17038 0.36677
 C1557 C 0.75534 0.31414 0.43773
 C1558 C 0.73952 0.33181 0.43937
 C1559 C 0.73718 0.34366 0.45865
 C1560 C 0.75028 0.33774 0.47706
 C1561 C 0.76656 0.32018 0.47488
 C1562 C 0.76887 0.30838 0.45555
 C1563 C 0.75858 0.30315 0.41727
 C1564 C 0.76100 0.29515 0.39959
 C1565 C 0.76329 0.28748 0.37770
 C1566 C 0.76535 0.30377 0.36144
 C1567 C 0.76525 0.29727 0.33993
 C1568 C 0.76310 0.27427 0.33417
 C1569 C 0.76213 0.25776 0.35059
 C1570 C 0.76209 0.26437 0.37228
 H1571 H 0.72936 0.33687 0.42551
 H1572 H 0.72561 0.35795 0.45871
 H1573 H 0.77775 0.31578 0.48820
 H1574 H 0.78155 0.29508 0.45441
 H1575 H 0.76635 0.32167 0.36535
 H1576 H 0.76621 0.31041 0.32772
 H1577 H 0.76033 0.23995 0.34664
 H1578 H 0.76046 0.25157 0.38472
 C1579 C 0.25735 0.81776 0.93985
 C1580 C 0.24121 0.83521 0.94091
 C1581 C 0.23779 0.84696 0.96012
 C1582 C 0.25013 0.84120 0.97904
 C1583 C 0.26659 0.82371 0.97753
 C1584 C 0.26997 0.81201 0.95829
 C1585 C 0.26193 0.80699 0.91947
 C1586 C 0.26556 0.79907 0.90191
 C1587 C 0.26936 0.79128 0.88021
 C1588 C 0.27171 0.80744 0.86386
 C1589 C 0.27302 0.80068 0.84244
 C1590 C 0.27206 0.77753 0.83686
 C1591 C 0.27088 0.76121 0.85341
 C1592 C 0.26941 0.76807 0.87499
 H1593 H 0.23168 0.84025 0.92664
 H1594 H 0.22610 0.86116 0.95974
 H1595 H 0.27723 0.81942 0.99128
 H1596 H 0.28286 0.79887 0.95767
 H1597 H 0.27178 0.82541 0.86759
 H1598 H 0.27403 0.81370 0.83012
 H1599 H 0.26990 0.74330 0.84961
 H1600 H 0.26759 0.75534 0.88748
 C1601 C 0.24056 0.81673 0.05938
 C1602 C 0.23644 0.80639 0.03954
 C1603 C 0.23980 0.81843 0.02033
 C1604 C 0.24793 0.84103 0.02048
 C1605 C 0.25142 0.85129 0.04074
 C1606 C 0.24807 0.83923 0.05986
 C1607 C 0.23631 0.80486 0.07938
 C1608 C 0.23296 0.79609 0.09669
 C1609 C 0.22945 0.78743 0.11822
 C1610 C 0.23016 0.76404 0.12299
 C1611 C 0.22892 0.75642 0.14443
 C1612 C 0.22723 0.77215 0.16130
 C1613 C 0.22554 0.79545 0.15616
 C1614 C 0.22661 0.80297 0.13489
 H1615 H 0.23013 0.78917 0.03888
 H1616 H 0.23524 0.81013 0.00546
 H1617 H 0.25647 0.86890 0.04175
 H1618 H 0.25095 0.84765 0.07508
 H1619 H 0.23236 0.75179 0.11025
 H1620 H 0.23045 0.73841 0.14790
 H1621 H 0.22411 0.80803 0.16872
 H1622 H 0.22596 0.82106 0.13152
 C1623 C 0.74343 0.31120 0.55690
 C1624 C 0.73892 0.30126 0.53695
 C1625 C 0.74114 0.31395 0.51797
 C1626 C 0.74863 0.33677 0.51848
 C1627 C 0.75213 0.34670 0.53887
 C1628 C 0.74988 0.33400 0.55776
 C1629 C 0.74186 0.29820 0.57661
 C1630 C 0.74158 0.28836 0.59372
 C1631 C 0.74291 0.27827 0.61494
 C1632 C 0.72521 0.26540 0.62347
 C1633 C 0.72627 0.25790 0.64500
 C1634 C 0.74490 0.26354 0.65815
 C1635 C 0.76286 0.27568 0.64910
 C1636 C 0.76187 0.28290 0.62775
 H1637 H 0.73350 0.28373 0.53605
 H1638 H 0.73651 0.30584 0.50303
 H1639 H 0.75674 0.36442 0.54014
 H1640 H 0.75315 0.34204 0.57311
 H1641 H 0.71038 0.26174 0.61372
 H1642 H 0.71216 0.24870 0.65160
 H1643 H 0.77754 0.28012 0.65875
 H1644 H 0.77568 0.29279 0.62142
 C1645 C 0.25398 0.18287 0.55843
 C1646 C 0.23834 0.16516 0.55749
 C1647 C 0.23608 0.15198 0.53894
 C1648 C 0.24906 0.15658 0.52055
 C1649 C 0.26525 0.17413 0.52208
 C1650 C 0.26747 0.18728 0.54067
 C1651 C 0.25657 0.19575 0.57802
 C1652 C 0.25788 0.20554 0.59503
 C1653 C 0.25795 0.21560 0.61617
 C1654 C 0.24079 0.20958 0.63022
 C1655 C 0.24118 0.21722 0.65136
 C1656 C 0.25878 0.23115 0.65901
 C1657 C 0.27558 0.23799 0.64463
 C1658 C 0.27524 0.23010 0.62330
 H1659 H 0.22815 0.16121 0.57132
 H1660 H 0.22461 0.13779 0.53942
 H1661 H 0.27635 0.17755 0.50879
 H1662 H 0.27996 0.20064 0.54128
 H1663 H 0.22730 0.19845 0.62498
 H1664 H 0.22782 0.21183 0.66191
 H1665 H 0.28936 0.24862 0.65008
 H1666 H 0.28867 0.23487 0.61257
 C1667 C 0.74673 0.69119 0.06217
 C1668 C 0.74305 0.70147 0.04211
 C1669 C 0.74256 0.68830 0.02344
 C1670 C 0.74657 0.66454 0.02438
 C1671 C 0.74820 0.65434 0.04498
 C1672 C 0.74870 0.66753 0.06358
 C1673 C 0.74793 0.70461 0.08149
 C1674 C 0.74857 0.71483 0.09827
 C1675 C 0.74821 0.72536 0.11914
 C1676 C 0.76671 0.73765 0.12727
 C1677 C 0.76685 0.74522 0.14868
 C1678 C 0.74862 0.74019 0.16209
 C1679 C 0.72983 0.72874 0.15342
 C1680 C 0.72963 0.72145 0.13217
 H1681 H 0.74059 0.71970 0.04088
 H1682 H 0.73898 0.69696 0.00842
 H1683 H 0.75011 0.63608 0.04655
 H1684 H 0.75087 0.65924 0.07907
 H1685 H 0.78126 0.74069 0.11734
 H1686 H 0.78155 0.75390 0.15503
 H1687 H 0.71546 0.72481 0.16332
 H1688 H 0.71525 0.71199 0.12614
 C1689 C 0.14100 0.55899 0.24309
 C1690 C 0.15134 0.53822 0.23820
 C1691 C 0.13976 0.51775 0.24105
 C1692 C 0.11766 0.51749 0.24946
 C1693 C 0.10734 0.53873 0.25372
 C1694 C 0.11895 0.55914 0.25085
 C1695 C 0.15304 0.58012 0.24036
 C1696 C 0.16329 0.59777 0.23875
 C1697 C 0.17600 0.61869 0.23813
 C1698 C 0.19233 0.62257 0.25409
 C1699 C 0.20411 0.64302 0.25461
 C1700 C 0.19986 0.66016 0.23912
 C1701 C 0.18375 0.65600 0.22275
 C1702 C 0.17184 0.63539 0.22232
 H1703 H 0.16829 0.53785 0.23188
 H1704 H 0.14800 0.50226 0.23602
 H1705 H 0.09004 0.53953 0.25908
 H1706 H 0.11060 0.57508 0.25449
 H1707 H 0.19578 0.60985 0.26640
 H1708 H 0.21646 0.64547 0.26739
 H1709 H 0.17997 0.66884 0.21066
 H1710 H 0.15920 0.63263 0.20986
 C1711 C 0.64351 0.06347 0.75090
 C1712 C 0.64911 0.04680 0.76628
 C1713 C 0.63674 0.02655 0.76734
 C1714 C 0.61916 0.02204 0.75238
 C1715 C 0.61251 0.04010 0.73839
 C1716 C 0.62480 0.06025 0.73739
 C1717 C 0.65680 0.08390 0.74880
 C1718 C 0.66789 0.10098 0.74690
 C1719 C 0.68137 0.12133 0.74526
 C1720 C 0.69672 0.12642 0.76177
 C1721 C 0.70932 0.14636 0.76101
 C1722 C 0.70688 0.16177 0.74366
 C1723 C 0.69177 0.15635 0.72681
 C1724 C 0.67905 0.13626 0.72765
 H1725 H 0.66317 0.04933 0.77733
 H1726 H 0.64145 0.01395 0.77938
 H1727 H 0.59777 0.03893 0.72803
 H1728 H 0.61971 0.07333 0.72595
 H1729 H 0.69878 0.11505 0.77544
 H1730 H 0.72086 0.14980 0.77424
 H1731 H 0.68939 0.16785 0.71330
 H1732 H 0.66722 0.13252 0.71473
 C1733 C 0.85061 0.06590 0.24652
 C1734 C 0.87417 0.06693 0.24785
 C1735 C 0.88718 0.04700 0.24697
 C1736 C 0.87694 0.02537 0.24554
 C1737 C 0.85325 0.02488 0.24215
 C1738 C 0.84026 0.04489 0.24302
 C1739 C 0.83713 0.08637 0.24882
 C1740 C 0.82586 0.10350 0.25069
 C1741 C 0.81219 0.12393 0.25228
 C1742 C 0.81602 0.13982 0.26867
 C1743 C 0.80329 0.16007 0.26931
 C1744 C 0.78663 0.16473 0.25348
 C1745 C 0.78263 0.14836 0.23743
 C1746 C 0.79526 0.12822 0.23686
 H1747 H 0.88252 0.08310 0.25001
 H1748 H 0.90537 0.04832 0.24858
 H1749 H 0.84449 0.00921 0.23893
 H1750 H 0.82206 0.04391 0.24118
 H1751 H 0.82909 0.13674 0.28072
 H1752 H 0.80693 0.17233 0.28178
 H1753 H 0.76991 0.15125 0.22500
 H1754 H 0.79205 0.11612 0.22413
 C1755 C 0.36014 0.56571 0.75414
 C1756 C 0.37796 0.56432 0.73967
 C1757 C 0.38985 0.54386 0.73703
 C1758 C 0.38380 0.52397 0.74842
 C1759 C 0.36619 0.52594 0.76344
 C1760 C 0.35433 0.54642 0.76603
 C1761 C 0.34782 0.58690 0.75667
 C1762 C 0.33733 0.60457 0.75816
 C1763 C 0.32435 0.62555 0.75875
 C1764 C 0.30829 0.62992 0.74254
 C1765 C 0.29614 0.65037 0.74215
 C1766 C 0.29974 0.66702 0.75803
 C1767 C 0.31565 0.66239 0.77457
 C1768 C 0.32791 0.64179 0.77488
 H1769 H 0.38291 0.57920 0.73058
 H1770 H 0.40418 0.54394 0.72646
 H1771 H 0.36173 0.51155 0.77339
 H1772 H 0.34077 0.54725 0.77751
 H1773 H 0.30530 0.61758 0.72997
 H1774 H 0.28400 0.65318 0.72920
 H1775 H 0.31894 0.67482 0.78697
 H1776 H 0.34032 0.63867 0.78754
 C1777 C 0.36023 0.43859 0.74031
 C1778 C 0.38250 0.43826 0.74812
 C1779 C 0.39424 0.45859 0.75114
 C1780 C 0.38385 0.47994 0.74699
 C1781 C 0.36150 0.47988 0.73857
 C1782 C 0.34979 0.45948 0.73556
 C1783 C 0.34806 0.41752 0.73752
 C1784 C 0.33775 0.39987 0.73602
 C1785 C 0.32506 0.37891 0.73577
 C1786 C 0.32696 0.36310 0.71904
 C1787 C 0.31510 0.34245 0.71983
 C1788 C 0.30134 0.33737 0.73747
 C1789 C 0.29934 0.35363 0.75391
 C1790 C 0.31104 0.37410 0.75304
 H1791 H 0.39092 0.42224 0.75169
 H1792 H 0.41170 0.45764 0.75651
 H1793 H 0.35315 0.49550 0.73365
 H1794 H 0.33264 0.46002 0.72923
 H1795 H 0.33780 0.36658 0.70556
 H1796 H 0.31710 0.33031 0.70698
 H1797 H 0.28880 0.35050 0.76768
 H1798 H 0.30935 0.38611 0.76607
 C1799 C 0.85274 0.94046 0.24832
 C1800 C 0.84827 0.95789 0.26295
 C1801 C 0.86132 0.97772 0.26302
 C1802 C 0.87858 0.98106 0.24785
 C1803 C 0.88397 0.96237 0.23452
 C1804 C 0.87097 0.94262 0.23450
 C1805 C 0.83886 0.92029 0.24745
 C1806 C 0.82734 0.90337 0.24652
 C1807 C 0.81355 0.88312 0.24582
 C1808 C 0.79956 0.87805 0.26308
 C1809 C 0.78670 0.85821 0.26303
 C1810 C 0.78752 0.84293 0.24566
 C1811 C 0.80134 0.84832 0.22815
 C1812 C 0.81428 0.86826 0.22827
 H1813 H 0.83459 0.95623 0.27421
 H1814 H 0.85749 0.99087 0.27454
 H1815 H 0.89833 0.96264 0.22402
 H1816 H 0.87518 0.92896 0.22361
 H1817 H 0.79876 0.88935 0.27674
 H1818 H 0.77625 0.85476 0.27679
 H1819 H 0.80251 0.83693 0.21460
 H1820 H 0.82505 0.87195 0.21478
 C1821 C 0.65027 0.93812 0.75354
 C1822 C 0.62684 0.93634 0.75530
 C1823 C 0.61317 0.95581 0.75419
 C1824 C 0.62259 0.97775 0.75205
 C1825 C 0.64612 0.97899 0.74852
 C1826 C 0.65979 0.95943 0.74963
 C1827 C 0.66440 0.91802 0.75555
 C1828 C 0.67608 0.90109 0.75710
 C1829 C 0.69002 0.88080 0.75828
 C1830 C 0.68883 0.86579 0.77583
 C1831 C 0.70174 0.84564 0.77625
 C1832 C 0.71594 0.84021 0.75903
 C1833 C 0.71726 0.85567 0.74170
 C1834 C 0.70444 0.87571 0.74136
 H1835 H 0.61912 0.91991 0.75778
 H1836 H 0.59509 0.95388 0.75588
 H1837 H 0.65420 0.99489 0.74478
 H1838 H 0.67785 0.96097 0.74747
 H1839 H 0.67771 0.86949 0.78905
 H1840 H 0.70020 0.83411 0.78976
 H1841 H 0.72802 0.85218 0.72817
 H1842 H 0.70557 0.88713 0.72769
 C1843 C 0.14200 0.43175 0.25542
 C1844 C 0.12364 0.43343 0.24107
 C1845 C 0.11153 0.45387 0.23882
 C1846 C 0.11788 0.47345 0.25048
 C1847 C 0.13603 0.47116 0.26540
 C1848 C 0.14811 0.45069 0.26761
 C1849 C 0.15450 0.41058 0.25753
 C1850 C 0.16502 0.39288 0.25866
 C1851 C 0.17783 0.37181 0.25888
 C1852 C 0.17518 0.35551 0.27519
 C1853 C 0.18710 0.33476 0.27451
 C1854 C 0.20174 0.33003 0.25743
 C1855 C 0.20447 0.34675 0.24137
 C1856 C 0.19266 0.36737 0.24212
 H1857 H 0.11844 0.41879 0.23178
 H1858 H 0.09681 0.45398 0.22833
 H1859 H 0.14076 0.48529 0.27555
 H1860 H 0.16209 0.44960 0.27901
 H1861 H 0.16372 0.35869 0.28825
 H1862 H 0.18448 0.32227 0.28706
 H1863 H 0.21562 0.34385 0.22801
 H1864 H 0.19491 0.37977 0.22940
 C1865 C 0.06953 0.25245 0.84610
 C1866 C 0.05052 0.26147 0.83557
 C1867 C 0.03011 0.26295 0.84626
 C1868 C 0.02821 0.25465 0.86751
 C1869 C 0.04800 0.24678 0.87820
 C1870 C 0.06840 0.24533 0.86745
 C1871 C 0.09037 0.25110 0.83505
 C1872 C 0.10778 0.25022 0.82557
 C1873 C 0.12843 0.24952 0.81415
 C1874 C 0.14627 0.23590 0.82171
 C1875 C 0.16664 0.23566 0.81081
 C1876 C 0.16928 0.24909 0.79225
 C1877 C 0.15108 0.26258 0.78471
 C1878 C 0.13075 0.26277 0.79565
 H1879 H 0.05155 0.26764 0.81918
 H1880 H 0.01602 0.27097 0.83789
 H1881 H 0.04757 0.24160 0.89491
 H1882 H 0.08329 0.23882 0.87583
 H1883 H 0.14449 0.22562 0.83608
 H1884 H 0.18032 0.22508 0.81702
 H1885 H 0.15257 0.27309 0.77047
 H1886 H 0.11690 0.27336 0.78977
 C1887 C 0.54910 0.73328 0.33145
 C1888 C 0.54135 0.71523 0.34392
 C1889 C 0.52399 0.71888 0.35846
 C1890 C 0.51486 0.74091 0.36128
 C1891 C 0.52191 0.75842 0.34736
 C1892 C 0.53904 0.75469 0.33280
 C1893 C 0.56907 0.73103 0.31917
 C1894 C 0.58664 0.73119 0.30992
 C1895 C 0.60820 0.73354 0.30034
 C1896 C 0.62671 0.72169 0.30904
 C1897 C 0.64837 0.72655 0.30204
 C1898 C 0.65170 0.74343 0.28630
 C1899 C 0.63287 0.75495 0.27736
 C1900 C 0.61121 0.75005 0.28443
 H1901 H 0.54900 0.69851 0.34271
 H1902 H 0.51791 0.70441 0.36739
 H1903 H 0.51452 0.77528 0.34824
 H1904 H 0.54495 0.76874 0.32309
 H1905 H 0.62446 0.70916 0.32165
 H1906 H 0.66249 0.71719 0.30908
 H1907 H 0.63486 0.76791 0.26513
 H1908 H 0.59690 0.75956 0.27794
 C1909 C 0.54952 0.27612 0.16427
 C1910 C 0.52813 0.27543 0.17334
 C1911 C 0.50950 0.26928 0.16075
 C1912 C 0.51226 0.26268 0.13912
 C1913 C 0.53364 0.26576 0.12984
 C1914 C 0.55217 0.27201 0.14240
 C1915 C 0.56920 0.27844 0.17755
 C1916 C 0.58651 0.27865 0.18776
 C1917 C 0.60794 0.27714 0.19847
 C1918 C 0.61151 0.26084 0.21463
 C1919 C 0.63331 0.25666 0.22259
 C1920 C 0.65172 0.26865 0.21426
 C1921 C 0.64777 0.28552 0.19848
 C1922 C 0.62599 0.28968 0.19062
 H1923 H 0.52593 0.27908 0.19023
 H1924 H 0.49312 0.26946 0.16818
 H1925 H 0.53617 0.26229 0.11297
 H1926 H 0.56871 0.27282 0.13520
 H1927 H 0.59759 0.25083 0.22053
 H1928 H 0.63581 0.24367 0.23481
 H1929 H 0.66154 0.29526 0.19192
 H1930 H 0.62335 0.30211 0.17790
 C1931 C 0.05910 0.75653 0.66707
 C1932 C 0.04991 0.77394 0.65432
 C1933 C 0.03268 0.76919 0.63956
 C1934 C 0.02491 0.74669 0.63683
 C1935 C 0.03370 0.72965 0.65075
 C1936 C 0.05084 0.73447 0.66548
 C1937 C 0.07821 0.76071 0.68061
 C1938 C 0.09515 0.76311 0.69105
 C1939 C 0.11633 0.76460 0.70209
 C1940 C 0.13287 0.77901 0.69405
 C1941 C 0.15484 0.77772 0.70226
 C1942 C 0.16045 0.76190 0.71854
 C1943 C 0.14344 0.74815 0.72714
 C1944 C 0.12147 0.74944 0.71885
 H1945 H 0.05612 0.79116 0.65572
 H1946 H 0.02532 0.78331 0.63070
 H1947 H 0.02733 0.71245 0.65003
 H1948 H 0.05785 0.72091 0.67545
 H1949 H 0.12900 0.79061 0.68090
 H1950 H 0.16750 0.78874 0.69548
 H1951 H 0.14723 0.73588 0.73975
 H1952 H 0.10873 0.73803 0.72492
 C1953 C 0.95176 0.73261 0.66860
 C1954 C 0.96045 0.75404 0.66410
 C1955 C 0.97738 0.75635 0.64907
 C1956 C 0.98553 0.73732 0.63773
 C1957 C 0.97753 0.71558 0.64357
 C1958 C 0.96046 0.71334 0.65861
 C1959 C 0.93259 0.73099 0.68205
 C1960 C 0.91564 0.73096 0.69228
 C1961 C 0.89460 0.73237 0.70301
 C1962 C 0.89134 0.74899 0.71863
 C1963 C 0.86985 0.75270 0.72681
 C1964 C 0.85143 0.73989 0.71925
 C1965 C 0.85507 0.72281 0.70392
 C1966 C 0.87657 0.71912 0.69583
 H1967 H 0.95384 0.76904 0.67194
 H1968 H 0.98393 0.77317 0.64595
 H1969 H 0.98447 0.70021 0.63681
 H1970 H 0.95393 0.69663 0.66231
 H1971 H 0.90524 0.75951 0.72400
 H1972 H 0.86759 0.76589 0.73867
 H1973 H 0.84130 0.71249 0.69795
 H1974 H 0.87899 0.70643 0.68351
 C1975 C 0.43488 0.23297 0.16214
 C1976 C 0.45647 0.22492 0.16745
 C1977 C 0.47479 0.23155 0.15514
 C1978 C 0.47191 0.24715 0.13792
 C1979 C 0.44966 0.25348 0.13182
 C1980 C 0.43141 0.24676 0.14407
 C1981 C 0.41617 0.22833 0.17559
 C1982 C 0.39960 0.22614 0.18618
 C1983 C 0.37891 0.22548 0.19760
 C1984 C 0.36111 0.21240 0.18966
 C1985 C 0.33965 0.21484 0.19824
 C1986 C 0.33580 0.23053 0.21480
 C1987 C 0.35405 0.24292 0.22328
 C1988 C 0.37551 0.24046 0.21463
 H1989 H 0.45918 0.21386 0.18124
 H1990 H 0.49142 0.22506 0.15944
 H1991 H 0.44614 0.26359 0.11759
 H1992 H 0.41456 0.25256 0.13957
 H1993 H 0.36361 0.20099 0.17628
 H1994 H 0.32601 0.20483 0.19153
 H1995 H 0.35164 0.25503 0.23610
 H1996 H 0.38922 0.25088 0.22062
 C1997 C 0.43952 0.75406 0.33206
 C1998 C 0.44865 0.73261 0.33648
 C1999 C 0.46653 0.73034 0.35106
 C2000 C 0.47517 0.74943 0.36201
 C2001 C 0.46649 0.77115 0.35638
 C2002 C 0.44855 0.77335 0.34177
 C2003 C 0.41978 0.75594 0.31882
 C2004 C 0.40242 0.75680 0.30876
 C2005 C 0.38090 0.75705 0.29824
 C2006 C 0.37619 0.74144 0.28198
 C2007 C 0.35426 0.73970 0.27373
 C2008 C 0.33689 0.75346 0.28188
 C2009 C 0.34201 0.76951 0.29786
 C2010 C 0.36393 0.77125 0.30600
 H2011 H 0.44177 0.71761 0.32885
 H2012 H 0.47356 0.71355 0.35406
 H2013 H 0.47364 0.78654 0.36288
 H2014 H 0.44164 0.79007 0.33815
 H2015 H 0.38930 0.73021 0.27612
 H2016 H 0.35083 0.72724 0.26138
 H2017 H 0.32906 0.78054 0.30429
 H2018 H 0.36750 0.78322 0.31876
 C2019 C 0.94569 0.26069 0.83998
 C2020 C 0.96262 0.24487 0.83564
 C2021 C 0.98209 0.24413 0.84840
 C2022 C 0.98530 0.25968 0.86537
 C2023 C 0.96753 0.27497 0.86998
 C2024 C 0.94804 0.27566 0.85717
 C2025 C 0.92515 0.26041 0.82776
 C2026 C 0.90760 0.25976 0.81800
 C2027 C 0.88630 0.25866 0.80712
 C2028 C 0.88278 0.24267 0.79092
 C2029 C 0.86149 0.24075 0.78124
 C2030 C 0.84357 0.25478 0.78782
 C2031 C 0.84746 0.27099 0.80398
 C2032 C 0.86873 0.27288 0.81357
 H2033 H 0.96058 0.23281 0.82267
 H2034 H 0.99471 0.23126 0.84508
 H2035 H 0.96825 0.28602 0.88379
 H2036 H 0.93457 0.28747 0.86099
 H2037 H 0.89638 0.23153 0.78598
 H2038 H 0.85903 0.22814 0.76883
 H2039 H 0.83407 0.28216 0.80933
 H2040 H 0.87139 0.28523 0.82620
 C2041 C 0.56575 0.99746 0.69357
 C2042 C 0.55520 0.99338 0.71317
 C2043 C 0.56803 0.99233 0.73228
 C2044 C 0.59159 0.99634 0.73217
 C2045 C 0.60205 0.99806 0.71196
 C2046 C 0.58927 0.99900 0.69298
 C2047 C 0.55289 1.00083 0.67394
 C2048 C 0.54381 1.00420 0.65671
 C2049 C 0.53531 1.00827 0.63520
 C2050 C 0.55085 1.01275 0.61905
 C2051 C 0.54369 1.01442 0.59767
 C2052 C 0.52077 1.01172 0.59203
 C2053 C 0.50497 1.00849 0.60841
 C2054 C 0.51225 1.00663 0.62995
 H2055 H 0.53704 0.99136 0.71374
 H2056 H 0.55924 0.98866 0.74695
 H2057 H 0.62019 1.00006 0.71100
 H2058 H 0.59773 1.00161 0.67785
 H2059 H 0.56870 1.01416 0.62290
 H2060 H 0.55624 1.01701 0.58542
 H2061 H 0.48726 1.00613 0.60447
 H2062 H 0.50006 1.00319 0.64233
 C2063 C 0.06336 0.50808 1.19158
 C2064 C 0.08546 0.49966 1.19052
 C2065 C 0.09781 0.49492 1.20933
 C2066 C 0.08816 0.49788 1.22976
 C2067 C 0.06592 0.50688 1.23048
 C2068 C 0.05360 0.51164 1.21160
 C2069 C 0.05138 0.51403 1.17199
 C2070 C 0.04266 0.51882 1.15488
 C2071 C 0.03425 0.52394 1.13353
 C2072 C 0.04967 0.53059 1.11795
 C2073 C 0.04295 0.53216 1.09644
 C2074 C 0.02063 0.52720 1.09013
 C2075 C 0.00476 0.52201 1.10598
 C2076 C 0.01161 0.52021 1.12763
 H2077 H 0.09338 0.49725 1.17511
 H2078 H 0.11518 0.48930 1.20794
 H2079 H 0.05817 0.51109 1.24558
 H2080 H 0.03668 0.51865 1.21263
 H2081 H 0.06721 0.53350 1.12229
 H2082 H 0.05551 0.53623 1.08455
 H2083 H -0.01246 0.51786 1.10148
 H2084 H -0.00046 0.51496 1.13956
 C2085 C -0.06657 0.00242 1.18951
 C2086 C -0.05602 0.00630 1.20941
 C2087 C -0.06892 0.00796 1.22810
 C2088 C -0.09263 0.00486 1.22733
 C2089 C -0.10300 0.00310 1.20680
 C2090 C -0.09014 0.00151 1.18823
 C2091 C -0.05364 -0.00112 1.17026
 C2092 C -0.04435 -0.00450 1.15338
 C2093 C -0.03549 -0.00858 1.13221
 C2094 C -0.05063 -0.01427 1.11568
 C2095 C -0.04328 -0.01587 1.09456
 C2096 C -0.02055 -0.01191 1.08950
 C2097 C -0.00505 -0.00746 1.10628
 C2098 C -0.01253 -0.00566 1.12756
 H2099 H -0.03781 0.00780 1.21054
 H2100 H -0.06006 0.01152 1.24296
 H2101 H -0.12120 0.00175 1.20530
 H2102 H -0.09862 -0.00096 1.17288
 H2103 H -0.06838 -0.01665 1.11901
 H2104 H -0.05560 -0.01939 1.08200
 H2105 H 0.01249 -0.00409 1.10279
 H2106 H -0.00062 -0.00126 1.14021
 C2107 C 0.43560 0.48978 0.68871
 C2108 C 0.41363 0.49867 0.68792
 C2109 C 0.40218 0.50338 0.70688
 C2110 C 0.41260 0.49987 0.72721
 C2111 C 0.43473 0.49050 0.72766
 C2112 C 0.44614 0.48579 0.70863
 C2113 C 0.44675 0.48398 0.66899
 C2114 C 0.45504 0.47943 0.65190
 C2115 C 0.46339 0.47481 0.63069
 C2116 C 0.44784 0.47054 0.61409
 C2117 C 0.45496 0.46962 0.59284
 C2118 C 0.47780 0.47290 0.58780
 C2119 C 0.49364 0.47559 0.60465
 C2120 C 0.48642 0.47670 0.62602
 H2121 H 0.40511 0.50149 0.67260
 H2122 H 0.38485 0.50932 0.70568
 H2123 H 0.44304 0.48592 0.74266
 H2124 H 0.46299 0.47848 0.70948
 H2125 H 0.43000 0.46904 0.61746
 H2126 H 0.44238 0.46750 0.58020
 H2127 H 0.51128 0.47844 0.60121
 H2128 H 0.49862 0.48007 0.63872
 C2129 C 0.43762 0.51148 -0.19285
 C2130 C 0.41972 0.49607 -0.19327
 C2131 C 0.40742 0.49237 -0.21228
 C2132 C 0.41312 0.50359 -0.23157
 C2133 C 0.43093 0.51951 -0.23066
 C2134 C 0.44318 0.52319 -0.21161
 C2135 C 0.44908 0.51624 -0.17274
 C2136 C 0.45746 0.51997 -0.15530
 C2137 C 0.46559 0.52383 -0.13365
 C2138 C 0.44985 0.52885 -0.11781
 C2139 C 0.45654 0.52962 -0.09626
 C2140 C 0.47917 0.52546 -0.09010
 C2141 C 0.49525 0.52177 -0.10615
 C2142 C 0.48844 0.52080 -0.12786
 H2143 H 0.41483 0.48734 -0.17870
 H2144 H 0.39299 0.48124 -0.21154
 H2145 H 0.43516 0.52939 -0.24475
 H2146 H 0.45666 0.53555 -0.21142
 H2147 H 0.43216 0.53124 -0.12203
 H2148 H 0.44379 0.53260 -0.08426
 H2149 H 0.51273 0.51830 -0.10181
 H2150 H 0.50079 0.51683 -0.13998
 C2151 C -0.06875 1.00391 0.30818
 C2152 C -0.06394 0.98793 0.29227
 C2153 C -0.07683 0.98754 0.27314
 C2154 C -0.09422 1.00374 0.26913
 C2155 C -0.09988 1.01838 0.28627
 C2156 C -0.08706 1.01873 0.30525
 C2157 C -0.05595 1.00483 0.32812
 C2158 C -0.04673 1.00641 0.34551
 C2159 C -0.03784 1.00865 0.36714
 C2160 C -0.05308 1.01109 0.38391
 C2161 C -0.04535 1.01177 0.40516
 C2162 C -0.02212 1.01006 0.41014
 C2163 C -0.00669 1.00868 0.39318
 C2164 C -0.01455 1.00788 0.37175
 H2165 H -0.05028 0.97578 0.29462
 H2166 H -0.07285 0.97493 0.26114
 H2167 H -0.11439 1.02959 0.28542
 H2168 H -0.09162 1.03053 0.31780
 H2169 H -0.07110 1.01190 0.38060
 H2170 H -0.05768 1.01298 0.41780
 H2171 H 0.01126 1.00714 0.39653
 H2172 H -0.00254 1.00609 0.35890
 C2173 C 0.06602 0.48480 0.30954
 C2174 C 0.08380 0.50033 0.30915
 C2175 C 0.09552 0.50432 0.29017
 C2176 C 0.08931 0.49327 0.27088
 C2177 C 0.07170 0.47716 0.27179
 C2178 C 0.06003 0.47319 0.29081
 C2179 C 0.05499 0.47993 0.32954
 C2180 C 0.04687 0.47620 0.34689
 C2181 C 0.03895 0.47247 0.36841
 C2182 C 0.05490 0.46920 0.38493
 C2183 C 0.04813 0.46847 0.40627
 C2184 C 0.02520 0.47094 0.41152
 C2185 C 0.00902 0.47292 0.39482
 C2186 C 0.01591 0.47384 0.37332
 H2187 H 0.08900 0.50898 0.32371
 H2188 H 0.10987 0.51557 0.29091
 H2189 H 0.06713 0.46741 0.25771
 H2190 H 0.04663 0.46075 0.29099
 H2191 H 0.07275 0.46809 0.38137
 H2192 H 0.06097 0.46677 0.41877
 H2193 H -0.00871 0.47503 0.39843
 H2194 H 0.00339 0.47643 0.36066
 C2195 C 0.56638 -0.00156 -0.18847
 C2196 C 0.56123 0.01385 -0.20509
 C2197 C 0.57463 0.01451 -0.22351
 C2198 C 0.59283 -0.00093 -0.22613
 C2199 C 0.59888 -0.01475 -0.20821
 C2200 C 0.58557 -0.01535 -0.18991
 C2201 C 0.55285 -0.00307 -0.16939
 C2202 C 0.54313 -0.00533 -0.15257
 C2203 C 0.53395 -0.00862 -0.13141
 C2204 C 0.54886 -0.01450 -0.11464
 C2205 C 0.54121 -0.01598 -0.09363
 C2206 C 0.51841 -0.01169 -0.08892
 C2207 C 0.50313 -0.00696 -0.10591
 C2208 C 0.51093 -0.00531 -0.12712
 H2209 H 0.54687 0.02525 -0.20387
 H2210 H 0.57030 0.02657 -0.23615
 H2211 H 0.61394 -0.02523 -0.20802
 H2212 H 0.59035 -0.02665 -0.17677
 H2213 H 0.56664 -0.01727 -0.11772
 H2214 H 0.55334 -0.01975 -0.08088
 H2215 H 0.48555 -0.00336 -0.10267
 H2216 H 0.49919 -0.00082 -0.14000
 C2217 C 0.68660 0.60830 0.00249
 C2218 C 0.68559 0.63201 0.00118
 C2219 C 0.70536 0.64480 0.00278
 C2220 C 0.72683 0.63420 0.00495
 C2221 C 0.72729 0.61037 0.00818
 C2222 C 0.70743 0.59758 0.00658
 C2223 C 0.66624 0.59510 -0.00032
 C2224 C 0.64911 0.58421 -0.00257
 C2225 C 0.62851 0.57122 -0.00455
 C2226 C 0.61341 0.57471 -0.02188
 C2227 C 0.59279 0.56303 -0.02279
 C2228 C 0.58697 0.54780 -0.00627
 C2229 C 0.60261 0.54399 0.01070
 C2230 C 0.62313 0.55557 0.01153
 H2231 H 0.66955 0.64064 -0.00143
 H2232 H 0.70406 0.66312 0.00125
 H2233 H 0.74282 0.60135 0.01187
 H2234 H 0.70837 0.57927 0.00840
 H2235 H 0.61735 0.58681 -0.03444
 H2236 H 0.58113 0.56649 -0.03599
 H2237 H 0.59881 0.53233 0.02367
 H2238 H 0.63461 0.55264 0.02500
 C2239 C 0.18778 1.09960 0.49204
 C2240 C 0.18606 1.12255 0.49761
 C2241 C 0.20557 1.13556 0.50071
 C2242 C 0.22738 1.12579 0.49896
 C2243 C 0.22866 1.10276 0.49252
 C2244 C 0.20915 1.08982 0.48944
 C2245 C 0.16772 1.08597 0.48911
 C2246 C 0.15111 1.07422 0.48716
 C2247 C 0.13143 1.05981 0.48585
 C2248 C 0.11453 1.06346 0.47014
 C2249 C 0.09481 1.05030 0.47010
 C2250 C 0.09170 1.03341 0.48589
 C2251 C 0.10916 1.02943 0.50112
 C2252 C 0.12879 1.04248 0.50106
 H2253 H 0.16962 1.13048 0.49940
 H2254 H 0.20366 1.15342 0.50441
 H2255 H 0.24469 1.09467 0.48924
 H2256 H 0.21075 1.07218 0.48474
 H2257 H 0.11633 1.07682 0.45825
 H2258 H 0.08165 1.05397 0.45828
 H2259 H 0.10743 1.01656 0.51348
 H2260 H 0.14172 1.03940 0.51327
 C2261 C 0.18726 -0.10329 1.00697
 C2262 C 0.18614 -0.12596 1.00033
 C2263 C 0.20597 -0.13876 0.99766
 C2264 C 0.22754 -0.12905 1.00094
 C2265 C 0.22823 -0.10637 1.00845
 C2266 C 0.20839 -0.09363 1.01111
 C2267 C 0.16683 -0.08986 1.00944
 C2268 C 0.14987 -0.07834 1.01102
 C2269 C 0.12970 -0.06425 1.01193
 C2270 C 0.11409 -0.06675 1.02853
 C2271 C 0.09399 -0.05384 1.02840
 C2272 C 0.08918 -0.03833 1.01158
 C2273 C 0.10534 -0.03554 0.99537
 C2274 C 0.12534 -0.04834 0.99557
 H2275 H 0.16991 -0.13382 0.99735
 H2276 H 0.20449 -0.15641 0.99306
 H2277 H 0.24403 -0.09844 1.01285
 H2278 H 0.20955 -0.07625 1.01665
 H2279 H 0.11721 -0.07898 1.04131
 H2280 H 0.08189 -0.05658 1.04103
 H2281 H 0.10232 -0.02377 0.98218
 H2282 H 0.13723 -0.04614 0.98267
 C2283 C 0.68865 0.39358 0.50586
 C2284 C 0.68722 0.37075 0.49987
 C2285 C 0.70687 0.35776 0.49708
 C2286 C 0.72858 0.36739 0.49962
 C2287 C 0.72963 0.39027 0.50649
 C2288 C 0.70993 0.40322 0.50927
 C2289 C 0.66830 0.40708 0.50844
 C2290 C 0.65126 0.41843 0.51012
 C2291 C 0.63087 0.43212 0.51127
 C2292 C 0.61469 0.42801 0.52705
 C2293 C 0.59436 0.44049 0.52712
 C2294 C 0.58987 0.45722 0.51130
 C2295 C 0.60654 0.46157 0.49588
 C2296 C 0.62679 0.44916 0.49589
 H2297 H 0.67088 0.36290 0.49745
 H2298 H 0.70516 0.34000 0.49290
 H2299 H 0.74559 0.39821 0.51030
 H2300 H 0.71132 0.42076 0.51432
 H2301 H 0.61757 0.41485 0.53905
 H2302 H 0.58189 0.43655 0.53912
 H2303 H 0.60377 0.47430 0.48347
 H2304 H 0.63911 0.45257 0.48360
 C2305 C -0.18636 0.38908 0.49137
 C2306 C -0.20534 0.39482 0.47877
 C2307 C -0.22567 0.38310 0.48129
 C2308 C -0.22780 0.36571 0.49692
 C2309 C -0.20815 0.35959 0.50892
 C2310 C -0.18785 0.37135 0.50635
 C2311 C -0.16538 0.40137 0.48908
 C2312 C -0.14781 0.41170 0.48785
 C2313 C -0.12681 0.42422 0.48754
 C2314 C -0.11122 0.42140 0.47096
 C2315 C -0.09040 0.43277 0.47166
 C2316 C -0.08486 0.44703 0.48904
 C2317 C -0.10092 0.45009 0.50530
 C2318 C -0.12162 0.43883 0.50453
 H2319 H -0.20442 0.40829 0.46688
 H2320 H -0.23989 0.38761 0.47095
 H2321 H -0.20808 0.34536 0.51997
 H2322 H -0.17319 0.36640 0.51595
 H2323 H -0.11498 0.41012 0.45771
 H2324 H -0.07843 0.42990 0.45895
 H2325 H -0.09737 0.46097 0.51890
 H2326 H -0.13346 0.44123 0.51746
 C2327 C 0.31148 -0.10480 -0.00722
 C2328 C 0.29232 -0.09994 -0.01987
 C2329 C 0.27251 -0.11245 -0.01730
 C2330 C 0.27103 -0.12982 -0.00155
 C2331 C 0.29088 -0.13511 0.01047
 C2332 C 0.31071 -0.12253 0.00785
 C2333 C 0.33183 -0.09148 -0.00958
 C2334 C 0.34874 -0.08012 -0.01105
 C2335 C 0.36889 -0.06628 -0.01177
 C2336 C 0.37337 -0.05114 0.00498
 C2337 C 0.39336 -0.03861 0.00536
 C2338 C 0.40937 -0.04092 -0.01105
 C2339 C 0.40445 -0.05564 -0.02824
 C2340 C 0.38436 -0.06828 -0.02855
 H2341 H 0.29269 -0.08649 -0.03182
 H2342 H 0.25812 -0.10851 -0.02764
 H2343 H 0.29141 -0.14924 0.02165
 H2344 H 0.32554 -0.12680 0.01750
 H2345 H 0.36160 -0.04933 0.01803
 H2346 H 0.39646 -0.02743 0.01883
 H2347 H 0.41644 -0.05798 -0.04103
 H2348 H 0.38113 -0.07993 -0.04164
 C2349 C 0.31120 1.10157 0.50981
 C2350 C 0.31022 1.11882 0.49424
 C2351 C 0.29040 1.13162 0.49104
 C2352 C 0.27077 1.12699 0.50295
 C2353 C 0.27254 1.11032 0.51938
 C2354 C 0.29236 1.09755 0.52254
 C2355 C 0.33140 1.08779 0.51244
 C2356 C 0.34824 1.07609 0.51402
 C2357 C 0.36835 1.06198 0.51485
 C2358 C 0.38450 1.06432 0.53138
 C2359 C 0.40467 1.05162 0.53108
 C2360 C 0.40898 1.03649 0.51413
 C2361 C 0.39229 1.03380 0.49799
 C2362 C 0.37220 1.04642 0.49837
 H2363 H 0.32485 1.12244 0.48458
 H2364 H 0.29075 1.14532 0.47941
 H2365 H 0.25832 1.10697 0.52965
 H2366 H 0.29295 1.08450 0.53488
 H2367 H 0.38176 1.07633 0.54423
 H2368 H 0.41720 1.05425 0.54367
 H2369 H 0.39494 1.02231 0.48472
 H2370 H 0.35987 1.04440 0.48550
 C2371 C -0.18821 0.60966 1.00427
 C2372 C -0.19088 0.62757 1.01865
 C2373 C -0.21081 0.64045 1.01857
 C2374 C -0.22914 0.63525 1.00455
 C2375 C -0.22542 0.61816 0.98907
 C2376 C -0.20539 0.60524 0.98920
 C2377 C -0.16761 0.59626 1.00488
 C2378 C -0.15019 0.58535 1.00563
 C2379 C -0.12920 0.57258 1.00633
 C2380 C -0.11457 0.57388 1.02421
 C2381 C -0.09370 0.56239 1.02429
 C2382 C -0.08712 0.54948 1.00642
 C2383 C -0.10221 0.54793 0.98875
 C2384 C -0.12301 0.55936 0.98873
 H2385 H -0.17742 0.63173 1.02992
 H2386 H -0.21143 0.65470 1.02941
 H2387 H -0.23831 0.61450 0.97709
 H2388 H -0.20334 0.59182 0.97754
 H2389 H -0.11912 0.58407 1.03794
 H2390 H -0.08250 0.56409 1.03810
 H2391 H -0.09781 0.53816 0.97470
 H2392 H -0.13413 0.55818 0.97480
 C2393 C 0.01671 0.68187 0.58172
 C2394 C 0.03508 0.69222 0.59184
 C2395 C 0.03164 0.71129 0.60459
 C2396 C 0.00956 0.71976 0.60803
 C2397 C -0.00848 0.70999 0.59634
 C2398 C -0.00498 0.69099 0.58360
 C2399 C 0.01967 0.66109 0.57042
 C2400 C 0.02093 0.64312 0.56156
 C2401 C 0.02079 0.62133 0.55168
 C2402 C 0.03147 0.60290 0.56194
 C2403 C 0.02881 0.58106 0.55376
 C2404 C 0.01529 0.57752 0.53532
 C2405 C 0.00515 0.59632 0.52483
 C2406 C 0.00787 0.61810 0.53303
 H2407 H 0.05202 0.68544 0.59005
 H2408 H 0.04636 0.71930 0.61157
 H2409 H -0.02546 0.71681 0.59754
 H2410 H -0.01926 0.68318 0.57550
 H2411 H 0.04132 0.60533 0.57655
 H2412 H 0.03697 0.56696 0.56211
 H2413 H -0.00524 0.59420 0.51053
 H2414 H -0.00063 0.63232 0.52517
 C2415 C 0.50622 0.19193 0.09032
 C2416 C 0.52044 0.19803 0.10736
 C2417 C 0.51646 0.21815 0.11845
 C2418 C 0.49848 0.23286 0.11221
 C2419 C 0.48376 0.22575 0.09554
 C2420 C 0.48781 0.20568 0.08451
 C2421 C 0.50943 0.17083 0.07958
 C2422 C 0.51098 0.15302 0.07046
 C2423 C 0.51132 0.13177 0.05955
 C2424 C 0.52199 0.11288 0.06900
 C2425 C 0.52028 0.09166 0.05927
 C2426 C 0.50774 0.08920 0.04004
 C2427 C 0.49757 0.10848 0.03044
 C2428 C 0.49934 0.12964 0.04018
 H2429 H 0.53431 0.18700 0.11238
 H2430 H 0.52715 0.22167 0.13223
 H2431 H 0.46904 0.23584 0.09108
 H2432 H 0.47636 0.20070 0.07166
 H2433 H 0.53117 0.11446 0.08411
 H2434 H 0.52837 0.07716 0.06703
 H2435 H 0.48790 0.10720 0.01559
 H2436 H 0.49093 0.14423 0.03288
 C2437 C -0.01247 0.19650 0.91571
 C2438 C 0.00279 0.19478 0.89894
 C2439 C 0.00910 0.21410 0.88765
 C2440 C 0.00078 0.23575 0.89341
 C2441 C -0.01567 0.23692 0.90963
 C2442 C -0.02192 0.21750 0.92096
 C2443 C -0.01753 0.17653 0.92774
 C2444 C -0.01996 0.15900 0.93727
 C2445 C -0.02053 0.13748 0.94788
 C2446 C -0.00852 0.13449 0.96718
 C2447 C -0.00535 0.11274 0.97568
 C2448 C -0.01411 0.09374 0.96486
 C2449 C -0.02698 0.09704 0.94589
 C2450 C -0.03007 0.11884 0.93741
 H2451 H 0.00982 0.17842 0.89453
 H2452 H 0.02021 0.21185 0.87419
 H2453 H -0.02359 0.25298 0.91358
 H2454 H -0.03404 0.21885 0.93377
 H2455 H -0.00082 0.14886 0.97519
 H2456 H 0.00446 0.11081 0.99041
 H2457 H -0.03409 0.08278 0.93727
 H2458 H -0.03913 0.12106 0.92227
 C2459 C 0.48656 0.69546 0.42708
 C2460 C 0.50809 0.70349 0.42257
 C2461 C 0.51088 0.71958 0.40637
 C2462 C 0.49224 0.72735 0.39388
 C2463 C 0.47043 0.72002 0.39968
 C2464 C 0.46771 0.70391 0.41588
 C2465 C 0.48417 0.67674 0.44147
 C2466 C 0.48283 0.65983 0.45213
 C2467 C 0.48226 0.63837 0.46282
 C2468 C 0.49819 0.63324 0.47894
 C2469 C 0.50072 0.61090 0.48621
 C2470 C 0.48750 0.59354 0.47715
 C2471 C 0.47077 0.59913 0.46172
 C2472 C 0.46820 0.62146 0.45458
 H2473 H 0.52278 0.69702 0.43129
 H2474 H 0.52771 0.72580 0.40334
 H2475 H 0.45533 0.72680 0.39197
 H2476 H 0.45094 0.69785 0.41949
 H2477 H 0.50933 0.64626 0.48515
 H2478 H 0.51368 0.60709 0.49819
 H2479 H 0.46012 0.58616 0.45468
 H2480 H 0.45600 0.62534 0.44190
 C2481 C 0.50962 0.80351 0.41867
 C2482 C 0.48776 0.79499 0.41670
 C2483 C 0.48350 0.77673 0.40320
 C2484 C 0.50092 0.76711 0.39087
 C2485 C 0.52317 0.77517 0.39411
 C2486 C 0.52737 0.79348 0.40762
 C2487 C 0.51339 0.82338 0.43112
 C2488 C 0.51539 0.84071 0.44091
 C2489 C 0.51610 0.86198 0.45166
 C2490 C 0.50368 0.86494 0.47035
 C2491 C 0.50120 0.88656 0.47899
 C2492 C 0.51103 0.90544 0.46889
 C2493 C 0.52425 0.90210 0.45056
 C2494 C 0.52669 0.88044 0.44196
 H2495 H 0.47397 0.80260 0.42546
 H2496 H 0.46647 0.77019 0.40214
 H2497 H 0.53752 0.76727 0.38653
 H2498 H 0.54442 0.79984 0.40941
 H2499 H 0.49524 0.85068 0.47777
 H2500 H 0.49104 0.88853 0.49320
 H2501 H 0.53219 0.91626 0.44252
 H2502 H 0.53614 0.87821 0.42732
 C2503 C 0.02158 0.31728 0.91753
 C2504 C 0.02273 0.29600 0.92750
 C2505 C 0.01772 0.27652 0.91576
 C2506 C 0.01065 0.27817 0.89400
 C2507 C 0.01095 0.29977 0.88401
 C2508 C 0.01600 0.31914 0.89575
 C2509 C 0.02466 0.33750 0.92972
 C2510 C 0.02585 0.35508 0.93927
 C2511 C 0.02545 0.37655 0.94977
 C2512 C 0.01201 0.37941 0.96781
 C2513 C 0.00864 0.40105 0.97617
 C2514 C 0.01862 0.42007 0.96645
 C2515 C 0.03278 0.41687 0.94874
 C2516 C 0.03610 0.39518 0.94040
 H2517 H 0.02741 0.29448 0.94435
 H2518 H 0.01967 0.26025 0.92376
 H2519 H 0.00699 0.30164 0.86705
 H2520 H 0.01533 0.33562 0.88787
 H2521 H 0.00351 0.36504 0.97496
 H2522 H -0.00224 0.40291 0.98991
 H2523 H 0.04085 0.43113 0.94099
 H2524 H 0.04633 0.39305 0.92625
 C2525 C 0.48098 0.31472 0.08539
 C2526 C 0.47431 0.31432 0.10678
 C2527 C 0.47783 0.29481 0.11915
 C2528 C 0.48748 0.27506 0.11017
 C2529 C 0.49486 0.27617 0.08869
 C2530 C 0.49132 0.29573 0.07636
 C2531 C 0.47925 0.33537 0.07337
 C2532 C 0.47877 0.35308 0.06378
 C2533 C 0.47942 0.37454 0.05307
 C2534 C 0.46736 0.39296 0.06126
 C2535 C 0.47006 0.41454 0.05237
 C2536 C 0.48496 0.41786 0.03525
 C2537 C 0.49652 0.39904 0.02675
 C2538 C 0.49378 0.37749 0.03568
 H2539 H 0.46691 0.32926 0.11405
 H2540 H 0.47312 0.29511 0.13589
 H2541 H 0.50405 0.26232 0.08145
 H2542 H 0.49727 0.29629 0.05999
 H2543 H 0.45634 0.39076 0.07485
 H2544 H 0.46079 0.42864 0.05918
 H2545 H 0.50804 0.40100 0.01352
 H2546 H 0.50330 0.36326 0.02940
 C2547 C -0.00862 0.79447 0.57510
 C2548 C -0.02659 0.78520 0.58632
 C2549 C -0.02265 0.76753 0.60092
 C2550 C -0.00042 0.75954 0.60516
 C2551 C 0.01708 0.76769 0.59211
 C2552 C 0.01309 0.78530 0.57750
 C2553 C -0.01175 0.81500 0.56311
 C2554 C -0.01319 0.83307 0.55422
 C2555 C -0.01328 0.85525 0.54487
 C2556 C -0.02339 0.87329 0.55575
 C2557 C -0.02058 0.89552 0.54842
 C2558 C -0.00749 0.89984 0.53019
 C2559 C 0.00202 0.88144 0.51902
 C2560 C -0.00083 0.85927 0.52639
 H2561 H -0.04355 0.79200 0.58421
 H2562 H -0.03708 0.76045 0.60896
 H2563 H 0.03411 0.76101 0.59393
 H2564 H 0.02707 0.79230 0.56864
 H2565 H -0.03284 0.87025 0.57025
 H2566 H -0.02827 0.90928 0.55725
 H2567 H 0.01208 0.88415 0.50486
 H2568 H 0.00728 0.84536 0.51807
 C2569 C 0.25166 0.31697 0.05931
 C2570 C 0.24762 0.30668 0.03943
 C2571 C 0.24599 0.31994 0.02066
 C2572 C 0.24929 0.34375 0.02135
 C2573 C 0.25116 0.35389 0.04184
 C2574 C 0.25273 0.34065 0.06049
 C2575 C 0.25516 0.30362 0.07862
 C2576 C 0.25845 0.29383 0.09552
 C2577 C 0.26227 0.28416 0.11665
 C2578 C 0.25932 0.26090 0.12079
 C2579 C 0.26061 0.25257 0.14199
 C2580 C 0.26459 0.26752 0.15917
 C2581 C 0.26869 0.29057 0.15464
 C2582 C 0.26759 0.29877 0.13359
 H2583 H 0.24597 0.28839 0.03838
 H2584 H 0.24232 0.31129 0.00578
 H2585 H 0.25265 0.37216 0.04325
 H2586 H 0.25531 0.34892 0.07584
 H2587 H 0.25519 0.24941 0.10780
 H2588 H 0.25712 0.23480 0.14506
 H2589 H 0.27184 0.30248 0.16754
 H2590 H 0.26999 0.31676 0.13063
 C2591 C 0.76271 0.81620 0.56202
 C2592 C 0.74718 0.83424 0.56198
 C2593 C 0.74278 0.84673 0.54318
 C2594 C 0.75344 0.84107 0.52373
 C2595 C 0.76950 0.82313 0.52427
 C2596 C 0.77387 0.81069 0.54311
 C2597 C 0.76815 0.80449 0.58187
 C2598 C 0.77243 0.79582 0.59909
 C2599 C 0.77688 0.78726 0.62051
 C2600 C 0.78223 0.80277 0.63670
 C2601 C 0.78330 0.79571 0.65810
 C2602 C 0.77911 0.77295 0.66371
 C2603 C 0.77518 0.75707 0.64731
 C2604 C 0.77391 0.76425 0.62575
 H2605 H 0.73887 0.83907 0.57668
 H2606 H 0.73158 0.86127 0.54419
 H2607 H 0.77896 0.81892 0.51006
 H2608 H 0.78631 0.79709 0.54302
 H2609 H 0.78457 0.82059 0.63288
 H2610 H 0.78644 0.80829 0.67041
 H2611 H 0.77167 0.73950 0.65123
 H2612 H 0.76968 0.75210 0.61335
 C2613 C 0.23865 0.68126 0.56025
 C2614 C 0.22566 0.68573 0.54173
 C2615 C 0.22908 0.67308 0.52302
 C2616 C 0.24598 0.65597 0.52213
 C2617 C 0.25847 0.65131 0.54123
 C2618 C 0.25502 0.66399 0.55989
 C2619 C 0.23456 0.69336 0.58006
 C2620 C 0.23161 0.70244 0.59723
 C2621 C 0.22888 0.71168 0.61858
 C2622 C 0.23066 0.73509 0.62257
 C2623 C 0.23074 0.74323 0.64380
 C2624 C 0.22933 0.72797 0.66122
 C2625 C 0.22642 0.70470 0.65691
 C2626 C 0.22616 0.69667 0.63583
 H2627 H 0.21258 0.69871 0.54185
 H2628 H 0.21830 0.67649 0.50915
 H2629 H 0.27047 0.63740 0.54217
 H2630 H 0.26482 0.65992 0.57426
 H2631 H 0.23284 0.74692 0.60938
 H2632 H 0.23325 0.76119 0.64662
 H2633 H 0.22522 0.69250 0.66994
 H2634 H 0.22475 0.67857 0.63306
 C2635 C 0.73575 0.18324 0.05806
 C2636 C 0.73160 0.19317 0.03794
 C2637 C 0.73587 0.18097 0.01918
 C2638 C 0.74502 0.15865 0.02007
 C2639 C 0.74853 0.14876 0.04060
 C2640 C 0.74423 0.16100 0.05932
 C2641 C 0.73052 0.19539 0.07748
 C2642 C 0.72633 0.20471 0.09423
 C2643 C 0.72192 0.21437 0.11504
 C2644 C 0.72603 0.23739 0.11931
 C2645 C 0.72493 0.24555 0.14045
 C2646 C 0.72000 0.23064 0.15745
 C2647 C 0.71455 0.20795 0.15275
 C2648 C 0.71547 0.19992 0.13173
 H2649 H 0.72454 0.21018 0.03672
 H2650 H 0.73122 0.18891 0.00403
 H2651 H 0.75428 0.13130 0.04213
 H2652 H 0.74713 0.15293 0.07482
 H2653 H 0.73110 0.24874 0.10652
 H2654 H 0.72948 0.26301 0.14367
 H2655 H 0.71070 0.19608 0.16554
 H2656 H 0.71224 0.18211 0.12868
 C2657 C 0.75649 0.18327 0.94064
 C2658 C 0.76849 0.18854 0.95942
 C2659 C 0.76494 0.17613 0.97828
 C2660 C 0.74885 0.15846 0.97902
 C2661 C 0.73734 0.15298 0.95970
 C2662 C 0.74094 0.16544 0.94084
 C2663 C 0.76109 0.19508 0.92079
 C2664 C 0.76485 0.20399 0.90368
 C2665 C 0.76891 0.21292 0.88244
 C2666 C 0.76537 0.23598 0.87739
 C2667 C 0.76654 0.24353 0.85596
 C2668 C 0.77097 0.22795 0.83947
 C2669 C 0.77570 0.20516 0.84492
 C2670 C 0.77472 0.19774 0.86620
 H2671 H 0.78094 0.20195 0.95940
 H2672 H 0.77498 0.18021 0.99240
 H2673 H 0.72604 0.13866 0.95884
 H2674 H 0.73197 0.16079 0.92623
 H2675 H 0.76081 0.24789 0.88983
 H2676 H 0.76259 0.26111 0.85214
 H2677 H 0.77919 0.19280 0.83254
 H2678 H 0.77754 0.17990 0.86985
 C2679 C 0.25576 0.67776 0.44103
 C2680 C 0.25892 0.68916 0.46051
 C2681 C 0.25574 0.67779 0.48011
 C2682 C 0.24877 0.65480 0.48068
 C2683 C 0.24623 0.64353 0.46080
 C2684 C 0.24939 0.65492 0.44130
 C2685 C 0.25961 0.68901 0.42067
 C2686 C 0.26251 0.69727 0.40306
 C2687 C 0.26531 0.70550 0.38130
 C2688 C 0.26549 0.72883 0.37641
 C2689 C 0.26585 0.73625 0.35489
 C2690 C 0.26579 0.72037 0.33805
 C2691 C 0.26664 0.69704 0.34325
 C2692 C 0.26642 0.68972 0.36462
 H2693 H 0.26430 0.70672 0.46059
 H2694 H 0.25955 0.68693 0.49471
 H2695 H 0.24205 0.62565 0.46038
 H2696 H 0.24722 0.64573 0.42638
 H2697 H 0.26461 0.74125 0.38916
 H2698 H 0.26499 0.75429 0.35142
 H2699 H 0.26671 0.68435 0.33071
 H2700 H 0.26635 0.67165 0.36811
 C2701 C 0.73887 0.81822 0.44395
 C2702 C 0.74680 0.84054 0.44333
 C2703 C 0.75119 0.85225 0.46237
 C2704 C 0.74839 0.84172 0.48260
 C2705 C 0.73972 0.81934 0.48288
 C2706 C 0.73531 0.80765 0.46376
 C2707 C 0.73375 0.80674 0.42409
 C2708 C 0.72981 0.79839 0.40678
 C2709 C 0.72585 0.79036 0.38523
 C2710 C 0.72172 0.80636 0.36894
 C2711 C 0.72105 0.79964 0.34751
 C2712 C 0.72442 0.77673 0.34198
 C2713 C 0.72719 0.76044 0.35845
 C2714 C 0.72807 0.76728 0.38003
 H2715 H 0.74923 0.84907 0.42807
 H2716 H 0.75657 0.86976 0.46132
 H2717 H 0.73562 0.81095 0.49781
 H2718 H 0.72868 0.79055 0.46445
 H2719 H 0.71998 0.82424 0.37273
 H2720 H 0.71876 0.81254 0.33517
 H2721 H 0.73002 0.74273 0.35460
 H2722 H 0.73136 0.75475 0.39253
 C2723 C 0.25060 0.32021 0.94109
 C2724 C 0.23569 0.33849 0.94342
 C2725 C 0.23593 0.35135 0.96219
 C2726 C 0.25058 0.34575 0.97966
 C2727 C 0.26680 0.32838 0.97627
 C2728 C 0.26653 0.31546 0.95738
 C2729 C 0.24996 0.30747 0.92132
 C2730 C 0.24871 0.29838 0.90398
 C2731 C 0.24694 0.28989 0.88229
 C2732 C 0.24641 0.30564 0.86543
 C2733 C 0.24569 0.29832 0.84420
 C2734 C 0.24546 0.27498 0.83928
 C2735 C 0.24514 0.25911 0.85628
 C2736 C 0.24596 0.26655 0.87774
 H2737 H 0.22392 0.34300 0.93056
 H2738 H 0.22465 0.36584 0.96261
 H2739 H 0.27935 0.32442 0.98859
 H2740 H 0.27874 0.30185 0.95548
 H2741 H 0.24694 0.32371 0.86869
 H2742 H 0.24572 0.31105 0.83155
 H2743 H 0.24507 0.24105 0.85300
 H2744 H 0.24623 0.25417 0.89068
 C2745 C 0.85904 0.43466 0.75205
 C2746 C 0.85414 0.45152 0.73667
 C2747 C 0.86728 0.47124 0.73568
 C2748 C 0.88505 0.47503 0.75064
 C2749 C 0.89079 0.45689 0.76484
 C2750 C 0.87770 0.43724 0.76578
 C2751 C 0.84522 0.41455 0.75372
 C2752 C 0.83382 0.39764 0.75523
 C2753 C 0.82027 0.37732 0.75656
 C2754 C 0.80490 0.37238 0.74000
 C2755 C 0.79267 0.35216 0.74037
 C2756 C 0.79555 0.33638 0.75735
 C2757 C 0.81055 0.34176 0.77431
 C2758 C 0.82286 0.36208 0.77387
 H2759 H 0.84011 0.44948 0.72549
 H2760 H 0.86316 0.48395 0.72355
 H2761 H 0.90551 0.45751 0.77527
 H2762 H 0.88221 0.42398 0.77725
 H2763 H 0.80266 0.38399 0.72655
 H2764 H 0.78124 0.34870 0.72705
 H2765 H 0.81330 0.32998 0.78754
 H2766 H 0.83472 0.36568 0.78681
 C2767 C 0.35275 0.93109 0.25780
 C2768 C 0.34834 0.95030 0.27019
 C2769 C 0.36092 0.97010 0.26737
 C2770 C 0.37786 0.97149 0.25161
 C2771 C 0.38277 0.95155 0.23992
 C2772 C 0.37013 0.93172 0.24279
 C2773 C 0.33921 0.91089 0.26028
 C2774 C 0.32756 0.89417 0.26192
 C2775 C 0.31328 0.87435 0.26296
 C2776 C 0.31696 0.85739 0.27858
 C2777 C 0.30383 0.83760 0.27846
 C2778 C 0.28691 0.83448 0.26261
 C2779 C 0.28295 0.85198 0.24744
 C2780 C 0.29599 0.87169 0.24764
 H2781 H 0.33515 0.95000 0.28208
 H2782 H 0.35729 0.98457 0.27745
 H2783 H 0.39661 0.95092 0.22881
 H2784 H 0.37403 0.91682 0.23336
 H2785 H 0.33029 0.85922 0.29054
 H2786 H 0.30747 0.82442 0.29025
 H2787 H 0.27007 0.85025 0.23502
 H2788 H 0.29290 0.88466 0.23550
 C2789 C 0.14825 0.94198 0.74323
 C2790 C 0.12559 0.94093 0.74920
 C2791 C 0.11308 0.96093 0.75229
 C2792 C 0.12305 0.98260 0.75010
 C2793 C 0.14579 0.98324 0.74335
 C2794 C 0.15825 0.96321 0.74027
 C2795 C 0.16129 0.92133 0.74020
 C2796 C 0.17246 0.90416 0.73816
 C2797 C 0.18618 0.88374 0.73673
 C2798 C 0.18147 0.86696 0.72139
 C2799 C 0.19409 0.84662 0.72121
 C2800 C 0.21151 0.84276 0.73649
 C2801 C 0.21647 0.86006 0.75138
 C2802 C 0.20395 0.88029 0.75147
 H2803 H 0.11748 0.92463 0.75128
 H2804 H 0.09540 0.95950 0.75629
 H2805 H 0.15398 0.99915 0.73978
 H2806 H 0.17567 0.96432 0.73527
 H2807 H 0.16776 0.86938 0.70987
 H2808 H 0.18969 0.83364 0.70965
 H2809 H 0.22977 0.85778 0.76336
 H2810 H 0.20785 0.89308 0.76340
 C2811 C 0.64225 0.44274 0.24249
 C2812 C 0.61979 0.44146 0.24908
 C2813 C 0.60715 0.46134 0.25233
 C2814 C 0.61682 0.48307 0.24968
 C2815 C 0.63930 0.48393 0.24224
 C2816 C 0.65189 0.46405 0.23900
 C2817 C 0.65546 0.42228 0.23932
 C2818 C 0.66676 0.40525 0.23712
 C2819 C 0.68053 0.38494 0.23540
 C2820 C 0.67620 0.36879 0.21940
 C2821 C 0.68868 0.34841 0.21892
 C2822 C 0.70559 0.34389 0.23456
 C2823 C 0.71026 0.36060 0.25011
 C2824 C 0.69786 0.38090 0.25049
 H2825 H 0.61197 0.42508 0.25156
 H2826 H 0.58964 0.45977 0.25686
 H2827 H 0.64718 0.49990 0.23828
 H2828 H 0.66911 0.46531 0.23349
 H2829 H 0.66282 0.37169 0.20761
 H2830 H 0.68449 0.33587 0.20686
 H2831 H 0.72315 0.35776 0.26238
 H2832 H 0.70144 0.39323 0.26293
 C2833 C 0.64077 0.56748 0.25844
 C2834 C 0.64584 0.54833 0.27104
 C2835 C 0.63341 0.52836 0.26847
 C2836 C 0.61596 0.52677 0.25277
 C2837 C 0.61046 0.54665 0.24084
 C2838 C 0.62294 0.56661 0.24346
 C2839 C 0.65388 0.58799 0.26078
 C2840 C 0.66496 0.60514 0.26224
 C2841 C 0.67829 0.62563 0.26305
 C2842 C 0.69315 0.63038 0.24637
 C2843 C 0.70514 0.65076 0.24613
 C2844 C 0.70251 0.66685 0.26261
 C2845 C 0.68802 0.66167 0.27969
 C2846 C 0.67595 0.64121 0.27986
 H2847 H 0.65938 0.54882 0.28293
 H2848 H 0.63749 0.51395 0.27874
 H2849 H 0.59623 0.54714 0.22977
 H2850 H 0.61852 0.58147 0.23389
 H2851 H 0.69516 0.61850 0.23328
 H2852 H 0.71615 0.65409 0.23275
 H2853 H 0.68546 0.67371 0.29254
 H2854 H 0.66448 0.63776 0.29286
 C2855 C 0.14769 0.06672 0.75988
 C2856 C 0.15201 0.04746 0.77261
 C2857 C 0.13933 0.02768 0.76964
 C2858 C 0.12240 0.02635 0.75342
 C2859 C 0.11756 0.04634 0.74142
 C2860 C 0.13028 0.06612 0.74442
 C2861 C 0.16132 0.08692 0.76240
 C2862 C 0.17296 0.10372 0.76387
 C2863 C 0.18715 0.12370 0.76446
 C2864 C 0.18518 0.13998 0.78075
 C2865 C 0.19813 0.15993 0.78018
 C2866 C 0.21311 0.16390 0.76320
 C2867 C 0.21538 0.14708 0.74732
 C2868 C 0.20256 0.12723 0.74797
 H2869 H 0.16521 0.04770 0.78485
 H2870 H 0.14288 0.01319 0.77998
 H2871 H 0.10373 0.04701 0.72990
 H2872 H 0.12643 0.08104 0.73472
 H2873 H 0.17332 0.13749 0.79362
 H2874 H 0.19582 0.17256 0.79256
 H2875 H 0.22677 0.14944 0.73404
 H2876 H 0.20434 0.11483 0.73529
 C2877 C 0.35046 0.05509 0.24016
 C2878 C 0.37318 0.05666 0.24645
 C2879 C 0.38623 0.03694 0.24973
 C2880 C 0.37671 0.01508 0.24747
 C2881 C 0.35399 0.01394 0.24011
 C2882 C 0.34100 0.03367 0.23684
 C2883 C 0.33672 0.07535 0.23735
 C2884 C 0.32496 0.09218 0.23554
 C2885 C 0.31065 0.11220 0.23436
 C2886 C 0.31375 0.12887 0.21849
 C2887 C 0.30077 0.14895 0.21852
 C2888 C 0.28459 0.15265 0.23452
 C2889 C 0.28115 0.13543 0.24994
 C2890 C 0.29404 0.11544 0.24983
 H2891 H 0.38087 0.07314 0.24878
 H2892 H 0.40388 0.03873 0.25415
 H2893 H 0.34615 -0.00212 0.23637
 H2894 H 0.32356 0.03219 0.23154
 H2895 H 0.32656 0.12661 0.20642
 H2896 H 0.30401 0.16189 0.20654
 H2897 H 0.26885 0.13763 0.26248
 H2898 H 0.29141 0.10270 0.26217
 C2899 C 0.85835 0.56027 0.74891
 C2900 C 0.88176 0.56080 0.74647
 C2901 C 0.89445 0.54069 0.74751
 C2902 C 0.88400 0.51933 0.75028
 C2903 C 0.86055 0.51935 0.75442
 C2904 C 0.84786 0.53956 0.75338
 C2905 C 0.84525 0.58104 0.74705
 C2906 C 0.83452 0.59858 0.74562
 C2907 C 0.82188 0.61968 0.74454
 C2908 C 0.82491 0.63516 0.72761
 C2909 C 0.81362 0.65623 0.72751
 C2910 C 0.79923 0.66214 0.74444
 C2911 C 0.79590 0.64617 0.76105
 C2912 C 0.80711 0.62518 0.76108
 H2913 H 0.89023 0.57677 0.74353
 H2914 H 0.91254 0.54167 0.74532
 H2915 H 0.85179 0.50395 0.75859
 H2916 H 0.82982 0.53900 0.75604
 H2917 H 0.83634 0.63113 0.71471
 H2918 H 0.81670 0.66814 0.71456
 H2919 H 0.78491 0.65003 0.77433
 H2920 H 0.80458 0.61340 0.77426
 C2921 C 0.93539 0.76898 0.17425
 C2922 C 0.94615 0.78718 0.16439
 C2923 C 0.96458 0.78317 0.15126
 C2924 C 0.97199 0.76071 0.14714
 C2925 C 0.96181 0.74277 0.15851
 C2926 C 0.94344 0.74684 0.17165
 C2927 C 0.91518 0.77262 0.18591
 C2928 C 0.89758 0.77445 0.19497
 C2929 C 0.87605 0.77487 0.20489
 C2930 C 0.85776 0.78547 0.19440
 C2931 C 0.83603 0.78282 0.20230
 C2932 C 0.83247 0.76938 0.22068
 C2933 C 0.85115 0.75949 0.23152
 C2934 C 0.87283 0.76220 0.22360
 H2935 H 0.94019 0.80444 0.16672
 H2936 H 0.97296 0.79779 0.14457
 H2937 H 0.96786 0.72546 0.15681
 H2938 H 0.93529 0.73267 0.17951
 H2939 H 0.86020 0.79511 0.17974
 H2940 H 0.82202 0.79080 0.19370
 H2941 H 0.84901 0.74919 0.24581
 H2942 H 0.88695 0.75375 0.23162
 C2943 C 0.44818 0.26636 0.66824
 C2944 C 0.45755 0.24456 0.66800
 C2945 C 0.47488 0.23953 0.65396
 C2946 C 0.48272 0.25606 0.63940
 C2947 C 0.47444 0.27857 0.64131
 C2948 C 0.45694 0.28353 0.65533
 C2949 C 0.42799 0.27002 0.67995
 C2950 C 0.41027 0.27114 0.68892
 C2951 C 0.38865 0.27017 0.69864
 C2952 C 0.38576 0.25617 0.71656
 C2953 C 0.36416 0.25216 0.72417
 C2954 C 0.34519 0.26207 0.71383
 C2955 C 0.34836 0.27660 0.69611
 C2956 C 0.37002 0.28054 0.68851
 H2957 H 0.45092 0.23121 0.67814
 H2958 H 0.48166 0.22238 0.65384
 H2959 H 0.48120 0.29243 0.63199
 H2960 H 0.44992 0.30058 0.65574
 H2961 H 0.40014 0.24779 0.72424
 H2962 H 0.36233 0.24102 0.73795
 H2963 H 0.33412 0.28466 0.68792
 H2964 H 0.37218 0.29113 0.67439
 C2965 C 0.45399 0.74197 0.81629
 C2966 C 0.46269 0.76382 0.81857
 C2967 C 0.47973 0.76785 0.83369
 C2968 C 0.48770 0.75025 0.84739
 C2969 C 0.48028 0.72788 0.84324
 C2970 C 0.46321 0.72389 0.82813
 C2971 C 0.43364 0.73884 0.80418
 C2972 C 0.41553 0.73725 0.79550
 C2973 C 0.39311 0.73685 0.78684
 C2974 C 0.38757 0.75028 0.76895
 C2975 C 0.36504 0.75299 0.76264
 C2976 C 0.34781 0.74240 0.77433
 C2977 C 0.35366 0.72827 0.79187
 C2978 C 0.37624 0.72558 0.79811
 H2979 H 0.45571 0.77790 0.80928
 H2980 H 0.48605 0.78499 0.83540
 H2981 H 0.48732 0.71335 0.85175
 H2982 H 0.45674 0.70683 0.82616
 H2983 H 0.40057 0.75930 0.76035
 H2984 H 0.36111 0.76388 0.74898
 H2985 H 0.34082 0.71970 0.80104
 H2986 H 0.38046 0.71537 0.81217
 C2987 C 0.93979 0.23197 0.32170
 C2988 C 0.94946 0.21300 0.33183
 C2989 C 0.96750 0.21571 0.34618
 C2990 C 0.97561 0.23764 0.35123
 C2991 C 0.96651 0.25637 0.33966
 C2992 C 0.94853 0.25359 0.32531
 C2993 C 0.91974 0.22968 0.30896
 C2994 C 0.90214 0.22880 0.29930
 C2995 C 0.88041 0.22923 0.28914
 C2996 C 0.86254 0.21780 0.29873
 C2997 C 0.84054 0.22128 0.29112
 C2998 C 0.83625 0.23635 0.27389
 C2999 C 0.85449 0.24700 0.26379
 C3000 C 0.87647 0.24352 0.27146
 H3001 H 0.94292 0.19614 0.32880
 H3002 H 0.97507 0.20052 0.35307
 H3003 H 0.97314 0.27328 0.34209
 H3004 H 0.94119 0.26836 0.31731
 H3005 H 0.86552 0.20689 0.31259
 H3006 H 0.82688 0.21262 0.29908
 H3007 H 0.85175 0.25861 0.25042
 H3008 H 0.89026 0.25262 0.26415
 C3009 C 0.04966 0.25558 0.32148
 C3010 C 0.04040 0.27339 0.33319
 C3011 C 0.02302 0.26912 0.34747
 C3012 C 0.01524 0.24672 0.35086
 C3013 C 0.02365 0.22935 0.33755
 C3014 C 0.04099 0.23367 0.32328
 C3015 C 0.06949 0.25917 0.30925
 C3016 C 0.08701 0.26106 0.30007
 C3017 C 0.10868 0.26167 0.29040
 C3018 C 0.12660 0.27220 0.30119
 C3019 C 0.14856 0.26950 0.29383
 C3020 C 0.15275 0.25609 0.27566
 C3021 C 0.13444 0.24636 0.26444
 C3022 C 0.11251 0.24909 0.27185
 H3023 H 0.04686 0.29049 0.33157
 H3024 H 0.01581 0.28350 0.35574
 H3025 H 0.01716 0.21223 0.33870
 H3026 H 0.04801 0.21982 0.31404
 H3027 H 0.12370 0.28177 0.31573
 H3028 H 0.16227 0.27740 0.30268
 H3029 H 0.13706 0.23606 0.25032
 H3030 H 0.09869 0.24067 0.26361
 C3031 C 0.56523 0.76872 0.82646
 C3032 C 0.55652 0.74681 0.82794
 C3033 C 0.53732 0.74287 0.83998
 C3034 C 0.52694 0.76068 0.85140
 C3035 C 0.53501 0.78303 0.84824
 C3036 C 0.55426 0.78690 0.83621
 C3037 C 0.58620 0.77210 0.81601
 C3038 C 0.60431 0.77365 0.80786
 C3039 C 0.62626 0.77366 0.79877
 C3040 C 0.62981 0.76201 0.77964
 C3041 C 0.65167 0.75893 0.77225
 C3042 C 0.67023 0.76742 0.78401
 C3043 C 0.66639 0.77984 0.80287
 C3044 C 0.64445 0.78285 0.81026
 H3045 H 0.56481 0.73268 0.82011
 H3046 H 0.53083 0.72573 0.84090
 H3047 H 0.52656 0.79766 0.85492
 H3048 H 0.56071 0.80402 0.83469
 H3049 H 0.61576 0.75467 0.77082
 H3050 H 0.65402 0.74946 0.75757
 H3051 H 0.68032 0.78670 0.81220
 H3052 H 0.64175 0.79169 0.82524
 C3053 C 0.55892 0.23799 0.66668
 C3054 C 0.54852 0.21934 0.65713
 C3055 C 0.52994 0.22263 0.64345
 C3056 C 0.52200 0.24482 0.63850
 C3057 C 0.53181 0.26323 0.64958
 C3058 C 0.55034 0.25988 0.66325
 C3059 C 0.57930 0.23501 0.67886
 C3060 C 0.59702 0.23349 0.68829
 C3061 C 0.61867 0.23308 0.69859
 C3062 C 0.62247 0.24658 0.71664
 C3063 C 0.64426 0.24874 0.72503
 C3064 C 0.66249 0.23747 0.71535
 C3065 C 0.65834 0.22334 0.69758
 C3066 C 0.63650 0.22123 0.68922
 H3067 H 0.55489 0.20227 0.66011
 H3068 H 0.52188 0.20767 0.63701
 H3069 H 0.52538 0.28036 0.64718
 H3070 H 0.55821 0.27439 0.67086
 H3071 H 0.60871 0.25597 0.72381
 H3072 H 0.64686 0.25963 0.73880
 H3073 H 0.67198 0.21432 0.68986
 H3074 H 0.63362 0.21092 0.67508
 C3075 C 0.04537 0.73786 0.17951
 C3076 C 0.03703 0.76006 0.17814
 C3077 C 0.01973 0.76538 0.16356
 C3078 C 0.01106 0.74872 0.14952
 C3079 C 0.01824 0.72593 0.15267
 C3080 C 0.03560 0.72067 0.16725
 C3081 C 0.06575 0.73353 0.19134
 C3082 C 0.08382 0.73126 0.20000
 C3083 C 0.10613 0.73045 0.20891
 C3084 C 0.11115 0.74301 0.22730
 C3085 C 0.13353 0.74566 0.23391
 C3086 C 0.15115 0.73589 0.22204
 C3087 C 0.14584 0.72258 0.20398
 C3088 C 0.12340 0.71996 0.19742
 H3089 H 0.04445 0.77344 0.18777
 H3090 H 0.01369 0.78278 0.16256
 H3091 H 0.01074 0.71206 0.14386
 H3092 H 0.04181 0.70334 0.16852
 H3093 H 0.09784 0.75145 0.23606
 H3094 H 0.13703 0.75588 0.24797
 H3095 H 0.15899 0.71465 0.19465
 H3096 H 0.11958 0.71047 0.18296
   
