data_POSCAR
  _audit_creation_date              2014-09-24
  _audit_creation_method            'ToBaCCo'
  _symmetry_space_group_name_H-M    'P1'
  _symmetry_Int_Tables_number       1
  _symmetry_cell_setting            triclinic
  loop_
  _symmetry_equiv_pos_as_xyz
 x,y,z
_cell_length_a 99.6313
_cell_length_b 99.6022
_cell_length_c 100.2228
_cell_angle_alpha 89.942800
_cell_angle_beta 89.974500
_cell_angle_gamma 89.964200
loop_
  _atom_site_label
  _atom_site_type_symbol
  _atom_site_fract_x
  _atom_site_fract_y
  _atom_site_fract_z
N1 N 0.35749 0.32008 0.32997
 N2 N 0.35723 0.32936 0.32062
 C3 C 0.36758 0.32733 0.31219
 C4 C 0.37458 0.31623 0.31657
 C5 C 0.36799 0.31184 0.32783
 H6 H 0.36983 0.33338 0.30351
 H7 H 0.37059 0.30328 0.33395
 Cu8 Cu 0.34328 0.34306 0.32034
 Cu9 Cu 0.34415 0.31921 0.34412
 Cu10 Cu 0.31956 0.34379 0.34425
 N11 N 0.32958 0.35700 0.32077
 N12 N 0.32035 0.35721 0.33017
 C13 C 0.31207 0.36769 0.32809
 C14 C 0.31638 0.37434 0.31683
 C15 C 0.32747 0.36738 0.31238
 H16 H 0.30352 0.37023 0.33424
 H17 H 0.33345 0.36966 0.30366
 N18 N 0.32043 0.32935 0.35768
 N19 N 0.32981 0.31998 0.35763
 C20 C 0.32773 0.31161 0.36800
 C21 C 0.31655 0.31596 0.37481
 C22 C 0.31213 0.32719 0.36809
 H23 H 0.33387 0.30299 0.37044
 H24 H 0.30352 0.33330 0.37063
 H25 H 0.32880 0.32856 0.33368
 H26 H 0.33981 0.33952 0.34412
 N27 N 0.35747 0.82007 -0.17023
 N28 N 0.35751 0.82956 -0.17938
 C29 C 0.36787 0.82747 -0.18778
 C30 C 0.37457 0.81611 -0.18358
 C31 C 0.36779 0.81163 -0.17247
 H32 H 0.37037 0.83370 -0.19627
 H33 H 0.37018 0.80291 -0.16647
 Cu34 Cu 0.34400 0.84372 -0.17941
 Cu35 Cu 0.34411 0.81931 -0.15609
 Cu36 Cu 0.31954 0.84392 -0.15623
 N37 N 0.32983 0.85723 -0.17954
 N38 N 0.32032 0.85723 -0.17043
 C39 C 0.31186 0.86752 -0.17276
 C40 C 0.31634 0.87424 -0.18392
 C41 C 0.32773 0.86754 -0.18803
 H42 H 0.30311 0.86991 -0.16682
 H43 H 0.33397 0.86999 -0.19652
 N44 N 0.32037 0.82963 -0.14266
 N45 N 0.32973 0.82022 -0.14260
 C46 C 0.32756 0.81191 -0.13220
 C47 C 0.31634 0.81635 -0.12547
 C48 C 0.31200 0.82754 -0.13229
 H49 H 0.33362 0.80327 -0.12969
 H50 H 0.30337 0.83366 -0.12988
 H51 H 0.32923 0.82892 -0.16678
 H52 H 0.33989 0.83962 -0.15574
 N53 N 0.85722 0.32061 -0.17041
 N54 N 0.85696 0.32992 -0.17972
 C55 C 0.86730 0.32790 -0.18817
 C56 C 0.87429 0.31677 -0.18386
 C57 C 0.86769 0.31235 -0.17260
 H58 H 0.86954 0.33397 -0.19684
 H59 H 0.87027 0.30373 -0.16655
 Cu60 Cu 0.84301 0.34361 -0.18001
 Cu61 Cu 0.84384 0.31972 -0.15628
 Cu62 Cu 0.81921 0.34430 -0.15616
 N63 N 0.82929 0.35751 -0.17963
 N64 N 0.82003 0.35772 -0.17026
 C65 C 0.81172 0.36817 -0.17239
 C66 C 0.81607 0.37478 -0.18366
 C67 C 0.82719 0.36785 -0.18807
 H68 H 0.80314 0.37070 -0.16628
 H69 H 0.83319 0.37011 -0.19678
 N70 N 0.82008 0.32985 -0.14273
 N71 N 0.82946 0.32047 -0.14280
 C72 C 0.82734 0.31205 -0.13247
 C73 C 0.81614 0.31638 -0.12567
 C74 C 0.81175 0.32765 -0.13235
 H75 H 0.83345 0.30341 -0.13006
 H76 H 0.80314 0.33375 -0.12982
 H77 H 0.82850 0.32908 -0.16670
 H78 H 0.83946 0.34002 -0.15622
 N79 N 0.85677 0.82021 0.32980
 N80 N 0.85668 0.82966 0.32062
 C81 C 0.86696 0.82757 0.31212
 C82 C 0.87375 0.81626 0.31628
 C83 C 0.86710 0.81181 0.32749
 H84 H 0.86935 0.83376 0.30357
 H85 H 0.86958 0.80312 0.33348
 Cu86 Cu 0.84314 0.84376 0.32069
 Cu87 Cu 0.84347 0.81944 0.34401
 Cu88 Cu 0.81886 0.84405 0.34406
 N89 N 0.82909 0.85736 0.32070
 N90 N 0.81964 0.85741 0.32989
 C91 C 0.81126 0.86778 0.32764
 C92 C 0.81574 0.87450 0.31647
 C93 C 0.82704 0.86771 0.31227
 H94 H 0.80258 0.87024 0.33364
 H95 H 0.83323 0.87013 0.30373
 N96 N 0.81977 0.82967 0.35757
 N97 N 0.82917 0.82031 0.35757
 C98 C 0.82708 0.81196 0.36796
 C99 C 0.81587 0.81630 0.37473
 C100 C 0.81144 0.82751 0.36796
 H101 H 0.83321 0.80334 0.37041
 H102 H 0.80278 0.83357 0.37043
 H103 H 0.82840 0.82907 0.33349
 H104 H 0.83914 0.83978 0.34441
 N105 N 0.64284 0.67991 0.32975
 N106 N 0.64305 0.67056 0.32048
 C107 C 0.63274 0.67261 0.31202
 C108 C 0.62580 0.68377 0.31630
 C109 C 0.63240 0.68819 0.32753
 H110 H 0.63042 0.66648 0.30342
 H111 H 0.62979 0.69676 0.33361
 Cu112 Cu 0.65681 0.65673 0.32052
 Cu113 Cu 0.65616 0.68072 0.34395
 Cu114 Cu 0.68080 0.65605 0.34401
 N115 N 0.67057 0.64288 0.32056
 N116 N 0.67993 0.64267 0.32982
 C117 C 0.68820 0.63221 0.32759
 C118 C 0.68374 0.62560 0.31637
 C119 C 0.67258 0.63256 0.31210
 H120 H 0.69681 0.62964 0.33362
 H121 H 0.66647 0.63029 0.30348
 N122 N 0.67990 0.67046 0.35747
 N123 N 0.67050 0.67983 0.35746
 C124 C 0.67263 0.68822 0.36778
 C125 C 0.68386 0.68389 0.37453
 C126 C 0.68827 0.67266 0.36781
 H127 H 0.66653 0.69686 0.37020
 H128 H 0.69693 0.66660 0.37026
 H129 H 0.67139 0.67120 0.33362
 H130 H 0.66052 0.66035 0.34429
 N131 N 0.64277 0.17968 -0.17049
 N132 N 0.64303 0.17049 -0.17990
 C133 C 0.63266 0.17259 -0.18830
 C134 C 0.62566 0.18364 -0.18382
 C135 C 0.63226 0.18792 -0.17254
 H136 H 0.63039 0.16660 -0.19700
 H137 H 0.62964 0.19640 -0.16634
 Cu138 Cu 0.65697 0.15679 -0.18029
 Cu139 Cu 0.65610 0.18044 -0.15636
 Cu140 Cu 0.68071 0.15586 -0.15640
 N141 N 0.67066 0.14284 -0.17996
 N142 N 0.67991 0.14253 -0.17059
 C143 C 0.68813 0.13201 -0.17273
 C144 C 0.68375 0.12547 -0.18402
 C145 C 0.67269 0.13251 -0.18841
 H146 H 0.69665 0.12936 -0.16658
 H147 H 0.66665 0.13028 -0.19709
 N148 N 0.67983 0.17020 -0.14287
 N149 N 0.67043 0.17956 -0.14287
 C150 C 0.67256 0.18793 -0.13253
 C151 C 0.68379 0.18360 -0.12578
 C152 C 0.68819 0.17238 -0.13253
 H153 H 0.66644 0.19657 -0.13010
 H154 H 0.69686 0.16632 -0.13009
 H155 H 0.67139 0.17114 -0.16682
 H156 H 0.66038 0.16009 -0.15645
 N157 N 0.14293 0.67994 -0.17030
 N158 N 0.14320 0.67073 -0.17970
 C159 C 0.13287 0.67282 -0.18813
 C160 C 0.12588 0.68390 -0.18372
 C161 C 0.13244 0.68820 -0.17242
 H162 H 0.13061 0.66680 -0.19681
 H163 H 0.12980 0.69670 -0.16625
 Cu164 Cu 0.15705 0.65696 -0.18000
 Cu165 Cu 0.15622 0.68065 -0.15609
 Cu166 Cu 0.18073 0.65594 -0.15611
 N167 N 0.17067 0.64297 -0.17968
 N168 N 0.17991 0.64263 -0.17030
 C169 C 0.18809 0.63209 -0.17244
 C170 C 0.18371 0.62554 -0.18372
 C171 C 0.17267 0.63262 -0.18811
 H172 H 0.19660 0.62940 -0.16629
 H173 H 0.16663 0.63040 -0.19679
 N174 N 0.17989 0.67026 -0.14259
 N175 N 0.17054 0.67967 -0.14256
 C176 C 0.17271 0.68798 -0.13218
 C177 C 0.18392 0.68355 -0.12545
 C178 C 0.18826 0.67235 -0.13224
 H179 H 0.16665 0.69664 -0.12971
 H180 H 0.19690 0.66624 -0.12982
 H181 H 0.17147 0.67131 -0.16650
 H182 H 0.16041 0.66033 -0.15614
 N183 N 0.14287 0.18002 0.32981
 N184 N 0.14318 0.17079 0.32044
 C185 C 0.13284 0.17282 0.31200
 C186 C 0.12580 0.18388 0.31639
 C187 C 0.13236 0.18824 0.32767
 H188 H 0.13060 0.16677 0.30333
 H189 H 0.12970 0.19676 0.33381
 Cu190 Cu 0.15708 0.15707 0.32016
 Cu191 Cu 0.15616 0.18081 0.34399
 Cu192 Cu 0.18075 0.15617 0.34410
 N193 N 0.17074 0.14312 0.32055
 N194 N 0.17996 0.14281 0.32995
 C195 C 0.18818 0.13230 0.32781
 C196 C 0.18384 0.12575 0.31651
 C197 C 0.17279 0.13279 0.31212
 H198 H 0.19673 0.12967 0.33393
 H199 H 0.16678 0.13058 0.30341
 N200 N 0.17985 0.17057 0.35756
 N201 N 0.17046 0.17995 0.35751
 C202 C 0.17254 0.18830 0.36788
 C203 C 0.18372 0.18394 0.37469
 C204 C 0.18814 0.17272 0.36797
 H205 H 0.16641 0.19693 0.37031
 H206 H 0.19677 0.16662 0.37048
 H207 H 0.17155 0.17147 0.33361
 H208 H 0.16050 0.16049 0.34399
 N209 N 0.64260 0.32039 0.66993
 N210 N 0.64278 0.32967 0.67926
 C211 C 0.63240 0.32761 0.68765
 C212 C 0.62545 0.31650 0.68326
 C213 C 0.63213 0.31212 0.67205
 H214 H 0.63010 0.33365 0.69632
 H215 H 0.62959 0.30354 0.66595
 Cu216 Cu 0.65673 0.34337 0.67959
 Cu217 Cu 0.65602 0.31951 0.65588
 Cu218 Cu 0.68065 0.34405 0.65587
 N219 N 0.67047 0.35727 0.67928
 N220 N 0.67978 0.35746 0.66996
 C221 C 0.68808 0.36788 0.67212
 C222 C 0.68371 0.37453 0.68335
 C223 C 0.67256 0.36761 0.68771
 H224 H 0.69670 0.37039 0.66605
 H225 H 0.66653 0.36989 0.69639
 N226 N 0.67984 0.32963 0.64244
 N227 N 0.67045 0.32028 0.64246
 C228 C 0.67260 0.31188 0.63214
 C229 C 0.68384 0.31619 0.62539
 C230 C 0.68822 0.32743 0.63211
 H231 H 0.66648 0.30327 0.62969
 H232 H 0.69686 0.33350 0.62963
 H233 H 0.67130 0.32886 0.66640
 H234 H 0.66039 0.33983 0.65583
 N235 N 0.64274 0.81995 1.17001
 N236 N 0.64284 0.82935 1.17923
 C237 C 0.63247 0.82731 1.18763
 C238 C 0.62564 0.81607 1.18341
 C239 C 0.63235 0.81160 1.17225
 H240 H 0.63010 0.83346 1.19620
 H241 H 0.62991 0.80290 1.16627
 Cu242 Cu 0.65663 0.84319 1.17942
 Cu243 Cu 0.65617 0.81909 1.15593
 Cu244 Cu 0.68082 0.84363 1.15596
 N245 N 0.67057 0.85687 1.17931
 N246 N 0.67999 0.85698 1.17009
 C247 C 0.68839 0.86730 1.17238
 C248 C 0.68396 0.87396 1.18358
 C249 C 0.67267 0.86716 1.18778
 H250 H 0.69711 0.86974 1.16641
 H251 H 0.66653 0.86951 1.19636
 N252 N 0.67996 0.82926 1.14247
 N253 N 0.67059 0.81989 1.14248
 C254 C 0.67275 0.81152 1.13213
 C255 C 0.68397 0.81588 1.12538
 C256 C 0.68832 0.82711 1.13211
 H257 H 0.66666 0.80289 1.12968
 H258 H 0.69695 0.83321 1.12964
 H259 H 0.67135 0.82850 1.16651
 H260 H 0.66057 0.83936 1.15572
 N261 N 0.14290 0.32039 1.17003
 N262 N 0.14288 0.32993 1.17910
 C263 C 0.13254 0.32789 1.18755
 C264 C 0.12582 0.31652 1.18347
 C265 C 0.13259 0.31198 1.17238
 H266 H 0.13009 0.33414 1.19603
 H267 H 0.13020 0.30321 1.16649
 Cu268 Cu 0.15639 0.34402 1.17899
 Cu269 Cu 0.15629 0.31951 1.15590
 Cu270 Cu 0.18078 0.34421 1.15573
 N271 N 0.17042 0.35759 1.17896
 N272 N 0.17988 0.35763 1.16979
 C273 C 0.18833 0.36790 1.17212
 C274 C 0.18390 0.37457 1.18331
 C275 C 0.17256 0.36784 1.18747
 H276 H 0.19708 0.37030 1.16619
 H277 H 0.16643 0.37018 1.19607
 N278 N 0.17998 0.32977 1.14234
 N279 N 0.17067 0.32033 1.14243
 C280 C 0.17289 0.31190 1.13216
 C281 C 0.18407 0.31629 1.12536
 C282 C 0.18834 0.32761 1.13199
 H283 H 0.16688 0.30318 1.12980
 H284 H 0.19692 0.33376 1.12946
 H285 H 0.17127 0.32922 1.16643
 H286 H 0.16056 0.33981 1.15534
 N287 N 0.14258 0.82020 0.66981
 N288 N 0.14262 0.82970 0.67893
 C289 C 0.13222 0.82771 0.68733
 C290 C 0.12543 0.81641 0.68318
 C291 C 0.13219 0.81186 0.67208
 H292 H 0.12981 0.83392 0.69585
 H293 H 0.12979 0.80311 0.66617
 Cu294 Cu 0.15648 0.84345 0.67892
 Cu295 Cu 0.15605 0.81922 0.65574
 Cu296 Cu 0.18075 0.84377 0.65567
 N297 N 0.17035 0.85719 0.67891
 N298 N 0.17983 0.85722 0.66977
 C299 C 0.18825 0.86752 0.67207
 C300 C 0.18376 0.87425 0.68322
 C301 C 0.17242 0.86751 0.68736
 H302 H 0.19702 0.86990 0.66616
 H303 H 0.16626 0.86990 0.69592
 N304 N 0.17991 0.82929 0.64228
 N305 N 0.17052 0.81992 0.64233
 C306 C 0.17263 0.81153 0.63200
 C307 C 0.18383 0.81586 0.62520
 C308 C 0.18823 0.82709 0.63189
 H309 H 0.16649 0.80293 0.62956
 H310 H 0.19684 0.83320 0.62935
 H311 H 0.17126 0.82871 0.66622
 H312 H 0.16055 0.83947 0.65530
 N313 N 0.35729 0.67979 0.67024
 N314 N 0.35705 0.67055 0.67963
 C315 C 0.36741 0.67261 0.68802
 C316 C 0.37441 0.68368 0.68359
 C317 C 0.36780 0.68802 0.67232
 H318 H 0.36968 0.66658 0.69672
 H319 H 0.37039 0.69656 0.66616
 Cu320 Cu 0.34313 0.65684 0.67999
 Cu321 Cu 0.34391 0.68061 0.65614
 Cu322 Cu 0.31934 0.65598 0.65615
 N323 N 0.32945 0.64290 0.67967
 N324 N 0.32021 0.64260 0.67030
 C325 C 0.31201 0.63207 0.67246
 C326 C 0.31638 0.62551 0.68375
 C327 C 0.32744 0.63255 0.68811
 H328 H 0.30346 0.62944 0.66634
 H329 H 0.33347 0.63032 0.69680
 N330 N 0.32016 0.67041 0.64268
 N331 N 0.32953 0.67979 0.64269
 C332 C 0.32739 0.68818 0.63235
 C333 C 0.31617 0.68384 0.62560
 C334 C 0.31180 0.67259 0.63232
 H335 H 0.33349 0.69681 0.62989
 H336 H 0.30318 0.66650 0.62985
 H337 H 0.32858 0.67127 0.66660
 H338 H 0.33960 0.66030 0.65618
 N339 N 0.35744 0.17999 1.17033
 N340 N 0.35744 0.17050 1.17947
 C341 C 0.36777 0.17258 1.18791
 C342 C 0.37448 0.18394 1.18376
 C343 C 0.36775 0.18842 1.17262
 H344 H 0.37023 0.16636 1.19641
 H345 H 0.37015 0.19714 1.16665
 Cu346 Cu 0.34394 0.15639 1.17948
 Cu347 Cu 0.34409 0.18078 1.15620
 Cu348 Cu 0.31950 0.15619 1.15628
 N349 N 0.32983 0.14288 1.17957
 N350 N 0.32031 0.14286 1.17047
 C351 C 0.31190 0.13255 1.17283
 C352 C 0.31642 0.12584 1.18397
 C353 C 0.32778 0.13257 1.18804
 H354 H 0.30316 0.13012 1.16690
 H355 H 0.33403 0.13012 1.19652
 N356 N 0.32035 0.17053 1.14275
 N357 N 0.32973 0.17990 1.14272
 C358 C 0.32755 0.18827 1.13236
 C359 C 0.31632 0.18391 1.12565
 C360 C 0.31196 0.17269 1.13242
 H361 H 0.33362 0.19692 1.12989
 H362 H 0.30330 0.16662 1.13001
 H363 H 0.32914 0.17114 1.16683
 H364 H 0.33982 0.16044 1.15580
 N365 N 0.85716 0.67988 1.17014
 N366 N 0.85722 0.67036 1.17926
 C367 C 0.86754 0.67247 1.18769
 C368 C 0.87421 0.68386 1.18355
 C369 C 0.86743 0.68835 1.17244
 H370 H 0.87003 0.66625 1.19618
 H371 H 0.86978 0.69711 1.16650
 Cu372 Cu 0.84372 0.65624 1.17925
 Cu373 Cu 0.84376 0.68071 1.15606
 Cu374 Cu 0.81922 0.65610 1.15611
 N375 N 0.82963 0.64270 1.17932
 N376 N 0.82011 0.64270 1.17023
 C377 C 0.81167 0.63242 1.17259
 C378 C 0.81618 0.62570 1.18373
 C379 C 0.82756 0.63240 1.18780
 H380 H 0.80291 0.63003 1.16669
 H381 H 0.83378 0.62995 1.19630
 N382 N 0.82001 0.67050 1.14265
 N383 N 0.82936 0.67989 1.14264
 C384 C 0.82718 0.68827 1.13229
 C385 C 0.81596 0.68390 1.12557
 C386 C 0.81163 0.67265 1.13231
 H387 H 0.83326 0.69691 1.12983
 H388 H 0.80301 0.66655 1.12987
 H389 H 0.82882 0.67105 1.16678
 H390 H 0.83949 0.66041 1.15566
 N391 N 0.85739 0.17973 0.67008
 N392 N 0.85732 0.17024 0.67922
 C393 C 0.86762 0.17227 0.68768
 C394 C 0.87441 0.18359 0.68358
 C395 C 0.86771 0.18813 0.67242
 H396 H 0.86997 0.16608 0.69624
 H397 H 0.87009 0.19694 0.66656
 Cu398 Cu 0.84360 0.15635 0.67937
 Cu399 Cu 0.84393 0.18066 0.65605
 Cu400 Cu 0.81932 0.15608 0.65601
 N401 N 0.82972 0.14263 0.67917
 N402 N 0.82024 0.14258 0.67003
 C403 C 0.81184 0.13225 0.67236
 C404 C 0.81637 0.12552 0.68350
 C405 C 0.82768 0.13229 0.68761
 H406 H 0.80304 0.12989 0.66649
 H407 H 0.83385 0.12991 0.69617
 N408 N 0.82011 0.17058 0.64264
 N409 N 0.82950 0.17994 0.64265
 C410 C 0.82735 0.18835 0.63233
 C411 C 0.81612 0.18404 0.62559
 C412 C 0.81174 0.17279 0.63230
 H413 H 0.83347 0.19696 0.62987
 H414 H 0.80312 0.16671 0.62980
 H415 H 0.82880 0.17111 0.66670
 H416 H 0.83958 0.16035 0.65578
 N417 N 0.31998 0.35719 0.67015
 N418 N 0.32941 0.35716 0.67933
 C419 C 0.32724 0.36744 0.68780
 C420 C 0.31590 0.37416 0.68361
 C421 C 0.31151 0.36747 0.67243
 H422 H 0.33336 0.36984 0.69638
 H423 H 0.30281 0.36988 0.66644
 Cu424 Cu 0.34355 0.34367 0.67929
 Cu425 Cu 0.31925 0.34391 0.65598
 Cu426 Cu 0.34382 0.31932 0.65598
 N427 N 0.35708 0.32957 0.67932
 N428 N 0.35713 0.32010 0.67018
 C429 C 0.36746 0.31168 0.67251
 C430 C 0.37413 0.31614 0.68368
 C431 C 0.36737 0.32748 0.68780
 H432 H 0.36991 0.30297 0.66655
 H433 H 0.36976 0.33365 0.69634
 N434 N 0.32950 0.32023 0.64245
 N435 N 0.32015 0.32964 0.64244
 C436 C 0.31185 0.32760 0.63203
 C437 C 0.31621 0.31641 0.62525
 C438 C 0.32738 0.31195 0.63203
 H439 H 0.30325 0.33375 0.62957
 H440 H 0.33346 0.30330 0.62956
 H441 H 0.32882 0.32886 0.66669
 H442 H 0.33953 0.33958 0.65567
 N443 N 0.32007 0.85757 0.16987
 N444 N 0.32949 0.85751 0.17907
 C445 C 0.32739 0.86785 0.18749
 C446 C 0.31610 0.87463 0.18326
 C447 C 0.31168 0.86791 0.17210
 H448 H 0.33354 0.87026 0.19605
 H449 H 0.30300 0.87037 0.16609
 Cu450 Cu 0.34351 0.84391 0.17911
 Cu451 Cu 0.31931 0.84422 0.15574
 Cu452 Cu 0.34386 0.81957 0.15585
 N453 N 0.35706 0.82984 0.17922
 N454 N 0.35714 0.82037 0.17007
 C455 C 0.36748 0.81199 0.17240
 C456 C 0.37416 0.81648 0.18356
 C457 C 0.36736 0.82778 0.18769
 H458 H 0.36999 0.80330 0.16642
 H459 H 0.36976 0.83401 0.19620
 N460 N 0.32957 0.82047 0.14229
 N461 N 0.32021 0.82988 0.14226
 C462 C 0.31183 0.82773 0.13194
 C463 C 0.31617 0.81649 0.12521
 C464 C 0.32738 0.81208 0.13197
 H465 H 0.30318 0.83381 0.12951
 H466 H 0.33341 0.80338 0.12958
 H467 H 0.32882 0.82914 0.16638
 H468 H 0.33960 0.83984 0.15544
 N469 N 0.82015 0.35750 0.16961
 N470 N 0.82964 0.35751 0.17873
 C471 C 0.82755 0.36786 0.18715
 C472 C 0.81620 0.37458 0.18300
 C473 C 0.81173 0.36782 0.17188
 H474 H 0.83375 0.37031 0.19566
 H475 H 0.80300 0.37022 0.16592
 Cu476 Cu 0.84373 0.34397 0.17876
 Cu477 Cu 0.81934 0.34410 0.15552
 Cu478 Cu 0.84395 0.31950 0.15563
 N479 N 0.85725 0.32986 0.17887
 N480 N 0.85728 0.32034 0.16978
 C481 C 0.86762 0.31195 0.17210
 C482 C 0.87435 0.31648 0.18321
 C483 C 0.86759 0.32783 0.18731
 H484 H 0.87007 0.30322 0.16617
 H485 H 0.87003 0.33408 0.19579
 N486 N 0.82961 0.32032 0.14212
 N487 N 0.82023 0.32970 0.14209
 C488 C 0.81190 0.32753 0.13172
 C489 C 0.81629 0.31630 0.12500
 C490 C 0.82750 0.31195 0.13178
 H491 H 0.80327 0.33363 0.12923
 H492 H 0.83361 0.30331 0.12935
 H493 H 0.82892 0.32920 0.16619
 H494 H 0.83960 0.33985 0.15511
 N495 N 0.82001 0.85768 0.66995
 N496 N 0.82924 0.85745 0.67933
 C497 C 0.82719 0.86786 0.68769
 C498 C 0.81613 0.87486 0.68323
 C499 C 0.81179 0.86821 0.67200
 H500 H 0.83321 0.87015 0.69637
 H501 H 0.80328 0.87081 0.66582
 Cu502 Cu 0.84292 0.84350 0.67977
 Cu503 Cu 0.81923 0.84429 0.65584
 Cu504 Cu 0.84382 0.81970 0.65599
 N505 N 0.85683 0.82977 0.67953
 N506 N 0.85711 0.82051 0.67018
 C507 C 0.86761 0.81227 0.67233
 C508 C 0.87419 0.81663 0.68359
 C509 C 0.86717 0.82772 0.68797
 H510 H 0.87025 0.80375 0.66618
 H511 H 0.86943 0.83377 0.69663
 N512 N 0.82952 0.82053 0.64244
 N513 N 0.82013 0.82989 0.64240
 C514 C 0.81178 0.82770 0.63205
 C515 C 0.81619 0.81647 0.62533
 C516 C 0.82741 0.81214 0.63211
 H517 H 0.80313 0.83377 0.62958
 H518 H 0.83351 0.80349 0.62971
 H519 H 0.82849 0.82907 0.66638
 H520 H 0.83951 0.84005 0.65595
 N521 N 0.67974 0.64274 0.67044
 N522 N 0.67024 0.64273 0.67957
 C523 C 0.67232 0.63241 0.68802
 C524 C 0.68369 0.62569 0.68392
 C525 C 0.68817 0.63243 0.67277
 H526 H 0.66611 0.62995 0.69653
 H527 H 0.69693 0.63004 0.66684
 Cu528 Cu 0.65614 0.65627 0.67958
 Cu529 Cu 0.68058 0.65618 0.65635
 Cu530 Cu 0.65595 0.68076 0.65642
 N531 N 0.64259 0.67036 0.67966
 N532 N 0.64255 0.67988 0.67054
 C533 C 0.63224 0.68830 0.67289
 C534 C 0.62554 0.68378 0.68405
 C535 C 0.63227 0.67241 0.68813
 H536 H 0.62983 0.69707 0.66698
 H537 H 0.62985 0.66617 0.69663
 N538 N 0.67033 0.68000 0.64295
 N539 N 0.67973 0.67064 0.64291
 C540 C 0.68807 0.67284 0.63254
 C541 C 0.68365 0.68408 0.62582
 C542 C 0.67244 0.68840 0.63261
 H543 H 0.69669 0.66674 0.63003
 H544 H 0.66630 0.69701 0.63016
 H545 H 0.67097 0.67111 0.66702
 H546 H 0.66030 0.66045 0.65596
 N547 N 0.68032 0.14244 0.16991
 N548 N 0.67107 0.14267 0.17928
 C549 C 0.67312 0.13229 0.18769
 C550 C 0.68422 0.12531 0.18330
 C551 C 0.68857 0.13194 0.17203
 H552 H 0.66706 0.12998 0.19635
 H553 H 0.69707 0.12932 0.16585
 Cu554 Cu 0.65730 0.15653 0.17938
 Cu555 Cu 0.68105 0.15576 0.15565
 Cu556 Cu 0.65641 0.18041 0.15579
 N557 N 0.64351 0.17036 0.17947
 N558 N 0.64322 0.17965 0.17013
 C559 C 0.63277 0.18792 0.17235
 C560 C 0.62623 0.18355 0.18365
 C561 C 0.63322 0.17242 0.18797
 H562 H 0.63009 0.19643 0.16619
 H563 H 0.63095 0.16632 0.19662
 N564 N 0.67064 0.17948 0.14214
 N565 N 0.68004 0.17012 0.14210
 C566 C 0.68835 0.17230 0.13170
 C567 C 0.68389 0.18351 0.12496
 C568 C 0.67270 0.18784 0.13177
 H569 H 0.69702 0.16626 0.12923
 H570 H 0.66660 0.19650 0.12936
 H571 H 0.67174 0.17099 0.16607
 H572 H 0.66078 0.16009 0.15557
 N573 N 0.17982 0.64266 0.17020
 N574 N 0.17056 0.64296 0.17957
 C575 C 0.17258 0.63261 0.18801
 C576 C 0.18365 0.62557 0.18364
 C577 C 0.18803 0.63214 0.17236
 H578 H 0.16654 0.63038 0.19670
 H579 H 0.19656 0.62949 0.16622
 Cu580 Cu 0.15692 0.65695 0.17987
 Cu581 Cu 0.18063 0.65596 0.15599
 Cu582 Cu 0.15612 0.68066 0.15592
 N583 N 0.14307 0.67073 0.17955
 N584 N 0.14282 0.67997 0.17015
 C585 C 0.13235 0.68824 0.17227
 C586 C 0.12575 0.68393 0.18357
 C587 C 0.13274 0.67284 0.18798
 H588 H 0.12972 0.69675 0.16608
 H589 H 0.13046 0.66681 0.19667
 N590 N 0.17044 0.67968 0.14236
 N591 N 0.17979 0.67027 0.14241
 C592 C 0.18818 0.67235 0.13206
 C593 C 0.18385 0.68355 0.12523
 C594 C 0.17263 0.68799 0.13195
 H595 H 0.19683 0.66624 0.12968
 H596 H 0.16658 0.69665 0.12947
 H597 H 0.17136 0.67133 0.16638
 H598 H 0.16032 0.66034 0.15602
 N599 N 0.17972 0.14215 0.67039
 N600 N 0.17040 0.14237 0.67970
 C601 C 0.17244 0.13202 0.68815
 C602 C 0.18357 0.12505 0.68381
 C603 C 0.18796 0.13166 0.67256
 H604 H 0.16636 0.12974 0.69680
 H605 H 0.19648 0.12900 0.66640
 Cu606 Cu 0.15665 0.15627 0.67981
 Cu607 Cu 0.18051 0.15545 0.65616
 Cu608 Cu 0.15592 0.18013 0.65611
 N609 N 0.14283 0.17008 0.67968
 N610 N 0.14263 0.17939 0.67035
 C611 C 0.13219 0.18769 0.67252
 C612 C 0.12559 0.18336 0.68380
 C613 C 0.13252 0.17220 0.68815
 H614 H 0.12956 0.19620 0.66633
 H615 H 0.13023 0.16614 0.69681
 N616 N 0.17025 0.17915 0.64255
 N617 N 0.17962 0.16976 0.64259
 C618 C 0.18797 0.17185 0.63222
 C619 C 0.18360 0.18303 0.62540
 C620 C 0.17239 0.18746 0.63214
 H621 H 0.19662 0.16575 0.62980
 H622 H 0.16632 0.19611 0.62966
 H623 H 0.17112 0.17074 0.66651
 H624 H 0.16019 0.15984 0.65597
 N625 N 0.32004 0.64274 0.32965
 N626 N 0.32938 0.64295 0.32036
 C627 C 0.32734 0.63263 0.31191
 C628 C 0.31617 0.62570 0.31618
 C629 C 0.31176 0.63229 0.32744
 H630 H 0.33348 0.63029 0.30331
 H631 H 0.30319 0.62969 0.33354
 Cu632 Cu 0.34333 0.65661 0.32037
 Cu633 Cu 0.31925 0.65603 0.34388
 Cu634 Cu 0.34385 0.68064 0.34384
 N635 N 0.35700 0.67056 0.32035
 N636 N 0.35717 0.67988 0.32964
 C637 C 0.36761 0.68817 0.32747
 C638 C 0.37426 0.68379 0.31624
 C639 C 0.36736 0.67262 0.31193
 H640 H 0.37018 0.69672 0.33359
 H641 H 0.36973 0.66649 0.30334
 N642 N 0.32953 0.67975 0.35736
 N643 N 0.32015 0.67038 0.35740
 C644 C 0.31181 0.67256 0.36778
 C645 C 0.31621 0.68379 0.37449
 C646 C 0.32741 0.68813 0.36770
 H647 H 0.30316 0.66649 0.37025
 H648 H 0.33351 0.69677 0.37012
 H649 H 0.32869 0.67114 0.33340
 H650 H 0.33955 0.66028 0.34411
 N651 N 0.32010 0.14259 0.83000
 N652 N 0.32931 0.14285 0.82059
 C653 C 0.32723 0.13251 0.81218
 C654 C 0.31618 0.12550 0.81662
 C655 C 0.31186 0.13209 0.82791
 H656 H 0.33325 0.13024 0.80349
 H657 H 0.30335 0.12947 0.83410
 Cu658 Cu 0.34307 0.15672 0.82024
 Cu659 Cu 0.31935 0.15593 0.84416
 Cu660 Cu 0.34403 0.18044 0.84406
 N661 N 0.35706 0.17035 0.82054
 N662 N 0.35737 0.17959 0.82991
 C663 C 0.36789 0.18779 0.82775
 C664 C 0.37444 0.18343 0.81645
 C665 C 0.36739 0.17237 0.81209
 H666 H 0.37052 0.19635 0.83385
 H667 H 0.36958 0.16636 0.80338
 N668 N 0.32968 0.17965 0.85756
 N669 N 0.32028 0.17030 0.85763
 C670 C 0.31197 0.17249 0.86802
 C671 C 0.31639 0.18372 0.87471
 C672 C 0.32759 0.18804 0.86790
 H673 H 0.30334 0.16641 0.87055
 H674 H 0.33371 0.19666 0.87032
 H675 H 0.32863 0.17120 0.83366
 H676 H 0.33961 0.16015 0.84405
 N677 N 0.82035 0.64255 0.82994
 N678 N 0.82960 0.64284 0.82056
 C679 C 0.82756 0.63250 0.81213
 C680 C 0.81650 0.62547 0.81652
 C681 C 0.81214 0.63204 0.82781
 H682 H 0.83359 0.63027 0.80343
 H683 H 0.80360 0.62942 0.83394
 Cu684 Cu 0.84328 0.65679 0.82017
 Cu685 Cu 0.81951 0.65593 0.84407
 Cu686 Cu 0.84410 0.68052 0.84398
 N687 N 0.85721 0.67049 0.82049
 N688 N 0.85747 0.67971 0.82987
 C689 C 0.86797 0.68794 0.82777
 C690 C 0.87457 0.68361 0.81650
 C691 C 0.86757 0.67255 0.81208
 H692 H 0.87057 0.69647 0.83391
 H693 H 0.86983 0.66654 0.80338
 N694 N 0.82976 0.67971 0.85746
 N695 N 0.82037 0.67035 0.85751
 C696 C 0.81204 0.67255 0.86788
 C697 C 0.81644 0.68379 0.87457
 C698 C 0.82765 0.68811 0.86778
 H699 H 0.80340 0.66648 0.87040
 H700 H 0.83377 0.69673 0.87020
 H701 H 0.82875 0.67118 0.83357
 H702 H 0.83977 0.66018 0.84398
 N703 N 0.82038 0.14263 0.32958
 N704 N 0.82986 0.14270 0.32044
 C705 C 0.82777 0.13245 0.31191
 C706 C 0.81644 0.12567 0.31602
 C707 C 0.81197 0.13233 0.32722
 H708 H 0.83396 0.13010 0.30336
 H709 H 0.80327 0.12984 0.33318
 Cu710 Cu 0.84394 0.15623 0.32047
 Cu711 Cu 0.81961 0.15592 0.34380
 Cu712 Cu 0.84424 0.18051 0.34376
 N713 N 0.85751 0.17028 0.32042
 N714 N 0.85755 0.17975 0.32955
 C715 C 0.86786 0.18817 0.32720
 C716 C 0.87455 0.18370 0.31603
 C717 C 0.86779 0.17237 0.31192
 H718 H 0.87032 0.19687 0.33315
 H719 H 0.87016 0.16618 0.30337
 N720 N 0.82994 0.17960 0.35732
 N721 N 0.82056 0.17023 0.35736
 C722 C 0.81220 0.17242 0.36771
 C723 C 0.81657 0.18366 0.37441
 C724 C 0.82778 0.18800 0.36764
 H725 H 0.80353 0.16637 0.37016
 H726 H 0.83383 0.19668 0.37002
 H727 H 0.82912 0.17097 0.33321
 H728 H 0.83983 0.16025 0.34417
 N729 N 0.68005 0.35700 0.32980
 N730 N 0.67080 0.35675 0.32042
 C731 C 0.67291 0.36706 0.31195
 C732 C 0.68401 0.37403 0.31634
 C733 C 0.68833 0.36745 0.32763
 H734 H 0.66685 0.36937 0.30330
 H735 H 0.69681 0.37009 0.33382
 Cu736 Cu 0.65689 0.34305 0.32042
 Cu737 Cu 0.68076 0.34376 0.34409
 Cu738 Cu 0.65616 0.31913 0.34402
 N739 N 0.64316 0.32915 0.32040
 N740 N 0.64292 0.31986 0.32974
 C741 C 0.63244 0.31162 0.32760
 C742 C 0.62583 0.31600 0.31635
 C743 C 0.63282 0.32711 0.31197
 H744 H 0.62978 0.30311 0.33378
 H745 H 0.63049 0.33323 0.30337
 N746 N 0.67041 0.32006 0.35762
 N747 N 0.67977 0.32945 0.35767
 C748 C 0.68809 0.32728 0.36805
 C749 C 0.68371 0.31603 0.37476
 C750 C 0.67254 0.31167 0.36796
 H751 H 0.69674 0.33334 0.37052
 H752 H 0.66650 0.30297 0.37035
 H753 H 0.67142 0.32860 0.33367
 H754 H 0.66048 0.33949 0.34423
 N755 N 0.67969 0.85740 0.83011
 N756 N 0.67035 0.85730 0.82083
 C757 C 0.67247 0.86764 0.81241
 C758 C 0.68368 0.87447 0.81671
 C759 C 0.68805 0.86778 0.82792
 H760 H 0.66638 0.87001 0.80379
 H761 H 0.69668 0.87025 0.83398
 Cu762 Cu 0.65643 0.84360 0.82066
 Cu763 Cu 0.68047 0.84400 0.84423
 Cu764 Cu 0.65580 0.81946 0.84412
 N765 N 0.64264 0.82977 0.82074
 N766 N 0.64245 0.82036 0.82997
 C767 C 0.63203 0.81208 0.82772
 C768 C 0.62539 0.81657 0.81652
 C769 C 0.63230 0.82778 0.81230
 H770 H 0.62949 0.80341 0.83372
 H771 H 0.62998 0.83394 0.80371
 N772 N 0.67016 0.82022 0.85761
 N773 N 0.67954 0.82958 0.85768
 C774 C 0.68783 0.82740 0.86808
 C775 C 0.68341 0.81616 0.87478
 C776 C 0.67223 0.81183 0.86796
 H777 H 0.69644 0.83349 0.87062
 H778 H 0.66611 0.80320 0.87038
 H779 H 0.67106 0.82892 0.83365
 H780 H 0.66022 0.83975 0.84438
 N781 N 0.17966 0.35704 0.83014
 N782 N 0.17039 0.35682 0.82079
 C783 C 0.17249 0.36713 0.81232
 C784 C 0.18360 0.37409 0.81669
 C785 C 0.18793 0.36750 0.82797
 H786 H 0.16640 0.36945 0.80370
 H787 H 0.19643 0.37014 0.83414
 Cu788 Cu 0.15644 0.34315 0.82080
 Cu789 Cu 0.18036 0.34381 0.84444
 Cu790 Cu 0.15574 0.31921 0.84439
 N791 N 0.14275 0.32922 0.82078
 N792 N 0.14252 0.31993 0.83013
 C793 C 0.13204 0.31168 0.82799
 C794 C 0.12544 0.31605 0.81674
 C795 C 0.13241 0.32716 0.81236
 H796 H 0.12940 0.30317 0.83418
 H797 H 0.13007 0.33329 0.80376
 N798 N 0.16997 0.32014 0.85798
 N799 N 0.17935 0.32951 0.85802
 C800 C 0.18766 0.32734 0.86842
 C801 C 0.18323 0.31612 0.87514
 C802 C 0.17206 0.31177 0.86834
 H803 H 0.19631 0.33339 0.87089
 H804 H 0.16598 0.30311 0.87074
 H805 H 0.17098 0.32868 0.83402
 H806 H 0.16006 0.33958 0.84461
 N807 N 0.17961 0.85731 0.32962
 N808 N 0.17036 0.85708 0.32025
 C809 C 0.17248 0.86738 0.31177
 C810 C 0.18358 0.87435 0.31616
 C811 C 0.18790 0.86776 0.32745
 H812 H 0.16645 0.86967 0.30310
 H813 H 0.19642 0.87036 0.33361
 Cu814 Cu 0.15654 0.84328 0.32024
 Cu815 Cu 0.18038 0.84401 0.34387
 Cu816 Cu 0.15574 0.81939 0.34382
 N817 N 0.14271 0.82949 0.32023
 N818 N 0.14245 0.82020 0.32957
 C819 C 0.13196 0.81197 0.32742
 C820 C 0.12536 0.81637 0.31616
 C821 C 0.13236 0.82747 0.31179
 H822 H 0.12932 0.80345 0.33357
 H823 H 0.13007 0.83357 0.30316
 N824 N 0.17005 0.82027 0.35738
 N825 N 0.17942 0.82966 0.35742
 C826 C 0.18774 0.82749 0.36780
 C827 C 0.18336 0.81625 0.37452
 C828 C 0.17217 0.81189 0.36773
 H829 H 0.19637 0.83357 0.37027
 H830 H 0.16611 0.80322 0.37014
 H831 H 0.17106 0.82880 0.33348
 H832 H 0.16013 0.83970 0.34403
 C833 C 0.24518 1.00024 0.25481
 C834 C 0.25481 1.00023 0.24522
 C835 C 0.26022 1.01299 0.24000
 C836 C 0.26017 0.98771 0.23924
 C837 C 0.23978 0.98772 0.26076
 C838 C 0.23983 1.01301 0.26006
 C839 C 0.25500 1.01845 0.22820
 C840 C 0.26035 1.03029 0.22296
 C841 C 0.27104 1.03668 0.22944
 C842 C 0.27619 1.03132 0.24131
 C843 C 0.27074 1.01955 0.24662
 C844 C 0.25156 0.97822 0.23338
 C845 C 0.25680 0.96651 0.22771
 C846 C 0.27068 0.96425 0.22773
 C847 C 0.27930 0.97376 0.23336
 C848 C 0.27408 0.98545 0.23904
 C849 C 0.24835 0.97814 0.26658
 C850 C 0.24308 0.96641 0.27220
 C851 C 0.22919 0.96422 0.27217
 C852 C 0.22061 0.97381 0.26658
 C853 C 0.22586 0.98551 0.26095
 C854 C 0.24514 1.01845 0.27182
 C855 C 0.23986 1.03032 0.27706
 C856 C 0.22916 1.03676 0.27063
 C857 C 0.22392 1.03142 0.25881
 C858 C 0.22930 1.01962 0.25348
 H859 H 0.24680 1.01352 0.22307
 H860 H 0.25625 1.03441 0.21382
 H861 H 0.28448 1.03617 0.24637
 H862 H 0.27481 1.01543 0.25578
 H863 H 0.24083 0.97993 0.23314
 H864 H 0.25005 0.95925 0.22327
 H865 H 0.28092 0.99267 0.24338
 H866 H 0.25909 0.97981 0.26683
 H867 H 0.24981 0.95910 0.27661
 H868 H 0.20984 0.97225 0.26658
 H869 H 0.21904 0.99279 0.25664
 H870 H 0.25334 1.01348 0.27691
 H871 H 0.24402 1.03441 0.28618
 H872 H 0.21561 1.03630 0.25378
 H873 H 0.22515 1.01553 0.24436
 H874 H 0.29005 0.97215 0.23336
 C875 C 0.24511 0.49989 0.75494
 C876 C 0.25476 0.49992 0.74537
 C877 C 0.26014 0.51271 0.74014
 C878 C 0.26013 0.48741 0.73937
 C879 C 0.23973 0.48734 0.76090
 C880 C 0.23969 0.51264 0.76018
 C881 C 0.25488 0.51818 0.72836
 C882 C 0.26021 0.53003 0.72310
 C883 C 0.27093 0.53642 0.72952
 C884 C 0.27612 0.53105 0.74138
 C885 C 0.27069 0.51927 0.74672
 C886 C 0.25152 0.47789 0.73356
 C887 C 0.25676 0.46615 0.72793
 C888 C 0.27064 0.46392 0.72792
 C889 C 0.27926 0.47346 0.73351
 C890 C 0.27405 0.48516 0.73916
 C891 C 0.24833 0.47777 0.76668
 C892 C 0.24308 0.46604 0.77234
 C893 C 0.22920 0.46385 0.77240
 C894 C 0.22059 0.47343 0.76683
 C895 C 0.22581 0.48513 0.76116
 C896 C 0.24494 0.51807 0.77197
 C897 C 0.23960 0.52991 0.77722
 C898 C 0.22890 0.53632 0.77077
 C899 C 0.22372 0.53100 0.75891
 C900 C 0.22915 0.51922 0.75358
 H901 H 0.24667 0.51324 0.72326
 H902 H 0.25608 0.53413 0.71397
 H903 H 0.28444 0.53590 0.74640
 H904 H 0.27481 0.51515 0.75585
 H905 H 0.24079 0.47958 0.73333
 H906 H 0.25001 0.45887 0.72353
 H907 H 0.28088 0.49240 0.74346
 H908 H 0.25907 0.47942 0.76689
 H909 H 0.24983 0.45873 0.77673
 H910 H 0.20982 0.47187 0.76688
 H911 H 0.21897 0.49240 0.75688
 H912 H 0.25314 0.51311 0.77708
 H913 H 0.24372 0.53399 0.78635
 H914 H 0.21542 0.53587 0.75387
 H915 H 0.22505 0.51513 0.74444
 H916 H 0.29001 0.47185 0.73350
 C917 C 0.74522 -0.00035 0.24546
 C918 C 0.75530 -0.00034 0.25456
 C919 C 0.76052 -0.01302 0.26020
 C920 C 0.76083 0.01230 0.26011
 C921 C 0.73998 0.01232 0.23982
 C922 C 0.73970 -0.01300 0.23991
 C923 C 0.75356 -0.01945 0.27056
 C924 C 0.75867 -0.03123 0.27622
 C925 C 0.77079 -0.03663 0.27158
 C926 C 0.77769 -0.03030 0.26116
 C927 C 0.77257 -0.01856 0.25547
 C928 C 0.75269 0.02091 0.26773
 C929 C 0.75804 0.03263 0.27326
 C930 C 0.77161 0.03576 0.27138
 C931 C 0.77979 0.02716 0.26391
 C932 C 0.77444 0.01550 0.25831
 C933 C 0.74687 0.01870 0.22939
 C934 C 0.74170 0.03044 0.22369
 C935 C 0.72959 0.03582 0.22836
 C936 C 0.72275 0.02953 0.23885
 C937 C 0.72794 0.01785 0.24459
 C938 C 0.74787 -0.02162 0.23234
 C939 C 0.74256 -0.03335 0.22681
 C940 C 0.72899 -0.03649 0.22864
 C941 C 0.72077 -0.02789 0.23607
 C942 C 0.72609 -0.01620 0.24167
 H943 H 0.74426 -0.01526 0.27431
 H944 H 0.75323 -0.03606 0.28426
 H945 H 0.78706 -0.03440 0.25747
 H946 H 0.77795 -0.01385 0.24733
 H947 H 0.74226 0.01846 0.26953
 H948 H 0.75164 0.03917 0.27910
 H949 H 0.78093 0.00901 0.25254
 H950 H 0.75617 0.01453 0.22563
 H951 H 0.74708 0.03524 0.21560
 H952 H 0.71338 0.03363 0.24255
 H953 H 0.72260 0.01316 0.25276
 H954 H 0.75831 -0.01916 0.23057
 H955 H 0.74899 -0.03990 0.22101
 H956 H 0.71024 -0.03018 0.23749
 H957 H 0.71957 -0.00971 0.24739
 H958 H 0.79032 0.02944 0.26246
 C959 C 0.74534 0.50002 0.74537
 C960 C 0.75497 0.49999 0.75494
 C961 C 0.76034 0.48744 0.76090
 C962 C 0.76038 0.51275 0.76018
 C963 C 0.73994 0.51281 0.74015
 C964 C 0.73995 0.48750 0.73939
 C965 C 0.75174 0.47788 0.76669
 C966 C 0.75698 0.46613 0.77230
 C967 C 0.77087 0.46390 0.77231
 C968 C 0.77948 0.47348 0.76675
 C969 C 0.77426 0.48520 0.76112
 C970 C 0.75510 0.51821 0.77195
 C971 C 0.76045 0.53005 0.77720
 C972 C 0.77119 0.53643 0.77078
 C973 C 0.77640 0.53106 0.75894
 C974 C 0.77096 0.51929 0.75361
 C975 C 0.74521 0.51829 0.72837
 C976 C 0.73987 0.53015 0.72313
 C977 C 0.72916 0.53654 0.72957
 C978 C 0.72396 0.53116 0.74142
 C979 C 0.72939 0.51937 0.74674
 C980 C 0.74854 0.47794 0.73358
 C981 C 0.74329 0.46622 0.72795
 C982 C 0.72941 0.46401 0.72795
 C983 C 0.72080 0.47358 0.73353
 C984 C 0.72603 0.48528 0.73917
 H985 H 0.74100 0.47956 0.76692
 H986 H 0.75024 0.45882 0.77669
 H987 H 0.79024 0.47189 0.76677
 H988 H 0.78110 0.49246 0.75684
 H989 H 0.74688 0.51328 0.77705
 H990 H 0.75629 0.53416 0.78631
 H991 H 0.77510 0.51517 0.74450
 H992 H 0.75342 0.51336 0.72326
 H993 H 0.74400 0.53427 0.71400
 H994 H 0.71564 0.53601 0.74645
 H995 H 0.72527 0.51525 0.75586
 H996 H 0.75928 0.47961 0.73333
 H997 H 0.75004 0.45892 0.72355
 H998 H 0.71004 0.47202 0.73352
 H999 H 0.71920 0.49254 0.74347
 H1000 H 0.78473 0.53589 0.75392
 C1001 C 0.24534 0.50002 0.24519
 C1002 C 0.25497 0.50002 0.25477
 C1003 C 0.26031 0.48748 0.26077
 C1004 C 0.26034 0.51279 0.26000
 C1005 C 0.23992 0.51278 0.23994
 C1006 C 0.24000 0.48749 0.23922
 C1007 C 0.25168 0.47798 0.26660
 C1008 C 0.25689 0.46625 0.27230
 C1009 C 0.27076 0.46399 0.27235
 C1010 C 0.27941 0.47350 0.26671
 C1011 C 0.27423 0.48519 0.26099
 C1012 C 0.25503 0.51825 0.27176
 C1013 C 0.26036 0.53009 0.27703
 C1014 C 0.27110 0.53648 0.27063
 C1015 C 0.27633 0.53112 0.25879
 C1016 C 0.27091 0.51936 0.25344
 C1017 C 0.24516 0.51819 0.22812
 C1018 C 0.23980 0.53003 0.22285
 C1019 C 0.22910 0.53644 0.22929
 C1020 C 0.22391 0.53110 0.24116
 C1021 C 0.22936 0.51934 0.24651
 C1022 C 0.24862 0.47797 0.23340
 C1023 C 0.24341 0.46624 0.22777
 C1024 C 0.22954 0.46399 0.22779
 C1025 C 0.22090 0.47353 0.23337
 C1026 C 0.22608 0.48523 0.23901
 H1027 H 0.24095 0.47968 0.26679
 H1028 H 0.25011 0.45899 0.27671
 H1029 H 0.29016 0.47186 0.26674
 H1030 H 0.28108 0.49239 0.25663
 H1031 H 0.24679 0.51333 0.27684
 H1032 H 0.25620 0.53419 0.28615
 H1033 H 0.27505 0.51526 0.24432
 H1034 H 0.25334 0.51323 0.22300
 H1035 H 0.24392 0.53411 0.21370
 H1036 H 0.21560 0.53596 0.24619
 H1037 H 0.22524 0.51522 0.25565
 H1038 H 0.25936 0.47968 0.23316
 H1039 H 0.25017 0.45897 0.22335
 H1040 H 0.21014 0.47193 0.23334
 H1041 H 0.21923 0.49247 0.24331
 H1042 H 0.28466 0.53597 0.25378
 C1043 C 0.74489 1.00032 0.75497
 C1044 C 0.75453 1.00033 0.74540
 C1045 C 0.75991 1.01309 0.74015
 C1046 C 0.75994 0.98781 0.73944
 C1047 C 0.73955 0.98779 0.76096
 C1048 C 0.73946 1.01310 0.76019
 C1049 C 0.75469 1.01850 0.72832
 C1050 C 0.76005 1.03032 0.72304
 C1051 C 0.77073 1.03673 0.72948
 C1052 C 0.77590 1.03141 0.74136
 C1053 C 0.77044 1.01966 0.74673
 C1054 C 0.75136 0.97828 0.73359
 C1055 C 0.75663 0.96661 0.72786
 C1056 C 0.77052 0.96442 0.72780
 C1057 C 0.77911 0.97395 0.73346
 C1058 C 0.77386 0.98559 0.73920
 C1059 C 0.74817 0.97826 0.76677
 C1060 C 0.74296 0.96652 0.77243
 C1061 C 0.72909 0.96427 0.77245
 C1062 C 0.72045 0.97381 0.76685
 C1063 C 0.72564 0.98552 0.76118
 C1064 C 0.74475 1.01860 0.77193
 C1065 C 0.73941 1.03046 0.77715
 C1066 C 0.72866 1.03683 0.77073
 C1067 C 0.72343 1.03142 0.75893
 C1068 C 0.72887 1.01963 0.75362
 H1069 H 0.74650 1.01354 0.72321
 H1070 H 0.75595 1.03439 0.71387
 H1071 H 0.78420 1.03627 0.74639
 H1072 H 0.77453 1.01557 0.75589
 H1073 H 0.74062 0.97993 0.73339
 H1074 H 0.74990 0.95934 0.72343
 H1075 H 0.78068 0.99282 0.74356
 H1076 H 0.75891 0.97995 0.76698
 H1077 H 0.74973 0.95924 0.77684
 H1078 H 0.70969 0.97219 0.76686
 H1079 H 0.71878 0.99275 0.75685
 H1080 H 0.75300 1.01369 0.77702
 H1081 H 0.74358 1.03460 0.78624
 H1082 H 0.71510 1.03625 0.75390
 H1083 H 0.72473 1.01549 0.74452
 H1084 H 0.78988 0.97237 0.73344
 C1085 C 0.74521 0.50004 0.25485
 C1086 C 0.75481 0.50008 0.24524
 C1087 C 0.76017 0.51287 0.24002
 C1088 C 0.76018 0.48758 0.23921
 C1089 C 0.73984 0.48748 0.26078
 C1090 C 0.73979 0.51278 0.26011
 C1091 C 0.75493 0.51831 0.22822
 C1092 C 0.76026 0.53016 0.22296
 C1093 C 0.77095 0.53656 0.22941
 C1094 C 0.77613 0.53121 0.24127
 C1095 C 0.77070 0.51944 0.24662
 C1096 C 0.75157 0.47809 0.23336
 C1097 C 0.75680 0.46639 0.22766
 C1098 C 0.77068 0.46415 0.22763
 C1099 C 0.77931 0.47366 0.23326
 C1100 C 0.77410 0.48534 0.23897
 C1101 C 0.74844 0.47790 0.26654
 C1102 C 0.74319 0.46616 0.27217
 C1103 C 0.72930 0.46397 0.27221
 C1104 C 0.72069 0.47356 0.26665
 C1105 C 0.72592 0.48526 0.26101
 C1106 C 0.74509 0.51824 0.27186
 C1107 C 0.73978 0.53010 0.27710
 C1108 C 0.72905 0.53650 0.27069
 C1109 C 0.72380 0.53113 0.25887
 C1110 C 0.72922 0.51934 0.25355
 H1111 H 0.74673 0.51337 0.22310
 H1112 H 0.75615 0.53425 0.21382
 H1113 H 0.78443 0.53606 0.24631
 H1114 H 0.77479 0.51533 0.25576
 H1115 H 0.74083 0.47978 0.23315
 H1116 H 0.75005 0.45914 0.22323
 H1117 H 0.78093 0.49256 0.24331
 H1118 H 0.75918 0.47955 0.26675
 H1119 H 0.74993 0.45884 0.27654
 H1120 H 0.70993 0.47199 0.26668
 H1121 H 0.71909 0.49254 0.25673
 H1122 H 0.75332 0.51331 0.27695
 H1123 H 0.74394 0.53422 0.28620
 H1124 H 0.71548 0.53598 0.25386
 H1125 H 0.72508 0.51522 0.24444
 H1126 H 0.79006 0.47206 0.23323
 C1127 C 0.24527 -0.00048 0.74566
 C1128 C 0.25536 -0.00049 0.75476
 C1129 C 0.26063 -0.01320 0.76034
 C1130 C 0.26086 0.01215 0.76034
 C1131 C 0.23997 0.01221 0.74008
 C1132 C 0.23977 -0.01311 0.74006
 C1133 C 0.25368 -0.01972 0.77065
 C1134 C 0.25882 -0.03152 0.77624
 C1135 C 0.27095 -0.03687 0.77157
 C1136 C 0.27785 -0.03044 0.76121
 C1137 C 0.27270 -0.01867 0.75559
 C1138 C 0.25270 0.02070 0.76800
 C1139 C 0.25799 0.03243 0.77356
 C1140 C 0.27154 0.03565 0.77167
 C1141 C 0.27974 0.02713 0.76412
 C1142 C 0.27444 0.01545 0.75849
 C1143 C 0.24679 0.01862 0.72962
 C1144 C 0.24155 0.03034 0.72394
 C1145 C 0.22943 0.03568 0.72866
 C1146 C 0.22268 0.02937 0.73919
 C1147 C 0.22794 0.01770 0.74491
 C1148 C 0.24795 -0.02171 0.73248
 C1149 C 0.24265 -0.03344 0.72692
 C1150 C 0.22907 -0.03658 0.72872
 C1151 C 0.22084 -0.02798 0.73614
 C1152 C 0.22615 -0.01631 0.74177
 H1153 H 0.24436 -0.01559 0.77442
 H1154 H 0.25340 -0.03642 0.78426
 H1155 H 0.28724 -0.03449 0.75752
 H1156 H 0.27809 -0.01389 0.74750
 H1157 H 0.24228 0.01820 0.76981
 H1158 H 0.25156 0.03893 0.77942
 H1159 H 0.28094 0.00903 0.75266
 H1160 H 0.25607 0.01447 0.72579
 H1161 H 0.24686 0.03516 0.71581
 H1162 H 0.21332 0.03342 0.74293
 H1163 H 0.22265 0.01298 0.75310
 H1164 H 0.25838 -0.01924 0.73073
 H1165 H 0.24909 -0.03997 0.72112
 H1166 H 0.21029 -0.03026 0.73751
 H1167 H 0.21961 -0.00982 0.74747
 H1168 H 0.29025 0.02949 0.76263
 C1169 C 0.25497 0.24499 1.00021
 C1170 C 0.24531 0.25461 1.00022
 C1171 C 0.24003 0.25999 1.01292
 C1172 C 0.23930 0.25998 0.98776
 C1173 C 0.26100 0.23964 0.98775
 C1174 C 0.26025 0.23960 1.01292
 C1175 C 0.22827 0.25461 1.01844
 C1176 C 0.22302 0.25990 1.03026
 C1177 C 0.22945 0.27066 1.03657
 C1178 C 0.24127 0.27598 1.03113
 C1179 C 0.24658 0.27061 1.01938
 C1180 C 0.23348 0.25137 0.97829
 C1181 C 0.22778 0.25660 0.96663
 C1182 C 0.22772 0.27048 0.96440
 C1183 C 0.23334 0.27911 0.97388
 C1184 C 0.23906 0.27391 0.98551
 C1185 C 0.26680 0.24827 0.97826
 C1186 C 0.27247 0.24306 0.96658
 C1187 C 0.27253 0.22918 0.96435
 C1188 C 0.26694 0.22054 0.97386
 C1189 C 0.26125 0.22572 0.98551
 C1190 C 0.27199 0.24502 1.01842
 C1191 C 0.27727 0.23974 1.03023
 C1192 C 0.27088 0.22894 1.03656
 C1193 C 0.25906 0.22361 1.03116
 C1194 C 0.25372 0.22897 1.01941
 H1195 H 0.22317 0.24636 1.01357
 H1196 H 0.21391 0.25568 1.03440
 H1197 H 0.24629 0.28433 1.03591
 H1198 H 0.25568 0.27484 1.01520
 H1199 H 0.23329 0.24063 0.97996
 H1200 H 0.22337 0.24983 0.95940
 H1201 H 0.24341 0.28075 0.99269
 H1202 H 0.26698 0.25901 0.97993
 H1203 H 0.27683 0.24985 0.95932
 H1204 H 0.26697 0.20978 0.97226
 H1205 H 0.25693 0.21886 0.99270
 H1206 H 0.27704 0.25331 1.01354
 H1207 H 0.28637 0.24398 1.03435
 H1208 H 0.25405 0.21525 1.03597
 H1209 H 0.24461 0.22475 1.01527
 H1210 H 0.23329 0.28988 0.97229
 C1211 C 0.25469 0.74488 0.49985
 C1212 C 0.24549 0.75495 0.49981
 C1213 C 0.23982 0.76020 0.51240
 C1214 C 0.23988 0.76044 0.48722
 C1215 C 0.26034 0.73962 0.48726
 C1216 C 0.26029 0.73939 0.51245
 C1217 C 0.22943 0.75324 0.51885
 C1218 C 0.22376 0.75837 0.53055
 C1219 C 0.22844 0.77050 0.53588
 C1220 C 0.23889 0.77739 0.52953
 C1221 C 0.24457 0.77227 0.51785
 C1222 C 0.23233 0.75223 0.47865
 C1223 C 0.22677 0.75750 0.46695
 C1224 C 0.22852 0.77109 0.46379
 C1225 C 0.23592 0.77935 0.47235
 C1226 C 0.24157 0.77406 0.48399
 C1227 C 0.27067 0.74663 0.48075
 C1228 C 0.27629 0.74151 0.46902
 C1229 C 0.27164 0.72936 0.46373
 C1230 C 0.26124 0.72243 0.47013
 C1231 C 0.25561 0.72754 0.48184
 C1232 C 0.26789 0.74759 0.52098
 C1233 C 0.27343 0.74233 0.53270
 C1234 C 0.27160 0.72876 0.53591
 C1235 C 0.26414 0.72051 0.52738
 C1236 C 0.25853 0.72579 0.51572
 H1237 H 0.22567 0.74392 0.51474
 H1238 H 0.21569 0.75295 0.53539
 H1239 H 0.24261 0.78676 0.53357
 H1240 H 0.25270 0.77767 0.51311
 H1241 H 0.23060 0.74178 0.48112
 H1242 H 0.22100 0.75102 0.46044
 H1243 H 0.24728 0.78062 0.49043
 H1244 H 0.27440 0.75598 0.48482
 H1245 H 0.28431 0.74697 0.46413
 H1246 H 0.25753 0.71305 0.46610
 H1247 H 0.24751 0.72212 0.48661
 H1248 H 0.26966 0.75802 0.51849
 H1249 H 0.27922 0.74880 0.53919
 H1250 H 0.26270 0.70999 0.52973
 H1251 H 0.25277 0.71924 0.50931
 H1252 H 0.23729 0.78989 0.47005
 C1253 C 0.24509 0.74535 -0.00009
 C1254 C 0.25514 0.75455 -0.00012
 C1255 C 0.26040 0.76017 -0.01275
 C1256 C 0.26063 0.76020 0.01243
 C1257 C 0.23986 0.73970 0.01254
 C1258 C 0.23960 0.73970 -0.01265
 C1259 C 0.27249 0.75541 -0.01817
 C1260 C 0.27764 0.76107 -0.02986
 C1261 C 0.27075 0.77151 -0.03625
 C1262 C 0.25860 0.77619 -0.03096
 C1263 C 0.25344 0.77054 -0.01924
 C1264 C 0.27423 0.75846 0.01568
 C1265 C 0.27950 0.76412 0.02730
 C1266 C 0.27123 0.77159 0.03582
 C1267 C 0.25767 0.77340 0.03264
 C1268 C 0.25241 0.76782 0.02095
 C1269 C 0.22776 0.74442 0.01797
 C1270 C 0.22264 0.73874 0.02966
 C1271 C 0.22956 0.72832 0.03604
 C1272 C 0.24172 0.72367 0.03073
 C1273 C 0.24685 0.72935 0.01901
 C1274 C 0.22600 0.74146 -0.01589
 C1275 C 0.22072 0.73579 -0.02751
 C1276 C 0.22897 0.72830 -0.03602
 C1277 C 0.24254 0.72647 -0.03284
 C1278 C 0.24780 0.73206 -0.02116
 H1279 H 0.27789 0.74730 -0.01340
 H1280 H 0.28703 0.75735 -0.03387
 H1281 H 0.25318 0.78425 -0.03582
 H1282 H 0.24410 0.77431 -0.01516
 H1283 H 0.28078 0.75268 0.00927
 H1284 H 0.29002 0.76271 0.02962
 H1285 H 0.24198 0.76956 0.01848
 H1286 H 0.22233 0.75252 0.01321
 H1287 H 0.21324 0.74244 0.03369
 H1288 H 0.24717 0.71562 0.03558
 H1289 H 0.25620 0.72561 0.01492
 H1290 H 0.21946 0.74725 -0.00949
 H1291 H 0.21020 0.73722 -0.02984
 H1292 H 0.24901 0.72065 -0.03931
 H1293 H 0.25823 0.73030 -0.01868
 H1294 H 0.25119 0.77921 0.03912
 C1295 C 0.24509 0.24496 0.50019
 C1296 C 0.25477 0.25462 0.50018
 C1297 C 0.26058 0.25997 0.48760
 C1298 C 0.26011 0.26042 0.51274
 C1299 C 0.23974 0.23915 0.51277
 C1300 C 0.23928 0.23964 0.48762
 C1301 C 0.26670 0.25143 0.47824
 C1302 C 0.27229 0.25671 0.46655
 C1303 C 0.27195 0.27057 0.46420
 C1304 C 0.26600 0.27913 0.47356
 C1305 C 0.26039 0.27387 0.48521
 C1306 C 0.27399 0.26023 0.51513
 C1307 C 0.27924 0.26587 0.52676
 C1308 C 0.27067 0.27181 0.53611
 C1309 C 0.25681 0.27213 0.53377
 C1310 C 0.25155 0.26653 0.52209
 C1311 C 0.22585 0.23933 0.51514
 C1312 C 0.22059 0.23368 0.52678
 C1313 C 0.22914 0.22773 0.53615
 C1314 C 0.24300 0.22743 0.53382
 C1315 C 0.24828 0.23304 0.52214
 C1316 C 0.23317 0.24820 0.47827
 C1317 C 0.22759 0.24295 0.46658
 C1318 C 0.22794 0.22909 0.46422
 C1319 C 0.23388 0.22051 0.47357
 C1320 C 0.23949 0.22575 0.48523
 H1321 H 0.26723 0.24072 0.48005
 H1322 H 0.27694 0.25000 0.45941
 H1323 H 0.26574 0.28987 0.47187
 H1324 H 0.25582 0.28062 0.49236
 H1325 H 0.28076 0.25565 0.50799
 H1326 H 0.28998 0.26562 0.52844
 H1327 H 0.24084 0.26704 0.52030
 H1328 H 0.21910 0.24392 0.50800
 H1329 H 0.20984 0.23392 0.52845
 H1330 H 0.24970 0.22279 0.54098
 H1331 H 0.25899 0.23254 0.52036
 H1332 H 0.23265 0.25891 0.48007
 H1333 H 0.22295 0.24967 0.45943
 H1334 H 0.23416 0.20978 0.47188
 H1335 H 0.24407 0.21898 0.49236
 H1336 H 0.25010 0.27676 0.54091
 C1337 C 0.75494 0.74502 1.00001
 C1338 C 0.74527 0.75464 1.00002
 C1339 C 0.73997 0.76000 1.01272
 C1340 C 0.73927 0.76003 0.98756
 C1341 C 0.76098 0.73969 0.98756
 C1342 C 0.76022 0.73963 1.01271
 C1343 C 0.72822 0.75460 1.01822
 C1344 C 0.72296 0.75987 1.03005
 C1345 C 0.72937 0.77063 1.03638
 C1346 C 0.74119 0.77596 1.03096
 C1347 C 0.74652 0.77061 1.01920
 C1348 C 0.73349 0.75142 0.97805
 C1349 C 0.72784 0.75666 0.96637
 C1350 C 0.72778 0.77055 0.96416
 C1351 C 0.73336 0.77917 0.97367
 C1352 C 0.73903 0.77395 0.98532
 C1353 C 0.76678 0.74833 0.97807
 C1354 C 0.77244 0.74313 0.96639
 C1355 C 0.77249 0.72925 0.96414
 C1356 C 0.76689 0.72060 0.97363
 C1357 C 0.76121 0.72577 0.98529
 C1358 C 0.77195 0.74504 1.01824
 C1359 C 0.77719 0.73975 1.03006
 C1360 C 0.77079 0.72896 1.03637
 C1361 C 0.75900 0.72361 1.03093
 C1362 C 0.75369 0.72897 1.01917
 H1363 H 0.72314 0.74634 1.01334
 H1364 H 0.71384 0.75563 1.03418
 H1365 H 0.74620 0.78431 1.03575
 H1366 H 0.75562 0.77484 1.01504
 H1367 H 0.73331 0.74068 0.97972
 H1368 H 0.72347 0.74989 0.95912
 H1369 H 0.74335 0.78079 0.99252
 H1370 H 0.76697 0.75907 0.97976
 H1371 H 0.77681 0.74992 0.95914
 H1372 H 0.76690 0.70984 0.97202
 H1373 H 0.75688 0.71891 0.99247
 H1374 H 0.77701 0.75333 1.01338
 H1375 H 0.78628 0.74401 1.03422
 H1376 H 0.75399 0.71524 1.03572
 H1377 H 0.74460 0.72474 1.01500
 H1378 H 0.73332 0.78993 0.97209
 C1379 C 0.75468 0.24472 0.49994
 C1380 C 0.74549 0.25480 0.49996
 C1381 C 0.73987 0.26030 0.51255
 C1382 C 0.73985 0.26006 0.48735
 C1383 C 0.76034 0.23925 0.48736
 C1384 C 0.76032 0.23946 0.51255
 C1385 C 0.73229 0.25210 0.52113
 C1386 C 0.72676 0.25737 0.53284
 C1387 C 0.72858 0.27094 0.53600
 C1388 C 0.73601 0.27919 0.52743
 C1389 C 0.74162 0.27391 0.51577
 C1390 C 0.72951 0.25308 0.48088
 C1391 C 0.72390 0.25819 0.46913
 C1392 C 0.72860 0.27031 0.46379
 C1393 C 0.73900 0.27724 0.47017
 C1394 C 0.74462 0.27213 0.48189
 C1395 C 0.76795 0.24748 0.47883
 C1396 C 0.77354 0.24224 0.46713
 C1397 C 0.77174 0.22868 0.46392
 C1398 C 0.76430 0.22040 0.47246
 C1399 C 0.75863 0.22565 0.48410
 C1400 C 0.77067 0.24644 0.51901
 C1401 C 0.77628 0.24134 0.53076
 C1402 C 0.77158 0.22922 0.53611
 C1403 C 0.76118 0.22229 0.52973
 C1404 C 0.75556 0.22739 0.51801
 H1405 H 0.73052 0.24167 0.51867
 H1406 H 0.72098 0.25091 0.53936
 H1407 H 0.73742 0.28972 0.52973
 H1408 H 0.74735 0.28046 0.50932
 H1409 H 0.72574 0.24375 0.48500
 H1410 H 0.71585 0.25275 0.46428
 H1411 H 0.75272 0.27754 0.48665
 H1412 H 0.76969 0.25791 0.48132
 H1413 H 0.77935 0.24873 0.46065
 H1414 H 0.76291 0.20987 0.47013
 H1415 H 0.75288 0.21908 0.49052
 H1416 H 0.77443 0.25577 0.51489
 H1417 H 0.78433 0.24678 0.53561
 H1418 H 0.75746 0.21292 0.53379
 H1419 H 0.74746 0.22198 0.51325
 H1420 H 0.74272 0.28661 0.46612
 C1421 C 0.74536 0.24496 -0.00036
 C1422 C 0.75452 0.25505 -0.00035
 C1423 C 0.76016 0.26032 -0.01296
 C1424 C 0.76014 0.26054 0.01223
 C1425 C 0.73974 0.23967 0.01225
 C1426 C 0.73974 0.23947 -0.01295
 C1427 C 0.77056 0.25338 -0.01941
 C1428 C 0.77621 0.25853 -0.03113
 C1429 C 0.77149 0.27066 -0.03647
 C1430 C 0.76104 0.27754 -0.03010
 C1431 C 0.75539 0.27239 -0.01841
 C1432 C 0.76776 0.25234 0.02076
 C1433 C 0.77331 0.25761 0.03246
 C1434 C 0.77147 0.27117 0.03564
 C1435 C 0.76400 0.27942 0.02710
 C1436 C 0.75837 0.27414 0.01546
 C1437 C 0.72939 0.24662 0.01876
 C1438 C 0.72379 0.24147 0.03050
 C1439 C 0.72850 0.22933 0.03580
 C1440 C 0.73892 0.22244 0.02939
 C1441 C 0.74453 0.22759 0.01768
 C1442 C 0.73215 0.24768 -0.02151
 C1443 C 0.72660 0.24242 -0.03321
 C1444 C 0.72841 0.22885 -0.03637
 C1445 C 0.73586 0.22059 -0.02782
 C1446 C 0.74149 0.22586 -0.01617
 H1447 H 0.77435 0.24406 -0.01530
 H1448 H 0.78429 0.25312 -0.03596
 H1449 H 0.75731 0.28692 -0.03415
 H1450 H 0.74725 0.27779 -0.01367
 H1451 H 0.76955 0.24191 0.01828
 H1452 H 0.77913 0.25114 0.03895
 H1453 H 0.75260 0.28069 0.00904
 H1454 H 0.72561 0.25596 0.01468
 H1455 H 0.71574 0.24690 0.03538
 H1456 H 0.74267 0.21306 0.03342
 H1457 H 0.75265 0.22220 0.01290
 H1458 H 0.73039 0.25812 -0.01904
 H1459 H 0.72081 0.24890 -0.03971
 H1460 H 0.73728 0.21006 -0.03013
 H1461 H 0.74723 0.21930 -0.00974
 H1462 H 0.76257 0.28995 0.02941
 C1463 C 0.74514 0.74495 0.50019
 C1464 C 0.75435 0.75500 0.50015
 C1465 C 0.75994 0.76027 0.48751
 C1466 C 0.75999 0.76050 0.51270
 C1467 C 0.73950 0.73972 0.51282
 C1468 C 0.73951 0.73944 0.48763
 C1469 C 0.77032 0.75334 0.48103
 C1470 C 0.77591 0.75849 0.46928
 C1471 C 0.77116 0.77061 0.46396
 C1472 C 0.76072 0.77747 0.47035
 C1473 C 0.75511 0.77232 0.48206
 C1474 C 0.76758 0.75231 0.52127
 C1475 C 0.77314 0.75759 0.53296
 C1476 C 0.77132 0.77117 0.53609
 C1477 C 0.76388 0.77942 0.52753
 C1478 C 0.75824 0.77412 0.51590
 C1479 C 0.72915 0.74671 0.51929
 C1480 C 0.72350 0.74159 0.53102
 C1481 C 0.72815 0.72943 0.53634
 C1482 C 0.73856 0.72250 0.52996
 C1483 C 0.74423 0.72762 0.51827
 C1484 C 0.73187 0.74763 0.47909
 C1485 C 0.72635 0.74236 0.46739
 C1486 C 0.72822 0.72881 0.46420
 C1487 C 0.73572 0.72057 0.47273
 C1488 C 0.74133 0.72585 0.48438
 H1489 H 0.77414 0.74402 0.48513
 H1490 H 0.78399 0.75309 0.46443
 H1491 H 0.75695 0.78684 0.46632
 H1492 H 0.74698 0.77770 0.48683
 H1493 H 0.76934 0.74187 0.51883
 H1494 H 0.77894 0.75113 0.53947
 H1495 H 0.75249 0.78066 0.50946
 H1496 H 0.72541 0.75606 0.51519
 H1497 H 0.71545 0.74704 0.53587
 H1498 H 0.74226 0.71311 0.53401
 H1499 H 0.75234 0.72220 0.51352
 H1500 H 0.73007 0.75805 0.48157
 H1501 H 0.72054 0.74883 0.46089
 H1502 H 0.73720 0.71005 0.47040
 H1503 H 0.74712 0.71932 0.49079
 H1504 H 0.76246 0.78995 0.52981
 C1505 C 1.00016 0.25536 0.24527
 C1506 C 1.00016 0.24526 0.25436
 C1507 C 1.01280 0.23971 0.25993
 C1508 C 0.98748 0.23995 0.25992
 C1509 C 0.98752 0.26088 0.23967
 C1510 C 1.01284 0.26062 0.23968
 C1511 C 1.01606 0.22612 0.25806
 C1512 C 1.02773 0.22077 0.26368
 C1513 C 1.03626 0.22893 0.27123
 C1514 C 1.03307 0.24248 0.27314
 C1515 C 1.02135 0.24783 0.26760
 C1516 C 0.98205 0.22790 0.25511
 C1517 C 0.97035 0.22265 0.26075
 C1518 C 0.96395 0.22945 0.27119
 C1519 C 0.96925 0.24156 0.27593
 C1520 C 0.98099 0.24679 0.27032
 C1521 C 0.98425 0.27448 0.24146
 C1522 C 0.97257 0.27979 0.23580
 C1523 C 0.96405 0.27158 0.22829
 C1524 C 0.96726 0.25802 0.22645
 C1525 C 0.97898 0.25272 0.23203
 C1526 C 1.01834 0.27264 0.24448
 C1527 C 1.03006 0.27782 0.23883
 C1528 C 1.03641 0.27099 0.22838
 C1529 C 1.03106 0.25889 0.22368
 C1530 C 1.01929 0.25372 0.22929
 H1531 H 1.00962 0.21964 0.25225
 H1532 H 1.03006 0.21025 0.26218
 H1533 H 1.03958 0.24888 0.27902
 H1534 H 1.01885 0.25825 0.26944
 H1535 H 0.98682 0.22260 0.24696
 H1536 H 0.96634 0.21327 0.25701
 H1537 H 0.98510 0.25610 0.27413
 H1538 H 0.99067 0.28098 0.24726
 H1539 H 0.97022 0.29031 0.23726
 H1540 H 0.96075 0.25158 0.22062
 H1541 H 0.98148 0.24229 0.23025
 H1542 H 1.01360 0.27797 0.25263
 H1543 H 1.03414 0.28717 0.24257
 H1544 H 1.03592 0.25352 0.21561
 H1545 H 1.01515 0.24443 0.22550
 H1546 H 0.96438 0.24688 0.28401
 C1547 C 0.49985 0.25484 0.74520
 C1548 C 0.49984 0.24519 0.75477
 C1549 C 0.51236 0.23978 0.76073
 C1550 C 0.48706 0.23979 0.76001
 C1551 C 0.48709 0.26024 0.73993
 C1552 C 0.51239 0.26022 0.73924
 C1553 C 0.51458 0.22586 0.76092
 C1554 C 0.52627 0.22060 0.76656
 C1555 C 0.53584 0.22919 0.77215
 C1556 C 0.53364 0.24308 0.77215
 C1557 C 0.52192 0.24836 0.76653
 C1558 C 0.48053 0.22921 0.75345
 C1559 C 0.46876 0.22377 0.75880
 C1560 C 0.46338 0.22899 0.77063
 C1561 C 0.46975 0.23973 0.77703
 C1562 C 0.48159 0.24507 0.77177
 C1563 C 0.48051 0.27081 0.74647
 C1564 C 0.46877 0.27627 0.74108
 C1565 C 0.46345 0.27106 0.72923
 C1566 C 0.46985 0.26033 0.72284
 C1567 C 0.48167 0.25497 0.72814
 C1568 C 0.51462 0.27415 0.73901
 C1569 C 0.52630 0.27937 0.73331
 C1570 C 0.53585 0.27076 0.72769
 C1571 C 0.53365 0.25687 0.72775
 C1572 C 0.52194 0.25162 0.73343
 H1573 H 0.50733 0.21905 0.75659
 H1574 H 0.52784 0.20983 0.76656
 H1575 H 0.54095 0.24980 0.77654
 H1576 H 0.52028 0.25910 0.76675
 H1577 H 0.48466 0.22508 0.74434
 H1578 H 0.46393 0.21544 0.75379
 H1579 H 0.48651 0.25330 0.77686
 H1580 H 0.48458 0.27492 0.75561
 H1581 H 0.46390 0.28459 0.74608
 H1582 H 0.46577 0.25618 0.71371
 H1583 H 0.48660 0.24673 0.72307
 H1584 H 0.50739 0.28098 0.74335
 H1585 H 0.52788 0.29013 0.73329
 H1586 H 0.54094 0.25012 0.72336
 H1587 H 0.52028 0.24088 0.73324
 H1588 H 0.46563 0.24388 0.78614
 C1589 C -0.00022 0.24509 0.74528
 C1590 C -0.00023 0.25475 0.75482
 C1591 C -0.01301 0.26017 0.76004
 C1592 C 0.01229 0.26012 0.76081
 C1593 C 0.01231 0.23966 0.73935
 C1594 C -0.01299 0.23970 0.74006
 C1595 C -0.01955 0.27075 0.75346
 C1596 C -0.03132 0.27620 0.75879
 C1597 C -0.03670 0.27099 0.77063
 C1598 C -0.03033 0.26025 0.77706
 C1599 C -0.01849 0.25489 0.77181
 C1600 C 0.01452 0.27404 0.76102
 C1601 C 0.02618 0.27926 0.76675
 C1602 C 0.03569 0.27065 0.77243
 C1603 C 0.03350 0.25676 0.77237
 C1604 C 0.02182 0.25151 0.76665
 C1605 C 0.01451 0.22573 0.73916
 C1606 C 0.02617 0.22045 0.73348
 C1607 C 0.03575 0.22902 0.72784
 C1608 C 0.03359 0.24292 0.72788
 C1609 C 0.02190 0.24822 0.73355
 C1610 C -0.01955 0.22915 0.74667
 C1611 C -0.03135 0.22375 0.74139
 C1612 C -0.03673 0.22895 0.72955
 C1613 C -0.03034 0.23965 0.72308
 C1614 C -0.01847 0.24497 0.72828
 H1615 H -0.01542 0.27487 0.74433
 H1616 H -0.03615 0.28454 0.75376
 H1617 H -0.03445 0.25611 0.78618
 H1618 H -0.01358 0.24665 0.77691
 H1619 H 0.00731 0.28087 0.75665
 H1620 H 0.02776 0.29002 0.76675
 H1621 H 0.02017 0.24077 0.76685
 H1622 H 0.00725 0.21893 0.74351
 H1623 H 0.02772 0.20968 0.73347
 H1624 H 0.04091 0.24964 0.72348
 H1625 H 0.02028 0.25897 0.73334
 H1626 H -0.01541 0.22502 0.75578
 H1627 H -0.03620 0.21544 0.74645
 H1628 H -0.03445 0.24379 0.71395
 H1629 H -0.01352 0.25316 0.72314
 H1630 H 0.04078 0.25000 0.77679
 C1631 C 0.50029 0.24466 0.24546
 C1632 C 0.50027 0.25479 0.25451
 C1633 C 0.48762 0.26032 0.26009
 C1634 C 0.51294 0.26005 0.26011
 C1635 C 0.51293 0.23913 0.23989
 C1636 C 0.48761 0.23940 0.23989
 C1637 C 0.48435 0.27392 0.25827
 C1638 C 0.47270 0.27925 0.26395
 C1639 C 0.46418 0.27106 0.27152
 C1640 C 0.46736 0.25749 0.27336
 C1641 C 0.47907 0.25216 0.26776
 C1642 C 0.51842 0.27211 0.25534
 C1643 C 0.53009 0.27732 0.26105
 C1644 C 0.53643 0.27048 0.27151
 C1645 C 0.53111 0.25833 0.27617
 C1646 C 0.51939 0.25314 0.27049
 C1647 C 0.51614 0.22551 0.24166
 C1648 C 0.52780 0.22016 0.23601
 C1649 C 0.53638 0.22836 0.22852
 C1650 C 0.53325 0.24194 0.22672
 C1651 C 0.52154 0.24728 0.23229
 C1652 C 0.48210 0.22737 0.24472
 C1653 C 0.47036 0.22222 0.23911
 C1654 C 0.46400 0.22907 0.22867
 C1655 C 0.46938 0.24116 0.22392
 C1656 C 0.48116 0.24630 0.22951
 H1657 H 0.49077 0.28041 0.25244
 H1658 H 0.47036 0.28978 0.26249
 H1659 H 0.46086 0.25106 0.27922
 H1660 H 0.48155 0.24173 0.26954
 H1661 H 0.51369 0.27745 0.24719
 H1662 H 0.53415 0.28670 0.25734
 H1663 H 0.51527 0.24381 0.27425
 H1664 H 0.50967 0.21900 0.24742
 H1665 H 0.53010 0.20962 0.23743
 H1666 H 0.53980 0.24837 0.22090
 H1667 H 0.51909 0.25773 0.23052
 H1668 H 0.48685 0.22203 0.25286
 H1669 H 0.46628 0.21287 0.24286
 H1670 H 0.46453 0.24654 0.21585
 H1671 H 0.48531 0.25559 0.22570
 H1672 H 0.53596 0.25295 0.28423
 C1673 C 0.99998 0.75518 0.74541
 C1674 C 0.99996 0.74506 0.75449
 C1675 C 1.01259 0.73951 0.76007
 C1676 C 0.98727 0.73980 0.76005
 C1677 C 0.98735 0.76074 0.73982
 C1678 C 1.01268 0.76041 0.73982
 C1679 C 1.01584 0.72591 0.75823
 C1680 C 1.02752 0.72056 0.76384
 C1681 C 1.03607 0.72874 0.77135
 C1682 C 1.03288 0.74229 0.77326
 C1683 C 1.02115 0.74763 0.76773
 C1684 C 0.98179 0.72776 0.75527
 C1685 C 0.97007 0.72257 0.76092
 C1686 C 0.96371 0.72940 0.77137
 C1687 C 0.96905 0.74152 0.77605
 C1688 C 0.98080 0.74670 0.77042
 C1689 C 0.98413 0.77435 0.74159
 C1690 C 0.97246 0.77970 0.73595
 C1691 C 0.96390 0.77151 0.72847
 C1692 C 0.96705 0.75793 0.72663
 C1693 C 0.97877 0.75259 0.73220
 C1694 C 1.01821 0.77243 0.74461
 C1695 C 1.02994 0.77758 0.73894
 C1696 C 1.03627 0.77073 0.72848
 C1697 C 1.03088 0.75863 0.72380
 C1698 C 1.01911 0.75350 0.72944
 H1699 H 1.00940 0.71943 0.75243
 H1700 H 1.02985 0.71004 0.76235
 H1701 H 1.03940 0.74870 0.77911
 H1702 H 1.01867 0.75805 0.76955
 H1703 H 0.98654 0.72242 0.74714
 H1704 H 0.96601 0.71320 0.75721
 H1705 H 0.98494 0.75600 0.77421
 H1706 H 0.99059 0.78084 0.74736
 H1707 H 0.97016 0.79023 0.73738
 H1708 H 0.96053 0.75152 0.72081
 H1709 H 0.98123 0.74216 0.73042
 H1710 H 1.01349 0.77778 0.75275
 H1711 H 1.03404 0.78693 0.74265
 H1712 H 1.03570 0.75324 0.71573
 H1713 H 1.01494 0.74421 0.72567
 H1714 H 0.96419 0.74689 0.78412
 C1715 C 0.49996 0.75511 0.24549
 C1716 C 0.49994 0.74498 0.25455
 C1717 C 0.51257 0.73945 0.26015
 C1718 C 0.48725 0.73971 0.26011
 C1719 C 0.48733 0.76066 0.23989
 C1720 C 0.51265 0.76037 0.23992
 C1721 C 0.51585 0.72586 0.25830
 C1722 C 0.52753 0.72054 0.26392
 C1723 C 0.53605 0.72873 0.27145
 C1724 C 0.53284 0.74228 0.27336
 C1725 C 0.52110 0.74759 0.26782
 C1726 C 0.48178 0.72766 0.25533
 C1727 C 0.47006 0.72247 0.26097
 C1728 C 0.46368 0.72931 0.27140
 C1729 C 0.46900 0.74143 0.27609
 C1730 C 0.48077 0.74660 0.27047
 C1731 C 0.48410 0.77427 0.24168
 C1732 C 0.47244 0.77962 0.23603
 C1733 C 0.46388 0.77144 0.22852
 C1734 C 0.46704 0.75787 0.22668
 C1735 C 0.47875 0.75252 0.23226
 C1736 C 0.51818 0.77238 0.24473
 C1737 C 0.52991 0.77755 0.23907
 C1738 C 0.53624 0.77072 0.22860
 C1739 C 0.53085 0.75864 0.22389
 C1740 C 0.51909 0.75348 0.22952
 H1741 H 0.50943 0.71936 0.25250
 H1742 H 0.52990 0.71003 0.26243
 H1743 H 0.53934 0.74869 0.27922
 H1744 H 0.51859 0.75801 0.26964
 H1745 H 0.48655 0.72231 0.24721
 H1746 H 0.46601 0.71310 0.25726
 H1747 H 0.48489 0.75591 0.27426
 H1748 H 0.49055 0.78076 0.24747
 H1749 H 0.47013 0.79015 0.23747
 H1750 H 0.46052 0.75146 0.22084
 H1751 H 0.48121 0.74209 0.23049
 H1752 H 0.51345 0.77771 0.25288
 H1753 H 0.53400 0.78689 0.24281
 H1754 H 0.53568 0.75327 0.21580
 H1755 H 0.51493 0.74420 0.22573
 H1756 H 0.46413 0.74680 0.28414
 C1757 C -0.00026 0.74495 0.24547
 C1758 C -0.00028 0.75509 0.25452
 C1759 C -0.01294 0.76061 0.26009
 C1760 C 0.01239 0.76038 0.26009
 C1761 C 0.01240 0.73942 0.23991
 C1762 C -0.01293 0.73967 0.23990
 C1763 C -0.01618 0.77422 0.25830
 C1764 C -0.02788 0.77954 0.26389
 C1765 C -0.03647 0.77133 0.27134
 C1766 C -0.03331 0.75776 0.27320
 C1767 C -0.02155 0.75244 0.26769
 C1768 C 0.01787 0.77242 0.25528
 C1769 C 0.02957 0.77763 0.26094
 C1770 C 0.03592 0.77082 0.27141
 C1771 C 0.03058 0.75870 0.27612
 C1772 C 0.01884 0.75350 0.27049
 C1773 C 0.01563 0.72581 0.24170
 C1774 C 0.02730 0.72047 0.23605
 C1775 C 0.03587 0.72867 0.22856
 C1776 C 0.03271 0.74224 0.22671
 C1777 C 0.02099 0.74758 0.23228
 C1778 C -0.01842 0.72763 0.24471
 C1779 C -0.03014 0.72245 0.23907
 C1780 C -0.03650 0.72929 0.22863
 C1781 C -0.03115 0.74140 0.22391
 C1782 C -0.01939 0.74656 0.22951
 H1783 H -0.00970 0.78074 0.25256
 H1784 H -0.03019 0.79008 0.26245
 H1785 H -0.03985 0.75133 0.27901
 H1786 H -0.01908 0.74201 0.26949
 H1787 H 0.01313 0.77775 0.24712
 H1788 H 0.03363 0.78699 0.25719
 H1789 H 0.01471 0.74420 0.27430
 H1790 H 0.00917 0.71931 0.24748
 H1791 H 0.02961 0.70994 0.23749
 H1792 H 0.03924 0.74867 0.22088
 H1793 H 0.01853 0.75801 0.23050
 H1794 H -0.01368 0.72229 0.25285
 H1795 H -0.03421 0.71308 0.24281
 H1796 H -0.03601 0.74677 0.21583
 H1797 H -0.01526 0.75587 0.22571
 H1798 H 0.03543 0.75333 0.28420
 C1799 C 0.49988 0.74537 0.74553
 C1800 C 0.49985 0.75501 0.75510
 C1801 C 0.48731 0.76037 0.76107
 C1802 C 0.51261 0.76042 0.76034
 C1803 C 0.51268 0.73999 0.74030
 C1804 C 0.48737 0.73996 0.73957
 C1805 C 0.48505 0.77430 0.76130
 C1806 C 0.47335 0.77950 0.76699
 C1807 C 0.46381 0.77088 0.77259
 C1808 C 0.46603 0.75699 0.77253
 C1809 C 0.47776 0.75176 0.76686
 C1810 C 0.51914 0.77101 0.75378
 C1811 C 0.53091 0.77645 0.75911
 C1812 C 0.53629 0.77121 0.77094
 C1813 C 0.52994 0.76045 0.77734
 C1814 C 0.51810 0.75511 0.77209
 C1815 C 0.51922 0.72940 0.74686
 C1816 C 0.53100 0.72397 0.74153
 C1817 C 0.53639 0.72920 0.72971
 C1818 C 0.53000 0.73993 0.72328
 C1819 C 0.51815 0.74527 0.72853
 C1820 C 0.48519 0.72603 0.73937
 C1821 C 0.47353 0.72077 0.73368
 C1822 C 0.46396 0.72935 0.72805
 C1823 C 0.46611 0.74325 0.72808
 C1824 C 0.47779 0.74854 0.73376
 H1825 H 0.49228 0.78114 0.75697
 H1826 H 0.47175 0.79027 0.76701
 H1827 H 0.45874 0.75023 0.77691
 H1828 H 0.47943 0.74101 0.76705
 H1829 H 0.51502 0.77515 0.74466
 H1830 H 0.53574 0.78479 0.75409
 H1831 H 0.51320 0.74686 0.77718
 H1832 H 0.51509 0.72525 0.75597
 H1833 H 0.53584 0.71562 0.74655
 H1834 H 0.53411 0.74408 0.71416
 H1835 H 0.51322 0.75350 0.72342
 H1836 H 0.49244 0.71923 0.74371
 H1837 H 0.47200 0.71000 0.73367
 H1838 H 0.45880 0.74997 0.72367
 H1839 H 0.47940 0.75929 0.73355
 H1840 H 0.53408 0.75627 0.78644
 C1841 C 0.38627 0.31032 0.31059
 C1842 C 0.39608 0.30528 0.30564
 C1843 C 0.40779 0.29920 0.29980
 C1844 C 0.40886 0.29801 0.28592
 C1845 C 0.42022 0.29206 0.28025
 C1846 C 0.43058 0.28729 0.28843
 C1847 C 0.42950 0.28845 0.30233
 C1848 C 0.41813 0.29441 0.30800
 C1849 C 0.44239 0.28143 0.28254
 C1850 C 0.45230 0.27664 0.27753
 H1851 H 0.40093 0.30171 0.27949
 H1852 H 0.42096 0.29122 0.26950
 H1853 H 0.43744 0.28480 0.30876
 H1854 H 0.41740 0.29530 0.31875
 C1855 C 0.38561 0.81045 0.81077
 C1856 C 0.39540 0.80534 0.80585
 C1857 C 0.40710 0.79918 0.80007
 C1858 C 0.41414 0.80572 0.78985
 C1859 C 0.42556 0.79976 0.78430
 C1860 C 0.43000 0.78724 0.78894
 C1861 C 0.42295 0.78070 0.79914
 C1862 C 0.41152 0.78666 0.80469
 C1863 C 0.44183 0.78121 0.78326
 C1864 C 0.45180 0.77636 0.77844
 H1865 H 0.41081 0.81540 0.78619
 H1866 H 0.43095 0.80491 0.77642
 H1867 H 0.42629 0.77103 0.80283
 H1868 H 0.40614 0.78152 0.81259
 C1869 C -0.11411 0.31081 0.81004
 C1870 C -0.10438 0.30574 0.80496
 C1871 C -0.09278 0.29963 0.79894
 C1872 C -0.08726 0.30508 0.78727
 C1873 C -0.07598 0.29914 0.78143
 C1874 C -0.07018 0.28773 0.78723
 C1875 C -0.07570 0.28226 0.79889
 C1876 C -0.08699 0.28821 0.80474
 C1877 C -0.05847 0.28175 0.78129
 C1878 C -0.04859 0.27682 0.77637
 H1879 H -0.09166 0.31391 0.78271
 H1880 H -0.07177 0.30344 0.77243
 H1881 H -0.07128 0.27345 0.80348
 H1882 H -0.09117 0.28392 0.81376
 C1883 C -0.11457 0.81034 0.31028
 C1884 C -0.10474 0.80533 0.30534
 C1885 C -0.09298 0.79932 0.29953
 C1886 C -0.08038 0.80528 0.30135
 C1887 C -0.06894 0.79943 0.29571
 C1888 C -0.07006 0.78762 0.28821
 C1889 C -0.08266 0.78163 0.28645
 C1890 C -0.09410 0.78747 0.29209
 C1891 C -0.05830 0.78173 0.28226
 C1892 C -0.04839 0.77692 0.27727
 H1893 H -0.07941 0.81442 0.30711
 H1894 H -0.05925 0.80413 0.29717
 H1895 H -0.08363 0.77247 0.28070
 H1896 H -0.10379 0.78277 0.29065
 C1897 C 0.61411 0.68965 0.31031
 C1898 C 0.60430 0.69467 0.30536
 C1899 C 0.59257 0.70072 0.29954
 C1900 C 0.58104 0.70270 0.30729
 C1901 C 0.56962 0.70857 0.30164
 C1902 C 0.56970 0.71248 0.28820
 C1903 C 0.58126 0.71055 0.28047
 C1904 C 0.59267 0.70468 0.28612
 C1905 C 0.55790 0.71833 0.28232
 C1906 C 0.54797 0.72314 0.27737
 H1907 H 0.58087 0.69969 0.31768
 H1908 H 0.56074 0.71001 0.30771
 H1909 H 0.58142 0.71354 0.27007
 H1910 H 0.60155 0.70321 0.28005
 C1911 C 0.61397 0.18961 0.81027
 C1912 C 0.60416 0.19471 0.80541
 C1913 C 0.59242 0.20084 0.79969
 C1914 C 0.59366 0.20951 0.78875
 C1915 C 0.58224 0.21551 0.78323
 C1916 C 0.56955 0.21285 0.78865
 C1917 C 0.56832 0.20418 0.79960
 C1918 C 0.57974 0.19819 0.80511
 C1919 C 0.55776 0.21882 0.78286
 C1920 C 0.54782 0.22366 0.77799
 H1921 H 0.60343 0.21162 0.78448
 H1922 H 0.58329 0.22217 0.77474
 H1923 H 0.55855 0.20203 0.80384
 H1924 H 0.57868 0.19149 0.81357
 C1925 C 1.11419 0.68982 0.81030
 C1926 C 1.10438 0.69482 0.80534
 C1927 C 1.09263 0.70080 0.79948
 C1928 C 1.07992 0.69805 0.80480
 C1929 C 1.06849 0.70388 0.79914
 C1930 C 1.06971 0.71247 0.78812
 C1931 C 1.08243 0.71522 0.78281
 C1932 C 1.09387 0.70940 0.78847
 C1933 C 1.05792 0.71833 0.78221
 C1934 C 1.04799 0.72314 0.77726
 H1935 H 1.07886 0.69141 0.81330
 H1936 H 1.05871 0.70166 0.80332
 H1937 H 1.08349 0.72184 0.77428
 H1938 H 1.10365 0.71158 0.78427
 C1939 C 1.11411 0.18976 0.31040
 C1940 C 1.10430 0.19477 0.30544
 C1941 C 1.09259 0.20081 0.29959
 C1942 C 1.09388 0.20943 0.28861
 C1943 C 1.08249 0.21531 0.28293
 C1944 C 1.06975 0.21259 0.28821
 C1945 C 1.06846 0.20400 0.29922
 C1946 C 1.07986 0.19812 0.30490
 C1947 C 1.05800 0.21847 0.28223
 C1948 C 1.04813 0.22330 0.27721
 H1949 H 1.10369 0.21158 0.28445
 H1950 H 1.08360 0.22194 0.27443
 H1951 H 1.05866 0.20184 0.30339
 H1952 H 1.07875 0.19148 0.31340
 C1953 C 0.61378 0.31054 0.68923
 C1954 C 0.60399 0.30543 0.69415
 C1955 C 0.59231 0.29926 0.69995
 C1956 C 0.58544 0.30564 0.71038
 C1957 C 0.57408 0.29963 0.71598
 C1958 C 0.56953 0.28723 0.71120
 C1959 C 0.57639 0.28085 0.70077
 C1960 C 0.58777 0.28686 0.69517
 C1961 C 0.55775 0.28115 0.71693
 C1962 C 0.54782 0.27627 0.72180
 H1963 H 0.58887 0.31523 0.71415
 H1964 H 0.56882 0.30466 0.72402
 H1965 H 0.57295 0.27128 0.69697
 H1966 H 0.59301 0.28185 0.68710
 C1967 C 0.61402 0.81010 0.18947
 C1968 C 0.60426 0.80502 0.19448
 C1969 C 0.59258 0.79892 0.20036
 C1970 C 0.58069 0.79788 0.19297
 C1971 C 0.56934 0.79189 0.19863
 C1972 C 0.56983 0.78692 0.21170
 C1973 C 0.58172 0.78794 0.21908
 C1974 C 0.59307 0.79394 0.21343
 C1975 C 0.55806 0.78103 0.21762
 C1976 C 0.54815 0.77624 0.22261
 H1977 H 0.58018 0.80173 0.18287
 H1978 H 0.56019 0.79116 0.19283
 H1979 H 0.58220 0.78414 0.22921
 H1980 H 0.60220 0.79471 0.21924
 C1981 C 1.11417 0.31056 0.18946
 C1982 C 1.10438 0.30544 0.19438
 C1983 C 1.09271 0.29926 0.20021
 C1984 C 1.08389 0.29181 0.19223
 C1985 C 1.07255 0.28582 0.19791
 C1986 C 1.06999 0.28726 0.21158
 C1987 C 1.07884 0.29467 0.21956
 C1988 C 1.09018 0.30066 0.21388
 C1989 C 1.05821 0.28134 0.21742
 C1990 C 1.04830 0.27653 0.22239
 H1991 H 1.08577 0.29066 0.18164
 H1992 H 1.06576 0.28012 0.19166
 H1993 H 1.07695 0.29584 0.23014
 H1994 H 1.09694 0.30638 0.22014
 C1995 C 1.11382 0.81043 0.68924
 C1996 C 1.10408 0.80530 0.69423
 C1997 C 1.09245 0.79909 0.70011
 C1998 C 1.08153 0.79549 0.69207
 C1999 C 1.07022 0.78945 0.69777
 C2000 C 1.06979 0.78698 0.71152
 C2001 C 1.08073 0.79053 0.71956
 C2002 C 1.09204 0.79658 0.71386
 C2003 C 1.05805 0.78105 0.71744
 C2004 C 1.04815 0.77625 0.72246
 H2005 H 1.08174 0.79739 0.68143
 H2006 H 1.06181 0.78675 0.69146
 H2007 H 1.08050 0.78866 0.73021
 H2008 H 1.10042 0.79931 0.72018
 C2009 C 0.38608 0.68965 0.68954
 C2010 C 0.39587 0.69475 0.69445
 C2011 C 0.40757 0.70090 0.70022
 C2012 C 0.40647 0.70828 0.71206
 C2013 C 0.41784 0.71429 0.71764
 C2014 C 0.43036 0.71295 0.71139
 C2015 C 0.43144 0.70559 0.69953
 C2016 C 0.42007 0.69958 0.69396
 C2017 C 0.44211 0.71894 0.71724
 C2018 C 0.45202 0.72380 0.72215
 H2019 H 0.39684 0.70938 0.71698
 H2020 H 0.41689 0.71994 0.72683
 H2021 H 0.44107 0.70446 0.69463
 H2022 H 0.42103 0.69391 0.68479
 C2023 C 0.38611 0.18990 0.18978
 C2024 C 0.39589 0.19495 0.19476
 C2025 C 0.40759 0.20102 0.20060
 C2026 C 0.40653 0.20817 0.21258
 C2027 C 0.41791 0.21411 0.21821
 C2028 C 0.43039 0.21291 0.21188
 C2029 C 0.43145 0.20577 0.19988
 C2030 C 0.42007 0.19983 0.19426
 C2031 C 0.44215 0.21879 0.21777
 C2032 C 0.45208 0.22357 0.22273
 H2033 H 0.39693 0.20913 0.21757
 H2034 H 0.41699 0.21960 0.22749
 H2035 H 0.44105 0.20477 0.19491
 H2036 H 0.42100 0.19431 0.18500
 C2037 C -0.11417 0.68985 0.18956
 C2038 C -0.10441 0.69492 0.19454
 C2039 C -0.09273 0.70101 0.20041
 C2040 C -0.08023 0.69983 0.19412
 C2041 C -0.06888 0.70582 0.19977
 C2042 C -0.07000 0.71299 0.21173
 C2043 C -0.08250 0.71417 0.21803
 C2044 C -0.09385 0.70818 0.21238
 C2045 C -0.05827 0.71893 0.21766
 C2046 C -0.04839 0.72374 0.22265
 H2047 H -0.07925 0.69427 0.18489
 H2048 H -0.05926 0.70483 0.19483
 H2049 H -0.08346 0.71967 0.22730
 H2050 H -0.10346 0.70911 0.21736
 C2051 C -0.11407 0.18956 0.68979
 C2052 C -0.10439 0.19457 0.69498
 C2053 C -0.09277 0.20053 0.70109
 C2054 C -0.09401 0.20757 0.71314
 C2055 C -0.08271 0.21341 0.71901
 C2056 C -0.07013 0.21223 0.71288
 C2057 C -0.06889 0.20520 0.70084
 C2058 C -0.08019 0.19936 0.69496
 C2059 C -0.05847 0.21819 0.71891
 C2060 C -0.04862 0.22313 0.72385
 H2061 H -0.10370 0.20853 0.71797
 H2062 H -0.08376 0.21884 0.72831
 H2063 H -0.05921 0.20424 0.69600
 H2064 H -0.07913 0.19394 0.68565
 C2065 C 0.31039 0.38601 0.31088
 C2066 C 0.30529 0.39580 0.30596
 C2067 C 0.29913 0.40748 0.30015
 C2068 C 0.30373 0.41247 0.28790
 C2069 C 0.29772 0.42382 0.28226
 C2070 C 0.28707 0.43022 0.28883
 C2071 C 0.28247 0.42523 0.30108
 C2072 C 0.28849 0.41388 0.30673
 C2073 C 0.28106 0.44202 0.28309
 C2074 C 0.27622 0.45199 0.27823
 H2075 H 0.31197 0.40762 0.28275
 H2076 H 0.30138 0.42763 0.27280
 H2077 H 0.27428 0.43012 0.30627
 H2078 H 0.28488 0.41010 0.31621
 C2079 C 0.31066 -0.11476 0.81037
 C2080 C 0.30553 -0.10499 0.80540
 C2081 C 0.29937 -0.09330 0.79958
 C2082 C 0.30612 -0.08096 0.79970
 C2083 C 0.30010 -0.06957 0.79414
 C2084 C 0.28731 -0.07046 0.78840
 C2085 C 0.28054 -0.08279 0.78829
 C2086 C 0.28656 -0.09419 0.79387
 C2087 C 0.28128 -0.05874 0.78249
 C2088 C 0.27645 -0.04882 0.77752
 H2089 H 0.31602 -0.08015 0.80409
 H2090 H 0.30542 -0.06009 0.79428
 H2091 H 0.27064 -0.08359 0.78389
 H2092 H 0.28125 -0.10367 0.79372
 C2093 C 0.81043 0.38583 0.81070
 C2094 C 0.80536 0.39564 0.80578
 C2095 C 0.79926 0.40737 0.79999
 C2096 C 0.80705 0.41876 0.79730
 C2097 C 0.80109 0.43018 0.79174
 C2098 C 0.78733 0.43025 0.78884
 C2099 C 0.77954 0.41887 0.79158
 C2100 C 0.78550 0.40745 0.79714
 C2101 C 0.78127 0.44199 0.78304
 C2102 C 0.77638 0.45192 0.77816
 H2103 H 0.81769 0.41881 0.79950
 H2104 H 0.80720 0.43894 0.78970
 H2105 H 0.76889 0.41884 0.78941
 H2106 H 0.77938 0.39870 0.79923
 C2107 C 0.81010 -0.11447 0.31077
 C2108 C 0.80501 -0.10469 0.30578
 C2109 C 0.79887 -0.09302 0.29990
 C2110 C 0.79899 -0.09128 0.28603
 C2111 C 0.79302 -0.07993 0.28033
 C2112 C 0.78690 -0.07028 0.28847
 C2113 C 0.78674 -0.07203 0.30234
 C2114 C 0.79271 -0.08338 0.30805
 C2115 C 0.78102 -0.05848 0.28259
 C2116 C 0.77626 -0.04855 0.27760
 H2117 H 0.80372 -0.09866 0.27963
 H2118 H 0.79320 -0.07866 0.26959
 H2119 H 0.78204 -0.06463 0.30874
 H2120 H 0.79256 -0.08463 0.31878
 C2121 C 0.31046 0.61389 0.68988
 C2122 C 0.30545 0.60415 0.69500
 C2123 C 0.29943 0.59251 0.70105
 C2124 C 0.29683 0.59229 0.71480
 C2125 C 0.29094 0.58098 0.72064
 C2126 C 0.28763 0.56984 0.71277
 C2127 C 0.29021 0.57008 0.69903
 C2128 C 0.29611 0.58138 0.69318
 C2129 C 0.28170 0.55815 0.71880
 C2130 C 0.27677 0.54829 0.72376
 H2131 H 0.29937 0.60084 0.72098
 H2132 H 0.28898 0.58090 0.73127
 H2133 H 0.28769 0.56152 0.69285
 H2134 H 0.29808 0.58145 0.68255
 C2135 C 0.31048 1.11426 0.19011
 C2136 C 0.30544 1.10453 0.19522
 C2137 C 0.29939 1.09290 0.20123
 C2138 C 0.29915 1.09151 0.21514
 C2139 C 0.29328 1.08018 0.22095
 C2140 C 0.28764 1.07020 0.21287
 C2141 C 0.28784 1.07161 0.19897
 C2142 C 0.29371 1.08294 0.19316
 C2143 C 0.28175 1.05846 0.21883
 C2144 C 0.27685 1.04857 0.22374
 H2145 H 0.30351 1.09916 0.22147
 H2146 H 0.29315 1.07917 0.23172
 H2147 H 0.28349 1.06395 0.19263
 H2148 H 0.29384 1.08392 0.18239
 C2149 C 0.81023 0.61411 0.18986
 C2150 C 0.80522 0.60437 0.19497
 C2151 C 0.79924 0.59273 0.20102
 C2152 C 0.79796 0.59192 0.21492
 C2153 C 0.79211 0.58059 0.22077
 C2154 C 0.78755 0.57003 0.21275
 C2155 C 0.78883 0.57084 0.19885
 C2156 C 0.79468 0.58217 0.19300
 C2157 C 0.78166 0.55832 0.21875
 C2158 C 0.77676 0.54845 0.22369
 H2159 H 0.80150 0.60001 0.22122
 H2160 H 0.79116 0.58005 0.23153
 H2161 H 0.78534 0.56273 0.19255
 H2162 H 0.79566 0.58268 0.18224
 C2163 C 0.81038 1.11400 0.68971
 C2164 C 0.80535 1.10432 0.69491
 C2165 C 0.79931 1.09271 0.70100
 C2166 C 0.79800 1.09195 0.71490
 C2167 C 0.79209 1.08066 0.72077
 C2168 C 0.78749 1.07010 0.71276
 C2169 C 0.78881 1.07087 0.69887
 C2170 C 0.79471 1.08215 0.69300
 C2171 C 0.78153 1.05844 0.71878
 C2172 C 0.77658 1.04859 0.72373
 H2173 H 0.80154 1.10005 0.72119
 H2174 H 0.79111 1.08015 0.73153
 H2175 H 0.78528 1.06276 0.69259
 H2176 H 0.79570 1.08264 0.68224
 C2177 C 0.68968 0.61401 0.31024
 C2178 C 0.69471 0.60430 0.30511
 C2179 C 0.70077 0.59271 0.29902
 C2180 C 0.71251 0.58718 0.30442
 C2181 C 0.71837 0.57587 0.29854
 C2182 C 0.71250 0.57006 0.28724
 C2183 C 0.70080 0.57562 0.28180
 C2184 C 0.69494 0.58692 0.28768
 C2185 C 0.71839 0.55832 0.28130
 C2186 C 0.72327 0.54841 0.27639
 H2187 H 0.71711 0.59159 0.31317
 H2188 H 0.72742 0.57165 0.30282
 H2189 H 0.69619 0.57120 0.27306
 H2190 H 0.68589 0.59113 0.28341
 C2191 C 0.68937 1.11448 0.81020
 C2192 C 0.69438 1.10474 0.80508
 C2193 C 0.70040 1.09311 0.79903
 C2194 C 0.70654 1.08334 0.80704
 C2195 C 0.71238 1.07202 0.80120
 C2196 C 0.71210 1.07040 0.78731
 C2197 C 0.70599 1.08017 0.77929
 C2198 C 0.70014 1.09151 0.78514
 C2199 C 0.71797 1.05865 0.78134
 C2200 C 0.72286 1.04875 0.77643
 H2201 H 0.70679 1.08448 0.81779
 H2202 H 0.71709 1.06452 0.80749
 H2203 H 0.70572 1.07901 0.76855
 H2204 H 0.69542 1.09899 0.77885
 C2205 C 0.18961 0.61391 0.81021
 C2206 C 0.19463 0.60416 0.80513
 C2207 C 0.20066 0.59253 0.79911
 C2208 C 0.20556 0.58212 0.80717
 C2209 C 0.21138 0.57078 0.80133
 C2210 C 0.21233 0.56981 0.78742
 C2211 C 0.20748 0.58024 0.77936
 C2212 C 0.20166 0.59158 0.78520
 C2213 C 0.21821 0.55809 0.78143
 C2214 C 0.22310 0.54821 0.77649
 H2215 H 0.20485 0.58276 0.81794
 H2216 H 0.21511 0.56277 0.80765
 H2217 H 0.20818 0.57959 0.76859
 H2218 H 0.19792 0.59958 0.77888
 C2219 C 0.18978 1.11414 0.31041
 C2220 C 0.19478 1.10442 0.30528
 C2221 C 0.20075 1.09280 0.29916
 C2222 C 0.21324 1.09384 0.29281
 C2223 C 0.21906 1.08253 0.28690
 C2224 C 0.21240 1.07015 0.28730
 C2225 C 0.19992 1.06912 0.29365
 C2226 C 0.19410 1.08042 0.29956
 C2227 C 0.21839 1.05850 0.28130
 C2228 C 0.22334 1.04864 0.27637
 H2229 H 0.21847 1.10337 0.29245
 H2230 H 0.22873 1.08343 0.28203
 H2231 H 0.19470 1.05958 0.29404
 H2232 H 0.18444 1.07951 0.30445
 C2233 C 0.68968 0.38618 0.68934
 C2234 C 0.69477 0.39595 0.69429
 C2235 C 0.70090 0.40763 0.70012
 C2236 C 0.69360 0.41960 0.70129
 C2237 C 0.69960 0.43098 0.70686
 C2238 C 0.71292 0.43044 0.71131
 C2239 C 0.72024 0.41848 0.71012
 C2240 C 0.71423 0.40710 0.70455
 C2241 C 0.71901 0.44214 0.71716
 C2242 C 0.72389 0.45204 0.72207
 H2243 H 0.68329 0.42014 0.69790
 H2244 H 0.69387 0.44019 0.70770
 H2245 H 0.73055 0.41795 0.71350
 H2246 H 0.71996 0.39789 0.70368
 C2247 C 0.68991 -0.11443 0.18964
 C2248 C 0.69492 -0.10464 0.19465
 C2249 C 0.70090 -0.09292 0.20053
 C2250 C 0.71290 -0.09402 0.20774
 C2251 C 0.71876 -0.08259 0.21336
 C2252 C 0.71264 -0.07002 0.21180
 C2253 C 0.70065 -0.06892 0.20457
 C2254 C 0.69479 -0.08034 0.19895
 C2255 C 0.71855 -0.05827 0.21772
 C2256 C 0.72339 -0.04838 0.22270
 H2257 H 0.71770 -0.10370 0.20902
 H2258 H 0.72803 -0.08355 0.21893
 H2259 H 0.69584 -0.05924 0.20330
 H2260 H 0.68551 -0.07938 0.19340
 C2261 C 0.18992 0.38615 0.18933
 C2262 C 0.19505 0.39591 0.19425
 C2263 C 0.20119 0.40760 0.20003
 C2264 C 0.19317 0.41763 0.20571
 C2265 C 0.19912 0.42899 0.21136
 C2266 C 0.21311 0.43036 0.21133
 C2267 C 0.22114 0.42037 0.20557
 C2268 C 0.21518 0.40900 0.19992
 C2269 C 0.21918 0.44208 0.21712
 C2270 C 0.22406 0.45200 0.22197
 H2271 H 0.18233 0.41667 0.20576
 H2272 H 0.19282 0.43669 0.21572
 H2273 H 0.23196 0.42137 0.20544
 H2274 H 0.22147 0.40134 0.19547
 C2275 C 0.18975 -0.11417 0.68930
 C2276 C 0.19480 -0.10443 0.69435
 C2277 C 0.20084 -0.09278 0.70031
 C2278 C 0.21483 -0.09131 0.70031
 C2279 C 0.22070 -0.07994 0.70605
 C2280 C 0.21260 -0.07001 0.71182
 C2281 C 0.19861 -0.07147 0.71177
 C2282 C 0.19274 -0.08283 0.70604
 C2283 C 0.21859 -0.05832 0.71777
 C2284 C 0.22347 -0.04846 0.72276
 H2285 H 0.22118 -0.09893 0.69587
 H2286 H 0.23152 -0.07889 0.70598
 H2287 H 0.19225 -0.06383 0.71616
 H2288 H 0.18192 -0.08385 0.70605
 C2289 C 0.31065 0.30994 0.38645
 C2290 C 0.30573 0.30485 0.39622
 C2291 C 0.29989 0.29878 0.40790
 C2292 C 0.29770 0.28489 0.40834
 C2293 C 0.29208 0.27900 0.41972
 C2294 C 0.28861 0.28698 0.43070
 C2295 C 0.29081 0.30087 0.43026
 C2296 C 0.29643 0.30676 0.41888
 C2297 C 0.28276 0.28097 0.44241
 C2298 C 0.27785 0.27611 0.45229
 H2299 H 0.30034 0.27863 0.39991
 H2300 H 0.29044 0.26825 0.41997
 H2301 H 0.28818 0.30714 0.43870
 H2302 H 0.29808 0.31751 0.41865
 C2303 C 0.31032 0.81047 -0.11381
 C2304 C 0.30520 0.80557 -0.10404
 C2305 C 0.29906 0.79973 -0.09239
 C2306 C 0.29972 0.78583 -0.09028
 C2307 C 0.29374 0.78015 -0.07898
 C2308 C 0.28707 0.78832 -0.06973
 C2309 C 0.28640 0.80222 -0.07185
 C2310 C 0.29238 0.80790 -0.08316
 C2311 C 0.28112 0.78247 -0.05800
 C2312 C 0.27629 0.77750 -0.04812
 H2313 H 0.30486 0.77941 -0.09734
 H2314 H 0.29434 0.76939 -0.07743
 H2315 H 0.28129 0.80864 -0.06476
 H2316 H 0.29181 0.81866 -0.08468
 C2317 C 0.81024 0.31032 -0.11405
 C2318 C 0.80535 0.30517 -0.10430
 C2319 C 0.79957 0.29900 -0.09264
 C2320 C 0.80428 0.30242 -0.07992
 C2321 C 0.79867 0.29644 -0.06858
 C2322 C 0.78833 0.28701 -0.06990
 C2323 C 0.78362 0.28357 -0.08262
 C2324 C 0.78923 0.28955 -0.09396
 C2325 C 0.78244 0.28103 -0.05820
 C2326 C 0.77747 0.27619 -0.04833
 H2327 H 0.81226 0.30971 -0.07877
 H2328 H 0.80237 0.29919 -0.05879
 H2329 H 0.77561 0.27631 -0.08376
 H2330 H 0.78551 0.28683 -0.10375
 C2331 C 0.80996 0.81029 0.38638
 C2332 C 0.80505 0.80518 0.39614
 C2333 C 0.79924 0.79904 0.40781
 C2334 C 0.80197 0.80425 0.42050
 C2335 C 0.79637 0.79826 0.43184
 C2336 C 0.78801 0.78702 0.43054
 C2337 C 0.78530 0.78179 0.41785
 C2338 C 0.79090 0.78779 0.40651
 C2339 C 0.78210 0.78101 0.44222
 C2340 C 0.77713 0.77616 0.45208
 H2341 H 0.80840 0.81294 0.42163
 H2342 H 0.79853 0.80239 0.44160
 H2343 H 0.77885 0.77311 0.41673
 H2344 H 0.78872 0.78367 0.39675
 C2345 C 0.68976 0.31017 0.61377
 C2346 C 0.69468 0.30509 0.60400
 C2347 C 0.70049 0.29904 0.59230
 C2348 C 0.70605 0.28612 0.59298
 C2349 C 0.71166 0.28025 0.58159
 C2350 C 0.71176 0.28727 0.56946
 C2351 C 0.70617 0.30017 0.56878
 C2352 C 0.70055 0.30604 0.58016
 C2353 C 0.71768 0.28133 0.55775
 C2354 C 0.72265 0.27651 0.54788
 H2355 H 0.70604 0.28061 0.60230
 H2356 H 0.71594 0.27027 0.58223
 H2357 H 0.70616 0.30569 0.55946
 H2358 H 0.69628 0.31602 0.57951
 C2359 C 0.68998 0.80988 1.11379
 C2360 C 0.69504 0.80485 1.10407
 C2361 C 0.70107 0.79888 1.09245
 C2362 C 0.70852 0.78699 1.09361
 C2363 C 0.71437 0.78120 1.08230
 C2364 C 0.71280 0.78728 1.06978
 C2365 C 0.70536 0.79916 1.06862
 C2366 C 0.69951 0.80495 1.07993
 C2367 C 0.71875 0.78131 1.05811
 C2368 C 0.72365 0.77639 1.04826
 H2369 H 0.70979 0.78220 1.10324
 H2370 H 0.72010 0.77200 1.08330
 H2371 H 0.70407 0.80394 1.05899
 H2372 H 0.69377 0.81414 1.07891
 C2373 C 0.19011 0.31024 1.11382
 C2374 C 0.19520 0.30517 1.10414
 C2375 C 0.20125 0.29916 1.09255
 C2376 C 0.20680 0.28625 1.09333
 C2377 C 0.21263 0.28040 1.08204
 C2378 C 0.21294 0.28744 1.06993
 C2379 C 0.20740 0.30035 1.06916
 C2380 C 0.20157 0.30620 1.08045
 C2381 C 0.21886 0.28142 1.05828
 C2382 C 0.22374 0.27646 1.04843
 H2383 H 0.20662 0.28071 1.10264
 H2384 H 0.21688 0.27040 1.08274
 H2385 H 0.20756 0.30588 1.05985
 H2386 H 0.19731 0.31618 1.07974
 C2387 C 0.18968 0.80984 0.61355
 C2388 C 0.19456 0.80474 0.60377
 C2389 C 0.20038 0.79865 0.59210
 C2390 C 0.21081 0.80512 0.58528
 C2391 C 0.21645 0.79922 0.57392
 C2392 C 0.21170 0.78682 0.56934
 C2393 C 0.20126 0.78034 0.57616
 C2394 C 0.19562 0.78624 0.58752
 C2395 C 0.21750 0.78083 0.55762
 C2396 C 0.22245 0.77600 0.54774
 H2397 H 0.21457 0.81471 0.58872
 H2398 H 0.22450 0.80433 0.56871
 H2399 H 0.19749 0.77076 0.57269
 H2400 H 0.18755 0.78115 0.59271
 C2401 C 0.31026 0.68985 0.61396
 C2402 C 0.30534 0.69491 0.60418
 C2403 C 0.29949 0.70093 0.59248
 C2404 C 0.30290 0.71408 0.58882
 C2405 C 0.29729 0.71987 0.57737
 C2406 C 0.28823 0.71254 0.56955
 C2407 C 0.28482 0.69940 0.57322
 C2408 C 0.29043 0.69361 0.58466
 C2409 C 0.28242 0.71844 0.55776
 C2410 C 0.27750 0.72323 0.54783
 H2411 H 0.30989 0.71983 0.59479
 H2412 H 0.30002 0.73003 0.57462
 H2413 H 0.27785 0.69363 0.56724
 H2414 H 0.28772 0.68344 0.58739
 C2415 C 0.31032 0.18988 1.11405
 C2416 C 0.30527 0.19489 1.10431
 C2417 C 0.29923 0.20086 1.09269
 C2418 C 0.28866 0.19432 1.08615
 C2419 C 0.28280 0.20011 1.07484
 C2420 C 0.28749 0.21245 1.07002
 C2421 C 0.29805 0.21899 1.07655
 C2422 C 0.30391 0.21321 1.08786
 C2423 C 0.28154 0.21833 1.05830
 C2424 C 0.27662 0.22319 1.04843
 H2425 H 0.28496 0.18477 1.08979
 H2426 H 0.27465 0.19496 1.06985
 H2427 H 0.30177 0.22853 1.07289
 H2428 H 0.31209 0.21834 1.09283
 C2429 C 0.80995 0.68989 1.11398
 C2430 C 0.80489 0.69492 1.10425
 C2431 C 0.79886 0.70090 1.09263
 C2432 C 0.80230 0.71400 1.08883
 C2433 C 0.79650 0.71978 1.07749
 C2434 C 0.78722 0.71248 1.06990
 C2435 C 0.78376 0.69939 1.07371
 C2436 C 0.78956 0.69362 1.08505
 C2437 C 0.78135 0.71835 1.05816
 C2438 C 0.77648 0.72322 1.04826
 H2439 H 0.80948 0.71973 1.09462
 H2440 H 0.79927 0.72989 1.07461
 H2441 H 0.77662 0.69366 1.06789
 H2442 H 0.78683 0.68349 1.08789
 C2443 C 0.81024 0.19004 0.61393
 C2444 C 0.80537 0.19512 0.60414
 C2445 C 0.79961 0.20118 0.59242
 C2446 C 0.79932 0.19408 0.58036
 C2447 C 0.79374 0.19996 0.56897
 C2448 C 0.78841 0.21297 0.56957
 C2449 C 0.78873 0.22009 0.58162
 C2450 C 0.79431 0.21420 0.59302
 C2451 C 0.78252 0.21892 0.55787
 C2452 C 0.77755 0.22372 0.54799
 H2453 H 0.80340 0.18401 0.57977
 H2454 H 0.79355 0.19437 0.55970
 H2455 H 0.78464 0.23016 0.58220
 H2456 H 0.79450 0.21979 0.60229
 C2457 C 0.68975 0.68987 0.38618
 C2458 C 0.69464 0.69491 0.39597
 C2459 C 0.70044 0.70092 0.40769
 C2460 C 0.69584 0.71342 0.41219
 C2461 C 0.70143 0.71924 0.42361
 C2462 C 0.71166 0.71257 0.43058
 C2463 C 0.71626 0.70008 0.42606
 C2464 C 0.71067 0.69427 0.41464
 C2465 C 0.71743 0.71848 0.44237
 C2466 C 0.72233 0.72327 0.45229
 H2467 H 0.68794 0.71866 0.40688
 H2468 H 0.69778 0.72890 0.42701
 H2469 H 0.72416 0.69484 0.43136
 H2470 H 0.71432 0.68461 0.41124
 C2471 C 0.68970 0.18961 -0.11415
 C2472 C 0.69460 0.19468 -0.10437
 C2473 C 0.70040 0.20073 -0.09266
 C2474 C 0.69953 0.21464 -0.09072
 C2475 C 0.70514 0.22050 -0.07932
 C2476 C 0.71166 0.21248 -0.06983
 C2477 C 0.71250 0.19857 -0.07176
 C2478 C 0.70690 0.19271 -0.08315
 C2479 C 0.71752 0.21846 -0.05812
 C2480 C 0.72247 0.22330 -0.04825
 H2481 H 0.69452 0.22093 -0.09800
 H2482 H 0.70440 0.23126 -0.07792
 H2483 H 0.71749 0.19227 -0.06447
 H2484 H 0.70762 0.18195 -0.08453
 C2485 C 0.18994 0.68943 -0.11381
 C2486 C 0.19501 0.69434 -0.10404
 C2487 C 0.20106 0.70019 -0.09236
 C2488 C 0.19639 0.71251 -0.08747
 C2489 C 0.20221 0.71818 -0.07610
 C2490 C 0.21274 0.71157 -0.06956
 C2491 C 0.21743 0.69925 -0.07445
 C2492 C 0.21160 0.69358 -0.08583
 C2493 C 0.21864 0.71741 -0.05779
 C2494 C 0.22343 0.72235 -0.04790
 H2495 H 0.18824 0.71771 -0.09243
 H2496 H 0.19849 0.72770 -0.07240
 H2497 H 0.22555 0.69403 -0.06947
 H2498 H 0.21530 0.68404 -0.08952
 C2499 C 0.18958 0.18993 0.38634
 C2500 C 0.19447 0.19500 0.39611
 C2501 C 0.20028 0.20107 0.40779
 C2502 C 0.19564 0.21356 0.41228
 C2503 C 0.20125 0.21942 0.42367
 C2504 C 0.21152 0.21281 0.43060
 C2505 C 0.21617 0.20033 0.42610
 C2506 C 0.21056 0.19447 0.41472
 C2507 C 0.21726 0.21876 0.44237
 C2508 C 0.22211 0.22359 0.45228
 H2509 H 0.18769 0.21874 0.40699
 H2510 H 0.19756 0.22906 0.42707
 H2511 H 0.22409 0.19512 0.43140
 H2512 H 0.21423 0.18481 0.41134
 C2513 C 0.30993 0.38581 0.68955
 C2514 C 0.30488 0.39563 0.69444
 C2515 C 0.29883 0.40737 0.70022
 C2516 C 0.28488 0.40804 0.70185
 C2517 C 0.27899 0.41949 0.70739
 C2518 C 0.28704 0.43030 0.71135
 C2519 C 0.30099 0.42964 0.70969
 C2520 C 0.30688 0.41819 0.70415
 C2521 C 0.28102 0.44205 0.71715
 C2522 C 0.27615 0.45196 0.72205
 H2523 H 0.27857 0.39972 0.69883
 H2524 H 0.26819 0.41992 0.70861
 H2525 H 0.30731 0.43796 0.71269
 H2526 H 0.31767 0.41777 0.70292
 C2527 C 0.31012 0.88628 0.18920
 C2528 C 0.30501 0.89607 0.19411
 C2529 C 0.29891 0.90778 0.19990
 C2530 C 0.30671 0.91680 0.20727
 C2531 C 0.30080 0.92820 0.21288
 C2532 C 0.28706 0.93063 0.21115
 C2533 C 0.27925 0.92161 0.20376
 C2534 C 0.28517 0.91020 0.19814
 C2535 C 0.28103 0.94237 0.21694
 C2536 C 0.27617 0.95229 0.22184
 H2537 H 0.31735 0.91502 0.20867
 H2538 H 0.30693 0.93512 0.21856
 H2539 H 0.26862 0.92341 0.20234
 H2540 H 0.27905 0.90329 0.19244
 C2541 C 0.81020 0.38621 0.18900
 C2542 C 0.80509 0.39597 0.19396
 C2543 C 0.79896 0.40764 0.19982
 C2544 C 0.80633 0.41581 0.20851
 C2545 C 0.80038 0.42719 0.21414
 C2546 C 0.78704 0.43046 0.21111
 C2547 C 0.77967 0.42229 0.20242
 C2548 C 0.78561 0.41090 0.19679
 C2549 C 0.78101 0.44223 0.21687
 C2550 C 0.77616 0.45217 0.22175
 H2551 H 0.81665 0.41339 0.21090
 H2552 H 0.80618 0.43346 0.22082
 H2553 H 0.76936 0.42474 0.19999
 H2554 H 0.77983 0.40466 0.19006
 C2555 C 0.81017 0.88654 0.68918
 C2556 C 0.80507 0.89631 0.69412
 C2557 C 0.79890 0.90798 0.69995
 C2558 C 0.78939 0.91534 0.69268
 C2559 C 0.78340 0.92670 0.69832
 C2560 C 0.78689 0.93074 0.71125
 C2561 C 0.79638 0.92336 0.71852
 C2562 C 0.80238 0.91200 0.71288
 C2563 C 0.78089 0.94253 0.71701
 C2564 C 0.77604 0.95247 0.72190
 H2565 H 0.78664 0.91230 0.68268
 H2566 H 0.77610 0.93234 0.69260
 H2567 H 0.79917 0.92641 0.72851
 H2568 H 0.80971 0.90638 0.71859
 C2569 C 0.68966 0.61411 0.69005
 C2570 C 0.69468 0.60437 0.69517
 C2571 C 0.70068 0.59271 0.70121
 C2572 C 0.70184 0.59183 0.71512
 C2573 C 0.70772 0.58051 0.72096
 C2574 C 0.71244 0.57002 0.71292
 C2575 C 0.71126 0.57089 0.69902
 C2576 C 0.70538 0.58221 0.69318
 C2577 C 0.71838 0.55831 0.71892
 C2578 C 0.72332 0.54844 0.72385
 H2579 H 0.69820 0.59988 0.72143
 H2580 H 0.70858 0.57992 0.73172
 H2581 H 0.71486 0.56283 0.69271
 H2582 H 0.70449 0.58278 0.68242
 C2583 C 0.69014 0.11361 0.18926
 C2584 C 0.69519 0.10380 0.19421
 C2585 C 0.70130 0.09211 0.20007
 C2586 C 0.70263 0.09112 0.21396
 C2587 C 0.70861 0.07976 0.21964
 C2588 C 0.71328 0.06936 0.21146
 C2589 C 0.71198 0.07036 0.19757
 C2590 C 0.70600 0.08172 0.19189
 C2591 C 0.71921 0.05759 0.21733
 C2592 C 0.72404 0.04769 0.22232
 H2593 H 0.69904 0.09910 0.22037
 H2594 H 0.70955 0.07907 0.23038
 H2595 H 0.71554 0.06236 0.19116
 H2596 H 0.70503 0.08239 0.18115
 C2597 C 0.18958 0.61394 0.18974
 C2598 C 0.19461 0.60420 0.19483
 C2599 C 0.20065 0.59257 0.20087
 C2600 C 0.20183 0.59171 0.21478
 C2601 C 0.20770 0.58038 0.22063
 C2602 C 0.21241 0.56989 0.21260
 C2603 C 0.21125 0.57076 0.19869
 C2604 C 0.20538 0.58207 0.19284
 C2605 C 0.21834 0.55819 0.21860
 C2606 C 0.22327 0.54832 0.22355
 H2607 H 0.19820 0.59976 0.22108
 H2608 H 0.20854 0.57980 0.23139
 H2609 H 0.21485 0.56269 0.19239
 H2610 H 0.20452 0.58264 0.18208
 C2611 C 0.18948 0.11333 0.68977
 C2612 C 0.19456 0.10352 0.69469
 C2613 C 0.20076 0.09185 0.70051
 C2614 C 0.20007 0.08971 0.71431
 C2615 C 0.20612 0.07837 0.71995
 C2616 C 0.21288 0.06914 0.71183
 C2617 C 0.21361 0.07130 0.69803
 C2618 C 0.20756 0.08264 0.69238
 C2619 C 0.21891 0.05739 0.71766
 C2620 C 0.22380 0.04752 0.72263
 H2621 H 0.19486 0.09678 0.72068
 H2622 H 0.20549 0.07679 0.73063
 H2623 H 0.21880 0.06422 0.69166
 H2624 H 0.20817 0.08422 0.68170
 C2625 C 0.31029 0.61406 0.31011
 C2626 C 0.30534 0.60430 0.30501
 C2627 C 0.29941 0.59264 0.29897
 C2628 C 0.29398 0.59342 0.28609
 C2629 C 0.28816 0.58208 0.28026
 C2630 C 0.28777 0.56991 0.28728
 C2631 C 0.29320 0.56913 0.30014
 C2632 C 0.29902 0.58047 0.30598
 C2633 C 0.28184 0.55822 0.28129
 C2634 C 0.27692 0.54835 0.27636
 H2635 H 0.29425 0.60278 0.28058
 H2636 H 0.28399 0.58279 0.27030
 H2637 H 0.29295 0.55977 0.30565
 H2638 H 0.30320 0.57975 0.31593
 C2639 C 0.31029 0.11379 0.81067
 C2640 C 0.30533 0.10396 0.80572
 C2641 C 0.29937 0.09220 0.79987
 C2642 C 0.29366 0.09287 0.78711
 C2643 C 0.28784 0.08144 0.78145
 C2644 C 0.28770 0.06929 0.78852
 C2645 C 0.29340 0.06863 0.80128
 C2646 C 0.29923 0.08006 0.80694
 C2647 C 0.28189 0.05748 0.78260
 C2648 C 0.27711 0.04756 0.77762
 H2649 H 0.29374 0.10220 0.78155
 H2650 H 0.28348 0.08206 0.77157
 H2651 H 0.29337 0.05930 0.80684
 H2652 H 0.30363 0.07944 0.81681
 C2653 C 0.81058 0.61386 0.81042
 C2654 C 0.80559 0.60413 0.80530
 C2655 C 0.79959 0.59249 0.79924
 C2656 C 0.79811 0.59180 0.78536
 C2657 C 0.79224 0.58049 0.77951
 C2658 C 0.78785 0.56983 0.78751
 C2659 C 0.78932 0.57053 0.80140
 C2660 C 0.79519 0.58183 0.80725
 C2661 C 0.78193 0.55814 0.78149
 C2662 C 0.77702 0.54829 0.77653
 H2663 H 0.80150 0.59998 0.77907
 H2664 H 0.79114 0.58005 0.76876
 H2665 H 0.78595 0.56234 0.80769
 H2666 H 0.79630 0.58225 0.81799
 C2667 C 0.81056 0.11398 0.31003
 C2668 C 0.80557 0.10413 0.30512
 C2669 C 0.79957 0.09235 0.29934
 C2670 C 0.80358 0.07956 0.30358
 C2671 C 0.79775 0.06811 0.29796
 C2672 C 0.78788 0.06941 0.28809
 C2673 C 0.78381 0.08220 0.28390
 C2674 C 0.78964 0.09365 0.28952
 C2675 C 0.78202 0.05761 0.28220
 C2676 C 0.77721 0.04769 0.27726
 H2677 H 0.81120 0.07844 0.31120
 H2678 H 0.80095 0.05826 0.30130
 H2679 H 0.77617 0.08332 0.27630
 H2680 H 0.78643 0.10350 0.28621
 C2681 C 0.68990 0.38575 0.31042
 C2682 C 0.69495 0.39560 0.30554
 C2683 C 0.70103 0.40736 0.29982
 C2684 C 0.71410 0.40671 0.29467
 C2685 C 0.72004 0.41816 0.28916
 C2686 C 0.71293 0.43030 0.28878
 C2687 C 0.69988 0.43095 0.29395
 C2688 C 0.69394 0.41950 0.29946
 C2689 C 0.71895 0.44206 0.28297
 C2690 C 0.72380 0.45199 0.27807
 H2691 H 0.71967 0.39737 0.29492
 H2692 H 0.73014 0.41756 0.28520
 H2693 H 0.69431 0.44030 0.29372
 H2694 H 0.68384 0.42012 0.30343
 C2695 C 0.68966 0.88611 0.81073
 C2696 C 0.69475 0.89590 0.80580
 C2697 C 0.70087 0.90760 0.79999
 C2698 C 0.71377 0.91151 0.80394
 C2699 C 0.71969 0.92294 0.79836
 C2700 C 0.71273 0.93049 0.78880
 C2701 C 0.69982 0.92658 0.78486
 C2702 C 0.69390 0.91515 0.79044
 C2703 C 0.71875 0.94230 0.78310
 C2704 C 0.72361 0.95226 0.77827
 H2705 H 0.71924 0.90575 0.81133
 H2706 H 0.72966 0.92591 0.80151
 H2707 H 0.69433 0.93237 0.77751
 H2708 H 0.68391 0.91222 0.78734
 C2709 C 0.18950 0.38581 0.81075
 C2710 C 0.19457 0.39563 0.80586
 C2711 C 0.20070 0.40736 0.80010
 C2712 C 0.21470 0.40817 0.79904
 C2713 C 0.22069 0.41959 0.79349
 C2714 C 0.21268 0.43023 0.78897
 C2715 C 0.19868 0.42943 0.79007
 C2716 C 0.19270 0.41802 0.79562
 C2717 C 0.21878 0.44196 0.78318
 C2718 C 0.22368 0.45188 0.77828
 H2719 H 0.22098 0.39999 0.80250
 H2720 H 0.23152 0.42011 0.79273
 H2721 H 0.19240 0.43762 0.78664
 H2722 H 0.18187 0.41750 0.79641
 C2723 C 0.18952 0.88604 0.31021
 C2724 C 0.19459 0.89587 0.30533
 C2725 C 0.20071 0.90761 0.29959
 C2726 C 0.21471 0.90844 0.29854
 C2727 C 0.22069 0.91987 0.29303
 C2728 C 0.21267 0.93052 0.28853
 C2729 C 0.19867 0.92969 0.28959
 C2730 C 0.19270 0.91826 0.29511
 C2731 C 0.21876 0.94228 0.28281
 C2732 C 0.22366 0.95223 0.27798
 H2733 H 0.22100 0.90026 0.30200
 H2734 H 0.23152 0.92042 0.29228
 H2735 H 0.19238 0.93788 0.28617
 H2736 H 0.18187 0.91772 0.29588
 C2737 C 0.38576 0.31023 0.68977
 C2738 C 0.39553 0.30526 0.69487
 C2739 C 0.40720 0.29930 0.70090
 C2740 C 0.41000 0.30152 0.71442
 C2741 C 0.42135 0.29570 0.72026
 C2742 C 0.42993 0.28766 0.71260
 C2743 C 0.42713 0.28544 0.69909
 C2744 C 0.41579 0.29126 0.69325
 C2745 C 0.44167 0.28177 0.71857
 C2746 C 0.45156 0.27687 0.72349
 H2747 H 0.40344 0.30775 0.72042
 H2748 H 0.42344 0.29748 0.73072
 H2749 H 0.43371 0.27925 0.69307
 H2750 H 0.41372 0.28951 0.68278
 C2751 C 0.38586 0.81059 0.18955
 C2752 C 0.39568 0.80557 0.19449
 C2753 C 0.40741 0.79952 0.20031
 C2754 C 0.42005 0.80164 0.19455
 C2755 C 0.43147 0.79577 0.20021
 C2756 C 0.43030 0.78775 0.21164
 C2757 C 0.41764 0.78558 0.21737
 C2758 C 0.40623 0.79146 0.21171
 C2759 C 0.44208 0.78188 0.21758
 C2760 C 0.45198 0.77706 0.22257
 H2761 H 0.42107 0.80785 0.18572
 H2762 H 0.44120 0.79751 0.19569
 H2763 H 0.41662 0.77939 0.22620
 H2764 H 0.39650 0.78974 0.21623
 C2765 C 0.88600 0.31055 0.18924
 C2766 C 0.89579 0.30551 0.19423
 C2767 C 0.90747 0.29944 0.20014
 C2768 C 0.91342 0.30526 0.21140
 C2769 C 0.92482 0.29942 0.21709
 C2770 C 0.93034 0.28774 0.21156
 C2771 C 0.92437 0.28189 0.20032
 C2772 C 0.91295 0.28774 0.19462
 C2773 C 0.94217 0.28187 0.21739
 C2774 C 0.95212 0.27711 0.22235
 H2775 H 0.90925 0.31430 0.21575
 H2776 H 0.92935 0.30401 0.22579
 H2777 H 0.92854 0.27286 0.19595
 H2778 H 0.90842 0.28316 0.18592
 C2779 C 0.88589 0.81073 0.68955
 C2780 C 0.89570 0.80568 0.69448
 C2781 C 0.90744 0.79962 0.70028
 C2782 C 0.92021 0.80288 0.69542
 C2783 C 0.93163 0.79697 0.70104
 C2784 C 0.93032 0.78778 0.71156
 C2785 C 0.91754 0.78448 0.71638
 C2786 C 0.90612 0.79039 0.71076
 C2787 C 0.94209 0.78191 0.71750
 C2788 C 0.95200 0.77710 0.72251
 H2789 H 0.92134 0.81001 0.68732
 H2790 H 0.94146 0.79960 0.69722
 H2791 H 0.91641 0.77738 0.72450
 H2792 H 0.89629 0.78779 0.71459
 C2793 C 0.61412 0.31011 0.31041
 C2794 C 0.60432 0.30503 0.30549
 C2795 C 0.59266 0.29886 0.29967
 C2796 C 0.58426 0.29076 0.30749
 C2797 C 0.57292 0.28477 0.30183
 C2798 C 0.56994 0.28685 0.28832
 C2799 C 0.57837 0.29490 0.28049
 C2800 C 0.58970 0.30089 0.28615
 C2801 C 0.55817 0.28089 0.28251
 C2802 C 0.54828 0.27605 0.27754
 H2803 H 0.58648 0.28910 0.31794
 H2804 H 0.56648 0.27856 0.30798
 H2805 H 0.57615 0.29656 0.27004
 H2806 H 0.59614 0.30711 0.28000
 C2807 C 0.61379 0.81063 0.81041
 C2808 C 0.60407 0.80558 0.80532
 C2809 C 0.59246 0.79951 0.79929
 C2810 C 0.58395 0.79136 0.80693
 C2811 C 0.57263 0.78552 0.80110
 C2812 C 0.56977 0.78780 0.78760
 C2813 C 0.57831 0.79590 0.77994
 C2814 C 0.58963 0.80175 0.78577
 C2815 C 0.55804 0.78192 0.78162
 C2816 C 0.54817 0.77703 0.77668
 H2817 H 0.58606 0.78955 0.81739
 H2818 H 0.56610 0.77926 0.80711
 H2819 H 0.57618 0.79772 0.76950
 H2820 H 0.59615 0.80802 0.77977
 C2821 C 0.11373 0.31014 0.81083
 C2822 C 0.10392 0.30506 0.80595
 C2823 C 0.09222 0.29890 0.80018
 C2824 C 0.08504 0.28921 0.80737
 C2825 C 0.07364 0.28325 0.80179
 C2826 C 0.06940 0.28695 0.78897
 C2827 C 0.07661 0.29662 0.78177
 C2828 C 0.08800 0.30258 0.78736
 C2829 C 0.05759 0.28097 0.78324
 C2830 C 0.04765 0.27614 0.77835
 H2831 H 0.08824 0.28627 0.81729
 H2832 H 0.06813 0.27580 0.80746
 H2833 H 0.07341 0.29957 0.77186
 H2834 H 0.09350 0.31004 0.78170
 C2835 C 0.11366 0.81047 0.31021
 C2836 C 0.10386 0.80540 0.30529
 C2837 C 0.09217 0.79924 0.29949
 C2838 C 0.08332 0.79185 0.30751
 C2839 C 0.07198 0.78583 0.30187
 C2840 C 0.06945 0.78719 0.28818
 C2841 C 0.07833 0.79453 0.28016
 C2842 C 0.08966 0.80055 0.28580
 C2843 C 0.05768 0.78122 0.28237
 C2844 C 0.04779 0.77638 0.27740
 H2845 H 0.08518 0.79076 0.31811
 H2846 H 0.06518 0.78018 0.30817
 H2847 H 0.07645 0.79564 0.26957
 H2848 H 0.09644 0.80622 0.27950
 C2849 C 0.61395 0.68975 0.69019
 C2850 C 0.60422 0.69477 0.69530
 C2851 C 0.59256 0.70077 0.70134
 C2852 C 0.58063 0.70195 0.69404
 C2853 C 0.56931 0.70781 0.69987
 C2854 C 0.56985 0.71250 0.71304
 C2855 C 0.58178 0.71131 0.72034
 C2856 C 0.59312 0.70544 0.71451
 C2857 C 0.55816 0.71843 0.71904
 C2858 C 0.54828 0.72337 0.72398
 H2859 H 0.58009 0.69834 0.68386
 H2860 H 0.56013 0.70868 0.69413
 H2861 H 0.58231 0.71489 0.73053
 H2862 H 0.60228 0.70455 0.72025
 C2863 C 0.61451 0.18940 0.18961
 C2864 C 0.60466 0.19439 0.19453
 C2865 C 0.59289 0.20039 0.20033
 C2866 C 0.59400 0.20824 0.21187
 C2867 C 0.58256 0.21409 0.21749
 C2868 C 0.56997 0.21211 0.21161
 C2869 C 0.56887 0.20431 0.20003
 C2870 C 0.58031 0.19845 0.19441
 C2871 C 0.55817 0.21795 0.21754
 C2872 C 0.54826 0.22275 0.22254
 H2873 H 0.60369 0.20981 0.21651
 H2874 H 0.58353 0.22011 0.22644
 H2875 H 0.55918 0.20272 0.19539
 H2876 H 0.57935 0.19242 0.18547
 C2877 C 0.11404 0.68982 0.18953
 C2878 C 0.10420 0.69480 0.19449
 C2879 C 0.09244 0.70075 0.20036
 C2880 C 0.09355 0.70855 0.21193
 C2881 C 0.08211 0.71438 0.21759
 C2882 C 0.06951 0.71241 0.21171
 C2883 C 0.06840 0.70461 0.20014
 C2884 C 0.07984 0.69878 0.19448
 C2885 C 0.05770 0.71826 0.21763
 C2886 C 0.04778 0.72307 0.22261
 H2887 H 0.10325 0.71011 0.21657
 H2888 H 0.08309 0.72038 0.22654
 H2889 H 0.05870 0.70300 0.19552
 H2890 H 0.07886 0.69274 0.18555
 C2891 C 0.11387 0.18928 0.68971
 C2892 C 0.10403 0.19436 0.69457
 C2893 C 0.09229 0.20052 0.70027
 C2894 C 0.09341 0.20844 0.71176
 C2895 C 0.08199 0.21447 0.71726
 C2896 C 0.06942 0.21261 0.71129
 C2897 C 0.06831 0.20472 0.69977
 C2898 C 0.07972 0.19869 0.69427
 C2899 C 0.05764 0.21861 0.71708
 C2900 C 0.04770 0.22348 0.72196
 H2901 H 0.10308 0.20994 0.71646
 H2902 H 0.08296 0.22053 0.72618
 H2903 H 0.05864 0.20320 0.69508
 H2904 H 0.07875 0.19261 0.68537
 C2905 C 0.38594 0.68972 0.31027
 C2906 C 0.39573 0.69479 0.30534
 C2907 C 0.40742 0.70092 0.29952
 C2908 C 0.40619 0.70888 0.28805
 C2909 C 0.41756 0.71489 0.28244
 C2910 C 0.43018 0.71296 0.28828
 C2911 C 0.43140 0.70502 0.29977
 C2912 C 0.42004 0.69901 0.30537
 C2913 C 0.44191 0.71891 0.28238
 C2914 C 0.45180 0.72375 0.27739
 H2915 H 0.39648 0.71042 0.28344
 H2916 H 0.41652 0.72100 0.27355
 H2917 H 0.44113 0.70345 0.30435
 H2918 H 0.42110 0.69286 0.31424
 C2919 C 0.38604 0.18937 0.81034
 C2920 C 0.39576 0.19442 0.80522
 C2921 C 0.40735 0.20049 0.79915
 C2922 C 0.41240 0.19547 0.78710
 C2923 C 0.42367 0.20137 0.78121
 C2924 C 0.42995 0.21232 0.78736
 C2925 C 0.42490 0.21736 0.79941
 C2926 C 0.41362 0.21145 0.80529
 C2927 C 0.44165 0.21826 0.78136
 C2928 C 0.45151 0.22317 0.77639
 H2929 H 0.40763 0.18699 0.78227
 H2930 H 0.42752 0.19739 0.77191
 H2931 H 0.42969 0.22581 0.80426
 H2932 H 0.40980 0.21541 0.81462
 C2933 C 0.88622 0.68958 0.81050
 C2934 C 0.89598 0.69470 0.80554
 C2935 C 0.90763 0.70087 0.79969
 C2936 C 0.92028 0.69901 0.80551
 C2937 C 0.93160 0.70507 0.79987
 C2938 C 0.93031 0.71300 0.78839
 C2939 C 0.91766 0.71489 0.78259
 C2940 C 0.90634 0.70883 0.78823
 C2941 C 0.94200 0.71898 0.78242
 C2942 C 0.95186 0.72383 0.77739
 H2943 H 0.92139 0.69287 0.81437
 H2944 H 0.94134 0.70354 0.80442
 H2945 H 0.91656 0.72100 0.77371
 H2946 H 0.89660 0.71032 0.78365
 C2947 C 0.88621 0.18967 0.31002
 C2948 C 0.89599 0.19481 0.30511
 C2949 C 0.90766 0.20103 0.29932
 C2950 C 0.90642 0.20900 0.28786
 C2951 C 0.91777 0.21500 0.28221
 C2952 C 0.93042 0.21306 0.28802
 C2953 C 0.93166 0.20517 0.29952
 C2954 C 0.92030 0.19917 0.30517
 C2955 C 0.94215 0.21901 0.28209
 C2956 C 0.95205 0.22386 0.27713
 H2957 H 0.89669 0.21056 0.28329
 H2958 H 0.91671 0.22110 0.27331
 H2959 H 0.94139 0.20362 0.30410
 H2960 H 0.92138 0.19308 0.31407
 C2961 C 0.31018 0.31051 0.61363
 C2962 C 0.30505 0.30560 0.60389
 C2963 C 0.29888 0.29978 0.59227
 C2964 C 0.29613 0.30780 0.58110
 C2965 C 0.29016 0.30215 0.56979
 C2966 C 0.28692 0.28847 0.56961
 C2967 C 0.28963 0.28046 0.58078
 C2968 C 0.29560 0.28611 0.59210
 C2969 C 0.28099 0.28262 0.55789
 C2970 C 0.27618 0.27770 0.54801
 H2971 H 0.29861 0.31839 0.58113
 H2972 H 0.28813 0.30843 0.56119
 H2973 H 0.28718 0.26986 0.58073
 H2974 H 0.29767 0.27981 0.60067
 C2975 C 0.31016 0.81057 0.11359
 C2976 C 0.30507 0.80567 0.10383
 C2977 C 0.29899 0.79984 0.09216
 C2978 C 0.29694 0.80767 0.08071
 C2979 C 0.29109 0.80198 0.06935
 C2980 C 0.28727 0.78844 0.06939
 C2981 C 0.28928 0.78063 0.08086
 C2982 C 0.29512 0.78632 0.09221
 C2983 C 0.28148 0.78251 0.05762
 C2984 C 0.27674 0.77753 0.04771
 H2985 H 0.29988 0.81814 0.08056
 H2986 H 0.28960 0.80812 0.06054
 H2987 H 0.28637 0.77015 0.08100
 H2988 H 0.29664 0.78018 0.10101
 C2989 C 0.81039 0.31033 0.11335
 C2990 C 0.80546 0.30530 0.10357
 C2991 C 0.79962 0.29927 0.09188
 C2992 C 0.79936 0.30635 0.07979
 C2993 C 0.79372 0.30048 0.06843
 C2994 C 0.78830 0.28752 0.06909
 C2995 C 0.78857 0.28043 0.08118
 C2996 C 0.79421 0.28630 0.09255
 C2997 C 0.78238 0.28156 0.05739
 C2998 C 0.77741 0.27673 0.04752
 H2999 H 0.80352 0.31638 0.07916
 H3000 H 0.79359 0.30605 0.05914
 H3001 H 0.78442 0.27040 0.08181
 H3002 H 0.79436 0.28074 0.10184
 C3003 C 0.81028 0.81048 0.61369
 C3004 C 0.80535 0.80543 0.60392
 C3005 C 0.79950 0.79938 0.59224
 C3006 C 0.79445 0.78626 0.59283
 C3007 C 0.78880 0.78038 0.58147
 C3008 C 0.78816 0.78759 0.56948
 C3009 C 0.79324 0.80070 0.56888
 C3010 C 0.79889 0.80658 0.58023
 C3011 C 0.78224 0.78161 0.55780
 C3012 C 0.77726 0.77676 0.54795
 H3013 H 0.79489 0.78060 0.60205
 H3014 H 0.78492 0.77023 0.58205
 H3015 H 0.79281 0.80636 0.55966
 H3016 H 0.80277 0.81672 0.57965
 C3017 C 0.31030 0.68985 0.38610
 C3018 C 0.30540 0.69499 0.39584
 C3019 C 0.29958 0.70114 0.40749
 C3020 C 0.28999 0.69418 0.41503
 C3021 C 0.28438 0.70010 0.42637
 C3022 C 0.28831 0.71303 0.43024
 C3023 C 0.29788 0.72002 0.42270
 C3024 C 0.30350 0.71409 0.41134
 C3025 C 0.28253 0.71904 0.44197
 C3026 C 0.27760 0.72387 0.45185
 H3027 H 0.28688 0.68417 0.41214
 H3028 H 0.27699 0.69461 0.43214
 H3029 H 0.30099 0.73002 0.42560
 H3030 H 0.31089 0.71957 0.40558
 C3031 C 0.31053 0.18977 0.88634
 C3032 C 0.30568 0.19490 0.89611
 C3033 C 0.29994 0.20102 0.90780
 C3034 C 0.30377 0.21401 0.91156
 C3035 C 0.29825 0.21991 0.92299
 C3036 C 0.28886 0.21284 0.93067
 C3037 C 0.28503 0.19985 0.92690
 C3038 C 0.29055 0.19396 0.91548
 C3039 C 0.28318 0.21885 0.94246
 C3040 C 0.27836 0.22370 0.95239
 H3041 H 0.31103 0.21956 0.90569
 H3042 H 0.30132 0.22994 0.92583
 H3043 H 0.27781 0.19428 0.93279
 H3044 H 0.28752 0.18391 0.91266
 C3045 C 0.81058 0.68984 0.88619
 C3046 C 0.80573 0.69497 0.89596
 C3047 C 0.79999 0.70109 0.90765
 C3048 C 0.80384 0.71408 0.91142
 C3049 C 0.79832 0.71998 0.92283
 C3050 C 0.78891 0.71293 0.93051
 C3051 C 0.78508 0.69993 0.92675
 C3052 C 0.79060 0.69403 0.91534
 C3053 C 0.78320 0.71895 0.94227
 C3054 C 0.77835 0.72379 0.95219
 H3055 H 0.81110 0.71962 0.90555
 H3056 H 0.80139 0.73001 0.92568
 H3057 H 0.77786 0.69437 0.93264
 H3058 H 0.78757 0.68398 0.91252
 C3059 C 0.81066 0.18967 0.38606
 C3060 C 0.80576 0.19472 0.39585
 C3061 C 0.79992 0.20073 0.40756
 C3062 C 0.79052 0.19358 0.41515
 C3063 C 0.78481 0.19941 0.42651
 C3064 C 0.78848 0.21243 0.43035
 C3065 C 0.79793 0.21957 0.42279
 C3066 C 0.80364 0.21373 0.41142
 C3067 C 0.78262 0.21836 0.44210
 C3068 C 0.77767 0.22316 0.45201
 H3069 H 0.78762 0.18350 0.41230
 H3070 H 0.77755 0.19378 0.43229
 H3071 H 0.80088 0.22962 0.42568
 H3072 H 0.81095 0.21933 0.40567
 C3073 C 0.68963 0.30998 0.38637
 C3074 C 0.69454 0.30484 0.39611
 C3075 C 0.70035 0.29868 0.40775
 C3076 C 0.70042 0.30555 0.41994
 C3077 C 0.70609 0.29959 0.43125
 C3078 C 0.71171 0.28671 0.43043
 C3079 C 0.71162 0.27982 0.41825
 C3080 C 0.70594 0.28579 0.40693
 C3081 C 0.71764 0.28068 0.44207
 C3082 C 0.72263 0.27582 0.45192
 H3083 H 0.69612 0.31552 0.42070
 H3084 H 0.70612 0.30501 0.44062
 H3085 H 0.71594 0.26986 0.41750
 H3086 H 0.70592 0.28038 0.39756
 C3087 C 0.68927 0.81010 0.88641
 C3088 C 0.69414 0.80497 0.89617
 C3089 C 0.69990 0.79883 0.90785
 C3090 C 0.70553 0.78596 0.90709
 C3091 C 0.71113 0.78001 0.91845
 C3092 C 0.71112 0.78691 0.93063
 C3093 C 0.70546 0.79978 0.93139
 C3094 C 0.69987 0.80572 0.92003
 C3095 C 0.71697 0.78089 0.94233
 C3096 C 0.72189 0.77604 0.95222
 H3097 H 0.70561 0.78054 0.89772
 H3098 H 0.71548 0.77006 0.91774
 H3099 H 0.70539 0.80521 0.94075
 H3100 H 0.69553 0.81567 0.92073
 C3101 C 0.18909 0.31007 0.88678
 C3102 C 0.19395 0.30492 0.89653
 C3103 C 0.19971 0.29873 0.90818
 C3104 C 0.21084 0.29022 0.90693
 C3105 C 0.21646 0.28424 0.91826
 C3106 C 0.21096 0.28673 0.93089
 C3107 C 0.19979 0.29520 0.93213
 C3108 C 0.19418 0.30118 0.92080
 C3109 C 0.21686 0.28077 0.94259
 C3110 C 0.22181 0.27596 0.95248
 H3111 H 0.21518 0.28825 0.89721
 H3112 H 0.22510 0.27772 0.91718
 H3113 H 0.19546 0.29721 0.94184
 H3114 H 0.18555 0.30773 0.92188
 C3115 C 0.18928 0.81024 0.38616
 C3116 C 0.19421 0.80518 0.39593
 C3117 C 0.20007 0.79914 0.40762
 C3118 C 0.20151 0.80666 0.41933
 C3119 C 0.20722 0.80082 0.43069
 C3120 C 0.21153 0.78742 0.43039
 C3121 C 0.21004 0.77988 0.41869
 C3122 C 0.20432 0.78573 0.40733
 C3123 C 0.21752 0.78148 0.44207
 C3124 C 0.22254 0.77665 0.45193
 H3125 H 0.19824 0.81703 0.41968
 H3126 H 0.20830 0.80674 0.43969
 H3127 H 0.21330 0.76951 0.41834
 H3128 H 0.20324 0.77981 0.39833
 C3129 C 0.68953 0.69010 0.61416
 C3130 C 0.69441 0.69521 0.60438
 C3131 C 0.70022 0.70131 0.59269
 C3132 C 0.69578 0.71395 0.58838
 C3133 C 0.70139 0.71984 0.57699
 C3134 C 0.71147 0.71313 0.56987
 C3135 C 0.71591 0.70050 0.57419
 C3136 C 0.71031 0.69461 0.58558
 C3137 C 0.71725 0.71911 0.55812
 C3138 C 0.72217 0.72393 0.54822
 H3139 H 0.68799 0.71922 0.59380
 H3140 H 0.69787 0.72960 0.57372
 H3141 H 0.72368 0.69521 0.56875
 H3142 H 0.71382 0.68484 0.58881
 C3143 C 0.68980 0.18956 0.11334
 C3144 C 0.69471 0.19471 0.10360
 C3145 C 0.70055 0.20088 0.09196
 C3146 C 0.71067 0.19425 0.08484
 C3147 C 0.71632 0.20024 0.07353
 C3148 C 0.71187 0.21289 0.06928
 C3149 C 0.70175 0.21954 0.07641
 C3150 C 0.69610 0.21354 0.08773
 C3151 C 0.71764 0.21894 0.05756
 C3152 C 0.72256 0.22380 0.04768
 H3153 H 0.71419 0.18446 0.08802
 H3154 H 0.72413 0.19502 0.06809
 H3155 H 0.69822 0.22932 0.07321
 H3156 H 0.68827 0.21876 0.09316
 C3157 C 0.18992 0.68942 0.11359
 C3158 C 0.19506 0.69431 0.10383
 C3159 C 0.20123 0.70014 0.09218
 C3160 C 0.21151 0.69329 0.08548
 C3161 C 0.21748 0.69897 0.07416
 C3162 C 0.21320 0.71153 0.06950
 C3163 C 0.20292 0.71837 0.07620
 C3164 C 0.19695 0.71270 0.08750
 C3165 C 0.21920 0.71735 0.05777
 C3166 C 0.22404 0.72231 0.04790
 H3167 H 0.21489 0.68356 0.08899
 H3168 H 0.22540 0.69357 0.06905
 H3169 H 0.19952 0.72808 0.07266
 H3170 H 0.18901 0.71808 0.09258
 C3171 C 0.18960 0.18892 0.61375
 C3172 C 0.19469 0.19381 0.60397
 C3173 C 0.20080 0.19962 0.59230
 C3174 C 0.19417 0.19912 0.57998
 C3175 C 0.20011 0.20477 0.56865
 C3176 C 0.21271 0.21095 0.56957
 C3177 C 0.21936 0.21143 0.58188
 C3178 C 0.21342 0.20577 0.59322
 C3179 C 0.21873 0.21685 0.55790
 C3180 C 0.22360 0.22181 0.54804
 H3181 H 0.18442 0.19437 0.57915
 H3182 H 0.19488 0.20435 0.55918
 H3183 H 0.22910 0.21618 0.58271
 H3184 H 0.21864 0.20620 0.60269
   
