data_POSCAR
  _audit_creation_date              2014-09-24
  _audit_creation_method            'ToBaCCo'
  _symmetry_space_group_name_H-M    'P1'
  _symmetry_Int_Tables_number       1
  _symmetry_cell_setting            triclinic
  loop_
  _symmetry_equiv_pos_as_xyz
 x,y,z
_cell_length_a 35.4330
_cell_length_b 36.0301
_cell_length_c 47.2194
_cell_angle_alpha 90.000500
_cell_angle_beta 90.000400
_cell_angle_gamma 90.000100
loop_
  _atom_site_label
  _atom_site_type_symbol
  _atom_site_fract_x
  _atom_site_fract_y
  _atom_site_fract_z
B1 B 0.27166 0.23834 0.27883
 B2 B 0.22696 0.22754 0.27183
 B3 B 0.23872 0.27128 0.27887
 B4 B 0.28152 0.28029 0.26490
 B5 B 0.29589 0.24030 0.24846
 B6 B 0.26175 0.20729 0.25319
 B7 B 0.23115 0.26410 0.22288
 B8 B 0.27583 0.27487 0.22991
 B9 B 0.26411 0.23113 0.22284
 B10 B 0.22129 0.22213 0.23680
 B11 B 0.20692 0.26212 0.25327
 B12 B 0.24106 0.29513 0.24853
 B13 B 0.73589 0.76889 0.22286
 B14 B 0.72417 0.72516 0.22992
 B15 B 0.76885 0.73592 0.22290
 B16 B 0.77871 0.77789 0.23682
 B17 B 0.73826 0.79274 0.25321
 B18 B 0.70412 0.75973 0.24848
 B19 B 0.76128 0.72874 0.27889
 B20 B 0.77304 0.77248 0.27184
 B21 B 0.72835 0.76168 0.27885
 B22 B 0.71848 0.71973 0.26492
 B23 B 0.75893 0.70489 0.24854
 B24 B 0.79308 0.73790 0.25328
 B25 B 0.73593 0.23107 -0.22284
 B26 B 0.72420 0.27481 -0.22988
 B27 B 0.76889 0.26405 -0.22288
 B28 B 0.77875 0.22208 -0.23682
 B29 B 0.73829 0.20725 -0.25321
 B30 B 0.70414 0.24025 -0.24845
 B31 B 0.76128 0.27127 -0.27886
 B32 B 0.77306 0.22752 -0.27184
 B33 B 0.72836 0.23832 -0.27882
 B34 B 0.71849 0.28026 -0.26488
 B35 B 0.75895 0.29509 -0.24851
 B36 B 0.79310 0.26209 -0.25327
 B37 B 0.27166 0.76167 -0.27884
 B38 B 0.22697 0.77248 -0.27185
 B39 B 0.23872 0.72873 -0.27889
 B40 B 0.28151 0.71971 -0.26491
 B41 B 0.29589 0.75971 -0.24847
 B42 B 0.26175 0.79272 -0.25321
 B43 B 0.23114 0.73591 -0.22290
 B44 B 0.27582 0.72514 -0.22992
 B45 B 0.26410 0.76888 -0.22285
 B46 B 0.22129 0.77789 -0.23682
 B47 B 0.20692 0.73790 -0.25329
 B48 B 0.24105 0.70488 -0.24855
 B49 B 1.23114 1.26409 0.77711
 B50 B 1.27583 1.27485 0.77010
 B51 B 1.26410 1.23112 0.77716
 B52 B 1.22129 1.22212 0.76319
 B53 B 1.20692 1.26211 0.74673
 B54 B 1.24106 1.29512 0.75147
 B55 B 1.27166 1.23834 0.72117
 B56 B 1.22696 1.22753 0.72817
 B57 B 1.23872 1.27128 0.72113
 B58 B 1.28152 1.28029 0.73510
 B59 B 1.29588 1.24029 0.75154
 B60 B 1.26174 1.20728 0.74680
 B61 B 0.76886 0.73592 0.77710
 B62 B 0.72417 0.72516 0.77008
 B63 B 0.73589 0.76889 0.77715
 B64 B 0.77871 0.77790 0.76318
 B65 B 0.79309 0.73791 0.74672
 B66 B 0.75894 0.70490 0.75145
 B67 B 0.72835 0.76169 0.72115
 B68 B 0.77304 0.77249 0.72816
 B69 B 0.76128 0.72874 0.72111
 B70 B 0.71849 0.71973 0.73508
 B71 B 0.70412 0.75973 0.75152
 B72 B 0.73826 0.79274 0.74679
 B73 B 1.23114 0.73591 0.22290
 B74 B 1.27583 0.72513 0.22991
 B75 B 1.26411 0.76887 0.22285
 B76 B 1.22130 0.77788 0.23682
 B77 B 1.20692 0.73789 0.25328
 B78 B 1.24106 0.70488 0.24854
 B79 B 1.27167 0.76165 0.27884
 B80 B 1.22697 0.77246 0.27184
 B81 B 1.23873 0.72872 0.27888
 B82 B 1.28152 0.71970 0.26491
 B83 B 1.29589 0.75970 0.24847
 B84 B 1.26176 0.79271 0.25321
 B85 B 0.76127 1.27127 0.27888
 B86 B 0.77302 1.22753 0.27184
 B87 B 0.72833 1.23834 0.27883
 B88 B 0.71848 1.28029 0.26491
 B89 B 0.75893 1.29512 0.24854
 B90 B 0.79307 1.26210 0.25328
 B91 B 0.73588 1.23112 0.22284
 B92 B 0.72416 1.27486 0.22991
 B93 B 0.76885 1.26409 0.22289
 B94 B 0.77870 1.22211 0.23681
 B95 B 0.73824 1.20728 0.25320
 B96 B 0.70410 1.24029 0.24846
 N97 N 0.56720 1.03900 0.03064
 N98 N 0.59447 1.06243 0.03736
 N99 N 0.54081 0.96097 0.05022
 N100 N 0.54948 0.93751 0.07070
 N101 N 0.56719 0.96098 0.03064
 N102 N 0.59447 0.93755 0.03737
 N103 N 0.54081 1.03902 0.05021
 N104 N 0.54948 1.06248 0.07069
 C105 C 0.58256 1.07737 0.06206
 C106 C 0.58255 0.92262 0.06207
 N107 N 0.43279 0.96099 0.03064
 N108 N 0.40551 0.93756 0.03737
 N109 N 0.45917 1.03902 0.05022
 N110 N 0.45051 1.06249 0.07069
 N111 N 0.43279 1.03900 0.03064
 N112 N 0.40552 1.06244 0.03736
 N113 N 0.45917 0.96097 0.05022
 N114 N 0.45051 0.93751 0.07070
 Mn115 Mn 0.49999 0.99999 0.05040
 C116 C 0.41743 0.92263 0.06207
 C117 C 0.41744 1.07737 0.06206
 N118 N 0.56719 0.96097 -0.03064
 N119 N 0.59447 0.93754 -0.03736
 N120 N 0.54081 1.03901 -0.05022
 N121 N 0.54947 1.06246 -0.07070
 N122 N 0.56719 1.03899 -0.03064
 N123 N 0.59447 1.06242 -0.03737
 N124 N 0.54081 0.96095 -0.05021
 N125 N 0.54947 0.93749 -0.07069
 Mn126 Mn 0.56745 0.99999 -0.00000
 C127 C 0.58255 0.92261 -0.06206
 C128 C 0.58255 1.07734 -0.06208
 N129 N 0.43279 1.03900 -0.03064
 N130 N 0.40552 1.06243 -0.03736
 N131 N 0.45917 0.96096 -0.05021
 N132 N 0.45050 0.93749 -0.07069
 N133 N 0.43279 0.96098 -0.03063
 N134 N 0.40551 0.93755 -0.03736
 N135 N 0.45917 1.03901 -0.05022
 N136 N 0.45051 1.06247 -0.07070
 Mn137 Mn 0.43253 0.99999 0.00000
 Mn138 Mn 0.49999 0.99998 -0.05040
 Cl139 Cl 0.49999 0.99999 0.00000
 C140 C 0.41744 1.07736 -0.06207
 C141 C 0.41743 0.92261 -0.06206
 N142 N 0.96031 0.54003 0.44989
 N143 N 0.93538 0.54766 0.42995
 N144 N 1.03969 0.56604 0.46939
 N145 N 1.06462 0.59209 0.46317
 N146 N 1.03968 0.54002 0.44988
 N147 N 1.06461 0.54765 0.42995
 N148 N 0.96031 0.56605 0.46939
 N149 N 0.93538 0.59211 0.46318
 C150 C 0.91966 0.57980 0.43882
 C151 C 1.08033 0.57978 0.43881
 N152 N 1.03969 0.54003 0.55012
 N153 N 1.06462 0.54765 0.57005
 N154 N 0.96031 0.56605 0.53061
 N155 N 0.93539 0.59211 0.53683
 N156 N 0.96031 0.54004 0.55012
 N157 N 0.93539 0.54767 0.57005
 N158 N 1.03970 0.56604 0.53061
 N159 N 1.06463 0.59210 0.53682
 Mn160 Mn 1.00000 0.56639 0.50000
 C161 C 1.08034 0.57979 0.56118
 C162 C 0.91967 0.57980 0.56119
 N163 N 1.03968 0.45995 0.44989
 N164 N 1.06460 0.45232 0.42995
 N165 N 0.96029 0.43394 0.46940
 N166 N 0.93536 0.40789 0.46318
 N167 N 0.96030 0.45995 0.44989
 N168 N 0.93537 0.45233 0.42996
 N169 N 1.03968 0.43393 0.46939
 N170 N 1.06460 0.40787 0.46318
 Mn171 Mn 0.99999 0.49999 0.44967
 C172 C 1.08032 0.42018 0.43881
 C173 C 0.91965 0.42020 0.43882
 N174 N 0.96031 0.45996 0.55012
 N175 N 0.93538 0.45234 0.57006
 N176 N 1.03968 0.43393 0.53061
 N177 N 1.06461 0.40788 0.53683
 N178 N 1.03968 0.45995 0.55012
 N179 N 1.06461 0.45232 0.57005
 N180 N 0.96030 0.43394 0.53062
 N181 N 0.93537 0.40789 0.53683
 Mn182 Mn 1.00000 0.49999 0.55033
 Mn183 Mn 0.99999 0.43359 0.50000
 Cl184 Cl 0.99999 0.49999 0.50000
 C185 C 0.91966 0.42020 0.56120
 C186 C 1.08033 0.42019 0.56119
 N187 N 1.03965 0.45984 -0.05024
 N188 N 1.06329 0.45114 -0.07082
 N189 N 0.96031 0.43394 -0.03063
 N190 N 0.93669 0.40698 -0.03742
 N191 N 0.96028 0.45985 -0.05023
 N192 N 0.93663 0.45115 -0.07080
 N193 N 1.03963 0.43393 -0.03064
 N194 N 1.06324 0.40697 -0.03744
 C195 C 1.07832 0.41855 -0.06221
 C196 C 0.92160 0.41856 -0.06219
 N197 N 0.96031 0.45985 0.05024
 N198 N 0.93667 0.45115 0.07082
 N199 N 1.03964 0.43394 0.03063
 N200 N 1.06325 0.40697 0.03742
 N201 N 1.03967 0.45985 0.05023
 N202 N 1.06332 0.45114 0.07080
 N203 N 0.96033 0.43394 0.03064
 N204 N 0.93672 0.40697 0.03743
 Mn205 Mn 0.99998 0.43370 -0.00000
 C206 C 0.92164 0.41856 0.06221
 C207 C 1.07834 0.41855 0.06219
 N208 N 0.96029 0.54017 -0.05023
 N209 N 0.93664 0.54888 -0.07081
 N210 N 1.03964 0.56608 -0.03064
 N211 N 1.06325 0.59304 -0.03744
 N212 N 1.03966 0.54017 -0.05024
 N213 N 1.06330 0.54887 -0.07082
 N214 N 0.96032 0.56608 -0.03063
 N215 N 0.93672 0.59306 -0.03743
 Mn216 Mn 0.99997 0.50001 -0.05042
 C217 C 0.92163 0.58147 -0.06220
 C218 C 1.07833 0.58146 -0.06221
 N219 N 1.03968 0.54017 0.05023
 N220 N 1.06333 0.54888 0.07080
 N221 N 0.96034 0.56608 0.03063
 N222 N 0.93673 0.59305 0.03743
 N223 N 0.96031 0.54017 0.05024
 N224 N 0.93667 0.54888 0.07081
 N225 N 1.03965 0.56608 0.03063
 N226 N 1.06326 0.59305 0.03742
 Mn227 Mn 0.99999 0.50001 0.05041
 Mn228 Mn 0.99999 0.56632 -0.00000
 Cl229 Cl 0.99998 0.50001 -0.00000
 C230 C 1.07835 0.58146 0.06219
 C231 C 0.92164 0.58147 0.06220
 N232 N 0.56718 1.03907 0.53061
 N233 N 0.59352 1.06378 0.53676
 N234 N 0.54070 0.96099 0.55009
 N235 N 0.54826 0.93629 0.56993
 N236 N 0.56718 0.96098 0.53061
 N237 N 0.59353 0.93627 0.53675
 N238 N 0.54069 1.03905 0.55009
 N239 N 0.54825 1.06375 0.56994
 C240 C 0.58086 1.07931 0.56106
 C241 C 0.58087 0.92073 0.56105
 N242 N 0.43282 0.96096 0.53062
 N243 N 0.40648 0.93625 0.53676
 N244 N 0.45930 1.03904 0.55009
 N245 N 0.45174 1.06374 0.56993
 N246 N 0.43281 1.03905 0.53062
 N247 N 0.40647 1.06377 0.53676
 N248 N 0.45931 0.96098 0.55010
 N249 N 0.45175 0.93628 0.56994
 Mn250 Mn 0.50000 1.00002 0.55031
 C251 C 0.41914 0.92071 0.56106
 C252 C 0.41913 1.07930 0.56105
 N253 N 0.56718 0.96098 0.46938
 N254 N 0.59352 0.93626 0.46324
 N255 N 0.54068 1.03905 0.44990
 N256 N 0.54824 1.06375 0.43006
 N257 N 0.56717 1.03906 0.46938
 N258 N 0.59351 1.06378 0.46324
 N259 N 0.54069 0.96098 0.44991
 N260 N 0.54825 0.93629 0.43007
 Mn261 Mn 0.56754 1.00002 0.50000
 C262 C 0.58087 0.92073 0.43895
 C263 C 0.58085 1.07932 0.43894
 N264 N 0.43281 1.03905 0.46938
 N265 N 0.40646 1.06376 0.46324
 N266 N 0.45930 0.96098 0.44991
 N267 N 0.45174 0.93628 0.43007
 N268 N 0.43281 0.96096 0.46939
 N269 N 0.40647 0.93625 0.46325
 N270 N 0.45929 1.03904 0.44990
 N271 N 0.45173 1.06373 0.43007
 Mn272 Mn 0.43245 1.00001 0.50000
 Mn273 Mn 0.49999 1.00001 0.44969
 Cl274 Cl 0.49999 1.00001 0.50000
 C275 C 0.41912 1.07930 0.43895
 C276 C 0.41913 0.92071 0.43895
 N277 N 1.06728 1.03896 0.53060
 N278 N 1.09422 1.06262 0.53762
 N279 N 1.04044 0.96111 0.54979
 N280 N 1.04821 0.93742 0.57021
 N281 N 1.06729 0.96110 0.53060
 N282 N 1.09423 0.93745 0.53763
 N283 N 1.04043 1.03896 0.54978
 N284 N 1.04820 1.06264 0.57020
 C285 C 1.08129 1.07766 0.56202
 C286 C 1.08131 0.92241 0.56204
 N287 N 0.93275 0.96108 0.53060
 N288 N 0.90581 0.93743 0.53763
 N289 N 0.95958 1.03894 0.54978
 N290 N 0.95181 1.06263 0.57019
 N291 N 0.93274 1.03894 0.53059
 N292 N 0.90579 1.06259 0.53762
 N293 N 0.95959 0.96109 0.54979
 N294 N 0.95182 0.93742 0.57021
 Mn295 Mn 1.00001 1.00002 0.54994
 C296 C 0.91873 0.92240 0.56204
 C297 C 0.91871 1.07764 0.56202
 N298 N 1.06729 0.96109 0.46940
 N299 N 1.09424 0.93744 0.46237
 N300 N 1.04043 1.03894 0.45021
 N301 N 1.04820 1.06262 0.42978
 N302 N 1.06728 1.03895 0.46939
 N303 N 1.09422 1.06261 0.46236
 N304 N 1.04045 0.96109 0.45021
 N305 N 1.04822 0.93740 0.42980
 Mn306 Mn 1.06771 1.00003 0.50000
 C307 C 1.08132 0.92239 0.43797
 C308 C 1.08129 1.07764 0.43795
 N309 N 0.93274 1.03893 0.46938
 N310 N 0.90579 1.06258 0.46235
 N311 N 0.95960 0.96107 0.45021
 N312 N 0.95183 0.93739 0.42979
 N313 N 0.93275 0.96107 0.46939
 N314 N 0.90581 0.93741 0.46237
 N315 N 0.95959 1.03892 0.45020
 N316 N 0.95181 1.06260 0.42978
 Mn317 Mn 0.93232 1.00001 0.49999
 Mn318 Mn 1.00002 1.00001 0.45005
 Cl319 Cl 1.00001 1.00002 0.49999
 C320 C 0.91871 1.07762 0.43795
 C321 C 0.91874 0.92237 0.43797
 N322 N 0.56723 0.53897 0.03056
 N323 N 0.59404 0.56280 0.03750
 N324 N 0.54039 0.46114 0.04972
 N325 N 0.54799 0.43728 0.07004
 N326 N 0.56727 0.46115 0.03057
 N327 N 0.59409 0.43734 0.03751
 N328 N 0.54035 0.53896 0.04971
 N329 N 0.54794 0.56283 0.07003
 C330 C 0.58096 0.57794 0.06182
 C331 C 0.58103 0.42219 0.06183
 N332 N 0.43278 0.46108 0.03055
 N333 N 0.40597 0.43726 0.03750
 N334 N 0.45961 0.53892 0.04970
 N335 N 0.45200 0.56278 0.07002
 N336 N 0.43275 0.53891 0.03054
 N337 N 0.40591 0.56271 0.03748
 N338 N 0.45965 0.46110 0.04971
 N339 N 0.45206 0.43725 0.07003
 Mn340 Mn 0.50000 0.50003 0.04988
 C341 C 0.41903 0.42213 0.06182
 C342 C 0.41896 0.57787 0.06180
 N343 N 0.56728 0.46114 -0.03055
 N344 N 0.59413 0.43735 -0.03749
 N345 N 0.54037 0.53894 -0.04971
 N346 N 0.54797 0.56279 -0.07004
 N347 N 0.56724 0.53896 -0.03056
 N348 N 0.59405 0.56278 -0.03750
 N349 N 0.54042 0.46111 -0.04970
 N350 N 0.54805 0.43727 -0.07002
 Mn351 Mn 0.56770 0.50005 0.00001
 C352 C 0.58109 0.42219 -0.06181
 C353 C 0.58099 0.57791 -0.06182
 N354 N 0.43276 0.53889 -0.03057
 N355 N 0.40593 0.56270 -0.03752
 N356 N 0.45967 0.46107 -0.04971
 N357 N 0.45208 0.43721 -0.07003
 N358 N 0.43280 0.46107 -0.03056
 N359 N 0.40599 0.43724 -0.03751
 N360 N 0.45963 0.53890 -0.04972
 N361 N 0.45203 0.56275 -0.07005
 Mn362 Mn 0.43233 0.49999 -0.00001
 Mn363 Mn 0.50002 0.50000 -0.04989
 Cl364 Cl 0.50001 0.50002 -0.00000
 C365 C 0.41900 0.57784 -0.06184
 C366 C 0.41906 0.42210 -0.06182
 C367 C 0.31475 1.17650 0.15413
 C368 C 0.35541 1.16795 0.16324
 C369 C 0.37569 1.14914 0.14343
 C370 C 0.35345 1.14064 0.11633
 C371 C 0.33900 1.17852 0.10602
 C372 C 0.31863 1.19741 0.12592
 C373 C 0.29773 1.13873 0.14628
 C374 C 0.31805 1.11989 0.12643
 C375 C 0.29370 1.19633 0.17625
 C376 C 0.27874 1.21192 0.19586
 C377 C 0.37578 1.11964 0.09553
 C378 C 0.39466 1.10106 0.07965
 H379 H 0.36731 1.17611 0.18350
 H380 H 0.40492 1.14120 0.14674
 H381 H 0.34431 1.18952 0.08499
 H382 H 0.30647 1.22458 0.12194
 H383 H 0.27190 1.12780 0.15542
 H384 H 0.30960 1.09281 0.11858
 C385 C 0.81154 0.67424 0.65233
 C386 C 0.79373 0.63730 0.64319
 C387 C 0.81428 0.61869 0.62331
 C388 C 0.85062 0.63886 0.61452
 C389 C 0.87202 0.64561 0.64229
 C390 C 0.85155 0.66416 0.66209
 C391 C 0.81711 0.69618 0.62475
 C392 C 0.83769 0.67755 0.60484
 C393 C 0.79047 0.69390 0.67446
 C394 C 0.77568 0.70950 0.69413
 C395 C 0.87355 0.61844 0.59380
 C396 C 0.89388 0.60104 0.57818
 H397 H 0.76726 0.62676 0.65152
 H398 H 0.80540 0.59221 0.61461
 H399 H 0.90085 0.63667 0.64605
 H400 H 0.86287 0.67109 0.68280
 H401 H 0.80585 0.72381 0.62117
 H402 H 0.84408 0.68924 0.58420
 C403 C 0.68526 0.82352 0.15415
 C404 C 0.68140 0.80262 0.12593
 C405 C 0.66103 0.82150 0.10602
 C406 C 0.64655 0.85938 0.11635
 C407 C 0.68194 0.88014 0.12646
 C408 C 0.70226 0.86130 0.14631
 C409 C 0.64458 0.83204 0.16324
 C410 C 0.62430 0.85085 0.14344
 C411 C 0.70630 0.80370 0.17626
 C412 C 0.72127 0.78811 0.19588
 C413 C 0.62421 0.88037 0.09555
 C414 C 0.60533 0.89894 0.07966
 H415 H 0.69358 0.77546 0.12195
 H416 H 0.65574 0.81051 0.08499
 H417 H 0.69037 0.90723 0.11862
 H418 H 0.72807 0.87225 0.15546
 H419 H 0.63268 0.82387 0.18350
 H420 H 0.59506 0.85877 0.14674
 C421 C 1.18846 0.32577 0.65233
 C422 C 1.14802 0.33470 0.66172
 C423 C 1.12755 0.35324 0.64192
 C424 C 1.14938 0.36113 0.61453
 C425 C 1.16344 0.32298 0.60448
 C426 C 1.18403 0.30436 0.62440
 C427 C 1.20558 0.36332 0.64393
 C428 C 1.18504 0.38191 0.62405
 C429 C 1.20954 0.30611 0.67447
 C430 C 1.22433 0.29052 0.69414
 C431 C 1.12645 0.38155 0.59380
 C432 C 1.10612 0.39894 0.57818
 H433 H 1.13641 0.32701 0.68218
 H434 H 1.09842 0.36142 0.64544
 H435 H 1.15778 0.31164 0.58361
 H436 H 1.19600 0.27707 0.62059
 H437 H 1.23161 0.37426 0.65272
 H438 H 1.19347 0.40880 0.61582
 C439 C 0.68530 1.17639 -0.15416
 C440 C 0.64829 1.16001 -0.16550
 C441 C 0.62800 1.14123 -0.14569
 C442 C 0.64657 1.14056 -0.11636
 C443 C 0.65316 1.18155 -0.10886
 C444 C 0.67355 1.20042 -0.12876
 C445 C 0.70653 1.14334 -0.14127
 C446 C 0.68618 1.12450 -0.12140
 C447 C 0.70636 1.19621 -0.17627
 C448 C 0.72132 1.21182 -0.19587
 C449 C 0.62422 1.11958 -0.09556
 C450 C 0.60534 1.10102 -0.07967
 H451 H 0.63878 1.16299 -0.18724
 H452 H 0.60114 1.12814 -0.15050
 H453 H 0.64282 1.19457 -0.08964
 H454 H 0.68072 1.22957 -0.12655
 H455 H 0.73506 1.13551 -0.14714
 H456 H 0.69731 1.10052 -0.11027
 C457 C 1.18847 0.67421 0.34767
 C458 C 1.14830 0.66456 0.33805
 C459 C 1.12782 0.64602 0.35785
 C460 C 1.14939 0.63884 0.38547
 C461 C 1.16275 0.67732 0.39530
 C462 C 1.18333 0.69595 0.37539
 C463 C 1.20602 0.63703 0.35653
 C464 C 1.18548 0.61843 0.37641
 C465 C 1.20954 0.69387 0.32553
 C466 C 1.22433 0.70947 0.30587
 C467 C 1.12646 0.61841 0.40619
 C468 C 1.10613 0.60102 0.42182
 H469 H 1.13686 0.67178 0.31743
 H470 H 1.09888 0.63736 0.35417
 H471 H 1.15663 0.68888 0.41603
 H472 H 1.19486 0.72345 0.37906
 H473 H 1.23233 0.62634 0.34803
 H474 H 1.19419 0.59179 0.38493
 C475 C 0.31474 0.82349 -0.15414
 C476 C 0.29770 0.86126 -0.14627
 C477 C 0.31802 0.88009 -0.12641
 C478 C 0.35344 0.85936 -0.11633
 C479 C 0.37567 0.85088 -0.14344
 C480 C 0.35539 0.83207 -0.16325
 C481 C 0.31864 0.80257 -0.12594
 C482 C 0.33901 0.82145 -0.10603
 C483 C 0.29369 0.80368 -0.17625
 C484 C 0.27873 0.78809 -0.19587
 C485 C 0.37577 0.88035 -0.09553
 C486 C 0.39465 0.89892 -0.07964
 H487 H 0.27187 0.87218 -0.15540
 H488 H 0.30956 0.90717 -0.11856
 H489 H 0.40490 0.85883 -0.14676
 H490 H 0.36729 0.82393 -0.18351
 H491 H 0.30649 0.77540 -0.12196
 H492 H 0.34433 0.81044 -0.08501
 C493 C 0.81152 0.32577 0.34767
 C494 C 0.81663 0.30403 0.37539
 C495 C 0.83721 0.32266 0.39531
 C496 C 0.85060 0.36114 0.38548
 C497 C 0.81452 0.38156 0.37640
 C498 C 0.79398 0.36296 0.35651
 C499 C 0.85170 0.33540 0.33806
 C500 C 0.87218 0.35394 0.35787
 C501 C 0.79045 0.30611 0.32553
 C502 C 0.77566 0.29052 0.30586
 C503 C 0.87352 0.38156 0.40620
 C504 C 0.89385 0.39896 0.42183
 H505 H 0.80509 0.27654 0.37906
 H506 H 0.84331 0.31111 0.41604
 H507 H 0.80582 0.40821 0.38491
 H508 H 0.76768 0.37366 0.34800
 H509 H 0.86315 0.32817 0.31745
 H510 H 0.90113 0.36258 0.35420
 C511 C 1.17676 0.31536 0.15429
 C512 C 1.13748 0.30020 0.14701
 C513 C 1.11885 0.32071 0.12720
 C514 C 1.14128 0.35443 0.11657
 C515 C 1.17892 0.33841 0.10596
 C516 C 1.19760 0.31784 0.12583
 C517 C 1.17005 0.35582 0.16314
 C518 C 1.15144 0.37629 0.14337
 C519 C 1.19637 0.29409 0.17637
 C520 C 1.21186 0.27894 0.19595
 C521 C 1.12048 0.37693 0.09579
 C522 C 1.10200 0.39586 0.07988
 H523 H 1.12542 0.27544 0.15650
 H524 H 1.09081 0.31350 0.11973
 H525 H 1.18992 0.34286 0.08477
 H526 H 1.22460 0.30467 0.12166
 H527 H 1.17929 0.36744 0.18320
 H528 H 1.14475 0.40541 0.14651
 C529 C 0.67435 0.81236 0.65225
 C530 C 0.63533 0.79706 0.64435
 C531 C 0.61705 0.81770 0.62440
 C532 C 0.63958 0.85163 0.61432
 C533 C 0.67756 0.83593 0.60411
 C534 C 0.69587 0.81525 0.62409
 C535 C 0.66723 0.85266 0.66127
 C536 C 0.64900 0.87323 0.64140
 C537 C 0.69367 0.79116 0.67446
 C538 C 0.70908 0.77625 0.69417
 C539 C 0.61945 0.87464 0.59355
 C540 C 0.60216 0.89499 0.57793
 H541 H 0.62319 0.77213 0.65351
 H542 H 0.58924 0.81045 0.61649
 H543 H 0.68902 0.84064 0.58310
 H544 H 0.72302 0.80224 0.62021
 H545 H 0.67589 0.86410 0.68153
 H546 H 0.64205 0.90227 0.64466
 C547 C 1.17673 0.68466 -0.15432
 C548 C 1.17008 0.64418 -0.16315
 C549 C 1.15147 0.62370 -0.14338
 C550 C 1.14125 0.64558 -0.11659
 C551 C 1.11880 0.67927 -0.12725
 C552 C 1.13743 0.69979 -0.14706
 C553 C 1.19755 0.68222 -0.12584
 C554 C 1.17887 0.66165 -0.10597
 C555 C 1.19634 0.70593 -0.17639
 C556 C 1.21184 0.72108 -0.19597
 C557 C 1.12045 0.62308 -0.09582
 C558 C 1.10198 0.60415 -0.07991
 H559 H 1.17934 0.63255 -0.18320
 H560 H 1.14480 0.59458 -0.14651
 H561 H 1.09075 0.68646 -0.11981
 H562 H 1.12536 0.72452 -0.15657
 H563 H 1.22453 0.69541 -0.12167
 H564 H 1.18986 0.65722 -0.08478
 C565 C 0.67432 1.18768 0.34773
 C566 C 0.66668 1.14754 0.33855
 C567 C 0.64845 1.12696 0.35842
 C568 C 0.63955 1.14842 0.38567
 C569 C 0.61725 1.18265 0.37590
 C570 C 0.63553 1.20329 0.35595
 C571 C 0.69610 1.18432 0.37575
 C572 C 0.67778 1.16364 0.39573
 C573 C 0.69364 1.20887 0.32552
 C574 C 0.70905 1.22378 0.30581
 C575 C 0.61941 1.12541 0.40645
 C576 C 0.60213 1.10506 0.42206
 H577 H 0.67501 1.13618 0.31818
 H578 H 0.64117 1.09802 0.35505
 H579 H 0.58960 1.19011 0.38401
 H580 H 0.62356 1.22842 0.34698
 H581 H 0.72341 1.19704 0.37954
 H582 H 0.68942 1.15864 0.41666
 C583 C 0.82324 0.68466 0.15431
 C584 C 0.86251 0.69983 0.14702
 C585 C 0.88114 0.67931 0.12721
 C586 C 0.85872 0.64559 0.11658
 C587 C 0.82107 0.66160 0.10597
 C588 C 0.80239 0.68217 0.12584
 C589 C 0.82995 0.64420 0.16316
 C590 C 0.84856 0.62373 0.14339
 C591 C 0.80363 0.70593 0.17638
 C592 C 0.78814 0.72108 0.19596
 C593 C 0.87951 0.62308 0.09581
 C594 C 0.89799 0.60416 0.07990
 H595 H 0.87457 0.72458 0.15650
 H596 H 0.90918 0.68652 0.11974
 H597 H 0.81006 0.65714 0.08479
 H598 H 0.77539 0.69534 0.12168
 H599 H 0.82072 0.63258 0.18322
 H600 H 0.85526 0.59461 0.14653
 C601 C 0.32566 1.18768 0.65227
 C602 C 0.33403 1.14777 0.66169
 C603 C 0.35226 1.12719 0.64181
 C604 C 0.36042 1.14840 0.61433
 C605 C 0.38236 1.18309 0.62364
 C606 C 0.36408 1.20373 0.64359
 C607 C 0.30351 1.18364 0.62447
 C608 C 0.32181 1.16295 0.60449
 C609 C 0.30634 1.20887 0.67448
 C610 C 0.29093 1.22377 0.69419
 C611 C 0.38056 1.12539 0.59355
 C612 C 0.39784 1.10504 0.57794
 H613 H 0.32620 1.13657 0.68222
 H614 H 0.36003 1.09841 0.64534
 H615 H 0.40977 1.19082 0.61523
 H616 H 0.37582 1.22914 0.65226
 H617 H 0.27595 1.19592 0.62081
 H618 H 0.30994 1.15751 0.58371
 C619 C 0.82321 0.31533 -0.15427
 C620 C 0.86629 0.31190 -0.15602
 C621 C 0.88489 0.33240 -0.13623
 C622 C 0.85867 0.35442 -0.11655
 C623 C 0.83187 0.32530 -0.10380
 C624 C 0.81318 0.30473 -0.12368
 C625 C 0.81524 0.35714 -0.15621
 C626 C 0.83386 0.37766 -0.13642
 C627 C 0.80363 0.29404 -0.17635
 C628 C 0.78816 0.27888 -0.19594
 C629 C 0.87946 0.37694 -0.09578
 C630 C 0.89793 0.39587 -0.07987
 H631 H 0.88093 0.29476 -0.17141
 H632 H 0.91547 0.33280 -0.13471
 H633 H 0.82784 0.32131 -0.08122
 H634 H 0.79313 0.28314 -0.11813
 H635 H 0.79636 0.36954 -0.17166
 H636 H 0.83095 0.40760 -0.13496
 C637 C 0.32567 0.81232 0.34774
 C638 C 0.30391 0.81565 0.37577
 C639 C 0.32221 0.83634 0.39575
 C640 C 0.36043 0.85160 0.38568
 C641 C 0.35150 0.87305 0.35844
 C642 C 0.33327 0.85247 0.33857
 C643 C 0.36447 0.79673 0.35594
 C644 C 0.38275 0.81738 0.37589
 C645 C 0.30635 0.79112 0.32553
 C646 C 0.29094 0.77621 0.30582
 C647 C 0.38057 0.87461 0.40645
 C648 C 0.39785 0.89496 0.42206
 H649 H 0.27660 0.80291 0.37957
 H650 H 0.31059 0.84132 0.41667
 H651 H 0.35875 0.90200 0.35507
 H652 H 0.32492 0.86383 0.31820
 H653 H 0.37646 0.77162 0.34697
 H654 H 0.41041 0.80994 0.38399
 C655 C 1.17054 1.17106 0.33655
 C656 C 1.14131 1.14209 0.32751
 C657 C 1.12449 1.12465 0.34971
 C658 C 1.13856 1.13791 0.37877
 C659 C 1.13245 1.18007 0.37870
 C660 C 1.14932 1.19755 0.35645
 C661 C 1.19837 1.15011 0.35568
 C662 C 1.18152 1.13263 0.37793
 C663 C 1.18868 1.18972 0.31275
 C664 C 1.20453 1.20563 0.29383
 C665 C 1.11989 1.11845 0.40205
 C666 C 1.10308 1.10075 0.41956
 H667 H 1.13442 1.13582 0.30562
 H668 H 1.10312 1.10337 0.34683
 H669 H 1.11642 1.19488 0.39471
 H670 H 1.14770 1.22737 0.35333
 H671 H 1.22862 1.14912 0.35208
 H672 H 1.19730 1.11670 0.39344
 C673 C 0.66857 0.66963 -0.16457
 C674 C 0.63911 0.64055 -0.17293
 C675 C 0.62275 0.62361 -0.15032
 C676 C 0.63749 0.63744 -0.12160
 C677 C 0.63144 0.67960 -0.12208
 C678 C 0.64785 0.69658 -0.14474
 C679 C 0.69679 0.64901 -0.14554
 C680 C 0.68040 0.63203 -0.12289
 C681 C 0.68623 0.68775 -0.18875
 C682 C 0.70183 0.70337 -0.20788
 C683 C 0.61928 0.61847 -0.09795
 C684 C 0.60268 0.60097 -0.08024
 H685 H 0.63173 0.63386 -0.19465
 H686 H 0.60127 0.60233 -0.15269
 H687 H 0.61581 0.69476 -0.10604
 H688 H 0.64623 0.72634 -0.14819
 H689 H 0.72696 0.64788 -0.14951
 H690 H 0.69648 0.61640 -0.10738
 C691 C 0.82947 1.17107 0.66342
 C692 C 0.80161 1.15025 0.64421
 C693 C 0.81846 1.13277 0.62197
 C694 C 0.86143 1.13791 0.62119
 C695 C 0.87539 1.12454 0.65025
 C696 C 0.85857 1.14198 0.67246
 C697 C 0.85082 1.19754 0.64358
 C698 C 0.86768 1.18006 0.62133
 C699 C 0.81133 1.18973 0.68722
 C700 C 0.79549 1.20563 0.70614
 C701 C 0.88010 1.11846 0.59791
 C702 C 0.89692 1.10075 0.58040
 H703 H 0.77135 1.14935 0.64778
 H704 H 0.80266 1.11693 0.60641
 H705 H 0.89668 1.10319 0.65314
 H706 H 0.86539 1.13564 0.69434
 H707 H 0.85253 1.22735 0.64674
 H708 H 0.88380 1.19485 0.60536
 C709 C 0.33139 0.66959 0.16454
 C710 C 0.36088 0.64054 0.17289
 C711 C 0.37723 0.62359 0.15029
 C712 C 0.36245 0.63739 0.12157
 C713 C 0.36846 0.67956 0.12203
 C714 C 0.35207 0.69654 0.14469
 C715 C 0.30316 0.64894 0.14554
 C716 C 0.31954 0.63196 0.12289
 C717 C 0.31374 0.68772 0.18873
 C718 C 0.29816 0.70334 0.20787
 C719 C 0.38065 0.61842 0.09791
 C720 C 0.39726 0.60092 0.08021
 H721 H 0.36829 0.63387 0.19462
 H722 H 0.39872 0.60233 0.15266
 H723 H 0.38407 0.69472 0.10598
 H724 H 0.35367 0.72630 0.14813
 H725 H 0.27300 0.64780 0.14952
 H726 H 0.30346 0.61630 0.10739
 C727 C 1.17055 0.82896 0.66343
 C728 C 1.14935 0.80248 0.64352
 C729 C 1.13248 0.81996 0.62127
 C730 C 1.13858 0.86213 0.62121
 C731 C 1.18153 0.86742 0.62207
 C732 C 1.19838 0.84994 0.64431
 C733 C 1.14132 0.85792 0.67247
 C734 C 1.12450 0.87537 0.65028
 C735 C 1.18869 0.81030 0.68723
 C736 C 1.20454 0.79439 0.70615
 C737 C 1.11991 0.88159 0.59794
 C738 C 1.10310 0.89930 0.58042
 H739 H 1.14774 0.77266 0.64663
 H740 H 1.11646 0.80516 0.60525
 H741 H 1.19731 0.88336 0.60656
 H742 H 1.22863 0.85094 0.64792
 H743 H 1.13441 0.86418 0.69436
 H744 H 1.10312 0.89664 0.65316
 C745 C 0.66859 0.33042 0.16456
 C746 C 0.63911 0.35948 0.17292
 C747 C 0.62276 0.37644 0.15032
 C748 C 0.63752 0.36264 0.12159
 C749 C 0.63150 0.32048 0.12205
 C750 C 0.64789 0.30348 0.14470
 C751 C 0.69681 0.35107 0.14555
 C752 C 0.68043 0.36806 0.12290
 C753 C 0.68624 0.31228 0.18874
 C754 C 0.70183 0.29666 0.20787
 C755 C 0.61932 0.38162 0.09794
 C756 C 0.60272 0.39913 0.08024
 H757 H 0.63171 0.36615 0.19464
 H758 H 0.60127 0.39771 0.15269
 H759 H 0.61587 0.30532 0.10600
 H760 H 0.64628 0.27372 0.14814
 H761 H 0.72698 0.35220 0.14953
 H762 H 0.69652 0.38372 0.10741
 C763 C 0.82948 0.82894 0.33657
 C764 C 0.80166 0.84991 0.35570
 C765 C 0.81851 0.86739 0.37794
 C766 C 0.86146 0.86210 0.37879
 C767 C 0.87554 0.87535 0.34973
 C768 C 0.85872 0.85791 0.32753
 C769 C 0.85069 0.80245 0.35647
 C770 C 0.86756 0.81993 0.37873
 C771 C 0.81134 0.81029 0.31277
 C772 C 0.79548 0.79439 0.29385
 C773 C 0.88013 0.88155 0.40207
 C774 C 0.89695 0.89926 0.41958
 H775 H 0.77140 0.85091 0.35209
 H776 H 0.80273 0.88332 0.39345
 H777 H 0.89692 0.89661 0.34684
 H778 H 0.86562 0.86417 0.30564
 H779 H 0.85230 0.77263 0.35336
 H780 H 0.88358 0.80512 0.39474
 C781 C 0.33145 0.33038 -0.16455
 C782 C 0.35209 0.30341 -0.14468
 C783 C 0.36850 0.32039 -0.12203
 C784 C 0.36255 0.36257 -0.12159
 C785 C 0.31965 0.36806 -0.12291
 C786 C 0.30325 0.35108 -0.14556
 C787 C 0.36098 0.35939 -0.17292
 C788 C 0.37735 0.37633 -0.15032
 C789 C 0.31378 0.31226 -0.18873
 C790 C 0.29817 0.29665 -0.20786
 C791 C 0.38077 0.38154 -0.09794
 C792 C 0.39737 0.39904 -0.08024
 H793 H 0.35365 0.27365 -0.14811
 H794 H 0.38409 0.30523 -0.10597
 H795 H 0.30358 0.38375 -0.10743
 H796 H 0.27309 0.35226 -0.14955
 H797 H 0.36840 0.36604 -0.19464
 H798 H 0.39887 0.39756 -0.15269
 C799 C 1.17674 0.31535 -0.15430
 C800 C 1.17000 0.35580 -0.16316
 C801 C 1.15139 0.37628 -0.14340
 C802 C 1.14125 0.35442 -0.11658
 C803 C 1.17891 0.33844 -0.10598
 C804 C 1.19760 0.31786 -0.12584
 C805 C 1.13747 0.30017 -0.14700
 C806 C 1.11884 0.32068 -0.12719
 C807 C 1.19635 0.29408 -0.17637
 C808 C 1.21185 0.27893 -0.19595
 C809 C 1.12045 0.37693 -0.09581
 C810 C 1.10198 0.39586 -0.07990
 H811 H 1.17922 0.36741 -0.18323
 H812 H 1.14467 0.40539 -0.14655
 H813 H 1.18992 0.34291 -0.08480
 H814 H 1.22460 0.30471 -0.12168
 H815 H 1.12542 0.27540 -0.15648
 H816 H 1.09081 0.31346 -0.11972
 C817 C 0.67435 0.81235 0.34775
 C818 C 0.63554 0.79677 0.35593
 C819 C 0.61726 0.81741 0.37588
 C820 C 0.63958 0.85162 0.38568
 C821 C 0.64853 0.87309 0.35845
 C822 C 0.66677 0.85251 0.33858
 C823 C 0.69610 0.81567 0.37578
 C824 C 0.67779 0.83635 0.39576
 C825 C 0.69367 0.79116 0.32554
 C826 C 0.70908 0.77625 0.30583
 C827 C 0.61944 0.87463 0.40645
 C828 C 0.60216 0.89498 0.42206
 H829 H 0.62355 0.77167 0.34695
 H830 H 0.58959 0.80998 0.38397
 H831 H 0.64129 0.90204 0.35509
 H832 H 0.67513 0.86387 0.31822
 H833 H 0.72340 0.80292 0.37958
 H834 H 0.68940 0.84133 0.41669
 C835 C 0.82324 0.68467 -0.15430
 C836 C 0.82985 0.64419 -0.16312
 C837 C 0.84846 0.62371 -0.14335
 C838 C 0.85871 0.64560 -0.11658
 C839 C 0.82111 0.66170 -0.10594
 C840 C 0.80243 0.68227 -0.12582
 C841 C 0.86255 0.69978 -0.14707
 C842 C 0.88118 0.67926 -0.12726
 C843 C 0.80363 0.70594 -0.17638
 C844 C 0.78814 0.72109 -0.19596
 C845 C 0.87950 0.62309 -0.09580
 C846 C 0.89797 0.60417 -0.07989
 H847 H 0.82056 0.63255 -0.18316
 H848 H 0.85510 0.59457 -0.14647
 H849 H 0.81013 0.65730 -0.08475
 H850 H 0.77546 0.69549 -0.12164
 H851 H 0.87464 0.72449 -0.15659
 H852 H 0.90924 0.68643 -0.11983
 C853 C 0.32565 1.18767 0.34774
 C854 C 0.33322 1.14751 0.33857
 C855 C 0.35145 1.12693 0.35844
 C856 C 0.36041 1.14840 0.38567
 C857 C 0.32221 1.16368 0.39575
 C858 C 0.30390 1.18437 0.37577
 C859 C 0.36446 1.20324 0.35592
 C860 C 0.38274 1.18260 0.37587
 C861 C 0.30633 1.20887 0.32552
 C862 C 0.29092 1.22378 0.30581
 C863 C 0.38055 1.12539 0.40645
 C864 C 0.39783 1.10504 0.42206
 H865 H 0.32486 1.13615 0.31821
 H866 H 0.35869 1.09798 0.35508
 H867 H 0.31059 1.15871 0.41668
 H868 H 0.27660 1.19712 0.37957
 H869 H 0.37646 1.22834 0.34693
 H870 H 0.41041 1.19003 0.38396
 C871 C 1.17675 0.68466 0.15430
 C872 C 1.13744 0.69977 0.14706
 C873 C 1.11881 0.67926 0.12725
 C874 C 1.14127 0.64559 0.11658
 C875 C 1.15151 0.62370 0.14335
 C876 C 1.17012 0.64418 0.16312
 C877 C 1.19756 0.68225 0.12582
 C878 C 1.17888 0.66168 0.10595
 C879 C 1.19635 0.70593 0.17638
 C880 C 1.21185 0.72108 0.19596
 C881 C 1.12048 0.62308 0.09580
 C882 C 1.10201 0.60416 0.07988
 H883 H 1.12535 0.72449 0.15658
 H884 H 1.09075 0.68644 0.11981
 H885 H 1.14487 0.59456 0.14647
 H886 H 1.17940 0.63254 0.18316
 H887 H 1.22453 0.69546 0.12165
 H888 H 1.18986 0.65727 0.08475
 C889 C 0.67434 1.18767 0.65227
 C890 C 0.63543 1.20312 0.64422
 C891 C 0.61715 1.18248 0.62427
 C892 C 0.63958 1.14840 0.61433
 C893 C 0.64875 1.12687 0.64149
 C894 C 0.66698 1.14744 0.66137
 C895 C 0.69599 1.18456 0.62418
 C896 C 0.67767 1.16388 0.60419
 C897 C 0.69367 1.20886 0.67448
 C898 C 0.70908 1.22377 0.69419
 C899 C 0.61944 1.12539 0.59356
 C900 C 0.60215 1.10505 0.57794
 H901 H 0.62337 1.22813 0.65329
 H902 H 0.58942 1.18982 0.61627
 H903 H 0.64165 1.09787 0.64480
 H904 H 0.67548 1.13604 0.68168
 H905 H 0.72322 1.19743 0.62034
 H906 H 0.68922 1.15903 0.58322
 C907 C 0.82324 0.31535 0.15431
 C908 C 0.82990 0.35582 0.16314
 C909 C 0.84851 0.37630 0.14337
 C910 C 0.85872 0.35443 0.11659
 C911 C 0.82110 0.33837 0.10596
 C912 C 0.80242 0.31779 0.12583
 C913 C 0.86254 0.30022 0.14705
 C914 C 0.88117 0.32074 0.12724
 C915 C 0.80364 0.29407 0.17638
 C916 C 0.78814 0.27892 0.19596
 C917 C 0.87951 0.37694 0.09581
 C918 C 0.89798 0.39587 0.07990
 H919 H 0.82063 0.36745 0.18319
 H920 H 0.85517 0.40543 0.14651
 H921 H 0.81011 0.34280 0.08477
 H922 H 0.77544 0.30460 0.12166
 H923 H 0.87462 0.27549 0.15655
 H924 H 0.90923 0.31355 0.11979
 C925 C 0.32568 0.81233 0.65226
 C926 C 0.36447 0.79674 0.64406
 C927 C 0.38275 0.81739 0.62412
 C928 C 0.36044 0.85161 0.61433
 C929 C 0.35151 0.87306 0.64157
 C930 C 0.33328 0.85249 0.66144
 C931 C 0.30391 0.81567 0.62424
 C932 C 0.32222 0.83635 0.60426
 C933 C 0.30635 0.79114 0.67447
 C934 C 0.29094 0.77623 0.69418
 C935 C 0.38058 0.87462 0.59355
 C936 C 0.39786 0.89497 0.57794
 H937 H 0.37646 0.77163 0.65304
 H938 H 0.41041 0.80995 0.61602
 H939 H 0.35877 0.90201 0.64493
 H940 H 0.32493 0.86384 0.68180
 H941 H 0.27660 0.80293 0.62044
 H942 H 0.31060 0.84134 0.58333
 C943 C 0.31474 1.17649 -0.15413
 C944 C 0.35542 1.16797 -0.16323
 C945 C 0.37570 1.14916 -0.14343
 C946 C 0.35344 1.14062 -0.11634
 C947 C 0.31806 1.11986 -0.12645
 C948 C 0.29774 1.13870 -0.14630
 C949 C 0.31859 1.19738 -0.12592
 C950 C 0.33896 1.17849 -0.10601
 C951 C 0.29369 1.19631 -0.17625
 C952 C 0.27873 1.21190 -0.19586
 C953 C 0.37578 1.11962 -0.09554
 C954 C 0.39466 1.10105 -0.07965
 H955 H 0.36732 1.17615 -0.18348
 H956 H 0.40494 1.14124 -0.14673
 H957 H 0.30963 1.09276 -0.11862
 H958 H 0.27193 1.12775 -0.15546
 H959 H 0.30641 1.22453 -0.12193
 H960 H 0.34425 1.18948 -0.08498
 C961 C 0.81154 0.67423 0.34768
 C962 C 0.85171 0.66458 0.33805
 C963 C 0.87218 0.64604 0.35786
 C964 C 0.85062 0.63886 0.38548
 C965 C 0.81453 0.61846 0.37642
 C966 C 0.79398 0.63706 0.35654
 C967 C 0.81668 0.69598 0.37539
 C968 C 0.83726 0.67735 0.39530
 C969 C 0.79046 0.69389 0.32554
 C970 C 0.77567 0.70949 0.30587
 C971 C 0.87354 0.61843 0.40620
 C972 C 0.89387 0.60104 0.42183
 H973 H 0.86315 0.67179 0.31743
 H974 H 0.90113 0.63738 0.35418
 H975 H 0.80581 0.59182 0.38494
 H976 H 0.76767 0.62637 0.34804
 H977 H 0.80515 0.72348 0.37906
 H978 H 0.84338 0.68891 0.41603
 C979 C 0.68525 1.17649 0.15413
 C980 C 0.68133 1.19742 0.12593
 C981 C 0.66096 1.17853 0.10603
 C982 C 0.64655 1.14062 0.11633
 C983 C 0.62432 1.14909 0.14344
 C984 C 0.64460 1.16790 0.16325
 C985 C 0.70230 1.13874 0.14626
 C986 C 0.68198 1.11990 0.12640
 C987 C 0.70630 1.19631 0.17625
 C988 C 0.72126 1.21191 0.19587
 C989 C 0.62422 1.11963 0.09553
 C990 C 0.60534 1.10105 0.07965
 H991 H 0.69347 1.22460 0.12196
 H992 H 0.65563 1.18955 0.08501
 H993 H 0.59510 1.14112 0.14677
 H994 H 0.63271 1.17603 0.18352
 H995 H 0.72814 1.12782 0.15538
 H996 H 0.69044 1.09283 0.11854
 C997 C 1.18847 0.67422 0.65232
 C998 C 1.18331 0.69598 0.62461
 C999 C 1.16273 0.67735 0.60470
 C1000 C 1.14939 0.63885 0.61452
 C1001 C 1.12784 0.64601 0.64215
 C1002 C 1.14831 0.66455 0.66195
 C1003 C 1.20604 0.63706 0.64345
 C1004 C 1.18550 0.61846 0.62357
 C1005 C 1.20955 0.69389 0.67446
 C1006 C 1.22433 0.70948 0.69413
 C1007 C 1.12647 0.61842 0.59380
 C1008 C 1.10614 0.60103 0.57817
 H1009 H 1.19483 0.72349 0.62095
 H1010 H 1.15661 0.68891 0.58398
 H1011 H 1.09890 0.63734 0.64583
 H1012 H 1.13688 0.67176 0.68257
 H1013 H 1.23236 0.62637 0.65194
 H1014 H 1.19422 0.59182 0.61504
 C1015 C 0.68525 0.82351 -0.15414
 C1016 C 0.68131 0.80256 -0.12595
 C1017 C 0.66093 0.82144 -0.10605
 C1018 C 0.64654 0.85936 -0.11634
 C1019 C 0.62433 0.85093 -0.14346
 C1020 C 0.64461 0.83212 -0.16327
 C1021 C 0.70231 0.86125 -0.14624
 C1022 C 0.68199 0.88008 -0.12639
 C1023 C 0.70630 0.80369 -0.17626
 C1024 C 0.72126 0.78811 -0.19588
 C1025 C 0.62421 0.88035 -0.09554
 C1026 C 0.60533 0.89892 -0.07965
 H1027 H 0.69343 0.77538 -0.12199
 H1028 H 0.65558 0.81041 -0.08503
 H1029 H 0.59511 0.85891 -0.14679
 H1030 H 0.63272 0.82402 -0.18355
 H1031 H 0.72816 0.87216 -0.15536
 H1032 H 0.69046 0.90714 -0.11851
 C1033 C 1.18846 0.32577 0.34767
 C1034 C 1.14829 0.33544 0.33803
 C1035 C 1.12782 0.35398 0.35784
 C1036 C 1.14937 0.36113 0.38547
 C1037 C 1.18547 0.38152 0.37643
 C1038 C 1.20602 0.36293 0.35655
 C1039 C 1.18329 0.30400 0.37537
 C1040 C 1.16271 0.32262 0.39528
 C1041 C 1.20953 0.30612 0.32552
 C1042 C 1.22433 0.29053 0.30586
 C1043 C 1.12644 0.38155 0.40620
 C1044 C 1.10611 0.39894 0.42182
 H1045 H 1.13686 0.32825 0.31741
 H1046 H 1.09888 0.36265 0.35416
 H1047 H 1.19420 0.40815 0.38497
 H1048 H 1.23234 0.37362 0.34806
 H1049 H 1.19481 0.27649 0.37903
 H1050 H 1.15658 0.31105 0.41600
 C1051 C 0.31474 0.82350 0.15414
 C1052 C 0.31862 0.80259 0.12594
 C1053 C 0.33900 0.82148 0.10603
 C1054 C 0.35344 0.85937 0.11635
 C1055 C 0.37568 0.85087 0.14345
 C1056 C 0.35540 0.83206 0.16325
 C1057 C 0.29771 0.86128 0.14629
 C1058 C 0.31803 0.88012 0.12644
 C1059 C 0.29369 0.80368 0.17626
 C1060 C 0.27873 0.78809 0.19588
 C1061 C 0.37577 0.88037 0.09555
 C1062 C 0.39465 0.89894 0.07966
 H1063 H 0.30647 0.77543 0.12196
 H1064 H 0.34431 0.81048 0.08500
 H1065 H 0.40491 0.85882 0.14676
 H1066 H 0.36730 0.82391 0.18351
 H1067 H 0.27189 0.87221 0.15543
 H1068 H 0.30959 0.90720 0.11859
 C1069 C 0.81153 0.32579 0.65235
 C1070 C 0.85164 0.33560 0.66203
 C1071 C 0.87211 0.35414 0.64222
 C1072 C 0.85061 0.36116 0.61454
 C1073 C 0.81442 0.38148 0.62350
 C1074 C 0.79387 0.36288 0.64339
 C1075 C 0.81683 0.30396 0.62469
 C1076 C 0.83741 0.32259 0.60478
 C1077 C 0.79045 0.30613 0.67449
 C1078 C 0.77567 0.29053 0.69416
 C1079 C 0.87353 0.38158 0.59382
 C1080 C 0.89386 0.39897 0.57819
 H1081 H 0.86304 0.32850 0.68268
 H1082 H 0.90101 0.36291 0.64593
 H1083 H 0.80564 0.40806 0.61491
 H1084 H 0.76750 0.37351 0.65182
 H1085 H 0.80540 0.27641 0.62106
 H1086 H 0.84362 0.31098 0.58408
 C1087 C 1.17053 1.17107 0.66344
 C1088 C 1.14999 1.19766 0.64321
 C1089 C 1.13312 1.18018 0.62095
 C1090 C 1.13856 1.13793 0.62121
 C1091 C 1.12391 1.12522 0.65026
 C1092 C 1.14074 1.14266 0.67246
 C1093 C 1.19826 1.14947 0.64464
 C1094 C 1.18141 1.13200 0.62240
 C1095 C 1.18868 1.18972 0.68724
 C1096 C 1.20453 1.20562 0.70616
 C1097 C 1.11989 1.11848 0.59793
 C1098 C 1.10308 1.10077 0.58041
 H1099 H 1.14882 1.22753 0.64611
 H1100 H 1.11754 1.19505 0.60473
 H1101 H 1.10217 1.10432 0.65313
 H1102 H 1.13347 1.13675 0.69434
 H1103 H 1.22845 1.14805 0.64847
 H1104 H 1.19713 1.11565 0.60710
 C1105 C 0.66855 0.66964 0.16457
 C1106 C 0.64791 0.69661 0.14470
 C1107 C 0.63150 0.67963 0.12204
 C1108 C 0.63746 0.63746 0.12159
 C1109 C 0.62266 0.62369 0.15032
 C1110 C 0.63903 0.64063 0.17292
 C1111 C 0.69676 0.64896 0.14557
 C1112 C 0.68036 0.63198 0.12292
 C1113 C 0.68621 0.68776 0.18875
 C1114 C 0.70182 0.70337 0.20788
 C1115 C 0.61925 0.61850 0.09794
 C1116 C 0.60265 0.60100 0.08024
 H1117 H 0.64634 0.72637 0.14813
 H1118 H 0.61591 0.69481 0.10599
 H1119 H 0.60115 0.60245 0.15268
 H1120 H 0.63161 0.63397 0.19464
 H1121 H 0.72692 0.64778 0.14956
 H1122 H 0.69644 0.61630 0.10743
 C1123 C 1.17057 0.82895 0.33657
 C1124 C 1.14937 0.80247 0.35649
 C1125 C 1.13251 0.81995 0.37874
 C1126 C 1.13860 0.86212 0.37880
 C1127 C 1.12450 0.87535 0.34973
 C1128 C 1.14132 0.85791 0.32753
 C1129 C 1.19840 0.84993 0.35569
 C1130 C 1.18155 0.86742 0.37793
 C1131 C 1.18870 0.81029 0.31277
 C1132 C 1.20455 0.79438 0.29386
 C1133 C 1.11993 0.88158 0.40207
 C1134 C 1.10311 0.89929 0.41958
 H1135 H 1.14777 0.77264 0.35339
 H1136 H 1.11650 0.80515 0.39476
 H1137 H 1.10312 0.89661 0.34685
 H1138 H 1.13441 0.86416 0.30565
 H1139 H 1.22865 0.85094 0.35208
 H1140 H 1.19733 0.88337 0.39344
 C1141 C 0.66870 0.33037 -0.16449
 C1142 C 0.64627 0.36513 -0.17249
 C1143 C 0.62992 0.38212 -0.14990
 C1144 C 0.63764 0.36264 -0.12154
 C1145 C 0.68076 0.36032 -0.11935
 C1146 C 0.69715 0.34328 -0.14199
 C1147 C 0.64073 0.30548 -0.14849
 C1148 C 0.62434 0.32250 -0.12585
 C1149 C 0.68632 0.31221 -0.18867
 C1150 C 0.70188 0.29659 -0.20782
 C1151 C 0.61942 0.38164 -0.09791
 C1152 C 0.60281 0.39915 -0.08021
 H1153 H 0.64347 0.37551 -0.19397
 H1154 H 0.61307 0.40713 -0.15204
 H1155 H 0.69695 0.37093 -0.10159
 H1156 H 0.72745 0.33927 -0.14366
 H1157 H 0.63444 0.27701 -0.15438
 H1158 H 0.60403 0.30863 -0.11228
 C1159 C 0.82945 1.17105 0.33656
 C1160 C 0.85871 1.14211 0.32752
 C1161 C 0.87553 1.12467 0.34971
 C1162 C 0.86143 1.13788 0.37878
 C1163 C 0.81848 1.13257 0.37791
 C1164 C 0.80163 1.15005 0.35567
 C1165 C 0.85063 1.19754 0.35648
 C1166 C 0.86750 1.18006 0.37873
 C1167 C 0.81130 1.18971 0.31276
 C1168 C 0.79545 1.20561 0.29385
 C1169 C 0.88010 1.11843 0.40205
 C1170 C 0.89692 1.10072 0.41956
 H1171 H 0.86563 1.13587 0.30563
 H1172 H 0.89693 1.10342 0.34682
 H1173 H 0.80271 1.11661 0.39341
 H1174 H 0.77138 1.14902 0.35205
 H1175 H 0.85221 1.22736 0.35338
 H1176 H 0.88350 1.19486 0.39475
 C1177 C 0.33141 0.66959 -0.16457
 C1178 C 0.36088 0.64053 -0.17293
 C1179 C 0.37724 0.62358 -0.15033
 C1180 C 0.36249 0.63738 -0.12160
 C1181 C 0.31958 0.63196 -0.12291
 C1182 C 0.30319 0.64895 -0.14555
 C1183 C 0.35211 0.69653 -0.14472
 C1184 C 0.36852 0.67954 -0.12206
 C1185 C 0.31375 0.68772 -0.18874
 C1186 C 0.29816 0.70334 -0.20788
 C1187 C 0.38070 0.61840 -0.09795
 C1188 C 0.39730 0.60090 -0.08025
 H1189 H 0.36827 0.63385 -0.19465
 H1190 H 0.39872 0.60230 -0.15270
 H1191 H 0.30350 0.61631 -0.10740
 H1192 H 0.27302 0.64781 -0.14952
 H1193 H 0.35372 0.72629 -0.14816
 H1194 H 0.38414 0.69470 -0.10602
 C1195 C 0.82947 0.82897 0.66344
 C1196 C 0.85838 0.85825 0.67248
 C1197 C 0.87520 0.87569 0.65029
 C1198 C 0.86145 0.86213 0.62122
 C1199 C 0.81845 0.86705 0.62187
 C1200 C 0.80159 0.84957 0.64412
 C1201 C 0.85106 0.80254 0.64372
 C1202 C 0.86793 0.82002 0.62147
 C1203 C 0.81133 0.81031 0.68724
 C1204 C 0.79548 0.79440 0.70615
 C1205 C 0.88012 0.88159 0.59794
 C1206 C 0.89694 0.89929 0.58043
 H1207 H 0.86507 0.86471 0.69437
 H1208 H 0.89636 0.89716 0.65318
 H1209 H 0.80264 0.88274 0.60624
 H1210 H 0.77131 0.85033 0.64760
 H1211 H 0.85292 0.77275 0.64695
 H1212 H 0.88420 0.80525 0.60558
 C1213 C 0.33144 0.33041 0.16456
 C1214 C 0.36095 0.35943 0.17292
 C1215 C 0.37732 0.37638 0.15032
 C1216 C 0.36253 0.36260 0.12159
 C1217 C 0.31963 0.36807 0.12291
 C1218 C 0.30323 0.35109 0.14556
 C1219 C 0.35210 0.30345 0.14470
 C1220 C 0.36851 0.32043 0.12204
 C1221 C 0.31378 0.31228 0.18874
 C1222 C 0.29818 0.29666 0.20787
 C1223 C 0.38074 0.38157 0.09794
 C1224 C 0.39734 0.39908 0.08024
 H1225 H 0.36836 0.36609 0.19464
 H1226 H 0.39882 0.39762 0.15269
 H1227 H 0.30355 0.38375 0.10742
 H1228 H 0.27307 0.35226 0.14954
 H1229 H 0.35368 0.27369 0.14813
 H1230 H 0.38411 0.30527 0.10599
   
