data_POSCAR
  _audit_creation_date              2014-09-24
  _audit_creation_method            'ToBaCCo'
  _symmetry_space_group_name_H-M    'P1'
  _symmetry_Int_Tables_number       1
  _symmetry_cell_setting            triclinic
  loop_
  _symmetry_equiv_pos_as_xyz
 x,y,z
_cell_length_a 44.6791
_cell_length_b 43.7283
_cell_length_c 43.4770
_cell_angle_alpha 90.587700
_cell_angle_beta 90.087800
_cell_angle_gamma 90.224200
loop_
  _atom_site_label
  _atom_site_type_symbol
  _atom_site_fract_x
  _atom_site_fract_y
  _atom_site_fract_z
C1 C 0.33911 0.35695 0.31937
 C2 C 0.36440 0.34204 0.30723
 C3 C 0.37617 0.31589 0.32160
 C4 C 0.36203 0.30487 0.34817
 C5 C 0.33682 0.31957 0.36054
 C6 C 0.32535 0.34575 0.34617
 C7 C 0.32700 0.38256 0.30477
 C8 C 0.30131 0.39717 0.31639
 C9 C 0.28805 0.38608 0.34350
 C10 C 0.29980 0.36041 0.35830
 C11 C 0.28605 0.34890 0.38482
 C12 C 0.29727 0.32282 0.39938
 C13 C 0.32262 0.30811 0.38679
 H14 H 0.37419 0.35059 0.28628
 H15 H 0.37066 0.28460 0.35923
 H16 H 0.33742 0.39096 0.28396
 H17 H 0.26859 0.39703 0.35329
 H18 H 0.26636 0.36011 0.39406
 H19 H 0.33112 0.28726 0.39660
 C20 C 0.36134 0.86080 -0.18392
 C21 C 0.38748 0.84876 -0.19678
 C22 C 0.40026 0.82166 -0.18572
 C23 C 0.38655 0.80705 -0.16047
 C24 C 0.36041 0.81922 -0.14700
 C25 C 0.34765 0.84610 -0.15897
 C26 C 0.34849 0.88711 -0.19626
 C27 C 0.32165 0.89918 -0.18457
 C28 C 0.30818 0.88453 -0.15908
 C29 C 0.32110 0.85811 -0.14625
 C30 C 0.30774 0.84329 -0.12113
 C31 C 0.32034 0.81661 -0.10860
 C32 C 0.34666 0.80465 -0.12201
 H33 H 0.39761 0.86038 -0.21613
 H34 H 0.39582 0.78636 -0.15106
 H35 H 0.35930 0.89795 -0.21568
 H36 H 0.28771 0.89314 -0.14910
 H37 H 0.28736 0.85252 -0.11130
 H38 H 0.35652 0.78383 -0.11362
 C39 C 0.84946 0.37029 -0.18524
 C40 C 0.87447 0.35625 -0.19881
 C41 C 0.88711 0.32957 -0.18602
 C42 C 0.87431 0.31768 -0.15904
 C43 C 0.84939 0.33154 -0.14521
 C44 C 0.83698 0.35793 -0.15834
 C45 C 0.83625 0.39607 -0.19870
 C46 C 0.81044 0.40955 -0.18560
 C47 C 0.79877 0.39723 -0.15840
 C48 C 0.81165 0.37160 -0.14489
 C49 C 0.79884 0.35894 -0.11860
 C50 C 0.81064 0.33245 -0.10552
 C51 C 0.83618 0.31888 -0.11892
 H52 H 0.88332 0.36623 -0.21950
 H53 H 0.88353 0.29719 -0.14888
 H54 H 0.84601 0.40481 -0.21956
 H55 H 0.77901 0.40724 -0.14792
 H56 H 0.77909 0.36942 -0.10861
 H57 H 0.84552 0.29811 -0.10979
 C58 C 0.84580 0.87432 0.29896
 C59 C 0.87258 0.86372 0.28588
 C60 C 0.88889 0.83988 0.29942
 C61 C 0.87813 0.82696 0.32694
 C62 C 0.85129 0.83720 0.34029
 C63 C 0.83513 0.86096 0.32624
 C64 C 0.82937 0.89782 0.28493
 C65 C 0.80222 0.90822 0.29794
 C66 C 0.79211 0.89469 0.32532
 C67 C 0.80817 0.87120 0.33938
 C68 C 0.79731 0.85755 0.36621
 C69 C 0.81285 0.83358 0.38030
 C70 C 0.84013 0.82369 0.36723
 H71 H 0.88062 0.87384 0.26475
 H72 H 0.89028 0.80894 0.33822
 H73 H 0.83806 0.90764 0.26405
 H74 H 0.77131 0.90228 0.33572
 H75 H 0.77634 0.86539 0.37599
 H76 H 0.85269 0.80531 0.37739
 C77 C 0.63871 0.65093 0.31483
 C78 C 0.61159 0.66341 0.30503
 C79 C 0.59937 0.68926 0.31995
 C80 C 0.61484 0.70233 0.34496
 C81 C 0.64222 0.69018 0.35481
 C82 C 0.65427 0.66437 0.33970
 C83 C 0.65078 0.62564 0.29941
 C84 C 0.67831 0.61331 0.30829
 C85 C 0.69407 0.62694 0.33316
 C86 C 0.68217 0.65248 0.34893
 C87 C 0.69793 0.66679 0.37324
 C88 C 0.68600 0.69281 0.38837
 C89 C 0.65804 0.70401 0.37901
 H90 H 0.60096 0.65326 0.28508
 H91 H 0.60584 0.72245 0.35638
 H92 H 0.63870 0.61553 0.28015
 H93 H 0.71578 0.61842 0.33990
 H94 H 0.71947 0.65776 0.37976
 H95 H 0.64872 0.72401 0.39036
 C96 C 0.66688 0.13274 -0.19035
 C97 C 0.64122 0.14538 -0.20382
 C98 C 0.62889 0.17261 -0.19226
 C99 C 0.64304 0.18755 -0.16726
 C100 C 0.66851 0.17498 -0.15339
 C101 C 0.68048 0.14744 -0.16493
 C102 C 0.67937 0.10587 -0.20228
 C103 C 0.70560 0.09338 -0.18961
 C104 C 0.71872 0.10797 -0.16370
 C105 C 0.70632 0.13490 -0.15138
 C106 C 0.71960 0.14972 -0.12595
 C107 C 0.70769 0.17708 -0.11401
 C108 C 0.68232 0.18980 -0.12837
 H109 H 0.63077 0.13401 -0.22337
 H110 H 0.63478 0.20927 -0.15877
 H111 H 0.66885 0.09495 -0.22209
 H112 H 0.73862 0.09898 -0.15300
 H113 H 0.73937 0.13998 -0.11543
 H114 H 0.67322 0.21140 -0.12070
 C115 C 0.14993 0.63013 -0.17295
 C116 C 0.12268 0.64248 -0.18308
 C117 C 0.11052 0.66851 -0.16841
 C118 C 0.12496 0.68091 -0.14257
 C119 C 0.15211 0.66892 -0.13235
 C120 C 0.16489 0.64362 -0.14767
 C121 C 0.16282 0.60513 -0.18833
 C122 C 0.19082 0.59344 -0.17935
 C123 C 0.20562 0.60726 -0.15384
 C124 C 0.19285 0.63227 -0.13805
 C125 C 0.20790 0.64669 -0.11329
 C126 C 0.19513 0.67224 -0.09812
 C127 C 0.16712 0.68278 -0.10773
 H128 H 0.11133 0.63194 -0.20249
 H129 H 0.11563 0.70086 -0.13111
 H130 H 0.15112 0.59507 -0.20788
 H131 H 0.22712 0.59922 -0.14605
 H132 H 0.22968 0.63834 -0.10662
 H133 H 0.15719 0.70247 -0.09636
 C134 C 0.13630 0.14275 0.32876
 C135 C 0.11176 0.15814 0.31639
 C136 C 0.10191 0.18631 0.32901
 C137 C 0.11767 0.19868 0.35445
 C138 C 0.14228 0.18323 0.36727
 C139 C 0.15151 0.15513 0.35433
 C140 C 0.14642 0.11555 0.31507
 C141 C 0.17179 0.10038 0.32636
 C142 C 0.18634 0.11248 0.35267
 C143 C 0.17649 0.13975 0.36642
 C144 C 0.19198 0.15233 0.39153
 C145 C 0.18320 0.18024 0.40471
 C146 C 0.15826 0.19572 0.39235
 H147 H 0.10157 0.14818 0.29613
 H148 H 0.11081 0.22042 0.36433
 H149 H 0.13485 0.10656 0.29494
 H150 H 0.20587 0.10171 0.36230
 H151 H 0.21132 0.14052 0.40065
 H152 H 0.15156 0.21777 0.40141
 C153 C 0.64562 0.35873 0.68270
 C154 C 0.62200 0.34279 0.69665
 C155 C 0.61254 0.31422 0.68487
 C156 C 0.62653 0.30227 0.65846
 C157 C 0.65000 0.31804 0.64423
 C158 C 0.65969 0.34634 0.65642
 C159 C 0.65584 0.38655 0.69509
 C160 C 0.68019 0.40208 0.68196
 C161 C 0.69394 0.38967 0.65549
 C162 C 0.68382 0.36196 0.64268
 C163 C 0.69792 0.34926 0.61674
 C164 C 0.68818 0.32124 0.60423
 C165 C 0.66432 0.30560 0.61837
 H166 H 0.61123 0.35286 0.71655
 H167 H 0.61934 0.28032 0.64916
 H168 H 0.64524 0.39583 0.71556
 H169 H 0.71294 0.40081 0.64503
 H170 H 0.71660 0.36113 0.60626
 H171 H 0.65731 0.28330 0.60999
 C172 C 0.63110 0.84928 1.18061
 C173 C 0.60632 0.83350 1.19252
 C174 C 0.59705 0.80517 1.17956
 C175 C 0.61305 0.79325 1.15438
 C176 C 0.63776 0.80876 1.14232
 C177 C 0.64682 0.83691 1.15531
 C178 C 0.64067 0.87703 1.19392
 C179 C 0.66555 0.89272 1.18218
 C180 C 0.68120 0.88007 1.15693
 C181 C 0.67195 0.85234 1.14339
 C182 C 0.68772 0.83949 1.11847
 C183 C 0.67872 0.81141 1.10528
 C184 C 0.65380 0.79609 1.11772
 H185 H 0.59478 0.84367 1.21185
 H186 H 0.60640 0.77151 1.14416
 H187 H 0.62882 0.88646 1.21358
 H188 H 0.70116 0.89115 1.14829
 H189 H 0.70714 0.85127 1.10937
 H190 H 0.64705 0.77384 1.10913
 C191 C 0.13882 0.35386 1.18221
 C192 C 0.11516 0.33960 1.19774
 C193 C 0.10220 0.31223 1.18649
 C194 C 0.11359 0.29931 1.15893
 C195 C 0.13730 0.31337 1.14319
 C196 C 0.14982 0.34078 1.15477
 C197 C 0.15212 0.38064 1.19409
 C198 C 0.17619 0.39468 1.17862
 C199 C 0.18662 0.38170 1.15111
 C200 C 0.17371 0.35490 1.13915
 C201 C 0.18498 0.34164 1.11219
 C202 C 0.17343 0.31368 1.10102
 C203 C 0.14919 0.30005 1.11636
 H204 H 0.10692 0.34986 1.21891
 H205 H 0.10454 0.27834 1.14938
 H206 H 0.14429 0.38970 1.21587
 H207 H 0.20529 0.39226 1.13927
 H208 H 0.20286 0.35330 1.10034
 H209 H 0.14001 0.27862 1.10775
 C210 C 0.15122 0.85079 0.69173
 C211 C 0.12742 0.83470 0.70535
 C212 C 0.11795 0.80614 0.69316
 C213 C 0.13273 0.79424 0.66729
 C214 C 0.15640 0.81000 0.65369
 C215 C 0.16571 0.83845 0.66569
 C216 C 0.16097 0.87884 0.70406
 C217 C 0.18517 0.89478 0.69108
 C218 C 0.19923 0.88244 0.66456
 C219 C 0.18971 0.85427 0.65186
 C220 C 0.20391 0.84135 0.62582
 C221 C 0.19444 0.81286 0.61370
 C222 C 0.17102 0.79723 0.62838
 H223 H 0.11654 0.84486 0.72510
 H224 H 0.12587 0.77230 0.65763
 H225 H 0.14999 0.88809 0.72433
 H226 H 0.21756 0.89431 0.65368
 H227 H 0.22237 0.85331 0.61507
 H228 H 0.16437 0.77455 0.62088
 C229 C 0.36968 0.63576 0.68577
 C230 C 0.39522 0.65016 0.69772
 C231 C 0.40604 0.67750 0.68516
 C232 C 0.39116 0.69020 0.65973
 C233 C 0.36549 0.67591 0.64738
 C234 C 0.35473 0.64858 0.66047
 C235 C 0.35860 0.60902 0.69919
 C236 C 0.33260 0.59470 0.68789
 C237 C 0.31822 0.60713 0.66191
 C238 C 0.32900 0.63411 0.64837
 C239 C 0.31415 0.64704 0.62318
 C240 C 0.32425 0.67476 0.61032
 C241 C 0.35020 0.68871 0.62242
 H242 H 0.40651 0.64025 0.71734
 H243 H 0.39936 0.71098 0.64935
 H244 H 0.36997 0.59960 0.71900
 H245 H 0.29862 0.59627 0.65208
 H246 H 0.29486 0.63518 0.61387
 H247 H 0.35829 0.70988 0.61259
 C248 C 0.33964 0.14347 1.18988
 C249 C 0.36512 0.15658 1.20364
 C250 C 0.37905 0.18264 1.19118
 C251 C 0.36687 0.19530 1.16406
 C252 C 0.34131 0.18240 1.15006
 C253 C 0.32770 0.15643 1.16304
 C254 C 0.32563 0.11789 1.20296
 C255 C 0.29947 0.10512 1.18958
 C256 C 0.28799 0.11832 1.16271
 C257 C 0.30180 0.14371 1.14946
 C258 C 0.28964 0.15684 1.12306
 C259 C 0.30282 0.18268 1.10986
 C260 C 0.32875 0.19546 1.12359
 H261 H 0.37399 0.14653 1.22445
 H262 H 0.37653 0.21540 1.15374
 H263 H 0.33515 0.10873 1.22374
 H264 H 0.26792 0.10893 1.15207
 H265 H 0.26958 0.14703 1.11283
 H266 H 0.33890 0.21592 1.11446
 C267 C 0.85807 0.64685 1.18669
 C268 C 0.88393 0.66095 1.19866
 C269 C 0.89616 0.68721 1.18495
 C270 C 0.88233 0.69894 1.15839
 C271 C 0.85636 0.68522 1.14625
 C272 C 0.84421 0.65911 1.16043
 C273 C 0.84560 0.62102 1.20093
 C274 C 0.81937 0.60698 1.18939
 C275 C 0.80579 0.61971 1.16295
 C276 C 0.81795 0.64554 1.14860
 C277 C 0.80376 0.65832 1.12287
 C278 C 0.81560 0.68453 1.10853
 C279 C 0.84205 0.69761 1.12043
 H280 H 0.89437 0.65169 1.21907
 H281 H 0.89132 0.71877 1.14697
 H282 H 0.85634 0.61192 1.22126
 H283 H 0.78532 0.61053 1.15341
 H284 H 0.78328 0.64785 1.11470
 H285 H 0.85135 0.71783 1.10975
 C286 C 0.85081 0.14534 0.67905
 C287 C 0.87427 0.16070 0.69428
 C288 C 0.88499 0.18890 0.68359
 C289 C 0.87143 0.20191 0.65752
 C290 C 0.84809 0.18671 0.64202
 C291 C 0.83772 0.15832 0.65274
 C292 C 0.83993 0.11742 0.69003
 C293 C 0.81628 0.10203 0.67484
 C294 C 0.80343 0.11514 0.64863
 C295 C 0.81395 0.14316 0.63744
 C296 C 0.80081 0.15645 0.61147
 C297 C 0.81092 0.18500 0.60081
 C298 C 0.83469 0.19975 0.61616
 H299 H 0.88428 0.15068 0.71454
 H300 H 0.87829 0.22415 0.64943
 H301 H 0.84941 0.10840 0.71096
 H302 H 0.78497 0.10359 0.63711
 H303 H 0.78294 0.14432 0.59973
 H304 H 0.84264 0.22172 0.60807
 C305 C 0.37480 0.34471 0.69049
 C306 C 0.36226 0.37105 0.70398
 C307 C 0.33482 0.38288 0.69351
 C308 C 0.32017 0.36795 0.66879
 C309 C 0.33258 0.34175 0.65493
 C310 C 0.35992 0.33007 0.66581
 C311 C 0.40169 0.33245 0.70169
 C312 C 0.41356 0.30527 0.68886
 C313 C 0.39885 0.29139 0.66379
 C314 C 0.37214 0.30345 0.65228
 C315 C 0.35721 0.28891 0.62777
 C316 C 0.33013 0.30047 0.61656
 C317 C 0.31774 0.32676 0.63062
 H318 H 0.37370 0.38217 0.72309
 H319 H 0.29904 0.37621 0.66019
 H320 H 0.41305 0.34421 0.72035
 H321 H 0.40790 0.27064 0.65365
 H322 H 0.36662 0.26844 0.61741
 H323 H 0.29622 0.33537 0.62341
 C324 C 0.35382 0.86194 0.18980
 C325 C 0.34172 0.88866 0.20228
 C326 C 0.31676 0.90251 0.18879
 C327 C 0.30470 0.89005 0.16136
 C328 C 0.31676 0.86324 0.14842
 C329 C 0.34124 0.84900 0.16292
 C330 C 0.37779 0.84750 0.20441
 C331 C 0.38932 0.82003 0.19273
 C332 C 0.37638 0.80687 0.16612
 C333 C 0.35265 0.82136 0.15105
 C334 C 0.33973 0.80816 0.12474
 C335 C 0.31580 0.82251 0.10951
 C336 C 0.30430 0.84994 0.12171
 H337 H 0.35116 0.89817 0.22332
 H338 H 0.28588 0.90074 0.15015
 H339 H 0.38733 0.85750 0.22518
 H340 H 0.38404 0.78504 0.15735
 H341 H 0.34800 0.78623 0.11689
 H342 H 0.28543 0.86075 0.11055
 C343 C 0.85662 0.35641 0.19045
 C344 C 0.84286 0.38270 0.20239
 C345 C 0.81655 0.39434 0.18916
 C346 C 0.80423 0.37933 0.16319
 C347 C 0.81786 0.35299 0.15086
 C348 C 0.84408 0.34148 0.16459
 C349 C 0.88241 0.34448 0.20437
 C350 C 0.89585 0.31767 0.19297
 C351 C 0.88302 0.30289 0.16707
 C352 C 0.85745 0.31471 0.15280
 C353 C 0.84480 0.29977 0.12719
 C354 C 0.81891 0.31109 0.11303
 C355 C 0.80537 0.33768 0.12530
 H356 H 0.85250 0.39398 0.22244
 H357 H 0.78403 0.38767 0.15253
 H358 H 0.89184 0.35589 0.22444
 H359 H 0.89207 0.28174 0.15814
 H360 H 0.85515 0.27915 0.11818
 H361 H 0.78482 0.34637 0.11568
 C362 C 0.88499 0.84815 0.67633
 C363 C 0.87336 0.87454 0.69005
 C364 C 0.84763 0.88845 0.67833
 C365 C 0.83412 0.87628 0.65145
 C366 C 0.84573 0.84984 0.63719
 C367 C 0.87114 0.83562 0.64990
 C368 C 0.90983 0.83370 0.68927
 C369 C 0.92070 0.80622 0.67660
 C370 C 0.90730 0.79424 0.64979
 C371 C 0.88258 0.80870 0.63642
 C372 C 0.86873 0.79621 0.61023
 C373 C 0.84336 0.80996 0.59723
 C374 C 0.83203 0.83701 0.61087
 H375 H 0.88391 0.88382 0.71064
 H376 H 0.81469 0.88709 0.64153
 H377 H 0.92042 0.84402 0.70923
 H378 H 0.91574 0.77319 0.63971
 H379 H 0.87755 0.77534 0.60011
 H380 H 0.81246 0.84807 0.60160
 C381 C 0.64937 0.65663 0.67345
 C382 C 0.66404 0.63104 0.68534
 C383 C 0.69114 0.62084 0.67243
 C384 C 0.70329 0.63674 0.64749
 C385 C 0.68878 0.66231 0.63537
 C386 C 0.66167 0.67238 0.64833
 C387 C 0.62284 0.66698 0.68686
 C388 C 0.60839 0.69316 0.67604
 C389 C 0.62049 0.70871 0.65049
 C390 C 0.64717 0.69841 0.63653
 C391 C 0.65987 0.71375 0.61126
 C392 C 0.68691 0.70358 0.59794
 C393 C 0.70137 0.67809 0.61076
 H394 H 0.65436 0.61979 0.70499
 H395 H 0.72428 0.62920 0.63750
 H396 H 0.61368 0.65489 0.70639
 H397 H 0.60939 0.72859 0.64135
 H398 H 0.64881 0.73368 0.60203
 H399 H 0.72285 0.67051 0.60236
 C400 C 0.62541 0.15566 0.17156
 C401 C 0.63818 0.12801 0.18191
 C402 C 0.66428 0.11621 0.16773
 C403 C 0.67719 0.13221 0.14337
 C404 C 0.66498 0.15954 0.13305
 C405 C 0.63898 0.17131 0.14689
 C406 C 0.59963 0.16823 0.18552
 C407 C 0.58756 0.19615 0.17499
 C408 C 0.60135 0.21098 0.15022
 C409 C 0.62691 0.19899 0.13624
 C410 C 0.64086 0.21458 0.11200
 C411 C 0.66689 0.20294 0.09827
 C412 C 0.67895 0.17546 0.10931
 H413 H 0.62774 0.11590 0.20065
 H414 H 0.69731 0.12347 0.13250
 H415 H 0.58939 0.15629 0.20447
 H416 H 0.59235 0.23241 0.14198
 H417 H 0.63162 0.23596 0.10397
 H418 H 0.69974 0.16655 0.10035
 C419 C 0.13701 0.65466 0.18118
 C420 C 0.14705 0.62797 0.19518
 C421 C 0.17318 0.61336 0.18522
 C422 C 0.18910 0.62569 0.16014
 C423 C 0.17915 0.65257 0.14575
 C424 C 0.15306 0.66724 0.15650
 C425 C 0.11129 0.66912 0.19207
 C426 C 0.10113 0.69642 0.17917
 C427 C 0.11709 0.70908 0.15424
 C428 C 0.14308 0.69452 0.14279
 C429 C 0.15943 0.70683 0.11813
 C430 C 0.18559 0.69245 0.10702
 C431 C 0.19510 0.66512 0.12102
 H432 H 0.13459 0.61871 0.21438
 H433 H 0.20932 0.61496 0.15186
 H434 H 0.09929 0.65919 0.21124
 H435 H 0.10962 0.73004 0.14376
 H436 H 0.15186 0.72780 0.10762
 H437 H 0.21474 0.65321 0.11295
 C438 C 0.13636 0.15035 0.69745
 C439 C 0.14940 0.12398 0.70980
 C440 C 0.17645 0.11219 0.69805
 C441 C 0.19020 0.12718 0.67309
 C442 C 0.17741 0.15360 0.66043
 C443 C 0.15052 0.16522 0.67276
 C444 C 0.10960 0.16236 0.70963
 C445 C 0.09690 0.18907 0.69746
 C446 C 0.11170 0.20397 0.67327
 C447 C 0.13801 0.19209 0.66071
 C448 C 0.15209 0.20707 0.63639
 C449 C 0.17849 0.19562 0.62348
 C450 C 0.19129 0.16888 0.63586
 H451 H 0.13858 0.11274 0.72894
 H452 H 0.21087 0.11874 0.66341
 H453 H 0.09870 0.15105 0.72868
 H454 H 0.10344 0.22539 0.66449
 H455 H 0.14230 0.22775 0.62724
 H456 H 0.21223 0.16015 0.62704
 C457 C 0.35569 0.63467 0.32088
 C458 C 0.34233 0.60929 0.30634
 C459 C 0.31691 0.59537 0.31897
 C460 C 0.30587 0.60602 0.34748
 C461 C 0.31874 0.63159 0.36210
 C462 C 0.34365 0.64607 0.34868
 C463 C 0.38027 0.64939 0.30747
 C464 C 0.39273 0.67583 0.32125
 C465 C 0.38069 0.68682 0.34907
 C466 C 0.35621 0.67225 0.36279
 C467 C 0.34356 0.68403 0.38991
 C468 C 0.31833 0.67017 0.40322
 C469 C 0.30639 0.64348 0.38935
 H470 H 0.35110 0.60099 0.28457
 H471 H 0.28710 0.59479 0.35834
 H472 H 0.38920 0.64013 0.28629
 H473 H 0.39009 0.70718 0.35984
 H474 H 0.35299 0.70456 0.40033
 H475 H 0.28707 0.63213 0.39891
 C476 C 0.37225 0.14221 0.82507
 C477 C 0.35820 0.11744 0.80999
 C478 C 0.32933 0.10762 0.81856
 C479 C 0.31456 0.12309 0.84276
 C480 C 0.32834 0.14776 0.85818
 C481 C 0.35728 0.15722 0.84939
 C482 C 0.40067 0.15272 0.81579
 C483 C 0.41410 0.17821 0.83063
 C484 C 0.39931 0.19216 0.85540
 C485 C 0.37103 0.18216 0.86459
 C486 C 0.35601 0.19750 0.88824
 C487 C 0.32712 0.18866 0.89698
 C488 C 0.31334 0.16360 0.88185
 H489 H 0.36966 0.10597 0.79120
 H490 H 0.29221 0.11660 0.84958
 H491 H 0.41192 0.14116 0.79701
 H492 H 0.40944 0.21173 0.86695
 H493 H 0.36672 0.21684 0.89964
 H494 H 0.29086 0.15659 0.88773
 C495 C 0.86600 0.64523 0.82003
 C496 C 0.85190 0.62214 0.80278
 C497 C 0.82291 0.61233 0.81010
 C498 C 0.80802 0.62583 0.83533
 C499 C 0.82209 0.64868 0.85311
 C500 C 0.85112 0.65857 0.84534
 C501 C 0.89443 0.65572 0.81172
 C502 C 0.90791 0.68028 0.82772
 C503 C 0.89333 0.69290 0.85351
 C504 C 0.86502 0.68225 0.86241
 C505 C 0.85002 0.69547 0.88756
 C506 C 0.82124 0.68545 0.89581
 C507 C 0.80726 0.66227 0.87810
 H508 H 0.86337 0.61205 0.78320
 H509 H 0.78531 0.61932 0.84091
 H510 H 0.90558 0.64479 0.79252
 H511 H 0.90369 0.71167 0.86614
 H512 H 0.86067 0.71374 0.90066
 H513 H 0.78458 0.65514 0.88302
 C514 C 0.84614 0.13949 0.30913
 C515 C 0.82964 0.11520 0.29608
 C516 C 0.80171 0.10657 0.30849
 C517 C 0.79105 0.12193 0.33468
 C518 C 0.80739 0.14608 0.34805
 C519 C 0.83501 0.15495 0.33528
 C520 C 0.87329 0.14895 0.29605
 C521 C 0.88947 0.17385 0.30846
 C522 C 0.87838 0.18877 0.33505
 C523 C 0.85125 0.17955 0.34840
 C524 C 0.83982 0.19492 0.37438
 C525 C 0.81231 0.18618 0.38731
 C526 C 0.79610 0.16185 0.37363
 H527 H 0.83878 0.10307 0.27644
 H528 H 0.76966 0.11534 0.34441
 H529 H 0.88157 0.13727 0.27567
 H530 H 0.89028 0.20775 0.34547
 H531 H 0.85220 0.21392 0.38443
 H532 H 0.77423 0.15545 0.38202
 C533 C 0.63861 0.35826 0.31047
 C534 C 0.65502 0.38341 0.29948
 C535 C 0.68228 0.39240 0.31357
 C536 C 0.69303 0.37545 0.33848
 C537 C 0.67694 0.35028 0.34967
 C538 C 0.64962 0.34172 0.33571
 C539 C 0.61170 0.34896 0.29623
 C540 C 0.59557 0.32343 0.30690
 C541 C 0.60694 0.30711 0.33212
 C542 C 0.63368 0.31612 0.34656
 C543 C 0.64501 0.29945 0.37135
 C544 C 0.67212 0.30779 0.38553
 C545 C 0.68809 0.33325 0.37431
 H546 H 0.64675 0.39521 0.27947
 H547 H 0.71411 0.38189 0.34917
 H548 H 0.60338 0.36145 0.27659
 H549 H 0.59577 0.28675 0.34019
 H550 H 0.63273 0.27972 0.37958
 H551 H 0.70950 0.33975 0.38399
 C552 C 0.65049 0.86005 0.81667
 C553 C 0.66635 0.88366 0.80254
 C554 C 0.69439 0.89309 0.81370
 C555 C 0.70623 0.87894 0.84008
 C556 C 0.69051 0.85516 0.85451
 C557 C 0.66256 0.84560 0.84269
 C558 C 0.62300 0.85029 0.80463
 C559 C 0.60738 0.82588 0.81780
 C560 C 0.61909 0.81192 0.84434
 C561 C 0.64671 0.82155 0.85675
 C562 C 0.65895 0.80723 0.88268
 C563 C 0.68716 0.81627 0.89443
 C564 C 0.70249 0.84053 0.88032
 H565 H 0.65702 0.89447 0.78235
 H566 H 0.72746 0.88625 0.84965
 H567 H 0.61408 0.86120 0.78430
 H568 H 0.60696 0.79361 0.85539
 H569 H 0.64623 0.78922 0.89349
 H570 H 0.72410 0.84775 0.88923
 C571 C 0.13828 0.35424 0.81538
 C572 C 0.15331 0.37892 0.80188
 C573 C 0.18122 0.38903 0.81311
 C574 C 0.19391 0.37409 0.83853
 C575 C 0.17903 0.34942 0.85234
 C576 C 0.15112 0.33948 0.84078
 C577 C 0.11092 0.34372 0.80335
 C578 C 0.09610 0.31836 0.81632
 C579 C 0.10898 0.30414 0.84200
 C580 C 0.13634 0.31442 0.85426
 C581 C 0.14943 0.29966 0.87943
 C582 C 0.17718 0.30944 0.89126
 C583 C 0.19198 0.33423 0.87722
 H584 H 0.14338 0.39011 0.78222
 H585 H 0.21530 0.38126 0.84777
 H586 H 0.10196 0.35516 0.78350
 H587 H 0.09789 0.28458 0.85215
 H588 H 0.13809 0.28035 0.88976
 H589 H 0.21393 0.34151 0.88484
 C590 C 0.14553 0.84880 0.32624
 C591 C 0.15969 0.87463 0.31395
 C592 C 0.18612 0.88639 0.32735
 C593 C 0.19825 0.87177 0.35308
 C594 C 0.18450 0.84582 0.36539
 C595 C 0.15798 0.83426 0.35203
 C596 C 0.11946 0.83695 0.31260
 C597 C 0.10522 0.81084 0.32458
 C598 C 0.11795 0.79641 0.35028
 C599 C 0.14427 0.80788 0.36408
 C600 C 0.15742 0.79312 0.38935
 C601 C 0.18425 0.80445 0.40262
 C602 C 0.19729 0.83097 0.39052
 H603 H 0.15021 0.88490 0.29366
 H604 H 0.21874 0.88049 0.36339
 H605 H 0.11101 0.84782 0.29215
 H606 H 0.10745 0.77602 0.35937
 H607 H 0.14666 0.77286 0.39814
 H608 H 0.21785 0.83991 0.40048
 O609 O 0.27524 0.96690 0.24820
 O610 O 0.24188 1.02061 0.30347
 O611 O 0.23624 0.96227 0.29218
 O612 O 0.28260 1.02423 0.26148
 O613 O 0.24749 1.03371 0.22709
 O614 O 0.20036 0.97253 0.25890
 O615 O 0.20667 1.03088 0.26943
 O616 O 0.23921 0.97591 0.21470
 Cu617 Cu 0.26251 0.99234 0.27976
 Cu618 Cu 0.21981 1.00434 0.23915
 C619 C 0.26300 0.96215 0.22215
 C620 C 0.21870 1.03526 0.29560
 C621 C 0.21052 0.95677 0.28091
 C622 C 0.27296 1.03951 0.23895
 O623 O 0.25630 0.51998 0.71367
 O624 O 0.22265 0.46131 0.76227
 O625 O 0.22597 0.52091 0.76484
 O626 O 0.25832 0.46007 0.71513
 O627 O 0.29885 0.45996 0.74419
 O628 O 0.26679 0.52022 0.79347
 O629 O 0.26310 0.46045 0.79144
 O630 O 0.29719 0.51993 0.74223
 Cu631 Cu 0.23685 0.49064 0.73609
 Cu632 Cu 0.28553 0.49014 0.77065
 C633 C 0.28221 0.53025 0.71965
 C634 C 0.23696 0.45064 0.78494
 C635 C 0.24109 0.53094 0.78771
 C636 C 0.28403 0.44938 0.72153
 O637 O 0.72642 -0.01718 0.18537
 O638 O 0.77079 0.04211 0.22358
 O639 O 0.77299 -0.01739 0.22171
 O640 O 0.71924 0.04139 0.19586
 O641 O 0.69263 0.03495 0.23800
 O642 O 0.74608 -0.02288 0.26382
 O643 O 0.74475 0.03654 0.26631
 O644 O 0.70006 -0.02455 0.22759
 Cu645 Cu 0.74978 0.01282 0.20245
 Cu646 Cu 0.71809 0.00557 0.25299
 C647 C 0.70635 -0.03155 0.19978
 C648 C 0.76571 0.04946 0.25127
 C649 C 0.76851 -0.03015 0.24752
 C650 C 0.69696 0.04847 0.21279
 O651 O 0.78297 0.54471 0.75025
 O652 O 0.74901 0.48715 0.69844
 O653 O 0.74287 0.54603 0.70697
 O654 O 0.79154 0.48694 0.73911
 O655 O 0.75743 0.47777 0.77458
 O656 O 0.70837 0.53635 0.74190
 O657 O 0.71501 0.47769 0.73393
 O658 O 0.74840 0.53529 0.78521
 Cu659 Cu 0.76998 0.51729 0.72007
 Cu660 Cu 0.72879 0.50577 0.76238
 C661 C 0.77149 0.54971 0.77658
 C662 C 0.72636 0.47226 0.70772
 C663 C 0.71752 0.55143 0.71895
 C664 C 0.78277 0.47231 0.76246
 O665 O 0.22508 0.47105 0.21855
 O666 O 0.26916 0.52846 0.26255
 O667 O 0.26671 0.46978 0.26143
 O668 O 0.24018 0.52981 0.21068
 O669 O 0.20100 0.53722 0.24063
 O670 O 0.22754 0.47582 0.29176
 O671 O 0.23021 0.53488 0.29318
 O672 O 0.18677 0.47905 0.24962
 Cu673 Cu 0.25347 0.49884 0.23500
 Cu674 Cu 0.20768 0.50777 0.27118
 C675 C 0.19842 0.46497 0.22716
 C676 C 0.25684 0.54126 0.28578
 C677 C 0.25202 0.46238 0.28513
 C678 C 0.21643 0.54416 0.21700
 O679 O 0.81116 0.95775 0.73764
 O680 O 0.78066 1.01672 0.79015
 O681 O 0.77989 0.95690 0.78838
 O682 O 0.81671 1.01666 0.74351
 O683 O 0.77671 1.02062 0.71388
 O684 O 0.73966 0.96051 0.75910
 O685 O 0.74086 1.01969 0.76019
 O686 O 0.77093 0.96108 0.70834
 Cu687 Cu 0.80110 0.98650 0.76786
 Cu688 Cu 0.75309 0.99065 0.73234
 C689 C 0.79620 0.94944 0.71402
 C690 C 0.75549 1.02855 0.78368
 C691 C 0.75346 0.94865 0.78164
 C692 C 0.80297 1.02922 0.72152
 O693 O 0.69828 0.47790 0.24714
 O694 O 0.74274 0.53286 0.20458
 O695 O 0.74005 0.47324 0.20538
 O696 O 0.70964 0.53633 0.25370
 O697 O 0.74592 0.52916 0.28734
 O698 O 0.77787 0.46983 0.23782
 O699 O 0.77973 0.53003 0.23815
 O700 O 0.73569 0.47010 0.27932
 Cu701 Cu 0.71911 0.50561 0.22459
 Cu702 Cu 0.76338 0.49925 0.26385
 C703 C 0.70920 0.46400 0.26986
 C704 C 0.76824 0.54147 0.21394
 C705 C 0.76451 0.46084 0.21363
 C706 C 0.72281 0.54341 0.27888
 O707 O 0.25703 -0.02443 0.71395
 O708 O 0.29009 0.03439 0.76449
 O709 O 0.28671 -0.02546 0.76552
 O710 O 0.25405 0.03562 0.71739
 O711 O 0.21342 0.03472 0.74615
 O712 O 0.24603 -0.02549 0.79425
 O713 O 0.24960 0.03426 0.79349
 O714 O 0.21640 -0.02560 0.74273
 Cu715 Cu 0.27590 0.00507 0.73750
 Cu716 Cu 0.22730 0.00453 0.77186
 C717 C 0.23152 -0.03560 0.71992
 C718 C 0.27563 0.04454 0.78746
 C719 C 0.27173 -0.03603 0.78803
 C720 C 0.22816 0.04586 0.72396
 O721 O 0.24881 0.21189 0.97075
 O722 O 0.21381 0.26132 1.02820
 O723 O 0.21678 0.26105 0.96892
 O724 O 0.25781 0.22122 1.03079
 O725 O 0.29503 0.25425 1.02638
 O726 O 0.25344 0.29508 0.96786
 O727 O 0.25229 0.29318 1.02688
 O728 O 0.28633 0.24462 0.96690
 Cu729 Cu 0.23124 0.23552 1.00035
 Cu730 Cu 0.27549 0.27449 0.99609
 C731 C 0.27335 0.21980 0.95872
 C732 C 0.22697 0.28532 1.03773
 C733 C 0.22837 0.28543 0.95821
 C734 C 0.28344 0.23129 1.03921
 O735 O 0.23371 0.76081 0.47601
 O736 O 0.27663 0.72228 0.53742
 O737 O 0.27622 0.72005 0.47723
 O738 O 0.23853 0.76745 0.53580
 O739 O 0.20214 0.73318 0.53763
 O740 O 0.24097 0.68474 0.48081
 O741 O 0.24023 0.68820 0.54092
 O742 O 0.19878 0.72507 0.47872
 Cu743 Cu 0.25987 0.74611 0.50626
 Cu744 Cu 0.21709 0.70428 0.51002
 C745 C 0.20897 0.74926 0.46681
 C746 C 0.26535 0.69862 0.54977
 C747 C 0.26510 0.69451 0.46891
 C748 C 0.21366 0.75842 0.54646
 O749 O 0.23772 0.72759 -0.02831
 O750 O 0.27448 0.77779 0.02941
 O751 O 0.27433 0.77430 -0.03120
 O752 O 0.23305 0.73579 0.03125
 O753 O 0.26980 0.70253 0.03567
 O754 O 0.31054 0.74032 -0.02769
 O755 O 0.31133 0.74439 0.03204
 O756 O 0.27404 0.69386 -0.02376
 Cu757 Cu 0.25128 0.75723 -0.00022
 Cu758 Cu 0.29500 0.71701 0.00449
 C759 C 0.24965 0.70217 -0.03583
 C760 C 0.29937 0.76925 0.04062
 C761 C 0.29931 0.76379 -0.04028
 C762 C 0.24448 0.71275 0.04431
 O763 O 0.28645 0.25079 0.48067
 O764 O 0.24773 0.20775 0.53941
 O765 O 0.23770 0.21624 0.47997
 O766 O 0.28484 0.25353 0.54003
 O767 O 0.25270 0.29180 0.54079
 O768 O 0.20427 0.25285 0.48603
 O769 O 0.21515 0.24516 0.54544
 O770 O 0.25190 0.28679 0.48142
 Cu771 Cu 0.26696 0.22841 0.50932
 Cu772 Cu 0.22773 0.27231 0.51412
 C773 C 0.27611 0.27559 0.47058
 C774 C 0.22544 0.21908 0.55314
 C775 C 0.21271 0.22849 0.47294
 C776 C 0.27656 0.27965 0.55022
 O777 O 0.73250 0.77100 0.96982
 O778 O 0.77254 0.73034 1.03176
 O779 O 0.77509 0.73046 0.97141
 O780 O 0.73026 0.77126 1.03004
 O781 O 0.69607 0.73473 1.02690
 O782 O 0.74165 0.69313 0.97037
 O783 O 0.73824 0.69387 1.03005
 O784 O 0.69938 0.73344 0.96727
 Cu785 Cu 0.75604 0.75447 1.00096
 Cu786 Cu 0.71548 0.71012 0.99853
 C787 C 0.70924 0.75893 0.95782
 C788 C 0.76198 0.70522 1.04160
 C789 C 0.76588 0.70487 0.96087
 C790 C 0.70537 0.75985 1.03829
 O791 O 0.74133 0.28432 0.46752
 O792 O 0.77317 0.23508 0.52650
 O793 O 0.77570 0.23631 0.46654
 O794 O 0.73531 0.27987 0.52697
 O795 O 0.69625 0.24931 0.52054
 O796 O 0.73766 0.20393 0.46413
 O797 O 0.73390 0.20437 0.52371
 O798 O 0.70357 0.25210 0.46123
 Cu799 Cu 0.76025 0.26206 0.49730
 Cu800 Cu 0.71398 0.22431 0.49185
 C801 C 0.71731 0.27657 0.45403
 C802 C 0.75894 0.21173 0.53565
 C803 C 0.76339 0.21235 0.45538
 C804 C 0.70876 0.27181 0.53392
 O805 O 0.71478 0.25487 -0.03471
 O806 O 0.75064 0.29818 0.02749
 O807 O 0.75981 0.29264 -0.03164
 O808 O 0.71235 0.25288 0.02498
 O809 O 0.74507 0.21508 0.02467
 O810 O 0.79387 0.25640 -0.02748
 O811 O 0.78382 0.26142 0.03310
 O812 O 0.74998 0.21957 -0.03317
 Cu813 Cu 0.73108 0.27831 -0.00377
 Cu814 Cu 0.77182 0.23530 0.00055
 C815 C 0.72610 0.23030 -0.04492
 C816 C 0.77298 0.28716 0.04130
 C817 C 0.78490 0.28103 -0.03930
 C818 C 0.72066 0.22656 0.03383
 O819 O 0.80554 0.75769 0.46138
 O820 O 0.76308 0.71667 0.52064
 O821 O 0.76710 0.71301 0.46128
 O822 O 0.80290 0.76041 0.52158
 O823 O 0.76685 0.79456 0.51814
 O824 O 0.73008 0.74620 0.45905
 O825 O 0.72699 0.75099 0.51900
 O826 O 0.76875 0.79101 0.45776
 Cu827 Cu 0.78838 0.73371 0.49164
 Cu828 Cu 0.74457 0.77414 0.48810
 C829 C 0.79409 0.78106 0.44899
 C830 C 0.73804 0.72672 0.53004
 C831 C 0.74233 0.72148 0.44998
 C832 C 0.79099 0.78536 0.53033
 O833 O 0.97216 0.24373 0.28890
 O834 O 1.03173 0.27519 0.24004
 O835 O 0.97318 0.27943 0.24149
 O836 O 1.03051 0.23745 0.28628
 O837 O 1.02424 0.19796 0.25483
 O838 O 0.97009 0.24031 0.20907
 O839 O 1.02782 0.23530 0.20875
 O840 O 0.96638 0.20495 0.25648
 Cu841 Cu 1.00243 0.26292 0.26738
 Cu842 Cu 0.99673 0.21565 0.22920
 C843 C 0.95872 0.21934 0.28079
 C844 C 1.04008 0.26059 0.21616
 C845 C 0.96197 0.26678 0.21757
 C846 C 1.03694 0.21028 0.27793
 O847 O 0.48807 0.25505 0.72765
 O848 O 0.54951 0.21157 0.76429
 O849 O 0.49139 0.20276 0.75643
 O850 O 0.54646 0.25620 0.72532
 O851 O 0.54338 0.28560 0.76674
 O852 O 0.48709 0.23204 0.79776
 O853 O 0.54553 0.24166 0.80523
 O854 O 0.48603 0.28502 0.76884
 Cu855 Cu 0.51916 0.22844 0.73938
 Cu856 Cu 0.51468 0.26309 0.78868
 C857 C 0.47670 0.27766 0.74228
 C858 C 0.55814 0.21979 0.79115
 C859 C 0.47937 0.20847 0.78214
 C860 C 0.55447 0.27983 0.74036
 O861 O 0.01693 0.27608 0.77581
 O862 O -0.04210 0.23370 0.73332
 O863 O 0.01649 0.23068 0.73710
 O864 O -0.04182 0.27824 0.77386
 O865 O -0.03879 0.31127 0.73592
 O866 O 0.01878 0.26373 0.69907
 O867 O -0.03888 0.26703 0.69563
 O868 O 0.01946 0.30920 0.73789
 Cu869 Cu -0.01306 0.25137 0.75890
 Cu870 Cu -0.00957 0.29115 0.71341
 C871 C 0.02854 0.29967 0.76370
 C872 C -0.05046 0.24326 0.70714
 C873 C 0.02769 0.23940 0.71181
 C874 C -0.05032 0.30275 0.76108
 O875 O 0.50889 0.25767 0.29193
 O876 O 0.45086 0.22102 0.24332
 O877 O 0.50858 0.21344 0.25131
 O878 O 0.45061 0.26304 0.28600
 O879 O 0.45910 0.29804 0.25082
 O880 O 0.51583 0.24782 0.21526
 O881 O 0.45831 0.25609 0.20795
 O882 O 0.51740 0.29172 0.25581
 Cu883 Cu 0.47896 0.23540 0.27174
 Cu884 Cu 0.48843 0.27686 0.22892
 C885 C 0.52345 0.28053 0.28191
 C886 C 0.44442 0.23264 0.21744
 C887 C 0.52223 0.22228 0.22739
 C888 C 0.44475 0.28881 0.27420
 O889 O 1.04397 0.77949 0.76814
 O890 O 0.98410 0.72986 0.79586
 O891 O 1.04206 0.72613 0.79476
 O892 O 0.98594 0.77781 0.76126
 O893 O 0.98818 0.75116 0.71790
 O894 O 1.04300 0.69961 0.75125
 O895 O 0.98468 0.70337 0.75233
 O896 O 1.04580 0.75268 0.72488
 Cu897 Cu 1.01396 0.75595 0.78433
 Cu898 Cu 1.01564 0.72404 0.73233
 C899 C 1.05516 0.77465 0.74185
 C900 C 0.97382 0.70855 0.77890
 C901 C 1.05202 0.70398 0.77852
 C902 C 0.97746 0.77303 0.73366
 O903 O 0.51848 0.78236 0.25067
 O904 O 0.46109 0.73157 0.28164
 O905 O 0.51929 0.73396 0.28460
 O906 O 0.46104 0.77617 0.24245
 O907 O 0.46780 0.74573 0.20221
 O908 O 0.52244 0.70169 0.24528
 O909 O 0.46469 0.70101 0.24107
 O910 O 0.52509 0.75044 0.21159
 Cu911 Cu 0.48935 0.75914 0.26885
 Cu912 Cu 0.49555 0.72164 0.22103
 C913 C 0.53194 0.77493 0.22614
 C914 C 0.45287 0.70787 0.26679
 C915 C 0.53058 0.71035 0.27187
 C916 C 0.45475 0.76810 0.21496
 O917 O -0.03378 0.80732 0.24892
 O918 O 0.02635 0.77581 0.19976
 O919 O -0.03221 0.77018 0.20200
 O920 O 0.02490 0.80974 0.24942
 O921 O 0.02829 0.76926 0.27913
 O922 O -0.02972 0.73034 0.23268
 O923 O 0.02848 0.73545 0.22969
 O924 O -0.03050 0.76749 0.27950
 Cu925 Cu -0.00394 0.79479 0.22204
 Cu926 Cu -0.00052 0.74666 0.25825
 C927 C -0.04265 0.79265 0.27230
 C928 C 0.03777 0.75020 0.20646
 C929 C -0.04108 0.74366 0.20965
 C930 C 0.03668 0.79604 0.27203
 O931 O 0.47442 0.79148 0.76312
 O932 O 0.53324 0.76657 0.70967
 O933 O 0.47480 0.76093 0.71164
 O934 O 0.53293 0.79259 0.76385
 O935 O 0.53514 0.74847 0.78797
 O936 O 0.47774 0.71721 0.73634
 O937 O 0.53574 0.72251 0.73382
 O938 O 0.47652 0.74772 0.78783
 Cu939 Cu 0.50363 0.78231 0.73471
 Cu940 Cu 0.50658 0.72961 0.76387
 C941 C 0.46508 0.77403 0.78423
 C942 C 0.54467 0.74031 0.71266
 C943 C 0.46620 0.73348 0.71549
 C944 C 0.54408 0.77573 0.78463
 C945 C 0.40214 0.29837 0.30914
 C946 C 0.42066 0.30821 0.28700
 H947 H 0.40602 0.27594 0.31874
 H948 H 0.41797 0.33061 0.27716
 C949 C 0.42579 0.81050 0.79878
 C950 C 0.44013 0.78409 0.80423
 H951 H 0.43404 0.82424 0.77994
 H952 H 0.43308 0.76884 0.82223
 C953 C -0.08856 0.31364 0.80068
 C954 C -0.07417 0.32164 0.77483
 H955 H -0.08126 0.29295 0.81198
 H956 H -0.07996 0.34200 0.76240
 C957 C -0.08349 0.82908 0.28346
 C958 C -0.06792 0.80402 0.29101
 H959 H -0.07640 0.84182 0.26347
 H960 H -0.07444 0.79018 0.31031
 C961 C 0.57197 0.70470 0.30863
 C962 C 0.55390 0.69263 0.28711
 H963 H 0.56749 0.72763 0.31711
 H964 H 0.55728 0.66980 0.27821
 C965 C 0.60203 0.18546 0.79241
 C966 C 0.58330 0.20475 0.80665
 H967 H 0.59757 0.17872 0.76878
 H968 H 0.58678 0.21082 0.83056
 C969 C 1.08386 0.68473 0.81998
 C970 C 1.07505 0.68349 0.79062
 H971 H 1.07289 0.70065 0.83553
 H972 H 1.08600 0.66847 0.77429
 C973 C 1.07782 0.20301 0.31627
 C974 C 1.05963 0.19210 0.29401
 H975 H 1.07397 0.22607 0.32475
 H976 H 1.06120 0.16879 0.28591
 C977 C 0.58836 0.29582 0.69911
 C978 C 0.57713 0.30058 0.72738
 H979 H 0.58016 0.27642 0.68580
 H980 H 0.58498 0.31922 0.74180
 C981 C 0.57282 0.78775 0.19069
 C982 C 0.55593 0.79511 0.21511
 H983 H 0.56776 0.76639 0.17884
 H984 H 0.55973 0.81578 0.22832
 C985 C 1.07864 0.29908 0.20361
 C986 C 1.06427 0.27278 0.19665
 H987 H 1.07171 0.31117 0.22430
 H988 H 1.06996 0.25931 0.17659
 C989 C 1.09437 0.78859 0.70529
 C990 C 1.07927 0.79490 0.73117
 H991 H 1.08829 0.76782 0.69287
 H992 H 1.08469 0.81446 0.74549
 C993 C 0.43268 0.69165 0.69999
 C994 C 0.44189 0.72063 0.69626
 H995 H 0.44439 0.67765 0.71652
 H996 H 0.43067 0.73571 0.68048
 C997 C 0.40397 0.19517 0.20708
 C998 C 0.42014 0.21957 0.19824
 H999 H 0.41036 0.18438 0.22845
 H1000 H 0.41557 0.23115 0.17696
 C1001 C -0.07719 0.70179 0.19979
 C1002 C -0.06547 0.72896 0.19192
 H1003 H -0.06753 0.69001 0.21923
 H1004 H -0.07459 0.74188 0.17310
 C1005 C -0.09043 0.20441 0.70089
 C1006 C -0.07389 0.22722 0.68940
 H1007 H -0.08563 0.19651 0.72393
 H1008 H -0.07744 0.23500 0.66618
 C1009 C 0.28917 0.42352 0.29902
 C1010 C 0.26311 0.43769 0.30494
 H1011 H 0.30223 0.43108 0.27951
 H1012 H 0.24905 0.43096 0.32389
 C1013 C 0.30958 -0.07512 0.80029
 C1014 C 0.28358 -0.06125 0.80696
 H1015 H 0.32211 -0.06627 0.78093
 H1016 H 0.26971 -0.06885 0.82573
 C1017 C 0.79482 0.43408 0.80127
 C1018 C 0.80217 0.44846 0.77522
 H1019 H 0.77470 0.44162 0.81302
 H1020 H 0.82219 0.44292 0.76250
 C1021 C 0.78433 -0.06859 0.28508
 C1022 C 0.78948 -0.05376 0.25858
 H1023 H 0.76429 -0.06244 0.29773
 H1024 H 0.80867 -0.05880 0.24438
 C1025 C 0.32117 0.56749 0.70466
 C1026 C 0.29406 0.55499 0.70029
 H1027 H 0.33524 0.55834 0.72267
 H1028 H 0.27905 0.56374 0.68303
 C1029 C 0.28363 1.08021 0.20200
 C1030 C 0.29170 1.06440 0.22694
 H1031 H 0.26311 1.07332 0.19043
 H1032 H 0.31221 1.06922 0.23923
 C1033 C 0.80728 0.58157 0.20534
 C1034 C 0.78326 0.56541 0.19589
 H1035 H 0.81770 0.57505 0.22683
 H1036 H 0.77243 0.57021 0.17433
 C1037 C 0.80304 1.07347 0.68700
 C1038 C 0.81775 1.05472 0.70585
 H1039 H 0.78008 1.06817 0.68076
 H1040 H 0.84097 1.05895 0.71157
 C1041 C 0.68984 0.58714 0.28977
 C1042 C 0.71188 0.56860 0.29864
 H1043 H 0.67918 0.58268 0.26775
 H1044 H 0.72268 0.57188 0.32070
 C1045 C 0.71778 1.06742 0.79569
 C1046 C 0.74354 1.05347 0.80313
 H1047 H 0.70565 1.05860 0.77585
 H1048 H 0.75703 1.06082 0.82248
 C1049 C 0.20279 0.56892 0.80310
 C1050 C 0.22941 0.55553 0.80791
 H1051 H 0.18957 0.56049 0.78383
 H1052 H 0.24381 0.56263 0.82662
 C1053 C 0.18233 1.07487 0.30965
 C1054 C 0.20657 1.05835 0.31687
 H1055 H 0.17052 1.06886 0.28860
 H1056 H 0.21901 1.06222 0.33783
 C1057 C 0.69150 0.42985 0.69810
 C1058 C 0.71384 0.44775 0.68815
 H1059 H 0.68150 0.43509 0.72024
 H1060 H 0.72430 0.44392 0.66609
 C1061 C 0.67584 -0.07885 0.19800
 C1062 C 0.69158 -0.05720 0.18363
 H1063 H 0.67086 -0.07607 0.22226
 H1064 H 0.69581 -0.05927 0.15919
 C1065 C 0.19251 0.42147 0.19143
 C1066 C 0.18070 0.44079 0.21204
 H1067 H 0.21533 0.42514 0.18381
 H1068 H 0.15767 0.43827 0.21925
 C1069 C 0.19518 -0.07651 0.70693
 C1070 C 0.22045 -0.06122 0.70056
 H1071 H 0.18180 -0.06858 0.72619
 H1072 H 0.23484 -0.06861 0.68201
 C1073 C 0.28102 0.31077 0.42661
 C1074 C 0.29298 0.29056 0.44594
 H1075 H 0.25825 0.31837 0.43049
 H1076 H 0.31581 0.28307 0.44305
 C1077 C 0.30474 0.80174 -0.08217
 C1078 C 0.31584 0.77841 -0.06576
 H1079 H 0.28294 0.81060 -0.07590
 H1080 H 0.33766 0.76917 -0.07084
 C1081 C 0.79416 0.31905 -0.07926
 C1082 C 0.80376 0.29541 -0.06274
 H1083 H 0.77247 0.32874 -0.07385
 H1084 H 0.82537 0.28524 -0.06693
 C1085 C 0.79885 0.81924 0.40779
 C1086 C 0.81047 0.79596 0.42369
 H1087 H 0.77717 0.82790 0.41478
 H1088 H 0.83198 0.78647 0.41772
 C1089 C 0.70443 0.30806 0.57752
 C1090 C 0.69193 0.28772 0.55819
 H1091 H 0.72741 0.31518 0.57389
 H1092 H 0.66867 0.28128 0.56074
 C1093 C 0.69664 0.79801 1.07969
 C1094 C 0.68668 0.77515 1.06152
 H1095 H 0.71897 0.80701 1.07602
 H1096 H 0.66422 0.76629 1.06392
 C1097 C 0.18650 0.29753 1.07406
 C1098 C 0.21350 0.30403 1.06223
 H1099 H 0.17400 0.27828 1.06468
 H1100 H 0.22712 0.32242 1.07138
 C1101 C 0.21015 0.79871 0.58696
 C1102 C 0.19746 0.77661 0.56955
 H1103 H 0.23295 0.80581 0.58229
 H1104 H 0.17435 0.77014 0.57300
 C1105 C 0.30856 0.69002 0.58438
 C1106 C 0.28083 0.68272 0.57491
 H1107 H 0.32009 0.70870 0.57318
 H1108 H 0.26830 0.66476 0.58594
 C1109 C 0.28766 0.19614 1.08278
 C1110 C 0.30008 0.21701 1.06446
 H1111 H 0.26503 0.18851 1.07782
 H1112 H 0.32277 0.22481 1.06825
 C1113 C 0.80081 0.69975 1.08194
 C1114 C 0.77678 0.68869 1.06684
 H1115 H 0.81013 0.72143 1.07464
 H1116 H 0.76696 0.66702 1.07296
 C1117 C 0.79770 0.20052 0.57386
 C1118 C 0.77132 0.19329 0.56082
 H1119 H 0.81000 0.21999 0.56510
 H1120 H 0.75787 0.17457 0.56919
 C1121 C 0.70174 0.71003 0.41333
 C1122 C 0.72800 0.70230 0.42595
 H1123 H 0.69095 0.73067 0.42167
 H1124 H 0.73959 0.68182 0.41878
 C1125 C 0.72286 0.19196 -0.08718
 C1126 C 0.71070 0.21473 -0.07060
 H1127 H 0.74484 0.18374 -0.08079
 H1128 H 0.68860 0.22308 -0.07582
 C1129 C 0.21024 0.69008 -0.07332
 C1130 C 0.23555 0.68207 -0.05914
 H1131 H 0.19981 0.71144 -0.06650
 H1132 H 0.24658 0.66077 -0.06466
 C1133 C 0.20185 0.19279 0.43021
 C1134 C 0.19304 0.21523 0.44914
 H1135 H 0.22386 0.18299 0.43353
 H1136 H 0.17101 0.22508 0.44695
 C1137 C 0.32215 0.41010 0.70985
 C1138 C 0.29623 0.42397 0.70273
 H1139 H 0.33471 0.41875 0.72945
 H1140 H 0.28282 0.41633 0.68346
 C1141 C 0.30360 0.92884 0.20546
 C1142 C 0.27608 0.93978 0.20069
 H1143 H 0.31654 0.93819 0.22450
 H1144 H 0.26221 0.93142 0.18202
 C1145 C 0.80270 0.42157 0.20414
 C1146 C 0.77721 0.43529 0.19539
 H1147 H 0.81412 0.43044 0.22438
 H1148 H 0.76487 0.42755 0.17539
 C1149 C 0.83563 0.91497 0.69579
 C1150 C 0.80772 0.92555 0.69315
 H1151 H 0.85006 0.92503 0.71328
 H1152 H 0.79240 0.91602 0.67632
 C1153 C 0.70827 0.59462 0.68469
 C1154 C 0.69848 0.57575 0.70663
 H1155 H 0.73044 0.59096 0.67528
 H1156 H 0.67648 0.57813 0.71655
 C1157 C 0.67985 0.08775 0.17702
 C1158 C 0.67651 0.07343 0.20384
 H1159 H 0.69694 0.07934 0.16144
 H1160 H 0.66002 0.08110 0.22035
 C1161 C 0.18287 0.58609 0.20277
 C1162 C 0.20732 0.56946 0.19690
 H1163 H 0.16924 0.57980 0.22234
 H1164 H 0.22164 0.57459 0.17763
 C1165 C 0.18948 0.08475 0.71327
 C1166 C 0.21571 0.07148 0.70597
 H1167 H 0.17692 0.07546 0.73236
 H1168 H 0.22922 0.07993 0.68731
 C1169 C 0.30184 0.57059 0.30122
 C1170 C 0.27273 0.56420 0.30450
 H1171 H 0.31457 0.55865 0.28364
 H1172 H 0.25932 0.57671 0.32100
 C1173 C 0.31530 0.08194 0.80077
 C1174 C 0.28875 0.06884 0.80721
 H1175 H 0.32756 0.07359 0.78092
 H1176 H 0.27577 0.07602 0.82688
 C1177 C 0.80875 0.58901 0.78983
 C1178 C 0.78478 0.57244 0.79765
 H1179 H 0.81901 0.58495 0.76758
 H1180 H 0.77460 0.57499 0.82006
 C1181 C 0.78299 0.08177 0.29486
 C1182 C 0.78469 0.07341 0.26524
 H1183 H 0.76632 0.07108 0.30935
 H1184 H 0.80029 0.08472 0.25008
 C1185 C 0.70100 0.41820 0.30207
 C1186 C 0.69031 0.44041 0.28423
 H1187 H 0.72449 0.41869 0.30833
 H1188 H 0.66683 0.44076 0.27822
 C1189 C 0.71010 0.91766 0.79675
 C1190 C 0.73904 0.92489 0.80028
 H1191 H 0.69723 0.92978 0.77961
 H1192 H 0.75289 0.91320 0.81677
 C1193 C 0.19615 0.41477 0.79694
 C1194 C 0.22339 0.42624 0.80363
 H1195 H 0.18401 0.42442 0.77776
 H1196 H 0.23656 0.41748 0.82239
 C1197 C 0.20268 0.91293 0.31477
 C1198 C 0.19218 0.93167 0.29310
 H1199 H 0.22491 0.91717 0.32396
 H1200 H 0.16997 0.92882 0.28366
 C1201 C 0.44071 0.29001 0.70112
 C1202 C 0.45190 0.29543 0.72924
 H1203 H 0.45073 0.27214 0.68712
 H1204 H 0.44192 0.31240 0.74422
 C1205 C 0.41382 0.80508 0.20985
 C1206 C 0.43187 0.78417 0.19722
 H1207 H 0.41715 0.81171 0.23372
 H1208 H 0.42977 0.77791 0.17319
 C1209 C 0.92205 0.30501 0.20983
 C1210 C 0.93891 0.28198 0.19910
 H1211 H 0.92698 0.31438 0.23246
 H1212 H 0.93498 0.27225 0.17655
 C1213 C 0.94560 0.78908 0.69078
 C1214 C 0.95449 0.79273 0.72011
 H1215 H 0.95596 0.77141 0.67678
 H1216 H 0.94408 0.80937 0.73515
 C1217 C 0.56820 0.31331 0.28987
 C1218 C 0.54812 0.29319 0.30080
 H1219 H 0.56493 0.32229 0.26697
 H1220 H 0.55019 0.28438 0.32382
 C1221 C 0.57960 0.81535 0.80217
 C1222 C 0.56847 0.78704 0.80458
 H1223 H 0.56950 0.83074 0.78577
 H1224 H 0.57866 0.77075 0.81989
 C1225 C 0.06823 0.30479 0.80301
 C1226 C 0.05346 0.31608 0.77879
 H1227 H 0.06026 0.28361 0.81290
 H1228 H 0.06044 0.33708 0.76812
 C1229 C 0.07831 0.79691 0.30967
 C1230 C 0.06089 0.81150 0.28933
 H1231 H 0.07307 0.77338 0.31522
 H1232 H 0.06491 0.83522 0.28393
 C1233 C 0.58116 0.70308 0.69296
 C1234 C 0.56914 0.73103 0.69178
 H1235 H 0.57168 0.68689 0.70901
 H1236 H 0.57814 0.74811 0.67650
 C1237 C 0.56122 0.21179 0.18894
 C1238 C 0.54627 0.20302 0.21411
 H1239 H 0.55430 0.23284 0.17808
 H1240 H 0.55214 0.18228 0.22594
 C1241 C 0.07421 0.71033 0.19368
 C1242 C 0.06263 0.73785 0.18762
 H1243 H 0.06386 0.69715 0.21181
 H1244 H 0.07191 0.75203 0.16976
 C1245 C 0.06934 0.20215 0.71151
 C1246 C 0.05177 0.22209 0.69674
 H1247 H 0.06404 0.19604 0.73499
 H1248 H 0.05606 0.22772 0.67301
 C1249 C 0.41779 0.69327 0.30743
 C1250 C 0.42916 0.68820 0.27929
 H1251 H 0.42681 0.71208 0.32105
 H1252 H 0.42099 0.66990 0.26466
 C1253 C 0.44256 0.19258 0.82059
 C1254 C 0.45518 0.18829 0.79302
 H1255 H 0.45207 0.20992 0.83575
 H1256 H 0.44636 0.17151 0.77696
 C1257 C 0.93640 0.69440 0.81756
 C1258 C 0.94829 0.69027 0.78948
 H1259 H 0.94684 0.71073 0.83318
 H1260 H 0.93828 0.67484 0.77284
 C1261 C 0.91703 0.18391 0.29201
 C1262 C 0.93353 0.20854 0.29971
 H1263 H 0.92333 0.17094 0.27167
 H1264 H 0.92813 0.22235 0.31963
 C1265 C 0.31480 0.28374 0.59111
 C1266 C 0.29397 0.29662 0.57342
 H1267 H 0.32078 0.26005 0.58695
 H1268 H 0.28822 0.32043 0.57652
 C1269 C 0.30119 0.80824 0.08215
 C1270 C 0.31491 0.78738 0.06437
 H1271 H 0.27822 0.81436 0.07715
 H1272 H 0.33808 0.78162 0.06837
 C1273 C 0.80644 0.29379 0.08623
 C1274 C 0.78580 0.30497 0.06707
 H1275 H 0.81486 0.27092 0.08198
 H1276 H 0.77739 0.32791 0.07014
 C1277 C 0.82930 0.79430 0.57022
 C1278 C 0.80472 0.80374 0.55536
 H1279 H 0.83956 0.77310 0.56263
 H1280 H 0.79358 0.82467 0.56191
 C1281 C 0.30453 0.68556 0.43038
 C1282 C 0.27957 0.67610 0.44462
 H1283 H 0.31490 0.70671 0.43821
 H1284 H 0.26839 0.65516 0.43790
 C1285 C 0.31228 0.20730 0.92114
 C1286 C 0.28663 0.19987 0.93504
 H1287 H 0.32342 0.22836 0.92806
 H1288 H 0.27499 0.17883 0.92948
 C1289 C 0.80583 0.70084 0.92192
 C1290 C 0.78270 0.68837 0.93693
 H1291 H 0.81382 0.72330 0.92891
 H1292 H 0.77498 0.66556 0.93116
 C1293 C 0.80033 0.20396 0.41390
 C1294 C 0.77821 0.19360 0.43179
 H1295 H 0.80952 0.22655 0.41835
 H1296 H 0.76915 0.17088 0.42844
 C1297 C 0.68324 0.28858 0.41114
 C1298 C 0.70593 0.29659 0.42974
 H1299 H 0.67216 0.26682 0.41481
 H1300 H 0.71718 0.31832 0.42730
 C1301 C 0.70164 0.80120 0.92120
 C1302 C 0.69333 0.77394 0.93233
 H1303 H 0.72085 0.81263 0.93144
 H1304 H 0.67488 0.76140 0.92216
 C1305 C 0.19059 0.29236 0.91728
 C1306 C 0.21336 0.30321 0.93428
 H1307 H 0.18153 0.26995 0.92239
 H1308 H 0.22238 0.32577 0.93034
 C1309 C 0.20015 0.78954 0.42859
 C1310 C 0.19157 0.76348 0.44194
 H1311 H 0.22048 0.80050 0.43684
 H1312 H 0.17149 0.75167 0.43464
 C1313 C 0.70027 0.72066 0.57166
 C1314 C 0.72238 0.70932 0.55400
 H1315 H 0.69200 0.74344 0.56711
 H1316 H 0.73052 0.68640 0.55734
 C1317 C 0.68195 0.22075 0.07379
 C1318 C 0.70249 0.20852 0.05501
 H1319 H 0.67660 0.24481 0.07181
 H1320 H 0.70768 0.18444 0.05582
 C1321 C 0.20201 0.70678 0.08078
 C1322 C 0.22877 0.69749 0.06996
 H1323 H 0.19161 0.72636 0.07012
 H1324 H 0.24027 0.67846 0.08019
 C1325 C 0.19199 0.21297 0.59772
 C1326 C 0.21214 0.20130 0.57826
 H1327 H 0.18441 0.23621 0.59423
 H1328 H 0.21971 0.17800 0.58067
   
