data_POSCAR
  _audit_creation_date              2014-09-24
  _audit_creation_method            'ToBaCCo'
  _symmetry_space_group_name_H-M    'P1'
  _symmetry_Int_Tables_number       1
  _symmetry_cell_setting            triclinic
  loop_
  _symmetry_equiv_pos_as_xyz
 x,y,z
_cell_length_a 52.4546
_cell_length_b 52.3834
_cell_length_c 53.1108
_cell_angle_alpha 89.096300
_cell_angle_beta 89.355400
_cell_angle_gamma 90.164200
loop_
  _atom_site_label
  _atom_site_type_symbol
  _atom_site_fract_x
  _atom_site_fract_y
  _atom_site_fract_z
C1 C 0.37852 -0.00077 0.25110
 C2 C 0.12190 -0.00920 0.74178
 C3 C 0.61891 0.50060 0.25046
 C4 C 0.87986 0.49872 0.75134
 C5 C 0.25130 0.37413 0.99551
 C6 C 0.75257 0.13190 1.00822
 C7 C 0.25426 0.62341 0.50315
 C8 C 0.75087 0.87162 0.49630
 C9 C -0.00369 0.25380 0.37930
 C10 C 0.00132 0.75129 0.13410
 C11 C 0.50166 0.24570 0.62829
 C12 C 0.50113 0.75843 0.88756
 C13 C -0.25254 0.62870 1.00130
 C14 C -0.24467 0.37164 0.50285
 C15 C 0.25331 -0.12710 -0.00265
 C16 C 0.25124 1.13236 0.50010
 C17 C 0.11717 0.49620 0.25002
 C18 C -0.12015 0.99994 0.24400
 C19 C 0.37785 0.49467 -0.24979
 C20 C 0.61743 -0.00158 -0.24873
 C21 C -0.00299 0.24983 0.88081
 C22 C 0.50446 0.25260 0.13710
 C23 C 0.00321 0.75284 0.63616
 C24 C 0.49856 0.74985 0.38104
 Zr25 Zr 0.01408 -0.02676 1.02505
 O26 O 0.03907 -0.01244 1.05256
 O27 O 0.00810 -0.06433 1.03775
 O28 O -0.00364 -0.02589 1.06089
 O29 O 0.06166 -0.04000 0.98148
 O30 O -0.04090 -0.00481 1.05372
 O31 O 0.05041 -0.04366 1.02302
 O32 O -0.02252 -0.07928 1.01153
 O33 O -0.02470 -0.03221 1.01810
 O34 O 0.01197 -0.04655 0.99125
 O35 O -0.00173 0.01004 1.02387
 O36 O 0.03381 -0.00382 0.99822
 Zr37 Zr -0.02481 0.00828 0.95400
 Zr38 Zr -0.04007 0.00441 1.01501
 Zr39 Zr 0.02964 -0.02313 0.96416
 Zr40 Zr -0.02661 -0.05054 0.98362
 O41 O 0.06338 -0.00388 0.95248
 O42 O -0.06350 -0.06115 0.99686
 O43 O -0.00881 -0.02872 0.95485
 O44 O -0.04401 -0.01473 0.98094
 O45 O -0.02277 0.02827 0.98776
 O46 O 0.01401 0.01332 0.96128
 C47 C -0.00783 -0.08139 1.03066
 C48 C 0.06610 -0.04662 1.00450
 C49 C -0.02513 -0.01659 1.06819
 O50 O -0.07518 -0.01379 1.02390
 O51 O -0.07003 0.02507 0.99879
 O52 O -0.06019 0.02767 0.95689
 C53 C -0.07481 0.03214 0.97604
 O54 O 0.04256 0.03811 1.02460
 Zr55 Zr 0.01596 0.03201 0.99538
 O56 O -0.01896 0.04581 0.94112
 O57 O -0.04508 0.03834 1.03556
 O58 O 0.00163 0.06261 1.01696
 O59 O 0.05130 0.04491 0.98003
 O60 O 0.00823 0.06230 0.96995
 C61 C -0.00544 0.06397 0.95000
 O62 O -0.05123 -0.00550 0.92757
 O63 O 0.03607 -0.05847 0.94644
 O64 O -0.00803 0.00506 0.91781
 O65 O 0.02831 -0.01781 0.92479
 O66 O -0.01253 -0.08324 0.96504
 O67 O -0.04930 -0.05767 0.95157
 C68 C 0.01256 -0.00601 0.91027
 H69 H 0.02035 -0.06345 0.99210
 H70 H -0.06215 -0.01695 0.97648
 H71 H 0.02310 0.02334 0.94800
 H72 H 0.00010 0.01862 1.04024
 H73 H -0.06523 -0.07986 0.99489
 H74 H -0.08463 -0.00233 1.03535
 H75 H -0.06213 0.03720 1.04373
 H76 H 0.01182 0.07799 1.01240
 H77 H -0.02378 -0.09777 0.96989
 H78 H 0.05308 -0.05725 0.93819
 H79 H 0.07287 -0.01567 0.94140
 H80 H 0.05231 0.06358 0.98263
 H81 H -0.05701 -0.07490 0.95314
 H82 H -0.05450 0.00864 0.91539
 H83 H 0.04250 -0.02657 1.06470
 H84 H 0.04703 0.05647 1.02511
 Zr85 Zr 0.52787 0.48328 0.54012
 O86 O 0.55351 0.50078 0.56511
 O87 O 0.52531 0.44618 0.55510
 O88 O 0.51213 0.48464 0.57697
 O89 O 0.57273 0.47070 0.49367
 O90 O 0.47314 0.50284 0.57110
 O91 O 0.56527 0.46867 0.53609
 O92 O 0.49485 0.42778 0.53092
 O93 O 0.48917 0.47471 0.53576
 O94 O 0.52502 0.46195 0.50727
 O95 O 0.50915 0.51871 0.53844
 O96 O 0.54403 0.50637 0.51114
 Zr97 Zr 0.48205 0.51204 0.47026
 Zr98 Zr 0.47082 0.50989 0.53213
 Zr99 Zr 0.53906 0.48537 0.47816
 Zr100 Zr 0.48650 0.45470 0.50229
 O101 O 0.57097 0.50634 0.46438
 O102 O 0.45150 0.44196 0.51852
 O103 O 0.50073 0.47638 0.47151
 O104 O 0.46630 0.48893 0.49922
 O105 O 0.48460 0.53366 0.50300
 O106 O 0.52071 0.52041 0.47497
 C107 C 0.51040 0.42769 0.54952
 C108 C 0.57935 0.46521 0.51637
 C109 C 0.49049 0.49294 0.58513
 O110 O 0.43794 0.48937 0.54415
 O111 O 0.43825 0.52716 0.51690
 O112 O 0.44552 0.52864 0.47447
 C113 C 0.43165 0.53267 0.49421
 O114 O 0.55123 0.55005 0.53522
 Zr115 Zr 0.52335 0.54061 0.50813
 O116 O 0.48396 0.54936 0.45587
 O117 O 0.46428 0.54441 0.55127
 O118 O 0.50807 0.57100 0.52941
 O119 O 0.55659 0.55553 0.49009
 O120 O 0.51167 0.56901 0.48220
 C121 C 0.49664 0.56880 0.46319
 O122 O 0.45540 0.49492 0.44605
 O123 O 0.54643 0.45004 0.46078
 O124 O 0.49693 0.50897 0.43322
 O125 O 0.53548 0.48972 0.43886
 O126 O 0.50177 0.42228 0.48411
 O127 O 0.46231 0.44416 0.47232
 C128 C 0.51813 0.49975 0.42488
 H129 H 0.53456 0.44568 0.50818
 H130 H 0.44815 0.48508 0.49603
 H131 H 0.52826 0.53057 0.46089
 H132 H 0.51129 0.52820 0.55425
 H133 H 0.45119 0.42308 0.51764
 H134 H 0.42826 0.50065 0.55558
 H135 H 0.44788 0.54235 0.56055
 H136 H 0.51669 0.58691 0.52356
 H137 H 0.49212 0.40716 0.49045
 H138 H 0.56282 0.45202 0.45148
 H139 H 0.58053 0.49492 0.45297
 H140 H 0.55626 0.57434 0.49186
 H141 H 0.45602 0.42650 0.47524
 H142 H 0.45026 0.50817 0.43357
 H143 H 0.55869 0.48753 0.57757
 H144 H 0.55422 0.56873 0.53481
 Zr145 Zr 0.47954 1.01315 0.53651
 O146 O 0.45502 0.99533 0.56346
 O147 O 0.48471 1.04923 0.55171
 O148 O 0.49779 1.00984 0.57156
 O149 O 0.43214 1.03045 0.49497
 O150 O 0.53541 0.99009 0.56237
 O151 O 0.44300 1.03005 0.53645
 O152 O 0.51387 1.06801 0.52504
 O153 O 0.51821 1.02007 0.52895
 O154 O 0.48128 1.03617 0.50403
 O155 O 0.49620 0.97696 0.53271
 O156 O 0.46012 0.99251 0.50885
 Zr157 Zr 0.51877 0.98594 0.46240
 Zr158 Zr 0.53441 0.98422 0.52318
 Zr159 Zr 0.46397 1.01512 0.47604
 Zr160 Zr 0.51969 1.04174 0.49575
 O161 O 0.43030 0.99650 0.46451
 O162 O 0.55603 1.05169 0.50977
 O163 O 0.50219 1.02243 0.46607
 O164 O 0.53773 1.00663 0.49025
 O165 O 0.51733 0.96279 0.49494
 O166 O 0.48015 0.97938 0.47049
 C167 C 0.49949 1.06766 0.54488
 C168 C 0.42758 1.03510 0.51834
 C169 C 0.51958 1.00057 0.57776
 O170 O 0.56934 1.00212 0.53202
 O171 O 0.56464 0.96560 0.50483
 O172 O 0.55427 0.96662 0.46320
 C173 C 0.56914 0.96059 0.48156
 O174 O 0.45255 0.94793 0.53290
 Zr175 Zr 0.47875 0.95747 0.50338
 O176 O 0.51369 0.94965 0.44745
 O177 O 0.54007 0.94860 0.54157
 O178 O 0.49395 0.92516 0.52242
 O179 O 0.44353 0.94529 0.48836
 O180 O 0.48676 0.93002 0.47578
 C181 C 0.50042 0.93052 0.45547
 O182 O 0.54477 1.00292 0.43633
 O183 O 0.45703 1.05177 0.46028
 O184 O 0.50148 0.99190 0.42684
 O185 O 0.46494 1.01333 0.43658
 O186 O 0.50532 1.07564 0.47889
 O187 O 0.54283 1.05256 0.46423
 C188 C 0.48047 1.00311 0.42076
 H189 H 0.47265 1.05281 0.50600
 H190 H 0.55580 1.00961 0.48547
 H191 H 0.47109 0.97048 0.45693
 H192 H 0.49466 0.96685 0.54857
 H193 H 0.55729 1.07057 0.50931
 H194 H 0.57902 0.98982 0.54255
 H195 H 0.55716 0.94930 0.54929
 H196 H 0.48406 0.91005 0.51715
 H197 H 0.51608 1.08999 0.48457
 H198 H 0.43996 1.05109 0.45251
 H199 H 0.42056 1.00908 0.45436
 H200 H 0.44292 0.92641 0.48983
 H201 H 0.55058 1.06949 0.46719
 H202 H 0.54828 0.99008 0.42321
 H203 H 0.45136 1.00807 0.57663
 H204 H 0.44860 0.92945 0.53245
 Zr205 Zr -0.01269 0.52989 1.03177
 O206 O -0.03695 0.51729 1.06162
 O207 O -0.00436 0.56740 1.04229
 O208 O 0.00643 0.52867 1.06645
 O209 O -0.06167 0.54319 0.99042
 O210 O 0.04289 0.50649 1.05811
 O211 O -0.04881 0.54800 1.03093
 O212 O 0.02420 0.58130 1.01233
 O213 O 0.02591 0.53398 1.02194
 O214 O -0.01153 0.54880 0.99688
 O215 O 0.00224 0.49260 1.03139
 O216 O -0.03406 0.50672 1.00763
 Zr217 Zr 0.02200 0.49252 0.96000
 Zr218 Zr 0.04032 0.49687 1.01975
 Zr219 Zr -0.03092 0.52517 0.97241
 Zr220 Zr 0.02673 0.55153 0.98641
 O221 O -0.06555 0.50640 0.96411
 O222 O 0.06425 0.56148 0.99715
 O223 O 0.00698 0.52980 0.96003
 O224 O 0.04312 0.51529 0.98449
 O225 O 0.02114 0.47308 0.99480
 O226 O -0.01638 0.48827 0.97022
 C227 C 0.01115 0.58406 1.03268
 C228 C -0.06515 0.55077 1.01310
 C229 C 0.02785 0.51877 1.07296
 O230 O 0.07613 0.51440 1.02546
 O231 O 0.06893 0.47491 1.00233
 O232 O 0.05676 0.47222 0.96132
 C233 C 0.07217 0.46741 0.97952
 O234 O -0.04259 0.46569 1.03654
 Zr235 Zr -0.01717 0.47040 1.00535
 O236 O 0.01518 0.45523 0.94883
 O237 O 0.04552 0.46316 1.04153
 O238 O -0.00259 0.44010 1.02783
 O239 O -0.05338 0.45811 0.99281
 O240 O -0.01123 0.43896 0.98154
 C241 C 0.00180 0.43573 0.95935
 O242 O 0.04742 0.50563 0.93135
 O243 O -0.03754 0.56022 0.95325
 O244 O 0.00352 0.49529 0.92478
 O245 O -0.03161 0.51922 0.93359
 O246 O 0.01277 0.58396 0.96658
 O247 O 0.04839 0.55722 0.95272
 C248 C -0.01724 0.50672 0.91843
 H249 H -0.01944 0.56593 0.99732
 H250 H 0.06107 0.51693 0.97872
 H251 H -0.02621 0.47811 0.95811
 H252 H 0.00092 0.48436 1.04826
 H253 H 0.06647 0.58003 0.99388
 H254 H 0.08586 0.50281 1.03669
 H255 H 0.06298 0.46399 1.04840
 H256 H -0.01342 0.42490 1.02506
 H257 H 0.02465 0.59830 0.96965
 H258 H -0.05489 0.55919 0.94613
 H259 H -0.07525 0.51800 0.95286
 H260 H -0.05483 0.43957 0.99660
 H261 H 0.05683 0.57414 0.95300
 H262 H 0.04988 0.49135 0.91952
 H263 H -0.03941 0.53190 1.07306
 H264 H -0.04766 0.44751 1.03820
 Zr265 Zr -0.01785 0.49436 0.46279
 O266 O -0.03961 0.51333 0.43492
 O267 O -0.01316 0.45811 0.44724
 O268 O 0.00333 0.49819 0.42857
 O269 O -0.06872 0.47924 0.50237
 O270 O 0.04019 0.51748 0.44075
 O271 O -0.05544 0.47913 0.46134
 O272 O 0.01246 0.43741 0.47533
 O273 O 0.01994 0.48583 0.47203
 O274 O -0.01934 0.47076 0.49492
 O275 O -0.00009 0.52986 0.46880
 O276 O -0.03791 0.51534 0.49033
 Zr277 Zr 0.01767 0.51830 0.53964
 Zr278 Zr 0.03705 0.52092 0.47984
 Zr279 Zr -0.03730 0.49195 0.52275
 Zr280 Zr 0.01817 0.46334 0.50473
 O281 O -0.07050 0.51193 0.53382
 O282 O 0.05465 0.45229 0.49126
 O283 O -0.00025 0.48269 0.53411
 O284 O 0.03734 0.49747 0.51207
 O285 O 0.01933 0.54241 0.50783
 O286 O -0.02004 0.52677 0.53028
 C287 C -0.00040 0.43861 0.45484
 C288 C -0.07227 0.47497 0.47890
 C289 C 0.02565 0.50785 0.42409
 O290 O 0.07142 0.50169 0.47124
 O291 O 0.06714 0.53704 0.49988
 O292 O 0.05403 0.53591 0.54097
 C293 C 0.07045 0.54126 0.52340
 O294 O -0.04227 0.56115 0.46781
 Zr295 Zr -0.01838 0.54951 0.49792
 O296 O 0.01298 0.55438 0.55540
 O297 O 0.04567 0.55706 0.46349
 O298 O -0.00079 0.58157 0.48001
 O299 O -0.05398 0.56219 0.51226
 O300 O -0.01044 0.57630 0.52630
 C301 C 0.00174 0.57456 0.54721
 O302 O 0.04137 0.50000 0.56637
 O303 O -0.04749 0.45520 0.53674
 O304 O -0.00173 0.51111 0.57417
 O305 O -0.03851 0.49166 0.56220
 O306 O 0.00117 0.43006 0.52091
 O307 O 0.03923 0.45083 0.53655
 C308 C -0.02332 0.50016 0.57897
 H309 H -0.02871 0.45461 0.49231
 H310 H 0.05494 0.49356 0.51743
 H311 H -0.02946 0.53556 0.54386
 H312 H -0.00010 0.54053 0.45324
 H313 H 0.05513 0.43338 0.49141
 H314 H 0.08244 0.51396 0.46175
 H315 H 0.06326 0.55605 0.45657
 H316 H -0.01026 0.59696 0.48531
 H317 H 0.01147 0.41524 0.51554
 H318 H -0.06498 0.45653 0.54385
 H319 H -0.08142 0.49963 0.54338
 H320 H -0.05370 0.58111 0.51183
 H321 H 0.04649 0.43375 0.53329
 H322 H 0.04441 0.51235 0.57999
 H323 H -0.04291 0.50076 0.42155
 H324 H -0.04612 0.57957 0.46927
 Zr325 Zr 0.48055 -0.00172 -0.04002
 O326 O 0.45789 0.01329 -0.06944
 O327 O 0.48718 -0.03888 -0.05201
 O328 O 0.50150 0.00004 -0.07452
 O329 O 0.42966 -0.01543 0.00027
 O330 O 0.53831 0.02038 -0.06390
 O331 O 0.44413 -0.01927 -0.04022
 O332 O 0.51300 -0.05572 -0.02170
 O333 O 0.51847 -0.00785 -0.02966
 O334 O 0.47942 -0.02187 -0.00565
 O335 O 0.49698 0.03483 -0.03787
 O336 O 0.45906 0.02101 -0.01510
 Zr337 Zr 0.51382 0.03183 0.03364
 Zr338 Zr 0.53427 0.02853 -0.02557
 Zr339 Zr 0.46004 0.00131 0.01969
 Zr340 Zr 0.51700 -0.02674 0.00518
 O341 O 0.42575 0.02082 0.02793
 O342 O 0.55420 -0.03778 -0.00619
 O343 O 0.49739 -0.00499 0.03210
 O344 O 0.53478 0.00878 0.00893
 O345 O 0.51509 0.05235 -0.00044
 O346 O 0.47591 0.03750 0.02319
 C347 C 0.50063 -0.05694 -0.04247
 C348 C 0.42714 -0.02251 -0.02269
 C349 C 0.52382 0.00936 -0.07976
 O350 O 0.56944 0.00973 -0.03157
 O351 O 0.56362 0.04762 -0.00691
 O352 O 0.54925 0.05111 0.03357
 C353 C 0.56607 0.05470 0.01601
 O354 O 0.45373 0.06347 -0.04313
 Zr355 Zr 0.47720 0.05659 -0.01139
 O356 O 0.50700 0.06920 0.04544
 O357 O 0.54192 0.06299 -0.04560
 O358 O 0.49406 0.08747 -0.03186
 O359 O 0.44069 0.06934 0.00037
 O360 O 0.48254 0.08642 0.01426
 C361 C 0.49430 0.08759 0.03532
 O362 O 0.53797 0.01769 0.06232
 O363 O 0.45150 -0.03406 0.03770
 O364 O 0.49467 0.02772 0.06848
 O365 O 0.45819 0.00612 0.05913
 O366 O 0.50103 -0.05900 0.02421
 O367 O 0.53766 -0.03481 0.03856
 C368 C 0.47337 0.01698 0.07466
 H369 H 0.47090 -0.03869 -0.00671
 H370 H 0.55239 0.00617 0.01497
 H371 H 0.46586 0.04731 0.03558
 H372 H 0.49682 0.04376 -0.05444
 H373 H 0.55530 -0.05657 -0.00405
 H374 H 0.58021 0.02129 -0.04217
 H375 H 0.55960 0.06176 -0.05222
 H376 H 0.48366 0.10285 -0.02857
 H377 H 0.51207 -0.07383 0.02049
 H378 H 0.43391 -0.03271 0.04453
 H379 H 0.41522 0.00911 0.03859
 H380 H 0.44004 0.08804 -0.00269
 H381 H 0.54560 -0.05188 0.03734
 H382 H 0.54037 0.03159 0.07456
 H383 H 0.45540 -0.00062 -0.08165
 H384 H 0.44964 0.08188 -0.04432
 Zr385 Zr 0.52366 0.51348 -0.03928
 O386 O 0.54623 0.49537 -0.06702
 O387 O 0.52149 0.55095 -0.05361
 O388 O 0.50491 0.51293 -0.07431
 O389 O 0.57328 0.52256 0.00205
 O390 O 0.46568 0.49634 -0.06467
 O391 O 0.56187 0.52657 -0.03914
 O392 O 0.49440 0.57023 -0.02596
 O393 O 0.48590 0.52343 -0.03093
 O394 O 0.52460 0.53457 -0.00621
 O395 O 0.50367 0.47868 -0.03571
 O396 O 0.54109 0.48942 -0.01226
 Zr397 Zr 0.48269 0.48586 0.03498
 Zr398 Zr 0.46643 0.48890 -0.02559
 Zr399 Zr 0.53997 0.51035 0.02109
 Zr400 Zr 0.48696 0.54313 0.00285
 O401 O 0.57143 0.48785 0.03237
 O402 O 0.45145 0.55729 -0.00990
 O403 O 0.50283 0.52073 0.03181
 O404 O 0.46555 0.50965 0.00782
 O405 O 0.48155 0.46449 0.00199
 O406 O 0.52038 0.47602 0.02636
 C407 C 0.50828 0.57005 -0.04609
 C408 C 0.57812 0.52819 -0.02119
 C409 C 0.48232 0.50564 -0.08032
 O410 O 0.43351 0.51064 -0.03372
 O411 O 0.43476 0.47210 -0.00727
 O412 O 0.44567 0.46958 0.03418
 C413 C 0.43018 0.46590 0.01588
 O414 O 0.54425 0.44541 -0.03686
 Zr415 Zr 0.51929 0.45592 -0.00700
 O416 O 0.48403 0.44847 0.04898
 O417 O 0.45694 0.45494 -0.04445
 O418 O 0.50095 0.42630 -0.02672
 O419 O 0.55326 0.43996 0.00765
 O420 O 0.50840 0.42766 0.01997
 C421 C 0.49485 0.42847 0.04034
 O422 O 0.45849 0.50360 0.06159
 O423 O 0.55120 0.54544 0.03685
 O424 O 0.50067 0.48874 0.07049
 O425 O 0.53901 0.50717 0.06055
 O426 O 0.50501 0.57466 0.01986
 O427 O 0.46569 0.55415 0.03517
 C428 C 0.52263 0.49794 0.07648
 H429 H 0.53487 0.55039 -0.00802
 H430 H 0.44789 0.51400 0.01289
 H431 H 0.52852 0.46561 0.03974
 H432 H 0.50406 0.46926 -0.05172
 H433 H 0.45201 0.57616 -0.00881
 H434 H 0.42243 0.49986 -0.04420
 H435 H 0.43990 0.45763 -0.05190
 H436 H 0.50929 0.41003 -0.02184
 H437 H 0.49551 0.59021 0.01482
 H438 H 0.56808 0.54258 0.04458
 H439 H 0.58251 0.49890 0.04258
 H440 H 0.55195 0.42116 0.00617
 H441 H 0.45980 0.57198 0.03294
 H442 H 0.45390 0.49043 0.07449
 H443 H 0.55096 0.50858 -0.07985
 H444 H 0.54672 0.42668 -0.03643
 Zr445 Zr 0.02208 1.01871 0.45579
 O446 O 0.04632 1.00888 0.42533
 O447 O 0.01492 1.05723 0.44786
 O448 O 0.00258 1.02091 0.42124
 O449 O 0.07032 1.02909 0.49830
 O450 O -0.03231 0.99537 0.42773
 O451 O 0.05789 1.03726 0.45796
 O452 O -0.01368 1.06869 0.47833
 O453 O -0.01669 1.02126 0.46530
 O454 O 0.02035 1.03431 0.49173
 O455 O 0.00785 0.98119 0.45408
 O456 O 0.04368 0.99402 0.47890
 Zr457 Zr -0.01251 0.97377 0.52517
 Zr458 Zr -0.03034 0.98360 0.46569
 Zr459 Zr 0.03975 1.00900 0.51511
 Zr460 Zr -0.01802 1.03563 0.50166
 O461 O 0.07451 0.99023 0.52301
 O462 O -0.05494 1.04598 0.48935
 O463 O 0.00157 1.01158 0.52703
 O464 O -0.03359 0.99870 0.50186
 O465 O -0.01094 0.95793 0.48920
 O466 O 0.02609 0.97165 0.51514
 C467 C 0.00033 1.07346 0.45867
 C468 C 0.07388 1.03882 0.47615
 C469 C -0.01802 1.01000 0.41388
 O470 O -0.06612 1.00123 0.46010
 O471 O -0.05939 0.96043 0.48152
 O472 O -0.04702 0.95288 0.52202
 C473 C -0.06262 0.95032 0.50358
 O474 O 0.05328 0.95595 0.44774
 Zr475 Zr 0.02757 0.95725 0.47892
 O476 O -0.00431 0.93519 0.53305
 O477 O -0.03500 0.95126 0.44280
 O478 O 0.01404 0.92859 0.45462
 O479 O 0.06398 0.94503 0.49115
 O480 O 0.02209 0.92375 0.50071
 C481 C 0.00937 0.91890 0.52104
 O482 O -0.03853 0.98254 0.55451
 O483 O 0.04576 1.04245 0.53613
 O484 O 0.00539 0.97456 0.56091
 O485 O 0.03992 1.00027 0.55367
 O486 O -0.00505 1.06549 0.52485
 O487 O -0.04157 1.03836 0.53434
 C488 C 0.02556 0.98646 0.56819
 H489 H 0.02817 1.05149 0.49261
 H490 H -0.05162 0.99951 0.50749
 H491 H 0.03607 0.96083 0.52685
 H492 H 0.00944 0.97446 0.43682
 H493 H -0.05731 1.06433 0.49296
 H494 H -0.07552 0.99057 0.44803
 H495 H -0.05232 0.95237 0.43558
 H496 H 0.02523 0.91350 0.45666
 H497 H -0.01642 1.08032 0.52209
 H498 H 0.06316 1.04127 0.54313
 H499 H 0.08395 1.00117 0.53480
 H500 H 0.06590 0.92688 0.48652
 H501 H -0.05034 1.05507 0.53420
 H502 H -0.04050 0.96691 0.56518
 H503 H 0.04878 1.02453 0.41481
 H504 H 0.05907 0.93817 0.44537
 Zr505 Zr 0.73546 0.27135 0.22213
 O506 O 0.74548 0.29520 0.19099
 O507 O 0.69640 0.26485 0.21612
 O508 O 0.73148 0.25214 0.18766
 O509 O 0.72947 0.32131 0.26407
 O510 O 0.75464 0.21571 0.19327
 O511 O 0.71899 0.30792 0.22479
 O512 O 0.68500 0.23737 0.24809
 O513 O 0.73063 0.23298 0.23267
 O514 O 0.72116 0.27124 0.25902
 O515 O 0.77188 0.25494 0.21853
 O516 O 0.76253 0.29171 0.24324
 Zr517 Zr 0.77986 0.23470 0.28913
 Zr518 Zr 0.76707 0.21701 0.23069
 Zr519 Zr 0.74857 0.28966 0.28040
 Zr520 Zr 0.71777 0.23313 0.27003
 O521 O 0.77010 0.32329 0.28590
 O522 O 0.70449 0.19617 0.26088
 O523 O 0.74369 0.25178 0.29331
 O524 O 0.75305 0.21490 0.26776
 O525 O 0.79470 0.23487 0.25240
 O526 O 0.78473 0.27311 0.27858
 C527 C 0.68027 0.25039 0.22802
 C528 C 0.71899 0.32457 0.24239
 C529 C 0.74097 0.23097 0.17990
 O530 O 0.74634 0.18270 0.22631
 O531 O 0.78833 0.18663 0.24577
 O532 O 0.79793 0.19882 0.28562
 C533 C 0.79878 0.18296 0.26731
 O534 O 0.80023 0.29919 0.21058
 Zr535 Zr 0.79813 0.27319 0.24167
 O536 O 0.81897 0.23897 0.29453
 O537 O 0.79835 0.20977 0.20635
 O538 O 0.82448 0.25818 0.21523
 O539 O 0.81407 0.30825 0.25341
 O540 O 0.83201 0.26396 0.26120
 C541 C 0.83619 0.25037 0.28118
 O542 O 0.76968 0.20976 0.31938
 O543 O 0.71667 0.29814 0.30351
 O544 O 0.78187 0.25272 0.32434
 O545 O 0.75936 0.28955 0.31846
 O546 O 0.68893 0.24860 0.29353
 O547 O 0.71548 0.21168 0.30429
 C548 C 0.77230 0.27384 0.33214
 H549 H 0.70448 0.27991 0.26055
 H550 H 0.75111 0.19701 0.27379
 H551 H 0.79687 0.28216 0.28947
 H552 H 0.77816 0.25607 0.20089
 H553 H 0.68642 0.19491 0.26643
 H554 H 0.75608 0.17227 0.21415
 H555 H 0.79577 0.19247 0.19951
 H556 H 0.84049 0.26815 0.21649
 H557 H 0.67375 0.23737 0.29241
 H558 H 0.71959 0.31541 0.31027
 H559 H 0.76055 0.33353 0.29835
 H560 H 0.83221 0.30846 0.24798
 H561 H 0.69830 0.20394 0.30610
 H562 H 0.78535 0.20648 0.32920
 H563 H 0.72973 0.29828 0.18123
 H564 H 0.81823 0.30413 0.20741
 Zr565 Zr 0.76490 0.72963 0.71236
 O566 O 0.75239 0.70573 0.68315
 O567 O 0.80249 0.73711 0.70127
 O568 O 0.76517 0.74952 0.67741
 O569 O 0.77794 0.68069 0.75487
 O570 O 0.74151 0.78515 0.68494
 O571 O 0.78290 0.69360 0.71383
 O572 O 0.81638 0.76551 0.73029
 O573 O 0.76873 0.76827 0.72104
 O574 O 0.78315 0.73076 0.74714
 O575 O 0.72767 0.74428 0.71263
 O576 O 0.74184 0.70787 0.73748
 Zr577 Zr 0.72578 0.76403 0.78346
 Zr578 Zr 0.73150 0.78241 0.72336
 Zr579 Zr 0.75936 0.71124 0.77263
 Zr580 Zr 0.78572 0.76908 0.75628
 O581 O 0.74070 0.67648 0.78217
 O582 O 0.79572 0.80639 0.74356
 O583 O 0.76331 0.74943 0.78342
 O584 O 0.74923 0.78519 0.75834
 O585 O 0.70739 0.76284 0.74873
 O586 O 0.72232 0.72542 0.77461
 C587 C 0.81931 0.75212 0.71030
 C588 C 0.78572 0.67735 0.73206
 C589 C 0.75487 0.77077 0.67049
 O590 O 0.74892 0.81836 0.71639
 O591 O 0.70955 0.81132 0.74011
 O592 O 0.70528 0.79869 0.78124
 C593 C 0.70132 0.81440 0.76278
 O594 O 0.70210 0.69869 0.70893
 Zr595 Zr 0.70547 0.72432 0.73936
 O596 O 0.68762 0.75641 0.79372
 O597 O 0.69795 0.78731 0.70210
 O598 O 0.67531 0.73796 0.71659
 O599 O 0.69342 0.68798 0.75317
 O600 O 0.67370 0.73004 0.76291
 C601 C 0.67034 0.74306 0.78292
 O602 O 0.73667 0.79006 0.81154
 O603 O 0.79410 0.70496 0.79161
 O604 O 0.72976 0.74664 0.81943
 O605 O 0.75295 0.71068 0.81188
 O606 O 0.81748 0.75547 0.77682
 O607 O 0.79094 0.79148 0.78885
 C608 C 0.74124 0.72612 0.82667
 H609 H 0.80028 0.72288 0.74681
 H610 H 0.75069 0.80317 0.76362
 H611 H 0.71215 0.71559 0.78726
 H612 H 0.71981 0.74294 0.69584
 H613 H 0.81428 0.80853 0.74612
 H614 H 0.73757 0.82798 0.70487
 H615 H 0.69877 0.80473 0.69457
 H616 H 0.66039 0.72665 0.71971
 H617 H 0.83201 0.76709 0.77296
 H618 H 0.79320 0.68747 0.79896
 H619 H 0.75230 0.66682 0.79339
 H620 H 0.67504 0.68621 0.74944
 H621 H 0.80771 0.80018 0.78775
 H622 H 0.72191 0.79201 0.82322
 H623 H 0.76711 0.70329 0.67155
 H624 H 0.68417 0.69295 0.70765
 Zr625 Zr 0.23173 0.22326 0.78880
 O626 O 0.24851 0.19874 0.81596
 O627 O 0.19488 0.22771 0.80354
 O628 O 0.23386 0.24124 0.82414
 O629 O 0.21726 0.17597 0.74632
 O630 O 0.25295 0.27948 0.81485
 O631 O 0.21576 0.18600 0.78796
 O632 O 0.17708 0.25716 0.77698
 O633 O 0.22461 0.26196 0.78130
 O634 O 0.21011 0.22494 0.75598
 O635 O 0.26779 0.24081 0.78533
 O636 O 0.25387 0.20476 0.76116
 Zr637 Zr 0.26144 0.26412 0.71518
 Zr638 Zr 0.26036 0.27904 0.77590
 Zr639 Zr 0.23262 0.20853 0.72806
 Zr640 Zr 0.20428 0.26340 0.74787
 O641 O 0.25241 0.17558 0.71628
 O642 O 0.19327 0.29954 0.76170
 O643 O 0.22510 0.24674 0.71834
 O644 O 0.23925 0.28230 0.74280
 O645 O 0.28324 0.26277 0.74794
 O646 O 0.26831 0.22551 0.72295
 C647 C 0.17670 0.24257 0.79675
 C648 C 0.21181 0.17075 0.76952
 C649 C 0.24248 0.26333 0.83031
 O650 O 0.24154 0.31349 0.78481
 O651 O 0.27908 0.31008 0.75808
 O652 O 0.28021 0.29995 0.71645
 C653 C 0.28511 0.31485 0.73492
 O654 O 0.29733 0.19742 0.78539
 Zr655 Zr 0.28882 0.22415 0.75618
 O656 O 0.29842 0.25980 0.70067
 O657 O 0.29511 0.28525 0.79474
 O658 O 0.31989 0.23932 0.77637
 O659 O 0.30221 0.18965 0.74045
 O660 O 0.31771 0.23389 0.72964
 C661 C 0.31775 0.24764 0.70930
 O662 O 0.24545 0.29031 0.68906
 O663 O 0.19670 0.20080 0.71202
 O664 O 0.25663 0.24749 0.67945
 O665 O 0.23535 0.21036 0.68858
 O666 O 0.17130 0.24828 0.73074
 O667 O 0.19428 0.28647 0.71624
 C668 C 0.24556 0.22659 0.67303
 H669 H 0.19357 0.21590 0.75773
 H670 H 0.23618 0.30038 0.73809
 H671 H 0.27789 0.21694 0.70934
 H672 H 0.27729 0.23932 0.80129
 H673 H 0.17443 0.30049 0.76093
 H674 H 0.25321 0.32333 0.79558
 H675 H 0.29384 0.30226 0.80255
 H676 H 0.33536 0.22976 0.77134
 H677 H 0.15658 0.25867 0.73632
 H678 H 0.19802 0.18389 0.70401
 H679 H 0.24050 0.16576 0.70576
 H680 H 0.32101 0.18945 0.74213
 H681 H 0.17707 0.29370 0.71895
 H682 H 0.25879 0.29418 0.67615
 H683 H 0.23514 0.19462 0.82876
 H684 H 0.31574 0.19332 0.78482
 Zr685 Zr 0.27603 0.76162 0.28513
 O686 O 0.26680 0.78575 0.31552
 O687 O 0.31406 0.75272 0.29257
 O688 O 0.27705 0.74203 0.32008
 O689 O 0.28711 0.81125 0.24247
 O690 O 0.25209 0.70689 0.31425
 O691 O 0.29504 0.79721 0.28251
 O692 O 0.32423 0.72311 0.26308
 O693 O 0.27790 0.72298 0.27579
 O694 O 0.29197 0.76047 0.24894
 O695 O 0.23838 0.74787 0.28791
 O696 O 0.25198 0.78421 0.26244
 Zr697 Zr 0.23120 0.72916 0.21735
 Zr698 Zr 0.24019 0.70977 0.27657
 Zr699 Zr 0.26717 0.78096 0.22589
 Zr700 Zr 0.29244 0.72220 0.23911
 O701 O 0.24911 0.81619 0.21781
 O702 O 0.30171 0.68406 0.24932
 O703 O 0.26906 0.74288 0.21423
 O704 O 0.25549 0.70707 0.24012
 O705 O 0.21503 0.73020 0.25354
 O706 O 0.22969 0.76769 0.22701
 C707 C 0.32926 0.73652 0.28248
 C708 C 0.29654 0.81401 0.26456
 C709 C 0.26624 0.72120 0.32783
 O710 O 0.25736 0.67365 0.28217
 O711 O 0.21694 0.68113 0.26120
 O712 O 0.21043 0.69455 0.22071
 C713 C 0.20750 0.67840 0.23911
 O714 O 0.21429 0.79363 0.29466
 Zr715 Zr 0.21505 0.76864 0.26351
 O716 O 0.19290 0.73797 0.21035
 O717 O 0.20770 0.70507 0.30016
 O718 O 0.18593 0.75502 0.28832
 O719 O 0.20347 0.80562 0.25159
 O720 O 0.18183 0.76461 0.24224
 C721 C 0.17696 0.75214 0.22225
 O722 O 0.23961 0.70379 0.18775
 O723 O 0.30100 0.78667 0.20445
 O724 O 0.23235 0.74760 0.18166
 O725 O 0.25829 0.78204 0.18735
 O726 O 0.32378 0.73550 0.21694
 O727 O 0.29458 0.70107 0.20532
 C728 C 0.24429 0.76772 0.17363
 H729 H 0.30933 0.76791 0.24800
 H730 H 0.25612 0.68916 0.23447
 H731 H 0.21908 0.77807 0.21548
 H732 H 0.23157 0.74927 0.30529
 H733 H 0.31988 0.68137 0.24482
 H734 H 0.24644 0.66409 0.29443
 H735 H 0.20859 0.68760 0.30750
 H736 H 0.17114 0.76661 0.28655
 H737 H 0.33787 0.72315 0.21927
 H738 H 0.30012 0.80417 0.19717
 H739 H 0.26039 0.82568 0.20582
 H740 H 0.18545 0.80782 0.25693
 H741 H 0.31118 0.69216 0.20439
 H742 H 0.22403 0.70226 0.17744
 H743 H 0.28238 0.78762 0.32577
 H744 H 0.19659 0.79943 0.29772
 Zr745 Zr 0.24382 0.76358 0.71276
 O746 O 0.26265 0.78612 0.68479
 O747 O 0.20756 0.75895 0.69731
 O748 O 0.24746 0.74337 0.67873
 O749 O 0.22939 0.81430 0.75144
 O750 O 0.26524 0.70558 0.69107
 O751 O 0.22835 0.80087 0.71079
 O752 O 0.18722 0.73261 0.72571
 O753 O 0.23497 0.72568 0.72259
 O754 O 0.22070 0.76484 0.74503
 O755 O 0.27911 0.74543 0.71842
 O756 O 0.26540 0.78338 0.73956
 Zr757 Zr 0.26860 0.72708 0.78968
 Zr758 Zr 0.26989 0.70817 0.73013
 Zr759 Zr 0.24251 0.78257 0.77223
 Zr760 Zr 0.21309 0.72722 0.75551
 O761 O 0.26288 0.81581 0.78213
 O762 O 0.20140 0.69061 0.74355
 O763 O 0.23312 0.74534 0.78437
 O764 O 0.24708 0.70775 0.76272
 O765 O 0.29206 0.72557 0.75756
 O766 O 0.27724 0.76490 0.77945
 C767 C 0.18829 0.74566 0.70495
 C768 C 0.22455 0.81768 0.72792
 C769 C 0.25625 0.72092 0.67425
 O770 O 0.25012 0.67392 0.72253
 O771 O 0.28615 0.67777 0.75050
 O772 O 0.28543 0.69028 0.79144
 C773 C 0.29048 0.67402 0.77406
 O774 O 0.31068 0.78745 0.71612
 Zr775 Zr 0.29939 0.76341 0.74690
 O776 O 0.30506 0.73117 0.80473
 O777 O 0.30545 0.69942 0.71321
 O778 O 0.33089 0.74561 0.72908
 O779 O 0.31290 0.79888 0.76020
 O780 O 0.32640 0.75536 0.77518
 C781 C 0.32501 0.74283 0.79623
 O782 O 0.25022 0.70360 0.81719
 O783 O 0.20622 0.79242 0.78687
 O784 O 0.26315 0.74662 0.82395
 O785 O 0.24379 0.78365 0.81165
 O786 O 0.18004 0.74438 0.77110
 O787 O 0.20083 0.70643 0.78816
 C788 C 0.25300 0.76850 0.82852
 H789 H 0.20456 0.77418 0.74235
 H790 H 0.24305 0.69011 0.76846
 H791 H 0.28650 0.77422 0.79260
 H792 H 0.28950 0.74558 0.70274
 H793 H 0.18251 0.69027 0.74387
 H794 H 0.26200 0.66299 0.71288
 H795 H 0.30394 0.68195 0.70647
 H796 H 0.34646 0.75497 0.73399
 H797 H 0.16514 0.73411 0.76591
 H798 H 0.20780 0.80984 0.79370
 H799 H 0.25089 0.82669 0.79169
 H800 H 0.33178 0.79851 0.75930
 H801 H 0.18354 0.69943 0.78542
 H802 H 0.26278 0.70019 0.83065
 H803 H 0.25010 0.78966 0.67135
 H804 H 0.32922 0.79090 0.71702
 Zr805 Zr 0.25990 0.22627 0.20640
 O806 O 0.24543 0.20425 0.17666
 O807 O 0.29780 0.23208 0.19486
 O808 O 0.26002 0.24741 0.17201
 O809 O 0.27033 0.17505 0.24696
 O810 O 0.23997 0.28440 0.18243
 O811 O 0.27581 0.18902 0.20635
 O812 O 0.31385 0.25825 0.22481
 O813 O 0.26634 0.26419 0.21669
 O814 O 0.27886 0.22490 0.24083
 O815 O 0.22364 0.24331 0.20838
 O816 O 0.23579 0.20522 0.23121
 Zr817 Zr 0.22441 0.26018 0.28001
 Zr818 Zr 0.23020 0.28056 0.22063
 Zr819 Zr 0.25430 0.20603 0.26600
 Zr820 Zr 0.28404 0.26250 0.25157
 O821 O 0.23363 0.17225 0.27488
 O822 O 0.29599 0.29964 0.24008
 O823 O 0.26094 0.24326 0.27841
 O824 O 0.24874 0.28078 0.25527
 O825 O 0.20524 0.26170 0.24568
 O826 O 0.21829 0.22234 0.26957
 C827 C 0.31570 0.24561 0.20425
 C828 C 0.27778 0.17195 0.22405
 C829 C 0.25149 0.26991 0.16668
 O830 O 0.24967 0.31564 0.21481
 O831 O 0.21063 0.31017 0.23878
 O832 O 0.20598 0.29613 0.27945
 C833 C 0.20284 0.31282 0.26165
 O834 O 0.19428 0.20014 0.20335
 Zr835 Zr 0.20054 0.22388 0.23480
 O836 O 0.18615 0.25466 0.29100
 O837 O 0.19673 0.28853 0.20011
 O838 O 0.17091 0.24076 0.21345
 O839 O 0.18671 0.18771 0.24731
 O840 O 0.16971 0.23054 0.25962
 C841 C 0.16774 0.24288 0.28028
 O842 O 0.23791 0.28402 0.30884
 O843 O 0.28901 0.19651 0.28376
 O844 O 0.22721 0.24063 0.31506
 O845 O 0.24922 0.20458 0.30522
 O846 O 0.31517 0.24588 0.27092
 O847 O 0.29165 0.28313 0.28482
 C848 C 0.23815 0.21940 0.32100
 H849 H 0.29543 0.21596 0.23987
 H850 H 0.25146 0.29839 0.26121
 H851 H 0.20782 0.21257 0.28201
 H852 H 0.21530 0.24330 0.19175
 H853 H 0.31471 0.30058 0.24223
 H854 H 0.23885 0.32641 0.20378
 H855 H 0.19859 0.30614 0.19321
 H856 H 0.15523 0.23056 0.21662
 H857 H 0.33043 0.25652 0.26711
 H858 H 0.28701 0.17894 0.29071
 H859 H 0.24480 0.16149 0.28557
 H860 H 0.16809 0.18736 0.24438
 H861 H 0.30896 0.29068 0.28360
 H862 H 0.22355 0.28661 0.32085
 H863 H 0.25977 0.20132 0.16472
 H864 H 0.17596 0.19562 0.20257
 Zr865 Zr 0.72167 0.73868 0.28191
 O866 O 0.73768 0.71462 0.30993
 O867 O 0.68509 0.74475 0.29678
 O868 O 0.72542 0.75774 0.31678
 O869 O 0.70668 0.68982 0.24108
 O870 O 0.74547 0.79496 0.30567
 O871 O 0.70548 0.70149 0.28232
 O872 O 0.66816 0.77440 0.26988
 O873 O 0.71538 0.77725 0.27316
 O874 O 0.69975 0.73961 0.24920
 O875 O 0.75809 0.75518 0.27740
 O876 O 0.74298 0.71881 0.25452
 Zr877 Zr 0.75122 0.77664 0.20672
 Zr878 Zr 0.75147 0.79322 0.26676
 Zr879 Zr 0.72157 0.72186 0.22140
 Zr880 Zr 0.69464 0.77795 0.23991
 O881 O 0.74053 0.68823 0.21014
 O882 O 0.68446 0.81509 0.25169
 O883 O 0.71464 0.75994 0.21065
 O884 O 0.72986 0.79608 0.23400
 O885 O 0.77357 0.77561 0.23909
 O886 O 0.75753 0.73812 0.21551
 C887 C 0.66755 0.76042 0.28998
 C888 C 0.70174 0.68536 0.26457
 C889 C 0.73525 0.77966 0.32201
 O890 O 0.73334 0.82817 0.27512
 O891 O 0.77061 0.82320 0.24787
 O892 O 0.77041 0.81234 0.20650
 C893 C 0.77611 0.82748 0.22454
 O894 O 0.78598 0.71075 0.27831
 Zr895 Zr 0.77822 0.73714 0.24859
 O896 O 0.78769 0.77175 0.19147
 O897 O 0.78679 0.79938 0.28459
 O898 O 0.80986 0.75174 0.26834
 O899 O 0.79065 0.70202 0.23342
 O900 O 0.80732 0.74561 0.22212
 C901 C 0.80859 0.75932 0.20020
 O902 O 0.73494 0.80226 0.18022
 O903 O 0.68520 0.71441 0.20631
 O904 O 0.74571 0.75917 0.17168
 O905 O 0.72440 0.72225 0.18168
 O906 O 0.66088 0.76262 0.22450
 O907 O 0.68481 0.79949 0.20721
 C908 C 0.73477 0.73809 0.16576
 H909 H 0.68309 0.73091 0.25156
 H910 H 0.72712 0.81409 0.22880
 H911 H 0.76696 0.72912 0.20208
 H912 H 0.76785 0.75393 0.29322
 H913 H 0.66564 0.81644 0.25080
 H914 H 0.74549 0.83825 0.28515
 H915 H 0.78607 0.81664 0.29195
 H916 H 0.82494 0.74142 0.26365
 H917 H 0.64659 0.77376 0.22972
 H918 H 0.68609 0.69725 0.19877
 H919 H 0.72819 0.67822 0.20029
 H920 H 0.80943 0.70133 0.23517
 H921 H 0.66757 0.80682 0.20946
 H922 H 0.74803 0.80569 0.16695
 H923 H 0.72425 0.71144 0.32291
 H924 H 0.80423 0.70597 0.27773
 Zr925 Zr 0.77420 0.26301 0.78768
 O926 O 0.76678 0.28672 0.81885
 O927 O 0.81201 0.25232 0.79372
 O928 O 0.77615 0.24271 0.82203
 O929 O 0.78509 0.31309 0.74588
 O930 O 0.75085 0.20782 0.81620
 O931 O 0.79448 0.29792 0.78515
 O932 O 0.82065 0.22403 0.76257
 O933 O 0.77473 0.22461 0.77729
 O934 O 0.78868 0.26228 0.75095
 O935 O 0.73633 0.25014 0.79163
 O936 O 0.74980 0.28679 0.76665
 Zr937 Zr 0.72567 0.23365 0.72072
 Zr938 Zr 0.73679 0.21236 0.77926
 Zr939 Zr 0.76347 0.28398 0.72959
 Zr940 Zr 0.78768 0.22434 0.74005
 O941 O 0.74592 0.31980 0.72315
 O942 O 0.79625 0.18578 0.74919
 O943 O 0.76384 0.24631 0.71672
 O944 O 0.75029 0.21029 0.74205
 O945 O 0.71127 0.23403 0.75769
 O946 O 0.72560 0.27185 0.73156
 C947 C 0.82655 0.23627 0.78251
 C948 C 0.79575 0.31502 0.76747
 C949 C 0.76578 0.22164 0.82954
 O950 O 0.75292 0.17552 0.78284
 O951 O 0.71188 0.18508 0.76427
 O952 O 0.70340 0.19992 0.72458
 C953 C 0.70091 0.18343 0.74278
 O954 O 0.71377 0.29655 0.80019
 Zr955 Zr 0.71251 0.27210 0.76867
 O956 O 0.68738 0.24389 0.71545
 O957 O 0.70546 0.20794 0.80439
 O958 O 0.68439 0.25876 0.79474
 O959 O 0.70108 0.30941 0.75767
 O960 O 0.67798 0.26865 0.74926
 C961 C 0.67198 0.25717 0.72898
 O962 O 0.73189 0.20854 0.69042
 O963 O 0.79658 0.28975 0.70702
 O964 O 0.72656 0.25296 0.68512
 O965 O 0.75381 0.28611 0.69160
 O966 O 0.81819 0.23752 0.71670
 O967 O 0.78799 0.20383 0.70584
 C968 C 0.73923 0.27290 0.67752
 H969 H 0.80621 0.26924 0.74950
 H970 H 0.75010 0.19254 0.73594
 H971 H 0.71484 0.28278 0.72066
 H972 H 0.73034 0.25118 0.80932
 H973 H 0.81418 0.18269 0.74402
 H974 H 0.74236 0.16595 0.79540
 H975 H 0.70624 0.19025 0.81123
 H976 H 0.66983 0.27075 0.79398
 H977 H 0.83218 0.22494 0.71820
 H978 H 0.79578 0.30745 0.70021
 H979 H 0.75688 0.32932 0.71090
 H980 H 0.68333 0.31181 0.76376
 H981 H 0.80433 0.19456 0.70412
 H982 H 0.71583 0.20787 0.68075
 H983 H 0.78277 0.28795 0.82857
 H984 H 0.69643 0.30302 0.80388
 C985 C 0.39792 0.99964 0.27229
 C986 C 0.38985 1.00079 0.29744
 C987 C 0.40675 1.00475 0.31922
 C988 C 0.43270 0.99786 0.31938
 C989 C 0.44736 1.00124 0.34112
 C990 C 0.43628 1.01177 0.36288
 C991 C 0.41053 1.01892 0.36234
 C992 C 0.39594 1.01524 0.34095
 C993 C 0.45011 1.01548 0.38679
 C994 C 0.47265 1.00319 0.39401
 H995 H 0.36948 1.00072 0.30116
 H996 H 0.44154 0.98940 0.30303
 H997 H 0.46720 0.99570 0.34076
 H998 H 0.40143 1.02706 0.37878
 H999 H 0.37603 1.02069 0.34138
 H1000 H 0.44037 1.02693 0.40072
 H1001 H 0.41803 1.00128 0.26770
 H1002 H 0.48325 0.99173 0.38080
 C1003 C -0.10192 0.49925 0.77333
 C1004 C -0.11055 0.49713 0.79822
 C1005 C -0.09396 0.50118 0.82005
 C1006 C -0.10505 0.51051 0.84212
 C1007 C -0.09014 0.51529 0.86305
 C1008 C -0.06386 0.51033 0.86259
 C1009 C -0.05266 0.50051 0.84063
 C1010 C -0.06762 0.49600 0.81946
 C1011 C -0.04930 0.51596 0.88546
 C1012 C -0.02628 0.50449 0.89233
 H1013 H -0.13079 0.49458 0.80175
 H1014 H -0.12529 0.51452 0.84305
 H1015 H -0.09925 0.52277 0.87978
 H1016 H -0.03243 0.49666 0.83960
 H1017 H -0.05861 0.48825 0.80284
 H1018 H -0.05878 0.52815 0.89893
 H1019 H -0.08205 0.50388 0.76975
 H1020 H -0.01629 0.49195 0.87961
 C1021 C 0.10793 -0.01489 0.76650
 C1022 C 0.08634 -0.00147 0.77450
 C1023 C 0.07339 -0.00633 0.79916
 C1024 C 0.05736 0.01250 0.80919
 C1025 C 0.04569 0.00900 0.83287
 C1026 C 0.04976 -0.01356 0.84696
 C1027 C 0.06522 -0.03263 0.83666
 C1028 C 0.07668 -0.02924 0.81296
 C1029 C 0.03989 -0.01723 0.87304
 C1030 C 0.01907 -0.00414 0.88319
 H1031 H 0.07947 0.01404 0.76268
 H1032 H 0.05433 0.03024 0.79892
 H1033 H 0.03428 0.02433 0.84037
 H1034 H 0.06858 -0.05023 0.84707
 H1035 H 0.08799 -0.04471 0.80565
 H1036 H 0.04970 -0.03097 0.88490
 H1037 H 0.11632 -0.02880 0.77917
 H1038 H 0.00765 0.00816 0.87129
 C1039 C 0.60552 0.49558 0.27560
 C1040 C 0.58673 0.51131 0.28591
 C1041 C 0.57617 0.50676 0.31171
 C1042 C 0.55171 0.51560 0.31809
 C1043 C 0.54161 0.51161 0.34246
 C1044 C 0.55600 0.49885 0.36101
 C1045 C 0.58056 0.49037 0.35459
 C1046 C 0.59058 0.49436 0.33041
 C1047 C 0.54710 0.49461 0.38745
 C1048 C 0.52344 0.50185 0.39749
 H1049 H 0.57956 0.52717 0.27477
 H1050 H 0.54033 0.52550 0.30414
 H1051 H 0.52274 0.51874 0.34656
 H1052 H 0.59228 0.48083 0.36850
 H1053 H 0.60989 0.48817 0.32668
 H1054 H 0.56065 0.48582 0.40014
 H1055 H 0.61053 0.47836 0.28594
 H1056 H 0.50911 0.51044 0.38564
 C1057 C 0.60033 0.49753 0.22872
 C1058 C 0.60939 0.49834 0.20379
 C1059 C 0.59361 0.50024 0.18080
 C1060 C 0.56743 0.49414 0.18011
 C1061 C 0.55396 0.49618 0.15736
 C1062 C 0.56648 0.50451 0.13508
 C1063 C 0.59250 0.51063 0.13608
 C1064 C 0.60586 0.50835 0.15849
 C1065 C 0.55390 0.50743 0.11028
 C1066 C 0.53034 0.49715 0.10331
 H1067 H 0.62986 0.49968 0.20104
 H1068 H 0.55742 0.48754 0.19691
 H1069 H 0.53387 0.49146 0.15735
 H1070 H 0.60272 0.51707 0.11930
 H1071 H 0.62597 0.51316 0.15838
 H1072 H 0.56509 0.51722 0.09580
 H1073 H 0.58002 0.49768 0.23250
 H1074 H 0.51832 0.48724 0.11698
 C1075 C 0.10363 0.98855 0.71969
 C1076 C 0.11275 0.98947 0.69483
 C1077 C 0.09666 0.99079 0.67210
 C1078 C 0.10775 1.00099 0.65004
 C1079 C 0.09386 1.00288 0.62793
 C1080 C 0.06857 0.99416 0.62703
 C1081 C 0.05731 0.98354 0.64898
 C1082 C 0.07126 0.98196 0.67145
 C1083 C 0.05514 0.99747 0.60281
 C1084 C 0.03370 0.98387 0.59478
 H1085 H 0.13318 0.99119 0.69194
 H1086 H 0.12727 1.00784 0.64995
 H1087 H 0.10306 1.01114 0.61133
 H1088 H 0.03778 0.97684 0.64896
 H1089 H 0.06226 0.97360 0.68806
 H1090 H 0.06420 1.01059 0.58949
 H1091 H 0.08327 0.98829 0.72319
 H1092 H 0.02397 0.97045 0.60728
 C1093 C -0.10423 0.49839 0.72717
 C1094 C -0.10935 0.48288 0.70663
 C1095 C -0.09422 0.48353 0.68295
 C1096 C -0.10527 0.47369 0.66126
 C1097 C -0.09197 0.47414 0.63840
 C1098 C -0.06724 0.48437 0.63664
 C1099 C -0.05580 0.49369 0.65850
 C1100 C -0.06915 0.49319 0.68147
 C1101 C -0.05465 0.48504 0.61156
 C1102 C -0.03183 0.49774 0.60545
 H1103 H -0.12605 0.47070 0.70718
 H1104 H -0.12442 0.46589 0.66191
 H1105 H -0.10123 0.46668 0.62191
 H1106 H -0.03661 0.50124 0.65813
 H1107 H -0.05958 0.50008 0.69797
 H1108 H -0.06489 0.47592 0.59653
 H1109 H -0.08903 0.51235 0.72552
 H1110 H -0.02068 0.50695 0.61969
 C1111 C 0.39200 -0.00451 0.22597
 C1112 C 0.40624 0.01464 0.21372
 C1113 C 0.41610 0.01219 0.18758
 C1114 C 0.43590 0.02831 0.17910
 C1115 C 0.44500 0.02713 0.15427
 C1116 C 0.43436 0.00975 0.13732
 C1117 C 0.41427 -0.00605 0.14572
 C1118 C 0.40520 -0.00487 0.17051
 C1119 C 0.44280 0.00818 0.11062
 C1120 C 0.46599 0.01786 0.10147
 H1121 H 0.40979 0.03228 0.22349
 H1122 H 0.44427 0.04199 0.19170
 H1123 H 0.45990 0.04029 0.14843
 H1124 H 0.40541 -0.01929 0.13299
 H1125 H 0.38921 -0.01691 0.17590
 H1126 H 0.43034 -0.00148 0.09768
 H1127 H 0.39074 -0.02306 0.21735
 H1128 H 0.47937 0.02646 0.11417
 C1129 C 0.27284 0.39361 -0.00269
 C1130 C 0.29784 0.38650 0.00322
 C1131 C 0.31942 0.40472 0.00468
 C1132 C 0.34032 0.39840 0.01984
 C1133 C 0.36174 0.41436 0.02057
 C1134 C 0.36278 0.43689 0.00586
 C1135 C 0.34181 0.44326 -0.00919
 C1136 C 0.32029 0.42745 -0.00971
 C1137 C 0.38613 0.45279 0.00375
 C1138 C 0.40562 0.45310 0.02156
 H1139 H 0.30158 0.36669 0.00801
 H1140 H 0.34021 0.38085 0.03092
 H1141 H 0.37777 0.40846 0.03188
 H1142 H 0.34229 0.46031 -0.02100
 H1143 H 0.30487 0.43263 -0.02213
 H1144 H 0.38826 0.46462 -0.01307
 H1145 H 0.26875 0.41343 -0.00704
 H1146 H 0.40311 0.44350 0.03960
 C1147 C -0.22462 0.88756 0.49636
 C1148 C -0.20014 0.87690 0.49545
 C1149 C -0.17652 0.89263 0.49539
 C1150 C -0.15433 0.88297 0.50663
 C1151 C -0.13162 0.89724 0.50624
 C1152 C -0.13059 0.92132 0.49414
 C1153 C -0.15272 0.93078 0.48268
 C1154 C -0.17546 0.91673 0.48342
 C1155 C -0.10661 0.93635 0.49149
 C1156 C -0.08596 0.93481 0.50798
 H1157 H -0.19831 0.85631 0.49627
 H1158 H -0.15458 0.86432 0.51574
 H1159 H -0.11479 0.88908 0.51474
 H1160 H -0.15238 0.94910 0.47293
 H1161 H -0.19196 0.92448 0.47397
 H1162 H -0.10560 0.95017 0.47611
 H1163 H -0.22616 0.90813 0.49743
 H1164 H -0.08726 0.92290 0.52479
 C1165 C -0.22278 0.11670 1.00953
 C1166 C -0.21404 0.10113 0.99002
 C1167 C -0.18896 0.08807 0.99055
 C1168 C -0.17639 0.08255 0.96777
 C1169 C -0.15246 0.07064 0.96770
 C1170 C -0.14075 0.06384 0.99054
 C1171 C -0.15364 0.06895 1.01323
 C1172 C -0.17742 0.08085 1.01329
 C1173 C -0.11566 0.05084 0.99204
 C1174 C -0.09896 0.04606 0.97183
 H1175 H -0.22508 0.10014 0.97295
 H1176 H -0.18500 0.08771 0.94996
 H1177 H -0.14345 0.06673 0.94978
 H1178 H -0.14529 0.06363 1.03113
 H1179 H -0.18681 0.08393 1.03121
 H1180 H -0.10992 0.04464 1.01069
 H1181 H -0.21138 0.11840 1.02629
 H1182 H -0.10348 0.05225 0.95290
 C1183 C 0.27980 0.61014 0.49911
 C1184 C 0.28686 0.58746 0.51140
 C1185 C 0.31291 0.57664 0.50990
 C1186 C 0.32114 0.56076 0.52965
 C1187 C 0.34576 0.55073 0.52947
 C1188 C 0.36267 0.55600 0.50937
 C1189 C 0.35433 0.57151 0.48924
 C1190 C 0.32964 0.58168 0.48948
 C1191 C 0.38888 0.54559 0.51084
 C1192 C 0.40619 0.54408 0.49066
 H1193 H 0.27338 0.57823 0.52418
 H1194 H 0.30862 0.55646 0.54553
 H1195 H 0.35165 0.53884 0.54523
 H1196 H 0.36682 0.57624 0.47352
 H1197 H 0.32376 0.59329 0.47357
 H1198 H 0.39455 0.53786 0.52897
 H1199 H 0.29433 0.62046 0.48848
 H1200 H 0.40085 0.55023 0.47192
 C1201 C 0.23275 0.60424 0.50796
 C1202 C 0.20904 0.61144 0.51798
 C1203 C 0.18612 0.59480 0.51840
 C1204 C 0.16580 0.60052 0.53483
 C1205 C 0.14297 0.58661 0.53422
 C1206 C 0.14000 0.56679 0.51695
 C1207 C 0.16044 0.56088 0.50081
 C1208 C 0.18323 0.57466 0.50147
 C1209 C 0.11547 0.55333 0.51341
 C1210 C 0.09489 0.55306 0.53043
 H1211 H 0.20702 0.63043 0.52552
 H1212 H 0.16743 0.61614 0.54784
 H1213 H 0.12749 0.59210 0.54660
 H1214 H 0.15855 0.54590 0.48710
 H1215 H 0.19800 0.57008 0.48794
 H1216 H 0.11349 0.54300 0.49601
 H1217 H 0.23499 0.58528 0.50050
 H1218 H 0.09671 0.56111 0.54896
 C1219 C 0.72996 0.11378 0.01163
 C1220 C 0.70492 0.12303 0.01239
 C1221 C 0.68193 0.10670 0.01341
 C1222 C 0.65924 0.11678 0.02332
 C1223 C 0.63650 0.10286 0.02256
 C1224 C 0.63601 0.07866 0.01154
 C1225 C 0.65877 0.06848 0.00187
 C1226 C 0.68158 0.08226 0.00291
 C1227 C 0.61191 0.06463 0.00775
 C1228 C 0.58995 0.06772 0.02251
 H1229 H 0.70211 0.14352 0.01266
 H1230 H 0.65903 0.13571 0.03125
 H1231 H 0.61921 0.11156 0.02962
 H1232 H 0.65878 0.04999 -0.00700
 H1233 H 0.69857 0.07420 -0.00547
 H1234 H 0.61156 0.05096 -0.00735
 H1235 H 0.73327 0.09339 0.01253
 H1236 H 0.59045 0.07902 0.03939
 C1237 C 0.72799 0.88961 0.49567
 C1238 C 0.70394 0.88263 0.48660
 C1239 C 0.68111 0.89935 0.48770
 C1240 C 0.66124 0.89557 0.47059
 C1241 C 0.63891 0.91020 0.47180
 C1242 C 0.63590 0.92878 0.49043
 C1243 C 0.65575 0.93246 0.50756
 C1244 C 0.67810 0.91801 0.50622
 C1245 C 0.61194 0.94344 0.49389
 C1246 C 0.59306 0.94685 0.47567
 H1247 H 0.70182 0.86429 0.47772
 H1248 H 0.66293 0.88110 0.45633
 H1249 H 0.62385 0.90634 0.45864
 H1250 H 0.65381 0.94638 0.52233
 H1251 H 0.69253 0.92100 0.52027
 H1252 H 0.60923 0.95245 0.51196
 H1253 H 0.73004 0.90804 0.50435
 H1254 H 0.59589 0.93981 0.45681
 C1255 C 0.22602 0.38837 0.99748
 C1256 C 0.20875 0.39255 0.97788
 C1257 C 0.18388 0.40563 0.98163
 C1258 C 0.17168 0.41692 0.96086
 C1259 C 0.14837 0.42963 0.96384
 C1260 C 0.13662 0.43106 0.98774
 C1261 C 0.14864 0.41940 1.00839
 C1262 C 0.17182 0.40666 1.00540
 C1263 C 0.11256 0.44524 0.99232
 C1264 C 0.09529 0.45248 0.97363
 H1265 H 0.21387 0.38703 0.95895
 H1266 H 0.18043 0.41627 0.94231
 H1267 H 0.14002 0.43870 0.94749
 H1268 H 0.13999 0.42007 1.02699
 H1269 H 0.17996 0.39742 1.02177
 H1270 H 0.10798 0.44979 1.01168
 H1271 H 0.22178 0.39674 1.01553
 H1272 H 0.09849 0.44701 0.95431
 C1273 C -0.00160 0.27627 0.39702
 C1274 C -0.00426 0.30160 0.38868
 C1275 C -0.00006 0.32426 0.40431
 C1276 C 0.00233 0.34807 0.39202
 C1277 C 0.00547 0.37028 0.40574
 C1278 C 0.00604 0.36915 0.43216
 C1279 C 0.00426 0.34534 0.44451
 C1280 C 0.00102 0.32305 0.43076
 C1281 C 0.00832 0.39243 0.44722
 C1282 C -0.00106 0.41598 0.43898
 H1283 H -0.00892 0.30525 0.36915
 H1284 H 0.00176 0.34951 0.37166
 H1285 H 0.00763 0.38823 0.39557
 H1286 H 0.00474 0.34405 0.46488
 H1287 H -0.00117 0.30519 0.44102
 H1288 H 0.01579 0.39057 0.46610
 H1289 H 0.00489 0.27253 0.41596
 H1290 H -0.01058 0.41763 0.42105
 C1291 C 0.50044 -0.21887 -0.09532
 C1292 C 0.50763 -0.19480 -0.10456
 C1293 C 0.50923 -0.17173 -0.08921
 C1294 C 0.51163 -0.14813 -0.10180
 C1295 C 0.51331 -0.12568 -0.08830
 C1296 C 0.51250 -0.12640 -0.06186
 C1297 C 0.51116 -0.15002 -0.04917
 C1298 C 0.50947 -0.17259 -0.06272
 C1299 C 0.51273 -0.10276 -0.04731
 C1300 C 0.50152 -0.08057 -0.05663
 H1301 H 0.51248 -0.19286 -0.12441
 H1302 H 0.51210 -0.14705 -0.12219
 H1303 H 0.51539 -0.10781 -0.09864
 H1304 H 0.51095 -0.15097 -0.02878
 H1305 H 0.50861 -0.19048 -0.05233
 H1306 H 0.52008 -0.10331 -0.02832
 H1307 H 0.49328 -0.22117 -0.07624
 H1308 H 0.49203 -0.08068 -0.07463
 C1309 C 0.00253 -0.22533 1.11697
 C1310 C -0.00442 -0.20118 1.12523
 C1311 C -0.00059 -0.17840 1.10929
 C1312 C -0.02012 -0.16034 1.10751
 C1313 C -0.01705 -0.13886 1.09195
 C1314 C 0.00589 -0.13490 1.07857
 C1315 C 0.02583 -0.15241 1.08116
 C1316 C 0.02249 -0.17429 1.09617
 C1317 C 0.00924 -0.11245 1.06206
 C1318 C -0.00989 -0.10490 1.04569
 H1319 H -0.01398 -0.19902 1.14325
 H1320 H -0.03791 -0.16316 1.11776
 H1321 H -0.03246 -0.12521 1.09055
 H1322 H 0.04373 -0.14941 1.07116
 H1323 H 0.03799 -0.18780 1.09777
 H1324 H 0.02741 -0.10254 1.06187
 H1325 H 0.01152 -0.22706 1.09858
 H1326 H -0.02680 -0.11662 1.04382
 C1327 C 0.49915 0.27003 0.61297
 C1328 C 0.49579 0.29365 0.62420
 C1329 C 0.49398 0.31729 0.60909
 C1330 C 0.50314 0.34014 0.61894
 C1331 C 0.50294 0.36253 0.60436
 C1332 C 0.49338 0.36230 0.57972
 C1333 C 0.48298 0.33972 0.57042
 C1334 C 0.48331 0.31736 0.58494
 C1335 C 0.49356 0.38521 0.56335
 C1336 C 0.51110 0.40497 0.56586
 H1337 H 0.49583 0.29488 0.64454
 H1338 H 0.51094 0.34054 0.63774
 H1339 H 0.51012 0.37989 0.61250
 H1340 H 0.47499 0.33928 0.55171
 H1341 H 0.47513 0.30021 0.57724
 H1342 H 0.48010 0.38595 0.54802
 H1343 H 0.50204 0.26937 0.59275
 H1344 H 0.52550 0.40407 0.58028
 C1345 C 0.50049 1.22309 0.61107
 C1346 C 0.50671 1.19867 0.61974
 C1347 C 0.50894 1.17666 0.60307
 C1348 C 0.50724 1.15210 0.61371
 C1349 C 0.50931 1.13075 0.59855
 C1350 C 0.51315 1.13369 0.57243
 C1351 C 0.51601 1.15821 0.56191
 C1352 C 0.51388 1.17959 0.57708
 C1353 C 0.51396 1.11153 0.55583
 C1354 C 0.49959 1.08976 0.56124
 H1355 H 0.51038 1.19575 0.63962
 H1356 H 0.50409 1.14943 0.63378
 H1357 H 0.50805 1.11201 0.60737
 H1358 H 0.51946 1.16081 0.54188
 H1359 H 0.51644 1.19825 0.56841
 H1360 H 0.52453 1.11307 0.53821
 H1361 H 0.49407 1.22578 0.59190
 H1362 H 0.48738 1.08900 0.57782
 C1363 C -0.00010 0.72784 1.11784
 C1364 C 0.01904 0.70953 1.11593
 C1365 C 0.01449 0.68485 1.10404
 C1366 C 0.03496 0.67222 1.09266
 C1367 C 0.03108 0.64888 1.08108
 C1368 C 0.00665 0.63775 1.08097
 C1369 C -0.01354 0.64975 1.09344
 C1370 C -0.00972 0.67322 1.10482
 C1371 C 0.00187 0.61376 1.06790
 C1372 C 0.01479 0.60808 1.04572
 H1373 H 0.03793 0.71330 1.12294
 H1374 H 0.05387 0.68060 1.09244
 H1375 H 0.04722 0.63951 1.07239
 H1376 H -0.03237 0.64119 1.09395
 H1377 H -0.02564 0.68204 1.11443
 H1378 H -0.01308 0.60115 1.07498
 H1379 H -0.01747 0.72490 1.10741
 H1380 H 0.02820 0.62171 1.03755
 C1381 C 0.49783 0.73390 -0.09743
 C1382 C 0.49613 0.71051 -0.10953
 C1383 C 0.49479 0.68591 -0.09582
 C1384 C 0.50324 0.66386 -0.10793
 C1385 C 0.50298 0.64034 -0.09524
 C1386 C 0.49415 0.63856 -0.07018
 C1387 C 0.48475 0.66046 -0.05846
 C1388 C 0.48505 0.68395 -0.07112
 C1389 C 0.49388 0.61431 -0.05576
 C1390 C 0.50914 0.59342 -0.06162
 H1391 H 0.49735 0.71029 -0.12991
 H1392 H 0.51034 0.66490 -0.12715
 H1393 H 0.50945 0.62371 -0.10524
 H1394 H 0.47736 0.65944 -0.03933
 H1395 H 0.47742 0.70039 -0.06158
 H1396 H 0.48185 0.61334 -0.03904
 H1397 H 0.49911 0.73433 -0.07711
 H1398 H 0.52210 0.59409 -0.07759
 C1399 C -0.01149 1.23010 0.39439
 C1400 C 0.00392 1.21963 0.41317
 C1401 C -0.00144 1.19467 0.42544
 C1402 C 0.01918 1.17941 0.43271
 C1403 C 0.01505 1.15506 0.44298
 C1404 C -0.00987 1.14564 0.44656
 C1405 C -0.03058 1.16139 0.44060
 C1406 C -0.02643 1.18567 0.42986
 C1407 C -0.01422 1.11938 0.45623
 C1408 C 0.00116 1.09947 0.44802
 H1409 H 0.02203 1.22873 0.41694
 H1410 H 0.03858 1.18609 0.42983
 H1411 H 0.03138 1.14356 0.44810
 H1412 H -0.04992 1.15463 0.44359
 H1413 H -0.04272 1.19736 0.42513
 H1414 H -0.03005 1.11555 0.46902
 H1415 H -0.02882 1.22013 0.38944
 H1416 H 0.01523 1.10332 0.43332
 C1417 C 0.74098 0.64568 0.97872
 C1418 C 0.75842 0.66167 0.96612
 C1419 C 0.75340 0.67136 0.94027
 C1420 C 0.76232 0.69551 0.93235
 C1421 C 0.75887 0.70401 0.90741
 C1422 C 0.74710 0.68811 0.88985
 C1423 C 0.73841 0.66392 0.89777
 C1424 C 0.74124 0.65574 0.92274
 C1425 C 0.74559 0.69516 0.86280
 C1426 C 0.74114 0.71996 0.85391
 H1427 H 0.77656 0.66591 0.97468
 H1428 H 0.77207 0.70772 0.94543
 H1429 H 0.76627 0.72254 0.90165
 H1430 H 0.72960 0.65121 0.88450
 H1431 H 0.73475 0.63674 0.92807
 H1432 H 0.74693 0.67987 0.84933
 H1433 H 0.72187 0.64460 0.97120
 H1434 H 0.73695 0.73497 0.86712
 C1435 C 0.25108 0.14891 0.47625
 C1436 C 0.24938 0.13789 0.45250
 C1437 C 0.24964 0.15214 0.42827
 C1438 C 0.25580 0.13867 0.40647
 C1439 C 0.25569 0.15077 0.38295
 C1440 C 0.24903 0.17659 0.38052
 C1441 C 0.24277 0.19028 0.40232
 C1442 C 0.24308 0.17812 0.42605
 C1443 C 0.24945 0.18809 0.35490
 C1444 C 0.23780 0.21104 0.34770
 H1445 H 0.24845 0.11725 0.45160
 H1446 H 0.26081 0.11863 0.40764
 H1447 H 0.26065 0.13976 0.36651
 H1448 H 0.23784 0.21029 0.40122
 H1449 H 0.23776 0.18898 0.44244
 H1450 H 0.25871 0.17694 0.34043
 H1451 H 0.25350 0.16937 0.47766
 H1452 H 0.22778 0.22253 0.36133
 C1453 C 0.75430 0.35800 0.47788
 C1454 C 0.77228 0.34009 0.47009
 C1455 C 0.77268 0.33087 0.44390
 C1456 C 0.77976 0.30565 0.43879
 C1457 C 0.77895 0.29652 0.41412
 C1458 C 0.77139 0.31271 0.39414
 C1459 C 0.76525 0.33815 0.39931
 C1460 C 0.76601 0.34718 0.42381
 C1461 C 0.76868 0.30415 0.36784
 C1462 C 0.77668 0.28062 0.35859
 H1463 H 0.78598 0.33263 0.48340
 H1464 H 0.78524 0.29284 0.45398
 H1465 H 0.78372 0.27676 0.41105
 H1466 H 0.75964 0.35114 0.38430
 H1467 H 0.76142 0.36702 0.42694
 H1468 H 0.75982 0.31747 0.35483
 H1469 H 0.73982 0.36385 0.46459
 H1470 H 0.78653 0.26708 0.37053
 C1471 C 0.25568 0.85362 0.97396
 C1472 C 0.25655 0.86238 0.94901
 C1473 C 0.25355 0.84575 0.92698
 C1474 C 0.24492 0.85692 0.90453
 C1475 C 0.24133 0.84219 0.88325
 C1476 C 0.24667 0.81595 0.88369
 C1477 C 0.25555 0.80462 0.90611
 C1478 C 0.25896 0.81942 0.92761
 C1479 C 0.24283 0.80174 0.86014
 C1480 C 0.25299 0.77773 0.85467
 H1481 H 0.25720 0.88281 0.94557
 H1482 H 0.24066 0.87714 0.90350
 H1483 H 0.23454 0.85147 0.86623
 H1484 H 0.25973 0.78444 0.90725
 H1485 H 0.26611 0.81025 0.94449
 H1486 H 0.23303 0.81199 0.84526
 H1487 H 0.25334 0.83345 0.97804
 H1488 H 0.26294 0.76670 0.86883
 C1489 C 0.25708 0.85888 0.02665
 C1490 C 0.24254 0.83835 0.03557
 C1491 C 0.24586 0.82730 0.06115
 C1492 C 0.22968 0.80747 0.06957
 C1493 C 0.23195 0.79708 0.09390
 C1494 C 0.25064 0.80630 0.11030
 C1495 C 0.26688 0.82605 0.10175
 C1496 C 0.26459 0.83642 0.07749
 C1497 C 0.25343 0.79678 0.13661
 C1498 C 0.24132 0.77510 0.14689
 H1499 H 0.22790 0.83058 0.02360
 H1500 H 0.21502 0.80018 0.05738
 H1501 H 0.21873 0.78223 0.09974
 H1502 H 0.28138 0.83361 0.11396
 H1503 H 0.27741 0.85168 0.07165
 H1504 H 0.26594 0.80758 0.14860
 H1505 H 0.25375 0.86464 0.01207
 H1506 H 0.22940 0.76322 0.13542
 C1507 C 0.75354 0.35269 0.52488
 C1508 C 0.75187 0.36155 0.54955
 C1509 C 0.75089 0.34540 0.57267
 C1510 C 0.75770 0.35689 0.59525
 C1511 C 0.75711 0.34309 0.61781
 C1512 C 0.74923 0.31747 0.61863
 C1513 C 0.74188 0.30580 0.59615
 C1514 C 0.74281 0.31969 0.57322
 C1515 C 0.75060 0.30400 0.64326
 C1516 C 0.73705 0.28204 0.65103
 H1517 H 0.75254 0.38204 0.55209
 H1518 H 0.76384 0.37666 0.59542
 H1519 H 0.76290 0.35257 0.63482
 H1520 H 0.73596 0.28600 0.59616
 H1521 H 0.73699 0.31040 0.55617
 H1522 H 0.76251 0.31327 0.65695
 H1523 H 0.75420 0.33238 0.52149
 H1524 H 0.72443 0.27239 0.63828
 C1525 C 0.25035 0.14973 0.52297
 C1526 C 0.23343 0.14645 0.54340
 C1527 C 0.23279 0.16248 0.56621
 C1528 C 0.21196 0.15951 0.58280
 C1529 C 0.21100 0.17257 0.60546
 C1530 C 0.23081 0.18906 0.61219
 C1531 C 0.25153 0.19262 0.59542
 C1532 C 0.25254 0.17942 0.57263
 C1533 C 0.22998 0.20001 0.63774
 C1534 C 0.24513 0.22016 0.64605
 H1535 H 0.21961 0.13111 0.54295
 H1536 H 0.19650 0.14661 0.57844
 H1537 H 0.19488 0.16934 0.61806
 H1538 H 0.26742 0.20473 0.60021
 H1539 H 0.26919 0.18196 0.56069
 H1540 H 0.21675 0.19117 0.65108
 H1541 H 0.26408 0.16516 0.52319
 H1542 H 0.25705 0.23096 0.63296
 C1543 C 0.74697 0.64291 0.02614
 C1544 C 0.73880 0.66801 0.02978
 C1545 C 0.73524 0.67843 0.05543
 C1546 C 0.73827 0.70469 0.05940
 C1547 C 0.73527 0.71476 0.08358
 C1548 C 0.72890 0.69868 0.10425
 C1549 C 0.72501 0.67260 0.10000
 C1550 C 0.72810 0.66258 0.07595
 C1551 C 0.72602 0.70795 0.13045
 C1552 C 0.73504 0.73145 0.13882
 H1553 H 0.73517 0.68040 0.01374
 H1554 H 0.74328 0.71739 0.04382
 H1555 H 0.73776 0.73508 0.08581
 H1556 H 0.71970 0.65980 0.11541
 H1557 H 0.72448 0.64243 0.07349
 H1558 H 0.71784 0.69477 0.14427
 H1559 H 0.75214 0.63166 0.04259
 H1560 H 0.74414 0.74474 0.12577
 C1561 C 0.13026 0.52181 0.25449
 C1562 C 0.14526 0.53488 0.23642
 C1563 C 0.15660 0.56054 0.24065
 C1564 C 0.16251 0.56919 0.26484
 C1565 C 0.17321 0.59342 0.26808
 C1566 C 0.17829 0.60971 0.24733
 C1567 C 0.17268 0.60093 0.22307
 C1568 C 0.16205 0.57661 0.21983
 C1569 C 0.19053 0.63491 0.25191
 C1570 C 0.19289 0.65482 0.23407
 H1571 H 0.14735 0.52677 0.21788
 H1572 H 0.15945 0.55717 0.28134
 H1573 H 0.17769 0.59942 0.28695
 H1574 H 0.17683 0.61245 0.20646
 H1575 H 0.15797 0.57035 0.20095
 H1576 H 0.19823 0.63787 0.27049
 H1577 H 0.12773 0.53029 0.27280
 H1578 H 0.18462 0.65298 0.21564
 C1579 C 0.63370 0.02260 0.74790
 C1580 C 0.62461 0.04734 0.75215
 C1581 C 0.64119 0.07034 0.75057
 C1582 C 0.66684 0.06937 0.75788
 C1583 C 0.68163 0.09163 0.75820
 C1584 C 0.67135 0.11528 0.75082
 C1585 C 0.64580 0.11624 0.74311
 C1586 C 0.63081 0.09400 0.74327
 C1587 C 0.68722 0.13859 0.75332
 C1588 C 0.68447 0.16090 0.73873
 H1589 H 0.60455 0.04998 0.75639
 H1590 H 0.67525 0.05160 0.76425
 H1591 H 0.70116 0.09042 0.76453
 H1592 H 0.63711 0.13424 0.73786
 H1593 H 0.61100 0.09528 0.73786
 H1594 H 0.70261 0.13772 0.76675
 H1595 H 0.65305 0.02076 0.74080
 H1596 H 0.67102 0.16143 0.72342
 C1597 C 0.86157 0.02225 0.24726
 C1598 C 0.87032 0.04755 0.24701
 C1599 C 0.85368 0.06991 0.25081
 C1600 C 0.86413 0.09211 0.26105
 C1601 C 0.84940 0.11416 0.26360
 C1602 C 0.82396 0.11448 0.25558
 C1603 C 0.81350 0.09224 0.24541
 C1604 C 0.82812 0.07009 0.24319
 C1605 C 0.80864 0.13814 0.25531
 C1606 C 0.81279 0.15887 0.27105
 H1607 H 0.89069 0.05091 0.24547
 H1608 H 0.88386 0.09247 0.26684
 H1609 H 0.85828 0.13113 0.27091
 H1610 H 0.79405 0.09214 0.23877
 H1611 H 0.81966 0.05351 0.23466
 H1612 H 0.79321 0.13926 0.24193
 H1613 H 0.84146 0.01841 0.25032
 H1614 H 0.82618 0.15739 0.28636
 C1615 C 0.36386 0.52015 0.75125
 C1616 C 0.35300 0.53079 0.77290
 C1617 C 0.33913 0.55548 0.77168
 C1618 C 0.34067 0.57281 0.79156
 C1619 C 0.32900 0.59691 0.78974
 C1620 C 0.31529 0.60387 0.76805
 C1621 C 0.31298 0.58603 0.74874
 C1622 C 0.32459 0.56216 0.75054
 C1623 C 0.30385 0.62950 0.76384
 C1624 C 0.30181 0.64913 0.78142
 H1625 H 0.35607 0.52180 0.79111
 H1626 H 0.35157 0.56800 0.80816
 H1627 H 0.33128 0.61006 0.80504
 H1628 H 0.30230 0.59066 0.73194
 H1629 H 0.32214 0.54897 0.73527
 H1630 H 0.29632 0.63310 0.74520
 H1631 H 0.36124 0.53037 0.73356
 H1632 H 0.30790 0.64622 0.80063
 C1633 C 0.35813 0.47336 0.74881
 C1634 C 0.36462 0.44865 0.74119
 C1635 C 0.34680 0.42655 0.74151
 C1636 C 0.35223 0.40564 0.72610
 C1637 C 0.33691 0.38368 0.72702
 C1638 C 0.31592 0.38206 0.74366
 C1639 C 0.31046 0.40300 0.75902
 C1640 C 0.32561 0.42505 0.75792
 C1641 C 0.30060 0.35834 0.74704
 C1642 C 0.29885 0.33899 0.72921
 H1643 H 0.38381 0.44537 0.73425
 H1644 H 0.36862 0.40617 0.71351
 H1645 H 0.34215 0.36775 0.71535
 H1646 H 0.29460 0.40214 0.77226
 H1647 H 0.32117 0.44041 0.77060
 H1648 H 0.28994 0.35612 0.76454
 H1649 H 0.33891 0.47708 0.75540
 H1650 H 0.30738 0.34158 0.71070
 C1651 C 0.86493 0.97505 0.24629
 C1652 C 0.84930 0.96572 0.22727
 C1653 C 0.83531 0.94111 0.22970
 C1654 C 0.82963 0.92726 0.20801
 C1655 C 0.81683 0.90372 0.20986
 C1656 C 0.80924 0.89374 0.23355
 C1657 C 0.81449 0.90795 0.25511
 C1658 C 0.82727 0.93133 0.25326
 C1659 C 0.79567 0.86898 0.23712
 C1660 C 0.78977 0.85156 0.21823
 H1661 H 0.84858 0.97599 0.20943
 H1662 H 0.83540 0.93452 0.18960
 H1663 H 0.81298 0.89362 0.19273
 H1664 H 0.80862 0.90096 0.27359
 H1665 H 0.83041 0.94180 0.27034
 H1666 H 0.79005 0.86409 0.25629
 H1667 H 0.86628 0.96429 0.26380
 H1668 H 0.79502 0.85538 0.19881
 C1669 C 0.63541 0.97579 0.75462
 C1670 C 0.62683 0.95121 0.76138
 C1671 C 0.64294 0.92799 0.75978
 C1672 C 0.63644 0.90631 0.77441
 C1673 C 0.65028 0.88357 0.77220
 C1674 C 0.67080 0.88200 0.75501
 C1675 C 0.67715 0.90364 0.74027
 C1676 C 0.66349 0.92638 0.74264
 C1677 C 0.68515 0.85800 0.75081
 C1678 C 0.68642 0.83765 0.76816
 H1679 H 0.60727 0.94876 0.76770
 H1680 H 0.62042 0.90689 0.78744
 H1681 H 0.64434 0.86716 0.78341
 H1682 H 0.69263 0.90287 0.72662
 H1683 H 0.66857 0.94230 0.73036
 H1684 H 0.69609 0.85673 0.73345
 H1685 H 0.65528 0.97816 0.74932
 H1686 H 0.67731 0.83910 0.78645
 C1687 C 0.13636 0.47457 0.25336
 C1688 C 0.12849 0.44908 0.25661
 C1689 C 0.14587 0.42680 0.25731
 C1690 C 0.13748 0.40412 0.26927
 C1691 C 0.15228 0.38193 0.26852
 C1692 C 0.17573 0.38188 0.25546
 C1693 C 0.18422 0.40462 0.24367
 C1694 C 0.16957 0.42691 0.24470
 C1695 C 0.19066 0.35816 0.25187
 C1696 C 0.18922 0.33662 0.26779
 H1697 H 0.10831 0.44520 0.25904
 H1698 H 0.11915 0.40345 0.27888
 H1699 H 0.14479 0.36466 0.27730
 H1700 H 0.20207 0.40502 0.23322
 H1701 H 0.17638 0.44380 0.23472
 H1702 H 0.20367 0.35776 0.23588
 H1703 H 0.15648 0.47888 0.25130
 H1704 H 0.17837 0.33728 0.28522
 C1705 C 0.01973 0.25384 0.86337
 C1706 C 0.04413 0.25804 0.87266
 C1707 C 0.06696 0.25956 0.85627
 C1708 C 0.09064 0.25308 0.86644
 C1709 C 0.11249 0.25308 0.85123
 C1710 C 0.11100 0.25968 0.82552
 C1711 C 0.08754 0.26739 0.81564
 C1712 C 0.06565 0.26730 0.83083
 C1713 C 0.13354 0.25901 0.80870
 C1714 C 0.15402 0.24273 0.81309
 H1715 H 0.04668 0.25834 0.89287
 H1716 H 0.09216 0.24757 0.88611
 H1717 H 0.13047 0.24810 0.85975
 H1718 H 0.08607 0.27309 0.79601
 H1719 H 0.04787 0.27342 0.82262
 H1720 H 0.13346 0.27083 0.79176
 H1721 H 0.01721 0.25109 0.84338
 H1722 H 0.15361 0.22963 0.82905
 C1723 C 0.52363 0.75280 0.36712
 C1724 C 0.54574 0.76067 0.37907
 C1725 C 0.57068 0.75649 0.36727
 C1726 C 0.58800 0.77674 0.36470
 C1727 C 0.61089 0.77328 0.35157
 C1728 C 0.61688 0.74933 0.34158
 C1729 C 0.60025 0.72870 0.34556
 C1730 C 0.57707 0.73233 0.35806
 C1731 C 0.63976 0.74597 0.32593
 C1732 C 0.64522 0.76313 0.30639
 H1733 H 0.54477 0.76982 0.39720
 H1734 H 0.58337 0.79538 0.37199
 H1735 H 0.62379 0.78932 0.34896
 H1736 H 0.60473 0.71009 0.33809
 H1737 H 0.56401 0.71638 0.36037
 H1738 H 0.65084 0.72867 0.32812
 H1739 H 0.52543 0.74446 0.34861
 H1740 H 0.63236 0.77888 0.30271
 C1741 C 0.52786 0.25626 0.15329
 C1742 C 0.54703 0.23811 0.15661
 C1743 C 0.57198 0.24442 0.16736
 C1744 C 0.58628 0.22481 0.17843
 C1745 C 0.61037 0.22985 0.18797
 C1746 C 0.62067 0.25466 0.18644
 C1747 C 0.60677 0.27413 0.17463
 C1748 C 0.58252 0.26912 0.16524
 C1749 C 0.64598 0.26031 0.19677
 C1750 C 0.65446 0.24770 0.21830
 H1751 H 0.54400 0.21857 0.15102
 H1752 H 0.57879 0.20552 0.17968
 H1753 H 0.62107 0.21421 0.19615
 H1754 H 0.61459 0.29324 0.17287
 H1755 H 0.57240 0.28444 0.15585
 H1756 H 0.65765 0.27503 0.18784
 H1757 H 0.53023 0.27464 0.16203
 H1758 H 0.64171 0.23470 0.22837
 C1759 C 0.02699 0.74763 0.65123
 C1760 C 0.05035 0.74260 0.63951
 C1761 C 0.07415 0.73876 0.65362
 C1762 C 0.09754 0.74344 0.64136
 C1763 C 0.12039 0.74100 0.65440
 C1764 C 0.12020 0.73375 0.68003
 C1765 C 0.09688 0.72786 0.69193
 C1766 C 0.07405 0.73033 0.67890
 C1767 C 0.14376 0.73215 0.69494
 C1768 C 0.16583 0.74587 0.68873
 H1769 H 0.05134 0.74276 0.61911
 H1770 H 0.09811 0.74939 0.62173
 H1771 H 0.13805 0.74467 0.64428
 H1772 H 0.09629 0.72172 0.71150
 H1773 H 0.05646 0.72547 0.68867
 H1774 H 0.14309 0.72120 0.71242
 H1775 H 0.02628 0.75019 0.67142
 H1776 H 0.16653 0.75798 0.67205
 C1777 C 0.98030 0.75401 0.65364
 C1778 C 0.95700 0.76343 0.64514
 C1779 C 0.93386 0.76506 0.66101
 C1780 C 0.91027 0.76702 0.64906
 C1781 C 0.88779 0.76812 0.66318
 C1782 C 0.88849 0.76732 0.68963
 C1783 C 0.91211 0.76663 0.70167
 C1784 C 0.93469 0.76540 0.68749
 C1785 C 0.86477 0.76665 0.70476
 C1786 C 0.84341 0.75372 0.69625
 H1787 H 0.95554 0.76920 0.62552
 H1788 H 0.90919 0.76736 0.62869
 H1789 H 0.86987 0.76961 0.65335
 H1790 H 0.91306 0.76645 0.72203
 H1791 H 0.95262 0.76492 0.69733
 H1792 H 0.86467 0.77472 0.72342
 H1793 H 0.98152 0.74567 0.67236
 H1794 H 0.84451 0.74355 0.67867
 C1795 C 0.48073 0.25501 0.15353
 C1796 C 0.45676 0.25934 0.14307
 C1797 C 0.43268 0.25988 0.15776
 C1798 C 0.40969 0.25704 0.14486
 C1799 C 0.38644 0.25704 0.15784
 C1800 C 0.38569 0.25986 0.18413
 C1801 C 0.40859 0.26362 0.19695
 C1802 C 0.43192 0.26360 0.18394
 C1803 C 0.36138 0.25932 0.19850
 C1804 C 0.33992 0.24629 0.19016
 H1805 H 0.45548 0.26103 0.12275
 H1806 H 0.40972 0.25465 0.12463
 H1807 H 0.36914 0.25516 0.14713
 H1808 H 0.40845 0.26632 0.21713
 H1809 H 0.44914 0.26676 0.19445
 H1810 H 0.36076 0.26833 0.21672
 H1811 H 0.48231 0.25076 0.17345
 H1812 H 0.34090 0.23560 0.17291
 C1813 C 0.47728 0.74676 0.36239
 C1814 C 0.45378 0.73608 0.36910
 C1815 C 0.43145 0.73957 0.35309
 C1816 C 0.41455 0.71921 0.34975
 C1817 C 0.39289 0.72258 0.33506
 C1818 C 0.38762 0.74658 0.32415
 C1819 C 0.40424 0.76706 0.32801
 C1820 C 0.42620 0.76353 0.34215
 C1821 C 0.36416 0.75100 0.31001
 C1822 C 0.35410 0.73277 0.29415
 H1823 H 0.45152 0.72526 0.38653
 H1824 H 0.41819 0.70074 0.35841
 H1825 H 0.37991 0.70668 0.33285
 H1826 H 0.40022 0.78577 0.32005
 H1827 H 0.43870 0.77968 0.34511
 H1828 H 0.35499 0.76944 0.31154
 H1829 H 0.47906 0.75663 0.34434
 H1830 H 0.36468 0.71553 0.29020
 C1831 C 0.97298 0.24946 0.86526
 C1832 C 0.95494 0.22982 0.86509
 C1833 C 0.93059 0.23339 0.85206
 C1834 C 0.91947 0.21300 0.83937
 C1835 C 0.89654 0.21646 0.82660
 C1836 C 0.88430 0.24033 0.82679
 C1837 C 0.89507 0.26039 0.84021
 C1838 C 0.91805 0.25703 0.85264
 C1839 C 0.85978 0.24479 0.81434
 C1840 C 0.85168 0.23138 0.79342
 H1841 H 0.95856 0.21159 0.87417
 H1842 H 0.92869 0.19452 0.83911
 H1843 H 0.88824 0.20039 0.81708
 H1844 H 0.88571 0.27878 0.84099
 H1845 H 0.92581 0.27284 0.86302
 H1846 H 0.84802 0.26011 0.82147
 H1847 H 0.96934 0.26627 0.85370
 H1848 H 0.86384 0.21720 0.78487
 C1849 C 0.60165 0.99330 0.72789
 C1850 C 0.59322 1.01199 0.71084
 C1851 C 0.58066 1.00579 0.68681
 C1852 C 0.56509 1.02416 0.67520
 C1853 C 0.55412 1.01952 0.65181
 C1854 C 0.55878 0.99644 0.63940
 C1855 C 0.57452 0.97817 0.65089
 C1856 C 0.58528 0.98270 0.67438
 C1857 C 0.54910 0.99168 0.61379
 C1858 C 0.52703 1.00295 0.60430
 H1859 H 0.59568 1.03194 0.71503
 H1860 H 0.56164 1.04229 0.68414
 H1861 H 0.54276 1.03439 0.64315
 H1862 H 0.57873 0.96043 0.64151
 H1863 H 0.59786 0.96842 0.68229
 H1864 H 0.55971 0.97863 0.60204
 H1865 H 0.59612 0.97370 0.72463
 H1866 H 0.51501 1.01423 0.61650
 C1867 C 0.10688 0.49482 1.22343
 C1868 C 0.09117 0.51354 1.21281
 C1869 C 0.08269 0.51289 1.18626
 C1870 C 0.06071 0.52630 1.17922
 C1871 C 0.05227 0.52612 1.15429
 C1872 C 0.06583 0.51259 1.13575
 C1873 C 0.08812 0.49966 1.14278
 C1874 C 0.09652 0.49985 1.16765
 C1875 C 0.05780 0.51133 1.10901
 C1876 C 0.03524 0.52165 1.09949
 H1877 H 0.08470 0.52905 1.22451
 H1878 H 0.04991 0.53681 1.19312
 H1879 H 0.03522 0.53670 1.14988
 H1880 H 0.09918 0.48936 1.12893
 H1881 H 0.11412 0.49011 1.17201
 H1882 H 0.07019 0.50118 1.09616
 H1883 H 0.11141 0.47813 1.21248
 H1884 H 0.02216 0.53171 1.11161
 C1885 C -0.10754 0.00246 1.21816
 C1886 C -0.09228 -0.01653 1.20762
 C1887 C -0.08260 -0.01485 1.18132
 C1888 C -0.06056 -0.02830 1.17445
 C1889 C -0.05121 -0.02716 1.14962
 C1890 C -0.06396 -0.01263 1.13114
 C1891 C -0.08629 0.00033 1.13801
 C1892 C -0.09557 -0.00079 1.16271
 C1893 C -0.05533 -0.01068 1.10447
 C1894 C -0.03209 -0.01969 1.09506
 H1895 H -0.08737 -0.03311 1.21899
 H1896 H -0.05048 -0.03962 1.18835
 H1897 H -0.03425 -0.03790 1.14514
 H1898 H -0.09674 0.01135 1.12414
 H1899 H -0.11321 0.00897 1.16695
 H1900 H -0.06802 -0.00106 1.09148
 H1901 H -0.11051 0.01989 1.20738
 H1902 H -0.01856 -0.02897 1.10733
 C1903 C 0.39328 0.49524 0.72574
 C1904 C 0.41962 0.49181 0.72298
 C1905 C 0.43223 0.49540 0.69801
 C1906 C 0.42325 0.51378 0.68075
 C1907 C 0.43405 0.51610 0.65673
 C1908 C 0.45430 0.50036 0.64929
 C1909 C 0.46409 0.48261 0.66687
 C1910 C 0.45321 0.48032 0.69111
 C1911 C 0.46324 0.50249 0.62272
 C1912 C 0.48493 0.49089 0.61246
 H1913 H 0.43092 0.48553 0.73881
 H1914 H 0.40776 0.52641 0.68573
 H1915 H 0.42627 0.53012 0.64374
 H1916 H 0.47958 0.47004 0.66188
 H1917 H 0.46064 0.46621 0.70420
 H1918 H 0.45163 0.51405 0.61025
 H1919 H 0.38236 0.49853 0.70878
 H1920 H 0.49795 0.48033 0.62431
 C1921 C 0.39396 0.48995 -0.22650
 C1922 C 0.40981 0.50838 -0.21597
 C1923 C 0.42144 0.50499 -0.19074
 C1924 C 0.44268 0.51980 -0.18423
 C1925 C 0.45313 0.51786 -0.16006
 C1926 C 0.44233 0.50114 -0.14182
 C1927 C 0.42101 0.48652 -0.14836
 C1928 C 0.41067 0.48839 -0.17242
 C1929 C 0.45155 0.49909 -0.11552
 C1930 C 0.47501 0.50820 -0.10706
 H1931 H 0.41304 0.52619 -0.22617
 H1932 H 0.45108 0.53305 -0.19783
 H1933 H 0.46918 0.52991 -0.15567
 H1934 H 0.41206 0.47375 -0.13465
 H1935 H 0.39373 0.47736 -0.17623
 H1936 H 0.43916 0.48927 -0.10204
 H1937 H 0.39308 0.47117 -0.21772
 H1938 H 0.48849 0.51698 -0.12011
 C1939 C -0.09960 0.99926 0.26414
 C1940 C -0.10101 1.01255 0.28681
 C1941 C -0.08273 1.00889 0.30745
 C1942 C -0.07710 1.02956 0.32295
 C1943 C -0.06221 1.02608 0.34440
 C1944 C -0.05320 1.00168 0.35098
 C1945 C -0.05855 0.98108 0.33529
 C1946 C -0.07297 0.98467 0.31354
 C1947 C -0.04085 0.99669 0.37540
 C1948 C -0.02609 1.01467 0.38780
 H1949 H -0.11620 1.02602 0.29011
 H1950 H -0.08474 1.04832 0.31875
 H1951 H -0.05893 1.04221 0.35645
 H1952 H -0.05207 0.96204 0.34022
 H1953 H -0.07756 0.96826 0.30229
 H1954 H -0.04373 0.97804 0.38413
 H1955 H -0.08381 0.98627 0.26142
 H1956 H -0.02029 1.03220 0.37827
 C1957 C 0.09527 0.49332 0.26905
 C1958 C 0.10013 0.48935 0.29468
 C1959 C 0.08080 0.48858 0.31531
 C1960 C 0.08977 0.48727 0.34006
 C1961 C 0.07293 0.48789 0.36048
 C1962 C 0.04653 0.48994 0.35677
 C1963 C 0.03724 0.48990 0.33209
 C1964 C 0.05424 0.48940 0.31144
 C1965 C 0.02915 0.49281 0.37876
 C1966 C 0.03671 0.50814 0.39855
 H1967 H 0.11992 0.48757 0.30011
 H1968 H 0.11003 0.48619 0.34369
 H1969 H 0.08066 0.48699 0.37930
 H1970 H 0.01694 0.49109 0.32881
 H1971 H 0.04645 0.48989 0.29270
 H1972 H 0.01112 0.48268 0.37958
 H1973 H 0.07596 0.49635 0.26280
 H1974 H 0.05401 0.51933 0.39604
 C1975 C 0.60119 0.00074 -0.22489
 C1976 C 0.57583 -0.00751 -0.22219
 C1977 C 0.56143 -0.00520 -0.19813
 C1978 C 0.56619 0.01486 -0.18157
 C1979 C 0.55312 0.01622 -0.15857
 C1980 C 0.53511 -0.00260 -0.15138
 C1981 C 0.52939 -0.02190 -0.16850
 C1982 C 0.54240 -0.02316 -0.19168
 C1983 C 0.52244 -0.00248 -0.12616
 C1984 C 0.53455 0.00797 -0.10544
 H1985 H 0.56682 -0.01744 -0.23745
 H1986 H 0.57985 0.02972 -0.18643
 H1987 H 0.55713 0.03220 -0.14657
 H1988 H 0.51531 -0.03638 -0.16367
 H1989 H 0.53804 -0.03855 -0.20433
 H1990 H 0.50417 -0.01191 -0.12357
 H1991 H 0.61073 0.00803 -0.20849
 H1992 H 0.55370 0.01544 -0.10786
 C1993 C 0.72702 0.60805 0.00381
 C1994 C 0.71894 0.59333 -0.01644
 C1995 C 0.69550 0.57748 -0.01506
 C1996 C 0.68055 0.57489 -0.03664
 C1997 C 0.65714 0.56194 -0.03539
 C1998 C 0.64838 0.55107 -0.01246
 C1999 C 0.66403 0.55265 0.00877
 C2000 C 0.68730 0.56567 0.00753
 C2001 C 0.62301 0.53866 -0.00926
 C2002 C 0.60395 0.53783 -0.02752
 H2003 H 0.72808 0.59621 -0.03467
 H2004 H 0.68661 0.58363 -0.05435
 H2005 H 0.64601 0.56091 -0.05233
 H2006 H 0.65802 0.54416 0.02661
 H2007 H 0.69873 0.56651 0.02433
 H2008 H 0.61861 0.53072 0.00925
 H2009 H 0.71684 0.60598 0.02161
 H2010 H 0.60743 0.54503 -0.04642
 C2011 C 0.22879 1.11378 0.49987
 C2012 C 0.20427 1.12116 0.49255
 C2013 C 0.18244 1.10326 0.49133
 C2014 C 0.18082 1.08122 0.50669
 C2015 C 0.15957 1.06516 0.50555
 C2016 C 0.13951 1.07066 0.48905
 C2017 C 0.14109 1.09272 0.47368
 C2018 C 0.16233 1.10888 0.47493
 C2019 C 0.11664 1.05400 0.49003
 C2020 C 0.09764 1.05346 0.47173
 H2021 H 0.20132 1.14064 0.48610
 H2022 H 0.19551 1.07663 0.52014
 H2023 H 0.15864 1.04852 0.51790
 H2024 H 0.12576 1.09800 0.46122
 H2025 H 0.16302 1.12591 0.46309
 H2026 H 0.11458 1.04154 0.50642
 H2027 H 0.23206 1.09425 0.50593
 H2028 H 0.09985 1.06416 0.45426
 C2029 C 0.22674 -0.11256 0.99247
 C2030 C 0.20727 -0.11104 1.01051
 C2031 C 0.18241 -0.09858 1.00553
 C2032 C 0.16781 -0.08979 1.02590
 C2033 C 0.14418 -0.07812 1.02197
 C2034 C 0.13443 -0.07534 0.99747
 C2035 C 0.14903 -0.08426 0.97713
 C2036 C 0.17266 -0.09587 0.98106
 C2037 C 0.10952 -0.06304 0.99219
 C2038 C 0.09070 -0.05872 1.01046
 H2039 H 0.21060 -0.11847 1.02930
 H2040 H 0.17484 -0.09170 1.04493
 H2041 H 0.13397 -0.07105 1.03818
 H2042 H 0.14201 -0.08247 0.95808
 H2043 H 0.18290 -0.10309 0.96490
 H2044 H 0.10552 -0.05782 0.97281
 H2045 H 0.22433 -0.10315 0.97439
 H2046 H 0.09360 -0.06471 1.02978
 C2047 C 0.73274 0.38974 0.50451
 C2048 C 0.70781 0.38047 0.50290
 C2049 C 0.68505 0.39691 0.50256
 C2050 C 0.66473 0.39000 0.48716
 C2051 C 0.64270 0.40479 0.48633
 C2052 C 0.64015 0.42626 0.50155
 C2053 C 0.66029 0.43307 0.51738
 C2054 C 0.68276 0.41859 0.51769
 C2055 C 0.61670 0.44156 0.49942
 C2056 C 0.60451 0.45320 0.51974
 H2057 H 0.70504 0.36030 0.49950
 H2058 H 0.66608 0.37330 0.47544
 H2059 H 0.62745 0.39927 0.47393
 H2060 H 0.65887 0.44978 0.52905
 H2061 H 0.69807 0.42406 0.53002
 H2062 H 0.60720 0.44138 0.48140
 H2063 H 0.73596 0.41004 0.50660
 H2064 H 0.61236 0.45151 0.53846
 C2065 C -0.21981 0.38663 0.50423
 C2066 C -0.21094 0.40285 0.48474
 C2067 C -0.18665 0.41737 0.48618
 C2068 C -0.17309 0.42385 0.46398
 C2069 C -0.14995 0.43736 0.46497
 C2070 C -0.14017 0.44490 0.48827
 C2071 C -0.15414 0.43889 0.51032
 C2072 C -0.17704 0.42534 0.50934
 C2073 C -0.11575 0.45897 0.49105
 C2074 C -0.09723 0.46371 0.47222
 H2075 H -0.22153 0.40390 0.46737
 H2076 H -0.18027 0.41818 0.44585
 H2077 H -0.13998 0.44187 0.44753
 H2078 H -0.14727 0.44465 0.52854
 H2079 H -0.18733 0.42153 0.52677
 H2080 H -0.11157 0.46509 0.50997
 H2081 H -0.20840 0.38443 0.52098
 H2082 H -0.10035 0.45812 0.45299
 C2083 C 0.27429 -0.10531 -0.00732
 C2084 C 0.29988 -0.11097 -0.01215
 C2085 C 0.32025 -0.09128 -0.01363
 C2086 C 0.34249 -0.09607 -0.02775
 C2087 C 0.36273 -0.07854 -0.02825
 C2088 C 0.36121 -0.05597 -0.01431
 C2089 C 0.33894 -0.05118 -0.00028
 C2090 C 0.31864 -0.06854 -0.00000
 C2091 C 0.38320 -0.03837 -0.01181
 C2092 C 0.40359 -0.03647 -0.02896
 H2093 H 0.30509 -0.13064 -0.01544
 H2094 H 0.34433 -0.11360 -0.03816
 H2095 H 0.37984 -0.08323 -0.03872
 H2096 H 0.33745 -0.03415 0.01095
 H2097 H 0.30218 -0.06450 0.01171
 H2098 H 0.38355 -0.02665 0.00482
 H2099 H 0.26867 -0.08565 -0.00472
 H2100 H 0.40279 -0.04615 -0.04678
 C2101 C 0.27566 1.11668 0.49938
 C2102 C 0.29391 1.11502 0.51841
 C2103 C 0.31771 1.10004 0.51535
 C2104 C 0.32997 1.08996 0.53666
 C2105 C 0.35235 1.07557 0.53414
 C2106 C 0.36306 1.07126 0.51015
 C2107 C 0.35095 1.08173 0.48895
 C2108 C 0.32871 1.09605 0.49147
 C2109 C 0.38663 1.05616 0.50596
 C2110 C 0.40332 1.04787 0.52475
 H2111 H 0.29040 1.12400 0.53633
 H2112 H 0.32201 1.09293 0.55529
 H2113 H 0.36088 1.06776 0.55099
 H2114 H 0.35886 1.07899 0.47025
 H2115 H 0.32046 1.10429 0.47463
 H2116 H 0.39167 1.05224 0.48656
 H2117 H 0.27851 1.10511 0.48289
 H2118 H 0.39947 1.05185 0.54433
 C2119 C -0.22689 0.61559 0.99688
 C2120 C -0.20465 0.62061 1.01054
 C2121 C -0.18026 0.60644 1.00774
 C2122 C -0.16203 0.60818 1.02687
 C2123 C -0.13869 0.59535 1.02508
 C2124 C -0.13297 0.58050 1.00393
 C2125 C -0.15110 0.57898 0.98470
 C2126 C -0.17442 0.59176 0.98651
 C2127 C -0.10827 0.56703 1.00050
 C2128 C -0.08945 0.56388 1.01887
 H2129 H -0.20517 0.63508 1.02485
 H2130 H -0.16589 0.61953 1.04335
 H2131 H -0.12521 0.59750 1.04014
 H2132 H -0.14714 0.56794 0.96804
 H2133 H -0.18746 0.59038 0.97099
 H2134 H -0.10480 0.55886 0.98216
 H2135 H -0.22635 0.60121 0.98251
 H2136 H -0.09237 0.57088 1.03771
 C2137 C -0.00176 0.73163 0.61754
 C2138 C 0.00182 0.70592 0.62393
 C2139 C -0.00239 0.68459 0.60650
 C2140 C -0.00352 0.65970 0.61655
 C2141 C -0.00587 0.63877 0.60080
 C2142 C -0.00682 0.64230 0.57453
 C2143 C -0.00643 0.66720 0.56445
 C2144 C -0.00400 0.68819 0.58023
 C2145 C -0.00804 0.62036 0.55738
 C2146 C 0.00282 0.59685 0.56358
 H2147 H 0.00812 0.70116 0.64279
 H2148 H -0.00244 0.65639 0.63670
 H2149 H -0.00702 0.61990 0.60932
 H2150 H -0.00725 0.67037 0.54427
 H2151 H -0.00267 0.70700 0.57164
 H2152 H -0.01638 0.62317 0.53897
 H2153 H -0.01180 0.73623 0.60042
 H2154 H 0.01297 0.59461 0.58111
 C2155 C 0.50555 0.22716 0.12380
 C2156 C 0.48850 0.20692 0.12743
 C2157 C 0.49250 0.18277 0.11432
 C2158 C 0.47178 0.17053 0.10328
 C2159 C 0.47563 0.14853 0.08927
 C2160 C 0.50023 0.13825 0.08662
 C2161 C 0.52071 0.14973 0.09880
 C2162 C 0.51695 0.17202 0.11235
 C2163 C 0.50480 0.11541 0.07154
 C2164 C 0.49192 0.11141 0.04918
 H2165 H 0.47138 0.20898 0.13875
 H2166 H 0.45276 0.17840 0.10492
 H2167 H 0.45939 0.13950 0.08063
 H2168 H 0.53971 0.14180 0.09730
 H2169 H 0.53312 0.18085 0.12130
 H2170 H 0.51934 0.10208 0.07760
 H2171 H 0.52133 0.22458 0.11070
 H2172 H 0.47914 0.12592 0.04195
 C2173 C 0.00039 0.22546 0.89613
 C2174 C 0.00918 0.20292 0.88546
 C2175 C 0.01065 0.17889 0.90006
 C2176 C 0.00719 0.15575 0.88770
 C2177 C 0.00710 0.13275 0.90128
 C2178 C 0.01066 0.13260 0.92749
 C2179 C 0.01547 0.15563 0.93964
 C2180 C 0.01538 0.17864 0.92607
 C2181 C 0.00972 0.10875 0.94252
 C2182 C -0.00529 0.08807 0.93569
 H2183 H 0.01317 0.20252 0.86541
 H2184 H 0.00402 0.15552 0.86758
 H2185 H 0.00438 0.11518 0.89120
 H2186 H 0.01880 0.15585 0.95973
 H2187 H 0.01909 0.19615 0.93596
 H2188 H 0.02016 0.10792 0.96000
 H2189 H -0.00673 0.22483 0.91536
 H2190 H -0.01717 0.08938 0.91919
 C2191 C 0.50050 0.72661 0.39806
 C2192 C 0.50664 0.70277 0.38852
 C2193 C 0.50834 0.67995 0.40476
 C2194 C 0.50264 0.65613 0.39465
 C2195 C 0.50309 0.63424 0.40988
 C2196 C 0.50938 0.63595 0.43547
 C2197 C 0.51626 0.65961 0.44526
 C2198 C 0.51570 0.68150 0.43006
 C2199 C 0.50963 0.61333 0.45216
 C2200 C 0.49429 0.59214 0.44804
 H2201 H 0.50885 0.70065 0.36834
 H2202 H 0.49745 0.65452 0.37505
 H2203 H 0.49878 0.61608 0.40147
 H2204 H 0.52175 0.66120 0.46478
 H2205 H 0.52123 0.69952 0.43810
 H2206 H 0.52185 0.61365 0.46848
 H2207 H 0.49578 0.72824 0.41788
 H2208 H 0.48081 0.59222 0.43276
 C2209 C 0.49311 0.77324 0.39642
 C2210 C 0.48853 0.79693 0.38507
 C2211 C 0.48545 0.82025 0.39980
 C2212 C 0.49255 0.84370 0.38881
 C2213 C 0.49164 0.86591 0.40288
 C2214 C 0.48356 0.86492 0.42822
 C2215 C 0.47498 0.84172 0.43872
 C2216 C 0.47590 0.81951 0.42465
 C2217 C 0.48384 0.88763 0.44415
 C2218 C 0.50062 0.90788 0.43976
 H2219 H 0.48927 0.79865 0.36471
 H2220 H 0.49940 0.84473 0.36950
 H2221 H 0.49727 0.88372 0.39383
 H2222 H 0.46809 0.84067 0.45802
 H2223 H 0.46921 0.80186 0.43331
 H2224 H 0.47135 0.88782 0.46054
 H2225 H 0.49518 0.77206 0.41667
 H2226 H 0.51410 0.90747 0.42420
 C2227 C -0.00513 0.27214 0.89850
 C2228 C -0.00669 0.29716 0.88933
 C2229 C -0.00811 0.31950 0.90571
 C2230 C 0.00075 0.34293 0.89609
 C2231 C 0.00005 0.36458 0.91088
 C2232 C -0.00983 0.36329 0.93563
 C2233 C -0.01928 0.33995 0.94510
 C2234 C -0.01843 0.31815 0.93027
 C2235 C -0.01049 0.38607 0.95157
 C2236 C 0.00184 0.40815 0.94358
 H2237 H -0.00516 0.30057 0.86919
 H2238 H 0.00853 0.34442 0.87713
 H2239 H 0.00723 0.38233 0.90280
 H2240 H -0.02724 0.33857 0.96398
 H2241 H -0.02619 0.30050 0.93796
 H2242 H -0.02048 0.38547 0.96956
 H2243 H -0.00478 0.26869 0.91865
 H2244 H 0.00084 0.42092 0.95252
 C2245 C 0.50497 0.27347 0.11703
 C2246 C 0.50420 0.29922 0.12324
 C2247 C 0.50506 0.32035 0.10457
 C2248 C 0.49814 0.34472 0.11257
 C2249 C 0.49869 0.36541 0.09581
 C2250 C 0.50602 0.36208 0.07051
 C2251 C 0.51369 0.33786 0.06263
 C2252 C 0.51325 0.31712 0.07948
 C2253 C 0.50670 0.38369 0.05237
 C2254 C 0.49169 0.40525 0.05565
 H2255 H 0.50203 0.30409 0.14291
 H2256 H 0.49230 0.34782 0.13192
 H2257 H 0.49383 0.38400 0.10297
 H2258 H 0.51996 0.33499 0.04338
 H2259 H 0.51969 0.29886 0.07275
 H2260 H 0.51936 0.38263 0.03615
 H2261 H 0.50524 0.26810 0.09744
 H2262 H 0.47785 0.40583 0.07090
 C2263 C 0.00666 0.77908 0.62400
 C2264 C 0.00878 0.78398 0.59814
 C2265 C 0.00648 0.80992 0.58700
 C2266 C 0.01495 0.81420 0.56217
 C2267 C 0.01233 0.83818 0.55066
 C2268 C 0.00124 0.85852 0.56389
 C2269 C -0.00777 0.85405 0.58852
 C2270 C -0.00531 0.83002 0.59995
 C2271 C -0.00163 0.88444 0.55274
 C2272 C 0.01141 0.89276 0.53111
 H2273 H 0.01225 0.76841 0.58543
 H2274 H 0.02353 0.79888 0.55158
 H2275 H 0.01871 0.84034 0.53135
 H2276 H -0.01680 0.86921 0.59898
 H2277 H -0.01319 0.82730 0.61870
 H2278 H -0.01369 0.89787 0.56258
 H2279 H 0.00675 0.79502 0.63674
 H2280 H 0.02434 0.88017 0.52139
 C2281 C 0.25240 0.35520 0.01758
 C2282 C 0.25418 0.36385 0.04229
 C2283 C 0.25355 0.34761 0.06534
 C2284 C 0.25024 0.35986 0.08839
 C2285 C 0.24908 0.34588 0.11085
 C2286 C 0.25144 0.31922 0.11099
 C2287 C 0.25519 0.30673 0.08799
 C2288 C 0.25626 0.32084 0.06529
 C2289 C 0.24869 0.30575 0.13555
 C2290 C 0.25514 0.28031 0.14084
 H2291 H 0.25524 0.38431 0.04493
 H2292 H 0.24824 0.38043 0.08905
 H2293 H 0.24617 0.35603 0.12827
 H2294 H 0.25687 0.28618 0.08737
 H2295 H 0.25926 0.31071 0.04794
 H2296 H 0.24155 0.31721 0.15089
 H2297 H 0.25019 0.33503 0.01418
 H2298 H 0.26347 0.26836 0.12653
 C2299 C 0.74737 0.85486 0.51980
 C2300 C 0.76379 0.85388 0.54041
 C2301 C 0.75833 0.83808 0.56317
 C2302 C 0.77866 0.82754 0.57676
 C2303 C 0.77413 0.81372 0.59914
 C2304 C 0.74915 0.81065 0.60859
 C2305 C 0.72885 0.82130 0.59505
 C2306 C 0.73333 0.83469 0.57244
 C2307 C 0.74388 0.79859 0.63348
 C2308 C 0.75909 0.77959 0.64428
 H2309 H 0.78146 0.86451 0.54006
 H2310 H 0.79811 0.83020 0.57012
 H2311 H 0.79025 0.80634 0.60948
 H2312 H 0.70948 0.81953 0.60218
 H2313 H 0.71732 0.84319 0.56278
 H2314 H 0.72709 0.80488 0.64370
 H2315 H 0.73050 0.84286 0.52046
 H2316 H 0.77435 0.77110 0.63341
 C2317 C 0.25664 0.64152 0.52509
 C2318 C 0.26072 0.63222 0.54950
 C2319 C 0.26293 0.64822 0.57206
 C2320 C 0.27428 0.63741 0.59344
 C2321 C 0.27578 0.65102 0.61568
 C2322 C 0.26571 0.67574 0.61729
 C2323 C 0.25446 0.68682 0.59581
 C2324 C 0.25308 0.67315 0.57336
 C2325 C 0.26702 0.68847 0.64197
 C2326 C 0.25586 0.71185 0.64808
 H2327 H 0.26277 0.61181 0.55223
 H2328 H 0.28193 0.61822 0.59298
 H2329 H 0.28455 0.64196 0.63188
 H2330 H 0.24649 0.70580 0.59618
 H2331 H 0.24371 0.68191 0.55740
 H2332 H 0.27678 0.67804 0.65676
 H2333 H 0.25551 0.66190 0.52164
 H2334 H 0.24628 0.72334 0.63403
 C2335 C 0.75350 0.15214 0.02858
 C2336 C 0.74030 0.15027 0.05164
 C2337 C 0.74341 0.16856 0.07224
 C2338 C 0.72255 0.17344 0.08822
 C2339 C 0.72556 0.18815 0.10974
 C2340 C 0.74968 0.19773 0.11593
 C2341 C 0.77045 0.19322 0.09969
 C2342 C 0.76732 0.17900 0.07787
 C2343 C 0.75433 0.20960 0.14049
 C2344 C 0.73610 0.22350 0.15381
 H2345 H 0.72711 0.13470 0.05522
 H2346 H 0.70402 0.16530 0.08436
 H2347 H 0.70932 0.19080 0.12218
 H2348 H 0.78929 0.20014 0.10430
 H2349 H 0.78386 0.17503 0.06621
 H2350 H 0.77302 0.20701 0.14866
 H2351 H 0.76635 0.16814 0.02548
 H2352 H 0.71849 0.22925 0.14496
 C2353 C 0.75001 0.14501 0.98264
 C2354 C 0.76996 0.15779 0.97014
 C2355 C 0.76792 0.16623 0.94351
 C2356 C 0.78299 0.18658 0.93443
 C2357 C 0.78131 0.19483 0.90930
 C2358 C 0.76454 0.18267 0.89269
 C2359 C 0.75014 0.16178 0.90168
 C2360 C 0.75183 0.15358 0.92671
 C2361 C 0.76127 0.19086 0.86604
 C2362 C 0.77135 0.21332 0.85549
 H2363 H 0.78761 0.16118 0.97996
 H2364 H 0.79591 0.19627 0.94688
 H2365 H 0.79329 0.21058 0.90320
 H2366 H 0.73741 0.15176 0.88928
 H2367 H 0.74077 0.13706 0.93268
 H2368 H 0.74936 0.17905 0.85437
 H2369 H 0.73167 0.14440 0.97349
 H2370 H 0.78299 0.22586 0.86652
 C2371 C 0.24786 0.63795 0.47909
 C2372 C 0.26371 0.65688 0.46852
 C2373 C 0.26100 0.66654 0.44233
 C2374 C 0.27207 0.69006 0.43533
 C2375 C 0.27089 0.69910 0.41043
 C2376 C 0.25884 0.68452 0.39192
 C2377 C 0.24781 0.66102 0.39899
 C2378 C 0.24898 0.65203 0.42381
 C2379 C 0.25684 0.69294 0.36524
 C2380 C 0.27010 0.71356 0.35432
 H2381 H 0.27933 0.66413 0.47954
 H2382 H 0.28162 0.70149 0.44921
 H2383 H 0.27928 0.71750 0.40600
 H2384 H 0.23849 0.64935 0.38515
 H2385 H 0.24104 0.63338 0.42811
 H2386 H 0.24429 0.68200 0.35341
 H2387 H 0.23113 0.63219 0.46881
 H2388 H 0.28321 0.72471 0.36522
 C2389 C 0.75117 0.85467 0.47326
 C2390 C 0.75142 0.86509 0.44890
 C2391 C 0.75026 0.84999 0.42554
 C2392 C 0.75762 0.86205 0.40289
 C2393 C 0.75621 0.84921 0.38018
 C2394 C 0.74711 0.82400 0.37934
 C2395 C 0.73956 0.81175 0.40200
 C2396 C 0.74112 0.82466 0.42494
 C2397 C 0.74637 0.81179 0.35435
 C2398 C 0.73506 0.78831 0.34847
 H2399 H 0.75277 0.88568 0.44689
 H2400 H 0.76456 0.88156 0.40274
 H2401 H 0.76217 0.85919 0.36307
 H2402 H 0.73253 0.79232 0.40215
 H2403 H 0.73471 0.81490 0.44196
 H2404 H 0.75511 0.82277 0.33908
 H2405 H 0.75149 0.83414 0.47592
 H2406 H 0.72587 0.77658 0.36286
 C2407 C 0.25455 0.36036 0.97067
 C2408 C 0.23872 0.34041 0.96308
 C2409 C 0.24107 0.32869 0.93792
 C2410 C 0.23261 0.30353 0.93443
 C2411 C 0.23466 0.29211 0.91078
 C2412 C 0.24503 0.30585 0.89006
 C2413 C 0.25302 0.33114 0.89358
 C2414 C 0.25098 0.34247 0.91709
 C2415 C 0.24782 0.29522 0.86443
 C2416 C 0.23991 0.27097 0.85690
 H2417 H 0.22434 0.33304 0.97609
 H2418 H 0.22462 0.29261 0.95013
 H2419 H 0.22815 0.27265 0.90897
 H2420 H 0.26078 0.34234 0.87795
 H2421 H 0.25675 0.36221 0.91866
 H2422 H 0.25640 0.30778 0.85029
 H2423 H 0.26989 0.36655 0.95816
 H2424 H 0.23114 0.25768 0.87015
 C2425 C 0.86239 0.47551 0.75362
 C2426 C 0.87159 0.45090 0.75861
 C2427 C 0.85525 0.42781 0.75848
 C2428 C 0.86246 0.40618 0.77260
 C2429 C 0.84788 0.38375 0.77217
 C2430 C 0.82589 0.38252 0.75732
 C2431 C 0.81889 0.40408 0.74301
 C2432 C 0.83333 0.42650 0.74358
 C2433 C 0.81062 0.35887 0.75490
 C2434 C 0.81077 0.33832 0.77205
 H2435 H 0.89152 0.44857 0.76323
 H2436 H 0.87950 0.40661 0.78393
 H2437 H 0.85432 0.36734 0.78290
 H2438 H 0.80227 0.40351 0.73109
 H2439 H 0.82764 0.44242 0.73173
 H2440 H 0.79811 0.35788 0.73884
 H2441 H 0.84232 0.47810 0.74983
 H2442 H 0.82162 0.33934 0.78920
 C2443 C 0.35987 0.97714 0.25512
 C2444 C 0.36831 0.95224 0.26020
 C2445 C 0.35178 0.92922 0.26000
 C2446 C 0.36004 0.90692 0.27242
 C2447 C 0.34606 0.88418 0.27105
 C2448 C 0.32354 0.88323 0.25697
 C2449 C 0.31525 0.90555 0.24459
 C2450 C 0.32911 0.92833 0.24614
 C2451 C 0.30919 0.85912 0.25338
 C2452 C 0.31036 0.83793 0.26969
 H2453 H 0.38833 0.94941 0.26419
 H2454 H 0.37763 0.90698 0.28292
 H2455 H 0.35348 0.86727 0.28030
 H2456 H 0.29814 0.90527 0.23336
 H2457 H 0.32248 0.94485 0.23568
 H2458 H 0.29663 0.85827 0.23734
 H2459 H 0.33982 0.98047 0.25182
 H2460 H 0.32101 0.83900 0.28697
 C2461 C 0.14352 0.97157 0.73920
 C2462 C 0.13901 0.94606 0.73298
 C2463 C 0.15891 0.92602 0.73230
 C2464 C 0.15483 0.90431 0.71766
 C2465 C 0.17205 0.88395 0.71811
 C2466 C 0.19366 0.88477 0.73351
 C2467 C 0.19791 0.90662 0.74790
 C2468 C 0.18083 0.92711 0.74724
 C2469 C 0.21044 0.86230 0.73720
 C2470 C 0.21256 0.84208 0.72038
 H2471 H 0.11984 0.94052 0.72791
 H2472 H 0.13795 0.90289 0.70619
 H2473 H 0.16774 0.86721 0.70726
 H2474 H 0.21420 0.90758 0.76021
 H2475 H 0.18432 0.94318 0.75928
 H2476 H 0.22097 0.86122 0.75463
 H2477 H 0.16265 0.97754 0.74386
 H2478 H 0.20426 0.84360 0.70185
 C2479 C 0.64055 0.48122 0.24820
 C2480 C 0.63545 0.45525 0.24437
 C2481 C 0.65456 0.43437 0.24533
 C2482 C 0.67748 0.43621 0.25870
 C2483 C 0.69369 0.41503 0.26097
 C2484 C 0.68755 0.39172 0.24969
 C2485 C 0.66475 0.39006 0.23612
 C2486 C 0.64848 0.41108 0.23408
 C2487 C 0.70424 0.36909 0.25369
 C2488 C 0.70506 0.34854 0.23717
 H2489 H 0.61595 0.44980 0.24050
 H2490 H 0.68252 0.45361 0.26818
 H2491 H 0.71096 0.41676 0.27182
 H2492 H 0.65886 0.37230 0.22781
 H2493 H 0.63078 0.40899 0.22397
 H2494 H 0.71629 0.36867 0.27013
 H2495 H 0.65990 0.48732 0.25171
 H2496 H 0.69479 0.34979 0.21964
 C2497 C 0.62955 0.52776 0.24898
 C2498 C 0.64503 0.53882 0.26721
 C2499 C 0.65586 0.56503 0.26393
 C2500 C 0.66104 0.57993 0.28508
 C2501 C 0.67096 0.60481 0.28223
 C2502 C 0.67617 0.61517 0.25806
 C2503 C 0.67148 0.59995 0.23705
 C2504 C 0.66156 0.57528 0.23989
 C2505 C 0.68684 0.64127 0.25341
 C2506 C 0.69093 0.65997 0.27159
 H2507 H 0.64842 0.52843 0.28463
 H2508 H 0.65714 0.57240 0.30384
 H2509 H 0.67458 0.61563 0.29898
 H2510 H 0.67559 0.60717 0.21820
 H2511 H 0.65881 0.56416 0.22314
 H2512 H 0.69159 0.64617 0.23402
 H2513 H 0.62488 0.53928 0.23257
 H2514 H 0.68624 0.65620 0.29117
 C2515 C 0.13318 0.01771 0.74119
 C2516 C 0.14205 0.03069 0.76233
 C2517 C 0.15365 0.05673 0.76090
 C2518 C 0.15073 0.07294 0.73974
 C2519 C 0.16255 0.09686 0.73862
 C2520 C 0.17715 0.10563 0.75873
 C2521 C 0.17951 0.08989 0.78028
 C2522 C 0.16783 0.06571 0.78131
 C2523 C 0.19033 0.13064 0.75561
 C2524 C 0.19964 0.14568 0.77512
 H2525 H 0.14121 0.02110 0.78053
 H2526 H 0.13923 0.06750 0.72394
 H2527 H 0.16023 0.10865 0.72186
 H2528 H 0.19082 0.09585 0.79605
 H2529 H 0.17023 0.05379 0.79796
 H2530 H 0.19188 0.13817 0.73653
 H2531 H 0.13665 0.02618 0.72279
 H2532 H 0.19696 0.13972 0.79457
 C2533 C 0.36394 0.02441 0.25112
 C2534 C 0.34804 0.03264 0.23159
 C2535 C 0.33374 0.05704 0.23269
 C2536 C 0.32841 0.07077 0.21041
 C2537 C 0.31529 0.09411 0.21123
 C2538 C 0.30699 0.10393 0.23443
 C2539 C 0.31179 0.08976 0.25654
 C2540 C 0.32495 0.06667 0.25573
 C2541 C 0.29310 0.12847 0.23696
 C2542 C 0.28999 0.14724 0.21809
 H2543 H 0.34710 0.02156 0.21458
 H2544 H 0.33471 0.06359 0.19238
 H2545 H 0.31163 0.10417 0.19372
 H2546 H 0.30536 0.09662 0.27467
 H2547 H 0.32784 0.05623 0.27321
 H2548 H 0.28564 0.13245 0.25559
 H2549 H 0.36585 0.03655 0.26731
 H2550 H 0.29734 0.14442 0.19925
 C2551 C 0.86349 0.52266 0.75276
 C2552 C 0.86127 0.54134 0.73370
 C2553 C 0.84632 0.56512 0.73684
 C2554 C 0.83796 0.57852 0.71537
 C2555 C 0.82418 0.60125 0.71763
 C2556 C 0.81871 0.61122 0.74155
 C2557 C 0.82718 0.59784 0.76297
 C2558 C 0.84095 0.57520 0.76071
 C2559 C 0.80415 0.63514 0.74528
 C2560 C 0.79922 0.65338 0.72643
 H2561 H 0.87024 0.53837 0.71554
 H2562 H 0.84195 0.57125 0.69675
 H2563 H 0.81769 0.61065 0.70063
 H2564 H 0.82337 0.60511 0.78162
 H2565 H 0.84775 0.56605 0.77773
 H2566 H 0.79779 0.63906 0.76431
 H2567 H 0.85238 0.52487 0.76988
 H2568 H 0.80602 0.65069 0.70737
 C2569 C 0.97738 0.75140 0.15022
 C2570 C 0.95345 0.75410 0.13932
 C2571 C 0.92940 0.75303 0.15372
 C2572 C 0.90787 0.76456 0.14320
 C2573 C 0.88451 0.76360 0.15587
 C2574 C 0.88228 0.75081 0.17927
 C2575 C 0.90376 0.73906 0.18970
 C2576 C 0.92717 0.74006 0.17702
 C2577 C 0.85788 0.74937 0.19311
 C2578 C 0.83619 0.76091 0.18379
 H2579 H 0.95242 0.75802 0.11926
 H2580 H 0.90918 0.77444 0.12515
 H2581 H 0.86828 0.77281 0.14726
 H2582 H 0.90237 0.72892 0.20761
 H2583 H 0.94320 0.73022 0.18529
 H2584 H 0.85701 0.73934 0.21110
 H2585 H 0.97891 0.74900 0.17043
 H2586 H 0.82263 0.76019 0.19175
 C2587 C 0.47996 0.24299 0.64730
 C2588 C 0.45473 0.24580 0.63961
 C2589 C 0.43209 0.24282 0.65621
 C2590 C 0.40807 0.24225 0.64492
 C2591 C 0.38593 0.24050 0.65959
 C2592 C 0.38735 0.23950 0.68599
 C2593 C 0.41135 0.23944 0.69735
 C2594 C 0.43358 0.24131 0.68264
 C2595 C 0.36412 0.23834 0.70190
 C2596 C 0.34130 0.24942 0.69426
 H2597 H 0.45140 0.25024 0.61992
 H2598 H 0.40638 0.24322 0.62461
 H2599 H 0.36777 0.23970 0.65016
 H2600 H 0.41286 0.23854 0.71767
 H2601 H 0.45165 0.24206 0.69216
 H2602 H 0.36533 0.22959 0.72048
 H2603 H 0.48405 0.23616 0.66612
 H2604 H 0.34059 0.26013 0.67668
 C2605 C 0.47976 0.76174 0.86869
 C2606 C 0.45458 0.75520 0.87478
 C2607 C 0.43326 0.75690 0.85691
 C2608 C 0.40833 0.75479 0.86649
 C2609 C 0.38759 0.75462 0.85031
 C2610 C 0.39143 0.75627 0.82409
 C2611 C 0.41629 0.75906 0.81447
 C2612 C 0.43709 0.75913 0.83068
 C2613 C 0.36985 0.75538 0.80653
 C2614 C 0.34742 0.74217 0.81244
 H2615 H 0.45031 0.74813 0.89365
 H2616 H 0.40487 0.75314 0.88660
 H2617 H 0.36862 0.75337 0.85843
 H2618 H 0.41965 0.76050 0.79434
 H2619 H 0.45602 0.76022 0.82248
 H2620 H 0.37199 0.76467 0.78825
 H2621 H 0.48347 0.77261 0.85157
 H2622 H 0.34591 0.73126 0.82989
 C2623 C 0.97598 0.25883 0.35974
 C2624 C 0.97366 0.24462 0.33790
 C2625 C 0.95248 0.24927 0.32047
 C2626 C 0.93979 0.22847 0.31005
 C2627 C 0.91765 0.23236 0.29617
 C2628 C 0.90827 0.25718 0.29209
 C2629 C 0.92212 0.27811 0.30076
 C2630 C 0.94398 0.27419 0.31509
 C2631 C 0.88301 0.26124 0.28093
 C2632 C 0.86241 0.24676 0.28969
 H2633 H 0.98616 0.22851 0.33482
 H2634 H 0.94626 0.20916 0.31374
 H2635 H 0.90742 0.21596 0.28924
 H2636 H 0.91526 0.29737 0.29762
 H2637 H 0.95391 0.29058 0.32244
 H2638 H 0.87999 0.27741 0.26836
 H2639 H 0.96090 0.27218 0.36422
 H2640 H 0.86548 0.23252 0.30437
 C2641 C 0.02208 0.24958 0.36667
 C2642 C 0.03386 0.26822 0.35142
 C2643 C 0.05999 0.26552 0.34130
 C2644 C 0.07002 0.24166 0.33474
 C2645 C 0.09474 0.23988 0.32489
 C2646 C 0.10983 0.26192 0.32144
 C2647 C 0.09990 0.28566 0.32831
 C2648 C 0.07506 0.28748 0.33783
 C2649 C 0.13585 0.26066 0.31070
 C2650 C 0.14244 0.24312 0.29232
 H2651 H 0.02434 0.28621 0.34815
 H2652 H 0.05870 0.22443 0.33677
 H2653 H 0.10207 0.22123 0.32019
 H2654 H 0.11123 0.30286 0.32586
 H2655 H 0.06767 0.30607 0.34275
 H2656 H 0.14947 0.27525 0.31577
 H2657 H 0.03225 0.23204 0.37062
 H2658 H 0.12811 0.23023 0.28525
 C2659 C 0.52759 0.75740 0.87587
 C2660 C 0.53301 0.75623 0.85016
 C2661 C 0.55928 0.75808 0.84011
 C2662 C 0.56460 0.74817 0.81631
 C2663 C 0.58932 0.74902 0.80646
 C2664 C 0.60929 0.75969 0.82039
 C2665 C 0.60373 0.77075 0.84362
 C2666 C 0.57895 0.77006 0.85341
 C2667 C 0.63589 0.75982 0.81107
 C2668 C 0.64465 0.74216 0.79375
 H2669 H 0.51788 0.75274 0.83697
 H2670 H 0.54962 0.73952 0.80541
 H2671 H 0.59254 0.74148 0.78786
 H2672 H 0.61866 0.77968 0.85437
 H2673 H 0.57534 0.77912 0.87125
 H2674 H 0.64906 0.77370 0.81851
 H2675 H 0.54327 0.75758 0.88896
 H2676 H 0.63204 0.72746 0.78700
 C2677 C 0.52779 0.24589 0.63997
 C2678 C 0.53325 0.25474 0.66390
 C2679 C 0.55921 0.25250 0.67399
 C2680 C 0.56856 0.27131 0.68991
 C2681 C 0.59358 0.27003 0.69857
 C2682 C 0.60947 0.24955 0.69176
 C2683 C 0.59985 0.23052 0.67624
 C2684 C 0.57492 0.23182 0.66760
 C2685 C 0.63620 0.24759 0.69990
 C2686 C 0.64548 0.25986 0.72096
 H2687 H 0.51875 0.26438 0.67485
 H2688 H 0.55672 0.28736 0.69505
 H2689 H 0.60048 0.28542 0.71000
 H2690 H 0.61165 0.21451 0.67086
 H2691 H 0.56797 0.21656 0.65598
 H2692 H 0.64878 0.23506 0.68952
 H2693 H 0.54356 0.23985 0.62812
 H2694 H 0.63291 0.27116 0.73257
 C2695 C 0.02422 0.74985 0.15127
 C2696 C 0.04616 0.76469 0.14795
 C2697 C 0.07026 0.75818 0.16019
 C2698 C 0.08732 0.77784 0.16567
 C2699 C 0.11080 0.77221 0.17634
 C2700 C 0.11769 0.74673 0.18124
 C2701 C 0.10103 0.72698 0.17503
 C2702 C 0.07730 0.73264 0.16479
 C2703 C 0.14226 0.74068 0.19271
 C2704 C 0.15149 0.75549 0.21204
 H2705 H 0.04620 0.78128 0.13557
 H2706 H 0.08242 0.79758 0.16176
 H2707 H 0.12371 0.78773 0.18041
 H2708 H 0.10624 0.70723 0.17842
 H2709 H 0.06483 0.71702 0.15999
 H2710 H 0.15263 0.72397 0.18662
 H2711 H 0.02435 0.73451 0.16522
 H2712 H 0.13967 0.77046 0.21978
   
