data_POSCAR
  _audit_creation_date              2014-09-24
  _audit_creation_method            'ToBaCCo'
  _symmetry_space_group_name_H-M    'P1'
  _symmetry_Int_Tables_number       1
  _symmetry_cell_setting            triclinic
  loop_
  _symmetry_equiv_pos_as_xyz
 x,y,z
_cell_length_a 112.3159
_cell_length_b 112.1970
_cell_length_c 112.3196
_cell_angle_alpha 90.061000
_cell_angle_beta 90.039700
_cell_angle_gamma 90.018000
loop_
  _atom_site_label
  _atom_site_type_symbol
  _atom_site_fract_x
  _atom_site_fract_y
  _atom_site_fract_z
N1 N 0.31509 0.42685 0.90225
 N2 N 0.32365 0.43486 0.90209
 C3 C 0.32200 0.44215 0.89271
 C4 C 0.31185 0.43853 0.88674
 C5 C 0.30770 0.42879 0.89301
 H6 H 0.32763 0.44964 0.89045
 H7 H 0.29977 0.42366 0.89114
 Cu8 Cu 0.33593 0.43492 0.91437
 Cu9 Cu 0.31377 0.41497 0.91485
 Cu10 Cu 0.33561 0.41505 0.93657
 N11 N 0.34824 0.43498 0.92663
 N12 N 0.34813 0.42700 0.93521
 C13 C 0.35736 0.42902 0.94259
 C14 C 0.36358 0.43879 0.93842
 C15 C 0.35759 0.44233 0.92824
 H16 H 0.35926 0.42391 0.95053
 H17 H 0.35981 0.44980 0.92257
 N18 N 0.32346 0.40238 0.93533
 N19 N 0.31511 0.40236 0.92704
 C20 C 0.30804 0.39279 0.92866
 C21 C 0.31213 0.38655 0.93843
 C22 C 0.32193 0.39283 0.94242
 H23 H 0.30036 0.39061 0.92326
 H24 H 0.32739 0.39069 0.95006
 H25 H 0.32258 0.42438 0.92781
 H26 H 0.33182 0.41414 0.91853
 N27 N 0.42671 0.84859 0.43493
 N28 N 0.43507 0.84844 0.42673
 C29 C 0.44279 0.85740 0.42886
 C30 C 0.43905 0.86344 0.43895
 C31 C 0.42882 0.85761 0.44256
 H32 H 0.45060 0.85932 0.42357
 H33 H 0.42342 0.85967 0.45027
 Cu34 Cu 0.43509 0.83636 0.41424
 Cu35 Cu 0.41402 0.83674 0.43551
 Cu36 Cu 0.41579 0.81348 0.41529
 N37 N 0.43481 0.82412 0.40191
 N38 N 0.42718 0.81524 0.40238
 C39 C 0.42915 0.80780 0.39319
 C40 C 0.43854 0.81223 0.38661
 C41 C 0.44193 0.82260 0.39236
 H42 H 0.42432 0.79961 0.39157
 H43 H 0.44919 0.82843 0.38991
 N44 N 0.40294 0.81487 0.42711
 N45 N 0.40217 0.82381 0.43473
 C46 C 0.39269 0.82202 0.44185
 C47 C 0.38726 0.81148 0.43852
 C48 C 0.39392 0.80722 0.42911
 H49 H 0.39008 0.82777 0.44912
 H50 H 0.39244 0.79902 0.42426
 H51 H 0.42437 0.82367 0.42818
 H52 H 0.41428 0.83158 0.41758
 N53 N 0.92663 0.90223 0.81515
 N54 N 0.93465 0.90207 0.82370
 C55 C 0.94193 0.89267 0.82204
 C56 C 0.93829 0.88670 0.81190
 C57 C 0.92856 0.89299 0.80776
 H58 H 0.94942 0.89040 0.82766
 H59 H 0.92342 0.89111 0.79983
 Cu60 Cu 0.93472 0.91435 0.83600
 Cu61 Cu 0.91477 0.91486 0.81384
 Cu62 Cu 0.91485 0.93657 0.83571
 N63 N 0.93478 0.92661 0.84832
 N64 N 0.92679 0.93519 0.84824
 C65 C 0.92879 0.94255 0.85750
 C66 C 0.93856 0.93836 0.86371
 C67 C 0.94211 0.92820 0.85769
 H68 H 0.92365 0.95048 0.85944
 H69 H 0.94956 0.92250 0.85991
 N70 N 0.90221 0.93536 0.82356
 N71 N 0.90218 0.92707 0.81519
 C72 C 0.89262 0.92870 0.80813
 C73 C 0.88640 0.93849 0.81223
 C74 C 0.89267 0.94247 0.82203
 H75 H 0.89044 0.92331 0.80044
 H76 H 0.89053 0.95011 0.82750
 H77 H 0.92416 0.92780 0.82265
 H78 H 0.91395 0.91849 0.83188
 N79 N 0.42660 -0.09791 0.31502
 N80 N 0.43454 -0.09816 0.32361
 C81 C 0.44151 -0.10782 0.32219
 C82 C 0.43774 -0.11387 0.31215
 C83 C 0.42824 -0.10736 0.30783
 H84 H 0.44899 -0.11012 0.32781
 H85 H 0.42317 -0.10916 0.29984
 Cu86 Cu 0.43563 -0.08544 0.33536
 Cu87 Cu 0.41544 -0.08485 0.31315
 Cu88 Cu 0.41370 -0.06494 0.33667
 N89 N 0.43505 -0.07344 0.34787
 N90 N 0.42639 -0.06558 0.34843
 C91 C 0.42829 -0.05828 0.35777
 C92 C 0.43867 -0.06178 0.36336
 C93 C 0.44272 -0.07144 0.35688
 H94 H 0.42266 -0.05085 0.36019
 H95 H 0.45073 -0.07652 0.35855
 N96 N 0.40181 -0.06559 0.32381
 N97 N 0.40258 -0.07308 0.31477
 C98 C 0.39346 -0.07107 0.30725
 C99 C 0.38671 -0.06182 0.31174
 C100 C 0.39222 -0.05856 0.32224
 H101 H 0.39192 -0.07585 0.29903
 H102 H 0.38956 -0.05142 0.32814
 H103 H 0.42387 -0.07168 0.32313
 H104 H 0.41453 -0.08280 0.33125
 N105 N 0.81522 0.32352 0.34798
 N106 N 0.82332 0.31506 0.34768
 C107 C 0.82119 0.30727 0.35655
 C108 C 0.81120 0.31105 0.36265
 C109 C 0.80764 0.32138 0.35700
 H110 H 0.82640 0.29938 0.35837
 H111 H 0.79998 0.32680 0.35916
 Cu112 Cu 0.83568 0.31514 0.33558
 Cu113 Cu 0.81466 0.33633 0.33627
 Cu114 Cu 0.83487 0.33448 0.31295
 N115 N 0.84805 0.31522 0.32348
 N116 N 0.84771 0.32294 0.31468
 C117 C 0.85696 0.32095 0.30735
 C118 C 0.86344 0.31149 0.31180
 C119 C 0.85758 0.30807 0.32205
 H120 H 0.85870 0.32585 0.29924
 H121 H 0.85997 0.30078 0.32787
 N122 N 0.82313 0.34746 0.31444
 N123 N 0.81552 0.34824 0.32338
 C124 C 0.80857 0.35788 0.32173
 C125 C 0.81199 0.36342 0.31131
 C126 C 0.82126 0.35663 0.30694
 H127 H 0.80137 0.36056 0.32754
 H128 H 0.82616 0.35818 0.29880
 H129 H 0.82179 0.32621 0.32307
 H130 H 0.83252 0.33608 0.33105
 N131 N -0.17655 0.84855 0.81503
 N132 N -0.18493 0.84836 0.82320
 C133 C -0.19250 0.85746 0.82124
 C134 C -0.18867 0.86361 0.81128
 C135 C -0.17851 0.85774 0.80759
 H136 H -0.20031 0.85940 0.82654
 H137 H -0.17305 0.85989 0.79995
 Cu138 Cu -0.18542 0.83596 0.83532
 Cu139 Cu -0.16398 0.83663 0.81437
 Cu140 Cu -0.16405 0.81488 0.83619
 N141 N -0.18503 0.82389 0.84776
 N142 N -0.17668 0.81569 0.84803
 C143 C -0.17877 0.80823 0.85717
 C144 C -0.18898 0.81194 0.86292
 C145 C -0.19271 0.82193 0.85677
 H146 H -0.17342 0.80051 0.85933
 H147 H -0.20056 0.82720 0.85860
 N148 N -0.15201 0.81555 0.82344
 N149 N -0.15198 0.82386 0.81513
 C150 C -0.14285 0.82180 0.80762
 C151 C -0.13690 0.81172 0.81138
 C152 C -0.14291 0.80798 0.82143
 H153 H -0.14074 0.82714 0.79990
 H154 H -0.14086 0.80024 0.82678
 H155 H -0.17327 0.82313 0.82272
 H156 H -0.16408 0.83297 0.83253
 N157 N 0.93569 0.34801 0.42724
 N158 N 0.92712 0.34811 0.43522
 C159 C 0.92870 0.35748 0.44256
 C160 C 0.93885 0.36349 0.43900
 C161 C 0.94304 0.35727 0.42923
 H162 H 0.92302 0.35970 0.45001
 H163 H 0.95096 0.35919 0.42411
 Cu164 Cu 0.91488 0.33580 0.43516
 Cu165 Cu 0.93705 0.33549 0.41529
 Cu166 Cu 0.91535 0.31361 0.41523
 N167 N 0.90262 0.32353 0.43510
 N168 N 0.90276 0.31497 0.42707
 C169 C 0.89359 0.30753 0.42905
 C170 C 0.88739 0.31162 0.43885
 C171 C 0.89331 0.32181 0.44245
 H172 H 0.89175 0.29955 0.42395
 H173 H 0.89110 0.32738 0.45000
 N174 N 0.92749 0.31497 0.40263
 N175 N 0.93579 0.32333 0.40264
 C176 C 0.94283 0.32180 0.39306
 C177 C 0.93879 0.31201 0.38679
 C178 C 0.92905 0.30792 0.39305
 H179 H 0.95046 0.32727 0.39088
 H180 H 0.92363 0.30025 0.39087
 H181 H 0.91898 0.33169 0.41439
 H182 H 0.92830 0.32244 0.42458
 N183 N 0.43483 0.42644 0.84798
 N184 N 0.42638 0.43454 0.84805
 C185 C 0.42831 0.44214 0.85715
 C186 C 0.43851 0.43858 0.86304
 C187 C 0.44242 0.42860 0.85700
 H188 H 0.42281 0.44976 0.85927
 H189 H 0.45028 0.42339 0.85896
 Cu190 Cu 0.41389 0.43455 0.83602
 Cu191 Cu 0.43556 0.41386 0.83607
 Cu192 Cu 0.41370 0.41390 0.81429
 N193 N 0.40187 0.43462 0.82354
 N194 N 0.40187 0.42652 0.81507
 C195 C 0.39283 0.42872 0.80752
 C196 C 0.38686 0.43872 0.81147
 C197 C 0.39281 0.44226 0.82165
 H198 H 0.39081 0.42351 0.79967
 H199 H 0.39073 0.44988 0.82717
 N200 N 0.42643 0.40188 0.81500
 N201 N 0.43478 0.40188 0.82328
 C202 C 0.44236 0.39284 0.82116
 C203 C 0.43860 0.38690 0.81107
 C204 C 0.42848 0.39282 0.80740
 H205 H 0.45016 0.39080 0.82643
 H206 H 0.42316 0.39078 0.79964
 H207 H 0.42696 0.42330 0.82287
 H208 H 0.41751 0.41341 0.83233
 N209 N 0.81518 0.90190 0.92657
 N210 N 0.82339 0.90219 0.93492
 C211 C 0.82150 0.89314 0.94257
 C212 C 0.81155 0.88694 0.93883
 C213 C 0.80778 0.89270 0.92864
 H214 H 0.82681 0.89130 0.95039
 H215 H 0.80008 0.89049 0.92327
 Cu216 Cu 0.83550 0.91459 0.93527
 Cu217 Cu 0.81438 0.91373 0.91395
 Cu218 Cu 0.83624 0.93552 0.91384
 N219 N 0.84795 0.92665 0.93476
 N220 N 0.84820 0.93479 0.92636
 C221 C 0.85749 0.94213 0.92825
 C222 C 0.86337 0.93839 0.93838
 C223 C 0.85712 0.92852 0.94228
 H224 H 0.85971 0.94974 0.92279
 H225 H 0.85905 0.92323 0.95010
 N226 N 0.82341 0.93480 0.90191
 N227 N 0.81509 0.92648 0.90195
 C228 C 0.80751 0.92852 0.89288
 C229 C 0.81126 0.93856 0.88688
 C230 C 0.82135 0.94233 0.89281
 H231 H 0.79974 0.92319 0.89084
 H232 H 0.82668 0.95007 0.89071
 H233 H 0.83242 0.91740 0.91396
 H234 H 0.82266 0.92726 0.92316
 N235 N 0.31565 0.84820 0.32329
 N236 N 0.32384 0.84793 0.31494
 C237 C 0.32199 0.85705 0.30736
 C238 C 0.31210 0.86330 0.31117
 C239 C 0.30830 0.85746 0.32130
 H240 H 0.32732 0.85894 0.29957
 H241 H 0.30065 0.85969 0.32670
 Cu242 Cu 0.33591 0.83547 0.31458
 Cu243 Cu 0.31484 0.83634 0.33588
 Cu244 Cu 0.33657 0.81446 0.33598
 N245 N 0.34826 0.82332 0.31505
 N246 N 0.34846 0.81516 0.32344
 C247 C 0.35771 0.80777 0.32155
 C248 C 0.36361 0.81151 0.31145
 C249 C 0.35742 0.82141 0.30754
 H250 H 0.35989 0.80014 0.32701
 H251 H 0.35938 0.82669 0.29975
 N252 N 0.32379 0.81523 0.34791
 N253 N 0.31550 0.82358 0.34788
 C254 C 0.30788 0.82150 0.35690
 C255 C 0.31154 0.81138 0.36283
 C256 C 0.32165 0.80763 0.35694
 H257 H 0.30011 0.82683 0.35890
 H258 H 0.32692 0.79984 0.35898
 H259 H 0.33289 0.83254 0.33586
 H260 H 0.32309 0.82274 0.32662
 N261 N 0.81510 0.40204 0.42671
 N262 N 0.82341 0.40219 0.43496
 C263 C 0.82185 0.39279 0.44223
 C264 C 0.81201 0.38649 0.43835
 C265 C 0.80796 0.39257 0.42846
 H266 H 0.82722 0.39086 0.44999
 H267 H 0.80014 0.39051 0.42322
 Cu268 Cu 0.83498 0.41508 0.43608
 Cu269 Cu 0.81344 0.41473 0.41512
 Cu270 Cu 0.83517 0.43649 0.41504
 N271 N 0.84785 0.42666 0.43487
 N272 N 0.84794 0.43493 0.42659
 C273 C 0.85746 0.44203 0.42820
 C274 C 0.86366 0.43799 0.43803
 C275 C 0.85735 0.42820 0.44203
 H276 H 0.85953 0.44978 0.42287
 H277 H 0.85938 0.42283 0.44976
 N278 N 0.82289 0.43527 0.40260
 N279 N 0.81458 0.42695 0.40262
 C280 C 0.80743 0.42853 0.39313
 C281 C 0.81144 0.43833 0.38687
 C282 C 0.82125 0.44238 0.39308
 H283 H 0.79979 0.42308 0.39098
 H284 H 0.82669 0.45002 0.39089
 H285 H 0.83151 0.41834 0.41497
 H286 H 0.82185 0.42806 0.42440
 N287 N 0.92648 0.84785 -0.06525
 N288 N 0.93479 0.84767 -0.07349
 C289 C 0.94251 0.85664 -0.07143
 C290 C 0.93881 0.86270 -0.06138
 C291 C 0.92862 0.85690 -0.05768
 H292 H 0.95028 0.85858 -0.07677
 H293 H 0.92326 0.85902 -0.04997
 Cu294 Cu 0.93459 0.83573 -0.08605
 Cu295 Cu 0.91377 0.83605 -0.06462
 Cu296 Cu 0.91553 0.81275 -0.08486
 N297 N 0.93443 0.82348 -0.09832
 N298 N 0.92684 0.81457 -0.09785
 C299 C 0.92881 0.80718 -0.10707
 C300 C 0.93816 0.81169 -0.11366
 C301 C 0.94152 0.82205 -0.10789
 H302 H 0.92400 0.79898 -0.10870
 H303 H 0.94874 0.82792 -0.11036
 N304 N 0.90269 0.81418 -0.07301
 N305 N 0.90194 0.82313 -0.06541
 C306 C 0.89243 0.82141 -0.05831
 C307 C 0.88696 0.81091 -0.06165
 C308 C 0.89363 0.80657 -0.07102
 H309 H 0.88983 0.82719 -0.05106
 H310 H 0.89212 0.79837 -0.07585
 H311 H 0.92403 0.82303 -0.07201
 H312 H 0.91380 0.83086 -0.08254
 N313 N 0.31547 0.34821 0.82332
 N314 N 0.32363 0.34784 0.81493
 C315 C 0.32167 0.35679 0.80717
 C316 C 0.31174 0.36302 0.81090
 C317 C 0.30803 0.35736 0.82117
 H318 H 0.32699 0.35860 0.79936
 H319 H 0.30040 0.35964 0.82657
 Cu320 Cu 0.33590 0.33561 0.81515
 Cu321 Cu 0.31478 0.33656 0.83619
 Cu322 Cu 0.33488 0.31309 0.83457
 N323 N 0.34823 0.32343 0.81537
 N324 N 0.34780 0.31470 0.82315
 C325 C 0.35694 0.30720 0.82121
 C326 C 0.36342 0.31146 0.81168
 C327 C 0.35771 0.32179 0.80819
 H328 H 0.35853 0.29907 0.82612
 H329 H 0.36011 0.32747 0.80081
 N330 N 0.32309 0.31472 0.84746
 N331 N 0.31553 0.32371 0.84816
 C332 C 0.30855 0.32215 0.85779
 C333 C 0.31192 0.31173 0.86339
 C334 C 0.32118 0.30727 0.85665
 H335 H 0.30138 0.32801 0.86043
 H336 H 0.32604 0.29911 0.85826
 H337 H 0.33261 0.33124 0.83608
 H338 H 0.32189 0.32327 0.82620
 N339 N 0.15246 0.57344 0.56485
 N340 N 0.15261 0.56516 0.57312
 C341 C 0.14359 0.55748 0.57113
 C342 C 0.13755 0.56115 0.56106
 C343 C 0.14338 0.57132 0.55731
 H344 H 0.14165 0.54970 0.57646
 H345 H 0.14129 0.57665 0.54958
 Cu346 Cu 0.16485 0.56514 0.58538
 Cu347 Cu 0.16431 0.58612 0.56415
 Cu348 Cu 0.18616 0.58609 0.58604
 N349 N 0.17710 0.56511 0.59764
 N350 N 0.18541 0.57337 0.59783
 C351 C 0.19294 0.57119 0.60690
 C352 C 0.18913 0.56101 0.61268
 C353 C 0.17905 0.55739 0.60662
 H354 H 0.20070 0.57648 0.60902
 H355 H 0.17368 0.54962 0.60853
 N356 N 0.18538 0.59818 0.57331
 N357 N 0.17706 0.59818 0.56498
 C358 C 0.17908 0.60734 0.55749
 C359 C 0.18912 0.61335 0.56129
 C360 C 0.19289 0.60733 0.57132
 H361 H 0.17374 0.60943 0.54976
 H362 H 0.20062 0.60941 0.57667
 H363 H 0.17778 0.57693 0.57255
 H364 H 0.16813 0.58640 0.58220
 N365 N 0.59807 0.67693 0.06483
 N366 N 0.59792 0.68523 0.07311
 C367 C 0.60710 0.69276 0.07130
 C368 C 0.61324 0.68896 0.06133
 C369 C 0.60729 0.67890 0.05746
 H370 H 0.60912 0.70048 0.07670
 H371 H 0.60943 0.67351 0.04976
 Cu372 Cu 0.58552 0.68533 0.08518
 Cu373 Cu 0.58612 0.66433 0.06400
 Cu374 Cu 0.56426 0.66446 0.08591
 N375 N 0.57345 0.68539 0.09759
 N376 N 0.56514 0.67713 0.09778
 C377 C 0.55770 0.67927 0.10691
 C378 C 0.56154 0.68942 0.11274
 C379 C 0.57160 0.69306 0.10664
 H380 H 0.54992 0.67399 0.10902
 H381 H 0.57699 0.70082 0.10857
 N382 N 0.56493 0.65245 0.07309
 N383 N 0.57323 0.65240 0.06476
 C384 C 0.57102 0.64339 0.05713
 C385 C 0.56088 0.63754 0.06084
 C386 C 0.55724 0.64348 0.07097
 H387 H 0.57627 0.64132 0.04933
 H388 H 0.54944 0.64151 0.07625
 H389 H 0.57268 0.67343 0.07238
 H390 H 0.58234 0.66404 0.08207
 N391 N 0.67677 0.18513 0.65188
 N392 N 0.68504 0.17683 0.65201
 C393 C 0.69264 0.17874 0.64292
 C394 C 0.68893 0.18878 0.63684
 C395 C 0.67884 0.19260 0.64275
 H396 H 0.70035 0.17333 0.64091
 H397 H 0.67349 0.20032 0.64062
 Cu398 Cu 0.68508 0.16454 0.66421
 Cu399 Cu 0.66410 0.18582 0.66372
 Cu400 Cu 0.66415 0.16390 0.68552
 N401 N 0.68512 0.15229 0.67646
 N402 N 0.67687 0.15210 0.68476
 C403 C 0.67907 0.14304 0.69228
 C404 C 0.68923 0.13724 0.68849
 C405 C 0.69283 0.14330 0.67841
 H406 H 0.67379 0.14094 0.70005
 H407 H 0.70060 0.14138 0.67305
 N408 N 0.65207 0.17662 0.68475
 N409 N 0.65204 0.18498 0.67647
 C410 C 0.64288 0.19246 0.67852
 C411 C 0.63689 0.18862 0.68854
 C412 C 0.64293 0.17858 0.69227
 H413 H 0.64076 0.20021 0.67321
 H414 H 0.64087 0.17321 0.69999
 H415 H 0.67330 0.17740 0.67718
 H416 H 0.66383 0.16775 0.66751
 N417 N 1.09800 0.07325 0.18502
 N418 N 1.09736 0.06442 0.17734
 C419 C 1.10601 0.05648 0.17977
 C420 C 1.11234 0.06054 0.18952
 C421 C 1.10705 0.07122 0.19261
 H422 H 1.10755 0.04829 0.17492
 H423 H 1.10954 0.07701 0.19991
 Cu424 Cu 1.08508 0.06401 0.16512
 Cu425 Cu 1.08696 0.08662 0.18469
 Cu426 Cu 1.06374 0.08511 0.16445
 N427 N 1.07311 0.06439 0.15262
 N428 N 1.06469 0.07253 0.15253
 C429 C 1.05727 0.07041 0.14336
 C430 C 1.06124 0.06040 0.13740
 C431 C 1.07134 0.05682 0.14346
 H432 H 1.04944 0.07562 0.14129
 H433 H 1.07681 0.04915 0.14146
 N434 N 1.06457 0.09717 0.17717
 N435 N 1.07348 0.09784 0.18481
 C436 C 1.07144 0.10692 0.19240
 C437 C 1.06075 0.11218 0.18936
 C438 C 1.05664 0.10580 0.17968
 H439 H 1.07722 0.10946 0.19968
 H440 H 1.04842 0.10732 0.17489
 H441 H 1.07309 0.07671 0.17779
 H442 H 1.08183 0.08548 0.16664
 N443 N 0.07309 0.15223 1.06490
 N444 N 0.06485 0.15241 1.07322
 C445 C 0.05715 0.14341 1.07128
 C446 C 0.06074 0.13734 1.06120
 C447 C 0.07089 0.14314 1.05739
 H448 H 0.04938 0.14148 1.07665
 H449 H 0.07615 0.14102 1.04961
 Cu450 Cu 0.06481 0.16470 1.08544
 Cu451 Cu 0.08576 0.16404 1.06411
 Cu452 Cu 0.08579 0.18602 1.08588
 N453 N 0.06489 0.17706 1.09760
 N454 N 0.07315 0.18537 1.09771
 C455 C 0.07099 0.19297 1.10674
 C456 C 0.06083 0.18923 1.11256
 C457 C 0.05720 0.17909 1.10658
 H458 H 0.07629 0.20075 1.10880
 H459 H 0.04943 0.17374 1.10855
 N460 N 0.09783 0.18516 1.07313
 N461 N 0.09781 0.17680 1.06485
 C462 C 0.10686 0.17885 1.05725
 C463 C 0.11280 0.18898 1.06092
 C464 C 0.10688 0.19275 1.07101
 H465 H 0.10887 0.17351 1.04949
 H466 H 0.10893 0.20057 1.07627
 H467 H 0.08605 0.16793 1.08211
 H468 H 0.07657 0.17751 1.07247
 N469 N 0.15252 0.68550 0.67671
 N470 N 0.15271 0.67718 0.68495
 C471 C 0.14374 0.67911 0.69267
 C472 C 0.13767 0.68920 0.68908
 C473 C 0.14345 0.69302 0.67892
 H474 H 0.14184 0.67373 0.70042
 H475 H 0.14131 0.70079 0.67365
 Cu476 Cu 0.16498 0.66496 0.68489
 Cu477 Cu 0.16429 0.68627 0.66400
 Cu478 Cu 0.18618 0.66442 0.66388
 N479 N 0.17723 0.65274 0.68483
 N480 N 0.18550 0.65258 0.67655
 C481 C 0.19303 0.64350 0.67868
 C482 C 0.18928 0.63769 0.68884
 C483 C 0.17922 0.64373 0.69251
 H484 H 0.20077 0.64140 0.67335
 H485 H 0.17388 0.64180 0.70028
 N486 N 0.18531 0.67718 0.65186
 N487 N 0.17698 0.68549 0.65191
 C488 C 0.17892 0.69301 0.64276
 C489 C 0.18893 0.68924 0.63671
 C490 C 0.19276 0.67920 0.64269
 H491 H 0.17356 0.70074 0.64071
 H492 H 0.20049 0.67387 0.64056
 H493 H 0.16815 0.66821 0.66365
 H494 H 0.17781 0.67786 0.67312
 N495 N 1.17715 0.15248 0.18508
 N496 N 1.18538 0.15264 0.17676
 C497 C 1.19308 0.14363 0.17870
 C498 C 1.18946 0.13758 0.18879
 C499 C 1.17933 0.14341 0.19258
 H500 H 1.20084 0.14167 0.17332
 H501 H 1.17405 0.14132 0.20035
 Cu502 Cu 1.18545 0.16490 0.16452
 Cu503 Cu 1.16449 0.16429 0.18584
 Cu504 Cu 1.16443 0.18622 0.16406
 N505 N 1.18535 0.17724 0.15237
 N506 N 1.17708 0.18554 0.15225
 C507 C 1.17924 0.19310 0.14322
 C508 C 1.18939 0.18936 0.13739
 C509 C 1.19304 0.17925 0.14339
 H510 H 1.17393 0.20087 0.14115
 H511 H 1.20082 0.17390 0.14141
 N512 N 1.15240 0.18536 0.17680
 N513 N 1.15242 0.17702 0.18509
 C514 C 1.14336 0.17906 0.19268
 C515 C 1.13740 0.18916 0.18900
 C516 C 1.14333 0.19293 0.17892
 H517 H 1.14134 0.17373 0.20044
 H518 H 1.14127 0.20072 0.17365
 H519 H 1.16416 0.16816 0.16781
 H520 H 1.17365 0.17780 0.17746
 N521 N 0.65286 1.06459 0.57306
 N522 N 0.65249 1.07338 0.56532
 C523 C 0.64297 1.07188 0.55817
 C524 C 0.63717 1.06157 0.56160
 C525 C 0.64365 1.05720 0.57109
 H526 H 0.64060 1.07763 0.55082
 H527 H 0.64199 1.04906 0.57596
 Cu528 Cu 0.66494 1.08543 0.56516
 Cu529 Cu 0.66578 1.06279 0.58444
 Cu530 Cu 0.68597 1.08620 0.58630
 N531 N 0.67727 1.09758 0.56502
 N532 N 0.68538 1.09791 0.57347
 C533 C 0.69284 1.10707 0.57141
 C534 C 0.68919 1.11278 0.56115
 C535 C 0.67928 1.10655 0.55732
 H536 H 0.70043 1.10934 0.57690
 H537 H 0.67399 1.10842 0.54948
 N538 N 0.68511 1.07329 0.59818
 N539 N 0.67752 1.06432 0.59737
 C540 C 0.67943 1.05675 0.60646
 C541 C 0.68873 1.06110 0.61322
 C542 C 0.69212 1.07159 0.60776
 H543 H 0.67459 1.04856 0.60794
 H544 H 0.69934 1.07737 0.61044
 H545 H 0.66811 1.08091 0.58606
 H546 H 0.67887 1.07295 0.57623
 N547 N 0.57322 0.56474 0.15236
 N548 N 0.56508 0.57315 0.15233
 C549 C 0.55739 0.57108 0.14333
 C550 C 0.56096 0.56084 0.13749
 C551 C 0.57104 0.55706 0.14342
 H552 H 0.54971 0.57649 0.14127
 H553 H 0.57626 0.54920 0.14147
 Cu554 Cu 0.56508 0.58576 0.16424
 Cu555 Cu 0.58579 0.56406 0.16426
 Cu556 Cu 0.58574 0.58597 0.18598
 N557 N 0.56502 0.59778 0.17675
 N558 N 0.57313 0.59783 0.18518
 C559 C 0.57087 0.60681 0.19280
 C560 C 0.56078 0.61268 0.18895
 C561 C 0.55727 0.60675 0.17874
 H562 H 0.57605 0.60882 0.20067
 H563 H 0.54959 0.60874 0.17330
 N564 N 0.59777 0.57322 0.18530
 N565 N 0.59777 0.56486 0.17702
 C566 C 0.60680 0.55725 0.17917
 C567 C 0.61271 0.56100 0.18927
 C568 C 0.60679 0.57115 0.19293
 H569 H 0.60883 0.54944 0.17390
 H570 H 0.60881 0.57647 0.20070
 H571 H 0.57633 0.57274 0.17737
 H572 H 0.58623 0.58218 0.16789
 N573 N 0.65252 0.67709 0.18518
 N574 N 0.65266 0.68538 0.17691
 C575 C 0.64365 0.69306 0.17891
 C576 C 0.63765 0.68938 0.18900
 C577 C 0.64348 0.67922 0.19273
 H578 H 0.64170 0.70083 0.17358
 H579 H 0.64141 0.67391 0.20049
 Cu580 Cu 0.66491 0.68541 0.16468
 Cu581 Cu 0.66436 0.66440 0.18587
 Cu582 Cu 0.68616 0.66448 0.16396
 N583 N 0.67707 0.68544 0.15236
 N584 N 0.68538 0.67719 0.15217
 C585 C 0.69280 0.67931 0.14301
 C586 C 0.68892 0.68941 0.13716
 C587 C 0.67890 0.69308 0.14329
 H588 H 0.70053 0.67399 0.14085
 H589 H 0.67347 0.70078 0.14133
 N590 N 0.68542 0.65239 0.17668
 N591 N 0.67713 0.65236 0.18501
 C592 C 0.67926 0.64331 0.19258
 C593 C 0.68935 0.63739 0.18883
 C594 C 0.69303 0.64334 0.17873
 H595 H 0.67400 0.64127 0.20038
 H596 H 0.70080 0.64133 0.17343
 H597 H 0.67779 0.67360 0.17752
 H598 H 0.66813 0.66415 0.16786
 N599 N 0.15248 0.07312 1.06493
 N600 N 0.15299 0.06442 1.07275
 C601 C 0.14405 0.05670 1.07061
 C602 C 0.13768 0.06075 1.06090
 C603 C 0.14325 0.07119 1.05752
 H604 H 0.14239 0.04863 1.07560
 H605 H 0.14093 0.07681 1.05005
 Cu606 Cu 0.16542 0.06375 1.08480
 Cu607 Cu 0.16428 0.08579 1.06437
 Cu608 Cu 0.18767 0.08386 1.08439
 N609 N 0.17706 0.06476 1.09759
 N610 N 0.18569 0.07267 1.09741
 C611 C 0.19292 0.07085 1.10679
 C612 C 0.18859 0.06126 1.11316
 C613 C 0.17849 0.05764 1.10714
 H614 H 0.20099 0.07581 1.10858
 H615 H 0.17288 0.05012 1.10931
 N616 N 0.18623 0.09675 1.07263
 N617 N 0.17723 0.09760 1.06511
 C618 C 0.17900 0.10710 1.05800
 C619 C 0.18958 0.11247 1.06124
 C620 C 0.19391 0.10574 1.07057
 H621 H 0.17320 0.10975 1.05078
 H622 H 0.20216 0.10716 1.07533
 H623 H 0.17766 0.07558 1.07113
 H624 H 0.16952 0.08492 1.08224
 N625 N 0.59849 0.18494 0.57324
 N626 N 0.59810 0.17678 0.56483
 C627 C 0.60703 0.17873 0.55706
 C628 C 0.61329 0.18866 0.56081
 C629 C 0.60765 0.19238 0.57109
 H630 H 0.60883 0.17341 0.54924
 H631 H 0.60994 0.20001 0.57651
 Cu632 Cu 0.58591 0.16447 0.56506
 Cu633 Cu 0.58686 0.18564 0.58613
 Cu634 Cu 0.56338 0.16555 0.58450
 N635 N 0.57371 0.15217 0.56529
 N636 N 0.56499 0.15261 0.57309
 C637 C 0.55750 0.14345 0.57115
 C638 C 0.56175 0.13695 0.56163
 C639 C 0.57207 0.14267 0.55812
 H640 H 0.54938 0.14187 0.57607
 H641 H 0.57774 0.14025 0.55073
 N642 N 0.56504 0.17735 0.59739
 N643 N 0.57403 0.18491 0.59811
 C644 C 0.57247 0.19191 0.60775
 C645 C 0.56204 0.18854 0.61333
 C646 C 0.55758 0.17928 0.60658
 H647 H 0.57833 0.19908 0.61040
 H648 H 0.54942 0.17442 0.60817
 H649 H 0.58150 0.16778 0.58599
 H650 H 0.57355 0.17853 0.57614
 N651 N 0.09724 0.57256 0.68590
 N652 N 0.09742 0.56454 0.67734
 C653 C 0.10675 0.55721 0.67905
 C654 C 0.11265 0.56081 0.68924
 C655 C 0.10641 0.57058 0.69335
 H656 H 0.10900 0.54969 0.67345
 H657 H 0.10823 0.57567 0.70133
 Cu658 Cu 0.08516 0.56449 0.66508
 Cu659 Cu 0.08464 0.58439 0.68725
 Cu660 Cu 0.06292 0.58431 0.66541
 N661 N 0.07297 0.56443 0.65276
 N662 N 0.06437 0.57240 0.65285
 C663 C 0.05697 0.57031 0.64366
 C664 C 0.06117 0.56053 0.63749
 C665 C 0.07135 0.55703 0.64345
 H666 H 0.04897 0.57533 0.64179
 H667 H 0.07698 0.54953 0.64127
 N668 N 0.06414 0.59693 0.67759
 N669 N 0.07243 0.59695 0.68594
 C670 C 0.07075 0.60644 0.69309
 C671 C 0.06093 0.61263 0.68907
 C672 C 0.05697 0.60641 0.67922
 H673 H 0.07612 0.60859 0.70080
 H674 H 0.04930 0.60853 0.67380
 H675 H 0.07171 0.57506 0.67838
 H676 H 0.08098 0.58529 0.66913
 N677 N 0.65222 0.56489 0.07322
 N678 N 0.65256 0.57305 0.06483
 C679 C 0.64371 0.57095 0.05699
 C680 C 0.63760 0.56091 0.06066
 C681 C 0.64321 0.55731 0.07099
 H682 H 0.64192 0.57620 0.04912
 H683 H 0.64103 0.54961 0.07636
 Cu684 Cu 0.66469 0.58541 0.06505
 Cu685 Cu 0.66388 0.56423 0.08608
 Cu686 Cu 0.68727 0.58444 0.08446
 N687 N 0.67684 0.59778 0.06527
 N688 N 0.68562 0.59738 0.07301
 C689 C 0.69300 0.60663 0.07110
 C690 C 0.68860 0.61317 0.06166
 C691 C 0.67832 0.60735 0.05818
 H692 H 0.70110 0.60832 0.07604
 H693 H 0.67252 0.60980 0.05089
 N694 N 0.68572 0.57258 0.09730
 N695 N 0.67675 0.56500 0.09800
 C696 C 0.67842 0.55787 0.10750
 C697 C 0.68891 0.56115 0.11302
 C698 C 0.69328 0.57053 0.10638
 H699 H 0.67263 0.55062 0.11006
 H700 H 0.70149 0.57533 0.10794
 H701 H 0.66914 0.58210 0.08596
 H702 H 0.67712 0.57139 0.07607
 N703 N 0.07346 0.68543 0.59771
 N704 N 0.06515 0.67718 0.59761
 C705 C 0.05791 0.67884 0.60703
 C706 C 0.06188 0.68870 0.61327
 C707 C 0.07178 0.69264 0.60715
 H708 H 0.05013 0.67352 0.60901
 H709 H 0.07710 0.70042 0.60918
 Cu710 Cu 0.06400 0.66547 0.58482
 Cu711 Cu 0.08504 0.68692 0.58497
 Cu712 Cu 0.08490 0.66517 0.56325
 N713 N 0.06497 0.65267 0.57310
 N714 N 0.07323 0.65251 0.56481
 C715 C 0.07145 0.64308 0.55762
 C716 C 0.06152 0.63701 0.56161
 C717 C 0.05766 0.64328 0.57148
 H718 H 0.07671 0.64100 0.54984
 H719 H 0.04991 0.64133 0.57684
 N720 N 0.09741 0.67740 0.56437
 N721 N 0.09745 0.68573 0.57268
 C722 C 0.10694 0.69288 0.57101
 C723 C 0.11310 0.68887 0.56116
 C724 C 0.10686 0.67904 0.55718
 H725 H 0.10913 0.70054 0.57644
 H726 H 0.10898 0.67360 0.54951
 H727 H 0.07564 0.67846 0.57170
 H728 H 0.08512 0.66877 0.58134
 N729 N 0.57308 1.06513 0.65222
 N730 N 0.56461 1.07321 0.65252
 C731 C 0.55680 1.07104 0.64365
 C732 C 0.56059 1.06101 0.63756
 C733 C 0.57096 1.05751 0.64320
 H734 H 0.54892 1.07624 0.64185
 H735 H 0.57641 1.04986 0.64104
 Cu736 Cu 0.56466 1.08560 0.66466
 Cu737 Cu 0.58587 1.06457 0.66396
 Cu738 Cu 0.58408 1.08488 0.68722
 N739 N 0.56474 1.09799 0.67681
 N740 N 0.57247 1.09768 0.68559
 C741 C 0.57047 1.10690 0.69298
 C742 C 0.56094 1.11335 0.68858
 C743 C 0.55754 1.10750 0.67828
 H744 H 0.57540 1.10867 0.70106
 H745 H 0.55026 1.10985 0.67245
 N746 N 0.59699 1.07306 0.68581
 N747 N 0.59774 1.06542 0.67688
 C748 C 0.60723 1.05830 0.67865
 C749 C 0.61270 1.06164 0.68915
 C750 C 0.60604 1.07105 0.69343
 H751 H 0.60982 1.05101 0.67290
 H752 H 0.60755 1.07590 0.70162
 H753 H 0.57577 1.07175 0.67713
 H754 H 0.58558 1.08243 0.66911
 N755 N 0.43500 0.34834 0.92682
 N756 N 0.42685 0.34800 0.93522
 C757 C 0.42883 0.35697 0.94297
 C758 C 0.43880 0.36317 0.93923
 C759 C 0.44247 0.35746 0.92894
 H760 H 0.42352 0.35881 0.95078
 H761 H 0.45010 0.35970 0.92351
 Cu762 Cu 0.41458 0.33575 0.93504
 Cu763 Cu 0.43568 0.33661 0.91398
 Cu764 Cu 0.41557 0.31315 0.91565
 N765 N 0.40222 0.32359 0.93485
 N766 N 0.40264 0.31481 0.92710
 C767 C 0.39343 0.30740 0.92899
 C768 C 0.38688 0.31177 0.93844
 C769 C 0.39266 0.32207 0.94195
 H770 H 0.39177 0.29928 0.92405
 H771 H 0.39021 0.32785 0.94924
 N772 N 0.42738 0.31471 0.90278
 N773 N 0.43494 0.32371 0.90205
 C774 C 0.44202 0.32204 0.89251
 C775 C 0.43874 0.31153 0.88701
 C776 C 0.42940 0.30715 0.89368
 H777 H 0.44924 0.32786 0.88991
 H778 H 0.42460 0.29893 0.89214
 H779 H 0.41787 0.33125 0.91414
 H780 H 0.42860 0.32331 0.92404
 N781 N 0.93490 0.42640 0.34871
 N782 N 0.92676 0.43482 0.34850
 C783 C 0.92870 0.44238 0.35763
 C784 C 0.93863 0.43850 0.36381
 C785 C 0.94231 0.42832 0.35793
 H786 H 0.92342 0.45020 0.35957
 H787 H 0.94992 0.42283 0.36010
 Cu788 Cu 0.91466 0.43539 0.33608
 Cu789 Cu 0.93556 0.41384 0.33680
 Cu790 Cu 0.91373 0.41392 0.31505
 N791 N 0.90217 0.43492 0.32404
 N792 N 0.90188 0.42654 0.31586
 C793 C 0.89262 0.42852 0.30851
 C794 C 0.88680 0.43868 0.31229
 C795 C 0.89306 0.44251 0.32218
 H796 H 0.89039 0.42310 0.30086
 H797 H 0.89118 0.45033 0.32749
 N798 N 0.92647 0.40187 0.31571
 N799 N 0.93479 0.40183 0.32402
 C800 C 0.94230 0.39269 0.32196
 C801 C 0.93851 0.38673 0.31188
 C802 C 0.92847 0.39275 0.30815
 H803 H 0.95003 0.39057 0.32729
 H804 H 0.92310 0.39070 0.30042
 H805 H 0.92726 0.42315 0.32331
 H806 H 0.91741 0.41400 0.33314
 N807 N 0.31574 0.92685 0.40186
 N808 N 0.32401 0.93515 0.40196
 C809 C 0.32205 0.94270 0.39283
 C810 C 0.31202 0.93892 0.38677
 C811 C 0.30825 0.92884 0.39272
 H812 H 0.32741 0.95045 0.39080
 H813 H 0.30052 0.92347 0.39066
 Cu814 Cu 0.33626 0.93541 0.41426
 Cu815 Cu 0.31505 0.91426 0.41378
 Cu816 Cu 0.33694 0.91443 0.43557
 N817 N 0.34861 0.93534 0.42646
 N818 N 0.34880 0.92709 0.43477
 C819 C 0.35793 0.92922 0.44224
 C820 C 0.36380 0.93935 0.43841
 C821 C 0.35768 0.94300 0.42835
 H822 H 0.36005 0.92389 0.44997
 H823 H 0.35962 0.95074 0.42294
 N824 N 0.32420 0.90235 0.43490
 N825 N 0.31587 0.90229 0.42659
 C826 C 0.30826 0.89326 0.42876
 C827 C 0.31198 0.88740 0.43890
 C828 C 0.32210 0.89335 0.44256
 H829 H 0.30046 0.89121 0.42351
 H830 H 0.32739 0.89139 0.45036
 H831 H 0.32338 0.92368 0.42722
 H832 H 0.33305 0.91421 0.41757
 O833 O 0.24898 0.53184 0.73446
 O834 O 0.26947 0.52837 0.73621
 O835 O 0.23480 0.50073 0.71843
 O836 O 0.23486 0.48092 0.72187
 O837 O 0.21835 0.51544 0.74945
 O838 O 0.22268 0.51446 0.77030
 O839 O 0.26619 0.46934 0.75080
 O840 O 0.26361 0.47262 0.73033
 O841 O 0.28115 0.49944 0.76570
 O842 O 0.27748 0.52053 0.76501
 O843 O 0.25130 0.48466 0.78111
 O844 O 0.22992 0.48521 0.77721
 O845 O 0.25195 0.46923 0.76524
 O846 O 0.22952 0.47330 0.76359
 O847 O 0.26541 0.49921 0.78127
 O848 O 0.26337 0.52171 0.77639
 O849 O 0.28112 0.48484 0.75162
 O850 O 0.27761 0.48895 0.72997
 O851 O 0.23489 0.53191 0.74910
 O852 O 0.23621 0.52752 0.77045
 O853 O 0.21833 0.50103 0.73515
 O854 O 0.22331 0.47936 0.73716
 O855 O 0.24888 0.51535 0.71842
 O856 O 0.27054 0.51271 0.72314
 Zr857 Zr 0.25647 0.51470 0.73558
 O858 O 0.26798 0.50446 0.74626
 Zr859 Zr 0.23557 0.49363 0.73576
 O860 O 0.24641 0.48231 0.74606
 Zr861 Zr 0.23563 0.51469 0.75665
 O862 O 0.24610 0.50413 0.76811
 Zr863 Zr 0.26444 0.48634 0.74326
 O864 O 0.25366 0.49653 0.73163
 Zr865 Zr 0.26416 0.50720 0.76435
 O866 O 0.25369 0.51870 0.75371
 Zr867 Zr 0.24347 0.48598 0.76416
 O868 O 0.23169 0.49654 0.75387
 O869 O 0.23851 0.51162 0.73869
 O870 O 0.26145 0.48914 0.76133
 C871 C 0.24059 0.53685 0.74046
 C872 C 0.24051 0.50932 0.71343
 C873 C 0.21334 0.50952 0.74101
 C874 C 0.26067 0.46445 0.75954
 C875 C 0.28596 0.49060 0.76025
 C876 C 0.25990 0.49038 0.78603
 H877 H 0.27636 0.50638 0.74436
 H878 H 0.24415 0.50600 0.77648
 H879 H 0.23337 0.51663 0.73360
 H880 H 0.24473 0.47389 0.74407
 H881 H 0.26120 0.47645 0.72277
 H882 H 0.24095 0.47483 0.72367
 H883 H 0.25753 0.51969 0.78266
 H884 H 0.24374 0.53199 0.76945
 H885 H 0.28325 0.48216 0.73040
 H886 H 0.26969 0.51891 0.71691
 H887 H 0.23023 0.49272 0.78182
 H888 H 0.21905 0.50642 0.77013
 H889 H 0.26897 0.53202 0.74422
 H890 H 0.28118 0.52094 0.75703
 H891 H 0.21850 0.48084 0.74439
 H892 H 0.23157 0.46724 0.75751
 O893 O 0.24921 0.03145 0.23392
 O894 O 0.26976 0.02787 0.23561
 O895 O 0.23486 0.00032 0.21815
 O896 O 0.23474 -0.01945 0.22172
 O897 O 0.21859 0.01541 0.24900
 O898 O 0.22276 0.01471 0.26981
 O899 O 0.26611 -0.03108 0.25051
 O900 O 0.26366 -0.02779 0.23009
 O901 O 0.28122 -0.00098 0.26544
 O902 O 0.27799 0.01971 0.26486
 O903 O 0.25128 -0.01562 0.28086
 O904 O 0.23062 -0.01527 0.27757
 O905 O 0.25178 -0.03114 0.26486
 O906 O 0.22904 -0.02634 0.26303
 O907 O 0.26538 -0.00107 0.28100
 O908 O 0.26340 0.02154 0.27583
 O909 O 0.28116 -0.01564 0.25142
 O910 O 0.27769 -0.01148 0.22974
 O911 O 0.23524 0.03170 0.24866
 O912 O 0.23663 0.02725 0.27016
 O913 O 0.21840 0.00087 0.23484
 O914 O 0.22334 -0.02090 0.23708
 O915 O 0.24903 0.01486 0.21804
 O916 O 0.27072 0.01209 0.22277
 Zr917 Zr 0.25665 0.01428 0.23519
 O918 O 0.26810 0.00405 0.24596
 Zr919 Zr 0.23561 -0.00666 0.23552
 O920 O 0.24643 -0.01801 0.24582
 Zr921 Zr 0.23584 0.01452 0.25628
 O922 O 0.24619 0.00388 0.26778
 Zr923 Zr 0.26449 -0.01406 0.24300
 O924 O 0.25372 -0.00388 0.23135
 Zr925 Zr 0.26427 0.00684 0.26404
 O926 O 0.25393 0.01840 0.25332
 Zr927 Zr 0.24350 -0.01427 0.26390
 O928 O 0.23175 -0.00363 0.25364
 O929 O 0.23869 0.01133 0.23834
 O930 O 0.26150 -0.01122 0.26106
 C931 C 0.24091 0.03655 0.23995
 C932 C 0.24061 0.00885 0.21311
 C933 C 0.21350 0.00944 0.24065
 C934 C 0.26049 -0.03596 0.25918
 C935 C 0.28600 -0.00987 0.26004
 C936 C 0.25987 -0.00988 0.28579
 H937 H 0.27650 0.00596 0.24411
 H938 H 0.24422 0.00576 0.27615
 H939 H 0.23358 0.01634 0.23322
 H940 H 0.24469 -0.02643 0.24385
 H941 H 0.26131 -0.02397 0.22250
 H942 H 0.24105 -0.02537 0.22335
 H943 H 0.25774 0.01949 0.28225
 H944 H 0.24400 0.03192 0.26892
 H945 H 0.28331 -0.01828 0.23017
 H946 H 0.26985 0.01818 0.21642
 H947 H 0.22897 -0.00701 0.28014
 H948 H 0.21851 0.00700 0.26931
 H949 H 0.26889 0.03207 0.24331
 H950 H 0.28031 0.02151 0.25657
 H951 H 0.21815 -0.01908 0.24397
 H952 H 0.23129 -0.03289 0.25757
 O953 O 0.53188 0.73470 0.24915
 O954 O 0.52802 0.73643 0.26965
 O955 O 0.50083 0.71869 0.23456
 O956 O 0.48106 0.72222 0.23442
 O957 O 0.51574 0.74974 0.21825
 O958 O 0.51483 0.77062 0.22267
 O959 O 0.46925 0.75112 0.26560
 O960 O 0.47251 0.73067 0.26307
 O961 O 0.49918 0.76595 0.28096
 O962 O 0.52081 0.76481 0.27707
 O963 O 0.48490 0.78148 0.25098
 O964 O 0.48561 0.77758 0.22958
 O965 O 0.46933 0.76560 0.25139
 O966 O 0.47361 0.76416 0.22909
 O967 O 0.49923 0.78152 0.26531
 O968 O 0.52135 0.77701 0.26379
 O969 O 0.48456 0.75190 0.28079
 O970 O 0.48870 0.73017 0.27718
 O971 O 0.53207 0.74933 0.23505
 O972 O 0.52775 0.77064 0.23627
 O973 O 0.50135 0.73544 0.21808
 O974 O 0.47973 0.73756 0.22280
 O975 O 0.51536 0.71862 0.24872
 O976 O 0.51250 0.72316 0.27027
 Zr977 Zr 0.51463 0.73578 0.25638
 O978 O 0.50431 0.74648 0.26783
 Zr979 Zr 0.49380 0.73607 0.23525
 O980 O 0.48242 0.74641 0.24599
 Zr981 Zr 0.51488 0.75691 0.23556
 O982 O 0.50429 0.76838 0.24597
 Zr983 Zr 0.48625 0.74356 0.26407
 O984 O 0.49650 0.73191 0.25337
 Zr985 Zr 0.50716 0.76458 0.26406
 O986 O 0.51869 0.75393 0.25364
 Zr987 Zr 0.48617 0.76451 0.24314
 O988 O 0.49678 0.75420 0.23143
 O989 O 0.51175 0.73893 0.23838
 O990 O 0.48913 0.76164 0.26116
 C991 C 0.53695 0.74069 0.24081
 C992 C 0.50935 0.71366 0.24031
 C993 C 0.50985 0.74133 0.21316
 C994 C 0.46445 0.75987 0.26002
 C995 C 0.49029 0.76052 0.28569
 C996 C 0.49054 0.78635 0.25967
 H997 H 0.50613 0.74454 0.27622
 H998 H 0.50619 0.77676 0.24404
 H999 H 0.51681 0.73383 0.23328
 H1000 H 0.47402 0.74445 0.24422
 H1001 H 0.47632 0.72313 0.26052
 H1002 H 0.47478 0.72417 0.24026
 H1003 H 0.51974 0.78281 0.25736
 H1004 H 0.53182 0.76988 0.24405
 H1005 H 0.48188 0.73060 0.28277
 H1006 H 0.51885 0.71705 0.26954
 H1007 H 0.49312 0.78216 0.22999
 H1008 H 0.50686 0.77047 0.21891
 H1009 H 0.53138 0.74458 0.26949
 H1010 H 0.51991 0.75759 0.28203
 H1011 H 0.48124 0.74488 0.21811
 H1012 H 0.46768 0.75789 0.23089
 O1013 O 0.00076 0.71848 0.73442
 O1014 O -0.01973 0.72243 0.73629
 O1015 O 0.01531 0.74950 0.71831
 O1016 O 0.01564 0.76928 0.72180
 O1017 O 0.03176 0.73450 0.74910
 O1018 O 0.02766 0.73537 0.77004
 O1019 O -0.01561 0.78124 0.75081
 O1020 O -0.01309 0.77796 0.73032
 O1021 O -0.03076 0.75139 0.76568
 O1022 O -0.02681 0.72970 0.76465
 O1023 O -0.00064 0.76580 0.78103
 O1024 O 0.01992 0.76538 0.77773
 O1025 O -0.00115 0.78129 0.76505
 O1026 O 0.02158 0.77636 0.76309
 O1027 O -0.01497 0.75147 0.78117
 O1028 O -0.01352 0.72936 0.77687
 O1029 O -0.03072 0.76591 0.75154
 O1030 O -0.02719 0.76168 0.72988
 O1031 O 0.01492 0.71830 0.74899
 O1032 O 0.01379 0.72286 0.77039
 O1033 O 0.03189 0.74896 0.73489
 O1034 O 0.02716 0.77073 0.73707
 O1035 O 0.00118 0.73492 0.71834
 O1036 O -0.02035 0.73787 0.72293
 Zr1037 Zr -0.00641 0.73577 0.73551
 O1038 O -0.01776 0.74617 0.74622
 Zr1039 Zr 0.01475 0.75659 0.73566
 O1040 O 0.00406 0.76808 0.74596
 Zr1041 Zr 0.01456 0.73555 0.75650
 O1042 O 0.00427 0.74628 0.76795
 Zr1043 Zr -0.01403 0.76424 0.74321
 O1044 O -0.00339 0.75390 0.73157
 Zr1045 Zr -0.01386 0.74340 0.76429
 O1046 O -0.00355 0.73178 0.75363
 Zr1047 Zr 0.00704 0.76439 0.76404
 O1048 O 0.01872 0.75366 0.75377
 O1049 O 0.01160 0.73863 0.73856
 O1050 O -0.01099 0.76143 0.76126
 C1051 C 0.00911 0.71340 0.74039
 C1052 C 0.00957 0.74091 0.71334
 C1053 C 0.03681 0.74039 0.74069
 C1054 C -0.00993 0.78611 0.75948
 C1055 C -0.03556 0.76022 0.76020
 C1056 C -0.00930 0.76019 0.78596
 H1057 H -0.02617 0.74433 0.74434
 H1058 H 0.00630 0.74447 0.77633
 H1059 H 0.01664 0.73352 0.73345
 H1060 H 0.00585 0.77647 0.74398
 H1061 H -0.01076 0.77411 0.72273
 H1062 H 0.00949 0.77535 0.72351
 H1063 H -0.00696 0.73096 0.78253
 H1064 H 0.00609 0.71866 0.76953
 H1065 H -0.03277 0.76853 0.73026
 H1066 H -0.01968 0.73146 0.71687
 H1067 H 0.02193 0.75708 0.77991
 H1068 H 0.03218 0.74291 0.76930
 H1069 H -0.01945 0.71904 0.74442
 H1070 H -0.03192 0.73063 0.75753
 H1071 H 0.03233 0.76895 0.74398
 H1072 H 0.01935 0.78288 0.75761
 O1073 O 0.03183 0.01531 0.00081
 O1074 O 0.02796 0.01366 -0.01969
 O1075 O 0.00082 0.03133 0.01541
 O1076 O -0.01896 0.02783 0.01555
 O1077 O 0.01570 0.00023 0.03167
 O1078 O 0.01472 -0.02059 0.02725
 O1079 O -0.03083 -0.00106 -0.01573
 O1080 O -0.02758 0.01937 -0.01325
 O1081 O -0.00088 -0.01585 -0.03106
 O1082 O 0.02073 -0.01476 -0.02713
 O1083 O -0.01520 -0.03144 -0.00111
 O1084 O -0.01448 -0.02747 0.02036
 O1085 O -0.03075 -0.01558 -0.00155
 O1086 O -0.02652 -0.01404 0.02075
 O1087 O -0.00088 -0.03144 -0.01543
 O1088 O 0.02124 -0.02696 -0.01385
 O1089 O -0.01551 -0.00184 -0.03088
 O1090 O -0.01132 0.01994 -0.02722
 O1091 O 0.03202 0.00067 0.01489
 O1092 O 0.02763 -0.02067 0.01364
 O1093 O 0.00128 0.01451 0.03186
 O1094 O -0.02034 0.01252 0.02708
 O1095 O 0.01534 0.03140 0.00126
 O1096 O 0.01248 0.02693 -0.02029
 Zr1097 Zr 0.01458 0.01426 -0.00643
 O1098 O 0.00424 0.00359 -0.01790
 Zr1099 Zr -0.00624 0.01397 0.01467
 O1100 O -0.01764 0.00366 0.00390
 Zr1101 Zr 0.01481 -0.00689 0.01436
 O1102 O 0.00419 -0.01833 0.00393
 Zr1103 Zr -0.01382 0.00651 -0.01417
 O1104 O -0.00355 0.01814 -0.00343
 Zr1105 Zr 0.00708 -0.01451 -0.01415
 O1106 O 0.01862 -0.00389 -0.00371
 Zr1107 Zr -0.01392 -0.01446 0.00674
 O1108 O -0.00329 -0.00417 0.01846
 O1109 O 0.01171 0.01110 0.01156
 O1110 O -0.01095 -0.01157 -0.01127
 C1111 C 0.03691 0.00930 0.00913
 C1112 C 0.00935 0.03635 0.00967
 C1113 C 0.00979 0.00861 0.03677
 C1114 C -0.03564 -0.00984 -0.01018
 C1115 C -0.00978 -0.01044 -0.03579
 C1116 C -0.00956 -0.03630 -0.00979
 H1117 H 0.00607 0.00554 -0.02629
 H1118 H 0.00608 -0.02672 0.00585
 H1119 H 0.01678 0.01617 0.01668
 H1120 H -0.02604 0.00563 0.00567
 H1121 H -0.02380 0.02692 -0.01067
 H1122 H -0.02514 0.02599 0.00956
 H1123 H 0.01962 -0.03277 -0.00743
 H1124 H 0.03177 -0.01985 0.00590
 H1125 H -0.01805 0.01945 -0.03291
 H1126 H 0.01883 0.03304 -0.01952
 H1127 H -0.00706 -0.03219 0.01984
 H1128 H 0.00671 -0.02048 0.03093
 H1129 H 0.03132 0.00551 -0.01953
 H1130 H 0.01988 -0.00751 -0.03206
 H1131 H -0.01887 0.00522 0.03180
 H1132 H -0.03247 -0.00782 0.01888
 O1133 O 0.00094 0.53157 0.51574
 O1134 O -0.01957 0.52775 0.51400
 O1135 O 0.01548 0.50042 0.53164
 O1136 O 0.01563 0.48067 0.52810
 O1137 O 0.03173 0.51554 0.50089
 O1138 O 0.02752 0.51461 0.47994
 O1139 O -0.01582 0.46893 0.49933
 O1140 O -0.01321 0.47221 0.51979
 O1141 O -0.03099 0.49893 0.48459
 O1142 O -0.02684 0.52064 0.48564
 O1143 O -0.00110 0.48434 0.46903
 O1144 O 0.01946 0.48475 0.47209
 O1145 O -0.00146 0.46885 0.48501
 O1146 O 0.02130 0.47376 0.48673
 O1147 O -0.01539 0.49871 0.46900
 O1148 O -0.01371 0.52081 0.47324
 O1149 O -0.03089 0.48433 0.49865
 O1150 O -0.02718 0.48855 0.52033
 O1151 O 0.01497 0.53177 0.50106
 O1152 O 0.01376 0.52726 0.47968
 O1153 O 0.03192 0.50098 0.51500
 O1154 O 0.02708 0.47924 0.51272
 O1155 O 0.00136 0.51501 0.53175
 O1156 O -0.02021 0.51230 0.52727
 Zr1157 Zr -0.00633 0.51433 0.51462
 O1158 O -0.01782 0.50402 0.50395
 Zr1159 Zr 0.01474 0.49342 0.51428
 O1160 O 0.00391 0.48201 0.50402
 Zr1161 Zr 0.01450 0.51453 0.49352
 O1162 O 0.00407 0.50388 0.48210
 Zr1163 Zr -0.01414 0.48593 0.50691
 O1164 O -0.00336 0.49618 0.51849
 Zr1165 Zr -0.01402 0.50681 0.48586
 O1166 O -0.00358 0.51837 0.49649
 Zr1167 Zr 0.00677 0.48575 0.48595
 O1168 O 0.01858 0.49639 0.49616
 O1169 O 0.01164 0.51140 0.51146
 O1170 O -0.01122 0.48876 0.48885
 C1171 C 0.00926 0.53665 0.50973
 C1172 C 0.00977 0.50898 0.53668
 C1173 C 0.03681 0.50959 0.50925
 C1174 C -0.01020 0.46405 0.49065
 C1175 C -0.03578 0.49008 0.49005
 C1176 C -0.00981 0.48995 0.46418
 H1177 H -0.02620 0.50590 0.50589
 H1178 H 0.00603 0.50569 0.47371
 H1179 H 0.01672 0.51647 0.51657
 H1180 H 0.00568 0.47361 0.50597
 H1181 H -0.01072 0.47603 0.52735
 H1182 H 0.00954 0.47456 0.52632
 H1183 H -0.00718 0.51919 0.46756
 H1184 H 0.00605 0.53145 0.48052
 H1185 H -0.03281 0.48176 0.51997
 H1186 H -0.01941 0.51864 0.53338
 H1187 H 0.02159 0.49304 0.47002
 H1188 H 0.03203 0.50706 0.48070
 H1189 H -0.01936 0.53114 0.50587
 H1190 H -0.03193 0.51970 0.49276
 H1191 H 0.03221 0.48104 0.50578
 H1192 H 0.01913 0.46725 0.49226
 O1193 O 0.53175 0.01595 0.50118
 O1194 O 0.52819 0.01414 0.48062
 O1195 O 0.50074 0.03195 0.51536
 O1196 O 0.48099 0.02847 0.51550
 O1197 O 0.51572 0.00119 0.53184
 O1198 O 0.51479 -0.01974 0.52783
 O1199 O 0.46922 -0.00050 0.48422
 O1200 O 0.47265 0.02000 0.48665
 O1201 O 0.49922 -0.01561 0.46925
 O1202 O 0.51986 -0.01516 0.47255
 O1203 O 0.48442 -0.03084 0.49924
 O1204 O 0.48484 -0.02747 0.51988
 O1205 O 0.46905 -0.01479 0.49862
 O1206 O 0.47381 -0.01279 0.52139
 O1207 O 0.49895 -0.03111 0.48515
 O1208 O 0.52158 -0.02609 0.48725
 O1209 O 0.48464 -0.00153 0.46925
 O1210 O 0.48892 0.02016 0.47261
 O1211 O 0.53194 0.00125 0.51520
 O1212 O 0.52731 -0.02027 0.51395
 O1213 O 0.50124 0.01539 0.53192
 O1214 O 0.47947 0.01318 0.52702
 O1215 O 0.51527 0.03191 0.50121
 O1216 O 0.51253 0.02706 0.47956
 Zr1217 Zr 0.51462 0.01469 0.49370
 O1218 O 0.50433 0.00390 0.48231
 Zr1219 Zr 0.49368 0.01458 0.51472
 O1220 O 0.48227 0.00427 0.50394
 Zr1221 Zr 0.51471 -0.00629 0.51465
 O1222 O 0.50400 -0.01780 0.50433
 Zr1223 Zr 0.48626 0.00697 0.48587
 O1224 O 0.49649 0.01865 0.49660
 Zr1225 Zr 0.50700 -0.01419 0.48624
 O1226 O 0.51861 -0.00345 0.49654
 Zr1227 Zr 0.48589 -0.01382 0.50696
 O1228 O 0.49659 -0.00354 0.51869
 O1229 O 0.51163 0.01167 0.51168
 O1230 O 0.48898 -0.01110 0.48896
 C1231 C 0.53682 0.00992 0.50950
 C1232 C 0.50928 0.03692 0.50959
 C1233 C 0.50982 0.00963 0.53686
 C1234 C 0.46429 -0.00915 0.48984
 C1235 C 0.49037 -0.01019 0.46443
 C1236 C 0.49011 -0.03583 0.49066
 H1237 H 0.50627 0.00569 0.47390
 H1238 H 0.50581 -0.02618 0.50636
 H1239 H 0.51667 0.01681 0.51675
 H1240 H 0.47388 0.00629 0.50565
 H1241 H 0.47654 0.02757 0.48900
 H1242 H 0.47499 0.02676 0.50929
 H1243 H 0.51945 -0.03247 0.49293
 H1244 H 0.53202 -0.01909 0.50660
 H1245 H 0.48212 0.01974 0.46699
 H1246 H 0.51865 0.03338 0.48041
 H1247 H 0.49310 -0.02983 0.52176
 H1248 H 0.50715 -0.01904 0.53218
 H1249 H 0.53244 0.00647 0.48162
 H1250 H 0.52188 -0.00687 0.47036
 H1251 H 0.48127 0.00633 0.53227
 H1252 H 0.46731 -0.00731 0.51907
 O1253 O 0.53140 0.51570 0.00084
 O1254 O 0.52759 0.51386 -0.01967
 O1255 O 0.50041 0.53183 0.01528
 O1256 O 0.48063 0.52840 0.01532
 O1257 O 0.51518 0.50082 0.03172
 O1258 O 0.51417 0.47993 0.02738
 O1259 O 0.46879 0.49929 -0.01587
 O1260 O 0.47202 0.51982 -0.01324
 O1261 O 0.49869 0.48454 -0.03101
 O1262 O 0.52025 0.48540 -0.02702
 O1263 O 0.48420 0.46902 -0.00097
 O1264 O 0.48491 0.47303 0.02040
 O1265 O 0.46877 0.48488 -0.00159
 O1266 O 0.47299 0.48660 0.02082
 O1267 O 0.49846 0.46896 -0.01534
 O1268 O 0.52068 0.47332 -0.01362
 O1269 O 0.48415 0.49865 -0.03093
 O1270 O 0.48827 0.52033 -0.02728
 O1271 O 0.53152 0.50115 0.01501
 O1272 O 0.52712 0.47980 0.01375
 O1273 O 0.50081 0.51514 0.03181
 O1274 O 0.47920 0.51312 0.02703
 O1275 O 0.51492 0.53180 0.00111
 O1276 O 0.51218 0.52719 -0.02042
 Zr1277 Zr 0.51417 0.51462 -0.00646
 O1278 O 0.50381 0.50393 -0.01789
 Zr1279 Zr 0.49329 0.51449 0.01461
 O1280 O 0.48187 0.50415 0.00387
 Zr1281 Zr 0.51430 0.49358 0.01443
 O1282 O 0.50366 0.48211 0.00404
 Zr1283 Zr 0.48575 0.50693 -0.01420
 O1284 O 0.49605 0.51858 -0.00351
 Zr1285 Zr 0.50658 0.48583 -0.01406
 O1286 O 0.51815 0.49647 -0.00365
 Zr1287 Zr 0.48556 0.48604 0.00679
 O1288 O 0.49620 0.49636 0.01849
 O1289 O 0.51124 0.51155 0.01154
 O1290 O 0.48856 0.48886 -0.01122
 C1291 C 0.53644 0.50975 0.00923
 C1292 C 0.50895 0.53681 0.00950
 C1293 C 0.50930 0.50925 0.03676
 C1294 C 0.46396 0.49053 -0.01032
 C1295 C 0.48987 0.49003 -0.03580
 C1296 C 0.48977 0.46414 -0.00969
 H1297 H 0.50568 0.50585 -0.02627
 H1298 H 0.50552 0.47373 0.00599
 H1299 H 0.51631 0.51665 0.01663
 H1300 H 0.47347 0.50613 0.00560
 H1301 H 0.47583 0.52738 -0.01074
 H1302 H 0.47431 0.52641 0.00951
 H1303 H 0.51891 0.46744 -0.00731
 H1304 H 0.53128 0.48062 0.00602
 H1305 H 0.48147 0.51993 -0.03289
 H1306 H 0.51854 0.53328 -0.01967
 H1307 H 0.49243 0.46846 0.02007
 H1308 H 0.50619 0.48015 0.03112
 H1309 H 0.53095 0.50571 -0.01943
 H1310 H 0.51950 0.49268 -0.03193
 H1311 H 0.48067 0.50585 0.03179
 H1312 H 0.46697 0.49273 0.01885
 O1313 O 0.78201 0.25105 0.48438
 O1314 O 0.77838 0.23050 0.48618
 O1315 O 0.75114 0.26549 0.46842
 O1316 O 0.73134 0.26551 0.47177
 O1317 O 0.76582 0.28176 0.49956
 O1318 O 0.76481 0.27732 0.52039
 O1319 O 0.71939 0.23423 0.50058
 O1320 O 0.72279 0.23685 0.48009
 O1321 O 0.74926 0.21897 0.51548
 O1322 O 0.77041 0.22245 0.51476
 O1323 O 0.73483 0.24895 0.53100
 O1324 O 0.73553 0.27035 0.52716
 O1325 O 0.71940 0.24841 0.51512
 O1326 O 0.72363 0.27084 0.51357
 O1327 O 0.74925 0.23472 0.53111
 O1328 O 0.77169 0.23645 0.52626
 O1329 O 0.73471 0.21913 0.50138
 O1330 O 0.73894 0.22267 0.47974
 O1331 O 0.78215 0.26510 0.49909
 O1332 O 0.77777 0.26370 0.52043
 O1333 O 0.75144 0.28192 0.48525
 O1334 O 0.72980 0.27708 0.48712
 O1335 O 0.76558 0.25123 0.46835
 O1336 O 0.76281 0.22960 0.47296
 Zr1337 Zr 0.76484 0.24363 0.48549
 O1338 O 0.75447 0.23215 0.49608
 Zr1339 Zr 0.74396 0.26470 0.48572
 O1340 O 0.73253 0.25392 0.49596
 Zr1341 Zr 0.76495 0.26443 0.50665
 O1342 O 0.75430 0.25399 0.51804
 Zr1343 Zr 0.73641 0.23584 0.49308
 O1344 O 0.74672 0.24659 0.48153
 Zr1345 Zr 0.75722 0.23590 0.51419
 O1346 O 0.76881 0.24633 0.50364
 Zr1347 Zr 0.73620 0.25678 0.51407
 O1348 O 0.74686 0.26852 0.50385
 O1349 O 0.76189 0.26162 0.48867
 O1350 O 0.73921 0.23876 0.51116
 C1351 C 0.78705 0.25942 0.49040
 C1352 C 0.75965 0.25969 0.46341
 C1353 C 0.75994 0.28684 0.49116
 C1354 C 0.71456 0.23975 0.50936
 C1355 C 0.74039 0.21423 0.51001
 C1356 C 0.74050 0.24031 0.53590
 H1357 H 0.75631 0.22375 0.49414
 H1358 H 0.75618 0.25591 0.52642
 H1359 H 0.76693 0.26676 0.48361
 H1360 H 0.72414 0.25567 0.49396
 H1361 H 0.72668 0.23927 0.47256
 H1362 H 0.72513 0.25954 0.47359
 H1363 H 0.76980 0.24241 0.53247
 H1364 H 0.78214 0.25611 0.51942
 H1365 H 0.73210 0.21709 0.48012
 H1366 H 0.76911 0.23039 0.46682
 H1367 H 0.74299 0.26993 0.53182
 H1368 H 0.75681 0.28102 0.52024
 H1369 H 0.78203 0.23102 0.49419
 H1370 H 0.77069 0.21867 0.50680
 H1371 H 0.73125 0.28183 0.49440
 H1372 H 0.71760 0.26886 0.50745
 O1373 O 0.78161 0.75081 -0.01571
 O1374 O 0.77774 0.73032 -0.01416
 O1375 O 0.75079 0.76562 -0.03161
 O1376 O 0.73097 0.76566 -0.02820
 O1377 O 0.76566 0.78172 -0.00051
 O1378 O 0.76471 0.77731 0.02027
 O1379 O 0.71892 0.73453 0.00070
 O1380 O 0.72221 0.73703 -0.01977
 O1381 O 0.74884 0.71905 0.01547
 O1382 O 0.76987 0.72238 0.01477
 O1383 O 0.73459 0.74923 0.03104
 O1384 O 0.73542 0.77061 0.02711
 O1385 O 0.71907 0.74876 0.01519
 O1386 O 0.72345 0.77112 0.01361
 O1387 O 0.74886 0.73484 0.03110
 O1388 O 0.77138 0.73654 0.02611
 O1389 O 0.73417 0.71930 0.00149
 O1390 O 0.73829 0.72278 -0.02019
 O1391 O 0.78189 0.76489 -0.00103
 O1392 O 0.77753 0.76360 0.02033
 O1393 O 0.75119 0.78200 -0.01473
 O1394 O 0.72956 0.77728 -0.01293
 O1395 O 0.76519 0.75132 -0.03174
 O1396 O 0.76202 0.72964 -0.02718
 Zr1397 Zr 0.76435 0.74361 -0.01463
 O1398 O 0.75398 0.73221 -0.00395
 Zr1399 Zr 0.74364 0.76481 -0.01431
 O1400 O 0.73218 0.75411 -0.00401
 Zr1401 Zr 0.76471 0.76439 0.00656
 O1402 O 0.75402 0.75406 0.01799
 Zr1403 Zr 0.73592 0.73600 -0.00687
 O1404 O 0.74624 0.74667 -0.01850
 Zr1405 Zr 0.75681 0.73595 0.01415
 O1406 O 0.76843 0.74627 0.00351
 Zr1407 Zr 0.73593 0.75698 0.01408
 O1408 O 0.74663 0.76862 0.00381
 O1409 O 0.76156 0.76162 -0.01142
 O1410 O 0.73880 0.73893 0.01120
 C1411 C 0.78673 0.75912 -0.00968
 C1412 C 0.75930 0.75984 -0.03665
 C1413 C 0.75974 0.78686 -0.00885
 C1414 C 0.71414 0.74013 0.00946
 C1415 C 0.73990 0.71436 0.01007
 C1416 C 0.74020 0.74055 0.03593
 H1417 H 0.75577 0.72380 -0.00588
 H1418 H 0.75595 0.75597 0.02637
 H1419 H 0.76665 0.76673 -0.01646
 H1420 H 0.72380 0.75592 -0.00598
 H1421 H 0.72606 0.73940 -0.02734
 H1422 H 0.72477 0.75968 -0.02638
 H1423 H 0.76942 0.74230 0.03248
 H1424 H 0.78189 0.75600 0.01929
 H1425 H 0.73143 0.71724 -0.01975
 H1426 H 0.76821 0.73040 -0.03343
 H1427 H 0.74290 0.77015 0.03174
 H1428 H 0.75675 0.78109 0.02013
 H1429 H 0.78148 0.73076 -0.00618
 H1430 H 0.77033 0.71879 0.00673
 H1431 H 0.73100 0.78199 -0.00561
 H1432 H 0.71741 0.76920 0.00749
 O1433 O 1.03149 0.23418 0.24916
 O1434 O 1.02791 0.23596 0.26965
 O1435 O 1.00048 0.21807 0.23489
 O1436 O 0.98067 0.22153 0.23486
 O1437 O 1.01520 0.24913 0.21843
 O1438 O 1.01419 0.26998 0.22271
 O1439 O 0.96894 0.25054 0.26601
 O1440 O 0.97227 0.23007 0.26351
 O1441 O 0.99895 0.26551 0.28112
 O1442 O 1.02000 0.26486 0.27756
 O1443 O 0.98433 0.28091 0.25113
 O1444 O 0.98489 0.27697 0.22983
 O1445 O 0.96887 0.26495 0.25173
 O1446 O 0.97311 0.26329 0.22932
 O1447 O 0.99879 0.28108 0.26531
 O1448 O 1.02125 0.27619 0.26342
 O1449 O 0.98436 0.25144 0.28106
 O1450 O 0.98850 0.22975 0.27760
 O1451 O 1.03159 0.24882 0.23507
 O1452 O 1.02715 0.27020 0.23631
 O1453 O 1.00084 0.23479 0.21835
 O1454 O 0.97919 0.23678 0.22322
 O1455 O 1.01501 0.21809 0.24905
 O1456 O 1.01227 0.22292 0.27069
 Zr1457 Zr 1.01432 0.23531 0.25657
 O1458 O 1.00403 0.24604 0.26801
 Zr1459 Zr 0.99337 0.23543 0.23557
 O1460 O 0.98200 0.24578 0.24633
 Zr1461 Zr 1.01438 0.25636 0.23570
 O1462 O 1.00377 0.26785 0.24609
 Zr1463 Zr 0.98595 0.24302 0.26439
 O1464 O 0.99619 0.23135 0.25368
 Zr1465 Zr 1.00677 0.26413 0.26416
 O1466 O 1.01831 0.25346 0.25378
 Zr1467 Zr 0.98566 0.26389 0.24338
 O1468 O 0.99627 0.25356 0.23167
 O1469 O 1.01132 0.23838 0.23859
 O1470 O 0.98873 0.26111 0.26138
 C1471 C 1.03651 0.24018 0.24079
 C1472 C 1.00902 0.21308 0.24066
 C1473 C 1.00932 0.24068 0.21339
 C1474 C 0.96406 0.25925 0.26043
 C1475 C 0.99010 0.26008 0.28590
 C1476 C 0.99003 0.28586 0.25973
 H1477 H 1.00591 0.24416 0.27640
 H1478 H 1.00565 0.27623 0.24412
 H1479 H 1.01636 0.23327 0.23349
 H1480 H 0.97360 0.24378 0.24461
 H1481 H 0.97611 0.22250 0.26109
 H1482 H 0.97449 0.22343 0.24084
 H1483 H 1.01925 0.28246 0.25757
 H1484 H 1.03158 0.26922 0.24387
 H1485 H 0.98168 0.23017 0.28319
 H1486 H 1.01845 0.21665 0.26988
 H1487 H 0.99246 0.28146 0.23005
 H1488 H 1.00618 0.26979 0.21903
 H1489 H 1.03155 0.24398 0.26915
 H1490 H 1.02045 0.25687 0.28125
 H1491 H 0.98067 0.24402 0.21841
 H1492 H 0.96707 0.25720 0.23132
 O1493 O 0.71834 1.01563 0.74915
 O1494 O 0.72219 1.01397 0.76968
 O1495 O 0.74937 1.03155 0.73456
 O1496 O 0.76915 1.02810 0.73461
 O1497 O 0.73459 1.00040 0.71833
 O1498 O 0.73542 0.97958 0.72282
 O1499 O 0.78092 0.99925 0.76594
 O1500 O 0.77770 1.01973 0.76325
 O1501 O 0.75092 0.98461 0.78117
 O1502 O 0.72936 0.98558 0.77715
 O1503 O 0.76543 0.96889 0.75132
 O1504 O 0.76468 0.97266 0.72986
 O1505 O 0.78091 0.98474 0.75171
 O1506 O 0.77666 0.98613 0.72934
 O1507 O 0.75109 0.96892 0.76561
 O1508 O 0.72891 0.97334 0.76386
 O1509 O 0.76555 0.99865 0.78101
 O1510 O 0.76146 1.02035 0.77727
 O1511 O 0.71819 1.00099 0.73502
 O1512 O 0.72250 0.97962 0.73645
 O1513 O 0.74899 1.01469 0.71818
 O1514 O 0.77057 1.01271 0.72300
 O1515 O 0.73482 1.03168 0.74869
 O1516 O 0.73763 1.02733 0.77024
 Zr1517 Zr 0.73557 1.01457 0.75642
 O1518 O 0.74588 1.00394 0.76793
 Zr1519 Zr 0.75646 1.01420 0.73539
 O1520 O 0.76783 1.00392 0.74620
 Zr1521 Zr 0.73537 0.99335 0.73568
 O1522 O 0.74597 0.98193 0.74615
 Zr1523 Zr 0.76395 1.00686 0.76425
 O1524 O 0.75370 1.01845 0.75348
 Zr1525 Zr 0.74305 0.98582 0.76421
 O1526 O 0.73153 0.99641 0.75374
 Zr1527 Zr 0.76409 0.98580 0.74339
 O1528 O 0.75349 0.99605 0.73162
 O1529 O 0.73850 1.01134 0.73845
 O1530 O 0.76108 0.98877 0.76138
 C1531 C 0.71329 1.00964 0.74077
 C1532 C 0.74081 1.03660 0.74027
 C1533 C 0.74050 1.00878 0.71326
 C1534 C 0.78575 0.99046 0.76040
 C1535 C 0.75979 0.99008 0.78592
 C1536 C 0.75982 0.96406 0.76003
 H1537 H 0.74402 1.00593 0.77631
 H1538 H 0.74409 0.97354 0.74424
 H1539 H 0.73345 1.01640 0.73331
 H1540 H 0.77624 1.00587 0.74445
 H1541 H 0.77390 1.02726 0.76065
 H1542 H 0.77546 1.02614 0.74043
 H1543 H 0.73063 0.96744 0.75754
 H1544 H 0.71833 0.98053 0.74416
 H1545 H 0.76825 1.01995 0.78290
 H1546 H 0.73125 1.03339 0.76946
 H1547 H 0.75725 0.96796 0.73038
 H1548 H 0.74345 0.97959 0.71922
 H1549 H 0.71873 1.00586 0.76943
 H1550 H 0.73012 0.99291 0.78199
 H1551 H 0.76914 1.00534 0.71836
 H1552 H 0.78264 0.99233 0.73120
 O1553 O 0.71875 0.51588 0.24912
 O1554 O 0.72235 0.51416 0.26957
 O1555 O 0.74977 0.53190 0.23480
 O1556 O 0.76955 0.52843 0.23476
 O1557 O 0.73497 0.50084 0.21836
 O1558 O 0.73591 0.48001 0.22264
 O1559 O 0.78127 0.49943 0.26603
 O1560 O 0.77800 0.51992 0.26348
 O1561 O 0.75125 0.48456 0.28105
 O1562 O 0.73015 0.48531 0.27744
 O1563 O 0.76577 0.46908 0.25099
 O1564 O 0.76527 0.47309 0.22970
 O1565 O 0.78127 0.48494 0.25179
 O1566 O 0.77716 0.48673 0.22935
 O1567 O 0.75140 0.46899 0.26525
 O1568 O 0.72894 0.47387 0.26335
 O1569 O 0.76585 0.49863 0.28103
 O1570 O 0.76174 0.52035 0.27751
 O1571 O 0.71860 0.50123 0.23501
 O1572 O 0.72301 0.47984 0.23625
 O1573 O 0.74936 0.51514 0.21828
 O1574 O 0.77103 0.51311 0.22318
 O1575 O 0.73525 0.53194 0.24895
 O1576 O 0.73799 0.52721 0.27059
 Zr1577 Zr 0.73592 0.51475 0.25650
 O1578 O 0.74620 0.50403 0.26795
 Zr1579 Zr 0.75685 0.51454 0.23550
 O1580 O 0.76821 0.50422 0.24629
 Zr1581 Zr 0.73580 0.49365 0.23563
 O1582 O 0.74640 0.48217 0.24602
 Zr1583 Zr 0.76428 0.50701 0.26435
 O1584 O 0.75406 0.51867 0.25362
 Zr1585 Zr 0.74342 0.48593 0.26409
 O1586 O 0.73190 0.49660 0.25371
 Zr1587 Zr 0.76453 0.48611 0.24333
 O1588 O 0.75391 0.49641 0.23161
 O1589 O 0.73889 0.51164 0.23852
 O1590 O 0.76146 0.48893 0.26133
 C1591 C 0.71370 0.50987 0.24075
 C1592 C 0.74124 0.53691 0.24056
 C1593 C 0.74085 0.50927 0.21333
 C1594 C 0.78610 0.49065 0.26049
 C1595 C 0.76011 0.48999 0.28585
 C1596 C 0.76011 0.46417 0.25961
 H1597 H 0.74432 0.50594 0.27634
 H1598 H 0.74452 0.47380 0.24404
 H1599 H 0.73386 0.51674 0.23341
 H1600 H 0.77662 0.50620 0.24459
 H1601 H 0.77418 0.52748 0.26102
 H1602 H 0.77570 0.52659 0.24077
 H1603 H 0.73093 0.46759 0.25750
 H1604 H 0.71857 0.48085 0.24380
 H1605 H 0.76855 0.51992 0.28313
 H1606 H 0.73181 0.53347 0.26976
 H1607 H 0.75772 0.46857 0.22993
 H1608 H 0.74392 0.48015 0.21897
 H1609 H 0.71877 0.50611 0.26916
 H1610 H 0.72991 0.49323 0.28132
 H1611 H 0.76952 0.50587 0.21835
 H1612 H 0.78328 0.49270 0.23147
 O1613 O 0.48430 0.28136 0.75105
 O1614 O 0.48600 0.27778 0.73054
 O1615 O 0.46826 0.25034 0.76529
 O1616 O 0.47170 0.23054 0.76539
 O1617 O 0.49910 0.26523 0.78173
 O1618 O 0.51998 0.26430 0.77767
 O1619 O 0.50057 0.21879 0.73401
 O1620 O 0.48012 0.22218 0.73646
 O1621 O 0.51564 0.24882 0.71912
 O1622 O 0.51524 0.26954 0.72250
 O1623 O 0.53094 0.23402 0.74918
 O1624 O 0.52752 0.23427 0.76977
 O1625 O 0.51485 0.21860 0.74842
 O1626 O 0.51289 0.22330 0.77119
 O1627 O 0.53118 0.24855 0.73506
 O1628 O 0.52621 0.27116 0.73707
 O1629 O 0.50152 0.23427 0.71905
 O1630 O 0.47988 0.23854 0.72249
 O1631 O 0.49900 0.28152 0.76508
 O1632 O 0.52046 0.27687 0.76390
 O1633 O 0.48489 0.25075 0.78181
 O1634 O 0.48698 0.22893 0.77681
 O1635 O 0.46829 0.26491 0.75118
 O1636 O 0.47304 0.26211 0.72951
 Zr1637 Zr 0.48546 0.26420 0.74361
 O1638 O 0.49620 0.25393 0.73219
 Zr1639 Zr 0.48559 0.24323 0.76460
 O1640 O 0.49584 0.23182 0.75377
 Zr1641 Zr 0.50648 0.26426 0.76454
 O1642 O 0.51793 0.25355 0.75420
 Zr1643 Zr 0.49311 0.23583 0.73571
 O1644 O 0.48148 0.24606 0.74648
 Zr1645 Zr 0.51427 0.25658 0.73612
 O1646 O 0.50360 0.26819 0.74644
 Zr1647 Zr 0.51392 0.23543 0.75681
 O1648 O 0.50371 0.24612 0.76856
 O1649 O 0.48853 0.26120 0.76158
 O1650 O 0.51118 0.23854 0.73880
 C1651 C 0.49035 0.28643 0.75936
 C1652 C 0.46330 0.25892 0.75956
 C1653 C 0.49069 0.25932 0.78676
 C1654 C 0.50921 0.21385 0.73963
 C1655 C 0.51018 0.24000 0.71426
 C1656 C 0.53592 0.23974 0.74062
 H1657 H 0.49438 0.25587 0.72379
 H1658 H 0.52631 0.25536 0.75623
 H1659 H 0.48343 0.26626 0.76667
 H1660 H 0.49381 0.22342 0.75546
 H1661 H 0.47254 0.22606 0.73879
 H1662 H 0.47329 0.22463 0.75906
 H1663 H 0.53255 0.26906 0.74281
 H1664 H 0.51933 0.28154 0.75651
 H1665 H 0.48025 0.23174 0.71686
 H1666 H 0.46674 0.26824 0.73037
 H1667 H 0.53002 0.24253 0.77159
 H1668 H 0.51931 0.25664 0.78199
 H1669 H 0.49376 0.28189 0.73140
 H1670 H 0.50698 0.27123 0.71997
 H1671 H 0.49384 0.23071 0.78207
 H1672 H 0.50736 0.21683 0.76887
 O1673 O 0.25104 0.76612 0.46833
 O1674 O 0.23057 0.76443 0.47199
 O1675 O 0.26550 0.78212 0.49933
 O1676 O 0.26562 0.77864 0.51911
 O1677 O 0.28180 0.75105 0.48444
 O1678 O 0.27744 0.73019 0.48543
 O1679 O 0.23443 0.74974 0.53093
 O1680 O 0.23692 0.77021 0.52762
 O1681 O 0.21913 0.73481 0.50101
 O1682 O 0.22257 0.73557 0.47990
 O1683 O 0.24918 0.71934 0.51537
 O1684 O 0.27048 0.72323 0.51472
 O1685 O 0.24866 0.73526 0.53088
 O1686 O 0.27103 0.73685 0.52659
 O1687 O 0.23492 0.71922 0.50098
 O1688 O 0.23665 0.72418 0.47853
 O1689 O 0.21929 0.74887 0.51563
 O1690 O 0.22277 0.77057 0.51145
 O1691 O 0.26508 0.75142 0.46814
 O1692 O 0.26380 0.73008 0.47251
 O1693 O 0.28197 0.76536 0.49884
 O1694 O 0.27718 0.76333 0.52052
 O1695 O 0.25131 0.78218 0.48483
 O1696 O 0.22965 0.77747 0.48769
 Zr1697 Zr 0.24369 0.76500 0.48553
 O1698 O 0.23226 0.75430 0.49586
 Zr1699 Zr 0.26479 0.76476 0.50639
 O1700 O 0.25404 0.75445 0.51778
 Zr1701 Zr 0.26451 0.74387 0.48534
 O1702 O 0.25412 0.73240 0.49596
 Zr1703 Zr 0.23596 0.75726 0.51392
 O1704 O 0.24667 0.76891 0.50366
 Zr1705 Zr 0.23604 0.73619 0.49306
 O1706 O 0.24641 0.74684 0.48150
 Zr1707 Zr 0.25694 0.73633 0.51406
 O1708 O 0.26864 0.74663 0.50343
 O1709 O 0.26168 0.76186 0.48845
 O1710 O 0.23892 0.73918 0.51109
 C1711 C 0.25936 0.76008 0.46326
 C1712 C 0.25973 0.78714 0.49080
 C1713 C 0.28688 0.75948 0.49032
 C1714 C 0.24001 0.74099 0.53575
 C1715 C 0.21441 0.74023 0.50991
 C1716 C 0.24055 0.71441 0.50970
 H1717 H 0.22386 0.75621 0.49402
 H1718 H 0.25606 0.72403 0.49405
 H1719 H 0.26678 0.76695 0.48340
 H1720 H 0.25580 0.75643 0.52618
 H1721 H 0.23932 0.77778 0.52378
 H1722 H 0.25958 0.77683 0.52525
 H1723 H 0.24253 0.71790 0.48046
 H1724 H 0.25621 0.73106 0.46814
 H1725 H 0.21721 0.77015 0.51829
 H1726 H 0.23046 0.78373 0.48152
 H1727 H 0.27021 0.71875 0.50714
 H1728 H 0.28120 0.73039 0.49340
 H1729 H 0.23101 0.75641 0.46834
 H1730 H 0.21889 0.74357 0.47951
 H1731 H 0.28198 0.75608 0.51900
 H1732 H 0.26909 0.74298 0.53262
 O1733 O 0.21883 0.23411 1.00091
 O1734 O 0.22245 0.23588 0.98041
 O1735 O 0.24981 0.21820 1.01528
 O1736 O 0.26963 0.22167 1.01520
 O1737 O 0.23503 0.24919 1.03167
 O1738 O 0.23592 0.27005 1.02738
 O1739 O 0.28134 0.25083 0.98417
 O1740 O 0.27814 0.23030 0.98669
 O1741 O 0.25135 0.26556 0.96901
 O1742 O 0.23036 0.26486 0.97246
 O1743 O 0.26583 0.28105 0.99911
 O1744 O 0.26514 0.27705 1.02046
 O1745 O 0.28132 0.26522 0.99850
 O1746 O 0.27710 0.26352 1.02086
 O1747 O 0.25144 0.28114 0.98485
 O1748 O 0.22893 0.27613 0.98669
 O1749 O 0.26596 0.25151 0.96908
 O1750 O 0.26193 0.22984 0.97256
 O1751 O 0.21865 0.24876 1.01501
 O1752 O 0.22297 0.27015 1.01377
 O1753 O 0.24946 0.23493 1.03177
 O1754 O 0.27107 0.23696 1.02694
 O1755 O 0.23532 0.21813 1.00108
 O1756 O 0.23817 0.22289 0.97943
 Zr1757 Zr 0.23601 0.23532 0.99352
 O1758 O 0.24630 0.24608 0.98212
 Zr1759 Zr 0.25692 0.23555 1.01456
 O1760 O 0.26827 0.24594 1.00384
 Zr1761 Zr 0.23583 0.25640 1.01440
 O1762 O 0.24641 0.26793 1.00404
 Zr1763 Zr 0.26438 0.24316 0.98576
 O1764 O 0.25415 0.23145 0.99643
 Zr1765 Zr 0.24349 0.26417 0.98595
 O1766 O 0.23195 0.25346 0.99630
 Zr1767 Zr 0.26453 0.26404 1.00682
 O1768 O 0.25393 0.25367 1.01848
 O1769 O 0.23896 0.23843 1.01150
 O1770 O 0.26152 0.26123 0.98879
 C1771 C 0.21377 0.24009 1.00928
 C1772 C 0.24128 0.21317 1.00951
 C1773 C 0.24094 0.24078 1.03671
 C1774 C 0.28616 0.25957 0.98978
 C1775 C 0.26021 0.26013 0.96422
 C1776 C 0.26018 0.28596 0.99047
 H1777 H 0.24444 0.24418 0.97371
 H1778 H 0.24450 0.27630 1.00601
 H1779 H 0.23394 0.23332 1.01661
 H1780 H 0.27668 0.24399 1.00557
 H1781 H 0.27434 0.22270 0.98906
 H1782 H 0.27586 0.22365 1.00932
 H1783 H 0.23090 0.28243 0.99253
 H1784 H 0.21855 0.26913 1.00621
 H1785 H 0.26878 0.23026 0.96700
 H1786 H 0.23201 0.21661 0.98022
 H1787 H 0.25763 0.28163 1.02010
 H1788 H 0.24391 0.26990 1.03110
 H1789 H 0.21870 0.24385 0.98097
 H1790 H 0.22974 0.25678 0.96897
 H1791 H 0.26960 0.24423 1.03171
 H1792 H 0.28314 0.25743 1.01888
 C1793 C 0.29562 0.39226 0.79434
 N1794 N 0.30557 0.38725 0.78964
 N1795 N 0.31072 0.37794 0.79491
 C1796 C 0.30612 0.37332 0.80509
 N1797 N 0.29619 0.37834 0.80979
 N1798 N 0.29103 0.38764 0.80452
 C1799 C 0.28993 0.40254 0.78858
 N1800 N 0.27996 0.40747 0.79330
 N1801 N 0.27487 0.41690 0.78819
 C1802 C 0.27956 0.42173 0.77817
 N1803 N 0.28952 0.41679 0.77342
 N1804 N 0.29461 0.40735 0.77853
 C1805 C 0.27420 0.43240 0.77282
 N1806 N 0.27919 0.43762 0.76312
 N1807 N 0.27466 0.44765 0.75866
 C1808 C 0.26496 0.45281 0.76371
 N1809 N 0.25991 0.44752 0.77333
 N1810 N 0.26443 0.43750 0.77779
 C1811 C 0.29581 -0.10757 0.29461
 N1812 N 0.29125 -0.11221 0.30479
 N1813 N 0.29648 -0.12144 0.31010
 C1814 C 0.30648 -0.12637 0.30542
 N1815 N 0.31107 -0.12172 0.29526
 N1816 N 0.30583 -0.11248 0.28996
 C1817 C 0.28999 -0.09743 0.28873
 N1818 N 0.29466 -0.09265 0.27866
 N1819 N 0.28945 -0.08338 0.27340
 C1820 C 0.27936 -0.07857 0.27800
 N1821 N 0.27467 -0.08337 0.28805
 N1822 N 0.27988 -0.09264 0.29331
 C1823 C 0.27390 -0.06801 0.27252
 N1824 N 0.26405 -0.06297 0.27737
 N1825 N 0.25953 -0.05297 0.27287
 C1826 C 0.26468 -0.04765 0.26331
 N1827 N 0.27444 -0.05278 0.25836
 N1828 N 0.27896 -0.06279 0.26287
 C1829 C 0.79517 0.89226 0.79523
 N1830 N 0.79049 0.88738 0.80524
 N1831 N 0.79575 0.87812 0.81048
 C1832 C 0.80590 0.87340 0.80590
 N1833 N 0.81059 0.87831 0.79590
 N1834 N 0.80532 0.88757 0.79066
 C1835 C 0.78936 0.90247 0.78946
 N1836 N 0.79407 0.90738 0.77947
 N1837 N 0.78889 0.91673 0.77432
 C1838 C 0.77878 0.92150 0.77894
 N1839 N 0.77405 0.91656 0.78890
 N1840 N 0.77923 0.90721 0.79406
 C1841 C 0.77334 0.93210 0.77352
 N1842 N 0.76353 0.93719 0.77844
 N1843 N 0.75899 0.94718 0.77391
 C1844 C 0.76406 0.95242 0.76427
 N1845 N 0.77379 0.94726 0.75929
 N1846 N 0.77834 0.93728 0.76381
 C1847 C 0.45424 0.85707 0.29572
 N1848 N 0.45865 0.86164 0.30602
 N1849 N 0.45330 0.87080 0.31135
 C1850 C 0.44333 0.87570 0.30658
 N1851 N 0.43888 0.87109 0.29633
 N1852 N 0.44423 0.86193 0.29100
 C1853 C 0.46025 0.84712 0.28974
 N1854 N 0.45578 0.84247 0.27951
 N1855 N 0.46118 0.83337 0.27414
 C1856 C 0.47128 0.82862 0.27878
 N1857 N 0.47578 0.83330 0.28898
 N1858 N 0.47038 0.84240 0.29436
 C1859 C 0.47690 0.81821 0.27320
 N1860 N 0.48669 0.81314 0.27815
 N1861 N 0.49131 0.80321 0.27357
 C1862 C 0.48633 0.79801 0.26385
 N1863 N 0.47664 0.80318 0.25880
 N1864 N 0.47202 0.81312 0.26338
 C1865 C -0.04541 0.85741 0.79559
 N1866 N -0.04086 0.86210 0.80577
 N1867 N -0.04611 0.87136 0.81104
 C1868 C -0.05609 0.87627 0.80631
 N1869 N -0.06067 0.87155 0.79616
 N1870 N -0.05543 0.86228 0.79090
 C1871 C -0.03960 0.84726 0.78970
 N1872 N -0.04433 0.84245 0.77966
 N1873 N -0.03913 0.83319 0.77435
 C1874 C -0.02897 0.82844 0.77885
 N1875 N -0.02421 0.83328 0.78887
 N1876 N -0.02942 0.84253 0.79419
 C1877 C -0.02349 0.81794 0.77326
 N1878 N -0.01355 0.81294 0.77798
 N1879 N -0.00898 0.80302 0.77333
 C1880 C -0.01416 0.79775 0.76375
 N1881 N -0.02402 0.80283 0.75893
 N1882 N -0.02859 0.81275 0.76359
 C1883 C -0.04460 -0.10826 -0.04493
 N1884 N -0.03997 -0.11309 -0.05500
 N1885 N -0.04528 -0.12232 -0.06027
 C1886 C -0.05541 -0.12704 -0.05567
 N1887 N -0.06005 -0.12218 -0.04562
 N1888 N -0.05475 -0.11295 -0.04035
 C1889 C -0.03875 -0.09810 -0.03910
 N1890 N -0.04343 -0.09325 -0.02906
 N1891 N -0.03823 -0.08392 -0.02386
 C1892 C -0.02816 -0.07911 -0.02850
 N1893 N -0.02346 -0.08399 -0.03851
 N1894 N -0.02865 -0.09332 -0.04371
 C1895 C -0.02277 -0.06848 -0.02309
 N1896 N -0.01303 -0.06332 -0.02805
 N1897 N -0.00858 -0.05326 -0.02357
 C1898 C -0.01369 -0.04801 -0.01395
 N1899 N -0.02335 -0.05324 -0.00891
 N1900 N -0.02780 -0.06330 -0.01339
 C1901 C -0.04551 0.39242 0.45508
 N1902 N -0.04060 0.38745 0.44522
 N1903 N -0.04573 0.37812 0.43996
 C1904 C -0.05597 0.37343 0.44435
 N1905 N -0.06092 0.37846 0.45418
 N1906 N -0.05578 0.38778 0.45944
 C1907 C -0.03977 0.40262 0.46093
 N1908 N -0.04455 0.40752 0.47090
 N1909 N -0.03937 0.41682 0.47615
 C1910 C -0.02920 0.42155 0.47164
 N1911 N -0.02440 0.41663 0.46170
 N1912 N -0.02958 0.40733 0.45645
 C1913 C -0.02374 0.43211 0.47714
 N1914 N -0.01390 0.43716 0.47227
 N1915 N -0.00935 0.44713 0.47683
 C1916 C -0.01443 0.45239 0.48646
 N1917 N -0.02419 0.44726 0.49141
 N1918 N -0.02875 0.43729 0.48684
 C1919 C 0.45514 -0.10792 0.45523
 N1920 N 0.45987 -0.11277 0.44521
 N1921 N 0.45466 -0.12205 0.43992
 C1922 C 0.44451 -0.12683 0.44444
 N1923 N 0.43979 -0.12196 0.45446
 N1924 N 0.44500 -0.11269 0.45975
 C1925 C 0.46085 -0.09764 0.46106
 N1926 N 0.45596 -0.09265 0.47093
 N1927 N 0.46105 -0.08325 0.47613
 C1928 C 0.47123 -0.07851 0.47167
 N1929 N 0.47614 -0.08352 0.46181
 N1930 N 0.47106 -0.09292 0.45661
 C1931 C 0.47661 -0.06786 0.47713
 N1932 N 0.48660 -0.06292 0.47246
 N1933 N 0.49112 -0.05292 0.47701
 C1934 C 0.48584 -0.04750 0.48645
 N1935 N 0.47591 -0.05250 0.49120
 N1936 N 0.47139 -0.06250 0.48664
 C1937 C 0.45472 0.39190 -0.04454
 N1938 N 0.45929 0.38725 -0.05472
 N1939 N 0.45411 0.37795 -0.05998
 C1940 C 0.44416 0.37295 -0.05527
 N1941 N 0.43959 0.37760 -0.04508
 N1942 N 0.44477 0.38691 -0.03982
 C1943 C 0.46042 0.40221 -0.03879
 N1944 N 0.45582 0.40699 -0.02868
 N1945 N 0.46093 0.41643 -0.02358
 C1946 C 0.47084 0.42142 -0.02839
 N1947 N 0.47545 0.41661 -0.03848
 N1948 N 0.47035 0.40718 -0.04358
 C1949 C 0.47624 0.43208 -0.02303
 N1950 N 0.48594 0.43724 -0.02806
 N1951 N 0.49048 0.44725 -0.02358
 C1952 C 0.48552 0.45248 -0.01387
 N1953 N 0.47588 0.44726 -0.00876
 N1954 N 0.47134 0.43723 -0.01324
 C1955 C 0.79525 0.35807 0.45554
 N1956 N 0.80554 0.36269 0.45991
 N1957 N 0.81096 0.37165 0.45435
 C1958 C 0.80631 0.37629 0.44421
 N1959 N 0.79605 0.37163 0.43981
 N1960 N 0.79063 0.36267 0.44537
 C1961 C 0.78923 0.34823 0.46169
 N1962 N 0.77892 0.34365 0.45734
 N1963 N 0.77359 0.33456 0.46278
 C1964 C 0.77835 0.32974 0.47279
 N1965 N 0.78863 0.33436 0.47718
 N1966 N 0.79396 0.34346 0.47174
 C1967 C 0.77287 0.31925 0.47833
 N1968 N 0.77805 0.31394 0.48788
 N1969 N 0.77362 0.30386 0.49231
 C1970 C 0.76382 0.29874 0.48738
 N1971 N 0.75854 0.30416 0.47795
 N1972 N 0.76297 0.31424 0.47353
 C1973 C 0.79477 0.85850 -0.04398
 N1974 N 0.79022 0.86304 -0.05421
 N1975 N 0.79562 0.87205 -0.05973
 C1976 C 0.80578 0.87682 -0.05523
 N1977 N 0.81035 0.87227 -0.04501
 N1978 N 0.80495 0.86326 -0.03949
 C1979 C 0.78883 0.84855 -0.03793
 N1980 N 0.79356 0.84374 -0.02790
 N1981 N 0.78828 0.83455 -0.02256
 C1982 C 0.77806 0.82988 -0.02702
 N1983 N 0.77329 0.83473 -0.03701
 N1984 N 0.77857 0.84391 -0.04236
 C1985 C 0.77262 0.81933 -0.02154
 N1986 N 0.76272 0.81433 -0.02636
 N1987 N 0.75831 0.80423 -0.02198
 C1988 C 0.76361 0.79878 -0.01258
 N1989 N 0.77340 0.80389 -0.00763
 N1990 N 0.77781 0.81399 -0.01202
 C1991 C 0.79429 0.29411 0.39116
 N1992 N 0.80428 0.28938 0.38627
 N1993 N 0.80969 0.29478 0.37720
 C1994 C 0.80532 0.30513 0.37272
 N1995 N 0.79534 0.30986 0.37762
 N1996 N 0.78993 0.30446 0.38668
 C1997 C 0.78838 0.28825 0.40124
 N1998 N 0.77850 0.29312 0.40622
 N1999 N 0.77329 0.28798 0.41555
 C2000 C 0.77776 0.27777 0.42023
 N2001 N 0.78761 0.27286 0.41521
 N2002 N 0.79281 0.27800 0.40587
 C2003 C 0.77240 0.27246 0.43090
 N2004 N 0.77730 0.26265 0.43600
 N2005 N 0.77294 0.25831 0.44613
 C2006 C 0.76349 0.26358 0.45153
 N2007 N 0.75849 0.27331 0.44635
 N2008 N 0.76286 0.27765 0.43621
 C2009 C 0.79399 0.79508 -0.10857
 N2010 N 0.78942 0.80522 -0.11333
 N2011 N 0.79486 0.81063 -0.12238
 C2012 C 0.80508 0.80611 -0.12698
 N2013 N 0.80965 0.79598 -0.12222
 N2014 N 0.80421 0.79057 -0.11318
 C2015 C 0.78807 0.78916 -0.09852
 N2016 N 0.79275 0.77908 -0.09373
 N2017 N 0.78755 0.77384 -0.08445
 C2018 C 0.77747 0.77845 -0.07963
 N2019 N 0.77276 0.78850 -0.08445
 N2020 N 0.77796 0.79374 -0.09374
 C2021 C 0.77210 0.77300 -0.06901
 N2022 N 0.76239 0.77795 -0.06378
 N2023 N 0.75802 0.77347 -0.05371
 C2024 C 0.76317 0.76384 -0.04850
 N2025 N 0.77279 0.75880 -0.05382
 N2026 N 0.77715 0.76327 -0.06389
 C2027 C 0.29560 0.45487 0.85747
 N2028 N 0.30577 0.45942 0.86218
 N2029 N 0.31101 0.45417 0.87144
 C2030 C 0.30627 0.44417 0.87633
 N2031 N 0.29612 0.43960 0.87159
 N2032 N 0.29089 0.44484 0.86233
 C2033 C 0.28975 0.46068 0.84730
 N2034 N 0.27975 0.45594 0.84243
 N2035 N 0.27450 0.46114 0.83315
 C2036 C 0.27903 0.47131 0.82842
 N2037 N 0.28901 0.47608 0.83332
 N2038 N 0.29427 0.47087 0.84260
 C2039 C 0.27351 0.47678 0.81789
 N2040 N 0.27825 0.48675 0.81295
 N2041 N 0.27366 0.49133 0.80301
 C2042 C 0.26413 0.48613 0.79766
 N2043 N 0.25931 0.47624 0.80268
 N2044 N 0.26390 0.47166 0.81262
 C2045 C 0.29566 -0.04488 0.35747
 N2046 N 0.29119 -0.05510 0.36215
 N2047 N 0.29643 -0.06027 0.37145
 C2048 C 0.30634 -0.05543 0.37641
 N2049 N 0.31082 -0.04522 0.37172
 N2050 N 0.30558 -0.04004 0.36243
 C2051 C 0.28982 -0.03916 0.34724
 N2052 N 0.29419 -0.02888 0.34260
 N2053 N 0.28892 -0.02375 0.33328
 C2054 C 0.27908 -0.02870 0.32827
 N2055 N 0.27470 -0.03896 0.33294
 N2056 N 0.27996 -0.04408 0.34226
 C2057 C 0.27353 -0.02329 0.31772
 N2058 N 0.26397 -0.02851 0.31244
 N2059 N 0.25936 -0.02400 0.30248
 C2060 C 0.26410 -0.01408 0.29745
 N2061 N 0.27357 -0.00878 0.30281
 N2062 N 0.27818 -0.01329 0.31277
 C2063 C -0.04544 -0.04606 -0.10727
 N2064 N -0.04103 -0.05631 -0.11197
 N2065 N -0.04627 -0.06141 -0.12133
 C2066 C -0.05610 -0.05647 -0.12634
 N2067 N -0.06053 -0.04625 -0.12160
 N2068 N -0.05530 -0.04115 -0.11224
 C2069 C -0.03964 -0.04035 -0.09702
 N2070 N -0.04424 -0.03025 -0.09221
 N2071 N -0.03903 -0.02507 -0.08288
 C2072 C -0.02901 -0.02979 -0.07804
 N2073 N -0.02439 -0.03988 -0.08286
 N2074 N -0.02961 -0.04506 -0.09219
 C2075 C -0.02351 -0.02429 -0.06751
 N2076 N -0.01365 -0.02913 -0.06246
 N2077 N -0.00904 -0.02449 -0.05255
 C2078 C -0.01410 -0.01480 -0.04735
 N2079 N -0.02389 -0.00989 -0.05246
 N2080 N -0.02850 -0.01453 -0.06237
 C2081 C -0.04530 0.45456 0.39252
 N2082 N -0.05529 0.45929 0.38763
 N2083 N -0.06054 0.45405 0.37836
 C2084 C -0.05600 0.44388 0.37363
 N2085 N -0.04602 0.43913 0.37855
 N2086 N -0.04077 0.44437 0.38782
 C2087 C -0.03949 0.46035 0.40272
 N2088 N -0.02953 0.45557 0.40764
 N2089 N -0.02434 0.46075 0.41697
 C2090 C -0.02889 0.47091 0.42172
 N2091 N -0.03882 0.47571 0.41677
 N2092 N -0.04402 0.47053 0.40744
 C2093 C -0.02342 0.47636 0.43229
 N2094 N -0.02824 0.48625 0.43732
 N2095 N -0.02367 0.49081 0.44729
 C2096 C -0.01408 0.48567 0.45257
 N2097 N -0.00918 0.47585 0.44747
 N2098 N -0.01376 0.47129 0.43751
 C2099 C 0.45509 -0.04552 0.39261
 N2100 N 0.45995 -0.05536 0.38750
 N2101 N 0.45470 -0.06056 0.37820
 C2102 C 0.44440 -0.05614 0.37370
 N2103 N 0.43953 -0.04632 0.37882
 N2104 N 0.44478 -0.04111 0.38810
 C2105 C 0.46086 -0.03979 0.40287
 N2106 N 0.45612 -0.02982 0.40783
 N2107 N 0.46127 -0.02470 0.41721
 C2108 C 0.47136 -0.02934 0.42199
 N2109 N 0.47612 -0.03929 0.41702
 N2110 N 0.47098 -0.04441 0.40762
 C2111 C 0.47679 -0.02391 0.43259
 N2112 N 0.48654 -0.02887 0.43774
 N2113 N 0.49110 -0.02429 0.44770
 C2114 C 0.48611 -0.01455 0.45285
 N2115 N 0.47642 -0.00953 0.44764
 N2116 N 0.47186 -0.01411 0.43768
 C2117 C 0.45490 0.45507 -0.10785
 N2118 N 0.44474 0.45963 -0.11256
 N2119 N 0.43948 0.45436 -0.12181
 C2120 C 0.44420 0.44434 -0.12668
 N2121 N 0.45435 0.43978 -0.12197
 N2122 N 0.45960 0.44504 -0.11271
 C2123 C 0.46069 0.46084 -0.09763
 N2124 N 0.47075 0.45617 -0.09283
 N2125 N 0.47590 0.46130 -0.08345
 C2126 C 0.47119 0.47130 -0.07854
 N2127 N 0.46115 0.47599 -0.08337
 N2128 N 0.45600 0.47087 -0.09275
 C2129 C 0.47655 0.47665 -0.06788
 N2130 N 0.47153 0.48636 -0.06269
 N2131 N 0.47600 0.49083 -0.05265
 C2132 C 0.48567 0.48579 -0.04744
 N2133 N 0.49076 0.47615 -0.05268
 N2134 N 0.48629 0.47167 -0.06273
 C2135 C 0.45493 0.79603 0.35733
 N2136 N 0.45924 0.80641 0.36184
 N2137 N 0.45397 0.81163 0.37111
 C2138 C 0.44420 0.80666 0.37620
 N2139 N 0.43988 0.79630 0.37168
 N2140 N 0.44513 0.79109 0.36240
 C2141 C 0.46075 0.79023 0.34714
 N2142 N 0.45618 0.78008 0.34240
 N2143 N 0.46137 0.77489 0.33307
 C2144 C 0.47134 0.77964 0.32816
 N2145 N 0.47594 0.78977 0.33294
 N2146 N 0.47075 0.79497 0.34226
 C2147 C 0.47676 0.77419 0.31757
 N2148 N 0.48658 0.77908 0.31249
 N2149 N 0.49111 0.77450 0.30252
 C2150 C 0.48601 0.76485 0.29728
 N2151 N 0.47625 0.75990 0.30243
 N2152 N 0.47173 0.76447 0.31240
 C2153 C -0.04512 0.79554 0.85726
 N2154 N -0.05486 0.79048 0.86233
 N2155 N -0.06026 0.79570 0.87151
 C2156 C -0.05614 0.80618 0.87594
 N2157 N -0.04645 0.81128 0.87083
 N2158 N -0.04105 0.80606 0.86164
 C2159 C -0.03909 0.78970 0.84723
 N2160 N -0.02925 0.79464 0.84226
 N2161 N -0.02388 0.78941 0.83306
 C2162 C -0.02814 0.77903 0.82853
 N2163 N -0.03795 0.77406 0.83354
 N2164 N -0.04331 0.77929 0.84274
 C2165 C -0.02262 0.77359 0.81800
 N2166 N -0.02736 0.76362 0.81303
 N2167 N -0.02286 0.75912 0.80303
 C2168 C -0.01341 0.76439 0.79763
 N2169 N -0.00857 0.77427 0.80268
 N2170 N -0.01308 0.77878 0.81269
 C2171 C 0.39286 0.79520 0.29523
 N2172 N 0.38819 0.79069 0.30542
 N2173 N 0.37891 0.79593 0.31062
 C2174 C 0.37397 0.80588 0.30582
 N2175 N 0.37866 0.81041 0.29566
 N2176 N 0.38794 0.80517 0.29046
 C2177 C 0.40302 0.78937 0.28944
 N2178 N 0.40773 0.79392 0.27930
 N2179 N 0.41701 0.78868 0.27409
 C2180 C 0.42188 0.77868 0.27882
 N2181 N 0.41714 0.77410 0.28895
 N2182 N 0.40787 0.77935 0.29416
 C2183 C 0.43242 0.77321 0.27337
 N2184 N 0.43756 0.76346 0.27833
 N2185 N 0.44756 0.75895 0.27383
 C2186 C 0.45277 0.76402 0.26418
 N2187 N 0.44755 0.77368 0.25912
 N2188 N 0.43754 0.77818 0.26362
 C2189 C -0.10750 0.79545 0.79526
 N2190 N -0.11231 0.80552 0.79058
 N2191 N -0.12165 0.81071 0.79573
 C2192 C -0.12653 0.80603 0.80575
 N2193 N -0.12171 0.79598 0.81043
 N2194 N -0.11237 0.79078 0.80528
 C2195 C -0.09719 0.78972 0.78957
 N2196 N -0.09234 0.77968 0.79428
 N2197 N -0.08295 0.77453 0.78917
 C2198 C -0.07807 0.77921 0.77915
 N2199 N -0.08293 0.78923 0.77444
 N2200 N -0.09232 0.79439 0.77955
 C2201 C -0.06747 0.77377 0.77375
 N2202 N -0.06234 0.77873 0.76400
 N2203 N -0.05236 0.77419 0.75946
 C2204 C -0.04716 0.76449 0.76449
 N2205 N -0.05236 0.75946 0.77417
 N2206 N -0.06234 0.76400 0.77870
 C2207 C 0.85874 0.29485 0.45564
 N2208 N 0.86345 0.29027 0.44550
 N2209 N 0.87252 0.29567 0.44010
 C2210 C 0.87718 0.30588 0.44464
 N2211 N 0.87245 0.31049 0.45476
 N2212 N 0.86338 0.30508 0.46016
 C2213 C 0.84873 0.28888 0.46155
 N2214 N 0.84406 0.29335 0.47177
 N2215 N 0.83482 0.28804 0.47698
 C2216 C 0.82992 0.27807 0.47217
 N2217 N 0.83463 0.27357 0.46198
 N2218 N 0.84388 0.27887 0.45678
 C2219 C 0.81934 0.27259 0.47753
 N2220 N 0.81408 0.26301 0.47232
 N2221 N 0.80402 0.25852 0.47671
 C2222 C 0.79886 0.26341 0.48649
 N2223 N 0.80421 0.27290 0.49178
 N2224 N 0.81427 0.27739 0.48740
 C2225 C 0.85821 0.79423 -0.04494
 N2226 N 0.86327 0.78933 -0.05477
 N2227 N 0.87237 0.79470 -0.06016
 C2228 C 0.87671 0.80518 -0.05594
 N2229 N 0.87161 0.81011 -0.04615
 N2230 N 0.86252 0.80474 -0.04075
 C2231 C 0.84827 0.78827 -0.03894
 N2232 N 0.84347 0.79296 -0.02889
 N2233 N 0.83433 0.78762 -0.02353
 C2234 C 0.82967 0.77740 -0.02803
 N2235 N 0.83451 0.77268 -0.03806
 N2236 N 0.84366 0.77800 -0.04340
 C2237 C 0.81915 0.77193 -0.02256
 N2238 N 0.81390 0.76227 -0.02763
 N2239 N 0.80381 0.75788 -0.02323
 C2240 C 0.79861 0.76295 -0.01356
 N2241 N 0.80397 0.77249 -0.00837
 N2242 N 0.81406 0.77689 -0.01278
 C2243 C -0.10747 -0.04517 -0.04523
 N2244 N -0.11212 -0.04070 -0.05546
 N2245 N -0.12136 -0.04599 -0.06071
 C2246 C -0.12628 -0.05596 -0.05594
 N2247 N -0.12161 -0.06045 -0.04573
 N2248 N -0.11237 -0.05516 -0.04048
 C2249 C -0.09729 -0.03932 -0.03945
 N2250 N -0.09251 -0.04387 -0.02932
 N2251 N -0.08318 -0.03864 -0.02417
 C2252 C -0.07830 -0.02865 -0.02894
 N2253 N -0.08311 -0.02407 -0.03904
 N2254 N -0.09244 -0.02930 -0.04419
 C2255 C -0.06770 -0.02321 -0.02354
 N2256 N -0.06253 -0.01349 -0.02855
 N2257 N -0.05251 -0.00898 -0.02406
 C2258 C -0.04731 -0.01400 -0.01437
 N2259 N -0.05255 -0.02364 -0.00928
 N2260 N -0.06257 -0.02815 -0.01377
 C2261 C -0.10708 0.45434 0.45431
 N2262 N -0.11183 0.44422 0.45892
 N2263 N -0.12107 0.43893 0.45368
 C2264 C -0.12589 0.44357 0.44361
 N2265 N -0.12111 0.45366 0.43896
 N2266 N -0.11187 0.45894 0.44421
 C2267 C -0.09697 0.46024 0.46016
 N2268 N -0.09224 0.47038 0.45557
 N2269 N -0.08300 0.47567 0.46082
 C2270 C -0.07818 0.47104 0.47089
 N2271 N -0.08293 0.46092 0.47551
 N2272 N -0.09217 0.45563 0.47025
 C2273 C -0.06766 0.47655 0.47640
 N2274 N -0.06253 0.47156 0.48614
 N2275 N -0.05257 0.47611 0.49072
 C2276 C -0.04740 0.48585 0.48576
 N2277 N -0.05261 0.49092 0.47610
 N2278 N -0.06256 0.48637 0.47152
 C2279 C 0.39255 -0.04442 0.45429
 N2280 N 0.38780 -0.05451 0.45896
 N2281 N 0.37851 -0.05979 0.45379
 C2282 C 0.37361 -0.05518 0.44373
 N2283 N 0.37838 -0.04509 0.43905
 N2284 N 0.38768 -0.03982 0.44423
 C2285 C 0.40279 -0.03861 0.46004
 N2286 N 0.40762 -0.02855 0.45538
 N2287 N 0.41696 -0.02335 0.46057
 C2288 C 0.42177 -0.02800 0.47064
 N2289 N 0.41691 -0.03803 0.47532
 N2290 N 0.40759 -0.04323 0.47013
 C2291 C 0.43234 -0.02254 0.47614
 N2292 N 0.43733 -0.02742 0.48601
 N2293 N 0.44729 -0.02291 0.49062
 C2294 C 0.45263 -0.01331 0.48555
 N2295 N 0.44756 -0.00834 0.47576
 N2296 N 0.43759 -0.01285 0.47116
 C2297 C 0.39249 0.45485 -0.04590
 N2298 N 0.38750 0.44500 -0.04099
 N2299 N 0.37817 0.43975 -0.04613
 C2300 C 0.37349 0.44415 -0.05638
 N2301 N 0.37854 0.45398 -0.06132
 N2302 N 0.38786 0.45923 -0.05617
 C2303 C 0.40271 0.46068 -0.04015
 N2304 N 0.40761 0.47065 -0.04491
 N2305 N 0.41693 0.47588 -0.03972
 C2306 C 0.42166 0.47133 -0.02956
 N2307 N 0.41673 0.46137 -0.02479
 N2308 N 0.40742 0.45615 -0.02998
 C2309 C 0.43219 0.47683 -0.02408
 N2310 N 0.43727 0.47192 -0.01426
 N2311 N 0.44718 0.47652 -0.00965
 C2312 C 0.45237 0.48624 -0.01464
 N2313 N 0.44723 0.49122 -0.02439
 N2314 N 0.43731 0.48661 -0.02901
 C2315 C 0.35765 0.45523 0.79535
 N2316 N 0.36246 0.45978 0.80548
 N2317 N 0.37174 0.45450 0.81065
 C2318 C 0.37655 0.44448 0.80587
 N2319 N 0.37174 0.43992 0.79576
 N2320 N 0.36245 0.44519 0.79059
 C2321 C 0.34743 0.46103 0.78965
 N2322 N 0.34258 0.45641 0.77958
 N2323 N 0.33323 0.46160 0.77446
 C2324 C 0.32839 0.47161 0.77922
 N2325 N 0.33325 0.47625 0.78928
 N2326 N 0.34260 0.47106 0.79440
 C2327 C 0.31781 0.47706 0.77383
 N2328 N 0.31266 0.48680 0.77883
 N2329 N 0.30270 0.49136 0.77429
 C2330 C 0.29754 0.48636 0.76455
 N2331 N 0.30275 0.47668 0.75949
 N2332 N 0.31271 0.47213 0.76403
 C2333 C 0.35734 -0.04553 0.29569
 N2334 N 0.36257 -0.05517 0.29059
 N2335 N 0.37188 -0.06041 0.29575
 C2336 C 0.37627 -0.05622 0.30621
 N2337 N 0.37101 -0.04661 0.31134
 N2338 N 0.36171 -0.04136 0.30617
 C2339 C 0.34715 -0.03969 0.28995
 N2340 N 0.34212 -0.02984 0.29485
 N2341 N 0.33283 -0.02459 0.28966
 C2342 C 0.32824 -0.02900 0.27937
 N2343 N 0.33329 -0.03884 0.27446
 N2344 N 0.34259 -0.04407 0.27964
 C2345 C 0.31773 -0.02350 0.27387
 N2346 N 0.31276 -0.02836 0.26398
 N2347 N 0.30284 -0.02378 0.25935
 C2348 C 0.29757 -0.01414 0.26441
 N2349 N 0.30261 -0.00921 0.27424
 N2350 N 0.31253 -0.01380 0.27888
 C2351 C 0.14144 0.54413 0.70590
 N2352 N 0.13682 0.53962 0.69567
 N2353 N 0.12770 0.54498 0.69030
 C2354 C 0.12289 0.55505 0.69496
 N2355 N 0.12753 0.55958 0.70516
 N2356 N 0.13665 0.55423 0.71053
 C2357 C 0.15149 0.53826 0.71184
 N2358 N 0.15630 0.54300 0.72188
 N2359 N 0.16556 0.53781 0.72716
 C2360 C 0.17033 0.52766 0.72262
 N2361 N 0.16549 0.52289 0.71261
 N2362 N 0.15623 0.52808 0.70733
 C2363 C 0.18092 0.52229 0.72809
 N2364 N 0.18603 0.51247 0.72321
 N2365 N 0.19612 0.50810 0.72765
 C2366 C 0.20146 0.51336 0.73715
 N2367 N 0.19625 0.52309 0.74212
 N2368 N 0.18616 0.52746 0.73769
 C2369 C 0.14079 0.04367 0.20665
 N2370 N 0.13652 0.05422 0.21076
 N2371 N 0.12746 0.05959 0.20529
 C2372 C 0.12235 0.05462 0.19552
 N2373 N 0.12661 0.04406 0.19142
 N2374 N 0.13567 0.03869 0.19688
 C2375 C 0.15093 0.03786 0.21253
 N2376 N 0.15549 0.02755 0.20813
 N2377 N 0.16490 0.02245 0.21326
 C2378 C 0.17008 0.02745 0.22298
 N2379 N 0.16548 0.03774 0.22741
 N2380 N 0.15608 0.04284 0.22228
 C2381 C 0.18082 0.02216 0.22823
 N2382 N 0.18628 0.02742 0.23766
 N2383 N 0.19648 0.02308 0.24191
 C2384 C 0.20157 0.01331 0.23691
 N2385 N 0.19603 0.00796 0.22758
 N2386 N 0.18583 0.01229 0.22334
 C2387 C 0.60903 0.70622 0.20584
 N2388 N 0.61364 0.69596 0.21028
 N2389 N 0.62272 0.69059 0.20488
 C2390 C 0.62753 0.69526 0.19483
 N2391 N 0.62292 0.70552 0.19038
 N2392 N 0.61383 0.71090 0.19578
 C2393 C 0.59894 0.71206 0.21176
 N2394 N 0.59427 0.72230 0.20734
 N2395 N 0.58496 0.72745 0.21259
 C2396 C 0.58000 0.72256 0.22247
 N2397 N 0.58471 0.71235 0.22692
 N2398 N 0.59401 0.70720 0.22167
 C2399 C 0.56937 0.72790 0.22790
 N2400 N 0.56408 0.72267 0.23743
 N2401 N 0.55397 0.72703 0.24185
 C2402 C 0.54882 0.73681 0.23694
 N2403 N 0.55421 0.74213 0.22752
 N2404 N 0.56431 0.73777 0.22310
 C2405 C 0.10906 0.70583 0.70613
 N2406 N 0.11366 0.71042 0.69595
 N2407 N 0.12275 0.70509 0.69050
 C2408 C 0.12755 0.69496 0.69503
 N2409 N 0.12295 0.69036 0.70521
 N2410 N 0.11386 0.69569 0.71066
 C2411 C 0.09896 0.71167 0.71205
 N2412 N 0.09418 0.70700 0.72211
 N2413 N 0.08485 0.71218 0.72731
 C2414 C 0.08000 0.72223 0.72265
 N2415 N 0.08482 0.72693 0.71262
 N2416 N 0.09414 0.72175 0.70742
 C2417 C 0.06933 0.72758 0.72800
 N2418 N 0.06419 0.73733 0.72302
 N2419 N 0.05405 0.74169 0.72735
 C2420 C 0.04868 0.73649 0.73685
 N2421 N 0.05391 0.72683 0.74192
 N2422 N 0.06405 0.72247 0.73759
 C2423 C 0.64251 0.20477 0.54427
 N2424 N 0.63748 0.19482 0.53954
 N2425 N 0.62818 0.18967 0.54481
 C2426 C 0.62359 0.19427 0.55501
 N2427 N 0.62863 0.20420 0.55974
 N2428 N 0.63792 0.20935 0.55447
 C2429 C 0.65277 0.21047 0.53850
 N2430 N 0.65772 0.22044 0.54324
 N2431 N 0.66712 0.22555 0.53812
 C2432 C 0.67190 0.22088 0.52804
 N2433 N 0.66694 0.21092 0.52327
 N2434 N 0.65753 0.20582 0.52840
 C2435 C 0.68254 0.22627 0.52267
 N2436 N 0.68770 0.22130 0.51293
 N2437 N 0.69771 0.22582 0.50845
 C2438 C 0.70291 0.23550 0.51353
 N2439 N 0.69769 0.24054 0.52320
 N2440 N 0.68768 0.23601 0.52768
 C2441 C 0.64237 0.70537 0.04497
 N2442 N 0.63763 0.71000 0.05509
 N2443 N 0.62839 0.70473 0.06035
 C2444 C 0.62358 0.69465 0.05570
 N2445 N 0.62834 0.69001 0.04561
 N2446 N 0.63757 0.69527 0.04034
 C2447 C 0.65252 0.71116 0.03911
 N2448 N 0.65728 0.70642 0.02905
 N2449 N 0.66659 0.71156 0.02380
 C2450 C 0.67146 0.72164 0.02839
 N2451 N 0.66668 0.72640 0.03842
 N2452 N 0.65737 0.72126 0.04368
 C2453 C 0.68205 0.72699 0.02290
 N2454 N 0.68723 0.73677 0.02780
 N2455 N 0.69726 0.74119 0.02327
 C2456 C 0.70246 0.73603 0.01365
 N2457 N 0.69720 0.72633 0.00867
 N2458 N 0.68717 0.72190 0.01320
 C2459 C 0.10900 0.04399 0.04402
 N2460 N 0.11339 0.05443 0.03979
 N2461 N 0.12249 0.05980 0.04520
 C2462 C 0.12753 0.05492 0.05505
 N2463 N 0.12313 0.04449 0.05929
 N2464 N 0.11402 0.03913 0.05388
 C2465 C 0.09893 0.03810 0.03807
 N2466 N 0.09433 0.02782 0.04247
 N2467 N 0.08505 0.02261 0.03721
 C2468 C 0.08007 0.02746 0.02732
 N2469 N 0.08471 0.03771 0.02289
 N2470 N 0.09398 0.04293 0.02816
 C2471 C 0.06944 0.02208 0.02190
 N2472 N 0.06414 0.02724 0.01234
 N2473 N 0.05401 0.02288 0.00797
 C2474 C 0.04881 0.01317 0.01297
 N2475 N 0.05421 0.00790 0.02242
 N2476 N 0.06434 0.01227 0.02679
 C2477 C 0.10888 0.54428 0.54426
 N2478 N 0.11344 0.55456 0.53983
 N2479 N 0.12255 0.55995 0.54521
 C2480 C 0.12740 0.55527 0.55524
 N2481 N 0.12283 0.54500 0.55969
 N2482 N 0.11372 0.53960 0.55430
 C2483 C 0.09879 0.53840 0.53833
 N2484 N 0.09416 0.52814 0.54275
 N2485 N 0.08487 0.52294 0.53748
 C2486 C 0.07990 0.52779 0.52759
 N2487 N 0.08457 0.53803 0.52315
 N2488 N 0.09385 0.54322 0.52841
 C2489 C 0.06927 0.52242 0.52215
 N2490 N 0.06395 0.52765 0.51263
 N2491 N 0.05383 0.52328 0.50822
 C2492 C 0.04869 0.51349 0.51313
 N2493 N 0.05411 0.50817 0.52254
 N2494 N 0.06423 0.51254 0.52695
 C2495 C 0.60854 0.04490 0.54464
 N2496 N 0.61348 0.04006 0.55454
 N2497 N 0.62253 0.04544 0.56001
 C2498 C 0.62693 0.05589 0.55580
 N2499 N 0.62196 0.06076 0.54592
 N2500 N 0.61291 0.05537 0.54045
 C2501 C 0.59858 0.03894 0.53862
 N2502 N 0.59369 0.04371 0.52865
 N2503 N 0.58448 0.03843 0.52333
 C2504 C 0.57985 0.02818 0.52779
 N2505 N 0.58479 0.02338 0.53772
 N2506 N 0.59400 0.02866 0.54303
 C2507 C 0.56926 0.02277 0.52235
 N2508 N 0.56417 0.01296 0.52726
 N2509 N 0.55405 0.00857 0.52287
 C2510 C 0.54868 0.01381 0.51339
 N2511 N 0.55387 0.02352 0.50839
 N2512 N 0.56399 0.02791 0.51278
 C2513 C 0.60898 0.54414 0.04366
 N2514 N 0.61356 0.53964 0.05389
 N2515 N 0.62267 0.54500 0.05931
 C2516 C 0.62752 0.55506 0.05469
 N2517 N 0.62296 0.55956 0.04444
 N2518 N 0.61385 0.55421 0.03903
 C2519 C 0.59882 0.53832 0.03780
 N2520 N 0.59404 0.54296 0.02772
 N2521 N 0.58464 0.53783 0.02258
 C2522 C 0.57970 0.52786 0.02733
 N2523 N 0.58452 0.52320 0.03739
 N2524 N 0.59391 0.52833 0.04252
 C2525 C 0.56898 0.52255 0.02201
 N2526 N 0.56377 0.51286 0.02704
 N2527 N 0.55363 0.50851 0.02269
 C2528 C 0.54833 0.51364 0.01311
 N2529 N 0.55362 0.52324 0.00799
 N2530 N 0.56377 0.52759 0.01234
 C2531 C 0.04445 0.04320 0.10894
 N2532 N 0.05473 0.03881 0.11355
 N2533 N 0.06014 0.04432 0.12256
 C2534 C 0.05548 0.05445 0.12727
 N2535 N 0.04522 0.05885 0.12264
 N2536 N 0.03981 0.05334 0.11363
 C2537 C 0.03850 0.03720 0.09894
 N2538 N 0.02832 0.04172 0.09427
 N2539 N 0.02307 0.03647 0.08500
 C2540 C 0.02781 0.02647 0.08010
 N2541 N 0.03796 0.02191 0.08482
 N2542 N 0.04320 0.02717 0.09409
 C2543 C 0.02244 0.02111 0.06944
 N2544 N 0.02757 0.01153 0.06412
 N2545 N 0.02324 0.00724 0.05394
 C2546 C 0.01360 0.01233 0.04872
 N2547 N 0.00835 0.02179 0.05415
 N2548 N 0.01268 0.02609 0.06433
 C2549 C 0.04476 0.54354 0.60870
 N2550 N 0.05505 0.53920 0.61332
 N2551 N 0.06035 0.54466 0.62244
 C2552 C 0.05554 0.55467 0.62724
 N2553 N 0.04527 0.55903 0.62260
 N2554 N 0.03999 0.55357 0.61349
 C2555 C 0.03890 0.53758 0.59865
 N2556 N 0.02875 0.54214 0.59394
 N2557 N 0.02353 0.53692 0.58466
 C2558 C 0.02825 0.52692 0.57976
 N2559 N 0.03837 0.52231 0.58451
 N2560 N 0.04359 0.52754 0.59380
 C2561 C 0.02282 0.52157 0.56913
 N2562 N 0.02783 0.51191 0.56384
 N2563 N 0.02337 0.50759 0.55372
 C2564 C 0.01372 0.51274 0.54856
 N2565 N 0.00864 0.52231 0.55394
 N2566 N 0.01309 0.52662 0.56406
 C2567 C 0.54411 0.04443 0.60935
 N2568 N 0.53935 0.05442 0.61425
 N2569 N 0.54469 0.05981 0.62339
 C2570 C 0.55500 0.05542 0.62796
 N2571 N 0.55974 0.04543 0.62305
 N2572 N 0.55440 0.04004 0.61391
 C2573 C 0.53832 0.03856 0.59917
 N2574 N 0.54324 0.02871 0.59414
 N2575 N 0.53815 0.02353 0.58474
 C2576 C 0.52794 0.02800 0.58003
 N2577 N 0.52301 0.03782 0.58509
 N2578 N 0.52810 0.04300 0.59449
 C2579 C 0.52265 0.02261 0.56933
 N2580 N 0.51278 0.02742 0.56427
 N2581 N 0.50842 0.02300 0.55414
 C2582 C 0.51375 0.01358 0.54872
 N2583 N 0.52354 0.00869 0.55386
 N2584 N 0.52789 0.01311 0.56399
 C2585 C 0.54402 0.54396 0.10892
 N2586 N 0.53951 0.55417 0.11359
 N2587 N 0.54492 0.55957 0.12267
 C2588 C 0.55506 0.55497 0.12739
 N2589 N 0.55957 0.54477 0.12271
 N2590 N 0.55416 0.53937 0.11363
 C2591 C 0.53809 0.53805 0.09886
 N2592 N 0.54275 0.52798 0.09402
 N2593 N 0.53752 0.52275 0.08474
 C2594 C 0.52741 0.52736 0.07998
 N2595 N 0.52272 0.53740 0.08485
 N2596 N 0.52796 0.54263 0.09413
 C2597 C 0.52202 0.52196 0.06934
 N2598 N 0.51226 0.52692 0.06421
 N2599 N 0.50791 0.52256 0.05406
 C2600 C 0.51313 0.51306 0.04868
 N2601 N 0.52279 0.50800 0.05391
 N2602 N 0.52714 0.51235 0.06406
 C2603 C 0.20578 0.54395 0.64129
 N2604 N 0.19567 0.53940 0.63647
 N2605 N 0.19033 0.54485 0.62738
 C2606 C 0.19491 0.55507 0.62281
 N2607 N 0.20501 0.55963 0.62764
 N2608 N 0.21034 0.55418 0.63672
 C2609 C 0.21164 0.53802 0.65137
 N2610 N 0.22167 0.54269 0.65625
 N2611 N 0.22685 0.53748 0.66555
 C2612 C 0.22222 0.52737 0.67031
 N2613 N 0.21222 0.52266 0.66540
 N2614 N 0.20703 0.52788 0.65609
 C2615 C 0.22760 0.52200 0.68095
 N2616 N 0.22263 0.51228 0.68614
 N2617 N 0.22703 0.50793 0.69626
 C2618 C 0.23660 0.51311 0.70154
 N2619 N 0.24167 0.52274 0.69626
 N2620 N 0.23727 0.52709 0.68614
 C2621 C 0.20525 0.04410 0.14168
 N2622 N 0.21003 0.05412 0.13689
 N2623 N 0.20464 0.05966 0.12789
 C2624 C 0.19426 0.05540 0.12338
 N2625 N 0.18946 0.04540 0.12820
 N2626 N 0.19485 0.03986 0.13720
 C2627 C 0.21123 0.03801 0.15158
 N2628 N 0.20647 0.02801 0.15644
 N2629 N 0.21178 0.02265 0.16560
 C2630 C 0.22206 0.02708 0.17021
 N2631 N 0.22684 0.03704 0.16529
 N2632 N 0.22154 0.04239 0.15614
 C2633 C 0.22754 0.02162 0.18074
 N2634 N 0.23738 0.02653 0.18577
 N2635 N 0.24184 0.02214 0.19584
 C2636 C 0.23667 0.01263 0.20123
 N2637 N 0.22692 0.00761 0.19611
 N2638 N 0.22245 0.01201 0.18604
 C2639 C 0.70534 0.20511 0.60768
 N2640 N 0.71006 0.19510 0.61257
 N2641 N 0.70481 0.18987 0.62184
 C2642 C 0.69466 0.19444 0.62653
 N2643 N 0.68994 0.20443 0.62162
 N2644 N 0.69517 0.20966 0.61236
 C2645 C 0.71110 0.21089 0.59746
 N2646 N 0.70628 0.22081 0.59250
 N2647 N 0.71142 0.22600 0.58316
 C2648 C 0.72160 0.22148 0.57846
 N2649 N 0.72644 0.21158 0.58344
 N2650 N 0.72129 0.20639 0.59278
 C2651 C 0.72703 0.22692 0.56788
 N2652 N 0.73695 0.22213 0.56291
 N2653 N 0.74148 0.22665 0.55293
 C2654 C 0.73629 0.23616 0.54756
 N2655 N 0.72644 0.24103 0.55260
 N2656 N 0.72190 0.23652 0.56259
 C2657 C 0.70504 0.70593 0.10796
 N2658 N 0.70970 0.69582 0.11267
 N2659 N 0.70453 0.69055 0.12194
 C2660 C 0.69451 0.69518 0.12684
 N2661 N 0.68983 0.70529 0.12213
 N2662 N 0.69500 0.71057 0.11285
 C2663 C 0.71078 0.71170 0.09772
 N2664 N 0.70613 0.72176 0.09288
 N2665 N 0.71130 0.72689 0.08351
 C2666 C 0.72132 0.72215 0.07867
 N2667 N 0.72597 0.71211 0.08354
 N2668 N 0.72081 0.70699 0.09290
 C2669 C 0.72676 0.72749 0.06805
 N2670 N 0.73653 0.72248 0.06300
 N2671 N 0.74107 0.72689 0.05297
 C2672 C 0.73601 0.73649 0.04763
 N2673 N 0.72632 0.74159 0.05276
 N2674 N 0.72179 0.73718 0.06280
 C2675 C 0.54466 0.70667 0.14110
 N2676 N 0.54004 0.69652 0.13642
 N2677 N 0.54547 0.69099 0.12743
 C2678 C 0.55573 0.69540 0.12281
 N2679 N 0.56037 0.70555 0.12751
 N2680 N 0.55494 0.71108 0.13650
 C2681 C 0.53871 0.71269 0.15108
 N2682 N 0.54341 0.72273 0.15594
 N2683 N 0.53816 0.72798 0.16520
 C2684 C 0.52800 0.72342 0.16991
 N2685 N 0.52327 0.71342 0.16499
 N2686 N 0.52852 0.70816 0.15574
 C2687 C 0.52261 0.72879 0.18055
 N2688 N 0.51284 0.72380 0.18564
 N2689 N 0.50848 0.72810 0.19580
 C2690 C 0.51371 0.73758 0.20124
 N2691 N 0.52337 0.74267 0.19606
 N2692 N 0.52773 0.73836 0.18589
 C2693 C 0.04513 0.70559 0.64195
 N2694 N 0.05535 0.71008 0.63730
 N2695 N 0.06075 0.70461 0.62825
 C2696 C 0.05615 0.69446 0.62354
 N2697 N 0.04597 0.68994 0.62822
 N2698 N 0.04057 0.69540 0.63727
 C2699 C 0.03913 0.71163 0.65188
 N2700 N 0.02898 0.70707 0.65658
 N2701 N 0.02364 0.71241 0.66573
 C2702 C 0.02823 0.72253 0.67050
 N2703 N 0.03836 0.72714 0.66577
 N2704 N 0.04370 0.72180 0.65662
 C2705 C 0.02270 0.72802 0.68102
 N2706 N 0.02763 0.73777 0.68622
 N2707 N 0.02313 0.74219 0.69627
 C2708 C 0.01351 0.73705 0.70148
 N2709 N 0.00848 0.72740 0.69618
 N2710 N 0.01298 0.72298 0.68613
 C2711 C 0.54369 0.64128 0.20563
 N2712 N 0.53926 0.63659 0.19539
 N2713 N 0.54472 0.62750 0.19005
 C2714 C 0.55481 0.62278 0.19474
 N2715 N 0.55924 0.62748 0.20497
 N2716 N 0.55379 0.63657 0.21031
 C2717 C 0.53776 0.65137 0.21148
 N2718 N 0.54233 0.65613 0.22161
 N2719 N 0.53714 0.66546 0.22680
 C2720 C 0.52716 0.67036 0.22205
 N2721 N 0.52254 0.66556 0.21195
 N2722 N 0.52774 0.65623 0.20676
 C2723 C 0.52183 0.68104 0.22744
 N2724 N 0.51220 0.68633 0.22240
 N2725 N 0.50792 0.69650 0.22680
 C2726 C 0.51309 0.70173 0.23642
 N2727 N 0.52262 0.69634 0.24154
 N2728 N 0.52689 0.68617 0.23715
 C2729 C 0.04444 0.64175 0.70540
 N2730 N 0.05452 0.63699 0.71007
 N2731 N 0.05987 0.62780 0.70478
 C2732 C 0.05533 0.62306 0.69462
 N2733 N 0.04529 0.62787 0.68991
 N2734 N 0.03995 0.63706 0.69520
 C2735 C 0.03846 0.65176 0.71131
 N2736 N 0.02840 0.65654 0.70661
 N2737 N 0.02305 0.66573 0.71188
 C2738 C 0.02753 0.67044 0.72208
 N2739 N 0.03755 0.66562 0.72682
 N2740 N 0.04291 0.65643 0.72154
 C2741 C 0.02202 0.68098 0.72752
 N2742 N 0.02690 0.68608 0.73735
 N2743 N 0.02246 0.69617 0.74175
 C2744 C 0.01295 0.70151 0.73652
 N2745 N 0.00797 0.69631 0.72680
 N2746 N 0.01241 0.68622 0.72239
 C2747 C 0.04375 0.10865 0.04453
 N2748 N 0.03917 0.11347 0.05463
 N2749 N 0.04460 0.12259 0.05998
 C2750 C 0.05481 0.12719 0.05543
 N2751 N 0.05938 0.12236 0.04534
 N2752 N 0.05396 0.11325 0.03999
 C2753 C 0.03786 0.09853 0.03868
 N2754 N 0.04257 0.09367 0.02866
 N2755 N 0.03740 0.08434 0.02346
 C2756 C 0.02732 0.07953 0.02807
 N2757 N 0.02258 0.08441 0.03806
 N2758 N 0.02775 0.09376 0.04327
 C2759 C 0.02198 0.06887 0.02265
 N2760 N 0.01227 0.06365 0.02760
 N2761 N 0.00794 0.05352 0.02317
 C2762 C 0.01313 0.04826 0.01359
 N2763 N 0.02274 0.05358 0.00855
 N2764 N 0.02707 0.06371 0.01298
 C2765 C 0.04460 0.60836 0.54482
 N2766 N 0.04013 0.61300 0.55506
 N2767 N 0.04559 0.62205 0.56048
 C2768 C 0.05572 0.62676 0.55588
 N2769 N 0.06020 0.62210 0.54567
 N2770 N 0.05475 0.61305 0.54024
 C2771 C 0.03859 0.59839 0.53883
 N2772 N 0.04306 0.59374 0.52860
 N2773 N 0.03774 0.58452 0.52332
 C2774 C 0.02775 0.57965 0.52805
 N2775 N 0.02324 0.58434 0.53824
 N2776 N 0.02855 0.59356 0.54352
 C2777 C 0.02226 0.56907 0.52261
 N2778 N 0.01265 0.56383 0.52774
 N2779 N 0.00820 0.55374 0.52334
 C2780 C 0.01316 0.54853 0.51362
 N2781 N 0.02267 0.55387 0.50839
 N2782 N 0.02713 0.56396 0.51279
 C2783 C 0.54479 0.10837 0.54482
 N2784 N 0.54013 0.11327 0.55484
 N2785 N 0.54560 0.12231 0.56025
 C2786 C 0.55595 0.12674 0.55586
 N2787 N 0.56064 0.12181 0.54588
 N2788 N 0.55516 0.11277 0.54046
 C2789 C 0.53873 0.09844 0.53885
 N2790 N 0.54326 0.09369 0.52869
 N2791 N 0.53788 0.08453 0.52339
 C2792 C 0.52777 0.07980 0.52803
 N2793 N 0.52321 0.08459 0.53816
 N2794 N 0.52859 0.09376 0.54346
 C2795 C 0.52224 0.06929 0.52256
 N2796 N 0.51257 0.06409 0.52762
 N2797 N 0.50811 0.05402 0.52317
 C2798 C 0.51313 0.04881 0.51348
 N2799 N 0.52269 0.05411 0.50833
 N2800 N 0.52715 0.06417 0.51277
 C2801 C 0.54389 0.60887 0.04416
 N2802 N 0.53939 0.61363 0.05432
 N2803 N 0.54482 0.62274 0.05966
 C2804 C 0.55496 0.62742 0.05503
 N2805 N 0.55947 0.62266 0.04488
 N2806 N 0.55404 0.61354 0.03954
 C2807 C 0.53795 0.59880 0.03831
 N2808 N 0.54249 0.59402 0.02818
 N2809 N 0.53722 0.58474 0.02298
 C2810 C 0.52719 0.57992 0.02770
 N2811 N 0.52262 0.58473 0.03781
 N2812 N 0.52789 0.59401 0.04301
 C2813 C 0.52176 0.56930 0.02232
 N2814 N 0.51210 0.56409 0.02738
 N2815 N 0.50770 0.55397 0.02300
 C2816 C 0.51278 0.54871 0.01336
 N2817 N 0.52233 0.55402 0.00820
 N2818 N 0.52673 0.56414 0.01258
 C2819 C 0.70526 0.14218 0.54490
 N2820 N 0.69536 0.13715 0.54009
 N2821 N 0.69022 0.12779 0.54527
 C2822 C 0.69479 0.12313 0.55545
 N2823 N 0.70468 0.12817 0.56026
 N2824 N 0.70982 0.13752 0.55508
 C2825 C 0.71092 0.15252 0.53924
 N2826 N 0.72082 0.15751 0.54408
 N2827 N 0.72591 0.16697 0.53903
 C2828 C 0.72130 0.17177 0.52894
 N2829 N 0.71140 0.16677 0.52409
 N2830 N 0.70632 0.15731 0.52914
 C2831 C 0.72670 0.18240 0.52358
 N2832 N 0.72180 0.18750 0.51378
 N2833 N 0.72638 0.19746 0.50925
 C2834 C 0.73607 0.20266 0.51431
 N2835 N 0.74103 0.19750 0.52405
 N2836 N 0.73644 0.18754 0.52859
 C2837 C 0.70456 0.64267 0.04546
 N2838 N 0.69424 0.63809 0.04111
 N2839 N 0.68910 0.62875 0.04632
 C2840 C 0.69409 0.62366 0.05608
 N2841 N 0.70439 0.62825 0.06045
 N2842 N 0.70952 0.63760 0.05525
 C2843 C 0.71027 0.65294 0.03971
 N2844 N 0.72041 0.65768 0.04427
 N2845 N 0.72555 0.66705 0.03912
 C2846 C 0.72075 0.67201 0.02920
 N2847 N 0.71062 0.66724 0.02461
 N2848 N 0.70548 0.65787 0.02977
 C2849 C 0.72619 0.68258 0.02375
 N2850 N 0.72119 0.68774 0.01403
 N2851 N 0.72578 0.69768 0.00945
 C2852 C 0.73557 0.70280 0.01439
 N2853 N 0.74063 0.69758 0.02405
 N2854 N 0.73604 0.68764 0.02863
 C2855 C 0.20596 0.60906 0.70582
 N2856 N 0.21044 0.61358 0.69555
 N2857 N 0.20510 0.62268 0.69012
 C2858 C 0.19506 0.62756 0.69475
 N2859 N 0.19056 0.62303 0.70501
 N2860 N 0.19591 0.61394 0.71044
 C2861 C 0.21180 0.59896 0.71172
 N2862 N 0.20727 0.59432 0.72192
 N2863 N 0.21244 0.58498 0.72711
 C2864 C 0.22234 0.57997 0.72230
 N2865 N 0.22689 0.58465 0.71214
 N2866 N 0.22173 0.59399 0.70695
 C2867 C 0.22769 0.56930 0.72765
 N2868 N 0.23727 0.56403 0.72251
 N2869 N 0.24166 0.55390 0.72687
 C2870 C 0.23666 0.54870 0.73657
 N2871 N 0.22716 0.55406 0.74180
 N2872 N 0.22277 0.56419 0.73744
 C2873 C 0.20632 0.10886 0.20545
 N2874 N 0.19618 0.11356 0.21004
 N2875 N 0.19080 0.12269 0.20470
 C2876 C 0.19535 0.12744 0.19457
 N2877 N 0.20550 0.12274 0.18997
 N2878 N 0.21088 0.11361 0.19531
 C2879 C 0.21217 0.09873 0.21128
 N2880 N 0.22221 0.09389 0.20660
 N2881 N 0.22738 0.08453 0.21176
 C2882 C 0.22271 0.07970 0.22180
 N2883 N 0.21270 0.08457 0.22651
 N2884 N 0.20753 0.09392 0.22135
 C2885 C 0.22807 0.06903 0.22714
 N2886 N 0.22312 0.06389 0.23690
 N2887 N 0.22750 0.05376 0.24126
 C2888 C 0.23701 0.04841 0.23605
 N2889 N 0.24206 0.05364 0.22639
 N2890 N 0.23768 0.06377 0.22204
 C2891 C 0.70631 1.10872 0.70527
 N2892 N 0.71086 1.11349 0.69515
 N2893 N 0.70540 1.12255 0.68976
 C2894 C 0.69519 1.12715 0.69430
 N2895 N 0.69063 1.12237 0.70441
 N2896 N 0.69608 1.11331 0.70979
 C2897 C 0.71223 1.09865 0.71117
 N2898 N 0.70754 1.09383 0.72120
 N2899 N 0.71272 1.08452 0.72642
 C2900 C 0.72280 1.07971 0.72181
 N2901 N 0.72753 1.08457 0.71180
 N2902 N 0.72234 1.09388 0.70659
 C2903 C 0.72814 1.06906 0.72723
 N2904 N 0.73784 1.06381 0.72226
 N2905 N 0.74218 1.05370 0.72670
 C2906 C 0.73701 1.04848 0.73630
 N2907 N 0.72741 1.05382 0.74136
 N2908 N 0.72307 1.06393 0.73692
 C2909 C 0.70629 0.60878 0.20561
 N2910 N 0.69615 0.61349 0.21021
 N2911 N 0.69073 0.62257 0.20484
 C2912 C 0.69523 0.62726 0.19465
 N2913 N 0.70535 0.62253 0.19003
 N2914 N 0.71078 0.61345 0.19541
 C2915 C 0.71226 0.59876 0.21153
 N2916 N 0.72233 0.59396 0.20687
 N2917 N 0.72762 0.58473 0.21213
 C2918 C 0.72306 0.57999 0.22226
 N2919 N 0.71302 0.58483 0.22695
 N2920 N 0.70773 0.59405 0.22170
 C2921 C 0.72850 0.56940 0.22769
 N2922 N 0.72352 0.56428 0.23743
 N2923 N 0.72790 0.55417 0.24183
 C2924 C 0.73744 0.54882 0.23669
 N2925 N 0.74253 0.55405 0.22705
 N2926 N 0.73816 0.56416 0.22265
 C2927 C 0.54489 0.14238 0.70409
 N2928 N 0.55455 0.13722 0.70921
 N2929 N 0.55980 0.12787 0.70412
 C2930 C 0.55560 0.12332 0.69373
 N2931 N 0.54597 0.12853 0.68858
 N2932 N 0.54071 0.13789 0.69366
 C2933 C 0.53904 0.15261 0.70979
 N2934 N 0.52921 0.15764 0.70485
 N2935 N 0.52394 0.16693 0.71003
 C2936 C 0.52828 0.17151 0.72035
 N2937 N 0.53809 0.16647 0.72530
 N2938 N 0.54336 0.15718 0.72012
 C2939 C 0.52274 0.18202 0.72586
 N2940 N 0.52749 0.18692 0.73585
 N2941 N 0.52291 0.19685 0.74048
 C2942 C 0.51338 0.20222 0.73532
 N2943 N 0.50854 0.19723 0.72541
 N2944 N 0.51313 0.18730 0.72078
 C2945 C 1.04374 0.14070 0.20628
 N2946 N 1.03888 0.13556 0.19647
 N2947 N 1.04431 0.12648 0.19108
 C2948 C 1.05483 0.12225 0.19528
 N2949 N 1.05971 0.12740 0.20507
 N2950 N 1.05426 0.13647 0.21047
 C2951 C 1.03779 0.15078 0.21214
 N2952 N 1.04252 0.15577 0.22210
 N2953 N 1.03728 0.16510 0.22725
 C2954 C 1.02712 0.16977 0.22266
 N2955 N 1.02236 0.16474 0.21273
 N2956 N 1.02759 0.15541 0.20758
 C2957 C 1.02173 0.18045 0.22798
 N2958 N 1.01205 0.18564 0.22292
 N2959 N 1.00769 0.19581 0.22725
 C2960 C 1.01282 0.20114 0.23683
 N2961 N 1.02239 0.19584 0.24200
 N2962 N 1.02675 0.18568 0.23767
 C2963 C 0.20546 0.64260 0.54501
 N2964 N 0.19540 0.63778 0.54034
 N2965 N 0.19016 0.62850 0.54556
 C2966 C 0.19479 0.62370 0.55564
 N2967 N 0.20483 0.62854 0.56033
 N2968 N 0.21007 0.63783 0.55512
 C2969 C 0.21128 0.65279 0.53921
 N2970 N 0.22130 0.65767 0.54391
 N2971 N 0.22652 0.66697 0.53869
 C2972 C 0.22193 0.67170 0.52856
 N2973 N 0.21192 0.66680 0.52384
 N2974 N 0.20671 0.65751 0.52906
 C2975 C 0.22737 0.68227 0.52309
 N2976 N 0.22247 0.68728 0.51323
 N2977 N 0.22693 0.69731 0.50871
 C2978 C 0.23647 0.70268 0.51386
 N2979 N 0.24146 0.69758 0.52362
 N2980 N 0.23700 0.68755 0.52814
 C2981 C 0.20630 0.14131 1.04462
 N2982 N 0.21123 0.13614 1.05437
 N2983 N 0.20587 0.12700 1.05971
 C2984 C 0.19536 0.12272 1.05551
 N2985 N 0.19041 0.12792 1.04579
 N2986 N 0.19578 0.13705 1.04044
 C2987 C 0.21222 0.15138 1.03871
 N2988 N 0.20747 0.15630 1.02874
 N2989 N 0.21274 0.16554 1.02348
 C2990 C 0.22296 0.17019 1.02797
 N2991 N 0.22774 0.16524 1.03792
 N2992 N 0.22248 0.15599 1.04317
 C2993 C 0.22841 0.18077 1.02252
 N2994 N 0.23814 0.18596 1.02749
 N2995 N 0.24255 0.19604 1.02305
 C2996 C 0.23743 0.20128 1.01343
 N2997 N 0.22781 0.19599 1.00835
 N2998 N 0.22339 0.18591 1.01280
 C2999 C 0.20503 0.70559 0.60742
 N3000 N 0.20974 0.69552 0.61220
 N3001 N 0.20458 0.69028 0.62150
 C3002 C 0.19452 0.69491 0.62635
 N3003 N 0.18979 0.70495 0.62155
 N3004 N 0.19495 0.71019 0.61225
 C3005 C 0.21077 0.71141 0.59723
 N3006 N 0.20604 0.72145 0.59243
 N3007 N 0.21120 0.72670 0.58313
 C3008 C 0.22130 0.72211 0.57832
 N3009 N 0.22604 0.71209 0.58314
 N3010 N 0.22088 0.70685 0.59244
 C3011 C 0.22670 0.72759 0.56776
 N3012 N 0.23650 0.72269 0.56266
 N3013 N 0.24098 0.72721 0.55266
 C3014 C 0.23585 0.73683 0.54742
 N3015 N 0.22614 0.74182 0.55261
 N3016 N 0.22166 0.73730 0.56261
 C3017 C 0.20629 0.20616 1.10880
 N3018 N 0.21093 0.19608 1.11362
 N3019 N 0.20553 0.19070 1.12270
 C3020 C 0.19528 0.19519 1.12728
 N3021 N 0.19064 0.20526 1.12246
 N3022 N 0.19604 0.21064 1.11338
 C3023 C 0.21217 0.21204 1.09873
 N3024 N 0.20739 0.22199 1.09378
 N3025 N 0.21258 0.22719 1.08449
 C3026 C 0.22277 0.22267 1.07981
 N3027 N 0.22758 0.21275 1.08479
 N3028 N 0.22238 0.20754 1.09409
 C3029 C 0.22815 0.22805 1.06919
 N3030 N 0.23796 0.22314 1.06412
 N3031 N 0.24234 0.22751 1.05400
 C3032 C 0.23709 0.23698 1.04860
 N3033 N 0.22738 0.24199 1.05377
 N3034 N 0.22300 0.23762 1.06388
 C3035 C 0.70550 0.54436 0.14180
 N3036 N 0.71047 0.55412 0.13667
 N3037 N 0.70514 0.55952 0.12756
 C3038 C 0.69462 0.55539 0.12327
 N3039 N 0.68961 0.54566 0.12843
 N3040 N 0.69496 0.54025 0.13753
 C3041 C 0.71143 0.53838 0.15180
 N3042 N 0.70660 0.52850 0.15681
 N3043 N 0.71192 0.52317 0.16598
 C3044 C 0.72228 0.52752 0.17045
 N3045 N 0.72713 0.53739 0.16542
 N3046 N 0.72182 0.54270 0.15624
 C3047 C 0.72780 0.52205 0.18097
 N3048 N 0.73767 0.52694 0.18597
 N3049 N 0.74214 0.52255 0.19604
 C3050 C 0.73694 0.51307 0.20145
 N3051 N 0.72718 0.50806 0.19634
 N3052 N 0.72270 0.51246 0.18627
 C3053 C 0.70531 1.04422 0.64192
 N3054 N 0.70954 1.05473 0.63771
 N3055 N 0.70417 1.06019 0.62865
 C3056 C 0.69438 1.05532 0.62348
 N3057 N 0.69012 1.04483 0.62773
 N3058 N 0.69547 1.03939 0.63680
 C3059 C 0.71128 1.03816 0.65183
 N3060 N 0.70679 1.02789 0.65637
 N3061 N 0.71213 1.02248 0.66548
 C3062 C 0.72219 1.02712 0.67034
 N3063 N 0.72671 1.03735 0.66576
 N3064 N 0.72136 1.04277 0.65666
 C3065 C 0.72767 1.02157 0.68082
 N3066 N 0.73747 1.02648 0.68592
 N3067 N 0.74188 1.02206 0.69600
 C3068 C 0.73667 1.01255 0.70134
 N3069 N 0.72698 1.00751 0.69613
 N3070 N 0.72258 1.01192 0.68604
 C3071 C 0.54591 0.20464 0.64279
 N3072 N 0.55637 0.20887 0.63845
 N3073 N 0.56157 0.20368 0.62914
 C3074 C 0.55650 0.19406 0.62382
 N3075 N 0.54607 0.18980 0.62818
 N3076 N 0.54087 0.19498 0.63751
 C3077 C 0.54010 0.21043 0.65298
 N3078 N 0.52979 0.20603 0.65748
 N3079 N 0.52457 0.21124 0.66677
 C3080 C 0.52944 0.22107 0.67188
 N3081 N 0.53974 0.22550 0.66735
 N3082 N 0.54497 0.22028 0.65806
 C3083 C 0.52393 0.22653 0.68241
 N3084 N 0.52895 0.23620 0.68769
 N3085 N 0.52434 0.24074 0.69763
 C3086 C 0.51452 0.23579 0.70266
 N3087 N 0.50943 0.22620 0.69731
 N3088 N 0.51403 0.22167 0.68735
 C3089 C 1.04392 0.20605 0.14118
 N3090 N 1.05417 0.21054 0.13659
 N3091 N 1.05956 0.20515 0.12750
 C3092 C 1.05493 0.19507 0.12268
 N3093 N 1.04469 0.19057 0.12726
 N3094 N 1.03929 0.19596 0.13635
 C3095 C 1.03806 0.21193 0.15128
 N3096 N 1.02786 0.20742 0.15594
 N3097 N 1.02268 0.21262 0.16526
 C3098 C 1.02749 0.22255 0.17025
 N3099 N 1.03766 0.22709 0.16555
 N3100 N 1.04284 0.22188 0.15623
 C3101 C 1.02212 0.22793 0.18089
 N3102 N 1.02726 0.23752 0.18620
 N3103 N 1.02288 0.24189 0.19633
 C3104 C 1.01318 0.23686 0.20149
 N3105 N 1.00794 0.22738 0.19609
 N3106 N 1.01232 0.22301 0.18596
 C3107 C 0.60766 0.20475 0.70509
 N3108 N 0.61245 0.20952 0.69506
 N3109 N 0.62172 0.20435 0.68976
 C3110 C 0.62654 0.19423 0.69428
 N3111 N 0.62173 0.18944 0.70427
 N3112 N 0.61246 0.19460 0.70958
 C3113 C 0.59748 0.21049 0.71099
 N3114 N 0.59260 0.20564 0.72092
 N3115 N 0.58330 0.21078 0.72620
 C3116 C 0.57857 0.22099 0.72177
 N3117 N 0.58348 0.22586 0.71186
 N3118 N 0.59277 0.22072 0.70657
 C3119 C 0.56800 0.22639 0.72728
 N3120 N 0.56304 0.23637 0.72257
 N3121 N 0.55304 0.24085 0.72709
 C3122 C 0.54762 0.23556 0.73651
 N3123 N 0.55265 0.22566 0.74131
 N3124 N 0.56267 0.22117 0.73679
 C3125 C 1.10862 0.20575 0.20580
 N3126 N 1.11338 0.21044 0.19573
 N3127 N 1.12252 0.20513 0.19035
 C3128 C 1.12722 0.19493 0.19484
 N3129 N 1.12245 0.19023 0.20489
 N3130 N 1.11331 0.19554 0.21027
 C3131 C 1.09852 0.21158 0.21172
 N3132 N 1.09366 0.20679 0.22169
 N3133 N 1.08436 0.21196 0.22694
 C3134 C 1.07960 0.22212 0.22243
 N3135 N 1.08449 0.22694 0.21249
 N3136 N 1.09379 0.22177 0.20723
 C3137 C 1.06897 0.22746 0.22786
 N3138 N 1.06384 0.23727 0.22300
 N3139 N 1.05372 0.24161 0.22742
 C3140 C 1.04838 0.23632 0.23688
 N3141 N 1.05360 0.22660 0.24184
 N3142 N 1.06372 0.22227 0.23742
 C3143 C 0.14291 0.70461 0.54538
 N3144 N 0.13807 0.70931 0.55542
 N3145 N 0.12864 0.70423 0.56050
 C3146 C 0.12370 0.69426 0.55574
 N3147 N 0.12856 0.68953 0.54574
 N3148 N 0.13800 0.69461 0.54065
 C3149 C 0.15320 0.71032 0.53968
 N3150 N 0.15800 0.70566 0.52962
 N3151 N 0.16734 0.71083 0.52445
 C3152 C 0.17220 0.72088 0.52915
 N3153 N 0.16738 0.72555 0.53921
 N3154 N 0.15804 0.72037 0.54437
 C3155 C 0.18273 0.72637 0.52368
 N3156 N 0.18784 0.73616 0.52863
 N3157 N 0.19773 0.74080 0.52402
 C3158 C 0.20287 0.73585 0.51425
 N3159 N 0.19769 0.72612 0.50923
 N3160 N 0.18780 0.72148 0.51384
 C3161 C 0.14158 0.20559 1.04412
 N3162 N 0.13689 0.19537 1.03964
 N3163 N 0.12775 0.19006 1.04501
 C3164 C 0.12297 0.19477 1.05507
 N3165 N 0.12767 0.20497 1.05956
 N3166 N 0.13681 0.21029 1.05419
 C3167 C 0.15170 0.21142 1.03822
 N3168 N 0.15642 0.22162 1.04272
 N3169 N 0.16573 0.22678 1.03749
 C3170 C 0.17065 0.22195 1.02755
 N3171 N 0.16589 0.21178 1.02302
 N3172 N 0.15658 0.20662 1.02825
 C3173 C 0.18130 0.22728 1.02215
 N3174 N 0.18659 0.22209 1.01260
 N3175 N 0.19671 0.22644 1.00821
 C3176 C 0.20191 0.23618 1.01318
 N3177 N 0.19653 0.24147 1.02264
 N3178 N 0.18641 0.23712 1.02703
 C3179 C 0.64146 0.54432 0.20606
 N3180 N 0.63667 0.53964 0.19599
 N3181 N 0.62753 0.54498 0.19062
 C3182 C 0.62287 0.55519 0.19512
 N3183 N 0.62767 0.55988 0.20518
 N3184 N 0.63681 0.55455 0.21055
 C3185 C 0.65158 0.53848 0.21194
 N3186 N 0.65649 0.54327 0.22190
 N3187 N 0.66581 0.53810 0.22711
 C3188 C 0.67054 0.52793 0.22257
 N3189 N 0.66559 0.52311 0.21264
 N3190 N 0.65627 0.52828 0.20743
 C3191 C 0.68120 0.52260 0.22794
 N3192 N 0.68630 0.51279 0.22304
 N3193 N 0.69644 0.50845 0.22741
 C3194 C 0.70183 0.51374 0.23687
 N3195 N 0.69663 0.52345 0.24187
 N3196 N 0.68649 0.52779 0.23750
 C3197 C 0.64150 1.04490 0.70584
 N3198 N 0.63716 1.04069 0.69536
 N3199 N 0.62805 1.04608 0.69000
 C3200 C 0.62295 1.05588 0.69491
 N3201 N 0.62730 1.06012 0.70538
 N3202 N 0.63642 1.05474 0.71073
 C3203 C 0.65155 1.03895 0.71174
 N3204 N 0.65619 1.04340 0.72199
 N3205 N 0.66543 1.03811 0.72723
 C3206 C 0.67034 1.02814 0.72244
 N3207 N 0.66566 1.02365 0.71223
 N3208 N 0.65643 1.02895 0.70698
 C3209 C 0.68092 1.02267 0.72787
 N3210 N 0.68606 1.01294 0.72284
 N3211 N 0.69614 1.00848 0.72725
 C3212 C 0.70143 1.01357 0.73687
 N3213 N 0.69619 1.02321 0.74199
 N3214 N 0.68611 1.02765 0.73759
 C3215 C 0.85771 0.45526 0.29596
 N3216 N 0.86257 0.45990 0.30602
 N3217 N 0.87180 0.45459 0.31126
 C3218 C 0.87649 0.44444 0.30665
 N3219 N 0.87162 0.43979 0.29660
 N3220 N 0.86239 0.44510 0.29135
 C3221 C 0.84755 0.46111 0.29015
 N3222 N 0.84272 0.45646 0.28008
 N3223 N 0.83342 0.46168 0.27488
 C3224 C 0.82861 0.47175 0.27954
 N3225 N 0.83346 0.47643 0.28959
 N3226 N 0.84277 0.47121 0.29479
 C3227 C 0.81804 0.47721 0.27408
 N3228 N 0.81289 0.48696 0.27904
 N3229 N 0.80290 0.49148 0.27449
 C3230 C 0.79773 0.48644 0.26478
 N3231 N 0.80296 0.47676 0.25975
 N3232 N 0.81295 0.47224 0.26430
 C3233 C 0.85681 0.95459 0.79633
 N3234 N 0.86161 0.94452 0.79164
 N3235 N 0.87094 0.93931 0.79678
 C3236 C 0.87581 0.94397 0.80683
 N3237 N 0.87096 0.95398 0.81158
 N3238 N 0.86163 0.95920 0.80643
 C3239 C 0.84669 0.96046 0.79050
 N3240 N 0.84192 0.97057 0.79514
 N3241 N 0.83272 0.97588 0.78985
 C3242 C 0.82798 0.97130 0.77970
 N3243 N 0.83277 0.96122 0.77505
 N3244 N 0.84197 0.95591 0.78034
 C3245 C 0.81752 0.97685 0.77414
 N3246 N 0.81247 0.97193 0.76432
 N3247 N 0.80256 0.97652 0.75969
 C3248 C 0.79735 0.98623 0.76470
 N3249 N 0.80249 0.99124 0.77444
 N3250 N 0.81241 0.98665 0.77907
 C3251 C 0.39200 0.29453 0.79488
 N3252 N 0.38711 0.28985 0.80488
 N3253 N 0.37807 0.29531 0.81029
 C3254 C 0.37363 0.30567 0.80591
 N3255 N 0.37855 0.31038 0.79594
 N3256 N 0.38758 0.30491 0.79052
 C3257 C 0.40193 0.28848 0.78891
 N3258 N 0.40668 0.29303 0.77877
 N3259 N 0.41583 0.28765 0.77347
 C3260 C 0.42055 0.27752 0.77810
 N3261 N 0.41576 0.27295 0.78820
 N3262 N 0.40660 0.27832 0.79350
 C3263 C 0.43105 0.27198 0.77262
 N3264 N 0.43622 0.26227 0.77764
 N3265 N 0.44625 0.25779 0.77318
 C3266 C 0.45145 0.26281 0.76350
 N3267 N 0.44618 0.27242 0.75838
 N3268 N 0.43615 0.27690 0.76284
 C3269 C 0.89271 0.29494 0.29583
 N3270 N 0.88814 0.29066 0.30617
 N3271 N 0.87888 0.29600 0.31133
 C3272 C 0.87388 0.30581 0.30634
 N3273 N 0.87848 0.31012 0.29604
 N3274 N 0.88774 0.30479 0.29089
 C3275 C 0.90282 0.28901 0.29005
 N3276 N 0.90748 0.29345 0.27982
 N3277 N 0.91671 0.28814 0.27460
 C3278 C 0.92160 0.27817 0.27939
 N3279 N 0.91692 0.27370 0.28960
 N3280 N 0.90768 0.27902 0.29482
 C3281 C 0.93211 0.27266 0.27392
 N3282 N 0.93731 0.26297 0.27894
 N3283 N 0.94729 0.25843 0.27440
 C3284 C 0.95241 0.26341 0.26465
 N3285 N 0.94713 0.27302 0.25955
 N3286 N 0.93715 0.27754 0.26409
 C3287 C 0.35854 0.79460 0.45515
 N3288 N 0.36364 0.78976 0.44531
 N3289 N 0.37274 0.79518 0.43997
 C3290 C 0.37705 0.80565 0.44425
 N3291 N 0.37193 0.81050 0.45406
 N3292 N 0.36284 0.80508 0.45941
 C3293 C 0.34851 0.78863 0.46105
 N3294 N 0.34367 0.79330 0.47110
 N3295 N 0.33447 0.78799 0.47637
 C3296 C 0.32979 0.77780 0.47182
 N3297 N 0.33466 0.77311 0.46179
 N3298 N 0.34387 0.77841 0.45652
 C3299 C 0.31925 0.77232 0.47729
 N3300 N 0.31400 0.76265 0.47225
 N3301 N 0.30393 0.75824 0.47671
 C3302 C 0.29876 0.76331 0.48640
 N3303 N 0.30411 0.77287 0.49154
 N3304 N 0.31418 0.77728 0.48709
 C3305 C 0.35760 0.29545 0.95465
 N3306 N 0.36214 0.30576 0.95910
 N3307 N 0.37140 0.31103 0.95388
 C3308 C 0.37645 0.30618 0.94402
 N3309 N 0.37190 0.29589 0.93957
 N3310 N 0.36263 0.29063 0.94477
 C3311 C 0.34745 0.28958 0.96043
 N3312 N 0.34271 0.27948 0.95574
 N3313 N 0.33343 0.27420 0.96090
 C3314 C 0.32858 0.27879 0.97097
 N3315 N 0.33335 0.28887 0.97569
 N3316 N 0.34262 0.29416 0.97052
 C3317 C 0.31805 0.27325 0.97638
 N3318 N 0.31297 0.27807 0.98623
 N3319 N 0.30301 0.27346 0.99073
 C3320 C 0.29778 0.26384 0.98557
 N3321 N 0.30294 0.25893 0.97580
 N3322 N 0.31290 0.26354 0.97130
 C3323 C 0.79563 0.45408 0.35709
 N3324 N 0.80567 0.45877 0.36193
 N3325 N 0.81078 0.45368 0.37134
 C3326 C 0.80603 0.44370 0.37625
 N3327 N 0.79603 0.43897 0.37137
 N3328 N 0.79093 0.44406 0.36195
 C3329 C 0.78989 0.45984 0.34686
 N3330 N 0.77979 0.45521 0.34206
 N3331 N 0.77458 0.46046 0.33278
 C3332 C 0.77925 0.47053 0.32799
 N3333 N 0.78933 0.47516 0.33281
 N3334 N 0.79455 0.46992 0.34208
 C3335 C 0.77375 0.47608 0.31752
 N3336 N 0.77872 0.48589 0.31248
 N3337 N 0.77413 0.49055 0.30259
 C3338 C 0.76437 0.48562 0.29741
 N3339 N 0.75933 0.47589 0.30253
 N3340 N 0.76392 0.47122 0.31241
 C3341 C 0.79494 0.95477 0.85762
 N3342 N 0.79026 0.94473 0.86248
 N3343 N 0.79549 0.93954 0.87177
 C3344 C 0.80558 0.94420 0.87654
 N3345 N 0.81028 0.95421 0.87167
 N3346 N 0.80505 0.95940 0.86237
 C3347 C 0.78915 0.96054 0.84742
 N3348 N 0.79387 0.97056 0.84257
 N3349 N 0.78869 0.97575 0.83325
 C3350 C 0.77858 0.97113 0.82846
 N3351 N 0.77384 0.96113 0.83335
 N3352 N 0.77903 0.95594 0.84267
 C3353 C 0.77318 0.97657 0.81788
 N3354 N 0.76334 0.97170 0.81280
 N3355 N 0.75884 0.97624 0.80281
 C3356 C 0.76400 0.98584 0.79755
 N3357 N 0.77376 0.99078 0.80270
 N3358 N 0.77826 0.98624 0.81270
 C3359 C 0.29454 0.79457 0.39135
 N3360 N 0.30465 0.78992 0.38663
 N3361 N 0.31010 0.79531 0.37757
 C3362 C 0.30565 0.80554 0.37292
 N3363 N 0.29555 0.81020 0.37766
 N3364 N 0.29010 0.80482 0.38671
 C3365 C 0.28856 0.78869 0.40137
 N3366 N 0.27859 0.79349 0.40622
 N3367 N 0.27329 0.78830 0.41547
 C3368 C 0.27776 0.77811 0.42019
 N3369 N 0.28770 0.77327 0.41530
 N3370 N 0.29300 0.77846 0.40605
 C3371 C 0.27230 0.77277 0.43080
 N3372 N 0.27710 0.76291 0.43589
 N3373 N 0.27267 0.75858 0.44600
 C3374 C 0.26326 0.76393 0.45138
 N3375 N 0.25835 0.77370 0.44620
 N3376 N 0.26278 0.77802 0.43608
 C3377 C 0.29582 0.29564 0.89284
 N3378 N 0.29159 0.30609 0.88846
 N3379 N 0.29679 0.31128 0.87915
 C3380 C 0.30641 0.30620 0.87388
 N3381 N 0.31068 0.29578 0.87829
 N3382 N 0.30548 0.29060 0.88761
 C3383 C 0.28999 0.28986 0.90301
 N3384 N 0.29439 0.27957 0.90759
 N3385 N 0.28915 0.27438 0.91688
 C3386 C 0.27929 0.27925 0.92189
 N3387 N 0.27486 0.28952 0.91727
 N3388 N 0.28011 0.29472 0.90800
 C3389 C 0.27379 0.27378 0.93241
 N3390 N 0.26409 0.27880 0.93759
 N3391 N 0.25952 0.27422 0.94753
 C3392 C 0.26446 0.26444 0.95264
 N3393 N 0.27409 0.25935 0.94738
 N3394 N 0.27866 0.26392 0.93744
 C3395 C 0.45550 0.29481 0.85825
 N3396 N 0.45960 0.30539 0.86247
 N3397 N 0.45419 0.31078 0.87156
 C3398 C 0.44448 0.30580 0.87674
 N3399 N 0.44035 0.29524 0.87249
 N3400 N 0.44575 0.28986 0.86340
 C3401 C 0.46147 0.28884 0.84827
 N3402 N 0.45714 0.27845 0.84381
 N3403 N 0.46245 0.27312 0.83463
 C3404 C 0.47231 0.27796 0.82960
 N3405 N 0.47668 0.28832 0.83409
 N3406 N 0.47137 0.29366 0.84326
 C3407 C 0.47778 0.27244 0.81907
 N3408 N 0.48737 0.27754 0.81378
 N3409 N 0.49179 0.27305 0.80373
 C3410 C 0.48681 0.26327 0.79861
 N3411 N 0.47732 0.25808 0.80400
 N3412 N 0.47290 0.26256 0.81406
 C3413 C 0.95455 0.29614 0.35704
 N3414 N 0.94450 0.29147 0.36188
 N3415 N 0.93940 0.29662 0.37127
 C3416 C 0.94415 0.30663 0.37615
 N3417 N 0.95414 0.31134 0.37126
 N3418 N 0.95925 0.30619 0.36187
 C3419 C 0.96031 0.29032 0.34686
 N3420 N 0.97041 0.29492 0.34208
 N3421 N 0.97564 0.28964 0.33283
 C3422 C 0.97098 0.27954 0.32806
 N3423 N 0.96090 0.27492 0.33286
 N3424 N 0.95566 0.28021 0.34210
 C3425 C 0.97648 0.27397 0.31759
 N3426 N 0.97152 0.26416 0.31254
 N3427 N 0.97610 0.25950 0.30264
 C3428 C 0.98584 0.26444 0.29746
 N3429 N 0.99088 0.27418 0.30260
 N3430 N 0.98629 0.27884 0.31250
 C3431 C 0.45546 0.35834 0.79416
 N3432 N 0.46006 0.36309 0.80428
 N3433 N 0.45465 0.37216 0.80971
 C3434 C 0.44444 0.37679 0.80520
 N3435 N 0.43981 0.37203 0.79509
 N3436 N 0.44522 0.36296 0.78967
 C3437 C 0.46141 0.34835 0.78821
 N3438 N 0.45675 0.34351 0.77815
 N3439 N 0.46204 0.33428 0.77289
 C3440 C 0.47220 0.32958 0.77747
 N3441 N 0.47688 0.33446 0.78749
 N3442 N 0.47160 0.34369 0.79276
 C3443 C 0.47762 0.31898 0.77207
 N3444 N 0.48737 0.31386 0.77705
 N3445 N 0.49173 0.30371 0.77270
 C3446 C 0.48652 0.29833 0.76319
 N3447 N 0.47688 0.30357 0.75811
 N3448 N 0.47252 0.31371 0.76245
 C3449 C 0.95478 0.35755 0.29530
 N3450 N 0.95949 0.36234 0.30537
 N3451 N 0.95429 0.37159 0.31068
 C3452 C 0.94417 0.37640 0.30613
 N3453 N 0.93944 0.37160 0.29608
 N3454 N 0.94465 0.36234 0.29077
 C3455 C 0.96055 0.34737 0.28942
 N3456 N 0.95577 0.34250 0.27942
 N3457 N 0.96096 0.33321 0.27414
 C3458 C 0.97113 0.32847 0.27865
 N3459 N 0.97592 0.33336 0.28862
 N3460 N 0.97073 0.34264 0.29390
 C3461 C 0.97658 0.31791 0.27313
 N3462 N 0.98652 0.31294 0.27790
 N3463 N 0.99105 0.30295 0.27337
 C3464 C 0.98584 0.29757 0.26386
 N3465 N 0.97599 0.30263 0.25899
 N3466 N 0.97146 0.31262 0.26353
 C3467 C 0.29501 0.85892 0.45591
 N3468 N 0.30521 0.86360 0.46044
 N3469 N 0.31065 0.87263 0.45499
 C3470 C 0.30610 0.87731 0.44482
 N3471 N 0.29592 0.87261 0.44028
 N3472 N 0.29048 0.86357 0.44572
 C3473 C 0.28903 0.84892 0.46188
 N3474 N 0.27887 0.84421 0.45731
 N3475 N 0.27356 0.83501 0.46259
 C3476 C 0.27820 0.83019 0.47266
 N3477 N 0.28833 0.83494 0.47727
 N3478 N 0.29363 0.84415 0.47199
 C3479 C 0.27272 0.81961 0.47809
 N3480 N 0.27772 0.81438 0.48777
 N3481 N 0.27328 0.80427 0.49213
 C3482 C 0.26364 0.79905 0.48701
 N3483 N 0.25854 0.80439 0.47744
 N3484 N 0.26297 0.81449 0.47307
 C3485 C 0.29624 0.35696 0.95455
 N3486 N 0.29152 0.36176 0.94450
 N3487 N 0.29667 0.37109 0.93928
 C3488 C 0.30673 0.37595 0.94391
 N3489 N 0.31150 0.37110 0.95390
 N3490 N 0.30635 0.36177 0.95912
 C3491 C 0.29038 0.34686 0.96046
 N3492 N 0.29504 0.34208 0.97055
 N3493 N 0.28972 0.33292 0.97590
 C3494 C 0.27951 0.32824 0.97139
 N3495 N 0.27484 0.33304 0.96133
 N3496 N 0.28017 0.34219 0.95598
 C3497 C 0.27391 0.31781 0.97698
 N3498 N 0.26398 0.31286 0.97216
 N3499 N 0.25934 0.30294 0.97673
 C3500 C 0.26442 0.29763 0.98633
 N3501 N 0.27426 0.30268 0.99125
 N3502 N 0.27890 0.31260 0.98667
 C3503 C 0.79588 0.39280 0.29504
 N3504 N 0.79161 0.38844 0.30546
 N3505 N 0.79682 0.37916 0.31071
 C3506 C 0.80649 0.37390 0.30572
 N3507 N 0.81080 0.37830 0.29533
 N3508 N 0.80561 0.38759 0.29009
 C3509 C 0.79001 0.40292 0.28917
 N3510 N 0.79448 0.40754 0.27893
 N3511 N 0.78917 0.41675 0.27365
 C3512 C 0.77918 0.42165 0.27839
 N3513 N 0.77470 0.41699 0.28860
 N3514 N 0.78001 0.40779 0.29388
 C3515 C 0.77363 0.43214 0.27289
 N3516 N 0.76380 0.43718 0.27781
 N3517 N 0.75923 0.44716 0.27331
 C3518 C 0.76429 0.45246 0.26371
 N3519 N 0.77403 0.44734 0.25869
 N3520 N 0.77860 0.43735 0.26318
   
