data_POSCAR
  _audit_creation_date              2014-09-24
  _audit_creation_method            'ToBaCCo'
  _symmetry_space_group_name_H-M    'P1'
  _symmetry_Int_Tables_number       1
  _symmetry_cell_setting            triclinic
  loop_
  _symmetry_equiv_pos_as_xyz
 x,y,z
_cell_length_a 37.4698
_cell_length_b 37.4331
_cell_length_c 37.4680
_cell_angle_alpha 89.948700
_cell_angle_beta 89.977400
_cell_angle_gamma 89.942100
loop_
  _atom_site_label
  _atom_site_type_symbol
  _atom_site_fract_x
  _atom_site_fract_y
  _atom_site_fract_z
C1 C 0.06212 0.00720 0.20459
 H2 H 0.04665 0.01142 0.22858
 C3 C 0.04579 0.00995 0.17102
 H4 H 0.01747 0.01550 0.16946
 C5 C 0.11802 -0.00418 0.17720
 H6 H 0.14635 -0.00912 0.17991
 C7 C 0.10289 -0.00198 0.14341
 H8 H 0.11982 -0.00561 0.12025
 N9 N 0.09764 0.00000 0.20690
 C10 C 0.11358 0.01707 0.31965
 H11 H 0.13814 0.03166 0.31569
 C12 C 0.09848 0.01578 0.35355
 H13 H 0.11116 0.03036 0.37503
 C14 C 0.06867 -0.02106 0.29676
 H15 H 0.05797 -0.03628 0.27470
 C16 C 0.05241 -0.02291 0.33039
 H17 H 0.02872 -0.03910 0.33377
 Zn18 Zn 0.12500 -0.00146 0.24911
 N19 N 0.09842 -0.00083 0.29198
 C20 C 0.13190 0.07043 0.25064
 N21 N 0.15242 0.04071 0.24696
 C22 C 0.18799 0.04304 0.24012
 C23 C 0.20433 0.07663 0.23775
 C24 C 0.14705 0.10425 0.24887
 C25 C 0.13441 -0.07296 0.23468
 C26 C 0.14922 -0.10701 0.23662
 C27 C 0.19880 -0.08231 0.26965
 C28 C 0.18258 -0.04864 0.26745
 N29 N 0.15132 -0.04454 0.24951
 H30 H 0.10351 0.06772 0.25516
 H31 H 0.20356 0.01909 0.23595
 H32 H 0.23272 0.07822 0.23260
 H33 H 0.13007 0.12743 0.25228
 H34 H 0.10880 -0.06932 0.22190
 H35 H 0.13475 -0.12883 0.22435
 H36 H 0.22386 -0.08464 0.28389
 H37 H 0.19463 -0.02599 0.28064
 C38 C 0.06752 -0.00445 0.35939
 C39 C 0.06631 0.00517 0.13988
 C40 C 0.18210 -0.11240 0.25415
 C41 C 0.18373 0.10775 0.24249
 C42 C 0.42969 0.02191 0.79786
 H43 H 0.44002 0.03778 0.77606
 C44 C 0.44530 0.02422 0.83176
 H45 H 0.46825 0.04136 0.83560
 C46 C 0.38627 -0.01850 0.81982
 H47 H 0.36253 -0.03424 0.81541
 C48 C 0.40069 -0.01670 0.85400
 H49 H 0.38844 -0.03211 0.87518
 N50 N 0.40103 0.00029 0.79247
 C51 C 0.38195 -0.00006 0.67740
 H52 H 0.35333 0.00269 0.68011
 C53 C 0.39713 -0.00174 0.64361
 H54 H 0.37997 -0.00010 0.62040
 C55 C 0.43865 -0.00591 0.70486
 H56 H 0.45449 -0.00795 0.72889
 C57 C 0.45506 -0.00818 0.67129
 H58 H 0.48375 -0.01130 0.66970
 Zn59 Zn 0.37510 0.00017 0.74918
 N60 N 0.40269 -0.00157 0.70712
 C61 C 0.36161 0.07006 0.72889
 N62 N 0.34808 0.04276 0.74864
 C63 C 0.31963 0.04778 0.77064
 C64 C 0.30311 0.08131 0.77264
 C65 C 0.34626 0.10386 0.73031
 C66 C 0.36886 -0.07183 0.74942
 C67 C 0.35374 -0.10566 0.74762
 C68 C 0.29593 -0.07794 0.73978
 C69 C 0.31226 -0.04437 0.74211
 N70 N 0.34810 -0.04212 0.74723
 H71 H 0.38519 0.06601 0.71280
 H72 H 0.31024 0.02601 0.78714
 H73 H 0.28052 0.08496 0.79030
 H74 H 0.35768 0.12509 0.71432
 H75 H 0.39740 -0.06909 0.75281
 H76 H 0.37085 -0.12888 0.74988
 H77 H 0.26731 -0.07949 0.73614
 H78 H 0.29647 -0.02033 0.73955
 C79 C 0.43413 -0.00575 0.64015
 C80 C 0.43061 0.00483 0.86042
 C81 C 0.31681 -0.10910 0.74289
 C82 C 0.31671 0.10996 0.75249
 C83 C 0.93284 0.51884 0.29756
 H84 H 0.94498 0.53201 0.27493
 C85 C 0.94868 0.52140 0.33131
 H86 H 0.97363 0.53577 0.33390
 C87 C 0.88470 0.48580 0.32176
 H88 H 0.85925 0.47277 0.31802
 C89 C 0.89916 0.48815 0.35590
 H90 H 0.88479 0.47590 0.37780
 N91 N 0.90183 0.50050 0.29336
 C92 C 0.88320 0.50190 0.17835
 H93 H 0.85472 0.50586 0.18098
 C94 C 0.89856 0.50079 0.14460
 H95 H 0.88163 0.50413 0.12141
 C96 C 0.93934 0.49212 0.20584
 H97 H 0.95487 0.48798 0.22978
 C98 C 0.95590 0.49043 0.17231
 H99 H 0.98439 0.48581 0.17078
 Zn100 Zn 0.87591 0.49964 0.25016
 N101 N 0.90362 0.49828 0.20810
 C102 C 0.86343 0.57017 0.23205
 N103 N 0.84852 0.54213 0.24967
 C104 C 0.81878 0.54649 0.27006
 C105 C 0.80234 0.58006 0.27243
 C106 C 0.84815 0.60401 0.23387
 C107 C 0.86995 0.42720 0.25292
 C108 C 0.85502 0.39323 0.25074
 C109 C 0.79790 0.42063 0.23837
 C110 C 0.81399 0.45430 0.24109
 N111 N 0.84940 0.45683 0.24854
 H112 H 0.88800 0.56659 0.21739
 H113 H 0.80830 0.52416 0.28509
 H114 H 0.77868 0.58311 0.28876
 H115 H 0.86070 0.62577 0.21954
 H116 H 0.89821 0.43008 0.25809
 H117 H 0.87197 0.37011 0.25465
 H118 H 0.76961 0.41898 0.23272
 H119 H 0.79839 0.47822 0.23675
 C120 C 0.93538 0.49514 0.14118
 C121 C 0.93182 0.50588 0.36123
 C122 C 0.81852 0.38953 0.24341
 C123 C 0.81727 0.60944 0.25435
 C124 C 0.56967 0.52153 0.70344
 H125 H 0.56032 0.53814 0.72513
 C126 C 0.55325 0.52361 0.66992
 H127 H 0.53075 0.54141 0.66624
 C128 C 0.61152 0.47951 0.68133
 H129 H 0.63503 0.46331 0.68545
 C130 C 0.59625 0.48101 0.64752
 H131 H 0.60765 0.46495 0.62635
 N132 N 0.59803 0.49941 0.70853
 C133 C 0.61872 0.50210 0.82305
 H134 H 0.64717 0.50610 0.82024
 C135 C 0.60366 0.50002 0.85688
 H136 H 0.62076 0.50269 0.88003
 C137 C 0.56235 0.49312 0.79578
 H138 H 0.54663 0.48990 0.77181
 C139 C 0.54609 0.49043 0.82938
 H140 H 0.51762 0.48582 0.83103
 Zn141 Zn 0.62509 0.50044 0.75102
 N142 N 0.59806 0.49908 0.79341
 C143 C 0.63660 0.57133 0.76831
 N144 N 0.65114 0.54358 0.74996
 C145 C 0.67969 0.54844 0.72806
 C146 C 0.69549 0.58222 0.72500
 C147 C 0.65118 0.60540 0.76576
 C148 C 0.63228 0.42865 0.75213
 C149 C 0.64764 0.39495 0.75432
 C150 C 0.70541 0.42298 0.76063
 C151 C 0.68882 0.45647 0.75786
 N152 N 0.65286 0.45850 0.75332
 H153 H 0.61292 0.56731 0.78426
 H154 H 0.68982 0.52628 0.71254
 H155 H 0.71837 0.58564 0.70767
 H156 H 0.63910 0.62691 0.78085
 H157 H 0.60366 0.43120 0.74924
 H158 H 0.63061 0.37163 0.75291
 H159 H 0.73409 0.42153 0.76387
 H160 H 0.70451 0.48061 0.75969
 C161 C 0.56691 0.49407 0.86046
 C162 C 0.56685 0.50340 0.64134
 C163 C 0.68466 0.39170 0.75850
 C164 C 0.68105 0.61128 0.74394
 C165 C 0.29394 0.06287 0.99030
 H166 H 0.26981 0.04754 0.98647
 C167 C 0.32733 0.04615 0.98790
 H168 H 0.32862 0.01767 0.98302
 C169 C 0.32182 0.11874 1.00061
 H170 H 0.31934 0.14718 1.00511
 C171 C 0.35548 0.10321 0.99873
 H172 H 0.37881 0.11992 1.00215
 N173 N 0.29195 0.09853 0.99690
 C174 C 0.17931 0.11353 0.98029
 H175 H 0.18302 0.13777 0.96506
 C176 C 0.14558 0.09815 0.98196
 H177 H 0.12400 0.11030 0.96703
 C178 C 0.20261 0.06974 1.01960
 H179 H 0.22477 0.05959 1.03509
 C180 C 0.16914 0.05320 1.02184
 H181 H 0.16597 0.02985 1.03862
 Zn182 Zn 0.24980 0.12594 0.99854
 N183 N 0.20711 0.09907 0.99861
 C184 C 0.24777 0.13244 0.92654
 N185 N 0.25150 0.15314 0.95609
 C186 C 0.25824 0.18875 0.95343
 C187 C 0.26044 0.20490 0.91973
 C188 C 0.24938 0.14740 0.89261
 C189 C 0.26464 0.13513 1.06991
 C190 C 0.26297 0.14982 1.10399
 C191 C 0.23042 0.19995 1.07951
 C192 C 0.23231 0.18384 1.04582
 N193 N 0.24987 0.15233 1.04159
 H194 H 0.24336 0.10403 0.92948
 H195 H 0.26249 0.20448 0.97721
 H196 H 0.26551 0.23331 0.91792
 H197 H 0.24594 0.13027 0.86959
 H198 H 0.27712 0.10935 1.06618
 H199 H 0.27516 0.13509 1.12572
 H200 H 0.21644 0.22519 1.08194
 H201 H 0.21915 0.19615 1.02327
 C202 C 0.14002 0.06762 1.00299
 C203 C 0.35864 0.06643 0.99242
 C204 C 0.24580 0.18291 1.10952
 C205 C 0.25567 0.18410 0.88879
 C206 C 0.70490 0.43092 0.98330
 H207 H 0.72737 0.44264 0.96950
 C208 C 0.67101 0.44649 0.98033
 H209 H 0.66788 0.47079 0.96493
 C210 C 0.68121 0.38397 1.01847
 H211 H 0.68507 0.35890 1.03229
 C212 C 0.64707 0.39837 1.01604
 H213 H 0.62522 0.38461 1.02904
 N214 N 0.70941 0.40058 1.00279
 C215 C 0.82444 0.38204 1.00156
 H216 H 0.82188 0.35351 0.99774
 C217 C 0.85813 0.39747 1.00255
 H218 H 0.88137 0.38055 0.99933
 C219 C 0.79677 0.43825 1.01087
 H220 H 0.77275 0.45378 1.01471
 C221 C 0.83024 0.45489 1.01242
 H222 H 0.83168 0.48345 1.01675
 Zn223 Zn 0.75272 0.37471 1.00377
 N224 N 0.79465 0.40245 1.00510
 C225 C 0.76955 0.36343 0.93319
 N226 N 0.75331 0.34751 0.96146
 C227 C 0.73413 0.31694 0.95744
 C228 C 0.73154 0.30075 0.92383
 C229 C 0.76752 0.34840 0.89934
 C230 C 0.74684 0.36754 1.07574
 C231 C 0.74829 0.35233 1.10954
 C232 C 0.76797 0.29703 1.08251
 C233 C 0.76526 0.31331 1.04892
 N234 N 0.75441 0.34786 1.04629
 H235 H 0.78328 0.38856 0.93667
 H236 H 0.72022 0.30562 0.98007
 H237 H 0.71618 0.27644 0.92100
 H238 H 0.78074 0.36178 0.87738
 H239 H 0.73943 0.39533 1.07284
 H240 H 0.74138 0.36894 1.13219
 H241 H 0.77651 0.26940 1.08384
 H242 H 0.77237 0.29860 1.02512
 C243 C 0.86144 0.43436 1.00791
 C244 C 0.64151 0.43008 0.99683
 C245 C 0.75885 0.31640 1.11365
 C246 C 0.74818 0.31674 0.89417
 C247 C 0.20605 0.93845 0.49365
 H248 H 0.22996 0.95426 0.49046
 C249 C 0.17239 0.95475 0.49166
 H250 H 0.17067 0.98333 0.48753
 C251 C 0.17892 0.88187 0.50209
 H252 H 0.18179 0.85334 0.50570
 C253 C 0.14504 0.89697 0.50073
 H254 H 0.12194 0.87982 0.50347
 N255 N 0.20853 0.90261 0.49904
 C256 C 0.32099 0.88850 0.47999
 H257 H 0.31690 0.86483 0.46405
 C258 C 0.35486 0.90368 0.48148
 H259 H 0.37611 0.89206 0.46570
 C260 C 0.29870 0.93090 0.52131
 H261 H 0.27692 0.94051 0.53766
 C262 C 0.33226 0.94723 0.52337
 H263 H 0.33586 0.96993 0.54089
 Zn264 Zn 0.25096 0.87546 0.50028
 N265 N 0.29365 0.90233 0.49949
 C266 C 0.25060 0.86879 0.42836
 N267 N 0.24882 0.84802 0.45808
 C268 C 0.24392 0.81210 0.45580
 C269 C 0.24127 0.79578 0.42222
 C270 C 0.24858 0.85367 0.39455
 C271 C 0.23340 0.86409 0.57116
 C272 C 0.23543 0.84938 0.60522
 C273 C 0.27540 0.80425 0.58222
 C274 C 0.27284 0.82015 0.54843
 N275 N 0.25156 0.84920 0.54347
 H276 H 0.25380 0.89739 0.43107
 H277 H 0.24166 0.79624 0.47981
 H278 H 0.23763 0.76713 0.42063
 H279 H 0.25041 0.87086 0.37135
 H280 H 0.21797 0.88815 0.56709
 H281 H 0.22050 0.86176 0.62666
 H282 H 0.29224 0.78098 0.58569
 H283 H 0.28823 0.80969 0.52636
 C284 C 0.36096 0.93336 0.50346
 C285 C 0.14136 0.93385 0.49545
 C286 C 0.25659 0.81902 0.61121
 C287 C 0.24391 0.81672 0.39107
 C288 C 0.79719 0.57013 0.47731
 H289 H 0.77523 0.56092 0.46101
 C290 C 0.83082 0.55400 0.47422
 H291 H 0.83434 0.53178 0.45606
 C292 C 0.81977 0.61132 0.51961
 H293 H 0.81573 0.63443 0.53639
 C294 C 0.85370 0.59642 0.51703
 H295 H 0.87506 0.60763 0.53293
 N296 N 0.79226 0.59796 0.50013
 C297 C 0.67769 0.61827 0.50109
 H298 H 0.68042 0.64693 0.49845
 C299 C 0.64392 0.60313 0.50285
 H300 H 0.62072 0.62036 0.50141
 C301 C 0.70514 0.56142 0.50656
 H302 H 0.72917 0.54552 0.50843
 C303 C 0.67159 0.54504 0.50888
 H304 H 0.67000 0.51631 0.51188
 Zn305 Zn 0.74949 0.62472 0.50074
 N306 N 0.70737 0.59743 0.50240
 C307 C 0.72951 0.63847 0.43090
 N308 N 0.74925 0.65182 0.45823
 C309 C 0.77164 0.67998 0.45324
 C310 C 0.77408 0.69637 0.41970
 C311 C 0.73138 0.65368 0.39708
 C312 C 0.74941 0.63110 0.57289
 C313 C 0.74688 0.64633 0.60662
 C314 C 0.73931 0.70408 0.57866
 C315 C 0.74234 0.68764 0.54520
 N316 N 0.74765 0.65177 0.54311
 H317 H 0.71312 0.61509 0.43493
 H318 H 0.78813 0.68920 0.47505
 H319 H 0.79202 0.71874 0.41608
 H320 H 0.71539 0.64239 0.37583
 H321 H 0.75286 0.60252 0.57029
 H322 H 0.74878 0.62927 0.62991
 H323 H 0.73551 0.73273 0.58007
 H324 H 0.74003 0.70337 0.52111
 C325 C 0.64048 0.56607 0.50671
 C326 C 0.85969 0.56742 0.49408
 C327 C 0.74187 0.68329 0.60991
 C328 C 0.75398 0.68291 0.39101
 C329 C 0.00748 0.20613 0.06052
 H330 H 0.01186 0.22997 0.04484
 C331 C 0.00960 0.17242 0.04435
 H332 H 0.01479 0.17066 0.01597
 C333 C -0.00336 0.17911 0.11671
 H334 H -0.00784 0.18200 0.14509
 C335 C -0.00182 0.14518 0.10173
 H336 H -0.00543 0.12212 0.11883
 N337 N 0.00074 0.20871 0.09609
 C338 C 0.01681 0.32207 0.11390
 H339 H 0.02993 0.31797 0.13926
 C340 C 0.01587 0.35619 0.09912
 H341 H 0.02915 0.37768 0.11317
 C342 C -0.01784 0.29899 0.06639
 H343 H -0.03201 0.27682 0.05455
 C344 C -0.01917 0.33276 0.05033
 H345 H -0.03386 0.33581 0.02562
 Zn346 Zn -0.00029 0.25107 0.12346
 N347 N 0.00052 0.29422 0.09730
 C348 C 0.07160 0.25202 0.12944
 N349 N 0.04212 0.24867 0.15031
 C350 C 0.04477 0.24211 0.18590
 C351 C 0.07849 0.23931 0.20184
 C352 C 0.10556 0.24981 0.14418
 C353 C -0.07124 0.23470 0.13480
 C354 C -0.10505 0.23642 0.15007
 C355 C -0.08090 0.27354 0.19689
 C356 C -0.04736 0.27133 0.18043
 N357 N -0.04310 0.25155 0.15027
 H358 H 0.06858 0.25651 0.10107
 H359 H 0.02093 0.23858 0.20178
 H360 H 0.08035 0.23436 0.23025
 H361 H 0.12856 0.25289 0.12694
 H362 H -0.06766 0.22049 0.10996
 H363 H -0.12685 0.22252 0.13717
 H364 H -0.08383 0.28916 0.22103
 H365 H -0.02493 0.28579 0.19139
 C366 C -0.00225 0.36213 0.06679
 C367 C 0.00471 0.14140 0.06509
 C368 C -0.11034 0.25595 0.18158
 C369 C 0.10941 0.24344 0.18083
 C370 C 0.00674 0.79478 0.43743
 H371 H 0.01059 0.77075 0.45300
 C372 C 0.00966 0.82838 0.45372
 H373 H 0.01494 0.82993 0.48208
 C374 C -0.00383 0.82225 0.38139
 H375 H -0.00854 0.81956 0.35304
 C376 C -0.00148 0.85607 0.39648
 H377 H -0.00474 0.87927 0.37949
 N378 N -0.00020 0.79249 0.40188
 C379 C 0.01362 0.67897 0.38461
 H380 H 0.02765 0.68277 0.35969
 C381 C 0.01161 0.64490 0.39937
 H382 H 0.02514 0.62310 0.38603
 C383 C -0.02229 0.70266 0.43096
 H384 H -0.03640 0.72513 0.44239
 C385 C -0.02479 0.66887 0.44692
 H386 H -0.04020 0.66580 0.47118
 Zn387 Zn -0.00210 0.75027 0.37445
 N388 N -0.00271 0.70712 0.40071
 C389 C 0.06984 0.74695 0.36801
 N390 N 0.04035 0.75163 0.34745
 C391 C 0.04300 0.75906 0.31201
 C392 C 0.07668 0.76119 0.29587
 C393 C 0.10376 0.74852 0.35307
 C394 C -0.07301 0.76648 0.36410
 C395 C -0.10692 0.76495 0.34908
 C396 C -0.08236 0.73078 0.30013
 C397 C -0.04883 0.73262 0.31655
 N398 N -0.04474 0.75086 0.34763
 H399 H 0.06688 0.74194 0.39630
 H400 H 0.01923 0.76395 0.29642
 H401 H 0.07849 0.76688 0.26759
 H402 H 0.12675 0.74440 0.37009
 H403 H -0.06941 0.77947 0.38960
 H404 H -0.12864 0.77776 0.36327
 H405 H -0.08472 0.71619 0.27529
 H406 H -0.02630 0.71887 0.30485
 C407 C -0.00770 0.63941 0.43099
 C408 C 0.00531 0.85957 0.43310
 C409 C -0.11232 0.74695 0.31647
 C410 C 0.10760 0.75565 0.31653
 C411 C 0.52119 0.29395 0.93043
 H412 H 0.53719 0.27179 0.93984
 C413 C 0.52383 0.32737 0.94703
 H414 H 0.54141 0.33053 0.96974
 C415 C 0.48020 0.31730 0.88828
 H416 H 0.46420 0.31372 0.86458
 C417 C 0.48228 0.35100 0.90370
 H418 H 0.46682 0.37260 0.89222
 N419 N 0.49923 0.28950 0.90187
 C420 C 0.49812 0.17480 0.88065
 H421 H 0.50170 0.17747 0.85212
 C422 C 0.49561 0.14099 0.89585
 H423 H 0.49756 0.11771 0.87881
 C424 C 0.49100 0.20238 0.93715
 H425 H 0.48875 0.22646 0.95289
 C426 C 0.48795 0.16887 0.95354
 H427 H 0.48413 0.16740 0.98216
 Zn428 Zn 0.49909 0.24712 0.87454
 N429 N 0.49640 0.20456 0.90133
 C430 C 0.56946 0.22717 0.86189
 N431 N 0.54231 0.24723 0.84846
 C432 C 0.54791 0.27063 0.82123
 C433 C 0.58186 0.27386 0.80591
 C434 C 0.60373 0.22984 0.84773
 C435 C 0.42724 0.24863 0.86729
 C436 C 0.39357 0.24817 0.85178
 C437 C 0.42163 0.24191 0.79400
 C438 C 0.45508 0.24303 0.81073
 N439 N 0.45711 0.24661 0.84678
 H440 H 0.56490 0.20992 0.88456
 H441 H 0.52625 0.28736 0.81198
 H442 H 0.58589 0.29260 0.78425
 H443 H 0.62484 0.21358 0.85900
 H444 H 0.42975 0.25085 0.89597
 H445 H 0.37024 0.25009 0.86876
 H446 H 0.42022 0.23923 0.76526
 H447 H 0.47921 0.24070 0.79506
 C448 C 0.49062 0.13763 0.93277
 C449 C 0.50439 0.35650 0.93338
 C450 C 0.39036 0.24481 0.81470
 C451 C 0.61041 0.25352 0.81947
 C452 C 0.52118 0.70265 0.57057
 H453 H 0.53831 0.72413 0.56168
 C454 C 0.52349 0.66899 0.55447
 H455 H 0.54202 0.66499 0.53264
 C456 C 0.47756 0.68122 0.61107
 H457 H 0.46062 0.68568 0.63397
 C458 C 0.47927 0.64725 0.59610
 H459 H 0.46266 0.62627 0.60706
 N460 N 0.49819 0.70815 0.59813
 C461 C 0.50151 0.82275 0.61810
 H462 H 0.50452 0.82001 0.64669
 C463 C 0.50083 0.85655 0.60279
 H464 H 0.50341 0.87975 0.61984
 C465 C 0.49400 0.79532 0.56157
 H466 H 0.49096 0.77130 0.54587
 C467 C 0.49270 0.82890 0.54505
 H468 H 0.48918 0.83050 0.51641
 Zn469 Zn 0.49911 0.75088 0.62485
 N470 N 0.49858 0.79305 0.59749
 C471 C 0.56992 0.76786 0.63637
 N472 N 0.54208 0.74996 0.65127
 C473 C 0.54680 0.72876 0.68040
 C474 C 0.58049 0.72609 0.69643
 C475 C 0.60387 0.76570 0.65118
 C476 C 0.42712 0.75293 0.63129
 C477 C 0.39334 0.75537 0.64645
 C478 C 0.42110 0.76145 0.70437
 C479 C 0.45462 0.75847 0.68799
 N480 N 0.45684 0.75382 0.65207
 H481 H 0.56606 0.78319 0.61223
 H482 H 0.52461 0.71353 0.69084
 H483 H 0.58379 0.70935 0.71978
 H484 H 0.62543 0.78045 0.63878
 H485 H 0.42981 0.74996 0.60270
 H486 H 0.37011 0.75401 0.62931
 H487 H 0.41956 0.76458 0.73305
 H488 H 0.47865 0.76010 0.70386
 C489 C 0.49638 0.86002 0.56582
 C490 C 0.50258 0.64065 0.56755
 C491 C 0.38992 0.75947 0.68345
 C492 C 0.60961 0.74467 0.68164
 C493 C 0.93890 1.01447 0.70326
 H494 H 0.95316 1.02366 0.72660
 C495 C 0.95370 1.01780 0.67078
 H496 H 0.98018 1.02914 0.66843
 C497 C 0.88531 0.99006 0.67918
 H498 H 0.85812 0.98098 0.68235
 C499 C 0.90069 0.99243 0.64317
 H500 H 0.88462 0.98317 0.62101
 N501 N 0.90354 0.99993 0.70700
 C502 C 0.88345 1.01244 0.82308
 H503 H 0.85685 1.02318 0.81975
 C504 C 0.89724 1.00924 0.85576
 H505 H 0.88154 1.01791 0.87844
 C506 C 0.93496 0.98707 0.79546
 H507 H 0.94858 0.97674 0.77222
 C508 C 0.95158 0.98342 0.83114
 H509 H 0.97822 0.97229 0.83281
 Zn510 Zn 0.87625 1.00068 0.74958
 N511 N 0.90322 1.00094 0.79230
 C512 C 0.86956 0.92835 0.75810
 N513 N 0.84926 0.95760 0.75069
 C514 C 0.81375 0.95434 0.74367
 C515 C 0.79715 0.92095 0.74605
 C516 C 0.85430 0.89447 0.75982
 C517 C 0.86998 1.07295 0.73925
 C518 C 0.85489 1.10695 0.73740
 C519 C 0.79816 1.08128 0.75401
 C520 C 0.81462 1.04782 0.75653
 N521 N 0.84979 1.04408 0.74819
 H522 H 0.89790 0.93128 0.76243
 H523 H 0.79836 0.97706 0.73505
 H524 H 0.76890 0.91868 0.74040
 H525 H 0.87098 0.87157 0.76575
 H526 H 0.89811 1.06964 0.73387
 H527 H 0.87146 1.12961 0.73045
 H528 H 0.77020 1.08397 0.76087
 H529 H 0.79948 1.02547 0.76640
 C530 C 0.93354 0.99391 0.86059
 C531 C 0.93369 1.00596 0.63848
 C532 C 0.81848 1.11127 0.74441
 C533 C 0.81760 0.89058 0.75420
 C534 C 0.43656 0.49206 0.20446
 H535 H 0.45192 0.48345 0.22719
 C536 C 0.45316 0.49450 0.17108
 H537 H 0.48138 0.48862 0.16874
 C538 C 0.38084 0.50713 0.17864
 H539 H 0.35256 0.51205 0.18184
 C540 C 0.39611 0.50891 0.14476
 H541 H 0.37949 0.51513 0.12193
 N542 N 0.40112 0.49936 0.20778
 C543 C 0.38004 0.49108 0.32306
 H544 H 0.35183 0.48604 0.31960
 C545 C 0.39508 0.48890 0.35704
 H546 H 0.37834 0.48229 0.37967
 C547 C 0.43585 0.50676 0.29784
 H548 H 0.45131 0.51576 0.27533
 C549 C 0.45222 0.50392 0.33129
 H550 H 0.48038 0.50989 0.33389
 Zn551 Zn 0.37413 0.49944 0.25077
 N552 N 0.40049 0.49932 0.29417
 C553 C 0.36836 0.42710 0.25820
 N554 N 0.34765 0.45605 0.25069
 C555 C 0.31222 0.45228 0.24362
 C556 C 0.29610 0.41864 0.24603
 C557 C 0.35358 0.39296 0.25994
 C558 C 0.36832 0.57177 0.24260
 C559 C 0.35341 0.60583 0.24005
 C560 C 0.29582 0.58021 0.25338
 C561 C 0.31204 0.54666 0.25661
 N562 N 0.34761 0.54288 0.25020
 H563 H 0.39661 0.43063 0.26297
 H564 H 0.29648 0.47483 0.23519
 H565 H 0.26789 0.41598 0.24033
 H566 H 0.37055 0.37030 0.26597
 H567 H 0.39666 0.56823 0.23833
 H568 H 0.37039 0.62845 0.23399
 H569 H 0.26750 0.58288 0.25858
 H570 H 0.29625 0.52419 0.26509
 C571 C 0.43169 0.49483 0.36132
 C572 C 0.43279 0.50304 0.14079
 C573 C 0.31664 0.61024 0.24496
 C574 C 0.31693 0.38854 0.25431
 C575 C 0.56044 1.00677 0.29700
 H576 H 0.54326 1.00602 0.27404
 C577 C 0.54588 1.01090 0.32941
 H578 H 0.51722 1.01395 0.33167
 C579 C 0.61899 1.00103 0.32115
 H580 H 0.64749 0.99800 0.31780
 C581 C 0.60396 1.00329 0.35740
 H582 H 0.62199 1.00097 0.37989
 N583 N 0.59846 1.00271 0.29317
 C584 C 0.61434 0.98246 0.17922
 H585 H 0.64085 0.97185 0.18305
 C586 C 0.59863 0.97990 0.14566
 H587 H 0.61299 0.96704 0.12408
 C588 C 0.56435 1.01403 0.20165
 H589 H 0.55209 1.02964 0.22245
 C590 C 0.54710 1.01103 0.16866
 H591 H 0.52115 1.02323 0.16486
 Zn592 Zn 0.62457 1.00109 0.24957
 N593 N 0.59705 0.99890 0.20669
 C594 C 0.63190 0.92874 0.25842
 N595 N 0.65158 0.95814 0.25032
 C596 C 0.68612 0.95517 0.23947
 C597 C 0.70209 0.92142 0.23661
 C598 C 0.64675 0.89468 0.25610
 C599 C 0.63507 1.07247 0.23480
 C600 C 0.65015 1.10638 0.23702
 C601 C 0.70074 1.08055 0.26756
 C602 C 0.68432 1.04700 0.26511
 N603 N 0.65219 1.04355 0.24853
 H604 H 0.60423 0.93181 0.26607
 H605 H 0.70089 0.97873 0.23176
 H606 H 0.72957 0.91953 0.22787
 H607 H 0.63038 0.87180 0.26275
 H608 H 0.60901 1.06944 0.22291
 H609 H 0.63550 1.12870 0.22585
 H610 H 0.72631 1.08256 0.28089
 H611 H 0.69679 1.02399 0.27732
 C612 C 0.56452 0.99394 0.14028
 C613 C 0.56869 1.00865 0.36187
 C614 C 0.68348 1.11106 0.25366
 C615 C 0.68226 0.89055 0.24489
 C616 C 0.06328 0.49495 0.79673
 H617 H 0.04728 0.48656 0.77442
 C618 C 0.04732 0.49831 0.83034
 H619 H 0.01900 0.49329 0.83322
 C620 C 0.11983 0.50858 0.82140
 H621 H 0.14817 0.51266 0.81767
 C622 C 0.10519 0.51129 0.85550
 H623 H 0.12237 0.51725 0.87796
 N624 N 0.09885 0.50114 0.79270
 C625 C 0.11919 0.49437 0.67706
 H626 H 0.14754 0.49017 0.68056
 C627 C 0.10433 0.49204 0.64306
 H628 H 0.12137 0.48617 0.62044
 C629 C 0.06277 0.50773 0.70230
 H630 H 0.04689 0.51578 0.72484
 C631 C 0.04660 0.50474 0.66878
 H632 H 0.01822 0.50964 0.66617
 Zn633 Zn 0.12506 0.50086 0.74915
 N634 N 0.09837 0.50144 0.70599
 C635 C 0.13065 0.42878 0.73980
 N636 N 0.15122 0.45746 0.74837
 C637 C 0.18666 0.45362 0.75534
 C638 C 0.20299 0.42022 0.75165
 C639 C 0.14565 0.39485 0.73675
 C640 C 0.13218 0.57250 0.75793
 C641 C 0.14753 0.60624 0.76050
 C642 C 0.20445 0.58020 0.74490
 C643 C 0.18774 0.54691 0.74177
 N644 N 0.15234 0.54353 0.74931
 H645 H 0.10239 0.43240 0.73512
 H646 H 0.20221 0.47595 0.76459
 H647 H 0.23120 0.41743 0.75731
 H648 H 0.12883 0.37234 0.72995
 H649 H 0.10394 0.56927 0.76301
 H650 H 0.13097 0.62892 0.76748
 H651 H 0.23261 0.58266 0.73886
 H652 H 0.20297 0.52433 0.73250
 C653 C 0.06752 0.49665 0.63874
 C654 C 0.06842 0.50667 0.86016
 C655 C 0.18416 0.61028 0.75441
 C656 C 0.18233 0.39043 0.74218
 C657 C 0.79663 0.93725 0.00514
 H658 H 0.77415 0.95320 0.01327
 C659 C 0.83011 0.95343 0.00164
 H660 H 0.83272 0.98185 0.00632
 C661 C 0.82182 0.88067 -0.00780
 H662 H 0.81834 0.85224 -0.01158
 C663 C 0.85582 0.89555 -0.01061
 H664 H 0.87844 0.87845 -0.01633
 N665 N 0.79293 0.90154 -0.00059
 C666 C 0.67759 0.87993 0.00704
 H667 H 0.68155 0.85168 0.01168
 C668 C 0.64330 0.89425 0.00879
 H669 H 0.62093 0.87695 0.01479
 C670 C 0.70195 0.93657 -0.00715
 H671 H 0.72426 0.95267 -0.01539
 C672 C 0.66811 0.95223 -0.00476
 H673 H 0.66505 0.98049 -0.01017
 Zn674 Zn 0.74964 0.87493 0.00010
 N675 N 0.70620 0.90113 -0.00020
 C676 C 0.74181 0.86958 0.07233
 N677 N 0.74949 0.84874 0.04357
 C678 C 0.75600 0.81318 0.04744
 C679 C 0.75284 0.79705 0.08100
 C680 C 0.73931 0.85478 0.10639
 C681 C 0.75722 0.86862 -0.07169
 C682 C 0.75885 0.85376 -0.10570
 C683 C 0.74418 0.79642 -0.08002
 C684 C 0.74197 0.81263 -0.04644
 N685 N 0.74951 0.84801 -0.04278
 H686 H 0.73740 0.89792 0.06867
 H687 H 0.76444 0.79733 0.02500
 H688 H 0.75811 0.76873 0.08376
 H689 H 0.73317 0.87183 0.12893
 H690 H 0.76224 0.89686 -0.06821
 H691 H 0.76522 0.87066 -0.12831
 H692 H 0.73824 0.76823 -0.08265
 H693 H 0.73337 0.79705 -0.02386
 C694 C 0.63837 0.93091 0.00340
 C695 C 0.86014 0.93243 -0.00639
 C696 C 0.75276 0.81715 -0.11007
 C697 C 0.74433 0.81800 0.11090
 C698 C 0.29653 0.43652 0.50512
 H699 H 0.27391 0.45176 0.51425
 C700 C 0.32987 0.45313 0.50256
 H701 H 0.33229 0.48126 0.50888
 C702 C 0.32214 0.38096 0.48896
 H703 H 0.31890 0.35274 0.48367
 C704 C 0.35600 0.39622 0.48702
 H705 H 0.37876 0.37965 0.48035
 N706 N 0.29311 0.40118 0.49730
 C707 C 0.17795 0.38031 0.50355
 H708 H 0.18145 0.35193 0.50782
 C709 C 0.14396 0.39524 0.50585
 H710 H 0.12134 0.37823 0.51177
 C711 C 0.20322 0.43672 0.49007
 H712 H 0.22582 0.45254 0.48202
 C713 C 0.16970 0.45298 0.49301
 H714 H 0.16709 0.48137 0.48806
 Zn715 Zn 0.25002 0.37447 0.49709
 N716 N 0.20687 0.40110 0.49645
 C717 C 0.24086 0.36908 0.56918
 N718 N 0.24913 0.34821 0.54061
 C719 C 0.25579 0.31269 0.54473
 C720 C 0.25217 0.29666 0.57829
 C721 C 0.23790 0.35438 0.60326
 C722 C 0.25848 0.36818 0.42503
 C723 C 0.26097 0.35308 0.39112
 C724 C 0.24710 0.29567 0.41705
 C725 C 0.24396 0.31209 0.45045
 N726 N 0.25066 0.34764 0.45399
 H727 H 0.23641 0.39739 0.56539
 H728 H 0.26479 0.29681 0.52253
 H729 H 0.25764 0.26839 0.58126
 H730 H 0.23139 0.37148 0.62565
 H731 H 0.26294 0.39653 0.42838
 H732 H 0.26720 0.36991 0.36842
 H733 H 0.24166 0.26737 0.41455
 H734 H 0.23528 0.29649 0.47297
 C735 C 0.13966 0.43209 0.50114
 C736 C 0.36003 0.43283 0.49337
 C737 C 0.25573 0.31631 0.38695
 C738 C 0.24309 0.31765 0.60800
 C739 C 0.20500 0.56279 -0.00960
 H740 H 0.22827 0.54649 -0.01373
 C741 C 0.17119 0.54729 -0.01314
 H742 H 0.16945 0.51923 -0.01996
 C743 C 0.17889 0.61841 0.00508
 H744 H 0.18199 0.64620 0.01217
 C745 C 0.14473 0.60390 0.00276
 H746 H 0.12205 0.62103 0.00821
 N747 N 0.20827 0.59799 -0.00115
 C748 C 0.32068 0.61082 0.02513
 H749 H 0.31595 0.63552 0.03916
 C750 C 0.35426 0.59501 0.02769
 H751 H 0.37476 0.60731 0.04393
 C752 C 0.30128 0.56618 -0.01518
 H753 H 0.28176 0.55635 -0.03387
 C754 C 0.33425 0.54881 -0.01245
 H755 H 0.33933 0.52503 -0.02812
 Zn756 Zn 0.25191 0.62418 0.00095
 N757 N 0.29473 0.59630 0.00413
 C758 C 0.24419 0.63098 0.07312
 N759 N 0.25045 0.65110 0.04358
 C760 C 0.25888 0.68634 0.04610
 C761 C 0.26160 0.70251 0.07971
 C762 C 0.24639 0.64599 0.10701
 C763 C 0.27571 0.64181 -0.06763
 C764 C 0.27344 0.65707 -0.10150
 C765 C 0.22677 0.69595 -0.07984
 C766 C 0.22958 0.67950 -0.04637
 N767 N 0.25355 0.65267 -0.04100
 H768 H 0.23823 0.60286 0.07026
 H769 H 0.26455 0.70157 0.02222
 H770 H 0.26841 0.73056 0.08137
 H771 H 0.24138 0.62926 0.13006
 H772 H 0.29433 0.62028 -0.06315
 H773 H 0.29102 0.64754 -0.12238
 H774 H 0.20723 0.71692 -0.08379
 H775 H 0.21198 0.68758 -0.02499
 C776 C 0.36111 0.56356 0.00898
 C777 C 0.14029 0.56784 -0.00673
 C778 C 0.24836 0.68413 -0.10814
 C779 C 0.25546 0.68215 0.11076
 C780 C 0.70519 0.06675 0.48849
 H781 H 0.72860 0.05297 0.47874
 C782 C 0.67156 0.05086 0.48499
 H783 H 0.66965 0.02434 0.47363
 C784 C 0.67896 0.11872 0.51327
 H785 H 0.68198 0.14561 0.52336
 C786 C 0.64499 0.10394 0.51028
 H787 H 0.62220 0.11946 0.51902
 N788 N 0.70823 0.10006 0.50268
 C789 C 0.82250 0.11813 0.49129
 H790 H 0.81953 0.14532 0.48200
 C791 C 0.85636 0.10293 0.49317
 H792 H 0.87908 0.11855 0.48449
 C793 C 0.79629 0.06565 0.51500
 H794 H 0.77292 0.05179 0.52470
 C795 C 0.82987 0.04931 0.51738
 H796 H 0.83183 0.02242 0.52788
 Zn797 Zn 0.75095 0.12701 0.50241
 N798 N 0.79329 0.09942 0.50183
 C799 C 0.76087 0.13297 0.57460
 N800 N 0.75257 0.15355 0.54578
 C801 C 0.74547 0.18902 0.54962
 C802 C 0.74866 0.20530 0.58307
 C803 C 0.76339 0.14791 0.60857
 C804 C 0.74312 0.13253 0.43014
 C805 C 0.74100 0.14716 0.39601
 C806 C 0.75326 0.20513 0.42135
 C807 C 0.75603 0.18918 0.45503
 N808 N 0.74993 0.15354 0.45899
 H809 H 0.76532 0.10465 0.57125
 H810 H 0.73614 0.20462 0.52736
 H811 H 0.74278 0.23350 0.58579
 H812 H 0.76985 0.13101 0.63114
 H813 H 0.73948 0.10413 0.43363
 H814 H 0.73553 0.12991 0.37347
 H815 H 0.75819 0.23351 0.41854
 H816 H 0.76414 0.20523 0.47739
 C817 C 0.86051 0.06809 0.50643
 C818 C 0.64083 0.06961 0.49583
 C819 C 0.74563 0.18396 0.39140
 C820 C 0.75769 0.18458 0.61298
 C821 C 1.01401 0.70415 0.93784
 H822 H 1.02300 0.72759 0.95206
 C823 C 1.01789 0.67168 0.95259
 H824 H 1.02943 0.66945 0.97899
 C825 C 0.98958 0.67980 0.88437
 H826 H 0.98030 0.68290 0.85723
 C827 C 0.99254 0.64377 0.89971
 H828 H 0.98345 0.62147 0.88371
 N829 N 0.99919 0.70775 0.90258
 C830 C 1.01185 0.82380 0.88300
 H831 H 1.02234 0.82053 0.85631
 C832 C 1.00924 0.85643 0.89707
 H833 H 1.01811 0.87913 0.88147
 C834 C 0.98652 0.79609 0.93449
 H835 H 0.97604 0.77286 0.94804
 C836 C 0.98348 0.83172 0.95140
 H837 H 0.97249 0.83334 0.97809
 Zn838 Zn 0.99949 0.75045 0.87542
 N839 N 1.00007 0.79301 0.90263
 C840 C 0.92722 0.75980 0.86884
 N841 N 0.95631 0.75164 0.84865
 C842 C 0.95287 0.74386 0.81332
 C843 C 0.91951 0.74626 0.79673
 C844 C 0.89335 0.76155 0.85361
 C845 C 1.07158 0.74149 0.86941
 C846 C 1.10558 0.73957 0.85452
 C847 C 1.07996 0.75403 0.79717
 C848 C 1.04643 0.75660 0.81341
 N849 N 1.04269 0.74933 0.84883
 H850 H 0.93026 0.76470 0.89708
 H851 H 0.97543 0.73460 0.79810
 H852 H 0.91710 0.74000 0.76861
 H853 H 0.87057 0.76808 0.87019
 H854 H 1.06823 0.73695 0.89769
 H855 H 1.12821 0.73333 0.87142
 H856 H 1.08266 0.75992 0.76898
 H857 H 1.02400 0.76557 0.79784
 C858 C 0.99422 0.86118 0.93349
 C859 C 1.00635 0.63922 0.93263
 C860 C 1.10995 0.74545 0.81791
 C861 C 0.88932 0.75517 0.81705
 C862 C 0.49277 0.20400 0.43626
 H863 H 0.48314 0.22632 0.45164
 C864 C 0.49657 0.17067 0.45279
 H865 H 0.49060 0.16796 0.48095
 C866 C 0.50914 0.17903 0.38054
 H867 H 0.51408 0.18253 0.35230
 C868 C 0.51231 0.14517 0.39573
 H869 H 0.51946 0.12264 0.37906
 N870 N 0.50007 0.20777 0.40086
 C871 C 0.49010 0.32309 0.38043
 H872 H 0.48546 0.31973 0.35214
 C873 C 0.48749 0.35698 0.39558
 H874 H 0.48098 0.37969 0.37885
 C875 C 0.50529 0.29766 0.43633
 H876 H 0.51430 0.27514 0.45180
 C877 C 0.50203 0.33102 0.45280
 H878 H 0.50772 0.33354 0.48103
 Zn879 Zn 0.49915 0.25104 0.37421
 N880 N 0.49831 0.29414 0.40087
 C881 C 0.42701 0.25877 0.36776
 N882 N 0.45605 0.25076 0.34744
 C883 C 0.45265 0.24364 0.31199
 C884 C 0.41932 0.24662 0.29540
 C885 C 0.39317 0.26111 0.35250
 C886 C 0.57132 0.24492 0.36889
 C887 C 0.60544 0.24284 0.35424
 C888 C 0.57999 0.25532 0.29634
 C889 C 0.54634 0.25807 0.31231
 N890 N 0.54248 0.25174 0.34789
 H891 H 0.43026 0.26357 0.39604
 H892 H 0.47526 0.23479 0.29660
 H893 H 0.41692 0.24085 0.26717
 H894 H 0.37042 0.26753 0.36915
 H895 H 0.56767 0.24072 0.39723
 H896 H 0.62799 0.23713 0.37141
 H897 H 0.58274 0.26021 0.26797
 H898 H 0.52381 0.26596 0.29631
 C899 C 0.49300 0.36110 0.43227
 C900 C 0.50649 0.14082 0.43237
 C901 C 0.60995 0.24746 0.31745
 C902 C 0.38916 0.25553 0.31580
 C903 C 1.01608 0.29684 0.56572
 H904 H 1.02818 0.27385 0.55314
 C905 C 1.01817 0.33041 0.54925
 H906 H 1.03115 0.33251 0.52349
 C907 C 0.98632 0.32216 0.61540
 H908 H 0.97482 0.31893 0.64167
 C909 C 0.98808 0.35607 0.60022
 H910 H 0.97699 0.37834 0.61499
 N911 N 0.99974 0.29331 0.59795
 C912 C 1.00486 0.17832 0.61842
 H913 H 1.01173 0.18129 0.64630
 C914 C 1.00242 0.14433 0.60361
 H915 H 1.00802 0.12136 0.62028
 C916 C 0.98851 0.20510 0.56348
 H917 H 0.98214 0.22884 0.54833
 C918 C 0.98559 0.17137 0.54749
 H919 H 0.97798 0.16959 0.51968
 Zn920 Zn 1.00004 0.25062 0.62504
 N921 N 0.99849 0.20785 0.59827
 C922 C 0.92797 0.25470 0.63263
 N923 N 0.95775 0.24911 0.65257
 C924 C 0.95548 0.24004 0.68767
 C925 C 0.92198 0.23727 0.70415
 C926 C 0.89421 0.25244 0.64793
 C927 C 1.07199 0.23840 0.63328
 C928 C 1.10612 0.24073 0.64778
 C929 C 1.08103 0.27088 0.69898
 C930 C 1.04721 0.26820 0.68318
 N931 N 1.04329 0.25147 0.65122
 H932 H 0.93056 0.26086 0.60454
 H933 H 0.97942 0.23429 0.70269
 H934 H 0.92056 0.23039 0.73218
 H935 H 0.87103 0.25741 0.63141
 H936 H 1.06842 0.22659 0.60720
 H937 H 1.12823 0.22973 0.63272
 H938 H 1.08340 0.28400 0.72462
 H939 H 1.02431 0.28007 0.69613
 C940 C 0.99278 0.14041 0.56765
 C941 C 1.00411 0.36081 0.56657
 C942 C 1.11125 0.25694 0.68128
 C943 C 0.89077 0.24373 0.68419
 C944 C 0.49201 0.79338 0.06368
 H945 H 0.48389 0.77061 0.04814
 C946 C 0.49445 0.82686 0.04716
 H947 H 0.48907 0.82923 0.01885
 C948 C 0.50601 0.81916 0.11965
 H949 H 0.51059 0.81593 0.14797
 C950 C 0.50782 0.85310 0.10446
 H951 H 0.51373 0.87590 0.12122
 N952 N 0.49882 0.79000 0.09922
 C953 C 0.49162 0.67454 0.12105
 H954 H 0.48685 0.67810 0.14930
 C955 C 0.48926 0.64048 0.10615
 H956 H 0.48285 0.61788 0.12304
 C957 C 0.50663 0.69959 0.06497
 H958 H 0.51542 0.72206 0.04930
 C959 C 0.50361 0.66607 0.04875
 H960 H 0.50925 0.66340 0.02052
 Zn961 Zn 0.49952 0.74706 0.12644
 N962 N 0.49958 0.70340 0.10039
 C963 C 0.42742 0.73929 0.13264
 N964 N 0.45633 0.74695 0.15326
 C965 C 0.45258 0.75393 0.18872
 C966 C 0.41902 0.75134 0.20494
 C967 C 0.39337 0.73737 0.14753
 C968 C 0.57173 0.75625 0.13163
 C969 C 0.60577 0.75964 0.14630
 C970 C 0.58073 0.74649 0.20421
 C971 C 0.54721 0.74241 0.18824
 N972 N 0.54312 0.74832 0.15262
 H973 H 0.43093 0.73459 0.10437
 H974 H 0.47507 0.76244 0.20440
 H975 H 0.41636 0.75701 0.23316
 H976 H 0.37074 0.73128 0.13061
 H977 H 0.56797 0.76015 0.10327
 H978 H 0.62816 0.76590 0.12911
 H979 H 0.58363 0.74163 0.23257
 H980 H 0.52502 0.73370 0.20427
 C981 C 0.49473 0.63608 0.06947
 C982 C 0.50252 0.85716 0.06770
 C983 C 0.61045 0.75527 0.18311
 C984 C 0.38896 0.74296 0.18419
 O985 O -0.00695 1.07925 1.06753
 O986 O -0.06260 1.04874 1.07595
 O987 O 0.06843 0.99389 1.07779
 O988 O 0.07735 0.93859 1.04740
 O989 O 0.07796 1.06910 0.99136
 O990 O 0.04705 1.07736 0.93635
 O991 O -0.01997 0.89890 0.98047
 O992 O -0.00381 0.89857 1.04302
 O993 O -0.10124 0.98048 0.97985
 O994 O -0.10321 1.04207 0.99407
 O995 O -0.01961 0.97935 0.89834
 O996 O 0.04289 0.99570 0.89742
 O997 O 0.00547 0.92167 0.93051
 O998 O 0.06240 0.95307 0.92138
 O999 O -0.06947 1.00502 0.92109
 O1000 O -0.07793 1.06301 0.95299
 O1001 O -0.07779 0.93017 1.00446
 O1002 O -0.04682 0.92250 1.06229
 O1003 O 0.01866 1.10196 1.01745
 O1004 O 0.00210 1.10196 0.95652
 O1005 O 0.10097 1.02012 1.01887
 O1006 O 0.10189 0.95899 1.00214
 O1007 O 0.01853 1.01971 1.10067
 O1008 O -0.04239 1.00397 1.10115
 Zr1009 Zr -0.01540 1.02484 1.05619
 O1010 O -0.04926 0.99221 1.02557
 Zr1011 Zr 0.05691 0.98555 1.02354
 O1012 O 0.02624 0.95114 0.99152
 Zr1013 Zr 0.02366 1.05736 0.98369
 O1014 O -0.00845 1.02615 0.94991
 Zr1015 Zr -0.02414 0.94317 1.01479
 O1016 O 0.00821 0.97426 1.04917
 Zr1017 Zr -0.05733 1.01512 0.97502
 O1018 O -0.02682 1.05006 1.00729
 Zr1019 Zr 0.01505 0.97575 0.94238
 O1020 O 0.04947 1.00862 0.97282
 O1021 O 0.03416 1.03522 1.03352
 O1022 O -0.03502 0.96498 0.96454
 C1023 C 0.00554 1.10531 1.04894
 C1024 C 0.04999 1.00641 1.10389
 C1025 C 0.10410 1.05119 1.00461
 C1026 C -0.00714 0.89550 0.94883
 C1027 C -0.10400 0.94859 0.99218
 C1028 C -0.05121 0.99231 0.89494
 H1029 H -0.07191 0.98909 1.03871
 H1030 H -0.01163 1.03916 0.92718
 H1031 H 0.04939 1.05059 1.04870
 H1032 H 0.03946 0.92849 0.98856
 H1033 H 0.01986 0.89274 1.03288
 H1034 H 0.05882 0.92992 1.06413
 H1035 H -0.06306 1.06944 0.93214
 H1036 H -0.02253 1.10510 0.96555
 H1037 H -0.06716 0.93797 1.06901
 H1038 H -0.03407 0.97902 1.10398
 H1039 H 0.03254 1.01926 0.89134
 H1040 H 0.06382 1.05880 0.92778
 H1041 H -0.07075 1.06587 1.05752
 H1042 H -0.10725 1.03419 1.01895
 H1043 H 0.10494 0.96808 0.97751
 H1044 H 0.07007 0.93370 0.93763
 O1045 O 0.57854 0.56847 0.49494
 O1046 O 0.54789 0.57772 0.43952
 O1047 O 0.49047 0.57855 0.56916
 O1048 O 0.44090 0.54971 0.58258
 O1049 O 0.56843 0.49148 0.57932
 O1050 O 0.57677 0.43665 0.54768
 O1051 O 0.39844 0.48159 0.48177
 O1052 O 0.39833 0.54175 0.50057
 O1053 O 0.48020 0.48221 0.39968
 O1054 O 0.54289 0.49690 0.39898
 O1055 O 0.48033 0.39928 0.48081
 O1056 O 0.49573 0.39864 0.54421
 O1057 O 0.42199 0.43034 0.50434
 O1058 O 0.45145 0.42115 0.56188
 O1059 O 0.50364 0.42321 0.43016
 O1060 O 0.56185 0.45364 0.42233
 O1061 O 0.42933 0.50523 0.42348
 O1062 O 0.42113 0.56152 0.45125
 O1063 O 0.60132 0.51820 0.52026
 O1064 O 0.60159 0.45763 0.50322
 O1065 O 0.51982 0.51973 0.60206
 O1066 O 0.45821 0.49874 0.60149
 O1067 O 0.51996 0.60112 0.52120
 O1068 O 0.50304 0.60265 0.46045
 Zr1069 Zr 0.52422 0.55723 0.48651
 O1070 O 0.49175 0.52700 0.45224
 Zr1071 Zr 0.48482 0.52376 0.55831
 O1072 O 0.45054 0.49207 0.52710
 Zr1073 Zr 0.55684 0.48437 0.52488
 O1074 O 0.52583 0.45092 0.49225
 Zr1075 Zr 0.44264 0.51581 0.47697
 O1076 O 0.47354 0.54991 0.50975
 Zr1077 Zr 0.51476 0.47661 0.44360
 O1078 O 0.54958 0.50850 0.47462
 Zr1079 Zr 0.47548 0.44305 0.51562
 O1080 O 0.50817 0.47321 0.55047
 O1081 O 0.53452 0.53408 0.53591
 O1082 O 0.46473 0.46575 0.46580
 C1083 C 0.60457 0.54981 0.50736
 C1084 C 0.50458 0.60451 0.55164
 C1085 C 0.55064 0.50506 0.60534
 C1086 C 0.39576 0.44921 0.49280
 C1087 C 0.44801 0.49371 0.39712
 C1088 C 0.49186 0.39683 0.44865
 H1089 H 0.48878 0.54031 0.42966
 H1090 H 0.53887 0.42822 0.48886
 H1091 H 0.54972 0.54930 0.55126
 H1092 H 0.42772 0.48898 0.53997
 H1093 H 0.40776 0.56225 0.51435
 H1094 H 0.41920 0.54212 0.56965
 H1095 H 0.56852 0.43307 0.43753
 H1096 H 0.60415 0.46628 0.47837
 H1097 H 0.43942 0.57122 0.43490
 H1098 H 0.47834 0.60559 0.46940
 H1099 H 0.51890 0.39202 0.53339
 H1100 H 0.55850 0.42818 0.56480
 H1101 H 0.56500 0.55941 0.43106
 H1102 H 0.53341 0.52103 0.39383
 H1103 H 0.47032 0.47559 0.60569
 H1104 H 0.43248 0.43775 0.56979
 O1105 O 0.42314 -0.06808 0.49166
 O1106 O 0.45500 -0.07641 0.43665
 O1107 O 0.50908 -0.07811 0.56775
 O1108 O 0.56066 -0.05063 0.57899
 O1109 O 0.43209 0.00664 0.57823
 O1110 O 0.42335 0.06240 0.54759
 O1111 O 0.60234 0.02143 0.48090
 O1112 O 0.60332 -0.03892 0.49908
 O1113 O 0.52064 0.01982 0.39877
 O1114 O 0.45575 0.00360 0.40024
 O1115 O 0.51944 0.10227 0.48080
 O1116 O 0.50373 0.10253 0.54354
 O1117 O 0.57832 0.07117 0.50589
 O1118 O 0.54688 0.07956 0.56262
 O1119 O 0.49655 0.07868 0.42985
 O1120 O 0.44104 0.05034 0.41969
 O1121 O 0.57216 -0.00107 0.42270
 O1122 O 0.58085 -0.05836 0.44936
 O1123 O 0.39996 -0.01936 0.51942
 O1124 O 0.39860 0.04151 0.50254
 O1125 O 0.48192 -0.01945 0.60095
 O1126 O 0.54288 0.00026 0.60063
 O1127 O 0.48245 -0.10069 0.51817
 O1128 O 0.49949 -0.10105 0.45782
 Zr1129 Zr 0.47759 -0.05622 0.48425
 O1130 O 0.50988 -0.02500 0.45059
 Zr1131 Zr 0.51632 -0.02352 0.55678
 O1132 O 0.55017 0.00933 0.52622
 Zr1133 Zr 0.44378 0.01532 0.52399
 O1134 O 0.47435 0.04970 0.49182
 Zr1135 Zr 0.55865 -0.01338 0.47574
 O1136 O 0.52808 -0.04858 0.50781
 Zr1137 Zr 0.48604 0.02509 0.44278
 O1138 O 0.45147 -0.00764 0.47329
 Zr1139 Zr 0.52451 0.05814 0.51537
 O1140 O 0.49225 0.02684 0.54973
 O1141 O 0.46686 -0.03417 0.53405
 O1142 O 0.53582 0.03648 0.46524
 C1143 C 0.39693 -0.05032 0.50503
 C1144 C 0.49602 -0.10405 0.54945
 C1145 C 0.45047 -0.00624 0.60422
 C1146 C 0.60488 0.05315 0.49368
 C1147 C 0.55326 0.00953 0.39608
 C1148 C 0.50796 0.10498 0.44862
 H1149 H 0.51307 -0.03794 0.42785
 H1150 H 0.46102 0.07227 0.48862
 H1151 H 0.45171 -0.04975 0.54914
 H1152 H 0.57284 0.01255 0.53930
 H1153 H 0.59423 -0.05996 0.51231
 H1154 H 0.58242 -0.04066 0.56785
 H1155 H 0.43038 0.06607 0.43800
 H1156 H 0.39594 0.03272 0.47777
 H1157 H 0.56319 -0.06739 0.43200
 H1158 H 0.52447 -0.10319 0.46615
 H1159 H 0.47997 0.10806 0.53343
 H1160 H 0.44144 0.07061 0.56499
 H1161 H 0.43732 -0.05855 0.42843
 H1162 H 0.46818 -0.01810 0.39168
 H1163 H 0.53141 0.02373 0.60480
 H1164 H 0.56643 0.06353 0.57030
 O1165 O -0.07679 0.43253 0.99502
 O1166 O -0.04623 0.42373 0.93911
 O1167 O 0.01144 0.42241 1.06860
 O1168 O 0.06194 0.45102 1.08063
 O1169 O -0.06643 0.50814 1.07942
 O1170 O -0.07448 0.56393 1.04877
 O1171 O 0.10304 0.52015 0.98077
 O1172 O 0.10270 0.45902 0.99940
 O1173 O 0.02042 0.51963 0.89914
 O1174 O -0.04180 0.50445 0.89870
 O1175 O 0.02120 0.60220 0.97987
 O1176 O 0.00582 0.60291 1.04318
 O1177 O 0.07956 0.57109 1.00357
 O1178 O 0.04991 0.58018 1.06119
 O1179 O -0.00414 0.57841 0.93039
 O1180 O -0.06149 0.54687 0.92257
 O1181 O 0.07150 0.49646 0.92231
 O1182 O 0.08114 0.44184 0.94824
 O1183 O -0.09948 0.48251 1.02087
 O1184 O -0.10004 0.54336 1.00416
 O1185 O -0.01675 0.48151 1.10188
 O1186 O 0.04471 0.50167 1.10065
 O1187 O -0.01856 0.40013 1.02100
 O1188 O -0.00163 0.39840 0.96011
 Zr1189 Zr -0.02254 0.44393 0.98617
 O1190 O 0.00957 0.47441 0.95175
 Zr1191 Zr 0.01754 0.47724 1.05756
 O1192 O 0.05131 0.50941 1.02614
 Zr1193 Zr -0.05503 0.51647 1.02511
 O1194 O -0.02453 0.55018 0.99216
 Zr1195 Zr 0.05885 0.48588 0.97593
 O1196 O 0.02838 0.45130 1.00880
 Zr1197 Zr -0.01384 0.52467 0.94340
 O1198 O -0.04827 0.49256 0.97470
 Zr1199 Zr 0.02605 0.55836 1.01487
 O1200 O -0.00608 0.52778 1.05007
 O1201 O -0.03234 0.46687 1.03570
 O1202 O 0.03642 0.53586 0.96493
 C1203 C -0.10274 0.45094 1.00794
 C1204 C -0.00317 0.39647 1.05141
 C1205 C -0.04812 0.49496 1.10530
 C1206 C 0.10602 0.55241 0.99213
 C1207 C 0.05255 0.50803 0.89617
 C1208 C 0.00823 0.60500 0.94824
 H1209 H 0.01255 0.46115 0.92915
 H1210 H -0.03775 0.57280 0.98891
 H1211 H -0.04737 0.45156 1.05116
 H1212 H 0.07418 0.51255 1.03887
 H1213 H 0.09317 0.43754 1.01159
 H1214 H 0.08337 0.45883 1.06736
 H1215 H -0.06855 0.56707 0.93805
 H1216 H -0.10324 0.53449 0.97949
 H1217 H 0.06127 0.42832 0.93746
 H1218 H 0.02251 0.39435 0.97009
 H1219 H -0.01769 0.60901 1.03283
 H1220 H -0.05601 0.57199 1.06585
 H1221 H -0.06381 0.44179 0.93111
 H1222 H -0.03245 0.48025 0.89370
 H1223 H 0.03310 0.52507 1.10478
 H1224 H 0.06924 0.56385 1.06882
 O1225 O 0.10118 0.48011 0.51551
 O1226 O 0.10150 0.54159 0.50079
 O1227 O 0.01948 0.48236 0.60042
 O1228 O -0.04191 0.49710 0.60139
 O1229 O 0.01877 0.39799 0.51927
 O1230 O 0.00091 0.39721 0.45816
 O1231 O -0.07831 0.56871 0.50566
 O1232 O -0.04424 0.57692 0.56305
 O1233 O 0.00495 0.57736 0.42976
 O1234 O 0.06267 0.54383 0.42118
 O1235 O -0.06995 0.49307 0.42152
 O1236 O -0.07873 0.43625 0.45464
 O1237 O -0.10135 0.51970 0.47853
 O1238 O -0.10336 0.45797 0.49601
 O1239 O -0.02123 0.52058 0.39852
 O1240 O 0.03973 0.50368 0.39537
 O1241 O -0.02177 0.60036 0.47901
 O1242 O -0.00464 0.60322 0.53958
 O1243 O 0.07740 0.42941 0.49212
 O1244 O 0.04646 0.42119 0.43728
 O1245 O -0.00703 0.42150 0.56875
 O1246 O -0.06176 0.45229 0.57768
 O1247 O 0.07009 0.50572 0.57638
 O1248 O 0.07764 0.56121 0.54613
 Zr1249 Zr 0.05709 0.51430 0.52243
 O1250 O 0.02595 0.54846 0.49047
 Zr1251 Zr -0.01500 0.47580 0.55657
 O1252 O -0.04930 0.50792 0.52580
 Zr1253 Zr 0.02326 0.44191 0.48438
 O1254 O -0.00903 0.47288 0.45034
 Zr1255 Zr -0.02418 0.55669 0.51423
 O1256 O 0.00873 0.52611 0.54852
 Zr1257 Zr 0.01427 0.52323 0.44186
 O1258 O 0.04894 0.49045 0.47225
 Zr1259 Zr -0.05773 0.48433 0.47563
 O1260 O -0.02697 0.44982 0.50827
 O1261 O 0.03438 0.46486 0.53366
 O1262 O -0.03553 0.53429 0.46443
 C1263 C 0.10384 0.44824 0.50309
 C1264 C 0.05135 0.49472 0.60293
 C1265 C 0.00541 0.39499 0.55076
 C1266 C -0.10438 0.55100 0.49221
 C1267 C -0.00861 0.60342 0.44753
 C1268 C -0.05249 0.50687 0.39537
 H1269 H 0.03907 0.57109 0.48700
 H1270 H -0.01242 0.45969 0.42776
 H1271 H 0.04977 0.44964 0.54887
 H1272 H -0.07181 0.51127 0.53913
 H1273 H -0.06586 0.56312 0.56933
 H1274 H -0.03313 0.52184 0.60441
 H1275 H 0.03123 0.47899 0.39143
 H1276 H 0.06278 0.43984 0.42809
 H1277 H 0.02020 0.60684 0.53142
 H1278 H 0.05915 0.56994 0.56289
 H1279 H -0.06349 0.42890 0.43436
 H1280 H -0.02322 0.39378 0.46835
 H1281 H 0.10439 0.53288 0.47602
 H1282 H 0.06884 0.56550 0.43496
 H1283 H -0.07110 0.43607 0.55904
 H1284 H -0.10819 0.46773 0.52006
 O1285 O 0.59945 0.97862 0.01700
 O1286 O 0.59968 1.04018 0.00406
 O1287 O 0.51568 0.98261 0.10215
 O1288 O 0.45798 0.98943 0.10558
 O1289 O 0.51528 0.89567 0.01917
 O1290 O 0.50094 0.89557 -0.04219
 O1291 O 0.42038 1.06738 0.00558
 O1292 O 0.44882 1.07256 0.06291
 O1293 O 0.50308 1.07566 -0.06869
 O1294 O 0.56152 1.04287 -0.07671
 O1295 O 0.42891 0.99211 -0.07758
 O1296 O 0.41983 0.93484 -0.04528
 O1297 O 0.39723 1.01770 -0.02028
 O1298 O 0.39545 0.95571 -0.00336
 O1299 O 0.47824 1.01892 -0.10034
 O1300 O 0.53934 1.00222 -0.10272
 O1301 O 0.47756 1.09888 -0.01885
 O1302 O 0.49425 1.10159 0.04019
 O1303 O 0.57600 0.92746 -0.00571
 O1304 O 0.54606 0.92015 -0.06166
 O1305 O 0.49298 0.91949 0.07033
 O1306 O 0.43424 0.94987 0.07421
 O1307 O 0.56797 1.00194 0.07809
 O1308 O 0.57518 1.05879 0.04925
 Zr1309 Zr 0.55510 1.01223 0.02444
 O1310 O 0.52439 1.04651 -0.00772
 Zr1311 Zr 0.48290 0.97334 0.05756
 O1312 O 0.44897 1.00603 0.02687
 Zr1313 Zr 0.52199 0.94010 -0.01466
 O1314 O 0.48978 0.97124 -0.04861
 Zr1315 Zr 0.47409 1.05479 0.01562
 O1316 O 0.50647 1.02393 0.05017
 Zr1317 Zr 0.51315 1.02164 -0.05658
 O1318 O 0.54765 0.98882 -0.02606
 Zr1319 Zr 0.44092 0.98253 -0.02349
 O1320 O 0.47160 0.94768 0.00890
 O1321 O 0.53250 0.96256 0.03498
 O1322 O 0.46320 1.03251 -0.03431
 C1323 C 0.60234 0.94662 0.00503
 C1324 C 0.54833 0.99271 0.10463
 C1325 C 0.50370 0.89300 0.05133
 C1326 C 0.39434 1.04948 -0.00774
 C1327 C 0.49007 1.10178 -0.05060
 C1328 C 0.44682 1.00572 -0.10353
 H1329 H 0.53761 1.06909 -0.01104
 H1330 H 0.48650 0.95821 -0.07129
 H1331 H 0.54786 0.94731 0.05022
 H1332 H 0.42637 1.00975 0.04000
 H1333 H 0.46379 1.06446 0.08316
 H1334 H 0.44347 1.01078 0.09998
 H1335 H 0.53097 0.97752 -0.10680
 H1336 H 0.56298 0.93869 -0.06993
 H1337 H 0.51998 1.10308 0.03462
 H1338 H 0.55724 1.06622 0.06719
 H1339 H 0.43491 0.92792 -0.06583
 H1340 H 0.47601 0.89275 -0.03392
 H1341 H 0.60235 1.03272 -0.02113
 H1342 H 0.56710 1.06481 -0.06311
 H1343 H 0.42899 0.93015 0.05743
 H1344 H 0.39029 0.96555 0.02059
 O1345 O 0.49335 0.41870 -0.06801
 O1346 O 0.43852 0.44983 -0.07673
 O1347 O 0.56888 0.50541 -0.07746
 O1348 O 0.58079 0.55613 -0.04931
 O1349 O 0.57935 0.42775 0.00812
 O1350 O 0.54829 0.41811 0.06262
 O1351 O 0.48165 0.59777 0.02110
 O1352 O 0.49883 0.59907 -0.03868
 O1353 O 0.39948 0.51514 0.02034
 O1354 O 0.39933 0.45246 0.00524
 O1355 O 0.48143 0.51511 0.10243
 O1356 O 0.54439 0.49966 0.10273
 O1357 O 0.50512 0.57378 0.07168
 O1358 O 0.56293 0.54325 0.07960
 O1359 O 0.43068 0.49185 0.07880
 O1360 O 0.42302 0.43366 0.04831
 O1361 O 0.42295 0.56675 -0.00148
 O1362 O 0.45053 0.57532 -0.05901
 O1363 O 0.52056 0.39529 -0.01910
 O1364 O 0.50313 0.39409 0.04185
 O1365 O 0.60185 0.47709 -0.01902
 O1366 O 0.60123 0.53841 0.00162
 O1367 O 0.51964 0.47846 -0.10036
 O1368 O 0.45888 0.49505 -0.10061
 Zr1369 Zr 0.48562 0.47301 -0.05606
 O1370 O 0.45160 0.50482 -0.02483
 Zr1371 Zr 0.55780 0.51180 -0.02286
 O1372 O 0.52680 0.54568 0.00958
 Zr1373 Zr 0.52494 0.43914 0.01571
 O1374 O 0.49274 0.46974 0.05012
 Zr1375 Zr 0.47634 0.55385 -0.01335
 O1376 O 0.50896 0.52355 -0.04823
 Zr1377 Zr 0.44376 0.48099 0.02528
 O1378 O 0.47442 0.44678 -0.00764
 Zr1379 Zr 0.51594 0.52015 0.05840
 O1380 O 0.55047 0.48774 0.02740
 O1381 O 0.53531 0.46225 -0.03372
 O1382 O 0.46583 0.53103 0.03649
 C1383 C 0.50638 0.39239 -0.05017
 C1384 C 0.55072 0.49253 -0.10356
 C1385 C 0.60531 0.44598 -0.00495
 C1386 C 0.49338 0.60024 0.05319
 C1387 C 0.39681 0.54758 0.00967
 C1388 C 0.44926 0.50366 0.10506
 H1389 H 0.42886 0.50785 -0.03781
 H1390 H 0.48965 0.45647 0.07272
 H1391 H 0.55055 0.44720 -0.04924
 H1392 H 0.53970 0.56847 0.01277
 H1393 H 0.51330 0.59015 -0.05895
 H1394 H 0.56874 0.57783 -0.04029
 H1395 H 0.43859 0.42683 0.06851
 H1396 H 0.47845 0.39143 0.03281
 H1397 H 0.43208 0.55826 -0.06699
 H1398 H 0.46734 0.51999 -0.10289
 H1399 H 0.53416 0.47603 0.10864
 H1400 H 0.56477 0.43661 0.07177
 H1401 H 0.42989 0.43267 -0.05856
 H1402 H 0.39352 0.46242 -0.01852
 H1403 H 0.60549 0.52647 0.02481
 H1404 H 0.57002 0.56321 0.06381
 O1405 O 0.06925 0.00758 0.42147
 O1406 O 0.07779 0.06267 0.45246
 O1407 O 0.07938 -0.06813 0.50777
 O1408 O 0.05196 -0.07970 0.55912
 O1409 O -0.00633 -0.07832 0.43116
 O1410 O -0.06141 -0.04753 0.42254
 O1411 O -0.01911 0.02026 0.60120
 O1412 O 0.04073 0.00148 0.60207
 O1413 O -0.02023 0.10127 0.51939
 O1414 O -0.00382 0.10256 0.45722
 O1415 O -0.10041 0.01985 0.52043
 O1416 O -0.10139 -0.04272 0.50397
 O1417 O -0.06873 -0.00524 0.57786
 O1418 O -0.07732 -0.06254 0.54652
 O1419 O -0.07752 0.06947 0.49424
 O1420 O -0.04577 0.07798 0.43690
 O1421 O 0.00485 0.07827 0.56955
 O1422 O 0.06115 0.05023 0.57852
 O1423 O 0.02016 -0.01971 0.39869
 O1424 O -0.04083 -0.00228 0.39792
 O1425 O 0.02023 -0.10117 0.48066
 O1426 O 0.00084 -0.10047 0.54212
 O1427 O 0.10200 -0.01869 0.48078
 O1428 O 0.10240 0.04214 0.49739
 Zr1429 Zr 0.05764 0.01539 0.47588
 O1430 O 0.02661 0.04934 0.50801
 Zr1431 Zr 0.02484 -0.05695 0.51508
 O1432 O -0.00744 -0.02597 0.54917
 Zr1433 Zr -0.01431 -0.02399 0.44278
 O1434 O -0.04850 0.00823 0.47359
 Zr1435 Zr 0.01547 0.02454 0.55711
 O1436 O 0.05021 -0.00801 0.52650
 Zr1437 Zr -0.02365 0.05725 0.48463
 O1438 O 0.00903 0.02661 0.45013
 Zr1439 Zr -0.05641 -0.01506 0.52401
 O1440 O -0.02560 -0.04960 0.49145
 O1441 O 0.03527 -0.03436 0.46546
 O1442 O -0.03454 0.03509 0.53473
 C1443 C 0.05126 -0.00568 0.39543
 C1444 C 0.10535 -0.04989 0.49463
 C1445 C 0.00655 -0.10442 0.44940
 C1446 C -0.05075 0.00739 0.60424
 C1447 C -0.00793 0.10436 0.55123
 C1448 C -0.10355 0.05146 0.50743
 H1449 H 0.03949 0.07215 0.51102
 H1450 H -0.07117 0.01135 0.46049
 H1451 H 0.05066 -0.04962 0.45030
 H1452 H -0.01048 -0.03886 0.57200
 H1453 H 0.06129 -0.01254 0.59306
 H1454 H 0.04274 -0.06803 0.58092
 H1455 H -0.06578 0.06232 0.42976
 H1456 H -0.03137 0.02218 0.39464
 H1457 H 0.07029 0.06728 0.56057
 H1458 H 0.10539 0.03311 0.52205
 H1459 H -0.10721 -0.03249 0.48033
 H1460 H -0.07021 -0.06406 0.44120
 H1461 H 0.05925 0.07137 0.43575
 H1462 H 0.01998 0.10815 0.46713
 H1463 H -0.02249 -0.10482 0.53052
 H1464 H -0.06161 -0.06970 0.56650
 O1465 O 0.64867 0.23305 0.26974
 O1466 O 0.64808 0.24742 0.20873
 O1467 O 0.73053 0.14825 0.26897
 O1468 O 0.78788 0.14427 0.25692
 O1469 O 0.73247 0.23181 0.35235
 O1470 O 0.74734 0.29270 0.35235
 O1471 O 0.82774 0.24321 0.18086
 O1472 O 0.79903 0.18693 0.17533
 O1473 O 0.74689 0.31925 0.17283
 O1474 O 0.68804 0.32789 0.20392
 O1475 O 0.82008 0.32729 0.25549
 O1476 O 0.82871 0.29485 0.31312
 O1477 O 0.85097 0.27007 0.22993
 O1478 O 0.85302 0.25281 0.29189
 O1479 O 0.77027 0.35078 0.23022
 O1480 O 0.70851 0.35263 0.24593
 O1481 O 0.77052 0.26875 0.14935
 O1482 O 0.75305 0.20879 0.14736
 O1483 O 0.67220 0.25688 0.32035
 O1484 O 0.70264 0.31283 0.32722
 O1485 O 0.75534 0.18056 0.32919
 O1486 O 0.81289 0.17498 0.29882
 O1487 O 0.68076 0.17194 0.24383
 O1488 O 0.67216 0.20277 0.18880
 Zr1489 Zr 0.69286 0.22620 0.23576
 O1490 O 0.72385 0.25815 0.20160
 Zr1491 Zr 0.76463 0.19248 0.27508
 O1492 O 0.79885 0.22284 0.24227
 Zr1493 Zr 0.72625 0.26534 0.30776
 O1494 O 0.75888 0.29892 0.27673
 Zr1495 Zr 0.77387 0.23418 0.19344
 O1496 O 0.74125 0.19995 0.22441
 Zr1497 Zr 0.73553 0.30697 0.22642
 O1498 O 0.70072 0.27673 0.25906
 Zr1499 Zr 0.80749 0.27331 0.26540
 O1500 O 0.77645 0.24129 0.30030
 O1501 O 0.71524 0.21565 0.28548
 O1502 O 0.78523 0.28416 0.21549
 C1503 C 0.64586 0.24565 0.30150
 C1504 C 0.69901 0.14530 0.25569
 C1505 C 0.74434 0.19978 0.35539
 C1506 C 0.85385 0.25680 0.19845
 C1507 C 0.75903 0.30098 0.14637
 C1508 C 0.80202 0.35357 0.24267
 H1509 H 0.71072 0.26164 0.17901
 H1510 H 0.76232 0.32159 0.28979
 H1511 H 0.69979 0.20048 0.30069
 H1512 H 0.82136 0.20956 0.23860
 H1513 H 0.78474 0.16661 0.18440
 H1514 H 0.80534 0.15051 0.23814
 H1515 H 0.71754 0.35737 0.27027
 H1516 H 0.68525 0.32075 0.30895
 H1517 H 0.72836 0.21737 0.14377
 H1518 H 0.69031 0.18552 0.18027
 H1519 H 0.81413 0.31589 0.31971
 H1520 H 0.77238 0.28465 0.35490
 H1521 H 0.64623 0.27276 0.21601
 H1522 H 0.68229 0.31381 0.18234
 H1523 H 0.81926 0.19271 0.31734
 H1524 H 0.85799 0.22883 0.28199
 O1525 O 0.76911 0.85232 0.76701
 O1526 O 0.70755 0.85311 0.75282
 O1527 O 0.76463 0.76860 0.85134
 O1528 O 0.75650 0.71086 0.85463
 O1529 O 0.85111 0.76766 0.76846
 O1530 O 0.85136 0.75322 0.70722
 O1531 O 0.67978 0.67332 0.75609
 O1532 O 0.67381 0.70321 0.81242
 O1533 O 0.67156 0.75719 0.68053
 O1534 O 0.70490 0.81512 0.67248
 O1535 O 0.75397 0.68161 0.67184
 O1536 O 0.81151 0.67233 0.70357
 O1537 O 0.72870 0.65025 0.72873
 O1538 O 0.79079 0.64817 0.74592
 O1539 O 0.72905 0.73180 0.64861
 O1540 O 0.74509 0.79262 0.64644
 O1541 O 0.64847 0.72997 0.72953
 O1542 O 0.64476 0.74775 0.78823
 O1543 O 0.81996 0.82839 0.74397
 O1544 O 0.82692 0.79865 0.68765
 O1545 O 0.82712 0.74543 0.81959
 O1546 O 0.79658 0.68690 0.82363
 O1547 O 0.74441 0.82071 0.82755
 O1548 O 0.68833 0.82890 0.79804
 Zr1549 Zr 0.73490 0.80828 0.77365
 O1550 O 0.70064 0.77772 0.74142
 Zr1551 Zr 0.77331 0.73566 0.80677
 O1552 O 0.74060 0.70192 0.77604
 Zr1553 Zr 0.80688 0.77459 0.73464
 O1554 O 0.77576 0.74260 0.70064
 Zr1555 Zr 0.69203 0.72737 0.76469
 O1556 O 0.72289 0.75963 0.79928
 Zr1557 Zr 0.72563 0.76645 0.69259
 O1558 O 0.75846 0.80073 0.72320
 Zr1559 Zr 0.76409 0.69375 0.72570
 O1560 O 0.79900 0.72417 0.75815
 O1561 O 0.78431 0.78523 0.78424
 O1562 O 0.71434 0.71645 0.71476
 C1563 C 0.80117 0.85487 0.75513
 C1564 C 0.75404 0.80113 0.85404
 C1565 C 0.85363 0.75615 0.80064
 C1566 C 0.69742 0.64725 0.74240
 C1567 C 0.64550 0.74350 0.69819
 C1568 C 0.74126 0.69990 0.64572
 H1569 H 0.67812 0.79105 0.73803
 H1570 H 0.78884 0.73927 0.67798
 H1571 H 0.79951 0.80044 0.79962
 H1572 H 0.73687 0.67936 0.78925
 H1573 H 0.68176 0.71857 0.83241
 H1574 H 0.73517 0.69648 0.84882
 H1575 H 0.77005 0.78479 0.64288
 H1576 H 0.80881 0.81627 0.67981
 H1577 H 0.64366 0.77359 0.78300
 H1578 H 0.68029 0.81078 0.81556
 H1579 H 0.81835 0.68734 0.68293
 H1580 H 0.85382 0.72815 0.71527
 H1581 H 0.71593 0.85615 0.72795
 H1582 H 0.68322 0.82113 0.68632
 H1583 H 0.81615 0.68138 0.80674
 H1584 H 0.78071 0.64290 0.76975
 O1585 O 0.31841 0.17201 0.74064
 O1586 O 0.32714 0.20311 0.68560
 O1587 O 0.32862 0.25820 0.81624
 O1588 O 0.30136 0.31021 0.82701
 O1589 O 0.24328 0.18195 0.82686
 O1590 O 0.18792 0.17339 0.79638
 O1591 O 0.23049 0.35189 0.72876
 O1592 O 0.29080 0.35227 0.74649
 O1593 O 0.23017 0.26964 0.64700
 O1594 O 0.24551 0.20694 0.64638
 O1595 O 0.14881 0.27109 0.72836
 O1596 O 0.14816 0.25432 0.79128
 O1597 O 0.17991 0.32836 0.75262
 O1598 O 0.17174 0.29776 0.81032
 O1599 O 0.17169 0.24479 0.67892
 O1600 O 0.20306 0.18773 0.67019
 O1601 O 0.25356 0.32064 0.67008
 O1602 O 0.30976 0.32946 0.69690
 O1603 O 0.26943 0.14925 0.76824
 O1604 O 0.20841 0.14847 0.75121
 O1605 O 0.26974 0.23167 0.84929
 O1606 O 0.25036 0.29296 0.84854
 O1607 O 0.35125 0.23106 0.76692
 O1608 O 0.35174 0.24797 0.70614
 Zr1609 Zr 0.30693 0.22645 0.73285
 O1610 O 0.27589 0.25854 0.69891
 Zr1611 Zr 0.27416 0.26590 0.80497
 O1612 O 0.24174 0.29989 0.77400
 Zr1613 Zr 0.23498 0.19344 0.77253
 O1614 O 0.20077 0.22416 0.74019
 Zr1615 Zr 0.26476 0.30773 0.72354
 O1616 O 0.29959 0.27716 0.75602
 Zr1617 Zr 0.22564 0.23511 0.69115
 O1618 O 0.25829 0.20065 0.72189
 Zr1619 Zr 0.19277 0.27469 0.76320
 O1620 O 0.22370 0.24227 0.79784
 O1621 O 0.28455 0.21616 0.78261
 O1622 O 0.21474 0.28532 0.71305
 C1623 C 0.30045 0.14597 0.75399
 C1624 C 0.35455 0.24477 0.79813
 C1625 C 0.25629 0.20032 0.85275
 C1626 C 0.19848 0.35460 0.74069
 C1627 C 0.24179 0.30177 0.64400
 C1628 C 0.14552 0.25797 0.69683
 H1629 H 0.28884 0.26149 0.67613
 H1630 H 0.17811 0.21103 0.73712
 H1631 H 0.29993 0.20096 0.79784
 H1632 H 0.23868 0.32271 0.78688
 H1633 H 0.31165 0.34300 0.75987
 H1634 H 0.29178 0.33196 0.81547
 H1635 H 0.18364 0.18013 0.68638
 H1636 H 0.21763 0.14526 0.72665
 H1637 H 0.31976 0.31089 0.68106
 H1638 H 0.35482 0.27259 0.71527
 H1639 H 0.14194 0.23097 0.78065
 H1640 H 0.17926 0.19211 0.81291
 H1641 H 0.30879 0.18611 0.67710
 H1642 H 0.26927 0.21686 0.64054
 H1643 H 0.22679 0.28174 0.85263
 H1644 H 0.18755 0.31769 0.81736
 O1645 O 0.16963 0.74380 0.31894
 O1646 O 0.20003 0.68816 0.32767
 O1647 O 0.25586 0.81864 0.32904
 O1648 O 0.30678 0.83096 0.30136
 O1649 O 0.17971 0.82838 0.24182
 O1650 O 0.17123 0.79695 0.18743
 O1651 O 0.35006 0.73087 0.23246
 O1652 O 0.35025 0.74907 0.29199
 O1653 O 0.26839 0.64886 0.23184
 O1654 O 0.20700 0.64680 0.24564
 O1655 O 0.26925 0.73033 0.14969
 O1656 O 0.25319 0.79348 0.14909
 O1657 O 0.32694 0.75411 0.18138
 O1658 O 0.29685 0.81182 0.17247
 O1659 O 0.24410 0.68032 0.17293
 O1660 O 0.18575 0.67246 0.20488
 O1661 O 0.31898 0.67247 0.25551
 O1662 O 0.32623 0.70083 0.31273
 O1663 O 0.14697 0.76936 0.26879
 O1664 O 0.14704 0.75200 0.20787
 O1665 O 0.22792 0.85116 0.27028
 O1666 O 0.28959 0.85095 0.25004
 O1667 O 0.22893 0.76927 0.35187
 O1668 O 0.24495 0.70838 0.35259
 Zr1669 Zr 0.22395 0.73521 0.30758
 O1670 O 0.25649 0.70114 0.27713
 Zr1671 Zr 0.26306 0.80741 0.27453
 O1672 O 0.29767 0.77633 0.24289
 Zr1673 Zr 0.19145 0.77392 0.23486
 O1674 O 0.22278 0.74164 0.20124
 Zr1675 Zr 0.30560 0.72600 0.26632
 O1676 O 0.27451 0.75871 0.30044
 Zr1677 Zr 0.23373 0.69283 0.22667
 O1678 O 0.19877 0.72353 0.25879
 Zr1679 Zr 0.27318 0.76504 0.19368
 O1680 O 0.24008 0.79966 0.22388
 O1681 O 0.21348 0.78474 0.28463
 O1682 O 0.28382 0.71504 0.21613
 C1683 C 0.14363 0.75634 0.30034
 C1684 C 0.24280 0.80045 0.35510
 C1685 C 0.19711 0.85465 0.25552
 C1686 C 0.35303 0.74229 0.20027
 C1687 C 0.30043 0.64616 0.24367
 C1688 C 0.25672 0.69856 0.14674
 H1689 H 0.25941 0.67843 0.29026
 H1690 H 0.20983 0.73840 0.17850
 H1691 H 0.19817 0.80006 0.29982
 H1692 H 0.32048 0.78923 0.23999
 H1693 H 0.34094 0.76370 0.31196
 H1694 H 0.32869 0.81904 0.29269
 H1695 H 0.17966 0.68694 0.18364
 H1696 H 0.14370 0.72757 0.21743
 H1697 H 0.30922 0.68221 0.32048
 H1698 H 0.26984 0.71678 0.35534
 H1699 H 0.23003 0.78269 0.14246
 H1700 H 0.18981 0.81347 0.17848
 H1701 H 0.18298 0.67988 0.30928
 H1702 H 0.21431 0.64315 0.27074
 H1703 H 0.27783 0.85507 0.22673
 H1704 H 0.31605 0.81937 0.18892
 O1705 O 0.14884 0.73256 0.76995
 O1706 O 0.14862 0.74682 0.70835
 O1707 O 0.23262 0.64888 0.76719
 O1708 O 0.29008 0.64561 0.75784
 O1709 O 0.23144 0.73116 0.85276
 O1710 O 0.24724 0.79249 0.85307
 O1711 O 0.32818 0.74643 0.68175
 O1712 O 0.29976 0.68896 0.67588
 O1713 O 0.24365 0.82001 0.67318
 O1714 O 0.18537 0.82727 0.70665
 O1715 O 0.31870 0.82909 0.75592
 O1716 O 0.32776 0.79806 0.81359
 O1717 O 0.35089 0.77206 0.73171
 O1718 O 0.35179 0.75512 0.79417
 O1719 O 0.26855 0.85194 0.73065
 O1720 O 0.20796 0.85397 0.74646
 O1721 O 0.27150 0.77128 0.65025
 O1722 O 0.25463 0.71221 0.64659
 O1723 O 0.17194 0.75588 0.82096
 O1724 O 0.20132 0.81210 0.82863
 O1725 O 0.25788 0.68177 0.82943
 O1726 O 0.31476 0.67646 0.79752
 O1727 O 0.18100 0.67244 0.74556
 O1728 O 0.17338 0.70168 0.68947
 Zr1729 Zr 0.19326 0.72632 0.73618
 O1730 O 0.22375 0.75889 0.70213
 Zr1731 Zr 0.26577 0.69361 0.77504
 O1732 O 0.29947 0.72480 0.74261
 Zr1733 Zr 0.22580 0.76534 0.80852
 O1734 O 0.25768 0.79975 0.77762
 Zr1735 Zr 0.27438 0.73615 0.69387
 O1736 O 0.24221 0.70113 0.72447
 Zr1737 Zr 0.23427 0.80776 0.72729
 O1738 O 0.20006 0.77677 0.75990
 Zr1739 Zr 0.30685 0.77516 0.76636
 O1740 O 0.27646 0.74229 0.80093
 O1741 O 0.21596 0.71565 0.78578
 O1742 O 0.28454 0.78609 0.71644
 C1743 C 0.14583 0.74451 0.80192
 C1744 C 0.20036 0.64607 0.75586
 C1745 C 0.24557 0.70003 0.85577
 C1746 C 0.35405 0.75967 0.69995
 C1747 C 0.25767 0.80251 0.64718
 C1748 C 0.30036 0.85504 0.74288
 H1749 H 0.21055 0.76220 0.67954
 H1750 H 0.26070 0.82247 0.79067
 H1751 H 0.20092 0.70011 0.80102
 H1752 H 0.32219 0.71185 0.73897
 H1753 H 0.28454 0.66864 0.68331
 H1754 H 0.30491 0.65158 0.73683
 H1755 H 0.21529 0.85736 0.77157
 H1756 H 0.18413 0.82019 0.81025
 H1757 H 0.22882 0.71744 0.64514
 H1758 H 0.19176 0.68438 0.68157
 H1759 H 0.31203 0.81809 0.82060
 H1760 H 0.27204 0.78381 0.85590
 H1761 H 0.14506 0.77157 0.71690
 H1762 H 0.17988 0.81379 0.68463
 H1763 H 0.32094 0.69365 0.81660
 H1764 H 0.35834 0.73195 0.78330
 O1765 O 0.25810 0.18007 0.16874
 O1766 O 0.31279 0.17112 0.20035
 O1767 O 0.18189 0.16963 0.25500
 O1768 O 0.17047 0.19688 0.30651
 O1769 O 0.17146 0.25524 0.17852
 O1770 O 0.20238 0.31053 0.16968
 O1771 O 0.26847 0.26777 0.34866
 O1772 O 0.25048 0.20720 0.34884
 O1773 O 0.35083 0.26780 0.26713
 O1774 O 0.35067 0.25200 0.20316
 O1775 O 0.26868 0.34973 0.26639
 O1776 O 0.20589 0.34995 0.25103
 O1777 O 0.24528 0.31859 0.32481
 O1778 O 0.18728 0.32648 0.29439
 O1779 O 0.31968 0.32640 0.24323
 O1780 O 0.32909 0.29710 0.18640
 O1781 O 0.32717 0.24478 0.31805
 O1782 O 0.30061 0.18855 0.32668
 O1783 O 0.23012 0.22875 0.14605
 O1784 O 0.24752 0.28964 0.14511
 O1785 O 0.14880 0.22865 0.22810
 O1786 O 0.14923 0.24795 0.28923
 O1787 O 0.23122 0.14705 0.22781
 O1788 O 0.29191 0.14644 0.24483
 Zr1789 Zr 0.26535 0.19141 0.22328
 O1790 O 0.29903 0.22237 0.25569
 Zr1791 Zr 0.19294 0.22412 0.26239
 O1792 O 0.22355 0.25652 0.29652
 Zr1793 Zr 0.22581 0.26333 0.19008
 O1794 O 0.25789 0.29751 0.22096
 Zr1795 Zr 0.27394 0.23345 0.30464
 O1796 O 0.24182 0.19865 0.27384
 Zr1797 Zr 0.30694 0.27274 0.23236
 O1798 O 0.27647 0.24017 0.19762
 Zr1799 Zr 0.23442 0.30551 0.27126
 O1800 O 0.20010 0.27460 0.23868
 O1801 O 0.21559 0.21372 0.21278
 O1802 O 0.28450 0.28354 0.28230
 C1803 C 0.24459 0.19777 0.14251
 C1804 C 0.20006 0.14369 0.24170
 C1805 C 0.14547 0.24232 0.19686
 C1806 C 0.25692 0.29997 0.35119
 C1807 C 0.35344 0.25644 0.29938
 C1808 C 0.30086 0.35259 0.25499
 H1809 H 0.32179 0.20938 0.25879
 H1810 H 0.26100 0.32020 0.20782
 H1811 H 0.20045 0.19832 0.19755
 H1812 H 0.21054 0.25960 0.31927
 H1813 H 0.23751 0.18616 0.33943
 H1814 H 0.18197 0.20629 0.32831
 H1815 H 0.31177 0.31497 0.17755
 H1816 H 0.27224 0.28067 0.14242
 H1817 H 0.31627 0.17830 0.30810
 H1818 H 0.28272 0.14336 0.26942
 H1819 H 0.21595 0.35580 0.22732
 H1820 H 0.18524 0.31900 0.18794
 H1821 H 0.32148 0.18949 0.18343
 H1822 H 0.35801 0.22933 0.21461
 H1823 H 0.14533 0.27164 0.27813
 H1824 H 0.18047 0.31086 0.31458
 O1825 O 0.81890 0.67171 0.24309
 O1826 O 0.82861 0.70358 0.18885
 O1827 O 0.82862 0.75990 0.31860
 O1828 O 0.79950 0.80910 0.33237
 O1829 O 0.74238 0.68126 0.32900
 O1830 O 0.68810 0.67194 0.29749
 O1831 O 0.73045 0.85156 0.23092
 O1832 O 0.79050 0.85208 0.25032
 O1833 O 0.73139 0.76979 0.14957
 O1834 O 0.74670 0.70718 0.14877
 O1835 O 0.64910 0.76921 0.23104
 O1836 O 0.64763 0.75446 0.29303
 O1837 O 0.68044 0.82808 0.25579
 O1838 O 0.67207 0.79621 0.31333
 O1839 O 0.67274 0.74541 0.18050
 O1840 O 0.70388 0.68781 0.17235
 O1841 O 0.75469 0.82063 0.17303
 O1842 O 0.81038 0.82951 0.20063
 O1843 O 0.76992 0.64868 0.27040
 O1844 O 0.70914 0.64795 0.25245
 O1845 O 0.77032 0.73001 0.35170
 O1846 O 0.74881 0.79174 0.35110
 O1847 O 0.85120 0.73007 0.27106
 O1848 O 0.85261 0.74836 0.21028
 Zr1849 Zr 0.80749 0.72629 0.23602
 O1850 O 0.77664 0.75850 0.20190
 Zr1851 Zr 0.77386 0.76516 0.30793
 O1852 O 0.74180 0.79939 0.27688
 Zr1853 Zr 0.73530 0.69277 0.27458
 O1854 O 0.70131 0.72376 0.24235
 Zr1855 Zr 0.76511 0.80756 0.22661
 O1856 O 0.79968 0.77689 0.25931
 Zr1857 Zr 0.72645 0.73512 0.19352
 O1858 O 0.75902 0.70050 0.22424
 Zr1859 Zr 0.69300 0.77411 0.26570
 O1860 O 0.72359 0.74132 0.30026
 O1861 O 0.78471 0.71555 0.28546
 O1862 O 0.71519 0.78515 0.21572
 C1863 C 0.80096 0.64551 0.25618
 C1864 C 0.85478 0.74555 0.30150
 C1865 C 0.75581 0.69911 0.35501
 C1866 C 0.69865 0.85444 0.24342
 C1867 C 0.74304 0.80191 0.14680
 C1868 C 0.64641 0.75717 0.19907
 H1869 H 0.78979 0.76159 0.17926
 H1870 H 0.67873 0.71056 0.23912
 H1871 H 0.80009 0.70035 0.30072
 H1872 H 0.73865 0.82218 0.28981
 H1873 H 0.81138 0.84286 0.26369
 H1874 H 0.79219 0.83077 0.31915
 H1875 H 0.68395 0.68055 0.18807
 H1876 H 0.71863 0.64506 0.22796
 H1877 H 0.82108 0.81073 0.18551
 H1878 H 0.85587 0.77262 0.22027
 H1879 H 0.64286 0.73009 0.28403
 H1880 H 0.67901 0.69033 0.31416
 H1881 H 0.81032 0.68689 0.17966
 H1882 H 0.77054 0.71708 0.14324
 H1883 H 0.72622 0.77894 0.35602
 H1884 H 0.68743 0.81651 0.32031
 O1885 O 0.75904 0.31901 0.83201
 O1886 O 0.81363 0.32812 0.80094
 O1887 O 0.68287 0.32987 0.74620
 O1888 O 0.67093 0.30285 0.69490
 O1889 O 0.67272 0.24250 0.82184
 O1890 O 0.70439 0.18817 0.83085
 O1891 O 0.77020 0.23277 0.65171
 O1892 O 0.75219 0.29261 0.65139
 O1893 O 0.85217 0.23080 0.73291
 O1894 O 0.85319 0.24639 0.79579
 O1895 O 0.77013 0.15005 0.73282
 O1896 O 0.70722 0.14974 0.74849
 O1897 O 0.74672 0.18183 0.67497
 O1898 O 0.68875 0.17358 0.70521
 O1899 O 0.82101 0.17308 0.75639
 O1900 O 0.82932 0.20314 0.81477
 O1901 O 0.82869 0.25586 0.68295
 O1902 O 0.80066 0.31279 0.67505
 O1903 O 0.73194 0.26971 0.85471
 O1904 O 0.74933 0.20878 0.85491
 O1905 O 0.65013 0.27099 0.77330
 O1906 O 0.65047 0.25142 0.71179
 O1907 O 0.73233 0.35243 0.77305
 O1908 O 0.79315 0.35288 0.75619
 Zr1909 Zr 0.76643 0.30796 0.77755
 O1910 O 0.80030 0.27724 0.74501
 Zr1911 Zr 0.69403 0.27545 0.73860
 O1912 O 0.72481 0.24358 0.70401
 Zr1913 Zr 0.72730 0.23555 0.81035
 O1914 O 0.75935 0.20165 0.77899
 Zr1915 Zr 0.77519 0.26671 0.69604
 O1916 O 0.74277 0.30109 0.72707
 Zr1917 Zr 0.80831 0.22662 0.76780
 O1918 O 0.77781 0.25898 0.80274
 Zr1919 Zr 0.73579 0.19430 0.72866
 O1920 O 0.70148 0.22475 0.76174
 O1921 O 0.71679 0.28542 0.78820
 O1922 O 0.78580 0.21640 0.71781
 C1923 C 0.74614 0.30075 0.85807
 C1924 C 0.70109 0.35580 0.75935
 C1925 C 0.64670 0.25599 0.80394
 C1926 C 0.75860 0.20064 0.64885
 C1927 C 0.85494 0.24310 0.70103
 C1928 C 0.80229 0.14710 0.74420
 H1929 H 0.82306 0.29019 0.74200
 H1930 H 0.76249 0.17882 0.79187
 H1931 H 0.70159 0.30064 0.80360
 H1932 H 0.71187 0.24075 0.68122
 H1933 H 0.73785 0.31281 0.66068
 H1934 H 0.68252 0.29388 0.67296
 H1935 H 0.81378 0.18287 0.82147
 H1936 H 0.77404 0.21772 0.85755
 H1937 H 0.81849 0.32116 0.69257
 H1938 H 0.78407 0.35605 0.73157
 H1939 H 0.71771 0.14320 0.77182
 H1940 H 0.68786 0.17916 0.81233
 H1941 H 0.82267 0.30928 0.81716
 H1942 H 0.85927 0.26999 0.78558
 H1943 H 0.64641 0.22791 0.72320
 H1944 H 0.68179 0.18959 0.68538
   
