data_POSCAR
  _audit_creation_date              2014-09-24
  _audit_creation_method            'ToBaCCo'
  _symmetry_space_group_name_H-M    'P1'
  _symmetry_Int_Tables_number       1
  _symmetry_cell_setting            triclinic
  loop_
  _symmetry_equiv_pos_as_xyz
 x,y,z
_cell_length_a 71.6068
_cell_length_b 71.6200
_cell_length_c 71.5956
_cell_angle_alpha 90.004200
_cell_angle_beta 90.015000
_cell_angle_gamma 90.005400
loop_
  _atom_site_label
  _atom_site_type_symbol
  _atom_site_fract_x
  _atom_site_fract_y
  _atom_site_fract_z
C1 C 0.33997 1.36452 0.33997
 C2 C 0.34805 1.37257 0.32402
 C3 C 0.36365 1.36431 0.31514
 C4 C 0.37120 1.34788 0.32308
 C5 C 0.36334 1.33978 0.33908
 C6 C 0.34759 1.34804 0.34747
 C7 C 0.32408 1.37251 0.34822
 C8 C 0.31538 1.36418 0.36389
 C9 C 0.32343 1.34775 0.37132
 C10 C 0.33939 1.33974 0.36330
 C11 C 0.34720 1.32344 0.37086
 C12 C 0.36305 1.31521 0.36271
 C13 C 0.37102 1.32348 0.34678
 H14 H 0.34142 1.38478 0.31807
 H15 H 0.38365 1.34156 0.31728
 H16 H 0.31803 1.38472 0.34169
 H17 H 0.31776 1.34138 0.38381
 H18 H 0.34075 1.31696 0.38293
 H19 H 0.38332 1.31732 0.34048
 C20 C 0.33951 0.86366 0.83948
 C21 C 0.34727 0.87135 0.82321
 C22 C 0.36335 0.86352 0.81510
 C23 C 0.37170 0.84787 0.82353
 C24 C 0.36411 0.84006 0.83981
 C25 C 0.34800 0.84803 0.84787
 C26 C 0.32331 0.87132 0.84737
 C27 C 0.31529 0.86371 0.86375
 C28 C 0.32419 0.84817 0.87210
 C29 C 0.34031 0.84027 0.86424
 C30 C 0.34864 0.82446 0.87230
 C31 C 0.36458 0.81630 0.86422
 C32 C 0.37230 0.82431 0.84805
 H33 H 0.34058 0.88322 0.81663
 H34 H 0.38419 0.84185 0.81747
 H35 H 0.31744 0.88369 0.84097
 H36 H 0.31816 0.84147 0.88423
 H37 H 0.34246 0.81824 0.88464
 H38 H 0.38475 0.81830 0.84188
 C39 C 0.83966 1.36379 0.83944
 C40 C 0.84754 1.37172 0.82335
 C41 C 0.86326 1.36358 0.81457
 C42 C 0.87104 1.34733 0.82268
 C43 C 0.86338 1.33937 0.83885
 C44 C 0.84760 1.34758 0.84724
 C45 C 0.82369 1.37166 0.84765
 C46 C 0.81554 1.36353 0.86356
 C47 C 0.82373 1.34750 0.87140
 C48 C 0.83968 1.33948 0.86336
 C49 C 0.84769 1.32335 0.87107
 C50 C 0.86350 1.31511 0.86284
 C51 C 0.87126 1.32325 0.84673
 H52 H 0.84070 1.38374 0.81724
 H53 H 0.88353 1.34108 0.81690
 H54 H 0.81733 1.38388 0.84138
 H55 H 0.81771 1.34129 0.88383
 H56 H 0.84141 1.31700 0.88329
 H57 H 0.88356 1.31710 0.84040
 C58 C 0.83994 0.86419 0.33969
 C59 C 0.84786 0.87209 0.32360
 C60 C 0.86356 0.86390 0.31485
 C61 C 0.87131 0.84765 0.32299
 C62 C 0.86361 0.83972 0.33915
 C63 C 0.84784 0.84796 0.34751
 C64 C 0.82397 0.87209 0.34787
 C65 C 0.81578 0.86398 0.36377
 C66 C 0.82393 0.84794 0.37164
 C67 C 0.83987 0.83988 0.36363
 C68 C 0.84785 0.82374 0.37135
 C69 C 0.86364 0.81546 0.36312
 C70 C 0.87145 0.82360 0.34704
 H71 H 0.84105 0.88411 0.31748
 H72 H 0.88379 0.84138 0.31723
 H73 H 0.81764 0.88431 0.34157
 H74 H 0.81788 0.84175 0.38406
 H75 H 0.84154 0.81740 0.38356
 H76 H 0.88374 0.81742 0.34072
 C77 C 0.65990 0.63588 0.33985
 C78 C 0.65176 0.62790 0.32391
 C79 C 0.63607 0.63615 0.31519
 C80 C 0.62859 0.65260 0.32318
 C81 C 0.63650 0.66062 0.33921
 C82 C 0.65225 0.65230 0.34754
 C83 C 0.67582 0.62787 0.34803
 C84 C 0.68419 0.63603 0.36381
 C85 C 0.67630 0.65227 0.37154
 C86 C 0.66044 0.66046 0.36349
 C87 C 0.65273 0.67678 0.37109
 C88 C 0.63696 0.68515 0.36290
 C89 C 0.62891 0.67694 0.34698
 H90 H 0.65837 0.61571 0.31789
 H91 H 0.61613 0.65895 0.31745
 H92 H 0.68195 0.61548 0.34185
 H93 H 0.68248 0.65850 0.38387
 H94 H 0.65892 0.68291 0.38347
 H95 H 0.61694 0.68347 0.34040
 C96 C 0.65961 0.13533 0.84065
 C97 C 0.65147 0.12711 0.82482
 C98 C 0.63569 0.13514 0.81631
 C99 C 0.62795 0.15149 0.82396
 C100 C 0.63594 0.15987 0.83977
 C101 C 0.65190 0.15183 0.84808
 C102 C 0.67549 0.12742 0.84895
 C103 C 0.68416 0.13583 0.86459
 C104 C 0.67617 0.15239 0.87183
 C105 C 0.66021 0.16035 0.86374
 C106 C 0.65243 0.17676 0.87110
 C107 C 0.63652 0.18487 0.86293
 C108 C 0.62836 0.17631 0.84725
 H109 H 0.65736 0.11437 0.81916
 H110 H 0.61593 0.15791 0.81738
 H111 H 0.68152 0.11516 0.84249
 H112 H 0.68187 0.15889 0.88424
 H113 H 0.65869 0.18315 0.88331
 H114 H 0.61627 0.18263 0.84067
 C115 C 1.16029 0.63633 0.84005
 C116 C 1.15241 0.62866 0.82382
 C117 C 1.13640 0.63663 0.81570
 C118 C 1.12826 0.65242 0.82407
 C119 C 1.13597 0.66022 0.84030
 C120 C 1.15200 0.65210 0.84838
 C121 C 1.17639 0.62849 0.84798
 C122 C 1.18449 0.63604 0.86435
 C123 C 1.17581 0.65175 0.87261
 C124 C 1.15980 0.65983 0.86471
 C125 C 1.15165 0.67576 0.87273
 C126 C 1.13579 0.68406 0.86464
 C127 C 1.12796 0.67608 0.84849
 H128 H 1.15894 0.61667 0.81729
 H129 H 1.11581 0.65855 0.81802
 H130 H 1.18209 0.61601 0.84164
 H131 H 1.18191 0.65842 0.88473
 H132 H 1.15790 0.68194 0.88506
 H133 H 1.11556 0.68221 0.84232
 C134 C 1.15995 0.13591 0.33999
 C135 C 1.15186 0.12794 0.32399
 C136 C 1.13643 0.13640 0.31498
 C137 C 1.12908 0.15296 0.32282
 C138 C 1.13694 0.16098 0.33887
 C139 C 1.15253 0.15252 0.34739
 C140 C 1.17564 0.12769 0.34840
 C141 C 1.18432 0.13589 0.36416
 C142 C 1.17647 0.15247 0.37147
 C143 C 1.16075 0.16075 0.36326
 C144 C 1.15313 0.17719 0.37071
 C145 C 1.13746 0.18563 0.36242
 C146 C 1.12945 0.17741 0.34648
 H147 H 1.15835 0.11562 0.31812
 H148 H 1.11676 0.15945 0.31692
 H149 H 1.18155 0.11537 0.34194
 H150 H 1.18212 0.15877 0.38400
 H151 H 1.15930 0.18334 0.38309
 H152 H 1.11758 0.18401 0.33980
 C153 C 0.66033 1.36405 0.65980
 C154 C 0.65248 1.37155 0.67612
 C155 C 0.63652 1.36346 0.68421
 C156 C 0.62835 1.34776 0.67570
 C157 C 0.63602 1.34014 0.65936
 C158 C 0.65204 1.34835 0.65135
 C159 C 0.67640 1.37200 0.65191
 C160 C 0.68450 1.36459 0.63550
 C161 C 0.67583 1.34894 0.62711
 C162 C 0.65986 1.34076 0.63498
 C163 C 0.65179 1.32484 0.62687
 C164 C 0.63599 1.31640 0.63492
 C165 C 0.62810 1.32425 0.65110
 H166 H 0.65875 1.38377 0.68248
 H167 H 0.61623 1.34124 0.68201
 H168 H 0.68210 1.38443 0.65837
 H169 H 0.68195 1.34236 0.61495
 H170 H 0.65780 1.31902 0.61426
 H171 H 0.61605 1.31771 0.65752
 C172 C 0.66007 0.86380 1.16005
 C173 C 0.65216 0.87162 1.17617
 C174 C 0.63585 0.86400 1.18431
 C175 C 0.62759 0.84830 1.17562
 C176 C 0.63548 0.84025 1.15958
 C177 C 0.65177 0.84801 1.15177
 C178 C 0.67629 0.87149 1.15217
 C179 C 0.68444 0.86349 1.13619
 C180 C 0.67609 0.84769 1.12805
 C181 C 0.65987 0.83988 1.13575
 C182 C 0.65174 0.82395 1.12780
 C183 C 0.63565 0.81592 1.13567
 C184 C 0.62752 0.82426 1.15149
 H185 H 0.65850 0.88409 1.18188
 H186 H 0.61551 0.84159 1.18175
 H187 H 0.68282 0.88348 1.15871
 H188 H 0.68218 0.84153 1.11564
 H189 H 0.65795 0.81778 1.11544
 H190 H 0.61525 0.81802 1.15779
 C191 C 1.16023 1.36395 1.15984
 C192 C 1.15232 1.37149 1.17611
 C193 C 1.13636 1.36340 1.18419
 C194 C 1.12827 1.34762 1.17574
 C195 C 1.13599 1.33996 1.15945
 C196 C 1.15200 1.34819 1.15143
 C197 C 1.17633 1.37187 1.15199
 C198 C 1.18448 1.36440 1.13561
 C199 C 1.17584 1.34873 1.12725
 C200 C 1.15986 1.34055 1.13510
 C201 C 1.15182 1.32461 1.12702
 C202 C 1.13600 1.31618 1.13504
 C203 C 1.12808 1.32406 1.15119
 H204 H 1.15882 1.38346 1.18272
 H205 H 1.11587 1.34139 1.18178
 H206 H 1.18201 1.38432 1.15842
 H207 H 1.18199 1.34212 1.11513
 H208 H 1.15786 1.31876 1.11443
 H209 H 1.11602 1.31753 1.15761
 C210 C 1.16089 0.86372 0.66024
 C211 C 1.15302 0.87139 0.67647
 C212 C 1.13704 0.86340 0.68461
 C213 C 1.12888 0.84761 0.67624
 C214 C 1.13658 0.83982 0.66001
 C215 C 1.15260 0.84795 0.65192
 C216 C 1.17701 0.87154 0.65233
 C217 C 1.18514 0.86394 0.63601
 C218 C 1.17644 0.84825 0.62773
 C219 C 1.16041 0.84019 0.63561
 C220 C 1.15231 0.82422 0.62764
 C221 C 1.13648 0.81589 0.63575
 C222 C 1.12861 0.82390 0.65186
 H223 H 1.15957 0.88337 0.68301
 H224 H 1.11646 0.84146 0.68232
 H225 H 1.18273 0.88400 0.65868
 H226 H 1.18256 0.84155 0.61564
 H227 H 1.15859 0.81800 0.61535
 H228 H 1.11625 0.81774 0.65806
 C229 C 0.34051 0.63589 0.65937
 C230 C 0.34838 0.62813 0.67554
 C231 C 0.36435 0.63610 0.68375
 C232 C 0.37254 0.65191 0.67547
 C233 C 0.36484 0.65984 0.65929
 C234 C 0.34873 0.65183 0.65123
 C235 C 0.32441 0.62812 0.65138
 C236 C 0.31631 0.63611 0.63537
 C237 C 0.32464 0.65194 0.62727
 C238 C 0.34075 0.65987 0.63511
 C239 C 0.34888 0.67582 0.62719
 C240 C 0.36485 0.68398 0.63522
 C241 C 0.37279 0.67582 0.65123
 H242 H 0.34211 0.61581 0.68171
 H243 H 0.38469 0.65830 0.68185
 H244 H 0.31792 0.61608 0.65787
 H245 H 0.31861 0.65807 0.61481
 H246 H 0.34280 0.68188 0.61472
 H247 H 0.38494 0.68216 0.65766
 C248 C 0.34048 0.13584 1.15957
 C249 C 0.34846 0.12799 1.17565
 C250 C 0.36418 0.13622 1.18435
 C251 C 0.37187 0.15247 1.17618
 C252 C 0.36413 0.16035 1.16000
 C253 C 0.34833 0.15207 1.15171
 C254 C 0.32449 0.12790 1.15146
 C255 C 0.31623 0.13598 1.13557
 C256 C 0.32434 0.15202 1.12766
 C257 C 0.34028 0.16013 1.13563
 C258 C 0.34818 0.17627 1.12787
 C259 C 0.36399 0.18459 1.13602
 C260 C 0.37190 0.17650 1.15207
 H261 H 0.34169 0.11596 1.18181
 H262 H 0.38436 0.15879 1.18191
 H263 H 0.31820 0.11568 1.15778
 H264 H 0.31823 0.15819 1.11525
 H265 H 0.34208 0.18231 1.11540
 H266 H 0.38391 0.18300 1.15862
 C267 C 0.84049 0.63599 1.15943
 C268 C 0.84850 0.62825 1.17555
 C269 C 0.86450 0.63628 1.18364
 C270 C 0.87257 0.65212 1.17529
 C271 C 0.86473 0.66002 1.15917
 C272 C 0.84860 0.65196 1.15122
 C273 C 0.82431 0.62820 1.15158
 C274 C 0.81608 0.63618 1.13562
 C275 C 0.82433 0.65202 1.12745
 C276 C 0.84048 0.65997 1.13516
 C277 C 0.84853 0.67593 1.12716
 C278 C 0.86456 0.68410 1.13505
 C279 C 0.87262 0.67598 1.15102
 H280 H 0.84203 0.61620 1.18204
 H281 H 0.88504 0.65826 1.18130
 H282 H 0.81790 0.61616 1.15812
 H283 H 0.81820 0.65812 1.11503
 H284 H 0.84235 0.68196 1.11473
 H285 H 0.88481 0.68234 1.15735
 C286 C 0.83989 0.13626 0.65989
 C287 C 0.84807 0.12822 0.67580
 C288 C 0.86370 0.13651 0.68460
 C289 C 0.87119 0.15296 0.67663
 C290 C 0.86324 0.16103 0.66066
 C291 C 0.84743 0.15276 0.65236
 C292 C 0.82396 0.12824 0.65171
 C293 C 0.81517 0.13656 0.63609
 C294 C 0.82315 0.15300 0.62862
 C295 C 0.83911 0.16107 0.63659
 C296 C 0.84686 0.17739 0.62900
 C297 C 0.86275 0.18563 0.63707
 C298 C 0.87084 0.17735 0.65293
 H299 H 0.84149 0.11600 0.68178
 H300 H 0.88365 0.15929 0.68238
 H301 H 0.81798 0.11602 0.65828
 H302 H 0.81741 0.15936 0.61617
 H303 H 0.84061 0.18359 0.61669
 H304 H 0.88288 0.18381 0.65945
 C305 C 1.36347 0.33949 0.66040
 C306 C 1.37103 0.34726 0.67673
 C307 C 1.36346 0.36364 0.68476
 C308 C 1.34800 0.37206 0.67581
 C309 C 1.34024 0.36435 0.65955
 C310 C 1.34806 0.34806 0.65176
 C311 C 1.37117 0.32323 0.65262
 C312 C 1.36374 0.31522 0.63616
 C313 C 1.34828 0.32410 0.62768
 C314 C 1.34037 0.34026 0.63542
 C315 C 1.32462 0.34854 0.62722
 C316 C 1.31644 0.36454 0.63513
 C317 C 1.32448 0.37247 0.65120
 H318 H 1.38331 0.34076 0.68269
 H319 H 1.34126 0.38416 0.68187
 H320 H 1.38345 0.31732 0.65917
 H321 H 1.34164 0.31804 0.61552
 H322 H 1.31869 0.34252 0.61465
 H323 H 1.31816 0.38470 0.65750
 C324 C 1.36479 0.84023 1.15938
 C325 C 1.37273 0.84838 1.17535
 C326 C 1.36459 0.86423 1.18361
 C327 C 1.34850 0.87207 1.17553
 C328 C 1.34040 0.86407 1.15960
 C329 C 1.34850 0.84801 1.15156
 C330 C 1.37269 0.82417 1.15140
 C331 C 1.36444 0.81541 1.13572
 C332 C 1.34814 0.82352 1.12805
 C333 C 1.34020 0.83964 1.13581
 C334 C 1.32399 0.84748 1.12808
 C335 C 1.31584 0.86350 1.13598
 C336 C 1.32418 0.87173 1.15174
 H337 H 1.38500 0.84212 1.18162
 H338 H 1.34229 0.88445 1.18164
 H339 H 1.38476 0.81806 1.15815
 H340 H 1.34181 0.81775 1.11559
 H341 H 1.31774 0.84115 1.11582
 H342 H 1.31782 0.88389 1.15812
 C343 C 0.86356 0.33926 1.16027
 C344 C 0.87111 0.34710 1.17656
 C345 C 0.86308 0.36309 1.18466
 C346 C 0.84737 0.37127 1.17619
 C347 C 0.83969 0.36361 1.15987
 C348 C 0.84786 0.34757 1.15184
 C349 C 0.87147 0.32318 1.15236
 C350 C 0.86401 0.31508 1.13596
 C351 C 0.84836 0.32377 1.12760
 C352 C 0.84021 0.33976 1.13548
 C353 C 0.82430 0.34785 1.12740
 C354 C 0.81591 0.36368 1.13545
 C355 C 0.82380 0.37156 1.15162
 H356 H 0.88334 0.34083 1.18290
 H357 H 0.84089 0.38341 1.18250
 H358 H 0.88390 0.31746 1.15880
 H359 H 0.84174 0.31766 1.11545
 H360 H 0.81844 0.34185 1.11479
 H361 H 0.81730 0.38362 1.15805
 C362 C 0.86424 0.84026 0.65950
 C363 C 0.87211 0.84817 0.67560
 C364 C 0.86412 0.86408 0.68389
 C365 C 0.84818 0.87217 0.67576
 C366 C 0.84014 0.86442 0.65966
 C367 C 0.84816 0.84838 0.65151
 C368 C 0.87204 0.82421 0.65142
 C369 C 0.86393 0.81607 0.63548
 C370 C 0.84796 0.82431 0.62755
 C371 C 0.84001 0.84035 0.63547
 C372 C 0.82391 0.84837 0.62773
 C373 C 0.81574 0.86428 0.63584
 C374 C 0.82401 0.87227 0.65177
 H375 H 0.88453 0.84198 0.68165
 H376 H 0.84177 0.88427 0.68221
 H377 H 0.88418 0.81780 0.65779
 H378 H 0.84174 0.81825 0.61514
 H379 H 0.81775 0.84225 0.61532
 H380 H 0.81766 0.88437 0.65827
 C381 C 0.63607 0.66045 0.65979
 C382 C 0.62826 0.65246 0.67588
 C383 C 0.63630 0.63651 0.68407
 C384 C 0.65222 0.62849 0.67583
 C385 C 0.66020 0.63633 0.65976
 C386 C 0.65212 0.65238 0.65170
 C387 C 0.62827 0.67657 0.65185
 C388 C 0.63633 0.68480 0.63593
 C389 C 0.65224 0.67657 0.62787
 C390 C 0.66019 0.66046 0.63565
 C391 C 0.67625 0.65246 0.62779
 C392 C 0.68445 0.63652 0.63581
 C393 C 0.67626 0.62849 0.65175
 H394 H 0.61615 0.65889 0.68229
 H395 H 0.65838 0.61607 0.68192
 H396 H 0.61617 0.68296 0.65830
 H397 H 0.65841 0.68269 0.61547
 H398 H 0.68263 0.65891 0.61567
 H399 H 0.68237 0.61608 0.65790
 C400 C 0.63533 1.16032 1.15918
 C401 C 0.62726 1.15225 1.17511
 C402 C 0.63528 1.13641 1.18350
 C403 C 0.65142 1.12850 1.17560
 C404 C 0.65968 1.13644 1.15971
 C405 C 0.65166 1.15247 1.15152
 C406 C 0.62748 1.17632 1.15104
 C407 C 0.63583 1.18498 1.13538
 C408 C 0.65220 1.17685 1.12789
 C409 C 0.66006 1.16074 1.13577
 C410 C 0.67632 1.15284 1.12820
 C411 C 0.68441 1.13687 1.13627
 C412 C 0.67596 1.12875 1.15203
 H413 H 0.61467 1.15828 1.18097
 H414 H 0.65784 1.11644 1.18210
 H415 H 0.61537 1.18245 1.15768
 H416 H 0.65862 1.18256 1.11545
 H417 H 0.68292 1.15936 1.11624
 H418 H 0.68200 1.11633 1.15824
 C419 C 0.13572 0.66026 1.15983
 C420 C 0.12796 0.65213 1.17590
 C421 C 0.13624 0.63637 1.18444
 C422 C 0.15255 0.62887 1.17622
 C423 C 0.16032 0.63675 1.16005
 C424 C 0.15185 0.65246 1.15180
 C425 C 0.12764 0.67622 1.15185
 C426 C 0.13530 0.68461 1.13569
 C427 C 0.15128 0.67629 1.12759
 C428 C 0.15960 0.66045 1.13557
 C429 C 0.17582 0.65272 1.12775
 C430 C 0.18442 0.63708 1.13595
 C431 C 0.17649 0.62912 1.15205
 H432 H 0.11592 0.65880 1.18215
 H433 H 0.15898 0.61640 1.18186
 H434 H 0.11494 0.68164 1.15801
 H435 H 0.15799 0.68259 1.11560
 H436 H 0.18199 0.65911 1.11549
 H437 H 0.18288 0.61692 1.15832
 C438 C 0.13623 1.16070 0.66043
 C439 C 0.12833 1.15276 0.67650
 C440 C 0.13581 1.13636 0.68457
 C441 C 0.15146 1.12804 0.67586
 C442 C 0.15959 1.13595 0.65988
 C443 C 0.15194 1.15231 0.65210
 C444 C 0.12867 1.17700 0.65262
 C445 C 0.13670 1.18514 0.63665
 C446 C 0.15242 1.17670 0.62845
 C447 C 0.16010 1.16037 0.63607
 C448 C 0.17600 1.15216 0.62811
 C449 C 0.18390 1.13600 0.63597
 C450 C 0.17551 1.12791 0.65178
 H451 H 0.11590 1.15917 0.68224
 H452 H 0.15809 1.11590 0.68195
 H453 H 0.11643 1.18331 0.65891
 H454 H 0.15889 1.18304 0.61632
 H455 H 0.18250 1.15862 0.61606
 H456 H 0.18138 1.11530 0.65775
 C457 C 1.36417 0.66048 0.33972
 C458 C 1.37217 0.65244 0.32375
 C459 C 1.36444 0.63628 0.31541
 C460 C 1.34847 0.62825 0.32381
 C461 C 1.34023 0.63628 0.33967
 C462 C 1.34805 0.65250 0.34760
 C463 C 1.37201 0.67654 0.34778
 C464 C 1.36381 0.68515 0.36356
 C465 C 1.34751 0.67698 0.37115
 C466 C 1.33967 0.66081 0.36334
 C467 C 1.32352 0.65286 0.37105
 C468 C 1.31552 0.63675 0.36317
 C469 C 1.32403 0.62851 0.34750
 H470 H 1.38487 0.65855 0.31828
 H471 H 1.34169 0.61627 0.31756
 H472 H 1.38404 0.68275 0.34105
 H473 H 1.34115 0.68267 0.38363
 H474 H 1.31720 0.65916 0.38328
 H475 H 1.31780 0.61625 0.34116
 C476 C 1.36472 1.16022 0.84030
 C477 C 1.37274 1.15221 0.82431
 C478 C 1.36459 1.13650 0.81579
 C479 C 1.34837 1.12866 0.82361
 C480 C 1.34019 1.13653 0.83957
 C481 C 1.34832 1.15245 0.84787
 C482 C 1.37272 1.17607 0.84859
 C483 C 1.36446 1.18465 0.86435
 C484 C 1.34800 1.17661 0.87174
 C485 C 1.33997 1.16067 0.86366
 C486 C 1.32364 1.15286 0.87116
 C487 C 1.31543 1.13699 0.86298
 C488 C 1.32383 1.12890 0.84719
 H489 H 1.38538 1.15817 0.81850
 H490 H 1.34187 1.11669 0.81701
 H491 H 1.38491 1.18215 0.84204
 H492 H 1.34162 1.18224 0.88423
 H493 H 1.31735 1.15906 0.88345
 H494 H 1.31744 1.11686 0.84061
 C495 C 0.86418 0.66029 0.83990
 C496 C 0.87192 0.65238 0.82373
 C497 C 0.86375 0.63656 0.81542
 C498 C 0.84778 0.62857 0.82360
 C499 C 0.83989 0.63632 0.83976
 C500 C 0.84808 0.65227 0.84793
 C501 C 0.87212 0.67628 0.84798
 C502 C 0.86416 0.68441 0.86400
 C503 C 0.84818 0.67624 0.87198
 C504 C 0.84007 0.66029 0.86404
 C505 C 0.82397 0.65233 0.87185
 C506 C 0.81567 0.63649 0.86374
 C507 C 0.82379 0.62852 0.84774
 H508 H 0.88407 0.65879 0.81737
 H509 H 0.84154 0.61625 0.81742
 H510 H 0.88428 0.68263 0.84158
 H511 H 0.84209 0.68228 0.88446
 H512 H 0.81793 0.65844 0.88432
 H513 H 0.81733 0.61647 0.84124
 C514 C 0.86446 1.16006 0.33981
 C515 C 0.87234 1.15203 0.32377
 C516 C 0.86405 1.13637 0.31503
 C517 C 0.84773 1.12876 0.32315
 C518 C 0.83983 1.13655 0.33928
 C519 C 0.84815 1.15231 0.34760
 C520 C 0.87244 1.17602 0.34794
 C521 C 0.86431 1.18434 0.36377
 C522 C 0.84820 1.17632 0.37162
 C523 C 0.84005 1.16041 0.36363
 C524 C 0.82381 1.15261 0.37131
 C525 C 0.81545 1.13684 0.36313
 C526 C 0.82360 1.12887 0.34713
 H527 H 0.88444 1.15873 0.31765
 H528 H 0.84138 1.11630 0.31740
 H529 H 0.88473 1.18225 0.34167
 H530 H 0.84199 1.18247 0.38399
 H531 H 0.81773 1.15875 0.38373
 H532 H 0.81706 1.11690 0.34056
 C533 C 0.63597 0.34017 0.33987
 C534 C 0.62804 0.34804 0.32379
 C535 C 0.63553 0.36440 0.31562
 C536 C 0.65124 0.37272 0.32424
 C537 C 0.65942 0.36485 0.34021
 C538 C 0.65176 0.34854 0.34809
 C539 C 0.62840 0.32393 0.34779
 C540 C 0.63650 0.31583 0.36375
 C541 C 0.65231 0.32424 0.37182
 C542 C 0.66000 0.34051 0.36409
 C543 C 0.67593 0.34873 0.37198
 C544 C 0.68384 0.36486 0.36404
 C545 C 0.67540 0.37289 0.34822
 H546 H 0.61557 0.34164 0.31812
 H547 H 0.65787 0.38482 0.31807
 H548 H 0.61640 0.31735 0.34130
 H549 H 0.65855 0.31818 0.38421
 H550 H 0.68247 0.34231 0.38403
 H551 H 0.68127 0.38547 0.34217
 C552 C 0.63560 0.84039 0.83999
 C553 C 0.62776 0.84855 0.82399
 C554 C 0.63571 0.86466 0.81604
 C555 C 0.65158 0.87267 0.82440
 C556 C 0.65957 0.86468 0.84040
 C557 C 0.65159 0.84846 0.84821
 C558 C 0.62787 0.82414 0.84772
 C559 C 0.63592 0.81578 0.86358
 C560 C 0.65178 0.82399 0.87176
 C561 C 0.65968 0.84022 0.86417
 C562 C 0.67565 0.84824 0.87220
 C563 C 0.68375 0.86436 0.86444
 C564 C 0.67555 0.87253 0.84857
 H565 H 0.61568 0.84214 0.81749
 H566 H 0.65766 0.88521 0.81850
 H567 H 0.61580 0.81777 0.84117
 H568 H 0.65794 0.81778 0.88412
 H569 H 0.68173 0.84197 0.88456
 H570 H 0.68186 0.88480 0.84233
 C571 C 0.13512 0.34017 0.84050
 C572 C 0.12687 0.34840 0.82474
 C573 C 0.13478 0.36434 0.81644
 C574 C 0.15101 0.37218 0.82426
 C575 C 0.15943 0.36409 0.83999
 C576 C 0.15150 0.34797 0.84809
 C577 C 0.12735 0.32409 0.84857
 C578 C 0.13584 0.31530 0.86409
 C579 C 0.15227 0.32339 0.87151
 C580 C 0.16005 0.33957 0.86369
 C581 C 0.17635 0.34744 0.87122
 C582 C 0.18434 0.36351 0.86325
 C583 C 0.17576 0.37175 0.84762
 H584 H 0.11422 0.34243 0.81895
 H585 H 0.15734 0.38433 0.81783
 H586 H 0.11518 0.31800 0.84199
 H587 H 0.15880 0.31759 0.88385
 H588 H 0.18305 0.34082 0.88308
 H589 H 0.18173 0.38424 0.84149
 C590 C 0.13616 0.83980 0.33936
 C591 C 0.12792 0.84807 0.32362
 C592 C 0.13544 0.86442 0.31549
 C593 C 0.15147 0.87240 0.32384
 C594 C 0.15995 0.86415 0.33946
 C595 C 0.15232 0.84775 0.34720
 C596 C 0.12853 0.82354 0.34722
 C597 C 0.13696 0.81473 0.36276
 C598 C 0.15328 0.82290 0.37032
 C599 C 0.16092 0.83924 0.36271
 C600 C 0.17710 0.84718 0.37039
 C601 C 0.18491 0.86346 0.36269
 C602 C 0.17619 0.87190 0.34725
 H603 H 0.11519 0.84197 0.31819
 H604 H 0.15809 0.88454 0.31772
 H605 H 0.11647 0.81736 0.34050
 H606 H 0.15981 0.81705 0.38265
 H607 H 0.18358 0.84072 0.38246
 H608 H 0.18227 0.88430 0.34105
 O609 O 1.06766 1.01832 1.09292
 O610 O 1.08937 1.01839 1.11477
 C611 C 1.07419 1.02475 1.10812
 C612 C 1.06423 1.04005 1.11787
 C613 C 1.07062 1.04673 1.13518
 H614 H 1.08281 1.04044 1.14156
 O615 O 0.93234 0.98187 1.09281
 O616 O 0.91062 0.98184 1.11464
 C617 C 0.92579 0.97546 1.10800
 C618 C 0.93572 0.96016 1.11777
 C619 C 0.92927 0.95348 1.13505
 H620 H 0.91706 0.95976 1.14139
 O621 O 1.01827 1.09295 1.06738
 O622 O 1.01828 1.11480 1.08908
 C623 C 1.02466 1.10815 1.07392
 C624 C 1.03997 1.11790 1.06399
 C625 C 1.04656 1.13526 1.07034
 H626 H 1.04014 1.14177 1.08239
 O627 O 0.98183 0.90738 1.06735
 O628 O 0.98179 0.88552 1.08905
 C629 C 0.97544 0.89216 1.07386
 C630 C 0.96018 0.88239 1.06387
 C631 C 0.95371 0.86493 1.07008
 H632 H 0.96019 0.85838 1.08209
 O633 O 1.09310 1.06737 1.01808
 O634 O 1.11487 1.08916 1.01810
 C635 C 1.10829 1.07395 1.02446
 C636 C 1.11810 1.06407 1.03977
 C637 C 1.13547 1.07044 1.04626
 H638 H 1.14215 1.08219 1.03946
 O639 O 0.90694 0.93287 1.01799
 O640 O 0.88518 0.91108 1.01799
 C641 C 0.89176 0.92628 1.02437
 C642 C 0.88196 0.93613 1.03969
 C643 C 0.86466 0.92966 1.04628
 H644 H 0.85801 0.91787 1.03952
 O645 O 0.98171 1.06748 1.09287
 O646 O 0.98168 1.08922 1.11468
 C647 C 0.97528 1.07406 1.10805
 C648 C 0.95994 1.06417 1.11779
 C649 C 0.95328 1.07061 1.13509
 H650 H 0.95962 1.08278 1.14146
 O651 O 1.01825 0.93294 1.09296
 O652 O 1.01822 0.91122 1.11479
 C653 C 1.02459 0.92641 1.10819
 C654 C 1.03988 0.93633 1.11800
 C655 C 1.04614 0.93018 1.13555
 H656 H 1.03906 0.91869 1.14236
 O657 O 1.09324 0.98187 1.06741
 O658 O 1.11507 0.98185 1.08914
 C659 C 1.10844 0.97548 1.07396
 C660 C 1.11820 0.96017 1.06403
 C661 C 1.13551 0.95351 1.07043
 H662 H 1.14199 0.95989 1.08252
 O663 O 0.90686 1.01839 1.06728
 O664 O 0.88505 1.01842 1.08901
 C665 C 0.89168 1.02480 1.07384
 C666 C 0.88195 1.04016 1.06397
 C667 C 0.86468 1.04682 1.07044
 H668 H 0.85801 1.04009 1.08224
 O669 O 0.93246 1.09301 1.01799
 O670 O 0.91081 1.11491 1.01799
 C671 C 0.92596 1.10823 1.02438
 C672 C 0.93593 1.11796 1.03970
 C673 C 0.92955 1.13528 1.04636
 H674 H 0.91739 1.14168 1.04004
 O675 O 1.06762 0.90719 1.01822
 O676 O 1.08929 0.88531 1.01828
 C677 C 1.07414 0.89200 1.02466
 C678 C 1.06419 0.88230 1.04000
 C679 C 1.07053 0.86497 1.04666
 H680 H 1.08268 0.85855 1.04034
 O681 O 0.93247 1.01829 1.09284
 O682 O 0.91076 1.01831 1.11468
 C683 C 0.92596 1.02465 1.10806
 C684 C 0.93589 1.03995 1.11783
 C685 C 0.92956 1.04646 1.13521
 H686 H 0.91792 1.03956 1.14196
 O687 O 1.06769 0.98189 1.09298
 O688 O 1.08938 0.98189 1.11485
 C689 C 1.07421 0.97552 1.10820
 C690 C 1.06421 0.96027 1.11799
 C691 C 1.07041 0.95379 1.13544
 H692 H 1.08251 0.96018 1.14190
 O693 O 1.01826 0.90738 1.06734
 O694 O 1.01824 0.88555 1.08907
 C695 C 1.02461 0.89216 1.07388
 C696 C 1.03991 0.88236 1.06398
 C697 C 1.04632 0.86494 1.07031
 H698 H 1.03933 0.85820 1.08190
 O699 O 0.98184 1.09292 1.06716
 O700 O 0.98183 1.11477 1.08886
 C701 C 0.97548 1.10814 1.07366
 C702 C 0.96020 1.11794 1.06372
 C703 C 0.95374 1.13533 1.07006
 H704 H 0.96068 1.14207 1.08169
 O705 O 0.90681 1.06754 1.01803
 O706 O 0.88504 1.08932 1.01804
 C707 C 0.89164 1.07414 1.02443
 C708 C 0.88190 1.06428 1.03980
 C709 C 0.86463 1.07075 1.04649
 H710 H 0.85817 1.08285 1.04010
 O711 O 1.09319 0.93275 1.01811
 O712 O 1.11496 0.91098 1.01815
 C713 C 1.10837 0.92618 1.02451
 C714 C 1.11814 0.93606 1.03984
 C715 C 1.13545 0.92962 1.04644
 H716 H 1.14212 0.91785 1.03968
 O717 O 0.98181 0.93294 1.09293
 O718 O 0.98177 0.91119 1.11473
 C719 C 0.97541 0.92638 1.10812
 C720 C 0.96005 0.93624 1.11786
 C721 C 0.95353 0.92987 1.13523
 H722 H 0.96048 0.91827 1.14199
 O723 O 1.01817 1.06731 1.09291
 O724 O 1.01817 1.08905 1.11471
 C725 C 1.02455 1.07386 1.10811
 C726 C 1.03989 1.06399 1.11790
 C727 C 1.04638 1.07035 1.13529
 H728 H 1.03944 1.08197 1.14203
 O729 O 0.90678 0.98196 1.06724
 O730 O 0.88495 0.98194 1.08896
 C731 C 0.89158 0.97558 1.07377
 C732 C 0.88184 0.96026 1.06384
 C733 C 0.86454 0.95357 1.07025
 H734 H 0.85805 0.95994 1.08233
 O735 O 1.09324 1.01828 1.06738
 O736 O 1.11509 1.01833 1.08910
 C737 C 1.10845 1.02468 1.07391
 C738 C 1.11820 1.03996 1.06394
 C739 C 1.13558 1.04654 1.07024
 H740 H 1.14210 1.04013 1.08229
 O741 O 0.93264 0.90742 1.01802
 O742 O 0.91097 0.88554 1.01800
 C743 C 0.92613 0.89220 1.02439
 C744 C 0.93607 0.88243 1.03969
 C745 C 0.92982 0.86498 1.04608
 H746 H 0.91815 0.85824 1.03921
 O747 O 1.06748 1.09290 1.01811
 O748 O 1.08915 1.11477 1.01813
 C749 C 1.07399 1.10811 1.02450
 C750 C 1.06408 1.11786 1.03983
 C751 C 1.07044 1.13522 1.04634
 H752 H 1.08217 1.14193 1.03954
 Cu753 Cu 1.07828 1.00009 1.07800
 Cu754 Cu 1.10442 1.00012 1.10416
 Cu755 Cu 0.92179 1.00013 1.07786
 Cu756 Cu 0.89565 1.00013 1.10401
 Cu757 Cu 1.00000 1.07798 1.07791
 Cu758 Cu 0.99999 1.10414 1.10402
 Cu759 Cu 1.00004 0.92234 1.07797
 Cu760 Cu 1.00001 0.89619 1.10410
 C761 C 1.04877 1.04869 1.10942
 H762 H 1.04396 1.04384 1.09592
 C763 C 1.06179 1.06187 1.14403
 C764 C 0.95119 0.95153 1.10936
 H765 H 0.95602 0.95638 1.09587
 C766 C 0.93809 0.93834 1.14392
 C767 C 1.04873 1.10940 1.04863
 H768 H 1.04391 1.09589 1.04383
 C769 C 1.06180 1.14402 1.06161
 C770 C 0.95136 0.89093 1.04856
 H771 H 0.95609 0.90451 1.04386
 C772 C 0.93853 0.85613 1.06128
 C773 C 1.10967 1.04871 1.04858
 H774 H 1.09615 1.04388 1.04381
 C775 C 1.14431 1.06179 1.06150
 C776 C 0.89033 0.95156 1.04845
 H777 H 0.90380 0.95645 1.04361
 C778 C 0.85585 0.93826 1.06157
 C779 C 0.95122 1.04876 1.10935
 H780 H 0.95606 1.04393 1.09585
 C781 C 0.93810 1.06184 1.14394
 C782 C 1.04886 0.95152 1.10946
 H783 H 1.04421 0.95621 1.09584
 C784 C 1.06144 0.93877 1.14438
 C785 C 1.10972 0.95146 1.04861
 H786 H 1.09625 0.95633 1.04377
 C787 C 1.14422 0.93823 1.06174
 C788 C 0.89035 1.04887 1.04853
 H789 H 0.90380 1.04398 1.04363
 C790 C 0.85592 1.06213 1.06183
 C791 C 0.95134 1.10948 1.04840
 H792 H 0.95611 1.09597 1.04357
 C793 C 0.93837 1.14410 1.06154
 C794 C 1.04880 0.89081 1.04868
 H795 H 1.04405 0.90434 1.04386
 C796 C 1.06168 0.85614 1.06180
 O797 O 1.06780 0.98185 0.90690
 O798 O 1.08953 0.98181 0.88507
 C799 C 1.07435 0.97545 0.89170
 C800 C 1.06441 0.96013 0.88195
 C801 C 1.07085 0.95343 0.86467
 H802 H 1.08298 0.95978 0.85822
 O803 O 0.93241 1.01841 0.90662
 O804 O 0.91070 1.01839 0.88477
 C805 C 0.92587 1.02478 0.89141
 C806 C 0.93582 1.04006 0.88164
 C807 C 0.92941 1.04674 0.86434
 H808 H 0.91721 1.04046 0.85797
 O809 O 0.98181 1.09274 0.93232
 O810 O 0.98184 1.11458 0.91061
 C811 C 0.97544 1.10794 0.92577
 C812 C 0.96010 1.11772 0.93564
 C813 C 0.95359 1.13507 0.92923
 H814 H 0.96039 1.14174 0.91748
 O815 O 1.01830 0.90728 0.93250
 O816 O 1.01830 0.88543 0.91080
 C817 C 1.02465 0.89205 0.92600
 C818 C 1.03988 0.88222 0.93598
 C819 C 1.04623 0.86474 0.92977
 H820 H 1.03938 0.85801 0.91808
 O821 O 1.09319 0.93259 0.98165
 O822 O 1.11495 0.91080 0.98164
 C823 C 1.10835 0.92598 0.97525
 C824 C 1.11813 0.93587 0.95991
 C825 C 1.13541 0.92938 0.95324
 H826 H 1.14174 0.91719 0.95955
 O827 O 0.90677 1.06748 0.98159
 O828 O 0.88498 1.08924 0.98154
 C829 C 0.89157 1.07403 0.97520
 C830 C 0.88178 1.06408 0.95992
 C831 C 0.86431 1.07028 0.95348
 H832 H 0.85767 1.08218 0.96005
 O833 O 1.01828 1.06718 0.90675
 O834 O 1.01833 1.08892 0.88494
 C835 C 1.02468 1.07373 0.89156
 C836 C 1.04003 1.06386 0.88181
 C837 C 1.04653 1.07022 0.86444
 H838 H 1.03957 1.08182 0.85768
 O839 O 0.98193 0.93290 0.90685
 O840 O 0.98192 0.91115 0.88504
 C841 C 0.97554 0.92634 0.89165
 C842 C 0.96021 0.93622 0.88187
 C843 C 0.95369 0.92981 0.86452
 H844 H 0.96049 0.91807 0.85783
 O845 O 1.09336 1.01831 0.93243
 O846 O 1.11520 1.01833 0.91072
 C847 C 1.10855 1.02472 0.92589
 C848 C 1.11826 1.04008 0.93578
 C849 C 1.13552 1.04681 0.92934
 H850 H 1.14201 1.04043 0.91725
 O851 O 0.90687 0.98200 0.93222
 O852 O 0.88503 0.98192 0.91049
 C853 C 0.89166 0.97559 0.92569
 C854 C 0.88191 0.96032 0.93567
 C855 C 0.86447 0.95381 0.92945
 H856 H 0.85790 0.96026 0.91745
 O857 O 1.06740 1.09288 0.98166
 O858 O 1.08906 1.11477 0.98168
 C859 C 1.07390 1.10811 0.97530
 C860 C 1.06399 1.11786 0.95997
 C861 C 1.07033 1.13523 0.95346
 H862 H 1.08195 1.14198 0.96040
 O863 O 0.93262 0.90737 0.98158
 O864 O 0.91094 0.88550 0.98155
 C865 C 0.92611 0.89215 0.97519
 C866 C 0.93605 0.88237 0.95991
 C867 C 0.92978 0.86494 0.95348
 H868 H 0.91809 0.85821 0.96031
 O869 O 0.93253 0.98199 0.90673
 O870 O 0.91082 0.98190 0.88488
 C871 C 0.92601 0.97557 0.89153
 C872 C 0.93599 0.96028 0.88179
 C873 C 0.92966 0.95365 0.86444
 H874 H 0.91758 0.96003 0.85793
 O875 O 1.06779 1.01828 0.90687
 O876 O 1.08952 1.01830 0.88505
 C877 C 1.07434 1.02467 0.89167
 C878 C 1.06438 1.03995 0.88189
 C879 C 1.07081 1.04663 0.86459
 H880 H 1.08301 1.04036 0.85823
 O881 O 0.98188 0.90728 0.93238
 O882 O 0.98186 0.88543 0.91068
 C883 C 0.97549 0.89208 0.92585
 C884 C 0.96020 0.88231 0.93579
 C885 C 0.95371 0.86488 0.92953
 H886 H 0.96019 0.85834 0.91752
 O887 O 1.01829 1.09284 0.93225
 O888 O 1.01834 1.11467 0.91054
 C889 C 1.02470 1.10803 0.92572
 C890 C 1.04000 1.11779 0.93566
 C891 C 1.04667 1.13510 0.92924
 H892 H 1.04037 1.14147 0.91706
 O893 O 0.90702 0.93291 0.98154
 O894 O 0.88524 0.91114 0.98153
 C895 C 0.89183 0.92633 0.97516
 C896 C 0.88202 0.93622 0.95986
 C897 C 0.86459 0.92992 0.95345
 H898 H 0.85788 0.91823 0.96031
 O899 O 1.09314 1.06747 0.98162
 O900 O 1.11489 1.08927 0.98163
 C901 C 1.10832 1.07408 0.97524
 C902 C 1.11811 1.06424 0.95990
 C903 C 1.13538 1.07076 0.95327
 H904 H 1.14200 1.08258 0.95999
 O905 O 1.01840 0.93281 0.90688
 O906 O 1.01841 0.91106 0.88508
 C907 C 1.02481 0.92623 0.89171
 C908 C 1.04019 0.93606 0.88198
 C909 C 1.04682 0.92958 0.86469
 H910 H 1.04005 0.91782 0.85801
 O911 O 0.98185 1.06729 0.90661
 O912 O 0.98188 1.08903 0.88480
 C913 C 0.97549 1.07385 0.89139
 C914 C 0.96015 1.06399 0.88161
 C915 C 0.95366 1.07036 0.86422
 H916 H 0.96062 1.08197 0.85748
 O917 O 0.90692 1.01842 0.93225
 O918 O 0.88509 1.01840 0.91051
 C919 C 0.89171 1.02479 0.92569
 C920 C 0.88193 1.04008 0.93562
 C921 C 0.86452 1.04655 0.92932
 H922 H 0.85784 1.03985 0.91751
 O923 O 1.09333 0.98188 0.93253
 O924 O 1.11517 0.98185 0.91082
 C925 C 1.10853 0.97549 0.92601
 C926 C 1.11825 0.96014 0.93591
 C927 C 1.13560 0.95357 0.92955
 H928 H 1.14237 0.96047 0.91792
 O929 O 1.06751 0.90712 0.98178
 O930 O 1.08916 0.88522 0.98179
 C931 C 1.07398 0.89188 0.97543
 C932 C 1.06398 0.88210 0.96017
 C933 C 1.07014 0.86462 0.95376
 H934 H 1.08209 0.85803 0.96028
 O935 O 0.93245 1.09296 0.98153
 O936 O 0.91079 1.11484 0.98146
 C937 C 0.92595 1.10816 0.97510
 C938 C 0.93592 1.11786 0.95976
 C939 C 0.92960 1.13521 0.95313
 H940 H 0.91756 1.14175 0.95953
 Cu941 Cu 1.07839 1.00009 0.92186
 Cu942 Cu 1.10455 1.00006 0.89573
 Cu943 Cu 0.92185 1.00020 0.92163
 Cu944 Cu 0.89572 1.00014 0.89547
 Cu945 Cu 1.07811 1.07796 0.99987
 Cu946 Cu 1.10417 1.10419 0.99989
 Cu947 Cu 1.07821 0.92210 0.99993
 Cu948 Cu 1.10428 0.89589 0.99996
 Cu949 Cu 0.92179 1.07807 0.99978
 Cu950 Cu 0.89573 1.10428 0.99975
 Cu951 Cu 0.92198 0.92233 0.99978
 Cu952 Cu 0.89590 0.89612 0.99976
 Cu953 Cu 1.00005 1.07784 0.92166
 Cu954 Cu 1.00010 1.10399 0.89554
 Cu955 Cu 1.00013 0.92225 0.92183
 Cu956 Cu 1.00012 0.89609 0.89570
 C957 C 1.04897 0.95146 0.89040
 H958 H 1.04410 0.95636 0.90385
 C959 C 1.06216 0.93815 0.85595
 C960 C 0.95128 1.04870 0.89008
 H961 H 0.95608 1.04385 0.90358
 C962 C 0.93824 1.06188 0.85549
 C963 C 0.95128 1.10932 0.95103
 H964 H 0.95606 1.09582 0.95588
 C965 C 0.93834 1.14391 0.93785
 C966 C 1.04874 0.89070 0.95130
 H967 H 1.04408 0.90430 0.95599
 C968 C 1.06135 0.85583 0.93856
 C969 C 1.10975 0.95133 0.95123
 H970 H 1.09627 0.95619 0.95608
 C971 C 1.14428 0.93815 0.93806
 C972 C 0.89036 1.04884 0.95102
 H973 H 0.90393 1.04412 0.95576
 C974 C 0.85561 1.06162 0.93817
 C975 C 1.04891 1.04858 0.89031
 H976 H 1.04410 1.04374 0.90380
 C977 C 1.06197 1.06177 0.85573
 C978 C 0.95139 0.95157 0.89030
 H979 H 0.95617 0.95642 0.90381
 C980 C 0.93840 0.93841 0.85571
 C981 C 1.10977 1.04878 0.95118
 H982 H 1.09632 1.04385 0.95605
 C983 C 1.14418 1.06216 0.93798
 C984 C 0.89047 0.95154 0.95099
 H985 H 0.90404 0.95630 0.95570
 C986 C 0.85571 0.93861 0.93825
 C987 C 1.04868 1.10936 0.95111
 H988 H 1.04384 1.09587 0.95593
 C989 C 1.06183 1.14395 0.93805
 C990 C 0.95138 0.89085 0.95109
 H991 H 0.95613 0.90441 0.95582
 C992 C 0.93850 0.85609 0.93828
 O993 O 0.98202 0.43258 0.40692
 O994 O 0.98201 0.41075 0.38520
 C995 C 0.97564 0.42596 0.39175
 C996 C 0.96034 0.43583 0.38192
 C997 C 0.95372 0.42931 0.36463
 H998 H 0.96043 0.41747 0.35804
 O999 O 1.01887 0.56742 0.40647
 O1000 O 1.01895 0.58909 0.38459
 C1001 C 1.02530 0.57392 0.39127
 C1002 C 1.04057 0.56393 0.38153
 C1003 C 1.04716 0.57019 0.36414
 H1004 H 1.04083 0.58232 0.35770
 O1005 O 0.90733 0.48203 0.43207
 O1006 O 0.88556 0.48199 0.41029
 C1007 C 0.89213 0.47566 0.42551
 C1008 C 0.88231 0.46040 0.43545
 C1009 C 0.86492 0.45392 0.42909
 H1010 H 0.85825 0.46070 0.41733
 O1011 O 1.09327 0.51815 0.43236
 O1012 O 1.11517 0.51810 0.41071
 C1013 C 1.10849 0.52452 0.42585
 C1014 C 1.11821 0.53988 0.43576
 C1015 C 1.13551 0.54655 0.42934
 H1016 H 1.14199 0.54016 0.41726
 O1017 O 0.93259 0.40734 0.48163
 O1018 O 0.91085 0.38552 0.48159
 C1019 C 0.92607 0.39212 0.47527
 C1020 C 0.93605 0.38228 0.46005
 C1021 C 0.92971 0.36489 0.45356
 H1022 H 0.91792 0.35823 0.46030
 O1023 O 1.06770 0.59306 0.48158
 O1024 O 1.08947 0.61484 0.48161
 C1025 C 1.07429 0.60824 0.47520
 C1026 C 1.06449 0.61799 0.45980
 C1027 C 1.07094 0.63531 0.45324
 H1028 H 1.08257 0.64204 0.46019
 O1029 O 0.93302 0.51834 0.40644
 O1030 O 0.91135 0.51835 0.38455
 C1031 C 0.92653 0.52471 0.39121
 C1032 C 0.93651 0.53998 0.38144
 C1033 C 0.93014 0.54661 0.36410
 H1034 H 0.91805 0.54024 0.35761
 O1035 O 1.06780 0.48162 0.40682
 O1036 O 1.08959 0.48148 0.38506
 C1037 C 1.07438 0.47516 0.39167
 C1038 C 1.06445 0.45983 0.38194
 C1039 C 1.07086 0.45312 0.36465
 H1040 H 1.08296 0.45947 0.35817
 O1041 O 1.01845 0.40712 0.43264
 O1042 O 1.01851 0.38521 0.41100
 C1043 C 1.02488 0.39191 0.42615
 C1044 C 1.04024 0.38224 0.43609
 C1045 C 1.04704 0.36501 0.42962
 H1046 H 1.04072 0.35854 0.41749
 O1047 O 0.98242 0.59304 0.43197
 O1048 O 0.98249 0.61483 0.41022
 C1049 C 0.97607 0.60824 0.42539
 C1050 C 0.96074 0.61804 0.43525
 C1051 C 0.95429 0.63542 0.42887
 H1052 H 0.96113 0.64210 0.41715
 O1053 O 0.90737 0.56772 0.48106
 O1054 O 0.88559 0.58949 0.48091
 C1055 C 0.89219 0.57427 0.47461
 C1056 C 0.88242 0.56432 0.45933
 C1057 C 0.86498 0.57057 0.45288
 H1058 H 0.85825 0.58227 0.45970
 O1059 O 1.09320 0.43292 0.48208
 O1060 O 1.11501 0.41119 0.48222
 C1061 C 1.10843 0.42636 0.47579
 C1062 C 1.11825 0.43620 0.46047
 C1063 C 1.13568 0.42986 0.45408
 H1064 H 1.14242 0.41828 0.46109
 O1065 O 0.98243 0.56741 0.40646
 O1066 O 0.98247 0.58910 0.38460
 C1067 C 0.97607 0.57394 0.39125
 C1068 C 0.96072 0.56406 0.38148
 C1069 C 0.95417 0.57046 0.36414
 H1070 H 0.96097 0.58220 0.35745
 O1071 O 1.01847 0.43256 0.40696
 O1072 O 1.01849 0.41075 0.38521
 C1073 C 1.02487 0.42594 0.39179
 C1074 C 1.04023 0.43577 0.38202
 C1075 C 1.04682 0.42928 0.36473
 H1076 H 1.04003 0.41752 0.35806
 O1077 O 1.09330 0.48172 0.43247
 O1078 O 1.11521 0.48161 0.41083
 C1079 C 1.10852 0.47530 0.42601
 C1080 C 1.11827 0.46006 0.43606
 C1081 C 1.13562 0.45341 0.42976
 H1082 H 1.14203 0.45968 0.41758
 O1083 O 0.90733 0.51845 0.43190
 O1084 O 0.88554 0.51845 0.41013
 C1085 C 0.89215 0.52483 0.42532
 C1086 C 0.88236 0.54013 0.43523
 C1087 C 0.86492 0.54659 0.42897
 H1088 H 0.85837 0.54008 0.41699
 O1089 O 0.93299 0.59326 0.48106
 O1090 O 0.91132 0.61514 0.48090
 C1091 C 0.92651 0.60845 0.47460
 C1092 C 0.93652 0.61816 0.45932
 C1093 C 0.93027 0.63555 0.45272
 H1094 H 0.91823 0.64210 0.45913
 O1095 O 1.06758 0.40737 0.48200
 O1096 O 1.08931 0.38555 0.48212
 C1097 C 1.07416 0.39217 0.47566
 C1098 C 1.06435 0.38239 0.46028
 C1099 C 1.07092 0.36516 0.45362
 H1100 H 1.08274 0.35854 0.46036
 O1101 O 1.06781 0.51803 0.40665
 O1102 O 1.08960 0.51795 0.38488
 C1103 C 1.07440 0.52434 0.39143
 C1104 C 1.06452 0.53961 0.38158
 C1105 C 1.07079 0.54595 0.36411
 H1106 H 1.08236 0.53892 0.35736
 O1107 O 0.93292 0.48190 0.40653
 O1108 O 0.91126 0.48185 0.38463
 C1109 C 0.92639 0.47546 0.39134
 C1110 C 0.93628 0.46006 0.38168
 C1111 C 0.92986 0.45333 0.36440
 H1112 H 0.91781 0.45973 0.35787
 O1113 O 1.01887 0.59301 0.43202
 O1114 O 1.01897 0.61478 0.41025
 C1115 C 1.02531 0.60817 0.42546
 C1116 C 1.04061 0.61793 0.43541
 C1117 C 1.04737 0.63517 0.42893
 H1118 H 1.04114 0.64150 0.41669
 O1119 O 0.98200 0.40708 0.43258
 O1120 O 0.98203 0.38515 0.41096
 C1121 C 0.97563 0.39184 0.42610
 C1122 C 0.96031 0.38212 0.43603
 C1123 C 0.95376 0.36473 0.42973
 H1124 H 0.96024 0.35818 0.41774
 O1125 O 1.09318 0.56739 0.48164
 O1126 O 1.11504 0.58908 0.48165
 C1127 C 1.10839 0.57392 0.47526
 C1128 C 1.11814 0.56403 0.45991
 C1129 C 1.13544 0.57049 0.45329
 H1130 H 1.14210 0.58228 0.46002
 O1131 O 0.90705 0.43295 0.48145
 O1132 O 0.88520 0.41125 0.48140
 C1133 C 0.89186 0.42641 0.47502
 C1134 C 0.88216 0.43632 0.45966
 C1135 C 0.86477 0.43002 0.45308
 H1136 H 0.85823 0.41801 0.45954
 Cu1137 Cu 1.00023 0.42202 0.42195
 Cu1138 Cu 1.00026 0.39577 0.39591
 Cu1139 Cu 1.00065 0.57805 0.42141
 Cu1140 Cu 1.00072 0.60414 0.39522
 Cu1141 Cu 0.92233 0.50019 0.42141
 Cu1142 Cu 0.89625 0.50016 0.39520
 Cu1143 Cu 1.07836 0.49989 0.42174
 Cu1144 Cu 1.10459 0.49978 0.39569
 C1145 C 0.95163 0.45132 0.39023
 H1146 H 0.95649 0.45625 0.40368
 C1147 C 0.93848 0.43795 0.35578
 C1148 C 1.04926 0.54855 0.39005
 H1149 H 1.04448 0.54386 0.40362
 C1150 C 1.06226 0.56127 0.35528
 C1151 C 0.89072 0.45162 0.45085
 H1152 H 0.90425 0.45638 0.45567
 C1153 C 0.85606 0.43872 0.43779
 C1154 C 1.10973 0.54861 0.45116
 H1155 H 1.09627 0.54372 0.45602
 C1156 C 1.14421 0.56186 0.43800
 C1157 C 0.95147 0.39068 0.45131
 H1158 H 0.95626 0.40422 0.45607
 C1159 C 0.93845 0.35602 0.43839
 C1160 C 1.04918 0.60953 0.45093
 H1161 H 1.04426 0.59608 0.45579
 C1162 C 1.06254 0.64400 0.43776
 C1163 C 0.95191 0.54870 0.38992
 H1164 H 0.95672 0.54385 0.40343
 C1165 C 0.93887 0.56186 0.35535
 C1166 C 1.04903 0.45116 0.39042
 H1167 H 1.04418 0.45607 0.40388
 C1168 C 1.06214 0.43784 0.35594
 C1169 C 1.04889 0.39073 0.45153
 H1170 H 1.04392 0.40415 0.45641
 C1171 C 1.06239 0.35637 0.43828
 C1172 C 0.95188 0.60961 0.45059
 H1173 H 0.95661 0.59609 0.45542
 C1174 C 0.93905 0.64428 0.43750
 C1175 C 0.89090 0.54899 0.45052
 H1176 H 0.90447 0.54426 0.45526
 C1177 C 0.85613 0.56181 0.43771
 C1178 C 1.10978 0.45145 0.45151
 H1179 H 1.09625 0.45628 0.45623
 C1180 C 1.14446 0.43832 0.43868
 O1181 O 1.01800 0.43315 0.59313
 O1182 O 1.01792 0.41146 0.61499
 C1183 C 1.02432 0.42663 0.60837
 C1184 C 1.03959 0.43654 0.61821
 C1185 C 1.04593 0.43029 0.63568
 H1186 H 1.03902 0.41864 0.64241
 O1187 O 0.98172 0.56783 0.59269
 O1188 O 0.98164 0.58962 0.61445
 C1189 C 0.97528 0.57442 0.60785
 C1190 C 0.95995 0.56452 0.61759
 C1191 C 0.95331 0.57092 0.63491
 H1192 H 0.95972 0.58298 0.64141
 O1193 O 0.90700 0.51876 0.56686
 O1194 O 0.88509 0.51891 0.58851
 C1195 C 0.89181 0.52523 0.57334
 C1196 C 0.88215 0.54058 0.56339
 C1197 C 0.86485 0.54725 0.56976
 H1198 H 0.85812 0.54055 0.58154
 O1199 O 1.09297 0.48215 0.56783
 O1200 O 1.11476 0.48216 0.58960
 C1201 C 1.10816 0.47578 0.57441
 C1202 C 1.11795 0.46049 0.56448
 C1203 C 1.13535 0.45397 0.57080
 H1204 H 1.14185 0.46042 0.58284
 O1205 O 1.06745 0.40743 0.51846
 O1206 O 1.08915 0.38558 0.51861
 C1207 C 1.07395 0.39224 0.52491
 C1208 C 1.06398 0.38252 0.54022
 C1209 C 1.07037 0.36522 0.54691
 H1210 H 1.08246 0.35873 0.54055
 O1211 O 0.93291 0.59333 0.51751
 O1212 O 0.91123 0.61521 0.51739
 C1213 C 0.92637 0.60856 0.52384
 C1214 C 0.93622 0.61833 0.53919
 C1215 C 0.92982 0.63568 0.54570
 H1216 H 0.91810 0.64238 0.53886
 O1217 O 0.93223 0.48221 0.59262
 O1218 O 0.91041 0.48230 0.61435
 C1219 C 0.92558 0.47585 0.60779
 C1220 C 0.93541 0.46051 0.61762
 C1221 C 0.92883 0.45379 0.63484
 H1222 H 0.91658 0.46007 0.64111
 O1223 O 1.06738 0.51865 0.59324
 O1224 O 1.08904 0.51872 0.61514
 C1225 C 1.07388 0.52508 0.60845
 C1226 C 1.06393 0.54042 0.61813
 C1227 C 1.07020 0.54703 0.63551
 H1228 H 1.08222 0.54061 0.64208
 O1229 O 0.98160 0.40756 0.56749
 O1230 O 0.98151 0.38575 0.58923
 C1231 C 0.97517 0.39237 0.57403
 C1232 C 0.95985 0.38262 0.56409
 C1233 C 0.95317 0.36532 0.57052
 H1234 H 0.95954 0.35886 0.58263
 O1235 O 1.01828 0.59324 0.56714
 O1236 O 1.01825 0.61515 0.58880
 C1237 C 1.02466 0.60845 0.57366
 C1238 C 1.04003 0.61815 0.56377
 C1239 C 1.04660 0.63550 0.57012
 H1240 H 1.03983 0.64224 0.58184
 O1241 O 0.90685 0.43298 0.51790
 O1242 O 0.88501 0.41127 0.51789
 C1243 C 0.89162 0.42646 0.52426
 C1244 C 0.88182 0.43643 0.53951
 C1245 C 0.86449 0.43004 0.54614
 H1246 H 0.85812 0.41785 0.53984
 O1247 O 1.09314 0.56745 0.51812
 O1248 O 1.11500 0.58914 0.51815
 C1249 C 1.10833 0.57399 0.52454
 C1250 C 1.11804 0.56413 0.53993
 C1251 C 1.13540 0.57050 0.54647
 H1252 H 1.14215 0.58218 0.53962
 O1253 O 1.01816 0.56783 0.59286
 O1254 O 1.01811 0.58963 0.61462
 C1255 C 1.02450 0.57442 0.60807
 C1256 C 1.03978 0.56455 0.61793
 C1257 C 1.04623 0.57094 0.63531
 H1258 H 1.03941 0.58269 0.64197
 O1259 O 0.98156 0.43320 0.59299
 O1260 O 0.98145 0.41150 0.61483
 C1261 C 0.97511 0.42667 0.60817
 C1262 C 0.95971 0.43655 0.61783
 C1263 C 0.95306 0.43016 0.63514
 H1264 H 0.95994 0.41853 0.64192
 O1265 O 1.09297 0.51855 0.56771
 O1266 O 1.11477 0.51863 0.58948
 C1267 C 1.10818 0.52494 0.57425
 C1268 C 1.11799 0.54017 0.56425
 C1269 C 1.13534 0.54676 0.57060
 H1270 H 1.14180 0.54040 0.58272
 O1271 O 0.90680 0.48234 0.56689
 O1272 O 0.88488 0.48246 0.58852
 C1273 C 0.89154 0.47605 0.57336
 C1274 C 0.88175 0.46075 0.56345
 C1275 C 0.86435 0.45429 0.56977
 H1276 H 0.85759 0.46125 0.58137
 O1277 O 1.06761 0.59307 0.51803
 O1278 O 1.08938 0.61486 0.51807
 C1279 C 1.07417 0.60827 0.52441
 C1280 C 1.06422 0.61809 0.53967
 C1281 C 1.07060 0.63544 0.54623
 H1282 H 1.08268 0.64190 0.53982
 O1283 O 0.93250 0.40752 0.51807
 O1284 O 0.91077 0.38570 0.51807
 C1285 C 0.92593 0.39235 0.52449
 C1286 C 0.93576 0.38264 0.53989
 C1287 C 0.92930 0.36535 0.54651
 H1288 H 0.91754 0.35866 0.53973
 O1289 O 1.06734 0.48223 0.59334
 O1290 O 1.08899 0.48223 0.61524
 C1291 C 1.07382 0.47587 0.60858
 C1292 C 1.06380 0.46062 0.61834
 C1293 C 1.06997 0.45414 0.63581
 H1294 H 1.08196 0.46060 0.64240
 O1295 O 0.93246 0.51866 0.59256
 O1296 O 0.91065 0.51878 0.61430
 C1297 C 0.92588 0.52509 0.60773
 C1298 C 0.93578 0.54040 0.61751
 C1299 C 0.92936 0.54698 0.63483
 H1300 H 0.91758 0.54024 0.64150
 O1301 O 0.98184 0.59336 0.56706
 O1302 O 0.98177 0.61526 0.58871
 C1303 C 0.97546 0.60860 0.57352
 C1304 C 0.96022 0.61837 0.56349
 C1305 C 0.95360 0.63572 0.56980
 H1306 H 0.95996 0.64221 0.58190
 O1307 O 1.01805 0.40758 0.56755
 O1308 O 1.01800 0.38579 0.58931
 C1309 C 1.02442 0.39239 0.57414
 C1310 C 1.03978 0.38262 0.56431
 C1311 C 1.04637 0.36532 0.57079
 H1312 H 1.03961 0.35867 0.58257
 O1313 O 1.09303 0.43300 0.51853
 O1314 O 1.11483 0.41125 0.51868
 C1315 C 1.10820 0.42645 0.52499
 C1316 C 1.11794 0.43637 0.54031
 C1317 C 1.13533 0.43007 0.54681
 H1318 H 1.14207 0.41837 0.54000
 O1319 O 0.90723 0.56788 0.51750
 O1320 O 0.88545 0.58965 0.51739
 C1321 C 0.89203 0.57448 0.52384
 C1322 C 0.88222 0.56465 0.53917
 C1323 C 0.86491 0.57114 0.54577
 H1324 H 0.85848 0.58322 0.53933
 Cu1325 Cu 0.99981 0.42254 0.57810
 Cu1326 Cu 0.99972 0.39644 0.60428
 Cu1327 Cu 1.00000 0.57838 0.57777
 Cu1328 Cu 0.99994 0.60461 0.60383
 Cu1329 Cu 0.92192 0.42238 0.49976
 Cu1330 Cu 0.89577 0.39625 0.49973
 Cu1331 Cu 1.07814 0.42236 0.50026
 Cu1332 Cu 1.10426 0.39620 0.50042
 Cu1333 Cu 0.92229 0.57836 0.49929
 Cu1334 Cu 0.89622 0.60457 0.49913
 Cu1335 Cu 1.07823 0.57807 0.49984
 Cu1336 Cu 1.10442 0.60415 0.49988
 Cu1337 Cu 0.92182 0.50048 0.57757
 Cu1338 Cu 0.89556 0.50062 0.60360
 Cu1339 Cu 1.07799 0.50039 0.57836
 Cu1340 Cu 1.10407 0.50044 0.60456
 C1341 C 1.04850 0.45183 0.60975
 H1342 H 1.04384 0.45656 0.59615
 C1343 C 1.06112 0.43898 0.64459
 C1344 C 0.95120 0.54915 0.60910
 H1345 H 0.95605 0.54431 0.59561
 C1346 C 0.93801 0.56225 0.64363
 C1347 C 0.89063 0.54926 0.54798
 H1348 H 0.90410 0.54435 0.54315
 C1349 C 0.85614 0.56254 0.56108
 C1350 C 1.10945 0.45170 0.54912
 H1351 H 1.09592 0.45647 0.54435
 C1352 C 1.14414 0.43876 0.56206
 C1353 C 1.04857 0.39101 0.54890
 H1354 H 1.04374 0.40448 0.54400
 C1355 C 1.06167 0.35653 0.56221
 C1356 C 0.95154 0.60988 0.54807
 H1357 H 0.95638 0.59637 0.54329
 C1358 C 0.93839 0.64447 0.56102
 C1359 C 0.95094 0.45187 0.60931
 H1360 H 0.95587 0.45675 0.59587
 C1361 C 0.93756 0.43861 0.64374
 C1362 C 1.04860 0.54917 0.60955
 H1363 H 1.04386 0.54432 0.59602
 C1364 C 1.06145 0.56229 0.64421
 C1365 C 0.95115 0.39107 0.54866
 H1366 H 0.95604 0.40453 0.54380
 C1367 C 0.93789 0.35660 0.56183
 C1368 C 1.04882 0.60965 0.54843
 H1369 H 1.04400 0.59614 0.54362
 C1370 C 1.06189 0.64425 0.56146
 C1371 C 0.89025 0.45187 0.54817
 H1372 H 0.90377 0.45666 0.54336
 C1373 C 0.85562 0.43888 0.56127
 C1374 C 1.10954 0.54884 0.54880
 H1375 H 1.09603 0.54402 0.54400
 C1376 C 1.14415 0.56193 0.56181
 O1377 O 0.56741 1.01879 0.59288
 O1378 O 0.58911 1.01886 0.61474
 C1379 C 0.57392 1.02519 0.60809
 C1380 C 0.56391 1.04045 0.61784
 C1381 C 0.57002 1.04686 0.63536
 H1382 H 0.58196 1.04035 0.64197
 O1383 O 0.43261 0.98214 0.59286
 O1384 O 0.41090 0.98211 0.61470
 C1385 C 0.42608 0.97574 0.60806
 C1386 C 0.43600 0.96042 0.61782
 C1387 C 0.42954 0.95373 0.63510
 H1388 H 0.41742 0.96009 0.64154
 O1389 O 0.51819 1.09340 0.56693
 O1390 O 0.51821 1.11529 0.58859
 C1391 C 0.52459 1.10861 0.57344
 C1392 C 0.53993 1.11832 0.56350
 C1393 C 0.54653 1.13569 0.56981
 H1394 H 0.54009 1.14223 0.58183
 O1395 O 0.48203 0.90733 0.56744
 O1396 O 0.48208 0.88549 0.58916
 C1397 C 0.47571 0.89210 0.57397
 C1398 C 0.46047 0.88227 0.56399
 C1399 C 0.45405 0.86481 0.57022
 H1400 H 0.46053 0.85829 0.58223
 O1401 O 0.59312 1.06757 0.51779
 O1402 O 0.61493 1.08931 0.51775
 C1403 C 0.60833 1.07414 0.52415
 C1404 C 0.61810 1.06431 0.53952
 C1405 C 0.63549 1.07066 0.54599
 H1406 H 0.64226 1.08224 0.53900
 O1407 O 0.40724 0.93269 0.51814
 O1408 O 0.38545 0.91093 0.51820
 C1409 C 0.39207 0.92612 0.52456
 C1410 C 0.38229 0.93604 0.53987
 C1411 C 0.36501 0.92959 0.54655
 H1412 H 0.35866 0.91739 0.54025
 O1413 O 0.48174 1.06788 0.59252
 O1414 O 0.48170 1.08967 0.61428
 C1415 C 0.47535 1.07446 0.60770
 C1416 C 0.46006 1.06456 0.61751
 C1417 C 0.45355 1.07096 0.63487
 H1418 H 0.46033 1.08272 0.64153
 O1419 O 0.51837 0.93303 0.59303
 O1420 O 0.51843 0.91134 0.61489
 C1421 C 0.52476 0.92653 0.60825
 C1422 C 0.54001 0.93653 0.61803
 C1423 C 0.54650 0.93033 0.63548
 H1424 H 0.54004 0.91832 0.64203
 O1425 O 0.59298 0.98237 0.56733
 O1426 O 0.61482 0.98239 0.58904
 C1427 C 0.60819 0.97601 0.57386
 C1428 C 0.61796 0.96072 0.56391
 C1429 C 0.63530 0.95411 0.57030
 H1430 H 0.64177 0.96050 0.58239
 O1431 O 0.40696 1.01852 0.56726
 O1432 O 0.38516 1.01851 0.58901
 C1433 C 0.39174 1.02487 0.57381
 C1434 C 0.38191 1.04013 0.56389
 C1435 C 0.36454 1.04663 0.57027
 H1436 H 0.35788 1.03984 0.58204
 O1437 O 0.43219 1.09318 0.51788
 O1438 O 0.41045 1.11499 0.51788
 C1439 C 0.42564 1.10838 0.52426
 C1440 C 0.43559 1.11817 0.53955
 C1441 C 0.42912 1.13543 0.54627
 H1442 H 0.41689 1.14176 0.54001
 O1443 O 0.56751 0.90758 0.51800
 O1444 O 0.58929 0.88580 0.51804
 C1445 C 0.57410 0.89241 0.52441
 C1446 C 0.56425 0.88265 0.53977
 C1447 C 0.57067 0.86532 0.54632
 H1448 H 0.58241 0.85863 0.53952
 O1449 O 0.43261 1.01859 0.59277
 O1450 O 0.41091 1.01860 0.61462
 C1451 C 0.42607 1.02500 0.60796
 C1452 C 0.43597 1.04036 0.61767
 C1453 C 0.42963 1.04699 0.63502
 H1454 H 0.41760 1.04056 0.64155
 O1455 O 0.56746 0.98237 0.59294
 O1456 O 0.58918 0.98240 0.61478
 C1457 C 0.57400 0.97601 0.60816
 C1458 C 0.56410 0.96072 0.61796
 C1459 C 0.57036 0.95434 0.63541
 H1460 H 0.58204 0.96122 0.64215
 O1461 O 0.51845 0.90752 0.56739
 O1462 O 0.51855 0.88571 0.58913
 C1463 C 0.52488 0.89234 0.57394
 C1464 C 0.54019 0.88260 0.56399
 C1465 C 0.54682 0.86527 0.57035
 H1466 H 0.54044 0.85879 0.58244
 O1467 O 0.48173 1.09337 0.56685
 O1468 O 0.48172 1.11526 0.58851
 C1469 C 0.47534 1.10858 0.57335
 C1470 C 0.45996 1.11829 0.56347
 C1471 C 0.45340 1.13562 0.56986
 H1472 H 0.46033 1.14239 0.58149
 O1473 O 0.40665 1.06761 0.51796
 O1474 O 0.38479 1.08929 0.51796
 C1475 C 0.39145 1.07414 0.52435
 C1476 C 0.38174 1.06422 0.53970
 C1477 C 0.36438 1.07054 0.54631
 H1478 H 0.35784 1.08257 0.53987
 O1479 O 0.59301 0.93323 0.51795
 O1480 O 0.61488 0.91154 0.51801
 C1481 C 0.60822 0.92672 0.52436
 C1482 C 0.61796 0.93662 0.53971
 C1483 C 0.63529 0.93023 0.54629
 H1484 H 0.64200 0.91849 0.53952
 O1485 O 0.48194 0.93301 0.59290
 O1486 O 0.48194 0.91129 0.61473
 C1487 C 0.47554 0.92645 0.60808
 C1488 C 0.46017 0.93631 0.61781
 C1489 C 0.45352 0.92984 0.63509
 H1490 H 0.46027 0.91807 0.64177
 O1491 O 0.51817 1.06792 0.59260
 O1492 O 0.51815 1.08971 0.61437
 C1493 C 0.52452 1.07450 0.60781
 C1494 C 0.53977 1.06459 0.61768
 C1495 C 0.54606 1.07079 0.63520
 H1496 H 0.53915 1.08244 0.64193
 O1497 O 0.40712 0.98210 0.56719
 O1498 O 0.38530 0.98206 0.58893
 C1499 C 0.39193 0.97570 0.57374
 C1500 C 0.38220 0.96034 0.56385
 C1501 C 0.36484 0.95381 0.57020
 H1502 H 0.35807 0.96074 0.58182
 O1503 O 0.59303 1.01879 0.56737
 O1504 O 0.61485 1.01887 0.58910
 C1505 C 0.60823 1.02520 0.57391
 C1506 C 0.61801 1.04045 0.56392
 C1507 C 0.63533 1.04711 0.57031
 H1508 H 0.64169 1.04084 0.58252
 O1509 O 0.43290 0.90721 0.51812
 O1510 O 0.41122 0.88534 0.51818
 C1511 C 0.42640 0.89200 0.52452
 C1512 C 0.43636 0.88225 0.53982
 C1513 C 0.43015 0.86479 0.54623
 H1514 H 0.41849 0.85802 0.53937
 O1515 O 0.56749 1.09310 0.51779
 O1516 O 0.58921 1.11494 0.51775
 C1517 C 0.57403 1.10832 0.52414
 C1518 C 0.56411 1.11814 0.53941
 C1519 C 0.57048 1.13552 0.54588
 H1520 H 0.58224 1.14219 0.53908
 Cu1521 Cu 0.57804 1.00058 0.57795
 Cu1522 Cu 0.60418 1.00063 0.60411
 Cu1523 Cu 0.42201 1.00035 0.57785
 Cu1524 Cu 0.39589 1.00031 0.60401
 Cu1525 Cu 0.49997 1.07846 0.57755
 Cu1526 Cu 0.49994 1.10468 0.60361
 Cu1527 Cu 0.50020 0.92240 0.57801
 Cu1528 Cu 0.50026 0.89627 0.60417
 C1529 C 0.54868 1.04930 0.60921
 H1530 H 0.54406 1.04461 0.59559
 C1531 C 0.56117 1.06202 0.64415
 C1532 C 0.45142 0.95172 0.60938
 H1533 H 0.45630 0.95661 0.59593
 C1534 C 0.43819 0.93843 0.64383
 C1535 C 0.54871 1.10975 0.54819
 H1536 H 0.54389 1.09623 0.54343
 C1537 C 0.56181 1.14439 0.56109
 C1538 C 0.45164 0.89078 0.54867
 H1539 H 0.45634 0.90436 0.54396
 C1540 C 0.43888 0.85597 0.56143
 C1541 C 0.60959 1.04906 0.54844
 H1542 H 0.59608 1.04422 0.54365
 C1543 C 0.64421 1.06220 0.56143
 C1544 C 0.39070 0.95150 0.54854
 H1545 H 0.40419 0.95634 0.54370
 C1546 C 0.35614 0.93839 0.56170
 C1547 C 0.45130 1.04914 0.60913
 H1548 H 0.45609 1.04429 0.59562
 C1549 C 0.43832 1.06229 0.64372
 C1550 C 0.54880 0.95185 0.60948
 H1551 H 0.54405 0.95654 0.59590
 C1552 C 0.56168 0.93914 0.64428
 C1553 C 0.60950 0.95198 0.54850
 H1554 H 0.59600 0.95682 0.54367
 C1555 C 0.64406 0.93886 0.56160
 C1556 C 0.39030 1.04891 0.54848
 H1557 H 0.40381 1.04414 0.54365
 C1558 C 0.35568 1.06184 0.56160
 C1559 C 0.45110 1.10979 0.54817
 H1560 H 0.45596 1.09632 0.54331
 C1561 C 0.43793 1.14429 0.56143
 C1562 C 0.54889 0.89109 0.54858
 H1563 H 0.54403 0.90458 0.54377
 C1564 C 0.56207 0.85653 0.56162
 O1565 O 0.56732 0.98204 0.40647
 O1566 O 0.58901 0.98202 0.38461
 C1567 C 0.57384 0.97565 0.39126
 C1568 C 0.56394 0.96030 0.38153
 C1569 C 0.57026 0.95378 0.36415
 H1570 H 0.58186 0.96072 0.35737
 O1571 O 0.43241 1.01839 0.40677
 O1572 O 0.41067 1.01834 0.38495
 C1573 C 0.42583 1.02477 0.39158
 C1574 C 0.43571 1.04011 0.38182
 C1575 C 0.42924 1.04679 0.36454
 H1576 H 0.41706 1.04047 0.35818
 O1577 O 0.48160 1.09306 0.43233
 O1578 O 0.48155 1.11488 0.41060
 C1579 C 0.47517 1.10824 0.42577
 C1580 C 0.45978 1.11795 0.43562
 C1581 C 0.45320 1.13526 0.42917
 H1582 H 0.45999 1.14195 0.41743
 O1583 O 0.51828 0.90718 0.43232
 O1584 O 0.51831 0.88531 0.41063
 C1585 C 0.52469 0.89198 0.42580
 C1586 C 0.54005 0.88229 0.43572
 C1587 C 0.54679 0.86503 0.42929
 H1588 H 0.54043 0.85852 0.41721
 O1589 O 0.59303 0.93312 0.48147
 O1590 O 0.61490 0.91144 0.48152
 C1591 C 0.60823 0.92658 0.47510
 C1592 C 0.61796 0.93642 0.45971
 C1593 C 0.63530 0.93002 0.45316
 H1594 H 0.64202 0.91831 0.45998
 O1595 O 0.40657 1.06752 0.48154
 O1596 O 0.38469 1.08919 0.48148
 C1597 C 0.39133 1.07400 0.47516
 C1598 C 0.38156 1.06396 0.45992
 C1599 C 0.36405 1.07006 0.45349
 H1600 H 0.35736 1.08194 0.46003
 O1601 O 0.51811 1.06760 0.40670
 O1602 O 0.51805 1.08933 0.38488
 C1603 C 0.52445 1.07416 0.39149
 C1604 C 0.53975 1.06429 0.38167
 C1605 C 0.54623 1.07068 0.36429
 H1606 H 0.53941 1.08242 0.35763
 O1607 O 0.48188 0.93274 0.40672
 O1608 O 0.48183 0.91101 0.38490
 C1609 C 0.47549 0.92621 0.39152
 C1610 C 0.46021 0.93617 0.38174
 C1611 C 0.45368 0.92987 0.36434
 H1612 H 0.46014 0.91785 0.35781
 O1613 O 0.59296 1.01847 0.43197
 O1614 O 0.61476 1.01850 0.41022
 C1615 C 0.60816 1.02486 0.42541
 C1616 C 0.61793 1.04016 0.43533
 C1617 C 0.63522 1.04683 0.42889
 H1618 H 0.64167 1.04047 0.41677
 O1619 O 0.40701 0.98186 0.43237
 O1620 O 0.38518 0.98173 0.41064
 C1621 C 0.39183 0.97541 0.42583
 C1622 C 0.38213 0.96007 0.43577
 C1623 C 0.36483 0.95338 0.42938
 H1624 H 0.35832 0.95976 0.41731
 O1625 O 0.56744 1.09306 0.48136
 O1626 O 0.58916 1.11490 0.48130
 C1627 C 0.57397 1.10826 0.47496
 C1628 C 0.56404 1.11803 0.45965
 C1629 C 0.57049 1.13531 0.45303
 H1630 H 0.58230 1.14197 0.45975
 O1631 O 0.43284 0.90713 0.48168
 O1632 O 0.41115 0.88527 0.48173
 C1633 C 0.42631 0.89191 0.47533
 C1634 C 0.43619 0.88213 0.46001
 C1635 C 0.42990 0.86470 0.45359
 H1636 H 0.41833 0.85793 0.46059
 O1637 O 0.43259 0.98195 0.40680
 O1638 O 0.41087 0.98186 0.38496
 C1639 C 0.42607 0.97555 0.39159
 C1640 C 0.43604 0.96028 0.38180
 C1641 C 0.42972 0.95379 0.36440
 H1642 H 0.41798 0.96057 0.35769
 O1643 O 0.56735 1.01846 0.40644
 O1644 O 0.58903 1.01850 0.38457
 C1645 C 0.57386 1.02486 0.39123
 C1646 C 0.56391 1.04017 0.38151
 C1647 C 0.57021 1.04678 0.36414
 H1648 H 0.58225 1.04038 0.35761
 O1649 O 0.48183 0.90712 0.43223
 O1650 O 0.48179 0.88527 0.41054
 C1651 C 0.47542 0.89192 0.42571
 C1652 C 0.46013 0.88217 0.43567
 C1653 C 0.45351 0.86482 0.42933
 H1654 H 0.45983 0.85842 0.41717
 O1655 O 0.51808 1.09319 0.43226
 O1656 O 0.51805 1.11502 0.41054
 C1657 C 0.52446 1.10839 0.42571
 C1658 C 0.53982 1.11813 0.43558
 C1659 C 0.54650 1.13542 0.42914
 H1660 H 0.54008 1.14190 0.41707
 O1661 O 0.40723 0.93268 0.48166
 O1662 O 0.38545 0.91092 0.48170
 C1663 C 0.39204 0.92609 0.47529
 C1664 C 0.38226 0.93593 0.45993
 C1665 C 0.36496 0.92945 0.45333
 H1666 H 0.35832 0.91765 0.46006
 O1667 O 0.59304 1.06752 0.48133
 O1668 O 0.61484 1.08927 0.48128
 C1669 C 0.60821 1.07409 0.47491
 C1670 C 0.61794 1.06423 0.45954
 C1671 C 0.63523 1.07069 0.45292
 H1672 H 0.64193 1.08244 0.45969
 O1673 O 0.51831 0.93262 0.40665
 O1674 O 0.51831 0.91088 0.38484
 C1675 C 0.52470 0.92606 0.39145
 C1676 C 0.53999 0.93598 0.38166
 C1677 C 0.54663 0.92954 0.36435
 H1678 H 0.54033 0.91734 0.35801
 O1679 O 0.48168 1.06751 0.40673
 O1680 O 0.48161 1.08924 0.38490
 C1681 C 0.47528 1.07404 0.39152
 C1682 C 0.45996 1.06412 0.38177
 C1683 C 0.45343 1.07047 0.36440
 H1684 H 0.46035 1.08210 0.35764
 O1685 O 0.40686 1.01830 0.43235
 O1686 O 0.38502 1.01820 0.41063
 C1687 C 0.39163 1.02462 0.42580
 C1688 C 0.38178 1.03987 0.43571
 C1689 C 0.36433 1.04624 0.42941
 H1690 H 0.35766 1.03947 0.41764
 O1691 O 0.59296 0.98207 0.43200
 O1692 O 0.61476 0.98203 0.41025
 C1693 C 0.60816 0.97568 0.42546
 C1694 C 0.61795 0.96043 0.43543
 C1695 C 0.63528 0.95381 0.42907
 H1696 H 0.64175 0.96017 0.41696
 O1697 O 0.56749 0.90749 0.48154
 O1698 O 0.58928 0.88573 0.48157
 C1699 C 0.57408 0.89230 0.47518
 C1700 C 0.56422 0.88248 0.45985
 C1701 C 0.57074 0.86521 0.45324
 H1702 H 0.58256 0.85860 0.45999
 O1703 O 0.43216 1.09308 0.48143
 O1704 O 0.41043 1.11489 0.48136
 C1705 C 0.42561 1.10825 0.47500
 C1706 C 0.43555 1.11799 0.45968
 C1707 C 0.42915 1.13529 0.45300
 H1708 H 0.41706 1.14177 0.45937
 Cu1709 Cu 0.57797 1.00026 0.42140
 Cu1710 Cu 0.60407 1.00025 0.39522
 Cu1711 Cu 0.42189 1.00014 0.42175
 Cu1712 Cu 0.39575 1.00002 0.39560
 Cu1713 Cu 0.57810 1.07813 0.49958
 Cu1714 Cu 0.60422 1.10429 0.49952
 Cu1715 Cu 0.57808 0.92253 0.49973
 Cu1716 Cu 0.60428 0.89645 0.49979
 Cu1717 Cu 0.42157 1.07818 0.49970
 Cu1718 Cu 0.39540 1.10428 0.49966
 Cu1719 Cu 0.42222 0.92211 0.49990
 Cu1720 Cu 0.39613 0.89593 0.49996
 Cu1721 Cu 0.49988 1.07817 0.42169
 Cu1722 Cu 0.49980 1.10431 0.39555
 Cu1723 Cu 0.50008 0.92209 0.42166
 Cu1724 Cu 0.50005 0.89592 0.39554
 C1725 C 0.54866 0.95145 0.39006
 H1726 H 0.54384 0.95628 0.40356
 C1727 C 0.56176 0.93836 0.35546
 C1728 C 0.45115 1.04880 0.39025
 H1729 H 0.45599 1.04396 0.40374
 C1730 C 0.43802 1.06196 0.35568
 C1731 C 0.45098 1.10952 0.45099
 H1732 H 0.45582 1.09605 0.45587
 C1733 C 0.43788 1.14402 0.43774
 C1734 C 0.54876 0.89081 0.45111
 H1735 H 0.54383 0.90426 0.45596
 C1736 C 0.56215 0.85638 0.43795
 C1737 C 0.60949 0.95174 0.45087
 H1738 H 0.59600 0.95659 0.45568
 C1739 C 0.64406 0.93859 0.43783
 C1740 C 0.39020 1.04873 0.45106
 H1741 H 0.40380 1.04409 0.45580
 C1742 C 0.35536 1.06129 0.43823
 C1743 C 0.54856 1.04891 0.39006
 H1744 H 0.54380 1.04407 0.40358
 C1745 C 0.56146 1.06205 0.35544
 C1746 C 0.45140 0.95149 0.39027
 H1747 H 0.45617 0.95625 0.40381
 C1748 C 0.43844 0.93858 0.35557
 C1749 C 0.60950 1.04885 0.45077
 H1750 H 0.59604 1.04397 0.45564
 C1751 C 0.64397 1.06211 0.43758
 C1752 C 0.39064 0.95136 0.45117
 H1753 H 0.40411 0.95626 0.45601
 C1754 C 0.35615 0.93807 0.43805
 C1755 C 0.54858 1.10964 0.45096
 H1756 H 0.54370 1.09618 0.45582
 C1757 C 0.56185 1.14410 0.43775
 C1758 C 0.45145 0.89064 0.45109
 H1759 H 0.45626 0.90417 0.45585
 C1760 C 0.43841 0.85594 0.43821
 O1761 O 0.48171 0.43276 0.90669
 O1762 O 0.48163 0.41100 0.88490
 C1763 C 0.47530 0.42620 0.89150
 C1764 C 0.45995 0.43608 0.88176
 C1765 C 0.45337 0.42969 0.86443
 H1766 H 0.46027 0.41805 0.85768
 O1767 O 0.51829 0.56726 0.90651
 O1768 O 0.51832 0.58893 0.88462
 C1769 C 0.52468 0.57377 0.89129
 C1770 C 0.53999 0.56383 0.88155
 C1771 C 0.54662 0.57018 0.86421
 H1772 H 0.54020 0.58223 0.85770
 O1773 O 0.40685 0.48179 0.93248
 O1774 O 0.38500 0.48178 0.91077
 C1775 C 0.39165 0.47540 0.92594
 C1776 C 0.38193 0.46003 0.93580
 C1777 C 0.36466 0.45336 0.92932
 H1778 H 0.35797 0.46010 0.91754
 O1779 O 0.59307 0.51815 0.93230
 O1780 O 0.61494 0.51813 0.91062
 C1781 C 0.60828 0.52453 0.92578
 C1782 C 0.61801 0.53987 0.93570
 C1783 C 0.63533 0.54653 0.92930
 H1784 H 0.64182 0.54013 0.91723
 O1785 O 0.43261 0.40719 0.98176
 O1786 O 0.41096 0.38529 0.98181
 C1787 C 0.42612 0.39194 0.97543
 C1788 C 0.43606 0.38215 0.96014
 C1789 C 0.42989 0.36463 0.95385
 H1790 H 0.41839 0.35782 0.96091
 O1791 O 0.56740 0.59290 0.98151
 O1792 O 0.58910 0.61476 0.98151
 C1793 C 0.57395 0.60810 0.97511
 C1794 C 0.56409 0.61782 0.95973
 C1795 C 0.57049 0.63515 0.95314
 H1796 H 0.58222 0.64187 0.95994
 O1797 O 0.43245 0.51819 0.90688
 O1798 O 0.41069 0.51823 0.88508
 C1799 C 0.42589 0.52457 0.89168
 C1800 C 0.43582 0.53985 0.88187
 C1801 C 0.42943 0.54638 0.86451
 H1802 H 0.41764 0.53963 0.85785
 O1803 O 0.56751 0.48167 0.90678
 O1804 O 0.58928 0.48159 0.88499
 C1805 C 0.57408 0.47524 0.89160
 C1806 C 0.56418 0.45991 0.88185
 C1807 C 0.57063 0.45325 0.86457
 H1808 H 0.58245 0.45994 0.85791
 O1809 O 0.51807 0.40711 0.93231
 O1810 O 0.51805 0.38526 0.91061
 C1811 C 0.52443 0.39190 0.92578
 C1812 C 0.53974 0.38214 0.93572
 C1813 C 0.54643 0.36486 0.92926
 H1814 H 0.54007 0.35841 0.91714
 O1815 O 0.48194 0.59295 0.93208
 O1816 O 0.48196 0.61474 0.91032
 C1817 C 0.47561 0.60818 0.92553
 C1818 C 0.46041 0.61806 0.93550
 C1819 C 0.45413 0.63556 0.92929
 H1820 H 0.46100 0.64227 0.91760
 O1821 O 0.40716 0.56778 0.98134
 O1822 O 0.38542 0.58960 0.98126
 C1823 C 0.39199 0.57437 0.97493
 C1824 C 0.38215 0.56440 0.95969
 C1825 C 0.36475 0.57071 0.95318
 H1826 H 0.35838 0.58287 0.95952
 O1827 O 0.59281 0.43266 0.98166
 O1828 O 0.61455 0.41086 0.98172
 C1829 C 0.60800 0.42605 0.97531
 C1830 C 0.61783 0.43589 0.96000
 C1831 C 0.63517 0.42944 0.95349
 H1832 H 0.64181 0.41767 0.96028
 O1833 O 0.48184 0.56728 0.90661
 O1834 O 0.48182 0.58895 0.88473
 C1835 C 0.47543 0.57380 0.89141
 C1836 C 0.46006 0.56390 0.88171
 C1837 C 0.45345 0.57023 0.86435
 H1838 H 0.45990 0.58225 0.85781
 O1839 O 0.51816 0.43261 0.90668
 O1840 O 0.51812 0.41087 0.88487
 C1841 C 0.52455 0.42603 0.89150
 C1842 C 0.53993 0.43587 0.88176
 C1843 C 0.54659 0.42941 0.86448
 H1844 H 0.54016 0.41735 0.85800
 O1845 O 0.59308 0.48172 0.93236
 O1846 O 0.61495 0.48165 0.91068
 C1847 C 0.60829 0.47531 0.92586
 C1848 C 0.61801 0.46001 0.93583
 C1849 C 0.63534 0.45335 0.92951
 H1850 H 0.64188 0.45973 0.91745
 O1851 O 0.40687 0.51824 0.93246
 O1852 O 0.38500 0.51826 0.91077
 C1853 C 0.39166 0.52463 0.92594
 C1854 C 0.38195 0.53999 0.93583
 C1855 C 0.36447 0.54638 0.92963
 H1856 H 0.35762 0.53934 0.91813
 O1857 O 0.43278 0.59331 0.98136
 O1858 O 0.41116 0.61525 0.98131
 C1859 C 0.42632 0.60855 0.97497
 C1860 C 0.43633 0.61827 0.95969
 C1861 C 0.43023 0.63578 0.95327
 H1862 H 0.41831 0.64241 0.95980
 O1863 O 0.56718 0.40713 0.98164
 O1864 O 0.58884 0.38524 0.98171
 C1865 C 0.57370 0.39191 0.97528
 C1866 C 0.56384 0.38217 0.95991
 C1867 C 0.57033 0.36490 0.95326
 H1868 H 0.58212 0.35823 0.95999
 O1869 O 0.56752 0.51809 0.90670
 O1870 O 0.58928 0.51807 0.88490
 C1871 C 0.57408 0.52444 0.89149
 C1872 C 0.56418 0.53973 0.88168
 C1873 C 0.57059 0.54627 0.86434
 H1874 H 0.58237 0.53952 0.85768
 O1875 O 0.43233 0.48175 0.90684
 O1876 O 0.41058 0.48176 0.88502
 C1877 C 0.42576 0.47537 0.89164
 C1878 C 0.43565 0.46005 0.88186
 C1879 C 0.42916 0.45334 0.86460
 H1880 H 0.41694 0.45962 0.85827
 O1881 O 0.51835 0.59283 0.93209
 O1882 O 0.51841 0.61461 0.91032
 C1883 C 0.52476 0.60800 0.92553
 C1884 C 0.54004 0.61778 0.93547
 C1885 C 0.54666 0.63511 0.92908
 H1886 H 0.54028 0.64156 0.91698
 O1887 O 0.48163 0.40719 0.93227
 O1888 O 0.48157 0.38531 0.91059
 C1889 C 0.47522 0.39198 0.92577
 C1890 C 0.45997 0.38221 0.93578
 C1891 C 0.45348 0.36477 0.92956
 H1892 H 0.45984 0.35833 0.91745
 O1893 O 0.59296 0.56732 0.98156
 O1894 O 0.61475 0.58908 0.98154
 C1895 C 0.60815 0.57389 0.97517
 C1896 C 0.61792 0.56401 0.95984
 C1897 C 0.63524 0.57045 0.95327
 H1898 H 0.64190 0.58222 0.96003
 O1899 O 0.40689 0.43262 0.98166
 O1900 O 0.38513 0.41083 0.98167
 C1901 C 0.39172 0.42601 0.97527
 C1902 C 0.38194 0.43587 0.95991
 C1903 C 0.36468 0.42937 0.95321
 H1904 H 0.35825 0.41725 0.95957
 Cu1905 Cu 0.49989 0.42210 0.92166
 Cu1906 Cu 0.49983 0.39592 0.89555
 Cu1907 Cu 0.50010 0.57790 0.92150
 Cu1908 Cu 0.50013 0.60399 0.89530
 Cu1909 Cu 0.42180 0.49999 0.92184
 Cu1910 Cu 0.39562 0.50002 0.89573
 Cu1911 Cu 0.57812 0.49991 0.92171
 Cu1912 Cu 0.60430 0.49986 0.89561
 C1913 C 0.45114 0.45141 0.89025
 H1914 H 0.45601 0.45628 0.90372
 C1915 C 0.43792 0.43816 0.85575
 C1916 C 0.54876 0.54848 0.89007
 H1917 H 0.54391 0.54368 0.90357
 C1918 C 0.56192 0.56151 0.85550
 C1919 C 0.39035 0.45131 0.95122
 H1920 H 0.40380 0.45622 0.95612
 C1921 C 0.35594 0.43801 0.93790
 C1922 C 0.60952 0.54860 0.95108
 H1923 H 0.59604 0.54373 0.95591
 C1924 C 0.64404 0.56183 0.93799
 C1925 C 0.45124 0.39071 0.95116
 H1926 H 0.45595 0.40431 0.95582
 C1927 C 0.43846 0.35583 0.93852
 C1928 C 0.54875 0.60934 0.95091
 H1929 H 0.54390 0.59586 0.95574
 C1930 C 0.56189 0.64389 0.93782
 C1931 C 0.45126 0.54859 0.89026
 H1932 H 0.45610 0.54380 0.90377
 C1933 C 0.43813 0.56157 0.85566
 C1934 C 0.54871 0.45124 0.89024
 H1935 H 0.54382 0.45613 0.90369
 C1936 C 0.56195 0.43799 0.85579
 C1937 C 0.54843 0.39058 0.95116
 H1938 H 0.54353 0.40403 0.95604
 C1939 C 0.56174 0.35615 0.93792
 C1940 C 0.45154 0.60962 0.95082
 H1941 H 0.45615 0.59600 0.95552
 C1942 C 0.43904 0.64453 0.93808
 C1943 C 0.39056 0.54895 0.95100
 H1944 H 0.40413 0.54422 0.95573
 C1945 C 0.35576 0.56177 0.93817
 C1946 C 0.60946 0.45129 0.95120
 H1947 H 0.59597 0.45617 0.95598
 C1948 C 0.64402 0.43806 0.93823
 O1949 O 0.51805 0.43322 1.09324
 O1950 O 0.51801 0.41154 1.11511
 C1951 C 0.52441 0.42670 1.10846
 C1952 C 0.53977 0.43656 1.11820
 C1953 C 0.54625 0.43023 1.13560
 H1954 H 0.53924 0.41868 1.14240
 O1955 O 0.48179 0.56732 1.09302
 O1956 O 0.48181 0.58907 1.11483
 C1957 C 0.47542 0.57389 1.10822
 C1958 C 0.46006 0.56405 1.11796
 C1959 C 0.45359 0.57037 1.13536
 H1960 H 0.46061 0.58192 1.14216
 O1961 O 0.40678 0.51870 1.06706
 O1962 O 0.38488 0.51878 1.08870
 C1963 C 0.39159 0.52514 1.07355
 C1964 C 0.38193 0.54051 1.06363
 C1965 C 0.36463 0.54720 1.07001
 H1966 H 0.35790 0.54050 1.08179
 O1967 O 0.59314 0.48188 1.06738
 O1968 O 0.61504 0.48185 1.08904
 C1969 C 0.60835 0.47548 1.07389
 C1970 C 0.61804 0.46014 1.06394
 C1971 C 0.63539 0.45350 1.07024
 H1972 H 0.64195 0.45991 1.08228
 O1973 O 0.56705 0.40729 1.01812
 O1974 O 0.58869 0.38539 1.01819
 C1975 C 0.57354 0.39209 1.02455
 C1976 C 0.56365 0.38242 1.03994
 C1977 C 0.56998 0.36506 1.04648
 H1978 H 0.58155 0.35825 1.03952
 O1979 O 0.43284 0.59322 1.01781
 O1980 O 0.41122 0.61514 1.01779
 C1981 C 0.42636 0.60844 1.02419
 C1982 C 0.43625 0.61812 1.03958
 C1983 C 0.42996 0.63551 1.04609
 H1984 H 0.41840 0.64233 1.03912
 O1985 O 0.43212 0.48218 1.09274
 O1986 O 0.41032 0.48220 1.11449
 C1987 C 0.42551 0.47580 1.10792
 C1988 C 0.43541 0.46051 1.11776
 C1989 C 0.42893 0.45388 1.13505
 H1990 H 0.41671 0.46018 1.14135
 O1991 O 0.56771 0.51839 1.09294
 O1992 O 0.58946 0.51842 1.11474
 C1993 C 0.57427 0.52479 1.10812
 C1994 C 0.56431 0.54007 1.11790
 C1995 C 0.57062 0.54663 1.13529
 H1996 H 0.58276 0.54029 1.14170
 O1997 O 0.48166 0.40755 1.06765
 O1998 O 0.48163 0.38576 1.08941
 C1999 C 0.47529 0.39235 1.07420
 C2000 C 0.46004 0.38252 1.06423
 C2001 C 0.45352 0.36513 1.07057
 H2002 H 0.45995 0.35867 1.08264
 O2003 O 0.51820 0.59285 1.06737
 O2004 O 0.51825 0.61471 1.08906
 C2005 C 0.52459 0.60806 1.07387
 C2006 C 0.53985 0.61784 1.06389
 C2007 C 0.54639 0.63523 1.07020
 H2008 H 0.53997 0.64173 1.08226
 O2009 O 0.40688 0.43276 1.01810
 O2010 O 0.38511 0.41098 1.01816
 C2011 C 0.39169 0.42620 1.02449
 C2012 C 0.38186 0.43618 1.03973
 C2013 C 0.36454 0.42976 1.04636
 H2014 H 0.35821 0.41755 1.04008
 O2015 O 0.59301 0.56740 1.01800
 O2016 O 0.61480 0.58916 1.01800
 C2017 C 0.60821 0.57397 1.02438
 C2018 C 0.61802 0.56410 1.03970
 C2019 C 0.63538 0.57052 1.04621
 H2020 H 0.64204 0.58227 1.03941
 O2021 O 0.51824 0.56731 1.09300
 O2022 O 0.51828 0.58906 1.11480
 C2023 C 0.52463 0.57387 1.10819
 C2024 C 0.53997 0.56399 1.11796
 C2025 C 0.54635 0.57023 1.13543
 H2026 H 0.53933 0.58177 1.14223
 O2027 O 0.48160 0.43324 1.09312
 O2028 O 0.48153 0.41155 1.11499
 C2029 C 0.47516 0.42671 1.10831
 C2030 C 0.45976 0.43659 1.11798
 C2031 C 0.45320 0.43028 1.13535
 H2032 H 0.46013 0.41869 1.14216
 O2033 O 0.59322 0.51830 1.06733
 O2034 O 0.61510 0.51835 1.08901
 C2035 C 0.60844 0.52470 1.07383
 C2036 C 0.61816 0.53999 1.06386
 C2037 C 0.63551 0.54662 1.07019
 H2038 H 0.64203 0.54023 1.08225
 O2039 O 0.40667 0.48226 1.06704
 O2040 O 0.38476 0.48230 1.08867
 C2041 C 0.39143 0.47591 1.07352
 C2042 C 0.38171 0.46057 1.06362
 C2043 C 0.36432 0.45407 1.06993
 H2044 H 0.35752 0.46104 1.08150
 O2045 O 0.56733 0.59287 1.01798
 O2046 O 0.58902 0.61473 1.01799
 C2047 C 0.57385 0.60808 1.02437
 C2048 C 0.56394 0.61783 1.03969
 C2049 C 0.57027 0.63521 1.04620
 H2050 H 0.58199 0.64193 1.03940
 O2051 O 0.43257 0.40731 1.01821
 O2052 O 0.41090 0.38543 1.01828
 C2053 C 0.42606 0.39212 1.02465
 C2054 C 0.43597 0.38244 1.04001
 C2055 C 0.42968 0.36505 1.04653
 H2056 H 0.41801 0.35828 1.03969
 O2057 O 0.56767 0.48198 1.09303
 O2058 O 0.58943 0.48194 1.11482
 C2059 C 0.57422 0.47560 1.10823
 C2060 C 0.56422 0.46038 1.11806
 C2061 C 0.57062 0.45373 1.13538
 H2062 H 0.58285 0.45998 1.14173
 O2063 O 0.43220 0.51860 1.09279
 O2064 O 0.41040 0.51868 1.11455
 C2065 C 0.42563 0.52500 1.10798
 C2066 C 0.43561 0.54023 1.11781
 C2067 C 0.42921 0.54689 1.13513
 H2068 H 0.41697 0.54064 1.14145
 O2069 O 0.48176 0.59287 1.06743
 O2070 O 0.48178 0.61472 1.08913
 C2071 C 0.47539 0.60809 1.07396
 C2072 C 0.46013 0.61791 1.06399
 C2073 C 0.45352 0.63522 1.07041
 H2074 H 0.45981 0.64154 1.08264
 O2075 O 0.51810 0.40762 1.06769
 O2076 O 0.51811 0.38583 1.08946
 C2077 C 0.52449 0.39243 1.07427
 C2078 C 0.53977 0.38262 1.06434
 C2079 C 0.54643 0.36533 1.07080
 H2080 H 0.54016 0.35901 1.08303
 O2081 O 0.59281 0.43269 1.01811
 O2082 O 0.61455 0.41088 1.01817
 C2083 C 0.60799 0.42610 1.02451
 C2084 C 0.61783 0.43598 1.03980
 C2085 C 0.63519 0.42957 1.04629
 H2086 H 0.64184 0.41781 1.03948
 O2087 O 0.40705 0.56787 1.01778
 O2088 O 0.38531 0.58969 1.01775
 C2089 C 0.39186 0.57449 1.02414
 C2090 C 0.38203 0.56462 1.03945
 C2091 C 0.36473 0.57111 1.04605
 H2092 H 0.35831 0.58321 1.03962
 Cu2093 Cu 0.49986 0.42258 1.07825
 Cu2094 Cu 0.49982 0.39650 1.10444
 Cu2095 Cu 0.49999 0.57791 1.07803
 Cu2096 Cu 0.50004 0.60408 1.10414
 Cu2097 Cu 0.42190 0.42216 0.99993
 Cu2098 Cu 0.39585 0.39593 0.99999
 Cu2099 Cu 0.57779 0.42213 0.99987
 Cu2100 Cu 0.60383 0.39589 0.99996
 Cu2101 Cu 0.42212 0.57836 0.99957
 Cu2102 Cu 0.39610 0.60462 0.99952
 Cu2103 Cu 0.57800 0.57794 0.99977
 Cu2104 Cu 0.60410 0.60413 0.99977
 Cu2105 Cu 0.42163 0.50043 1.07774
 Cu2106 Cu 0.39539 0.50049 1.10378
 Cu2107 Cu 0.57826 0.50013 1.07800
 Cu2108 Cu 0.60446 0.50014 1.10409
 C2109 C 0.54871 0.45178 1.10966
 H2110 H 0.54392 0.45660 1.09615
 C2111 C 0.56172 0.43866 1.14429
 C2112 C 0.45112 0.54882 1.10942
 H2113 H 0.45591 0.54400 1.09591
 C2114 C 0.43811 0.56195 1.14405
 C2115 C 0.39042 0.54921 1.04823
 H2116 H 0.40388 0.54430 1.04340
 C2117 C 0.35594 0.56251 1.06134
 C2118 C 0.60946 0.45139 1.04860
 H2119 H 0.59595 0.45624 1.04384
 C2120 C 0.64407 0.43821 1.06152
 C2121 C 0.54840 0.39098 1.04882
 H2122 H 0.54357 0.40447 1.04397
 C2123 C 0.56154 0.35642 1.06196
 C2124 C 0.45148 0.60954 1.04849
 H2125 H 0.45628 0.59603 1.04367
 C2126 C 0.43844 0.64416 1.06156
 C2127 C 0.45091 0.45185 1.10942
 H2128 H 0.45578 0.45667 1.09593
 C2129 C 0.43773 0.43876 1.14398
 C2130 C 0.54890 0.54877 1.10943
 H2131 H 0.54417 0.54400 1.09587
 C2132 C 0.56171 0.56169 1.14420
 C2133 C 0.45127 0.39097 1.04884
 H2134 H 0.45604 0.40450 1.04405
 C2135 C 0.43834 0.35630 1.06181
 C2136 C 0.54860 0.60935 1.04852
 H2137 H 0.54381 0.59582 1.04375
 C2138 C 0.56161 0.64401 1.06146
 C2139 C 0.39025 0.45167 1.04837
 H2140 H 0.40376 0.45647 1.04356
 C2141 C 0.35564 0.43862 1.06146
 C2142 C 0.60963 0.54872 1.04850
 H2143 H 0.59612 0.54387 1.04372
 C2144 C 0.64422 0.56189 1.06147
 C2145 C 1.11378 1.11336 1.26492
 C2146 C 1.12246 1.10181 1.27813
 C2147 C 1.12991 1.10931 1.29455
 C2148 C 1.12871 1.12864 1.29839
 C2149 C 1.11971 1.14007 1.28504
 C2150 C 1.11247 1.13255 1.26856
 C2151 C 1.10623 1.10551 1.24730
 C2152 C 1.10946 1.11459 1.23022
 C2153 C 1.10225 1.10735 1.21361
 C2154 C 1.09150 1.09091 1.21369
 C2155 C 1.08834 1.08178 1.23080
 C2156 C 1.09568 1.08897 1.24741
 C2157 C 1.08361 1.08339 1.19599
 C2158 C 1.08291 1.06404 1.19270
 C2159 C 1.07569 1.05705 1.17595
 C2160 C 1.06907 1.06924 1.16205
 C2161 C 1.06971 1.08857 1.16537
 C2162 C 1.07682 1.09555 1.18215
 H2163 H 1.12367 1.08693 1.27566
 H2164 H 1.13599 1.09967 1.30446
 H2165 H 1.11889 1.15506 1.28672
 H2166 H 1.10578 1.14179 1.25863
 H2167 H 1.11780 1.12720 1.22969
 H2168 H 1.10530 1.11452 1.20065
 H2169 H 1.07990 1.06926 1.23141
 H2170 H 1.09281 1.08180 1.26042
 H2171 H 1.08820 1.05428 1.20296
 H2172 H 1.07521 1.04208 1.17393
 H2173 H 1.06497 1.09837 1.15488
 H2174 H 1.07689 1.11051 1.18430
 C2175 C 1.11295 0.61345 0.76531
 C2176 C 1.11922 0.60168 0.77972
 C2177 C 1.12682 0.60919 0.79607
 C2178 C 1.12830 0.62862 0.79837
 C2179 C 1.12204 0.64038 0.78396
 C2180 C 1.11445 0.63288 0.76762
 C2181 C 1.10493 0.60552 0.74788
 C2182 C 1.08935 0.61389 0.73937
 C2183 C 1.08203 0.60667 0.72278
 C2184 C 1.09010 0.59091 0.71433
 C2185 C 1.10558 0.58243 0.72293
 C2186 C 1.11291 0.58966 0.73952
 C2187 C 1.08257 0.58353 0.69646
 C2188 C 1.08108 0.56419 0.69344
 C2189 C 1.07415 0.55729 0.67654
 C2190 C 1.06857 0.56957 0.66229
 C2191 C 1.07004 0.58890 0.66532
 C2192 C 1.07695 0.59580 0.68222
 H2193 H 1.11801 0.58666 0.77847
 H2194 H 1.13129 0.59979 0.80703
 H2195 H 1.12328 0.65539 0.78519
 H2196 H 1.11004 0.64230 0.75664
 H2197 H 1.08269 0.62593 0.74564
 H2198 H 1.06991 0.61333 0.71666
 H2199 H 1.11227 0.57044 0.71661
 H2200 H 1.12509 0.58305 0.74559
 H2201 H 1.08506 0.55439 0.70425
 H2202 H 1.07295 0.54233 0.67470
 H2203 H 1.06618 0.59872 0.65449
 H2204 H 1.07823 0.61076 0.68399
 C2205 C 0.61204 1.11126 0.76632
 C2206 C 0.63150 1.11229 0.76868
 C2207 C 0.63915 1.11990 0.78494
 C2208 C 0.62751 1.12667 0.79922
 C2209 C 0.60805 1.12554 0.79693
 C2210 C 0.60040 1.11792 0.78066
 C2211 C 0.60395 1.10355 0.74883
 C2212 C 0.58844 1.11213 0.74038
 C2213 C 0.58114 1.10519 0.72366
 C2214 C 0.58915 1.08949 0.71502
 C2215 C 0.60452 1.08079 0.72357
 C2216 C 0.61185 1.08775 0.74028
 C2217 C 0.58169 1.08241 0.69700
 C2218 C 0.58017 1.06312 0.69366
 C2219 C 0.57342 1.05650 0.67657
 C2220 C 0.56805 1.06902 0.66244
 C2221 C 0.56950 1.08830 0.66580
 C2222 C 0.57623 1.09491 0.68288
 H2223 H 0.64084 1.10757 0.75776
 H2224 H 0.65419 1.12086 0.78615
 H2225 H 0.59873 1.13038 0.80781
 H2226 H 0.58536 1.11707 0.77937
 H2227 H 0.58216 1.12443 0.74652
 H2228 H 0.56915 1.11208 0.71753
 H2229 H 0.61112 1.06878 0.71717
 H2230 H 0.62368 1.08072 0.74655
 H2231 H 0.58400 1.05314 0.70435
 H2232 H 0.57222 1.04157 0.67448
 H2233 H 0.56578 1.09829 0.65508
 H2234 H 0.57753 1.10984 0.68490
 C2235 C 0.61259 0.61263 1.26569
 C2236 C 0.62181 0.60128 1.27875
 C2237 C 0.62953 0.60894 1.29496
 C2238 C 0.62814 0.62826 1.29876
 C2239 C 0.61871 0.63952 1.28557
 C2240 C 0.61117 0.63183 1.26930
 C2241 C 0.60464 0.60454 1.24827
 C2242 C 0.58775 0.61135 1.24088
 C2243 C 0.58056 0.60415 1.22423
 C2244 C 0.58999 0.58988 1.21465
 C2245 C 0.60670 0.58285 1.22213
 C2246 C 0.61399 0.59014 1.23871
 C2247 C 0.58258 0.58259 1.19674
 C2248 C 0.58224 0.56332 1.19315
 C2249 C 0.57534 0.55651 1.17619
 C2250 C 0.56878 0.56886 1.16239
 C2251 C 0.56920 0.58816 1.16601
 C2252 C 0.57594 0.59493 1.18302
 H2253 H 0.62279 0.58634 1.27662
 H2254 H 0.63587 0.59942 1.30481
 H2255 H 0.61784 0.65451 1.28718
 H2256 H 0.60459 0.64108 1.25932
 H2257 H 0.57999 0.62215 1.24806
 H2258 H 0.56751 0.60964 1.21891
 H2259 H 0.61437 0.57200 1.21490
 H2260 H 0.62717 0.58478 1.24382
 H2261 H 0.58708 0.55349 1.20358
 H2262 H 0.57495 0.54156 1.17397
 H2263 H 0.56463 0.59808 1.15556
 H2264 H 0.57632 0.60988 1.18531
 C2265 C 0.88605 0.88686 1.26472
 C2266 C 0.87702 0.89837 1.27773
 C2267 C 0.86960 0.89088 1.29417
 C2268 C 0.87120 0.87162 1.29822
 C2269 C 0.88054 0.86024 1.28506
 C2270 C 0.88773 0.86774 1.26856
 C2271 C 0.89359 0.89470 1.24711
 C2272 C 0.89055 0.88548 1.23007
 C2273 C 0.89775 0.89273 1.21346
 C2274 C 0.90831 0.90929 1.21351
 C2275 C 0.91129 0.91854 1.23060
 C2276 C 0.90393 0.91136 1.24720
 C2277 C 0.91620 0.91681 1.19582
 C2278 C 0.91680 0.93616 1.19250
 C2279 C 0.92405 0.94315 1.17577
 C2280 C 0.93078 0.93097 1.16192
 C2281 C 0.93023 0.91164 1.16528
 C2282 C 0.92311 0.90466 1.18204
 H2283 H 0.87552 0.91318 1.27510
 H2284 H 0.86323 0.90048 1.30393
 H2285 H 0.88167 0.84530 1.28693
 H2286 H 0.89470 0.85855 1.25877
 H2287 H 0.88238 0.87276 1.22957
 H2288 H 0.89484 0.88545 1.20053
 H2289 H 0.91958 0.93116 1.23120
 H2290 H 0.90665 0.91863 1.26019
 H2291 H 0.91141 0.94591 1.20271
 H2292 H 0.92446 0.95812 1.17373
 H2293 H 0.93505 0.90184 1.15482
 H2294 H 0.92313 0.88970 1.18422
 C2295 C 0.88561 0.38670 0.76444
 C2296 C 0.87656 0.39815 0.77748
 C2297 C 0.86920 0.39061 0.79392
 C2298 C 0.87088 0.37135 0.79794
 C2299 C 0.88025 0.36003 0.78476
 C2300 C 0.88739 0.36759 0.76825
 C2301 C 0.89308 0.39460 0.74682
 C2302 C 0.89007 0.38539 0.72977
 C2303 C 0.89719 0.39271 0.71315
 C2304 C 0.90764 0.40934 0.71321
 C2305 C 0.91060 0.41858 0.73030
 C2306 C 0.90333 0.41133 0.74691
 C2307 C 0.91548 0.41692 0.69551
 C2308 C 0.91603 0.43627 0.69222
 C2309 C 0.92330 0.44333 0.67552
 C2310 C 0.93012 0.43119 0.66167
 C2311 C 0.92958 0.41185 0.66498
 C2312 C 0.92244 0.40482 0.68171
 H2313 H 0.87499 0.41297 0.77488
 H2314 H 0.86281 0.40018 0.80370
 H2315 H 0.88144 0.34509 0.78661
 H2316 H 0.89437 0.35843 0.75844
 H2317 H 0.88197 0.37263 0.72927
 H2318 H 0.89429 0.38544 0.70022
 H2319 H 0.91882 0.43125 0.73091
 H2320 H 0.90602 0.41860 0.75990
 H2321 H 0.91060 0.44600 0.70244
 H2322 H 0.92369 0.45830 0.67352
 H2323 H 0.93445 0.40208 0.65452
 H2324 H 0.92250 0.38986 0.68387
 C2325 C 0.38596 0.88659 0.76430
 C2326 C 0.37984 0.89839 0.77875
 C2327 C 0.37254 0.89092 0.79524
 C2328 C 0.37125 0.87149 0.79767
 C2329 C 0.37744 0.85970 0.78326
 C2330 C 0.38470 0.86716 0.76676
 C2331 C 0.39356 0.89448 0.74669
 C2332 C 0.38883 0.88653 0.72938
 C2333 C 0.39610 0.89380 0.71280
 C2334 C 0.40829 0.90919 0.71315
 C2335 C 0.41293 0.91722 0.73045
 C2336 C 0.40564 0.90995 0.74704
 C2337 C 0.41617 0.91674 0.69550
 C2338 C 0.41780 0.93610 0.69273
 C2339 C 0.42502 0.94316 0.67601
 C2340 C 0.43081 0.93100 0.66173
 C2341 C 0.42926 0.91164 0.66455
 C2342 C 0.42203 0.90460 0.68124
 H2343 H 0.38048 0.91342 0.77720
 H2344 H 0.36803 0.90035 0.80617
 H2345 H 0.37644 0.84468 0.78464
 H2346 H 0.38948 0.85771 0.75597
 H2347 H 0.37930 0.87482 0.72863
 H2348 H 0.39199 0.88752 0.69968
 H2349 H 0.42248 0.92892 0.73119
 H2350 H 0.40973 0.91622 0.76018
 H2351 H 0.41324 0.94582 0.70338
 H2352 H 0.42618 0.95813 0.67430
 H2353 H 0.43338 0.90192 0.65373
 H2354 H 0.42116 0.88961 0.68304
 C2355 C 0.38607 0.38743 1.26504
 C2356 C 0.37723 0.39893 1.27819
 C2357 C 0.36987 0.39141 1.29463
 C2358 C 0.37133 0.37211 1.29856
 C2359 C 0.38052 0.36074 1.28527
 C2360 C 0.38766 0.36829 1.26877
 C2361 C 0.39350 0.39530 1.24738
 C2362 C 0.39033 0.38610 1.23035
 C2363 C 0.39744 0.39335 1.21370
 C2364 C 0.40803 0.40989 1.21369
 C2365 C 0.41112 0.41913 1.23076
 C2366 C 0.40387 0.41194 1.24741
 C2367 C 0.41587 0.41737 1.19596
 C2368 C 0.41647 0.43671 1.19259
 C2369 C 0.42369 0.44366 1.17583
 C2370 C 0.43040 0.43145 1.16200
 C2371 C 0.42983 0.41212 1.16539
 C2372 C 0.42273 0.40518 1.18218
 H2373 H 0.37581 0.41377 1.27564
 H2374 H 0.36364 0.40100 1.30449
 H2375 H 0.38154 0.34578 1.28703
 H2376 H 0.39449 0.35910 1.25889
 H2377 H 0.38212 0.37341 1.22989
 H2378 H 0.39444 0.38608 1.20078
 H2379 H 0.41944 0.43173 1.23131
 H2380 H 0.40668 0.41920 1.26038
 H2381 H 0.41112 0.44649 1.20280
 H2382 H 0.42411 0.45863 1.17375
 H2383 H 0.43462 0.40230 1.15495
 H2384 H 0.42273 0.39023 1.18440
 C2385 C 0.88644 1.11342 0.73457
 C2386 C 0.87755 1.10190 0.72146
 C2387 C 0.87009 1.10942 0.70506
 C2388 C 0.87149 1.12873 0.70115
 C2389 C 0.88072 1.14011 0.71439
 C2390 C 0.88797 1.13257 0.73085
 C2391 C 0.89396 1.10556 0.75220
 C2392 C 0.89082 1.11472 0.76925
 C2393 C 0.89799 1.10746 0.78587
 C2394 C 0.90861 1.09094 0.78582
 C2395 C 0.91168 1.08174 0.76873
 C2396 C 0.90437 1.08894 0.75211
 C2397 C 0.91647 1.08341 0.80353
 C2398 C 0.91709 1.06407 0.80684
 C2399 C 0.92429 1.05707 0.82359
 C2400 C 0.93097 1.06925 0.83747
 C2401 C 0.93040 1.08858 0.83413
 C2402 C 0.92332 1.09557 0.81735
 H2403 H 0.87618 1.08706 0.72400
 H2404 H 0.86382 1.09982 0.69523
 H2405 H 0.88170 1.15507 0.71263
 H2406 H 0.89482 1.14177 0.74071
 H2407 H 0.88259 1.12739 0.76975
 H2408 H 0.89501 1.11469 0.79881
 H2409 H 0.92003 1.06915 0.76813
 H2410 H 0.90716 1.08171 0.73912
 H2411 H 0.91175 1.05431 0.79659
 H2412 H 0.92471 1.04210 0.82562
 H2413 H 0.93518 1.09838 0.84460
 H2414 H 0.92332 1.11052 0.81517
 C2415 C 0.88734 0.61333 0.23441
 C2416 C 0.88138 0.60150 0.21992
 C2417 C 0.87405 0.60892 0.20342
 C2418 C 0.87257 0.62834 0.20102
 C2419 C 0.87864 0.64017 0.21546
 C2420 C 0.88593 0.63275 0.23196
 C2421 C 0.89487 0.60549 0.25208
 C2422 C 0.89000 0.61345 0.26935
 C2423 C 0.89718 0.60622 0.28598
 C2424 C 0.90941 0.59088 0.28575
 C2425 C 0.91419 0.58284 0.26849
 C2426 C 0.90700 0.59007 0.25184
 C2427 C 0.91718 0.58338 0.30346
 C2428 C 0.91880 0.56403 0.30631
 C2429 C 0.92591 0.55703 0.32310
 C2430 C 0.93160 0.56923 0.33738
 C2431 C 0.93006 0.58858 0.33449
 C2432 C 0.92295 0.59557 0.31773
 H2433 H 0.88213 0.58647 0.22146
 H2434 H 0.86964 0.59946 0.19247
 H2435 H 0.87749 0.65519 0.21411
 H2436 H 0.89060 0.64224 0.24277
 H2437 H 0.88042 0.62513 0.27002
 H2438 H 0.89296 0.61251 0.29907
 H2439 H 0.92377 0.57116 0.26784
 H2440 H 0.91120 0.58379 0.23874
 H2441 H 0.91432 0.55428 0.29565
 H2442 H 0.92706 0.54205 0.32487
 H2443 H 0.93412 0.59833 0.34531
 H2444 H 0.92208 0.61055 0.31589
 C2445 C 0.38665 1.11337 0.23454
 C2446 C 0.37767 1.10183 0.22153
 C2447 C 0.37028 1.10928 0.20507
 C2448 C 0.37186 1.12853 0.20099
 C2449 C 0.38119 1.13995 0.21413
 C2450 C 0.38835 1.13248 0.23067
 C2451 C 0.39411 1.10558 0.25221
 C2452 C 0.39096 1.11482 0.26922
 C2453 C 0.39803 1.10757 0.28589
 C2454 C 0.40855 1.09099 0.28594
 C2455 C 0.41165 1.08173 0.26888
 C2456 C 0.40443 1.08891 0.25222
 C2457 C 0.41631 1.08348 0.30369
 C2458 C 0.41687 1.06413 0.30703
 C2459 C 0.42404 1.05714 0.32380
 C2460 C 0.43072 1.06932 0.33768
 C2461 C 0.43016 1.08866 0.33432
 C2462 C 0.42313 1.09563 0.31752
 H2463 H 0.37617 1.08702 0.22419
 H2464 H 0.36393 1.09965 0.19531
 H2465 H 0.38232 1.15488 0.21223
 H2466 H 0.39529 1.14170 0.24046
 H2467 H 0.38280 1.12754 0.26964
 H2468 H 0.39503 1.11486 0.29879
 H2469 H 0.41993 1.06910 0.26836
 H2470 H 0.40723 1.08161 0.23926
 H2471 H 0.41154 1.05437 0.29678
 H2472 H 0.42445 1.04217 0.32584
 H2473 H 0.43492 1.09846 0.34480
 H2474 H 0.42316 1.11059 0.31533
 C2475 C 0.38714 0.61336 0.73464
 C2476 C 0.39902 0.61908 0.72010
 C2477 C 0.39164 0.62641 0.70357
 C2478 C 0.37223 0.62812 0.70120
 C2479 C 0.36036 0.62231 0.71571
 C2480 C 0.36773 0.61502 0.73223
 C2481 C 0.39491 0.60579 0.75232
 C2482 C 0.38706 0.61081 0.76959
 C2483 C 0.39420 0.60356 0.78623
 C2484 C 0.40937 0.59111 0.78599
 C2485 C 0.41732 0.58617 0.76874
 C2486 C 0.41016 0.59344 0.75208
 C2487 C 0.41679 0.58328 0.80371
 C2488 C 0.43613 0.58145 0.80654
 C2489 C 0.44307 0.57433 0.82335
 C2490 C 0.43081 0.56882 0.83766
 C2491 C 0.41148 0.57054 0.83477
 C2492 C 0.40455 0.57768 0.81799
 H2493 H 0.41403 0.61814 0.72161
 H2494 H 0.40113 0.63061 0.69257
 H2495 H 0.34536 0.62364 0.71438
 H2496 H 0.35820 0.61054 0.74309
 H2497 H 0.37552 0.62056 0.77026
 H2498 H 0.38800 0.60789 0.79932
 H2499 H 0.42885 0.57642 0.76809
 H2500 H 0.41635 0.58911 0.73897
 H2501 H 0.44592 0.58580 0.79587
 H2502 H 0.45803 0.57303 0.82512
 H2503 H 0.40169 0.56662 0.84560
 H2504 H 0.38958 0.57871 0.81615
 C2505 C 1.11425 0.88637 0.73538
 C2506 C 1.12025 0.89820 0.72091
 C2507 C 1.12760 0.89076 0.70442
 C2508 C 1.12905 0.87134 0.70202
 C2509 C 1.12296 0.85952 0.71646
 C2510 C 1.11565 0.86695 0.73295
 C2511 C 1.10663 0.89423 0.75300
 C2512 C 1.11141 0.88630 0.77031
 C2513 C 1.10415 0.89355 0.78690
 C2514 C 1.09193 0.90891 0.78657
 C2515 C 1.08723 0.91691 0.76928
 C2516 C 1.09450 0.90966 0.75267
 C2517 C 1.08408 0.91645 0.80423
 C2518 C 1.08245 0.93582 0.80701
 C2519 C 1.07527 0.94287 0.82374
 C2520 C 1.06951 0.93071 0.83803
 C2521 C 1.07106 0.91136 0.83521
 C2522 C 1.07825 0.90431 0.81850
 H2523 H 1.11950 0.91322 0.72244
 H2524 H 1.13201 0.90021 0.69348
 H2525 H 1.12408 0.84450 0.71510
 H2526 H 1.11095 0.85747 0.74375
 H2527 H 1.12098 0.87462 0.77105
 H2528 H 1.10831 0.88729 0.80002
 H2529 H 1.07765 0.92859 0.76855
 H2530 H 1.09036 0.91591 0.73954
 H2531 H 1.08699 0.94553 0.79634
 H2532 H 1.07411 0.95785 0.82546
 H2533 H 1.06695 0.90163 0.84604
 H2534 H 1.07913 0.88933 0.81671
 C2535 C 1.11354 0.38614 0.23505
 C2536 C 1.11499 0.36673 0.23255
 C2537 C 1.12228 0.35937 0.21603
 C2538 C 1.12833 0.37125 0.20162
 C2539 C 1.12681 0.39066 0.20408
 C2540 C 1.11948 0.39803 0.22060
 C2541 C 1.10599 0.39394 0.25273
 C2542 C 1.09384 0.40936 0.25249
 C2543 C 1.08668 0.41660 0.26914
 C2544 C 1.09150 0.40859 0.28640
 C2545 C 1.10372 0.39323 0.28663
 C2546 C 1.11087 0.38599 0.26999
 C2547 C 1.08379 0.41614 0.30412
 C2548 C 1.07804 0.40400 0.31843
 C2549 C 1.07095 0.41105 0.33517
 C2550 C 1.06943 0.43040 0.33801
 C2551 C 1.07512 0.44256 0.32369
 C2552 C 1.08219 0.43550 0.30691
 H2553 H 1.11034 0.35721 0.24334
 H2554 H 1.12345 0.34436 0.21463
 H2555 H 1.13119 0.40016 0.19316
 H2556 H 1.11870 0.41304 0.22218
 H2557 H 1.08962 0.41562 0.23939
 H2558 H 1.07709 0.42828 0.26849
 H2559 H 1.10796 0.38696 0.29972
 H2560 H 1.12046 0.37432 0.27066
 H2561 H 1.07890 0.38901 0.31662
 H2562 H 1.06690 0.40133 0.34602
 H2563 H 1.07397 0.45754 0.32541
 H2564 H 1.08667 0.44521 0.29622
 C2565 C 0.61300 0.88663 0.23442
 C2566 C 0.63212 0.88826 0.23057
 C2567 C 0.63959 0.88104 0.21406
 C2568 C 0.62816 0.87173 0.20091
 C2569 C 0.60889 0.87022 0.20497
 C2570 C 0.60144 0.87766 0.22141
 C2571 C 0.60521 0.89414 0.25207
 C2572 C 0.58857 0.90451 0.25204
 C2573 C 0.58141 0.91180 0.26868
 C2574 C 0.59067 0.90874 0.28574
 C2575 C 0.60723 0.89816 0.28574
 C2576 C 0.61445 0.89103 0.26908
 C2577 C 0.58319 0.91657 0.30347
 C2578 C 0.59537 0.92342 0.31727
 C2579 C 0.58842 0.93049 0.33406
 C2580 C 0.56909 0.93106 0.33744
 C2581 C 0.55688 0.92437 0.32359
 C2582 C 0.56384 0.91716 0.30683
 H2583 H 0.64135 0.89518 0.24036
 H2584 H 0.65454 0.88211 0.21219
 H2585 H 0.59926 0.86388 0.19521
 H2586 H 0.58662 0.87621 0.22405
 H2587 H 0.58128 0.90728 0.23907
 H2588 H 0.56880 0.92011 0.26813
 H2589 H 0.61451 0.89519 0.29865
 H2590 H 0.62715 0.88283 0.26954
 H2591 H 0.61033 0.92343 0.31506
 H2592 H 0.59824 0.93527 0.34452
 H2593 H 0.54191 0.92479 0.32565
 H2594 H 0.55407 0.91182 0.29661
 C2595 C 0.61349 0.38583 0.73515
 C2596 C 0.63291 0.38418 0.73284
 C2597 C 0.64035 0.37698 0.71631
 C2598 C 0.62856 0.37125 0.70171
 C2599 C 0.60913 0.37293 0.70399
 C2600 C 0.60168 0.38016 0.72052
 C2601 C 0.60561 0.39340 0.75279
 C2602 C 0.59035 0.40574 0.75247
 C2603 C 0.58312 0.41301 0.76909
 C2604 C 0.59099 0.40810 0.78639
 C2605 C 0.60617 0.39567 0.78671
 C2606 C 0.61339 0.38840 0.77011
 C2607 C 0.58350 0.41597 0.80405
 C2608 C 0.59568 0.42163 0.81837
 C2609 C 0.58869 0.42886 0.83508
 C2610 C 0.56934 0.43061 0.83787
 C2611 C 0.55714 0.42503 0.82353
 C2612 C 0.56415 0.41782 0.80679
 H2613 H 0.64238 0.38862 0.74377
 H2614 H 0.65537 0.37568 0.71505
 H2615 H 0.59970 0.36879 0.69292
 H2616 H 0.58666 0.38110 0.72195
 H2617 H 0.58422 0.41005 0.73933
 H2618 H 0.57158 0.42275 0.76837
 H2619 H 0.61232 0.39136 0.79983
 H2620 H 0.62494 0.37867 0.77084
 H2621 H 0.61066 0.42058 0.81660
 H2622 H 0.59843 0.43284 0.84594
 H2623 H 0.54217 0.42635 0.82523
 H2624 H 0.55440 0.41342 0.79609
 C2625 C 1.26546 1.11291 1.11287
 C2626 C 1.28005 1.10110 1.11861
 C2627 C 1.29657 1.10856 1.12590
 C2628 C 1.29887 1.12798 1.12754
 C2629 C 1.28432 1.13977 1.12167
 C2630 C 1.26781 1.13233 1.11442
 C2631 C 1.24777 1.10505 1.10540
 C2632 C 1.23051 1.11292 1.11043
 C2633 C 1.21386 1.10574 1.10326
 C2634 C 1.21406 1.09052 1.09087
 C2635 C 1.23130 1.08254 1.08594
 C2636 C 1.24798 1.08973 1.09313
 C2637 C 1.19633 1.08310 1.08308
 C2638 C 1.19345 1.06376 1.08135
 C2639 C 1.17662 1.05683 1.07427
 C2640 C 1.16233 1.06909 1.06871
 C2641 C 1.16527 1.08842 1.07034
 C2642 C 1.18207 1.09535 1.07744
 H2643 H 1.27859 1.08608 1.11774
 H2644 H 1.30760 1.09913 1.13015
 H2645 H 1.28557 1.15479 1.12295
 H2646 H 1.25692 1.14179 1.10991
 H2647 H 1.22986 1.12451 1.12013
 H2648 H 1.20078 1.11197 1.10759
 H2649 H 1.23192 1.07095 1.07625
 H2650 H 1.26107 1.08352 1.08880
 H2651 H 1.20410 1.05397 1.08574
 H2652 H 1.17481 1.04187 1.07304
 H2653 H 1.15445 1.09822 1.06638
 H2654 H 1.18394 1.11032 1.07840
 C2655 C 1.26542 0.61319 0.61277
 C2656 C 1.27990 0.60134 0.61869
 C2657 C 1.29645 0.60876 0.62593
 C2658 C 1.29890 0.62818 0.62736
 C2659 C 1.28446 0.64002 0.62131
 C2660 C 1.26791 0.63261 0.61411
 C2661 C 1.24769 0.60536 0.60536
 C2662 C 1.23047 0.61337 0.61030
 C2663 C 1.21378 0.60617 0.60322
 C2664 C 1.21392 0.59079 0.59103
 C2665 C 1.23113 0.58269 0.58618
 C2666 C 1.24784 0.58990 0.59327
 C2667 C 1.19615 0.58333 0.58334
 C2668 C 1.19323 0.56398 0.58180
 C2669 C 1.17639 0.55702 0.57476
 C2670 C 1.16215 0.56926 0.56905
 C2671 C 1.16512 0.58860 0.57052
 C2672 C 1.18192 0.59555 0.57757
 H2673 H 1.27833 0.58632 0.61799
 H2674 H 1.30740 0.59929 0.63032
 H2675 H 1.28584 0.65503 0.62241
 H2676 H 1.25710 0.64210 0.60946
 H2677 H 1.22988 0.62507 0.61986
 H2678 H 1.20073 0.61250 0.60749
 H2679 H 1.23170 0.57099 0.57662
 H2680 H 1.26090 0.58358 0.58902
 H2681 H 1.20386 0.55421 0.58628
 H2682 H 1.17456 0.54205 0.57365
 H2683 H 1.15433 0.59838 0.56645
 H2684 H 1.18383 0.61053 0.57839
 C2685 C 0.76518 1.11354 0.61331
 C2686 C 0.76893 1.13268 0.61181
 C2687 C 0.78539 1.14020 0.61907
 C2688 C 0.79862 1.12879 0.62830
 C2689 C 0.79468 1.10949 0.62968
 C2690 C 0.77827 1.10200 0.62220
 C2691 C 0.74755 1.10571 0.60577
 C2692 C 0.74762 1.08909 0.59534
 C2693 C 0.73100 1.08193 0.58800
 C2694 C 0.71392 1.09115 0.59106
 C2695 C 0.71389 1.10767 0.60169
 C2696 C 0.73051 1.11489 0.60889
 C2697 C 0.69621 1.08365 0.58318
 C2698 C 0.68242 1.09583 0.57631
 C2699 C 0.66563 1.08887 0.56923
 C2700 C 0.66225 1.06954 0.56868
 C2701 C 0.67611 1.05734 0.57537
 C2702 C 0.69287 1.06431 0.58257
 H2703 H 0.75909 1.14190 0.60496
 H2704 H 0.78717 1.15516 0.61811
 H2705 H 0.80449 1.09987 0.63594
 H2706 H 0.77571 1.08715 0.62355
 H2707 H 0.76060 1.08184 0.59256
 H2708 H 0.73158 1.06934 0.57965
 H2709 H 0.70096 1.11492 0.60466
 H2710 H 0.73002 1.12756 0.61713
 H2711 H 0.68463 1.11078 0.57631
 H2712 H 0.65518 1.09868 0.56444
 H2713 H 0.67404 1.04237 0.57496
 H2714 H 0.70309 1.05455 0.58792
 C2715 C 0.76519 0.61319 1.11309
 C2716 C 0.77971 0.60136 1.11899
 C2717 C 0.79624 0.60880 1.12625
 C2718 C 0.79863 0.62822 1.12772
 C2719 C 0.78416 0.64004 1.12173
 C2720 C 0.76763 0.63261 1.11451
 C2721 C 0.74752 0.60535 1.10557
 C2722 C 0.73026 0.61328 1.11047
 C2723 C 0.71362 0.60609 1.10326
 C2724 C 0.71385 0.59079 1.09096
 C2725 C 0.73111 0.58277 1.08614
 C2726 C 0.74776 0.58997 1.09337
 C2727 C 0.69615 0.58333 1.08314
 C2728 C 0.69329 0.56399 1.08146
 C2729 C 0.67650 0.55702 1.07434
 C2730 C 0.66221 0.56924 1.06871
 C2731 C 0.66512 0.58858 1.07029
 C2732 C 0.68189 0.59554 1.07742
 H2733 H 0.77818 0.58634 1.11823
 H2734 H 0.80721 0.59935 1.13060
 H2735 H 0.78550 0.65505 1.12287
 H2736 H 0.75679 0.64209 1.10988
 H2737 H 0.72959 0.62492 1.12010
 H2738 H 0.70054 0.61236 1.10750
 H2739 H 0.73176 0.57114 1.07651
 H2740 H 0.76086 0.58371 1.08914
 H2741 H 0.70394 0.55422 1.08591
 H2742 H 0.67472 0.54205 1.07314
 H2743 H 0.65430 0.59836 1.06627
 H2744 H 0.68374 0.61052 1.07834
 C2745 C 1.26511 0.88613 0.88665
 C2746 C 1.26886 0.88764 0.86750
 C2747 C 1.28538 0.88046 0.86001
 C2748 C 1.29864 0.87133 0.87145
 C2749 C 1.29467 0.86991 0.89075
 C2750 C 1.27821 0.87731 0.89821
 C2751 C 1.24748 0.89366 0.89448
 C2752 C 1.24757 0.90413 0.91107
 C2753 C 1.23095 0.91146 0.91824
 C2754 C 1.21386 0.90834 0.90906
 C2755 C 1.21381 0.89766 0.89257
 C2756 C 1.23043 0.89048 0.88532
 C2757 C 1.19616 0.91621 0.91657
 C2758 C 1.18234 0.92303 0.90439
 C2759 C 1.16559 0.93016 0.91137
 C2760 C 1.16226 0.93080 0.93071
 C2761 C 1.17614 0.92414 0.94290
 C2762 C 1.19287 0.91689 0.93592
 H2763 H 1.25900 0.89444 0.85826
 H2764 H 1.28718 0.88144 0.84505
 H2765 H 1.30450 0.86371 0.90039
 H2766 H 1.27565 0.87595 0.91306
 H2767 H 1.26056 0.90696 0.91829
 H2768 H 1.23155 0.91985 0.93081
 H2769 H 1.20087 0.89465 0.88534
 H2770 H 1.22993 0.88221 0.87267
 H2771 H 1.18451 0.92297 0.88943
 H2772 H 1.15511 0.93492 0.90156
 H2773 H 1.17411 0.92462 0.95788
 H2774 H 1.20311 0.91158 0.94569
 C2775 C 1.26545 0.38708 0.38686
 C2776 C 1.26923 0.36794 0.38833
 C2777 C 1.28568 0.36046 0.38100
 C2778 C 1.29885 0.37190 0.37175
 C2779 C 1.29488 0.39120 0.37041
 C2780 C 1.27849 0.39865 0.37795
 C2781 C 1.24783 0.39487 0.39446
 C2782 C 1.24791 0.41146 0.40492
 C2783 C 1.23130 0.41861 0.41228
 C2784 C 1.21422 0.40939 0.40921
 C2785 C 1.21418 0.39289 0.39855
 C2786 C 1.23080 0.38568 0.39133
 C2787 C 1.19651 0.41688 0.41708
 C2788 C 1.18270 0.40470 0.42390
 C2789 C 1.16590 0.41165 0.43095
 C2790 C 1.16252 0.43098 0.43150
 C2791 C 1.17640 0.44318 0.42488
 C2792 C 1.19317 0.43622 0.41771
 H2793 H 1.25943 0.35869 0.39520
 H2794 H 1.28748 0.34550 0.38195
 H2795 H 1.30466 0.40084 0.36413
 H2796 H 1.27590 0.41349 0.37663
 H2797 H 1.26089 0.41871 0.40770
 H2798 H 1.23189 0.43118 0.42066
 H2799 H 1.20125 0.38564 0.39557
 H2800 H 1.23030 0.37302 0.38307
 H2801 H 1.18490 0.38974 0.42389
 H2802 H 1.15543 0.40184 0.43569
 H2803 H 1.17434 0.45815 0.42529
 H2804 H 1.20341 0.44599 0.41239
 C2805 C 0.76507 0.88709 0.38659
 C2806 C 0.76743 0.86767 0.38508
 C2807 C 0.78391 0.86020 0.37781
 C2808 C 0.79845 0.87198 0.37188
 C2809 C 0.79616 0.89140 0.37350
 C2810 C 0.77966 0.89888 0.38080
 C2811 C 0.74740 0.89497 0.39404
 C2812 C 0.74762 0.91037 0.40622
 C2813 C 0.73095 0.91762 0.41336
 C2814 C 0.71370 0.90962 0.40847
 C2815 C 0.71348 0.89432 0.39619
 C2816 C 0.73013 0.88709 0.38905
 C2817 C 0.69598 0.91711 0.41621
 C2818 C 0.68171 0.90492 0.42194
 C2819 C 0.66494 0.91189 0.42903
 C2820 C 0.66203 0.93124 0.43057
 C2821 C 0.67632 0.94345 0.42491
 C2822 C 0.69312 0.93647 0.41784
 H2823 H 0.75654 0.85821 0.38962
 H2824 H 0.78517 0.84518 0.37656
 H2825 H 0.80718 0.90083 0.36921
 H2826 H 0.77821 0.91390 0.38163
 H2827 H 0.76072 0.91660 0.41051
 H2828 H 0.73159 0.92926 0.42298
 H2829 H 0.70040 0.88808 0.39189
 H2830 H 0.72946 0.87544 0.37943
 H2831 H 0.68356 0.88994 0.42106
 H2832 H 0.65412 0.90213 0.43306
 H2833 H 0.67453 0.95842 0.42607
 H2834 H 0.70379 0.94622 0.41339
 C2835 C 0.76490 0.38655 0.88662
 C2836 C 0.76725 0.36713 0.88503
 C2837 C 0.78371 0.35969 0.87767
 C2838 C 0.79822 0.37150 0.87173
 C2839 C 0.79593 0.39092 0.87341
 C2840 C 0.77946 0.39836 0.88080
 C2841 C 0.74725 0.39440 0.89418
 C2842 C 0.74753 0.40974 0.90643
 C2843 C 0.73090 0.41697 0.91366
 C2844 C 0.71362 0.40901 0.90881
 C2845 C 0.71335 0.39375 0.89646
 C2846 C 0.72996 0.38654 0.88924
 C2847 C 0.69592 0.41651 0.91661
 C2848 C 0.68162 0.40433 0.92229
 C2849 C 0.66486 0.41133 0.92940
 C2850 C 0.66200 0.43067 0.93100
 C2851 C 0.67633 0.44287 0.92541
 C2852 C 0.69312 0.43586 0.91832
 H2853 H 0.75639 0.35765 0.88959
 H2854 H 0.78497 0.34468 0.87637
 H2855 H 0.80692 0.40036 0.86910
 H2856 H 0.77800 0.41338 0.88169
 H2857 H 0.76065 0.41595 0.91069
 H2858 H 0.73158 0.42858 0.92333
 H2859 H 0.70024 0.38754 0.89218
 H2860 H 0.72925 0.37493 0.87957
 H2861 H 0.68343 0.38935 0.92135
 H2862 H 0.65401 0.40158 0.93338
 H2863 H 0.67459 0.45784 0.92662
 H2864 H 0.70381 0.44561 0.91390
 C2865 C 0.73523 0.88647 1.11345
 C2866 C 0.72073 0.89829 1.11941
 C2867 C 0.70424 0.89085 1.12673
 C2868 C 0.70186 0.87143 1.12822
 C2869 C 0.71631 0.85961 1.12217
 C2870 C 0.73281 0.86705 1.11489
 C2871 C 0.75285 0.89433 1.10587
 C2872 C 0.77015 0.88644 1.11072
 C2873 C 0.78675 0.89370 1.10349
 C2874 C 0.78644 0.90901 1.09122
 C2875 C 0.76915 0.91698 1.08644
 C2876 C 0.75254 0.90972 1.09369
 C2877 C 0.80411 0.91656 1.08340
 C2878 C 0.80687 0.93592 1.08172
 C2879 C 0.82361 0.94298 1.07457
 C2880 C 0.83793 0.93082 1.06889
 C2881 C 0.83512 0.91147 1.07048
 C2882 C 0.81841 0.90442 1.07764
 H2883 H 0.72225 0.91332 1.11864
 H2884 H 0.69328 0.90030 1.13112
 H2885 H 0.71497 0.84460 1.12332
 H2886 H 0.74363 0.85757 1.11023
 H2887 H 0.77088 0.87479 1.12033
 H2888 H 0.79987 0.88746 1.10770
 H2889 H 0.76844 0.92863 1.07682
 H2890 H 0.73941 0.91594 1.08949
 H2891 H 0.79618 0.94564 1.08620
 H2892 H 0.82531 0.95795 1.07337
 H2893 H 0.84598 0.90174 1.06643
 H2894 H 0.81663 0.88943 1.07856
 C2895 C 0.73452 0.38746 0.61267
 C2896 C 0.73071 0.38896 0.63182
 C2897 C 0.71422 0.38168 0.63927
 C2898 C 0.70106 0.37244 0.62781
 C2899 C 0.70505 0.37109 0.60852
 C2900 C 0.72147 0.37858 0.60108
 C2901 C 0.75217 0.39498 0.60489
 C2902 C 0.75214 0.40538 0.58826
 C2903 C 0.76879 0.41263 0.58108
 C2904 C 0.78586 0.40949 0.59030
 C2905 C 0.78585 0.39890 0.60685
 C2906 C 0.76919 0.39180 0.61409
 C2907 C 0.80361 0.41725 0.58278
 C2908 C 0.81744 0.42405 0.59495
 C2909 C 0.83425 0.43107 0.58797
 C2910 C 0.83760 0.43163 0.56863
 C2911 C 0.82371 0.42498 0.55644
 C2912 C 0.80693 0.41784 0.56343
 H2913 H 0.74052 0.39582 0.64107
 H2914 H 0.71239 0.38264 0.65423
 H2915 H 0.69527 0.36483 0.59885
 H2916 H 0.72408 0.37723 0.58624
 H2917 H 0.73918 0.40821 0.58099
 H2918 H 0.76825 0.42096 0.56847
 H2919 H 0.79876 0.39587 0.61411
 H2920 H 0.76964 0.38358 0.62678
 H2921 H 0.81526 0.42407 0.60991
 H2922 H 0.84473 0.43581 0.59778
 H2923 H 0.82575 0.42539 0.54146
 H2924 H 0.79667 0.41253 0.55367
 C2925 C 0.23521 0.88662 0.61312
 C2926 C 0.22218 0.87766 0.60156
 C2927 C 0.20576 0.87020 0.60902
 C2928 C 0.20173 0.87168 0.62831
 C2929 C 0.21489 0.88098 0.63973
 C2930 C 0.23138 0.88821 0.63225
 C2931 C 0.25284 0.89414 0.60531
 C2932 C 0.26987 0.89101 0.61451
 C2933 C 0.28651 0.89815 0.60727
 C2934 C 0.28648 0.90875 0.59073
 C2935 C 0.26941 0.91184 0.58150
 C2936 C 0.25278 0.90454 0.58868
 C2937 C 0.30420 0.91658 0.58321
 C2938 C 0.30752 0.91719 0.56386
 C2939 C 0.32427 0.92440 0.55687
 C2940 C 0.33814 0.93108 0.56906
 C2941 C 0.33480 0.93050 0.58840
 C2942 C 0.31802 0.92342 0.59538
 H2943 H 0.22480 0.87624 0.58673
 H2944 H 0.19599 0.86388 0.59939
 H2945 H 0.21304 0.88203 0.65468
 H2946 H 0.24118 0.89512 0.64148
 H2947 H 0.27034 0.88279 0.62720
 H2948 H 0.29943 0.89517 0.61452
 H2949 H 0.26883 0.92017 0.56890
 H2950 H 0.23980 0.90733 0.58142
 H2951 H 0.29728 0.91186 0.55410
 H2952 H 0.32631 0.92483 0.54190
 H2953 H 0.34527 0.93527 0.59821
 H2954 H 0.31584 0.92342 0.61034
 C2955 C 0.23451 0.38726 1.11283
 C2956 C 0.22149 0.37835 1.10123
 C2957 C 0.20507 0.37086 1.10866
 C2958 C 0.20104 0.37225 1.12795
 C2959 C 0.21418 0.38152 1.13941
 C2960 C 0.23067 0.38879 1.13196
 C2961 C 0.25217 0.39477 1.10505
 C2962 C 0.26918 0.39159 1.11428
 C2963 C 0.28585 0.39867 1.10704
 C2964 C 0.28588 0.40924 1.09047
 C2965 C 0.26882 0.41237 1.08124
 C2966 C 0.25216 0.40515 1.08841
 C2967 C 0.30363 0.41699 1.08296
 C2968 C 0.30697 0.41754 1.06361
 C2969 C 0.32375 0.42468 1.05662
 C2970 C 0.33762 0.43135 1.06881
 C2971 C 0.33426 0.43081 1.08815
 C2972 C 0.31746 0.42380 1.09512
 H2973 H 0.22412 0.37698 1.08640
 H2974 H 0.19531 0.36458 1.09899
 H2975 H 0.21232 0.38251 1.15436
 H2976 H 0.24047 0.39567 1.14122
 H2977 H 0.26962 0.38338 1.12697
 H2978 H 0.29876 0.39565 1.11430
 H2979 H 0.26829 0.42069 1.06862
 H2980 H 0.23920 0.40797 1.08114
 H2981 H 0.29672 0.41222 1.05385
 H2982 H 0.32581 0.42507 1.04164
 H2983 H 0.34474 0.43558 1.09796
 H2984 H 0.31526 0.42384 1.11008
 C2985 C 0.73368 1.11249 0.88821
 C2986 C 0.73001 1.13168 0.88962
 C2987 C 0.71372 1.13932 0.88207
 C2988 C 0.70055 1.12800 0.87266
 C2989 C 0.70435 1.10867 0.87141
 C2990 C 0.72059 1.10107 0.87911
 C2991 C 0.75121 1.10447 0.89595
 C2992 C 0.76076 1.09024 0.88637
 C2993 C 0.77744 1.08297 0.89342
 C2994 C 0.78505 1.08980 0.91018
 C2995 C 0.77544 1.10394 0.91984
 C2996 C 0.75871 1.11115 0.91283
 C2997 C 0.80307 1.08241 0.91741
 C2998 C 0.80590 1.07987 0.93669
 C2999 C 0.82294 1.07314 0.94344
 C3000 C 0.83748 1.06866 0.93106
 C3001 C 0.83465 1.07111 0.91180
 C3002 C 0.81768 1.07796 0.90506
 H3003 H 0.74000 1.14097 0.89615
 H3004 H 0.71209 1.15430 0.88288
 H3005 H 0.69450 1.09910 0.86514
 H3006 H 0.72275 1.08614 0.87817
 H3007 H 0.75552 1.08492 0.87322
 H3008 H 0.78433 1.07191 0.88576
 H3009 H 0.78100 1.10968 0.93268
 H3010 H 0.75160 1.12193 0.92070
 H3011 H 0.79486 1.08288 0.94657
 H3012 H 0.82468 1.07118 0.95834
 H3013 H 0.84573 1.06806 0.90196
 H3014 H 0.81612 1.08008 0.89017
 C3015 C 0.73435 0.61243 0.38737
 C3016 C 0.71971 0.60078 0.38141
 C3017 C 0.70341 0.60841 0.37383
 C3018 C 0.70140 0.62785 0.37203
 C3019 C 0.71605 0.63948 0.37798
 C3020 C 0.73232 0.63186 0.38557
 C3021 C 0.75176 0.60440 0.39530
 C3022 C 0.76051 0.61287 0.41070
 C3023 C 0.77717 0.60568 0.41785
 C3024 C 0.78550 0.58985 0.40976
 C3025 C 0.77662 0.58123 0.39451
 C3026 C 0.75993 0.58842 0.38736
 C3027 C 0.80353 0.58259 0.41702
 C3028 C 0.80669 0.56327 0.41853
 C3029 C 0.82373 0.55651 0.42528
 C3030 C 0.83796 0.56892 0.43065
 C3031 C 0.83480 0.58822 0.42910
 C3032 C 0.81778 0.59497 0.42237
 H3033 H 0.72077 0.58576 0.38284
 H3034 H 0.69227 0.59910 0.36959
 H3035 H 0.71507 0.65449 0.37646
 H3036 H 0.74348 0.64119 0.38972
 H3037 H 0.75438 0.62500 0.41733
 H3038 H 0.78348 0.61243 0.42982
 H3039 H 0.78282 0.56917 0.38781
 H3040 H 0.75366 0.58173 0.37534
 H3041 H 0.79590 0.55338 0.41475
 H3042 H 0.82569 0.54157 0.42652
 H3043 H 0.84561 0.59812 0.43280
 H3044 H 0.81591 0.60992 0.42104
 C3045 C 0.23350 1.11201 0.38795
 C3046 C 0.22998 1.13123 0.38941
 C3047 C 0.21381 1.13902 0.38179
 C3048 C 0.20060 1.12786 0.37226
 C3049 C 0.20426 1.10852 0.37090
 C3050 C 0.22040 1.10075 0.37869
 C3051 C 0.25092 1.10385 0.39581
 C3052 C 0.26046 1.08959 0.38626
 C3053 C 0.27710 1.08228 0.39338
 C3054 C 0.28468 1.08910 0.41017
 C3055 C 0.27504 1.10323 0.41981
 C3056 C 0.25835 1.11047 0.41274
 C3057 C 0.30271 1.08175 0.41741
 C3058 C 0.30555 1.07928 0.43670
 C3059 C 0.32263 1.07265 0.44347
 C3060 C 0.33719 1.06823 0.43110
 C3061 C 0.33435 1.07060 0.41184
 C3062 C 0.31734 1.07733 0.40507
 H3063 H 0.24000 1.14041 0.39604
 H3064 H 0.21231 1.15402 0.38266
 H3065 H 0.19439 1.09905 0.36450
 H3066 H 0.22246 1.08580 0.37768
 H3067 H 0.25527 1.08430 0.37309
 H3068 H 0.28401 1.07122 0.38572
 H3069 H 0.28056 1.10895 0.43267
 H3070 H 0.25123 1.12126 0.42059
 H3071 H 0.29449 1.08226 0.44657
 H3072 H 0.32439 1.07076 0.45838
 H3073 H 0.34544 1.06758 0.40201
 H3074 H 0.31577 1.07941 0.39018
 C3075 C 0.23414 0.61268 0.88765
 C3076 C 0.22116 0.62194 0.89905
 C3077 C 0.20490 0.62963 0.89146
 C3078 C 0.20098 0.62817 0.87216
 C3079 C 0.21409 0.61871 0.86085
 C3080 C 0.23040 0.61119 0.86846
 C3081 C 0.25159 0.60473 0.89566
 C3082 C 0.25890 0.58781 0.88887
 C3083 C 0.27558 0.58062 0.89600
 C3084 C 0.28526 0.59008 0.91020
 C3085 C 0.27785 0.60683 0.91721
 C3086 C 0.26125 0.61412 0.90998
 C3087 C 0.30318 0.58266 0.91743
 C3088 C 0.30686 0.58237 0.93670
 C3089 C 0.32383 0.57546 0.94345
 C3090 C 0.33756 0.56884 0.93106
 C3091 C 0.33385 0.56920 0.91177
 C3092 C 0.31683 0.57595 0.90504
 H3093 H 0.22339 0.62297 0.91398
 H3094 H 0.19511 0.63601 0.90103
 H3095 H 0.21238 0.61778 0.84587
 H3096 H 0.24032 0.60457 0.85917
 H3097 H 0.25166 0.58003 0.87812
 H3098 H 0.28084 0.56754 0.89053
 H3099 H 0.28515 0.61453 0.92800
 H3100 H 0.25619 0.62732 0.91533
 H3101 H 0.29649 0.58727 0.94656
 H3102 H 0.32611 0.57512 0.95839
 H3103 H 0.34424 0.56458 0.90181
 H3104 H 0.31447 0.57628 0.89010
 C3105 C 1.11305 1.26543 1.11219
 C3106 C 1.13248 1.26795 1.11347
 C3107 C 1.13989 1.28448 1.12071
 C3108 C 1.12806 1.29886 1.12686
 C3109 C 1.10863 1.29642 1.12547
 C3110 C 1.10121 1.27989 1.11818
 C3111 C 1.10523 1.24770 1.10483
 C3112 C 1.08973 1.24780 1.09277
 C3113 C 1.08252 1.23107 1.08574
 C3114 C 1.09064 1.21388 1.09062
 C3115 C 1.10604 1.21379 1.10279
 C3116 C 1.11325 1.23050 1.10980
 C3117 C 1.08318 1.19609 1.08300
 C3118 C 1.09541 1.18183 1.07732
 C3119 C 1.08846 1.16500 1.07033
 C3120 C 1.06912 1.16204 1.06883
 C3121 C 1.05687 1.17631 1.07444
 C3122 C 1.06383 1.19316 1.08143
 H3123 H 1.14197 1.25716 1.10877
 H3124 H 1.15491 1.28586 1.12179
 H3125 H 1.09917 1.30733 1.12994
 H3126 H 1.08618 1.27830 1.11752
 H3127 H 1.08340 1.26085 1.08850
 H3128 H 1.07080 1.23161 1.07619
 H3129 H 1.11239 1.20076 1.10709
 H3130 H 1.12498 1.22994 1.11934
 H3131 H 1.11039 1.18373 1.07815
 H3132 H 1.09825 1.15420 1.06633
 H3133 H 1.04190 1.17448 1.07331
 H3134 H 1.05405 1.20381 1.08585
 C3135 C 1.11376 0.76516 0.61257
 C3136 C 1.11947 0.77979 0.60079
 C3137 C 1.12676 0.79629 0.60828
 C3138 C 1.12845 0.79853 0.62771
 C3139 C 1.12263 0.78394 0.63948
 C3140 C 1.11537 0.76746 0.63200
 C3141 C 1.10625 0.74751 0.60468
 C3142 C 1.11126 0.73023 0.61252
 C3143 C 1.10401 0.71361 0.60534
 C3144 C 1.09160 0.71386 0.59013
 C3145 C 1.08671 0.73112 0.58217
 C3146 C 1.09396 0.74777 0.58937
 C3147 C 1.08373 0.69617 0.58272
 C3148 C 1.08196 0.69329 0.56338
 C3149 C 1.07480 0.67649 0.55647
 C3150 C 1.06919 0.66224 0.56874
 C3151 C 1.07084 0.66518 0.58808
 C3152 C 1.07803 0.68194 0.59499
 H3153 H 1.11855 0.77838 0.58576
 H3154 H 1.13097 0.80735 0.59887
 H3155 H 1.12395 0.78515 0.65450
 H3156 H 1.11089 0.75655 0.64145
 H3157 H 1.12097 0.72953 0.62409
 H3158 H 1.10831 0.70051 0.61155
 H3159 H 1.07700 0.73179 0.57060
 H3160 H 1.08965 0.76088 0.58318
 H3161 H 1.08638 0.70392 0.55358
 H3162 H 1.07355 0.67468 0.54150
 H3163 H 1.06684 0.65439 0.59789
 H3164 H 1.07902 0.68382 0.60996
 C3165 C 0.61303 1.26571 0.61195
 C3166 C 0.63246 1.26823 0.61322
 C3167 C 0.63987 1.28473 0.62051
 C3168 C 0.62804 1.29909 0.62672
 C3169 C 0.60861 1.29664 0.62533
 C3170 C 0.60119 1.28014 0.61799
 C3171 C 0.60521 1.24800 0.60452
 C3172 C 0.58973 1.24814 0.59245
 C3173 C 0.58253 1.23143 0.58534
 C3174 C 0.59065 1.21422 0.59018
 C3175 C 0.60604 1.21410 0.60236
 C3176 C 0.61324 1.23078 0.60944
 C3177 C 0.58319 1.19646 0.58250
 C3178 C 0.59542 1.18219 0.57682
 C3179 C 0.58847 1.16537 0.56981
 C3180 C 0.56913 1.16242 0.56828
 C3181 C 0.55689 1.17670 0.57388
 C3182 C 0.56384 1.19355 0.58089
 H3183 H 0.64195 1.25745 0.60848
 H3184 H 0.65489 1.28612 0.62158
 H3185 H 0.59915 1.30754 0.62985
 H3186 H 0.58616 1.27855 0.61734
 H3187 H 0.58340 1.26120 0.58822
 H3188 H 0.57082 1.23201 0.57579
 H3189 H 0.61239 1.20105 0.60663
 H3190 H 0.62496 1.23019 0.61899
 H3191 H 0.61040 1.18408 0.57767
 H3192 H 0.59827 1.15456 0.56583
 H3193 H 0.54192 1.17488 0.57272
 H3194 H 0.55407 1.20420 0.58531
 C3195 C 0.61255 0.76513 1.11302
 C3196 C 0.60075 0.77975 1.11871
 C3197 C 0.60821 0.79627 1.12598
 C3198 C 0.62764 0.79854 1.12766
 C3199 C 0.63942 0.78396 1.12187
 C3200 C 0.63197 0.76746 1.11463
 C3201 C 0.60470 0.74744 1.10555
 C3202 C 0.61256 0.73018 1.11058
 C3203 C 0.60540 0.71354 1.10337
 C3204 C 0.59020 0.71374 1.09096
 C3205 C 0.58222 0.73098 1.08604
 C3206 C 0.58939 0.74766 1.09325
 C3207 C 0.58282 0.69602 1.08313
 C3208 C 0.56348 0.69311 1.08136
 C3209 C 0.55658 0.67629 1.07425
 C3210 C 0.56888 0.66203 1.06869
 C3211 C 0.58821 0.66500 1.07033
 C3212 C 0.59509 0.68179 1.07747
 H3213 H 0.58572 0.77830 1.11779
 H3214 H 0.59878 0.80732 1.13017
 H3215 H 0.65444 0.78520 1.12319
 H3216 H 0.64144 0.75655 1.11016
 H3217 H 0.62413 0.72953 1.12030
 H3218 H 0.61164 0.70046 1.10770
 H3219 H 0.57065 0.73161 1.07632
 H3220 H 0.58318 0.76074 1.08892
 H3221 H 0.55367 0.70375 1.08576
 H3222 H 0.54162 0.67446 1.07301
 H3223 H 0.59802 0.65421 1.06636
 H3224 H 0.61006 0.68369 1.07845
 C3225 C 0.88715 1.26490 0.88622
 C3226 C 0.88112 1.27947 0.89792
 C3227 C 0.87351 1.29577 0.89035
 C3228 C 0.87174 1.29787 0.87090
 C3229 C 0.87779 1.28332 0.85921
 C3230 C 0.88541 1.26703 0.86678
 C3231 C 0.89510 1.24750 0.89422
 C3232 C 0.91056 1.23882 0.88580
 C3233 C 0.91782 1.22224 0.89310
 C3234 C 0.90979 1.21395 0.90898
 C3235 C 0.89444 1.22273 0.91751
 C3236 C 0.88718 1.23932 0.91021
 C3237 C 0.91724 1.19609 0.91644
 C3238 C 0.91875 1.19314 0.93580
 C3239 C 0.92564 1.17625 0.94276
 C3240 C 0.93117 1.16194 0.93052
 C3241 C 0.92966 1.16490 0.91117
 C3242 C 0.92278 1.18177 0.90422
 H3243 H 0.88252 1.27836 0.91294
 H3244 H 0.86922 1.30685 0.89970
 H3245 H 0.87632 1.28439 0.84419
 H3246 H 0.88963 1.25594 0.85741
 H3247 H 0.91717 1.24495 0.87366
 H3248 H 0.92985 1.21600 0.88640
 H3249 H 0.88778 1.21655 0.92959
 H3250 H 0.87510 1.24553 0.91685
 H3251 H 0.91484 1.20400 0.94557
 H3252 H 0.92686 1.17446 0.95773
 H3253 H 0.93348 1.15402 0.90139
 H3254 H 0.92147 1.18347 0.88925
 C3255 C 0.88736 0.76524 0.38637
 C3256 C 0.88131 0.77976 0.39812
 C3257 C 0.87364 0.79606 0.39059
 C3258 C 0.87184 0.79819 0.37116
 C3259 C 0.87788 0.78366 0.35943
 C3260 C 0.88555 0.76739 0.36694
 C3261 C 0.89544 0.74787 0.39432
 C3262 C 0.91092 0.73930 0.38583
 C3263 C 0.91830 0.72275 0.39305
 C3264 C 0.91036 0.71437 0.40892
 C3265 C 0.89498 0.72303 0.41752
 C3266 C 0.88761 0.73960 0.41030
 C3267 C 0.91791 0.69651 0.41630
 C3268 C 0.91948 0.69351 0.43564
 C3269 C 0.92641 0.67661 0.44253
 C3270 C 0.93194 0.66235 0.43023
 C3271 C 0.93040 0.66537 0.41090
 C3272 C 0.92348 0.68226 0.40402
 H3273 H 0.88275 0.77863 0.41313
 H3274 H 0.86935 0.80711 0.39998
 H3275 H 0.87638 0.78475 0.34442
 H3276 H 0.88978 0.75632 0.35754
 H3277 H 0.91746 0.74551 0.37369
 H3278 H 0.93034 0.71659 0.38630
 H3279 H 0.88839 0.71678 0.42961
 H3280 H 0.87552 0.74573 0.41700
 H3281 H 0.91556 0.70432 0.44546
 H3282 H 0.92766 0.67477 0.45749
 H3283 H 0.93423 0.65453 0.40107
 H3284 H 0.92214 0.68401 0.38905
 C3285 C 0.38643 1.26482 0.38595
 C3286 C 0.38033 1.27932 0.39769
 C3287 C 0.37278 1.29567 0.39016
 C3288 C 0.37116 1.29788 0.37072
 C3289 C 0.37727 1.28339 0.35898
 C3290 C 0.38482 1.26705 0.36651
 C3291 C 0.39435 1.24739 0.39392
 C3292 C 0.40987 1.23877 0.38557
 C3293 C 0.41715 1.22221 0.39287
 C3294 C 0.40906 1.21387 0.40870
 C3295 C 0.39363 1.22257 0.41715
 C3296 C 0.38636 1.23915 0.40984
 C3297 C 0.41656 1.19605 0.41620
 C3298 C 0.41803 1.19314 0.43557
 C3299 C 0.42498 1.17629 0.44257
 C3300 C 0.43063 1.16200 0.43037
 C3301 C 0.42915 1.16492 0.41101
 C3302 C 0.42221 1.18174 0.40401
 H3303 H 0.38163 1.27813 0.41271
 H3304 H 0.36845 1.30670 0.39955
 H3305 H 0.37593 1.28456 0.34396
 H3306 H 0.38911 1.25601 0.35711
 H3307 H 0.41653 1.24495 0.37348
 H3308 H 0.42924 1.21601 0.38624
 H3309 H 0.38693 1.21635 0.42919
 H3310 H 0.37422 1.24531 0.41644
 H3311 H 0.41403 1.20399 0.44531
 H3312 H 0.42617 1.17453 0.45755
 H3313 H 0.43306 1.15404 0.40126
 H3314 H 0.42094 1.18343 0.38904
 C3315 C 0.38854 0.76634 0.88781
 C3316 C 0.38240 0.78089 0.89948
 C3317 C 0.37467 0.79713 0.89186
 C3318 C 0.37292 0.79916 0.87241
 C3319 C 0.37906 0.78461 0.86076
 C3320 C 0.38678 0.76840 0.86837
 C3321 C 0.39660 0.74899 0.89582
 C3322 C 0.41206 0.74037 0.88735
 C3323 C 0.41929 0.72372 0.89450
 C3324 C 0.41123 0.71530 0.91028
 C3325 C 0.39593 0.72405 0.91892
 C3326 C 0.38869 0.74071 0.91177
 C3327 C 0.41855 0.69727 0.91748
 C3328 C 0.42008 0.69403 0.93678
 C3329 C 0.42679 0.67697 0.94348
 C3330 C 0.43213 0.66277 0.93102
 C3331 C 0.43062 0.66603 0.91172
 C3332 C 0.42391 0.68307 0.90503
 H3333 H 0.38379 0.77981 0.91450
 H3334 H 0.37029 0.80820 0.90118
 H3335 H 0.37758 0.78561 0.84574
 H3336 H 0.39106 0.75731 0.85902
 H3337 H 0.41866 0.74658 0.87524
 H3338 H 0.43130 0.71750 0.88773
 H3339 H 0.38926 0.71777 0.93095
 H3340 H 0.37662 0.74688 0.91846
 H3341 H 0.41629 0.70479 0.94671
 H3342 H 0.42802 0.67495 0.95842
 H3343 H 0.43429 0.65524 0.90178
 H3344 H 0.42259 0.68501 0.89009
 C3345 C 1.11211 0.73416 0.88820
 C3346 C 1.11820 0.71960 0.89988
 C3347 C 1.12585 0.70332 0.89227
 C3348 C 1.12759 0.70127 0.87282
 C3349 C 1.12154 0.71586 0.86116
 C3350 C 1.11389 0.73210 0.86876
 C3351 C 1.10407 0.75153 0.89620
 C3352 C 1.08862 0.76015 0.88771
 C3353 C 1.08137 0.77678 0.89487
 C3354 C 1.08940 0.78519 0.91068
 C3355 C 1.10469 0.77644 0.91934
 C3356 C 1.11195 0.75979 0.91218
 C3357 C 1.08204 0.80319 0.91790
 C3358 C 1.08050 0.80640 0.93721
 C3359 C 1.07372 0.82343 0.94393
 C3360 C 1.06834 0.83763 0.93149
 C3361 C 1.06988 0.83441 0.91219
 C3362 C 1.07665 0.81740 0.90547
 H3363 H 1.11679 0.72068 0.91490
 H3364 H 1.13016 0.69223 0.90159
 H3365 H 1.12301 0.71484 0.84615
 H3366 H 1.10965 0.74321 0.85942
 H3367 H 1.08203 0.75395 0.87559
 H3368 H 1.06936 0.78300 0.88809
 H3369 H 1.11135 0.78270 0.93139
 H3370 H 1.12401 0.75361 0.91888
 H3371 H 1.08430 0.79564 0.94713
 H3372 H 1.07247 0.82543 0.95887
 H3373 H 1.06618 0.84520 0.90225
 H3374 H 1.07799 0.81549 0.89053
 C3375 C 1.11456 0.23640 0.38527
 C3376 C 1.10272 0.22198 0.37917
 C3377 C 1.11014 0.20552 0.37175
 C3378 C 1.12956 0.20310 0.37031
 C3379 C 1.14140 0.21750 0.37645
 C3380 C 1.13398 0.23396 0.38383
 C3381 C 1.10671 0.25394 0.39307
 C3382 C 1.11460 0.27129 0.38844
 C3383 C 1.10732 0.28780 0.39586
 C3384 C 1.09198 0.28733 0.40811
 C3385 C 1.08404 0.26998 0.41268
 C3386 C 1.09132 0.25346 0.40525
 C3387 C 1.08436 0.30490 0.41608
 C3388 C 1.06498 0.30755 0.41776
 C3389 C 1.05784 0.32420 0.42505
 C3390 C 1.06993 0.33853 0.43087
 C3391 C 1.08930 0.33582 0.42929
 C3392 C 1.09643 0.31920 0.42199
 H3393 H 1.08769 0.22352 0.37993
 H3394 H 1.10067 0.19460 0.36730
 H3395 H 1.15642 0.21612 0.37535
 H3396 H 1.14347 0.24473 0.38859
 H3397 H 1.12626 0.27214 0.37885
 H3398 H 1.11354 0.30097 0.39180
 H3399 H 1.07239 0.26914 0.42228
 H3400 H 1.08511 0.24028 0.40929
 H3401 H 1.05531 0.29687 0.41317
 H3402 H 1.04285 0.32582 0.42623
 H3403 H 1.09897 0.34668 0.43344
 H3404 H 1.11143 0.31750 0.42108
 C3405 C 0.61405 0.73596 0.38568
 C3406 C 0.60220 0.72149 0.37969
 C3407 C 0.60962 0.70500 0.37233
 C3408 C 0.62905 0.70259 0.37084
 C3409 C 0.64088 0.71703 0.37690
 C3410 C 0.63347 0.73352 0.38422
 C3411 C 0.60620 0.75356 0.39335
 C3412 C 0.61410 0.77087 0.38858
 C3413 C 0.60685 0.78744 0.39588
 C3414 C 0.59152 0.78709 0.40814
 C3415 C 0.58355 0.76978 0.41284
 C3416 C 0.59081 0.75320 0.40552
 C3417 C 0.58395 0.80472 0.41601
 C3418 C 0.56457 0.80744 0.41770
 C3419 C 0.55749 0.82415 0.42490
 C3420 C 0.56962 0.83849 0.43061
 C3421 C 0.58899 0.83572 0.42901
 C3422 C 0.59606 0.81904 0.42180
 H3423 H 0.58718 0.72301 0.38047
 H3424 H 0.60016 0.69405 0.36794
 H3425 H 0.65590 0.71567 0.37575
 H3426 H 0.64296 0.74432 0.38890
 H3427 H 0.62576 0.77164 0.37898
 H3428 H 0.61309 0.80057 0.39172
 H3429 H 0.57190 0.76902 0.42245
 H3430 H 0.58458 0.74006 0.40966
 H3431 H 0.55488 0.79675 0.41320
 H3432 H 0.54251 0.82581 0.42610
 H3433 H 0.59869 0.84658 0.43307
 H3434 H 0.61105 0.81729 0.42088
 C3435 C 0.61350 0.23582 0.88530
 C3436 C 0.63292 0.23349 0.88367
 C3437 C 0.64037 0.21698 0.87644
 C3438 C 0.62857 0.20240 0.87066
 C3439 C 0.60915 0.20471 0.87228
 C3440 C 0.60169 0.22123 0.87955
 C3441 C 0.60563 0.25342 0.89296
 C3442 C 0.59032 0.25303 0.90525
 C3443 C 0.58307 0.26960 0.91261
 C3444 C 0.59097 0.28692 0.90784
 C3445 C 0.60619 0.28731 0.89546
 C3446 C 0.61344 0.27076 0.88811
 C3447 C 0.58343 0.30454 0.91578
 C3448 C 0.59558 0.31883 0.92156
 C3449 C 0.58853 0.33549 0.92885
 C3450 C 0.56918 0.33826 0.93052
 C3451 C 0.55702 0.32395 0.92481
 C3452 C 0.56407 0.30726 0.91755
 H3453 H 0.64240 0.24439 0.88817
 H3454 H 0.65538 0.21570 0.87518
 H3455 H 0.59970 0.19366 0.86811
 H3456 H 0.58667 0.22267 0.88045
 H3457 H 0.58417 0.23988 0.90947
 H3458 H 0.57150 0.26883 0.92231
 H3459 H 0.61237 0.30045 0.89125
 H3460 H 0.62502 0.27155 0.87842
 H3461 H 0.61056 0.31708 0.92058
 H3462 H 0.59825 0.34634 0.93292
 H3463 H 0.54204 0.32563 0.92607
 H3464 H 0.55435 0.29658 0.91306
 C3465 C 0.88795 0.73433 1.11149
 C3466 C 0.89966 0.71983 1.11764
 C3467 C 0.89210 0.70350 1.12521
 C3468 C 0.87265 0.70133 1.12681
 C3469 C 0.86095 0.71583 1.12065
 C3470 C 0.86851 0.73213 1.11307
 C3471 C 0.89592 0.75178 1.10360
 C3472 C 0.88755 0.76043 1.08810
 C3473 C 0.89472 0.77711 1.08097
 C3474 C 0.91044 0.78553 1.08918
 C3475 C 0.91897 0.77676 1.10454
 C3476 C 0.91179 0.76007 1.11167
 C3477 C 0.91772 0.80354 1.08191
 C3478 C 0.93703 0.80673 1.08050
 C3479 C 0.94381 0.82376 1.07376
 C3480 C 0.93141 0.83797 1.06830
 C3481 C 0.91210 0.83477 1.06974
 C3482 C 0.90533 0.81776 1.07646
 H3483 H 0.91469 0.72101 1.11637
 H3484 H 0.90146 0.69247 1.12961
 H3485 H 0.84593 0.71471 1.12200
 H3486 H 0.85913 0.74318 1.10877
 H3487 H 0.87551 0.75421 1.08138
 H3488 H 0.88805 0.78334 1.06892
 H3489 H 0.93094 0.78304 1.11132
 H3490 H 0.91839 0.75388 1.12379
 H3491 H 0.94692 0.79596 1.08436
 H3492 H 0.95875 0.82574 1.07260
 H3493 H 0.90220 0.84556 1.06598
 H3494 H 0.89038 0.81585 1.07770
 C3495 C 0.88604 0.23603 0.61377
 C3496 C 0.89777 0.22154 0.61992
 C3497 C 0.89022 0.20520 0.62747
 C3498 C 0.87078 0.20298 0.62904
 C3499 C 0.85906 0.21748 0.62291
 C3500 C 0.86660 0.23381 0.61536
 C3501 C 0.89402 0.25343 0.60579
 C3502 C 0.88566 0.26200 0.59023
 C3503 C 0.89297 0.27852 0.58288
 C3504 C 0.90881 0.28688 0.59092
 C3505 C 0.91727 0.27823 0.60639
 C3506 C 0.90996 0.26169 0.61374
 C3507 C 0.91632 0.30466 0.58334
 C3508 C 0.93569 0.30755 0.58185
 C3509 C 0.94270 0.32436 0.57482
 C3510 C 0.93050 0.33865 0.56913
 C3511 C 0.91115 0.33575 0.57063
 C3512 C 0.90414 0.31896 0.57765
 H3513 H 0.91279 0.22273 0.61863
 H3514 H 0.89960 0.19417 0.63182
 H3515 H 0.84404 0.21631 0.62422
 H3516 H 0.85721 0.24484 0.61104
 H3517 H 0.87356 0.25580 0.58359
 H3518 H 0.88633 0.28467 0.57077
 H3519 H 0.92933 0.28447 0.61306
 H3520 H 0.91656 0.25558 0.62589
 H3521 H 0.94542 0.29670 0.58588
 H3522 H 0.95767 0.32610 0.57361
 H3523 H 0.90140 0.34662 0.56669
 H3524 H 0.88917 0.31729 0.57894
 C3525 C 0.38836 0.73421 0.61179
 C3526 C 0.36892 0.73201 0.61329
 C3527 C 0.36132 0.71572 0.62085
 C3528 C 0.37299 0.70122 0.62707
 C3529 C 0.39244 0.70340 0.62558
 C3530 C 0.40005 0.71972 0.61802
 C3531 C 0.39636 0.75163 0.60387
 C3532 C 0.41220 0.75995 0.61196
 C3533 C 0.41938 0.77663 0.60480
 C3534 C 0.41089 0.78536 0.58940
 C3535 C 0.39520 0.77690 0.58118
 C3536 C 0.38802 0.76023 0.58832
 C3537 C 0.41814 0.80337 0.58213
 C3538 C 0.40574 0.81756 0.57664
 C3539 C 0.41248 0.83457 0.56990
 C3540 C 0.43178 0.83780 0.56848
 C3541 C 0.44420 0.82364 0.57398
 C3542 C 0.43745 0.80660 0.58074
 H3543 H 0.35955 0.74305 0.60893
 H3544 H 0.34630 0.71460 0.62212
 H3545 H 0.40178 0.69237 0.63003
 H3546 H 0.41508 0.72089 0.61681
 H3547 H 0.41878 0.75379 0.62410
 H3548 H 0.43133 0.78294 0.61160
 H3549 H 0.38855 0.78311 0.56909
 H3550 H 0.37601 0.75399 0.58158
 H3551 H 0.39079 0.81563 0.57786
 H3552 H 0.40256 0.84533 0.56611
 H3553 H 0.45915 0.82564 0.57283
 H3554 H 0.44735 0.79586 0.58463
 C3555 C 0.38735 0.23494 1.11270
 C3556 C 0.39907 0.22052 1.11900
 C3557 C 0.39151 0.20417 1.12653
 C3558 C 0.37206 0.20189 1.12792
 C3559 C 0.36035 0.21632 1.12162
 C3560 C 0.36790 0.23265 1.11410
 C3561 C 0.39532 0.25238 1.10479
 C3562 C 0.38704 0.26094 1.08919
 C3563 C 0.39426 0.27756 1.08199
 C3564 C 0.40994 0.28603 1.09023
 C3565 C 0.41836 0.27738 1.10571
 C3566 C 0.41113 0.26074 1.11291
 C3567 C 0.41729 0.30396 1.08285
 C3568 C 0.43662 0.30709 1.08149
 C3569 C 0.44347 0.32404 1.07462
 C3570 C 0.43113 0.33822 1.06898
 C3571 C 0.41181 0.33509 1.07038
 C3572 C 0.40497 0.31816 1.07722
 H3573 H 0.41410 0.22176 1.11787
 H3574 H 0.40088 0.19319 1.13104
 H3575 H 0.34532 0.21511 1.12280
 H3576 H 0.35851 0.24364 1.10967
 H3577 H 0.37505 0.25467 1.08242
 H3578 H 0.38766 0.28372 1.06986
 H3579 H 0.43029 0.28369 1.11251
 H3580 H 0.41767 0.25463 1.12510
 H3581 H 0.44646 0.29632 1.08549
 H3582 H 0.45843 0.32596 1.07350
 H3583 H 0.40195 0.34588 1.06648
 H3584 H 0.39001 0.31631 1.07842
 C3585 C 1.11312 1.11341 0.73461
 C3586 C 1.11156 1.13255 0.73083
 C3587 C 1.11877 1.14005 0.71433
 C3588 C 1.12802 1.12864 0.70114
 C3589 C 1.12943 1.10934 0.70510
 C3590 C 1.12200 1.10187 0.72153
 C3591 C 1.10567 1.10558 0.75227
 C3592 C 1.09529 1.08894 0.75225
 C3593 C 1.08811 1.08172 0.76891
 C3594 C 1.09128 1.09092 0.78599
 C3595 C 1.10185 1.10748 0.78597
 C3596 C 1.10889 1.11476 0.76930
 C3597 C 1.08356 1.08337 0.80374
 C3598 C 1.07676 1.09550 0.81759
 C3599 C 1.06976 1.08849 0.83439
 C3600 C 1.06924 1.06916 0.83772
 C3601 C 1.07590 1.05700 0.82382
 C3602 C 1.08302 1.06402 0.80705
 H3603 H 1.10470 1.14177 0.74067
 H3604 H 1.11776 1.15500 0.71252
 H3605 H 1.13570 1.09972 0.69530
 H3606 H 1.12339 1.08703 0.72412
 H3607 H 1.09244 1.08170 0.73928
 H3608 H 1.07979 1.06911 0.76837
 H3609 H 1.10490 1.11472 0.79889
 H3610 H 1.11709 1.12746 0.76975
 H3611 H 1.07671 1.11046 0.81542
 H3612 H 1.06500 1.09828 0.84489
 H3613 H 1.07552 1.04202 0.82585
 H3614 H 1.08834 1.05429 0.79678
 C3615 C 1.11311 0.61271 0.23403
 C3616 C 1.13229 0.61126 0.23024
 C3617 C 1.13985 0.61887 0.21395
 C3618 C 1.12850 0.62840 0.20092
 C3619 C 1.10922 0.62982 0.20489
 C3620 C 1.10167 0.62203 0.22111
 C3621 C 1.10513 0.60468 0.25146
 C3622 C 1.09078 0.61398 0.26113
 C3623 C 1.08352 0.60658 0.27767
 C3624 C 1.09054 0.58980 0.28499
 C3625 C 1.10480 0.58044 0.27532
 C3626 C 1.11195 0.58774 0.25870
 C3627 C 1.08324 0.58225 0.30283
 C3628 C 1.09556 0.57554 0.31654
 C3629 C 1.08876 0.56874 0.33351
 C3630 C 1.06945 0.56832 0.33710
 C3631 C 1.05712 0.57490 0.32329
 C3632 C 1.06395 0.58187 0.30638
 H3633 H 1.14160 0.60459 0.24011
 H3634 H 1.15482 0.61795 0.21219
 H3635 H 1.09962 0.63624 0.19515
 H3636 H 1.08675 0.62303 0.22336
 H3637 H 1.08542 0.62720 0.25614
 H3638 H 1.07269 0.61420 0.28498
 H3639 H 1.11028 0.56734 0.28053
 H3640 H 1.12273 0.58001 0.25144
 H3641 H 1.11051 0.57593 0.31428
 H3642 H 1.09867 0.56414 0.34396
 H3643 H 1.04217 0.57450 0.32547
 H3644 H 1.05414 0.58675 0.29595
 C3645 C 0.61235 1.11340 0.23419
 C3646 C 0.61365 1.13282 0.23171
 C3647 C 0.62094 1.14026 0.21521
 C3648 C 0.62710 1.12844 0.20081
 C3649 C 0.62569 1.10902 0.20322
 C3650 C 0.61836 1.10157 0.21971
 C3651 C 0.60492 1.10556 0.25189
 C3652 C 0.59283 1.09009 0.25171
 C3653 C 0.58572 1.08287 0.26841
 C3654 C 0.59056 1.09096 0.28564
 C3655 C 0.60276 1.10633 0.28580
 C3656 C 0.60985 1.11354 0.26912
 C3657 C 0.58287 1.08348 0.30340
 C3658 C 0.57718 1.09569 0.31767
 C3659 C 0.57016 1.08873 0.33448
 C3660 C 0.56865 1.06939 0.33742
 C3661 C 0.57426 1.05716 0.32312
 C3662 C 0.58127 1.06413 0.30628
 H3663 H 0.60894 1.14230 0.24251
 H3664 H 0.62203 1.15527 0.21386
 H3665 H 0.63017 1.09957 0.19229
 H3666 H 0.61768 1.08655 0.22127
 H3667 H 0.58859 1.08379 0.23864
 H3668 H 0.57616 1.07118 0.26781
 H3669 H 0.60703 1.11265 0.29886
 H3670 H 0.61940 1.12525 0.26974
 H3671 H 0.57804 1.11067 0.31580
 H3672 H 0.56617 1.09851 0.34530
 H3673 H 0.57311 1.04219 0.32492
 H3674 H 0.58570 1.05437 0.29562
 C3675 C 0.61328 0.61364 0.73479
 C3676 C 0.63271 0.61517 0.73242
 C3677 C 0.64014 0.62250 0.71594
 C3678 C 0.62833 0.62848 0.70145
 C3679 C 0.60891 0.62690 0.70378
 C3680 C 0.60146 0.61953 0.72026
 C3681 C 0.60544 0.60603 0.75241
 C3682 C 0.59010 0.59379 0.75209
 C3683 C 0.58289 0.58648 0.76870
 C3684 C 0.59086 0.59126 0.78600
 C3685 C 0.60611 0.60361 0.78631
 C3686 C 0.61331 0.61090 0.76972
 C3687 C 0.58339 0.58336 0.80367
 C3688 C 0.59560 0.57764 0.81794
 C3689 C 0.58863 0.57044 0.83467
 C3690 C 0.56928 0.56880 0.83753
 C3691 C 0.55706 0.57442 0.82324
 C3692 C 0.56404 0.58160 0.80647
 H3693 H 0.64219 0.61056 0.74326
 H3694 H 0.65516 0.62372 0.71465
 H3695 H 0.59946 0.63124 0.69279
 H3696 H 0.58644 0.61869 0.72174
 H3697 H 0.58388 0.58958 0.73896
 H3698 H 0.57129 0.57680 0.76799
 H3699 H 0.61235 0.60783 0.79943
 H3700 H 0.62492 0.62057 0.77046
 H3701 H 0.61058 0.57861 0.81612
 H3702 H 0.59840 0.56644 0.84550
 H3703 H 0.54209 0.57318 0.82498
 H3704 H 0.55428 0.58605 0.79581
 C3705 C 0.88697 0.88700 0.73468
 C3706 C 0.88548 0.86758 0.73225
 C3707 C 0.87818 0.86018 0.71575
 C3708 C 0.87220 0.87201 0.70128
 C3709 C 0.87377 0.89143 0.70365
 C3710 C 0.88110 0.89884 0.72017
 C3711 C 0.89449 0.89483 0.75236
 C3712 C 0.90668 0.91022 0.75213
 C3713 C 0.91387 0.91744 0.76879
 C3714 C 0.90902 0.90943 0.78605
 C3715 C 0.89674 0.89412 0.78627
 C3716 C 0.88956 0.88691 0.76962
 C3717 C 0.91679 0.91691 0.80377
 C3718 C 0.92250 0.90472 0.81804
 C3719 C 0.92960 0.91170 0.83482
 C3720 C 0.93116 0.93105 0.83772
 C3721 C 0.92552 0.94326 0.82342
 C3722 C 0.91844 0.93627 0.80661
 H3723 H 0.89008 0.85809 0.74309
 H3724 H 0.87697 0.84516 0.71442
 H3725 H 0.86943 0.90089 0.69269
 H3726 H 0.88191 0.91386 0.72169
 H3727 H 0.91093 0.91647 0.73903
 H3728 H 0.92349 0.92908 0.76815
 H3729 H 0.89247 0.88786 0.79935
 H3730 H 0.87994 0.87527 0.77029
 H3731 H 0.92161 0.88974 0.81620
 H3732 H 0.93362 0.90194 0.84565
 H3733 H 0.92669 0.95823 0.82519
 H3734 H 0.91399 0.94602 0.79595
 C3735 C 0.88577 0.38613 0.23548
 C3736 C 0.88405 0.36672 0.23320
 C3737 C 0.87673 0.35927 0.21672
 C3738 C 0.87095 0.37105 0.20213
 C3739 C 0.87268 0.39047 0.20439
 C3740 C 0.88003 0.39793 0.22087
 C3741 C 0.89348 0.39401 0.25305
 C3742 C 0.90585 0.40924 0.25262
 C3743 C 0.91325 0.41650 0.26918
 C3744 C 0.90844 0.40867 0.28653
 C3745 C 0.89598 0.39351 0.28695
 C3746 C 0.88859 0.38627 0.27041
 C3747 C 0.91641 0.41622 0.30413
 C3748 C 0.92210 0.40409 0.31848
 C3749 C 0.92938 0.41114 0.33515
 C3750 C 0.93112 0.43049 0.33788
 C3751 C 0.92552 0.44264 0.32351
 C3752 C 0.91827 0.43557 0.30681
 H3753 H 0.88853 0.35725 0.24410
 H3754 H 0.87538 0.34426 0.21548
 H3755 H 0.86850 0.39990 0.19333
 H3756 H 0.88101 0.41295 0.22228
 H3757 H 0.91010 0.41534 0.23945
 H3758 H 0.92301 0.42802 0.26838
 H3759 H 0.89174 0.38740 0.30012
 H3760 H 0.87883 0.37475 0.27123
 H3761 H 0.92104 0.38910 0.31676
 H3762 H 0.93336 0.40143 0.34604
 H3763 H 0.92684 0.45761 0.32515
 H3764 H 0.91385 0.44528 0.29609
 C3765 C 0.38761 0.88702 0.23438
 C3766 C 0.36819 0.88538 0.23204
 C3767 C 0.36076 0.87810 0.21554
 C3768 C 0.37257 0.87230 0.20098
 C3769 C 0.39199 0.87403 0.20326
 C3770 C 0.39943 0.88134 0.21977
 C3771 C 0.39544 0.89452 0.25207
 C3772 C 0.41071 0.90685 0.25186
 C3773 C 0.41786 0.91408 0.26853
 C3774 C 0.40990 0.90912 0.28578
 C3775 C 0.39473 0.89667 0.28598
 C3776 C 0.38759 0.88945 0.26933
 C3777 C 0.41727 0.91696 0.30351
 C3778 C 0.40499 0.92255 0.31776
 C3779 C 0.41186 0.92968 0.33457
 C3780 C 0.43119 0.93137 0.33753
 C3781 C 0.44349 0.92587 0.32326
 C3782 C 0.43660 0.91877 0.30642
 H3783 H 0.35871 0.88984 0.24294
 H3784 H 0.34575 0.87675 0.21429
 H3785 H 0.40143 0.86983 0.19222
 H3786 H 0.41445 0.88229 0.22122
 H3787 H 0.41690 0.91121 0.23876
 H3788 H 0.42941 0.92383 0.26791
 H3789 H 0.38852 0.89232 0.29906
 H3790 H 0.37605 0.87971 0.26998
 H3791 H 0.39002 0.92153 0.31586
 H3792 H 0.40203 0.93359 0.34537
 H3793 H 0.45845 0.92716 0.32509
 H3794 H 0.44642 0.91442 0.29577
 C3795 C 0.38586 0.38646 0.73501
 C3796 C 0.37708 0.39804 0.72189
 C3797 C 0.36968 0.39059 0.70543
 C3798 C 0.37105 0.37129 0.70146
 C3799 C 0.38012 0.35983 0.71474
 C3800 C 0.38730 0.36731 0.73127
 C3801 C 0.39342 0.39430 0.75263
 C3802 C 0.39025 0.38517 0.76970
 C3803 C 0.39743 0.39245 0.78631
 C3804 C 0.40809 0.40895 0.78623
 C3805 C 0.41122 0.41809 0.76913
 C3806 C 0.40390 0.41087 0.75252
 C3807 C 0.41595 0.41650 0.80392
 C3808 C 0.41661 0.43586 0.80717
 C3809 C 0.42387 0.44290 0.82389
 C3810 C 0.43055 0.43075 0.83779
 C3811 C 0.42992 0.41141 0.83452
 C3812 C 0.42278 0.40438 0.81778
 H3813 H 0.37576 0.41289 0.72445
 H3814 H 0.36353 0.40025 0.69558
 H3815 H 0.38106 0.34487 0.71293
 H3816 H 0.39407 0.35806 0.74114
 H3817 H 0.38197 0.37253 0.77022
 H3818 H 0.39442 0.38526 0.79926
 H3819 H 0.41961 0.43065 0.76851
 H3820 H 0.40673 0.41807 0.73952
 H3821 H 0.41128 0.44559 0.79691
 H3822 H 0.42433 0.45788 0.82587
 H3823 H 0.43470 0.40163 0.84502
 H3824 H 0.42274 0.38942 0.81565
 C3825 C 1.11157 0.88824 1.26632
 C3826 C 1.10986 0.86907 1.27002
 C3827 C 1.11748 0.86130 1.28621
 C3828 C 1.12729 0.87243 1.29923
 C3829 C 1.12891 0.89172 1.29538
 C3830 C 1.12110 0.89947 1.27925
 C3831 C 1.10365 0.89637 1.24891
 C3832 C 1.11318 0.91058 1.23925
 C3833 C 1.10597 0.91786 1.22262
 C3834 C 1.08917 0.91098 1.21520
 C3835 C 1.07955 0.89691 1.22489
 C3836 C 1.08665 0.88976 1.24160
 C3837 C 1.08189 0.91817 1.19720
 C3838 C 1.07526 0.90576 1.18354
 C3839 C 1.06867 0.91244 1.16644
 C3840 C 1.06838 0.93171 1.16266
 C3841 C 1.07493 0.94413 1.17641
 C3842 C 1.08169 0.93742 1.19346
 H3843 H 1.10302 0.85989 1.26014
 H3844 H 1.11639 0.84633 1.28787
 H3845 H 1.13555 0.90116 1.30513
 H3846 H 1.12230 0.91438 1.27707
 H3847 H 1.12644 0.91580 1.24429
 H3848 H 1.11378 0.92854 1.21530
 H3849 H 1.06643 0.89155 1.21961
 H3850 H 1.07875 0.87910 1.24885
 H3851 H 1.07553 0.89084 1.18595
 H3852 H 1.06411 0.90245 1.15604
 H3853 H 1.07463 0.95906 1.17408
 H3854 H 1.08654 0.94730 1.20384
 C3855 C 1.11087 0.38806 0.76651
 C3856 C 1.11221 0.36861 0.76870
 C3857 C 1.11985 0.36095 0.78493
 C3858 C 1.12634 0.37256 0.79936
 C3859 C 1.12494 0.39201 0.79722
 C3860 C 1.11729 0.39969 0.78097
 C3861 C 1.10299 0.39615 0.74910
 C3862 C 1.11121 0.41192 0.74078
 C3863 C 1.10413 0.41917 0.72409
 C3864 C 1.08868 0.41079 0.71533
 C3865 C 1.08033 0.39517 0.72377
 C3866 C 1.08739 0.38794 0.74046
 C3867 C 1.08151 0.41809 0.69728
 C3868 C 1.07601 0.40573 0.68306
 C3869 C 1.06938 0.41252 0.66602
 C3870 C 1.06808 0.43183 0.66279
 C3871 C 1.07359 0.44421 0.67700
 C3872 C 1.08024 0.43741 0.69406
 H3873 H 1.10769 0.35928 0.75768
 H3874 H 1.12104 0.34591 0.78602
 H3875 H 1.12959 0.40131 0.80821
 H3876 H 1.11620 0.41472 0.77982
 H3877 H 1.12340 0.41840 0.74695
 H3878 H 1.11102 0.43106 0.71780
 H3879 H 1.06821 0.38861 0.71753
 H3880 H 1.08055 0.37598 0.74668
 H3881 H 1.07714 0.39078 0.68499
 H3882 H 1.06558 0.40262 0.65523
 H3883 H 1.07252 0.45916 0.67500
 H3884 H 1.08415 0.44728 0.70483
 C3885 C 0.61235 0.88842 0.76587
 C3886 C 0.63179 0.88696 0.76815
 C3887 C 0.63934 0.87931 0.78443
 C3888 C 0.62763 0.87294 0.79883
 C3889 C 0.60818 0.87442 0.79658
 C3890 C 0.60063 0.88207 0.78028
 C3891 C 0.60438 0.89640 0.74846
 C3892 C 0.58857 0.88834 0.74008
 C3893 C 0.58138 0.89557 0.72343
 C3894 C 0.58985 0.91102 0.71479
 C3895 C 0.60553 0.91921 0.72329
 C3896 C 0.61271 0.91199 0.73993
 C3897 C 0.58256 0.91839 0.69682
 C3898 C 0.59493 0.92395 0.68263
 C3899 C 0.58814 0.93072 0.66564
 C3900 C 0.56883 0.93211 0.66244
 C3901 C 0.55645 0.92657 0.67663
 C3902 C 0.56324 0.91978 0.69363
 H3903 H 0.64119 0.89142 0.75717
 H3904 H 0.65437 0.87807 0.78561
 H3905 H 0.59881 0.86986 0.80754
 H3906 H 0.58560 0.88325 0.77906
 H3907 H 0.58200 0.87616 0.74616
 H3908 H 0.56944 0.88879 0.71708
 H3909 H 0.61217 0.93133 0.71714
 H3910 H 0.62471 0.91872 0.74622
 H3911 H 0.60988 0.92274 0.68453
 H3912 H 0.59804 0.93455 0.65486
 H3913 H 0.54149 0.92770 0.67465
 H3914 H 0.55337 0.91584 0.70438
 C3915 C 0.61272 0.38721 1.26557
 C3916 C 0.61112 0.36809 1.26942
 C3917 C 0.61837 0.36063 1.28593
 C3918 C 0.62769 0.37208 1.29906
 C3919 C 0.62912 0.39135 1.29502
 C3920 C 0.62165 0.39878 1.27858
 C3921 C 0.60525 0.39499 1.24789
 C3922 C 0.59493 0.41166 1.24786
 C3923 C 0.58776 0.41885 1.23118
 C3924 C 0.59090 0.40959 1.21413
 C3925 C 0.60141 0.39300 1.21420
 C3926 C 0.60843 0.38575 1.23089
 C3927 C 0.58321 0.41712 1.19636
 C3928 C 0.57637 0.40498 1.18253
 C3929 C 0.56941 0.41196 1.16570
 C3930 C 0.56895 0.43129 1.16232
 C3931 C 0.57565 0.44347 1.17620
 C3932 C 0.58274 0.43646 1.19300
 H3933 H 0.60422 0.35885 1.25963
 H3934 H 0.61734 0.34569 1.28780
 H3935 H 0.63544 0.40100 1.30477
 H3936 H 0.62308 0.41361 1.27594
 H3937 H 0.59211 0.41895 1.26081
 H3938 H 0.57949 0.43149 1.23168
 H3939 H 0.60443 0.38571 1.20130
 H3940 H 0.61660 0.37303 1.23048
 H3941 H 0.57627 0.39002 1.18473
 H3942 H 0.56462 0.40217 1.15522
 H3943 H 0.57532 0.45844 1.17412
 H3944 H 0.58808 0.44621 1.20325
 C3945 C 0.88689 1.11374 1.26492
 C3946 C 0.86776 1.11216 1.26874
 C3947 C 0.86030 1.11939 1.28525
 C3948 C 0.87174 1.12865 1.29842
 C3949 C 0.89102 1.13012 1.29439
 C3950 C 0.89846 1.12267 1.27795
 C3951 C 0.89468 1.10620 1.24728
 C3952 C 0.91128 1.09576 1.24734
 C3953 C 0.91843 1.08843 1.23071
 C3954 C 0.90920 1.09153 1.21363
 C3955 C 0.89270 1.10218 1.21361
 C3956 C 0.88548 1.10935 1.23025
 C3957 C 0.91668 1.08367 1.19591
 C3958 C 0.90449 1.07687 1.18210
 C3959 C 0.91144 1.06978 1.16531
 C3960 C 0.93077 1.06914 1.16196
 C3961 C 0.94299 1.07577 1.17584
 C3962 C 0.93603 1.08299 1.19259
 H3963 H 0.85853 1.10528 1.25894
 H3964 H 0.84535 1.11836 1.28710
 H3965 H 0.90066 1.13642 1.30416
 H3966 H 0.91329 1.12407 1.27532
 H3967 H 0.91854 1.09296 1.26031
 H3968 H 0.93100 1.08006 1.23128
 H3969 H 0.88544 1.10518 1.20069
 H3970 H 0.87282 1.11760 1.22978
 H3971 H 0.88953 1.07692 1.18428
 H3972 H 0.90161 1.06505 1.15484
 H3973 H 0.95796 1.07529 1.17379
 H3974 H 0.94581 1.08829 1.20283
 C3975 C 0.88668 0.61392 0.76455
 C3976 C 0.86726 0.61552 0.76693
 C3977 C 0.85985 0.62277 0.78345
 C3978 C 0.87168 0.62860 0.79799
 C3979 C 0.89110 0.62694 0.79566
 C3980 C 0.89852 0.61965 0.77913
 C3981 C 0.89451 0.60639 0.74688
 C3982 C 0.90982 0.59411 0.74713
 C3983 C 0.91703 0.58689 0.73048
 C3984 C 0.90908 0.59181 0.71321
 C3985 C 0.89385 0.60419 0.71297
 C3986 C 0.88666 0.61139 0.72960
 C3987 C 0.91655 0.58401 0.69550
 C3988 C 0.90434 0.57835 0.68121
 C3989 C 0.91131 0.57121 0.66445
 C3990 C 0.93066 0.56955 0.66159
 C3991 C 0.94288 0.57513 0.67591
 C3992 C 0.93590 0.58225 0.69270
 H3993 H 0.85777 0.61102 0.75605
 H3994 H 0.84484 0.62406 0.78474
 H3995 H 0.90057 0.63116 0.80668
 H3996 H 0.91354 0.61876 0.77765
 H3997 H 0.91601 0.58979 0.76024
 H3998 H 0.92860 0.57719 0.73114
 H3999 H 0.88764 0.60850 0.69987
 H4000 H 0.87508 0.62109 0.72892
 H4001 H 0.88936 0.57933 0.68302
 H4002 H 0.90154 0.56724 0.65361
 H4003 H 0.95785 0.57387 0.67416
 H4004 H 0.94566 0.58665 0.70338
 C4005 C 0.38746 1.11359 0.76503
 C4006 C 0.38627 1.13301 0.76759
 C4007 C 0.37901 1.14041 0.78411
 C4008 C 0.37274 1.12857 0.79845
 C4009 C 0.37403 1.10915 0.79595
 C4010 C 0.38135 1.10174 0.77943
 C4011 C 0.39488 1.10578 0.74731
 C4012 C 0.40690 1.09026 0.74745
 C4013 C 0.41399 1.08306 0.73074
 C4014 C 0.40921 1.09120 0.71353
 C4015 C 0.39708 1.10664 0.71340
 C4016 C 0.39002 1.11384 0.73009
 C4017 C 0.41687 1.08373 0.69576
 C4018 C 0.42258 1.09594 0.68149
 C4019 C 0.42960 1.08898 0.66468
 C4020 C 0.43110 1.06963 0.66173
 C4021 C 0.42546 1.05741 0.67601
 C4022 C 0.41844 1.06438 0.69285
 H4023 H 0.39106 1.14251 0.75684
 H4024 H 0.37801 1.15543 0.78554
 H4025 H 0.36947 1.09968 0.80682
 H4026 H 0.38194 1.08672 0.77780
 H4027 H 0.41109 1.08390 0.76051
 H4028 H 0.42350 1.07131 0.73132
 H4029 H 0.39285 1.11301 0.70036
 H4030 H 0.38052 1.12560 0.72950
 H4031 H 0.42176 1.11092 0.68337
 H4032 H 0.43361 1.09876 0.65386
 H4033 H 0.42660 1.04244 0.67421
 H4034 H 0.41400 1.05461 0.70350
 C4035 C 0.38720 0.61334 1.26540
 C4036 C 0.38915 0.63240 1.26941
 C4037 C 0.38193 0.63988 1.28591
 C4038 C 0.37229 0.62854 1.29889
 C4039 C 0.37051 0.60932 1.29470
 C4040 C 0.37796 0.60185 1.27828
 C4041 C 0.39462 0.60555 1.24772
 C4042 C 0.40472 0.58874 1.24764
 C4043 C 0.41188 0.58156 1.23095
 C4044 C 0.40895 0.59096 1.21394
 C4045 C 0.39864 0.60768 1.21406
 C4046 C 0.39164 0.61493 1.23076
 C4047 C 0.41663 0.58344 1.19615
 C4048 C 0.42360 0.59559 1.18239
 C4049 C 0.43054 0.58862 1.16555
 C4050 C 0.43089 0.56930 1.16209
 C4051 C 0.42408 0.55713 1.17591
 C4052 C 0.41699 0.56411 1.19271
 H4053 H 0.39629 0.64157 1.25973
 H4054 H 0.38324 0.65479 1.28789
 H4055 H 0.36392 0.59974 1.30434
 H4056 H 0.37627 0.58708 1.27552
 H4057 H 0.40738 0.58134 1.26056
 H4058 H 0.41999 0.56882 1.23142
 H4059 H 0.39576 0.61508 1.20119
 H4060 H 0.38365 0.62776 1.23039
 H4061 H 0.42380 0.61054 1.18465
 H4062 H 0.43541 0.59843 1.15513
 H4063 H 0.42432 0.54216 1.17379
 H4064 H 0.41154 0.55436 1.20290
 C4065 C 1.11318 1.26512 0.88677
 C4066 C 1.10154 1.27820 0.87801
 C4067 C 1.10893 1.29466 0.87057
 C4068 C 1.12822 1.29867 0.87185
 C4069 C 1.13974 1.28546 0.88095
 C4070 C 1.13233 1.26893 0.88818
 C4071 C 1.10543 1.24745 0.89427
 C4072 C 1.11461 1.23044 0.89099
 C4073 C 1.10738 1.21376 0.89805
 C4074 C 1.09088 1.21372 0.90871
 C4075 C 1.08169 1.23077 0.91196
 C4076 C 1.08886 1.24745 0.90475
 C4077 C 1.08336 1.19595 0.91643
 C4078 C 1.06401 1.19265 0.91706
 C4079 C 1.05702 1.17587 0.92419
 C4080 C 1.06920 1.16196 0.93078
 C4081 C 1.08854 1.16528 0.93017
 C4082 C 1.09552 1.18209 0.92316
 H4083 H 1.08670 1.27560 0.87673
 H4084 H 1.09922 1.30447 0.86442
 H4085 H 1.15470 1.28731 0.88184
 H4086 H 1.14163 1.25909 0.89493
 H4087 H 1.12725 1.23000 0.88270
 H4088 H 1.11461 1.20085 0.89495
 H4089 H 1.06913 1.23130 0.92035
 H4090 H 1.08162 1.26040 0.90766
 H4091 H 1.05425 1.20293 0.91180
 H4092 H 1.04204 1.17384 0.92464
 H4093 H 1.09834 1.15478 0.93487
 H4094 H 1.11049 1.18425 0.92314
 C4095 C 1.11430 0.76456 0.38546
 C4096 C 1.10269 0.77757 0.37656
 C4097 C 1.11009 0.79400 0.36906
 C4098 C 1.12937 0.79806 0.37044
 C4099 C 1.14087 0.78490 0.37963
 C4100 C 1.13345 0.76839 0.38691
 C4101 C 1.10652 0.74698 0.39314
 C4102 C 1.11569 0.72992 0.39010
 C4103 C 1.10843 0.71334 0.39734
 C4104 C 1.09189 0.71344 0.40795
 C4105 C 1.08272 0.73054 0.41096
 C4106 C 1.08991 0.74712 0.40358
 C4107 C 1.08431 0.69577 0.41583
 C4108 C 1.06494 0.69253 0.41642
 C4109 C 1.05787 0.67584 0.42367
 C4110 C 1.06999 0.66194 0.43042
 C4111 C 1.08934 0.66521 0.42987
 C4112 C 1.09640 0.68194 0.42273
 H4113 H 1.08785 0.77494 0.37524
 H4114 H 1.10040 0.80376 0.36283
 H4115 H 1.15582 0.78677 0.38059
 H4116 H 1.14272 0.75861 0.39377
 H4117 H 1.12836 0.72938 0.38186
 H4118 H 1.11565 0.70039 0.39442
 H4119 H 1.07013 0.73118 0.41931
 H4120 H 1.08268 0.76011 0.40631
 H4121 H 1.05523 0.70278 0.41103
 H4122 H 1.04289 0.67386 0.42408
 H4123 H 1.09910 0.65472 0.43470
 H4124 H 1.11137 0.68406 0.42275
 C4125 C 0.61366 1.26498 0.38649
 C4126 C 0.63308 1.26745 0.38505
 C4127 C 0.64047 1.28398 0.37779
 C4128 C 0.62862 1.29841 0.37178
 C4129 C 0.60920 1.29599 0.37330
 C4130 C 0.60180 1.27947 0.38060
 C4131 C 0.60582 1.24730 0.39398
 C4132 C 0.59042 1.24753 0.40615
 C4133 C 0.58315 1.23087 0.41326
 C4134 C 0.59111 1.21361 0.40835
 C4135 C 0.60645 1.21339 0.39611
 C4136 C 0.61372 1.23004 0.38901
 C4137 C 0.58355 1.19589 0.41604
 C4138 C 0.59569 1.18155 0.42171
 C4139 C 0.58864 1.16482 0.42880
 C4140 C 0.56928 1.16202 0.43041
 C4141 C 0.55712 1.17636 0.42478
 C4142 C 0.56419 1.19313 0.41769
 H4143 H 0.64258 1.25663 0.38966
 H4144 H 0.65549 1.28535 0.37662
 H4145 H 0.59972 1.30694 0.36895
 H4146 H 0.58678 1.27792 0.38137
 H4147 H 0.58419 1.26062 0.41043
 H4148 H 0.57149 1.23151 0.42287
 H4149 H 0.61269 1.20031 0.39180
 H4150 H 0.62538 1.22939 0.37940
 H4151 H 0.61068 1.18333 0.42081
 H4152 H 0.59836 1.15395 0.43281
 H4153 H 0.54215 1.17466 0.42598
 H4154 H 0.55447 1.20384 0.41327
 C4155 C 0.61300 0.76481 0.88596
 C4156 C 0.63242 0.76725 0.88449
 C4157 C 0.63982 0.78380 0.87730
 C4158 C 0.62798 0.79829 0.87140
 C4159 C 0.60856 0.79588 0.87290
 C4160 C 0.60115 0.77933 0.88013
 C4161 C 0.60518 0.74713 0.89350
 C4162 C 0.58981 0.74737 0.90570
 C4163 C 0.58264 0.73072 0.91295
 C4164 C 0.59069 0.71347 0.90816
 C4165 C 0.60597 0.71324 0.89585
 C4166 C 0.61314 0.72987 0.88861
 C4167 C 0.58325 0.69577 0.91600
 C4168 C 0.59549 0.68155 0.92177
 C4169 C 0.58855 0.66480 0.92895
 C4170 C 0.56921 0.66187 0.93052
 C4171 C 0.55696 0.67610 0.92484
 C4172 C 0.56391 0.69289 0.91768
 H4173 H 0.64192 0.75641 0.88907
 H4174 H 0.65484 0.78515 0.87613
 H4175 H 0.59909 0.80687 0.86862
 H4176 H 0.58613 0.77779 0.88092
 H4177 H 0.58354 0.76046 0.90992
 H4178 H 0.57101 0.73137 0.92259
 H4179 H 0.61227 0.70016 0.89163
 H4180 H 0.62478 0.72920 0.87898
 H4181 H 0.61047 0.68343 0.92086
 H4182 H 0.59834 0.65402 0.93301
 H4183 H 0.54200 0.67430 0.92603
 H4184 H 0.55413 0.70351 0.91319
 C4185 C 0.88685 1.26509 1.11307
 C4186 C 0.88836 1.26888 1.13222
 C4187 C 0.88109 1.28536 1.13970
 C4188 C 0.87183 1.29853 1.12826
 C4189 C 0.87046 1.29454 1.10896
 C4190 C 0.87796 1.27814 1.10150
 C4191 C 0.89439 1.24746 1.10526
 C4192 C 0.90482 1.24752 1.08865
 C4193 C 0.91209 1.23089 1.08146
 C4194 C 0.90894 1.21381 1.09064
 C4195 C 0.89832 1.21379 1.10717
 C4196 C 0.89120 1.23043 1.11443
 C4197 C 0.91673 1.19608 1.08311
 C4198 C 0.92350 1.18223 1.09526
 C4199 C 0.93052 1.16544 1.08826
 C4200 C 0.93112 1.16212 1.06892
 C4201 C 0.92451 1.17603 1.05674
 C4202 C 0.91736 1.19279 1.06375
 H4203 H 0.89523 1.25907 1.14146
 H4204 H 0.88206 1.28718 1.15466
 H4205 H 0.86418 1.30432 1.09931
 H4206 H 0.87660 1.27554 1.08666
 H4207 H 0.90765 1.26050 1.08142
 H4208 H 0.92044 1.23146 1.06887
 H4209 H 0.89528 1.20086 1.11440
 H4210 H 0.88295 1.22995 1.12710
 H4211 H 0.92349 1.18439 1.11022
 H4212 H 0.93524 1.15494 1.09806
 H4213 H 0.92495 1.17401 1.04176
 H4214 H 0.91207 1.20306 1.05400
 C4215 C 0.88692 0.76536 0.61257
 C4216 C 0.86750 0.76775 0.61409
 C4217 C 0.86007 0.78423 0.62140
 C4218 C 0.87188 0.79871 0.62738
 C4219 C 0.89131 0.79638 0.62578
 C4220 C 0.89875 0.77989 0.61843
 C4221 C 0.89477 0.74771 0.60503
 C4222 C 0.91015 0.74797 0.59283
 C4223 C 0.91739 0.73133 0.58562
 C4224 C 0.90939 0.71407 0.59045
 C4225 C 0.89409 0.71381 0.60274
 C4226 C 0.88687 0.73043 0.60994
 C4227 C 0.91688 0.69637 0.58265
 C4228 C 0.90469 0.68211 0.57690
 C4229 C 0.91167 0.66535 0.56978
 C4230 C 0.93102 0.66245 0.56825
 C4231 C 0.94323 0.67674 0.57393
 C4232 C 0.93624 0.69353 0.58102
 H4233 H 0.85802 0.75690 0.60949
 H4234 H 0.84505 0.78552 0.62264
 H4235 H 0.90076 0.80736 0.63012
 H4236 H 0.91377 0.77841 0.61760
 H4237 H 0.91639 0.76108 0.58859
 H4238 H 0.92902 0.73199 0.57599
 H4239 H 0.88784 0.70072 0.60699
 H4240 H 0.87524 0.72974 0.61958
 H4241 H 0.88970 0.68395 0.57778
 H4242 H 0.90191 0.65453 0.56573
 H4243 H 0.95821 0.67496 0.57278
 H4244 H 0.94599 0.70419 0.58550
 C4245 C 0.38633 1.26509 0.61331
 C4246 C 0.38772 1.26880 0.63248
 C4247 C 0.38050 1.28531 0.63996
 C4248 C 0.37144 1.29859 0.62849
 C4249 C 0.37017 1.29466 0.60917
 C4250 C 0.37760 1.27822 0.60172
 C4251 C 0.39385 1.24746 0.60547
 C4252 C 0.40432 1.24755 0.58889
 C4253 C 0.41156 1.23093 0.58165
 C4254 C 0.40836 1.21382 0.59076
 C4255 C 0.39771 1.21377 0.60727
 C4256 C 0.39061 1.23040 0.61458
 C4257 C 0.41612 1.19612 0.58317
 C4258 C 0.42292 1.18223 0.59528
 C4259 C 0.42999 1.16549 0.58822
 C4260 C 0.43058 1.16223 0.56886
 C4261 C 0.42391 1.17616 0.55674
 C4262 C 0.41673 1.19288 0.56380
 H4263 H 0.39445 1.25892 0.64174
 H4264 H 0.38138 1.28708 0.65494
 H4265 H 0.36405 1.30452 0.59951
 H4266 H 0.37633 1.27569 0.58686
 H4267 H 0.40720 1.26054 0.58171
 H4268 H 0.41994 1.23152 0.56908
 H4269 H 0.39465 1.20082 0.61445
 H4270 H 0.38234 1.22989 0.62723
 H4271 H 0.42291 1.18435 0.61025
 H4272 H 0.43475 1.15497 0.59798
 H4273 H 0.42434 1.17418 0.54175
 H4274 H 0.41142 1.20318 0.55409
 C4275 C 0.38732 0.76524 1.11326
 C4276 C 0.39886 0.77827 1.12222
 C4277 C 0.39141 0.79472 1.12961
 C4278 C 0.37214 0.79878 1.12805
 C4279 C 0.36072 0.78561 1.11877
 C4280 C 0.36820 0.76909 1.11160
 C4281 C 0.39512 0.74758 1.10578
 C4282 C 0.38585 0.73058 1.10887
 C4283 C 0.39306 0.71393 1.10174
 C4284 C 0.40963 0.71390 1.09119
 C4285 C 0.41893 0.73094 1.08816
 C4286 C 0.41178 0.74759 1.09544
 C4287 C 0.41709 0.69617 1.08335
 C4288 C 0.43643 0.69277 1.08279
 C4289 C 0.44337 0.67600 1.07558
 C4290 C 0.43114 0.66219 1.06885
 C4291 C 0.41182 0.66562 1.06937
 C4292 C 0.40489 0.68242 1.07645
 H4293 H 0.41369 0.77562 1.12370
 H4294 H 0.40104 0.80449 1.13593
 H4295 H 0.34578 0.78748 1.11767
 H4296 H 0.35898 0.75929 1.10468
 H4297 H 0.37314 0.73014 1.11705
 H4298 H 0.38575 0.70103 1.10469
 H4299 H 0.43155 0.73148 1.07986
 H4300 H 0.41909 0.76054 1.09268
 H4301 H 0.44622 0.70295 1.08817
 H4302 H 0.45834 0.67390 1.07520
 H4303 H 0.40198 0.65520 1.06455
 H4304 H 0.38994 0.68466 1.07641
 C4305 C 0.88769 0.73458 0.88756
 C4306 C 0.89937 0.72009 0.88132
 C4307 C 0.89176 0.70379 0.87372
 C4308 C 0.87231 0.70163 0.87219
 C4309 C 0.86065 0.71613 0.87843
 C4310 C 0.86825 0.73240 0.88602
 C4311 C 0.89571 0.75197 0.89553
 C4312 C 0.88737 0.76057 0.91108
 C4313 C 0.89457 0.77720 0.91828
 C4314 C 0.91029 0.78564 0.91010
 C4315 C 0.91878 0.77693 0.89470
 C4316 C 0.91157 0.76028 0.88748
 C4317 C 0.91759 0.80361 0.91745
 C4318 C 0.93692 0.80676 0.91889
 C4319 C 0.94372 0.82376 0.92569
 C4320 C 0.93134 0.83796 0.93120
 C4321 C 0.91203 0.83480 0.92974
 C4322 C 0.90524 0.81782 0.92295
 H4323 H 0.91440 0.72124 0.88256
 H4324 H 0.90109 0.69276 0.86927
 H4325 H 0.84562 0.71502 0.87713
 H4326 H 0.85889 0.74345 0.89039
 H4327 H 0.87533 0.75433 0.91779
 H4328 H 0.88792 0.78339 0.93037
 H4329 H 0.93076 0.78322 0.88794
 H4330 H 0.91815 0.75414 0.87534
 H4331 H 0.94678 0.79599 0.91499
 H4332 H 0.95867 0.82570 0.92688
 H4333 H 0.90214 0.84559 0.93354
 H4334 H 0.89028 0.81595 0.92170
 C4335 C 0.88745 0.23504 0.38656
 C4336 C 0.86803 0.23276 0.38489
 C4337 C 0.86056 0.21628 0.37761
 C4338 C 0.87233 0.20169 0.37182
 C4339 C 0.89176 0.20392 0.37357
 C4340 C 0.89924 0.22041 0.38089
 C4341 C 0.89532 0.25270 0.39409
 C4342 C 0.91056 0.25243 0.40646
 C4343 C 0.91774 0.26908 0.41373
 C4344 C 0.90982 0.28634 0.40878
 C4345 C 0.89469 0.28660 0.39628
 C4346 C 0.88752 0.26998 0.38902
 C4347 C 0.91722 0.30404 0.41666
 C4348 C 0.90495 0.31831 0.42224
 C4349 C 0.91185 0.33509 0.42940
 C4350 C 0.93118 0.33800 0.43116
 C4351 C 0.94346 0.32370 0.42568
 C4352 C 0.93655 0.30689 0.41854
 H4353 H 0.85857 0.24368 0.38934
 H4354 H 0.84555 0.21507 0.37624
 H4355 H 0.90117 0.19285 0.36938
 H4356 H 0.91426 0.22182 0.38185
 H4357 H 0.91671 0.23932 0.41082
 H4358 H 0.92926 0.26841 0.42351
 H4359 H 0.88852 0.29970 0.39192
 H4360 H 0.87600 0.27067 0.37925
 H4361 H 0.88998 0.31646 0.42117
 H4362 H 0.90204 0.34591 0.43330
 H4363 H 0.95842 0.32549 0.42701
 H4364 H 0.94636 0.29623 0.41421
 C4365 C 0.38715 0.73476 0.38697
 C4366 C 0.36797 0.73101 0.38851
 C4367 C 0.36034 0.71471 0.38099
 C4368 C 0.37162 0.70163 0.37145
 C4369 C 0.39090 0.70556 0.36994
 C4370 C 0.39852 0.72179 0.37765
 C4371 C 0.39519 0.75219 0.39493
 C4372 C 0.40954 0.76180 0.38555
 C4373 C 0.41687 0.77835 0.39288
 C4374 C 0.40991 0.78574 0.40966
 C4375 C 0.39566 0.77613 0.41910
 C4376 C 0.38844 0.75951 0.41187
 C4377 C 0.41727 0.80359 0.41715
 C4378 C 0.40499 0.81731 0.42387
 C4379 C 0.41184 0.83426 0.43068
 C4380 C 0.43116 0.83781 0.43108
 C4381 C 0.44345 0.82400 0.42444
 C4382 C 0.43657 0.80710 0.41747
 H4383 H 0.35870 0.74091 0.39519
 H4384 H 0.34537 0.71298 0.38197
 H4385 H 0.40045 0.69579 0.36351
 H4386 H 0.41344 0.72402 0.37658
 H4387 H 0.41486 0.75676 0.37233
 H4388 H 0.42769 0.78560 0.38520
 H4389 H 0.39023 0.78139 0.43220
 H4390 H 0.37767 0.75230 0.41965
 H4391 H 0.39004 0.81508 0.42351
 H4392 H 0.40196 0.84472 0.43531
 H4393 H 0.45841 0.82615 0.42482
 H4394 H 0.44635 0.79666 0.41257
 C4395 C 0.38792 0.23407 0.88803
 C4396 C 0.36872 0.23041 0.88947
 C4397 C 0.36105 0.21415 0.88188
 C4398 C 0.37233 0.20103 0.87239
 C4399 C 0.39165 0.20486 0.87103
 C4400 C 0.39929 0.22106 0.87879
 C4401 C 0.39597 0.25151 0.89596
 C4402 C 0.41031 0.26111 0.88657
 C4403 C 0.41756 0.27772 0.89382
 C4404 C 0.41053 0.28519 0.91054
 C4405 C 0.39632 0.27557 0.92002
 C4406 C 0.38917 0.25888 0.91286
 C4407 C 0.41775 0.30314 0.91789
 C4408 C 0.40536 0.31683 0.92449
 C4409 C 0.41207 0.33388 0.93116
 C4410 C 0.43136 0.33759 0.93154
 C4411 C 0.44376 0.32382 0.92503
 C4412 C 0.43702 0.30681 0.91820
 H4413 H 0.35945 0.24035 0.89608
 H4414 H 0.34607 0.21251 0.88276
 H4415 H 0.40119 0.19505 0.86465
 H4416 H 0.41422 0.22322 0.87781
 H4417 H 0.41565 0.25601 0.87338
 H4418 H 0.42835 0.28498 0.88611
 H4419 H 0.39084 0.28088 0.93307
 H4420 H 0.37840 0.25168 0.92065
 H4421 H 0.39042 0.31447 0.92415
 H4422 H 0.40211 0.34430 0.93570
 H4423 H 0.45870 0.32610 0.92539
 H4424 H 0.44689 0.29641 0.91339
 C4425 C 1.11236 0.73461 1.11294
 C4426 C 1.12156 0.72178 1.10138
 C4427 C 1.12906 0.70535 1.10879
 C4428 C 1.12737 0.70113 1.12801
 C4429 C 1.11777 0.71406 1.13942
 C4430 C 1.11050 0.73057 1.13201
 C4431 C 1.10491 0.75231 1.10522
 C4432 C 1.10800 0.76925 1.11460
 C4433 C 1.10102 0.78597 1.10739
 C4434 C 1.09061 0.78613 1.09073
 C4435 C 1.08754 0.76913 1.08135
 C4436 C 1.09469 0.75242 1.08848
 C4437 C 1.08297 0.80394 1.08324
 C4438 C 1.08250 0.80736 1.06390
 C4439 C 1.07547 0.82419 1.05693
 C4440 C 1.06884 0.83807 1.06913
 C4441 C 1.06929 0.83463 1.08846
 C4442 C 1.07617 0.81777 1.09541
 H4443 H 1.12317 0.72457 1.08660
 H4444 H 1.13562 0.69574 1.09916
 H4445 H 1.11652 0.71204 1.15434
 H4446 H 1.10340 0.74023 1.14123
 H4447 H 1.11609 0.76959 1.12738
 H4448 H 1.10400 0.79882 1.11478
 H4449 H 1.07934 0.76869 1.06865
 H4450 H 1.09195 0.73952 1.08109
 H4451 H 1.08782 0.79713 1.05412
 H4452 H 1.07514 0.82629 1.04196
 H4453 H 1.06455 0.84510 1.09829
 H4454 H 1.07606 0.81552 1.11037
 C4455 C 1.11407 0.23602 0.61374
 C4456 C 1.11576 0.23367 0.63316
 C4457 C 1.12305 0.21717 0.64057
 C4458 C 1.12884 0.20262 0.62873
 C4459 C 1.12713 0.20495 0.60931
 C4460 C 1.11981 0.22146 0.60190
 C4461 C 1.10640 0.25363 0.60592
 C4462 C 1.09406 0.25328 0.59064
 C4463 C 1.08671 0.26986 0.58343
 C4464 C 1.09153 0.28717 0.59133
 C4465 C 1.10395 0.28752 0.60654
 C4466 C 1.11129 0.27095 0.61374
 C4467 C 1.08362 0.30481 0.58383
 C4468 C 1.07789 0.31910 0.59600
 C4469 C 1.07065 0.33579 0.58898
 C4470 C 1.06899 0.33860 0.56962
 C4471 C 1.07464 0.32429 0.55744
 C4472 C 1.08185 0.30756 0.56447
 H4473 H 1.11127 0.24455 0.64266
 H4474 H 1.12438 0.21588 0.65558
 H4475 H 1.13131 0.19392 0.59985
 H4476 H 1.11885 0.22292 0.58688
 H4477 H 1.08982 0.24014 0.58448
 H4478 H 1.07699 0.26912 0.57187
 H4479 H 1.10819 0.30065 0.61272
 H4480 H 1.12102 0.27172 0.62530
 H4481 H 1.07888 0.31732 0.61098
 H4482 H 1.06663 0.34664 0.59871
 H4483 H 1.07338 0.32599 0.54246
 H4484 H 1.08630 0.29688 0.55473
 C4485 C 0.61336 0.73562 0.61326
 C4486 C 0.63278 0.73320 0.61475
 C4487 C 0.64020 0.71670 0.62201
 C4488 C 0.62838 0.70221 0.62796
 C4489 C 0.60895 0.70458 0.62641
 C4490 C 0.60153 0.72109 0.61911
 C4491 C 0.60553 0.75328 0.60573
 C4492 C 0.59015 0.75304 0.59353
 C4493 C 0.58295 0.76968 0.58630
 C4494 C 0.59097 0.78694 0.59113
 C4495 C 0.60626 0.78718 0.60344
 C4496 C 0.61345 0.77055 0.61065
 C4497 C 0.58351 0.80464 0.58332
 C4498 C 0.59572 0.81889 0.57759
 C4499 C 0.58876 0.83565 0.57045
 C4500 C 0.56941 0.83856 0.56888
 C4501 C 0.55719 0.82428 0.57453
 C4502 C 0.56416 0.80749 0.58165
 H4503 H 0.64227 0.74405 0.61016
 H4504 H 0.65522 0.71537 0.62321
 H4505 H 0.59950 0.69359 0.63072
 H4506 H 0.58650 0.72260 0.61830
 H4507 H 0.58390 0.73994 0.58928
 H4508 H 0.57132 0.76903 0.57666
 H4509 H 0.61253 0.80026 0.60769
 H4510 H 0.62509 0.77122 0.62029
 H4511 H 0.61070 0.81703 0.57850
 H4512 H 0.59853 0.84646 0.56643
 H4513 H 0.54221 0.82606 0.57334
 H4514 H 0.55439 0.79685 0.58610
 C4515 C 0.61302 0.23511 1.11275
 C4516 C 0.60144 0.22205 1.12161
 C4517 C 0.60887 0.20559 1.12901
 C4518 C 0.62815 0.20157 1.12758
 C4519 C 0.63960 0.21473 1.11834
 C4520 C 0.63215 0.23126 1.11116
 C4521 C 0.60524 0.25281 1.10535
 C4522 C 0.61447 0.26979 1.10862
 C4523 C 0.60721 0.28650 1.10167
 C4524 C 0.59062 0.28660 1.09114
 C4525 C 0.58137 0.26957 1.08791
 C4526 C 0.58857 0.25286 1.09501
 C4527 C 0.58308 0.30439 1.08351
 C4528 C 0.56374 0.30775 1.08302
 C4529 C 0.55673 0.32454 1.07594
 C4530 C 0.56890 0.33842 1.06926
 C4531 C 0.58824 0.33506 1.06976
 C4532 C 0.59523 0.31824 1.07671
 H4533 H 0.58661 0.22468 1.12302
 H4534 H 0.59921 0.19581 1.13527
 H4535 H 0.65455 0.21287 1.11731
 H4536 H 0.64139 0.24108 1.10431
 H4537 H 0.62718 0.27018 1.11680
 H4538 H 0.61448 0.29939 1.10475
 H4539 H 0.56874 0.26909 1.07962
 H4540 H 0.58129 0.23993 1.09212
 H4541 H 0.55399 0.29748 1.08833
 H4542 H 0.54176 0.32660 1.07558
 H4543 H 0.59804 0.34554 1.06499
 H4544 H 0.61019 0.31604 1.07663
 C4545 C 1.26456 1.11398 0.88553
 C4546 C 1.26692 1.13340 0.88396
 C4547 C 1.28342 1.14084 0.87669
 C4548 C 1.29795 1.12904 0.87081
 C4549 C 1.29561 1.10962 0.87239
 C4550 C 1.27911 1.10217 0.87969
 C4551 C 1.24696 1.10611 0.89319
 C4552 C 1.24735 1.09079 0.90546
 C4553 C 1.23077 1.08354 0.91280
 C4554 C 1.21345 1.09145 0.90803
 C4555 C 1.21307 1.10669 0.89567
 C4556 C 1.22963 1.11394 0.88834
 C4557 C 1.19583 1.08390 0.91594
 C4558 C 1.18151 1.09603 0.92170
 C4559 C 1.16484 1.08897 0.92895
 C4560 C 1.16208 1.06962 0.93061
 C4561 C 1.17641 1.05747 0.92494
 C4562 C 1.19312 1.06453 0.91770
 H4563 H 1.25605 1.14287 0.88853
 H4564 H 1.28472 1.15586 0.87547
 H4565 H 1.30663 1.10018 0.86813
 H4566 H 1.27764 1.08715 0.88055
 H4567 H 1.26050 1.08463 0.90966
 H4568 H 1.23154 1.07195 0.92248
 H4569 H 1.19993 1.11287 0.89147
 H4570 H 1.22885 1.12553 0.87867
 H4571 H 1.18326 1.11101 0.92072
 H4572 H 1.15398 1.09868 0.93299
 H4573 H 1.17475 1.04250 0.92619
 H4574 H 1.20381 1.05483 0.91323
 C4575 C 1.26475 0.61360 0.38581
 C4576 C 1.26698 0.63302 0.38407
 C4577 C 1.28346 0.64050 0.37679
 C4578 C 1.29810 0.62874 0.37109
 C4579 C 1.29590 0.60932 0.37288
 C4580 C 1.27942 0.60183 0.38018
 C4581 C 1.24713 0.60569 0.39340
 C4582 C 1.24749 0.59044 0.40576
 C4583 C 1.23089 0.58318 0.41305
 C4584 C 1.21357 0.59101 0.40814
 C4585 C 1.21322 0.60617 0.39568
 C4586 C 1.22980 0.61342 0.38840
 C4587 C 1.19593 0.58348 0.41602
 C4588 C 1.18161 0.59564 0.42170
 C4589 C 1.16491 0.58862 0.42893
 C4590 C 1.16213 0.56927 0.43064
 C4591 C 1.17647 0.55710 0.42504
 C4592 C 1.19320 0.56413 0.41784
 H4593 H 1.25603 0.64246 0.38848
 H4594 H 1.28465 0.65551 0.37540
 H4595 H 1.30700 0.59991 0.36877
 H4596 H 1.27805 0.58681 0.38119
 H4597 H 1.26064 0.58435 0.41008
 H4598 H 1.23163 0.57165 0.42280
 H4599 H 1.20008 0.61229 0.39137
 H4600 H 1.22903 0.62495 0.37864
 H4601 H 1.18337 0.61062 0.42067
 H4602 H 1.15405 0.59835 0.43292
 H4603 H 1.17478 0.54213 0.42633
 H4604 H 1.20391 0.55441 0.41343
 C4605 C 0.76464 1.11384 0.38579
 C4606 C 0.77913 1.10202 0.37982
 C4607 C 0.79563 1.10947 0.37252
 C4608 C 0.79803 1.12889 0.37108
 C4609 C 0.78359 1.14071 0.37715
 C4610 C 0.76708 1.13327 0.38441
 C4611 C 0.74700 1.10598 0.39333
 C4612 C 0.72971 1.11389 0.38848
 C4613 C 0.71311 1.10663 0.39568
 C4614 C 0.71339 1.09129 0.40791
 C4615 C 0.73067 1.08329 0.41268
 C4616 C 0.74730 1.09055 0.40547
 C4617 C 0.69571 1.08375 0.41572
 C4618 C 0.69292 1.06439 0.41735
 C4619 C 0.67617 1.05735 0.42450
 C4620 C 0.66188 1.06952 0.43023
 C4621 C 0.66472 1.08888 0.42868
 C4622 C 0.68144 1.09591 0.42151
 H4623 H 0.77760 1.08700 0.38054
 H4624 H 0.80659 1.10002 0.36812
 H4625 H 0.78494 1.15572 0.37604
 H4626 H 0.75626 1.14274 0.38908
 H4627 H 0.72901 1.12557 0.37890
 H4628 H 0.70000 1.11289 0.39147
 H4629 H 0.73136 1.07162 0.42228
 H4630 H 0.76041 1.08431 0.40966
 H4631 H 0.70359 1.05467 0.41284
 H4632 H 0.67445 1.04238 0.42567
 H4633 H 0.65390 1.09861 0.43277
 H4634 H 0.68325 1.11089 0.42064
 C4635 C 0.76490 0.61344 0.88645
 C4636 C 0.77941 0.60163 0.88052
 C4637 C 0.79591 0.60909 0.87322
 C4638 C 0.79828 0.62852 0.87176
 C4639 C 0.78382 0.64031 0.87780
 C4640 C 0.76732 0.63286 0.88505
 C4641 C 0.74724 0.60557 0.89395
 C4642 C 0.72996 0.61348 0.88905
 C4643 C 0.71333 0.60624 0.89622
 C4644 C 0.71358 0.59091 0.90847
 C4645 C 0.73085 0.58291 0.91329
 C4646 C 0.74749 0.59015 0.90610
 C4647 C 0.69588 0.58340 0.91625
 C4648 C 0.69307 0.56404 0.91792
 C4649 C 0.67629 0.55703 0.92503
 C4650 C 0.66199 0.56922 0.93069
 C4651 C 0.66485 0.58856 0.92911
 C4652 C 0.68159 0.59557 0.92198
 H4653 H 0.77789 0.58661 0.88126
 H4654 H 0.80688 0.59965 0.86883
 H4655 H 0.78515 0.65533 0.87667
 H4656 H 0.75648 0.64233 0.88970
 H4657 H 0.72928 0.62515 0.87945
 H4658 H 0.70024 0.61250 0.89197
 H4659 H 0.73151 0.57125 0.92290
 H4660 H 0.76060 0.58391 0.91033
 H4661 H 0.70374 0.55430 0.91346
 H4662 H 0.67455 0.54205 0.92623
 H4663 H 0.65401 0.59831 0.93313
 H4664 H 0.68341 0.61055 0.92107
 C4665 C 1.26501 0.88649 1.11330
 C4666 C 1.26734 0.86708 1.11495
 C4667 C 1.28385 0.85964 1.12221
 C4668 C 1.29842 0.87144 1.12799
 C4669 C 1.29614 0.89086 1.12627
 C4670 C 1.27963 0.89830 1.11898
 C4671 C 1.24736 0.89436 1.10578
 C4672 C 1.24764 0.90967 1.09349
 C4673 C 1.23099 0.91694 1.08632
 C4674 C 1.21371 0.90906 1.09127
 C4675 C 1.21344 0.89383 1.10365
 C4676 C 1.23006 0.88657 1.11082
 C4677 C 1.19602 0.91659 1.08351
 C4678 C 1.18169 0.90444 1.07784
 C4679 C 1.16496 0.91147 1.07070
 C4680 C 1.16215 0.93082 1.06906
 C4681 C 1.17649 0.94299 1.07467
 C4682 C 1.19326 0.93595 1.08179
 H4683 H 1.25642 0.85760 1.11049
 H4684 H 1.28510 0.84463 1.12355
 H4685 H 1.30719 0.90030 1.13044
 H4686 H 1.27820 0.91332 1.11805
 H4687 H 1.26075 0.91581 1.08915
 H4688 H 1.23167 0.92852 1.07662
 H4689 H 1.20033 0.88767 1.10799
 H4690 H 1.22936 0.87500 1.12052
 H4691 H 1.18347 0.88946 1.07880
 H4692 H 1.15409 0.90174 1.06671
 H4693 H 1.17479 0.95796 1.07344
 H4694 H 1.20398 0.94567 1.08619
 C4695 C 1.26573 0.38774 0.61244
 C4696 C 1.26813 0.36831 0.61379
 C4697 C 1.28464 0.36083 0.62097
 C4698 C 1.29916 0.37259 0.62697
 C4699 C 1.29684 0.39202 0.62549
 C4700 C 1.28032 0.39952 0.61827
 C4701 C 1.24798 0.39563 0.60518
 C4702 C 1.24806 0.41106 0.59305
 C4703 C 1.23130 0.41827 0.58606
 C4704 C 1.21412 0.41020 0.59104
 C4705 C 1.21405 0.39488 0.60330
 C4706 C 1.23077 0.38768 0.61028
 C4707 C 1.19631 0.41759 0.58341
 C4708 C 1.18206 0.40531 0.57779
 C4709 C 1.16520 0.41219 0.57081
 C4710 C 1.16219 0.43152 0.56925
 C4711 C 1.17645 0.44382 0.57480
 C4712 C 1.19334 0.43693 0.58177
 H4713 H 1.25724 0.35887 0.60921
 H4714 H 1.28591 0.34581 0.62212
 H4715 H 1.30785 0.40143 0.62985
 H4716 H 1.27882 0.41455 0.61754
 H4717 H 1.26110 0.41735 0.58869
 H4718 H 1.23182 0.42993 0.57645
 H4719 H 1.20102 0.38857 0.60768
 H4720 H 1.23023 0.37601 0.61988
 H4721 H 1.18400 0.39034 0.57868
 H4722 H 1.15441 0.40236 0.56686
 H4723 H 1.17459 0.45877 0.57362
 H4724 H 1.20399 0.44674 0.58614
 C4725 C 0.76491 0.88742 0.61332
 C4726 C 0.77949 0.89920 0.61916
 C4727 C 0.79600 0.89172 0.62641
 C4728 C 0.79832 0.87229 0.62792
 C4729 C 0.78379 0.86052 0.62198
 C4730 C 0.76728 0.86799 0.61477
 C4731 C 0.74726 0.89531 0.60582
 C4732 C 0.72997 0.88743 0.61076
 C4733 C 0.71335 0.89465 0.60355
 C4734 C 0.71361 0.90993 0.59124
 C4735 C 0.73088 0.91792 0.58642
 C4736 C 0.74752 0.91069 0.59363
 C4737 C 0.69591 0.91741 0.58342
 C4738 C 0.69308 0.93676 0.58172
 C4739 C 0.67630 0.94373 0.57457
 C4740 C 0.66202 0.93151 0.56891
 C4741 C 0.66491 0.91217 0.57051
 C4742 C 0.68166 0.90520 0.57768
 H4743 H 0.77802 0.91423 0.61838
 H4744 H 0.80703 0.90113 0.63072
 H4745 H 0.78507 0.84550 0.62315
 H4746 H 0.75640 0.85854 0.61018
 H4747 H 0.72928 0.87579 0.62039
 H4748 H 0.70025 0.88841 0.60781
 H4749 H 0.73155 0.92955 0.57677
 H4750 H 0.76063 0.91691 0.58937
 H4751 H 0.70373 0.94651 0.58619
 H4752 H 0.67453 0.95870 0.57336
 H4753 H 0.65410 0.90240 0.56647
 H4754 H 0.68350 0.89022 0.57860
 C4755 C 0.76526 0.38674 1.11248
 C4756 C 0.77973 0.39856 1.11852
 C4757 C 0.79622 0.39110 1.12586
 C4758 C 0.79861 0.37167 1.12726
 C4759 C 0.78420 0.35987 1.12107
 C4760 C 0.76772 0.36732 1.11378
 C4761 C 0.74757 0.39460 1.10504
 C4762 C 0.73032 0.38663 1.10995
 C4763 C 0.71366 0.39386 1.10285
 C4764 C 0.71383 0.40924 1.09066
 C4765 C 0.73107 0.41731 1.08584
 C4766 C 0.74776 0.41007 1.09296
 C4767 C 0.69609 0.41673 1.08295
 C4768 C 0.69322 0.43608 1.08134
 C4769 C 0.67639 0.44307 1.07432
 C4770 C 0.66208 0.43085 1.06871
 C4771 C 0.66499 0.41151 1.07024
 C4772 C 0.68179 0.40453 1.07727
 H4773 H 0.77819 0.41358 1.11784
 H4774 H 0.80715 0.40053 1.13037
 H4775 H 0.78555 0.34485 1.12215
 H4776 H 0.75691 0.35785 1.10905
 H4777 H 0.72969 0.37492 1.11950
 H4778 H 0.70059 0.38755 1.10711
 H4779 H 0.73168 0.42901 1.07628
 H4780 H 0.76084 0.41637 1.08874
 H4781 H 0.70390 0.44583 1.08576
 H4782 H 0.67461 0.45804 1.07316
 H4783 H 0.65416 0.40174 1.06625
 H4784 H 0.68365 0.38955 1.07813
 C4785 C 0.73523 1.11403 1.11347
 C4786 C 0.73275 1.11546 1.13290
 C4787 C 0.71623 1.12277 1.14027
 C4788 C 0.70183 1.12884 1.12840
 C4789 C 0.70428 1.12735 1.10898
 C4790 C 0.72079 1.12000 1.10160
 C4791 C 0.75288 1.10643 1.10567
 C4792 C 0.75260 1.09428 1.09025
 C4793 C 0.76923 1.08704 1.08302
 C4794 C 0.78650 1.09181 1.09103
 C4795 C 0.78678 1.10405 1.10638
 C4796 C 0.77016 1.11127 1.11361
 C4797 C 0.80419 1.08402 1.08349
 C4798 C 0.81848 1.07826 1.09565
 C4799 C 0.83520 1.07109 1.08861
 C4800 C 0.83801 1.06950 1.06925
 C4801 C 0.82370 1.07520 1.05708
 C4802 C 0.80696 1.08236 1.06412
 H4803 H 0.74353 1.11079 1.14241
 H4804 H 0.71484 1.12392 1.15529
 H4805 H 0.69336 1.13175 1.09948
 H4806 H 0.72236 1.11923 1.08657
 H4807 H 0.73949 1.09009 1.08399
 H4808 H 0.76854 1.07745 1.07135
 H4809 H 0.79988 1.10826 1.11265
 H4810 H 0.77087 1.12086 1.12529
 H4811 H 0.81669 1.07916 1.11064
 H4812 H 0.84604 1.06703 1.09834
 H4813 H 0.82541 1.07400 1.04210
 H4814 H 0.79628 1.08684 1.05440
 C4815 C 0.73523 0.61397 0.61263
 C4816 C 0.73288 0.61540 0.63207
 C4817 C 0.71637 0.62258 0.63956
 C4818 C 0.70182 0.62852 0.62779
 C4819 C 0.70413 0.62701 0.60835
 C4820 C 0.72064 0.61978 0.60085
 C4821 C 0.75291 0.60656 0.60472
 C4822 C 0.75268 0.59438 0.58933
 C4823 C 0.76935 0.58726 0.58206
 C4824 C 0.78660 0.59218 0.59003
 C4825 C 0.78683 0.60448 0.60532
 C4826 C 0.77018 0.61158 0.61258
 C4827 C 0.80432 0.58442 0.58254
 C4828 C 0.81860 0.57874 0.59475
 C4829 C 0.83535 0.57159 0.58777
 C4830 C 0.83821 0.56994 0.56843
 C4831 C 0.82392 0.57557 0.55620
 C4832 C 0.80714 0.58271 0.56318
 H4833 H 0.74377 0.61083 0.64151
 H4834 H 0.71510 0.62376 0.65458
 H4835 H 0.69310 0.63132 0.59894
 H4836 H 0.72210 0.61901 0.58582
 H4837 H 0.73958 0.59006 0.58312
 H4838 H 0.76870 0.57762 0.57043
 H4839 H 0.79991 0.60880 0.61155
 H4840 H 0.77084 0.62121 0.62423
 H4841 H 0.81678 0.57969 0.60973
 H4842 H 0.84618 0.56758 0.59754
 H4843 H 0.82567 0.57433 0.54123
 H4844 H 0.79647 0.58713 0.55343
 C4845 C 0.23456 1.11307 0.61290
 C4846 C 0.23209 1.11434 0.63233
 C4847 C 0.21561 1.12164 0.63978
 C4848 C 0.20121 1.12784 0.62797
 C4849 C 0.20362 1.12647 0.60854
 C4850 C 0.22010 1.11912 0.60108
 C4851 C 0.25224 1.10560 0.60505
 C4852 C 0.25203 1.09352 0.58958
 C4853 C 0.26871 1.08635 0.58236
 C4854 C 0.28595 1.09113 0.59046
 C4855 C 0.28614 1.10332 0.60584
 C4856 C 0.26949 1.11047 0.61305
 C4857 C 0.30368 1.08337 0.58300
 C4858 C 0.31794 1.07766 0.59523
 C4859 C 0.33473 1.07060 0.58827
 C4860 C 0.33767 1.06905 0.56893
 C4861 C 0.32338 1.07467 0.55669
 C4862 C 0.30656 1.08173 0.56365
 H4863 H 0.24288 1.10959 0.64180
 H4864 H 0.21426 1.12270 0.65481
 H4865 H 0.19270 1.13098 0.59910
 H4866 H 0.22166 1.11846 0.58605
 H4867 H 0.23894 1.08932 0.58326
 H4868 H 0.26808 1.07679 0.57066
 H4869 H 0.29921 1.10755 0.61217
 H4870 H 0.27013 1.12001 0.62476
 H4871 H 0.31607 1.07854 0.61021
 H4872 H 0.34555 1.06660 0.59806
 H4873 H 0.32518 1.07350 0.54172
 H4874 H 0.29591 1.08617 0.55387
 C4875 C 0.23530 0.61474 1.11274
 C4876 C 0.23306 0.61644 1.13217
 C4877 C 0.21655 0.62362 1.13966
 C4878 C 0.20188 0.62927 1.12791
 C4879 C 0.20408 0.62753 1.10848
 C4880 C 0.22060 0.62032 1.10098
 C4881 C 0.25294 0.60722 1.10482
 C4882 C 0.25262 0.59487 1.08956
 C4883 C 0.26924 0.58761 1.08232
 C4884 C 0.28654 0.59253 1.09020
 C4885 C 0.28685 0.60499 1.10536
 C4886 C 0.27026 0.61225 1.11258
 C4887 C 0.30420 0.58463 1.08274
 C4888 C 0.31847 0.57894 1.09496
 C4889 C 0.33518 0.57167 1.08801
 C4890 C 0.33802 0.56992 1.06867
 C4891 C 0.32373 0.57554 1.05643
 C4892 C 0.30699 0.58278 1.06339
 H4893 H 0.24403 0.61206 1.14161
 H4894 H 0.21537 0.62499 1.15468
 H4895 H 0.19295 0.63160 1.09908
 H4896 H 0.22197 0.61934 1.08595
 H4897 H 0.23949 0.59053 1.08344
 H4898 H 0.26853 0.57785 1.07079
 H4899 H 0.29998 0.60931 1.11151
 H4900 H 0.27099 0.62200 1.12412
 H4901 H 0.31666 0.57999 1.10994
 H4902 H 0.34600 0.56767 1.09779
 H4903 H 0.32547 0.57422 1.04146
 H4904 H 0.29632 0.58719 1.05362
 C4905 C 0.73396 0.88777 0.88807
 C4906 C 0.71939 0.89946 0.88204
 C4907 C 0.70307 0.89189 0.87446
 C4908 C 0.70096 0.87245 0.87272
 C4909 C 0.71552 0.86077 0.87877
 C4910 C 0.73182 0.86833 0.88636
 C4911 C 0.75141 0.89576 0.89595
 C4912 C 0.76014 0.88733 0.91138
 C4913 C 0.77681 0.89454 0.91851
 C4914 C 0.78515 0.91033 0.91037
 C4915 C 0.77630 0.91889 0.89507
 C4916 C 0.75962 0.91169 0.88795
 C4917 C 0.80315 0.91765 0.91763
 C4918 C 0.80629 0.93697 0.91909
 C4919 C 0.82331 0.94379 0.92581
 C4920 C 0.83756 0.93143 0.93123
 C4921 C 0.83442 0.91212 0.92976
 C4922 C 0.81742 0.90531 0.92304
 H4923 H 0.72052 0.91448 0.88342
 H4924 H 0.69199 0.90124 0.87016
 H4925 H 0.71446 0.84576 0.87732
 H4926 H 0.74292 0.85897 0.89058
 H4927 H 0.75399 0.87524 0.91805
 H4928 H 0.78311 0.88783 0.93051
 H4929 H 0.78251 0.93092 0.88834
 H4930 H 0.75336 0.91833 0.87589
 H4931 H 0.79548 0.94683 0.91526
 H4932 H 0.82524 0.95874 0.92700
 H4933 H 0.84525 0.90225 0.93349
 H4934 H 0.81557 0.89036 0.92177
 C4935 C 0.73463 0.38775 0.38687
 C4936 C 0.73209 0.38642 0.36745
 C4937 C 0.71556 0.37914 0.36008
 C4938 C 0.70119 0.37301 0.37195
 C4939 C 0.70367 0.37445 0.39137
 C4940 C 0.72020 0.38177 0.39875
 C4941 C 0.75236 0.39520 0.39465
 C4942 C 0.75224 0.40732 0.41009
 C4943 C 0.76895 0.41445 0.41724
 C4944 C 0.78615 0.40960 0.40912
 C4945 C 0.78626 0.39737 0.39377
 C4946 C 0.76956 0.39026 0.38662
 C4947 C 0.80394 0.41731 0.41653
 C4948 C 0.81819 0.42295 0.40427
 C4949 C 0.83502 0.42997 0.41117
 C4950 C 0.83801 0.43154 0.43051
 C4951 C 0.82374 0.42599 0.44279
 C4952 C 0.80687 0.41897 0.43587
 H4953 H 0.74286 0.39111 0.35793
 H4954 H 0.71415 0.37803 0.34506
 H4955 H 0.69277 0.36998 0.40086
 H4956 H 0.72181 0.38248 0.41377
 H4957 H 0.73918 0.41157 0.41642
 H4958 H 0.76839 0.42404 0.42892
 H4959 H 0.79930 0.39308 0.38742
 H4960 H 0.77014 0.38068 0.37493
 H4961 H 0.81627 0.42205 0.38929
 H4962 H 0.84582 0.43392 0.40136
 H4963 H 0.82557 0.42718 0.45775
 H4964 H 0.79623 0.41458 0.44568
 C4965 C 0.23571 0.88654 0.38541
 C4966 C 0.22097 0.89831 0.38000
 C4967 C 0.20448 0.89085 0.37266
 C4968 C 0.20236 0.87145 0.37060
 C4969 C 0.21709 0.85968 0.37605
 C4970 C 0.23356 0.86714 0.38337
 C4971 C 0.25331 0.89441 0.39310
 C4972 C 0.27067 0.88679 0.38802
 C4973 C 0.28722 0.89399 0.39541
 C4974 C 0.28682 0.90900 0.40805
 C4975 C 0.26948 0.91673 0.41303
 C4976 C 0.25290 0.90950 0.40565
 C4977 C 0.30444 0.91649 0.41602
 C4978 C 0.30713 0.93584 0.41797
 C4979 C 0.32386 0.94285 0.42520
 C4980 C 0.33822 0.93066 0.43072
 C4981 C 0.33546 0.91132 0.42891
 C4982 C 0.31877 0.90432 0.42163
 H4983 H 0.22226 0.91333 0.38122
 H4984 H 0.19331 0.90026 0.36875
 H4985 H 0.21598 0.84469 0.37444
 H4986 H 0.24457 0.85768 0.38761
 H4987 H 0.27148 0.87539 0.37812
 H4988 H 0.30038 0.88796 0.39105
 H4989 H 0.26870 0.92814 0.42292
 H4990 H 0.23974 0.91551 0.41004
 H4991 H 0.29641 0.94557 0.41361
 H4992 H 0.32553 0.95781 0.42657
 H4993 H 0.34635 0.90159 0.43284
 H4994 H 0.31703 0.88934 0.42050
 C4995 C 0.23520 0.38630 0.88606
 C4996 C 0.22081 0.38020 0.89794
 C4997 C 0.20429 0.37286 0.89055
 C4998 C 0.20177 0.37153 0.87112
 C4999 C 0.21611 0.37774 0.85925
 C5000 C 0.23264 0.38503 0.86664
 C5001 C 0.25286 0.39387 0.89389
 C5002 C 0.27012 0.38911 0.88587
 C5003 C 0.28675 0.39627 0.89314
 C5004 C 0.28651 0.40838 0.90859
 C5005 C 0.26925 0.41308 0.91666
 C5006 C 0.25260 0.40590 0.90940
 C5007 C 0.30421 0.41613 0.91616
 C5008 C 0.30701 0.41769 0.93553
 C5009 C 0.32375 0.42484 0.94260
 C5010 C 0.33804 0.43062 0.93045
 C5011 C 0.33520 0.42912 0.91109
 C5012 C 0.31849 0.42197 0.90402
 H5013 H 0.22243 0.38084 0.91296
 H5014 H 0.19342 0.36835 0.90004
 H5015 H 0.21466 0.37672 0.84423
 H5016 H 0.24338 0.38981 0.85713
 H5017 H 0.27080 0.37961 0.87412
 H5018 H 0.29984 0.39212 0.88681
 H5019 H 0.26858 0.42258 0.92841
 H5020 H 0.23950 0.41002 0.91572
 H5021 H 0.29635 0.41315 0.94524
 H5022 H 0.32548 0.42597 0.95759
 H5023 H 0.34603 0.43324 0.90137
 H5024 H 0.31668 0.42115 0.88903
   
