data_POSCAR
  _audit_creation_date              2014-09-24
  _audit_creation_method            'ToBaCCo'
  _symmetry_space_group_name_H-M    'P1'
  _symmetry_Int_Tables_number       1
  _symmetry_cell_setting            triclinic
  loop_
  _symmetry_equiv_pos_as_xyz
 x,y,z
_cell_length_a 63.3888
_cell_length_b 60.2466
_cell_length_c 57.6168
_cell_angle_alpha 89.111300
_cell_angle_beta 89.059900
_cell_angle_gamma 90.114100
loop_
  _atom_site_label
  _atom_site_type_symbol
  _atom_site_fract_x
  _atom_site_fract_y
  _atom_site_fract_z
N1 N 0.36955 0.30116 0.31479
 N2 N 0.36506 0.30585 0.29309
 C3 C 0.38226 0.30214 0.27961
 C4 C 0.39837 0.29524 0.29397
 C5 C 0.38978 0.29492 0.31611
 H6 H 0.38323 0.30515 0.26106
 H7 H 0.39753 0.29018 0.33202
 Cu8 Cu 0.33799 0.31913 0.28586
 Cu9 Cu 0.34887 0.30312 0.33969
 Cu10 Cu 0.29778 0.31639 0.32498
 N11 N 0.31508 0.34051 0.28563
 N12 N 0.29924 0.33991 0.30070
 C13 C 0.28715 0.35812 0.29731
 C14 C 0.29623 0.37077 0.27941
 C15 C 0.31377 0.35895 0.27240
 H16 H 0.27359 0.36248 0.30792
 H17 H 0.32536 0.36387 0.25932
 N18 N 0.30449 0.29913 0.35360
 N19 N 0.32425 0.29510 0.35923
 C20 C 0.32457 0.28091 0.37737
 C21 C 0.30413 0.27557 0.38366
 C22 C 0.29162 0.28762 0.36843
 H23 H 0.33877 0.27374 0.38443
 H24 H 0.27464 0.28676 0.36713
 H25 H 0.32447 0.29615 0.31759
 H26 H 0.32771 0.32568 0.32639
 N27 N 0.36145 0.80726 -0.19227
 N28 N 0.36155 0.82448 -0.20662
 C29 C 0.37867 0.82374 -0.22057
 C30 C 0.39001 0.80488 -0.21506
 C31 C 0.37852 0.79457 -0.19713
 H32 H 0.38253 0.83617 -0.23371
 H33 H 0.38269 0.77956 -0.18775
 Cu34 Cu 0.33981 0.84707 -0.20605
 Cu35 Cu 0.33962 0.80477 -0.16736
 Cu36 Cu 0.32468 0.85811 -0.15226
 N37 N 0.32426 0.87392 -0.19926
 N38 N 0.31958 0.87888 -0.17766
 C39 C 0.31036 0.89894 -0.17715
 C40 C 0.30864 0.90665 -0.19979
 C41 C 0.31762 0.89036 -0.21343
 H42 H 0.30465 0.90681 -0.16152
 H43 H 0.31945 0.89057 -0.23214
 N44 N 0.32007 0.83195 -0.13188
 N45 N 0.32421 0.81130 -0.13787
 C46 C 0.31507 0.79738 -0.12199
 C47 C 0.30469 0.81007 -0.10542
 C48 C 0.30843 0.83178 -0.11224
 H49 H 0.31512 0.77946 -0.12301
 H50 H 0.30181 0.84648 -0.10447
 H51 H 0.31898 0.83183 -0.17387
 H52 H 0.34693 0.83660 -0.16563
 N53 N 0.87532 0.32618 -0.16509
 N54 N 0.86996 0.32975 -0.18679
 C55 C 0.88439 0.31979 -0.20079
 C56 C 0.89939 0.30961 -0.18680
 C57 C 0.89325 0.31453 -0.16443
 H58 H 0.88347 0.31907 -0.21949
 H59 H 0.90027 0.30853 -0.14856
 Cu60 Cu 0.84376 0.34617 -0.19333
 Cu61 Cu 0.85661 0.33141 -0.13883
 Cu62 Cu 0.80502 0.33737 -0.15356
 N63 N 0.81791 0.36434 -0.19319
 N64 N 0.80323 0.36077 -0.17713
 C65 C 0.78850 0.37665 -0.17850
 C66 C 0.79394 0.39106 -0.19648
 C67 C 0.81259 0.38258 -0.20581
 H68 H 0.77503 0.37779 -0.16682
 H69 H 0.82220 0.38991 -0.21960
 N70 N 0.81328 0.32500 -0.12351
 N71 N 0.83318 0.32454 -0.11719
 C72 C 0.83441 0.31453 -0.09625
 C73 C 0.81431 0.30822 -0.08924
 C74 C 0.80122 0.31528 -0.10681
 H75 H 0.84902 0.31057 -0.08770
 H76 H 0.78438 0.31265 -0.10787
 H77 H 0.83420 0.32189 -0.16067
 H78 H 0.83366 0.35170 -0.15243
 N79 N 0.86681 0.77991 0.32753
 N80 N 0.87155 0.79164 0.30870
 C81 C 0.88977 0.78381 0.29950
 C82 C 0.89671 0.76651 0.31357
 C83 C 0.88179 0.76459 0.33113
 H84 H 0.89748 0.79023 0.28390
 H85 H 0.88157 0.75251 0.34521
 Cu86 Cu 0.85346 0.81629 0.29872
 Cu87 Cu 0.84108 0.78390 0.34558
 Cu88 Cu 0.80564 0.82197 0.32383
 N89 N 0.83573 0.84238 0.29244
 N90 N 0.81677 0.84374 0.30192
 C91 C 0.80717 0.86221 0.29429
 C92 C 0.82084 0.87343 0.27944
 C93 C 0.83895 0.86044 0.27857
 H94 H 0.79142 0.86725 0.29946
 H95 H 0.85316 0.86368 0.26841
 N96 N 0.80058 0.80496 0.35259
 N97 N 0.81396 0.79025 0.36092
 C98 C 0.80649 0.78243 0.38149
 C99 C 0.78785 0.79323 0.38646
 C100 C 0.78455 0.80742 0.36789
 H101 H 0.81457 0.77079 0.39270
 H102 H 0.77184 0.81924 0.36605
 H103 H 0.82521 0.79426 0.31745
 H104 H 0.83572 0.81671 0.33623
 N105 N 0.62415 0.69133 0.32579
 N106 N 0.62981 0.67868 0.30841
 C107 C 0.61432 0.67799 0.29287
 C108 C 0.59814 0.69129 0.30064
 C109 C 0.60484 0.69974 0.32150
 H110 H 0.61471 0.66838 0.27717
 H111 H 0.59603 0.71040 0.33305
 Cu112 Cu 0.65629 0.66339 0.30807
 Cu113 Cu 0.64198 0.69401 0.35315
 Cu114 Cu 0.68956 0.66446 0.35212
 N115 N 0.67702 0.64053 0.31206
 N116 N 0.69067 0.64076 0.32898
 C117 C 0.70291 0.62245 0.32742
 C118 C 0.69596 0.61018 0.30883
 C119 C 0.67957 0.62211 0.29962
 H120 H 0.71510 0.61789 0.33951
 H121 H 0.66987 0.61748 0.28518
 N122 N 0.68087 0.68410 0.37797
 N123 N 0.66248 0.69445 0.37874
 C124 C 0.66106 0.70594 0.39857
 C125 C 0.67947 0.70296 0.41070
 C126 C 0.69173 0.68911 0.39715
 H127 H 0.64798 0.71648 0.40343
 H128 H 0.70744 0.68327 0.40095
 H129 H 0.67059 0.68873 0.33700
 H130 H 0.65750 0.66377 0.34998
 N131 N 0.63457 0.20933 -0.16821
 N132 N 0.63312 0.19754 -0.18714
 C133 C 0.61527 0.20308 -0.19819
 C134 C 0.60489 0.21891 -0.18526
 C135 C 0.61752 0.22248 -0.16634
 H136 H 0.60999 0.19583 -0.21414
 H137 H 0.61468 0.23408 -0.15249
 Cu138 Cu 0.65406 0.17526 -0.19483
 Cu139 Cu 0.65895 0.20765 -0.14808
 Cu140 Cu 0.69805 0.17020 -0.16387
 N141 N 0.67166 0.14890 -0.19670
 N142 N 0.68957 0.14770 -0.18559
 C143 C 0.69981 0.12908 -0.19166
 C144 C 0.68739 0.11774 -0.20701
 C145 C 0.66954 0.13070 -0.20976
 H146 H 0.71505 0.12410 -0.18522
 H147 H 0.65643 0.12760 -0.22106
 N148 N 0.69959 0.18881 -0.13622
 N149 N 0.68505 0.20345 -0.13035
 C150 C 0.69061 0.21296 -0.11030
 C151 C 0.70918 0.20337 -0.10306
 C152 C 0.71439 0.18809 -0.11977
 H153 H 0.68132 0.22505 -0.10097
 H154 H 0.72770 0.17689 -0.11963
 H155 H 0.67946 0.19758 -0.17319
 H156 H 0.66679 0.17499 -0.15536
 N157 N 0.13647 0.69729 -0.19106
 N158 N 0.13682 0.68248 -0.20758
 C159 C 0.11903 0.68371 -0.21975
 C160 C 0.10665 0.70034 -0.21074
 C161 C 0.11820 0.70884 -0.19253
 H162 H 0.11535 0.67317 -0.23415
 H163 H 0.11344 0.72196 -0.18097
 Cu164 Cu 0.15985 0.66222 -0.21188
 Cu165 Cu 0.15972 0.69872 -0.16854
 Cu166 Cu 0.20219 0.66281 -0.17934
 N167 N 0.17831 0.63682 -0.21040
 N168 N 0.19585 0.63751 -0.19864
 C169 C 0.20668 0.61858 -0.20199
 C170 C 0.19484 0.60519 -0.21608
 C171 C 0.17693 0.61722 -0.22107
 H172 H 0.22172 0.61467 -0.19434
 H173 H 0.16413 0.61234 -0.23210
 N174 N 0.20102 0.68325 -0.15312
 N175 N 0.18522 0.69692 -0.14855
 C176 C 0.18891 0.70667 -0.12797
 C177 C 0.20760 0.69827 -0.11926
 C178 C 0.21473 0.68357 -0.13563
 H179 H 0.17815 0.71779 -0.11920
 H180 H 0.22841 0.67295 -0.13429
 H181 H 0.18232 0.68838 -0.19093
 H182 H 0.17031 0.66628 -0.17209
 N183 N 0.11558 0.17472 0.34415
 N184 N 0.11888 0.17219 0.32178
 C185 C 0.10429 0.18368 0.30997
 C186 C 0.09118 0.19388 0.32592
 C187 C 0.09858 0.18767 0.34746
 H188 H 0.10362 0.18501 0.29125
 H189 H 0.09278 0.19301 0.36422
 Cu190 Cu 0.14231 0.15468 0.31050
 Cu191 Cu 0.13505 0.16283 0.36674
 Cu192 Cu 0.18377 0.14625 0.34503
 N193 N 0.16257 0.13150 0.30432
 N194 N 0.17926 0.12825 0.31722
 C195 C 0.19040 0.11111 0.30848
 C196 C 0.17977 0.10320 0.28940
 C197 C 0.16226 0.11656 0.28732
 H198 H 0.20474 0.10453 0.31579
 H199 H 0.15008 0.11548 0.27446
 N200 N 0.17966 0.15759 0.37694
 N201 N 0.16064 0.16176 0.38551
 C202 C 0.16244 0.17154 0.40612
 C203 C 0.18354 0.17435 0.41065
 C204 C 0.19414 0.16503 0.39193
 H205 H 0.14932 0.17858 0.41568
 H206 H 0.21097 0.16547 0.38850
 H207 H 0.15941 0.17019 0.34392
 H208 H 0.15312 0.14016 0.34846
 N209 N 0.63634 0.31011 0.68032
 N210 N 0.63652 0.32878 0.69179
 C211 C 0.61784 0.33144 0.70275
 C212 C 0.60544 0.31316 0.69839
 C213 C 0.61767 0.29979 0.68423
 H214 H 0.61381 0.34524 0.71374
 H215 H 0.61324 0.28399 0.67708
 Cu216 Cu 0.66188 0.34657 0.69305
 Cu217 Cu 0.66051 0.30147 0.66089
 Cu218 Cu 0.70083 0.34107 0.65375
 N219 N 0.68385 0.36864 0.68970
 N220 N 0.69990 0.36610 0.67523
 C221 C 0.71273 0.38396 0.67660
 C222 C 0.70383 0.39845 0.69241
 C223 C 0.68554 0.38824 0.70025
 H224 H 0.72678 0.38675 0.66603
 H225 H 0.67417 0.39479 0.71255
 N226 N 0.69836 0.31451 0.63397
 N227 N 0.68276 0.30000 0.63645
 C228 C 0.68368 0.28567 0.61880
 C229 C 0.70077 0.29116 0.60467
 C230 C 0.70986 0.30939 0.61485
 H231 H 0.67227 0.27268 0.61591
 H232 H 0.72301 0.31901 0.60795
 H233 H 0.68540 0.31912 0.67496
 H234 H 0.66853 0.33423 0.65392
 N235 N 0.61922 0.80847 1.17303
 N236 N 0.62323 0.81248 1.19487
 C237 C 0.60662 0.80589 1.20818
 C238 C 0.59136 0.79765 1.19370
 C239 C 0.59983 0.79966 1.17153
 H240 H 0.60562 0.80719 1.22687
 H241 H 0.59272 0.79452 1.15554
 Cu242 Cu 0.64940 0.82695 1.20316
 Cu243 Cu 0.63971 0.81413 1.14823
 Cu244 Cu 0.69032 0.82706 1.16541
 N245 N 0.67295 0.84737 1.20617
 N246 N 0.68926 0.84720 1.19175
 C247 C 0.70293 0.86321 1.19777
 C248 C 0.69450 0.87411 1.21673
 C249 C 0.67550 0.86360 1.22162
 H250 H 0.71748 0.86715 1.18852
 H251 H 0.66417 0.86768 1.23512
 N252 N 0.68423 0.81490 1.13465
 N253 N 0.66479 0.81075 1.12805
 C254 C 0.66543 0.80164 1.10693
 C255 C 0.68625 0.80001 1.09981
 C256 C 0.69782 0.80870 1.11771
 H257 H 0.65176 0.79578 1.09784
 H258 H 0.71482 0.80973 1.11866
 H259 H 0.66358 0.80630 1.17039
 H260 H 0.66026 0.83643 1.16332
 N261 N 0.14017 0.29232 1.18292
 N262 N 0.13803 0.30744 1.19903
 C263 C 0.12000 0.30361 1.21115
 C264 C 0.11018 0.28542 1.20177
 C265 C 0.12339 0.27862 1.18393
 H266 H 0.11384 0.31412 1.22471
 H267 H 0.12071 0.26514 1.17214
 Cu268 Cu 0.15735 0.33258 1.20051
 Cu269 Cu 0.16397 0.29279 1.16086
 Cu270 Cu 0.17644 0.34719 1.14775
 N271 N 0.17055 0.36136 1.19474
 N272 N 0.17641 0.36742 1.17358
 C273 C 0.18380 0.38830 1.17376
 C274 C 0.18306 0.39555 1.19634
 C275 C 0.17465 0.37806 1.20934
 H276 H 0.19041 0.39703 1.15878
 H277 H 0.17179 0.37750 1.22789
 N278 N 0.18475 0.32227 1.12788
 N279 N 0.18092 0.30127 1.13327
 C280 C 0.19114 0.28826 1.11795
 C281 C 0.20203 0.30189 1.10232
 C282 C 0.19754 0.32328 1.10907
 H283 H 0.19123 0.27031 1.11861
 H284 H 0.20396 0.33847 1.10161
 H285 H 0.18175 0.32129 1.17004
 H286 H 0.15422 0.32441 1.15924
 N287 N 0.12759 0.82478 0.69241
 N288 N 0.13004 0.84369 0.70320
 C289 C 0.11420 0.84596 0.71892
 C290 C 0.10141 0.82731 0.71795
 C291 C 0.11045 0.81423 0.70109
 H292 H 0.11227 0.85991 0.73034
 H293 H 0.10483 0.79829 0.69534
 Cu294 Cu 0.15427 0.86291 0.69595
 Cu295 Cu 0.14658 0.81508 0.66771
 Cu296 Cu 0.17510 0.85821 0.64262
 N297 N 0.17881 0.88066 0.68589
 N298 N 0.18611 0.87902 0.66450
 C299 C 0.20242 0.89293 0.66114
 C300 C 0.20595 0.90375 0.68160
 C301 C 0.19064 0.89569 0.69708
 H302 H 0.21137 0.89451 0.64506
 H303 H 0.18834 0.90036 0.71499
 N304 N 0.17117 0.82976 0.62750
 N305 N 0.16059 0.81301 0.63707
 C306 C 0.16256 0.79521 0.62332
 C307 C 0.17542 0.80114 0.60460
 C308 C 0.18061 0.82304 0.60780
 H309 H 0.15621 0.77890 0.62732
 H310 H 0.19130 0.83304 0.59718
 H311 H 0.17205 0.83699 0.67018
 H312 H 0.14657 0.84710 0.65810
 N313 N 0.37131 0.68816 0.68418
 N314 N 0.36780 0.66985 0.69638
 C315 C 0.38406 0.66618 0.71065
 C316 C 0.39840 0.68326 0.70743
 C317 C 0.38982 0.69699 0.69062
 H318 H 0.38503 0.65253 0.72300
 H319 H 0.39650 0.71231 0.68373
 Cu320 Cu 0.34184 0.65312 0.69390
 Cu321 Cu 0.35163 0.69891 0.66080
 Cu322 Cu 0.31036 0.66357 0.64873
 N323 N 0.32048 0.63218 0.68461
 N324 N 0.30917 0.63573 0.66601
 C325 C 0.29619 0.61838 0.66306
 C326 C 0.29935 0.60340 0.68100
 C327 C 0.31476 0.61264 0.69447
 H328 H 0.28469 0.61714 0.64948
 H329 H 0.32136 0.60562 0.71014
 N330 N 0.31406 0.69257 0.63331
 N331 N 0.32981 0.70615 0.63771
 C332 C 0.32787 0.72460 0.62436
 C333 C 0.30992 0.72244 0.61121
 C334 C 0.30156 0.70204 0.61734
 H335 H 0.33857 0.73859 0.62431
 H336 H 0.28742 0.69466 0.61055
 H337 H 0.32463 0.68350 0.67329
 H338 H 0.34264 0.66691 0.65414
 N339 N 0.38177 0.17637 1.17851
 N340 N 0.38147 0.15810 1.19124
 C341 C 0.39734 0.15854 1.20637
 C342 C 0.40822 0.17821 1.20307
 C343 C 0.39796 0.18923 1.18522
 H344 H 0.40037 0.14569 1.21919
 H345 H 0.40198 0.20528 1.17771
 Cu346 Cu 0.35979 0.13586 1.18821
 Cu347 Cu 0.36128 0.18080 1.15385
 Cu348 Cu 0.31513 0.14989 1.16097
 N349 N 0.33380 0.12001 1.19399
 N350 N 0.31604 0.12573 1.18410
 C351 C 0.30056 0.11204 1.19204
 C352 C 0.30928 0.09718 1.20777
 C353 C 0.33035 0.10275 1.20854
 H354 H 0.28430 0.11269 1.18667
 H355 H 0.34234 0.09494 1.21900
 N356 N 0.31815 0.17470 1.13813
 N357 N 0.33603 0.18574 1.13487
 C358 C 0.33433 0.19902 1.11602
 C359 C 0.31441 0.19639 1.10708
 C360 C 0.30448 0.18102 1.12158
 H361 H 0.34692 0.20923 1.10875
 H362 H 0.28905 0.17379 1.11917
 H363 H 0.33903 0.16766 1.17624
 H364 H 0.34645 0.14983 1.15121
 N365 N 0.87311 0.69576 1.17224
 N366 N 0.87099 0.67840 1.18619
 C367 C 0.88936 0.67518 1.19732
 C368 C 0.90360 0.69116 1.18932
 C369 C 0.89273 0.70390 1.17355
 H370 H 0.89224 0.66218 1.21003
 H371 H 0.89842 0.71854 1.16429
 Cu372 Cu 0.84445 0.66162 1.18707
 Cu373 Cu 0.85004 0.70820 1.15499
 Cu374 Cu 0.81023 0.67102 1.14381
 N375 N 0.81733 0.64606 1.18612
 N376 N 0.80446 0.64960 1.16876
 C377 C 0.78830 0.63519 1.17039
 C378 C 0.79101 0.62189 1.18985
 C379 C 0.80955 0.62928 1.19957
 H380 H 0.77584 0.63404 1.15787
 H381 H 0.81735 0.62211 1.21446
 N382 N 0.81439 0.69896 1.12597
 N383 N 0.82959 0.71312 1.13059
 C384 C 0.82903 0.73023 1.11540
 C385 C 0.81252 0.72683 1.10061
 C386 C 0.80342 0.70695 1.10782
 H387 H 0.84000 0.74401 1.11500
 H388 H 0.79008 0.69877 1.10016
 H389 H 0.82352 0.69022 1.16767
 H390 H 0.84253 0.67644 1.14741
 N391 N 0.87711 0.18966 0.67046
 N392 N 0.87106 0.18653 0.69231
 C393 C 0.88652 0.19378 0.70620
 C394 C 0.90292 0.20182 0.69220
 C395 C 0.89643 0.19874 0.66977
 H396 H 0.88553 0.19405 0.72496
 H397 H 0.90445 0.20433 0.65403
 Cu398 Cu 0.84275 0.17451 0.70042
 Cu399 Cu 0.85826 0.18745 0.64387
 Cu400 Cu 0.80811 0.17693 0.65693
 N401 N 0.81841 0.15413 0.69939
 N402 N 0.80538 0.15501 0.68184
 C403 C 0.79225 0.13752 0.68307
 C404 C 0.79702 0.12505 0.70254
 C405 C 0.81364 0.13606 0.71268
 H406 H 0.78094 0.13341 0.66993
 H407 H 0.82280 0.13027 0.72725
 N408 N 0.81594 0.19233 0.62823
 N409 N 0.83592 0.19579 0.62290
 C410 C 0.83745 0.20594 0.60202
 C411 C 0.81729 0.20932 0.59400
 C412 C 0.80395 0.20044 0.61100
 H413 H 0.85214 0.21091 0.59364
 H414 H 0.78689 0.19995 0.61087
 H415 H 0.83907 0.19592 0.67115
 H416 H 0.84393 0.16569 0.66730
 N417 N 0.32052 0.37186 0.65810
 N418 N 0.32438 0.36839 0.68019
 C419 C 0.31375 0.38340 0.69289
 C420 C 0.30275 0.39698 0.67776
 C421 C 0.30757 0.38933 0.65584
 H422 H 0.31392 0.38430 0.71163
 H423 H 0.30170 0.39556 0.63947
 Cu424 Cu 0.34316 0.34462 0.68953
 Cu425 Cu 0.33186 0.35273 0.63412
 Cu426 Cu 0.34898 0.30141 0.65392
 N427 N 0.36663 0.32422 0.69253
 N428 N 0.36853 0.30652 0.67955
 C429 C 0.38656 0.29592 0.68508
 C430 C 0.39653 0.30805 0.70194
 C431 C 0.38345 0.32584 0.70624
 H432 H 0.39266 0.28145 0.67635
 H433 H 0.38624 0.33931 0.71801
 N434 N 0.33759 0.30622 0.62250
 N435 N 0.33350 0.32639 0.61447
 C436 C 0.32617 0.32503 0.59284
 C437 C 0.32505 0.30297 0.58706
 C438 C 0.33238 0.29135 0.60625
 H439 H 0.32009 0.33893 0.58293
 H440 H 0.33325 0.27352 0.60849
 H441 H 0.32636 0.32722 0.65676
 H442 H 0.35453 0.33401 0.65034
 N443 N 0.29789 0.85498 0.18884
 N444 N 0.31198 0.85573 0.20529
 C445 C 0.31073 0.87518 0.21614
 C446 C 0.29476 0.88738 0.20636
 C447 C 0.28667 0.87406 0.18914
 H448 H 0.32071 0.88002 0.23026
 H449 H 0.27406 0.87815 0.17741
 Cu450 Cu 0.33105 0.83173 0.21141
 Cu451 Cu 0.29667 0.82917 0.16829
 Cu452 Cu 0.34209 0.79618 0.16952
 N453 N 0.35636 0.81437 0.21214
 N454 N 0.36060 0.79981 0.19600
 C455 C 0.37936 0.79031 0.20050
 C456 C 0.38729 0.79997 0.22017
 C457 C 0.37235 0.81515 0.22710
 H458 H 0.38703 0.77801 0.18982
 H459 H 0.37311 0.82609 0.24178
 N460 N 0.32123 0.79505 0.14452
 N461 N 0.30355 0.80669 0.14436
 C462 C 0.29279 0.80168 0.12505
 C463 C 0.30453 0.78655 0.11246
 C464 C 0.32237 0.78279 0.12527
 H465 H 0.27802 0.80915 0.12004
 H466 H 0.33527 0.77189 0.12075
 H467 H 0.31419 0.80509 0.18554
 H468 H 0.32865 0.82775 0.16986
 N469 N 0.81428 0.37478 0.18020
 N470 N 0.83227 0.37947 0.19008
 C471 C 0.83237 0.40081 0.19631
 C472 C 0.81322 0.40999 0.19069
 C473 C 0.80194 0.39303 0.18056
 H474 H 0.84486 0.40867 0.20577
 H475 H 0.78592 0.39378 0.17442
 Cu476 Cu 0.85235 0.35673 0.19799
 Cu477 Cu 0.80881 0.34494 0.16840
 Cu478 Cu 0.85153 0.30848 0.17072
 N479 N 0.87574 0.33644 0.19990
 N480 N 0.87490 0.31691 0.19015
 C481 C 0.89243 0.30545 0.19536
 C482 C 0.90495 0.31874 0.20876
 C483 C 0.89398 0.33832 0.21130
 H484 H 0.89586 0.28876 0.18979
 H485 H 0.89862 0.35254 0.22126
 N486 N 0.82646 0.30315 0.15204
 N487 N 0.81012 0.31670 0.15097
 C488 C 0.79669 0.30905 0.13494
 C489 C 0.80522 0.28999 0.12552
 C490 C 0.82394 0.28674 0.13686
 H491 H 0.78249 0.31744 0.12949
 H492 H 0.83538 0.27387 0.13348
 H493 H 0.82884 0.32579 0.18835
 H494 H 0.84047 0.34039 0.16246
 N495 N 0.82251 0.88756 0.67198
 N496 N 0.82574 0.88273 0.69395
 C497 C 0.81678 0.89852 0.70720
 C498 C 0.80780 0.91414 0.69250
 C499 C 0.81193 0.90676 0.67033
 H500 H 0.81704 0.89877 0.72596
 H501 H 0.80704 0.91435 0.65417
 Cu502 Cu 0.84248 0.85686 0.70217
 Cu503 Cu 0.83133 0.86799 0.64725
 Cu504 Cu 0.84643 0.81515 0.66419
 N505 N 0.86534 0.83543 0.70374
 N506 N 0.86694 0.81867 0.68941
 C507 C 0.88476 0.80730 0.69422
 C508 C 0.89486 0.81782 0.71223
 C509 C 0.88201 0.83550 0.71782
 H510 H 0.89037 0.79306 0.68474
 H511 H 0.88474 0.84783 0.73090
 N512 N 0.83322 0.82151 0.63380
 N513 N 0.82979 0.84216 0.62684
 C514 C 0.82029 0.84205 0.60623
 C515 C 0.81701 0.82036 0.59993
 C516 C 0.82543 0.80760 0.61780
 H517 H 0.81428 0.85672 0.59756
 H518 H 0.82520 0.78969 0.61945
 H519 H 0.82467 0.84165 0.66895
 H520 H 0.85301 0.84739 0.66225
 N521 N 0.69868 0.64533 0.68379
 N522 N 0.68587 0.63952 0.70102
 C523 C 0.69269 0.62005 0.71021
 C524 C 0.71043 0.61343 0.69767
 C525 C 0.71365 0.62985 0.68112
 H526 H 0.68518 0.61116 0.72457
 H527 H 0.72624 0.63060 0.66824
 Cu528 Cu 0.66125 0.65803 0.70860
 Cu529 Cu 0.69594 0.67274 0.66624
 Cu530 Cu 0.65284 0.70571 0.67823
 N531 N 0.63592 0.67621 0.71372
 N532 N 0.63324 0.69505 0.70228
 C533 C 0.61494 0.70437 0.70915
 C534 C 0.60543 0.69061 0.72556
 C535 C 0.61912 0.67283 0.72808
 H536 H 0.60873 0.71981 0.70235
 H537 H 0.61699 0.65856 0.73951
 N538 N 0.67441 0.71362 0.65445
 N539 N 0.69095 0.70100 0.65010
 C540 C 0.70256 0.71032 0.63278
 C541 C 0.69279 0.72959 0.62575
 C542 C 0.67498 0.73128 0.63979
 H543 H 0.71680 0.70338 0.62533
 H544 H 0.66319 0.74420 0.63909
 H545 H 0.67912 0.69028 0.69118
 H546 H 0.66327 0.67456 0.66976
 N547 N 0.69180 0.11963 0.18245
 N548 N 0.67991 0.11700 0.20125
 C549 C 0.68525 0.09776 0.21198
 C550 C 0.70096 0.08781 0.19889
 C551 C 0.70464 0.10203 0.18028
 H552 H 0.67754 0.09090 0.22737
 H553 H 0.71563 0.09952 0.16601
 Cu554 Cu 0.65704 0.13777 0.20810
 Cu555 Cu 0.68960 0.14517 0.16150
 Cu556 Cu 0.64960 0.18226 0.17328
 N557 N 0.63441 0.15909 0.21413
 N558 N 0.63226 0.17666 0.20055
 C559 C 0.61586 0.18878 0.20799
 C560 C 0.60693 0.17823 0.22702
 C561 C 0.61898 0.15933 0.23060
 H562 H 0.61036 0.20390 0.19976
 H563 H 0.61658 0.14675 0.24397
 N564 N 0.66861 0.18549 0.14643
 N565 N 0.68464 0.17207 0.14243
 C566 C 0.69546 0.17966 0.12356
 C567 C 0.68536 0.19838 0.11523
 C568 C 0.66844 0.20157 0.13002
 H569 H 0.70944 0.17205 0.11623
 H570 H 0.65719 0.21501 0.12916
 H571 H 0.67622 0.16595 0.18543
 H572 H 0.65786 0.14938 0.16737
 N573 N 0.19523 0.62708 0.20059
 N574 N 0.18158 0.63329 0.21665
 C575 C 0.18155 0.61847 0.23432
 C576 C 0.19615 0.60219 0.22928
 C577 C 0.20467 0.60818 0.20779
 H578 H 0.17154 0.61939 0.24965
 H579 H 0.21644 0.59919 0.19794
 Cu580 Cu 0.16453 0.65968 0.21295
 Cu581 Cu 0.19897 0.64389 0.17139
 Cu582 Cu 0.16776 0.69093 0.16469
 N583 N 0.14190 0.67969 0.20446
 N584 N 0.14288 0.69144 0.18507
 C585 C 0.12497 0.70321 0.18293
 C586 C 0.11216 0.69856 0.20210
 C587 C 0.12342 0.68366 0.21545
 H588 H 0.12158 0.71438 0.16859
 H589 H 0.11837 0.67597 0.23171
 N590 N 0.18935 0.68212 0.14165
 N591 N 0.20034 0.66358 0.14345
 C592 C 0.21266 0.66163 0.12429
 C593 C 0.20945 0.67996 0.11003
 C594 C 0.19469 0.69265 0.12159
 H595 H 0.22356 0.64818 0.12113
 H596 H 0.18803 0.70818 0.11559
 H597 H 0.19043 0.67403 0.18414
 H598 H 0.16894 0.65749 0.17111
 N599 N 0.19473 0.14464 0.67976
 N600 N 0.17708 0.13875 0.69046
 C601 C 0.17835 0.11739 0.69723
 C602 C 0.19799 0.10953 0.69082
 C603 C 0.20812 0.12726 0.67988
 H604 H 0.16624 0.10846 0.70695
 H605 H 0.22399 0.12755 0.67266
 Cu606 Cu 0.15508 0.16007 0.69715
 Cu607 Cu 0.19846 0.17457 0.66690
 Cu608 Cu 0.15234 0.20601 0.66442
 N609 N 0.13273 0.18143 0.70182
 N610 N 0.13191 0.20004 0.68966
 C611 C 0.11447 0.21137 0.69618
 C612 C 0.10385 0.19891 0.71310
 C613 C 0.11589 0.18010 0.71622
 H614 H 0.10942 0.22692 0.68848
 H615 H 0.11242 0.16632 0.72790
 N616 N 0.17767 0.21244 0.64494
 N617 N 0.19527 0.20079 0.64627
 C618 C 0.20889 0.20796 0.62956
 C619 C 0.19938 0.22482 0.61709
 C620 C 0.17967 0.22734 0.62738
 H621 H 0.22404 0.20051 0.62578
 H622 H 0.16733 0.23843 0.62175
 H623 H 0.17510 0.19298 0.68435
 H624 H 0.16696 0.17511 0.65991
 N625 N 0.31913 0.61125 0.34289
 N626 N 0.32584 0.61470 0.32140
 C627 C 0.32041 0.59716 0.30849
 C628 C 0.31023 0.58184 0.32295
 C629 C 0.30988 0.59123 0.34463
 H630 H 0.32354 0.59570 0.29006
 H631 H 0.30232 0.58461 0.36022
 Cu632 Cu 0.34152 0.64163 0.31319
 Cu633 Cu 0.32059 0.63381 0.36653
 Cu634 Cu 0.33297 0.68625 0.34606
 N635 N 0.36132 0.66653 0.31280
 N636 N 0.35784 0.68393 0.32587
 C637 C 0.37478 0.69736 0.32476
 C638 C 0.38956 0.68800 0.31014
 C639 C 0.38058 0.66848 0.30268
 H640 H 0.37663 0.71227 0.33476
 H641 H 0.38803 0.65597 0.29207
 N642 N 0.31669 0.68124 0.37477
 N643 N 0.31342 0.66108 0.38337
 C644 C 0.30285 0.66261 0.40367
 C645 C 0.29924 0.68480 0.40793
 C646 C 0.30816 0.69622 0.38925
 H647 H 0.29763 0.64857 0.41420
 H648 H 0.30872 0.71402 0.38655
 H649 H 0.31587 0.65624 0.34087
 H650 H 0.34295 0.65514 0.35302
 N651 N 0.31565 0.13798 0.79812
 N652 N 0.33367 0.14144 0.78705
 C653 C 0.33600 0.12621 0.77037
 C654 C 0.31830 0.11275 0.77092
 C655 C 0.30564 0.12074 0.78860
 H656 H 0.34942 0.12513 0.75861
 H657 H 0.29053 0.11420 0.79446
 Cu658 Cu 0.35180 0.16621 0.79471
 Cu659 Cu 0.30692 0.15572 0.82439
 Cu660 Cu 0.34780 0.18500 0.84921
 N661 N 0.37200 0.18720 0.80665
 N662 N 0.37076 0.19408 0.82818
 C663 C 0.38740 0.20728 0.83230
 C664 C 0.39954 0.20887 0.81216
 C665 C 0.38929 0.19603 0.79622
 H666 H 0.39039 0.21515 0.84867
 H667 H 0.39432 0.19296 0.77853
 N668 N 0.32035 0.17960 0.86503
 N669 N 0.30512 0.16788 0.85573
 C670 C 0.28881 0.16627 0.87089
 C671 C 0.29383 0.17798 0.89040
 C672 C 0.31380 0.18644 0.88612
 H673 H 0.27417 0.15765 0.86775
 H674 H 0.32291 0.19663 0.89758
 H675 H 0.32744 0.18337 0.82255
 H676 H 0.33779 0.15609 0.83305
 N677 N 0.81476 0.63495 0.82991
 N678 N 0.82655 0.63180 0.81124
 C679 C 0.81983 0.61340 0.80054
 C680 C 0.80327 0.60437 0.81344
 C681 C 0.80049 0.61841 0.83200
 H682 H 0.82656 0.60686 0.78469
 H683 H 0.78868 0.61697 0.84570
 Cu684 Cu 0.84990 0.65184 0.80318
 Cu685 Cu 0.81838 0.66059 0.84984
 Cu686 Cu 0.85672 0.69867 0.83293
 N687 N 0.87373 0.67167 0.79644
 N688 N 0.87563 0.69030 0.80782
 C689 C 0.89255 0.70154 0.79966
 C690 C 0.90194 0.68934 0.78238
 C691 C 0.88969 0.67037 0.78069
 H692 H 0.89781 0.71740 0.80596
 H693 H 0.89207 0.65690 0.76873
 N694 N 0.83627 0.70417 0.85803
 N695 N 0.82131 0.68996 0.86441
 C696 C 0.80969 0.69897 0.88171
 C697 C 0.81811 0.71956 0.88656
 C698 C 0.83489 0.72228 0.87129
 H699 H 0.79633 0.69107 0.89036
 H700 H 0.84520 0.73656 0.86986
 H701 H 0.83027 0.68034 0.82351
 H702 H 0.85010 0.66636 0.84245
 N703 N 0.81150 0.12307 0.29976
 N704 N 0.82684 0.12623 0.28444
 C705 C 0.82877 0.10826 0.27107
 C706 C 0.81361 0.09303 0.27813
 C707 C 0.80278 0.10295 0.29629
 H708 H 0.84021 0.10651 0.25709
 H709 H 0.78979 0.09594 0.30639
 Cu710 Cu 0.84289 0.15341 0.28341
 Cu711 Cu 0.80502 0.14533 0.32334
 Cu712 Cu 0.83365 0.19507 0.31965
 N713 N 0.86402 0.17574 0.28879
 N714 N 0.86034 0.19281 0.30219
 C715 C 0.87772 0.20583 0.30221
 C716 C 0.89308 0.19587 0.28854
 C717 C 0.88384 0.17687 0.28036
 H718 H 0.87935 0.22079 0.31218
 H719 H 0.89103 0.16468 0.26915
 N720 N 0.81099 0.18936 0.34310
 N721 N 0.80096 0.17014 0.34516
 C722 C 0.78854 0.17048 0.36433
 C723 C 0.79069 0.19087 0.37469
 C724 C 0.80492 0.20252 0.36074
 H725 H 0.77894 0.15674 0.37063
 H726 H 0.81131 0.21882 0.36397
 H727 H 0.81376 0.17245 0.30376
 H728 H 0.83423 0.16128 0.32345
 N729 N 0.69739 0.36336 0.29670
 N730 N 0.68082 0.36451 0.28323
 C731 C 0.68181 0.38333 0.27044
 C732 C 0.70002 0.39456 0.27599
 C733 C 0.70971 0.38135 0.29253
 H734 H 0.66959 0.38901 0.25890
 H735 H 0.72359 0.38547 0.30227
 Cu736 Cu 0.65778 0.34308 0.28557
 Cu737 Cu 0.69885 0.34082 0.32176
 Cu738 Cu 0.64763 0.33168 0.34105
 N739 N 0.63150 0.32852 0.29512
 N740 N 0.62710 0.32579 0.31735
 C741 C 0.60775 0.31699 0.32002
 C742 C 0.59981 0.31329 0.29829
 C743 C 0.61526 0.32075 0.28273
 H744 H 0.60051 0.31251 0.33658
 H745 H 0.61468 0.32069 0.26398
 N746 N 0.67246 0.32594 0.36027
 N747 N 0.69215 0.32759 0.35259
 C748 C 0.70491 0.31747 0.36801
 C749 C 0.69243 0.30897 0.38605
 C750 C 0.67209 0.31491 0.38065
 H751 H 0.72173 0.31528 0.36558
 H752 H 0.65780 0.30986 0.38981
 H753 H 0.67061 0.32185 0.31845
 H754 H 0.66931 0.35200 0.32494
 N755 N 0.68568 0.87014 0.80093
 N756 N 0.66827 0.87137 0.78882
 C757 C 0.66866 0.89010 0.77581
 C758 C 0.68737 0.90117 0.77985
 C759 C 0.69790 0.88795 0.79573
 H760 H 0.65604 0.89548 0.76465
 H761 H 0.71282 0.89155 0.80373
 Cu762 Cu 0.64596 0.84907 0.79196
 Cu763 Cu 0.68962 0.84657 0.82441
 Cu764 Cu 0.64059 0.83182 0.84673
 N765 N 0.62118 0.83202 0.80224
 N766 N 0.61868 0.82694 0.82438
 C767 C 0.60014 0.81656 0.82782
 C768 C 0.59071 0.81429 0.80661
 C769 C 0.60445 0.82425 0.79059
 H770 H 0.59454 0.81003 0.84440
 H771 H 0.60240 0.82581 0.77203
 N772 N 0.66698 0.82622 0.86317
 N773 N 0.68594 0.83060 0.85441
 C774 C 0.70050 0.82091 0.86808
 C775 C 0.68996 0.80962 0.88594
 C776 C 0.66886 0.81355 0.88236
 H777 H 0.71731 0.82089 0.86448
 H778 H 0.65570 0.80644 0.89208
 H779 H 0.66264 0.82596 0.82126
 H780 H 0.65990 0.85526 0.83083
 N781 N 0.19002 0.36310 0.81314
 N782 N 0.17033 0.36952 0.81113
 C783 C 0.16976 0.38883 0.79928
 C784 C 0.19019 0.39470 0.79318
 C785 C 0.20276 0.37807 0.80233
 H786 H 0.15544 0.39766 0.79509
 H787 H 0.21978 0.37694 0.80121
 Cu788 Cu 0.14692 0.35208 0.82353
 Cu789 Cu 0.19639 0.33607 0.83038
 Cu790 Cu 0.15831 0.29755 0.83817
 N791 N 0.12563 0.32837 0.82462
 N792 N 0.13001 0.30715 0.82801
 C793 C 0.11305 0.29496 0.82215
 C794 C 0.09740 0.30940 0.81479
 C795 C 0.10589 0.33032 0.81686
 H796 H 0.11255 0.27701 0.82209
 H797 H 0.09900 0.34579 0.81103
 N798 N 0.18379 0.29765 0.85733
 N799 N 0.19813 0.31336 0.85452
 C800 C 0.21233 0.31168 0.87146
 C801 C 0.20681 0.29388 0.88564
 C802 C 0.18874 0.28511 0.87610
 H803 H 0.22529 0.32310 0.87375
 H804 H 0.17914 0.27169 0.88318
 H805 H 0.16305 0.32432 0.81420
 H806 H 0.16055 0.32957 0.84589
 N807 N 0.17919 0.86326 0.30631
 N808 N 0.16223 0.85985 0.29405
 C809 C 0.15984 0.87664 0.27869
 C810 C 0.17635 0.89128 0.28129
 C811 C 0.18842 0.88231 0.29889
 H812 H 0.14730 0.87785 0.26623
 H813 H 0.20281 0.88912 0.30572
 Cu814 Cu 0.14541 0.83345 0.29870
 Cu815 Cu 0.18753 0.84261 0.33102
 Cu816 Cu 0.15933 0.79273 0.33537
 N817 N 0.12537 0.81131 0.30946
 N818 N 0.13110 0.79412 0.32219
 C819 C 0.11464 0.77993 0.32435
 C820 C 0.09770 0.78934 0.31300
 C821 C 0.10504 0.80919 0.30385
 H822 H 0.11493 0.76421 0.33366
 H823 H 0.09648 0.82072 0.29294
 N824 N 0.18345 0.79988 0.35542
 N825 N 0.19332 0.81923 0.35444
 C826 C 0.20640 0.82052 0.37250
 C827 C 0.20484 0.80108 0.38541
 C828 C 0.19029 0.78824 0.37405
 H829 H 0.21572 0.83494 0.37661
 H830 H 0.18387 0.77246 0.37999
 H831 H 0.17683 0.81512 0.31483
 H832 H 0.15859 0.82669 0.33720
 C833 C 0.25112 0.95095 0.22685
 C834 C 0.23289 0.93978 0.23444
 C835 C 0.21539 0.95123 0.24317
 C836 C 0.21607 0.97465 0.24472
 C837 C 0.23430 0.98627 0.23667
 C838 C 0.25163 0.97445 0.22708
 C839 C 0.26895 0.98646 0.21793
 C840 C 0.27027 1.00932 0.22038
 C841 C 0.25410 1.02114 0.23163
 C842 C 0.23552 1.00971 0.23883
 C843 C 0.19946 0.98670 0.25495
 C844 C 0.20059 1.00969 0.25685
 C845 C 0.21839 1.02161 0.24867
 C846 C 0.21988 1.04500 0.25074
 C847 C 0.23876 1.05583 0.24464
 C848 C 0.25595 1.04415 0.23560
 H849 H 0.28170 0.97833 0.20873
 H850 H 0.28408 1.01766 0.21317
 H851 H 0.18558 0.97846 0.26206
 H852 H 0.18756 1.01792 0.26544
 H853 H 0.23256 0.92177 0.23431
 H854 H 0.24016 1.07359 0.24709
 C855 C 0.26103 0.45019 0.72187
 C856 C 0.24678 0.43871 0.73650
 C857 C 0.23367 0.45009 0.75204
 C858 C 0.23584 0.47334 0.75424
 C859 C 0.25007 0.48512 0.73942
 C860 C 0.26303 0.47350 0.72352
 C861 C 0.27749 0.48555 0.70945
 C862 C 0.27783 0.50862 0.70955
 C863 C 0.26381 0.52050 0.72382
 C864 C 0.25047 0.50866 0.73960
 C865 C 0.22393 0.48516 0.77072
 C866 C 0.22429 0.50822 0.77088
 C867 C 0.23663 0.52031 0.75461
 C868 C 0.23540 0.54371 0.75287
 C869 C 0.24904 0.55522 0.73758
 C870 C 0.26272 0.54389 0.72263
 H871 H 0.28858 0.47726 0.69805
 H872 H 0.28911 0.51707 0.69820
 H873 H 0.21406 0.47667 0.78355
 H874 H 0.21469 0.51651 0.78378
 H875 H 0.24447 0.42103 0.73422
 H876 H 0.24750 0.57308 0.73564
 C877 C 0.77969 -0.06601 0.25060
 C878 C 0.76138 -0.07785 0.24530
 C879 C 0.74274 -0.06702 0.23931
 C880 C 0.74257 -0.04361 0.23707
 C881 C 0.76061 -0.03126 0.24333
 C882 C 0.77908 -0.04245 0.25077
 C883 C 0.79596 -0.02978 0.25897
 C884 C 0.79498 -0.00665 0.25922
 C885 C 0.77742 0.00481 0.25043
 C886 C 0.76007 -0.00766 0.24240
 C887 C 0.72486 -0.03226 0.22859
 C888 C 0.72474 -0.00924 0.22660
 C889 C 0.74222 0.00340 0.23324
 C890 C 0.74220 0.02684 0.23117
 C891 C 0.75873 0.03893 0.24060
 C892 C 0.77642 0.02836 0.24988
 H893 H 0.80985 -0.03764 0.26597
 H894 H 0.80814 0.00211 0.26652
 H895 H 0.71102 -0.04110 0.22299
 H896 H 0.71056 -0.00139 0.22028
 H897 H 0.76151 -0.09585 0.24628
 H898 H 0.75867 0.05690 0.23895
 C899 C 0.76743 0.45388 0.76013
 C900 C 0.75645 0.44442 0.74184
 C901 C 0.74544 0.45760 0.72591
 C902 C 0.74748 0.48103 0.72667
 C903 C 0.75842 0.49090 0.74516
 C904 C 0.76833 0.47729 0.76203
 C905 C 0.77870 0.48743 0.78049
 C906 C 0.77869 0.51044 0.78280
 C907 C 0.76834 0.52424 0.76672
 C908 C 0.75858 0.51441 0.74738
 C909 C 0.73853 0.49485 0.70964
 C910 C 0.73884 0.51782 0.71164
 C911 C 0.74864 0.52799 0.73044
 C912 C 0.74850 0.55134 0.73297
 C913 C 0.75786 0.56073 0.75229
 C914 C 0.76770 0.54763 0.76918
 H915 H 0.78691 0.47760 0.79336
 H916 H 0.78700 0.51730 0.79730
 H917 H 0.73113 0.48801 0.69454
 H918 H 0.73092 0.52745 0.69842
 H919 H 0.75440 0.42654 0.74170
 H920 H 0.75758 0.57863 0.75415
 C921 C 0.23263 0.53802 0.26247
 C922 C 0.25043 0.54518 0.27427
 C923 C 0.26529 0.53005 0.28274
 C924 C 0.26329 0.50722 0.27755
 C925 C 0.24545 0.49976 0.26532
 C926 C 0.22987 0.51516 0.25814
 C927 C 0.21194 0.50730 0.24682
 C928 C 0.20957 0.48485 0.24220
 C929 C 0.22531 0.46942 0.24808
 C930 C 0.24311 0.47683 0.26039
 C931 C 0.27871 0.49169 0.28407
 C932 C 0.27637 0.46925 0.27935
 C933 C 0.25882 0.46145 0.26727
 C934 C 0.25663 0.43871 0.26180
 C935 C 0.23886 0.43164 0.24988
 C936 C 0.22372 0.44678 0.24201
 H937 H 0.19956 0.51846 0.24133
 H938 H 0.19515 0.47970 0.23405
 H939 H 0.29296 0.49673 0.29262
 H940 H 0.28851 0.45806 0.28536
 H941 H 0.25185 0.56261 0.27847
 H942 H 0.23792 0.41445 0.24466
 C943 C 0.76436 0.96762 0.73472
 C944 C 0.74786 0.95496 0.74451
 C945 C 0.73100 0.96500 0.75638
 C946 C 0.73116 0.98836 0.75954
 C947 C 0.74816 1.00122 0.75028
 C948 C 0.76510 0.99072 0.73855
 C949 C 0.78234 1.00364 0.73065
 C950 C 0.78191 1.02663 0.73197
 C951 C 0.76424 1.03758 0.74128
 C952 C 0.74773 1.02477 0.75168
 C953 C 0.71485 0.99925 0.77166
 C954 C 0.71441 1.02235 0.77300
 C955 C 0.73034 1.03547 0.76240
 C956 C 0.72944 1.05898 0.76227
 C957 C 0.74580 1.07136 0.75170
 C958 C 0.76264 1.06101 0.74027
 H959 H 0.79629 0.99606 0.72318
 H960 H 0.79554 1.03579 0.72550
 H961 H 0.70223 0.99002 0.78022
 H962 H 0.70142 1.02984 0.78242
 H963 H 0.74705 0.93737 0.74085
 H964 H 0.74433 1.08928 0.75040
 C965 C 0.73995 0.46119 0.25283
 C966 C 0.75514 0.45281 0.23742
 C967 C 0.76927 0.46698 0.22540
 C968 C 0.76681 0.49030 0.22734
 C969 C 0.75292 0.49878 0.24452
 C970 C 0.74019 0.48406 0.25805
 C971 C 0.72823 0.49254 0.27661
 C972 C 0.72783 0.51522 0.28086
 C973 C 0.73822 0.53045 0.26579
 C974 C 0.75131 0.52207 0.24776
 C975 C 0.77738 0.50533 0.21226
 C976 C 0.77505 0.52815 0.21469
 C977 C 0.76211 0.53688 0.23236
 C978 C 0.75933 0.56004 0.23462
 C979 C 0.74694 0.56816 0.25292
 C980 C 0.73584 0.55376 0.26813
 H981 H 0.71948 0.48158 0.28834
 H982 H 0.71911 0.52065 0.29600
 H983 H 0.78699 0.49963 0.19788
 H984 H 0.78362 0.53893 0.20263
 H985 H 0.75581 0.43507 0.23459
 H986 H 0.74421 0.58589 0.25384
 C987 C 0.24731 0.05084 0.71180
 C988 C 0.26326 0.06371 0.72151
 C989 C 0.28010 0.05373 0.73311
 C990 C 0.28004 0.03052 0.73701
 C991 C 0.26495 0.01732 0.72581
 C992 C 0.24944 0.02745 0.71184
 C993 C 0.23651 0.01393 0.69836
 C994 C 0.23784 -0.00910 0.69990
 C995 C 0.25177 -0.01942 0.71544
 C996 C 0.26513 -0.00606 0.72884
 C997 C 0.29432 0.02020 0.75217
 C998 C 0.29325 -0.00258 0.75669
 C999 C 0.27851 -0.01598 0.74542
 C1000 C 0.27691 -0.03908 0.75002
 C1001 C 0.26465 -0.05230 0.73564
 C1002 C 0.25269 -0.04275 0.71792
 H1003 H 0.22552 0.02105 0.68617
 H1004 H 0.22733 -0.01871 0.68935
 H1005 H 0.30593 0.02976 0.76131
 H1006 H 0.30444 -0.00967 0.76868
 H1007 H 0.26238 0.08167 0.72044
 H1008 H 0.26433 -0.07016 0.73828
 C1009 C 0.25515 0.21598 0.95108
 C1010 C 0.24431 0.23253 0.93888
 C1011 C 0.23503 0.25039 0.95034
 C1012 C 0.23547 0.25104 0.97488
 C1013 C 0.24748 0.23514 0.98731
 C1014 C 0.25754 0.21761 0.97535
 C1015 C 0.27015 0.20262 0.98787
 C1016 C 0.27348 0.20538 1.01152
 C1017 C 0.26391 0.22290 1.02364
 C1018 C 0.25002 0.23725 1.01163
 C1019 C 0.22419 0.26714 0.98730
 C1020 C 0.22583 0.26853 1.01127
 C1021 C 0.23937 0.25435 1.02366
 C1022 C 0.24258 0.25687 1.04774
 C1023 C 0.25656 0.24277 1.05935
 C1024 C 0.26802 0.22656 1.04739
 H1025 H 0.27805 0.18899 0.97936
 H1026 H 0.28351 0.19353 1.02031
 H1027 H 0.21376 0.27865 0.97860
 H1028 H 0.21655 0.28108 1.01991
 H1029 H 0.24371 0.23186 0.92009
 H1030 H 0.26000 0.24584 1.07740
 C1031 C 0.26240 0.73631 0.45912
 C1032 C 0.24916 0.74860 0.44445
 C1033 C 0.23502 0.76420 0.45367
 C1034 C 0.23230 0.76533 0.47807
 C1035 C 0.24728 0.75508 0.49257
 C1036 C 0.26330 0.74175 0.48286
 C1037 C 0.27974 0.73427 0.49711
 C1038 C 0.27996 0.73938 0.52062
 C1039 C 0.26306 0.75092 0.53091
 C1040 C 0.24620 0.75806 0.51685
 C1041 C 0.21499 0.77623 0.48834
 C1042 C 0.21256 0.77682 0.51245
 C1043 C 0.22816 0.76796 0.52700
 C1044 C 0.22638 0.76887 0.55142
 C1045 C 0.24380 0.76349 0.56504
 C1046 C 0.26238 0.75529 0.55492
 H1047 H 0.29287 0.72498 0.49000
 H1048 H 0.29307 0.73352 0.53081
 H1049 H 0.20280 0.78360 0.47778
 H1050 H 0.19874 0.78492 0.51961
 H1051 H 0.24993 0.74609 0.42587
 H1052 H 0.24279 0.76534 0.58372
 C1053 C 0.26778 0.75285 0.04782
 C1054 C 0.25514 0.73680 0.05901
 C1055 C 0.24237 0.72244 0.04648
 C1056 C 0.24114 0.72507 0.02201
 C1057 C 0.25321 0.74192 0.01049
 C1058 C 0.26647 0.75591 0.02346
 C1059 C 0.27810 0.77263 0.01175
 C1060 C 0.27717 0.77525 -0.01222
 C1061 C 0.26421 0.76157 -0.02552
 C1062 C 0.25237 0.74451 -0.01410
 C1063 C 0.22792 0.71164 0.00878
 C1064 C 0.22730 0.71399 -0.01532
 C1065 C 0.23984 0.72992 -0.02722
 C1066 C 0.23996 0.73193 -0.05184
 C1067 C 0.25123 0.74932 -0.06275
 C1068 C 0.26301 0.76435 -0.04996
 H1069 H 0.28797 0.78404 0.02102
 H1070 H 0.28705 0.78797 -0.02019
 H1071 H 0.21773 0.69929 0.01696
 H1072 H 0.21657 0.70340 -0.02448
 H1073 H 0.25667 0.73415 0.07758
 H1074 H 0.25092 0.75114 -0.08150
 C1075 C 0.26642 0.23484 0.44552
 C1076 C 0.24793 0.22386 0.43950
 C1077 C 0.23273 0.21773 0.45632
 C1078 C 0.23623 0.22256 0.48002
 C1079 C 0.25470 0.23426 0.48622
 C1080 C 0.27004 0.24001 0.46900
 C1081 C 0.28859 0.25081 0.47572
 C1082 C 0.29173 0.25641 0.49874
 C1083 C 0.27606 0.25235 0.51585
 C1084 C 0.25772 0.24046 0.50968
 C1085 C 0.22205 0.21571 0.49779
 C1086 C 0.22466 0.22237 0.52058
 C1087 C 0.24207 0.23534 0.52675
 C1088 C 0.24427 0.24309 0.54962
 C1089 C 0.26252 0.25462 0.55559
 C1090 C 0.27822 0.25983 0.53894
 H1091 H 0.30092 0.25515 0.46325
 H1092 H 0.30663 0.26401 0.50290
 H1093 H 0.20878 0.20504 0.49442
 H1094 H 0.21301 0.21701 0.53344
 H1095 H 0.24523 0.22027 0.42139
 H1096 H 0.26366 0.26123 0.57293
 C1097 C 0.77345 0.75928 0.94156
 C1098 C 0.75573 0.76598 0.92914
 C1099 C 0.73765 0.77375 0.94055
 C1100 C 0.73729 0.77531 0.96504
 C1101 C 0.75482 0.76781 0.97789
 C1102 C 0.77304 0.75985 0.96613
 C1103 C 0.79013 0.75220 0.97928
 C1104 C 0.78944 0.75268 1.00344
 C1105 C 0.77158 0.76071 1.01542
 C1106 C 0.75402 0.76808 1.00255
 C1107 C 0.72002 0.78460 0.97700
 C1108 C 0.71921 0.78478 1.00111
 C1109 C 0.73558 0.77560 1.01428
 C1110 C 0.73429 0.77424 1.03885
 C1111 C 0.75192 0.76738 1.05129
 C1112 C 0.77059 0.76108 1.03996
 H1113 H 0.80412 0.74545 0.97106
 H1114 H 0.80292 0.74625 1.01261
 H1115 H 0.70698 0.79203 0.96787
 H1116 H 0.70568 0.79253 1.00923
 H1117 H 0.75596 0.76501 0.91035
 H1118 H 0.75110 0.76685 1.07012
 C1119 C 0.76187 0.23608 0.43765
 C1120 C 0.74693 0.24965 0.42681
 C1121 C 0.73409 0.26395 0.43973
 C1122 C 0.73667 0.26542 0.46405
 C1123 C 0.75258 0.25277 0.47498
 C1124 C 0.76555 0.23846 0.46168
 C1125 C 0.78172 0.22670 0.47282
 C1126 C 0.78481 0.22864 0.49658
 C1127 C 0.77168 0.24222 0.51023
 C1128 C 0.75500 0.25379 0.49942
 C1129 C 0.72377 0.27919 0.47777
 C1130 C 0.72518 0.27894 0.50185
 C1131 C 0.74034 0.26586 0.51307
 C1132 C 0.74135 0.26470 0.53759
 C1133 C 0.75873 0.25457 0.54791
 C1134 C 0.77429 0.24403 0.53452
 H1135 H 0.79231 0.21604 0.46319
 H1136 H 0.79716 0.21872 0.50420
 H1137 H 0.71224 0.29016 0.47012
 H1138 H 0.71458 0.28949 0.51160
 H1139 H 0.74388 0.24752 0.40851
 H1140 H 0.75996 0.25448 0.56667
 C1141 C 0.77202 0.26471 -0.03385
 C1142 C 0.75872 0.25210 -0.04766
 C1143 C 0.74270 0.23888 -0.03774
 C1144 C 0.73865 0.23957 -0.01356
 C1145 C 0.75190 0.25235 0.00062
 C1146 C 0.76867 0.26496 -0.00950
 C1147 C 0.78151 0.27758 0.00504
 C1148 C 0.77928 0.27605 0.02904
 C1149 C 0.76339 0.26281 0.03940
 C1150 C 0.74883 0.25193 0.02507
 C1151 C 0.72177 0.22770 -0.00319
 C1152 C 0.71817 0.22815 0.02072
 C1153 C 0.73163 0.24007 0.03520
 C1154 C 0.72882 0.23988 0.05962
 C1155 C 0.74420 0.24933 0.07361
 C1156 C 0.76174 0.26017 0.06376
 H1157 H 0.79355 0.28866 -0.00188
 H1158 H 0.78992 0.28565 0.03946
 H1159 H 0.71106 0.21811 -0.01353
 H1160 H 0.70511 0.21847 0.02777
 H1161 H 0.76199 0.25114 -0.06616
 H1162 H 0.74275 0.24778 0.09235
 C1163 C 0.73478 0.76008 0.56138
 C1164 C 0.75244 0.77234 0.56796
 C1165 C 0.76735 0.77998 0.55148
 C1166 C 0.76484 0.77453 0.52777
 C1167 C 0.74720 0.76168 0.52106
 C1168 C 0.73242 0.75397 0.53799
 C1169 C 0.71559 0.74046 0.53107
 C1170 C 0.71288 0.73532 0.50778
 C1171 C 0.72630 0.74434 0.49039
 C1172 C 0.74384 0.75732 0.49722
 C1173 C 0.77940 0.78166 0.51053
 C1174 C 0.77547 0.77852 0.48714
 C1175 C 0.75753 0.76685 0.48018
 C1176 C 0.75297 0.76458 0.45652
 C1177 C 0.73647 0.75086 0.44990
 C1178 C 0.72287 0.74085 0.46638
 H1179 H 0.70447 0.73355 0.54370
 H1180 H 0.70003 0.72434 0.50361
 H1181 H 0.79391 0.78998 0.51484
 H1182 H 0.78680 0.78501 0.47449
 H1183 H 0.75369 0.77745 0.58585
 H1184 H 0.73301 0.74960 0.43158
 C1185 C 1.04358 0.24088 0.28233
 C1186 C 1.05643 0.25092 0.26517
 C1187 C 1.04767 0.26271 0.24656
 C1188 C 1.02561 0.26620 0.24620
 C1189 C 1.01246 0.25470 0.26247
 C1190 C 1.02143 0.24126 0.28004
 C1191 C 1.00804 0.22812 0.29435
 C1192 C 0.98633 0.22818 0.29131
 C1193 C 0.97714 0.24185 0.27431
 C1194 C 0.99025 0.25620 0.26077
 C1195 C 1.01635 0.28078 0.23006
 C1196 C 0.99455 0.28391 0.22998
 C1197 C 0.98122 0.27172 0.24525
 C1198 C 0.95903 0.27414 0.24511
 C1199 C 0.94628 0.25834 0.25673
 C1200 C 0.95518 0.24145 0.27032
 H1201 H 1.01422 0.21698 0.30745
 H1202 H 0.97674 0.21775 0.30275
 H1203 H 1.02593 0.29030 0.21777
 H1204 H 0.98820 0.29530 0.21720
 H1205 H 1.07342 0.24904 0.26599
 H1206 H 0.92930 0.25900 0.25491
 C1207 C 0.45684 0.27303 0.73883
 C1208 C 0.44630 0.25967 0.75537
 C1209 C 0.45733 0.24729 0.77193
 C1210 C 0.47969 0.24719 0.77120
 C1211 C 0.49062 0.26009 0.75403
 C1212 C 0.47917 0.27275 0.73756
 C1213 C 0.49034 0.28461 0.72011
 C1214 C 0.51229 0.28523 0.71973
 C1215 C 0.52397 0.27415 0.73689
 C1216 C 0.51306 0.26086 0.75374
 C1217 C 0.49142 0.23430 0.78689
 C1218 C 0.51337 0.23521 0.78674
 C1219 C 0.52448 0.24890 0.77076
 C1220 C 0.54674 0.25075 0.77119
 C1221 C 0.55731 0.26353 0.75416
 C1222 C 0.54627 0.27583 0.73754
 H1223 H 0.48219 0.29337 0.70640
 H1224 H 0.52003 0.29440 0.70571
 H1225 H 0.48377 0.22324 0.79937
 H1226 H 0.52156 0.22487 0.79917
 H1227 H 0.42921 0.26040 0.75663
 H1228 H 0.57429 0.26551 0.75517
 C1229 C -0.04471 0.24105 0.73786
 C1230 C -0.05687 0.25371 0.75327
 C1231 C -0.04736 0.26614 0.77056
 C1232 C -0.02505 0.26709 0.77162
 C1233 C -0.01263 0.25350 0.75697
 C1234 C -0.02253 0.23979 0.74063
 C1235 C -0.01000 0.22491 0.72783
 C1236 C 0.01179 0.22420 0.73035
 C1237 C 0.02200 0.23833 0.74580
 C1238 C 0.00972 0.25346 0.75885
 C1239 C -0.01483 0.28112 0.78717
 C1240 C 0.00704 0.28165 0.78841
 C1241 C 0.01971 0.26840 0.77394
 C1242 C 0.04207 0.26939 0.77441
 C1243 C 0.05392 0.25374 0.76214
 C1244 C 0.04418 0.23781 0.74849
 H1245 H -0.01693 0.21324 0.71608
 H1246 H 0.02058 0.21270 0.71971
 H1247 H -0.02365 0.29212 0.79837
 H1248 H 0.01384 0.29225 0.80129
 H1249 H -0.07392 0.25369 0.75198
 H1250 H 0.07098 0.25385 0.76333
 C1251 C 0.54974 0.22666 0.25036
 C1252 C 0.55924 0.24564 0.25933
 C1253 C 0.54741 0.26460 0.26437
 C1254 C 0.52573 0.26515 0.25898
 C1255 C 0.51589 0.24603 0.25003
 C1256 C 0.52799 0.22688 0.24518
 C1257 C 0.51804 0.20863 0.23504
 C1258 C 0.49637 0.20866 0.23128
 C1259 C 0.48372 0.22663 0.23824
 C1260 C 0.49372 0.24574 0.24695
 C1261 C 0.51358 0.28436 0.26233
 C1262 C 0.49183 0.28385 0.25990
 C1263 C 0.48150 0.26420 0.25379
 C1264 C 0.45928 0.26244 0.25487
 C1265 C 0.44950 0.24404 0.24506
 C1266 C 0.46138 0.22610 0.23683
 H1267 H 0.52694 0.19418 0.22983
 H1268 H 0.48966 0.19430 0.22312
 H1269 H 0.52074 0.29988 0.26722
 H1270 H 0.48307 0.29893 0.26313
 H1271 H 0.57573 0.24504 0.26406
 H1272 H 0.43245 0.24262 0.24597
 C1273 C 1.04548 0.74459 0.76611
 C1274 C 1.05563 0.76469 0.76082
 C1275 C 1.04461 0.78309 0.75226
 C1276 C 1.02260 0.78145 0.74862
 C1277 C 1.01191 0.76133 0.75438
 C1278 C 1.02327 0.74303 0.76366
 C1279 C 1.01206 0.72377 0.77045
 C1280 C 0.99058 0.72171 0.76633
 C1281 C 0.97928 0.73908 0.75582
 C1282 C 0.98985 0.75936 0.75049
 C1283 C 1.01114 0.79898 0.73856
 C1284 C 0.98951 0.79713 0.73500
 C1285 C 0.97839 0.77770 0.74140
 C1286 C 0.95622 0.77583 0.73856
 C1287 C 0.94633 0.75541 0.74300
 C1288 C 0.95749 0.73704 0.75129
 H1289 H 1.01971 0.71010 0.77926
 H1290 H 0.98289 0.70643 0.77182
 H1291 H 1.01881 0.81426 0.73304
 H1292 H 0.98170 0.81098 0.72667
 H1293 H 1.07262 0.76582 0.76253
 H1294 H 0.92944 0.75393 0.74068
 C1295 C 0.44725 0.76053 0.25162
 C1296 C 0.43745 0.74333 0.26421
 C1297 C 0.44920 0.72702 0.27567
 C1298 C 0.47149 0.72703 0.27320
 C1299 C 0.48158 0.74393 0.25959
 C1300 C 0.46942 0.76080 0.24886
 C1301 C 0.47970 0.77737 0.23546
 C1302 C 0.50149 0.77729 0.23249
 C1303 C 0.51385 0.76045 0.24248
 C1304 C 0.50388 0.74402 0.25676
 C1305 C 0.48394 0.71049 0.28361
 C1306 C 0.50583 0.71095 0.28138
 C1307 C 0.51612 0.72745 0.26786
 C1308 C 0.53833 0.72788 0.26514
 C1309 C 0.54795 0.74415 0.25096
 C1310 C 0.53596 0.75968 0.23867
 H1311 H 0.47097 0.79043 0.22684
 H1312 H 0.50856 0.79076 0.22245
 H1313 H 0.47692 0.69687 0.29344
 H1314 H 0.51458 0.69811 0.29031
 H1315 H 0.42044 0.74365 0.26662
 H1316 H 0.56488 0.74350 0.24793
 C1317 C -0.03943 0.71003 0.24031
 C1318 C -0.05233 0.71832 0.25810
 C1319 C -0.04382 0.72791 0.27778
 C1320 C -0.02167 0.72987 0.27968
 C1321 C -0.00834 0.72151 0.26184
 C1322 C -0.01720 0.71076 0.24255
 C1323 C -0.00357 0.70098 0.22617
 C1324 C 0.01820 0.70375 0.22733
 C1325 C 0.02718 0.71635 0.24497
 C1326 C 0.01387 0.72457 0.26288
 C1327 C -0.01248 0.74041 0.29862
 C1328 C 0.00923 0.74341 0.29960
 C1329 C 0.02260 0.73662 0.28136
 C1330 C 0.04443 0.74174 0.28098
 C1331 C 0.05746 0.73287 0.26359
 C1332 C 0.04913 0.72074 0.24536
 H1333 H -0.00957 0.69097 0.21233
 H1334 H 0.02790 0.69591 0.21421
 H1335 H -0.02197 0.74690 0.31272
 H1336 H 0.01544 0.75123 0.31482
 H1337 H -0.06935 0.71780 0.25640
 H1338 H 0.07409 0.73721 0.26300
 C1339 C 0.45342 0.72350 0.74615
 C1340 C 0.44103 0.74144 0.75324
 C1341 C 0.45003 0.76065 0.76193
 C1342 C 0.47218 0.76184 0.76449
 C1343 C 0.48506 0.74378 0.75748
 C1344 C 0.47570 0.72465 0.74789
 C1345 C 0.48892 0.70768 0.73961
 C1346 C 0.51080 0.70903 0.74159
 C1347 C 0.52038 0.72732 0.75210
 C1348 C 0.50736 0.74502 0.75978
 C1349 C 0.48176 0.78063 0.77388
 C1350 C 0.50350 0.78174 0.77632
 C1351 C 0.51657 0.76393 0.76990
 C1352 C 0.53864 0.76471 0.77319
 C1353 C 0.55136 0.74762 0.76467
 C1354 C 0.54262 0.72876 0.75459
 H1355 H 0.48255 0.69333 0.73112
 H1356 H 0.52012 0.69566 0.73451
 H1357 H 0.47253 0.79464 0.77965
 H1358 H 0.50997 0.79691 0.78306
 H1359 H 0.42404 0.74069 0.75134
 H1360 H 0.56824 0.74822 0.76748
 C1361 C 0.42026 0.28978 0.28788
 C1362 C 0.43641 0.29119 0.30346
 C1363 C 0.45342 0.28238 0.29250
 C1364 C 0.44656 0.27640 0.27080
 O1365 O 0.42622 0.28064 0.26807
 H1366 H 0.43563 0.29707 0.32111
 H1367 H 0.46869 0.27937 0.30006
 C1368 C 0.40921 0.79846 0.77472
 C1369 C 0.42054 0.81152 0.75896
 C1370 C 0.43784 0.79942 0.75310
 C1371 C 0.43591 0.77986 0.76563
 O1372 O 0.41845 0.77907 0.77867
 H1373 H 0.41668 0.82788 0.75234
 H1374 H 0.45009 0.80395 0.74059
 C1375 C -0.08337 0.29409 0.80723
 C1376 C -0.07270 0.28202 0.82390
 C1377 C -0.05825 0.26989 0.81216
 C1378 C -0.06083 0.27551 0.78915
 O1379 O -0.07634 0.28999 0.78590
 H1380 H -0.07514 0.28191 0.84252
 H1381 H -0.04692 0.25843 0.81945
 C1382 C -0.08447 0.75248 0.31067
 C1383 C -0.07657 0.73889 0.32796
 C1384 C -0.05984 0.72826 0.31809
 C1385 C -0.05874 0.73620 0.29556
 O1386 O -0.07378 0.75076 0.29089
 H1387 H -0.08243 0.73681 0.34561
 H1388 H -0.04986 0.71588 0.32614
 C1389 C 0.57792 0.69458 0.28914
 C1390 C 0.56797 0.67833 0.27676
 C1391 C 0.55097 0.68846 0.26719
 C1392 C 0.55192 0.71014 0.27439
 O1393 O 0.56838 0.71401 0.28757
 H1394 H 0.57287 0.66129 0.27452
 H1395 H 0.53974 0.68125 0.25551
 C1396 C 0.58473 0.22970 0.80949
 C1397 C 0.57201 0.23983 0.82578
 C1398 C 0.55543 0.24811 0.81368
 C1399 C 0.55929 0.24239 0.79090
 O1400 O 0.57719 0.23139 0.78826
 H1401 H 0.57464 0.24124 0.84421
 H1402 H 0.54246 0.25785 0.82044
 C1403 C 1.08561 0.70650 0.78065
 C1404 C 1.07398 0.69287 0.76668
 C1405 C 1.05695 0.70498 0.76034
 C1406 C 1.05909 0.72511 0.77116
 O1407 O 1.07673 0.72622 0.78327
 H1408 H 1.07784 0.67629 0.76105
 H1409 H 1.04494 0.70010 0.74827
 C1410 C 1.07425 0.20957 0.32083
 C1411 C 1.06207 0.22010 0.33735
 C1412 C 1.04881 0.23341 0.32509
 C1413 C 1.05383 0.22977 0.30207
 O1414 O 1.06944 0.21554 0.29943
 H1415 H 1.06287 0.21843 0.35604
 H1416 H 1.03693 0.24449 0.33202
 C1417 C 0.58411 0.30893 0.70787
 C1418 C 0.57000 0.32552 0.71317
 C1419 C 0.55325 0.31505 0.72360
 C1420 C 0.55835 0.29278 0.72390
 O1421 O 0.57724 0.28904 0.71456
 H1422 H 0.57203 0.34322 0.71046
 H1423 H 0.53950 0.32283 0.73129
 C1424 C 0.57078 0.78798 0.20023
 C1425 C 0.55506 0.78382 0.18464
 C1426 C 0.53947 0.77358 0.19726
 C1427 C 0.54671 0.77244 0.21972
 O1428 O 0.56589 0.78091 0.22151
 H1429 H 0.55518 0.78729 0.16615
 H1430 H 0.52492 0.76687 0.19070
 C1431 C 1.08902 0.27687 0.20766
 C1432 C 1.07590 0.26707 0.19195
 C1433 C 1.05806 0.26170 0.20428
 C1434 C 1.06167 0.26854 0.22662
 O1435 O 1.08055 0.27764 0.22877
 H1436 H 1.07903 0.26413 0.17374
 H1437 H 1.04437 0.25301 0.19802
 C1438 C 1.08233 0.82175 0.73171
 C1439 C 1.07122 0.83609 0.74575
 C1440 C 1.05487 0.82376 0.75493
 C1441 C 1.05730 0.80290 0.74572
 O1442 O 1.07401 0.80163 0.73181
 H1443 H 1.07467 0.85335 0.74898
 H1444 H 1.04293 0.82912 0.76725
 C1445 C 0.41765 0.68719 0.72062
 C1446 C 0.42760 0.67157 0.73433
 C1447 C 0.44346 0.68279 0.74485
 C1448 C 0.44200 0.70436 0.73665
 O1449 O 0.42625 0.70706 0.72211
 H1450 H 0.42336 0.65430 0.73694
 H1451 H 0.45406 0.67633 0.75783
 C1452 C 0.42645 0.18567 0.21639
 C1453 C 0.43709 0.17230 0.23192
 C1454 C 0.45207 0.18555 0.24113
 C1455 C 0.44965 0.20596 0.23035
 O1456 O 0.43388 0.20620 0.21555
 H1457 H 0.43406 0.15505 0.23633
 H1458 H 0.46309 0.18108 0.25456
 C1459 C -0.07482 0.69558 0.19680
 C1460 C -0.05972 0.70548 0.18260
 C1461 C -0.04361 0.71070 0.19682
 C1462 C -0.04998 0.70347 0.21870
 O1463 O -0.06908 0.69448 0.21872
 H1464 H -0.06092 0.70966 0.16433
 H1465 H -0.02967 0.72024 0.19209
 C1466 C -0.07787 0.21380 0.69882
 C1467 C -0.06293 0.22146 0.68293
 C1468 C -0.04852 0.23250 0.69553
 C1469 C -0.05545 0.23049 0.71827
 O1470 O -0.07351 0.21945 0.72034
 H1471 H -0.06272 0.21962 0.66428
 H1472 H -0.03470 0.24127 0.68893
 C1473 C 0.29066 0.39328 0.27115
 C1474 C 0.30445 0.40676 0.25860
 C1475 C 0.29367 0.42578 0.25423
 C1476 C 0.27410 0.42266 0.26452
 O1477 O 0.27206 0.40280 0.27462
 H1478 H 0.32048 0.40316 0.25317
 H1479 H 0.29920 0.44009 0.24428
 C1480 C 0.29923 -0.07371 0.79270
 C1481 C 0.29178 -0.05740 0.80725
 C1482 C 0.28328 -0.04173 0.79298
 C1483 C 0.28618 -0.04960 0.77080
 O1484 O 0.29571 -0.06910 0.77056
 H1485 H 0.29219 -0.05705 0.82601
 H1486 H 0.27522 -0.02672 0.79813
 C1487 C 0.78328 0.41064 0.79768
 C1488 C 0.76780 0.41994 0.81163
 C1489 C 0.76123 0.43833 0.79997
 C1490 C 0.77291 0.43890 0.77963
 O1491 O 0.78633 0.42207 0.77804
 H1492 H 0.76189 0.41405 0.82834
 H1493 H 0.74864 0.44944 0.80507
 C1494 C 0.81630 -0.10659 0.26801
 C1495 C 0.82994 -0.09449 0.25380
 C1496 C 0.81839 -0.07673 0.24611
 C1497 C 0.79864 -0.07931 0.25629
 O1498 O 0.79737 -0.09747 0.26940
 H1499 H 0.84614 -0.09832 0.24924
 H1500 H 0.82347 -0.06395 0.23383
 C1501 C 0.28776 0.58275 0.68556
 C1502 C 0.27825 0.57044 0.66869
 C1503 C 0.26846 0.55343 0.68038
 C1504 C 0.27271 0.55676 0.70348
 O1505 O 0.28429 0.57465 0.70672
 H1506 H 0.27821 0.57371 0.65017
 H1507 H 0.25870 0.54061 0.67311
 C1508 C 0.29888 1.07887 0.22068
 C1509 C 0.30928 1.06464 0.23559
 C1510 C 0.29446 1.04982 0.24322
 C1511 C 0.27616 1.05603 0.23232
 O1512 O 0.27867 1.07381 0.21878
 H1513 H 0.32574 1.06489 0.24024
 H1514 H 0.29666 1.03602 0.25518
 C1515 C 0.77810 0.60239 0.19662
 C1516 C 0.76425 0.59234 0.18181
 C1517 C 0.75588 0.57493 0.19408
 C1518 C 0.76516 0.57563 0.21551
 O1519 O 0.77863 0.59236 0.21726
 H1520 H 0.76078 0.59702 0.16408
 H1521 H 0.74422 0.56320 0.18828
 C1522 C 0.78948 1.10232 0.70727
 C1523 C 0.78731 1.08695 0.69004
 C1524 C 0.77819 1.06898 0.70058
 C1525 C 0.77544 1.07462 0.72357
 O1526 O 0.78207 1.09509 0.72766
 H1527 H 0.79132 1.08894 0.67179
 H1528 H 0.77307 1.05396 0.69225
 C1529 C 0.70229 0.58807 0.30109
 C1530 C 0.68773 0.57195 0.29598
 C1531 C 0.69869 0.55624 0.28429
 C1532 C 0.71931 0.56373 0.28324
 O1533 O 0.72143 0.58336 0.29308
 H1534 H 0.67084 0.57246 0.29896
 H1535 H 0.69210 0.54188 0.27595
 C1536 C 0.69251 1.09797 0.78202
 C1537 C 0.67909 1.08604 0.76827
 C1538 C 0.69084 1.06872 0.76032
 C1539 C 0.71052 1.07140 0.76979
 O1540 O 0.71160 1.08920 0.78284
 H1541 H 0.66288 1.08974 0.76411
 H1542 H 0.68603 1.05629 0.74811
 C1543 C 0.20014 0.58306 0.77545
 C1544 C 0.18536 0.56787 0.76845
 C1545 C 0.19673 0.55043 0.76036
 C1546 C 0.21761 0.55626 0.76310
 O1547 O 0.21973 0.57621 0.77205
 H1548 H 0.16837 0.56959 0.76865
 H1549 H 0.19058 0.53570 0.75232
 C1550 C 0.18512 1.08429 0.27459
 C1551 C 0.17140 1.07511 0.25903
 C1552 C 0.18243 1.05864 0.24851
 C1553 C 0.20202 1.05888 0.25852
 O1554 O 0.20382 1.07460 0.27419
 H1555 H 0.15532 1.07998 0.25558
 H1556 H 0.17706 1.04806 0.23478
 C1557 C 0.71067 0.42086 0.69865
 C1558 C 0.69665 0.43789 0.70240
 C1559 C 0.70824 0.45453 0.71143
 C1560 C 0.72865 0.44658 0.71247
 O1561 O 0.73008 0.42589 0.70497
 H1562 H 0.67975 0.43770 0.70002
 H1563 H 0.70218 0.46998 0.71814
 C1564 C 0.70307 -0.10630 0.22827
 C1565 C 0.69200 -0.09398 0.24435
 C1566 C 0.70530 -0.07731 0.25024
 C1567 C 0.72345 -0.08063 0.23726
 O1568 O 0.72227 -0.09836 0.22406
 H1569 H 0.67613 -0.09677 0.25095
 H1570 H 0.70229 -0.06440 0.26272
 C1571 C 0.19175 0.41654 0.20453
 C1572 C 0.19448 0.43510 0.19053
 C1573 C 0.20565 0.44956 0.20341
 C1574 C 0.20878 0.43885 0.22444
 O1575 O 0.20054 0.41863 0.22503
 H1576 H 0.18980 0.43735 0.17268
 H1577 H 0.21197 0.46543 0.19758
 C1578 C 0.22284 -0.07996 0.68532
 C1579 C 0.23608 -0.07215 0.66774
 C1580 C 0.24910 -0.05742 0.67789
 C1581 C 0.24290 -0.05734 0.70089
 O1582 O 0.22700 -0.07106 0.70562
 H1583 H 0.23614 -0.07646 0.64959
 H1584 H 0.26151 -0.04766 0.66956
 C1585 C 0.29805 0.25813 0.40074
 C1586 C 0.31146 0.24124 0.40744
 C1587 C 0.30090 0.22969 0.42442
 C1588 C 0.28189 0.24044 0.42695
 O1589 O 0.27995 0.25766 0.41253
 H1590 H 0.32726 0.23796 0.40098
 H1591 H 0.30659 0.21563 0.43440
 C1592 C 0.29051 0.80301 -0.08602
 C1593 C 0.28019 0.81786 -0.07177
 C1594 C 0.26853 0.80527 -0.05661
 C1595 C 0.27271 0.78362 -0.06240
 O1596 O 0.28583 0.78209 -0.08052
 H1597 H 0.28093 0.83579 -0.07236
 H1598 H 0.25821 0.81112 -0.04287
 C1599 C 0.80852 0.29424 -0.06906
 C1600 C 0.82284 0.28481 -0.05411
 C1601 C 0.81105 0.27243 -0.03879
 C1602 C 0.79040 0.27559 -0.04530
 O1603 O 0.78884 0.28848 -0.06395
 H1604 H 0.83985 0.28637 -0.05459
 H1605 H 0.81678 0.26215 -0.02468
 C1606 C 0.77568 0.79212 0.40823
 C1607 C 0.76541 0.81003 0.41773
 C1608 C 0.75647 0.80213 0.43782
 C1609 C 0.76182 0.77999 0.43887
 O1610 O 0.77345 0.77375 0.42091
 H1611 H 0.76462 0.82682 0.41084
 H1612 H 0.74664 0.81117 0.44995
 C1613 C 0.70622 0.28135 0.58211
 C1614 C 0.69186 0.27049 0.56859
 C1615 C 0.70299 0.26387 0.54955
 C1616 C 0.72337 0.27113 0.55281
 O1617 O 0.72544 0.28163 0.57271
 H1618 H 0.67527 0.26762 0.57225
 H1619 H 0.69716 0.25418 0.53535
 C1620 C 0.69417 0.78956 1.07849
 C1621 C 0.68168 0.77782 1.06359
 C1622 C 0.69503 0.77055 1.04665
 C1623 C 0.71462 0.77877 1.05216
 O1624 O 0.71423 0.78995 1.07178
 H1625 H 0.66493 0.77455 1.06512
 H1626 H 0.69103 0.76023 1.03215
 C1627 C 0.21665 0.29537 1.08354
 C1628 C 0.22781 0.31034 1.06970
 C1629 C 0.23922 0.29778 1.05467
 C1630 C 0.23407 0.27612 1.06034
 O1631 O 0.22053 0.27450 1.07802
 H1632 H 0.22763 0.32827 1.07041
 H1633 H 0.24985 0.30363 1.04101
 C1634 C 0.18447 0.78673 0.58687
 C1635 C 0.17448 0.76860 0.57774
 C1636 C 0.18862 0.76009 0.56218
 C1637 C 0.20618 0.77358 0.56330
 O1638 O 0.20376 0.78971 0.57831
 H1639 H 0.15884 0.76236 0.58200
 H1640 H 0.18673 0.74540 0.55183
 C1641 C 0.30129 0.73803 0.59399
 C1642 C 0.31173 0.75645 0.58509
 C1643 C 0.29844 0.76541 0.56911
 C1644 C 0.28089 0.75187 0.56969
 O1645 O 0.28252 0.73523 0.58472
 H1646 H 0.32728 0.76239 0.58941
 H1647 H 0.30116 0.78000 0.55828
 C1648 C 0.30677 0.20550 1.08493
 C1649 C 0.31992 0.21157 1.06661
 C1650 C 0.30691 0.21906 1.04969
 C1651 C 0.28675 0.21707 1.05890
 O1652 O 0.28660 0.20899 1.08043
 H1653 H 0.33696 0.21072 1.06577
 H1654 H 0.31157 0.22598 1.03293
 C1655 C 0.80646 0.74113 1.08099
 C1656 C 0.81922 0.75741 1.07113
 C1657 C 0.80765 0.76669 1.05382
 C1658 C 0.78874 0.75535 1.05449
 O1659 O 0.78787 0.73994 1.07105
 H1660 H 0.83504 0.76200 1.07600
 H1661 H 0.81220 0.78034 1.04237
 C1662 C 0.81136 0.22071 0.57240
 C1663 C 0.82556 0.22930 0.55622
 C1664 C 0.81354 0.23894 0.53953
 C1665 C 0.79292 0.23523 0.54663
 O1666 O 0.79155 0.22446 0.56676
 H1667 H 0.84261 0.22894 0.55672
 H1668 H 0.81909 0.24796 0.52422
 C1669 C 0.68542 0.71399 0.43230
 C1670 C 0.67138 0.72431 0.44711
 C1671 C 0.68353 0.73448 0.46313
 C1672 C 0.70412 0.72945 0.45707
 O1673 O 0.70525 0.71720 0.43818
 H1674 H 0.65440 0.72518 0.44576
 H1675 H 0.67809 0.74552 0.47660
 C1676 C 0.71984 0.20662 -0.08098
 C1677 C 0.72829 0.18954 -0.06798
 C1678 C 0.73689 0.19943 -0.04929
 C1679 C 0.73321 0.22182 -0.05243
 O1680 O 0.72294 0.22631 -0.07174
 H1681 H 0.72826 0.17201 -0.07180
 H1682 H 0.74555 0.19146 -0.03545
 C1683 C 0.21672 0.70090 -0.09612
 C1684 C 0.22543 0.68348 -0.08382
 C1685 C 0.23420 0.69272 -0.06488
 C1686 C 0.23023 0.71516 -0.06693
 O1687 O 0.21980 0.72025 -0.08610
 H1688 H 0.22592 0.66617 -0.08855
 H1689 H 0.24336 0.68429 -0.05175
 C1690 C 0.19199 0.18901 0.42852
 C1691 C 0.17945 0.20208 0.44255
 C1692 C 0.19302 0.21448 0.45492
 C1693 C 0.21291 0.20770 0.44809
 O1694 O 0.21235 0.19258 0.43162
 H1695 H 0.16242 0.20314 0.44311
 H1696 H 0.18891 0.22736 0.46707
 C1697 C 0.28847 0.41531 0.68350
 C1698 C 0.27867 0.42845 0.66710
 C1699 C 0.26707 0.44324 0.67943
 C1700 C 0.27075 0.43809 0.70240
 O1701 O 0.28355 0.42097 0.70501
 H1702 H 0.27986 0.42743 0.64840
 H1703 H 0.25713 0.45629 0.67259
 C1704 C 0.28851 0.90978 0.21349
 C1705 C 0.30151 0.92353 0.22578
 C1706 C 0.28948 0.94131 0.23138
 C1707 C 0.27003 0.93733 0.22185
 O1708 O 0.26930 0.91798 0.21121
 H1709 H 0.31764 0.92055 0.23084
 H1710 H 0.29402 0.95501 0.24217
 C1711 C 0.80604 0.43208 0.19773
 C1712 C 0.81973 0.44903 0.20289
 C1713 C 0.80757 0.46493 0.21277
 C1714 C 0.78719 0.45674 0.21263
 O1715 O 0.78631 0.43659 0.20375
 H1716 H 0.83674 0.44919 0.20098
 H1717 H 0.81315 0.48001 0.22059
 C1718 C 0.79600 0.93426 0.69850
 C1719 C 0.79181 0.95099 0.68266
 C1720 C 0.77993 0.96589 0.69444
 C1721 C 0.77784 0.95728 0.71670
 O1722 O 0.78737 0.93786 0.71920
 H1723 H 0.79659 0.95206 0.66456
 H1724 H 0.77312 0.98102 0.68754
 C1725 C 0.72357 0.59344 0.70048
 C1726 C 0.73634 0.58524 0.68299
 C1727 C 0.74682 0.56786 0.69269
 C1728 C 0.73964 0.56664 0.71537
 O1729 O 0.72566 0.58231 0.72029
 H1730 H 0.73807 0.59145 0.66533
 H1731 H 0.75871 0.55764 0.68446
 C1732 C 0.71021 0.06567 0.20208
 C1733 C 0.71236 0.05071 0.18438
 C1734 C 0.72332 0.03340 0.19358
 C1735 C 0.72717 0.03909 0.21625
 O1736 O 0.71938 0.05886 0.22140
 H1737 H 0.70713 0.05259 0.16667
 H1738 H 0.72897 0.01894 0.18447
 C1739 C 0.20081 0.58236 0.24356
 C1740 C 0.18759 0.57426 0.26100
 C1741 C 0.19759 0.55614 0.26992
 C1742 C 0.21617 0.55460 0.25733
 O1743 O 0.21828 0.57052 0.24135
 H1744 H 0.17247 0.58078 0.26654
 H1745 H 0.19222 0.54550 0.28413
 C1746 C 0.20640 0.08744 0.69644
 C1747 C 0.19396 0.06995 0.70408
 C1748 C 0.20765 0.05354 0.70975
 C1749 C 0.22752 0.06204 0.70485
 O1750 O 0.22679 0.08283 0.69704
 H1751 H 0.17697 0.06949 0.70616
 H1752 H 0.20362 0.03769 0.71776
 C1753 C 0.29982 0.56100 0.31682
 C1754 C 0.29620 0.54380 0.33243
 C1755 C 0.28383 0.52918 0.32112
 C1756 C 0.28088 0.53846 0.29935
 O1757 O 0.29040 0.55797 0.29681
 H1758 H 0.30121 0.54258 0.35026
 H1759 H 0.27674 0.51419 0.32833
 C1760 C 0.31387 0.09366 0.75629
 C1761 C 0.32882 0.08262 0.74324
 C1762 C 0.31814 0.06577 0.73311
 C1763 C 0.29752 0.06796 0.74069
 O1764 O 0.29482 0.08491 0.75468
 H1765 H 0.34550 0.08627 0.74152
 H1766 H 0.32450 0.05349 0.72143
 C1767 C 0.79091 0.58441 0.80815
 C1768 C 0.77923 0.57225 0.82427
 C1769 C 0.76982 0.55588 0.81197
 C1770 C 0.77646 0.55931 0.78928
 O1771 O 0.78913 0.57673 0.78689
 H1772 H 0.77752 0.57518 0.84268
 H1773 H 0.75877 0.54349 0.81854
 C1774 C 0.80981 0.07119 0.26788
 C1775 C 0.82440 0.06006 0.25442
 C1776 C 0.81417 0.04166 0.24696
 C1777 C 0.79413 0.04284 0.25654
 O1778 O 0.79136 0.06091 0.26904
 H1779 H 0.84038 0.06510 0.25001
 H1780 H 0.82023 0.02943 0.23502
 C1781 C 0.70536 0.41754 0.26908
 C1782 C 0.69041 0.43326 0.26362
 C1783 C 0.70147 0.45200 0.25811
 C1784 C 0.72242 0.44637 0.26052
 O1785 O 0.72488 0.42533 0.26705
 H1786 H 0.67344 0.43124 0.26355
 H1787 H 0.69511 0.46769 0.25212
 C1788 C 0.69378 0.92315 0.77058
 C1789 C 0.68031 0.93763 0.75948
 C1790 C 0.69231 0.95568 0.75361
 C1791 C 0.71221 0.95101 0.76168
 O1792 O 0.71323 0.93111 0.77176
 H1793 H 0.66377 0.93523 0.75589
 H1794 H 0.68735 0.97024 0.74392
 C1795 C 0.19669 0.41437 0.77950
 C1796 C 0.18267 0.42971 0.77074
 C1797 C 0.19478 0.44509 0.75936
 C1798 C 0.21531 0.43816 0.76226
 O1799 O 0.21656 0.41928 0.77418
 H1800 H 0.16565 0.42968 0.77232
 H1801 H 0.18936 0.45964 0.74997
 C1802 C 0.18072 0.91147 0.26743
 C1803 C 0.16630 0.92212 0.25348
 C1804 C 0.17715 0.93925 0.24308
 C1805 C 0.19732 0.93771 0.25154
 O1806 O 0.19958 0.92078 0.26615
 H1807 H 0.14996 0.91771 0.25091
 H1808 H 0.17131 0.95099 0.23034
 C1809 C 0.41769 0.30473 0.71140
 C1810 C 0.43087 0.32195 0.71709
 C1811 C 0.44803 0.31214 0.72665
 C1812 C 0.44407 0.28962 0.72612
 O1813 O 0.42550 0.28506 0.71704
 H1814 H 0.42803 0.33957 0.71505
 H1815 H 0.46134 0.32042 0.73430
 C1816 C 0.40757 0.79574 0.23116
 C1817 C 0.41844 0.81127 0.24362
 C1818 C 0.43561 0.80036 0.25185
 C1819 C 0.43382 0.77901 0.24381
 O1820 O 0.41673 0.77608 0.23139
 H1821 H 0.41413 0.82836 0.24667
 H1822 H 0.44752 0.80684 0.26317
 C1823 C 0.92498 0.31273 0.21937
 C1824 C 0.93931 0.32776 0.22766
 C1825 C 0.95475 0.31518 0.23737
 C1826 C 0.94863 0.29344 0.23421
 O1827 O 0.93047 0.29193 0.22345
 H1828 H 0.93834 0.34570 0.22719
 H1829 H 0.96832 0.32111 0.24662
 C1830 C 0.91535 0.81247 0.72275
 C1831 C 0.92592 0.82651 0.73728
 C1832 C 0.94329 0.81510 0.74417
 C1833 C 0.94229 0.79496 0.73315
 O1834 O 0.92514 0.79322 0.72034
 H1835 H 0.92124 0.84290 0.74274
 H1836 H 0.95476 0.82040 0.75665
 C1837 C 0.57967 0.30232 0.29360
 C1838 C 0.56294 0.30196 0.30918
 C1839 C 0.54833 0.28850 0.29972
 C1840 C 0.55714 0.28170 0.27895
 O1841 O 0.57636 0.28985 0.27529
 H1842 H 0.56181 0.31004 0.32580
 H1843 H 0.53334 0.28349 0.30742
 C1844 C 0.57089 0.80231 0.80274
 C1845 C 0.55563 0.79928 0.81980
 C1846 C 0.54114 0.78553 0.81054
 C1847 C 0.54850 0.78127 0.78839
 O1848 O 0.56678 0.79121 0.78366
 H1849 H 0.55544 0.80576 0.83722
 H1850 H 0.52725 0.77869 0.81919
 C1851 C 0.07738 0.30433 0.80337
 C1852 C 0.06351 0.32046 0.79591
 C1853 C 0.04828 0.30945 0.78446
 C1854 C 0.05361 0.28730 0.78616
 O1855 O 0.07155 0.28415 0.79728
 H1856 H 0.06468 0.33824 0.79787
 H1857 H 0.03515 0.31676 0.77534
 C1858 C 0.07673 0.78006 0.30905
 C1859 C 0.05889 0.79298 0.30790
 C1860 C 0.04386 0.77966 0.29896
 C1861 C 0.05356 0.75943 0.29541
 O1862 O 0.07368 0.75979 0.30129
 H1863 H 0.05748 0.81049 0.31156
 H1864 H 0.02824 0.78474 0.29377
 C1865 C 0.58486 0.69436 0.73723
 C1866 C 0.57376 0.67861 0.75005
 C1867 C 0.55588 0.68911 0.75755
 C1868 C 0.55734 0.71048 0.74864
 O1869 O 0.57504 0.71375 0.73653
 H1870 H 0.57823 0.66160 0.75366
 H1871 H 0.54355 0.68225 0.76874
 C1872 C 0.58795 0.18589 0.23934
 C1873 C 0.57573 0.17342 0.25466
 C1874 C 0.55926 0.18692 0.26059
 C1875 C 0.56280 0.20652 0.24840
 O1876 O 0.58024 0.20598 0.23567
 H1877 H 0.57837 0.15652 0.26053
 H1878 H 0.54633 0.18309 0.27250
 C1879 C 0.09099 0.70731 0.20724
 C1880 C 0.07833 0.71771 0.19119
 C1881 C 0.06044 0.72327 0.20316
 C1882 C 0.06350 0.71578 0.22561
 O1883 O 0.08214 0.70629 0.22819
 H1884 H 0.08181 0.72101 0.17301
 H1885 H 0.04703 0.73233 0.19656
 C1886 C 0.08338 0.20335 0.72448
 C1887 C 0.07065 0.18693 0.73411
 C1888 C 0.05383 0.19770 0.74351
 C1889 C 0.05749 0.21991 0.73893
 O1890 O 0.07556 0.22347 0.72754
 H1891 H 0.07342 0.16921 0.73445
 H1892 H 0.04074 0.19036 0.75321
 C1893 C 0.41134 0.69562 0.30676
 C1894 C 0.42503 0.69870 0.32473
 C1895 C 0.44203 0.70937 0.31502
 C1896 C 0.43741 0.71202 0.29181
 O1897 O 0.41859 0.70395 0.28686
 H1898 H 0.42238 0.69471 0.34293
 H1899 H 0.45546 0.71590 0.32408
 C1900 C 0.41929 0.22130 0.80827
 C1901 C 0.43106 0.23062 0.82553
 C1902 C 0.44758 0.24083 0.81427
 C1903 C 0.44472 0.23683 0.79100
 O1904 O 0.42741 0.22521 0.78732
 H1905 H 0.42781 0.23029 0.84402
 H1906 H 0.45984 0.25068 0.82198
 C1907 C 0.92082 0.69618 0.76899
 C1908 C 0.93270 0.68287 0.75459
 C1909 C 0.94871 0.69623 0.74631
 C1910 C 0.94525 0.71659 0.75633
 O1911 O 0.92830 0.71660 0.76991
 H1912 H 0.93005 0.66560 0.75065
 H1913 H 0.96115 0.69183 0.73415
 C1914 C 0.91508 0.20268 0.28422
 C1915 C 0.93087 0.18784 0.27890
 C1916 C 0.94822 0.20046 0.27426
 C1917 C 0.94184 0.22215 0.27720
 O1918 O 0.92156 0.22358 0.28302
 H1919 H 0.92970 0.16996 0.27787
 H1920 H 0.96346 0.19461 0.26829
 C1921 C 0.31472 0.29449 0.56634
 C1922 C 0.31249 0.30694 0.54627
 C1923 C 0.29935 0.29503 0.53286
 C1924 C 0.29469 0.27596 0.54554
 O1925 O 0.30377 0.27576 0.56612
 H1926 H 0.31884 0.32329 0.54240
 H1927 H 0.29296 0.30021 0.51633
 C1928 C 0.30020 0.77714 0.08961
 C1929 C 0.31587 0.77054 0.07436
 C1930 C 0.30565 0.76162 0.05617
 C1931 C 0.28446 0.76343 0.06158
 O1932 O 0.28105 0.77265 0.08206
 H1933 H 0.33276 0.77173 0.07649
 H1934 H 0.31277 0.75390 0.04113
 C1935 C 0.79809 0.27732 0.10546
 C1936 C 0.81110 0.26320 0.09319
 C1937 C 0.79914 0.25533 0.07583
 C1938 C 0.77970 0.26514 0.07877
 O1939 O 0.77886 0.27846 0.09684
 H1940 H 0.82747 0.25929 0.09632
 H1941 H 0.80390 0.24369 0.06262
 C1942 C 0.80437 0.81360 0.57992
 C1943 C 0.79993 0.82789 0.56172
 C1944 C 0.78601 0.81690 0.54843
 C1945 C 0.78318 0.79644 0.55912
 O1946 O 0.79404 0.79451 0.57858
 H1947 H 0.80556 0.84470 0.55891
 H1948 H 0.77823 0.82335 0.53317
 C1949 C 0.28818 0.69403 0.42813
 C1950 C 0.28266 0.68168 0.44763
 C1951 C 0.27272 0.69612 0.46193
 C1952 C 0.27302 0.71628 0.45020
 O1953 O 0.28219 0.71503 0.42947
 H1954 H 0.28542 0.66422 0.45097
 H1955 H 0.26566 0.69234 0.47877
 C1956 C 0.28025 0.18156 0.91083
 C1957 C 0.26653 0.16593 0.92021
 C1958 C 0.25615 0.17645 0.93779
 C1959 C 0.26421 0.19771 0.93754
 O1960 O 0.27877 0.20092 0.92116
 H1961 H 0.26414 0.14907 0.91459
 H1962 H 0.24354 0.16982 0.94874
 C1963 C 0.81113 0.73542 0.90422
 C1964 C 0.82353 0.75243 0.91224
 C1965 C 0.81117 0.76332 0.92788
 C1966 C 0.79218 0.75216 0.92816
 O1967 O 0.79200 0.73529 0.91373
 H1968 H 0.83963 0.75644 0.90724
 H1969 H 0.81530 0.77788 0.93762
 C1970 C 0.78148 0.19756 0.39715
 C1971 C 0.77465 0.18263 0.41403
 C1972 C 0.76735 0.19523 0.43180
 C1973 C 0.77022 0.21696 0.42450
 O1974 O 0.77865 0.21847 0.40332
 H1975 H 0.77491 0.16469 0.41342
 H1976 H 0.76014 0.18933 0.44791
 C1977 C 0.69839 0.29386 0.40515
 C1978 C 0.68387 0.28345 0.41978
 C1979 C 0.69539 0.27070 0.43444
 C1980 C 0.71612 0.27451 0.42795
 O1981 O 0.71806 0.28827 0.40989
 H1982 H 0.66685 0.28477 0.41970
 H1983 H 0.68948 0.25998 0.44833
 C1984 C 0.69850 0.79422 0.90344
 C1985 C 0.68634 0.77867 0.91539
 C1986 C 0.69965 0.76846 0.93034
 C1987 C 0.71888 0.77871 0.92663
 O1988 O 0.71840 0.79416 0.91005
 H1989 H 0.66970 0.77525 0.91354
 H1990 H 0.69576 0.75548 0.94290
 C1991 C 0.21675 0.28789 0.90775
 C1992 C 0.22772 0.30284 0.92085
 C1993 C 0.23501 0.29089 0.93922
 C1994 C 0.22795 0.26950 0.93603
 O1995 O 0.21698 0.26754 0.91676
 H1996 H 0.23034 0.32031 0.91725
 H1997 H 0.24503 0.29683 0.95283
 C1998 C 0.21394 0.79702 0.40842
 C1999 C 0.21923 0.81388 0.42316
 C2000 C 0.22687 0.80359 0.44237
 C2001 C 0.22578 0.78117 0.43800
 O2002 O 0.21805 0.77706 0.41725
 H2003 H 0.21769 0.83158 0.42022
 H2004 H 0.23317 0.81149 0.45752
 C2005 C 0.69960 0.74415 0.60639
 C2006 C 0.68788 0.76143 0.59744
 C2007 C 0.69960 0.76968 0.57923
 C2008 C 0.71757 0.75685 0.57859
 O2009 O 0.71769 0.74135 0.59501
 H2010 H 0.67252 0.76711 0.60326
 H2011 H 0.69560 0.78334 0.56771
 C2012 C 0.69148 0.21261 0.09541
 C2013 C 0.67759 0.22573 0.08318
 C2014 C 0.68974 0.23708 0.06731
 C2015 C 0.71009 0.23008 0.07121
 O2016 O 0.71124 0.21532 0.08834
 H2017 H 0.66070 0.22706 0.08576
 H2018 H 0.68457 0.24951 0.05490
 C2019 C 0.21977 0.68519 0.08752
 C2020 C 0.22843 0.66962 0.07293
 C2021 C 0.23689 0.68151 0.05469
 C2022 C 0.23277 0.70346 0.05952
 O2023 O 0.22254 0.70574 0.07956
 H2024 H 0.22885 0.65180 0.07550
 H2025 H 0.24587 0.67506 0.04016
 C2026 C 0.20730 0.23545 0.59546
 C2027 C 0.19556 0.24969 0.58187
 C2028 C 0.20797 0.25439 0.56292
 C2029 C 0.22636 0.24272 0.56637
 O2030 O 0.22611 0.23126 0.58615
 H2031 H 0.17970 0.25560 0.58513
 H2032 H 0.20410 0.26492 0.54821
   
