data_POSCAR
  _audit_creation_date              2014-09-24
  _audit_creation_method            'ToBaCCo'
  _symmetry_space_group_name_H-M    'P1'
  _symmetry_Int_Tables_number       1
  _symmetry_cell_setting            triclinic
  loop_
  _symmetry_equiv_pos_as_xyz
 x,y,z
_cell_length_a 65.3107
_cell_length_b 65.9244
_cell_length_c 66.0249
_cell_angle_alpha 93.515400
_cell_angle_beta 93.950800
_cell_angle_gamma 92.956000
loop_
  _atom_site_label
  _atom_site_type_symbol
  _atom_site_fract_x
  _atom_site_fract_y
  _atom_site_fract_z
C1 C 0.72846 0.66865 0.98004
 H2 H 0.74350 0.66944 0.97414
 C3 C 0.71300 0.68046 0.97214
 H4 H 0.71639 0.69058 0.96035
 C5 C 0.70575 0.65431 1.00246
 H6 H 0.70279 0.64378 1.01394
 C7 C 0.68989 0.66578 0.99500
 H8 H 0.67488 0.66383 1.00085
 N9 N 0.72463 0.65601 0.99504
 C10 C 0.78256 0.64421 1.02750
 H11 H 0.78000 0.62790 1.02787
 C12 C 0.80035 0.65389 1.03717
 H13 H 0.81155 0.64486 1.04478
 C14 C 0.77116 0.67560 1.01662
 H15 H 0.75965 0.68399 1.00873
 C16 C 0.78891 0.68594 1.02601
 H17 H 0.79094 0.70227 1.02528
 Zn18 Zn 0.74547 0.63937 1.00473
 N19 N 0.76851 0.65505 1.01730
 C20 C 0.77393 0.62507 0.97798
 N21 N 0.75391 0.62320 0.98240
 C22 C 0.73997 0.61091 0.97047
 C23 C 0.74612 0.59965 0.95347
 C24 C 0.78072 0.61404 0.96133
 C25 C 0.73256 0.63389 1.04282
 C26 C 0.72658 0.62388 1.05958
 C27 C 0.72646 0.59196 1.03959
 C28 C 0.73271 0.60271 1.02320
 N29 N 0.73557 0.62330 1.02513
 H30 H 0.78470 0.63535 0.98716
 H31 H 0.72405 0.60997 0.97409
 H32 H 0.73492 0.58982 0.94417
 H33 H 0.79669 0.61595 0.95802
 H34 H 0.73487 0.65030 1.04390
 H35 H 0.72352 0.63341 1.07280
 H36 H 0.72526 0.57556 1.03743
 H37 H 0.73562 0.59453 1.00909
 C38 C 0.80379 0.67501 1.03642
 C39 C 0.69338 0.67910 0.97964
 C40 C 0.72353 0.60238 1.05854
 C41 C 0.76680 0.60108 0.94885
 C42 C 0.73681 0.37203 0.51269
 H43 H 0.75120 0.37559 0.52164
 C44 C 0.72189 0.35890 0.51983
 H45 H 0.72489 0.35253 0.53440
 C46 C 0.71512 0.37697 0.48334
 H47 H 0.71241 0.38429 0.46929
 C48 C 0.69978 0.36389 0.48988
 H49 H 0.68552 0.36100 0.48054
 N50 N 0.73321 0.38076 0.49476
 C51 C 0.79301 0.39778 0.47342
 H52 H 0.79158 0.41392 0.47196
 C53 C 0.81056 0.38854 0.46736
 H54 H 0.82258 0.39767 0.46115
 C55 C 0.77855 0.36615 0.48240
 H56 H 0.76592 0.35741 0.48795
 C57 C 0.79577 0.35628 0.47644
 H58 H 0.79635 0.34004 0.47781
 Zn59 Zn 0.75352 0.39980 0.48724
 N60 N 0.77750 0.38656 0.48084
 C61 C 0.77864 0.42263 0.51834
 N62 N 0.75918 0.41901 0.50971
 C63 C 0.74290 0.42732 0.51824
 C64 C 0.74582 0.43938 0.53646
 C65 C 0.78228 0.43479 0.53643
 C66 C 0.74208 0.40056 0.44602
 C67 C 0.73511 0.40859 0.42792
 C68 C 0.73211 0.44089 0.44653
 C69 C 0.73928 0.43225 0.46430
 N70 N 0.74386 0.41234 0.46375
 H71 H 0.79132 0.41552 0.51166
 H72 H 0.72754 0.42392 0.51124
 H73 H 0.73265 0.44547 0.54331
 H74 H 0.79779 0.43691 0.54344
 H75 H 0.74611 0.38484 0.44600
 H76 H 0.73404 0.39896 0.41396
 H77 H 0.72806 0.45662 0.44736
 H78 H 0.74102 0.44140 0.47852
 C79 C 0.81202 0.36748 0.46870
 C80 C 0.70299 0.35478 0.50845
 C81 C 0.72986 0.42899 0.42801
 C82 C 0.76570 0.44299 0.54592
 C83 C 0.22955 -0.12343 0.01090
 H84 H 0.24413 -0.12016 0.01958
 C85 C 0.21444 -0.13602 0.01843
 H86 H 0.21747 -0.14229 0.03304
 C87 C 0.20766 -0.11839 -0.01830
 H88 H 0.20498 -0.11124 -0.03245
 C89 C 0.19209 -0.13090 -0.01132
 H90 H 0.17765 -0.13355 -0.02041
 N91 N 0.22599 -0.11501 -0.00721
 C92 C 0.28664 -0.10150 -0.02842
 H93 H 0.28600 -0.08539 -0.03047
 C94 C 0.30398 -0.11171 -0.03350
 H95 H 0.31662 -0.10335 -0.03959
 C96 C 0.27052 -0.13212 -0.01880
 H97 H 0.25735 -0.14011 -0.01338
 C98 C 0.28750 -0.14292 -0.02375
 H99 H 0.28734 -0.15910 -0.02171
 Zn100 Zn 0.24703 -0.09721 -0.01543
 N101 N 0.27044 -0.11176 -0.02108
 C102 C 0.27274 -0.07436 0.01522
 N103 N 0.25331 -0.07735 0.00634
 C104 C 0.23736 -0.06776 0.01412
 C105 C 0.24055 -0.05492 0.03181
 C106 C 0.27665 -0.06147 0.03278
 C107 C 0.23493 -0.09762 -0.05667
 C108 C 0.22842 -0.08992 -0.07509
 C109 C 0.22903 -0.05649 -0.05790
 C110 C 0.23555 -0.06493 -0.03982
 N111 N 0.23811 -0.08519 -0.03949
 H112 H 0.28513 -0.08248 0.00916
 H113 H 0.22200 -0.07067 0.00694
 H114 H 0.22762 -0.04775 0.03807
 H115 H 0.29209 -0.05980 0.04002
 H116 H 0.23761 -0.11364 -0.05605
 H117 H 0.22709 -0.10056 -0.08827
 H118 H 0.22623 -0.04048 -0.05680
 H119 H 0.23834 -0.05526 -0.02599
 C120 C 0.30451 -0.13272 -0.03125
 C121 C 0.19538 -0.13988 0.00730
 C122 C 0.22506 -0.06892 -0.07625
 C123 C 0.26038 -0.05186 0.04149
 C124 C 0.22977 0.16776 0.48107
 H125 H 0.24408 0.16711 0.47378
 C126 C 0.21380 0.17866 0.47270
 H127 H 0.21598 0.18626 0.45888
 C128 C 0.20917 0.15738 0.50714
 H129 H 0.20717 0.14873 0.52028
 C130 C 0.19296 0.16829 0.49949
 H131 H 0.17892 0.16826 0.50728
 N132 N 0.22711 0.15719 0.49784
 C133 C 0.28477 0.14424 0.53004
 H134 H 0.28168 0.12804 0.53086
 C135 C 0.30286 0.15358 0.53942
 H136 H 0.31371 0.14439 0.54732
 C137 C 0.27458 0.17561 0.51801
 H138 H 0.26348 0.18405 0.50959
 C139 C 0.29267 0.18560 0.52710
 H140 H 0.29533 0.20179 0.52573
 Zn141 Zn 0.24792 0.14008 0.50672
 N142 N 0.27116 0.15524 0.51945
 C143 C 0.27611 0.12621 0.47943
 N144 N 0.25601 0.12485 0.48362
 C145 C 0.24169 0.11388 0.47088
 C146 C 0.24748 0.10356 0.45319
 C147 C 0.28256 0.11610 0.46207
 C148 C 0.23527 0.13199 0.54479
 C149 C 0.22892 0.12054 0.56049
 C150 C 0.22861 0.09022 0.53795
 C151 C 0.23503 0.10231 0.52261
 N152 N 0.23808 0.12283 0.52626
 H153 H 0.28723 0.13540 0.48935
 H154 H 0.22573 0.11333 0.47438
 H155 H 0.23595 0.09480 0.44324
 H156 H 0.29860 0.11765 0.45892
 H157 H 0.23805 0.14830 0.54735
 H158 H 0.22647 0.12826 0.57501
 H159 H 0.22642 0.07390 0.53489
 H160 H 0.23775 0.09527 0.50790
 C161 C 0.30710 0.17450 0.53793
 C162 C 0.19492 0.17878 0.48175
 C163 C 0.22558 0.09935 0.55723
 C164 C 0.26820 0.10457 0.44868
 C165 C 0.16437 0.47010 0.22148
 H166 H 0.16471 0.46366 0.23617
 C167 C 0.17621 0.46213 0.20636
 H168 H 0.18588 0.44971 0.20963
 C169 C 0.15090 0.49378 0.19922
 H170 H 0.14057 0.50569 0.19625
 C171 C 0.16253 0.48634 0.18373
 H172 H 0.16100 0.49269 0.16899
 N173 N 0.15199 0.48559 0.21765
 C174 C 0.13780 0.51376 0.27588
 H175 H 0.12128 0.51336 0.27294
 C176 C 0.14687 0.52271 0.29417
 H177 H 0.13716 0.52899 0.30536
 C178 C 0.17036 0.50564 0.26485
 H179 H 0.17940 0.49913 0.25325
 C180 C 0.18012 0.51438 0.28310
 H181 H 0.19670 0.51457 0.28545
 Zn182 Zn 0.13449 0.49411 0.23784
 N183 N 0.14953 0.50535 0.26173
 C184 C 0.12190 0.46383 0.26304
 N185 N 0.11845 0.47091 0.24426
 C186 C 0.10533 0.46058 0.22983
 C187 C 0.09500 0.44238 0.23415
 C188 C 0.11210 0.44570 0.26791
 C189 C 0.12909 0.53279 0.22594
 C190 C 0.11897 0.55003 0.22084
 C191 C 0.08655 0.53070 0.22116
 C192 C 0.09736 0.51372 0.22635
 N193 N 0.11826 0.51511 0.22862
 H194 H 0.13276 0.47187 0.27416
 H195 H 0.10322 0.46628 0.21485
 H196 H 0.08482 0.43414 0.22247
 H197 H 0.11516 0.44030 0.28293
 H198 H 0.14569 0.53351 0.22809
 H199 H 0.12796 0.56390 0.21871
 H200 H 0.06991 0.52953 0.21975
 H201 H 0.08903 0.49965 0.22901
 C202 C 0.16829 0.52311 0.29800
 C203 C 0.17523 0.47016 0.18712
 C204 C 0.09741 0.54923 0.21862
 C205 C 0.09862 0.43462 0.25333
 C206 C -0.13269 0.01200 0.24491
 H207 H -0.13143 0.01992 0.25983
 C208 C -0.14546 0.01901 0.22932
 H209 H -0.15432 0.03194 0.23304
 C210 C -0.12307 -0.01503 0.22299
 H211 H -0.11396 -0.02804 0.22045
 C212 C -0.13564 -0.00860 0.20693
 H213 H -0.13537 -0.01679 0.19227
 N214 N -0.12192 -0.00479 0.24155
 C215 C -0.10972 -0.02785 0.30141
 H216 H -0.09315 -0.02830 0.30197
 C217 C -0.12038 -0.03432 0.31767
 H218 H -0.11194 -0.03989 0.33069
 C219 C -0.14089 -0.02063 0.28341
 H220 H -0.14885 -0.01554 0.26994
 C221 C -0.15218 -0.02716 0.29924
 H222 H -0.16877 -0.02674 0.29791
 Zn223 Zn -0.10442 -0.01285 0.26328
 N224 N -0.12003 -0.02093 0.28484
 C225 C -0.08640 0.01803 0.29154
 N226 N -0.08624 0.00980 0.27216
 C227 C -0.07438 0.01849 0.25852
 C228 C -0.06187 0.03604 0.26429
 C229 C -0.07415 0.03549 0.29794
 C230 C -0.10163 -0.05335 0.25047
 C231 C -0.09260 -0.07095 0.24360
 C232 C -0.05984 -0.05191 0.24549
 C233 C -0.06950 -0.03466 0.25252
 N234 N -0.09011 -0.03562 0.25453
 H235 H -0.09643 0.01144 0.30199
 H236 H -0.07488 0.01192 0.24306
 H237 H -0.05250 0.04272 0.25325
 H238 H -0.07497 0.04203 0.31329
 H239 H -0.11794 -0.05374 0.25249
 H240 H -0.10210 -0.08490 0.24062
 H241 H -0.04354 -0.05068 0.24340
 H242 H -0.06054 -0.02051 0.25613
 C243 C -0.14190 -0.03406 0.31666
 C244 C -0.14716 0.00880 0.20975
 C245 C -0.07146 -0.07036 0.24075
 C246 C -0.06170 0.04480 0.28425
 C247 C 0.35767 0.49240 0.73185
 H248 H 0.35064 0.48867 0.74557
 C249 C 0.34551 0.49897 0.71556
 H250 H 0.32919 0.50025 0.71694
 C251 C 0.38728 0.49496 0.71314
 H252 H 0.40365 0.49350 0.71244
 C253 C 0.37569 0.50146 0.69645
 H254 H 0.38328 0.50518 0.68298
 N255 N 0.37824 0.49098 0.73052
 C256 C 0.37957 0.45654 0.78042
 H257 H 0.38885 0.44547 0.77330
 C258 C 0.36742 0.45077 0.79587
 H259 H 0.36747 0.43526 0.80040
 C260 C 0.36882 0.49028 0.78383
 H261 H 0.36949 0.50567 0.77899
 C262 C 0.35652 0.48518 0.79948
 H263 H 0.34758 0.49669 0.80653
 Zn264 Zn 0.39552 0.48347 0.75272
 N265 N 0.37970 0.47590 0.77437
 C266 C 0.42638 0.50400 0.77939
 N267 N 0.41350 0.50591 0.76261
 C268 C 0.41214 0.52403 0.75395
 C269 C 0.42389 0.54119 0.76225
 C270 C 0.43839 0.52083 0.78824
 C271 C 0.39873 0.44468 0.73464
 C272 C 0.40821 0.42750 0.72739
 C273 C 0.44123 0.44492 0.73698
 C274 C 0.43106 0.46174 0.74427
 N275 N 0.41017 0.46121 0.74318
 H276 H 0.42694 0.48949 0.78616
 H277 H 0.40144 0.52545 0.74098
 H278 H 0.42201 0.55560 0.75550
 H279 H 0.44841 0.51908 0.80171
 H280 H 0.38213 0.44477 0.73375
 H281 H 0.39870 0.41432 0.72126
 H282 H 0.45786 0.44574 0.73775
 H283 H 0.43988 0.47521 0.75069
 C284 C 0.35550 0.46511 0.80545
 C285 C 0.35456 0.50384 0.69767
 C286 C 0.42978 0.42742 0.72847
 C287 C 0.43705 0.53981 0.77978
 C288 C 0.66470 0.97279 0.72406
 H289 H 0.67236 0.97517 0.73913
 C290 C 0.67537 0.96500 0.70789
 H291 H 0.69127 0.96138 0.71063
 C292 C 0.63440 0.97373 0.70226
 H293 H 0.61834 0.97699 0.70028
 C294 C 0.64438 0.96584 0.68579
 H295 H 0.63597 0.96328 0.67106
 N296 N 0.64448 0.97664 0.72099
 C297 C 0.64215 0.98146 0.78370
 H298 H 0.63136 0.96844 0.78277
 C299 C 0.65235 0.98778 0.80248
 H300 H 0.64821 0.97964 0.81543
 C301 C 0.65928 1.00791 0.76786
 H302 H 0.66218 1.01561 0.75432
 C303 C 0.66993 1.01473 0.78631
 H304 H 0.68120 1.02729 0.78607
 Zn305 Zn 0.62838 0.98488 0.74243
 N306 N 0.64519 0.99192 0.76695
 C307 C 0.61166 0.94443 0.73691
 N308 N 0.60947 0.96280 0.74687
 C309 C 0.59542 0.96494 0.76106
 C310 C 0.58333 0.94809 0.76606
 C311 C 0.59993 0.92724 0.74145
 C312 C 0.62658 1.02330 0.72739
 C313 C 0.61820 1.04135 0.72189
 C314 C 0.58489 1.02774 0.72981
 C315 C 0.59396 1.00987 0.73523
 N316 N 0.61459 1.00816 0.73439
 H317 H 0.62309 0.94280 0.72596
 H318 H 0.59429 0.97953 0.76921
 H319 H 0.57286 0.94993 0.77798
 H320 H 0.60220 0.91272 0.73358
 H321 H 0.64271 1.02128 0.72584
 H322 H 0.62809 1.05315 0.71634
 H323 H 0.56855 1.02904 0.73103
 H324 H 0.58448 0.99751 0.74020
 C325 C 0.66621 1.00509 0.80435
 C326 C 0.66502 0.96102 0.68857
 C327 C 0.59714 1.04390 0.72335
 C328 C 0.58583 0.92885 0.75649
 C329 C -0.00473 0.23313 -0.14831
 H330 H -0.00209 0.24905 -0.15091
 C331 C 0.00125 0.21833 -0.16240
 H332 H 0.00845 0.22304 -0.17577
 C333 C -0.01754 0.20771 -0.12793
 H334 H -0.02474 0.20350 -0.11449
 C335 C -0.01179 0.19241 -0.14162
 H336 H -0.01438 0.17665 -0.13826
 N337 N -0.01352 0.22766 -0.13122
 C338 C -0.02064 0.29017 -0.12026
 H339 H -0.00926 0.29283 -0.10756
 C340 C -0.02757 0.30656 -0.13073
 H341 H -0.02155 0.32182 -0.12583
 C342 C -0.04277 0.26711 -0.14162
 H343 H -0.04855 0.25163 -0.14575
 C344 C -0.05008 0.28303 -0.15254
 H345 H -0.06138 0.27963 -0.16523
 Zn346 Zn -0.01896 0.24874 -0.11167
 N347 N -0.02835 0.27093 -0.12581
 C348 C 0.02255 0.26140 -0.10688
 N349 N 0.00606 0.25684 -0.09618
 C350 C 0.00780 0.25755 -0.07547
 C351 C 0.02691 0.26230 -0.06482
 C352 C 0.04185 0.26612 -0.09690
 C353 C -0.05840 0.24702 -0.09636
 C354 C -0.07434 0.23891 -0.08574
 C355 C -0.05069 0.21607 -0.07100
 C356 C -0.03529 0.22464 -0.08196
 N357 N -0.03947 0.23944 -0.09478
 H358 H 0.02080 0.26121 -0.12326
 H359 H -0.00554 0.25431 -0.06716
 H360 H 0.02815 0.26237 -0.04837
 H361 H 0.05476 0.26965 -0.10578
 H362 H -0.06147 0.25895 -0.10647
 H363 H -0.08927 0.24478 -0.08888
 H364 H -0.04608 0.20482 -0.06065
 H365 H -0.01994 0.21921 -0.08046
 C366 C -0.04252 0.30310 -0.14710
 C367 C -0.00190 0.19764 -0.15893
 C368 C -0.07107 0.22256 -0.07311
 C369 C 0.04430 0.26631 -0.07562
 C370 C 0.47838 0.22538 0.15039
 H371 H 0.47269 0.24051 0.15044
 C372 C 0.46923 0.21071 0.16181
 H373 H 0.45669 0.21478 0.17087
 C374 C 0.50146 0.20168 0.13823
 H375 H 0.51368 0.19804 0.12865
 C376 C 0.49278 0.18656 0.14942
 H377 H 0.49847 0.17143 0.14826
 N378 N 0.49421 0.22067 0.13894
 C379 C 0.52819 0.27707 0.12807
 H380 H 0.52922 0.27436 0.11186
 C381 C 0.53725 0.29486 0.13806
 H382 H 0.54508 0.30586 0.12933
 C383 C 0.51599 0.26624 0.15885
 H384 H 0.50775 0.25500 0.16688
 C385 C 0.52480 0.28394 0.16947
 H386 H 0.52329 0.28614 0.18568
 Zn387 Zn 0.50486 0.24067 0.12247
 N388 N 0.51750 0.26337 0.13844
 C389 C 0.47863 0.26952 0.10702
 N390 N 0.48266 0.24947 0.10576
 C391 C 0.47031 0.23566 0.09377
 C392 C 0.45321 0.24195 0.08230
 C393 C 0.46192 0.27645 0.09572
 C394 C 0.54314 0.22585 0.11747
 C395 C 0.55993 0.21941 0.10739
 C396 C 0.54011 0.22138 0.07536
 C397 C 0.52363 0.22790 0.08611
 N398 N 0.52547 0.22999 0.10680
 H399 H 0.48813 0.28023 0.11705
 H400 H 0.47364 0.21973 0.09330
 H401 H 0.44352 0.23083 0.07278
 H402 H 0.45889 0.29246 0.09716
 H403 H 0.54423 0.22786 0.13390
 H404 H 0.57382 0.21614 0.11623
 H405 H 0.53859 0.22009 0.05889
 H406 H 0.50958 0.23164 0.07791
 C407 C 0.53543 0.29862 0.15899
 C408 C 0.47635 0.19094 0.16132
 C409 C 0.55865 0.21729 0.08605
 C410 C 0.44895 0.26263 0.08316
 C411 C 0.96875 0.71930 0.65646
 H412 H 0.96134 0.73360 0.65650
 C413 C 0.96091 0.70341 0.66728
 H414 H 0.94739 0.70565 0.67558
 C415 C 0.99447 0.69861 0.64431
 H416 H 1.00718 0.69652 0.63493
 C417 C 0.98727 0.68243 0.65502
 H418 H 0.99498 0.66829 0.65412
 N419 N 0.98509 0.71656 0.64507
 C420 C 1.01204 0.77545 0.63132
 H421 H 1.01154 0.77267 0.61497
 C422 C 1.02101 0.79366 0.64043
 H423 H 1.02719 0.80496 0.63092
 C424 C 1.00422 0.76404 0.66341
 H425 H 0.99780 0.75232 0.67224
 C426 C 1.01299 0.78220 0.67320
 H427 H 1.01331 0.78435 0.68961
 Zn428 Zn 0.99282 0.73719 0.62788
 N429 N 1.00382 0.76113 0.64281
 C430 C 0.96145 0.76204 0.61482
 N431 N 0.96885 0.74324 0.61206
 C432 C 0.95828 0.72834 0.59980
 C433 C 0.93943 0.73215 0.58972
 C434 C 0.94268 0.76643 0.60522
 C435 C 1.03225 0.72633 0.62209
 C436 C 1.04922 0.72067 0.61189
 C437 C 1.02827 0.71945 0.58017
 C438 C 1.01159 0.72521 0.59105
 N439 N 1.01387 0.72836 0.61166
 H440 H 0.96975 0.77356 0.62498
 H441 H 0.96425 0.71336 0.59825
 H442 H 0.93100 0.72006 0.58029
 H443 H 0.93703 0.78147 0.60771
 H444 H 1.03367 0.72915 0.63846
 H445 H 1.06359 0.71883 0.62061
 H446 H 1.02632 0.71713 0.56376
 H447 H 0.99697 0.72733 0.58300
 C448 C 1.02162 0.79724 0.66163
 C449 C 0.96998 0.68452 0.66635
 C450 C 1.04743 0.71722 0.59063
 C451 C 0.93130 0.75133 0.59266
 C452 C 0.49405 0.73642 0.34599
 H453 H 0.50091 0.75178 0.34708
 C454 C 0.50285 0.72114 0.33453
 H455 H 0.51624 0.72500 0.32645
 C456 C 0.46853 0.71279 0.35568
 H457 H 0.45550 0.70950 0.36439
 C458 C 0.47692 0.69699 0.34447
 H459 H 0.47020 0.68166 0.34473
 N460 N 0.47724 0.73203 0.35630
 C461 C 0.44868 0.78913 0.36910
 H462 H 0.44709 0.78800 0.38520
 C463 C 0.44099 0.80559 0.35932
 H464 H 0.43405 0.81715 0.36847
 C465 C 0.46070 0.77553 0.33841
 H466 H 0.46803 0.76357 0.33021
 C467 C 0.45360 0.79195 0.32805
 H468 H 0.45537 0.79190 0.31188
 Zn469 Zn 0.46818 0.75308 0.37365
 N470 N 0.45838 0.77457 0.35863
 C471 C 0.49880 0.78226 0.39049
 N472 N 0.49127 0.76270 0.39113
 C473 C 0.50146 0.74915 0.40221
 C474 C 0.52026 0.75499 0.41292
 C475 C 0.51762 0.78866 0.40077
 C476 C 0.42823 0.73787 0.37757
 C477 C 0.41131 0.73059 0.38731
 C478 C 0.43200 0.73442 0.41923
 C479 C 0.44849 0.74181 0.40888
 N480 N 0.44639 0.74313 0.38837
 H481 H 0.49072 0.79269 0.38128
 H482 H 0.49537 0.73356 0.40205
 H483 H 0.52856 0.74385 0.42107
 H484 H 0.52370 0.80412 0.39964
 H485 H 0.42692 0.73940 0.36131
 H486 H 0.39695 0.72673 0.37840
 H487 H 0.43416 0.73299 0.43547
 H488 H 0.46294 0.74639 0.41725
 C489 C 0.44345 0.80742 0.33841
 C490 C 0.49449 0.70103 0.33392
 C491 C 0.41308 0.72862 0.40842
 C492 C 0.52876 0.77484 0.41182
 C493 C 0.36960 -0.01305 0.25661
 C494 C 0.35152 -0.01515 0.24048
 C495 C 0.34221 0.00244 0.23730
 C496 C 0.35174 0.02084 0.25080
 C497 C 0.38392 0.00395 0.24929
 C498 C 0.37471 0.02190 0.24641
 C499 C 0.36096 -0.00334 0.27558
 C500 C 0.35163 0.01427 0.27271
 H501 H 0.34777 -0.02899 0.23094
 H502 H 0.34357 0.03494 0.24872
 H503 H 0.39947 0.00172 0.24552
 H504 H 0.36226 -0.00997 0.29020
 C505 C 0.09626 1.03403 0.74278
 C506 C 0.10940 1.03940 0.72532
 C507 C 0.12222 1.02483 0.71974
 C508 C 0.12061 1.00575 0.73188
 C509 C 0.08496 1.01358 0.73520
 C510 C 0.09767 0.99870 0.72969
 C511 C 0.11173 1.02850 0.75980
 C512 C 0.12444 1.01375 0.75424
 H513 H 0.10878 1.05372 0.71813
 H514 H 0.13129 0.99402 0.72733
 H515 H 0.06846 1.01104 0.73363
 H516 H 0.11171 1.03495 0.77529
 C517 C 0.60120 0.53542 0.24791
 C518 C 0.61442 0.54184 0.23091
 C519 C 0.62759 0.52780 0.22480
 C520 C 0.62625 0.50815 0.23612
 C521 C 0.59034 0.51500 0.23951
 C522 C 0.60344 0.50064 0.23347
 C523 C 0.61661 0.52944 0.26479
 C524 C 0.62970 0.51527 0.25874
 H525 H 0.61342 0.55642 0.22427
 H526 H 0.63727 0.49687 0.23128
 H527 H 0.57392 0.51189 0.23841
 H528 H 0.61626 0.53510 0.28052
 C529 C 0.87462 0.47666 0.76439
 C530 C 0.85671 0.47356 0.74801
 C531 C 0.84683 0.49077 0.74420
 C532 C 0.85569 0.50969 0.75731
 C533 C 0.88842 0.49375 0.75660
 C534 C 0.87856 0.51108 0.75305
 C535 C 0.86534 0.48647 0.78293
 C536 C 0.85552 0.50372 0.77943
 H537 H 0.85377 0.45958 0.73852
 H538 H 0.84751 0.52366 0.75427
 H539 H 0.90428 0.49212 0.75339
 H540 H 0.86646 0.48009 0.79768
 C541 C 0.26054 0.38104 -0.02918
 C542 C 0.24324 0.36435 -0.03296
 C543 C 0.24039 0.35298 -0.01682
 C544 C 0.25508 0.35934 0.00196
 C545 C 0.25459 0.39342 -0.01016
 C546 C 0.25193 0.38221 0.00634
 C547 C 0.27941 0.37000 -0.02194
 C548 C 0.27678 0.35875 -0.00565
 H549 H 0.23278 0.36289 -0.04650
 H550 H 0.25297 0.34974 0.01493
 H551 H 0.25145 0.40936 -0.01025
 H552 H 0.29372 0.37109 -0.02928
 C553 C 0.75272 0.09142 1.03728
 C554 C 0.73666 0.10693 1.04152
 C555 C 0.73157 0.11827 1.02564
 C556 C 0.74288 0.11300 1.00655
 C557 C 0.74342 0.07864 1.01816
 C558 C 0.73843 0.08993 1.00200
 C559 C 0.77079 0.10381 1.02972
 C560 C 0.76584 0.11500 1.01364
 H561 H 0.72934 0.10828 1.05575
 H562 H 0.73857 0.12242 0.99374
 H563 H 0.74185 0.06224 1.01693
 H564 H 0.78638 0.10328 1.03635
 C565 C 0.25048 0.60073 0.53482
 C566 C 0.23205 0.61263 0.54088
 C567 C 0.22434 0.62436 0.52628
 C568 C 0.23551 0.62290 0.50656
 C569 C 0.24239 0.58844 0.51500
 C570 C 0.23484 0.60003 0.50006
 C571 C 0.26590 0.61681 0.52808
 C572 C 0.25823 0.62830 0.51321
 H573 H 0.22529 0.61150 0.55532
 H574 H 0.22928 0.63275 0.49485
 H575 H 0.24201 0.57203 0.51307
 H576 H 0.28199 0.61777 0.53345
 C577 C 0.75878 0.87263 0.47661
 C578 C 0.73837 0.86130 0.46911
 C579 C 0.73046 0.84872 0.48251
 C580 C 0.74351 0.84915 0.50291
 C581 C 0.75389 0.88408 0.49656
 C582 C 0.74602 0.87187 0.51050
 C583 C 0.77283 0.85604 0.48326
 C584 C 0.76503 0.84380 0.49702
 H585 H 0.73057 0.86355 0.45447
 H586 H 0.73724 0.83875 0.51381
 H587 H 0.75497 0.90046 0.49891
 H588 H 0.78826 0.85498 0.47838
 C589 C -0.01739 0.27311 0.38379
 C590 C -0.02172 0.25150 0.37382
 C591 C -0.00593 0.24425 0.36365
 C592 C 0.01302 0.25912 0.36447
 C593 C 0.00237 0.27127 0.39745
 C594 C 0.01828 0.26385 0.38744
 C595 C -0.01085 0.28603 0.36666
 C596 C 0.00497 0.27889 0.35644
 H597 H -0.03534 0.24205 0.37599
 H598 H 0.02578 0.25285 0.35624
 H599 H 0.00312 0.27383 0.41384
 H600 H -0.01771 0.30025 0.36362
 C601 C 1.04264 0.75499 0.11281
 C602 C 1.04848 0.73686 0.12515
 C603 C 1.03387 0.73060 0.13742
 C604 C 1.01449 0.74283 0.13626
 C605 C 1.02201 0.74773 0.10134
 C606 C 1.00711 0.74162 0.11354
 C607 C 1.03710 0.77131 0.12873
 C608 C 1.02232 0.76511 0.14089
 H609 H 1.06215 0.72853 0.12350
 H610 H 1.00288 0.73778 0.14664
 H611 H 1.01959 0.74742 0.08494
 H612 H 1.04334 0.78690 0.12927
 C613 C 0.54842 0.24920 0.61124
 C614 C 0.55423 0.23139 0.62400
 C615 C 0.53963 0.22538 0.63641
 C616 C 0.52014 0.23749 0.63476
 C617 C 0.52788 0.24161 0.59975
 C618 C 0.51291 0.23576 0.61198
 C619 C 0.54267 0.26583 0.62674
 C620 C 0.52780 0.25987 0.63890
 H621 H 0.56793 0.22307 0.62246
 H622 H 0.50845 0.23271 0.64517
 H623 H 0.52554 0.24098 0.58333
 H624 H 0.54866 0.28147 0.62681
 C625 C 0.47436 0.76626 0.89123
 C626 C 0.47031 0.74438 0.88193
 C627 C 0.48570 0.73736 0.87103
 C628 C 0.50404 0.75283 0.87051
 C629 C 0.49492 0.76546 0.90391
 C630 C 0.51053 0.75826 0.89322
 C631 C 0.47939 0.77893 0.87346
 C632 C 0.49485 0.77215 0.86251
 H633 H 0.45705 0.73473 0.88482
 H634 H 0.51633 0.74677 0.86151
 H635 H 0.49654 0.76917 0.92014
 H636 H 0.47207 0.79298 0.87075
 C637 C 0.42134 -0.14166 0.30856
 C638 C 0.43817 -0.15170 0.30157
 C639 C 0.44526 -0.16864 0.31111
 C640 C 0.43597 -0.17577 0.32825
 C641 C 0.41903 -0.16550 0.33509
 C642 C 0.41177 -0.14886 0.32530
 C643 C 0.41377 -0.12365 0.29868
 N644 N 0.39460 -0.11756 0.30160
 N645 N 0.38784 -0.10104 0.29331
 C646 C 0.39999 -0.08982 0.28182
 N647 N 0.41918 -0.09591 0.27883
 N648 N 0.42590 -0.11255 0.28703
 C649 C 0.39255 -0.07095 0.27351
 C650 C 0.40626 -0.05600 0.26695
 C651 C 0.39921 -0.03742 0.26089
 C652 C 0.37820 -0.03352 0.26103
 C653 C 0.36452 -0.04891 0.26694
 C654 C 0.37157 -0.06729 0.27312
 H655 H 0.44589 -0.14647 0.28869
 H656 H 0.45864 -0.17546 0.30548
 H657 H 0.41070 -0.17066 0.34759
 H658 H 0.39868 -0.14150 0.33102
 H659 H 0.42255 -0.05837 0.26715
 H660 H 0.41047 -0.02617 0.25674
 H661 H 0.34828 -0.04643 0.26732
 H662 H 0.36054 -0.07852 0.27793
 C663 C 0.93434 0.35340 0.82114
 C664 C 0.95534 0.35312 0.82738
 C665 C 0.96288 0.33676 0.83756
 C666 C 0.94960 0.32033 0.84175
 C667 C 0.92863 0.32056 0.83540
 C668 C 0.92110 0.33687 0.82519
 C669 C 0.92616 0.37098 0.81086
 N670 N 0.90596 0.37096 0.80441
 N671 N 0.89842 0.38696 0.79574
 C672 C 0.91074 0.40369 0.79313
 N673 N 0.93098 0.40367 0.79944
 N674 N 0.93853 0.38764 0.80811
 C675 C 0.90205 0.42183 0.78434
 C676 C 0.91442 0.43969 0.78287
 C677 C 0.90588 0.45721 0.77584
 C678 C 0.88479 0.45720 0.76969
 C679 C 0.87249 0.43926 0.77125
 C680 C 0.88102 0.42179 0.77827
 H681 H 0.96599 0.36555 0.82444
 H682 H 0.97916 0.33691 0.84200
 H683 H 0.91794 0.30829 0.83865
 H684 H 0.90482 0.33661 0.82070
 H685 H 0.93064 0.44036 0.78769
 H686 H 0.91578 0.47087 0.77602
 H687 H 0.85606 0.43886 0.76757
 H688 H 0.87095 0.40840 0.77940
 C689 C 0.02319 1.15028 0.80399
 C690 C 0.03401 1.16921 0.80831
 C691 C 0.02562 1.18470 0.81990
 C692 C 0.00617 1.18167 0.82742
 C693 C -0.00493 1.16295 0.82265
 C694 C 0.00348 1.14743 0.81105
 C695 C 0.03285 1.13343 0.79297
 N696 N 0.02285 1.11485 0.78916
 N697 N 0.03203 1.09949 0.78016
 C698 C 0.05161 1.10205 0.77463
 N699 N 0.06150 1.12068 0.77827
 N700 N 0.05233 1.13602 0.78724
 C701 C 0.06233 1.08480 0.76558
 C702 C 0.08326 1.08720 0.76215
 C703 C 0.09374 1.07081 0.75461
 C704 C 0.08362 1.05155 0.74993
 C705 C 0.06258 1.04917 0.75334
 C706 C 0.05208 1.06562 0.76102
 H707 H 0.04922 1.17198 0.80314
 H708 H 0.03470 1.19883 0.82353
 H709 H -0.02007 1.16026 0.82802
 H710 H -0.00533 1.13308 0.80792
 H711 H 0.09173 1.10169 0.76564
 H712 H 0.11001 1.07312 0.75266
 H713 H 0.05412 1.03466 0.75069
 H714 H 0.03599 1.06320 0.76365
 C715 C 0.52469 0.65176 0.30455
 C716 C 0.53615 0.66827 0.31503
 C717 C 0.52632 0.68425 0.32435
 C718 C 0.50476 0.68424 0.32335
 C719 C 0.49325 0.66783 0.31271
 C720 C 0.50311 0.65175 0.30342
 C721 C 0.53535 0.63461 0.29521
 N722 N 0.52468 0.61762 0.28664
 N723 N 0.53448 0.60211 0.27868
 C724 C 0.55534 0.60297 0.27896
 N725 N 0.56593 0.62000 0.28745
 N726 N 0.55617 0.63546 0.29540
 C727 C 0.56647 0.58570 0.27053
 C728 C 0.58799 0.58729 0.27052
 C729 C 0.59869 0.57103 0.26308
 C730 C 0.58832 0.55262 0.25539
 C731 C 0.56670 0.55108 0.25524
 C732 C 0.55593 0.56746 0.26272
 H733 H 0.55278 0.66876 0.31632
 H734 H 0.53567 0.69642 0.33275
 H735 H 0.47662 0.66747 0.31148
 H736 H 0.49382 0.63931 0.29540
 H737 H 0.59667 0.60109 0.27636
 H738 H 0.61531 0.57278 0.26341
 H739 H 0.55785 0.53743 0.24955
 H740 H 0.53934 0.56574 0.26250
 C741 C 0.55853 0.35704 0.18652
 C742 C 0.57016 0.34599 0.17298
 C743 C 0.56296 0.32677 0.16457
 C744 C 0.54396 0.31812 0.16947
 C745 C 0.53264 0.32884 0.18353
 C746 C 0.53984 0.34809 0.19196
 C747 C 0.56553 0.37804 0.19426
 N748 N 0.55437 0.38893 0.20723
 N749 N 0.56032 0.40805 0.21356
 C750 C 0.57767 0.41710 0.20715
 N751 N 0.58888 0.40616 0.19426
 N752 N 0.58294 0.38706 0.18795
 C753 C 0.58413 0.43851 0.21384
 C754 C 0.60155 0.44805 0.20635
 C755 C 0.60765 0.46822 0.21257
 C756 C 0.59650 0.47940 0.22641
 C757 C 0.57907 0.46985 0.23392
 C758 C 0.57295 0.44967 0.22768
 H759 H 0.58470 0.35230 0.16857
 H760 H 0.57219 0.31875 0.15404
 H761 H 0.51786 0.32267 0.18747
 H762 H 0.53051 0.35615 0.20237
 H763 H 0.61050 0.43997 0.19561
 H764 H 0.62102 0.47504 0.20632
 H765 H 0.57036 0.47779 0.24496
 H766 H 0.55951 0.44279 0.23384
 C767 C 0.04749 0.85548 0.68707
 C768 C 0.02956 0.84674 0.69443
 C769 C 0.02147 0.82753 0.68667
 C770 C 0.03109 0.81671 0.67133
 C771 C 0.04935 0.82516 0.66447
 C772 C 0.05745 0.84428 0.67225
 C773 C 0.05539 0.87640 0.69419
 N774 N 0.07245 0.88487 0.68666
 N775 N 0.07918 0.90390 0.69242
 C776 C 0.06913 0.91532 0.70595
 N777 N 0.05213 0.90682 0.71357
 N778 N 0.04540 0.88778 0.70780
 C779 C 0.07641 0.93667 0.71201
 C780 C 0.06593 0.94853 0.72591
 C781 C 0.07272 0.96867 0.73150
 C782 C 0.09015 0.97747 0.72332
 C783 C 0.10065 0.96561 0.70948
 C784 C 0.09386 0.94546 0.70386
 H785 H 0.02152 0.85491 0.70589
 H786 H 0.00731 0.82145 0.69215
 H787 H 0.05729 0.81702 0.65290
 H788 H 0.07137 0.85042 0.66633
 H789 H 0.05250 0.94225 0.73256
 H790 H 0.06451 0.97721 0.74255
 H791 H 0.11401 0.97190 0.70276
 H792 H 0.10229 0.93681 0.69307
 C793 C 0.94326 0.63275 0.69418
 C794 C 0.95191 0.63038 0.67534
 C795 C 0.96053 0.64715 0.66642
 C796 C 0.96091 0.66675 0.67616
 C797 C 0.95227 0.66916 0.69504
 C798 C 0.94350 0.65235 0.70393
 C799 C 0.93397 0.61483 0.70342
 N800 N 0.92276 0.61709 0.71992
 N801 N 0.91425 0.60091 0.72796
 C802 C 0.91666 0.58179 0.71988
 N803 N 0.92793 0.57955 0.70344
 N804 N 0.93637 0.59571 0.69537
 C805 C 0.90710 0.56372 0.72865
 C806 C 0.91194 0.54399 0.72193
 C807 C 0.90284 0.52691 0.72998
 C808 C 0.88859 0.52916 0.74483
 C809 C 0.88370 0.54882 0.75155
 C810 C 0.89293 0.56594 0.74362
 H811 H 0.95184 0.61556 0.66730
 H812 H 0.96658 0.64476 0.65166
 H813 H 0.95249 0.68401 0.70306
 H814 H 0.93704 0.65471 0.71851
 H815 H 0.92277 0.54170 0.71042
 H816 H 0.90667 0.51194 0.72428
 H817 H 0.87290 0.55098 0.76313
 H818 H 0.88884 0.58089 0.74913
 C819 C 0.44664 0.14267 0.19181
 C820 C 0.43504 0.15733 0.18239
 C821 C 0.44470 0.17315 0.17284
 C822 C 0.46621 0.17472 0.17244
 C823 C 0.47785 0.16028 0.18214
 C824 C 0.46818 0.14445 0.19173
 C825 C 0.43625 0.12538 0.20116
 N826 N 0.44726 0.11089 0.20993
 N827 N 0.43783 0.09507 0.21777
 C828 C 0.41698 0.09308 0.21715
 N829 N 0.40600 0.10764 0.20848
 N830 N 0.41542 0.12343 0.20066
 C831 C 0.40634 0.07520 0.22528
 C832 C 0.38480 0.07288 0.22356
 C833 C 0.37464 0.05582 0.23056
 C834 C 0.38568 0.04042 0.23942
 C835 C 0.40730 0.04305 0.24157
 C836 C 0.41748 0.06016 0.23452
 H837 H 0.41842 0.15644 0.18212
 H838 H 0.43527 0.18385 0.16527
 H839 H 0.49446 0.16123 0.18233
 H840 H 0.47761 0.13350 0.19891
 H841 H 0.37566 0.08419 0.21660
 H842 H 0.35809 0.05485 0.22859
 H843 H 0.41652 0.03205 0.24887
 H844 H 0.43411 0.06155 0.23631
 C845 C 0.31813 0.44581 -0.14723
 C846 C 0.31855 0.43388 -0.16559
 C847 C 0.33041 0.44035 -0.18100
 C848 C 0.34208 0.45894 -0.17851
 C849 C 0.34120 0.47121 -0.16046
 C850 C 0.32939 0.46468 -0.14494
 C851 C 0.30674 0.43805 -0.13036
 N852 N 0.30783 0.44834 -0.11181
 N853 N 0.29863 0.44061 -0.09636
 C854 C 0.28795 0.42227 -0.09883
 N855 N 0.28665 0.41215 -0.11745
 N856 N 0.29583 0.41987 -0.13287
 C857 C 0.27903 0.41280 -0.08137
 C858 C 0.26980 0.39300 -0.08387
 C859 C 0.26315 0.38317 -0.06720
 C860 C 0.26499 0.39300 -0.04756
 C861 C 0.27411 0.41292 -0.04512
 C862 C 0.28087 0.42275 -0.06184
 H863 H 0.31000 0.41932 -0.16796
 H864 H 0.33052 0.43075 -0.19490
 H865 H 0.35011 0.48558 -0.15811
 H866 H 0.32938 0.47426 -0.13102
 H867 H 0.26837 0.38473 -0.09862
 H868 H 0.25729 0.36750 -0.06969
 H869 H 0.27681 0.42070 -0.03020
 H870 H 0.28813 0.43792 -0.05932
 C871 C 0.82508 0.94278 0.36535
 C872 C 0.81832 0.93754 0.34493
 C873 C 0.82883 0.94537 0.32916
 C874 C 0.84644 0.95846 0.33344
 C875 C 0.85308 0.96393 0.35383
 C876 C 0.84244 0.95627 0.36963
 C877 C 0.81447 0.93363 0.38198
 N878 N 0.81837 0.94094 0.40165
 N879 N 0.80924 0.93218 0.41659
 C880 C 0.79595 0.91567 0.41247
 N881 N 0.79200 0.90846 0.39281
 N882 N 0.80102 0.91727 0.37789
 C883 C 0.78637 0.90527 0.42898
 C884 C 0.77758 0.88542 0.42520
 C885 C 0.76887 0.87524 0.44065
 C886 C 0.76810 0.88476 0.46024
 C887 C 0.77724 0.90458 0.46413
 C888 C 0.78626 0.91471 0.44864
 H889 H 0.80497 0.92725 0.34109
 H890 H 0.82348 0.94077 0.31358
 H891 H 0.86650 0.97417 0.35753
 H892 H 0.84806 0.96059 0.38519
 H893 H 0.77774 0.87752 0.41034
 H894 H 0.76274 0.85973 0.43727
 H895 H 0.77794 0.91225 0.47910
 H896 H 0.79315 0.92993 0.45208
 C897 C 0.81654 0.03077 1.16029
 C898 C 0.82375 0.04383 1.17714
 C899 C 0.83542 0.03662 1.19341
 C900 C 0.84036 0.01599 1.19344
 C901 C 0.83272 0.00290 1.17652
 C902 C 0.82101 0.01018 1.16025
 C903 C 0.80498 0.03882 1.14267
 N904 N 0.79855 0.02657 1.12588
 N905 N 0.78892 0.03413 1.10979
 C906 C 0.78532 0.05425 1.10982
 N907 N 0.79159 0.06641 1.12668
 N908 N 0.80119 0.05887 1.14274
 C909 C 0.77566 0.06307 1.09162
 C910 C 0.77421 0.08422 1.09133
 C911 C 0.76640 0.09286 1.07390
 C912 C 0.75952 0.08070 1.05623
 C913 C 0.76061 0.05943 1.05663
 C914 C 0.76858 0.05074 1.07415
 H915 H 0.82073 0.05985 1.17765
 H916 H 0.84132 0.04771 1.20539
 H917 H 0.83512 -0.01322 1.17587
 H918 H 0.81552 -0.00037 1.14760
 H919 H 0.77955 0.09424 1.10444
 H920 H 0.76609 0.10929 1.07408
 H921 H 0.75589 0.04934 1.04349
 H922 H 0.76952 0.03438 1.07386
 C923 C 0.32014 0.52948 0.64839
 C924 C 0.31725 0.53559 0.66873
 C925 C 0.32813 0.52696 0.68468
 C926 C 0.34224 0.51211 0.68068
 C927 C 0.34496 0.50579 0.66037
 C928 C 0.33397 0.51432 0.64439
 C929 C 0.30917 0.53928 0.63152
 N930 N 0.30996 0.53203 0.61189
 N931 N 0.30044 0.54118 0.59675
 C932 C 0.28981 0.55801 0.60061
 N933 N 0.28899 0.56520 0.62023
 N934 N 0.29844 0.55603 0.63536
 C935 C 0.27958 0.56851 0.58381
 C936 C 0.27174 0.58770 0.58762
 C937 C 0.26239 0.59784 0.57183
 C938 C 0.26003 0.58886 0.55184
 C939 C 0.26843 0.56985 0.54797
 C940 C 0.27794 0.55976 0.56378
 H941 H 0.30671 0.54720 0.67237
 H942 H 0.32589 0.53230 0.70016
 H943 H 0.35561 0.49423 0.65686
 H944 H 0.33655 0.50926 0.62891
 H945 H 0.27311 0.59511 0.60279
 H946 H 0.25715 0.61289 0.57529
 H947 H 0.26818 0.56284 0.53274
 H948 H 0.28412 0.54514 0.56026
 C949 C 0.19323 0.54846 0.35673
 C950 C 0.17838 0.55854 0.34533
 C951 C 0.17082 0.55061 0.32604
 C952 C 0.17791 0.53242 0.31762
 C953 C 0.19332 0.52270 0.32862
 C954 C 0.20088 0.53062 0.34802
 C955 C 0.20001 0.55619 0.37783
 N956 N 0.21392 0.54638 0.38933
 N957 N 0.21936 0.55303 0.40852
 C958 C 0.21109 0.56973 0.41702
 N959 N 0.19726 0.57957 0.40547
 N960 N 0.19184 0.57294 0.38632
 C961 C 0.21688 0.57709 0.43843
 C962 C 0.20771 0.59402 0.44717
 C963 C 0.21327 0.60121 0.46723
 C964 C 0.22812 0.59164 0.47911
 C965 C 0.23719 0.57459 0.47043
 C966 C 0.23162 0.56738 0.45034
 H967 H 0.17225 0.57239 0.35145
 H968 H 0.15919 0.55861 0.31776
 H969 H 0.19897 0.50859 0.32255
 H970 H 0.21238 0.52251 0.35634
 H971 H 0.19622 0.60184 0.43851
 H972 H 0.20582 0.61423 0.47334
 H973 H 0.24901 0.56707 0.47894
 H974 H 0.23904 0.55434 0.44409
 C975 C 0.69143 0.02911 0.86296
 C976 C 0.68471 0.00854 0.85975
 C977 C 0.67697 0.00051 0.84049
 C978 C 0.67545 0.01285 0.82370
 C979 C 0.68278 0.03345 0.82707
 C980 C 0.69065 0.04138 0.84633
 C981 C 0.69880 0.03784 0.88358
 N982 N 0.70797 0.05686 0.88627
 N983 N 0.71420 0.06488 0.90482
 C984 C 0.71145 0.05425 0.92151
 N985 N 0.70229 0.03521 0.91883
 N986 N 0.69612 0.02717 0.90026
 C987 C 0.71823 0.06331 0.94216
 C988 C 0.71252 0.05388 0.95962
 C989 C 0.71891 0.06254 0.97906
 C990 C 0.73123 0.08077 0.98147
 C991 C 0.73698 0.09013 0.96401
 C992 C 0.73050 0.08156 0.94461
 H993 H 0.68545 -0.00146 0.87217
 H994 H 0.67269 -0.01558 0.83895
 H995 H 0.68157 0.04404 0.81525
 H996 H 0.69560 0.05735 0.84826
 H997 H 0.70298 0.03987 0.95830
 H998 H 0.71400 0.05505 0.99219
 H999 H 0.74689 0.10389 0.96525
 H1000 H 0.73533 0.08916 0.93151
 C1001 C 0.69371 0.93212 0.63836
 C1002 C 0.67386 0.92562 0.64309
 C1003 C 0.66471 0.93499 0.65941
 C1004 C 0.67520 0.95100 0.67154
 C1005 C 0.69520 0.95731 0.66714
 C1006 C 0.70433 0.94804 0.65062
 C1007 C 0.70292 0.92247 0.62050
 N1008 N 0.72032 0.93069 0.61338
 N1009 N 0.72802 0.92231 0.59686
 C1010 C 0.71869 0.90531 0.58682
 N1011 N 0.70141 0.89704 0.59407
 N1012 N 0.69369 0.90544 0.61052
 C1013 C 0.72664 0.89630 0.56797
 C1014 C 0.71774 0.87785 0.55876
 C1015 C 0.72432 0.86978 0.54044
 C1016 C 0.73986 0.87997 0.53065
 C1017 C 0.74922 0.89815 0.54020
 C1018 C 0.74269 0.90621 0.55862
 H1019 H 0.66522 0.91341 0.63402
 H1020 H 0.64940 0.92961 0.66264
 H1021 H 0.70359 0.96966 0.67623
 H1022 H 0.71966 0.95337 0.64743
 H1023 H 0.70545 0.86968 0.56559
 H1024 H 0.71678 0.85577 0.53387
 H1025 H 0.76166 0.90620 0.53350
 H1026 H 0.75002 0.92036 0.56537
 C1027 C 0.20506 0.44362 0.13644
 C1028 C 0.19610 0.43122 0.15040
 C1029 C 0.18693 0.43985 0.16714
 C1030 C 0.18645 0.46108 0.17029
 C1031 C 0.19587 0.47351 0.15665
 C1032 C 0.20511 0.46488 0.13994
 C1033 C 0.21358 0.43443 0.11796
 N1034 N 0.22267 0.44629 0.10464
 N1035 N 0.22953 0.43807 0.08763
 C1036 C 0.22756 0.41763 0.08319
 N1037 N 0.21859 0.40577 0.09658
 N1038 N 0.21176 0.41399 0.11360
 C1039 C 0.23445 0.40851 0.06389
 C1040 C 0.23042 0.38769 0.05843
 C1041 C 0.23620 0.37917 0.03993
 C1042 C 0.24617 0.39122 0.02631
 C1043 C 0.25061 0.41201 0.03203
 C1044 C 0.24476 0.42055 0.05052
 H1045 H 0.19580 0.41479 0.14821
 H1046 H 0.17960 0.42987 0.17724
 H1047 H 0.19597 0.48993 0.15884
 H1048 H 0.21195 0.47491 0.12957
 H1049 H 0.22252 0.37793 0.06835
 H1050 H 0.23243 0.36317 0.03637
 H1051 H 0.25880 0.42177 0.02235
 H1052 H 0.24831 0.43661 0.05431
 C1053 C -0.13596 0.33786 0.44623
 C1054 C -0.15598 0.32892 0.44237
 C1055 C -0.17277 0.33843 0.44987
 C1056 C -0.16999 0.35714 0.46135
 C1057 C -0.14999 0.36604 0.46535
 C1058 C -0.13314 0.35647 0.45793
 C1059 C -0.11826 0.32795 0.43775
 N1060 N -0.09866 0.33537 0.44283
 N1061 N -0.08284 0.32660 0.43489
 C1062 C -0.08596 0.31006 0.42148
 N1063 N -0.10555 0.30263 0.41647
 N1064 N -0.12135 0.31136 0.42444
 C1065 C -0.06848 0.30047 0.41226
 C1066 C -0.07208 0.28546 0.39620
 C1067 C -0.05572 0.27661 0.38718
 C1068 C -0.03524 0.28204 0.39435
 C1069 C -0.03167 0.29750 0.41007
 C1070 C -0.04807 0.30649 0.41902
 H1071 H -0.15873 0.31460 0.43343
 H1072 H -0.18802 0.33133 0.44631
 H1073 H -0.14736 0.38037 0.47433
 H1074 H -0.11794 0.36378 0.46120
 H1075 H -0.08759 0.28078 0.39028
 H1076 H -0.05925 0.26576 0.37429
 H1077 H -0.01618 0.30294 0.41531
 H1078 H -0.04474 0.31824 0.43116
 C1079 C 0.35635 0.83463 0.95030
 C1080 C 0.33617 0.82628 0.94592
 C1081 C 0.31941 0.83680 0.95208
 C1082 C 0.32241 0.85594 0.96273
 C1083 C 0.34257 0.86426 0.96727
 C1084 C 0.35937 0.85369 0.96117
 C1085 C 0.37402 0.82369 0.94310
 N1086 N 0.39367 0.83099 0.94812
 N1087 N 0.40947 0.82140 0.94109
 C1088 C 0.40626 0.80412 0.92872
 N1089 N 0.38662 0.79677 0.92382
 N1090 N 0.37086 0.80633 0.93087
 C1091 C 0.42368 0.79384 0.92012
 C1092 C 0.41994 0.77801 0.90490
 C1093 C 0.43620 0.76890 0.89595
 C1094 C 0.45675 0.77490 0.90239
 C1095 C 0.46045 0.79100 0.91745
 C1096 C 0.44413 0.80024 0.92632
 H1097 H 0.33324 0.81165 0.93756
 H1098 H 0.30405 0.83011 0.94812
 H1099 H 0.34535 0.87889 0.97566
 H1100 H 0.37470 0.86056 0.96482
 H1101 H 0.40439 0.77297 0.89942
 H1102 H 0.43250 0.75755 0.88354
 H1103 H 0.47595 0.79688 0.92206
 H1104 H 0.44756 0.81262 0.93779
 C1105 C 1.14794 0.82396 0.03284
 C1106 C 1.16840 0.81822 0.03406
 C1107 C 1.18370 0.82973 0.02544
 C1108 C 1.17891 0.84726 0.01541
 C1109 C 1.15838 0.85275 0.01377
 C1110 C 1.14306 0.84123 0.02238
 C1111 C 1.13197 0.81243 0.04305
 N1112 N 1.11211 0.81772 0.04177
 N1113 N 1.09797 0.80788 0.05167
 C1114 C 1.10309 0.79234 0.06329
 N1115 N 1.12290 0.78695 0.06442
 N1116 N 1.13703 0.79677 0.05451
 C1117 C 1.08761 0.78199 0.07510
 C1118 C 1.09352 0.76746 0.08872
 C1119 C 1.07924 0.75843 0.10069
 C1120 C 1.05849 0.76342 0.09911
 C1121 C 1.05266 0.77801 0.08542
 C1122 C 1.06697 0.78710 0.07351
 H1123 H 1.17270 0.80494 0.04187
 H1124 H 1.19931 0.82492 0.02666
 H1125 H 1.15424 0.86629 0.00632
 H1126 H 1.12747 0.84611 0.02117
 H1127 H 1.10935 0.76336 0.09054
 H1128 H 1.08493 0.74808 0.11150
 H1129 H 1.03698 0.78265 0.08417
 H1130 H 1.06189 0.79835 0.06328
 C1131 C 0.65541 0.31804 0.53320
 C1132 C 0.67599 0.31272 0.53507
 C1133 C 0.69135 0.32438 0.52670
 C1134 C 0.68652 0.34168 0.51630
 C1135 C 0.66588 0.34677 0.51407
 C1136 C 0.65050 0.33507 0.52238
 C1137 C 0.63930 0.30636 0.54309
 N1138 N 0.61925 0.31087 0.54062
 N1139 N 0.60493 0.30095 0.55023
 C1140 C 0.61004 0.28613 0.56275
 N1141 N 0.63006 0.28150 0.56508
 N1142 N 0.64437 0.29139 0.55545
 C1143 C 0.59430 0.27578 0.57426
 C1144 C 0.60013 0.26252 0.58921
 C1145 C 0.58553 0.25361 0.60091
 C1146 C 0.56454 0.25735 0.59768
 C1147 C 0.55880 0.27074 0.58274
 C1148 C 0.57343 0.27973 0.57111
 H1149 H 0.68031 0.29962 0.54318
 H1150 H 0.70705 0.31986 0.52840
 H1151 H 0.66166 0.36016 0.50639
 H1152 H 0.63483 0.33966 0.52069
 H1153 H 0.61613 0.25941 0.59232
 H1154 H 0.59108 0.24442 0.61288
 H1155 H 0.54294 0.27460 0.58031
 H1156 H 0.56840 0.29003 0.55986
 C1157 C 0.36650 0.19916 0.56284
 C1158 C 0.35821 0.20511 0.54402
 C1159 C 0.33856 0.19774 0.53624
 C1160 C 0.32685 0.18424 0.54709
 C1161 C 0.33481 0.17897 0.56625
 C1162 C 0.35438 0.18633 0.57404
 C1163 C 0.38794 0.20548 0.57042
 N1164 N 0.39619 0.19863 0.58799
 N1165 N 0.41569 0.20352 0.59444
 C1166 C 0.42782 0.21545 0.58357
 N1167 N 0.41954 0.22243 0.56605
 N1168 N 0.40002 0.21752 0.55959
 C1169 C 0.44965 0.22050 0.59062
 C1170 C 0.46208 0.23348 0.57989
 C1171 C 0.48264 0.23822 0.58664
 C1172 C 0.49131 0.23004 0.60426
 C1173 C 0.47886 0.21702 0.61490
 C1174 C 0.45832 0.21230 0.60818
 H1175 H 0.36708 0.21502 0.53502
 H1176 H 0.33288 0.20195 0.52137
 H1177 H 0.32599 0.16885 0.57511
 H1178 H 0.36015 0.18159 0.58867
 H1179 H 0.45591 0.24014 0.56634
 H1180 H 0.49154 0.24870 0.57827
 H1181 H 0.48489 0.21030 0.62841
 H1182 H 0.44925 0.20218 0.61681
 C1183 C 0.86199 0.70140 0.06268
 C1184 C 0.85362 0.70760 0.04400
 C1185 C 0.83434 0.69962 0.03578
 C1186 C 0.82311 0.68523 0.04604
 C1187 C 0.83112 0.67964 0.06506
 C1188 C 0.85031 0.68764 0.07330
 C1189 C 0.88311 0.70844 0.07068
 N1190 N 0.89144 0.70155 0.08820
 N1191 N 0.91071 0.70706 0.09497
 C1192 C 0.92253 0.71968 0.08451
 N1193 N 0.91417 0.72671 0.06705
 N1194 N 0.89487 0.72119 0.06026
 C1195 C 0.94417 0.72533 0.09185
 C1196 C 0.95633 0.73879 0.08137
 C1197 C 0.97676 0.74395 0.08829
 C1198 C 0.98557 0.73572 0.10581
 C1199 C 0.97335 0.72230 0.11626
 C1200 C 0.95294 0.71716 0.10937
 H1201 H 0.86216 0.71823 0.03545
 H1202 H 0.82860 0.70410 0.02104
 H1203 H 0.82264 0.66882 0.07347
 H1204 H 0.85616 0.68266 0.08780
 H1205 H 0.95006 0.74546 0.06787
 H1206 H 0.98548 0.75473 0.08008
 H1207 H 0.97949 0.71553 0.12970
 H1208 H 0.94407 0.70669 0.11780
 C1209 C 0.64224 0.71085 0.95481
 C1210 C 0.65692 0.70334 0.94209
 C1211 C 0.67378 0.69345 0.95018
 C1212 C 0.67637 0.69092 0.97117
 C1213 C 0.66205 0.69903 0.98394
 C1214 C 0.64517 0.70882 0.97586
 C1215 C 0.62356 0.71996 0.94614
 N1216 N 0.60790 0.72420 0.95795
 N1217 N 0.59067 0.73145 0.95001
 C1218 C 0.58837 0.73482 0.92992
 N1219 N 0.60411 0.73078 0.91813
 N1220 N 0.62133 0.72348 0.92606
 C1221 C 0.56881 0.74196 0.92091
 C1222 C 0.56710 0.74742 0.90066
 C1223 C 0.54836 0.75313 0.89187
 C1224 C 0.53081 0.75350 0.90304
 C1225 C 0.53264 0.74828 0.92342
 C1226 C 0.55141 0.74268 0.93226
 H1227 H 0.65513 0.70461 0.92580
 H1228 H 0.68439 0.68720 0.93989
 H1229 H 0.66381 0.69768 1.00022
 H1230 H 0.63429 0.71459 0.98613
 H1231 H 0.58022 0.74714 0.89150
 H1232 H 0.54777 0.75718 0.87628
 H1233 H 0.51948 0.74782 0.93249
 H1234 H 0.55211 0.73843 0.94786
 C1235 C 0.14282 0.20759 0.45445
 C1236 C 0.16284 0.21621 0.45347
 C1237 C 0.17977 0.20701 0.46242
 C1238 C 0.17706 0.18889 0.47237
 C1239 C 0.15701 0.18022 0.47309
 C1240 C 0.14013 0.18951 0.46440
 C1241 C 0.12474 0.21716 0.44514
 N1242 N 0.10553 0.21173 0.45025
 N1243 N 0.08914 0.21995 0.44170
 C1244 C 0.09123 0.23389 0.42757
 N1245 N 0.11046 0.23938 0.42246
 N1246 N 0.12688 0.23123 0.43111
 C1247 C 0.07283 0.24250 0.41773
 C1248 C 0.07402 0.25268 0.39971
 C1249 C 0.05634 0.25983 0.38998
 C1250 C 0.03721 0.25726 0.39822
 C1251 C 0.03609 0.24740 0.41641
 C1252 C 0.05367 0.24005 0.42601
 H1253 H 0.16541 0.23018 0.44599
 H1254 H 0.19495 0.21424 0.46175
 H1255 H 0.15430 0.16600 0.48011
 H1256 H 0.12495 0.18232 0.46522
 H1257 H 0.08854 0.25477 0.39290
 H1258 H 0.05768 0.26739 0.37604
 H1259 H 0.02150 0.24482 0.42295
 H1260 H 0.05218 0.23229 0.43987
 C1261 C 0.57312 0.10053 0.70595
 C1262 C 0.59173 0.10028 0.71796
 C1263 C 0.59919 0.08195 0.72394
 C1264 C 0.58827 0.06337 0.71809
 C1265 C 0.56930 0.06360 0.70669
 C1266 C 0.56181 0.08200 0.70066
 C1267 C 0.56626 0.11993 0.69824
 N1268 N 0.54827 0.12063 0.68671
 N1269 N 0.54289 0.13787 0.67878
 C1270 C 0.55530 0.15513 0.68201
 N1271 N 0.57313 0.15447 0.69374
 N1272 N 0.57847 0.13727 0.70169
 C1273 C 0.55031 0.17394 0.67191
 C1274 C 0.56532 0.19001 0.67183
 C1275 C 0.56153 0.20694 0.66076
 C1276 C 0.54259 0.20836 0.64970
 C1277 C 0.52722 0.19280 0.65043
 C1278 C 0.53108 0.17566 0.66134
 H1279 H 0.60078 0.11425 0.72249
 H1280 H 0.61365 0.08232 0.73307
 H1281 H 0.56058 0.04951 0.70188
 H1282 H 0.54741 0.08162 0.69144
 H1283 H 0.58028 0.18926 0.67980
 H1284 H 0.57357 0.21885 0.66057
 H1285 H 0.51259 0.19345 0.64187
 H1286 H 0.51917 0.16359 0.66114
 C1287 C 1.06887 0.60416 0.20290
 C1288 C 1.08507 0.60466 0.21810
 C1289 C 1.09381 0.58675 0.22359
 C1290 C 1.08663 0.56786 0.21401
 C1291 C 1.06982 0.56718 0.19945
 C1292 C 1.06103 0.58517 0.19393
 C1293 C 1.06124 0.62347 0.19569
 N1294 N 1.04486 0.62352 0.18183
 N1295 N 1.03907 0.64087 0.17439
 C1296 C 1.04947 0.65885 0.18046
 N1297 N 1.06565 0.65879 0.19451
 N1298 N 1.07137 0.64150 0.20198
 C1299 C 1.04434 0.67792 0.17097
 C1300 C 1.05861 0.69476 0.17286
 C1301 C 1.05487 0.71209 0.16237
 C1302 C 1.03663 0.71310 0.15006
 C1303 C 1.02194 0.69672 0.14877
 C1304 C 1.02581 0.67918 0.15903
 H1305 H 1.09135 0.61895 0.22552
 H1306 H 1.10644 0.58772 0.23520
 H1307 H 1.06400 0.55284 0.19178
 H1308 H 1.04854 0.58424 0.18218
 H1309 H 1.07304 0.69432 0.18189
 H1310 H 1.06639 0.72461 0.16359
 H1311 H 1.00793 0.69708 0.13911
 H1312 H 1.01449 0.66649 0.15729
 C1313 C 0.95656 0.87634 0.21644
 C1314 C 0.96738 0.88966 0.23137
 C1315 C 0.95829 0.90686 0.23939
 C1316 C 0.93822 0.91121 0.23254
 C1317 C 0.92744 0.89786 0.21760
 C1318 C 0.93644 0.88060 0.20973
 C1319 C 0.96628 0.85838 0.20750
 N1320 N 0.95489 0.84389 0.19550
 N1321 N 0.96370 0.82815 0.18678
 C1322 C 0.98428 0.82623 0.18964
 N1323 N 0.99565 0.84063 0.20178
 N1324 N 0.98683 0.85635 0.21056
 C1325 C 0.99421 0.80944 0.17882
 C1326 C 1.01570 0.80986 0.17816
 C1327 C 1.02492 0.79508 0.16635
 C1328 C 1.01287 0.77945 0.15512
 C1329 C 0.99149 0.77849 0.15645
 C1330 C 0.98224 0.79338 0.16811
 H1331 H 0.98287 0.88676 0.23694
 H1332 H 0.96693 0.91663 0.25109
 H1333 H 0.91212 0.90092 0.21166
 H1334 H 0.92773 0.87079 0.19811
 H1335 H 1.02539 0.82197 0.18626
 H1336 H 1.04146 0.79603 0.16575
 H1337 H 0.98180 0.76675 0.14778
 H1338 H 0.96566 0.79254 0.16836
 C1339 C 0.45925 0.37413 0.70623
 C1340 C 0.46804 0.38611 0.72327
 C1341 C 0.45853 0.40338 0.73049
 C1342 C 0.44013 0.40920 0.72070
 C1343 C 0.43153 0.39730 0.70350
 C1344 C 0.44089 0.37992 0.69644
 C1345 C 0.46923 0.35582 0.69847
 N1346 N 0.45861 0.34172 0.68537
 N1347 N 0.46768 0.32556 0.67787
 C1348 C 0.48778 0.32283 0.68308
 N1349 N 0.49838 0.33687 0.69627
 N1350 N 0.48927 0.35299 0.70388
 C1351 C 0.49814 0.30555 0.67363
 C1352 C 0.51971 0.30576 0.67417
 C1353 C 0.52942 0.29052 0.66345
 C1354 C 0.51778 0.27462 0.65222
 C1355 C 0.49628 0.27385 0.65245
 C1356 C 0.48655 0.28922 0.66295
 H1357 H 0.48215 0.38199 0.73119
 H1358 H 0.46544 0.41198 0.74396
 H1359 H 0.41764 0.40153 0.69527
 H1360 H 0.43385 0.37117 0.68312
 H1361 H 0.52909 0.31810 0.68227
 H1362 H 0.54603 0.29135 0.66362
 H1363 H 0.48692 0.26188 0.64374
 H1364 H 0.46991 0.28855 0.66232
 C1365 C 0.46464 0.59586 0.80889
 C1366 C 0.45703 0.58035 0.82053
 C1367 C 0.44882 0.56186 0.81113
 C1368 C 0.44803 0.55842 0.78988
 C1369 C 0.45647 0.57355 0.77831
 C1370 C 0.46470 0.59206 0.78771
 C1371 C 0.47114 0.61626 0.81867
 N1372 N 0.47788 0.63159 0.80752
 N1373 N 0.48215 0.65030 0.81610
 C1374 C 0.47981 0.65448 0.83619
 N1375 N 0.47337 0.63907 0.84738
 N1376 N 0.46913 0.62038 0.83881
 C1377 C 0.48289 0.67556 0.84551
 C1378 C 0.47696 0.68010 0.86528
 C1379 C 0.47820 0.70011 0.87362
 C1380 C 0.48552 0.71608 0.86247
 C1381 C 0.49221 0.71159 0.84304
 C1382 C 0.49079 0.69151 0.83457
 H1383 H 0.45679 0.58270 0.83688
 H1384 H 0.44226 0.55062 0.82046
 H1385 H 0.45635 0.57122 0.76192
 H1386 H 0.47057 0.60358 0.77828
 H1387 H 0.47091 0.66824 0.87422
 H1388 H 0.47336 0.70311 0.88882
 H1389 H 0.49793 0.72367 0.83417
 H1390 H 0.49558 0.68853 0.81934
 C1391 C -0.03052 0.10227 0.30490
 C1392 C -0.03063 0.08584 0.31750
 C1393 C -0.03996 0.06696 0.31048
 C1394 C -0.04950 0.06404 0.29071
 C1395 C -0.04849 0.08015 0.27773
 C1396 C -0.03905 0.09906 0.28475
 C1397 C -0.02304 0.12290 0.31332
 N1398 N -0.02089 0.13860 0.30108
 N1399 N -0.01587 0.15745 0.30898
 C1400 C -0.01293 0.16137 0.32945
 N1401 N -0.01478 0.14562 0.34164
 N1402 N -0.01968 0.12680 0.33374
 C1403 C -0.00943 0.18249 0.33847
 C1404 C -0.01386 0.18704 0.35873
 C1405 C -0.01243 0.20710 0.36692
 C1406 C -0.00621 0.22301 0.35517
 C1407 C -0.00088 0.21852 0.33524
 C1408 C -0.00272 0.19841 0.32685
 H1409 H -0.02396 0.08769 0.33302
 H1410 H -0.04007 0.05473 0.32070
 H1411 H -0.05582 0.07845 0.26246
 H1412 H -0.03923 0.11139 0.27464
 H1413 H -0.01907 0.17517 0.36811
 H1414 H -0.01631 0.21023 0.38246
 H1415 H 0.00402 0.23063 0.32599
 H1416 H 0.00090 0.19534 0.31123
 C1417 C 0.07010 0.37889 0.27134
 C1418 C 0.09143 0.38304 0.27474
 C1419 C 0.10068 0.40086 0.26835
 C1420 C 0.08889 0.41490 0.25827
 C1421 C 0.06774 0.41038 0.25396
 C1422 C 0.05840 0.39257 0.26053
 C1423 C 0.06010 0.36114 0.28025
 N1424 N 0.03929 0.35859 0.27978
 N1425 N 0.03039 0.34367 0.28940
 C1426 C 0.04190 0.33065 0.29986
 N1427 N 0.06269 0.33297 0.29999
 N1428 N 0.07158 0.34788 0.29041
 C1429 C 0.03211 0.31540 0.31231
 C1430 C 0.04418 0.30267 0.32393
 C1431 C 0.03523 0.29012 0.33760
 C1432 C 0.01406 0.29009 0.34006
 C1433 C 0.00183 0.30193 0.32758
 C1434 C 0.01074 0.31444 0.31388
 H1435 H 0.10096 0.37283 0.28291
 H1436 H 0.11709 0.40382 0.27156
 H1437 H 0.05831 0.42098 0.24624
 H1438 H 0.04195 0.38981 0.25757
 H1439 H 0.06067 0.30288 0.32300
 H1440 H 0.04511 0.28119 0.34684
 H1441 H -0.01464 0.30184 0.32865
 H1442 H 0.00092 0.32384 0.30500
 C1443 C 0.55531 0.87564 0.77804
 C1444 C 0.54451 0.89324 0.77495
 C1445 C 0.55427 0.91045 0.76766
 C1446 C 0.57497 0.91034 0.76313
 C1447 C 0.58560 0.89258 0.76576
 C1448 C 0.57591 0.87546 0.77315
 C1449 C 0.54556 0.85793 0.78723
 N1450 N 0.55699 0.84252 0.79345
 N1451 N 0.54858 0.82723 0.80290
 C1452 C 0.52833 0.82665 0.80646
 N1453 N 0.51682 0.84190 0.79996
 N1454 N 0.52525 0.85723 0.79057
 C1455 C 0.51937 0.81065 0.81857
 C1456 C 0.49815 0.80918 0.82094
 C1457 C 0.49004 0.79584 0.83436
 C1458 C 0.50298 0.78379 0.84591
 C1459 C 0.52399 0.78435 0.84258
 C1460 C 0.53210 0.79761 0.82905
 H1461 H 0.52863 0.89391 0.77856
 H1462 H 0.54565 0.92386 0.76561
 H1463 H 0.60164 0.89211 0.76268
 H1464 H 0.58470 0.86218 0.77532
 H1465 H 0.48783 0.81873 0.81284
 H1466 H 0.47366 0.79536 0.83603
 H1467 H 0.53442 0.77537 0.85110
 H1468 H 0.54852 0.79825 0.82751
 C1469 C 0.70446 0.57287 0.10972
 C1470 C 0.71474 0.59214 0.11194
 C1471 C 0.72132 0.60169 0.09511
 C1472 C 0.71794 0.59237 0.07514
 C1473 C 0.70839 0.57243 0.07324
 C1474 C 0.70165 0.56297 0.09023
 C1475 C 0.69599 0.56384 0.12765
 N1476 N 0.68464 0.54585 0.12581
 N1477 N 0.67587 0.53869 0.14180
 C1478 C 0.67809 0.54923 0.16025
 N1479 N 0.68971 0.56700 0.16209
 N1480 N 0.69847 0.57412 0.14617
 C1481 C 0.66686 0.54251 0.17765
 C1482 C 0.66582 0.55589 0.19493
 C1483 C 0.65355 0.55073 0.21050
 C1484 C 0.64223 0.53198 0.20931
 C1485 C 0.64397 0.51812 0.19262
 C1486 C 0.65608 0.52339 0.17681
 H1487 H 0.71760 0.60011 0.12678
 H1488 H 0.72983 0.61615 0.09828
 H1489 H 0.70472 0.56434 0.05862
 H1490 H 0.69376 0.54807 0.08797
 H1491 H 0.67393 0.57071 0.19618
 H1492 H 0.65259 0.56158 0.22336
 H1493 H 0.63525 0.50365 0.19133
 H1494 H 0.65662 0.51272 0.16376
 C1495 C 0.20373 1.06643 0.60665
 C1496 C 0.19608 1.06101 0.58650
 C1497 C 0.20359 1.07123 0.57032
 C1498 C 0.21890 1.08707 0.57398
 C1499 C 0.22717 1.09182 0.59402
 C1500 C 0.21967 1.08166 0.61014
 C1501 C 0.19431 1.05741 0.62408
 N1502 N 0.19904 1.06564 0.64329
 N1503 N 0.18946 1.05881 0.65888
 C1504 C 0.17477 1.04338 0.65598
 N1505 N 0.17028 1.03483 0.63683
 N1506 N 0.17982 1.04174 0.62118
 C1507 C 0.16280 1.03729 0.67311
 C1508 C 0.15038 1.01909 0.67170
 C1509 C 0.13778 1.01448 0.68733
 C1510 C 0.13715 1.02817 0.70436
 C1511 C 0.14996 1.04600 0.70605
 C1512 C 0.16278 1.05044 0.69069
 H1513 H 0.18380 1.04935 0.58326
 H1514 H 0.19686 1.06728 0.55505
 H1515 H 0.23931 1.10363 0.59729
 H1516 H 0.22611 1.08608 0.62542
 H1517 H 0.15012 1.00863 0.65837
 H1518 H 0.12789 1.00071 0.68571
 H1519 H 0.14976 1.05670 0.71916
 H1520 H 0.17211 1.06459 0.69229
 C1521 C 0.20270 0.95532 0.86910
 C1522 C 0.21249 0.96806 0.88502
 C1523 C 0.22008 0.96010 0.90300
 C1524 C 0.21817 0.93893 0.90585
 C1525 C 0.20856 0.92627 0.88934
 C1526 C 0.20101 0.93434 0.87141
 C1527 C 0.19367 0.96394 0.85048
 N1528 N 0.18423 0.95162 0.83498
 N1529 N 0.17521 0.95942 0.81873
 C1530 C 0.17525 0.97989 0.81727
 N1531 N 0.18489 0.99219 0.83267
 N1532 N 0.19392 0.98439 0.84891
 C1533 C 0.16394 0.98866 0.79993
 C1534 C 0.16207 1.00980 0.79980
 C1535 C 0.14978 1.01799 0.78457
 C1536 C 0.13917 1.00526 0.76905
 C1537 C 0.14173 0.98424 0.76859
 C1538 C 0.15395 0.97599 0.78392
 H1539 H 0.21434 0.98433 0.88365
 H1540 H 0.22817 0.97084 0.91413
 H1541 H 0.20551 0.91013 0.89028
 H1542 H 0.19337 0.92405 0.85950
 H1543 H 0.16965 1.02004 0.81178
 H1544 H 0.14832 1.03430 0.78510
 H1545 H 0.13359 0.97406 0.75689
 H1546 H 0.15511 0.95965 0.78351
 C1547 C 0.70628 0.45418 0.37284
 C1548 C 0.71961 0.46602 0.38707
 C1549 C 0.72737 0.45784 0.40488
 C1550 C 0.72190 0.43766 0.40894
 C1551 C 0.70865 0.42581 0.39464
 C1552 C 0.70099 0.43394 0.37679
 C1553 C 0.69743 0.46305 0.35431
 N1554 N 0.68634 0.45115 0.33949
 N1555 N 0.67761 0.45926 0.32328
 C1556 C 0.67956 0.47963 0.32120
 N1557 N 0.69082 0.49149 0.33592
 N1558 N 0.69961 0.48337 0.35210
 C1559 C 0.66858 0.48886 0.30397
 C1560 C 0.66703 0.51007 0.30423
 C1561 C 0.65495 0.51869 0.28912
 C1562 C 0.64432 0.50635 0.27332
 C1563 C 0.64661 0.48528 0.27244
 C1564 C 0.65855 0.47659 0.28770
 H1565 H 0.72408 0.48163 0.38446
 H1566 H 0.73780 0.46728 0.41540
 H1567 H 0.70384 0.41033 0.39742
 H1568 H 0.69063 0.42444 0.36625
 H1569 H 0.67460 0.51999 0.31647
 H1570 H 0.65361 0.53503 0.28999
 H1571 H 0.63845 0.47542 0.26049
 H1572 H 0.65950 0.46022 0.28698
 C1573 C 0.77831 0.47041 0.60662
 C1574 C 0.76100 0.45696 0.60181
 C1575 C 0.75638 0.44880 0.58189
 C1576 C 0.76907 0.45376 0.56637
 C1577 C 0.78588 0.46783 0.57097
 C1578 C 0.79038 0.47617 0.59087
 C1579 C 0.78470 0.47699 0.62810
 N1580 N 0.79995 0.49168 0.63279
 N1581 N 0.80707 0.49614 0.65203
 C1582 C 0.79932 0.48605 0.66739
 N1583 N 0.78382 0.47163 0.66273
 N1584 N 0.77663 0.46723 0.64351
 C1585 C 0.80901 0.48914 0.68839
 C1586 C 0.80573 0.47443 0.70255
 C1587 C 0.81731 0.47554 0.72122
 C1588 C 0.83216 0.49153 0.72624
 C1589 C 0.83447 0.50700 0.71275
 C1590 C 0.82310 0.50575 0.69393
 H1591 H 0.75133 0.45227 0.61356
 H1592 H 0.74343 0.43786 0.57882
 H1593 H 0.79579 0.47205 0.55925
 H1594 H 0.80381 0.48650 0.59402
 H1595 H 0.79498 0.46147 0.69882
 H1596 H 0.81519 0.46350 0.73146
 H1597 H 0.84594 0.51941 0.71621
 H1598 H 0.82589 0.51739 0.68341
 C1599 C 0.27330 -0.02131 0.10079
 C1600 C 0.25547 -0.03414 0.09649
 C1601 C 0.25079 -0.04334 0.07696
 C1602 C 0.26394 -0.04005 0.06138
 C1603 C 0.28132 -0.02659 0.06544
 C1604 C 0.28589 -0.01722 0.08490
 C1605 C 0.27968 -0.01366 0.12198
 N1606 N 0.29566 0.00035 0.12598
 N1607 N 0.30278 0.00566 0.14506
 C1608 C 0.29429 -0.00286 0.16096
 N1609 N 0.27804 -0.01656 0.15698
 N1610 N 0.27085 -0.02181 0.13790
 C1611 C 0.30402 0.00100 0.18189
 C1612 C 0.29901 -0.01183 0.19730
 C1613 C 0.31070 -0.01052 0.21594
 C1614 C 0.32737 0.00383 0.21962
 C1615 C 0.33154 0.01749 0.20480
 C1616 C 0.32000 0.01611 0.18610
 H1617 H 0.24541 -0.03755 0.10835
 H1618 H 0.23738 -0.05377 0.07430
 H1619 H 0.29159 -0.02365 0.05363
 H1620 H 0.29973 -0.00740 0.08767
 H1621 H 0.28681 -0.02364 0.19459
 H1622 H 0.30731 -0.02129 0.22716
 H1623 H 0.34466 0.02824 0.20702
 H1624 H 0.32426 0.02624 0.17460
 C1625 C 0.29044 0.07663 0.39435
 C1626 C 0.30117 0.07549 0.41342
 C1627 C 0.29359 0.08405 0.43102
 C1628 C 0.27508 0.09399 0.43007
 C1629 C 0.26394 0.09460 0.41115
 C1630 C 0.27157 0.08602 0.39343
 C1631 C 0.29934 0.06842 0.37567
 N1632 N 0.28927 0.06890 0.35699
 N1633 N 0.29763 0.06164 0.34034
 C1634 C 0.31644 0.05369 0.34170
 N1635 N 0.32644 0.05326 0.36036
 N1636 N 0.31811 0.06047 0.37695
 C1637 C 0.32584 0.04508 0.32346
 C1638 C 0.34528 0.03694 0.32563
 C1639 C 0.35381 0.02756 0.30898
 C1640 C 0.34318 0.02606 0.28969
 C1641 C 0.32415 0.03491 0.28719
 C1642 C 0.31549 0.04429 0.30397
 H1643 H 0.31563 0.06820 0.41479
 H1644 H 0.30233 0.08303 0.44544
 H1645 H 0.24969 0.10228 0.40996
 H1646 H 0.26288 0.08710 0.37900
 H1647 H 0.35385 0.03747 0.34030
 H1648 H 0.36872 0.02125 0.31126
 H1649 H 0.31565 0.03390 0.27246
 H1650 H 0.30054 0.05051 0.30176
 C1651 C 0.79036 0.57014 0.89677
 C1652 C 0.77117 0.57890 0.89494
 C1653 C 0.76310 0.58841 0.91197
 C1654 C 0.77412 0.58942 0.93109
 C1655 C 0.79294 0.58011 0.93299
 C1656 C 0.80095 0.57059 0.91608
 C1657 C 0.79974 0.56100 0.87876
 N1658 N 0.81853 0.55320 0.88095
 N1659 N 0.82732 0.54526 0.86495
 C1660 C 0.81778 0.54477 0.84599
 N1661 N 0.79895 0.55257 0.84373
 N1662 N 0.79012 0.56055 0.85979
 C1663 C 0.82774 0.53548 0.82842
 C1664 C 0.81807 0.53416 0.80861
 C1665 C 0.82734 0.52438 0.79244
 C1666 C 0.84631 0.51563 0.79587
 C1667 C 0.85623 0.51755 0.81548
 C1668 C 0.84709 0.52734 0.83153
 H1669 H 0.76258 0.57875 0.88030
 H1670 H 0.74860 0.59557 0.91006
 H1671 H 0.80161 0.58037 0.94760
 H1672 H 0.81566 0.56386 0.91816
 H1673 H 0.80320 0.54036 0.80567
 H1674 H 0.81936 0.52304 0.77745
 H1675 H 0.87110 0.51135 0.81848
 H1676 H 0.85514 0.52823 0.84648
 C1677 C 0.10093 0.69722 0.56213
 C1678 C 0.08124 0.68892 0.55516
 C1679 C 0.06372 0.69586 0.56390
 C1680 C 0.06558 0.71124 0.57975
 C1681 C 0.08518 0.72016 0.58598
 C1682 C 0.10262 0.71322 0.57733
 C1683 C 0.11972 0.68851 0.55466
 N1684 N 0.13836 0.69368 0.56452
 N1685 N 0.15516 0.68494 0.55887
 C1686 C 0.15408 0.67067 0.54306
 N1687 N 0.13549 0.66568 0.53296
 N1688 N 0.11864 0.67438 0.53868
 C1689 C 0.17261 0.65995 0.53786
 C1690 C 0.17296 0.64815 0.51941
 C1691 C 0.19010 0.63708 0.51528
 C1692 C 0.20697 0.63735 0.52964
 C1693 C 0.20680 0.64943 0.54787
 C1694 C 0.18988 0.66073 0.55188
 H1695 H 0.07939 0.67659 0.54347
 H1696 H 0.04884 0.68863 0.55883
 H1697 H 0.08707 0.73236 0.59783
 H1698 H 0.11750 0.72016 0.58288
 H1699 H 0.15991 0.64728 0.50829
 H1700 H 0.18980 0.62771 0.50124
 H1701 H 0.21974 0.64998 0.55912
 H1702 H 0.19013 0.66961 0.56625
 C1703 C 0.61193 0.19719 1.05715
 C1704 C 0.61387 0.21230 1.07325
 C1705 C 0.59653 0.21916 1.08217
 C1706 C 0.57677 0.21112 1.07524
 C1707 C 0.57468 0.19666 1.05857
 C1708 C 0.59210 0.18973 1.04963
 C1709 C 0.63057 0.18846 1.04932
 N1710 N 0.62920 0.17396 1.03366
 N1711 N 0.64591 0.16501 1.02788
 C1712 C 0.66467 0.17017 1.03757
 N1713 N 0.66605 0.18490 1.05298
 N1714 N 0.64939 0.19386 1.05869
 C1715 C 0.68292 0.15875 1.03288
 C1716 C 0.70016 0.15980 1.04696
 C1717 C 0.71634 0.14718 1.04411
 C1718 C 0.71585 0.13349 1.02695
 C1719 C 0.69931 0.13322 1.01219
 C1720 C 0.68284 0.14562 1.01522
 H1721 H 0.62884 0.21856 1.07932
 H1722 H 0.59860 0.23064 1.09470
 H1723 H 0.55965 0.19017 1.05295
 H1724 H 0.59004 0.17811 1.03724
 H1725 H 0.70079 0.16973 1.06070
 H1726 H 0.72906 0.14772 1.05560
 H1727 H 0.69863 0.12268 0.99888
 H1728 H 0.66984 0.14455 1.00404
 C1729 C 0.87958 0.19233 0.95328
 C1730 C 0.89837 0.18324 0.95160
 C1731 C 0.91476 0.19334 0.94325
 C1732 C 0.91309 0.21310 0.93610
 C1733 C 0.89407 0.22223 0.93836
 C1734 C 0.87769 0.21201 0.94675
 C1735 C 0.86211 0.18109 0.96159
 N1736 N 0.84357 0.18938 0.96299
 N1737 N 0.82795 0.17903 0.97035
 C1738 C 0.83022 0.15995 0.97657
 N1739 N 0.84873 0.15171 0.97513
 N1740 N 0.86430 0.16203 0.96780
 C1741 C 0.81315 0.14831 0.98512
 C1742 C 0.81636 0.12891 0.99201
 C1743 C 0.80085 0.11807 1.00088
 C1744 C 0.78168 0.12631 1.00313
 C1745 C 0.77810 0.14540 0.99570
 C1746 C 0.79375 0.15638 0.98685
 H1747 H 0.90039 0.16801 0.95639
 H1748 H 0.92817 0.18468 0.94144
 H1749 H 0.89164 0.23762 0.93445
 H1750 H 0.86350 0.21962 0.94813
 H1751 H 0.83099 0.12207 0.99077
 H1752 H 0.80390 0.10314 1.00598
 H1753 H 0.76344 0.15208 0.99726
 H1754 H 0.79072 0.17125 0.98159
 C1755 C 0.36214 0.70407 0.43933
 C1756 C 0.36559 0.69667 0.41951
 C1757 C 0.38206 0.70464 0.40952
 C1758 C 0.39539 0.72037 0.41902
 C1759 C 0.39177 0.72796 0.43875
 C1760 C 0.37539 0.71985 0.44882
 C1761 C 0.34517 0.69497 0.45020
 N1762 N 0.34428 0.69886 0.47055
 N1763 N 0.32953 0.68996 0.48045
 C1764 C 0.31498 0.67687 0.47039
 N1765 N 0.31575 0.67317 0.45000
 N1766 N 0.33054 0.68201 0.44012
 C1767 C 0.29931 0.66599 0.48153
 C1768 C 0.28285 0.65442 0.47087
 C1769 C 0.26903 0.64280 0.48128
 C1770 C 0.27148 0.64236 0.50253
 C1771 C 0.28752 0.65439 0.51327
 C1772 C 0.30123 0.66617 0.50289
 H1773 H 0.35579 0.68441 0.41181
 H1774 H 0.38457 0.69818 0.39449
 H1775 H 0.40150 0.74030 0.44638
 H1776 H 0.37309 0.72599 0.46403
 H1777 H 0.28087 0.65400 0.45443
 H1778 H 0.25696 0.63348 0.47258
 H1779 H 0.28963 0.65445 0.52968
 H1780 H 0.31370 0.67494 0.51158
 C1781 C 0.59073 0.79089 0.43606
 C1782 C 0.57667 0.78138 0.44816
 C1783 C 0.55646 0.77610 0.44037
 C1784 C 0.54991 0.78061 0.42051
 C1785 C 0.56392 0.79026 0.40854
 C1786 C 0.58410 0.79524 0.41616
 C1787 C 0.61221 0.79641 0.44387
 N1788 N 0.62673 0.80048 0.43072
 N1789 N 0.64592 0.80626 0.43751
 C1790 C 0.65145 0.80829 0.45776
 N1791 N 0.63697 0.80407 0.47098
 N1792 N 0.61775 0.79816 0.46416
 C1793 C 0.67251 0.81621 0.46501
 C1794 C 0.67733 0.82322 0.48542
 C1795 C 0.69654 0.83300 0.49144
 C1796 C 0.71121 0.83600 0.47718
 C1797 C 0.70679 0.82783 0.45710
 C1798 C 0.68769 0.81813 0.45108
 H1799 H 0.58135 0.77781 0.46353
 H1800 H 0.54591 0.76865 0.44988
 H1801 H 0.55934 0.79365 0.39308
 H1802 H 0.59449 0.80263 0.40646
 H1803 H 0.66600 0.82190 0.49656
 H1804 H 0.69945 0.83903 0.50697
 H1805 H 0.71799 0.82935 0.44585
 H1806 H 0.68467 0.81259 0.43532
 C1807 C 0.10502 0.28108 -0.04707
 C1808 C 0.10197 0.26726 -0.06423
 C1809 C 0.08223 0.26210 -0.07308
 C1810 C 0.06500 0.27059 -0.06501
 C1811 C 0.06789 0.28372 -0.04735
 C1812 C 0.08771 0.28895 -0.03849
 C1813 C 0.12617 0.28819 -0.03918
 N1814 N 0.12945 0.30227 -0.02322
 N1815 N 0.14836 0.30996 -0.01740
 C1816 C 0.16480 0.30391 -0.02730
 N1817 N 0.16154 0.28955 -0.04299
 N1818 N 0.14266 0.28185 -0.04878
 C1819 C 0.18547 0.31417 -0.02250
 C1820 C 0.20123 0.31096 -0.03566
 C1821 C 0.21963 0.32288 -0.03307
 C1822 C 0.22281 0.33799 -0.01711
 C1823 C 0.20769 0.34042 -0.00323
 C1824 C 0.18914 0.32864 -0.00591
 H1825 H 0.11488 0.26075 -0.07118
 H1826 H 0.08044 0.25162 -0.08645
 H1827 H 0.05490 0.29053 -0.04083
 H1828 H 0.08949 0.29961 -0.02526
 H1829 H 0.19898 0.29995 -0.04858
 H1830 H 0.23112 0.32086 -0.04400
 H1831 H 0.20961 0.35232 0.00886
 H1832 H 0.17737 0.33149 0.00451
 C1833 C 0.39627 0.28691 0.05236
 C1834 C 0.39421 0.26841 0.06179
 C1835 C 0.41144 0.26003 0.07118
 C1836 C 0.43098 0.27006 0.07142
 C1837 C 0.43310 0.28813 0.06138
 C1838 C 0.41600 0.29643 0.05195
 C1839 C 0.37808 0.29683 0.04363
 N1840 N 0.38050 0.31501 0.03528
 N1841 N 0.36434 0.32448 0.02804
 C1842 C 0.34496 0.31622 0.02883
 N1843 N 0.34246 0.29794 0.03710
 N1844 N 0.35869 0.28845 0.04438
 C1845 C 0.32714 0.32713 0.02078
 C1846 C 0.30691 0.31852 0.02021
 C1847 C 0.29039 0.32890 0.01198
 C1848 C 0.29384 0.34800 0.00412
 C1849 C 0.31397 0.35677 0.00520
 C1850 C 0.33038 0.34648 0.01337
 H1851 H 0.37926 0.26064 0.06232
 H1852 H 0.40937 0.24613 0.07892
 H1853 H 0.44803 0.29602 0.06107
 H1854 H 0.41826 0.31058 0.04470
 H1855 H 0.30386 0.30367 0.02586
 H1856 H 0.27504 0.32174 0.01126
 H1857 H 0.31709 0.37170 -0.00026
 H1858 H 0.34566 0.35375 0.01376
 C1859 C 0.87316 0.76680 0.56463
 C1860 C 0.88679 0.75561 0.55336
 C1861 C 0.90544 0.75002 0.56256
 C1862 C 0.91090 0.75567 0.58315
 C1863 C 0.89699 0.76626 0.59456
 C1864 C 0.87833 0.77170 0.58543
 C1865 C 0.85432 0.77445 0.55458
 N1866 N 0.84088 0.78467 0.56564
 N1867 N 0.82487 0.79304 0.55652
 C1868 C 0.82160 0.79158 0.53594
 N1869 N 0.83484 0.78106 0.52489
 N1870 N 0.85084 0.77265 0.53401
 C1871 C 0.80510 0.80273 0.52569
 C1872 C 0.80407 0.80404 0.50448
 C1873 C 0.79038 0.81672 0.49506
 C1874 C 0.77732 0.82826 0.50659
 C1875 C 0.77743 0.82607 0.52760
 C1876 C 0.79125 0.81348 0.53709
 H1877 H 0.88326 0.75152 0.53732
 H1878 H 0.91590 0.74189 0.55342
 H1879 H 0.90066 0.77050 0.61055
 H1880 H 0.86820 0.78022 0.59461
 H1881 H 0.81437 0.79588 0.49519
 H1882 H 0.79037 0.81790 0.47877
 H1883 H 0.76760 0.83489 0.53686
 H1884 H 0.79154 0.81274 0.55344
   
