data_POSCAR
  _audit_creation_date              2014-09-24
  _audit_creation_method            'ToBaCCo'
  _symmetry_space_group_name_H-M    'P1'
  _symmetry_Int_Tables_number       1
  _symmetry_cell_setting            triclinic
  loop_
  _symmetry_equiv_pos_as_xyz
 x,y,z
_cell_length_a 47.3093
_cell_length_b 47.4706
_cell_length_c 57.9417
_cell_angle_alpha 89.626000
_cell_angle_beta 90.021700
_cell_angle_gamma 90.023600
loop_
  _atom_site_label
  _atom_site_type_symbol
  _atom_site_fract_x
  _atom_site_fract_y
  _atom_site_fract_z
Zr1 Zr 0.24476 0.25098 0.28977
 O2 O 0.26323 0.27248 0.31796
 O3 O 0.21754 0.22300 0.30716
 O4 O 0.21630 0.27725 0.30770
 O5 O 0.30087 0.20496 0.28247
 O6 O 0.19473 0.30307 0.27933
 O7 O 0.27315 0.22613 0.30953
 O8 O 0.19339 0.20193 0.27786
 O9 O 0.20884 0.25181 0.26854
 O10 O 0.24693 0.21481 0.26942
 O11 O 0.24736 0.28883 0.27073
 O12 O 0.28373 0.25335 0.27212
 Zr13 Zr 0.25233 0.25566 0.20928
 Zr14 Zr 0.21255 0.28842 0.24832
 Zr15 Zr 0.28426 0.21802 0.25051
 Zr16 Zr 0.21224 0.21656 0.24735
 O17 O 0.32886 0.22152 0.25022
 O18 O 0.16803 0.22301 0.24435
 O19 O 0.24961 0.21739 0.22792
 O20 O 0.21361 0.25298 0.22703
 O21 O 0.25012 0.29211 0.22936
 O22 O 0.28784 0.25462 0.23073
 C23 C 0.19877 0.20595 0.29929
 C24 C 0.29403 0.21035 0.30348
 C25 C 0.19925 0.29667 0.30066
 O26 O 0.16811 0.28423 0.24616
 O27 O 0.19832 0.30441 0.21623
 O28 O 0.22752 0.28401 0.18980
 C29 C 0.20683 0.30019 0.19541
 O30 O 0.30105 0.30390 0.28384
 Zr31 Zr 0.28473 0.28993 0.25169
 O32 O 0.28113 0.28217 0.19199
 O33 O 0.21589 0.33284 0.24920
 O34 O 0.27776 0.33402 0.25320
 O35 O 0.32928 0.28496 0.25213
 O36 O 0.30034 0.30789 0.22120
 C37 C 0.29751 0.30153 0.19984
 O38 O 0.23160 0.23640 0.18103
 O39 O 0.28114 0.17356 0.25201
 O40 O 0.27791 0.22696 0.19104
 O41 O 0.29853 0.20037 0.21935
 O42 O 0.21792 0.17225 0.24844
 O43 O 0.19941 0.19863 0.21549
 C44 C 0.29361 0.20645 0.19803
 H45 H 0.24703 0.19724 0.27871
 H46 H 0.19744 0.25258 0.21619
 H47 H 0.30583 0.25438 0.22200
 H48 H 0.24713 0.30545 0.28095
 H49 H 0.15861 0.20473 0.24749
 H50 H 0.16017 0.30354 0.24640
 H51 H 0.19639 0.34034 0.24808
 H52 H 0.29618 0.34346 0.25056
 H53 H 0.19912 0.16358 0.25109
 H54 H 0.30069 0.16619 0.25309
 H55 H 0.33646 0.20208 0.24982
 H56 H 0.33777 0.30378 0.24941
 H57 H 0.18343 0.18554 0.21819
 H58 H 0.24021 0.24397 0.16664
 H59 H 0.25522 0.26433 0.33237
 H60 H 0.31420 0.31983 0.28120
 Zr61 Zr 0.75502 0.75695 0.29041
 O62 O 0.73610 0.73770 0.31968
 O63 O 0.78243 0.78604 0.30608
 O64 O 0.78388 0.73286 0.31010
 O65 O 0.69814 0.80155 0.28073
 O66 O 0.80344 0.70264 0.28410
 O67 O 0.72781 0.78408 0.30844
 O68 O 0.80667 0.80480 0.27563
 O69 O 0.79092 0.75394 0.26951
 O70 O 0.75305 0.79147 0.26791
 O71 O 0.75166 0.71763 0.27410
 O72 O 0.71593 0.75351 0.27301
 Zr73 Zr 0.74752 0.74593 0.21070
 Zr74 Zr 0.78656 0.71567 0.25196
 Zr75 Zr 0.71557 0.78715 0.24931
 Zr76 Zr 0.78781 0.78756 0.24618
 O77 O 0.67095 0.78416 0.24815
 O78 O 0.83200 0.78061 0.24383
 O79 O 0.75038 0.78558 0.22685
 O80 O 0.78613 0.74947 0.22849
 O81 O 0.74910 0.71104 0.23298
 O82 O 0.71183 0.74906 0.23181
 C83 C 0.80127 0.80244 0.29726
 C84 C 0.70614 0.79845 0.30188
 C85 C 0.79983 0.71191 0.30476
 O86 O 0.83108 0.71899 0.24994
 O87 O 0.80043 0.69685 0.22107
 O88 O 0.77336 0.71709 0.19285
 C89 C 0.79322 0.70052 0.19981
 O90 O 0.69757 0.70402 0.28770
 Zr91 Zr 0.71436 0.71541 0.25491
 O92 O 0.71946 0.71758 0.19498
 O93 O 0.78254 0.67147 0.25550
 O94 O 0.72088 0.67148 0.25920
 O95 O 0.66991 0.72124 0.25495
 O96 O 0.69844 0.69531 0.22547
 C97 C 0.70235 0.69938 0.20377
 O98 O 0.76791 0.76371 0.18148
 O99 O 0.71871 0.83163 0.24899
 O100 O 0.72104 0.77233 0.19078
 O101 O 0.70259 0.80314 0.21687
 O102 O 0.78249 0.83187 0.24418
 O103 O 0.80084 0.80236 0.21315
 C104 C 0.70643 0.79424 0.19612
 H105 H 0.75314 0.80972 0.27608
 H106 H 0.80243 0.74886 0.21781
 H107 H 0.69396 0.74864 0.22293
 H108 H 0.75160 0.70200 0.28548
 H109 H 0.84150 0.79907 0.24561
 H110 H 0.83866 0.69962 0.25150
 H111 H 0.80192 0.66358 0.25495
 H112 H 0.70241 0.66202 0.25693
 H113 H 0.80138 0.84058 0.24610
 H114 H 0.69914 0.83903 0.24943
 H115 H 0.66364 0.80366 0.24686
 H116 H 0.66105 0.70245 0.25323
 H117 H 0.81686 0.81559 0.21493
 H118 H 0.75947 0.75508 0.16751
 H119 H 0.74417 0.74674 0.33362
 H120 H 0.68428 0.68806 0.28592
 Zr121 Zr 0.75671 0.24198 -0.29107
 O122 O 0.73776 0.25990 -0.32089
 O123 O 0.78652 0.21489 -0.30619
 O124 O 0.78457 0.26744 -0.31061
 O125 O 0.70223 0.19456 -0.28105
 O126 O 0.80307 0.29822 -0.28451
 O127 O 0.72986 0.21425 -0.30919
 O128 O 0.80990 0.19612 -0.27528
 O129 O 0.79211 0.24649 -0.26972
 O130 O 0.75580 0.20758 -0.26833
 O131 O 0.75177 0.28130 -0.27502
 O132 O 0.71737 0.24393 -0.27393
 Zr133 Zr 0.74758 0.25379 -0.21154
 Zr134 Zr 0.78630 0.28477 -0.25249
 Zr135 Zr 0.71806 0.21069 -0.24983
 Zr136 Zr 0.78995 0.21301 -0.24617
 O137 O 0.67334 0.21181 -0.24955
 O138 O 0.83384 0.22156 -0.24342
 O139 O 0.75234 0.21396 -0.22707
 O140 O 0.78661 0.25125 -0.22877
 O141 O 0.74827 0.28827 -0.23419
 O142 O 0.71238 0.24894 -0.23290
 C143 C 0.80579 0.19928 -0.29703
 C144 C 0.70924 0.19854 -0.30231
 C145 C 0.79986 0.28887 -0.30518
 O146 O 0.83090 0.28293 -0.25044
 O147 O 0.79977 0.30384 -0.22146
 O148 O 0.77143 0.28421 -0.19381
 C149 C 0.79144 0.30077 -0.20041
 O150 O 0.69747 0.29199 -0.28961
 Zr151 Zr 0.71401 0.28221 -0.25640
 O152 O 0.71920 0.28241 -0.19653
 O153 O 0.78066 0.32880 -0.25593
 O154 O 0.71865 0.32631 -0.26122
 O155 O 0.66983 0.27465 -0.25681
 O156 O 0.69684 0.30228 -0.22748
 C157 C 0.70157 0.29978 -0.20576
 O158 O 0.76819 0.23707 -0.18199
 O159 O 0.72315 0.16641 -0.24862
 O160 O 0.72135 0.22731 -0.19153
 O161 O 0.70494 0.19499 -0.21731
 O162 O 0.78586 0.16858 -0.24386
 O163 O 0.80324 0.19896 -0.21299
 C164 C 0.70779 0.20468 -0.19669
 H165 H 0.75676 0.18933 -0.27647
 H166 H 0.80266 0.25251 -0.21787
 H167 H 0.69438 0.24894 -0.22420
 H168 H 0.75127 0.29685 -0.28648
 H169 H 0.84404 0.20344 -0.24501
 H170 H 0.83785 0.30256 -0.25183
 H171 H 0.79976 0.33736 -0.25541
 H172 H 0.69971 0.33495 -0.25948
 H173 H 0.80499 0.16038 -0.24572
 H174 H 0.70393 0.15813 -0.24899
 H175 H 0.66682 0.19207 -0.24788
 H176 H 0.66024 0.29314 -0.25562
 H177 H 0.81952 0.18603 -0.21462
 H178 H 0.75937 0.24570 -0.16819
 H179 H 0.74652 0.25098 -0.33459
 H180 H 0.68351 0.30744 -0.28831
 Zr181 Zr 0.24421 0.75477 -0.29007
 O182 O 0.26383 0.73546 -0.31879
 O183 O 0.21292 0.77936 -0.30639
 O184 O 0.21744 0.72675 -0.30800
 O185 O 0.29960 0.80171 -0.28395
 O186 O 0.19745 0.70002 -0.27948
 O187 O 0.26903 0.78268 -0.31002
 O188 O 0.19095 0.80118 -0.27645
 O189 O 0.20920 0.75203 -0.26812
 O190 O 0.24550 0.79084 -0.26956
 O191 O 0.24956 0.71688 -0.27155
 O192 O 0.28388 0.75395 -0.27330
 Zr193 Zr 0.25415 0.74936 -0.20974
 Zr194 Zr 0.21538 0.71526 -0.24867
 Zr195 Zr 0.28362 0.78897 -0.25144
 Zr196 Zr 0.21177 0.78724 -0.24672
 O197 O 0.32835 0.78776 -0.25125
 O198 O 0.16790 0.77942 -0.24257
 O199 O 0.24966 0.78772 -0.22810
 O200 O 0.21507 0.75047 -0.22704
 O201 O 0.25342 0.71319 -0.23024
 O202 O 0.28918 0.75239 -0.23171
 C203 C 0.19379 0.79566 -0.29798
 C204 C 0.29082 0.79769 -0.30479
 C205 C 0.20137 0.70660 -0.30084
 O206 O 0.17086 0.71717 -0.24562
 O207 O 0.20325 0.69764 -0.21679
 O208 O 0.22892 0.72135 -0.18986
 C209 C 0.20988 0.70325 -0.19574
 O210 O 0.30379 0.70425 -0.28541
 Zr211 Zr 0.28742 0.71740 -0.25305
 O212 O 0.28265 0.72191 -0.19314
 O213 O 0.22096 0.67110 -0.25026
 O214 O 0.28282 0.67301 -0.25485
 O215 O 0.33150 0.72546 -0.25425
 O216 O 0.30475 0.69985 -0.22299
 C217 C 0.30020 0.70392 -0.20144
 O218 O 0.23440 0.76817 -0.18085
 O219 O 0.27866 0.83323 -0.25326
 O220 O 0.27971 0.77858 -0.19192
 O221 O 0.29759 0.80708 -0.22032
 O222 O 0.21570 0.83174 -0.24775
 O223 O 0.19981 0.80407 -0.21425
 C224 C 0.29395 0.80015 -0.19898
 H225 H 0.24421 0.80839 -0.27883
 H226 H 0.19901 0.75002 -0.21611
 H227 H 0.30724 0.75314 -0.22309
 H228 H 0.24996 0.70040 -0.28192
 H229 H 0.15784 0.79752 -0.24497
 H230 H 0.16389 0.69749 -0.24593
 H231 H 0.20192 0.66253 -0.24893
 H232 H 0.30175 0.66452 -0.25252
 H233 H 0.19646 0.83966 -0.24967
 H234 H 0.29788 0.84132 -0.25476
 H235 H 0.33496 0.80757 -0.25135
 H236 H 0.34135 0.70734 -0.25143
 H237 H 0.18354 0.81695 -0.21633
 H238 H 0.24359 0.76053 -0.16671
 H239 H 0.25476 0.74304 -0.33299
 H240 H 0.31837 0.68959 -0.28289
 Zr241 Zr 1.25266 1.25372 0.78886
 O242 O 1.23389 1.23496 0.81841
 O243 O 1.28137 1.28173 0.80441
 O244 O 1.28117 1.22927 0.80860
 O245 O 1.19671 1.29925 0.77831
 O246 O 1.30107 1.19917 0.78266
 O247 O 1.22455 1.28050 0.80674
 O248 O 1.30466 1.30127 0.77378
 O249 O 1.28850 1.25045 0.76785
 O250 O 1.25093 1.28812 0.76619
 O251 O 1.24933 1.21429 0.77264
 O252 O 1.21366 1.25039 0.77131
 Zr253 Zr 1.24505 1.24181 0.70913
 Zr254 Zr 1.28429 1.21206 0.75045
 Zr255 Zr 1.21360 1.28370 0.74729
 Zr256 Zr 1.28558 1.28393 0.74439
 O257 O 1.16896 1.28090 0.74643
 O258 O 1.32975 1.27686 0.74199
 O259 O 1.24830 1.28168 0.72489
 O260 O 1.28374 1.24568 0.72681
 O261 O 1.24666 1.20732 0.73176
 O262 O 1.20941 1.24536 0.73015
 C263 C 1.30038 1.29790 0.79551
 C264 C 1.20354 1.29557 0.79965
 C265 C 1.29731 1.20844 0.80330
 O266 O 1.32882 1.21543 0.74880
 O267 O 1.29887 1.19354 0.71947
 O268 O 1.27026 1.21235 0.69162
 C269 C 1.29071 1.19642 0.69834
 O270 O 1.19511 1.20173 0.78663
 Zr271 Zr 1.21189 1.21208 0.75362
 O272 O 1.21803 1.21203 0.69376
 O273 O 1.28007 1.16787 0.75378
 O274 O 1.21790 1.16819 0.75862
 O275 O 1.16746 1.21811 0.75338
 O276 O 1.19608 1.19126 0.72450
 C277 C 1.20106 1.19386 0.70281
 O278 O 1.26547 1.25929 0.67981
 O279 O 1.21704 1.32816 0.74631
 O280 O 1.21835 1.26769 0.68892
 O281 O 1.20075 1.29933 0.71472
 O282 O 1.27994 1.32819 0.74220
 O283 O 1.29886 1.29865 0.71140
 C284 C 1.20424 1.29000 0.69407
 H285 H 1.25117 1.30635 0.77439
 H286 H 1.29997 1.24501 0.71606
 H287 H 1.19158 1.24475 0.72122
 H288 H 1.24921 1.19871 0.78408
 H289 H 1.33932 1.29530 0.74373
 H290 H 1.33640 1.19605 0.75028
 H291 H 1.29945 1.15996 0.75338
 H292 H 1.19929 1.15890 0.75668
 H293 H 1.29871 1.33707 0.74435
 H294 H 1.19753 1.33573 0.74653
 H295 H 1.16175 1.30039 0.74467
 H296 H 1.15855 1.19929 0.75203
 H297 H 1.31461 1.31219 0.71326
 H298 H 1.25713 1.25040 0.66591
 H299 H 1.24210 1.24415 0.83223
 H300 H 1.18151 1.18599 0.78514
 Zr301 Zr 0.74388 0.74948 0.79114
 O302 O 0.76241 0.76969 0.81994
 O303 O 0.71410 0.72288 0.80735
 O304 O 0.71563 0.77586 0.80914
 O305 O 0.80161 0.70532 0.78494
 O306 O 0.69422 0.80164 0.78072
 O307 O 0.77006 0.72281 0.81101
 O308 O 0.69357 0.69986 0.77724
 O309 O 0.70879 0.75031 0.76915
 O310 O 0.74733 0.71374 0.77043
 O311 O 0.74708 0.78774 0.77276
 O312 O 0.78351 0.75278 0.77447
 Zr313 Zr 0.75372 0.75606 0.71084
 Zr314 Zr 0.71287 0.78751 0.74984
 Zr315 Zr 0.78536 0.71796 0.75244
 Zr316 Zr 0.71348 0.71547 0.74758
 O317 O 0.82991 0.72207 0.75262
 O318 O 0.66923 0.72078 0.74350
 O319 O 0.75141 0.71740 0.72906
 O320 O 0.71472 0.75250 0.72804
 O321 O 0.75078 0.79196 0.73151
 O322 O 0.78884 0.75494 0.73285
 C323 C 0.69620 0.70538 0.79877
 C324 C 0.79235 0.70870 0.80568
 C325 C 0.69858 0.79522 0.80206
 O326 O 0.66854 0.78291 0.74684
 O327 O 0.69962 0.80451 0.71802
 O328 O 0.72701 0.78275 0.69106
 C329 C 0.70694 0.79958 0.69704
 O330 O 0.80052 0.80334 0.78680
 Zr331 Zr 0.78495 0.78962 0.75434
 O332 O 0.78056 0.78534 0.69438
 O333 O 0.71581 0.83193 0.75151
 O334 O 0.77771 0.83363 0.75646
 O335 O 0.82945 0.78431 0.75544
 O336 O 0.80114 0.80858 0.72436
 C337 C 0.79690 0.80440 0.70277
 O338 O 0.73516 0.73635 0.68181
 O339 O 0.78311 0.67346 0.75378
 O340 O 0.78088 0.72841 0.69293
 O341 O 0.80045 0.70097 0.72127
 O342 O 0.72013 0.67129 0.74823
 O343 O 0.70246 0.69828 0.71500
 C344 C 0.79632 0.70767 0.69995
 H345 H 0.74704 0.69603 0.77956
 H346 H 0.69869 0.75208 0.71708
 H347 H 0.80692 0.75533 0.72424
 H348 H 0.74654 0.80415 0.78319
 H349 H 0.66024 0.70212 0.74580
 H350 H 0.66040 0.80213 0.74723
 H351 H 0.69629 0.83934 0.75022
 H352 H 0.79611 0.84327 0.75423
 H353 H 0.70142 0.66216 0.75011
 H354 H 0.80278 0.66651 0.75524
 H355 H 0.83776 0.70272 0.75243
 H356 H 0.83815 0.80305 0.75280
 H357 H 0.68695 0.68447 0.71702
 H358 H 0.74390 0.74463 0.66773
 H359 H 0.75378 0.76153 0.83411
 H360 H 0.81417 0.81891 0.78442
 Zr361 Zr 1.25439 0.74259 0.20714
 O362 O 1.23524 0.76124 0.17771
 O363 O 1.28294 0.71434 0.19173
 O364 O 1.28277 0.76757 0.18775
 O365 O 1.19877 0.69629 0.21613
 O366 O 1.30095 0.79839 0.21396
 O367 O 1.22851 0.71453 0.18882
 O368 O 1.30712 0.69606 0.22241
 O369 O 1.28985 0.74671 0.22839
 O370 O 1.25309 0.70801 0.22961
 O371 O 1.24949 0.78177 0.22342
 O372 O 1.21494 0.74484 0.22414
 Zr373 Zr 1.24533 0.75342 0.28678
 Zr374 Zr 1.28398 0.78483 0.24589
 Zr375 Zr 1.21521 0.71118 0.24782
 Zr376 Zr 1.28740 0.71298 0.25167
 O377 O 1.17050 0.71274 0.24837
 O378 O 1.33132 0.72137 0.25433
 O379 O 1.24964 0.71386 0.27065
 O380 O 1.28426 0.75102 0.26934
 O381 O 1.24614 0.78837 0.26454
 O382 O 1.21009 0.74913 0.26528
 C383 C 1.30202 0.69833 0.20071
 C384 C 1.20715 0.69956 0.19508
 C385 C 1.29798 0.78902 0.19327
 O386 O 1.32855 0.78297 0.24838
 O387 O 1.29686 0.80408 0.27685
 O388 O 1.27025 0.78292 0.30491
 C389 C 1.28968 0.80010 0.29807
 O390 O 1.19530 0.79408 0.20935
 Zr391 Zr 1.21187 0.78288 0.24226
 O392 O 1.21595 0.78069 0.30227
 O393 O 1.27863 0.82888 0.24225
 O394 O 1.21724 0.82701 0.23829
 O395 O 1.16765 0.77553 0.24148
 O396 O 1.19450 0.80216 0.27159
 C397 C 1.19814 0.79813 0.29333
 O398 O 1.26577 0.73626 0.31623
 O399 O 1.21976 0.66682 0.24830
 O400 O 1.21939 0.72623 0.30637
 O401 O 1.20199 0.69494 0.28015
 O402 O 1.28331 0.66855 0.25382
 O403 O 1.30054 0.69870 0.28483
 C404 C 1.20533 0.70400 0.30092
 H405 H 1.25386 0.68977 0.22146
 H406 H 1.30040 0.75213 0.28017
 H407 H 1.19205 0.74894 0.27394
 H408 H 1.24914 0.79740 0.21203
 H409 H 1.34143 0.70321 0.25265
 H410 H 1.33554 0.80257 0.24682
 H411 H 1.29773 0.83739 0.24304
 H412 H 1.19851 0.83593 0.24045
 H413 H 1.30245 0.66036 0.25208
 H414 H 1.20045 0.65881 0.24754
 H415 H 1.16378 0.69302 0.24955
 H416 H 1.15811 0.79398 0.24319
 H417 H 1.31700 0.68600 0.28319
 H418 H 1.25685 0.74461 0.33010
 H419 H 1.24381 0.75254 0.16384
 H420 H 1.18159 0.80969 0.21106
 Zr421 Zr 0.74884 1.25038 0.21195
 O422 O 0.76731 1.22906 0.18369
 O423 O 0.72153 1.27839 0.19456
 O424 O 0.72052 1.22393 0.19395
 O425 O 0.80480 1.29667 0.21945
 O426 O 0.69920 1.19783 0.22227
 O427 O 0.77735 1.27525 0.19230
 O428 O 0.69745 1.29953 0.22384
 O429 O 0.71291 1.24922 0.23314
 O430 O 0.75080 1.28650 0.23238
 O431 O 0.75172 1.21251 0.23096
 O432 O 0.78779 1.24821 0.22970
 Zr433 Zr 0.75645 1.24542 0.29255
 Zr434 Zr 0.71689 1.21257 0.25334
 Zr435 Zr 0.78810 1.28349 0.25137
 Zr436 Zr 0.71609 1.28445 0.25438
 O437 O 0.83273 1.28034 0.25181
 O438 O 0.67191 1.27748 0.25702
 O439 O 0.75343 1.28371 0.27391
 O440 O 0.71774 1.24797 0.27469
 O441 O 0.75447 1.20904 0.27237
 O442 O 0.79194 1.24687 0.27111
 C443 C 0.70282 1.29555 0.20239
 C444 C 0.79812 1.29118 0.19841
 C445 C 0.70362 1.20434 0.20095
 O446 O 0.67242 1.21643 0.25543
 O447 O 0.70262 1.19643 0.28539
 O448 O 0.73180 1.21672 0.31193
 C449 C 0.71113 1.20050 0.30625
 O450 O 0.80548 1.19760 0.21797
 Zr451 Zr 0.78908 1.21159 0.25007
 O452 O 0.78574 1.21926 0.30983
 O453 O 0.72055 1.16819 0.25239
 O454 O 0.78233 1.16746 0.24865
 O455 O 0.83358 1.21707 0.24945
 O456 O 0.80513 1.19385 0.28055
 C457 C 0.80240 1.20015 0.30193
 O458 O 0.73548 1.26430 0.32083
 O459 O 0.78475 1.32793 0.24985
 O460 O 0.78161 1.27447 0.31086
 O461 O 0.80203 1.30130 0.28259
 O462 O 0.72173 1.32878 0.25374
 O463 O 0.70273 1.30207 0.28620
 C464 C 0.79708 1.29519 0.30390
 H465 H 0.75085 1.30411 0.22312
 H466 H 0.70155 1.24820 0.28550
 H467 H 0.80993 1.24728 0.27984
 H468 H 0.75160 1.19591 0.22072
 H469 H 0.66233 1.29566 0.25384
 H470 H 0.66460 1.19707 0.25505
 H471 H 0.70110 1.16054 0.25343
 H472 H 0.80078 1.15812 0.25136
 H473 H 0.70296 1.33746 0.25102
 H474 H 0.80427 1.33542 0.24882
 H475 H 0.84018 1.29984 0.25231
 H476 H 0.84231 1.19837 0.25222
 H477 H 0.68660 1.31494 0.28342
 H478 H 0.74415 1.25676 0.33521
 H479 H 0.75926 1.23725 0.16930
 H480 H 0.81867 1.18173 0.22066
 O481 O 0.46075 1.03982 0.04992
 O482 O 0.42873 1.02190 0.02397
 C483 C 0.43521 1.03562 0.04263
 O484 O 0.53904 1.06180 -0.03101
 O485 O 0.57088 1.03012 -0.01581
 C486 C 0.56451 1.05247 -0.02786
 O487 O 0.46095 1.06388 -0.02853
 O488 O 0.42886 1.03107 -0.01540
 C489 C 0.43539 1.05452 -0.02591
 O490 O 0.53863 1.03600 0.05189
 O491 O 0.57090 1.01960 0.02551
 C492 C 0.56426 1.03183 0.04483
 Zr493 Zr 0.49974 1.02760 0.03574
 O494 O 0.50090 1.07144 0.04208
 O495 O 0.49850 1.01469 0.07078
 Zr496 Zr 0.49999 1.04501 -0.02008
 O497 O 0.50094 1.08675 -0.00760
 O498 O 0.49841 1.05820 -0.05498
 O499 O 0.47423 1.04161 0.00876
 O500 O 0.52510 1.04116 0.00885
 O501 O 0.53842 0.94108 0.03200
 O502 O 0.57055 0.97303 0.01762
 C503 C 0.56397 0.95036 0.02918
 O504 O 0.46096 0.96466 -0.04871
 O505 O 0.42876 0.98246 -0.02297
 C506 C 0.43537 0.96888 -0.04163
 O507 O 0.53900 0.96774 -0.04988
 O508 O 0.57112 0.98381 -0.02326
 C509 C 0.56457 0.97169 -0.04262
 O510 O 0.46040 0.93941 0.02860
 O511 O 0.42858 0.97277 0.01608
 C512 C 0.43491 0.94896 0.02608
 Zr513 Zr 0.49954 0.95915 0.02214
 O514 O 0.50015 0.91511 0.01693
 O515 O 0.49850 0.95373 0.05837
 Zr516 Zr 0.49998 0.97634 -0.03414
 O517 O 0.50245 0.93320 -0.04301
 O518 O 0.49906 0.98936 -0.06911
 Zr519 Zr 0.45695 1.00198 0.00060
 Zr520 Zr 0.54270 1.00177 0.00095
 O521 O 0.52463 0.96251 -0.00693
 O522 O 0.47439 0.96226 -0.00723
 O523 O 0.52505 0.99195 0.03339
 O524 O 0.47533 1.01192 -0.03147
 O525 O 0.47461 0.99220 0.03294
 O526 O 0.52523 1.01193 -0.03149
 H527 H 0.53800 1.05715 0.01195
 H528 H 0.46314 1.01589 -0.04501
 H529 H 0.53733 0.94641 -0.01011
 H530 H 0.46190 0.98833 0.04617
 H531 H 0.50690 1.04288 -0.06416
 H532 H 0.49894 0.97194 -0.07846
 H533 H 0.48666 0.92337 -0.03515
 H534 H 0.50455 0.91208 0.00048
 H535 H 0.49725 0.93315 0.06115
 H536 H 0.49816 1.03199 0.08024
 H537 H 0.50153 1.07380 0.05905
 H538 H 0.50157 1.09912 -0.02143
 O539 O 1.03993 0.53521 0.55164
 O540 O 1.07154 0.51891 0.52470
 C541 C 1.06537 0.53098 0.54418
 O542 O 0.96040 0.43974 0.52938
 O543 O 0.92863 0.47324 0.51699
 C544 C 0.93494 0.44942 0.52700
 O545 O 1.03847 0.44075 0.53170
 O546 O 1.07062 0.47232 0.51678
 C547 C 1.06405 0.44974 0.52847
 O548 O 0.96204 0.53975 0.55066
 O549 O 0.92934 0.52238 0.52501
 C550 C 0.93632 0.53591 0.54366
 Zr551 Zr 1.00066 0.52727 0.53596
 O552 O 1.00000 0.51379 0.57086
 O553 O 1.00239 0.57098 0.54278
 Zr554 Zr 0.99961 0.45888 0.52195
 O555 O 0.99891 0.45177 0.55800
 O556 O 1.00115 0.41537 0.51436
 O557 O 1.02558 0.49143 0.53306
 O558 O 0.97522 0.49212 0.53325
 O559 O 0.96099 0.56410 0.47193
 O560 O 0.92883 0.53171 0.48560
 C561 C 0.93540 0.55503 0.47492
 O562 O 1.03783 0.46784 0.44958
 O563 O 1.07056 0.48343 0.47587
 C564 C 1.06356 0.47154 0.45653
 O565 O 0.95988 0.46499 0.45175
 O566 O 0.92825 0.48299 0.47790
 C567 C 0.93445 0.46933 0.45917
 O568 O 1.03890 0.56138 0.46858
 O569 O 1.07081 0.52951 0.48337
 C570 C 1.06436 0.55186 0.47136
 Zr571 Zr 0.99999 0.54515 0.48030
 O572 O 0.99930 0.56098 0.44610
 O573 O 1.00120 0.58627 0.49404
 Zr574 Zr 0.99910 0.47635 0.46595
 O575 O 0.99642 0.48580 0.43026
 O576 O 0.99991 0.43252 0.45980
 Zr577 Zr 1.04272 0.50138 0.50048
 Zr578 Zr 0.95695 0.50231 0.50122
 O579 O 0.97492 0.51224 0.46899
 O580 O 1.02456 0.51188 0.46831
 O581 O 0.97472 0.54174 0.50939
 O582 O 1.02429 0.46227 0.49268
 O583 O 1.02566 0.54087 0.50882
 O584 O 0.97378 0.46250 0.49303
 H585 H 0.96279 0.48828 0.54667
 H586 H 1.03677 0.44602 0.48937
 H587 H 0.96243 0.51616 0.45563
 H588 H 1.03880 0.55670 0.51180
 H589 H 0.98991 0.41258 0.50015
 H590 H 1.00000 0.43029 0.44281
 H591 H 1.00943 0.50171 0.42718
 H592 H 0.99311 0.54541 0.43607
 H593 H 1.00218 0.59922 0.48059
 H594 H 1.00325 0.57305 0.55977
 H595 H 0.99984 0.53094 0.58051
 H596 H 0.99807 0.43106 0.56017
 O597 O 0.93735 0.54067 -0.03057
 O598 O 0.96987 0.57183 -0.01595
 C599 C 0.94664 0.56595 -0.02697
 O600 O 0.96323 0.46015 0.04825
 O601 O 0.97971 0.42878 0.02138
 C602 C 0.96723 0.43482 0.04074
 O603 O 0.95994 0.53777 0.04771
 O604 O 0.97900 0.57055 0.02279
 C605 C 0.96465 0.56345 0.04111
 O606 O 0.93886 0.46298 -0.03463
 O607 O 0.97005 0.43040 -0.01979
 C608 C 0.94783 0.43741 -0.03176
 Zr609 Zr 0.95647 0.50137 -0.02368
 O610 O 0.91257 0.49931 -0.01693
 O611 O 0.95046 0.50369 -0.05980
 Zr612 Zr 0.97183 0.49941 0.03271
 O613 O 0.92761 0.49814 0.03778
 O614 O 0.97975 0.50031 0.06864
 O615 O 0.95892 0.52579 0.00596
 O616 O 0.95884 0.47548 0.00508
 O617 O 1.03524 0.46272 -0.05221
 O618 O 1.01708 0.43002 -0.02679
 C619 C 1.03042 0.43704 -0.04562
 O620 O 1.06048 0.53797 0.02862
 O621 O 1.02861 0.57050 0.01481
 C622 C 1.05161 0.56358 0.02575
 O623 O 1.05795 0.46009 0.03015
 O624 O 1.02639 0.42890 0.01423
 C625 C 1.04864 0.43485 0.02647
 O626 O 1.03915 0.54026 -0.04932
 O627 O 1.02009 0.57173 -0.02364
 C628 C 1.03486 0.56557 -0.04189
 Zr629 Zr 1.02532 0.50120 -0.03633
 O630 O 1.06798 0.50140 -0.04735
 O631 O 1.01044 0.50295 -0.07072
 Zr632 Zr 1.04110 0.49935 0.02019
 O633 O 1.08478 0.49703 0.01252
 O634 O 1.04840 0.49943 0.05619
 Zr635 Zr 0.99911 0.54306 -0.00100
 Zr636 Zr 0.99846 0.45762 -0.00235
 O637 O 1.03822 0.47548 -0.00934
 O638 O 1.03894 0.52547 -0.00866
 O639 O 0.98954 0.47601 -0.03477
 O640 O 1.00780 0.52397 0.03108
 O641 O 0.99005 0.52646 -0.03372
 O642 O 1.00752 0.47403 0.03053
 H643 H 0.94253 0.46278 0.00781
 H644 H 1.01147 0.53595 0.04470
 H645 H 1.05432 0.46266 -0.01222
 H646 H 0.98671 0.53965 -0.04677
 H647 H 0.99815 0.49088 0.07116
 H648 H 1.06920 0.49939 0.05826
 H649 H 1.08863 0.51099 0.00015
 H650 H 1.07919 0.49105 -0.03568
 H651 H 1.02746 0.50404 -0.08065
 H652 H 0.92975 0.50442 -0.06229
 H653 H 0.90916 0.51010 -0.00265
 H654 H 0.92467 0.49728 0.05470
 O655 O 0.46137 0.96248 0.44803
 O656 O 0.47741 0.92915 0.47384
 C657 C 0.46495 0.93664 0.45471
 O658 O 0.55980 1.03762 0.47004
 O659 O 0.52782 1.06952 0.48430
 C660 C 0.55097 1.06310 0.47339
 O661 O 0.55621 0.96006 0.46564
 O662 O 0.52441 0.92822 0.48063
 C663 C 0.54663 0.93471 0.46850
 O664 O 0.45887 1.04005 0.45152
 O665 O 0.47842 1.07071 0.47766
 C666 C 0.46388 1.06517 0.45915
 Zr667 Zr 0.47033 1.00043 0.46501
 O668 O 0.47735 1.00363 0.42904
 O669 O 0.42597 1.00009 0.46071
 Zr670 Zr 0.53992 0.99876 0.47711
 O671 O 0.54676 1.00131 0.44110
 O672 O 0.58367 0.99536 0.48428
 O673 O 0.50587 0.97460 0.46609
 O674 O 0.50668 1.02439 0.46732
 O675 O 0.43797 1.03767 0.53090
 O676 O 0.47073 1.06943 0.51720
 C677 C 0.44765 1.06303 0.52829
 O678 O 0.53323 0.95683 0.54811
 O679 O 0.51486 0.92604 0.52150
 C680 C 0.52819 0.93166 0.54059
 O681 O 0.53819 1.03480 0.54847
 O682 O 0.51988 1.06817 0.52370
 C683 C 0.53419 1.06063 0.54191
 O684 O 0.43842 0.95984 0.53210
 O685 O 0.46869 0.92802 0.51545
 C686 C 0.44704 0.93441 0.52824
 Zr687 Zr 0.45534 0.99870 0.52105
 O688 O 0.44144 0.99834 0.55573
 O689 O 0.41328 0.99920 0.50875
 Zr690 Zr 0.52505 0.99679 0.53349
 O691 O 0.51737 0.99777 0.56947
 O692 O 0.56923 0.99452 0.53850
 Zr693 Zr 0.49698 0.95605 0.49842
 Zr694 Zr 0.49860 1.04135 0.50012
 O695 O 0.48966 1.02210 0.53210
 O696 O 0.48854 0.97264 0.53139
 O697 O 0.45802 1.02533 0.49263
 O698 O 0.53714 0.97275 0.50569
 O699 O 0.45738 0.97446 0.49171
 O700 O 0.53839 1.02308 0.50680
 H701 H 0.51030 1.03721 0.45409
 H702 H 0.55314 0.95962 0.50819
 H703 H 0.48671 1.03396 0.54589
 H704 H 0.44106 0.96188 0.48877
 H705 H 0.58755 1.00715 0.49794
 H706 H 0.57218 0.99316 0.55541
 H707 H 0.50186 0.98434 0.57274
 H708 H 0.45818 1.00206 0.56543
 H709 H 0.40106 0.99814 0.52261
 H710 H 0.42259 1.00040 0.44384
 H711 H 0.49620 0.99539 0.42607
 H712 H 0.56753 1.00114 0.43885
 O713 O 1.02877 0.93052 0.53022
 O714 O 1.01518 0.96385 0.55662
 C715 C 1.02537 0.93938 0.55113
 O716 O 1.06975 1.02577 0.46906
 O717 O 1.03611 1.01332 0.44238
 C718 C 1.06045 1.02376 0.44810
 O719 O 1.06975 1.01978 0.53282
 O720 O 1.03406 1.00782 0.55792
 C721 C 1.05945 1.01670 0.55341
 O722 O 1.02705 0.93162 0.46632
 O723 O 1.01624 0.96749 0.44099
 C724 C 1.02493 0.94213 0.44568
 Zr725 Zr 1.02050 0.95072 0.49861
 O726 O 1.06212 0.93440 0.49826
 O727 O 0.99956 0.91132 0.49818
 Zr728 Zr 1.05032 1.01461 0.50046
 O729 O 1.08879 0.99198 0.49988
 O730 O 1.07117 1.05387 0.50310
 O731 O 1.03985 0.97968 0.52035
 O732 O 1.04057 0.98139 0.47919
 O733 O 0.93729 0.97329 0.46605
 O734 O 0.97248 0.98643 0.44087
 C735 C 0.94754 0.97646 0.44548
 O736 O 0.97591 1.06244 0.53193
 O737 O 0.98822 1.02737 0.55746
 C738 C 0.97806 1.05208 0.55256
 O739 O 0.98102 1.06600 0.46821
 O740 O 0.99252 1.03192 0.44187
 C741 C 0.98390 1.05697 0.44730
 O742 O 0.93491 0.97449 0.52997
 O743 O 0.96968 0.98381 0.55657
 C744 C 0.94431 0.97598 0.55095
 Zr745 Zr 0.95619 0.98008 0.49834
 O746 O 0.91393 0.99457 0.49766
 O747 O 0.94263 0.93766 0.49789
 Zr748 Zr 0.98592 1.04461 0.49985
 O749 O 0.94588 1.06434 0.49753
 O750 O 1.00717 1.08371 0.50189
 Zr751 Zr 1.00229 0.99650 0.53401
 Zr752 Zr 1.00389 0.99893 0.46463
 O753 O 0.96660 1.01528 0.47896
 O754 O 0.96532 1.01406 0.51956
 O755 O 0.98648 0.96120 0.47758
 O756 O 1.01977 1.03378 0.52044
 O757 O 0.98576 0.96004 0.51873
 O758 O 1.02091 1.03545 0.47970
 H759 H 1.05601 0.97507 0.46889
 H760 H 1.02635 1.04868 0.53108
 H761 H 0.95166 1.02260 0.46855
 H762 H 0.97865 0.94459 0.52875
 H763 H 1.05866 1.06802 0.49578
 H764 H 0.99228 1.09838 0.50205
 H765 H 0.93331 1.05490 0.50884
 H766 H 0.91453 1.01479 0.49359
 H767 H 0.92171 0.93824 0.49845
 H768 H 1.01439 0.89660 0.49849
 H769 H 1.06049 0.91363 0.49736
 H770 H 1.10400 1.00633 0.49983
 O771 O 0.56502 0.46765 -0.03457
 O772 O 0.53089 0.48375 -0.05960
 C773 C 0.55490 0.47164 -0.05510
 O774 O 0.47260 0.43327 0.03083
 O775 O 0.48966 0.46548 0.05680
 C776 C 0.47734 0.44193 0.05162
 O777 O 0.47327 0.43365 -0.03317
 O778 O 0.48608 0.46829 -0.05902
 C779 C 0.47578 0.44363 -0.05394
 O780 O 0.56888 0.46936 0.02919
 O781 O 0.53579 0.48273 0.05600
 C782 C 0.56010 0.47221 0.05024
 Zr783 Zr 0.54806 0.47781 -0.00222
 O784 O 0.56574 0.43689 -0.00152
 O785 O 0.58821 0.49728 -0.00377
 Zr786 Zr 0.48174 0.45241 -0.00108
 O787 O 0.50019 0.41187 -0.00119
 O788 O 0.44029 0.43566 -0.00198
 O789 O 0.51608 0.46040 -0.02238
 O790 O 0.51740 0.45970 0.01843
 O791 O 0.53397 0.56144 0.03091
 O792 O 0.51979 0.52748 0.05685
 C793 C 0.53140 0.55148 0.05166
 O794 O 0.43696 0.52974 -0.03077
 O795 O 0.46926 0.51506 -0.05770
 C796 C 0.44568 0.52693 -0.05180
 O797 O 0.43774 0.52465 0.03298
 O798 O 0.47279 0.51062 0.05794
 C799 C 0.44798 0.52103 0.05352
 O800 O 0.52669 0.56485 -0.03270
 O801 O 0.51340 0.53110 -0.05881
 C802 C 0.52289 0.55592 -0.05355
 Zr803 Zr 0.52321 0.54347 -0.00095
 O804 O 0.51200 0.58652 0.00077
 O805 O 0.56653 0.55411 -0.00293
 Zr806 Zr 0.45643 0.51836 0.00054
 O807 O 0.43948 0.55945 0.00349
 O808 O 0.41584 0.49973 0.00032
 Zr809 Zr 0.50090 0.49894 -0.03560
 Zr810 Zr 0.50345 0.49726 0.03380
 O811 O 0.48867 0.53552 0.01997
 O812 O 0.48698 0.53679 -0.02053
 O813 O 0.54148 0.51206 0.01916
 O814 O 0.46336 0.48415 -0.02040
 O815 O 0.53967 0.51297 -0.02221
 O816 O 0.46461 0.48289 0.02056
 H817 H 0.52366 0.44373 0.02826
 H818 H 0.44730 0.47864 -0.03040
 H819 H 0.48319 0.55086 0.03058
 H820 H 0.55462 0.51904 -0.03315
 H821 H 0.42851 0.44751 0.00819
 H822 H 0.40211 0.51548 0.00070
 H823 H 0.44873 0.57136 -0.00839
 H824 H 0.49145 0.58721 0.00369
 H825 H 0.56730 0.57495 -0.00359
 H826 H 0.60219 0.48177 -0.00455
 H827 H 0.55217 0.42438 -0.00943
 H828 H 0.48430 0.39826 -0.00094
 C829 C 0.32758 1.15144 0.14913
 N830 N 0.33319 1.14811 0.17196
 N831 N 0.32274 1.16595 0.18738
 C832 C 0.30637 1.18796 0.18060
 N833 N 0.30081 1.19143 0.15773
 N834 N 0.31129 1.17353 0.14226
 C835 C 0.33943 1.13142 0.13243
 N836 N 0.33451 1.13398 0.10938
 N837 N 0.34633 1.11611 0.09451
 C838 C 0.36339 1.09501 0.10221
 N839 N 0.36800 1.09239 0.12523
 N840 N 0.35620 1.11015 0.14004
 C841 C 0.37907 1.07681 0.08622
 N842 N 0.39998 1.06023 0.09471
 N843 N 0.41673 1.04593 0.08061
 C844 C 0.41301 1.04720 0.05743
 N845 N 0.39163 1.06324 0.04879
 N846 N 0.37494 1.07785 0.06298
 C847 C 0.83112 0.65332 0.65091
 N848 N 0.83675 0.64997 0.67374
 N849 N 0.82613 0.66767 0.68921
 C850 C 0.80958 0.68957 0.68247
 N851 N 0.80405 0.69309 0.65960
 N852 N 0.81468 0.67532 0.64409
 C853 C 0.84291 0.63329 0.63417
 N854 N 0.83751 0.63560 0.61117
 N855 N 0.84906 0.61759 0.59626
 C856 C 0.86631 0.59659 0.60387
 N857 N 0.87142 0.59424 0.62685
 N858 N 0.85989 0.61214 0.64169
 C859 C 0.88154 0.57811 0.58779
 N860 N 0.90255 0.56150 0.59609
 N861 N 0.91883 0.54687 0.58185
 C862 C 0.91454 0.54782 0.55872
 N863 N 0.89306 0.56389 0.55029
 N864 N 0.87683 0.57883 0.56461
 C865 C 0.67236 0.84143 0.14144
 N866 N 0.68004 0.81414 0.13837
 N867 N 0.69073 0.79907 0.15580
 C868 C 0.69371 0.81057 0.17707
 N869 N 0.68584 0.83780 0.18018
 N870 N 0.67545 0.85297 0.16268
 C871 C 0.66032 0.85798 0.12221
 N872 N 0.65905 0.88655 0.12322
 N873 N 0.64722 0.90141 0.10615
 C874 C 0.63604 0.88824 0.08750
 N875 N 0.63742 0.85970 0.08648
 N876 N 0.64953 0.84487 0.10341
 C877 C 0.62022 0.90424 0.06988
 N878 N 0.60035 0.89106 0.05697
 N879 N 0.58348 0.90574 0.04297
 C880 C 0.58620 0.93412 0.04092
 N881 N 0.60656 0.94730 0.05338
 N882 N 0.62321 0.93263 0.06767
 C883 C 1.17113 0.33787 0.63938
 N884 N 1.17839 0.31047 0.63623
 N885 N 1.18875 0.29513 0.65365
 C886 C 1.19179 0.30647 0.67498
 N887 N 1.18432 0.33380 0.67815
 N888 N 1.17428 0.34923 0.66068
 C889 C 1.15951 0.35482 0.62022
 N890 N 1.15858 0.38338 0.62152
 N891 N 1.14704 0.39866 0.60458
 C892 C 1.13581 0.38594 0.58575
 N893 N 1.13686 0.35739 0.58441
 N894 N 1.14869 0.34214 0.60123
 C895 C 1.12018 0.40243 0.56831
 N896 N 1.10033 0.38965 0.55511
 N897 N 1.08355 0.40475 0.54135
 C898 C 1.08633 0.43317 0.53983
 N899 N 1.10667 0.44596 0.55257
 N900 N 1.12324 0.43086 0.56662
 C901 C 0.67361 1.15823 -0.14163
 N902 N 0.68083 1.18571 -0.13894
 N903 N 0.69155 1.20051 -0.15650
 C904 C 0.69506 1.18854 -0.17753
 N905 N 0.68767 1.16110 -0.18027
 N906 N 0.67722 1.14620 -0.16263
 C907 C 0.66147 1.14205 -0.12225
 N908 N 0.66005 1.11347 -0.12289
 N909 N 0.64813 1.09899 -0.10564
 C910 C 0.63702 1.11257 -0.08718
 N911 N 0.63856 1.14113 -0.08652
 N912 N 0.65074 1.15557 -0.10363
 C913 C 0.62108 1.09705 -0.06935
 N914 N 0.60150 1.11073 -0.05652
 N915 N 0.58455 1.09653 -0.04227
 C916 C 0.58689 1.06816 -0.03988
 N917 N 0.60696 1.05448 -0.05227
 N918 N 0.62370 1.06867 -0.06681
 C919 C 1.17125 0.65718 0.35581
 N920 N 1.17425 0.64544 0.33463
 N921 N 1.18464 0.66045 0.31702
 C922 C 1.19258 0.68770 0.31998
 N923 N 1.18965 0.69937 0.34118
 N924 N 1.17899 0.68447 0.35870
 C925 C 1.15929 0.64092 0.37523
 N926 N 1.14942 0.65437 0.39419
 N927 N 1.13756 0.63993 0.41145
 C928 C 1.13552 0.61142 0.41060
 N929 N 1.14574 0.59789 0.39178
 N930 N 1.15734 0.61238 0.37438
 C931 C 1.12001 0.59595 0.42872
 N932 N 1.12223 0.56750 0.43098
 N933 N 1.10586 0.55344 0.44589
 C934 C 1.08657 0.56732 0.45893
 N935 N 1.08462 0.59574 0.45680
 N936 N 1.10122 0.60981 0.44219
 C937 C 0.32739 0.85518 -0.14975
 N938 N 0.33208 0.85939 -0.17262
 N939 N 0.32176 0.84162 -0.18819
 C940 C 0.30647 0.81879 -0.18150
 N941 N 0.30181 0.81448 -0.15859
 N942 N 0.31213 0.83231 -0.14299
 C943 C 0.33925 0.87497 -0.13283
 N944 N 0.33474 0.87171 -0.10978
 N945 N 0.34664 0.88927 -0.09469
 C946 C 0.36340 0.91074 -0.10214
 N947 N 0.36760 0.91407 -0.12517
 N948 N 0.35570 0.89663 -0.14020
 C949 C 0.37923 0.92856 -0.08592
 N950 N 0.40032 0.94513 -0.09416
 N951 N 0.41710 0.95910 -0.07984
 C952 C 0.41324 0.95753 -0.05668
 N953 N 0.39171 0.94149 -0.04830
 N954 N 0.37500 0.92719 -0.06270
 C955 C 0.82958 0.35110 0.35284
 N956 N 0.81381 0.32862 0.35970
 N957 N 0.80384 0.31042 0.34422
 C958 C 0.80942 0.31396 0.32136
 N959 N 0.82530 0.33635 0.31460
 N960 N 0.83523 0.35450 0.33003
 C961 C 0.84077 0.37153 0.36955
 N962 N 0.85667 0.39347 0.36193
 N963 N 0.86787 0.41164 0.37673
 C964 C 0.86352 0.40876 0.39977
 N965 N 0.84733 0.38698 0.40748
 N966 N 0.83609 0.36871 0.39261
 C967 C 0.87865 0.42746 0.41576
 N968 N 0.87512 0.42574 0.43905
 N969 N 0.89155 0.44070 0.45321
 C970 C 0.91204 0.45782 0.44452
 N971 N 0.91513 0.45979 0.42131
 N972 N 0.89864 0.44512 0.40723
 C973 C 1.15943 0.33358 0.14074
 N974 N 1.18632 0.32455 0.13727
 N975 N 1.20167 0.31451 0.15478
 C976 C 1.19089 0.31358 0.17649
 N977 N 1.16411 0.32293 0.18001
 N978 N 1.14866 0.33270 0.16245
 C979 C 1.14231 0.34415 0.12133
 N980 N 1.11383 0.34680 0.12337
 N981 N 1.09843 0.35707 0.10597
 C982 C 1.11096 0.36520 0.08591
 N983 N 1.13942 0.36243 0.08386
 N984 N 1.15477 0.35188 0.10116
 C985 C 1.09456 0.37960 0.06778
 N986 N 1.10787 0.39700 0.05262
 N987 N 1.09306 0.41324 0.03824
 C988 C 1.06439 0.41225 0.03803
 N989 N 1.05102 0.39428 0.05274
 N990 N 1.06586 0.37828 0.06740
 C991 C 0.65252 0.83301 0.64688
 N992 N 0.67427 0.81601 0.64052
 N993 N 0.69240 0.80607 0.65628
 C994 C 0.68954 0.81295 0.67892
 N995 N 0.66802 0.83021 0.68511
 N996 N 0.64996 0.84008 0.66942
 C997 C 0.63143 0.84336 0.63011
 N998 N 0.60928 0.85890 0.63768
 N999 N 0.59010 0.86887 0.62296
 C1000 C 0.59214 0.86362 0.60003
 N1001 N 0.61420 0.84787 0.59236
 N1002 N 0.63345 0.83781 0.60717
 C1003 C 0.57209 0.87731 0.58402
 N1004 N 0.57400 0.87417 0.56074
 N1005 N 0.55804 0.88979 0.54655
 C1006 C 0.53956 0.90897 0.55516
 N1007 N 0.53731 0.91153 0.57838
 N1008 N 0.55303 0.89587 0.59250
 C1009 C 1.15959 0.66779 -0.14672
 N1010 N 1.15661 0.66121 -0.16933
 N1011 N 1.17374 0.67221 -0.18518
 C1012 C 1.19473 0.69028 -0.17917
 N1013 N 1.19816 0.69645 -0.15641
 N1014 N 1.18092 0.68538 -0.14047
 C1015 C 1.13920 0.65631 -0.12987
 N1016 N 1.14126 0.66146 -0.10685
 N1017 N 1.12243 0.65050 -0.09209
 C1018 C 1.10081 0.63422 -0.09989
 N1019 N 1.09878 0.62936 -0.12287
 N1020 N 1.11751 0.64021 -0.13753
 C1021 C 1.08094 0.61986 -0.08412
 N1022 N 1.06218 0.60129 -0.09304
 N1023 N 1.04614 0.58547 -0.07931
 C1024 C 1.04777 0.58783 -0.05605
 N1025 N 1.06605 0.60691 -0.04696
 N1026 N 1.08235 0.62271 -0.06078
 C1027 C 0.66403 1.16565 0.36063
 N1028 N 0.65300 1.16743 0.33902
 N1029 N 0.66833 1.17772 0.32159
 C1030 C 0.69522 1.18678 0.32510
 N1031 N 0.70624 1.18502 0.34672
 N1032 N 0.69102 1.17441 0.36411
 C1033 C 0.64699 1.15442 0.37991
 N1034 N 0.65961 1.14494 0.39953
 N1035 N 0.64427 1.13390 0.41664
 C1036 C 0.61566 1.13238 0.41499
 N1037 N 0.60299 1.14222 0.39550
 N1038 N 0.61837 1.15295 0.37826
 C1039 C 0.59902 1.11775 0.43293
 N1040 N 0.57049 1.12085 0.43417
 N1041 N 0.55519 1.10499 0.44861
 C1042 C 0.56786 1.08534 0.46227
 N1043 N 0.59640 1.08257 0.46123
 N1044 N 0.61171 1.09867 0.44706
 C1045 C 0.84587 0.66414 0.15022
 N1046 N 0.84926 0.65818 0.17300
 N1047 N 0.83187 0.66901 0.18868
 C1048 C 0.81024 0.68608 0.18220
 N1049 N 0.80662 0.69183 0.15936
 N1050 N 0.82406 0.68100 0.14365
 C1051 C 0.86594 0.65276 0.13324
 N1052 N 0.86361 0.65879 0.11033
 N1053 N 0.88184 0.64797 0.09519
 C1054 C 0.90314 0.63086 0.10246
 N1055 N 0.90550 0.62508 0.12535
 N1056 N 0.88735 0.63587 0.14043
 C1057 C 0.92202 0.61657 0.08606
 N1058 N 0.93957 0.59616 0.09402
 N1059 N 0.95449 0.58056 0.07948
 C1060 C 0.95291 0.58499 0.05638
 N1061 N 0.93589 0.60590 0.04828
 N1062 N 0.92069 0.62145 0.06290
 C1063 C 0.33797 1.16067 0.64497
 N1064 N 0.34909 1.16288 0.66651
 N1065 N 0.33371 1.17325 0.68379
 C1066 C 0.30667 1.18185 0.68015
 N1067 N 0.29558 1.17952 0.65862
 N1068 N 0.31084 1.16892 0.64142
 C1069 C 0.35495 1.14984 0.62565
 N1070 N 0.34220 1.14196 0.60571
 N1071 N 0.35733 1.13176 0.58827
 C1072 C 0.38587 1.12950 0.58991
 N1073 N 0.39870 1.13768 0.60976
 N1074 N 0.38352 1.14763 0.62731
 C1075 C 0.40208 1.11585 0.57139
 N1076 N 0.43074 1.11760 0.57054
 N1077 N 0.44539 1.10247 0.55532
 C1078 C 0.43189 1.08499 0.54047
 N1079 N 0.40325 1.08360 0.54115
 N1080 N 0.38861 1.09898 0.55610
 C1081 C 0.83772 0.33778 -0.14712
 N1082 N 0.81071 0.32913 -0.14358
 N1083 N 0.79568 0.31812 -0.16076
 C1084 C 0.80689 0.31581 -0.18223
 N1085 N 0.83378 0.32486 -0.18586
 N1086 N 0.84894 0.33560 -0.16861
 C1087 C 0.85456 0.34896 -0.12790
 N1088 N 0.88316 0.35084 -0.12945
 N1089 N 0.89831 0.36119 -0.11204
 C1090 C 0.88541 0.37015 -0.09248
 N1091 N 0.85684 0.36821 -0.09094
 N1092 N 0.84172 0.35759 -0.10823
 C1093 C 0.90165 0.38426 -0.07425
 N1094 N 0.88837 0.40217 -0.05969
 N1095 N 0.90317 0.41782 -0.04503
 C1096 C 0.93174 0.41572 -0.04395
 N1097 N 0.94504 0.39725 -0.05808
 N1098 N 0.93024 0.38184 -0.07302
 C1099 C 0.34245 0.83723 0.34724
 N1100 N 0.34456 0.84419 0.32454
 N1101 N 0.32701 0.83316 0.30908
 C1102 C 0.30643 0.81489 0.31569
 N1103 N 0.30402 0.80817 0.33846
 N1104 N 0.32166 0.81920 0.35397
 C1105 C 0.36299 0.84868 0.36385
 N1106 N 0.36227 0.84154 0.38662
 N1107 N 0.38110 0.85227 0.40134
 C1108 C 0.40139 0.87039 0.39378
 N1109 N 0.40211 0.87732 0.37102
 N1110 N 0.38339 0.86661 0.35636
 C1111 C 0.42096 0.88443 0.40982
 N1112 N 0.43755 0.90560 0.40179
 N1113 N 0.45303 0.92091 0.41618
 C1114 C 0.45298 0.91544 0.43918
 N1115 N 0.43699 0.89372 0.44728
 N1116 N 0.42125 0.87845 0.43283
 C1117 C 1.15797 1.14986 0.34330
 N1118 N 1.17952 1.16598 0.35131
 N1119 N 1.19193 1.18492 0.33761
 C1120 C 1.18310 1.18832 0.31549
 N1121 N 1.16128 1.17247 0.30766
 N1122 N 1.14884 1.15367 0.32135
 C1123 C 1.14540 1.12789 0.35765
 N1124 N 1.12304 1.11282 0.34980
 N1125 N 1.11152 1.09269 0.36281
 C1126 C 1.12222 1.08678 0.38400
 N1127 N 1.14475 1.10168 0.39175
 N1128 N 1.15622 1.12186 0.37877
 C1129 C 1.10809 1.06673 0.39924
 N1130 N 1.11838 1.06210 0.42075
 N1131 N 1.10371 1.04695 0.43592
 C1132 C 1.07829 1.03586 0.43012
 N1133 N 1.06830 1.03981 0.40839
 N1134 N 1.08301 1.05499 0.39317
 C1135 C 0.63683 0.66525 -0.15937
 N1136 N 0.65306 0.68630 -0.15067
 N1137 N 0.67265 0.69882 -0.16372
 C1138 C 0.67660 0.69061 -0.18588
 N1139 N 0.66044 0.66950 -0.19445
 N1140 N 0.64102 0.65694 -0.18142
 C1141 C 0.61519 0.65146 -0.14532
 N1142 N 0.60142 0.62842 -0.15337
 N1143 N 0.58242 0.61511 -0.14033
 C1144 C 0.57635 0.62461 -0.11888
 N1145 N 0.58984 0.64788 -0.11097
 N1146 N 0.60892 0.66111 -0.12397
 C1147 C 0.55810 0.60837 -0.10341
 N1148 N 0.55329 0.61780 -0.08176
 N1149 N 0.54042 0.60146 -0.06632
 C1150 C 0.53183 0.57512 -0.07194
 N1151 N 0.53583 0.56592 -0.09383
 N1152 N 0.54875 0.58232 -0.10933
 C1153 C 0.86278 1.15721 0.66066
 N1154 N 0.86087 1.15072 0.68341
 N1155 N 0.84236 1.16397 0.69676
 C1156 C 0.82492 1.18394 0.68780
 N1157 N 0.82663 1.19027 0.66498
 N1158 N 0.84530 1.17713 0.65164
 C1159 C 0.88342 1.14299 0.64608
 N1160 N 0.88823 1.15233 0.62429
 N1161 N 0.90660 1.13912 0.61080
 C1162 C 0.92077 1.11610 0.61859
 N1163 N 0.91609 1.10680 0.64044
 N1164 N 0.89781 1.12014 0.65401
 C1165 C 0.93897 1.10055 0.60280
 N1166 N 0.94918 1.07462 0.60838
 N1167 N 0.96293 1.05936 0.59273
 C1168 C 0.96691 1.06964 0.57105
 N1169 N 0.95726 1.09578 0.56575
 N1170 N 0.94356 1.11095 0.58131
 C1171 C 0.34587 0.64196 0.15907
 N1172 N 0.32385 0.65702 0.15035
 N1173 N 0.31037 0.67577 0.16334
 C1174 C 0.31846 0.68008 0.18550
 N1175 N 0.34063 0.66519 0.19412
 N1176 N 0.35419 0.64658 0.18111
 C1177 C 0.35992 0.62054 0.14510
 N1178 N 0.38377 0.60754 0.15275
 N1179 N 0.39658 0.58820 0.13987
 C1180 C 0.38576 0.58098 0.11904
 N1181 N 0.36179 0.59381 0.11154
 N1182 N 0.34909 0.61322 0.12433
 C1183 C 0.40069 0.56152 0.10379
 N1184 N 0.38922 0.55506 0.08307
 N1185 N 0.40389 0.54051 0.06767
 C1186 C 0.43056 0.53173 0.07240
 N1187 N 0.44185 0.53746 0.09341
 N1188 N 0.42711 0.55208 0.10888
 C1189 C 1.13517 0.83059 0.66004
 N1190 N 1.15513 0.81315 0.65123
 N1191 N 1.17481 0.80183 0.66488
 C1192 C 1.17507 0.80756 0.68782
 N1193 N 1.15506 0.82510 0.69647
 N1194 N 1.13557 0.83650 0.68284
 C1195 C 1.11400 0.84367 0.64522
 N1196 N 1.09761 0.86487 0.65336
 N1197 N 1.07937 0.87804 0.63954
 C1198 C 1.07672 0.87017 0.61721
 N1199 N 1.09274 0.84863 0.60920
 N1200 N 1.11110 0.83559 0.62297
 C1201 C 1.05947 0.88652 0.60120
 N1202 N 1.05718 0.87807 0.57902
 N1203 N 1.04504 0.89462 0.56337
 C1204 C 1.03483 0.92026 0.56930
 N1205 N 1.03643 0.92852 0.59163
 N1206 N 1.04859 0.91187 0.60736
 C1207 C 0.66114 0.35046 0.15755
 N1208 N 0.68239 0.33389 0.14963
 N1209 N 0.69519 0.31555 0.16367
 C1210 C 0.68709 0.31318 0.18607
 N1211 N 0.66565 0.32956 0.19384
 N1212 N 0.65282 0.34777 0.17982
 C1213 C 0.64780 0.37150 0.14257
 N1214 N 0.62551 0.38681 0.15027
 N1215 N 0.61327 0.40597 0.13669
 C1216 C 0.62311 0.41066 0.11502
 N1217 N 0.64552 0.39550 0.10739
 N1218 N 0.65770 0.37628 0.12094
 C1219 C 0.60847 0.43004 0.09936
 N1220 N 0.61825 0.43390 0.07759
 N1221 N 0.60341 0.44879 0.06233
 C1222 C 0.57828 0.46044 0.06827
 N1223 N 0.56877 0.45719 0.09023
 N1224 N 0.58367 0.44227 0.10554
 C1225 C 0.84350 0.85981 0.33890
 N1226 N 0.85225 0.85508 0.31701
 N1227 N 0.83918 0.83614 0.30401
 C1228 C 0.81710 0.82103 0.31251
 N1229 N 0.80856 0.82547 0.33453
 N1230 N 0.82156 0.84456 0.34751
 C1231 C 0.85726 0.88131 0.35286
 N1232 N 0.84637 0.88849 0.37363
 N1233 N 0.85916 0.90770 0.38657
 C1234 C 0.88322 0.92044 0.37918
 N1235 N 0.89402 0.91344 0.35831
 N1236 N 0.88114 0.89430 0.34530
 C1237 C 0.89860 0.93908 0.39471
 N1238 N 0.92515 0.94811 0.38961
 N1239 N 0.94049 0.96164 0.40535
 C1240 C 0.92970 0.96656 0.42665
 N1241 N 0.90290 0.95824 0.43142
 N1242 N 0.88762 0.94478 0.41575
 C1243 C 0.35646 0.34061 -0.16149
 N1244 N 0.35477 0.34709 -0.18427
 N1245 N 0.33651 0.33372 -0.19780
 C1246 C 0.31908 0.31359 -0.18904
 N1247 N 0.32054 0.30729 -0.16620
 N1248 N 0.33896 0.32056 -0.15266
 C1249 C 0.37714 0.35478 -0.14674
 N1250 N 0.38166 0.34556 -0.12486
 N1251 N 0.40033 0.35846 -0.11139
 C1252 C 0.41514 0.38105 -0.11926
 N1253 N 0.41069 0.39028 -0.14118
 N1254 N 0.39211 0.37725 -0.15473
 C1255 C 0.43410 0.39612 -0.10360
 N1256 N 0.44531 0.42157 -0.10943
 N1257 N 0.45998 0.43638 -0.09401
 C1258 C 0.46403 0.42611 -0.07232
 N1259 N 0.45336 0.40041 -0.06679
 N1260 N 0.43872 0.38569 -0.08212
 C1261 C 1.14838 0.33086 -0.15196
 N1262 N 1.14560 0.33652 -0.17484
 N1263 N 1.16357 0.32572 -0.19007
 C1264 C 1.18521 0.30898 -0.18305
 N1265 N 1.18817 0.30341 -0.16012
 N1266 N 1.17011 0.31421 -0.14484
 C1267 C 1.12802 0.34290 -0.13550
 N1268 N 1.12937 0.33708 -0.11251
 N1269 N 1.11108 0.34882 -0.09787
 C1270 C 1.09076 0.36672 -0.10574
 N1271 N 1.08938 0.37228 -0.12871
 N1272 N 1.10754 0.36053 -0.14329
 C1273 C 1.07210 0.38214 -0.08987
 N1274 N 1.05668 0.40404 -0.09816
 N1275 N 1.04208 0.42040 -0.08396
 C1276 C 1.04184 0.41530 -0.06091
 N1277 N 1.05668 0.39294 -0.05253
 N1278 N 1.07160 0.37664 -0.06679
 C1279 C 0.65676 0.83222 0.35486
 N1280 N 0.68398 0.82452 0.35875
 N1281 N 0.69976 0.81419 0.34177
 C1282 C 0.68909 0.81155 0.32013
 N1283 N 0.66192 0.81951 0.31615
 N1284 N 0.64603 0.82961 0.33323
 C1285 C 0.63948 0.84346 0.37381
 N1286 N 0.61095 0.84569 0.37181
 N1287 N 0.59557 0.85648 0.38891
 C1288 C 0.60819 0.86554 0.40858
 N1289 N 0.63668 0.86319 0.41057
 N1290 N 0.65200 0.85216 0.39360
 C1291 C 0.59190 0.88025 0.42646
 N1292 N 0.60542 0.89771 0.44126
 N1293 N 0.59084 0.91382 0.45570
 C1294 C 0.56220 0.91266 0.45633
 N1295 N 0.54860 0.89467 0.44195
 N1296 N 0.56321 0.87878 0.42722
 C1297 C 0.83889 0.67462 -0.13926
 N1298 N 0.85091 0.67800 -0.16039
 N1299 N 0.83598 0.68837 -0.17804
 C1300 C 0.80852 0.69594 -0.17518
 N1301 N 0.79655 0.69265 -0.15403
 N1302 N 0.81138 0.68198 -0.13646
 C1303 C 0.85516 0.66267 -0.11983
 N1304 N 0.84163 0.65184 -0.10111
 N1305 N 0.85618 0.63988 -0.08395
 C1306 C 0.88486 0.63871 -0.08466
 N1307 N 0.89842 0.64992 -0.10323
 N1308 N 0.88384 0.66161 -0.12052
 C1309 C 0.90062 0.62297 -0.06683
 N1310 N 0.92906 0.62598 -0.06450
 N1311 N 0.94363 0.60921 -0.05025
 C1312 C 0.93031 0.58871 -0.03792
 N1313 N 0.90186 0.58602 -0.04003
 N1314 N 0.88726 0.60301 -0.05399
 C1315 C 0.34812 1.17621 0.35364
 N1316 N 0.32567 1.19220 0.36013
 N1317 N 0.30803 1.20287 0.34431
 C1318 C 0.31216 1.19777 0.32148
 N1319 N 0.33453 1.18172 0.31513
 N1320 N 0.35209 1.17114 0.33086
 C1321 C 0.36797 1.16403 0.37057
 N1322 N 0.38990 1.14822 0.36297
 N1323 N 0.40759 1.13602 0.37780
 C1324 C 0.40423 1.13922 0.40088
 N1325 N 0.38246 1.15531 0.40861
 N1326 N 0.36466 1.16756 0.39369
 C1327 C 0.42247 1.12301 0.41673
 N1328 N 0.42073 1.12558 0.44007
 N1329 N 0.43545 1.10839 0.45396
 C1330 C 0.45232 1.08806 0.44492
 N1331 N 0.45424 1.08588 0.42166
 N1332 N 0.43983 1.10313 0.40787
 C1333 C 1.16033 0.66482 0.14097
 N1334 N 1.18781 0.67216 0.13796
 N1335 N 1.20277 0.68273 0.15535
 C1336 C 1.19100 0.68594 0.17654
 N1337 N 1.16357 0.67831 0.17965
 N1338 N 1.14849 0.66801 0.16216
 C1339 C 1.14388 0.65355 0.12154
 N1340 N 1.11519 0.65276 0.12223
 N1341 N 1.10048 0.64214 0.10466
 C1342 C 1.11395 0.63178 0.08583
 N1343 N 1.14262 0.63263 0.08515
 N1344 N 1.15729 0.64353 0.10258
 C1345 C 1.09807 0.61734 0.06755
 N1346 N 1.11126 0.59806 0.05414
 N1347 N 1.09654 0.58217 0.03959
 C1348 C 1.06815 0.58537 0.03746
 N1349 N 1.05501 0.60522 0.05038
 N1350 N 1.06970 0.62088 0.06521
 C1351 C 0.65517 1.16319 0.64857
 N1352 N 0.67691 1.18002 0.64176
 N1353 N 0.69471 1.19073 0.65729
 C1354 C 0.69148 1.18489 0.68015
 N1355 N 0.66987 1.16793 0.68685
 N1356 N 0.65215 1.15722 0.67137
 C1357 C 0.63490 1.15153 0.63190
 N1358 N 0.61394 1.13434 0.63951
 N1359 N 0.59562 1.12312 0.62479
 C1360 C 0.59733 1.12875 0.60185
 N1361 N 0.61816 1.14617 0.59414
 N1362 N 0.63660 1.15741 0.60893
 C1363 C 0.57829 1.11394 0.58591
 N1364 N 0.57821 1.11923 0.56279
 N1365 N 0.56268 1.10346 0.54855
 C1366 C 0.54680 1.08186 0.55701
 N1367 N 0.54667 1.07697 0.58008
 N1368 N 0.56189 1.09280 0.59424
 C1369 C 0.85229 0.32536 0.14828
 N1370 N 0.83041 0.30855 0.14184
 N1371 N 0.81275 0.29788 0.15765
 C1372 C 0.81628 0.30378 0.18042
 N1373 N 0.83808 0.32065 0.18672
 N1374 N 0.85565 0.33125 0.17099
 C1375 C 0.87215 0.33755 0.13132
 N1376 N 0.89321 0.35463 0.13876
 N1377 N 0.91088 0.36673 0.12385
 C1378 C 0.90840 0.36215 0.10086
 N1379 N 0.88750 0.34480 0.09331
 N1380 N 0.86971 0.33266 0.10830
 C1381 C 0.92659 0.37808 0.08475
 N1382 N 0.92574 0.37402 0.06152
 N1383 N 0.94030 0.39086 0.04725
 C1384 C 0.95614 0.41234 0.05575
 N1385 N 0.95725 0.41599 0.07892
 N1386 N 0.94300 0.39909 0.09312
 C1387 C 0.33707 0.83065 0.64242
 N1388 N 0.34583 0.83336 0.66462
 N1389 N 0.33037 0.82309 0.68197
 C1390 C 0.30563 0.80939 0.67783
 N1391 N 0.29689 0.80677 0.65556
 N1392 N 0.31218 0.81738 0.63824
 C1393 C 0.35417 0.84205 0.62328
 N1394 N 0.34217 0.84789 0.60250
 N1395 N 0.35745 0.85919 0.58545
 C1396 C 0.38542 0.86457 0.58839
 N1397 N 0.39751 0.85834 0.60907
 N1398 N 0.38215 0.84740 0.62622
 C1399 C 0.40165 0.87938 0.57034
 N1400 N 0.43038 0.87876 0.57022
 N1401 N 0.44503 0.89475 0.55544
 C1402 C 0.43146 0.91206 0.54033
 N1403 N 0.40277 0.91247 0.54034
 N1404 N 0.38814 0.89618 0.55485
 C1405 C 0.33266 1.16345 -0.14134
 N1406 N 0.32426 1.19060 -0.13865
 N1407 N 0.31352 1.20513 -0.15638
 C1408 C 0.31125 1.19325 -0.17757
 N1409 N 0.31998 1.16622 -0.18031
 N1410 N 0.33040 1.15158 -0.16253
 C1411 C 0.34396 1.14715 -0.12166
 N1412 N 0.34514 1.11858 -0.12240
 N1413 N 0.35593 1.10385 -0.10481
 C1414 C 0.36611 1.11714 -0.08585
 N1415 N 0.36487 1.14572 -0.08510
 N1416 N 0.35377 1.16043 -0.10257
 C1417 C 0.38078 1.10115 -0.06755
 N1418 N 0.39999 1.11422 -0.05392
 N1419 N 0.41612 1.09940 -0.03943
 C1420 C 0.41326 1.07101 -0.03758
 N1421 N 0.39346 1.05798 -0.05073
 N1422 N 0.37757 1.07277 -0.06549
 C1423 C 0.83454 0.66613 0.35995
 N1424 N 0.82623 0.69327 0.36282
 N1425 N 0.81575 0.70809 0.34515
 C1426 C 0.81367 0.69651 0.32383
 N1427 N 0.82231 0.66948 0.32091
 N1428 N 0.83248 0.65456 0.33864
 C1429 C 0.84547 0.64948 0.37957
 N1430 N 0.84658 0.62091 0.37852
 N1431 N 0.85701 0.60586 0.39607
 C1432 C 0.86688 0.61880 0.41530
 N1433 N 0.86570 0.64736 0.41636
 N1434 N 0.85497 0.66239 0.39893
 C1435 C 0.88121 0.60244 0.43358
 N1436 N 0.90017 0.61525 0.44761
 N1437 N 0.91610 0.60014 0.46205
 C1438 C 0.91326 0.57171 0.46346
 N1439 N 0.89370 0.55894 0.44992
 N1440 N 0.87801 0.57403 0.43520
 C1441 C 0.66769 1.15039 0.15213
 N1442 N 0.68511 1.17162 0.14527
 N1443 N 0.69589 1.18946 0.16067
 C1444 C 0.68951 1.18683 0.18347
 N1445 N 0.67191 1.16575 0.19023
 N1446 N 0.66114 1.14798 0.17487
 C1447 C 0.65615 1.12996 0.13555
 N1448 N 0.63871 1.10919 0.14313
 N1449 N 0.62762 1.09082 0.12843
 C1450 C 0.63362 1.09231 0.10555
 N1451 N 0.65130 1.11294 0.09791
 N1452 N 0.66242 1.13140 0.11267
 C1453 C 0.61888 1.07336 0.08948
 N1454 N 0.62391 1.07395 0.06635
 N1455 N 0.60789 1.05895 0.05192
 C1456 C 0.58631 1.04285 0.06015
 N1457 N 0.58176 1.04193 0.08326
 N1458 N 0.59784 1.05666 0.09762
 C1459 C 1.16707 0.65121 0.65068
 N1460 N 1.18332 0.67327 0.64365
 N1461 N 1.19356 0.69152 0.65897
 C1462 C 1.18777 0.68849 0.68184
 N1463 N 1.17131 0.66660 0.68876
 N1464 N 1.16109 0.64840 0.67349
 C1465 C 1.15616 0.63038 0.63417
 N1466 N 1.13998 0.60869 0.64189
 N1467 N 1.12939 0.58998 0.62723
 C1468 C 1.13468 0.59204 0.60426
 N1469 N 1.15111 0.61360 0.59648
 N1470 N 1.16173 0.63239 0.61119
 C1471 C 1.12028 0.57276 0.58827
 N1472 N 1.12446 0.57414 0.56505
 N1473 N 1.10847 0.55896 0.55073
 C1474 C 1.08779 0.54188 0.55917
 N1475 N 1.08413 0.54015 0.58235
 N1476 N 1.10018 0.55506 0.59660
 C1477 C 0.66363 0.84982 -0.14932
 N1478 N 0.68062 0.82829 -0.14240
 N1479 N 0.69095 0.81015 -0.15775
 C1480 C 0.68451 0.81277 -0.18054
 N1481 N 0.66726 0.83410 -0.18734
 N1482 N 0.65695 0.85218 -0.17204
 C1483 C 0.65292 0.87073 -0.13284
 N1484 N 0.63640 0.89219 -0.14050
 N1485 N 0.62619 0.91111 -0.12586
 C1486 C 0.63221 0.90950 -0.10299
 N1487 N 0.64895 0.88816 -0.09527
 N1488 N 0.65921 0.86916 -0.10996
 C1489 C 0.61831 0.92906 -0.08698
 N1490 N 0.62293 0.92791 -0.06381
 N1491 N 0.60733 0.94337 -0.04942
 C1492 C 0.58663 0.96049 -0.05775
 N1493 N 0.58256 0.96201 -0.08089
 N1494 N 0.59822 0.94682 -0.09521
 C1495 C 1.16396 0.35106 0.34929
 N1496 N 1.18136 0.32985 0.35619
 N1497 N 1.19187 0.31180 0.34085
 C1498 C 1.18520 0.31420 0.31809
 N1499 N 1.16757 0.33522 0.31130
 N1500 N 1.15708 0.35321 0.32660
 C1501 C 1.15292 0.37180 0.36576
 N1502 N 1.13565 0.39269 0.35816
 N1503 N 1.12507 0.41141 0.37280
 C1504 C 1.13147 0.41016 0.39561
 N1505 N 1.14898 0.38941 0.40327
 N1506 N 1.15959 0.37061 0.38858
 C1507 C 1.11723 0.42943 0.41166
 N1508 N 1.12257 0.42894 0.43474
 N1509 N 1.10686 0.44415 0.44923
 C1510 C 1.08530 0.46033 0.44109
 N1511 N 1.08047 0.46117 0.41802
 N1512 N 1.09624 0.44624 0.40360
 C1513 C 0.33251 0.83590 0.13866
 N1514 N 0.32988 0.84728 0.15999
 N1515 N 0.31973 0.83203 0.17753
 C1516 C 0.31169 0.80485 0.17439
 N1517 N 0.31433 0.79346 0.15305
 N1518 N 0.32479 0.80862 0.13557
 C1519 C 0.34354 0.85287 0.11927
 N1520 N 0.35350 0.84026 0.09995
 N1521 N 0.36443 0.85559 0.08277
 C1522 C 0.36535 0.88414 0.08407
 N1523 N 0.35501 0.89678 0.10325
 N1524 N 0.34437 0.88143 0.12055
 C1525 C 0.37997 0.90080 0.06615
 N1526 N 0.37677 0.92923 0.06479
 N1527 N 0.39275 0.94457 0.05048
 C1528 C 0.41262 0.93205 0.03709
 N1529 N 0.41545 0.90361 0.03822
 N1530 N 0.39924 0.88825 0.05226
 C1531 C 0.83370 0.33601 0.64006
 N1532 N 0.82590 0.30875 0.63693
 N1533 N 0.81566 0.29351 0.65446
 C1534 C 0.81331 0.30478 0.67586
 N1535 N 0.82143 0.33194 0.67902
 N1536 N 0.83136 0.34727 0.66146
 C1537 C 0.84448 0.35310 0.62064
 N1538 N 0.84544 0.38164 0.62206
 N1539 N 0.85588 0.39709 0.60474
 C1540 C 0.86590 0.38457 0.58539
 N1541 N 0.86485 0.35603 0.58395
 N1542 N 0.85412 0.34060 0.60115
 C1543 C 0.88033 0.40132 0.56742
 N1544 N 0.89922 0.38877 0.55320
 N1545 N 0.91529 0.40414 0.53907
 C1546 C 0.91269 0.43262 0.53818
 N1547 N 0.89319 0.44516 0.55190
 N1548 N 0.87735 0.42979 0.56630
 C1549 C 1.16172 1.13422 0.66110
 N1550 N 1.18244 1.15099 0.65236
 N1551 N 1.19462 1.17056 0.66542
 C1552 C 1.18649 1.17398 0.68768
 N1553 N 1.16571 1.15726 0.69635
 N1554 N 1.15343 1.13783 0.68328
 C1555 C 1.14846 1.11252 0.64687
 N1556 N 1.12521 1.09846 0.65447
 N1557 N 1.11265 1.07934 0.64121
 C1558 C 1.12314 1.07341 0.62000
 N1559 N 1.14659 1.08722 0.61255
 N1560 N 1.15904 1.10643 0.62574
 C1561 C 1.10806 1.05456 0.60431
 N1562 N 1.11903 1.04924 0.58319
 N1563 N 1.10398 1.03549 0.56751
 C1564 C 1.07741 1.02647 0.57232
 N1565 N 1.06664 1.03106 0.59370
 N1566 N 1.08176 1.04484 0.60945
 C1567 C 0.64937 0.65419 0.16017
 N1568 N 0.66594 0.67515 0.15161
 N1569 N 0.68350 0.68913 0.16537
 C1570 C 0.68502 0.68262 0.18816
 N1571 N 0.66860 0.66152 0.19666
 N1572 N 0.65115 0.64746 0.18289
 C1573 C 0.62932 0.63967 0.14522
 N1574 N 0.61459 0.61694 0.15299
 N1575 N 0.59635 0.60381 0.13923
 C1576 C 0.59205 0.61319 0.11734
 N1577 N 0.60664 0.63602 0.10969
 N1578 N 0.62494 0.64904 0.12338
 C1579 C 0.57345 0.59819 0.10149
 N1580 N 0.56946 0.60858 0.07992
 N1581 N 0.55491 0.59402 0.06445
 C1582 C 0.54375 0.56854 0.06996
 N1583 N 0.54720 0.55829 0.09171
 N1584 N 0.56181 0.57293 0.10726
 C1585 C 1.14181 0.84023 0.33642
 N1586 N 1.15875 0.81957 0.34500
 N1587 N 1.17733 0.80662 0.33145
 C1588 C 1.17958 0.81387 0.30883
 N1589 N 1.16273 0.83463 0.30031
 N1590 N 1.14428 0.84768 0.31388
 C1591 C 1.12090 0.85395 0.35121
 N1592 N 1.10647 0.87699 0.34370
 N1593 N 1.08782 0.88968 0.35738
 C1594 C 1.08275 0.87953 0.37894
 N1595 N 1.09697 0.85634 0.38631
 N1596 N 1.11571 0.84377 0.37271
 C1597 C 1.06407 0.89446 0.39488
 N1598 N 1.05920 0.88353 0.41617
 N1599 N 1.04520 0.89828 0.43188
 C1600 C 1.03547 0.92450 0.42691
 N1601 N 1.03970 0.93524 0.40540
 N1602 N 1.05371 0.92042 0.38962
 C1603 C 0.65864 0.35634 -0.16382
 N1604 N 0.65110 0.35311 -0.18621
 N1605 N 0.66458 0.33468 -0.19944
 C1606 C 0.68585 0.31866 -0.19069
 N1607 N 0.69322 0.32168 -0.16822
 N1608 N 0.67984 0.34025 -0.15502
 C1609 C 0.64437 0.37700 -0.14938
 N1610 N 0.65452 0.38274 -0.12806
 N1611 N 0.64139 0.40114 -0.11462
 C1612 C 0.61764 0.41446 -0.12199
 N1613 N 0.60751 0.40886 -0.14339
 N1614 N 0.62077 0.39052 -0.15691
 C1615 C 0.60231 0.43265 -0.10610
 N1616 N 0.57617 0.44280 -0.11124
 N1617 N 0.56121 0.45655 -0.09537
 C1618 C 0.57201 0.46054 -0.07391
 N1619 N 0.59835 0.45094 -0.06908
 N1620 N 0.61322 0.43730 -0.08486
 C1621 C 0.86145 1.16045 0.34425
 N1622 N 0.84632 1.18262 0.35237
 N1623 N 0.82650 1.19478 0.33932
 C1624 C 0.82114 1.18505 0.31778
 N1625 N 0.83605 1.16270 0.30988
 N1626 N 0.85572 1.15052 0.32290
 C1627 C 0.88402 1.14759 0.35792
 N1628 N 0.89780 1.12454 0.34993
 N1629 N 0.91805 1.11235 0.36242
 C1630 C 0.92543 1.12299 0.38322
 N1631 N 0.91189 1.14625 0.39108
 N1632 N 0.89158 1.15840 0.37862
 C1633 C 0.94518 1.10783 0.39818
 N1634 N 0.95093 1.11781 0.41952
 N1635 N 0.96511 1.10213 0.43467
 C1636 C 0.97415 1.07594 0.42902
 N1637 N 0.96926 1.06628 0.40740
 N1638 N 0.95503 1.08200 0.39221
 C1639 C 0.34276 0.64866 -0.15767
 N1640 N 0.32197 0.66541 -0.14925
 N1641 N 0.30879 0.68380 -0.16298
 C1642 C 0.31604 0.68595 -0.18557
 N1643 N 0.33699 0.66935 -0.19388
 N1644 N 0.35021 0.65111 -0.18016
 C1645 C 0.35657 0.62775 -0.14299
 N1646 N 0.37874 0.61259 -0.15106
 N1647 N 0.39146 0.59356 -0.13766
 C1648 C 0.38218 0.58890 -0.11583
 N1649 N 0.35987 0.60391 -0.10784
 N1650 N 0.34724 0.62300 -0.12120
 C1651 C 0.39720 0.56971 -0.10038
 N1652 N 0.38769 0.56585 -0.07855
 N1653 N 0.40272 0.55099 -0.06344
 C1654 C 0.42778 0.53940 -0.06961
 N1655 N 0.43707 0.54268 -0.09162
 N1656 N 0.42197 0.55760 -0.10679
 C1657 C 0.83700 0.86180 0.65903
 N1658 N 0.81702 0.84407 0.65057
 N1659 N 0.80456 0.82518 0.66431
 C1660 C 0.81170 0.82345 0.68696
 N1661 N 0.83174 0.84112 0.69533
 N1662 N 0.84427 0.85985 0.68160
 C1663 C 0.85066 0.88272 0.64415
 N1664 N 0.87294 0.89791 0.65206
 N1665 N 0.88598 0.91641 0.63837
 C1666 C 0.87698 0.92056 0.61639
 N1667 N 0.85449 0.90561 0.60859
 N1668 N 0.84154 0.88701 0.62223
 C1669 C 0.89281 0.93872 0.60056
 N1670 N 0.88345 0.94260 0.57867
 N1671 N 0.89940 0.95598 0.56322
 C1672 C 0.92528 0.96597 0.56908
 N1673 N 0.93440 0.96274 0.59115
 N1674 N 0.91838 0.94938 0.60665
 C1675 C 0.35532 0.34162 0.15693
 N1676 N 0.34003 0.31950 0.14894
 N1677 N 0.32056 0.30724 0.16223
 C1678 C 0.31577 0.31682 0.18388
 N1679 N 0.33080 0.33916 0.19167
 N1680 N 0.35014 0.35145 0.17839
 C1681 C 0.37759 0.35432 0.14299
 N1682 N 0.39160 0.37741 0.15064
 N1683 N 0.41168 0.38934 0.13781
 C1684 C 0.41860 0.37833 0.11704
 N1685 N 0.40482 0.35503 0.10955
 N1686 N 0.38469 0.34317 0.12234
 C1687 C 0.43806 0.39304 0.10167
 N1688 N 0.44270 0.38278 0.08026
 N1689 N 0.45674 0.39796 0.06474
 C1690 C 0.46671 0.42389 0.07007
 N1691 N 0.46289 0.43387 0.09174
 N1692 N 0.44875 0.41865 0.10731
   
