data_POSCAR
  _audit_creation_date              2014-09-24
  _audit_creation_method            'ToBaCCo'
  _symmetry_space_group_name_H-M    'P1'
  _symmetry_Int_Tables_number       1
  _symmetry_cell_setting            triclinic
  loop_
  _symmetry_equiv_pos_as_xyz
 x,y,z
_cell_length_a 86.8407
_cell_length_b 86.8332
_cell_length_c 86.8655
_cell_angle_alpha 89.988400
_cell_angle_beta 89.982300
_cell_angle_gamma 90.042100
loop_
  _atom_site_label
  _atom_site_type_symbol
  _atom_site_fract_x
  _atom_site_fract_y
  _atom_site_fract_z
N1 N 0.18334 0.21988 0.22343
 N2 N 0.18748 0.20766 0.23135
 C3 C 0.17761 0.20572 0.24317
 C4 C 0.16677 0.21735 0.24258
 C5 C 0.17074 0.22613 0.22993
 H6 H 0.17822 0.19656 0.25159
 H7 H 0.16485 0.23628 0.22576
 Cu8 Cu 0.20532 0.19549 0.22529
 Cu9 Cu 0.19449 0.22678 0.20524
 Cu10 Cu 0.22652 0.20552 0.19448
 N11 N 0.22350 0.18381 0.21930
 N12 N 0.23166 0.18775 0.20716
 C13 C 0.24339 0.17777 0.20545
 C14 C 0.24255 0.16703 0.21715
 C15 C 0.22983 0.17119 0.22576
 H16 H 0.25190 0.17825 0.19636
 H17 H 0.22551 0.16540 0.23590
 N18 N 0.21949 0.22387 0.18312
 N19 N 0.20725 0.23193 0.18719
 C20 C 0.20542 0.24367 0.17721
 C21 C 0.21706 0.24295 0.16641
 C22 C 0.22577 0.23030 0.17047
 H23 H 0.19634 0.25216 0.17774
 H24 H 0.23592 0.22612 0.16460
 H25 H 0.20318 0.20549 0.19913
 H26 H 0.21557 0.21780 0.21167
 N27 N 0.68349 0.72009 0.72333
 N28 N 0.68763 0.70784 0.73122
 C29 C 0.67774 0.70585 0.74301
 C30 C 0.66688 0.71747 0.74243
 C31 C 0.67087 0.72630 0.72982
 H32 H 0.67836 0.69669 0.75142
 H33 H 0.66499 0.73647 0.72568
 Cu34 Cu 0.70570 0.69595 0.72533
 Cu35 Cu 0.69470 0.72708 0.70519
 Cu36 Cu 0.72675 0.70580 0.69441
 N37 N 0.72364 0.68400 0.71916
 N38 N 0.73181 0.68796 0.70703
 C39 C 0.74351 0.67795 0.70528
 C40 C 0.74264 0.66718 0.71696
 C41 C 0.72992 0.67135 0.72557
 H42 H 0.75204 0.67845 0.69622
 H43 H 0.72561 0.66557 0.73572
 N44 N 0.71977 0.72423 0.68313
 N45 N 0.70753 0.73229 0.68721
 C46 C 0.70570 0.74403 0.67724
 C47 C 0.71733 0.74332 0.66643
 C48 C 0.72605 0.73066 0.67049
 H49 H 0.69660 0.75251 0.67775
 H50 H 0.73619 0.72647 0.66460
 H51 H 0.70345 0.70581 0.69916
 H52 H 0.71587 0.71823 0.71155
 N53 N 0.31640 0.78036 0.72347
 N54 N 0.31227 0.79261 0.73136
 C55 C 0.32214 0.79457 0.74318
 C56 C 0.33299 0.78292 0.74261
 C57 C 0.32900 0.77412 0.72999
 H58 H 0.32152 0.80372 0.75160
 H59 H 0.33487 0.76395 0.72584
 Cu60 Cu 0.29425 0.80455 0.72533
 Cu61 Cu 0.30521 0.77336 0.70531
 Cu62 Cu 0.27316 0.79468 0.69451
 N63 N 0.27622 0.81648 0.71930
 N64 N 0.26807 0.81256 0.70715
 C65 C 0.25635 0.82256 0.70542
 C66 C 0.25716 0.83332 0.71714
 C67 C 0.26989 0.82911 0.72577
 H68 H 0.24786 0.82205 0.69632
 H69 H 0.27420 0.83484 0.73595
 N70 N 0.28017 0.77623 0.68321
 N71 N 0.29240 0.76817 0.68730
 C72 C 0.29423 0.75641 0.67734
 C73 C 0.28260 0.75711 0.66654
 C74 C 0.27389 0.76978 0.67057
 H75 H 0.30332 0.74792 0.67787
 H76 H 0.26375 0.77396 0.66468
 H77 H 0.29648 0.79456 0.69917
 H78 H 0.28407 0.78223 0.71164
 N79 N 0.81734 0.28050 0.22356
 N80 N 0.81333 0.29287 0.23132
 C81 C 0.82318 0.29484 0.24315
 C82 C 0.83389 0.28306 0.24272
 C83 C 0.82984 0.27416 0.23016
 H84 H 0.82260 0.30408 0.25149
 H85 H 0.83556 0.26386 0.22613
 Cu86 Cu 0.79539 0.30481 0.22516
 Cu87 Cu 0.80612 0.27344 0.20545
 Cu88 Cu 0.77393 0.29465 0.19478
 N89 N 0.77730 0.31667 0.21932
 N90 N 0.76895 0.31255 0.20737
 C91 C 0.75714 0.32243 0.20576
 C92 C 0.75811 0.33330 0.21733
 C93 C 0.77101 0.32932 0.22576
 H94 H 0.74845 0.32177 0.19686
 H95 H 0.77543 0.33521 0.23579
 N96 N 0.78090 0.27621 0.18353
 N97 N 0.79323 0.26823 0.18750
 C98 C 0.79510 0.25655 0.17747
 C99 C 0.78338 0.25721 0.16677
 C100 C 0.77458 0.26976 0.17093
 H101 H 0.80428 0.24815 0.17788
 H102 H 0.76439 0.27390 0.16511
 H103 H 0.79727 0.29455 0.19913
 H104 H 0.78502 0.28237 0.21189
 N105 N 0.81683 0.71997 0.27665
 N106 N 0.81265 0.70775 0.26875
 C107 C 0.82258 0.70571 0.25699
 C108 C 0.83347 0.71731 0.25759
 C109 C 0.82949 0.72615 0.27019
 H110 H 0.82195 0.69656 0.24858
 H111 H 0.83538 0.73632 0.27432
 Cu112 Cu 0.79453 0.69588 0.27452
 Cu113 Cu 0.80560 0.72697 0.29475
 Cu114 Cu 0.77355 0.70568 0.30554
 N115 N 0.77665 0.68390 0.28082
 N116 N 0.76851 0.68781 0.29297
 C117 C 0.75684 0.67776 0.29475
 C118 C 0.75771 0.66699 0.28309
 C119 C 0.77040 0.67119 0.27445
 H120 H 0.74831 0.67825 0.30381
 H121 H 0.77470 0.66542 0.26429
 N122 N 0.78052 0.72413 0.31678
 N123 N 0.79275 0.73220 0.31271
 C124 C 0.79456 0.74397 0.32265
 C125 C 0.78291 0.74326 0.33344
 C126 C 0.77421 0.73058 0.32940
 H127 H 0.80366 0.75247 0.32213
 H128 H 0.76407 0.72638 0.33529
 H129 H 0.79686 0.70564 0.30073
 H130 H 0.78443 0.71811 0.28840
 N131 N 0.31680 0.21994 -0.22382
 N132 N 0.31269 0.20767 -0.23169
 C133 C 0.32258 0.20569 -0.24350
 C134 C 0.33345 0.21736 -0.24296
 C135 C 0.32941 0.22620 -0.23033
 H136 H 0.32197 0.19649 -0.25186
 H137 H 0.33527 0.23638 -0.22617
 Cu138 Cu 0.29480 0.19551 -0.22563
 Cu139 Cu 0.30560 0.22683 -0.20562
 Cu140 Cu 0.27355 0.20555 -0.19485
 N141 N 0.27659 0.18381 -0.21964
 N142 N 0.26843 0.18776 -0.20751
 C143 C 0.25668 0.17778 -0.20579
 C144 C 0.25750 0.16703 -0.21747
 C145 C 0.27024 0.17118 -0.22608
 H146 H 0.24816 0.17828 -0.19672
 H147 H 0.27456 0.16537 -0.23621
 N148 N 0.28057 0.22391 -0.18351
 N149 N 0.29281 0.23199 -0.18756
 C150 C 0.29462 0.24374 -0.17758
 C151 C 0.28295 0.24300 -0.16679
 C152 C 0.27426 0.23033 -0.17087
 H153 H 0.30370 0.25225 -0.17809
 H154 H 0.26410 0.22612 -0.16502
 H155 H 0.29686 0.20552 -0.19946
 H156 H 0.28450 0.21779 -0.21203
 N157 N 0.68361 0.27992 -0.22395
 N158 N 0.68753 0.29236 -0.23165
 C159 C 0.67752 0.29444 -0.24333
 C160 C 0.66681 0.28262 -0.24291
 C161 C 0.67102 0.27363 -0.23046
 H162 H 0.67797 0.30379 -0.25154
 H163 H 0.66531 0.26331 -0.22642
 Cu164 Cu 0.70546 0.30450 -0.22565
 Cu165 Cu 0.69490 0.27297 -0.20582
 Cu166 Cu 0.72590 0.29527 -0.19410
 N167 N 0.72314 0.31673 -0.21916
 N168 N 0.73101 0.31306 -0.20676
 C169 C 0.74262 0.32317 -0.20491
 C170 C 0.74199 0.33373 -0.21678
 C171 C 0.72950 0.32934 -0.22562
 H172 H 0.75099 0.32281 -0.19570
 H173 H 0.72544 0.33490 -0.23599
 N174 N 0.71902 0.27678 -0.18288
 N175 N 0.70766 0.26789 -0.18773
 C176 C 0.70626 0.25581 -0.17808
 C177 C 0.71708 0.25734 -0.16654
 C178 C 0.72493 0.27075 -0.16987
 H179 H 0.69784 0.24670 -0.17916
 H180 H 0.73442 0.27556 -0.16340
 H181 H 0.70278 0.29458 -0.19954
 H182 H 0.71595 0.28258 -0.21154
 N183 N 0.18362 0.78032 0.27653
 N184 N 0.18783 0.79251 0.26859
 C185 C 0.17791 0.79453 0.25682
 C186 C 0.16700 0.78294 0.25745
 C187 C 0.17096 0.77414 0.27008
 H188 H 0.17854 0.80368 0.24840
 H189 H 0.16504 0.76400 0.27427
 Cu190 Cu 0.20587 0.80443 0.27462
 Cu191 Cu 0.19478 0.77335 0.29472
 Cu192 Cu 0.22684 0.79470 0.30554
 N193 N 0.22387 0.81641 0.28066
 N194 N 0.23195 0.81256 0.29288
 C195 C 0.24360 0.82264 0.29468
 C196 C 0.24280 0.83339 0.28294
 C197 C 0.23014 0.82910 0.27425
 H198 H 0.25204 0.82219 0.30382
 H199 H 0.22583 0.83483 0.26407
 N200 N 0.21981 0.77624 0.31683
 N201 N 0.20758 0.76817 0.31274
 C202 C 0.20575 0.75639 0.32268
 C203 C 0.21737 0.75709 0.33349
 C204 C 0.22609 0.76978 0.32946
 H205 H 0.19667 0.74788 0.32213
 H206 H 0.23623 0.77395 0.33535
 H207 H 0.20350 0.79463 0.30082
 H208 H 0.21593 0.78221 0.28850
 N209 N 0.46982 0.43317 0.47348
 N210 N 0.45756 0.43729 0.48137
 C211 C 0.45561 0.42743 0.49320
 C212 C 0.46727 0.41661 0.49265
 C213 C 0.47607 0.42059 0.48001
 H214 H 0.44647 0.42806 0.50163
 H215 H 0.48625 0.41472 0.47587
 Cu216 Cu 0.44562 0.45528 0.47533
 Cu217 Cu 0.47679 0.44437 0.45531
 Cu218 Cu 0.45544 0.47641 0.44451
 N219 N 0.43367 0.47325 0.46930
 N220 N 0.43760 0.48143 0.45717
 C221 C 0.42759 0.49314 0.45547
 C222 C 0.41686 0.49227 0.46717
 C223 C 0.42103 0.47954 0.47576
 H224 H 0.42807 0.50167 0.44641
 H225 H 0.41528 0.47523 0.48592
 N226 N 0.47386 0.46941 0.43321
 N227 N 0.48195 0.45719 0.43728
 C228 C 0.49369 0.45538 0.42730
 C229 C 0.49296 0.46702 0.41650
 C230 C 0.48028 0.47571 0.42056
 H231 H 0.50219 0.44631 0.42782
 H232 H 0.47608 0.48584 0.41467
 H233 H 0.46789 0.46552 0.46162
 H234 H 0.45556 0.45310 0.44917
 N235 N -0.02994 -0.06694 0.97347
 N236 N -0.04211 -0.06275 0.98144
 C237 C -0.04404 -0.07257 0.99329
 C238 C -0.03245 -0.08344 0.99267
 C239 C -0.02370 -0.07954 0.97998
 H240 H -0.05317 -0.07192 1.00173
 H241 H -0.01360 -0.08549 0.97577
 Cu242 Cu -0.05426 -0.04496 0.97538
 Cu243 Cu -0.02314 -0.05586 0.95518
 Cu244 Cu -0.04465 -0.02405 0.94426
 N245 N -0.06603 -0.02691 0.96937
 N246 N -0.06235 -0.01898 0.95700
 C247 C -0.07245 -0.00738 0.95520
 C248 C -0.08294 -0.00806 0.96711
 C249 C -0.07855 -0.02054 0.97593
 H250 H -0.07218 0.00097 0.94596
 H251 H -0.08415 -0.02469 0.98624
 N252 N -0.02631 -0.03103 0.93292
 N253 N -0.01813 -0.04316 0.93705
 C254 C -0.00638 -0.04492 0.92707
 C255 C -0.00722 -0.03334 0.91622
 C256 C -0.01996 -0.02474 0.92024
 H257 H 0.00222 -0.05391 0.92765
 H258 H -0.02423 -0.01465 0.91434
 H259 H -0.03219 -0.03470 0.96144
 H260 H -0.04454 -0.04728 0.94915
 N261 N 1.03038 0.56655 0.97357
 N262 N 1.04241 0.56218 0.98166
 C263 C 1.04444 0.57206 0.99345
 C264 C 1.03303 0.58312 0.99269
 C265 C 1.02431 0.57930 0.97995
 H266 H 1.05349 0.57131 1.00196
 H267 H 1.01434 0.58537 0.97565
 Cu268 Cu 1.05417 0.54412 0.97564
 Cu269 Cu 1.02347 0.55549 0.95528
 Cu270 Cu 1.04478 0.52341 0.94447
 N271 N 1.06622 0.52626 0.96958
 N272 N 1.06249 0.51830 0.95725
 C273 C 1.07263 0.50675 0.95539
 C274 C 1.08325 0.50752 0.96717
 C275 C 1.07889 0.52003 0.97599
 H276 H 1.07232 0.49839 0.94616
 H277 H 1.08458 0.52424 0.98623
 N278 N 1.02646 0.53051 0.93312
 N279 N 1.01838 0.54274 0.93719
 C280 C 1.00665 0.54455 0.92721
 C281 C 1.00738 0.53291 0.91642
 C282 C 1.02004 0.52421 0.92048
 H283 H 0.99813 0.55361 0.92775
 H284 H 1.02422 0.51405 0.91463
 H285 H 1.03214 0.53421 0.96138
 H286 H 1.04482 0.54669 0.94933
 N287 N 0.53040 0.06659 0.47357
 N288 N 0.54244 0.06224 0.48165
 C289 C 0.54447 0.07212 0.49345
 C290 C 0.53305 0.08317 0.49269
 C291 C 0.52433 0.07933 0.47996
 H292 H 0.55353 0.07138 0.50195
 H293 H 0.51434 0.08539 0.47566
 Cu294 Cu 0.55422 0.04418 0.47563
 Cu295 Cu 0.52350 0.05551 0.45529
 Cu296 Cu 0.54484 0.02345 0.44447
 N297 N 0.56628 0.02634 0.46956
 N298 N 0.56256 0.01837 0.45724
 C299 C 0.57271 0.00682 0.45537
 C300 C 0.58334 0.00762 0.46716
 C301 C 0.57897 0.02012 0.47597
 H302 H 0.57241 -0.00153 0.44615
 H303 H 0.58465 0.02434 0.48621
 N304 N 0.52650 0.03052 0.43312
 N305 N 0.51841 0.04274 0.43720
 C306 C 0.50666 0.04453 0.42723
 C307 C 0.50741 0.03289 0.41644
 C308 C 0.52008 0.02421 0.42049
 H309 H 0.49813 0.05358 0.42777
 H310 H 0.52427 0.01406 0.41464
 H311 H 0.53220 0.03423 0.46138
 H312 H 0.54485 0.04673 0.44932
 N313 N -0.03037 0.06689 0.52631
 N314 N -0.04257 0.06270 0.51839
 C315 C -0.04458 0.07258 0.50659
 C316 C -0.03296 0.08343 0.50715
 C317 C -0.02415 0.07950 0.51979
 H318 H -0.05373 0.07194 0.49817
 H319 H -0.01401 0.08542 0.52393
 Cu320 Cu -0.05465 0.04484 0.52444
 Cu321 Cu -0.02344 0.05572 0.54449
 Cu322 Cu -0.04475 0.02368 0.55527
 N323 N -0.06642 0.02676 0.53045
 N324 N -0.06252 0.01863 0.54261
 C325 C -0.07253 0.00692 0.54433
 C326 C -0.08325 0.00779 0.53264
 C327 C -0.07909 0.02051 0.52404
 H328 H -0.07207 -0.00160 0.55340
 H329 H -0.08487 0.02481 0.51388
 N330 N -0.02639 0.03070 0.56658
 N331 N -0.01830 0.04293 0.56252
 C332 C -0.00655 0.04472 0.57249
 C333 C -0.00730 0.03305 0.58327
 C334 C -0.01998 0.02438 0.57921
 H335 H 0.00197 0.05379 0.57196
 H336 H -0.02419 0.01422 0.58506
 H337 H -0.03245 0.03459 0.53813
 H338 H -0.04477 0.04699 0.55062
 N339 N 0.46989 0.56677 0.02650
 N340 N 0.45769 0.56257 0.01856
 C341 C 0.45566 0.57249 0.00680
 C342 C 0.46724 0.58340 0.00742
 C343 C 0.47606 0.57944 0.02003
 H344 H 0.44649 0.57188 -0.00159
 H345 H 0.48621 0.58535 0.02419
 Cu346 Cu 0.44574 0.54458 0.02459
 Cu347 Cu 0.47684 0.55559 0.04467
 Cu348 Cu 0.45549 0.52352 0.05546
 N349 N 0.43380 0.52659 0.03062
 N350 N 0.43767 0.51846 0.04280
 C351 C 0.42758 0.50683 0.04457
 C352 C 0.41684 0.50771 0.03288
 C353 C 0.42110 0.52037 0.02423
 H354 H 0.42802 0.49831 0.05365
 H355 H 0.41531 0.52471 0.01409
 N356 N 0.47392 0.53052 0.06676
 N357 N 0.48201 0.54275 0.06269
 C358 C 0.49377 0.54455 0.07264
 C359 C 0.49304 0.53290 0.08343
 C360 C 0.48036 0.52421 0.07938
 H361 H 0.50229 0.55363 0.07211
 H362 H 0.47616 0.51406 0.08525
 H363 H 0.46795 0.53445 0.03843
 H364 H 0.45556 0.54686 0.05079
 N365 N 0.53040 -0.06651 0.02647
 N366 N 0.54264 -0.06236 0.01856
 C367 C 0.54457 -0.07221 0.00673
 C368 C 0.53293 -0.08306 0.00730
 C369 C 0.52414 -0.07910 0.01995
 H370 H 0.55373 -0.07160 -0.00168
 H371 H 0.51399 -0.08500 0.02411
 Cu372 Cu 0.55484 -0.04455 0.02463
 Cu373 Cu 0.52352 -0.05537 0.04467
 Cu374 Cu 0.54486 -0.02338 0.05547
 N375 N 0.56654 -0.02639 0.03063
 N376 N 0.56265 -0.01826 0.04280
 C377 C 0.57267 -0.00655 0.04453
 C378 C 0.58338 -0.00738 0.03281
 C379 C 0.57917 -0.02006 0.02417
 H380 H 0.57222 0.00193 0.05363
 H381 H 0.58494 -0.02436 0.01401
 N382 N 0.52649 -0.03040 0.06681
 N383 N 0.51840 -0.04262 0.06274
 C384 C 0.50665 -0.04444 0.07271
 C385 C 0.50739 -0.03281 0.08352
 C386 C 0.52008 -0.02412 0.07946
 H387 H 0.49812 -0.05351 0.07217
 H388 H 0.52429 -0.01397 0.08533
 H389 H 0.53256 -0.03428 0.03827
 H390 H 0.54485 -0.04671 0.05079
 N391 N 1.03027 0.43325 0.52641
 N392 N 1.04268 0.43724 0.51869
 C393 C 1.04467 0.42740 0.50686
 C394 C 1.03286 0.41672 0.50725
 C395 C 1.02394 0.42077 0.51977
 H396 H 1.05392 0.42795 0.49855
 H397 H 1.01361 0.41503 0.52374
 Cu398 Cu 1.05465 0.45512 0.52488
 Cu399 Cu 1.02321 0.44450 0.54453
 Cu400 Cu 1.04458 0.47656 0.55533
 N401 N 1.06655 0.47314 0.53076
 N402 N 1.06246 0.48148 0.54272
 C403 C 1.07237 0.49329 0.54432
 C404 C 1.08320 0.49229 0.53274
 C405 C 1.07920 0.47941 0.52431
 H406 H 1.07174 0.50198 0.55322
 H407 H 1.08508 0.47500 0.51426
 N408 N 1.02612 0.46961 0.56655
 N409 N 1.01802 0.45739 0.56249
 C410 C 1.00628 0.45559 0.57248
 C411 C 1.00706 0.46723 0.58327
 C412 C 1.01973 0.47591 0.57920
 H413 H 0.99778 0.44650 0.57200
 H414 H 1.02398 0.48603 0.58508
 H415 H 1.03230 0.46562 0.53817
 H416 H 1.04439 0.45327 0.55090
 C417 C 0.39827 0.00738 0.22934
 H418 H 0.39899 0.01773 0.23624
 C419 C 0.40824 0.00533 0.21689
 H420 H 0.41658 0.01423 0.21427
 C421 C 0.38658 -0.01682 0.22459
 H422 H 0.37830 -0.02554 0.22776
 C423 C 0.39632 -0.01934 0.21205
 H424 H 0.39526 -0.02997 0.20564
 N425 N 0.38760 -0.00355 0.23285
 C426 C 0.35113 0.02082 0.25744
 H427 H 0.35039 0.01394 0.26779
 C428 C 0.34124 0.03333 0.25539
 H429 H 0.33293 0.03600 0.26429
 C430 C 0.36284 0.02551 0.23325
 H431 H 0.37110 0.02232 0.22454
 C432 C 0.35318 0.03812 0.23073
 H433 H 0.35427 0.04453 0.22010
 Zn434 Zn 0.37465 -0.00003 0.25007
 N435 N 0.36176 0.01725 0.24651
 C436 C 0.38660 0.01682 0.27551
 N437 N 0.38759 0.00354 0.26727
 C438 C 0.39826 -0.00737 0.27076
 C439 C 0.40826 -0.00530 0.28318
 C440 C 0.39635 0.01936 0.28803
 C441 C 0.35107 -0.02088 0.24274
 C442 C 0.34114 -0.03338 0.24480
 C443 C 0.35310 -0.03819 0.26943
 C444 C 0.36278 -0.02559 0.26690
 N445 N 0.36173 -0.01732 0.25364
 H446 H 0.37833 0.02554 0.27235
 H447 H 0.39896 -0.01772 0.26387
 H448 H 0.41659 -0.01419 0.28579
 H449 H 0.39532 0.03001 0.29443
 H450 H 0.35033 -0.01399 0.23238
 H451 H 0.33282 -0.03604 0.23591
 H452 H 0.35419 -0.04461 0.28006
 H453 H 0.37106 -0.02240 0.27560
 C454 C 0.34219 0.04219 0.24188
 C455 C 0.40733 -0.00817 0.20802
 C456 C 0.34208 -0.04226 0.25830
 C457 C 0.40736 0.00821 0.29204
 C458 C 0.10169 -0.00749 0.72897
 H459 H 0.10098 -0.01786 0.73584
 C460 C 0.09169 -0.00538 0.71656
 H461 H 0.08334 -0.01426 0.71394
 C462 C 0.11337 0.01673 0.72429
 H463 H 0.12164 0.02544 0.72747
 C464 C 0.10361 0.01930 0.71178
 H465 H 0.10464 0.02997 0.70541
 N466 N 0.11238 0.00341 0.73248
 C467 C 0.14889 -0.02098 0.75706
 H468 H 0.14962 -0.01408 0.76740
 C469 C 0.15882 -0.03348 0.75501
 H470 H 0.16713 -0.03611 0.76391
 C471 C 0.13719 -0.02573 0.73290
 H472 H 0.12890 -0.02257 0.72419
 C473 C 0.14688 -0.03832 0.73038
 H474 H 0.14579 -0.04475 0.71976
 Zn475 Zn 0.12531 -0.00016 0.74969
 N476 N 0.13824 -0.01744 0.74614
 C477 C 0.11338 -0.01695 0.77516
 N478 N 0.11236 -0.00369 0.76689
 C479 C 0.10168 0.00722 0.77037
 C480 C 0.09172 0.00518 0.78283
 C481 C 0.10365 -0.01946 0.78771
 C482 C 0.14883 0.02072 0.74237
 C483 C 0.15871 0.03325 0.74443
 C484 C 0.14673 0.03802 0.76907
 C485 C 0.13709 0.02539 0.76654
 N486 N 0.13818 0.01713 0.75328
 H487 H 0.12166 -0.02566 0.77202
 H488 H 0.10096 0.01756 0.76346
 H489 H 0.08338 0.01407 0.78544
 H490 H 0.10471 -0.03009 0.79415
 H491 H 0.14958 0.01385 0.73202
 H492 H 0.16702 0.03594 0.73554
 H493 H 0.14561 0.04443 0.77970
 H494 H 0.12881 0.02218 0.77524
 C495 C 0.15789 -0.04237 0.74153
 C496 C 0.09259 0.00816 0.70774
 C497 C 0.15773 0.04211 0.75793
 C498 C 0.09264 -0.00831 0.79172
 C499 C 0.60203 0.49261 0.22921
 H500 H 0.60130 0.48224 0.23609
 C501 C 0.59207 0.49469 0.21676
 H502 H 0.58374 0.48579 0.21412
 C503 C 0.61372 0.51681 0.22452
 H504 H 0.62199 0.52553 0.22771
 C505 C 0.60401 0.51936 0.21197
 H506 H 0.60507 0.53002 0.20558
 N507 N 0.61269 0.50352 0.23274
 C508 C 0.64919 0.47926 0.25733
 H509 H 0.64992 0.48617 0.26766
 C510 C 0.65913 0.46679 0.25529
 H511 H 0.66747 0.46418 0.26418
 C512 C 0.63746 0.47445 0.23318
 H513 H 0.62917 0.47759 0.22448
 C514 C 0.64716 0.46188 0.23068
 H515 H 0.64608 0.45543 0.22006
 Zn516 Zn 0.62560 0.49996 0.24996
 N517 N 0.63852 0.48274 0.24642
 C518 C 0.61372 0.48313 0.27543
 N519 N 0.61268 0.49639 0.26717
 C520 C 0.60201 0.50729 0.27069
 C521 C 0.59206 0.50523 0.28315
 C522 C 0.60402 0.48058 0.28799
 C523 C 0.64915 0.52077 0.24264
 C524 C 0.65907 0.53326 0.24470
 C525 C 0.64710 0.53805 0.26934
 C526 C 0.63742 0.52546 0.26681
 N527 N 0.63849 0.51721 0.25354
 H528 H 0.62201 0.47442 0.27226
 H529 H 0.60128 0.51764 0.26379
 H530 H 0.58373 0.51411 0.28578
 H531 H 0.60509 0.46995 0.29441
 H532 H 0.64989 0.51388 0.23228
 H533 H 0.66739 0.53593 0.23581
 H534 H 0.64601 0.54446 0.27997
 H535 H 0.62915 0.52226 0.27551
 C536 C 0.65818 0.45788 0.24182
 C537 C 0.59300 0.50821 0.20792
 C538 C 0.65810 0.54212 0.25820
 C539 C 0.59300 0.49172 0.29202
 C540 C 0.89839 0.50762 0.72922
 H541 H 0.89912 0.51797 0.73610
 C542 C 0.90834 0.50555 0.71676
 H543 H 0.91668 0.51444 0.71412
 C544 C 0.88668 0.48343 0.72451
 H545 H 0.87840 0.47471 0.72769
 C546 C 0.89639 0.48089 0.71196
 H547 H 0.89532 0.47024 0.70556
 N548 N 0.88771 0.49671 0.73274
 C549 C 0.85130 0.52108 0.75730
 H550 H 0.85056 0.51420 0.76766
 C551 C 0.84138 0.53357 0.75524
 H552 H 0.83307 0.53623 0.76415
 C553 C 0.86299 0.52578 0.73311
 H554 H 0.87125 0.52259 0.72439
 C555 C 0.85331 0.53837 0.73058
 H556 H 0.85439 0.54477 0.71994
 Zn557 Zn 0.87481 0.50028 0.74994
 N558 N 0.86194 0.51753 0.74638
 C559 C 0.88675 0.51708 0.77539
 N560 N 0.88774 0.50381 0.76713
 C561 C 0.89838 0.49287 0.77062
 C562 C 0.90835 0.49490 0.78307
 C563 C 0.89647 0.51958 0.78794
 C564 C 0.85125 0.47948 0.74261
 C565 C 0.84131 0.46699 0.74468
 C566 C 0.85319 0.46226 0.76937
 C567 C 0.86290 0.47483 0.76682
 N568 N 0.86188 0.48305 0.75353
 H569 H 0.87849 0.52581 0.77223
 H570 H 0.89908 0.48253 0.76372
 H571 H 0.91666 0.48599 0.78569
 H572 H 0.89544 0.53021 0.79436
 H573 H 0.85055 0.48633 0.73223
 H574 H 0.83301 0.46432 0.73578
 H575 H 0.85424 0.45588 0.78003
 H576 H 0.87116 0.47804 0.77553
 C577 C 0.84232 0.54243 0.74174
 C578 C 0.90740 0.49204 0.70791
 C579 C 0.84221 0.45817 0.75822
 C580 C 0.90745 0.50840 0.79195
 C581 C 0.22923 0.39904 0.00719
 H582 H 0.23613 0.39977 0.01753
 C583 C 0.21676 0.40896 0.00515
 H584 H 0.21412 0.41728 0.01405
 C585 C 0.22448 0.38734 -0.01698
 H586 H 0.22765 0.37907 -0.02570
 C587 C 0.21191 0.39702 -0.01950
 H588 H 0.20549 0.39594 -0.03012
 N589 N 0.23274 0.38839 -0.00373
 C590 C 0.25720 0.35197 0.02059
 H591 H 0.26755 0.35123 0.01371
 C592 C 0.25511 0.34204 0.03306
 H593 H 0.26400 0.33371 0.03571
 C594 C 0.23302 0.36368 0.02529
 H595 H 0.22432 0.37195 0.02209
 C596 C 0.23047 0.35399 0.03786
 H597 H 0.21982 0.35508 0.04427
 Zn598 Zn 0.24991 0.37550 -0.00017
 N599 N 0.24630 0.36263 0.01705
 C600 C 0.27533 0.38741 0.01668
 N601 N 0.26711 0.38843 0.00340
 C602 C 0.27063 0.39910 -0.00750
 C603 C 0.28308 0.40907 -0.00543
 C604 C 0.28788 0.39714 0.01923
 C605 C 0.24252 0.35195 -0.02091
 C606 C 0.24455 0.34202 -0.03340
 C607 C 0.26921 0.35397 -0.03823
 C608 C 0.26670 0.36365 -0.02565
 N609 N 0.25345 0.36259 -0.01738
 H610 H 0.27214 0.37914 0.02539
 H611 H 0.26375 0.39983 -0.01786
 H612 H 0.28572 0.41741 -0.01432
 H613 H 0.29428 0.39608 0.02987
 H614 H 0.23216 0.35122 -0.01401
 H615 H 0.23564 0.33371 -0.03604
 H616 H 0.27984 0.35505 -0.04465
 H617 H 0.27542 0.37193 -0.02248
 C618 C 0.24160 0.34299 0.04192
 C619 C 0.20789 0.40800 -0.00833
 C620 C 0.25805 0.34297 -0.04227
 C621 C 0.29193 0.40814 0.00808
 C622 C 0.72853 0.10266 -0.00813
 H623 H 0.73474 0.10274 -0.01891
 C624 C 0.71620 0.09250 -0.00607
 H625 H 0.71303 0.08485 -0.01537
 C626 C 0.72565 0.11202 0.01730
 H627 H 0.72970 0.11906 0.02668
 C628 C 0.71305 0.10234 0.01973
 H629 H 0.70735 0.10251 0.03081
 N630 N 0.73298 0.11223 0.00345
 C631 C 0.75748 0.13815 -0.02967
 H632 H 0.76792 0.13148 -0.02951
 C633 C 0.75466 0.14770 -0.04229
 H634 H 0.76259 0.14766 -0.05191
 C635 C 0.73498 0.14716 -0.01724
 H636 H 0.72721 0.14682 -0.00756
 C637 C 0.73221 0.15753 -0.02923
 H638 H 0.72240 0.16520 -0.02860
 Zn639 Zn 0.75069 0.12463 -0.00007
 N640 N 0.74744 0.13764 -0.01762
 C641 C 0.76959 0.10415 -0.01736
 N642 N 0.76728 0.11043 -0.00319
 C643 C 0.77574 0.10559 0.00909
 C644 C 0.78824 0.09569 0.00700
 C645 C 0.78204 0.09438 -0.02004
 C646 C 0.74246 0.14617 0.02297
 C647 C 0.74455 0.15604 0.03547
 C648 C 0.77162 0.14984 0.03522
 C649 C 0.76903 0.14028 0.02255
 N650 N 0.75452 0.13809 0.01703
 H651 H 0.76177 0.10669 -0.02669
 H652 H 0.77281 0.10933 0.02057
 H653 H 0.79512 0.09242 0.01686
 H654 H 0.78394 0.08993 -0.03153
 H655 H 0.73107 0.14481 0.01819
 H656 H 0.73470 0.16211 0.04009
 H657 H 0.78322 0.15112 0.03959
 H658 H 0.77874 0.13483 0.01705
 C659 C 0.74197 0.15764 -0.04208
 C660 C 0.70820 0.09234 0.00799
 C661 C 0.75925 0.15781 0.04190
 C662 C 0.79175 0.09028 -0.00781
 C663 C 0.22926 0.60081 0.49269
 H664 H 0.23621 0.60004 0.48238
 C665 C 0.21678 0.59089 0.49473
 H666 H 0.21417 0.58253 0.48585
 C667 C 0.22442 0.61261 0.51680
 H668 H 0.22756 0.62091 0.52550
 C669 C 0.21182 0.60295 0.51930
 H670 H 0.20535 0.60406 0.52990
 N671 N 0.23273 0.61151 0.50358
 C672 C 0.25721 0.64793 0.47925
 H673 H 0.26757 0.64868 0.48613
 C674 C 0.25512 0.65787 0.46679
 H675 H 0.26400 0.66622 0.46415
 C676 C 0.23304 0.63619 0.47456
 H677 H 0.22434 0.62790 0.47776
 C678 C 0.23047 0.64589 0.46200
 H679 H 0.21983 0.64480 0.45561
 Zn680 Zn 0.24992 0.62438 0.50002
 N681 N 0.24632 0.63725 0.48279
 C682 C 0.27535 0.61245 0.48319
 N683 N 0.26711 0.61144 0.49647
 C684 C 0.27060 0.60076 0.50738
 C685 C 0.28304 0.59079 0.50531
 C686 C 0.28789 0.60272 0.48066
 C687 C 0.24253 0.64794 0.52075
 C688 C 0.24455 0.65785 0.53326
 C689 C 0.26918 0.64589 0.53812
 C690 C 0.26668 0.63622 0.52553
 N691 N 0.25345 0.63729 0.51723
 H692 H 0.27218 0.62073 0.47448
 H693 H 0.26370 0.60004 0.51773
 H694 H 0.28565 0.58245 0.51420
 H695 H 0.29429 0.60377 0.47001
 H696 H 0.23219 0.64868 0.51384
 H697 H 0.23564 0.66616 0.53590
 H698 H 0.27979 0.64479 0.54456
 H699 H 0.27538 0.62793 0.52237
 C700 C 0.24161 0.65691 0.45795
 C701 C 0.20784 0.59191 0.50817
 C702 C 0.25803 0.65689 0.54215
 C703 C 0.29191 0.59172 0.49181
 C704 C 0.72943 0.89934 0.50722
 H705 H 0.73634 0.90006 0.51756
 C706 C 0.71699 0.90929 0.50517
 H707 H 0.71437 0.91762 0.51406
 C708 C 0.72467 0.88763 0.48305
 H709 H 0.72785 0.87936 0.47434
 C710 C 0.71213 0.89733 0.48052
 H711 H 0.70572 0.89627 0.46989
 N712 N 0.73291 0.88866 0.49632
 C713 C 0.75740 0.85227 0.52061
 H714 H 0.76775 0.85154 0.51370
 C715 C 0.75536 0.84238 0.53311
 H716 H 0.76427 0.83407 0.53576
 C717 C 0.73323 0.86399 0.52534
 H718 H 0.72452 0.87226 0.52216
 C719 C 0.73072 0.85433 0.53794
 H720 H 0.72009 0.85542 0.54437
 Zn721 Zn 0.75006 0.87578 0.49987
 N722 N 0.74649 0.86291 0.51708
 C723 C 0.77546 0.88764 0.51668
 N724 N 0.76720 0.88868 0.50343
 C725 C 0.77066 0.89938 0.49253
 C726 C 0.78310 0.90935 0.49457
 C727 C 0.78800 0.89736 0.51919
 C728 C 0.74273 0.85225 0.47915
 C729 C 0.74480 0.84234 0.46667
 C730 C 0.76945 0.85433 0.46185
 C731 C 0.76691 0.86400 0.47443
 N732 N 0.75364 0.86291 0.48268
 H733 H 0.77231 0.87936 0.52539
 H734 H 0.76373 0.90011 0.48220
 H735 H 0.78570 0.91770 0.48569
 H736 H 0.79444 0.89629 0.52981
 H737 H 0.73238 0.85150 0.48604
 H738 H 0.73590 0.83400 0.46402
 H739 H 0.78008 0.85543 0.45544
 H740 H 0.77561 0.87229 0.47761
 C741 C 0.74187 0.84334 0.54198
 C742 C 0.70812 0.90833 0.49168
 C743 C 0.75830 0.84331 0.45781
 C744 C 0.79198 0.90838 0.50804
 C745 C 0.00703 0.22940 0.39831
 H746 H 0.01740 0.23627 0.39906
 C747 C 0.00491 0.21692 0.40823
 H748 H 0.01379 0.21425 0.41656
 C749 C -0.01716 0.22475 0.38659
 H750 H -0.02585 0.22796 0.37831
 C751 C -0.01974 0.21218 0.39627
 H752 H -0.03040 0.20579 0.39518
 N753 N -0.00386 0.23297 0.38764
 C754 C 0.02060 0.25747 0.35119
 H755 H 0.01375 0.26784 0.35045
 C756 C 0.03309 0.25537 0.34128
 H757 H 0.03578 0.26426 0.33296
 C758 C 0.02522 0.23328 0.36291
 H759 H 0.02199 0.22457 0.37118
 C760 C 0.03780 0.23071 0.35324
 H761 H 0.04418 0.22006 0.35434
 Zn762 Zn -0.00023 0.25018 0.37474
 N763 N 0.01701 0.24657 0.36185
 C764 C 0.01670 0.27557 0.38663
 N765 N 0.00338 0.26739 0.38765
 C766 C -0.00754 0.27098 0.39828
 C767 C -0.00543 0.28346 0.40820
 C768 C 0.01928 0.28814 0.39631
 C769 C -0.02099 0.24288 0.35116
 C770 C -0.03346 0.24496 0.34123
 C771 C -0.03824 0.26961 0.35320
 C772 C -0.02567 0.26706 0.36289
 N773 N -0.01744 0.25378 0.36183
 H774 H 0.02542 0.27234 0.37838
 H775 H -0.01793 0.26414 0.39900
 H776 H -0.01433 0.28616 0.41650
 H777 H 0.02996 0.29449 0.39526
 H778 H -0.01412 0.23252 0.35043
 H779 H -0.03612 0.23608 0.33291
 H780 H -0.04464 0.28025 0.35429
 H781 H -0.02249 0.27576 0.37117
 C782 C 0.04191 0.24185 0.34225
 C783 C -0.00862 0.20809 0.40727
 C784 C -0.04230 0.25847 0.34219
 C785 C 0.00813 0.29225 0.40728
 C786 C -0.00709 0.72908 0.10145
 H787 H -0.01745 0.73595 0.10070
 C788 C -0.00500 0.71660 0.09152
 H789 H -0.01387 0.71394 0.08318
 C790 C 0.01707 0.72439 0.11319
 H791 H 0.02576 0.72759 0.12148
 C792 C 0.01963 0.71182 0.10351
 H793 H 0.03027 0.70543 0.10461
 N794 N 0.00379 0.73262 0.11213
 C795 C -0.02057 0.75716 0.14858
 H796 H -0.01368 0.76752 0.14931
 C797 C -0.03306 0.75509 0.15849
 H798 H -0.03572 0.76399 0.16681
 C799 C -0.02528 0.73297 0.13687
 H800 H -0.02210 0.72427 0.12860
 C801 C -0.03787 0.73044 0.14655
 H802 H -0.04429 0.71980 0.14547
 Zn803 Zn 0.00021 0.74984 0.12503
 N804 N -0.01702 0.74625 0.13793
 C805 C -0.01669 0.77525 0.11317
 N806 N -0.00339 0.76705 0.11212
 C807 C 0.00750 0.77062 0.10144
 C808 C 0.00539 0.78309 0.09151
 C809 C -0.01926 0.78782 0.10349
 C810 C 0.02099 0.74255 0.14860
 C811 C 0.03347 0.74464 0.15853
 C812 C 0.03825 0.76930 0.14657
 C813 C 0.02568 0.76674 0.13688
 N814 N 0.01744 0.75345 0.13794
 H815 H -0.02538 0.77204 0.12145
 H816 H 0.01787 0.76376 0.10069
 H817 H 0.01427 0.78577 0.08317
 H818 H -0.02991 0.79420 0.10458
 H819 H 0.01411 0.73218 0.14934
 H820 H 0.03613 0.73575 0.16686
 H821 H 0.04465 0.77995 0.14548
 H822 H 0.02249 0.77543 0.12860
 C823 C -0.04193 0.74159 0.15754
 C824 C 0.00851 0.70776 0.09249
 C825 C 0.04232 0.75816 0.15758
 C826 C -0.00813 0.79191 0.09249
 C827 C 0.49290 0.22909 0.60164
 H828 H 0.48254 0.23595 0.60090
 C829 C 0.49501 0.21665 0.59166
 H830 H 0.48614 0.21400 0.58331
 C831 C 0.51707 0.22440 0.61335
 H832 H 0.52577 0.22759 0.62164
 C833 C 0.51965 0.21186 0.60362
 H834 H 0.53030 0.20548 0.60469
 N835 N 0.50379 0.23262 0.61233
 C836 C 0.47926 0.25713 0.64883
 H837 H 0.48612 0.26751 0.64959
 C838 C 0.46672 0.25504 0.65870
 H839 H 0.46402 0.26393 0.66701
 C840 C 0.47462 0.23296 0.63709
 H841 H 0.47783 0.22427 0.62882
 C842 C 0.46198 0.23040 0.64673
 H843 H 0.45557 0.21976 0.64561
 Zn844 Zn 0.50020 0.24985 0.62528
 N845 N 0.48288 0.24624 0.63819
 C846 C 0.48332 0.27528 0.61331
 N847 N 0.49662 0.26709 0.61231
 C848 C 0.50752 0.27064 0.60164
 C849 C 0.50542 0.28307 0.59165
 C850 C 0.48074 0.28781 0.60356
 C851 C 0.52116 0.24255 0.64882
 C852 C 0.53370 0.24465 0.65869
 C853 C 0.53838 0.26933 0.64676
 C854 C 0.52575 0.26676 0.63712
 N855 N 0.51752 0.25347 0.63820
 H856 H 0.47461 0.27208 0.62158
 H857 H 0.51790 0.26379 0.60092
 H858 H 0.51430 0.28573 0.58331
 H859 H 0.47007 0.29417 0.60460
 H860 H 0.51432 0.23216 0.64957
 H861 H 0.53642 0.23575 0.66698
 H862 H 0.54476 0.27999 0.64565
 H863 H 0.52252 0.27546 0.62886
 C864 C 0.45786 0.24153 0.65773
 C865 C 0.50853 0.20781 0.59260
 C866 C 0.54253 0.25819 0.65774
 C867 C 0.49188 0.29189 0.59256
 C868 C 0.50737 0.72937 0.89843
 H869 H 0.51773 0.73625 0.89915
 C870 C 0.50529 0.71689 0.90837
 H871 H 0.51419 0.71423 0.91668
 C872 C 0.48317 0.72468 0.88675
 H873 H 0.47446 0.72787 0.87849
 C874 C 0.48062 0.71211 0.89645
 H875 H 0.46997 0.70570 0.89538
 N876 N 0.49646 0.73292 0.88778
 C877 C 0.52085 0.75747 0.85129
 H878 H 0.51398 0.76784 0.85055
 C879 C 0.53334 0.75540 0.84138
 H880 H 0.53601 0.76429 0.83306
 C881 C 0.52551 0.73329 0.86301
 H882 H 0.52230 0.72458 0.87128
 C883 C 0.53810 0.73074 0.85333
 H884 H 0.54449 0.72010 0.85442
 Zn885 Zn 0.50003 0.75015 0.87486
 N886 N 0.51728 0.74656 0.86195
 C887 C 0.51695 0.77560 0.88673
 N888 N 0.50364 0.76739 0.88777
 C889 C 0.49275 0.77095 0.89844
 C890 C 0.49486 0.78342 0.90838
 C891 C 0.51953 0.78817 0.89643
 C892 C 0.47922 0.74282 0.85129
 C893 C 0.46673 0.74488 0.84137
 C894 C 0.46196 0.76954 0.85331
 C895 C 0.47455 0.76700 0.86299
 N896 N 0.48278 0.75373 0.86194
 H897 H 0.52565 0.77240 0.87846
 H898 H 0.48237 0.76409 0.89918
 H899 H 0.48598 0.78608 0.91671
 H900 H 0.53019 0.79454 0.89536
 H901 H 0.48609 0.73245 0.85056
 H902 H 0.46407 0.73598 0.83306
 H903 H 0.45556 0.78018 0.85439
 H904 H 0.47774 0.77571 0.87126
 C905 C 0.54218 0.74189 0.84233
 C906 C 0.49177 0.70804 0.90743
 C907 C 0.45788 0.75839 0.84232
 C908 C 0.50840 0.79225 0.90743
 C909 C 0.12957 0.22449 0.27233
 N910 N 0.13243 0.23444 0.26061
 N911 N 0.14428 0.23214 0.25114
 C912 C 0.15371 0.21984 0.25305
 N913 N 0.15086 0.20989 0.26477
 N914 N 0.13900 0.21217 0.27424
 C915 C 0.11651 0.22705 0.28277
 N916 N 0.11332 0.21688 0.29421
 N917 N 0.10149 0.21925 0.30368
 C918 C 0.09242 0.23188 0.30209
 N919 N 0.09561 0.24206 0.29065
 N920 N 0.10743 0.23968 0.28116
 C921 C 0.07938 0.23451 0.31254
 N922 N 0.07059 0.24735 0.31121
 N923 N 0.05873 0.24970 0.32066
 C924 C 0.05518 0.23930 0.33180
 N925 N 0.06402 0.22645 0.33311
 N926 N 0.07589 0.22411 0.32367
 C927 C 0.62983 0.72467 0.77235
 N928 N 0.63265 0.73461 0.76062
 N929 N 0.64445 0.73231 0.75110
 C930 C 0.65387 0.71998 0.75296
 N931 N 0.65106 0.71003 0.76469
 N932 N 0.63924 0.71232 0.77420
 C933 C 0.61678 0.72722 0.78281
 N934 N 0.61360 0.71703 0.79424
 N935 N 0.60176 0.71937 0.80372
 C936 C 0.59269 0.73200 0.80214
 N937 N 0.59586 0.74219 0.79071
 N938 N 0.60768 0.73984 0.78121
 C939 C 0.57965 0.73459 0.81260
 N940 N 0.57083 0.74743 0.81128
 N941 N 0.55898 0.74976 0.82073
 C942 C 0.55545 0.73935 0.83187
 N943 N 0.56431 0.72652 0.83317
 N944 N 0.57617 0.72419 0.82373
 C945 C 0.37017 0.77570 0.77239
 N946 N 0.36729 0.76576 0.76068
 N947 N 0.35546 0.76808 0.75121
 C948 C 0.34604 0.78040 0.75311
 N949 N 0.34890 0.79034 0.76483
 N950 N 0.36076 0.78803 0.77429
 C951 C 0.38325 0.77312 0.78283
 N952 N 0.38645 0.78330 0.79426
 N953 N 0.39829 0.78093 0.80372
 C954 C 0.40735 0.76829 0.80213
 N955 N 0.40415 0.75812 0.79069
 N956 N 0.39233 0.76050 0.78121
 C957 C 0.42041 0.76567 0.81258
 N958 N 0.42922 0.75283 0.81127
 N959 N 0.44108 0.75050 0.82072
 C960 C 0.44461 0.76092 0.83186
 N961 N 0.43575 0.77375 0.83314
 N962 N 0.42389 0.77608 0.82371
 C963 C -0.12982 0.27583 0.27218
 N964 N -0.13259 0.26597 0.26038
 N965 N -0.14436 0.26832 0.25084
 C966 C -0.15383 0.28061 0.25275
 N967 N -0.15107 0.29047 0.26458
 N968 N -0.13928 0.28813 0.27411
 C969 C -0.11680 0.27324 0.28265
 N970 N -0.11367 0.28338 0.29413
 N971 N -0.10185 0.28101 0.30361
 C972 C -0.09273 0.26842 0.30196
 N973 N -0.09586 0.25829 0.29047
 N974 N -0.10767 0.26067 0.28098
 C975 C -0.07970 0.26581 0.31242
 N976 N -0.07086 0.25299 0.31106
 N977 N -0.05903 0.25064 0.32053
 C978 C -0.05555 0.26102 0.33172
 N979 N -0.06443 0.27383 0.33304
 N980 N -0.07628 0.27617 0.32359
 C981 C -0.12952 0.72449 0.22761
 N982 N -0.13232 0.73446 0.23932
 N983 N -0.14411 0.73215 0.24887
 C984 C -0.15353 0.71981 0.24705
 N985 N -0.15074 0.70984 0.23534
 N986 N -0.13894 0.71214 0.22580
 C987 C -0.11650 0.72704 0.21711
 N988 N -0.11336 0.71684 0.20570
 N989 N -0.10153 0.71916 0.19620
 C990 C -0.09243 0.73179 0.19776
 N991 N -0.09559 0.74200 0.20916
 N992 N -0.10740 0.73967 0.21867
 C993 C -0.07939 0.73436 0.18729
 N994 N -0.07055 0.74719 0.18859
 N995 N -0.05870 0.74950 0.17912
 C996 C -0.05519 0.73907 0.16800
 N997 N -0.06408 0.72624 0.16674
 N998 N -0.07594 0.72393 0.17618
 C999 C 0.37003 0.22431 0.72775
 N1000 N 0.36732 0.23416 0.73958
 N1001 N 0.35547 0.23189 0.74907
 C1002 C 0.34585 0.21970 0.74708
 N1003 N 0.34857 0.20986 0.73524
 N1004 N 0.36044 0.21211 0.72576
 C1005 C 0.38312 0.22684 0.71728
 N1006 N 0.38625 0.21668 0.70582
 N1007 N 0.39809 0.21901 0.69633
 C1008 C 0.40723 0.23161 0.69792
 N1009 N 0.40409 0.24177 0.70939
 N1010 N 0.39227 0.23943 0.71889
 C1011 C 0.42030 0.23421 0.68745
 N1012 N 0.42913 0.24705 0.68876
 N1013 N 0.44100 0.24939 0.67931
 C1014 C 0.44454 0.23898 0.66818
 N1015 N 0.43566 0.22614 0.66689
 N1016 N 0.42378 0.22381 0.67632
 C1017 C 0.63032 0.27554 0.72773
 N1018 N 0.63319 0.26556 0.73941
 N1019 N 0.64500 0.26788 0.74893
 C1020 C 0.65442 0.28025 0.74712
 N1021 N 0.65155 0.29022 0.73541
 N1022 N 0.63972 0.28792 0.72591
 C1023 C 0.61727 0.27296 0.71723
 N1024 N 0.61403 0.28320 0.70587
 N1025 N 0.60219 0.28084 0.69638
 C1026 C 0.59316 0.26815 0.69789
 N1027 N 0.59642 0.25790 0.70924
 N1028 N 0.60824 0.26027 0.71874
 C1029 C 0.58008 0.26554 0.68743
 N1030 N 0.57133 0.25264 0.68869
 N1031 N 0.55946 0.25029 0.67925
 C1032 C 0.55584 0.26075 0.66818
 N1033 N 0.56464 0.27365 0.66695
 N1034 N 0.57653 0.27599 0.67637
 C1035 C 0.12991 0.77563 0.22758
 N1036 N 0.13275 0.76571 0.23932
 N1037 N 0.14455 0.76806 0.24883
 C1038 C 0.15396 0.78041 0.24695
 N1039 N 0.15113 0.79034 0.23521
 N1040 N 0.13931 0.78800 0.22571
 C1041 C 0.11688 0.77301 0.21710
 N1042 N 0.11370 0.78317 0.20566
 N1043 N 0.10187 0.78078 0.19618
 C1044 C 0.09281 0.76813 0.19778
 N1045 N 0.09600 0.75796 0.20921
 N1046 N 0.10781 0.76036 0.21871
 C1047 C 0.07976 0.76550 0.18733
 N1048 N 0.07094 0.75265 0.18865
 N1049 N 0.05909 0.75031 0.17919
 C1050 C 0.05557 0.76071 0.16805
 N1051 N 0.06443 0.77356 0.16675
 N1052 N 0.07629 0.77591 0.17619
 C1053 C 0.27215 0.12976 0.22457
 N1054 N 0.27411 0.13915 0.21222
 N1055 N 0.26468 0.15102 0.20987
 C1056 C 0.25295 0.15394 0.21978
 N1057 N 0.25097 0.14454 0.23212
 N1058 N 0.26041 0.13268 0.23448
 C1059 C 0.28258 0.11670 0.22717
 N1060 N 0.28097 0.10761 0.23979
 N1061 N 0.29047 0.09580 0.24217
 C1062 C 0.30192 0.09264 0.23200
 N1063 N 0.30351 0.10171 0.21936
 N1064 N 0.29402 0.11352 0.21700
 C1065 C 0.31240 0.07961 0.23461
 N1066 N 0.32354 0.07617 0.22420
 N1067 N 0.33300 0.06432 0.22653
 C1068 C 0.33172 0.05545 0.23936
 N1069 N 0.32058 0.05896 0.24978
 N1070 N 0.31110 0.07079 0.24745
 C1071 C 0.77233 0.63002 0.72449
 N1072 N 0.77428 0.63940 0.71214
 N1073 N 0.76483 0.65124 0.70975
 C1074 C 0.75306 0.65412 0.71962
 N1075 N 0.75108 0.64474 0.73197
 N1076 N 0.76055 0.63291 0.73437
 C1077 C 0.78276 0.61696 0.72710
 N1078 N 0.78114 0.60786 0.73971
 N1079 N 0.79062 0.59604 0.74208
 C1080 C 0.80207 0.59288 0.73191
 N1081 N 0.80367 0.60195 0.71928
 N1082 N 0.79419 0.61378 0.71692
 C1083 C 0.81253 0.57984 0.73450
 N1084 N 0.82366 0.57641 0.72409
 N1085 N 0.83311 0.56456 0.72640
 C1086 C 0.83185 0.55568 0.73922
 N1087 N 0.82070 0.55917 0.74964
 N1088 N 0.81123 0.57101 0.74733
 C1089 C 0.77195 0.37071 0.77562
 N1090 N 0.76031 0.36772 0.76561
 N1091 N 0.75076 0.35594 0.76803
 C1092 C 0.75251 0.34673 0.78053
 N1093 N 0.76415 0.34971 0.79053
 N1094 N 0.77369 0.36149 0.78812
 C1095 C 0.78246 0.38372 0.77298
 N1096 N 0.79380 0.38698 0.78323
 N1097 N 0.80332 0.39879 0.78086
 C1098 C 0.80186 0.40776 0.76813
 N1099 N 0.79052 0.40449 0.75788
 N1100 N 0.78099 0.39269 0.76026
 C1101 C 0.81235 0.42078 0.76552
 N1102 N 0.81115 0.42952 0.75262
 N1103 N 0.82064 0.44136 0.75029
 C1104 C 0.83171 0.44493 0.76075
 N1105 N 0.83289 0.43614 0.77365
 N1106 N 0.82341 0.42430 0.77598
 C1107 C 0.27197 -0.13001 0.27556
 N1108 N 0.27404 -0.13951 0.28780
 N1109 N 0.26458 -0.15137 0.29018
 C1110 C 0.25267 -0.15417 0.28043
 N1111 N 0.25060 -0.14464 0.26820
 N1112 N 0.26008 -0.13280 0.26580
 C1113 C 0.28245 -0.11694 0.27294
 N1114 N 0.28081 -0.10781 0.26035
 N1115 N 0.29032 -0.09599 0.25798
 C1116 C 0.30181 -0.09284 0.26812
 N1117 N 0.30343 -0.10197 0.28071
 N1118 N 0.29394 -0.11380 0.28306
 C1119 C 0.31228 -0.07977 0.26553
 N1120 N 0.32342 -0.07632 0.27594
 N1121 N 0.33287 -0.06444 0.27363
 C1122 C 0.33160 -0.05555 0.26081
 N1123 N 0.32045 -0.05905 0.25040
 N1124 N 0.31098 -0.07092 0.25271
 C1125 C 0.22802 -0.13007 0.72444
 N1126 N 0.23990 -0.13285 0.73422
 N1127 N 0.24936 -0.14470 0.73186
 C1128 C 0.24728 -0.15426 0.71964
 N1129 N 0.23537 -0.15147 0.70989
 N1130 N 0.22594 -0.13960 0.71223
 C1131 C 0.21757 -0.11698 0.72702
 N1132 N 0.20610 -0.11386 0.71687
 N1133 N 0.19661 -0.10202 0.71920
 C1134 C 0.19822 -0.09288 0.73178
 N1135 N 0.20970 -0.09600 0.74193
 N1136 N 0.21920 -0.10782 0.73959
 C1137 C 0.18772 -0.07983 0.73435
 N1138 N 0.18901 -0.07096 0.74716
 N1139 N 0.17953 -0.05912 0.74945
 C1140 C 0.16838 -0.05564 0.73903
 N1141 N 0.16712 -0.06455 0.72623
 N1142 N 0.17659 -0.07641 0.72394
 C1143 C 0.72831 0.37037 0.22482
 N1144 N 0.72626 0.36085 0.21259
 N1145 N 0.73574 0.34903 0.21024
 C1146 C 0.74764 0.34631 0.22000
 N1147 N 0.74969 0.35582 0.23223
 N1148 N 0.74019 0.36763 0.23460
 C1149 C 0.71786 0.38341 0.22739
 N1150 N 0.71954 0.39262 0.23991
 N1151 N 0.71003 0.40443 0.24224
 C1152 C 0.69851 0.40747 0.23212
 N1153 N 0.69684 0.39828 0.21959
 N1154 N 0.70634 0.38645 0.21727
 C1155 C 0.68802 0.42050 0.23467
 N1156 N 0.67684 0.42384 0.22430
 N1157 N 0.66736 0.43568 0.22658
 C1158 C 0.66868 0.44464 0.23934
 N1159 N 0.67988 0.44125 0.24972
 N1160 N 0.68937 0.42942 0.24743
 C1161 C 0.72802 0.62982 0.27552
 N1162 N 0.73981 0.63272 0.26566
 N1163 N 0.74928 0.64455 0.26807
 C1164 C 0.74730 0.65392 0.28042
 N1165 N 0.73550 0.65103 0.29027
 N1166 N 0.72604 0.63919 0.28786
 C1167 C 0.71758 0.61677 0.27288
 N1168 N 0.70612 0.61358 0.28303
 N1169 N 0.69665 0.60174 0.28066
 C1170 C 0.69828 0.59266 0.26804
 N1171 N 0.70974 0.59585 0.25789
 N1172 N 0.71922 0.60769 0.26027
 C1173 C 0.68784 0.57960 0.26544
 N1174 N 0.68918 0.57077 0.25263
 N1175 N 0.67972 0.55891 0.25030
 C1176 C 0.66856 0.55539 0.26071
 N1177 N 0.66726 0.56427 0.27353
 N1178 N 0.67670 0.57614 0.27585
 C1179 C 0.22783 0.12975 0.77520
 N1180 N 0.23958 0.13265 0.76528
 N1181 N 0.24904 0.14451 0.76761
 C1182 C 0.24708 0.15393 0.77993
 N1183 N 0.23534 0.15104 0.78984
 N1184 N 0.22589 0.13917 0.78752
 C1185 C 0.21738 0.11668 0.77262
 N1186 N 0.20593 0.11352 0.78279
 N1187 N 0.19642 0.10170 0.78044
 C1188 C 0.19800 0.09261 0.76782
 N1189 N 0.20946 0.09577 0.75765
 N1190 N 0.21898 0.10758 0.76001
 C1191 C 0.18751 0.07958 0.76521
 N1192 N 0.18882 0.07075 0.75238
 N1193 N 0.17935 0.05891 0.75005
 C1194 C 0.16819 0.05539 0.76046
 N1195 N 0.16690 0.06427 0.77328
 N1196 N 0.17636 0.07613 0.77561
 C1197 C 0.22440 0.27283 0.12936
 N1198 N 0.23432 0.26109 0.13219
 N1199 N 0.23198 0.25156 0.14399
 C1200 C 0.21964 0.25345 0.15340
 N1201 N 0.20972 0.26519 0.15058
 N1202 N 0.21205 0.27471 0.13877
 C1203 C 0.22697 0.28331 0.11635
 N1204 N 0.21679 0.29475 0.11322
 N1205 N 0.21913 0.30426 0.10141
 C1206 C 0.23175 0.30269 0.09232
 N1207 N 0.24194 0.29126 0.09545
 N1208 N 0.23959 0.28174 0.10725
 C1209 C 0.23434 0.31318 0.07930
 N1210 N 0.24716 0.31188 0.07047
 N1211 N 0.24949 0.32137 0.05864
 C1212 C 0.23908 0.33251 0.05516
 N1213 N 0.22625 0.33378 0.06403
 N1214 N 0.22393 0.32431 0.07588
 C1215 C 0.72464 0.77315 0.62936
 N1216 N 0.71230 0.77503 0.63877
 N1217 N 0.70998 0.76553 0.65058
 C1218 C 0.71990 0.75379 0.65341
 N1219 N 0.73223 0.75190 0.64399
 N1220 N 0.73457 0.76141 0.63219
 C1221 C 0.72723 0.78364 0.61636
 N1222 N 0.73985 0.78207 0.60727
 N1223 N 0.74221 0.79160 0.59548
 C1224 C 0.73203 0.80304 0.59235
 N1225 N 0.71940 0.80460 0.60143
 N1226 N 0.71705 0.79508 0.61323
 C1227 C 0.73463 0.81353 0.57935
 N1228 N 0.72421 0.82466 0.57594
 N1229 N 0.72654 0.83414 0.56410
 C1230 C 0.73936 0.83287 0.55523
 N1231 N 0.74978 0.82173 0.55870
 N1232 N 0.74746 0.81224 0.57053
 C1233 C 0.77561 0.77307 0.37052
 N1234 N 0.76568 0.76132 0.36769
 N1235 N 0.76802 0.75182 0.35588
 C1236 C 0.78035 0.75373 0.34646
 N1237 N 0.79027 0.76548 0.34929
 N1238 N 0.78795 0.77497 0.36111
 C1239 C 0.77302 0.78356 0.38352
 N1240 N 0.78320 0.79501 0.38664
 N1241 N 0.78083 0.80454 0.39842
 C1242 C 0.76820 0.80297 0.40750
 N1243 N 0.75802 0.79151 0.40438
 N1244 N 0.76039 0.78197 0.39260
 C1245 C 0.76559 0.81347 0.42048
 N1246 N 0.75276 0.81217 0.42930
 N1247 N 0.75042 0.82167 0.44112
 C1248 C 0.76083 0.83283 0.44459
 N1249 N 0.77367 0.83410 0.43572
 N1250 N 0.77600 0.82462 0.42390
 C1251 C 0.27544 0.27281 -0.12971
 N1252 N 0.28781 0.27474 -0.13908
 N1253 N 0.29020 0.26525 -0.15089
 C1254 C 0.28032 0.25348 -0.15376
 N1255 N 0.26795 0.25155 -0.14440
 N1256 N 0.26554 0.26104 -0.13259
 C1257 C 0.27280 0.28328 -0.11669
 N1258 N 0.26016 0.28167 -0.10762
 N1259 N 0.25776 0.29119 -0.09582
 C1260 C 0.26793 0.30264 -0.09265
 N1261 N 0.28058 0.30423 -0.10171
 N1262 N 0.28296 0.29473 -0.11351
 C1263 C 0.26531 0.31313 -0.07964
 N1264 N 0.27572 0.32427 -0.07621
 N1265 N 0.27340 0.33374 -0.06438
 C1266 C 0.26056 0.33248 -0.05551
 N1267 N 0.25014 0.32133 -0.05900
 N1268 N 0.25247 0.31184 -0.07082
 C1269 C 0.72448 0.22773 -0.12932
 N1270 N 0.72899 0.24268 -0.12860
 N1271 N 0.72673 0.25209 -0.14050
 C1272 C 0.71967 0.24694 -0.15346
 N1273 N 0.71507 0.23202 -0.15415
 N1274 N 0.71752 0.22255 -0.14232
 C1275 C 0.72705 0.21732 -0.11626
 N1276 N 0.72767 0.20186 -0.11846
 N1277 N 0.73006 0.19239 -0.10663
 C1278 C 0.73169 0.19802 -0.09215
 N1279 N 0.73097 0.21348 -0.08993
 N1280 N 0.72880 0.22297 -0.10179
 C1281 C 0.73425 0.18755 -0.07913
 N1282 N 0.73089 0.19199 -0.06453
 N1283 N 0.73319 0.18243 -0.05274
 C1284 C 0.73912 0.16815 -0.05512
 N1285 N 0.74255 0.16376 -0.06973
 N1286 N 0.74005 0.17324 -0.08152
 C1287 C 0.22454 0.72720 0.37057
 N1288 N 0.23449 0.73894 0.36776
 N1289 N 0.23221 0.74846 0.35596
 C1290 C 0.21990 0.74659 0.34651
 N1291 N 0.20995 0.73484 0.34930
 N1292 N 0.21222 0.72533 0.36112
 C1293 C 0.22707 0.71670 0.38358
 N1294 N 0.21687 0.70525 0.38668
 N1295 N 0.21918 0.69572 0.39848
 C1296 C 0.23179 0.69727 0.40759
 N1297 N 0.24199 0.70871 0.40448
 N1298 N 0.23967 0.71826 0.39270
 C1299 C 0.23436 0.68677 0.42059
 N1300 N 0.24718 0.68807 0.42943
 N1301 N 0.24949 0.67857 0.44125
 C1302 C 0.23908 0.66741 0.44472
 N1303 N 0.22625 0.66614 0.43584
 N1304 N 0.22394 0.67562 0.42401
 C1305 C 0.27527 0.72717 0.62952
 N1306 N 0.26535 0.73892 0.63233
 N1307 N 0.26769 0.74846 0.64411
 C1308 C 0.28003 0.74659 0.65353
 N1309 N 0.28994 0.73483 0.65073
 N1310 N 0.28761 0.72530 0.63893
 C1311 C 0.27269 0.71666 0.61652
 N1312 N 0.28286 0.70521 0.61339
 N1313 N 0.28050 0.69568 0.60160
 C1314 C 0.26788 0.69724 0.59252
 N1315 N 0.25770 0.70869 0.59565
 N1316 N 0.26007 0.71823 0.60743
 C1317 C 0.26527 0.68673 0.57952
 N1318 N 0.25245 0.68802 0.57069
 N1319 N 0.25012 0.67852 0.55887
 C1320 C 0.26053 0.66737 0.55540
 N1321 N 0.27335 0.66611 0.56427
 N1322 N 0.27568 0.67559 0.57610
 C1323 C 0.77611 0.22753 0.12961
 N1324 N 0.78889 0.22614 0.13850
 N1325 N 0.79119 0.23559 0.15036
 C1326 C 0.78083 0.24680 0.15371
 N1327 N 0.76808 0.24821 0.14480
 N1328 N 0.76574 0.23873 0.13297
 C1329 C 0.77354 0.21707 0.11661
 N1330 N 0.76022 0.21763 0.10846
 N1331 N 0.75788 0.20808 0.09669
 C1332 C 0.76879 0.19766 0.09262
 N1333 N 0.78212 0.19712 0.10076
 N1334 N 0.78444 0.20663 0.11256
 C1335 C 0.76626 0.18722 0.07959
 N1336 N 0.77763 0.17765 0.07476
 N1337 N 0.77540 0.16830 0.06281
 C1338 C 0.76170 0.16811 0.05526
 N1339 N 0.75032 0.17765 0.06018
 N1340 N 0.75256 0.18704 0.07210
 C1341 C 0.47448 0.37949 0.52250
 N1342 N 0.48443 0.38235 0.51078
 N1343 N 0.48211 0.39417 0.50129
 C1344 C 0.46978 0.40359 0.50316
 N1345 N 0.45983 0.40074 0.51489
 N1346 N 0.46213 0.38890 0.52438
 C1347 C 0.47706 0.36644 0.53296
 N1348 N 0.46688 0.36324 0.54439
 N1349 N 0.46926 0.35141 0.55388
 C1350 C 0.48191 0.34236 0.55229
 N1351 N 0.49208 0.34556 0.54085
 N1352 N 0.48969 0.35737 0.53136
 C1353 C 0.48453 0.32931 0.56275
 N1354 N 0.49739 0.32052 0.56145
 N1355 N 0.49974 0.30867 0.57091
 C1356 C 0.48933 0.30513 0.58206
 N1357 N 0.47648 0.31397 0.58334
 N1358 N 0.47413 0.32583 0.57388
 C1359 C -0.02544 0.87945 0.02250
 N1360 N -0.01550 0.88222 0.01076
 N1361 N -0.01775 0.89404 0.00126
 C1362 C -0.03001 0.90354 0.00317
 N1363 N -0.03996 0.90077 0.01491
 N1364 N -0.03772 0.88893 0.02440
 C1365 C -0.02291 0.86642 0.03297
 N1366 N -0.03307 0.86328 0.04443
 N1367 N -0.03072 0.85147 0.05392
 C1368 C -0.01811 0.84237 0.05232
 N1369 N -0.00795 0.84550 0.04086
 N1370 N -0.01031 0.85730 0.03135
 C1371 C -0.01549 0.82935 0.06278
 N1372 N -0.00266 0.82054 0.06142
 N1373 N -0.00031 0.80869 0.07087
 C1374 C -0.01069 0.80517 0.08204
 N1375 N -0.02352 0.81402 0.08337
 N1376 N -0.02587 0.82589 0.07393
 C1377 C 0.02597 0.62026 0.02250
 N1378 N 0.03819 0.61071 0.02448
 N1379 N 0.04046 0.59887 0.01498
 C1380 C 0.03060 0.59618 0.00316
 N1381 N 0.01841 0.60574 0.00116
 N1382 N 0.01613 0.61755 0.01067
 C1383 C 0.02339 0.63327 0.03297
 N1384 N 0.01083 0.64241 0.03129
 N1385 N 0.00843 0.65421 0.04080
 C1386 C 0.01852 0.65730 0.05233
 N1387 N 0.03109 0.64817 0.05400
 N1388 N 0.03348 0.63635 0.04451
 C1389 C 0.01588 0.67033 0.06278
 N1390 N 0.02623 0.67375 0.07398
 N1391 N 0.02387 0.68561 0.08341
 C1392 C 0.01107 0.69451 0.08204
 N1393 N 0.00072 0.69102 0.07083
 N1394 N 0.00308 0.67918 0.06138
 C1395 C 0.52598 0.12031 0.52251
 N1396 N 0.53821 0.11077 0.52448
 N1397 N 0.54048 0.09893 0.51499
 C1398 C 0.53062 0.09623 0.50317
 N1399 N 0.51841 0.10578 0.50119
 N1400 N 0.51613 0.11760 0.51069
 C1401 C 0.52340 0.13332 0.53300
 N1402 N 0.51083 0.14246 0.53133
 N1403 N 0.50843 0.15426 0.54084
 C1404 C 0.51853 0.15736 0.55236
 N1405 N 0.53111 0.14823 0.55403
 N1406 N 0.53349 0.13642 0.54453
 C1407 C 0.51590 0.17039 0.56283
 N1408 N 0.52625 0.17382 0.57402
 N1409 N 0.52389 0.18567 0.58346
 C1410 C 0.51109 0.19457 0.58211
 N1411 N 0.50073 0.19109 0.57091
 N1412 N 0.50309 0.17924 0.56145
 C1413 C -0.02593 0.12054 0.47728
 N1414 N -0.03825 0.11108 0.47544
 N1415 N -0.04050 0.09924 0.48495
 C1416 C -0.03051 0.09646 0.49665
 N1417 N -0.01820 0.10592 0.49849
 N1418 N -0.01595 0.11774 0.48897
 C1419 C -0.02337 0.13354 0.46678
 N1420 N -0.01075 0.14263 0.46835
 N1421 N -0.00839 0.15444 0.45884
 C1422 C -0.01859 0.15760 0.44743
 N1423 N -0.03122 0.14851 0.44586
 N1424 N -0.03357 0.13669 0.45536
 C1425 C -0.01597 0.17063 0.43697
 N1426 N -0.02637 0.17410 0.42585
 N1427 N -0.02402 0.18597 0.41642
 C1428 C -0.01118 0.19483 0.41772
 N1429 N -0.00077 0.19129 0.42885
 N1430 N -0.00312 0.17943 0.43829
 C1431 C 0.47444 0.62046 0.97749
 N1432 N 0.46208 0.61104 0.97565
 N1433 N 0.45978 0.59923 0.98518
 C1434 C 0.46974 0.59642 0.99689
 N1435 N 0.48208 0.60584 0.99873
 N1436 N 0.48439 0.61764 0.98920
 C1437 C 0.47703 0.63347 0.96700
 N1438 N 0.48967 0.64255 0.96857
 N1439 N 0.49204 0.65437 0.95907
 C1440 C 0.48186 0.65754 0.94765
 N1441 N 0.46921 0.64847 0.94608
 N1442 N 0.46684 0.63664 0.95557
 C1443 C 0.48446 0.67059 0.93719
 N1444 N 0.47405 0.67406 0.92608
 N1445 N 0.47639 0.68592 0.91663
 C1446 C 0.48923 0.69478 0.91790
 N1447 N 0.49965 0.69126 0.92903
 N1448 N 0.49731 0.67940 0.93849
 C1449 C 0.52579 0.87979 0.97750
 N1450 N 0.53812 0.88923 0.97562
 N1451 N 0.54040 0.90108 0.98510
 C1452 C 0.53043 0.90391 0.99681
 N1453 N 0.51812 0.89446 0.99870
 N1454 N 0.51583 0.88262 0.98921
 C1455 C 0.52322 0.86675 0.96703
 N1456 N 0.51058 0.85766 0.96862
 N1457 N 0.50820 0.84586 0.95911
 C1458 C 0.51838 0.84269 0.94768
 N1459 N 0.53103 0.85177 0.94610
 N1460 N 0.53340 0.86358 0.95560
 C1461 C 0.51576 0.82967 0.93720
 N1462 N 0.52616 0.82620 0.92607
 N1463 N 0.52381 0.81435 0.91662
 C1464 C 0.51096 0.80550 0.91791
 N1465 N 0.50055 0.80902 0.92905
 N1466 N 0.50290 0.82086 0.93851
 C1467 C 0.02559 0.37981 0.47723
 N1468 N 0.03805 0.38910 0.47550
 N1469 N 0.04036 0.40090 0.48504
 C1470 C 0.03031 0.40380 0.49666
 N1471 N 0.01786 0.39450 0.49837
 N1472 N 0.01553 0.38273 0.48883
 C1473 C 0.02300 0.36679 0.46676
 N1474 N 0.01030 0.35779 0.46827
 N1475 N 0.00792 0.34598 0.45879
 C1476 C 0.01817 0.34271 0.44745
 N1477 N 0.03089 0.35169 0.44595
 N1478 N 0.03326 0.36352 0.45542
 C1479 C 0.01553 0.32968 0.43700
 N1480 N 0.02598 0.32613 0.42594
 N1481 N 0.02361 0.31428 0.41650
 C1482 C 0.01070 0.30550 0.41773
 N1483 N 0.00025 0.30910 0.42881
 N1484 N 0.00262 0.32095 0.43826
 C1485 C 0.37958 0.52182 0.47464
 N1486 N 0.38896 0.52380 0.46229
 N1487 N 0.40084 0.51439 0.45993
 C1488 C 0.40376 0.50264 0.46981
 N1489 N 0.39437 0.50065 0.48216
 N1490 N 0.38250 0.51008 0.48453
 C1491 C 0.36650 0.53222 0.47723
 N1492 N 0.35740 0.53059 0.48985
 N1493 N 0.34558 0.54007 0.49221
 C1494 C 0.34240 0.55151 0.48204
 N1495 N 0.35148 0.55312 0.46942
 N1496 N 0.36332 0.54366 0.46706
 C1497 C 0.32935 0.56196 0.48462
 N1498 N 0.32592 0.57308 0.47420
 N1499 N 0.31405 0.58252 0.47650
 C1500 C 0.30516 0.58124 0.48931
 N1501 N 0.30865 0.57011 0.49974
 N1502 N 0.32051 0.56065 0.49744
 C1503 C 0.87978 0.02135 -0.02546
 N1504 N 0.88370 0.01067 -0.01475
 N1505 N 0.89556 0.00125 -0.01713
 C1506 C 0.90397 0.00225 -0.03026
 N1507 N 0.90007 0.01295 -0.04096
 N1508 N 0.88815 0.02231 -0.03862
 C1509 C 0.86675 0.03174 -0.02284
 N1510 N 0.86147 0.04091 -0.03435
 N1511 N 0.84964 0.05037 -0.03195
 C1512 C 0.84276 0.05109 -0.01794
 N1513 N 0.84807 0.04195 -0.00643
 N1514 N 0.85983 0.03241 -0.00885
 C1515 C 0.82971 0.06145 -0.01530
 N1516 N 0.82426 0.06381 -0.00085
 N1517 N 0.81227 0.07305 0.00154
 C1518 C 0.80519 0.08019 -0.01044
 N1519 N 0.81069 0.07783 -0.02489
 N1520 N 0.82275 0.06867 -0.02727
 C1521 C 0.62074 0.02213 0.02538
 N1522 N 0.61146 0.02401 0.03782
 N1523 N 0.59955 0.01461 0.04017
 C1524 C 0.59650 0.00299 0.03018
 N1525 N 0.60578 0.00110 0.01774
 N1526 N 0.61767 0.01051 0.01538
 C1527 C 0.63383 0.03253 0.02276
 N1528 N 0.64271 0.03110 0.00997
 N1529 N 0.65455 0.04058 0.00758
 C1530 C 0.65795 0.05181 0.01791
 N1531 N 0.64909 0.05321 0.03071
 N1532 N 0.63724 0.04376 0.03309
 C1533 C 0.67099 0.06228 0.01530
 N1534 N 0.67471 0.07309 0.02595
 N1535 N 0.68652 0.08260 0.02361
 C1536 C 0.69506 0.08173 0.01052
 N1537 N 0.69129 0.07090 -0.00013
 N1538 N 0.67949 0.06135 0.00222
 C1539 C 0.12028 0.52200 0.52522
 N1540 N 0.11069 0.52417 0.53737
 N1541 N 0.09886 0.51470 0.53973
 C1542 C 0.09620 0.50273 0.53005
 N1543 N 0.10578 0.50056 0.51790
 N1544 N 0.11760 0.51004 0.51551
 C1545 C 0.13332 0.53242 0.52264
 N1546 N 0.14262 0.53060 0.51022
 N1547 N 0.15445 0.54009 0.50788
 C1548 C 0.15741 0.55172 0.51789
 N1549 N 0.14811 0.55352 0.53033
 N1550 N 0.13627 0.54405 0.53266
 C1551 C 0.17043 0.56217 0.51533
 N1552 N 0.17369 0.57345 0.52563
 N1553 N 0.18555 0.58290 0.52333
 C1554 C 0.19460 0.58146 0.51065
 N1555 N 0.19127 0.57017 0.50035
 N1556 N 0.17942 0.56070 0.50265
 C1557 C 0.12049 0.47800 -0.02548
 N1558 N 0.11757 0.48971 -0.01555
 N1559 N 0.10572 0.49915 -0.01789
 C1560 C 0.09636 0.49720 -0.03025
 N1561 N 0.09928 0.48551 -0.04019
 N1562 N 0.11114 0.47608 -0.03786
 C1563 C 0.13350 0.46757 -0.02289
 N1564 N 0.13662 0.45611 -0.03305
 N1565 N 0.14842 0.44661 -0.03069
 C1566 C 0.15751 0.44821 -0.01808
 N1567 N 0.15438 0.45966 -0.00792
 N1568 N 0.14259 0.46918 -0.01028
 C1569 C 0.17051 0.43775 -0.01550
 N1570 N 0.17936 0.43907 -0.00270
 N1571 N 0.19120 0.42960 -0.00040
 C1572 C 0.19465 0.41845 -0.01082
 N1573 N 0.18575 0.41715 -0.02361
 N1574 N 0.17390 0.42660 -0.02591
 C1575 C 0.62063 0.97817 0.47451
 N1576 N 0.61128 0.97622 0.46214
 N1577 N 0.59941 0.98563 0.45980
 C1578 C 0.59646 0.99732 0.46973
 N1579 N 0.60582 0.99929 0.48209
 N1580 N 0.61769 0.98988 0.48445
 C1581 C 0.63365 0.96776 0.47712
 N1582 N 0.64274 0.96940 0.48972
 N1583 N 0.65455 0.95991 0.49209
 C1584 C 0.65770 0.94846 0.48193
 N1585 N 0.64861 0.94683 0.46933
 N1586 N 0.63679 0.95630 0.46697
 C1587 C 0.67071 0.93802 0.48451
 N1588 N 0.67412 0.92688 0.47411
 N1589 N 0.68598 0.91745 0.47641
 C1590 C 0.69489 0.91877 0.48919
 N1591 N 0.69143 0.92992 0.49960
 N1592 N 0.67957 0.93938 0.49731
 C1593 C 0.87949 0.97829 0.52522
 N1594 N 0.88233 0.99012 0.51541
 N1595 N 0.89420 0.99955 0.51777
 C1596 C 0.90366 0.99745 0.53003
 N1597 N 0.90084 0.98561 0.53983
 N1598 N 0.88896 0.97620 0.53748
 C1599 C 0.86647 0.96787 0.52261
 N1600 N 0.86341 0.95631 0.53267
 N1601 N 0.85157 0.94684 0.53031
 C1602 C 0.84239 0.94858 0.51779
 N1603 N 0.84546 0.96013 0.50771
 N1604 N 0.85729 0.96962 0.51008
 C1605 C 0.82938 0.93813 0.51520
 N1606 N 0.82046 0.93954 0.50246
 N1607 N 0.80861 0.93008 0.50017
 C1608 C 0.80521 0.91885 0.51053
 N1609 N 0.81419 0.91746 0.52326
 N1610 N 0.82605 0.92691 0.52555
 C1611 C 0.37960 0.47809 0.02534
 N1612 N 0.38252 0.48987 0.01547
 N1613 N 0.39437 0.49932 0.01787
 C1614 C 0.40374 0.49733 0.03022
 N1615 N 0.40082 0.48555 0.04008
 N1616 N 0.38896 0.47611 0.03769
 C1617 C 0.36655 0.46765 0.02270
 N1618 N 0.36336 0.45620 0.03286
 N1619 N 0.35152 0.44673 0.03049
 C1620 C 0.34245 0.44835 0.01787
 N1621 N 0.34564 0.45980 0.00771
 N1622 N 0.35747 0.46928 0.01008
 C1623 C 0.32939 0.43791 0.01529
 N1624 N 0.32056 0.43922 0.00247
 N1625 N 0.30869 0.42976 0.00016
 C1626 C 0.30518 0.41862 0.01059
 N1627 N 0.31406 0.41734 0.02340
 N1628 N 0.32594 0.42678 0.02570
 C1629 C 0.52280 0.47441 0.37944
 N1630 N 0.52471 0.46207 0.38885
 N1631 N 0.51520 0.45972 0.40066
 C1632 C 0.50344 0.46961 0.40348
 N1633 N 0.50153 0.48195 0.39407
 N1634 N 0.51105 0.48431 0.38227
 C1635 C 0.53329 0.47701 0.36643
 N1636 N 0.53169 0.48963 0.35733
 N1637 N 0.54122 0.49200 0.34554
 C1638 C 0.55267 0.48184 0.34240
 N1639 N 0.55425 0.46922 0.35149
 N1640 N 0.54474 0.46685 0.36329
 C1641 C 0.56316 0.48445 0.32939
 N1642 N 0.57430 0.47405 0.32597
 N1643 N 0.58378 0.47638 0.31414
 C1644 C 0.58251 0.48920 0.30526
 N1645 N 0.57135 0.49960 0.30873
 N1646 N 0.56186 0.49727 0.32056
 C1647 C 0.02254 -0.02574 0.87916
 N1648 N 0.02455 -0.03806 0.88858
 N1649 N 0.01508 -0.04047 0.90040
 C1650 C 0.00323 -0.03067 0.90321
 N1651 N 0.00122 -0.01836 0.89379
 N1652 N 0.01071 -0.01593 0.88198
 C1653 C 0.03299 -0.02309 0.86614
 N1654 N 0.03132 -0.01049 0.85703
 N1655 N 0.04082 -0.00808 0.84522
 C1656 C 0.05232 -0.01819 0.84209
 N1657 N 0.05398 -0.03079 0.85120
 N1658 N 0.04449 -0.03319 0.86301
 C1659 C 0.06280 -0.01557 0.82908
 N1660 N 0.07397 -0.02595 0.82569
 N1661 N 0.08344 -0.02362 0.81385
 C1662 C 0.08214 -0.01082 0.80495
 N1663 N 0.07096 -0.00043 0.80839
 N1664 N 0.06146 -0.00276 0.82022
 C1665 C 0.02245 0.02557 0.62035
 N1666 N 0.01068 0.01568 0.61748
 N1667 N 0.00120 0.01807 0.60567
 C1668 C 0.00315 0.03043 0.59629
 N1669 N 0.01492 0.04031 0.59915
 N1670 N 0.02440 0.03793 0.61097
 C1671 C 0.03290 0.02295 0.63338
 N1672 N 0.04435 0.03311 0.63654
 N1673 N 0.05385 0.03073 0.64835
 C1674 C 0.05224 0.01808 0.65741
 N1675 N 0.04079 0.00792 0.65424
 N1676 N 0.03128 0.01031 0.64245
 C1677 C 0.06272 0.01547 0.67042
 N1678 N 0.06141 0.00263 0.67924
 N1679 N 0.07091 0.00029 0.69106
 C1680 C 0.08207 0.01071 0.69454
 N1681 N 0.08334 0.02355 0.68568
 N1682 N 0.07386 0.02588 0.67385
 C1683 C 0.52282 0.52555 0.12053
 N1684 N 0.51107 0.51563 0.11768
 N1685 N 0.50158 0.51798 0.10587
 C1686 C 0.50351 0.53032 0.09646
 N1687 N 0.51526 0.54023 0.09930
 N1688 N 0.52474 0.53789 0.11113
 C1689 C 0.53329 0.52295 0.13355
 N1690 N 0.54475 0.53312 0.13669
 N1691 N 0.55426 0.53075 0.14850
 C1692 C 0.55267 0.51812 0.15757
 N1693 N 0.54122 0.50794 0.15442
 N1694 N 0.53170 0.51032 0.14263
 C1695 C 0.56316 0.51551 0.17057
 N1696 N 0.56186 0.50266 0.17939
 N1697 N 0.57135 0.50033 0.19121
 C1698 C 0.58250 0.51075 0.19470
 N1699 N 0.58377 0.52359 0.18584
 N1700 N 0.57430 0.52592 0.17401
 C1701 C 0.47754 -0.02540 0.12057
 N1702 N 0.48931 -0.01550 0.11773
 N1703 N 0.49883 -0.01787 0.10594
 C1704 C 0.49690 -0.03021 0.09653
 N1705 N 0.48512 -0.04010 0.09936
 N1706 N 0.47562 -0.03774 0.11117
 C1707 C 0.46706 -0.02280 0.13359
 N1708 N 0.45560 -0.03297 0.13674
 N1709 N 0.44610 -0.03061 0.14855
 C1710 C 0.44769 -0.01799 0.15764
 N1711 N 0.45915 -0.00782 0.15449
 N1712 N 0.46867 -0.01018 0.14269
 C1713 C 0.43720 -0.01540 0.17066
 N1714 N 0.43850 -0.00257 0.17949
 N1715 N 0.42900 -0.00026 0.19132
 C1716 C 0.41784 -0.01068 0.19479
 N1717 N 0.41658 -0.02350 0.18591
 N1718 N 0.42605 -0.02581 0.17408
 C1719 C 0.97743 0.47465 0.62046
 N1720 N 0.97545 0.46230 0.61108
 N1721 N 0.98489 0.45994 0.59922
 C1722 C 0.99666 0.46983 0.59634
 N1723 N 0.99865 0.48216 0.60573
 N1724 N 0.98920 0.48454 0.61757
 C1725 C 0.96700 0.47727 0.63349
 N1726 N 0.96864 0.48990 0.64256
 N1727 N 0.95914 0.49230 0.65436
 C1728 C 0.94767 0.48214 0.65753
 N1729 N 0.94605 0.46951 0.64847
 N1730 N 0.95553 0.46712 0.63666
 C1731 C 0.93720 0.48476 0.67054
 N1732 N 0.92605 0.47436 0.67398
 N1733 N 0.91659 0.47669 0.68582
 C1734 C 0.91788 0.48951 0.69468
 N1735 N 0.92905 0.49992 0.69119
 N1736 N 0.93853 0.49759 0.67936
 C1737 C 0.97759 0.52549 0.87937
 N1738 N 0.97567 0.53783 0.88876
 N1739 N 0.98516 0.54019 0.90058
 C1740 C 0.99691 0.53030 0.90342
 N1741 N 0.99884 0.51795 0.89402
 N1742 N 0.98934 0.51558 0.88222
 C1743 C 0.96713 0.52290 0.86635
 N1744 N 0.96872 0.51029 0.85726
 N1745 N 0.95921 0.50793 0.84546
 C1746 C 0.94778 0.51812 0.84231
 N1747 N 0.94621 0.53074 0.85140
 N1748 N 0.95570 0.53308 0.86321
 C1749 C 0.93730 0.51555 0.82930
 N1750 N 0.92619 0.52598 0.82590
 N1751 N 0.91671 0.52369 0.81407
 C1752 C 0.91795 0.51088 0.80517
 N1753 N 0.92908 0.50044 0.80863
 N1754 N 0.93857 0.50273 0.82046
 C1755 C 0.47758 0.02543 0.37940
 N1756 N 0.48935 0.01554 0.38225
 N1757 N 0.49885 0.01792 0.39404
 C1758 C 0.49693 0.03026 0.40344
 N1759 N 0.48515 0.04014 0.40061
 N1760 N 0.47566 0.03777 0.38880
 C1761 C 0.46712 0.02282 0.36639
 N1762 N 0.45567 0.03299 0.36326
 N1763 N 0.44617 0.03064 0.35145
 C1764 C 0.44775 0.01802 0.34236
 N1765 N 0.45919 0.00785 0.34550
 N1766 N 0.46871 0.01021 0.35729
 C1767 C 0.43726 0.01544 0.32936
 N1768 N 0.43854 0.00262 0.32051
 N1769 N 0.42904 0.00031 0.30870
 C1770 C 0.41789 0.01072 0.30524
 N1771 N 0.41664 0.02354 0.31413
 N1772 N 0.42613 0.02585 0.32596
   
