data_POSCAR
  _audit_creation_date              2014-09-24
  _audit_creation_method            'ToBaCCo'
  _symmetry_space_group_name_H-M    'P1'
  _symmetry_Int_Tables_number       1
  _symmetry_cell_setting            triclinic
  loop_
  _symmetry_equiv_pos_as_xyz
 x,y,z
_cell_length_a 68.6617
_cell_length_b 69.0692
_cell_length_c 69.2287
_cell_angle_alpha 90.150800
_cell_angle_beta 89.949400
_cell_angle_gamma 89.731500
loop_
  _atom_site_label
  _atom_site_type_symbol
  _atom_site_fract_x
  _atom_site_fract_y
  _atom_site_fract_z
N1 N 0.36563 0.30819 0.32083
 N2 N 0.36673 0.32381 0.31010
 C3 C 0.38297 0.32295 0.29927
 C4 C 0.39263 0.30587 0.30334
 C5 C 0.38116 0.29676 0.31706
 H6 H 0.38739 0.33383 0.28899
 H7 H 0.38411 0.28308 0.32407
 Cu8 Cu 0.34681 0.34366 0.31118
 Cu9 Cu 0.34455 0.30463 0.33950
 Cu10 Cu 0.30864 0.34050 0.34107
 N11 N 0.32675 0.36339 0.31158
 N12 N 0.31149 0.36203 0.32296
 C13 C 0.29981 0.37752 0.32003
 C14 C 0.30841 0.38920 0.30618
 C15 C 0.32541 0.37971 0.30116
 H16 H 0.28629 0.38024 0.32761
 H17 H 0.33588 0.38428 0.29047
 N18 N 0.30861 0.31755 0.35816
 N19 N 0.32211 0.30387 0.35741
 C20 C 0.31850 0.29076 0.37132
 C21 C 0.30202 0.29645 0.38144
 C22 C 0.29614 0.31350 0.37262
 H23 H 0.32766 0.27839 0.37441
 H24 H 0.28386 0.32247 0.37666
 H25 H 0.32385 0.32054 0.32465
 H26 H 0.33785 0.33360 0.34365
 N27 N 0.36330 0.81094 -0.17590
 N28 N 0.36169 0.82413 -0.18942
 C29 C 0.37590 0.82138 -0.20258
 C30 C 0.38725 0.80567 -0.19691
 C31 C 0.37872 0.79951 -0.17980
 H32 H 0.37783 0.83027 -0.21524
 H33 H 0.38288 0.78721 -0.17110
 Cu34 Cu 0.34119 0.84367 -0.18871
 Cu35 Cu 0.34451 0.80850 -0.15505
 Cu36 Cu 0.30521 0.83996 -0.15574
 N37 N 0.31892 0.86121 -0.18854
 N38 N 0.30450 0.85905 -0.17629
 C39 C 0.29091 0.87272 -0.17961
 C40 C 0.29721 0.88440 -0.19465
 C41 C 0.31513 0.87654 -0.19994
 H42 H 0.27782 0.87444 -0.17110
 H43 H 0.32465 0.88143 -0.21134
 N44 N 0.30859 0.81984 -0.13595
 N45 N 0.32385 0.80820 -0.13531
 C46 C 0.32227 0.79663 -0.11975
 C47 C 0.30514 0.80116 -0.11015
 C48 C 0.29689 0.81597 -0.12085
 H49 H 0.33272 0.78557 -0.11581
 H50 H 0.28354 0.82367 -0.11764
 H51 H 0.32188 0.82008 -0.17106
 H52 H 0.33515 0.83704 -0.15461
 N53 N 0.86543 0.31054 -0.17754
 N54 N 0.86672 0.32511 -0.18964
 C55 C 0.88283 0.32302 -0.20046
 C56 C 0.89221 0.30622 -0.19500
 C57 C 0.88072 0.29850 -0.18047
 H58 H 0.88747 0.33293 -0.21159
 H59 H 0.88362 0.28552 -0.17224
 Cu60 Cu 0.84728 0.34542 -0.19025
 Cu61 Cu 0.84474 0.30952 -0.15804
 Cu62 Cu 0.80984 0.34643 -0.15946
 N63 N 0.82765 0.36553 -0.19165
 N64 N 0.81252 0.36558 -0.18006
 C65 C 0.80087 0.38066 -0.18463
 C66 C 0.80936 0.39076 -0.19982
 C67 C 0.82636 0.38060 -0.20379
 H68 H 0.78752 0.38420 -0.17710
 H69 H 0.83684 0.38362 -0.21500
 N70 N 0.80985 0.32571 -0.13981
 N71 N 0.82276 0.31145 -0.13956
 C72 C 0.81910 0.30004 -0.12423
 C73 C 0.80330 0.30756 -0.11424
 C74 C 0.79782 0.32382 -0.12455
 H75 H 0.82776 0.28760 -0.12015
 H76 H 0.78602 0.33364 -0.12108
 H77 H 0.82416 0.32440 -0.17394
 H78 H 0.83900 0.33894 -0.15673
 N79 N 0.86319 0.80899 0.32596
 N80 N 0.86354 0.82222 0.31238
 C81 C 0.87888 0.81852 0.30064
 C82 C 0.88856 0.80208 0.30738
 C83 C 0.87800 0.79655 0.32342
 H84 H 0.88271 0.82714 0.28821
 H85 H 0.88070 0.78426 0.33264
 Cu86 Cu 0.84359 0.84274 0.31178
 Cu87 Cu 0.84397 0.80839 0.34627
 Cu88 Cu 0.80622 0.84120 0.34394
 N89 N 0.82149 0.86086 0.31054
 N90 N 0.80670 0.85938 0.32252
 C91 C 0.79340 0.87307 0.31837
 C92 C 0.80013 0.88413 0.30305
 C93 C 0.81814 0.87588 0.29850
 H94 H 0.78017 0.87524 0.32655
 H95 H 0.82799 0.88030 0.28718
 N96 N 0.80853 0.82178 0.36467
 N97 N 0.82336 0.80965 0.36569
 C98 C 0.82171 0.79893 0.38177
 C99 C 0.80499 0.80447 0.39140
 C100 C 0.79688 0.81895 0.38011
 H101 H 0.83186 0.78777 0.38614
 H102 H 0.78378 0.82713 0.38320
 H103 H 0.82223 0.82084 0.32923
 H104 H 0.83578 0.83757 0.34577
 N105 N 0.63407 0.68761 0.31995
 N106 N 0.63631 0.67374 0.30710
 C107 C 0.62173 0.67484 0.29411
 C108 C 0.60982 0.69032 0.29909
 C109 C 0.61811 0.69802 0.31559
 H110 H 0.62013 0.66542 0.28172
 H111 H 0.61291 0.71028 0.32387
 Cu112 Cu 0.65873 0.65648 0.30840
 Cu113 Cu 0.65202 0.69149 0.34133
 Cu114 Cu 0.69232 0.66107 0.34335
 N115 N 0.68115 0.63924 0.30966
 N116 N 0.69443 0.64139 0.32316
 C117 C 0.70841 0.62788 0.32072
 C118 C 0.70366 0.61659 0.30484
 C119 C 0.68624 0.62427 0.29819
 H120 H 0.72089 0.62616 0.33007
 H121 H 0.67795 0.61937 0.28586
 N122 N 0.68736 0.68185 0.36244
 N123 N 0.67180 0.69313 0.36183
 C124 C 0.67202 0.70516 0.37715
 C125 C 0.68853 0.70137 0.38793
 C126 C 0.69796 0.68654 0.37814
 H127 H 0.66100 0.71596 0.38025
 H128 H 0.71127 0.67935 0.38244
 H129 H 0.67631 0.68050 0.32734
 H130 H 0.66239 0.66330 0.34276
 N131 N 0.63837 0.19135 -0.17483
 N132 N 0.63679 0.17868 -0.18893
 C133 C 0.62093 0.18296 -0.19952
 C134 C 0.61201 0.19914 -0.19161
 C135 C 0.62347 0.20405 -0.17590
 H136 H 0.61603 0.17473 -0.21187
 H137 H 0.62124 0.21607 -0.16609
 Cu138 Cu 0.65541 0.15767 -0.19204
 Cu139 Cu 0.65966 0.19031 -0.15621
 Cu140 Cu 0.69329 0.15296 -0.16183
 N141 N 0.67394 0.13649 -0.19470
 N142 N 0.68921 0.13519 -0.18337
 C143 C 0.69992 0.11967 -0.18863
 C144 C 0.69071 0.11047 -0.20398
 C145 C 0.67420 0.12165 -0.20734
 H146 H 0.71307 0.11515 -0.18132
 H147 H 0.66329 0.11938 -0.21834
 N148 N 0.69482 0.17234 -0.14091
 N149 N 0.68221 0.18670 -0.13892
 C150 C 0.68702 0.19717 -0.12319
 C151 C 0.70331 0.18888 -0.11477
 C152 C 0.70783 0.17317 -0.12639
 H153 H 0.67894 0.20955 -0.11788
 H154 H 0.71971 0.16307 -0.12435
 H155 H 0.67934 0.17650 -0.17410
 H156 H 0.66434 0.16077 -0.15811
 N157 N 0.13816 0.68819 -0.17593
 N158 N 0.13892 0.67553 -0.19014
 C159 C 0.12303 0.67794 -0.20140
 C160 C 0.11173 0.69270 -0.19354
 C161 C 0.12183 0.69881 -0.17746
 H162 H 0.11972 0.66943 -0.21411
 H163 H 0.11774 0.71043 -0.16775
 Cu164 Cu 0.16044 0.65687 -0.19172
 Cu165 Cu 0.15845 0.69092 -0.15670
 Cu166 Cu 0.19782 0.66001 -0.16037
 N167 N 0.18303 0.63950 -0.19347
 N168 N 0.19751 0.64128 -0.18119
 C169 C 0.21115 0.62788 -0.18505
 C170 C 0.20510 0.61691 -0.20059
 C171 C 0.18705 0.62462 -0.20558
 H172 H 0.22429 0.62588 -0.17670
 H173 H 0.17761 0.61975 -0.21708
 N174 N 0.19562 0.67985 -0.14019
 N175 N 0.18048 0.69155 -0.13866
 C176 C 0.18312 0.70336 -0.12342
 C177 C 0.20081 0.69890 -0.11494
 C178 C 0.20832 0.68390 -0.12597
 H179 H 0.17300 0.71453 -0.11895
 H180 H 0.22190 0.67631 -0.12363
 H181 H 0.18032 0.68014 -0.17418
 H182 H 0.16794 0.66259 -0.15774
 N183 N 0.13516 0.19064 0.32316
 N184 N 0.13565 0.17735 0.30955
 C185 C 0.11963 0.17932 0.29841
 C186 C 0.10853 0.19449 0.30575
 C187 C 0.11887 0.20128 0.32140
 H188 H 0.11612 0.17028 0.28614
 H189 H 0.11497 0.21335 0.33061
 Cu190 Cu 0.15702 0.15859 0.30870
 Cu191 Cu 0.15580 0.19396 0.34186
 Cu192 Cu 0.19437 0.16161 0.34027
 N193 N 0.17893 0.14053 0.30772
 N194 N 0.19340 0.14186 0.32009
 C195 C 0.20650 0.12780 0.31634
 C196 C 0.19992 0.11696 0.30082
 C197 C 0.18234 0.12547 0.29575
 H198 H 0.21970 0.12546 0.32452
 H199 H 0.17282 0.12109 0.28411
 N200 N 0.19249 0.18276 0.35946
 N201 N 0.17788 0.19523 0.35963
 C202 C 0.18083 0.20837 0.37364
 C203 C 0.19808 0.20403 0.38286
 C204 C 0.20509 0.18759 0.37363
 H205 H 0.17101 0.22015 0.37710
 H206 H 0.21849 0.17997 0.37679
 H207 H 0.17800 0.18152 0.32538
 H208 H 0.16482 0.16520 0.34240
 N209 N 0.63962 0.30646 0.68185
 N210 N 0.63986 0.32039 0.69480
 C211 C 0.62580 0.31721 0.70793
 C212 C 0.61611 0.30047 0.70290
 C213 C 0.62520 0.29404 0.68619
 H214 H 0.62253 0.32657 0.72006
 H215 H 0.62175 0.28117 0.67797
 Cu216 Cu 0.65807 0.34161 0.69288
 Cu217 Cu 0.65859 0.30526 0.66087
 Cu218 Cu 0.69214 0.34281 0.65809
 N219 N 0.67618 0.36289 0.69095
 N220 N 0.68994 0.36317 0.67773
 C221 C 0.70070 0.37929 0.68016
 C222 C 0.69302 0.38969 0.69556
 C223 C 0.67751 0.37885 0.70200
 H224 H 0.71295 0.38332 0.67122
 H225 H 0.66811 0.38225 0.71408
 N226 N 0.69171 0.32083 0.63965
 N227 N 0.67897 0.30661 0.64083
 C228 C 0.68256 0.29373 0.62664
 C229 C 0.69825 0.30009 0.61590
 C230 C 0.70364 0.31739 0.62451
 H231 H 0.67425 0.28071 0.62418
 H232 H 0.71557 0.32659 0.62024
 H233 H 0.68025 0.32094 0.67452
 H234 H 0.66327 0.33481 0.65870
 N235 N 0.63953 0.80623 1.17766
 N236 N 0.63788 0.82008 1.19061
 C237 C 0.62274 0.81615 1.20233
 C238 C 0.61448 0.79886 1.19643
 C239 C 0.62556 0.79298 1.18072
 H240 H 0.61818 0.82508 1.21436
 H241 H 0.62342 0.78021 1.17193
 Cu242 Cu 0.65601 0.84159 1.19091
 Cu243 Cu 0.65929 0.80670 1.15740
 Cu244 Cu 0.69160 0.84529 1.15796
 N245 N 0.67427 0.86298 1.19160
 N246 N 0.68840 0.86415 1.17883
 C247 C 0.69935 0.87976 1.18285
 C248 C 0.69165 0.88892 1.19899
 C249 C 0.67571 0.87786 1.20412
 H250 H 0.71192 0.88415 1.17457
 H251 H 0.66617 0.88024 1.21633
 N252 N 0.69231 0.82467 1.13813
 N253 N 0.68021 0.80986 1.13813
 C254 C 0.68421 0.79845 1.12282
 C255 C 0.69949 0.80645 1.11258
 C256 C 0.70424 0.82308 1.12273
 H257 H 0.67621 0.78554 1.11907
 H258 H 0.71556 0.83329 1.11913
 H259 H 0.67967 0.82241 1.17278
 H260 H 0.66298 0.83642 1.15677
 N261 N 0.13648 0.30899 1.17317
 N262 N 0.13538 0.32097 1.18791
 C263 C 0.11957 0.31651 1.19856
 C264 C 0.11021 0.30105 1.18986
 C265 C 0.12138 0.29668 1.17379
 H266 H 0.11494 0.32419 1.21140
 H267 H 0.11878 0.28530 1.16337
 Cu268 Cu 0.15431 0.34169 1.19125
 Cu269 Cu 0.15728 0.31014 1.15418
 Cu270 Cu 0.19071 0.34720 1.15900
 N271 N 0.17280 0.36295 1.19320
 N272 N 0.18719 0.36474 1.18080
 C273 C 0.19785 0.38034 1.18554
 C274 C 0.18964 0.38895 1.20170
 C275 C 0.17372 0.37754 1.20615
 H276 H 0.21039 0.38533 1.17756
 H277 H 0.16368 0.37965 1.21801
 N278 N 0.19183 0.32799 1.13790
 N279 N 0.17931 0.31362 1.13637
 C280 C 0.18393 0.30286 1.12078
 C281 C 0.20002 0.31089 1.11194
 C282 C 0.20461 0.32685 1.12314
 H283 H 0.17590 0.29035 1.11589
 H284 H 0.21648 0.33680 1.12075
 H285 H 0.17769 0.32348 1.17167
 H286 H 0.16173 0.33963 1.15686
 N287 N 0.13694 0.80862 0.67415
 N288 N 0.13654 0.82044 0.68905
 C289 C 0.12122 0.81595 0.70033
 C290 C 0.11143 0.80062 0.69192
 C291 C 0.12182 0.79636 0.67531
 H292 H 0.11713 0.82358 0.71338
 H293 H 0.11866 0.78514 0.66488
 Cu294 Cu 0.15548 0.84113 0.69159
 Cu295 Cu 0.15695 0.80998 0.65431
 Cu296 Cu 0.19108 0.84657 0.65861
 N297 N 0.17461 0.86169 0.69378
 N298 N 0.18858 0.86360 0.68095
 C299 C 0.19963 0.87891 0.68575
 C300 C 0.19211 0.88715 0.70243
 C301 C 0.17621 0.87583 0.70711
 H302 H 0.21193 0.88395 0.67744
 H303 H 0.16657 0.87776 0.71932
 N304 N 0.19109 0.82782 0.63709
 N305 N 0.17828 0.81369 0.63574
 C306 C 0.18228 0.80306 0.61991
 C307 C 0.19828 0.81091 0.61075
 C308 C 0.20346 0.82665 0.62199
 H309 H 0.17400 0.79065 0.61519
 H310 H 0.21554 0.83632 0.61950
 H311 H 0.17805 0.82294 0.67123
 H312 H 0.16196 0.83943 0.65698
 N313 N 0.36000 0.69281 0.67703
 N314 N 0.35966 0.68040 0.69140
 C315 C 0.37481 0.68405 0.70324
 C316 C 0.38528 0.69945 0.69577
 C317 C 0.37538 0.70461 0.67914
 H318 H 0.37828 0.67582 0.71605
 H319 H 0.37909 0.71611 0.66926
 Cu320 Cu 0.33981 0.66024 0.69281
 Cu321 Cu 0.34087 0.69270 0.65624
 Cu322 Cu 0.30485 0.65810 0.65902
 N323 N 0.31874 0.64131 0.69431
 N324 N 0.30502 0.64104 0.68110
 C325 C 0.29232 0.62690 0.68508
 C326 C 0.29829 0.61758 0.70167
 C327 C 0.31522 0.62706 0.70717
 H328 H 0.27998 0.62322 0.67613
 H329 H 0.32428 0.62378 0.71950
 N330 N 0.30677 0.67646 0.63766
 N331 N 0.32014 0.69006 0.63667
 C332 C 0.31726 0.70040 0.62039
 C333 C 0.30148 0.69265 0.61066
 C334 C 0.29524 0.67755 0.62204
 H335 H 0.32618 0.71237 0.61572
 H336 H 0.28300 0.66819 0.61918
 H337 H 0.31931 0.68081 0.67275
 H338 H 0.33469 0.66379 0.65814
 N339 N 0.36539 0.19024 1.17667
 N340 N 0.36558 0.17627 1.18955
 C341 C 0.38172 0.17764 1.20038
 C342 C 0.39227 0.19339 1.19421
 C343 C 0.38144 0.20123 1.17918
 H344 H 0.38562 0.16787 1.21194
 H345 H 0.38530 0.21350 1.17032
 Cu346 Cu 0.34502 0.15733 1.19076
 Cu347 Cu 0.34511 0.19157 1.15660
 Cu348 Cu 0.30988 0.15526 1.15785
 N349 N 0.32581 0.13697 1.19154
 N350 N 0.31178 0.13636 1.17868
 C351 C 0.30041 0.12096 1.18230
 C352 C 0.30784 0.11134 1.19824
 C353 C 0.32398 0.12192 1.20369
 H354 H 0.28791 0.11688 1.17375
 H355 H 0.33358 0.11895 1.21569
 N356 N 0.31043 0.17567 1.13802
 N357 N 0.32337 0.18978 1.13767
 C358 C 0.31978 0.20102 1.12211
 C359 C 0.30403 0.19342 1.11215
 C360 C 0.29852 0.17743 1.12271
 H361 H 0.32840 0.21337 1.11789
 H362 H 0.28669 0.16772 1.11937
 H363 H 0.32345 0.17801 1.17185
 H364 H 0.33927 0.16233 1.15650
 N365 N 0.85870 0.69598 1.17992
 N366 N 0.85959 0.68206 1.19279
 C367 C 0.87452 0.68578 1.20497
 C368 C 0.88324 0.70302 1.19935
 C369 C 0.87279 0.70891 1.18338
 H370 H 0.87861 0.67676 1.21706
 H371 H 0.87542 0.72156 1.17463
 Cu372 Cu 0.84075 0.66079 1.19213
 Cu373 Cu 0.83969 0.69679 1.15938
 Cu374 Cu 0.80544 0.66054 1.15792
 N375 N 0.82015 0.64121 1.19179
 N376 N 0.80661 0.64132 1.17837
 C377 C 0.79405 0.62683 1.18165
 C378 C 0.79986 0.61698 1.19806
 C379 C 0.81659 0.62649 1.20408
 H380 H 0.78157 0.62371 1.17269
 H381 H 0.82527 0.62318 1.21668
 N382 N 0.80662 0.68138 1.13857
 N383 N 0.81949 0.69544 1.13950
 C384 C 0.81618 0.70802 1.12506
 C385 C 0.80047 0.70159 1.11444
 C386 C 0.79481 0.68458 1.12334
 H387 H 0.82465 0.72087 1.12235
 H388 H 0.78269 0.67550 1.11929
 H389 H 0.81840 0.68169 1.17438
 H390 H 0.83460 0.66722 1.15799
 N391 N 0.86410 0.18917 0.67691
 N392 N 0.86508 0.17459 0.68905
 C393 C 0.88127 0.17620 0.69979
 C394 C 0.89101 0.19268 0.69428
 C395 C 0.87966 0.20074 0.67978
 H396 H 0.88577 0.16608 0.71083
 H397 H 0.88288 0.21357 0.67147
 Cu398 Cu 0.84559 0.15446 0.68959
 Cu399 Cu 0.84351 0.19070 0.65732
 Cu400 Cu 0.80880 0.15407 0.65807
 N401 N 0.82604 0.13435 0.69026
 N402 N 0.81141 0.13440 0.67805
 C403 C 0.80006 0.11895 0.68158
 C404 C 0.80812 0.10861 0.69676
 C405 C 0.82459 0.11884 0.70189
 H406 H 0.78717 0.11529 0.67343
 H407 H 0.83466 0.11530 0.71335
 N408 N 0.80862 0.17518 0.63898
 N409 N 0.82153 0.18930 0.63874
 C410 C 0.81767 0.20094 0.62356
 C411 C 0.80169 0.19367 0.61372
 C412 C 0.79635 0.17740 0.62400
 H413 H 0.82626 0.21337 0.61953
 H414 H 0.78447 0.16775 0.62068
 H415 H 0.82290 0.17594 0.67295
 H416 H 0.83807 0.16138 0.65591
 N417 N 0.30607 0.35888 0.67877
 N418 N 0.32062 0.35948 0.69108
 C419 C 0.31766 0.37431 0.70347
 C420 C 0.30026 0.38336 0.69869
 C421 C 0.29336 0.37314 0.68293
 H422 H 0.32733 0.37815 0.71517
 H423 H 0.28020 0.37604 0.67486
 Cu424 Cu 0.34194 0.34079 0.68953
 Cu425 Cu 0.30443 0.33984 0.65809
 Cu426 Cu 0.34160 0.30602 0.65551
 N427 N 0.36247 0.32119 0.68812
 N428 N 0.36232 0.30806 0.67435
 C429 C 0.37819 0.29677 0.67589
 C430 C 0.38891 0.30297 0.69155
 C431 C 0.37847 0.31847 0.69912
 H432 H 0.38158 0.28471 0.66647
 H433 H 0.38244 0.32726 0.71144
 N434 N 0.31945 0.30620 0.63768
 N435 N 0.30545 0.31933 0.63830
 C436 C 0.29273 0.31576 0.62392
 C437 C 0.29898 0.29947 0.61398
 C438 C 0.31594 0.29383 0.62309
 H439 H 0.27976 0.32419 0.62103
 H440 H 0.32521 0.28178 0.61912
 H441 H 0.32016 0.31891 0.67244
 H442 H 0.33391 0.33507 0.65570
 N443 N 0.30397 0.86014 0.17792
 N444 N 0.31745 0.86080 0.19138
 C445 C 0.31316 0.87546 0.20366
 C446 C 0.29599 0.88423 0.19757
 C447 C 0.29068 0.87408 0.18120
 H448 H 0.32173 0.87934 0.21616
 H449 H 0.27826 0.87692 0.17204
 Cu450 Cu 0.33907 0.84216 0.19163
 Cu451 Cu 0.30469 0.84202 0.15652
 Cu452 Cu 0.34053 0.80715 0.15737
 N453 N 0.35775 0.82063 0.19267
 N454 N 0.35779 0.80704 0.17934
 C455 C 0.37156 0.79385 0.18341
 C456 C 0.38085 0.79930 0.20021
 C457 C 0.37180 0.81649 0.20570
 H458 H 0.37487 0.78139 0.17452
 H459 H 0.37508 0.82521 0.21826
 N460 N 0.32181 0.80941 0.13622
 N461 N 0.30783 0.82253 0.13604
 C462 C 0.29691 0.81995 0.12012
 C463 C 0.30446 0.80448 0.10977
 C464 C 0.32027 0.79819 0.12039
 H465 H 0.28443 0.82872 0.11628
 H466 H 0.32963 0.78599 0.11708
 H467 H 0.31841 0.82089 0.17262
 H468 H 0.33424 0.83660 0.15713
 N469 N 0.80544 0.36258 0.17594
 N470 N 0.81965 0.36339 0.18861
 C471 C 0.81619 0.37808 0.20098
 C472 C 0.79885 0.38694 0.19580
 C473 C 0.79242 0.37667 0.17985
 H474 H 0.82547 0.38192 0.21299
 H475 H 0.77941 0.37941 0.17149
 Cu476 Cu 0.84089 0.34480 0.18768
 Cu477 Cu 0.80511 0.34353 0.15513
 Cu478 Cu 0.84245 0.30930 0.15450
 N479 N 0.86197 0.32605 0.18730
 N480 N 0.86215 0.31168 0.17479
 C481 C 0.87791 0.30047 0.17813
 C482 C 0.88821 0.30840 0.19341
 C483 C 0.87765 0.32460 0.19885
 H484 H 0.88180 0.28774 0.16983
 H485 H 0.88103 0.33438 0.21057
 N486 N 0.82113 0.30980 0.13521
 N487 N 0.80729 0.32315 0.13530
 C488 C 0.79583 0.32060 0.11976
 C489 C 0.80266 0.30489 0.10935
 C490 C 0.81867 0.29830 0.11963
 H491 H 0.78344 0.32960 0.11619
 H492 H 0.82822 0.28645 0.11563
 H493 H 0.82037 0.32228 0.16992
 H494 H 0.83490 0.33813 0.15367
 N495 N 0.80958 0.85959 0.67790
 N496 N 0.82431 0.85999 0.69002
 C497 C 0.82319 0.87623 0.70076
 C498 C 0.80676 0.88653 0.69524
 C499 C 0.79844 0.87546 0.68070
 H500 H 0.83321 0.87994 0.71220
 H501 H 0.78526 0.87865 0.67275
 Cu502 Cu 0.84245 0.83834 0.69182
 Cu503 Cu 0.80565 0.83809 0.65991
 Cu504 Cu 0.84608 0.80822 0.65425
 N505 N 0.86122 0.81713 0.69178
 N506 N 0.86199 0.80497 0.67718
 C507 C 0.87596 0.79170 0.68043
 C508 C 0.88453 0.79574 0.69805
 C509 C 0.87485 0.81205 0.70485
 H510 H 0.87998 0.78031 0.67042
 H511 H 0.87755 0.81962 0.71827
 N512 N 0.82430 0.80876 0.63596
 N513 N 0.80858 0.81959 0.63823
 C514 C 0.79625 0.81603 0.62349
 C515 C 0.80473 0.80232 0.61138
 C516 C 0.82245 0.79806 0.61986
 H517 H 0.78232 0.82311 0.62155
 H518 H 0.83311 0.78760 0.61490
 H519 H 0.82347 0.81622 0.67163
 H520 H 0.83481 0.83626 0.65759
 N521 N 0.68967 0.63871 0.67995
 N522 N 0.67333 0.63717 0.68971
 C523 C 0.67363 0.62062 0.69989
 C524 C 0.69116 0.61125 0.69643
 C525 C 0.70100 0.62321 0.68369
 H526 H 0.66218 0.61605 0.70956
 H527 H 0.71530 0.62084 0.67754
 Cu528 Cu 0.65364 0.65737 0.68932
 Cu529 Cu 0.69514 0.66100 0.66365
 Cu530 Cu 0.65619 0.69218 0.65595
 N531 N 0.63728 0.68033 0.69072
 N532 N 0.63834 0.69406 0.67767
 C533 C 0.62467 0.70760 0.68144
 C534 C 0.61448 0.70199 0.69776
 C535 C 0.62294 0.68463 0.70326
 H536 H 0.62186 0.72013 0.67252
 H537 H 0.61879 0.67564 0.71533
 N538 N 0.67974 0.69215 0.63991
 N539 N 0.69484 0.68070 0.64303
 C540 C 0.70849 0.68419 0.62949
 C541 C 0.70158 0.69852 0.61725
 C542 C 0.68332 0.70321 0.62439
 H543 H 0.72215 0.67643 0.62825
 H544 H 0.67332 0.71390 0.61876
 H545 H 0.67545 0.68124 0.67517
 H546 H 0.66638 0.66341 0.65696
 N547 N 0.69852 0.13883 0.17633
 N548 N 0.68428 0.13782 0.18899
 C549 C 0.68788 0.12292 0.20111
 C550 C 0.70541 0.11429 0.19579
 C551 C 0.71163 0.12481 0.17998
 H552 H 0.67861 0.11881 0.21303
 H553 H 0.72467 0.12234 0.17156
 Cu554 Cu 0.66259 0.15631 0.18815
 Cu555 Cu 0.69951 0.15824 0.15599
 Cu556 Cu 0.66195 0.19164 0.15480
 N557 N 0.64166 0.17567 0.18742
 N558 N 0.64149 0.18898 0.17388
 C559 C 0.62542 0.19996 0.17571
 C560 C 0.61487 0.19339 0.19130
 C561 C 0.62564 0.17800 0.19857
 H562 H 0.62174 0.21203 0.16647
 H563 H 0.62185 0.16898 0.21074
 N564 N 0.68386 0.19213 0.13660
 N565 N 0.69793 0.17907 0.13659
 C566 C 0.71034 0.18301 0.12202
 C567 C 0.70384 0.19947 0.11261
 C568 C 0.68704 0.20484 0.12225
 H569 H 0.72330 0.17471 0.11865
 H570 H 0.67763 0.21693 0.11877
 H571 H 0.68376 0.17876 0.17107
 H572 H 0.66991 0.16272 0.15425
 N573 N 0.19287 0.63541 0.17405
 N574 N 0.18016 0.63499 0.18823
 C575 C 0.18336 0.61906 0.19896
 C576 C 0.19882 0.60892 0.19096
 C577 C 0.20445 0.61968 0.17512
 H578 H 0.17499 0.61505 0.21155
 H579 H 0.21643 0.61657 0.16543
 Cu580 Cu 0.16048 0.65505 0.19143
 Cu581 Cu 0.19416 0.65684 0.15609
 Cu582 Cu 0.15782 0.69156 0.15894
 N583 N 0.13897 0.67340 0.19116
 N584 N 0.13808 0.68779 0.17880
 C585 C 0.12193 0.69835 0.18239
 C586 C 0.11208 0.68998 0.19770
 C587 C 0.12332 0.67417 0.20285
 H588 H 0.11755 0.71102 0.17432
 H589 H 0.12046 0.66415 0.21448
 N590 N 0.17922 0.69267 0.13990
 N591 N 0.19322 0.67955 0.13914
 C592 C 0.20581 0.68427 0.12505
 C593 C 0.19941 0.70111 0.11636
 C594 C 0.18244 0.70601 0.12608
 H595 H 0.21851 0.67585 0.12107
 H596 H 0.17322 0.71844 0.12335
 H597 H 0.18030 0.67778 0.17303
 H598 H 0.16432 0.66250 0.15731
 N599 N 0.19657 0.13719 0.67666
 N600 N 0.18239 0.13622 0.68937
 C601 C 0.18606 0.12155 0.70164
 C602 C 0.20354 0.11296 0.69636
 C603 C 0.20978 0.12329 0.68043
 H604 H 0.17689 0.11757 0.71368
 H605 H 0.22280 0.12070 0.67202
 Cu606 Cu 0.16106 0.15476 0.68861
 Cu607 Cu 0.19669 0.15613 0.65591
 Cu608 Cu 0.15915 0.19012 0.65535
 N609 N 0.13987 0.17342 0.68831
 N610 N 0.13954 0.18778 0.67586
 C611 C 0.12366 0.19884 0.67930
 C612 C 0.11344 0.19077 0.69455
 C613 C 0.12417 0.17470 0.69987
 H614 H 0.11956 0.21148 0.67104
 H615 H 0.12083 0.16482 0.71148
 N616 N 0.18043 0.18953 0.63589
 N617 N 0.19439 0.17632 0.63608
 C618 C 0.20594 0.17880 0.62061
 C619 C 0.19906 0.19431 0.61005
 C620 C 0.18290 0.20089 0.62023
 H621 H 0.21849 0.16992 0.61722
 H622 H 0.17333 0.21266 0.61617
 H623 H 0.18127 0.17742 0.67074
 H624 H 0.16681 0.16136 0.65457
 N625 N 0.31071 0.63674 0.32633
 N626 N 0.32259 0.63743 0.31143
 C627 C 0.31995 0.62135 0.30057
 C628 C 0.30584 0.61001 0.30936
 C629 C 0.30039 0.62030 0.32562
 H630 H 0.32770 0.61809 0.28734
 H631 H 0.28920 0.61640 0.33588
 Cu632 Cu 0.34019 0.65948 0.30799
 Cu633 Cu 0.30795 0.65761 0.34496
 Cu634 Cu 0.33862 0.69654 0.33975
 N635 N 0.35864 0.68109 0.30655
 N636 N 0.35745 0.69544 0.31901
 C637 C 0.37124 0.70853 0.31516
 C638 C 0.38186 0.70231 0.29938
 C639 C 0.37355 0.68468 0.29429
 H640 H 0.37363 0.72151 0.32356
 H641 H 0.37792 0.67530 0.28251
 N642 N 0.31873 0.69525 0.35998
 N643 N 0.30724 0.68020 0.36229
 C644 C 0.29535 0.68361 0.37742
 C645 C 0.29952 0.70174 0.38489
 C646 C 0.31444 0.70865 0.37347
 H647 H 0.28424 0.67378 0.38244
 H648 H 0.32180 0.72236 0.37505
 H649 H 0.31757 0.67920 0.32696
 H650 H 0.33630 0.66672 0.34223
 N651 N 0.31162 0.13598 0.82139
 N652 N 0.32620 0.13727 0.80915
 C653 C 0.32499 0.12268 0.79626
 C654 C 0.30872 0.11171 0.80061
 C655 C 0.30060 0.12065 0.81665
 H656 H 0.33516 0.12020 0.78458
 H657 H 0.28794 0.11601 0.82466
 Cu658 Cu 0.34536 0.15784 0.81143
 Cu659 Cu 0.30849 0.15352 0.84324
 Cu660 Cu 0.34482 0.18749 0.84992
 N661 N 0.36423 0.17863 0.81425
 N662 N 0.36404 0.19005 0.82947
 C663 C 0.37906 0.20243 0.82837
 C664 C 0.38920 0.19867 0.81148
 C665 C 0.37931 0.18350 0.80284
 H666 H 0.38236 0.21334 0.83909
 H667 H 0.38318 0.17621 0.78954
 N668 N 0.32188 0.18566 0.86686
 N669 N 0.30817 0.17253 0.86450
 C670 C 0.29495 0.17448 0.87878
 C671 C 0.30049 0.18973 0.89050
 C672 C 0.31756 0.19653 0.88247
 H673 H 0.28219 0.16554 0.88052
 H674 H 0.32642 0.20824 0.88790
 H675 H 0.32358 0.17680 0.83179
 H676 H 0.33765 0.15839 0.84587
 N677 N 0.81198 0.63581 0.82008
 N678 N 0.82618 0.63754 0.80746
 C679 C 0.82548 0.62254 0.79499
 C680 C 0.80987 0.61096 0.80000
 C681 C 0.80165 0.61985 0.81597
 H682 H 0.83529 0.62037 0.78295
 H683 H 0.78922 0.61491 0.82416
 Cu684 Cu 0.84348 0.65971 0.80843
 Cu685 Cu 0.80810 0.65411 0.84115
 Cu686 Cu 0.83890 0.69383 0.84285
 N687 N 0.86077 0.68187 0.80937
 N688 N 0.85877 0.69534 0.82268
 C689 C 0.87256 0.70890 0.82008
 C690 C 0.88388 0.70361 0.80431
 C691 C 0.87589 0.68638 0.79788
 H692 H 0.87450 0.72141 0.82929
 H693 H 0.88071 0.67777 0.78573
 N694 N 0.81789 0.68944 0.86188
 N695 N 0.80648 0.67412 0.86135
 C696 C 0.79439 0.67462 0.87664
 C697 C 0.79826 0.69107 0.88733
 C698 C 0.81319 0.70020 0.87750
 H699 H 0.78352 0.66381 0.87980
 H700 H 0.82045 0.71339 0.88176
 H701 H 0.81936 0.67792 0.82693
 H702 H 0.83653 0.66411 0.84266
 N703 N 0.80574 0.13844 0.32491
 N704 N 0.81944 0.13692 0.31176
 C705 C 0.81474 0.12281 0.29921
 C706 C 0.79714 0.11486 0.30484
 C707 C 0.79184 0.12522 0.32125
 H708 H 0.82369 0.11851 0.28707
 H709 H 0.77919 0.12293 0.33026
 Cu710 Cu 0.84288 0.15244 0.31291
 Cu711 Cu 0.80799 0.15656 0.34644
 Cu712 Cu 0.84214 0.19301 0.33984
 N713 N 0.86202 0.17261 0.30940
 N714 N 0.86146 0.18872 0.31952
 C715 C 0.87647 0.20001 0.31415
 C716 C 0.88704 0.19037 0.29996
 C717 C 0.87736 0.17303 0.29732
 H718 H 0.87980 0.21390 0.32055
 H719 H 0.88111 0.16158 0.28730
 N720 N 0.82153 0.19418 0.35978
 N721 N 0.80898 0.18005 0.36267
 C722 C 0.79767 0.18456 0.37795
 C723 C 0.80333 0.20242 0.38508
 C724 C 0.81847 0.20808 0.37315
 H725 H 0.78613 0.17552 0.38345
 H726 H 0.82706 0.22108 0.37453
 H727 H 0.82069 0.17564 0.32773
 H728 H 0.83730 0.16452 0.34589
 N729 N 0.69141 0.36446 0.32043
 N730 N 0.67719 0.36291 0.30783
 C731 C 0.67838 0.37767 0.29517
 C732 C 0.69430 0.38899 0.30002
 C733 C 0.70218 0.38009 0.31615
 H734 H 0.66848 0.37998 0.28325
 H735 H 0.71460 0.38487 0.32444
 Cu736 Cu 0.65848 0.34174 0.30939
 Cu737 Cu 0.69463 0.34660 0.34191
 Cu738 Cu 0.66073 0.30996 0.34624
 N739 N 0.63931 0.32115 0.31237
 N740 N 0.64007 0.30913 0.32704
 C741 C 0.62492 0.29688 0.32605
 C742 C 0.61409 0.30131 0.30981
 C743 C 0.62369 0.31678 0.30142
 H744 H 0.62211 0.28541 0.33627
 H745 H 0.61937 0.32448 0.28852
 N746 N 0.68270 0.31309 0.36425
 N747 N 0.69553 0.32716 0.36271
 C748 C 0.70837 0.32576 0.37735
 C749 C 0.70347 0.30999 0.38864
 C750 C 0.68714 0.30228 0.37984
 H751 H 0.72046 0.33546 0.37961
 H752 H 0.67885 0.28995 0.38469
 H753 H 0.68135 0.32309 0.32899
 H754 H 0.66547 0.33940 0.34384
 N755 N 0.69242 0.86041 0.82014
 N756 N 0.67791 0.86162 0.80786
 C757 C 0.68180 0.87563 0.79493
 C758 C 0.69979 0.88353 0.79934
 C759 C 0.70608 0.87346 0.81543
 H760 H 0.67224 0.87977 0.78322
 H761 H 0.71933 0.87588 0.82349
 Cu762 Cu 0.65516 0.84510 0.81012
 Cu763 Cu 0.69203 0.84281 0.84189
 Cu764 Cu 0.65551 0.80854 0.84265
 N765 N 0.63640 0.82414 0.80915
 N766 N 0.63677 0.80966 0.82144
 C767 C 0.62191 0.79761 0.81742
 C768 C 0.61163 0.80502 0.80185
 C769 C 0.62132 0.82184 0.79699
 H770 H 0.61843 0.78479 0.82565
 H771 H 0.61763 0.83174 0.78547
 N772 N 0.67585 0.81028 0.86281
 N773 N 0.68931 0.82386 0.86271
 C774 C 0.70022 0.82229 0.87875
 C775 C 0.69347 0.80690 0.88946
 C776 C 0.67806 0.79950 0.87889
 H777 H 0.71233 0.83156 0.88235
 H778 H 0.66886 0.78749 0.88290
 H779 H 0.67629 0.82210 0.82635
 H780 H 0.66204 0.83745 0.84377
 N781 N 0.19032 0.36476 0.82266
 N782 N 0.17604 0.36423 0.81007
 C783 C 0.17780 0.37921 0.79782
 C784 C 0.19411 0.38970 0.80293
 C785 C 0.20174 0.38007 0.81878
 H786 H 0.16808 0.38215 0.78590
 H787 H 0.21445 0.38405 0.82706
 Cu788 Cu 0.15665 0.34397 0.81090
 Cu789 Cu 0.19259 0.34577 0.84334
 Cu790 Cu 0.15844 0.30862 0.84414
 N791 N 0.13733 0.32369 0.81158
 N792 N 0.13830 0.30937 0.82403
 C793 C 0.12303 0.29746 0.82105
 C794 C 0.11186 0.30501 0.80615
 C795 C 0.12142 0.32158 0.80053
 H796 H 0.11986 0.28473 0.82954
 H797 H 0.11700 0.33138 0.78918
 N798 N 0.17989 0.31085 0.86324
 N799 N 0.19248 0.32526 0.86307
 C800 C 0.20424 0.32373 0.87853
 C801 C 0.19894 0.30758 0.88900
 C802 C 0.18352 0.29966 0.87881
 H803 H 0.21577 0.33373 0.88204
 H804 H 0.17510 0.28713 0.88289
 H805 H 0.17923 0.32328 0.82864
 H806 H 0.16338 0.33803 0.84493
 N807 N 0.19558 0.86071 0.32073
 N808 N 0.18143 0.86216 0.30808
 C809 C 0.18551 0.87662 0.29575
 C810 C 0.20317 0.88470 0.30100
 C811 C 0.20914 0.87417 0.31693
 H812 H 0.17624 0.88099 0.28393
 H813 H 0.22206 0.87649 0.32551
 Cu814 Cu 0.15876 0.84544 0.30909
 Cu815 Cu 0.19481 0.84223 0.34169
 Cu816 Cu 0.15663 0.80966 0.34243
 N817 N 0.13793 0.82654 0.30935
 N818 N 0.13736 0.81222 0.32181
 C819 C 0.12151 0.80134 0.31817
 C820 C 0.11159 0.80943 0.30269
 C821 C 0.12248 0.82535 0.29750
 H822 H 0.11727 0.78877 0.32641
 H823 H 0.11947 0.83519 0.28575
 N824 N 0.17760 0.80981 0.36205
 N825 N 0.19179 0.82262 0.36182
 C826 C 0.20297 0.82023 0.37755
 C827 C 0.19560 0.80515 0.38829
 C828 C 0.17956 0.79872 0.37799
 H829 H 0.21554 0.82890 0.38106
 H830 H 0.16969 0.78733 0.38219
 H831 H 0.17852 0.82184 0.32638
 H832 H 0.16465 0.83824 0.34306
 C833 C 0.25274 1.01887 0.23958
 C834 C 0.23567 1.01851 0.25100
 C835 C 0.22812 1.00065 0.25683
 C836 C 0.23752 0.98320 0.25207
 C837 C 0.25510 0.98358 0.24137
 C838 C 0.26247 1.00146 0.23526
 H839 H 0.27549 1.00177 0.22639
 H840 H 0.21507 1.00034 0.26566
 C841 C 0.26477 0.51731 0.74786
 C842 C 0.24698 0.51693 0.75829
 C843 C 0.23959 0.49909 0.76450
 C844 C 0.24937 0.48168 0.76044
 C845 C 0.26651 0.48199 0.74913
 C846 C 0.27418 0.49981 0.74330
 H847 H 0.28730 0.50004 0.73457
 H848 H 0.22649 0.49883 0.77325
 C849 C 0.76366 -0.01862 0.25368
 C850 C 0.74649 -0.01902 0.24243
 C851 C 0.73685 -0.00158 0.23808
 C852 C 0.74435 0.01635 0.24407
 C853 C 0.76184 0.01675 0.25488
 C854 C 0.77123 -0.00074 0.25957
 H855 H 0.78433 -0.00045 0.26830
 H856 H 0.72389 -0.00190 0.22916
 C857 C 0.75755 0.48293 0.75587
 C858 C 0.74434 0.48284 0.74027
 C859 C 0.73760 0.50049 0.73280
 C860 C 0.74420 0.51818 0.74025
 C861 C 0.75767 0.51819 0.75568
 C862 C 0.76426 0.50056 0.76326
 H863 H 0.77429 0.50057 0.77536
 H864 H 0.72757 0.50045 0.72070
 C865 C 0.25566 0.48198 0.26156
 C866 C 0.24156 0.48191 0.24670
 C867 C 0.23478 0.49955 0.23928
 C868 C 0.24231 0.51723 0.24586
 C869 C 0.25738 0.51730 0.25978
 C870 C 0.26358 0.49965 0.26773
 H871 H 0.27480 0.49965 0.27875
 H872 H 0.22364 0.49951 0.22819
 C873 C 0.75326 1.01559 0.73713
 C874 C 0.73835 1.01587 0.75114
 C875 C 0.72973 0.99849 0.75687
 C876 C 0.73612 0.98070 0.74931
 C877 C 0.75166 0.98032 0.73584
 C878 C 0.76005 0.99782 0.72992
 H879 H 0.77145 0.99765 0.71907
 H880 H 0.71829 0.99877 0.76768
 C881 C 0.76354 0.51946 0.24841
 C882 C 0.74581 0.51894 0.25886
 C883 C 0.73808 0.50099 0.26446
 C884 C 0.74758 0.48357 0.25983
 C885 C 0.76476 0.48410 0.24857
 C886 C 0.77270 0.50200 0.24332
 H887 H 0.78584 0.50234 0.23462
 H888 H 0.72497 0.50063 0.27319
 C889 C 0.26041 -0.01813 0.75761
 C890 C 0.24406 -0.01910 0.74530
 C891 C 0.23425 -0.00201 0.74024
 C892 C 0.24063 0.01604 0.74695
 C893 C 0.25700 0.01700 0.75931
 C894 C 0.26679 -0.00011 0.76437
 H895 H 0.27910 0.00053 0.77416
 H896 H 0.22198 -0.00272 0.73041
 C897 C 0.24355 0.25805 1.01878
 C898 C 0.25891 0.24434 1.01867
 C899 C 0.26566 0.23698 1.00098
 C900 C 0.25769 0.24332 0.98344
 C901 C 0.24238 0.25706 0.98352
 C902 C 0.23560 0.26441 1.00122
 H903 H 0.22362 0.27470 1.00136
 H904 H 0.27764 0.22669 1.00082
 C905 C 0.23922 0.75589 0.51781
 C906 C 0.25389 0.74151 0.51775
 C907 C 0.25923 0.73269 0.50028
 C908 C 0.25059 0.73823 0.48282
 C909 C 0.23637 0.75312 0.48276
 C910 C 0.23091 0.76183 0.50030
 H911 H 0.21957 0.77281 0.50040
 H912 H 0.27055 0.72169 0.50022
 C913 C 0.24739 0.76387 -0.01730
 C914 C 0.23114 0.75138 -0.01695
 C915 C 0.22309 0.74587 0.00080
 C916 C 0.23095 0.75243 0.01826
 C917 C 0.24720 0.76492 0.01794
 C918 C 0.25540 0.77027 0.00018
 H919 H 0.26759 0.78021 -0.00004
 H920 H 0.21088 0.73596 0.00102
 C921 C 0.25228 0.26338 0.48049
 C922 C 0.24164 0.24587 0.48083
 C923 C 0.23477 0.23868 0.49850
 C924 C 0.23833 0.24850 0.51589
 C925 C 0.24975 0.26548 0.51563
 C926 C 0.25627 0.27289 0.49795
 H927 H 0.26509 0.28588 0.49784
 H928 H 0.22596 0.22569 0.49863
 C929 C 0.73680 0.75212 1.01745
 C930 C 0.75069 0.73695 1.01660
 C931 C 0.75785 0.73083 0.99863
 C932 C 0.75122 0.73924 0.98144
 C933 C 0.73649 0.75359 0.98221
 C934 C 0.72984 0.76026 1.00022
 H935 H 0.71862 0.77135 1.00082
 H936 H 0.76910 0.71976 0.99806
 C937 C 0.74815 0.26266 0.51829
 C938 C 0.76077 0.24643 0.51925
 C939 C 0.76579 0.23661 0.50215
 C940 C 0.75877 0.24275 0.48412
 C941 C 0.74621 0.25901 0.48318
 C942 C 0.74123 0.26887 0.50026
 H943 H 0.73122 0.28105 0.49957
 H944 H 0.77571 0.22437 0.50282
 C945 C 0.76415 0.25239 -0.02075
 C946 C 0.75002 0.23758 -0.02104
 C947 C 0.74431 0.22892 -0.00366
 C948 C 0.75191 0.23513 0.01408
 C949 C 0.76549 0.25047 0.01447
 C950 C 0.77141 0.25896 -0.00298
 H951 H 0.78228 0.27030 -0.00277
 H952 H 0.73342 0.21759 -0.00389
 C953 C 0.75011 0.76186 0.48337
 C954 C 0.73628 0.74680 0.48281
 C955 C 0.72846 0.73982 0.50014
 C956 C 0.73463 0.74710 0.51805
 C957 C 0.74901 0.76169 0.51864
 C958 C 0.75658 0.76887 0.50125
 H959 H 0.76717 0.78046 0.50164
 H960 H 0.71782 0.72827 0.49972
 C961 C 1.01591 0.23922 0.25247
 C962 C 1.01621 0.25436 0.23877
 C963 C 0.99858 0.26152 0.23142
 C964 C 0.98066 0.25445 0.23804
 C965 C 0.98035 0.24036 0.25281
 C966 C 0.99798 0.23263 0.25956
 H967 H 0.99777 0.22146 0.27054
 H968 H 0.99880 0.27276 0.22052
 C969 C 0.51733 0.24097 0.75617
 C970 C 0.51715 0.25444 0.74086
 C971 C 0.49943 0.26244 0.73477
 C972 C 0.48179 0.25696 0.74330
 C973 C 0.48186 0.24272 0.75793
 C974 C 0.49967 0.23528 0.76458
 H975 H 0.49975 0.22429 0.77575
 H976 H 0.49942 0.27330 0.72347
 C977 C -0.01554 0.25345 0.75830
 C978 C -0.01547 0.24172 0.74154
 C979 C 0.00239 0.23553 0.73373
 C980 C 0.02015 0.24122 0.74194
 C981 C 0.02007 0.25308 0.75861
 C982 C 0.00222 0.25909 0.76651
 H983 H 0.00215 0.26797 0.77946
 H984 H 0.00249 0.22667 0.72077
 C985 C 0.48626 0.25458 0.25748
 C986 C 0.48630 0.24138 0.24183
 C987 C 0.50408 0.23378 0.23523
 C988 C 0.52185 0.23977 0.24322
 C989 C 0.52186 0.25433 0.25763
 C990 C 0.50405 0.26122 0.26491
 H991 H 0.50402 0.27192 0.27640
 H992 H 0.50410 0.22310 0.22372
 C993 C 1.01854 0.73923 0.75570
 C994 C 1.01860 0.75627 0.74450
 C995 C 1.00089 0.76514 0.73957
 C996 C 0.98305 0.75731 0.74551
 C997 C 0.98298 0.74015 0.75661
 C998 C 1.00073 0.73137 0.76161
 H999 H 1.00070 0.71829 0.77024
 H1000 H 1.00101 0.77820 0.73090
 C1001 C 0.51674 0.74469 0.25621
 C1002 C 0.51613 0.76205 0.24546
 C1003 C 0.49807 0.77006 0.24044
 C1004 C 0.48056 0.76094 0.24540
 C1005 C 0.48118 0.74294 0.25524
 C1006 C 0.49931 0.73510 0.26052
 H1007 H 0.49981 0.72187 0.26892
 H1008 H 0.49764 0.78338 0.23217
 C1009 C -0.01683 0.75907 0.25510
 C1010 C -0.01692 0.74211 0.24363
 C1011 C 0.00087 0.73416 0.23741
 C1012 C 0.01866 0.74234 0.24303
 C1013 C 0.01868 0.75800 0.25623
 C1014 C 0.00093 0.76657 0.26163
 H1015 H 0.00087 0.77880 0.27148
 H1016 H 0.00082 0.72184 0.22767
 C1017 C 0.48158 0.75131 0.76521
 C1018 C 0.48033 0.73721 0.75048
 C1019 C 0.49751 0.72966 0.74242
 C1020 C 0.51587 0.73584 0.74881
 C1021 C 0.51708 0.75016 0.76339
 C1022 C 0.49989 0.75774 0.77139
 H1023 H 0.50076 0.76856 0.78274
 H1024 H 0.49661 0.71869 0.73122
 C1025 C 0.42443 0.31279 0.28727
 C1026 C 0.41126 0.29922 0.29481
 C1027 C 0.41584 0.27940 0.29372
 C1028 C 0.43321 0.27320 0.28487
 C1029 C 0.44632 0.28702 0.27735
 C1030 C 0.44183 0.30676 0.27871
 C1031 C 0.46365 0.28087 0.26848
 C1032 C 0.46793 0.26106 0.26678
 C1033 C 0.45485 0.24742 0.27426
 C1034 C 0.43763 0.25342 0.28326
 H1035 H 0.40573 0.26880 0.29932
 H1036 H 0.45172 0.31754 0.27306
 H1037 H 0.47372 0.29142 0.26268
 H1038 H 0.42778 0.24262 0.28893
 H1039 H 0.42137 0.32815 0.28813
 H1040 H 0.45808 0.23208 0.27323
 C1041 C 0.40877 0.80357 0.77478
 C1042 C 0.40354 0.79756 0.79354
 C1043 C 0.41501 0.78322 0.80259
 C1044 C 0.43129 0.77520 0.79326
 C1045 C 0.43613 0.78116 0.77435
 C1046 C 0.42476 0.79533 0.76525
 C1047 C 0.45240 0.77304 0.76501
 C1048 C 0.46408 0.75941 0.77461
 C1049 C 0.45937 0.75377 0.79346
 C1050 C 0.44297 0.76144 0.80266
 H1051 H 0.41172 0.77848 0.81711
 H1052 H 0.42830 0.80015 0.75079
 H1053 H 0.45619 0.77747 0.75048
 H1054 H 0.43953 0.75677 0.81720
 H1055 H 0.40042 0.81442 0.76716
 H1056 H 0.46835 0.74328 0.80097
 C1057 C -0.07525 0.31229 0.79047
 C1058 C -0.08915 0.29898 0.79709
 C1059 C -0.08543 0.27904 0.79521
 C1060 C -0.06821 0.27251 0.78624
 C1061 C -0.05440 0.28611 0.77960
 C1062 C -0.05799 0.30593 0.78193
 C1063 C -0.03728 0.27972 0.77055
 C1064 C -0.03383 0.25990 0.76775
 C1065 C -0.04757 0.24641 0.77431
 C1066 C -0.06463 0.25266 0.78353
 H1067 H -0.09617 0.26870 0.80012
 H1068 H -0.04755 0.31653 0.77695
 H1069 H -0.02671 0.29014 0.76545
 H1070 H -0.07502 0.24201 0.78847
 H1071 H -0.07772 0.32772 0.79195
 H1072 H -0.04499 0.23104 0.77241
 C1073 C -0.08533 0.77669 0.31003
 C1074 C -0.09375 0.79215 0.29967
 C1075 C -0.08512 0.79779 0.28211
 C1076 C -0.06846 0.78809 0.27508
 C1077 C -0.06045 0.77245 0.28564
 C1078 C -0.06898 0.76691 0.30306
 C1079 C -0.04386 0.76273 0.27876
 C1080 C -0.03496 0.76862 0.26159
 C1081 C -0.04271 0.78430 0.25125
 C1082 C -0.05951 0.79383 0.25780
 H1083 H -0.09127 0.80967 0.27392
 H1084 H -0.06291 0.75509 0.31142
 H1085 H -0.03763 0.75080 0.28687
 H1086 H -0.06534 0.80579 0.24950
 H1087 H -0.09119 0.77200 0.32371
 H1088 H -0.03575 0.78911 0.23807
 C1089 C 0.58146 0.68531 0.27678
 C1090 C 0.59230 0.69754 0.28891
 C1091 C 0.58619 0.71681 0.29151
 C1092 C 0.56935 0.72374 0.28241
 C1093 C 0.55831 0.71126 0.27052
 C1094 C 0.56456 0.69210 0.26770
 C1095 C 0.54118 0.71816 0.26180
 C1096 C 0.53513 0.73740 0.26473
 C1097 C 0.54629 0.74968 0.27647
 C1098 C 0.56329 0.74294 0.28519
 H1099 H 0.59457 0.72652 0.30053
 H1100 H 0.55632 0.68233 0.25860
 H1101 H 0.53257 0.70865 0.25275
 H1102 H 0.57159 0.75268 0.29427
 H1103 H 0.58581 0.67038 0.27460
 H1104 H 0.54167 0.76447 0.27911
 C1105 C 0.58268 0.22018 0.81412
 C1106 C 0.59398 0.20874 0.80153
 C1107 C 0.58781 0.20624 0.78232
 C1108 C 0.57051 0.21485 0.77581
 C1109 C 0.55908 0.22606 0.78867
 C1110 C 0.56534 0.22871 0.80777
 C1111 C 0.54161 0.23443 0.78220
 C1112 C 0.53563 0.23194 0.76298
 C1113 C 0.54709 0.22085 0.75028
 C1114 C 0.56442 0.21236 0.75664
 H1115 H 0.59651 0.19772 0.77236
 H1116 H 0.55678 0.23730 0.81781
 H1117 H 0.53275 0.24303 0.79199
 H1118 H 0.57302 0.20384 0.74658
 H1119 H 0.58703 0.22224 0.82900
 H1120 H 0.54254 0.21871 0.73546
 C1121 C 1.07969 0.70831 0.81321
 C1122 C 1.09293 0.70066 0.79968
 C1123 C 1.08847 0.70161 0.77989
 C1124 C 1.07119 0.71068 0.77369
 C1125 C 1.05805 0.71837 0.78752
 C1126 C 1.06236 0.71697 0.80721
 C1127 C 1.04089 0.72755 0.78145
 C1128 C 1.03677 0.72947 0.76173
 C1129 C 1.04984 0.72190 0.74802
 C1130 C 1.06691 0.71250 0.75395
 H1131 H 1.09870 0.69591 0.76935
 H1132 H 1.05245 0.72278 0.81797
 H1133 H 1.03082 0.73346 0.79203
 H1134 H 1.07679 0.70676 0.74313
 H1135 H 1.08273 0.70759 0.82854
 H1136 H 1.04673 0.72316 0.73274
 C1137 C 1.07671 0.21086 0.31184
 C1138 C 1.08981 0.20233 0.29869
 C1139 C 1.08534 0.20230 0.27890
 C1140 C 1.06819 0.21126 0.27227
 C1141 C 1.05517 0.21986 0.28566
 C1142 C 1.05949 0.21943 0.30541
 C1143 C 1.03812 0.22892 0.27910
 C1144 C 1.03403 0.22978 0.25929
 C1145 C 1.04702 0.22128 0.24604
 C1146 C 1.06396 0.21204 0.25247
 H1147 H 1.09546 0.19591 0.26866
 H1148 H 1.04967 0.22592 0.31586
 H1149 H 1.02814 0.23554 0.28934
 H1150 H 1.07376 0.20558 0.24198
 H1151 H 1.07978 0.21088 0.32718
 H1152 H 1.04393 0.22166 0.23070
 C1153 C 0.59675 0.29503 0.73294
 C1154 C 0.59933 0.29186 0.71304
 C1155 C 0.58544 0.28106 0.70281
 C1156 C 0.56885 0.27398 0.71226
 C1157 C 0.56637 0.27732 0.73229
 C1158 C 0.58049 0.28769 0.74252
 C1159 C 0.54963 0.27057 0.74166
 C1160 C 0.53521 0.26080 0.73119
 C1161 C 0.53771 0.25758 0.71133
 C1162 C 0.55448 0.26398 0.70193
 H1163 H 0.58718 0.27873 0.68742
 H1164 H 0.57883 0.29038 0.75786
 H1165 H 0.54757 0.27324 0.75697
 H1166 H 0.55610 0.26135 0.68658
 H1167 H 0.60736 0.30315 0.74116
 H1168 H 0.52664 0.25005 0.70311
 C1169 C 0.59414 0.76922 0.20127
 C1170 C 0.59734 0.78899 0.20485
 C1171 C 0.58395 0.79933 0.21636
 C1172 C 0.56747 0.79012 0.22397
 C1173 C 0.56441 0.77024 0.22022
 C1174 C 0.57787 0.75991 0.20894
 C1175 C 0.54779 0.76111 0.22757
 C1176 C 0.53410 0.77161 0.23851
 C1177 C 0.53724 0.79135 0.24217
 C1178 C 0.55385 0.80053 0.23504
 H1179 H 0.58607 0.81462 0.21910
 H1180 H 0.57575 0.74466 0.20595
 H1181 H 0.54528 0.74592 0.22450
 H1182 H 0.55595 0.81578 0.23804
 H1183 H 0.60429 0.76084 0.19265
 H1184 H 0.52683 0.79964 0.25059
 C1185 C 1.08018 0.28209 0.18234
 C1186 C 1.09199 0.29148 0.19601
 C1187 C 1.08631 0.29157 0.21553
 C1188 C 1.06915 0.28225 0.22134
 C1189 C 1.05729 0.27303 0.20741
 C1190 C 1.06293 0.27307 0.18796
 C1191 C 1.04000 0.26394 0.21316
 C1192 C 1.03462 0.26363 0.23271
 C1193 C 1.04656 0.27262 0.24649
 C1194 C 1.06367 0.28192 0.24085
 H1195 H 1.09538 0.29861 0.22622
 H1196 H 1.05402 0.26609 0.17709
 H1197 H 1.03079 0.25696 0.20252
 H1198 H 1.07257 0.28888 0.25173
 H1199 H 1.08411 0.28198 0.16720
 H1200 H 1.04248 0.27263 0.26161
 C1201 C 1.08074 0.78232 0.68563
 C1202 C 1.09341 0.79125 0.69882
 C1203 C 1.08871 0.79130 0.71858
 C1204 C 1.07154 0.78253 0.72511
 C1205 C 1.05872 0.77389 0.71166
 C1206 C 1.06348 0.77381 0.69198
 C1207 C 1.04138 0.76546 0.71813
 C1208 C 1.03690 0.76521 0.73788
 C1209 C 1.04977 0.77353 0.75121
 C1210 C 1.06695 0.78223 0.74487
 H1211 H 1.09851 0.79793 0.72890
 H1212 H 1.05386 0.76719 0.68150
 H1213 H 1.03143 0.75892 0.70788
 H1214 H 1.07663 0.78871 0.75538
 H1215 H 1.08397 0.78221 0.67032
 H1216 H 1.04640 0.77342 0.76650
 C1217 C 0.41595 0.71836 0.69093
 C1218 C 0.40352 0.70807 0.70333
 C1219 C 0.40873 0.70600 0.72288
 C1220 C 0.42612 0.71405 0.72990
 C1221 C 0.43858 0.72415 0.71719
 C1222 C 0.43331 0.72627 0.69777
 C1223 C 0.45615 0.73184 0.72407
 C1224 C 0.46137 0.72974 0.74355
 C1225 C 0.44885 0.71987 0.75614
 C1226 C 0.43135 0.71210 0.74939
 H1227 H 0.39922 0.69828 0.73266
 H1228 H 0.44268 0.73398 0.68783
 H1229 H 0.46582 0.73944 0.71432
 H1230 H 0.42200 0.70443 0.75937
 H1231 H 0.41245 0.72005 0.67579
 H1232 H 0.45280 0.71789 0.77115
 C1233 C 0.42416 0.18553 0.20945
 C1234 C 0.41129 0.19955 0.20205
 C1235 C 0.41627 0.21923 0.20329
 C1236 C 0.43363 0.22483 0.21251
 C1237 C 0.44633 0.21054 0.22006
 C1238 C 0.44156 0.19095 0.21825
 C1239 C 0.46350 0.21604 0.22952
 C1240 C 0.46808 0.23567 0.23182
 C1241 C 0.45546 0.24981 0.22424
 C1242 C 0.43838 0.24445 0.21465
 H1243 H 0.40635 0.23013 0.19775
 H1244 H 0.45114 0.17982 0.22390
 H1245 H 0.47317 0.20508 0.23538
 H1246 H 0.42886 0.25563 0.20899
 H1247 H 0.42073 0.17028 0.20847
 H1248 H 0.45891 0.26504 0.22566
 C1249 C -0.09664 0.73285 0.20330
 C1250 C -0.09977 0.71323 0.20778
 C1251 C -0.08618 0.70352 0.21953
 C1252 C -0.06935 0.71311 0.22604
 C1253 C -0.06621 0.73266 0.22089
 C1254 C -0.08004 0.74243 0.20973
 C1255 C -0.04915 0.74209 0.22674
 C1256 C -0.03523 0.73236 0.23792
 C1257 C -0.03844 0.71298 0.24309
 C1258 C -0.05538 0.70343 0.23725
 H1259 H -0.08835 0.68842 0.22311
 H1260 H -0.07795 0.75746 0.20580
 H1261 H -0.04649 0.75684 0.22220
 H1262 H -0.05747 0.68845 0.24135
 H1263 H -0.10699 0.74092 0.19469
 H1264 H -0.02775 0.70523 0.25165
 C1265 C -0.07651 0.18535 0.70848
 C1266 C -0.09005 0.19921 0.70200
 C1267 C -0.08572 0.21899 0.70391
 C1268 C -0.06830 0.22482 0.71286
 C1269 C -0.05490 0.21067 0.71945
 C1270 C -0.05906 0.19101 0.71700
 C1271 C -0.03766 0.21635 0.72862
 C1272 C -0.03369 0.23601 0.73162
 C1273 C -0.04696 0.25004 0.72500
 C1274 C -0.06413 0.24450 0.71566
 H1275 H -0.09616 0.22976 0.69909
 H1276 H -0.04894 0.18000 0.72193
 H1277 H -0.02745 0.20550 0.73375
 H1278 H -0.07418 0.25558 0.71076
 H1279 H -0.07941 0.17003 0.70695
 H1280 H -0.04397 0.26530 0.72702
 C1281 C 0.31481 0.42083 0.29012
 C1282 C 0.30140 0.40779 0.29815
 C1283 C 0.28144 0.41238 0.29780
 C1284 C 0.27495 0.42958 0.28905
 C1285 C 0.28862 0.44245 0.28087
 C1286 C 0.30850 0.43801 0.28162
 C1287 C 0.28222 0.45951 0.27195
 C1288 C 0.26228 0.46386 0.27094
 C1289 C 0.24876 0.45109 0.27918
 C1290 C 0.25503 0.43406 0.28814
 H1291 H 0.27096 0.40239 0.30383
 H1292 H 0.31917 0.44776 0.27551
 H1293 H 0.29269 0.46931 0.26557
 H1294 H 0.24432 0.42442 0.29433
 H1295 H 0.33029 0.41781 0.29045
 H1296 H 0.23333 0.45440 0.27877
 C1297 C 0.26842 -0.09464 0.80288
 C1298 C 0.28781 -0.09911 0.79772
 C1299 C 0.29767 -0.08651 0.78504
 C1300 C 0.28855 -0.06967 0.77812
 C1301 C 0.26908 -0.06557 0.78337
 C1302 C 0.25913 -0.07818 0.79564
 C1303 C 0.25994 -0.04879 0.77644
 C1304 C 0.27016 -0.03585 0.76466
 C1305 C 0.28959 -0.03979 0.75972
 C1306 C 0.29869 -0.05669 0.76626
 H1307 H 0.31263 -0.08931 0.78096
 H1308 H 0.24419 -0.07522 0.79982
 H1309 H 0.24496 -0.04562 0.78036
 H1310 H 0.31367 -0.05953 0.76217
 H1311 H 0.26013 -0.10394 0.81232
 H1312 H 0.29760 -0.02988 0.75062
 C1313 C 0.81481 0.41771 0.77795
 C1314 C 0.80257 0.40758 0.79079
 C1315 C 0.78351 0.41465 0.79391
 C1316 C 0.77684 0.43128 0.78427
 C1317 C 0.78951 0.44138 0.77178
 C1318 C 0.80841 0.43447 0.76871
 C1319 C 0.78310 0.45826 0.76254
 C1320 C 0.76400 0.46488 0.76523
 C1321 C 0.75127 0.45463 0.77725
 C1322 C 0.75768 0.43799 0.78684
 H1323 H 0.77364 0.40710 0.80344
 H1324 H 0.81827 0.44202 0.75914
 H1325 H 0.79285 0.46621 0.75316
 H1326 H 0.74769 0.43041 0.79626
 H1327 H 0.82962 0.41312 0.77521
 H1328 H 0.73647 0.45970 0.77941
 C1329 C 0.77133 -0.09505 0.29945
 C1330 C 0.79083 -0.09959 0.29469
 C1331 C 0.80076 -0.08725 0.28178
 C1332 C 0.79163 -0.07051 0.27441
 C1333 C 0.77210 -0.06633 0.27942
 C1334 C 0.76207 -0.07876 0.29179
 C1335 C 0.76298 -0.04960 0.27224
 C1336 C 0.77325 -0.03667 0.26047
 C1337 C 0.79272 -0.04075 0.25569
 C1338 C 0.80178 -0.05764 0.26243
 H1339 H 0.81578 -0.09017 0.27792
 H1340 H 0.74709 -0.07577 0.29577
 H1341 H 0.74800 -0.04637 0.27613
 H1342 H 0.81680 -0.06050 0.25848
 H1343 H 0.76289 -0.10414 0.30894
 H1344 H 0.80084 -0.03089 0.24663
 C1345 C 0.26926 0.59641 0.70636
 C1346 C 0.28892 0.60042 0.71040
 C1347 C 0.29963 0.58743 0.72187
 C1348 C 0.29101 0.57029 0.72857
 C1349 C 0.27138 0.56623 0.72395
 C1350 C 0.26058 0.57951 0.71308
 C1351 C 0.26291 0.54889 0.73012
 C1352 C 0.27371 0.53561 0.74112
 C1353 C 0.29319 0.53974 0.74568
 C1354 C 0.30177 0.55695 0.73949
 H1355 H 0.31480 0.59029 0.72503
 H1356 H 0.24547 0.57672 0.70957
 H1357 H 0.24796 0.54564 0.72631
 H1358 H 0.31683 0.55978 0.74317
 H1359 H 0.26053 0.60631 0.69788
 H1360 H 0.30172 0.52966 0.75419
 C1361 C 0.31272 1.08205 0.21892
 C1362 C 0.30039 1.09352 0.20740
 C1363 C 0.28094 1.08789 0.20477
 C1364 C 0.27386 1.07104 0.21353
 C1365 C 0.28644 1.05955 0.22498
 C1366 C 0.30582 1.06520 0.22759
 C1367 C 0.27944 1.04259 0.23355
 C1368 C 0.25999 1.03704 0.23095
 C1369 C 0.24757 1.04856 0.21963
 C1370 C 0.25443 1.06545 0.21101
 H1371 H 0.27122 1.09669 0.19610
 H1372 H 0.31565 1.05656 0.23630
 H1373 H 0.28904 1.03372 0.24232
 H1374 H 0.24459 1.07407 0.20229
 H1375 H 0.32781 1.08592 0.22105
 H1376 H 0.23259 1.04432 0.21728
 C1377 C 0.77056 0.59581 0.20222
 C1378 C 0.78999 0.60010 0.20702
 C1379 C 0.79991 0.58793 0.22002
 C1380 C 0.79073 0.57147 0.22768
 C1381 C 0.77127 0.56725 0.22252
 C1382 C 0.76129 0.57961 0.20992
 C1383 C 0.76225 0.55054 0.22973
 C1384 C 0.77251 0.53785 0.24188
 C1385 C 0.79178 0.54219 0.24703
 C1386 C 0.80078 0.55892 0.24011
 H1387 H 0.81491 0.59092 0.22380
 H1388 H 0.74637 0.57663 0.20583
 H1389 H 0.74745 0.54712 0.22552
 H1390 H 0.81569 0.56188 0.24424
 H1391 H 0.76238 0.60500 0.19251
 H1392 H 0.79988 0.53255 0.25640
 C1393 C 0.81368 1.07820 0.71568
 C1394 C 0.80093 1.09046 0.70548
 C1395 C 0.78125 1.08530 0.70372
 C1396 C 0.77436 1.06817 0.71206
 C1397 C 0.78734 1.05583 0.72211
 C1398 C 0.80696 1.06101 0.72386
 C1399 C 0.78045 1.03857 0.73025
 C1400 C 0.76070 1.03373 0.72869
 C1401 C 0.74790 1.04610 0.71881
 C1402 C 0.75466 1.06318 0.71053
 H1403 H 0.77121 1.09471 0.69610
 H1404 H 0.81711 1.05177 0.73155
 H1405 H 0.79031 1.02901 0.73793
 H1406 H 0.74450 1.07247 0.70291
 H1407 H 0.82894 1.08173 0.71712
 H1408 H 0.73265 1.04241 0.71739
 C1409 C 0.73424 0.59681 0.30186
 C1410 C 0.71455 0.59971 0.29704
 C1411 C 0.70525 0.58620 0.28497
 C1412 C 0.71536 0.56989 0.27807
 C1413 C 0.73511 0.56709 0.28312
 C1414 C 0.74444 0.58069 0.29491
 C1415 C 0.74511 0.55059 0.27653
 C1416 C 0.73557 0.53681 0.26504
 C1417 C 0.71596 0.53970 0.26007
 C1418 C 0.70595 0.55616 0.26644
 H1419 H 0.69004 0.58808 0.28126
 H1420 H 0.75960 0.57879 0.29887
 H1421 H 0.76017 0.54823 0.28063
 H1422 H 0.69080 0.55806 0.26245
 H1423 H 0.74186 0.60706 0.31093
 H1424 H 0.70842 0.52916 0.25124
 C1425 C 0.68390 1.08400 0.77332
 C1426 C 0.69659 1.09343 0.78628
 C1427 C 0.71525 1.08537 0.78933
 C1428 C 0.72106 1.06837 0.77972
 C1429 C 0.70794 1.05888 0.76720
 C1430 C 0.68945 1.06685 0.76406
 C1431 C 0.71357 1.04161 0.75799
 C1432 C 0.73234 1.03405 0.76077
 C1433 C 0.74546 1.04377 0.77287
 C1434 C 0.73983 1.06073 0.78240
 H1435 H 0.72554 1.09240 0.79885
 H1436 H 0.67924 1.05981 0.75443
 H1437 H 0.70352 1.03414 0.74850
 H1438 H 0.75014 1.06788 0.79184
 H1439 H 0.66940 1.08949 0.77055
 H1440 H 0.76001 1.03805 0.77508
 C1441 C 0.23581 0.59807 0.79453
 C1442 C 0.21569 0.60006 0.79116
 C1443 C 0.20588 0.58543 0.78093
 C1444 C 0.21595 0.56868 0.77490
 C1445 C 0.23604 0.56667 0.77902
 C1446 C 0.24586 0.58155 0.78857
 C1447 C 0.24599 0.54973 0.77372
 C1448 C 0.23633 0.53484 0.76389
 C1449 C 0.21639 0.53691 0.75973
 C1450 C 0.20627 0.55369 0.76519
 H1451 H 0.19039 0.58676 0.77824
 H1452 H 0.26129 0.58033 0.79162
 H1453 H 0.26126 0.54805 0.77735
 H1454 H 0.19089 0.55492 0.76188
 H1455 H 0.24388 0.60925 0.80195
 H1456 H 0.20868 0.52553 0.75218
 C1457 C 0.22959 1.09659 0.29467
 C1458 C 0.20956 1.09986 0.29190
 C1459 C 0.19881 1.08653 0.28085
 C1460 C 0.20787 1.06999 0.27301
 C1461 C 0.22800 1.06686 0.27603
 C1462 C 0.23873 1.08030 0.28677
 C1463 C 0.23701 1.05021 0.26851
 C1464 C 0.22617 1.03652 0.25809
 C1465 C 0.20617 1.03970 0.25517
 C1466 C 0.19710 1.05635 0.26247
 H1467 H 0.18333 1.08873 0.27870
 H1468 H 0.25418 1.07813 0.28920
 H1469 H 0.25239 1.04767 0.27106
 H1470 H 0.18165 1.05847 0.26004
 H1471 H 0.23831 1.10670 0.30288
 H1472 H 0.19760 1.02926 0.24720
 C1473 C 0.68610 0.42080 0.71261
 C1474 C 0.69965 0.40827 0.70380
 C1475 C 0.71946 0.41323 0.70369
 C1476 C 0.72572 0.43035 0.71271
 C1477 C 0.71192 0.44288 0.72148
 C1478 C 0.69215 0.43802 0.72125
 C1479 C 0.71811 0.45998 0.73047
 C1480 C 0.73795 0.46460 0.73108
 C1481 C 0.75161 0.45209 0.72245
 C1482 C 0.74555 0.43510 0.71330
 H1483 H 0.73002 0.40353 0.69711
 H1484 H 0.68139 0.44743 0.72790
 H1485 H 0.70757 0.46965 0.73714
 H1486 H 0.75634 0.42569 0.70670
 H1487 H 0.67074 0.41734 0.71275
 H1488 H 0.76695 0.45563 0.72260
 C1489 C 0.68670 -0.08242 0.22082
 C1490 C 0.69902 -0.09349 0.20882
 C1491 C 0.71844 -0.08765 0.20629
 C1492 C 0.72546 -0.07099 0.21553
 C1493 C 0.71289 -0.05985 0.22738
 C1494 C 0.69356 -0.06573 0.22997
 C1495 C 0.71985 -0.04298 0.23633
 C1496 C 0.73926 -0.03723 0.23370
 C1497 C 0.75165 -0.04847 0.22200
 C1498 C 0.74484 -0.06523 0.21302
 H1499 H 0.72818 -0.09615 0.19730
 H1500 H 0.68372 -0.05738 0.23901
 H1501 H 0.71024 -0.03431 0.24534
 H1502 H 0.75467 -0.07358 0.20397
 H1503 H 0.67165 -0.08647 0.22293
 H1504 H 0.76657 -0.04407 0.21956
 C1505 C 0.18303 0.41839 0.22200
 C1506 C 0.19628 0.40673 0.21168
 C1507 C 0.21592 0.41228 0.21070
 C1508 C 0.22227 0.42929 0.21981
 C1509 C 0.20875 0.44116 0.22980
 C1510 C 0.18918 0.43553 0.23086
 C1511 C 0.21505 0.45842 0.23852
 C1512 C 0.23477 0.46367 0.23774
 C1513 C 0.24813 0.45166 0.22803
 C1514 C 0.24192 0.43465 0.21906
 H1515 H 0.22634 0.40328 0.20303
 H1516 H 0.17861 0.44440 0.23850
 H1517 H 0.20475 0.46769 0.24606
 H1518 H 0.25249 0.42571 0.21151
 H1519 H 0.16781 0.41448 0.22288
 H1520 H 0.26335 0.45562 0.22723
 C1521 C 0.18649 -0.08455 0.72450
 C1522 C 0.19911 -0.09532 0.71256
 C1523 C 0.21839 -0.08902 0.71006
 C1524 C 0.22491 -0.07209 0.71914
 C1525 C 0.21198 -0.06117 0.73082
 C1526 C 0.19285 -0.06761 0.73351
 C1527 C 0.21835 -0.04394 0.73946
 C1528 C 0.23755 -0.03761 0.73672
 C1529 C 0.25037 -0.04865 0.72531
 C1530 C 0.24412 -0.06577 0.71659
 H1531 H 0.22836 -0.09731 0.70112
 H1532 H 0.18276 -0.05945 0.74245
 H1533 H 0.20845 -0.03542 0.74829
 H1534 H 0.25423 -0.07395 0.70769
 H1535 H 0.17154 -0.08898 0.72658
 H1536 H 0.26517 -0.04384 0.72292
 C1537 C 0.29809 0.26776 0.40330
 C1538 C 0.29350 0.28710 0.39878
 C1539 C 0.28114 0.29759 0.41125
 C1540 C 0.27378 0.28905 0.42811
 C1541 C 0.27865 0.26966 0.43257
 C1542 C 0.29070 0.25911 0.42000
 C1543 C 0.27155 0.26125 0.44963
 C1544 C 0.25964 0.27200 0.46228
 C1545 C 0.25490 0.29124 0.45770
 C1546 C 0.26184 0.29968 0.44075
 H1547 H 0.27757 0.31255 0.40815
 H1548 H 0.29453 0.24421 0.42314
 H1549 H 0.27544 0.24645 0.45320
 H1550 H 0.25796 0.31456 0.43757
 H1551 H 0.30738 0.25922 0.39391
 H1552 H 0.24569 0.29971 0.46726
 C1553 C 0.30954 0.78192 -0.07968
 C1554 C 0.29732 0.79237 -0.09224
 C1555 C 0.27753 0.79461 -0.08745
 C1556 C 0.27008 0.78682 -0.07031
 C1557 C 0.28255 0.77661 -0.05763
 C1558 C 0.30223 0.77417 -0.06250
 C1559 C 0.27509 0.76911 -0.04030
 C1560 C 0.25532 0.77156 -0.03564
 C1561 C 0.24307 0.78168 -0.04837
 C1562 C 0.25036 0.78920 -0.06558
 H1563 H 0.26782 0.80233 -0.09709
 H1564 H 0.31200 0.76636 -0.05298
 H1565 H 0.28457 0.76128 -0.03050
 H1566 H 0.24061 0.79697 -0.07514
 H1567 H 0.32485 0.78000 -0.08293
 H1568 H 0.22784 0.78388 -0.04486
 C1569 C 0.78484 0.31297 -0.08337
 C1570 C 0.79476 0.30032 -0.09597
 C1571 C 0.79663 0.28070 -0.09095
 C1572 C 0.78866 0.27377 -0.07363
 C1573 C 0.77893 0.28666 -0.06093
 C1574 C 0.77709 0.30623 -0.06597
 C1575 C 0.77113 0.27972 -0.04351
 C1576 C 0.77261 0.25999 -0.03888
 C1577 C 0.78220 0.24730 -0.05163
 C1578 C 0.79022 0.25412 -0.06883
 H1579 H 0.80404 0.27074 -0.10062
 H1580 H 0.76966 0.31633 -0.05645
 H1581 H 0.76366 0.28952 -0.03370
 H1582 H 0.79758 0.24403 -0.07840
 H1583 H 0.78335 0.32819 -0.08680
 H1584 H 0.78354 0.23206 -0.04818
 C1585 C 0.81079 0.78787 0.42291
 C1586 C 0.79773 0.79649 0.40984
 C1587 C 0.77777 0.79695 0.41428
 C1588 C 0.77089 0.78852 0.43139
 C1589 C 0.78419 0.77986 0.44441
 C1590 C 0.80410 0.77971 0.44008
 C1591 C 0.77733 0.77136 0.46147
 C1592 C 0.75733 0.77109 0.46550
 C1593 C 0.74420 0.77971 0.45254
 C1594 C 0.75092 0.78840 0.43562
 H1595 H 0.76756 0.80340 0.40422
 H1596 H 0.81449 0.77314 0.44988
 H1597 H 0.78747 0.76466 0.47146
 H1598 H 0.74052 0.79493 0.42582
 H1599 H 0.82627 0.78752 0.41995
 H1600 H 0.72872 0.77977 0.45559
 C1601 C 0.70485 0.27020 0.59639
 C1602 C 0.70723 0.29025 0.59900
 C1603 C 0.71791 0.30076 0.58524
 C1604 C 0.72574 0.29142 0.56889
 C1605 C 0.72316 0.27126 0.56645
 C1606 C 0.71280 0.26079 0.58033
 C1607 C 0.73076 0.26195 0.55005
 C1608 C 0.74080 0.27252 0.53594
 C1609 C 0.74321 0.29255 0.53837
 C1610 C 0.73586 0.30192 0.55478
 H1611 H 0.71972 0.31624 0.58697
 H1612 H 0.71070 0.24533 0.57869
 H1613 H 0.72860 0.24653 0.54806
 H1614 H 0.73794 0.31739 0.55635
 H1615 H 0.69694 0.26168 0.60685
 H1616 H 0.75087 0.30090 0.52756
 C1617 C 0.71860 0.81160 1.08211
 C1618 C 0.70821 0.79913 1.09435
 C1619 C 0.70588 0.77964 1.08888
 C1620 C 0.71361 0.77276 1.07137
 C1621 C 0.72375 0.78552 1.05905
 C1622 C 0.72626 0.80488 1.06461
 C1623 C 0.73118 0.77870 1.04139
 C1624 C 0.72880 0.75924 1.03604
 C1625 C 0.71881 0.74663 1.04840
 C1626 C 0.71127 0.75333 1.06594
 H1627 H 0.69816 0.76976 1.09825
 H1628 H 0.73405 0.81484 1.05537
 H1629 H 0.73897 0.78842 1.03187
 H1630 H 0.70358 0.74333 1.07523
 H1631 H 0.72054 0.82669 1.08586
 H1632 H 0.71678 0.73161 1.04438
 C1633 C 0.21965 0.31706 1.08207
 C1634 C 0.20977 0.30403 1.09411
 C1635 C 0.20893 0.28438 1.08887
 C1636 C 0.21766 0.27783 1.07172
 C1637 C 0.22716 0.29114 1.05945
 C1638 C 0.22816 0.31070 1.06482
 C1639 C 0.23549 0.28464 1.04206
 C1640 C 0.23476 0.26496 1.03705
 C1641 C 0.22556 0.25180 1.04942
 C1642 C 0.21700 0.25818 1.06661
 H1643 H 0.20162 0.27413 1.09819
 H1644 H 0.23546 0.32108 1.05564
 H1645 H 0.24269 0.29477 1.03252
 H1646 H 0.20984 0.24778 1.07587
 H1647 H 0.22042 0.33228 1.08576
 H1648 H 0.22487 0.23658 1.04566
 C1649 C 0.21778 0.81642 0.58063
 C1650 C 0.20768 0.80375 0.59288
 C1651 C 0.20630 0.78410 0.58785
 C1652 C 0.21467 0.77716 0.57072
 C1653 C 0.22441 0.79007 0.55821
 C1654 C 0.22598 0.80966 0.56335
 C1655 C 0.23235 0.78313 0.54080
 C1656 C 0.23100 0.76341 0.53607
 C1657 C 0.22154 0.75068 0.54870
 C1658 C 0.21338 0.75750 0.56587
 H1659 H 0.19884 0.77413 0.59735
 H1660 H 0.23346 0.81975 0.55400
 H1661 H 0.23973 0.79292 0.53104
 H1662 H 0.20603 0.74742 0.57533
 H1663 H 0.21898 0.83164 0.58418
 H1664 H 0.22034 0.73546 0.54513
 C1665 C 0.28331 0.68513 0.58044
 C1666 C 0.29281 0.69880 0.59214
 C1667 C 0.29320 0.71829 0.58643
 C1668 C 0.28370 0.72414 0.56944
 C1669 C 0.27412 0.71024 0.55784
 C1670 C 0.27415 0.69077 0.56339
 C1671 C 0.26449 0.71603 0.54098
 C1672 C 0.26405 0.73558 0.53564
 C1673 C 0.27358 0.74935 0.54718
 C1674 C 0.28337 0.74368 0.56395
 H1675 H 0.30035 0.72894 0.59546
 H1676 H 0.26692 0.67994 0.55465
 H1677 H 0.25710 0.70540 0.53211
 H1678 H 0.29061 0.75455 0.57263
 H1679 H 0.28300 0.66999 0.58444
 H1680 H 0.27356 0.76448 0.54310
 C1681 C 0.28613 0.18666 1.08147
 C1682 C 0.29533 0.20006 1.09372
 C1683 C 0.29579 0.21968 1.08838
 C1684 C 0.28683 0.22586 1.07117
 C1685 C 0.27770 0.21218 1.05896
 C1686 C 0.27750 0.19263 1.06422
 C1687 C 0.26879 0.21829 1.04177
 C1688 C 0.26852 0.23796 1.03677
 C1689 C 0.27752 0.25149 1.04899
 C1690 C 0.28666 0.24550 1.06602
 H1691 H 0.30269 0.23017 1.09779
 H1692 H 0.27057 0.18195 1.05505
 H1693 H 0.26178 0.20783 1.03239
 H1694 H 0.29352 0.25621 1.07519
 H1695 H 0.28575 0.17143 1.08511
 H1696 H 0.27756 0.26671 1.04525
 C1697 C 0.79396 0.73118 1.09467
 C1698 C 0.79168 0.71115 1.09744
 C1699 C 0.78126 0.70034 1.08372
 C1700 C 0.77351 0.70935 1.06727
 C1701 C 0.77591 0.72951 1.06466
 C1702 C 0.78607 0.74029 1.07848
 C1703 C 0.76828 0.73851 1.04817
 C1704 C 0.75841 0.72758 1.03419
 C1705 C 0.75623 0.70756 1.03678
 C1706 C 0.76361 0.69852 1.05325
 H1707 H 0.77957 0.68486 1.08559
 H1708 H 0.78804 0.75574 1.07671
 H1709 H 0.77020 0.75393 1.04604
 H1710 H 0.76170 0.68305 1.05497
 H1711 H 0.80171 0.73990 1.10513
 H1712 H 0.74867 0.69897 1.02606
 C1713 C 0.78190 0.18820 0.58384
 C1714 C 0.79279 0.20083 0.59554
 C1715 C 0.79506 0.22019 0.58969
 C1716 C 0.78648 0.22683 0.57248
 C1717 C 0.77568 0.21390 0.56084
 C1718 C 0.77347 0.19465 0.56667
 C1719 C 0.76730 0.22042 0.54354
 C1720 C 0.76939 0.23976 0.53775
 C1721 C 0.78004 0.25256 0.54944
 C1722 C 0.78851 0.24616 0.56666
 H1723 H 0.80329 0.23014 0.59861
 H1724 H 0.76524 0.18454 0.55792
 H1725 H 0.75903 0.21051 0.53459
 H1726 H 0.79671 0.25630 0.57538
 H1727 H 0.78009 0.17316 0.58777
 H1728 H 0.78196 0.26748 0.54511
 C1729 C 0.68041 0.71976 0.41813
 C1730 C 0.69442 0.71076 0.40626
 C1731 C 0.71405 0.71079 0.41205
 C1732 C 0.71960 0.71971 0.42943
 C1733 C 0.70532 0.72851 0.44134
 C1734 C 0.68579 0.72848 0.43554
 C1735 C 0.71083 0.73722 0.45883
 C1736 C 0.73046 0.73754 0.46439
 C1737 C 0.74458 0.72889 0.45243
 C1738 C 0.73920 0.72001 0.43510
 H1739 H 0.72504 0.70411 0.40294
 H1740 H 0.67466 0.73518 0.44447
 H1741 H 0.69993 0.74396 0.46802
 H1742 H 0.75035 0.71338 0.42615
 H1743 H 0.66518 0.71982 0.41412
 H1744 H 0.75978 0.72891 0.45661
 C1745 C 0.72376 0.18149 -0.08576
 C1746 C 0.71326 0.19501 -0.09682
 C1747 C 0.71223 0.21437 -0.09056
 C1748 C 0.72162 0.22017 -0.07351
 C1749 C 0.73193 0.20638 -0.06237
 C1750 C 0.73292 0.18710 -0.06864
 C1751 C 0.74111 0.21212 -0.04520
 C1752 C 0.74040 0.23153 -0.03920
 C1753 C 0.73026 0.24516 -0.05040
 C1754 C 0.72090 0.23953 -0.06739
 H1755 H 0.70437 0.22498 -0.09907
 H1756 H 0.74076 0.17635 -0.06029
 H1757 H 0.74899 0.20159 -0.03658
 H1758 H 0.71308 0.25030 -0.07574
 H1759 H 0.72463 0.16646 -0.09016
 H1760 H 0.72946 0.26017 -0.04585
 C1761 C 0.22961 0.70566 -0.09379
 C1762 C 0.20964 0.70796 -0.09768
 C1763 C 0.19806 0.71884 -0.08485
 C1764 C 0.20624 0.72715 -0.06828
 C1765 C 0.22632 0.72468 -0.06448
 C1766 C 0.23790 0.71399 -0.07736
 C1767 C 0.23442 0.73277 -0.04777
 C1768 C 0.22269 0.74327 -0.03482
 C1769 C 0.20276 0.74565 -0.03867
 C1770 C 0.19460 0.73771 -0.05533
 H1771 H 0.18261 0.72059 -0.08749
 H1772 H 0.25333 0.71200 -0.07469
 H1773 H 0.24977 0.73072 -0.04466
 H1774 H 0.17918 0.73974 -0.05803
 H1775 H 0.23894 0.69753 -0.10350
 H1776 H 0.19357 0.75374 -0.02879
 C1777 C 0.20212 0.23455 0.40167
 C1778 C 0.20657 0.21480 0.39924
 C1779 C 0.21824 0.20538 0.41301
 C1780 C 0.22470 0.21542 0.42946
 C1781 C 0.21974 0.23519 0.43189
 C1782 C 0.20871 0.24467 0.41779
 C1783 C 0.22555 0.24508 0.44857
 C1784 C 0.23625 0.23551 0.46291
 C1785 C 0.24120 0.21591 0.46045
 C1786 C 0.23556 0.20595 0.44378
 H1787 H 0.22166 0.19014 0.41132
 H1788 H 0.20490 0.25983 0.41940
 H1789 H 0.22145 0.26012 0.45060
 H1790 H 0.23946 0.19080 0.44221
 H1791 H 0.19342 0.24221 0.39110
 H1792 H 0.24944 0.20835 0.47146
 C1793 C 0.27099 0.40394 0.70551
 C1794 C 0.29102 0.40042 0.70799
 C1795 C 0.30211 0.41353 0.71895
 C1796 C 0.29340 0.43018 0.72690
 C1797 C 0.27328 0.43361 0.72410
 C1798 C 0.26220 0.42034 0.71353
 C1799 C 0.26462 0.45039 0.73165
 C1800 C 0.27577 0.46391 0.74194
 C1801 C 0.29574 0.46046 0.74468
 C1802 C 0.30448 0.44366 0.73731
 H1803 H 0.31759 0.41108 0.72087
 H1804 H 0.24675 0.42273 0.71130
 H1805 H 0.24925 0.45316 0.72923
 H1806 H 0.31992 0.44131 0.73959
 H1807 H 0.26202 0.39398 0.69739
 H1808 H 0.30454 0.47078 0.75256
 C1809 C 0.26554 0.90365 0.20205
 C1810 C 0.28549 0.90109 0.20594
 C1811 C 0.29529 0.91511 0.21699
 C1812 C 0.28540 0.93182 0.22345
 C1813 C 0.26543 0.93433 0.21907
 C1814 C 0.25561 0.92007 0.20858
 C1815 C 0.25564 0.95118 0.22501
 C1816 C 0.26546 0.96561 0.23540
 C1817 C 0.28530 0.96306 0.23971
 C1818 C 0.29518 0.94626 0.23386
 H1819 H 0.31068 0.91336 0.22001
 H1820 H 0.24028 0.92171 0.20520
 H1821 H 0.24042 0.95323 0.22134
 H1822 H 0.31048 0.94465 0.23735
 H1823 H 0.25752 0.89295 0.19389
 H1824 H 0.29311 0.97407 0.24769
 C1825 C 0.76949 0.40763 0.20223
 C1826 C 0.78942 0.40390 0.20507
 C1827 C 0.80036 0.41662 0.21663
 C1828 C 0.79158 0.43299 0.22499
 C1829 C 0.77154 0.43661 0.22197
 C1830 C 0.76060 0.42379 0.21068
 C1831 C 0.76284 0.45314 0.23003
 C1832 C 0.77392 0.46619 0.24097
 C1833 C 0.79382 0.46253 0.24392
 C1834 C 0.80258 0.44599 0.23608
 H1835 H 0.81578 0.41408 0.21878
 H1836 H 0.74521 0.42634 0.20826
 H1837 H 0.74753 0.45610 0.22748
 H1838 H 0.81796 0.44346 0.23852
 H1839 H 0.76067 0.39800 0.19357
 H1840 H 0.80254 0.47250 0.25232
 C1841 C 0.81203 0.91712 0.71403
 C1842 C 0.79941 0.90493 0.70368
 C1843 C 0.77973 0.91032 0.70170
 C1844 C 0.77272 0.92754 0.71008
 C1845 C 0.78559 0.93969 0.72040
 C1846 C 0.80522 0.93437 0.72223
 C1847 C 0.77861 0.95690 0.72875
 C1848 C 0.75887 0.96203 0.72711
 C1849 C 0.74618 0.94993 0.71683
 C1850 C 0.75304 0.93281 0.70838
 H1851 H 0.76976 0.90102 0.69394
 H1852 H 0.81530 0.94353 0.73003
 H1853 H 0.78843 0.96625 0.73669
 H1854 H 0.74297 0.92371 0.70051
 H1855 H 0.82728 0.91345 0.71566
 H1856 H 0.73098 0.95384 0.71522
 C1857 C 0.68464 0.57989 0.71333
 C1858 C 0.69802 0.59284 0.70508
 C1859 C 0.71797 0.58819 0.70538
 C1860 C 0.72450 0.57094 0.71392
 C1861 C 0.71090 0.55801 0.72210
 C1862 C 0.69102 0.56261 0.72170
 C1863 C 0.71742 0.54075 0.73060
 C1864 C 0.73739 0.53638 0.73122
 C1865 C 0.75081 0.54927 0.72307
 C1866 C 0.74442 0.56643 0.71447
 H1867 H 0.72849 0.59810 0.69929
 H1868 H 0.68039 0.55287 0.72790
 H1869 H 0.70706 0.53081 0.73694
 H1870 H 0.75505 0.57615 0.70827
 H1871 H 0.66918 0.58298 0.71320
 H1872 H 0.76624 0.54596 0.72326
 C1873 C 0.73552 0.09444 0.20118
 C1874 C 0.71554 0.09747 0.20468
 C1875 C 0.70542 0.08409 0.21622
 C1876 C 0.71503 0.06766 0.22365
 C1877 C 0.73505 0.06473 0.21973
 C1878 C 0.74517 0.07829 0.20864
 C1879 C 0.74457 0.04814 0.22668
 C1880 C 0.73440 0.03434 0.23754
 C1881 C 0.71452 0.03734 0.24143
 C1882 C 0.70494 0.05391 0.23464
 H1883 H 0.69002 0.08614 0.21899
 H1884 H 0.76053 0.07631 0.20557
 H1885 H 0.75982 0.04573 0.22332
 H1886 H 0.68959 0.05586 0.23780
 H1887 H 0.74382 0.10460 0.19267
 H1888 H 0.70643 0.02681 0.24973
 C1889 C 0.21714 0.57805 0.18531
 C1890 C 0.20780 0.59086 0.19814
 C1891 C 0.20725 0.58646 0.21792
 C1892 C 0.21605 0.56951 0.22487
 C1893 C 0.22518 0.55655 0.21181
 C1894 C 0.22564 0.56095 0.19207
 C1895 C 0.23373 0.53945 0.21874
 C1896 C 0.23358 0.53538 0.23858
 C1897 C 0.22470 0.54840 0.25148
 C1898 C 0.21593 0.56533 0.24468
 H1899 H 0.20031 0.59639 0.22797
 H1900 H 0.23261 0.55120 0.18187
 H1901 H 0.24066 0.52940 0.20881
 H1902 H 0.20906 0.57512 0.25489
 H1903 H 0.21762 0.58110 0.16998
 H1904 H 0.22439 0.54533 0.26681
 C1905 C 0.23356 0.09348 0.70304
 C1906 C 0.21342 0.09626 0.70550
 C1907 C 0.20278 0.08281 0.71642
 C1908 C 0.21207 0.06656 0.72442
 C1909 C 0.23233 0.06391 0.72175
 C1910 C 0.24295 0.07751 0.71117
 C1911 C 0.24158 0.04755 0.72944
 C1912 C 0.23085 0.03369 0.73965
 C1913 C 0.21073 0.03635 0.74221
 C1914 C 0.20142 0.05274 0.73476
 H1915 H 0.18721 0.08467 0.71828
 H1916 H 0.25849 0.07571 0.70903
 H1917 H 0.25707 0.04536 0.72719
 H1918 H 0.18588 0.05450 0.73692
 H1919 H 0.24215 0.10374 0.69491
 H1920 H 0.20228 0.02572 0.75001
 C1921 C 0.28928 0.57877 0.31663
 C1922 C 0.29740 0.59137 0.30291
 C1923 C 0.29642 0.58643 0.28321
 C1924 C 0.28691 0.56939 0.27731
 C1925 C 0.27866 0.55698 0.29130
 C1926 C 0.28008 0.56174 0.31091
 C1927 C 0.26901 0.54008 0.28548
 C1928 C 0.26730 0.53542 0.26582
 C1929 C 0.27558 0.54778 0.25198
 C1930 C 0.28528 0.56463 0.25767
 H1931 H 0.30250 0.59609 0.27249
 H1932 H 0.27389 0.55237 0.32183
 H1933 H 0.26264 0.53061 0.29622
 H1934 H 0.29150 0.57392 0.24671
 H1935 H 0.29003 0.58208 0.33191
 H1936 H 0.27470 0.54426 0.23676
 C1937 C 0.31461 0.08274 0.77941
 C1938 C 0.30185 0.09388 0.79086
 C1939 C 0.28252 0.08767 0.79327
 C1940 C 0.27610 0.07045 0.78465
 C1941 C 0.28916 0.05918 0.77347
 C1942 C 0.30834 0.06552 0.77083
 C1943 C 0.28284 0.04173 0.76521
 C1944 C 0.26358 0.03554 0.76783
 C1945 C 0.25065 0.04691 0.77881
 C1946 C 0.25685 0.06424 0.78715
 H1947 H 0.27242 0.09622 0.80180
 H1948 H 0.31853 0.05710 0.76226
 H1949 H 0.29281 0.03299 0.75667
 H1950 H 0.24664 0.07271 0.79565
 H1951 H 0.32958 0.08710 0.77736
 H1952 H 0.23579 0.04223 0.78109
 C1953 C 0.81645 0.58113 0.78040
 C1954 C 0.80321 0.59307 0.79038
 C1955 C 0.78350 0.58778 0.79128
 C1956 C 0.77705 0.57073 0.78238
 C1957 C 0.79055 0.55859 0.77270
 C1958 C 0.81020 0.56395 0.77174
 C1959 C 0.78415 0.54134 0.76411
 C1960 C 0.76438 0.53635 0.76474
 C1961 C 0.75102 0.54857 0.77416
 C1962 C 0.75732 0.56561 0.78299
 H1963 H 0.77310 0.59704 0.79869
 H1964 H 0.82073 0.55485 0.76433
 H1965 H 0.79442 0.53189 0.75677
 H1966 H 0.74678 0.57478 0.79030
 H1967 H 0.83172 0.58490 0.77960
 H1968 H 0.73575 0.54478 0.77480
 C1969 C 0.76766 0.09376 0.30076
 C1970 C 0.78713 0.09795 0.29611
 C1971 C 0.79723 0.08553 0.28340
 C1972 C 0.78826 0.06897 0.27585
 C1973 C 0.76876 0.06477 0.28080
 C1974 C 0.75853 0.07737 0.29312
 C1975 C 0.75999 0.04788 0.27364
 C1976 C 0.77059 0.03509 0.26175
 C1977 C 0.78989 0.03948 0.25682
 C1978 C 0.79863 0.05633 0.26371
 H1979 H 0.81228 0.08836 0.27974
 H1980 H 0.74355 0.07443 0.29703
 H1981 H 0.74513 0.04444 0.27760
 H1982 H 0.81357 0.05935 0.25973
 H1983 H 0.75943 0.10314 0.31032
 H1984 H 0.79820 0.02979 0.24760
 C1985 C 0.68884 0.41800 0.27872
 C1986 C 0.70130 0.40691 0.29048
 C1987 C 0.72053 0.41323 0.29338
 C1988 C 0.72716 0.43042 0.28491
 C1989 C 0.71443 0.44165 0.27340
 C1990 C 0.69532 0.43523 0.27032
 C1991 C 0.72106 0.45906 0.26523
 C1992 C 0.74034 0.46518 0.26824
 C1993 C 0.75284 0.45383 0.27964
 C1994 C 0.74633 0.43662 0.28789
 H1995 H 0.73043 0.40473 0.30213
 H1996 H 0.68535 0.44359 0.26149
 H1997 H 0.71136 0.46777 0.25643
 H1998 H 0.75628 0.42819 0.29668
 H1999 H 0.67395 0.41355 0.27629
 H2000 H 0.76766 0.45843 0.28230
 C2001 C 0.72995 0.90228 0.79177
 C2002 C 0.70971 0.89991 0.78981
 C2003 C 0.69896 0.91366 0.77930
 C2004 C 0.70820 0.92986 0.77130
 C2005 C 0.72854 0.93216 0.77349
 C2006 C 0.73929 0.91820 0.78360
 C2007 C 0.73769 0.94858 0.76590
 C2008 C 0.72673 0.96282 0.75634
 C2009 C 0.70656 0.96043 0.75421
 C2010 C 0.69737 0.94401 0.76152
 H2011 H 0.68334 0.91213 0.77785
 H2012 H 0.75489 0.91973 0.78540
 H2013 H 0.75324 0.95055 0.76778
 H2014 H 0.68177 0.94252 0.75975
 H2015 H 0.73861 0.89180 0.79962
 H2016 H 0.69794 0.97134 0.74690
 C2017 C 0.18926 0.41876 0.78186
 C2018 C 0.20158 0.40739 0.79349
 C2019 C 0.22106 0.41301 0.79598
 C2020 C 0.22815 0.42974 0.78699
 C2021 C 0.21558 0.44113 0.77546
 C2022 C 0.19618 0.43549 0.77296
 C2023 C 0.22260 0.45801 0.76669
 C2024 C 0.24207 0.46356 0.76920
 C2025 C 0.25448 0.45211 0.78060
 C2026 C 0.24760 0.43531 0.78939
 H2027 H 0.23079 0.40429 0.80471
 H2028 H 0.18633 0.44405 0.76418
 H2029 H 0.21299 0.46680 0.75786
 H2030 H 0.25744 0.42676 0.79817
 H2031 H 0.17414 0.41491 0.77982
 H2032 H 0.26948 0.45633 0.78289
 C2033 C 0.23247 0.90584 0.29668
 C2034 C 0.21291 0.90171 0.29235
 C2035 C 0.20251 0.91427 0.28014
 C2036 C 0.21132 0.93095 0.27276
 C2037 C 0.23089 0.93512 0.27747
 C2038 C 0.24139 0.92238 0.28927
 C2039 C 0.23951 0.95210 0.27052
 C2040 C 0.22878 0.96493 0.25893
 C2041 C 0.20940 0.96061 0.25423
 C2042 C 0.20074 0.94372 0.26103
 H2043 H 0.18741 0.91144 0.27674
 H2044 H 0.25644 0.92529 0.29293
 H2045 H 0.25441 0.95553 0.27435
 H2046 H 0.18574 0.94073 0.25727
 H2047 H 0.24095 0.89633 0.30582
 H2048 H 0.20098 0.97036 0.24525
 C2049 C 0.41998 0.28537 0.68505
 C2050 C 0.40746 0.29452 0.69834
 C2051 C 0.41244 0.29483 0.71802
 C2052 C 0.42952 0.28558 0.72440
 C2053 C 0.44194 0.27634 0.71086
 C2054 C 0.43711 0.27646 0.69124
 C2055 C 0.45892 0.26702 0.71717
 C2056 C 0.46361 0.26658 0.73686
 C2057 C 0.45124 0.27574 0.75026
 C2058 C 0.43432 0.28519 0.74409
 H2059 H 0.40279 0.30173 0.72837
 H2060 H 0.44650 0.26950 0.68068
 H2061 H 0.46843 0.25991 0.70680
 H2062 H 0.42501 0.29218 0.75468
 H2063 H 0.41656 0.28517 0.66979
 H2064 H 0.45480 0.27572 0.76550
 C2065 C 0.40058 0.76926 0.20519
 C2066 C 0.39745 0.78900 0.20926
 C2067 C 0.41087 0.79889 0.22095
 C2068 C 0.42768 0.78938 0.22768
 C2069 C 0.43095 0.76970 0.22287
 C2070 C 0.41714 0.75970 0.21193
 C2071 C 0.44814 0.76043 0.22877
 C2072 C 0.46206 0.77048 0.23963
 C2073 C 0.45861 0.78995 0.24458
 C2074 C 0.44156 0.79932 0.23868
 H2075 H 0.40866 0.81410 0.22417
 H2076 H 0.41931 0.74457 0.20830
 H2077 H 0.45084 0.74549 0.22467
 H2078 H 0.43933 0.81438 0.24255
 H2079 H 0.39028 0.76114 0.19660
 H2080 H 0.46920 0.79791 0.25300
 C2081 C 0.91913 0.31435 0.21144
 C2082 C 0.90649 0.30132 0.20222
 C2083 C 0.91126 0.28152 0.20182
 C2084 C 0.92831 0.27478 0.21077
 C2085 C 0.94098 0.28806 0.21989
 C2086 C 0.93627 0.30780 0.22010
 C2087 C 0.95810 0.28135 0.22872
 C2088 C 0.96253 0.26151 0.22884
 C2089 C 0.94983 0.24839 0.21990
 C2090 C 0.93287 0.25497 0.21088
 H2091 H 0.90151 0.27132 0.19493
 H2092 H 0.94580 0.31817 0.22704
 H2093 H 0.96787 0.29148 0.23570
 H2094 H 0.92332 0.24458 0.20401
 H2095 H 0.91586 0.32970 0.21179
 H2096 H 0.95316 0.23305 0.21977
 C2097 C 0.90463 0.76583 0.70244
 C2098 C 0.90120 0.78542 0.70686
 C2099 C 0.91425 0.79524 0.71902
 C2100 C 0.93091 0.78579 0.72611
 C2101 C 0.93432 0.76614 0.72136
 C2102 C 0.92098 0.75624 0.70971
 C2103 C 0.95121 0.75682 0.72801
 C2104 C 0.96483 0.76693 0.73922
 C2105 C 0.96137 0.78644 0.74387
 C2106 C 0.94448 0.79578 0.73748
 H2107 H 0.91183 0.81040 0.72240
 H2108 H 0.92335 0.74116 0.70597
 H2109 H 0.95400 0.74183 0.72415
 H2110 H 0.94215 0.81086 0.74120
 H2111 H 0.89465 0.75789 0.69332
 H2112 H 0.97179 0.79443 0.75247
 C2113 C 0.58386 0.28227 0.31632
 C2114 C 0.59611 0.29165 0.30306
 C2115 C 0.59115 0.29159 0.28337
 C2116 C 0.57425 0.28217 0.27697
 C2117 C 0.56190 0.27300 0.29048
 C2118 C 0.56685 0.27314 0.31011
 C2119 C 0.54482 0.26385 0.28412
 C2120 C 0.54014 0.26346 0.26439
 C2121 C 0.55259 0.27241 0.25105
 C2122 C 0.56948 0.28173 0.25728
 H2123 H 0.60059 0.29858 0.27298
 H2124 H 0.55758 0.26617 0.32066
 H2125 H 0.53524 0.25694 0.29444
 H2126 H 0.57877 0.28865 0.24672
 H2127 H 0.58726 0.28223 0.33159
 H2128 H 0.54906 0.27242 0.23581
 C2129 C 0.58080 0.80999 0.78318
 C2130 C 0.59352 0.79742 0.79303
 C2131 C 0.58868 0.77771 0.79457
 C2132 C 0.57131 0.77069 0.78648
 C2133 C 0.55848 0.78359 0.77696
 C2134 C 0.56341 0.80316 0.77531
 C2135 C 0.54087 0.77673 0.76937
 C2136 C 0.53599 0.75709 0.77094
 C2137 C 0.54891 0.74429 0.78015
 C2138 C 0.56645 0.75103 0.78786
 H2139 H 0.59846 0.76782 0.80191
 H2140 H 0.55378 0.81323 0.76802
 H2141 H 0.53092 0.78660 0.76219
 H2142 H 0.57613 0.74091 0.79501
 H2143 H 0.58405 0.82524 0.78188
 H2144 H 0.54528 0.72912 0.78158
 C2145 C 0.07952 0.31137 0.79120
 C2146 C 0.09327 0.29793 0.79810
 C2147 C 0.08950 0.27802 0.79632
 C2148 C 0.07239 0.27165 0.78714
 C2149 C 0.05875 0.28538 0.78020
 C2150 C 0.06237 0.30517 0.78246
 C2151 C 0.04176 0.27914 0.77094
 C2152 C 0.03827 0.25934 0.76821
 C2153 C 0.05184 0.24573 0.77508
 C2154 C 0.06877 0.25183 0.78451
 H2155 H 0.10011 0.26758 0.80146
 H2156 H 0.05205 0.31586 0.77726
 H2157 H 0.03130 0.28967 0.76562
 H2158 H 0.07903 0.24107 0.78969
 H2159 H 0.08202 0.32678 0.79259
 H2160 H 0.04922 0.23038 0.77328
 C2161 C 0.08130 0.81615 0.28377
 C2162 C 0.09330 0.80283 0.29352
 C2163 C 0.08792 0.78324 0.29403
 C2164 C 0.07094 0.77698 0.28463
 C2165 C 0.05896 0.79054 0.27493
 C2166 C 0.06424 0.81010 0.27466
 C2167 C 0.04194 0.78432 0.26561
 C2168 C 0.03689 0.76465 0.26562
 C2169 C 0.04891 0.75127 0.27523
 C2170 C 0.06578 0.75737 0.28468
 H2171 H 0.09715 0.77281 0.30134
 H2172 H 0.05523 0.82070 0.26733
 H2173 H 0.03270 0.79468 0.25820
 H2174 H 0.07475 0.74677 0.29204
 H2175 H 0.08500 0.83136 0.28332
 H2176 H 0.04508 0.73609 0.27562
 C2177 C 0.59410 0.73151 0.70426
 C2178 C 0.59726 0.71152 0.70648
 C2179 C 0.58362 0.70050 0.71679
 C2180 C 0.56694 0.70924 0.72463
 C2181 C 0.56393 0.72939 0.72247
 C2182 C 0.57763 0.74040 0.71230
 C2183 C 0.54722 0.73810 0.73040
 C2184 C 0.53347 0.72684 0.74028
 C2185 C 0.53645 0.70683 0.74212
 C2186 C 0.55312 0.69810 0.73445
 H2187 H 0.58572 0.68503 0.71836
 H2188 H 0.57555 0.75585 0.71046
 H2189 H 0.54481 0.75354 0.72882
 H2190 H 0.55517 0.68263 0.73616
 H2191 H 0.60447 0.74031 0.69647
 H2192 H 0.52595 0.69801 0.74972
 C2193 C 0.58328 0.21000 0.18480
 C2194 C 0.59611 0.20148 0.19814
 C2195 C 0.59133 0.20171 0.21788
 C2196 C 0.57419 0.21098 0.22425
 C2197 C 0.56150 0.21963 0.21065
 C2198 C 0.56608 0.21888 0.19096
 C2199 C 0.54450 0.22904 0.21694
 C2200 C 0.54007 0.23016 0.23669
 C2201 C 0.55272 0.22155 0.25014
 C2202 C 0.56964 0.21201 0.24398
 H2203 H 0.60121 0.19529 0.22828
 H2204 H 0.55649 0.22537 0.18035
 H2205 H 0.53479 0.23570 0.20652
 H2206 H 0.57915 0.20549 0.25463
 H2207 H 0.58654 0.20979 0.16949
 H2208 H 0.54936 0.22204 0.26542
 C2209 C 0.08177 0.68343 0.21668
 C2210 C 0.09376 0.69662 0.20689
 C2211 C 0.08831 0.71623 0.20621
 C2212 C 0.07121 0.72265 0.21536
 C2213 C 0.05915 0.70923 0.22505
 C2214 C 0.06455 0.68965 0.22557
 C2215 C 0.04197 0.71566 0.23408
 C2216 C 0.03690 0.73538 0.23382
 C2217 C 0.04901 0.74858 0.22424
 C2218 C 0.06601 0.74228 0.21506
 H2219 H 0.09755 0.72658 0.19892
 H2220 H 0.05551 0.67916 0.23290
 H2221 H 0.03266 0.70544 0.24148
 H2222 H 0.07506 0.75275 0.20771
 H2223 H 0.08557 0.66822 0.21728
 H2224 H 0.04517 0.76380 0.22368
 C2225 C 0.08209 0.18371 0.71125
 C2226 C 0.09490 0.19735 0.70331
 C2227 C 0.09014 0.21714 0.70434
 C2228 C 0.07293 0.22324 0.71359
 C2229 C 0.06010 0.20932 0.72141
 C2230 C 0.06477 0.18961 0.72008
 C2231 C 0.04287 0.21533 0.73056
 C2232 C 0.03846 0.23509 0.73238
 C2233 C 0.05130 0.24887 0.72477
 C2234 C 0.06838 0.24300 0.71536
 H2235 H 0.10005 0.22777 0.69842
 H2236 H 0.05512 0.17877 0.72600
 H2237 H 0.03296 0.20470 0.73649
 H2238 H 0.07804 0.25388 0.70953
 H2239 H 0.08537 0.16838 0.71050
 H2240 H 0.04798 0.26417 0.72596
 C2241 C 0.40094 0.73256 0.29434
 C2242 C 0.39865 0.71263 0.29075
 C2243 C 0.41290 0.70279 0.27983
 C2244 C 0.42958 0.71264 0.27330
 C2245 C 0.43189 0.73252 0.27765
 C2246 C 0.41738 0.74237 0.28793
 C2247 C 0.44875 0.74225 0.27185
 C2248 C 0.46327 0.73257 0.26128
 C2249 C 0.46089 0.71283 0.25689
 C2250 C 0.44418 0.70294 0.26284
 H2251 H 0.41135 0.68745 0.27693
 H2252 H 0.41882 0.75766 0.29117
 H2253 H 0.45068 0.75735 0.27567
 H2254 H 0.44273 0.68772 0.25934
 H2255 H 0.39004 0.74070 0.30226
 H2256 H 0.47198 0.70509 0.24880
 C2257 C 0.41963 0.21764 0.81756
 C2258 C 0.40713 0.20822 0.80452
 C2259 C 0.41198 0.20780 0.78480
 C2260 C 0.42907 0.21660 0.77817
 C2261 C 0.44170 0.22579 0.79143
 C2262 C 0.43681 0.22627 0.81109
 C2263 C 0.45898 0.23431 0.78481
 C2264 C 0.46356 0.23403 0.76505
 C2265 C 0.45089 0.22498 0.75198
 C2266 C 0.43379 0.21632 0.75847
 H2267 H 0.40237 0.20078 0.77456
 H2268 H 0.44628 0.23326 0.82146
 H2269 H 0.46878 0.24128 0.79490
 H2270 H 0.42429 0.20934 0.74810
 H2271 H 0.41634 0.21803 0.83285
 H2272 H 0.45438 0.22446 0.73672
 C2273 C 0.90496 0.73308 0.80111
 C2274 C 0.90120 0.71363 0.79642
 C2275 C 0.91426 0.70366 0.78425
 C2276 C 0.93090 0.71283 0.77705
 C2277 C 0.93460 0.73236 0.78192
 C2278 C 0.92147 0.74238 0.79387
 C2279 C 0.95148 0.74139 0.77498
 C2280 C 0.96472 0.73105 0.76334
 C2281 C 0.96087 0.71170 0.75854
 C2282 C 0.94406 0.70267 0.76526
 H2283 H 0.91178 0.68861 0.78064
 H2284 H 0.92404 0.75738 0.79771
 H2285 H 0.95453 0.75628 0.77886
 H2286 H 0.94143 0.68771 0.76137
 H2287 H 0.89509 0.74120 0.81029
 H2288 H 0.97094 0.70358 0.74955
 C2289 C 0.91757 0.18309 0.28140
 C2290 C 0.90514 0.19675 0.29021
 C2291 C 0.91017 0.21645 0.28967
 C2292 C 0.92733 0.22243 0.28043
 C2293 C 0.93977 0.20851 0.27177
 C2294 C 0.93474 0.18890 0.27234
 C2295 C 0.95704 0.21444 0.26273
 C2296 C 0.96192 0.23413 0.26201
 C2297 C 0.94946 0.24787 0.27058
 C2298 C 0.93231 0.24208 0.27972
 H2299 H 0.90066 0.22718 0.29622
 H2300 H 0.94410 0.17804 0.26579
 H2301 H 0.96664 0.20380 0.25614
 H2302 H 0.92298 0.25296 0.28630
 H2303 H 0.91421 0.16780 0.28173
 H2304 H 0.95315 0.26310 0.27037
 C2305 C 0.29317 0.27036 0.59341
 C2306 C 0.28990 0.29013 0.59705
 C2307 C 0.27846 0.30097 0.58414
 C2308 C 0.27084 0.29225 0.56746
 C2309 C 0.27437 0.27237 0.56391
 C2310 C 0.28538 0.26152 0.57704
 C2311 C 0.26714 0.26373 0.54710
 C2312 C 0.25654 0.27469 0.53368
 C2313 C 0.25312 0.29443 0.53720
 C2314 C 0.26011 0.30314 0.55406
 H2315 H 0.27601 0.31627 0.58672
 H2316 H 0.28817 0.24626 0.57453
 H2317 H 0.27005 0.24854 0.54423
 H2318 H 0.25731 0.31840 0.55651
 H2319 H 0.30172 0.26166 0.60327
 H2320 H 0.24500 0.30305 0.52691
 C2321 C 0.30900 0.78483 0.07964
 C2322 C 0.29685 0.79597 0.09171
 C2323 C 0.27725 0.79872 0.08659
 C2324 C 0.26982 0.79039 0.06969
 C2325 C 0.28219 0.77930 0.05757
 C2326 C 0.30175 0.77662 0.06267
 C2327 C 0.27474 0.77105 0.04062
 C2328 C 0.25505 0.77357 0.03581
 C2329 C 0.24288 0.78459 0.04791
 C2330 C 0.25020 0.79293 0.06474
 H2331 H 0.26765 0.80703 0.09590
 H2332 H 0.31143 0.76816 0.05356
 H2333 H 0.28412 0.76251 0.03126
 H2334 H 0.24053 0.80138 0.07387
 H2335 H 0.32420 0.78260 0.08320
 H2336 H 0.22770 0.78681 0.04422
 C2337 C 0.78442 0.30998 0.07852
 C2338 C 0.79490 0.29753 0.09078
 C2339 C 0.79772 0.27811 0.08524
 C2340 C 0.78994 0.27118 0.06777
 C2341 C 0.77949 0.28391 0.05556
 C2342 C 0.77685 0.30327 0.06105
 C2343 C 0.77176 0.27706 0.03810
 C2344 C 0.77405 0.25758 0.03279
 C2345 C 0.78440 0.24498 0.04498
 C2346 C 0.79230 0.25173 0.06234
 H2347 H 0.80563 0.26833 0.09463
 H2348 H 0.76889 0.31321 0.05187
 H2349 H 0.76370 0.28678 0.02874
 H2350 H 0.80021 0.24174 0.07151
 H2351 H 0.78223 0.32505 0.08229
 H2352 H 0.78641 0.22993 0.04100
 C2353 C 0.80987 0.78533 0.57985
 C2354 C 0.79703 0.79406 0.59315
 C2355 C 0.77700 0.79468 0.58890
 C2356 C 0.76992 0.78655 0.57166
 C2357 C 0.78305 0.77784 0.55845
 C2358 C 0.80297 0.77737 0.56266
 C2359 C 0.77606 0.76974 0.54123
 C2360 C 0.75609 0.77008 0.53704
 C2361 C 0.74311 0.77881 0.55015
 C2362 C 0.74996 0.78695 0.56735
 H2363 H 0.76691 0.80123 0.59906
 H2364 H 0.81324 0.77087 0.55264
 H2365 H 0.78612 0.76304 0.53111
 H2366 H 0.73967 0.79363 0.57723
 H2367 H 0.82538 0.78482 0.58256
 H2368 H 0.72768 0.77947 0.54696
 C2369 C 0.29161 0.73182 0.40361
 C2370 C 0.29029 0.71161 0.40155
 C2371 C 0.28046 0.70087 0.41571
 C2372 C 0.27243 0.71013 0.43193
 C2373 C 0.27398 0.73045 0.43391
 C2374 C 0.28346 0.74117 0.41960
 C2375 C 0.26638 0.73965 0.45035
 C2376 C 0.25743 0.72875 0.46490
 C2377 C 0.25588 0.70860 0.46283
 C2378 C 0.26322 0.69935 0.44640
 H2379 H 0.27950 0.68527 0.41442
 H2380 H 0.28476 0.75675 0.42088
 H2381 H 0.26780 0.75519 0.45209
 H2382 H 0.26193 0.68377 0.44514
 H2383 H 0.29889 0.74049 0.39281
 H2384 H 0.24904 0.70005 0.47401
 C2385 C 0.28002 0.18413 0.91987
 C2386 C 0.29074 0.19684 0.90820
 C2387 C 0.29243 0.21635 0.91370
 C2388 C 0.28362 0.22309 0.93074
 C2389 C 0.27327 0.21008 0.94265
 C2390 C 0.27148 0.19066 0.93703
 C2391 C 0.26492 0.21673 0.95996
 C2392 C 0.26642 0.23629 0.96521
 C2393 C 0.27638 0.24919 0.95316
 C2394 C 0.28502 0.24263 0.93608
 H2395 H 0.30043 0.22632 0.90465
 H2396 H 0.26352 0.18051 0.94593
 H2397 H 0.25711 0.20682 0.96926
 H2398 H 0.29281 0.25281 0.92708
 H2399 H 0.27863 0.16901 0.91595
 H2400 H 0.27762 0.26432 0.95712
 C2401 C 0.77993 0.68324 0.91752
 C2402 C 0.78878 0.69710 0.90559
 C2403 C 0.78838 0.71668 0.91118
 C2404 C 0.77910 0.72235 0.92839
 C2405 C 0.77036 0.70823 0.94031
 C2406 C 0.77088 0.68873 0.93475
 C2407 C 0.76124 0.71383 0.95759
 C2408 C 0.76051 0.73341 0.96299
 C2409 C 0.76913 0.74737 0.95104
 C2410 C 0.77837 0.74190 0.93388
 H2411 H 0.79499 0.72753 0.90203
 H2412 H 0.76426 0.67773 0.94372
 H2413 H 0.75458 0.70304 0.96679
 H2414 H 0.78499 0.75292 0.92495
 H2415 H 0.78022 0.66804 0.91369
 H2416 H 0.76889 0.76252 0.95515
 C2417 C 0.79834 0.23291 0.40421
 C2418 C 0.79552 0.21286 0.40219
 C2419 C 0.78550 0.20283 0.41679
 C2420 C 0.77867 0.21262 0.43328
 C2421 C 0.78165 0.23278 0.43513
 C2422 C 0.79141 0.24279 0.42047
 C2423 C 0.77499 0.24256 0.45168
 C2424 C 0.76547 0.23243 0.46648
 C2425 C 0.76268 0.21239 0.46460
 C2426 C 0.76914 0.20257 0.44809
 H2427 H 0.78339 0.18734 0.41557
 H2428 H 0.79379 0.25825 0.42165
 H2429 H 0.77740 0.25799 0.45320
 H2430 H 0.76677 0.18711 0.44696
 H2431 H 0.80581 0.24105 0.39314
 H2432 H 0.75536 0.20438 0.47589
 C2433 C 0.72492 0.31586 0.41735
 C2434 C 0.71320 0.30320 0.40653
 C2435 C 0.71067 0.28409 0.41304
 C2436 C 0.71962 0.27775 0.43015
 C2437 C 0.73114 0.29072 0.44103
 C2438 C 0.73376 0.30970 0.43445
 C2439 C 0.73979 0.28451 0.45832
 C2440 C 0.73727 0.26542 0.46476
 C2441 C 0.72593 0.25259 0.45380
 C2442 C 0.71718 0.25869 0.43663
 H2443 H 0.70189 0.27407 0.40476
 H2444 H 0.74258 0.31981 0.44258
 H2445 H 0.74859 0.29443 0.46674
 H2446 H 0.70842 0.24854 0.42848
 H2447 H 0.72702 0.33068 0.41281
 H2448 H 0.72370 0.23787 0.45866
 C2449 C 0.71034 0.81320 0.92080
 C2450 C 0.70130 0.80009 0.90814
 C2451 C 0.70044 0.78042 0.91312
 C2452 C 0.70899 0.77383 0.93032
 C2453 C 0.71807 0.78716 0.94296
 C2454 C 0.71852 0.80683 0.93813
 C2455 C 0.72679 0.78054 0.96006
 C2456 C 0.72691 0.76073 0.96444
 C2457 C 0.71785 0.74760 0.95185
 C2458 C 0.70889 0.75409 0.93496
 H2459 H 0.69367 0.77018 0.90335
 H2460 H 0.72539 0.81724 0.94763
 H2461 H 0.73383 0.79068 0.96976
 H2462 H 0.70203 0.74367 0.92546
 H2463 H 0.71099 0.82847 0.91736
 H2464 H 0.71769 0.73228 0.95516
 C2465 C 0.21661 0.31448 0.91985
 C2466 C 0.20743 0.30106 0.90760
 C2467 C 0.20665 0.28151 0.91316
 C2468 C 0.21524 0.27541 0.93057
 C2469 C 0.22436 0.28910 0.94278
 C2470 C 0.22490 0.30859 0.93730
 C2471 C 0.23294 0.28306 0.96017
 C2472 C 0.23287 0.26344 0.96537
 C2473 C 0.22383 0.24991 0.95317
 C2474 C 0.21503 0.25584 0.93595
 H2475 H 0.19975 0.27099 0.90378
 H2476 H 0.23183 0.31927 0.94645
 H2477 H 0.23998 0.29352 0.96952
 H2478 H 0.20817 0.24512 0.92679
 H2479 H 0.21721 0.32966 0.91608
 H2480 H 0.22354 0.23473 0.95706
 C2481 C 0.21296 0.81132 0.41930
 C2482 C 0.20312 0.79833 0.40710
 C2483 C 0.20116 0.77890 0.41273
 C2484 C 0.20945 0.77243 0.43014
 C2485 C 0.21940 0.78566 0.44221
 C2486 C 0.22093 0.80507 0.43673
 C2487 C 0.22788 0.77924 0.45945
 C2488 C 0.22686 0.75969 0.46472
 C2489 C 0.21689 0.74660 0.45277
 C2490 C 0.20822 0.75292 0.43561
 H2491 H 0.19374 0.76876 0.40334
 H2492 H 0.22846 0.81540 0.44582
 H2493 H 0.23561 0.78935 0.46864
 H2494 H 0.20068 0.74255 0.42658
 H2495 H 0.21444 0.82641 0.41542
 H2496 H 0.21581 0.73149 0.45675
 C2497 C 0.73126 0.70477 0.59691
 C2498 C 0.71106 0.70662 0.59981
 C2499 C 0.69980 0.71626 0.58585
 C2500 C 0.70846 0.72390 0.56923
 C2501 C 0.72879 0.72206 0.56646
 C2502 C 0.74006 0.71248 0.58040
 C2503 C 0.73739 0.72973 0.54975
 C2504 C 0.72584 0.73908 0.53581
 C2505 C 0.70568 0.74068 0.53866
 C2506 C 0.69706 0.73325 0.55528
 H2507 H 0.68419 0.71760 0.58766
 H2508 H 0.75566 0.71092 0.57853
 H2509 H 0.75296 0.72832 0.54746
 H2510 H 0.68146 0.73477 0.55720
 H2511 H 0.74032 0.69755 0.60749
 H2512 H 0.69664 0.74789 0.52804
 C2513 C 0.70964 0.22912 0.09282
 C2514 C 0.71255 0.20918 0.09569
 C2515 C 0.72333 0.19852 0.08203
 C2516 C 0.73072 0.20757 0.06546
 C2517 C 0.72770 0.22766 0.06272
 C2518 C 0.71727 0.23831 0.07656
 C2519 C 0.73489 0.23667 0.04605
 C2520 C 0.74483 0.22579 0.03197
 C2521 C 0.74763 0.20585 0.03470
 C2522 C 0.74076 0.19682 0.05138
 H2523 H 0.72547 0.18309 0.08400
 H2524 H 0.71483 0.25371 0.07471
 H2525 H 0.73251 0.25203 0.04383
 H2526 H 0.74313 0.18141 0.05319
 H2527 H 0.70155 0.23768 0.10324
 H2528 H 0.75523 0.19731 0.02390
 C2529 C 0.22853 0.70876 0.09610
 C2530 C 0.20849 0.71101 0.09972
 C2531 C 0.19713 0.72208 0.08694
 C2532 C 0.20555 0.73023 0.07038
 C2533 C 0.22568 0.72767 0.06677
 C2534 C 0.23707 0.71712 0.07985
 C2535 C 0.23398 0.73532 0.04994
 C2536 C 0.22238 0.74533 0.03655
 C2537 C 0.20243 0.74787 0.04025
 C2538 C 0.19409 0.74050 0.05710
 H2539 H 0.18164 0.72376 0.08949
 H2540 H 0.25253 0.71508 0.07735
 H2541 H 0.24935 0.73311 0.04699
 H2542 H 0.17864 0.74258 0.05959
 H2543 H 0.23765 0.70052 0.10585
 H2544 H 0.19332 0.75555 0.03003
 C2545 C 0.21848 0.18923 0.57983
 C2546 C 0.20714 0.20156 0.59156
 C2547 C 0.20392 0.22076 0.58564
 C2548 C 0.21223 0.22764 0.56841
 C2549 C 0.22366 0.21508 0.55681
 C2550 C 0.22662 0.19590 0.56263
 C2551 C 0.23203 0.22192 0.53964
 C2552 C 0.22932 0.24124 0.53398
 C2553 C 0.21789 0.25361 0.54554
 C2554 C 0.20943 0.24689 0.56261
 H2555 H 0.19532 0.23045 0.59459
 H2556 H 0.23529 0.18606 0.55391
 H2557 H 0.24088 0.21233 0.53080
 H2558 H 0.20073 0.25674 0.57128
 H2559 H 0.22098 0.17429 0.58384
 H2560 H 0.21544 0.26850 0.54127
   
