data_POSCAR
  _audit_creation_date              2014-09-24
  _audit_creation_method            'ToBaCCo'
  _symmetry_space_group_name_H-M    'P1'
  _symmetry_Int_Tables_number       1
  _symmetry_cell_setting            triclinic
  loop_
  _symmetry_equiv_pos_as_xyz
 x,y,z
_cell_length_a 47.5223
_cell_length_b 48.3859
_cell_length_c 57.4245
_cell_angle_alpha 92.106500
_cell_angle_beta 90.734800
_cell_angle_gamma 89.517200
loop_
  _atom_site_label
  _atom_site_type_symbol
  _atom_site_fract_x
  _atom_site_fract_y
  _atom_site_fract_z
C1 C 1.22971 0.27999 0.29174
 H2 H 1.23458 0.25810 0.29152
 C3 C 1.21629 0.29237 0.31096
 H4 H 1.21125 0.27973 0.32547
 C5 C 1.23208 0.32299 0.27351
 H6 H 1.23866 0.33494 0.25905
 C7 C 1.21821 0.33618 0.29224
 H8 H 1.21368 0.35809 0.29157
 N9 N 1.23734 0.29532 0.27353
 C10 C 1.24471 0.24073 0.21177
 H11 H 1.26623 0.24494 0.20722
 C12 C 1.22849 0.22293 0.19753
 H13 H 1.23767 0.21389 0.18184
 C14 C 1.20659 0.24825 0.23748
 H15 H 1.19817 0.25820 0.25307
 C16 C 1.18964 0.23039 0.22380
 H17 H 1.16836 0.22653 0.22926
 Zn18 Zn 1.25770 0.27633 0.24957
 N19 N 1.23367 0.25283 0.23138
 C20 C 1.28508 0.22669 0.26212
 N21 N 1.28541 0.25466 0.26468
 C22 C 1.30362 0.26751 0.27979
 C23 C 1.32232 0.25217 0.29326
 C24 C 1.30321 0.21045 0.27531
 C25 C 1.25756 0.31687 0.21550
 C26 C 1.26912 0.33382 0.19892
 C27 C 1.31540 0.31814 0.21054
 C28 C 1.30300 0.30158 0.22690
 N29 N 1.27454 0.30121 0.22911
 H30 H 1.26989 0.21674 0.25051
 H31 H 1.30336 0.28985 0.28162
 H32 H 1.33689 0.26387 0.30418
 H33 H 1.30035 0.18840 0.27333
 H34 H 1.23496 0.31574 0.21720
 H35 H 1.25523 0.34568 0.18794
 H36 H 1.33810 0.31812 0.20913
 H37 H 1.31617 0.28859 0.23745
 C38 C 1.20057 0.21735 0.20352
 C39 C 1.21021 0.32088 0.31144
 C40 C 1.29842 0.33436 0.19610
 C41 C 1.32226 0.22280 0.29180
 C42 C 0.74219 -0.24981 0.28850
 H43 H 0.74599 -0.27181 0.28951
 C44 C 0.72605 -0.23595 0.30545
 H45 H 0.71773 -0.24755 0.31954
 C46 C 0.75007 -0.20794 0.26958
 H47 H 0.75996 -0.19693 0.25593
 C48 C 0.73369 -0.19333 0.28594
 H49 H 0.73054 -0.17134 0.28410
 N50 N 0.75384 -0.23572 0.27104
 C51 C 0.77074 -0.29616 0.21455
 H52 H 0.79325 -0.29384 0.21296
 C53 C 0.75626 -0.31449 0.19948
 H54 H 0.76795 -0.32659 0.18660
 C55 C 0.72838 -0.28317 0.23348
 H56 H 0.71755 -0.27060 0.24652
 C57 C 0.71302 -0.30110 0.21864
 H58 H 0.69040 -0.30194 0.22040
 Zn59 Zn 0.77772 -0.25606 0.25046
 N60 N 0.75674 -0.28118 0.23128
 C61 C 0.80815 -0.30269 0.26677
 N62 N 0.80382 -0.27495 0.26930
 C63 C 0.81680 -0.25975 0.28661
 C64 C 0.83451 -0.27250 0.30260
 C65 C 0.82608 -0.31622 0.28212
 C66 C 0.78142 -0.21723 0.21569
 C67 C 0.79472 -0.19996 0.20039
 C68 C 0.83964 -0.21524 0.21559
 C69 C 0.82545 -0.23182 0.23089
 N70 N 0.79685 -0.23239 0.23075
 H71 H 0.79741 -0.31450 0.25310
 H72 H 0.81268 -0.23775 0.28837
 H73 H 0.84362 -0.26010 0.31679
 H74 H 0.82939 -0.33828 0.27963
 H75 H 0.75870 -0.21849 0.21565
 H76 H 0.78191 -0.18753 0.18902
 H77 H 0.86241 -0.21573 0.21561
 H78 H 0.83734 -0.24462 0.24257
 C79 C 0.72695 -0.31712 0.20134
 C80 C 0.72160 -0.20727 0.30436
 C81 C 0.82428 -0.19890 0.20007
 C82 C 0.83915 -0.30121 0.30065
 C83 C 0.70797 0.23947 -0.21879
 H84 H 0.71109 0.21737 -0.21778
 C85 C 0.68971 0.25334 -0.20340
 H86 H 0.67907 0.24173 -0.19043
 C87 C 0.71934 0.28150 -0.23621
 H88 H 0.73126 0.29255 -0.24868
 C89 C 0.70107 0.29613 -0.22139
 H90 H 0.69871 0.31822 -0.22317
 N91 N 0.72232 0.25365 -0.23479
 C92 C 0.74406 0.19811 -0.29296
 H93 H 0.76655 0.20128 -0.29325
 C94 C 0.73094 0.18268 -0.31091
 H95 H 0.74357 0.17426 -0.32507
 C96 C 0.70023 0.20699 -0.27480
 H97 H 0.68831 0.21694 -0.26093
 C98 C 0.68627 0.19142 -0.29225
 H99 H 0.66370 0.18907 -0.29127
 Zn100 Zn 0.74792 0.23354 -0.25401
 N101 N 0.72860 0.21008 -0.27553
 C102 C 0.77346 0.18487 -0.23704
 N103 N 0.77138 0.21286 -0.23444
 C104 C 0.78533 0.22700 -0.21705
 C105 C 0.80249 0.21299 -0.20147
 C106 C 0.79035 0.17000 -0.22178
 C107 C 0.75627 0.27296 -0.28755
 C108 C 0.77141 0.28985 -0.30194
 C109 C 0.81435 0.27356 -0.28398
 C110 C 0.79826 0.25734 -0.26971
 N111 N 0.76976 0.25742 -0.27163
 H112 H 0.76177 0.17403 -0.25075
 H113 H 0.78307 0.24925 -0.21533
 H114 H 0.81370 0.22468 -0.18791
 H115 H 0.79139 0.14768 -0.22381
 H116 H 0.73361 0.27184 -0.28933
 H117 H 0.75945 0.30073 -0.31490
 H118 H 0.83683 0.27342 -0.28093
 H119 H 0.80870 0.24441 -0.25727
 C120 C 0.70159 0.17937 -0.31086
 C121 C 0.68613 0.28213 -0.20451
 C122 C 0.80122 0.29045 -0.30067
 C123 C 0.80506 0.18408 -0.20365
 C124 C 1.23854 -0.23131 -0.21177
 H125 H 1.24056 -0.25332 -0.20940
 C126 C 1.22034 -0.21552 -0.19771
 H127 H 1.20828 -0.22551 -0.18458
 C128 C 1.25262 -0.19138 -0.23114
 H129 H 1.26541 -0.18198 -0.24405
 C130 C 1.23495 -0.17475 -0.21722
 H131 H 1.23400 -0.15268 -0.21974
 N132 N 1.25394 -0.21917 -0.22835
 C133 C 1.27066 -0.28053 -0.28379
 H134 H 1.29239 -0.27580 -0.28715
 C135 C 1.25574 -0.29763 -0.29960
 H136 H 1.26636 -0.30598 -0.31490
 C137 C 1.22988 -0.27303 -0.26110
 H138 H 1.21945 -0.26284 -0.24659
 C139 C 1.21428 -0.29029 -0.27628
 H140 H 1.19230 -0.29367 -0.27268
 Zn141 Zn 1.27839 -0.24157 -0.24715
 N142 N 1.25759 -0.26841 -0.26505
 C143 C 1.32395 -0.27775 -0.23716
 N144 N 1.30572 -0.25866 -0.22785
 C145 C 1.30726 -0.25081 -0.20488
 C146 C 1.32729 -0.26261 -0.19025
 C147 C 1.34451 -0.28993 -0.22316
 C148 C 1.28019 -0.20906 -0.28597
 C149 C 1.29237 -0.19450 -0.30369
 C150 C 1.33791 -0.20148 -0.28549
 C151 C 1.32481 -0.21583 -0.26802
 N152 N 1.29647 -0.21953 -0.26872
 H153 H 1.32279 -0.28335 -0.25552
 H154 H 1.29312 -0.23519 -0.19781
 H155 H 1.32757 -0.25646 -0.17193
 H156 H 1.35903 -0.30479 -0.23100
 H157 H 1.25773 -0.21260 -0.28618
 H158 H 1.27913 -0.18696 -0.31761
 H159 H 1.36051 -0.19881 -0.28480
 H160 H 1.33732 -0.22433 -0.25412
 C161 C 1.22701 -0.30243 -0.29613
 C162 C 1.21840 -0.18687 -0.20038
 C163 C 1.32164 -0.19083 -0.30373
 C164 C 1.34632 -0.28246 -0.19931
 C165 C 0.25216 0.20592 0.71267
 H166 H 0.22941 0.20710 0.71256
 C167 C 0.26586 0.18811 0.69676
 H168 H 0.25334 0.17530 0.68483
 C169 C 0.29583 0.22090 0.72868
 H170 H 0.30752 0.23369 0.74114
 C171 C 0.31039 0.20370 0.71286
 H172 H 0.33316 0.20398 0.71315
 N173 N 0.26721 0.22186 0.72827
 C174 C 0.21206 0.23980 0.78752
 H175 H 0.21621 0.26149 0.79079
 C176 C 0.19535 0.22588 0.80300
 H177 H 0.18594 0.23780 0.81722
 C178 C 0.21977 0.19853 0.76515
 H179 H 0.23007 0.18755 0.75095
 C180 C 0.20266 0.18387 0.77987
 H181 H 0.20063 0.16183 0.77652
 Zn182 Zn 0.24827 0.24628 0.74972
 N183 N 0.22403 0.22608 0.76904
 C184 C 0.21261 0.29316 0.74545
 N185 N 0.22704 0.27310 0.73326
 C186 C 0.22672 0.27221 0.70954
 C187 C 0.21066 0.29120 0.69723
 C188 C 0.19624 0.31258 0.73384
 C189 C 0.28084 0.25579 0.79062
 C190 C 0.30103 0.26891 0.80485
 C191 C 0.31040 0.29976 0.77378
 C192 C 0.28978 0.28619 0.76020
 N193 N 0.27543 0.26472 0.76882
 H194 H 0.21390 0.29431 0.76422
 H195 H 0.23887 0.25677 0.69999
 H196 H 0.21020 0.28960 0.67838
 H197 H 0.18496 0.32836 0.74389
 H198 H 0.26960 0.23833 0.79697
 H199 H 0.30444 0.26182 0.82233
 H200 H 0.32187 0.31653 0.76645
 H201 H 0.28533 0.29262 0.74268
 C202 C 0.19032 0.19734 0.79946
 C203 C 0.29543 0.18694 0.69657
 C204 C 0.31621 0.29121 0.79651
 C205 C 0.19493 0.31162 0.70938
 C206 C 0.74298 0.71289 0.73736
 H207 H 0.72674 0.70526 0.74837
 C208 C 0.76059 0.69411 0.72531
 H209 H 0.75761 0.67215 0.72714
 C210 C 0.76733 0.75063 0.72220
 H211 H 0.76986 0.77275 0.72115
 C212 C 0.78544 0.73264 0.70998
 H213 H 0.80158 0.74115 0.69926
 N214 N 0.74645 0.74059 0.73541
 C215 C 0.70099 0.75715 0.79585
 H216 H 0.71585 0.77247 0.80221
 C217 C 0.68382 0.74443 0.81174
 H218 H 0.68592 0.75094 0.82988
 C219 C 0.67909 0.73261 0.76436
 H220 H 0.67748 0.72803 0.74581
 C221 C 0.66122 0.71948 0.77965
 H222 H 0.64668 0.70437 0.77229
 Zn223 Zn 0.72410 0.76745 0.75184
 N224 N 0.69898 0.75056 0.77269
 C225 C 0.68516 0.80889 0.73872
 N226 N 0.70261 0.78847 0.73043
 C227 C 0.70428 0.78237 0.70716
 C228 C 0.68857 0.79746 0.69121
 C229 C 0.66896 0.82448 0.72334
 C230 C 0.76718 0.77656 0.78417
 C231 C 0.78621 0.79121 0.79847
 C232 C 0.77061 0.83340 0.78095
 C233 C 0.75151 0.81792 0.76713
 N234 N 0.74983 0.79006 0.76930
 H235 H 0.68393 0.81315 0.75730
 H236 H 0.71763 0.76563 0.70085
 H237 H 0.69009 0.79207 0.67280
 H238 H 0.65557 0.84093 0.73026
 H239 H 0.76578 0.75434 0.78522
 H240 H 0.79953 0.78010 0.81045
 H241 H 0.77140 0.85562 0.77941
 H242 H 0.73797 0.82820 0.75485
 C243 C 0.66370 0.72474 0.80399
 C244 C 0.78220 0.70394 0.71138
 C245 C 0.78790 0.82003 0.79714
 C246 C 0.67068 0.81895 0.69919
 C247 C 0.75546 0.20890 0.21622
 H248 H 0.73366 0.21153 0.21102
 C249 C 0.77301 0.19143 0.20299
 H250 H 0.76449 0.18130 0.18737
 C251 C 0.79296 0.22018 0.24229
 H252 H 0.80075 0.23152 0.25755
 C253 C 0.81110 0.20239 0.22989
 H254 H 0.83251 0.19999 0.23617
 N255 N 0.76568 0.22314 0.23532
 C256 C 0.69811 0.23910 0.28475
 H257 H 0.70100 0.26082 0.28906
 C258 C 0.67909 0.22391 0.29743
 H259 H 0.66694 0.23432 0.31100
 C260 C 0.71124 0.19890 0.26263
 H261 H 0.72423 0.18892 0.24952
 C262 C 0.69240 0.18298 0.27477
 H263 H 0.69123 0.16097 0.27078
 Zn264 Zn 0.74118 0.24748 0.25236
 N265 N 0.71372 0.22650 0.26767
 C266 C 0.70465 0.29152 0.24082
 N267 N 0.72379 0.27301 0.23198
 C268 C 0.73193 0.27388 0.20939
 C269 C 0.72028 0.29334 0.19466
 C270 C 0.69288 0.31173 0.22682
 C271 C 0.77162 0.25531 0.29464
 C272 C 0.78734 0.27014 0.31154
 C273 C 0.78296 0.31057 0.28825
 C274 C 0.76755 0.29496 0.27176
 N275 N 0.76218 0.26787 0.27520
 H276 H 0.69905 0.29116 0.25896
 H277 H 0.74789 0.25985 0.20272
 H278 H 0.72665 0.29294 0.17663
 H279 H 0.67832 0.32662 0.23453
 H280 H 0.76709 0.23371 0.29690
 H281 H 0.79514 0.25965 0.32668
 H282 H 0.78655 0.33221 0.28528
 H283 H 0.76004 0.30452 0.25613
 C284 C 0.67616 0.19541 0.29255
 C285 C 0.80134 0.18789 0.20973
 C286 C 0.79325 0.29819 0.30843
 C287 C 0.70055 0.31281 0.20330
 C288 C 0.22776 0.67810 0.20948
 H289 H 0.20500 0.67902 0.20891
 C290 C 0.24209 0.66001 0.19421
 H291 H 0.23010 0.64669 0.18230
 C292 C 0.27082 0.69452 0.22570
 H293 H 0.28196 0.70824 0.23781
 C294 C 0.28601 0.67691 0.21060
 H295 H 0.30877 0.67757 0.21116
 N296 N 0.24221 0.69487 0.22487
 C297 C 0.18745 0.71514 0.28374
 H298 H 0.19191 0.73688 0.28648
 C299 C 0.17085 0.70178 0.29971
 H300 H 0.16255 0.71355 0.31451
 C301 C 0.19469 0.67307 0.26223
 H302 H 0.20436 0.66168 0.24794
 C303 C 0.17808 0.65894 0.27767
 H304 H 0.17474 0.63700 0.27460
 Zn305 Zn 0.22205 0.72015 0.24469
 N306 N 0.19879 0.70079 0.26528
 C307 C 0.18268 0.76322 0.23690
 N308 N 0.20011 0.74436 0.22625
 C309 C 0.20385 0.74411 0.20279
 C310 C 0.18993 0.76335 0.18916
 C311 C 0.16839 0.78291 0.22393
 C312 C 0.26001 0.73125 0.28195
 C313 C 0.27835 0.74731 0.29590
 C314 C 0.27171 0.78462 0.26956
 C315 C 0.25343 0.76784 0.25627
 N316 N 0.24778 0.74180 0.26272
 H317 H 0.18048 0.76363 0.25558
 H318 H 0.21830 0.72957 0.19459
 H319 H 0.19325 0.76272 0.17053
 H320 H 0.15526 0.79821 0.23285
 H321 H 0.25548 0.71026 0.28649
 H322 H 0.28818 0.73730 0.31043
 H323 H 0.27397 0.80557 0.26405
 H324 H 0.24348 0.77582 0.24085
 C325 C 0.16591 0.67327 0.29677
 C326 C 0.27166 0.65937 0.19449
 C327 C 0.28463 0.77486 0.29013
 C328 C 0.17218 0.78333 0.19974
 O329 O 1.06001 0.03560 0.02064
 O330 O 0.95471 -0.03118 0.01443
 O331 O 0.97317 0.05394 0.02007
 O332 O 1.04107 -0.04917 0.01564
 O333 O 0.95895 0.01495 0.03074
 O334 O 1.05564 -0.01160 0.03132
 O335 O 0.99360 -0.04541 0.02768
 O336 O 1.02051 0.04992 0.03317
 C337 C 1.04613 0.04771 0.03632
 C338 C 0.96797 -0.04317 0.02997
 C339 C 0.96150 0.04001 0.03502
 C340 C 1.05176 -0.03666 0.03290
 O341 O 1.06239 -0.02757 -0.01462
 O342 O 0.95313 0.03419 -0.01314
 O343 O 1.03831 0.05638 -0.01121
 O344 O 0.97687 -0.04978 -0.01844
 O345 O 0.96022 -0.01130 -0.02886
 O346 O 1.05620 0.01907 -0.02509
 O347 O 1.02417 -0.04295 -0.02934
 O348 O 0.99119 0.05054 -0.02513
 Co349 Co 1.05359 0.00375 0.00298
 Co350 Co 0.96168 0.00178 0.00092
 Co351 Co 1.00593 0.04793 0.00395
 Co352 Co 1.00872 -0.04207 -0.00080
 O353 O 1.00750 0.00286 0.00171
 C354 C 1.04968 -0.03934 -0.03133
 C355 C 0.96590 0.04635 -0.02852
 C356 C 1.05130 0.04392 -0.02722
 C357 C 0.96374 -0.03620 -0.03322
 O358 O 1.06447 0.52478 0.52370
 O359 O 0.93999 0.48161 0.53996
 O360 O 0.97992 0.54353 0.55139
 O361 O 1.01956 0.45306 0.53474
 O362 O 0.94015 0.53317 0.53567
 O363 O 1.03504 0.49318 0.54684
 O364 O 0.96810 0.44732 0.52849
 O365 O 1.02888 0.54253 0.54235
 C366 C 1.05489 0.54402 0.53777
 C367 C 0.94840 0.45697 0.54125
 C368 C 0.95392 0.54237 0.55287
 C369 C 1.03148 0.46810 0.55039
 O370 O 1.05608 0.47445 0.50886
 O371 O 0.94305 0.52506 0.49027
 O372 O 1.01606 0.55309 0.49689
 O373 O 0.97536 0.45674 0.48276
 O374 O 0.93696 0.47466 0.49548
 O375 O 1.03535 0.51440 0.48690
 O376 O 1.02264 0.46301 0.48719
 O377 O 0.96669 0.55838 0.50717
 Co378 Co 1.03358 0.50448 0.51691
 Co379 Co 0.94490 0.50368 0.51540
 Co380 Co 0.99738 0.54526 0.52356
 Co381 Co 0.99631 0.45876 0.50911
 O382 O 0.99107 0.50166 0.51561
 C383 C 1.04804 0.46072 0.49148
 C384 C 0.95199 0.54918 0.49022
 C385 C 1.02923 0.53854 0.48210
 C386 C 0.94963 0.45971 0.48094
 O387 O 0.55799 0.01687 0.49233
 O388 O 0.43205 -0.02624 0.50294
 O389 O 0.47235 0.03413 0.51755
 O390 O 0.51222 -0.05508 0.50118
 O391 O 0.43322 0.02544 0.50009
 O392 O 0.52710 -0.01500 0.51403
 O393 O 0.46095 -0.06059 0.49292
 O394 O 0.52154 0.03407 0.51007
 C395 C 0.54772 0.03582 0.50635
 C396 C 0.44060 -0.05080 0.50489
 C397 C 0.44628 0.03363 0.51803
 C398 C 0.52340 -0.04015 0.51732
 O399 O 0.54989 -0.03303 0.47694
 O400 O 0.43907 0.01879 0.45432
 O401 O 0.51063 0.04579 0.46462
 O402 O 0.47055 -0.05112 0.44761
 O403 O 0.43193 -0.03175 0.45841
 O404 O 0.53066 0.00745 0.45442
 O405 O 0.51790 -0.04465 0.45382
 O406 O 0.46107 0.05117 0.47372
 Co407 Co 0.52726 -0.00307 0.48421
 Co408 Co 0.43887 -0.00341 0.47915
 Co409 Co 0.49092 0.03718 0.49046
 Co410 Co 0.49028 -0.04908 0.47467
 O411 O 0.48486 -0.00610 0.48129
 C412 C 0.54291 -0.04707 0.45947
 C413 C 0.44746 0.04310 0.45584
 C414 C 0.52455 0.03175 0.44997
 C415 C 0.44495 -0.04769 0.44484
 O416 O 0.56426 0.53162 0.01097
 O417 O 0.44781 0.47985 0.00461
 O418 O 0.48098 0.53425 0.03183
 O419 O 0.53237 0.45479 0.02634
 O420 O 0.44962 0.52953 0.00544
 O421 O 0.56597 0.48060 0.01297
 O422 O 0.47991 0.46491 0.02830
 O423 O 0.53062 0.53719 0.03441
 C424 C 0.55620 0.53682 0.03121
 C425 C 0.45487 0.47119 0.02440
 C426 C 0.45574 0.53373 0.02647
 C427 C 0.55734 0.46279 0.02663
 O428 O 0.55528 0.47545 -0.03182
 O429 O 0.47627 0.52784 -0.03648
 O430 O 0.53195 0.55980 -0.00920
 O431 O 0.47582 0.44689 -0.01581
 O432 O 0.47212 0.47939 -0.03908
 O433 O 0.54733 0.52755 -0.03311
 O434 O 0.52749 0.44384 -0.01835
 O435 O 0.48148 0.55948 -0.01026
 Co436 Co 0.55323 0.50381 -0.00960
 Co437 Co 0.46522 0.50398 -0.01519
 Co438 Co 0.50632 0.54393 0.01053
 Co439 Co 0.50406 0.45752 0.00452
 O440 O 0.50770 0.50187 -0.00242
 C441 C 0.54578 0.45135 -0.03249
 C442 C 0.47759 0.55277 -0.03128
 C443 C 0.54142 0.55238 -0.02901
 C444 C 0.47141 0.45439 -0.03602
 C445 C 1.15033 0.16242 0.15914
 C446 C 1.13802 0.18563 0.17059
 C447 C 1.15419 0.20330 0.18509
 C448 C 1.18307 0.19815 0.18863
 C449 C 1.19525 0.17466 0.17752
 C450 C 1.17913 0.15711 0.16290
 C451 C 1.13345 0.14423 0.14286
 C452 C 1.13846 0.11551 0.14126
 C453 C 1.12352 0.09869 0.12518
 C454 C 1.10302 0.11013 0.11047
 C455 C 1.09758 0.13870 0.11236
 C456 C 1.11267 0.15556 0.12828
 C457 C 1.08799 0.09259 0.09264
 C458 C 1.05893 0.09601 0.08875
 C459 C 1.04514 0.08076 0.07094
 C460 C 1.06019 0.06199 0.05646
 C461 C 1.08910 0.05802 0.06074
 C462 C 1.10283 0.07308 0.07870
 H463 H 1.11582 0.19017 0.16836
 H464 H 1.14414 0.22131 0.19317
 H465 H 1.21730 0.16975 0.18012
 H466 H 1.18944 0.13966 0.15419
 H467 H 1.15390 0.10598 0.15250
 H468 H 1.12790 0.07668 0.12430
 H469 H 1.08220 0.14816 0.10101
 H470 H 1.10858 0.17761 0.12870
 H471 H 1.04691 0.11063 0.09941
 H472 H 1.02282 0.08419 0.06813
 H473 H 1.10121 0.04362 0.04993
 H474 H 1.12527 0.07015 0.08119
 C475 C 1.17834 0.65191 0.65160
 C476 C 1.20625 0.64407 0.65670
 C477 C 1.22190 0.65853 0.67388
 C478 C 1.21011 0.68133 0.68626
 C479 C 1.18217 0.68907 0.68119
 C480 C 1.16646 0.67446 0.66421
 C481 C 1.16160 0.63672 0.63326
 C482 C 1.14241 0.65093 0.61906
 C483 C 1.12584 0.63659 0.60247
 C484 C 1.12834 0.60777 0.59947
 C485 C 1.14792 0.59356 0.61321
 C486 C 1.16428 0.60786 0.63001
 C487 C 1.10985 0.59243 0.58266
 C488 C 1.12094 0.57178 0.56751
 C489 C 1.10320 0.55657 0.55234
 C490 C 1.07401 0.56148 0.55233
 C491 C 1.06301 0.58240 0.56726
 C492 C 1.08078 0.59785 0.58217
 H493 H 1.21618 0.62699 0.64719
 H494 H 1.24324 0.65179 0.67749
 H495 H 1.17250 0.70678 0.69005
 H496 H 1.14489 0.68081 0.66106
 H497 H 1.14024 0.67321 0.62069
 H498 H 1.11113 0.64804 0.59188
 H499 H 1.14999 0.57128 0.61142
 H500 H 1.17850 0.59618 0.64085
 H501 H 1.14332 0.56738 0.56744
 H502 H 1.11227 0.54056 0.54103
 H503 H 1.04060 0.58657 0.56768
 H504 H 1.07169 0.61350 0.59383
 C505 C 0.66006 0.13762 0.63078
 C506 C 0.68642 0.12830 0.63882
 C507 C 0.69966 0.14149 0.65799
 C508 C 0.68701 0.16449 0.66943
 C509 C 0.66061 0.17373 0.66142
 C510 C 0.64724 0.16036 0.64244
 C511 C 0.64585 0.12363 0.61043
 C512 C 0.62983 0.13901 0.59462
 C513 C 0.61526 0.12575 0.57620
 C514 C 0.61674 0.09691 0.57299
 C515 C 0.63336 0.08155 0.58829
 C516 C 0.64764 0.09475 0.60691
 C517 C 0.59973 0.08268 0.55456
 C518 C 0.61171 0.06201 0.53992
 C519 C 0.59503 0.04742 0.52354
 C520 C 0.56602 0.05294 0.52185
 C521 C 0.55420 0.07397 0.53621
 C522 C 0.57094 0.08884 0.55229
 H523 H 0.69705 0.11103 0.63013
 H524 H 0.71981 0.13358 0.66386
 H525 H 0.65041 0.19163 0.66954
 H526 H 0.62672 0.16780 0.63701
 H527 H 0.62851 0.16133 0.59646
 H528 H 0.60276 0.13802 0.56445
 H529 H 0.63450 0.05922 0.58631
 H530 H 0.65941 0.08221 0.61892
 H531 H 0.63392 0.05704 0.54132
 H532 H 0.60468 0.03128 0.51271
 H533 H 0.53189 0.07858 0.53535
 H534 H 0.56120 0.10452 0.56355
 C535 C 0.67956 0.62948 0.15379
 C536 C 0.67200 0.63243 0.17732
 C537 C 0.68759 0.64940 0.19281
 C538 C 0.71095 0.66402 0.18506
 C539 C 0.71861 0.66081 0.16152
 C540 C 0.70317 0.64364 0.14610
 C541 C 0.66225 0.61257 0.13710
 C542 C 0.67497 0.59461 0.12050
 C543 C 0.65855 0.57962 0.10415
 C544 C 0.62906 0.58249 0.10390
 C545 C 0.61641 0.60027 0.12073
 C546 C 0.63280 0.61501 0.13719
 C547 C 0.61151 0.56806 0.08563
 C548 C 0.58450 0.55857 0.09084
 C549 C 0.56684 0.54770 0.07323
 C550 C 0.57590 0.54574 0.05005
 C551 C 0.60337 0.55385 0.04495
 C552 C 0.62094 0.56505 0.06253
 H553 H 0.65407 0.62149 0.18375
 H554 H 0.68140 0.65096 0.21089
 H555 H 0.73615 0.67211 0.15484
 H556 H 0.70921 0.64206 0.12797
 H557 H 0.69763 0.59211 0.12023
 H558 H 0.66897 0.56579 0.09171
 H559 H 0.59385 0.60350 0.12078
 H560 H 0.62247 0.62903 0.14956
 H561 H 0.57680 0.55991 0.10851
 H562 H 0.54588 0.54122 0.07770
 H563 H 0.61090 0.55255 0.02722
 H564 H 0.64149 0.57236 0.05782
 C565 C 0.86750 -0.14917 0.15104
 C566 C 0.84145 -0.16130 0.14517
 C567 C 0.82752 -0.17739 0.16101
 C568 C 0.83898 -0.18139 0.18334
 C569 C 0.86478 -0.16882 0.18938
 C570 C 0.87896 -0.15310 0.17338
 C571 C 0.88274 -0.13284 0.13379
 C572 C 0.89889 -0.10971 0.14097
 C573 C 0.91315 -0.09449 0.12466
 C574 C 0.91112 -0.10179 0.10085
 C575 C 0.89506 -0.12478 0.09360
 C576 C 0.88125 -0.14030 0.10989
 C577 C 0.92556 -0.08550 0.08343
 C578 C 0.91051 -0.07582 0.06416
 C579 C 0.92423 -0.06142 0.04709
 C580 C 0.95335 -0.05690 0.04878
 C581 C 0.96837 -0.06629 0.06823
 C582 C 0.95450 -0.08028 0.08555
 H583 H 0.83167 -0.15833 0.12831
 H584 H 0.80795 -0.18704 0.15553
 H585 H 0.87406 -0.17102 0.20653
 H586 H 0.89912 -0.14440 0.17846
 H587 H 0.90017 -0.10305 0.15915
 H588 H 0.92531 -0.07668 0.13056
 H589 H 0.89355 -0.13096 0.07530
 H590 H 0.86967 -0.15834 0.10372
 H591 H 0.88812 -0.07949 0.06231
 H592 H 0.91216 -0.05437 0.03229
 H593 H 0.99083 -0.06297 0.06997
 H594 H 0.96648 -0.08768 0.10027
 C595 C 0.84783 0.33819 0.65354
 C596 C 0.81976 0.34492 0.65859
 C597 C 0.80436 0.32925 0.67377
 C598 C 0.81655 0.30625 0.68483
 C599 C 0.84520 0.30019 0.68000
 C600 C 0.86040 0.31575 0.66453
 C601 C 0.86373 0.35444 0.63671
 C602 C 0.89252 0.36002 0.64030
 C603 C 0.90713 0.37590 0.62466
 C604 C 0.89316 0.38674 0.60531
 C605 C 0.86458 0.38088 0.60151
 C606 C 0.85007 0.36477 0.61694
 C607 C 0.90797 0.40485 0.58940
 C608 C 0.89551 0.42992 0.58311
 C609 C 0.90893 0.44697 0.56775
 C610 C 0.93496 0.43912 0.55811
 C611 C 0.94758 0.41410 0.56452
 C612 C 0.93427 0.39719 0.58021
 H613 H 0.80968 0.36271 0.65105
 H614 H 0.78325 0.33644 0.67750
 H615 H 0.85589 0.28236 0.68679
 H616 H 0.88186 0.30963 0.66068
 H617 H 0.90361 0.35268 0.65548
 H618 H 0.92914 0.38036 0.62801
 H619 H 0.85349 0.38869 0.58649
 H620 H 0.82813 0.36030 0.61329
 H621 H 0.87539 0.43640 0.59019
 H622 H 0.89869 0.46613 0.56316
 H623 H 0.96770 0.40763 0.55744
 H624 H 0.94421 0.37788 0.58479
 C625 C 0.35884 -0.15181 0.63809
 C626 C 0.33434 -0.14077 0.64841
 C627 C 0.32256 -0.15314 0.66753
 C628 C 0.33506 -0.17679 0.67683
 C629 C 0.35987 -0.18754 0.66683
 C630 C 0.37163 -0.17519 0.64765
 C631 C 0.37075 -0.13911 0.61731
 C632 C 0.39999 -0.13626 0.61504
 C633 C 0.41105 -0.12355 0.59574
 C634 C 0.39309 -0.11339 0.57835
 C635 C 0.36390 -0.11672 0.58041
 C636 C 0.35286 -0.12946 0.59965
 C637 C 0.40461 -0.09831 0.55866
 C638 C 0.39156 -0.07381 0.55159
 C639 C 0.40295 -0.05875 0.53379
 C640 C 0.42760 -0.06792 0.52256
 C641 C 0.44040 -0.09273 0.52929
 C642 C 0.42906 -0.10773 0.54724
 H643 H 0.32433 -0.12244 0.64174
 H644 H 0.30368 -0.14416 0.67511
 H645 H 0.36974 -0.20597 0.67343
 H646 H 0.39033 -0.18436 0.63992
 H647 H 0.41429 -0.14321 0.62848
 H648 H 0.43361 -0.12093 0.59475
 H649 H 0.34960 -0.10947 0.56708
 H650 H 0.33029 -0.13188 0.60065
 H651 H 0.37291 -0.06586 0.56027
 H652 H 0.39262 -0.03969 0.52904
 H653 H 0.45949 -0.10025 0.52104
 H654 H 0.43941 -0.12668 0.55223
 C655 C 0.33757 0.38282 0.14397
 C656 C 0.31449 0.39355 0.15654
 C657 C 0.30148 0.37778 0.17328
 C658 C 0.31132 0.35097 0.17779
 C659 C 0.33391 0.34005 0.16475
 C660 C 0.34683 0.35574 0.14807
 C661 C 0.35271 0.39986 0.12716
 C662 C 0.38222 0.39875 0.12633
 C663 C 0.39679 0.41388 0.11025
 C664 C 0.38233 0.43076 0.09458
 C665 C 0.35279 0.43219 0.09550
 C666 C 0.33812 0.41697 0.11172
 C667 C 0.39842 0.44578 0.07697
 C668 C 0.38908 0.44666 0.05363
 C669 C 0.40667 0.45673 0.03647
 C670 C 0.43393 0.46572 0.04240
 C671 C 0.44238 0.46674 0.06592
 C672 C 0.42476 0.45712 0.08302
 H673 H 0.30700 0.41442 0.15390
 H674 H 0.28421 0.38682 0.18313
 H675 H 0.34155 0.31923 0.16737
 H676 H 0.36412 0.34660 0.13830
 H677 H 0.39415 0.38612 0.13818
 H678 H 0.41949 0.41186 0.10979
 H679 H 0.34105 0.44507 0.08374
 H680 H 0.31536 0.41816 0.11186
 H681 H 0.36890 0.43810 0.04840
 H682 H 0.39969 0.45582 0.01843
 H683 H 0.46310 0.47415 0.07100
 H684 H 0.43225 0.45758 0.10091
 C685 C 0.85487 0.13933 -0.15425
 C686 C 0.83832 0.16214 -0.14691
 C687 C 0.82224 0.17662 -0.16295
 C688 C 0.82242 0.16873 -0.18674
 C689 C 0.83912 0.14603 -0.19413
 C690 C 0.85521 0.13149 -0.17805
 C691 C 0.87147 0.12373 -0.13700
 C692 C 0.89894 0.11448 -0.14194
 C693 C 0.91471 0.10045 -0.12531
 C694 C 0.90328 0.09537 -0.10344
 C695 C 0.87571 0.10440 -0.09864
 C696 C 0.85998 0.11834 -0.11523
 C697 C 0.92008 0.08129 -0.08538
 C698 C 0.90726 0.06233 -0.07099
 C699 C 0.92236 0.05069 -0.05278
 C700 C 0.95066 0.05759 -0.04864
 C701 C 0.96385 0.07575 -0.06352
 C702 C 0.94867 0.08756 -0.08169
 H703 H 0.83791 0.16892 -0.12873
 H704 H 0.80934 0.19380 -0.15666
 H705 H 0.83990 0.13964 -0.21238
 H706 H 0.86760 0.11386 -0.18418
 H707 H 0.90842 0.11853 -0.15851
 H708 H 0.93581 0.09352 -0.12958
 H709 H 0.86643 0.10113 -0.08185
 H710 H 0.83874 0.12488 -0.11102
 H711 H 0.88545 0.05664 -0.07370
 H712 H 0.91176 0.03645 -0.04177
 H713 H 0.98568 0.08134 -0.06076
 H714 H 0.95907 0.10226 -0.09237
 C715 C 0.88661 0.65780 0.35394
 C716 C 0.89435 0.68427 0.34733
 C717 C 0.87945 0.69737 0.32963
 C718 C 0.85621 0.68441 0.31850
 C719 C 0.84864 0.65785 0.32523
 C720 C 0.86379 0.64464 0.34260
 C721 C 0.90141 0.64402 0.37315
 C722 C 0.90955 0.61618 0.37039
 C723 C 0.92023 0.60197 0.38928
 C724 C 0.92261 0.61518 0.41144
 C725 C 0.91583 0.64347 0.41391
 C726 C 0.90540 0.65781 0.39487
 C727 C 0.93012 0.59886 0.43203
 C728 C 0.94746 0.60974 0.45012
 C729 C 0.95416 0.59393 0.46941
 C730 C 0.94377 0.56694 0.47085
 C731 C 0.92613 0.55633 0.45292
 C732 C 0.91931 0.57211 0.43385
 H733 H 0.91199 0.69472 0.35578
 H734 H 0.88617 0.71762 0.32467
 H735 H 0.83049 0.64747 0.31756
 H736 H 0.85714 0.62440 0.34770
 H737 H 0.90705 0.60527 0.35369
 H738 H 0.92601 0.58039 0.38666
 H739 H 0.91729 0.65418 0.43076
 H740 H 0.89911 0.67926 0.39739
 H741 H 0.95618 0.63026 0.44917
 H742 H 0.96780 0.60263 0.48298
 H743 H 0.91763 0.53568 0.45352
 H744 H 0.90529 0.56337 0.42056
 C745 C 0.37050 0.17369 0.33743
 C746 C 0.36726 0.20219 0.34194
 C747 C 0.35188 0.21857 0.32668
 C748 C 0.33900 0.20710 0.30609
 C749 C 0.34361 0.17840 0.30140
 C750 C 0.35883 0.16211 0.31681
 C751 C 0.38501 0.15589 0.35458
 C752 C 0.40157 0.13311 0.34707
 C753 C 0.41360 0.11539 0.36321
 C754 C 0.40956 0.12019 0.38721
 C755 C 0.39368 0.14334 0.39477
 C756 C 0.38145 0.16092 0.37866
 C757 C 0.42074 0.10047 0.40429
 C758 C 0.43362 0.11006 0.42519
 C759 C 0.44277 0.09142 0.44179
 C760 C 0.43892 0.06284 0.43793
 C761 C 0.42646 0.05325 0.41686
 C762 C 0.41757 0.07186 0.40018
 H763 H 0.37634 0.21191 0.35754
 H764 H 0.34911 0.23992 0.33230
 H765 H 0.33631 0.16796 0.28556
 H766 H 0.36093 0.14018 0.31270
 H767 H 0.40522 0.12890 0.32871
 H768 H 0.42606 0.09788 0.35692
 H769 H 0.38990 0.14732 0.41315
 H770 H 0.36843 0.17794 0.38508
 H771 H 0.43657 0.13200 0.42869
 H772 H 0.45246 0.09942 0.45779
 H773 H 0.42336 0.03134 0.41332
 H774 H 0.40749 0.06390 0.38433
 C775 C 0.40430 0.67846 -0.15220
 C776 C 0.39818 0.70681 -0.14949
 C777 C 0.38008 0.71968 -0.16519
 C778 C 0.36743 0.70440 -0.18378
 C779 C 0.37423 0.67617 -0.18682
 C780 C 0.39254 0.66337 -0.17124
 C781 C 0.42120 0.66412 -0.13438
 C782 C 0.44159 0.64428 -0.14099
 C783 C 0.45509 0.62849 -0.12422
 C784 C 0.44822 0.63197 -0.10053
 C785 C 0.42878 0.65277 -0.09387
 C786 C 0.41549 0.66873 -0.11062
 C787 C 0.45900 0.61230 -0.08317
 C788 C 0.46497 0.62112 -0.06002
 C789 C 0.47165 0.60189 -0.04315
 C790 C 0.47262 0.57351 -0.04915
 C791 C 0.46790 0.56483 -0.07247
 C792 C 0.46109 0.58396 -0.08925
 H793 H 0.40722 0.71896 -0.13510
 H794 H 0.37582 0.74159 -0.16263
 H795 H 0.36459 0.66367 -0.20071
 H796 H 0.39659 0.64139 -0.17354
 H797 H 0.44666 0.64063 -0.15918
 H798 H 0.47041 0.61305 -0.12987
 H799 H 0.42267 0.65576 -0.07585
 H800 H 0.39965 0.68370 -0.10507
 H801 H 0.46400 0.64285 -0.05486
 H802 H 0.47555 0.60918 -0.02536
 H803 H 0.46868 0.54309 -0.07767
 H804 H 0.45625 0.57635 -0.10679
 C805 C 1.16395 -0.13822 -0.15545
 C806 C 1.15418 -0.16257 -0.16688
 C807 C 1.17182 -0.17825 -0.18157
 C808 C 1.19948 -0.16976 -0.18540
 C809 C 1.20912 -0.14513 -0.17448
 C810 C 1.19160 -0.12960 -0.15955
 C811 C 1.14569 -0.12237 -0.13878
 C812 C 1.14680 -0.09332 -0.13686
 C813 C 1.13038 -0.07864 -0.12051
 C814 C 1.11227 -0.09267 -0.10596
 C815 C 1.11079 -0.12161 -0.10809
 C816 C 1.12740 -0.13631 -0.12422
 C817 C 1.09561 -0.07741 -0.08800
 C818 C 1.06720 -0.08383 -0.08477
 C819 C 1.05200 -0.07083 -0.06676
 C820 C 1.06506 -0.05142 -0.05146
 C821 C 1.09327 -0.04448 -0.05505
 C822 C 1.10838 -0.05725 -0.07325
 H823 H 1.13284 -0.16952 -0.16453
 H824 H 1.16379 -0.19698 -0.19007
 H825 H 1.23048 -0.13831 -0.17698
 H826 H 1.20000 -0.11123 -0.15076
 H827 H 1.16027 -0.08189 -0.14806
 H828 H 1.13170 -0.05629 -0.11932
 H829 H 1.09732 -0.13295 -0.09680
 H830 H 1.12642 -0.15866 -0.12484
 H831 H 1.05682 -0.09910 -0.09608
 H832 H 1.03023 -0.07649 -0.06446
 H833 H 1.10378 -0.02945 -0.04360
 H834 H 1.13031 -0.05206 -0.07530
 C835 C 1.16731 0.36005 0.37023
 C836 C 1.16192 0.33237 0.36334
 C837 C 1.17563 0.31985 0.34429
 C838 C 1.19563 0.33441 0.33180
 C839 C 1.20151 0.36191 0.33900
 C840 C 1.18742 0.37460 0.35786
 C841 C 1.15122 0.37386 0.38963
 C842 C 1.16364 0.39419 0.40455
 C843 C 1.14790 0.40789 0.42200
 C844 C 1.11941 0.40146 0.42506
 C845 C 1.10733 0.38052 0.41063
 C846 C 1.12288 0.36715 0.39306
 C847 C 1.10177 0.41711 0.44242
 C848 C 1.07351 0.42309 0.43699
 C849 C 1.05638 0.43705 0.45309
 C850 C 1.06705 0.44591 0.47499
 C851 C 1.09543 0.44060 0.48045
 C852 C 1.11264 0.42621 0.46432
 H853 H 1.14700 0.32025 0.37263
 H854 H 1.17014 0.29882 0.33918
 H855 H 1.21711 0.37369 0.33015
 H856 H 1.19195 0.39602 0.36241
 H857 H 1.18553 0.39962 0.40272
 H858 H 1.15786 0.42399 0.43270
 H859 H 1.08565 0.37453 0.41275
 H860 H 1.11235 0.35196 0.38181
 H861 H 1.06455 0.41722 0.42012
 H862 H 1.03468 0.44114 0.44822
 H863 H 1.10417 0.44726 0.49722
 H864 H 1.13427 0.42182 0.46914
 C865 C 0.67187 -0.16242 0.35593
 C866 C 0.69518 -0.15000 0.34584
 C867 C 0.71150 -0.16464 0.32942
 C868 C 0.70470 -0.19195 0.32237
 C869 C 0.68153 -0.20444 0.33261
 C870 C 0.66549 -0.18996 0.34930
 C871 C 0.65371 -0.14642 0.37262
 C872 C 0.62447 -0.15055 0.37254
 C873 C 0.60717 -0.13488 0.38746
 C874 C 0.61852 -0.11425 0.40262
 C875 C 0.64781 -0.11038 0.40303
 C876 C 0.66521 -0.12638 0.38829
 C877 C 0.59965 -0.09643 0.41734
 C878 C 0.60780 -0.08720 0.43996
 C879 C 0.58961 -0.07072 0.45367
 C880 C 0.56287 -0.06349 0.44510
 C881 C 0.55483 -0.07248 0.42250
 C882 C 0.57307 -0.08852 0.40872
 H883 H 0.70057 -0.12874 0.35025
 H884 H 0.72950 -0.15448 0.32230
 H885 H 0.67541 -0.22530 0.32748
 H886 H 0.64802 -0.20040 0.35696
 H887 H 0.61473 -0.16548 0.36055
 H888 H 0.58479 -0.13888 0.38700
 H889 H 0.65728 -0.09457 0.41434
 H890 H 0.68768 -0.12294 0.38915
 H891 H 0.62799 -0.09312 0.44725
 H892 H 0.59620 -0.06409 0.47110
 H893 H 0.53442 -0.06696 0.41536
 H894 H 0.56634 -0.09453 0.39119
 C895 C 0.63270 0.32773 -0.15638
 C896 C 0.62525 0.30098 -0.16433
 C897 C 0.64246 0.28613 -0.18004
 C898 C 0.66763 0.29765 -0.18782
 C899 C 0.67517 0.32427 -0.17943
 C900 C 0.65784 0.33916 -0.16403
 C901 C 0.61472 0.34391 -0.13995
 C902 C 0.60886 0.37182 -0.14391
 C903 C 0.59482 0.38822 -0.12725
 C904 C 0.58658 0.37715 -0.10612
 C905 C 0.59105 0.34882 -0.10268
 C906 C 0.60496 0.33229 -0.11952
 C907 C 0.57556 0.39574 -0.08717
 C908 C 0.55342 0.38776 -0.07291
 C909 C 0.54367 0.40566 -0.05496
 C910 C 0.55595 0.43179 -0.05100
 C911 C 0.57820 0.43953 -0.06520
 C912 C 0.58790 0.42174 -0.08296
 H913 H 0.60589 0.29180 -0.15871
 H914 H 0.63584 0.26583 -0.18634
 H915 H 0.69472 0.33352 -0.18449
 H916 H 0.66433 0.35955 -0.15777
 H917 H 0.61571 0.38110 -0.15973
 H918 H 0.59104 0.40980 -0.13065
 H919 H 0.58506 0.33975 -0.08654
 H920 H 0.60932 0.31081 -0.11608
 H921 H 0.54346 0.36787 -0.07581
 H922 H 0.52646 0.39914 -0.04434
 H923 H 0.58832 0.45939 -0.06254
 H924 H 0.60544 0.42825 -0.09323
 C925 C 1.14280 0.15226 -0.15240
 C926 C 1.15767 0.17607 -0.14506
 C927 C 1.17277 0.19113 -0.16090
 C928 C 1.17408 0.18257 -0.18464
 C929 C 1.15912 0.15860 -0.19189
 C930 C 1.14353 0.14389 -0.17607
 C931 C 1.12713 0.13604 -0.13529
 C932 C 1.12553 0.10705 -0.13776
 C933 C 1.11172 0.09179 -0.12123
 C934 C 1.09955 0.10503 -0.10154
 C935 C 1.10089 0.13403 -0.09923
 C936 C 1.11423 0.14932 -0.11597
 C937 C 1.08626 0.08871 -0.08317
 C938 C 1.06323 0.09950 -0.07050
 C939 C 1.05189 0.08491 -0.05234
 C940 C 1.06287 0.05894 -0.04677
 C941 C 1.08527 0.04769 -0.05980
 C942 C 1.09703 0.06252 -0.07763
 H943 H 1.15835 0.18276 -0.12687
 H944 H 1.18464 0.20865 -0.15404
 H945 H 1.15841 0.15159 -0.20999
 H946 H 1.13176 0.12609 -0.18253
 H947 H 1.13545 0.09600 -0.15221
 H948 H 1.11069 0.06956 -0.12389
 H949 H 1.09217 0.14502 -0.08420
 H950 H 1.11449 0.17162 -0.11367
 H951 H 1.05388 0.11923 -0.07458
 H952 H 1.03443 0.09391 -0.04270
 H953 H 1.09420 0.02772 -0.05579
 H954 H 1.11503 0.05370 -0.08664
 C955 C 1.11704 0.63082 0.34700
 C956 C 1.10938 0.65758 0.34047
 C957 C 1.12500 0.67122 0.32399
 C958 C 1.14876 0.65847 0.31379
 C959 C 1.15625 0.63158 0.32021
 C960 C 1.14050 0.61788 0.33656
 C961 C 1.10125 0.61681 0.36523
 C962 C 1.09452 0.58864 0.36260
 C963 C 1.08059 0.57529 0.38027
 C964 C 1.07329 0.58980 0.40103
 C965 C 1.07985 0.61807 0.40349
 C966 C 1.09355 0.63143 0.38577
 C967 C 1.05989 0.57547 0.42046
 C968 C 1.03981 0.58927 0.43452
 C969 C 1.02929 0.57692 0.45416
 C970 C 1.03825 0.55032 0.46004
 C971 C 1.05733 0.53594 0.44545
 C972 C 1.06813 0.54843 0.42592
 H973 H 1.09118 0.66790 0.34804
 H974 H 1.11834 0.69169 0.31914
 H975 H 1.17469 0.62133 0.31303
 H976 H 1.14714 0.59744 0.34153
 H977 H 1.09993 0.57696 0.34682
 H978 H 1.07550 0.55363 0.37765
 H979 H 1.07513 0.62976 0.41941
 H980 H 1.09888 0.65304 0.38843
 H981 H 1.03252 0.60985 0.43055
 H982 H 1.01459 0.58848 0.46503
 H983 H 1.06469 0.51543 0.44960
 H984 H 1.08376 0.53730 0.41564
 C985 C 0.62293 0.14485 0.33357
 C986 C 0.63915 0.16610 0.34419
 C987 C 0.65604 0.18273 0.33084
 C988 C 0.65723 0.17846 0.30655
 C989 C 0.64093 0.15731 0.29587
 C990 C 0.62394 0.14071 0.30923
 C991 C 0.60534 0.12696 0.34796
 C992 C 0.60356 0.09833 0.34302
 C993 C 0.58808 0.08142 0.35733
 C994 C 0.57402 0.09278 0.37688
 C995 C 0.57545 0.12149 0.38153
 C996 C 0.59081 0.13834 0.36723
 C997 C 0.55900 0.07490 0.39313
 C998 C 0.53423 0.08441 0.40401
 C999 C 0.52227 0.06959 0.42172
 C1000 C 0.53456 0.04471 0.42876
 C1001 C 0.55816 0.03413 0.41685
 C1002 C 0.57036 0.04915 0.39926
 H1003 H 0.63929 0.16951 0.36293
 H1004 H 0.66875 0.19849 0.33962
 H1005 H 0.64117 0.15373 0.27715
 H1006 H 0.61140 0.12479 0.30048
 H1007 H 0.61470 0.08887 0.32842
 H1008 H 0.58723 0.05944 0.35314
 H1009 H 0.56528 0.13092 0.39663
 H1010 H 0.59141 0.16035 0.37135
 H1011 H 0.52449 0.10376 0.39928
 H1012 H 0.50386 0.07806 0.43041
 H1013 H 0.56808 0.01502 0.42200
 H1014 H 0.58951 0.04129 0.39135
 C1015 C 0.61447 0.68157 -0.14733
 C1016 C 0.64071 0.69276 -0.14086
 C1017 C 0.65659 0.70709 -0.15670
 C1018 C 0.64700 0.71062 -0.17982
 C1019 C 0.62056 0.69928 -0.18622
 C1020 C 0.60454 0.68516 -0.17020
 C1021 C 0.59832 0.66528 -0.13049
 C1022 C 0.58339 0.64157 -0.13807
 C1023 C 0.57060 0.62477 -0.12201
 C1024 C 0.57262 0.63105 -0.09792
 C1025 C 0.58642 0.65544 -0.09042
 C1026 C 0.59899 0.67238 -0.10649
 C1027 C 0.56247 0.61116 -0.08070
 C1028 C 0.55088 0.62032 -0.05928
 C1029 C 0.54365 0.60135 -0.04249
 C1030 C 0.54774 0.57283 -0.04682
 C1031 C 0.55857 0.56371 -0.06846
 C1032 C 0.56591 0.58258 -0.08510
 H1033 H 0.64953 0.68970 -0.12367
 H1034 H 0.67715 0.71403 -0.15085
 H1035 H 0.61147 0.70202 -0.20334
 H1036 H 0.58418 0.67727 -0.17572
 H1037 H 0.58248 0.63531 -0.15635
 H1038 H 0.55965 0.60646 -0.12847
 H1039 H 0.58855 0.66090 -0.07203
 H1040 H 0.60974 0.69080 -0.10003
 H1041 H 0.54755 0.64216 -0.05543
 H1042 H 0.53512 0.60901 -0.02607
 H1043 H 0.56192 0.54189 -0.07245
 H1044 H 0.57521 0.57470 -0.10114
 C1045 C 0.84529 -0.13557 -0.15656
 C1046 C 0.84395 -0.12981 -0.18042
 C1047 C 0.82500 -0.14384 -0.19545
 C1048 C 0.80726 -0.16415 -0.18700
 C1049 C 0.80837 -0.16973 -0.16319
 C1050 C 0.82699 -0.15551 -0.14814
 C1051 C 0.86552 -0.12095 -0.14040
 C1052 C 0.87811 -0.13481 -0.12179
 C1053 C 0.89587 -0.12086 -0.10583
 C1054 C 0.90192 -0.09270 -0.10818
 C1055 C 0.89004 -0.07903 -0.12721
 C1056 C 0.87198 -0.09292 -0.14304
 C1057 C 0.91946 -0.07750 -0.09025
 C1058 C 0.91314 -0.04984 -0.08371
 C1059 C 0.92820 -0.03617 -0.06574
 C1060 C 0.94969 -0.04991 -0.05362
 C1061 C 0.95660 -0.07725 -0.06048
 C1062 C 0.94180 -0.09082 -0.07869
 H1063 H 0.85791 -0.11485 -0.18760
 H1064 H 0.82469 -0.13930 -0.21378
 H1065 H 0.79458 -0.18496 -0.15615
 H1066 H 0.82680 -0.16000 -0.12982
 H1067 H 0.87415 -0.15652 -0.11943
 H1068 H 0.90426 -0.13207 -0.09129
 H1069 H 0.89455 -0.05749 -0.12985
 H1070 H 0.86256 -0.08148 -0.15703
 H1071 H 0.89587 -0.03898 -0.09188
 H1072 H 0.92233 -0.01511 -0.06080
 H1073 H 0.97329 -0.08823 -0.05160
 H1074 H 0.94775 -0.11187 -0.08358
 C1075 C 0.84098 0.34679 0.35930
 C1076 C 0.84422 0.35059 0.33534
 C1077 C 0.82904 0.33459 0.31891
 C1078 C 0.81002 0.31453 0.32600
 C1079 C 0.80690 0.31059 0.34995
 C1080 C 0.82225 0.32648 0.36641
 C1081 C 0.85697 0.36407 0.37676
 C1082 C 0.84440 0.37329 0.39770
 C1083 C 0.85943 0.38954 0.41409
 C1084 C 0.88736 0.39713 0.40988
 C1085 C 0.89986 0.38806 0.38887
 C1086 C 0.88490 0.37165 0.37256
 C1087 C 0.90353 0.41399 0.42751
 C1088 C 0.93225 0.40854 0.43154
 C1089 C 0.94733 0.42381 0.44853
 C1090 C 0.93397 0.44473 0.46206
 C1091 C 0.90536 0.45046 0.45788
 C1092 C 0.89033 0.43533 0.44073
 H1093 H 0.85821 0.36625 0.32924
 H1094 H 0.83232 0.33789 0.30060
 H1095 H 0.79225 0.29552 0.35603
 H1096 H 0.81955 0.32273 0.38471
 H1097 H 0.82281 0.36817 0.40136
 H1098 H 0.84927 0.39584 0.43021
 H1099 H 0.92120 0.39379 0.38492
 H1100 H 0.89536 0.36465 0.35675
 H1101 H 0.94299 0.39199 0.42196
 H1102 H 0.96932 0.41880 0.45143
 H1103 H 0.89456 0.46658 0.46793
 H1104 H 0.86837 0.44040 0.43779
 C1105 C 0.33592 -0.17287 0.33302
 C1106 C 0.33118 -0.16713 0.30958
 C1107 C 0.31454 -0.18454 0.29528
 C1108 C 0.30194 -0.20858 0.30389
 C1109 C 0.30771 -0.21440 0.32754
 C1110 C 0.32425 -0.19681 0.34176
 C1111 C 0.35241 -0.15361 0.34847
 C1112 C 0.34316 -0.14685 0.37112
 C1113 C 0.35834 -0.12845 0.38564
 C1114 C 0.38317 -0.11641 0.37788
 C1115 C 0.39253 -0.12323 0.35525
 C1116 C 0.37725 -0.14157 0.34066
 C1117 C 0.39936 -0.09718 0.39358
 C1118 C 0.42884 -0.09918 0.39521
 C1119 C 0.44382 -0.08245 0.41133
 C1120 C 0.42962 -0.06333 0.42610
 C1121 C 0.40025 -0.06064 0.42384
 C1122 C 0.38530 -0.07739 0.40778
 H1123 H 0.34002 -0.14883 0.30230
 H1124 H 0.31279 -0.17920 0.27723
 H1125 H 0.29832 -0.23157 0.33597
 H1126 H 0.32773 -0.20189 0.35979
 H1127 H 0.32395 -0.15555 0.37753
 H1128 H 0.35080 -0.12389 0.40309
 H1129 H 0.41151 -0.11416 0.34876
 H1130 H 0.38500 -0.14655 0.32335
 H1131 H 0.44023 -0.11436 0.38460
 H1132 H 0.46644 -0.08504 0.41266
 H1133 H 0.38869 -0.04602 0.43487
 H1134 H 0.36264 -0.07506 0.40663
 C1135 C 0.37616 0.33334 -0.15802
 C1136 C 0.37325 0.30453 -0.15754
 C1137 C 0.35433 0.29079 -0.17267
 C1138 C 0.33762 0.30561 -0.18841
 C1139 C 0.34096 0.33443 -0.18912
 C1140 C 0.36012 0.34811 -0.17416
 C1141 C 0.39482 0.34821 -0.14102
 C1142 C 0.41248 0.36931 -0.14817
 C1143 C 0.42832 0.38482 -0.13181
 C1144 C 0.42655 0.37981 -0.10789
 C1145 C 0.40953 0.35805 -0.10087
 C1146 C 0.39395 0.34235 -0.11727
 C1147 C 0.44063 0.39843 -0.09022
 C1148 C 0.45157 0.38819 -0.06931
 C1149 C 0.46222 0.40627 -0.05183
 C1150 C 0.46236 0.43490 -0.05500
 C1151 C 0.45250 0.44502 -0.07624
 C1152 C 0.44163 0.42705 -0.09358
 H1153 H 0.38562 0.29265 -0.14543
 H1154 H 0.35279 0.26853 -0.17200
 H1155 H 0.32817 0.34657 -0.20072
 H1156 H 0.36169 0.37040 -0.17467
 H1157 H 0.41382 0.37396 -0.16643
 H1158 H 0.44167 0.40102 -0.13788
 H1159 H 0.40728 0.35388 -0.08260
 H1160 H 0.38026 0.32637 -0.11127
 H1161 H 0.45159 0.36623 -0.06632
 H1162 H 0.46995 0.39789 -0.03570
 H1163 H 0.45231 0.46701 -0.07920
 H1164 H 0.43301 0.43576 -0.10925
 C1165 C 1.13249 -0.15441 0.15831
 C1166 C 1.16035 -0.16296 0.15408
 C1167 C 1.17320 -0.18298 0.16762
 C1168 C 1.15849 -0.19504 0.18568
 C1169 C 1.13074 -0.18625 0.19014
 C1170 C 1.11787 -0.16617 0.17659
 C1171 C 1.11852 -0.13417 0.14302
 C1172 C 1.09048 -0.13799 0.13560
 C1173 C 1.07814 -0.12046 0.11952
 C1174 C 1.09356 -0.09874 0.11043
 C1175 C 1.12122 -0.09422 0.11856
 C1176 C 1.13355 -0.11173 0.13469
 C1177 C 1.08158 -0.08216 0.09137
 C1178 C 1.08662 -0.05360 0.09049
 C1179 C 1.07665 -0.03858 0.07166
 C1180 C 1.06158 -0.05189 0.05333
 C1181 C 1.05610 -0.08028 0.05447
 C1182 C 1.06599 -0.09523 0.07323
 H1183 H 1.17209 -0.15462 0.13994
 H1184 H 1.19476 -0.18893 0.16397
 H1185 H 1.11880 -0.19526 0.20384
 H1186 H 1.09647 -0.15985 0.18042
 H1187 H 1.07838 -0.15517 0.14155
 H1188 H 1.05664 -0.12422 0.11387
 H1189 H 1.13373 -0.07780 0.11179
 H1190 H 1.15504 -0.10796 0.14035
 H1191 H 1.09830 -0.04290 0.10434
 H1192 H 1.08100 -0.01666 0.07131
 H1193 H 1.04441 -0.09109 0.04067
 H1194 H 1.06210 -0.11725 0.07317
 C1195 C 1.14220 0.36738 0.67092
 C1196 C 1.13292 0.35676 0.69193
 C1197 C 1.15020 0.33906 0.70462
 C1198 C 1.17711 0.33153 0.69656
 C1199 C 1.18656 0.34256 0.67579
 C1200 C 1.16932 0.36025 0.66312
 C1201 C 1.12341 0.38497 0.65667
 C1202 C 1.13427 0.40744 0.64493
 C1203 C 1.11713 0.42256 0.63000
 C1204 C 1.08869 0.41561 0.62646
 C1205 C 1.07758 0.39375 0.63883
 C1206 C 1.09474 0.37860 0.65376
 C1207 C 1.07136 0.42990 0.60875
 C1208 C 1.05327 0.41466 0.59367
 C1209 C 1.03933 0.42738 0.57532
 C1210 C 1.04318 0.45563 0.57160
 C1211 C 1.06020 0.47119 0.58730
 C1212 C 1.07416 0.45845 0.60567
 H1213 H 1.11226 0.36207 0.69852
 H1214 H 1.14220 0.33073 0.72046
 H1215 H 1.20731 0.33746 0.66926
 H1216 H 1.17700 0.36780 0.64688
 H1217 H 1.15617 0.41312 0.64705
 H1218 H 1.12646 0.43908 0.62057
 H1219 H 1.05568 0.38808 0.63669
 H1220 H 1.08575 0.36129 0.66241
 H1221 H 1.05085 0.39260 0.59539
 H1222 H 1.02630 0.41485 0.56356
 H1223 H 1.06351 0.49303 0.58493
 H1224 H 1.08759 0.47084 0.61721
 C1225 C 0.62221 -0.13451 0.64958
 C1226 C 0.61018 -0.14219 0.67062
 C1227 C 0.62593 -0.15700 0.68685
 C1228 C 0.65402 -0.16464 0.68233
 C1229 C 0.66604 -0.15684 0.66134
 C1230 C 0.65037 -0.14194 0.64520
 C1231 C 0.60552 -0.11909 0.63208
 C1232 C 0.61784 -0.09762 0.62000
 C1233 C 0.60267 -0.08391 0.60281
 C1234 C 0.57478 -0.09134 0.59719
 C1235 C 0.56228 -0.11251 0.60953
 C1236 C 0.57745 -0.12617 0.62682
 C1237 C 0.55934 -0.07769 0.57793
 C1238 C 0.54281 -0.09332 0.56188
 C1239 C 0.53030 -0.08094 0.54262
 C1240 C 0.53398 -0.05263 0.53899
 C1241 C 0.54959 -0.03678 0.55552
 C1242 C 0.56214 -0.04917 0.57473
 H1243 H 0.58862 -0.13659 0.67460
 H1244 H 0.61597 -0.16288 0.70276
 H1245 H 0.68770 -0.16212 0.65742
 H1246 H 0.66019 -0.13663 0.62908
 H1247 H 0.63931 -0.09144 0.62380
 H1248 H 0.61306 -0.06792 0.59349
 H1249 H 0.54077 -0.11857 0.60577
 H1250 H 0.56741 -0.14274 0.63568
 H1251 H 0.54041 -0.11537 0.56370
 H1252 H 0.51839 -0.09373 0.53023
 H1253 H 0.55275 -0.01489 0.55329
 H1254 H 0.57433 -0.03645 0.58698
 C1255 C 0.66243 0.37049 0.15624
 C1256 C 0.64752 0.36119 0.17543
 C1257 C 0.65995 0.34288 0.19082
 C1258 C 0.68789 0.33377 0.18778
 C1259 C 0.70329 0.34425 0.16932
 C1260 C 0.69067 0.36216 0.15365
 C1261 C 0.64799 0.38702 0.13815
 C1262 C 0.66250 0.40690 0.12569
 C1263 C 0.64923 0.42048 0.10734
 C1264 C 0.62115 0.41457 0.10116
 C1265 C 0.60639 0.39565 0.11432
 C1266 C 0.61966 0.38188 0.13234
 C1267 C 0.60722 0.42700 0.08064
 C1268 C 0.58862 0.41093 0.06671
 C1269 C 0.57324 0.42265 0.04878
 C1270 C 0.57648 0.45060 0.04389
 C1271 C 0.59628 0.46649 0.05671
 C1272 C 0.61144 0.45480 0.07511
 H1273 H 0.62596 0.36765 0.17838
 H1274 H 0.64726 0.33523 0.20467
 H1275 H 0.72508 0.33838 0.16672
 H1276 H 0.70283 0.36866 0.13904
 H1277 H 0.68419 0.41177 0.12992
 H1278 H 0.66120 0.43496 0.09759
 H1279 H 0.58451 0.39110 0.11047
 H1280 H 0.60781 0.36650 0.14118
 H1281 H 0.58558 0.38924 0.06986
 H1282 H 0.55843 0.40987 0.03884
 H1283 H 0.59906 0.48813 0.05321
 H1284 H 0.62563 0.46774 0.08550
 C1285 C 0.85660 0.13752 0.16612
 C1286 C 0.82799 0.13083 0.16810
 C1287 C 0.81036 0.14655 0.18278
 C1288 C 0.82063 0.16984 0.19549
 C1289 C 0.84936 0.17619 0.19386
 C1290 C 0.86714 0.16007 0.17961
 C1291 C 0.87491 0.12197 0.14919
 C1292 C 0.89634 0.13558 0.13755
 C1293 C 0.91229 0.12162 0.12054
 C1294 C 0.90684 0.09381 0.11419
 C1295 C 0.88593 0.07995 0.12624
 C1296 C 0.87037 0.09376 0.14366
 C1297 C 0.92191 0.07987 0.09436
 C1298 C 0.92785 0.05129 0.09408
 C1299 C 0.94076 0.03822 0.07482
 C1300 C 0.94844 0.05356 0.05565
 C1301 C 0.94312 0.08213 0.05610
 C1302 C 0.92975 0.09506 0.07507
 H1303 H 0.81888 0.11390 0.15784
 H1304 H 0.78858 0.14050 0.18394
 H1305 H 0.85813 0.19408 0.20309
 H1306 H 0.88914 0.16556 0.17903
 H1307 H 0.90035 0.15733 0.14099
 H1308 H 0.92867 0.13286 0.11213
 H1309 H 0.88090 0.05862 0.12178
 H1310 H 0.85454 0.08233 0.15256
 H1311 H 0.92262 0.03897 0.10874
 H1312 H 0.94486 0.01617 0.07495
 H1313 H 0.94865 0.09442 0.04147
 H1314 H 0.92496 0.11691 0.07427
 C1315 C 0.83630 0.64923 0.67068
 C1316 C 0.84738 0.67253 0.68280
 C1317 C 0.82994 0.69000 0.69630
 C1318 C 0.80104 0.68452 0.69810
 C1319 C 0.79012 0.66082 0.68648
 C1320 C 0.80753 0.64342 0.67290
 C1321 C 0.85438 0.63170 0.65503
 C1322 C 0.84406 0.62228 0.63315
 C1323 C 0.86103 0.60638 0.61807
 C1324 C 0.88877 0.59931 0.62447
 C1325 C 0.89914 0.60870 0.64639
 C1326 C 0.88214 0.62475 0.66149
 C1327 C 0.90671 0.58266 0.60800
 C1328 C 0.93541 0.58871 0.60532
 C1329 C 0.95135 0.57471 0.58813
 C1330 C 0.93882 0.55456 0.57321
 C1331 C 0.91056 0.54764 0.57663
 C1332 C 0.89477 0.56139 0.59387
 H1333 H 0.86939 0.67770 0.68132
 H1334 H 0.83907 0.70790 0.70528
 H1335 H 0.76793 0.65611 0.68737
 H1336 H 0.79841 0.62545 0.66401
 H1337 H 0.82301 0.62775 0.62743
 H1338 H 0.85253 0.60012 0.60113
 H1339 H 0.92029 0.60342 0.65197
 H1340 H 0.89062 0.63149 0.67832
 H1341 H 0.94524 0.60506 0.61581
 H1342 H 0.97307 0.58052 0.58582
 H1343 H 0.90044 0.53192 0.56560
 H1344 H 0.87298 0.55564 0.59586
 C1345 C 0.34034 0.13623 0.64559
 C1346 C 0.35121 0.14036 0.66833
 C1347 C 0.33645 0.15633 0.68496
 C1348 C 0.31059 0.16889 0.67921
 C1349 C 0.29961 0.16452 0.65653
 C1350 C 0.31416 0.14824 0.64003
 C1351 C 0.35637 0.11996 0.62760
 C1352 C 0.35547 0.12758 0.60419
 C1353 C 0.37008 0.11222 0.58716
 C1354 C 0.38631 0.08913 0.59314
 C1355 C 0.38777 0.08169 0.61651
 C1356 C 0.37276 0.09681 0.63356
 C1357 C 0.40145 0.07294 0.57482
 C1358 C 0.43023 0.06672 0.57734
 C1359 C 0.44485 0.05339 0.55908
 C1360 C 0.43079 0.04571 0.53817
 C1361 C 0.40176 0.05099 0.53611
 C1362 C 0.38730 0.06464 0.55418
 H1363 H 0.37142 0.13169 0.67322
 H1364 H 0.34536 0.15879 0.70234
 H1365 H 0.27998 0.17411 0.65131
 H1366 H 0.30481 0.14511 0.62286
 H1367 H 0.34374 0.14566 0.59900
 H1368 H 0.36901 0.11861 0.56928
 H1369 H 0.40004 0.06383 0.62147
 H1370 H 0.37366 0.09008 0.65132
 H1371 H 0.44156 0.07302 0.59311
 H1372 H 0.46721 0.04950 0.56115
 H1373 H 0.39031 0.04528 0.52026
 H1374 H 0.36504 0.06897 0.55196
 C1375 C 0.31897 0.60939 0.14471
 C1376 C 0.32864 0.61307 0.16785
 C1377 C 0.31303 0.62875 0.18411
 C1378 C 0.28745 0.64128 0.17761
 C1379 C 0.27749 0.63708 0.15460
 C1380 C 0.29299 0.62124 0.13839
 C1381 C 0.33653 0.59443 0.12698
 C1382 C 0.33799 0.60402 0.10421
 C1383 C 0.35568 0.59111 0.08785
 C1384 C 0.37253 0.56843 0.09389
 C1385 C 0.37075 0.55844 0.11648
 C1386 C 0.35285 0.57123 0.13283
 C1387 C 0.39307 0.55652 0.07702
 C1388 C 0.42094 0.55121 0.08410
 C1389 C 0.44118 0.54312 0.06773
 C1390 C 0.43389 0.54001 0.04399
 C1391 C 0.40574 0.54397 0.03708
 C1392 C 0.38555 0.55229 0.05342
 H1393 H 0.34869 0.60450 0.17327
 H1394 H 0.32112 0.63118 0.20177
 H1395 H 0.25805 0.64664 0.14888
 H1396 H 0.28469 0.61848 0.12082
 H1397 H 0.32617 0.62213 0.09920
 H1398 H 0.35699 0.59956 0.07069
 H1399 H 0.38332 0.54081 0.12151
 H1400 H 0.35188 0.56302 0.15008
 H1401 H 0.42736 0.55445 0.10215
 H1402 H 0.46268 0.53992 0.07358
 H1403 H 0.39947 0.54142 0.01893
 H1404 H 0.36412 0.55587 0.04756
   
