data_POSCAR
  _audit_creation_date              2014-09-24
  _audit_creation_method            'ToBaCCo'
  _symmetry_space_group_name_H-M    'P1'
  _symmetry_Int_Tables_number       1
  _symmetry_cell_setting            triclinic
  loop_
  _symmetry_equiv_pos_as_xyz
 x,y,z
_cell_length_a 57.1060
_cell_length_b 56.1442
_cell_length_c 56.1881
_cell_angle_alpha 89.183400
_cell_angle_beta 88.947700
_cell_angle_gamma 89.855800
loop_
  _atom_site_label
  _atom_site_type_symbol
  _atom_site_fract_x
  _atom_site_fract_y
  _atom_site_fract_z
C1 C 0.74400 0.61829 1.03367
 C2 C 0.75750 0.62862 1.01520
 C3 C 0.77937 0.63853 1.02005
 C4 C 0.78778 0.63887 1.04346
 C5 C 0.77430 0.62745 1.06159
 C6 C 0.75242 0.61697 1.05705
 C7 C 0.74854 0.62936 0.99072
 C8 C 0.72663 0.63966 0.98612
 C9 C 0.71801 0.64064 0.96285
 C10 C 0.73172 0.63105 0.94423
 C11 C 0.75321 0.61990 0.94877
 C12 C 0.76168 0.61935 0.97203
 H13 H 0.72754 0.61006 1.02926
 H14 H 0.78888 0.64739 1.00563
 H15 H 0.71627 0.64666 1.00077
 H16 H 0.77832 0.61084 0.97565
 H17 H 0.78080 0.62692 1.07951
 H18 H 0.72544 0.63167 0.92616
 C19 C 0.74161 0.39250 0.46989
 C20 C 0.75295 0.38065 0.48856
 C21 C 0.77463 0.36952 0.48430
 C22 C 0.78493 0.36997 0.46140
 C23 C 0.77368 0.38259 0.44306
 C24 C 0.75192 0.39373 0.44703
 C25 C 0.74175 0.37942 0.51243
 C26 C 0.71946 0.36930 0.51548
 C27 C 0.70852 0.36838 0.53805
 C28 C 0.71992 0.37828 0.55754
 C29 C 0.74230 0.38842 0.55472
 C30 C 0.75319 0.38869 0.53209
 H31 H 0.72463 0.40059 0.47320
 H32 H 0.78290 0.35970 0.49862
 H33 H 0.71070 0.36203 0.50026
 H34 H 0.77030 0.39675 0.52958
 H35 H 0.78196 0.38382 0.42559
 H36 H 0.71171 0.37738 0.57507
 C37 C 0.24183 -0.10856 -0.03724
 C38 C 0.25439 -0.11895 -0.01860
 C39 C 0.27663 -0.12881 -0.02317
 C40 C 0.28648 -0.12870 -0.04648
 C41 C 0.27361 -0.11736 -0.06471
 C42 C 0.25134 -0.10763 -0.06035
 C43 C 0.24390 -0.11971 0.00566
 C44 C 0.22129 -0.12892 0.00943
 C45 C 0.21027 -0.12836 0.03209
 C46 C 0.22259 -0.11800 0.05089
 C47 C 0.24544 -0.10913 0.04748
 C48 C 0.25602 -0.11026 0.02477
 H49 H 0.22457 -0.10120 -0.03372
 H50 H 0.28532 -0.13777 -0.00862
 H51 H 0.21211 -0.13570 -0.00573
 H52 H 0.27359 -0.10348 0.02181
 H53 H 0.28110 -0.11506 -0.08241
 H54 H 0.21483 -0.11742 0.06857
 C55 C 0.24233 0.11280 0.52579
 C56 C 0.25468 0.12324 0.50656
 C57 C 0.27629 0.13430 0.51035
 C58 C 0.28517 0.13559 0.53345
 C59 C 0.27260 0.12492 0.55252
 C60 C 0.25119 0.11342 0.54888
 C61 C 0.24419 0.12333 0.48279
 C62 C 0.22232 0.13416 0.47952
 C63 C 0.21138 0.13339 0.45742
 C64 C 0.22244 0.12134 0.43857
 C65 C 0.24446 0.11048 0.44154
 C66 C 0.25533 0.11177 0.46375
 H67 H 0.22588 0.10393 0.52257
 H68 H 0.28559 0.14276 0.49553
 H69 H 0.21372 0.14302 0.49431
 H70 H 0.27231 0.10358 0.46636
 H71 H 0.27940 0.12588 0.57035
 H72 H 0.21387 0.12045 0.42156
 C73 C 0.11769 0.53222 0.24232
 C74 C 0.12766 0.51351 0.25548
 C75 C 0.13836 0.51812 0.27714
 C76 C 0.13955 0.54143 0.28554
 C77 C 0.12908 0.56000 0.27249
 C78 C 0.11795 0.55584 0.25068
 C79 C 0.12776 0.48914 0.24611
 C80 C 0.13972 0.48419 0.22470
 C81 C 0.14088 0.46080 0.21622
 C82 C 0.12946 0.44251 0.22917
 C83 C 0.11707 0.44736 0.25034
 C84 C 0.11640 0.47072 0.25882
 H85 H 0.11045 0.52813 0.22520
 H86 H 0.14656 0.50367 0.28693
 H87 H 0.14874 0.49843 0.21512
 H88 H 0.10712 0.47457 0.27534
 H89 H 0.12887 0.57753 0.28022
 H90 H 0.12971 0.42449 0.22249
 C91 C -0.10138 -0.02657 0.24178
 C92 C -0.11242 -0.00801 0.25398
 C93 C -0.12200 -0.01217 0.27681
 C94 C -0.12057 -0.03484 0.28791
 C95 C -0.10856 -0.05307 0.27555
 C96 C -0.09917 -0.04912 0.25254
 C97 C -0.11362 0.01603 0.24313
 C98 C -0.12585 0.01996 0.22198
 C99 C -0.12868 0.04323 0.21249
 C100 C -0.11802 0.06225 0.22445
 C101 C -0.10515 0.05830 0.24515
 C102 C -0.10321 0.03519 0.25452
 H103 H -0.09396 -0.02324 0.22415
 H104 H -0.13004 0.00265 0.28601
 H105 H -0.13437 0.00491 0.21402
 H106 H -0.09370 0.03208 0.27080
 H107 H -0.10779 -0.07095 0.28295
 H108 H -0.11854 0.08018 0.21715
 C109 C 0.39594 0.46331 0.73805
 C110 C 0.38546 0.48232 0.75004
 C111 C 0.37539 0.47856 0.77272
 C112 C 0.37582 0.45589 0.78389
 C113 C 0.38723 0.43714 0.77173
 C114 C 0.39712 0.44068 0.74886
 C115 C 0.38598 0.50649 0.73941
 C116 C 0.37554 0.51123 0.71739
 C117 C 0.37520 0.53456 0.70794
 C118 C 0.38659 0.55277 0.72013
 C119 C 0.39697 0.54813 0.74207
 C120 C 0.39637 0.52508 0.75180
 H121 H 0.40392 0.46636 0.72062
 H122 H 0.36794 0.49374 0.78183
 H123 H 0.36670 0.49702 0.70831
 H124 H 0.40421 0.52156 0.76893
 H125 H 0.38727 0.41928 0.77922
 H126 H 0.38673 0.57080 0.71295
 C127 C 0.61717 1.02184 0.74238
 C128 C 0.62704 1.00345 0.75603
 C129 C 0.63738 1.00859 0.77784
 C130 C 0.63870 1.03226 0.78582
 C131 C 0.62789 1.05032 0.77208
 C132 C 0.61710 1.04535 0.75045
 C133 C 0.62739 0.97894 0.74685
 C134 C 0.63801 0.97435 0.72468
 C135 C 0.63847 0.95120 0.71566
 C136 C 0.62737 0.93279 0.72871
 C137 C 0.61671 0.93700 0.75102
 C138 C 0.61709 0.96022 0.76010
 H139 H 0.60954 1.01771 0.72541
 H140 H 0.64580 0.99423 0.78752
 H141 H 0.64653 0.98873 0.71483
 H142 H 0.60927 0.96387 0.77738
 H143 H 0.62685 1.06828 0.77876
 H144 H 0.62672 0.91516 0.72117
 C145 C -0.03277 0.24515 -0.10094
 C146 C -0.01509 0.25815 -0.11276
 C147 C -0.02042 0.28015 -0.12359
 C148 C -0.04359 0.28917 -0.12323
 C149 C -0.06088 0.27595 -0.11045
 C150 C -0.05565 0.25401 -0.09951
 C151 C 0.00888 0.24820 -0.11432
 C152 C 0.01248 0.22507 -0.12284
 C153 C 0.03500 0.21468 -0.12341
 C154 C 0.05381 0.22821 -0.11480
 C155 C 0.05051 0.25148 -0.10642
 C156 C 0.02794 0.26142 -0.10648
 H157 H -0.02859 0.22823 -0.09248
 H158 H -0.00665 0.28916 -0.13363
 H159 H -0.00265 0.21505 -0.12824
 H160 H 0.02507 0.27934 -0.10012
 H161 H -0.07859 0.28262 -0.10867
 H162 H 0.07139 0.22106 -0.11516
 C163 C 0.52948 0.24433 0.10996
 C164 C 0.51075 0.25680 0.12040
 C165 C 0.51485 0.27837 0.13188
 C166 C 0.53770 0.28736 0.13324
 C167 C 0.55620 0.27509 0.12196
 C168 C 0.55233 0.25350 0.11032
 C169 C 0.48692 0.24690 0.11967
 C170 C 0.48191 0.22497 0.13089
 C171 C 0.45924 0.21543 0.13033
 C172 C 0.44188 0.22762 0.11757
 C173 C 0.44677 0.24942 0.10601
 C174 C 0.46930 0.25918 0.10748
 H175 H 0.52613 0.22743 0.10160
 H176 H 0.50041 0.28760 0.14053
 H177 H 0.49548 0.21577 0.14066
 H178 H 0.47335 0.27596 0.09859
 H179 H 0.57365 0.28259 0.12208
 H180 H 0.42440 0.22022 0.11684
 C181 C 1.03017 0.74614 0.61687
 C182 C 1.01114 0.75902 0.62604
 C183 C 1.01459 0.78197 0.63493
 C184 C 1.03712 0.79237 0.63489
 C185 C 1.05595 0.77901 0.62520
 C186 C 1.05259 0.75619 0.61601
 C187 C 0.98737 0.74884 0.62524
 C188 C 0.98225 0.72714 0.63691
 C189 C 0.95961 0.71752 0.63623
 C190 C 0.94242 0.72931 0.62288
 C191 C 0.94742 0.75082 0.61084
 C192 C 0.96988 0.76069 0.61243
 H193 H 1.02733 0.72866 0.60951
 H194 H 0.99937 0.79179 0.64109
 H195 H 0.99568 0.71821 0.64711
 H196 H 0.97399 0.77725 0.60313
 H197 H 1.07371 0.78560 0.62568
 H198 H 0.92498 0.72183 0.62204
 C199 C 0.47048 0.74484 0.39839
 C200 C 0.48817 0.75717 0.38576
 C201 C 0.48310 0.77918 0.37482
 C202 C 0.46030 0.78865 0.37606
 C203 C 0.44293 0.77634 0.38932
 C204 C 0.44784 0.75441 0.40045
 C205 C 0.51178 0.74654 0.38359
 C206 C 0.51459 0.72372 0.37411
 C207 C 0.53678 0.71298 0.37287
 C208 C 0.55617 0.72515 0.38173
 C209 C 0.55368 0.74810 0.39122
 C210 C 0.53137 0.75879 0.39172
 H211 H 0.47447 0.72790 0.40690
 H212 H 0.49661 0.78831 0.36445
 H213 H 0.49944 0.71429 0.36777
 H214 H 0.52907 0.77653 0.39875
 H215 H 0.42534 0.78356 0.39045
 H216 H 0.57322 0.71667 0.38121
 C217 C 0.40398 -0.02390 0.27891
 H218 H 0.40325 -0.00645 0.28682
 C219 C 0.41461 -0.04289 0.29109
 H220 H 0.42208 -0.03990 0.30837
 C221 C 0.39331 -0.04951 0.24779
 H222 H 0.38445 -0.05232 0.23127
 C223 C 0.40379 -0.06883 0.25921
 H224 H 0.40322 -0.08617 0.25104
 N225 N 0.39308 -0.02768 0.25797
 C226 C 0.37698 0.03613 0.21660
 H227 H 0.35866 0.03210 0.21424
 C228 C 0.38642 0.05672 0.20639
 H229 H 0.37534 0.06826 0.19585
 C230 C 0.41345 0.02598 0.23358
 H231 H 0.42369 0.01403 0.24451
 C232 C 0.42372 0.04657 0.22357
 H233 H 0.44192 0.05045 0.22687
 Zn234 Zn 0.37343 -0.00379 0.24489
 N235 N 0.39033 0.02151 0.23028
 C236 C 0.35493 0.03274 0.27352
 N237 N 0.35442 0.00885 0.26984
 C238 C 0.34142 -0.00586 0.28428
 C239 C 0.32778 0.00351 0.30291
 C240 C 0.34156 0.04280 0.29176
 C241 C 0.36586 -0.02107 0.19959
 C242 C 0.35362 -0.03051 0.18069
 C243 C 0.31890 -0.03208 0.20589
 C244 C 0.33176 -0.02229 0.22428
 N245 N 0.35488 -0.01723 0.22088
 H246 H 0.36588 0.04416 0.26249
 H247 H 0.34169 -0.02486 0.28136
 H248 H 0.31732 -0.00837 0.31409
 H249 H 0.34246 0.06184 0.29444
 H250 H 0.38423 -0.01678 0.19733
 H251 H 0.36271 -0.03364 0.16393
 H252 H 0.30051 -0.03606 0.20879
 H253 H 0.32326 -0.01881 0.24119
 C254 C 0.40991 0.06247 0.21025
 C255 C 0.41387 -0.06587 0.28156
 C256 C 0.32986 -0.03621 0.18375
 C257 C 0.32764 0.02820 0.30668
 C258 C 0.07664 1.02862 0.77230
 H259 H 0.06666 1.01331 0.76703
 C260 C 0.06593 1.04634 0.78614
 H261 H 0.04770 1.04461 0.79150
 C262 C 0.11255 1.04969 0.77209
 H263 H 0.13051 1.05139 0.76601
 C264 C 0.10272 1.06749 0.78600
 H265 H 0.11335 1.08258 0.79077
 N266 N 0.09970 1.03045 0.76591
 C267 C 0.09624 0.98463 0.70966
 H268 H 0.10595 0.99798 0.69962
 C269 C 0.08533 0.96639 0.69755
 H270 H 0.08655 0.96623 0.67831
 C271 C 0.08297 0.96870 0.74672
 H272 H 0.08260 0.96944 0.76595
 C273 C 0.07217 0.94974 0.73530
 H274 H 0.06371 0.93594 0.74598
 Zn275 Zn 0.11628 1.00661 0.74879
 N276 N 0.09577 0.98494 0.73386
 C277 C 0.13551 0.96598 0.77305
 N278 N 0.13641 0.99011 0.77024
 C279 C 0.15140 1.00329 0.78320
 C280 C 0.16494 0.99261 0.80077
 C281 C 0.14883 0.95452 0.79044
 C282 C 0.12801 1.04267 0.71519
 C283 C 0.14092 1.05322 0.69658
 C284 C 0.16764 1.01978 0.69772
 C285 C 0.15432 1.00998 0.71650
 N286 N 0.13495 1.02151 0.72482
 H287 H 0.12434 0.95551 0.76204
 H288 H 0.15274 1.02222 0.78018
 H289 H 0.17647 1.00353 0.81110
 H290 H 0.14725 0.93543 0.79297
 H291 H 0.11223 1.05122 0.72173
 H292 H 0.13524 1.07023 0.68941
 H293 H 0.18266 1.01003 0.69096
 H294 H 0.15916 0.99293 0.72417
 C295 C 0.07414 0.94790 0.71040
 C296 C 0.07926 1.06580 0.79350
 C297 C 0.16093 1.04167 0.68743
 C298 C 0.16337 0.96798 0.80494
 C299 C 0.58769 0.51982 0.28775
 H300 H 0.59069 0.50272 0.29627
 C301 C 0.57614 0.53788 0.30024
 H302 H 0.56995 0.53445 0.31829
 C303 C 0.59347 0.54561 0.25439
 H304 H 0.60093 0.54880 0.23684
 C305 C 0.58183 0.56405 0.26611
 H306 H 0.58053 0.58132 0.25740
 N307 N 0.59659 0.52419 0.26550
 C308 C 0.61616 0.46181 0.22454
 H309 H 0.63464 0.46578 0.22269
 C310 C 0.60719 0.44153 0.21417
 H311 H 0.61885 0.43006 0.20410
 C312 C 0.57864 0.47210 0.24006
 H313 H 0.56775 0.48406 0.25038
 C314 C 0.56883 0.45190 0.22978
 H315 H 0.55033 0.44827 0.23232
 Zn316 Zn 0.61762 0.50200 0.25188
 N317 N 0.60202 0.47635 0.23757
 C318 C 0.63792 0.46571 0.28023
 N319 N 0.63689 0.48969 0.27652
 C320 C 0.64832 0.50486 0.29098
 C321 C 0.66212 0.49598 0.30944
 C322 C 0.65142 0.45611 0.29842
 C323 C 0.62689 0.51792 0.20534
 C324 C 0.63929 0.52868 0.18648
 C325 C 0.66956 0.53911 0.21388
 C326 C 0.65673 0.52781 0.23217
 N327 N 0.63579 0.51749 0.22763
 H328 H 0.62803 0.45385 0.26936
 H329 H 0.64655 0.52389 0.28834
 H330 H 0.67140 0.50830 0.32050
 H331 H 0.65170 0.43698 0.30115
 H332 H 0.61013 0.50975 0.20216
 H333 H 0.63208 0.52817 0.16882
 H334 H 0.68594 0.54761 0.21804
 H335 H 0.66353 0.52744 0.24995
 C336 C 0.58335 0.43611 0.21706
 C337 C 0.57363 0.56052 0.28960
 C338 C 0.66096 0.53954 0.19058
 C339 C 0.66393 0.47125 0.31321
 C340 C 0.90657 0.47697 0.77808
 H341 H 0.90937 0.49473 0.78467
 C342 C 0.91734 0.45748 0.78929
 H343 H 0.92844 0.46043 0.80438
 C344 C 0.88699 0.45125 0.75202
 H345 H 0.87467 0.44860 0.73798
 C346 C 0.89749 0.43142 0.76250
 H347 H 0.89337 0.41387 0.75605
 N348 N 0.89091 0.47345 0.76047
 C349 C 0.87385 0.53981 0.72287
 H350 H 0.85563 0.53586 0.72004
 C351 C 0.88343 0.56059 0.71315
 H352 H 0.87236 0.57250 0.70299
 C353 C 0.91050 0.52851 0.73863
 H354 H 0.92096 0.51595 0.74857
 C355 C 0.92089 0.54925 0.72911
 H356 H 0.93927 0.55261 0.73202
 Zn357 Zn 0.87067 0.49822 0.74941
 N358 N 0.88721 0.52449 0.73577
 C359 C 0.83485 0.52625 0.77040
 N360 N 0.85163 0.50969 0.77512
 C361 C 0.85583 0.50258 0.79791
 C362 C 0.84417 0.51336 0.81699
 C363 C 0.82249 0.53723 0.78893
 C364 C 0.86185 0.48299 0.70354
 C365 C 0.84953 0.47263 0.68520
 C366 C 0.81626 0.46795 0.71205
 C367 C 0.82923 0.47857 0.72992
 N368 N 0.85165 0.48566 0.72539
 H369 H 0.83117 0.53122 0.75223
 H370 H 0.86870 0.48902 0.80154
 H371 H 0.84883 0.50820 0.83492
 H372 H 0.80928 0.55039 0.78465
 H373 H 0.87974 0.48871 0.70048
 H374 H 0.85798 0.47086 0.66791
 H375 H 0.79866 0.46182 0.71612
 H376 H 0.82161 0.48061 0.74754
 C377 C 0.90711 0.56581 0.71659
 C378 C 0.91202 0.43428 0.78210
 C379 C 0.82651 0.46465 0.68938
 C380 C 0.82753 0.53132 0.81269
 C381 C 0.28729 0.40377 -0.02327
 H382 H 0.29547 0.39950 -0.00652
 C383 C 0.30041 0.41458 -0.04164
 H384 H 0.31863 0.41887 -0.03886
 C385 C 0.25410 0.40185 -0.04789
 H386 H 0.23636 0.39605 -0.05062
 C387 C 0.26645 0.41300 -0.06658
 H388 H 0.25802 0.41571 -0.08352
 N389 N 0.26477 0.39706 -0.02690
 C390 C 0.22332 0.37896 0.03640
 H391 H 0.22085 0.36033 0.03246
 C392 C 0.21371 0.38830 0.05716
 H393 H 0.20353 0.37682 0.06903
 C394 C 0.23998 0.41635 0.02570
 H395 H 0.25057 0.42699 0.01347
 C396 C 0.23049 0.42654 0.04639
 H397 H 0.23382 0.44509 0.05008
 Zn398 Zn 0.25054 0.37630 -0.00415
 N399 N 0.23657 0.39283 0.02145
 C400 C 0.27933 0.35769 0.03171
 N401 N 0.27445 0.35623 0.00815
 C402 C 0.28795 0.34277 -0.00672
 C403 C 0.30718 0.33010 0.00205
 C404 C 0.29841 0.34555 0.04110
 C405 C 0.20598 0.37078 -0.02205
 C406 C 0.18679 0.35934 -0.03170
 C407 C 0.20983 0.32328 -0.03412
 C408 C 0.22855 0.33536 -0.02408
 N409 N 0.22636 0.35877 -0.01848
 H410 H 0.26897 0.36892 0.04323
 H411 H 0.28422 0.34247 -0.02551
 H412 H 0.31805 0.31982 -0.01003
 H413 H 0.30209 0.34715 0.05986
 H414 H 0.20462 0.38933 -0.01722
 H415 H 0.17075 0.36924 -0.03449
 H416 H 0.21174 0.30463 -0.03845
 H417 H 0.24470 0.32597 -0.02070
 C418 C 0.21763 0.41222 0.06264
 C419 C 0.29011 0.41878 -0.06379
 C420 C 0.18861 0.33531 -0.03789
 C421 C 0.31277 0.33178 0.02619
 C422 C 0.77751 0.08522 1.02407
 H423 H 0.78597 0.08482 1.00669
 C424 C 0.78865 0.07505 1.04378
 H425 H 0.80564 0.06673 1.04143
 C426 C 0.74624 0.09872 1.04875
 H427 H 0.73018 0.10866 1.05090
 C428 C 0.75670 0.08885 1.06880
 H429 H 0.74831 0.09100 1.08608
 N430 N 0.75705 0.09741 1.02703
 C431 C 0.72077 0.11516 0.96176
 H432 H 0.71824 0.13378 0.96578
 C433 C 0.71130 0.10592 0.94128
 H434 H 0.70106 0.11753 0.92994
 C435 C 0.73707 0.07762 0.97205
 H436 H 0.74733 0.06683 0.98409
 C437 C 0.72803 0.06760 0.95141
 H438 H 0.73153 0.04907 0.94759
 Zn439 Zn 0.74632 0.11769 1.00230
 N440 N 0.73355 0.10112 0.97654
 C441 C 0.77834 0.13498 0.96739
 N442 N 0.77224 0.13588 0.99088
 C443 C 0.78510 0.14858 1.00640
 C444 C 0.80462 0.16156 0.99830
 C445 C 0.79782 0.14742 0.95862
 C446 C 0.70085 0.12748 1.01802
 C447 C 0.68219 0.14072 1.02725
 C448 C 0.70782 0.17479 1.02921
 C449 C 0.72594 0.16099 1.01956
 N450 N 0.72225 0.13767 1.01453
 H451 H 0.76827 0.12443 0.95537
 H452 H 0.78026 0.14851 1.02511
 H453 H 0.81473 0.17157 1.01084
 H454 H 0.80229 0.14663 0.93983
 H455 H 0.69837 0.10894 1.01379
 H456 H 0.66534 0.13225 1.03023
 H457 H 0.71100 0.19326 1.03338
 H458 H 0.74291 0.16891 1.01632
 C459 C 0.71528 0.08199 0.93551
 C460 C 0.77862 0.07770 1.06660
 C461 C 0.68566 0.16460 1.03317
 C462 C 0.81121 0.16095 0.97412
 C463 C 0.27949 0.59126 0.52339
 H464 H 0.28801 0.59276 0.50608
 C465 C 0.29095 0.57978 0.54216
 H466 H 0.30829 0.57248 0.53913
 C467 C 0.24755 0.60107 0.54896
 H468 H 0.23104 0.61003 0.55187
 C469 C 0.25823 0.58963 0.56807
 H470 H 0.24949 0.58956 0.58534
 N471 N 0.25853 0.60224 0.52730
 C472 C 0.22271 0.62236 0.46240
 H473 H 0.22147 0.64122 0.46588
 C474 C 0.21333 0.61330 0.44176
 H475 H 0.20458 0.62529 0.42953
 C476 C 0.23569 0.58392 0.47433
 H477 H 0.24463 0.57270 0.48708
 C478 C 0.22640 0.57401 0.45379
 H479 H 0.22832 0.55511 0.45070
 Zn480 Zn 0.24710 0.62360 0.50388
 N481 N 0.23399 0.60778 0.47794
 C482 C 0.27924 0.64095 0.46919
 N483 N 0.27283 0.64224 0.49258
 C484 C 0.28558 0.65512 0.50806
 C485 C 0.30535 0.66777 0.50003
 C486 C 0.29894 0.65306 0.46050
 C487 C 0.20202 0.63183 0.52132
 C488 C 0.18336 0.64418 0.53173
 C489 C 0.20797 0.67902 0.53343
 C490 C 0.22615 0.66601 0.52278
 N491 N 0.22300 0.64272 0.51737
 H492 H 0.26942 0.63013 0.45721
 H493 H 0.28058 0.65528 0.52672
 H494 H 0.31543 0.67782 0.51255
 H495 H 0.30370 0.65183 0.44181
 H496 H 0.19988 0.61338 0.51652
 H497 H 0.16679 0.63514 0.53453
 H498 H 0.21105 0.69733 0.53825
 H499 H 0.24279 0.67452 0.51915
 C500 C 0.21545 0.58893 0.43702
 C501 C 0.28064 0.57968 0.56506
 C502 C 0.18625 0.66804 0.53822
 C503 C 0.31231 0.66661 0.47598
 C504 C 0.78879 0.90324 0.47698
 H505 H 0.79658 0.89892 0.49391
 C506 C 0.80198 0.91519 0.45937
 H507 H 0.81985 0.92027 0.46291
 C508 C 0.75660 0.90046 0.45113
 H509 H 0.73926 0.89394 0.44762
 C510 C 0.76901 0.91273 0.43319
 H511 H 0.76103 0.91556 0.41604
 N512 N 0.76675 0.89562 0.47238
 C513 C 0.72398 0.87493 0.53399
 H514 H 0.72218 0.85636 0.52949
 C515 C 0.71344 0.88343 0.55467
 H516 H 0.70322 0.87136 0.56589
 C517 C 0.73989 0.91303 0.52485
 H518 H 0.75056 0.92427 0.51325
 C519 C 0.72949 0.92237 0.54552
 H520 H 0.73223 0.94088 0.54984
 Zn521 Zn 0.75256 0.87396 0.49435
 N522 N 0.73729 0.88955 0.51984
 C523 C 0.78097 0.85607 0.53079
 N524 N 0.77670 0.85448 0.50711
 C525 C 0.79082 0.84128 0.49259
 C526 C 0.81005 0.82897 0.50188
 C527 C 0.80004 0.84433 0.54069
 C528 C 0.70885 0.86752 0.47492
 C529 C 0.69003 0.85561 0.46514
 C530 C 0.71366 0.81988 0.46367
 C531 C 0.73201 0.83245 0.47382
 N532 N 0.72932 0.85590 0.47909
 H533 H 0.77010 0.86709 0.54204
 H534 H 0.78754 0.84086 0.47370
 H535 H 0.82139 0.81885 0.49011
 H536 H 0.80322 0.84603 0.55953
 H537 H 0.70707 0.88609 0.47955
 H538 H 0.67385 0.86517 0.46201
 H539 H 0.71590 0.80118 0.45973
 H540 H 0.74821 0.82337 0.47771
 C541 C 0.71654 0.90728 0.56096
 C542 C 0.79223 0.91959 0.43699
 C543 C 0.69228 0.83147 0.45946
 C544 C 0.81499 0.83079 0.52617
 C545 C -0.02524 0.27980 0.41482
 H546 H -0.00835 0.28786 0.41764
 C547 C -0.04542 0.28977 0.42517
 H548 H -0.04386 0.30570 0.43564
 C549 C -0.04783 0.25011 0.39658
 H550 H -0.04883 0.23465 0.38546
 C551 C -0.06831 0.25919 0.40686
 H552 H -0.08478 0.25045 0.40352
 N553 N -0.02698 0.26118 0.39971
 C554 C 0.01947 0.22031 0.41512
 H555 H 0.00209 0.21273 0.41643
 C556 C 0.03813 0.20897 0.42645
 H557 H 0.03503 0.19270 0.43659
 C558 C 0.04494 0.25010 0.39943
 H559 H 0.04766 0.26596 0.38867
 C560 C 0.06396 0.23962 0.41079
 H561 H 0.08120 0.24737 0.40831
 Zn562 Zn -0.00070 0.25135 0.38092
 N563 N 0.02342 0.23978 0.40092
 C564 C 0.02770 0.27154 0.34511
 N565 N 0.01105 0.27700 0.36178
 C566 C 0.00366 0.29985 0.36468
 C567 C 0.01414 0.31840 0.35159
 C568 C 0.03838 0.28950 0.33135
 C569 C -0.00231 0.20440 0.36181
 C570 C -0.01119 0.18664 0.34742
 C571 C -0.03484 0.21635 0.32768
 C572 C -0.02573 0.23350 0.34269
 N573 N -0.01022 0.22720 0.35977
 H574 H 0.03299 0.25319 0.34284
 H575 H -0.01002 0.30395 0.37744
 H576 H 0.00869 0.33651 0.35510
 H577 H 0.05158 0.28464 0.31821
 H578 H 0.01053 0.19970 0.37489
 H579 H -0.00545 0.16845 0.35027
 H580 H -0.04727 0.22180 0.31433
 H581 H -0.03143 0.25184 0.34113
 C582 C 0.06083 0.21830 0.42374
 C583 C -0.06746 0.27998 0.42042
 C584 C -0.02799 0.19239 0.33027
 C585 C 0.03202 0.31342 0.33484
 C586 C 1.02097 0.78864 0.09178
 H587 H 1.00493 0.79736 0.09739
 C588 C 1.03834 0.80169 0.07962
 H589 H 1.03548 0.82040 0.07571
 C590 C 1.04488 0.75408 0.09138
 H591 H 1.04779 0.73580 0.09670
 C592 C 1.06255 0.76636 0.07893
 H593 H 1.07889 0.75732 0.07487
 N594 N 1.02478 0.76546 0.09800
 C595 C 0.96576 0.72114 0.11952
 H596 H 0.97110 0.71781 0.13764
 C597 C 0.94553 0.71061 0.11125
 H598 H 0.93564 0.69881 0.12303
 C599 C 0.97230 0.74081 0.08237
 H600 H 0.98270 0.75292 0.07143
 C601 C 0.95194 0.73068 0.07334
 H602 H 0.94670 0.73512 0.05539
 Zn603 Zn 1.00371 0.75101 0.12024
 N604 N 0.97847 0.73617 0.10524
 C605 C 0.96806 0.77939 0.14063
 N606 N 0.99156 0.77528 0.14021
 C607 C 1.00643 0.78947 0.15225
 C608 C 0.99775 0.80862 0.16543
 C609 C 0.95870 0.79842 0.15334
 C610 C 1.02420 0.70637 0.12678
 C611 C 1.03499 0.68756 0.13880
 C612 C 1.03539 0.71153 0.17416
 C613 C 1.02445 0.72989 0.16146
 N614 N 1.01934 0.72710 0.13811
 H615 H 0.95650 0.76830 0.13063
 H616 H 1.02510 0.78622 0.15117
 H617 H 1.00980 0.82000 0.17461
 H618 H 0.93997 0.80148 0.15332
 H619 H 1.01952 0.70442 0.10834
 H620 H 1.03896 0.67131 0.12937
 H621 H 1.03921 0.71395 0.19277
 H622 H 1.01993 0.74621 0.17037
 C623 C 0.93805 0.71575 0.08808
 C624 C 1.05968 0.79066 0.07361
 C625 C 1.04076 0.69002 0.16280
 C626 C 0.97361 0.81342 0.16578
 C627 C 0.51989 0.27539 0.58813
 H628 H 0.50259 0.28309 0.59005
 C629 C 0.53781 0.28841 0.57678
 H630 H 0.53413 0.30601 0.56965
 C631 C 0.54617 0.24375 0.59651
 H632 H 0.54962 0.22675 0.60497
 C633 C 0.56448 0.25598 0.58505
 H634 H 0.58185 0.24818 0.58481
 N635 N 0.52449 0.25374 0.59820
 C636 C 0.46155 0.21316 0.61582
 H637 H 0.46480 0.21071 0.63461
 C638 C 0.44131 0.20394 0.60614
 H639 H 0.42912 0.19414 0.61753
 C640 C 0.47340 0.22940 0.57832
 H641 H 0.48587 0.23968 0.56775
 C642 C 0.45331 0.22027 0.56779
 H643 H 0.45030 0.22360 0.54906
 Zn644 Zn 0.50159 0.23993 0.61881
 N645 N 0.47679 0.22610 0.60206
 C646 C 0.46591 0.26970 0.63713
 N647 N 0.48921 0.26469 0.63809
 C648 C 0.50384 0.27835 0.65100
 C649 C 0.49507 0.29765 0.66391
 C650 C 0.45648 0.28888 0.64955
 C651 C 0.51949 0.19431 0.62640
 C652 C 0.52989 0.17538 0.63864
 C653 C 0.53193 0.20014 0.67336
 C654 C 0.52111 0.21850 0.66057
 N655 N 0.51545 0.21540 0.63740
 H656 H 0.45456 0.25923 0.62630
 H657 H 0.52242 0.27453 0.65088
 H658 H 0.50694 0.30854 0.67388
 H659 H 0.43789 0.29254 0.64852
 H660 H 0.51473 0.19228 0.60800
 H661 H 0.53323 0.15880 0.62955
 H662 H 0.53654 0.20288 0.69173
 H663 H 0.51745 0.23520 0.66915
 C664 C 0.43673 0.20789 0.58197
 C665 C 0.56056 0.27889 0.57561
 C666 C 0.53644 0.17828 0.66235
 C667 C 0.47111 0.30321 0.66304
 C668 C 0.47598 0.77516 0.91282
 H669 H 0.49365 0.78027 0.91702
 C670 C 0.45696 0.78857 0.92151
 H671 H 0.46013 0.80394 0.93241
 C672 C 0.45028 0.75021 0.89198
 H673 H 0.44745 0.73608 0.87962
 C674 C 0.43097 0.76285 0.90037
 H675 H 0.41366 0.75756 0.89495
 N676 N 0.47233 0.75658 0.89801
 C677 C 0.52301 0.70432 0.90484
 H678 H 0.51105 0.69251 0.89641
 C679 C 0.54232 0.69445 0.91606
 H680 H 0.54408 0.67525 0.91672
 C681 C 0.53562 0.74321 0.91379
 H682 H 0.53330 0.76228 0.91216
 C683 C 0.55581 0.73406 0.92444
 H684 H 0.56876 0.74631 0.93087
 Zn685 Zn 0.49769 0.74132 0.88183
 N686 N 0.52026 0.72835 0.90320
 C687 C 0.53629 0.76398 0.85873
 N688 N 0.51264 0.76446 0.86196
 C689 C 0.49940 0.78191 0.85189
 C690 C 0.51000 0.80028 0.83860
 C691 C 0.54764 0.78217 0.84589
 C692 C 0.47336 0.69864 0.87344
 C693 C 0.46391 0.68042 0.86011
 C694 C 0.47878 0.69997 0.82440
 C695 C 0.48840 0.71764 0.83853
 N696 N 0.48553 0.71669 0.86261
 H697 H 0.54647 0.74969 0.86645
 H698 H 0.48058 0.78173 0.85447
 H699 H 0.49907 0.81392 0.83068
 H700 H 0.56656 0.78186 0.84448
 H701 H 0.47087 0.69849 0.89258
 H702 H 0.45491 0.66600 0.86936
 H703 H 0.48076 0.70145 0.80525
 H704 H 0.49789 0.73225 0.83020
 C705 C 0.55981 0.70932 0.92478
 C706 C 0.43415 0.78277 0.91468
 C707 C 0.46631 0.68098 0.83517
 C708 C 0.53452 0.80084 0.83578
 C709 C 0.44132 -0.14897 0.33581
 C710 C 0.46225 -0.14892 0.34856
 C711 C 0.46859 -0.16938 0.36170
 C712 C 0.45400 -0.18962 0.36221
 C713 C 0.43316 -0.18929 0.34919
 C714 C 0.42673 -0.16906 0.33601
 C715 C 0.43451 -0.12760 0.32198
 C716 C 0.41362 -0.12782 0.30922
 C717 C 0.40718 -0.10757 0.29611
 C718 C 0.42140 -0.08709 0.29557
 C719 C 0.44225 -0.08704 0.30864
 C720 C 0.44894 -0.10737 0.32183
 C721 C 0.40597 -0.16857 0.32300
 C722 C 0.39952 -0.14828 0.30983
 C723 C 0.47630 -0.12837 0.34794
 C724 C 0.46975 -0.10795 0.33484
 H725 H 0.39459 -0.18399 0.32302
 H726 H 0.38335 -0.14862 0.30005
 H727 H 0.49248 -0.12805 0.35770
 H728 H 0.48108 -0.09251 0.33488
 H729 H 0.48461 -0.16946 0.37174
 H730 H 0.42207 -0.20492 0.34908
 H731 H 0.39085 -0.10762 0.28657
 H732 H 0.45332 -0.07138 0.30829
 C733 C 0.93811 0.35138 0.83736
 C734 C 0.96095 0.34902 0.84581
 C735 C 0.96703 0.32850 0.85898
 C736 C 0.95038 0.31028 0.86391
 C737 C 0.92745 0.31335 0.85510
 C738 C 0.92130 0.33368 0.84194
 C739 C 0.93166 0.37273 0.82330
 C740 C 0.90884 0.37483 0.81468
 C741 C 0.90276 0.39499 0.80126
 C742 C 0.91927 0.41308 0.79628
 C743 C 0.94208 0.41087 0.80526
 C744 C 0.94840 0.39060 0.81873
 C745 C 0.89862 0.33648 0.83302
 C746 C 0.89249 0.35672 0.81963
 C747 C 0.97725 0.36729 0.84094
 C748 C 0.97108 0.38771 0.82766
 H749 H 0.88549 0.32289 0.83640
 H750 H 0.87481 0.35817 0.81307
 H751 H 0.99496 0.36577 0.84741
 H752 H 0.98420 0.40132 0.82430
 H753 H 0.98453 0.32731 0.86598
 H754 H 0.91444 0.29947 0.85731
 H755 H 0.88502 0.39676 0.79493
 H756 H 0.95489 0.42470 0.80152
 C757 C 0.04883 1.14720 0.84632
 C758 C 0.06287 1.15533 0.86472
 C759 C 0.05771 1.17723 0.87522
 C760 C 0.03880 1.19150 0.86733
 C761 C 0.02437 1.18237 0.84931
 C762 C 0.02945 1.16041 0.83868
 C763 C 0.05510 1.12485 0.83424
 C764 C 0.04164 1.11715 0.81513
 C765 C 0.04872 1.09677 0.80260
 C766 C 0.06931 1.08458 0.80890
 C767 C 0.08200 1.09200 0.82871
 C768 C 0.07506 1.11218 0.84136
 C769 C 0.01599 1.15180 0.81993
 C770 C 0.02198 1.13055 0.80836
 C771 C 0.08220 1.14167 0.87191
 C772 C 0.08822 1.12047 0.86040
 H773 H 0.00093 1.16181 0.81386
 H774 H 0.01141 1.12482 0.79370
 H775 H 0.09309 1.14769 0.88622
 H776 H 0.10359 1.11076 0.86612
 H777 H 0.06838 1.18281 0.88985
 H778 H 0.01009 1.19286 0.84228
 H779 H 0.03902 1.09119 0.78725
 H780 H 0.09776 1.08251 0.83370
 C781 C 0.54779 0.64541 0.33989
 C782 C 0.53360 0.66255 0.32875
 C783 C 0.52953 0.68438 0.33996
 C784 C 0.53983 0.68924 0.36196
 C785 C 0.55375 0.67170 0.37303
 C786 C 0.55778 0.64974 0.36207
 C787 C 0.55287 0.62279 0.32776
 C788 C 0.56747 0.60587 0.33867
 C789 C 0.57320 0.58492 0.32655
 C790 C 0.56477 0.58103 0.30352
 C791 C 0.54968 0.59794 0.29309
 C792 C 0.54368 0.61888 0.30513
 C793 C 0.57194 0.63218 0.37262
 C794 C 0.57669 0.61061 0.36113
 C795 C 0.52423 0.65773 0.30638
 C796 C 0.52923 0.63629 0.29475
 H797 H 0.57968 0.63527 0.38976
 H798 H 0.58797 0.59769 0.36973
 H799 H 0.51324 0.67080 0.29762
 H800 H 0.52197 0.63345 0.27733
 H801 H 0.51900 0.69790 0.33124
 H802 H 0.56151 0.67523 0.39008
 H803 H 0.58513 0.57221 0.33454
 H804 H 0.54303 0.59500 0.27542
 C805 C 0.55388 0.34988 0.17256
 C806 C 0.56783 0.32939 0.17493
 C807 C 0.56211 0.30899 0.16229
 C808 C 0.54269 0.30893 0.14721
 C809 C 0.52854 0.32946 0.14540
 C810 C 0.53416 0.35009 0.15798
 C811 C 0.56038 0.37167 0.18518
 C812 C 0.54682 0.39242 0.18243
 C813 C 0.55377 0.41341 0.19368
 C814 C 0.57428 0.41366 0.20724
 C815 C 0.58720 0.39248 0.21033
 C816 C 0.58043 0.37150 0.19927
 C817 C 0.52076 0.37105 0.15598
 C818 C 0.52699 0.39185 0.16799
 C819 C 0.58746 0.32979 0.18960
 C820 C 0.59366 0.35051 0.20157
 H821 H 0.50548 0.37146 0.14483
 H822 H 0.51634 0.40769 0.16572
 H823 H 0.59830 0.31405 0.19161
 H824 H 0.60913 0.35019 0.21246
 H825 H 0.57283 0.29312 0.16414
 H826 H 0.51361 0.32957 0.13376
 H827 H 0.54382 0.42969 0.19116
 H828 H 0.60280 0.39248 0.22104
 C829 C 0.05019 0.86005 0.66470
 C830 C 0.03067 0.84694 0.67272
 C831 C 0.02603 0.82477 0.66251
 C832 C 0.04091 0.81542 0.64438
 C833 C 0.06009 0.82951 0.63628
 C834 C 0.06488 0.85155 0.64645
 C835 C 0.05561 0.88297 0.67588
 C836 C 0.07543 0.89578 0.66808
 C837 C 0.08101 0.91709 0.67923
 C838 C 0.06689 0.92589 0.69802
 C839 C 0.04684 0.91293 0.70545
 C840 C 0.04119 0.89139 0.69447
 C841 C 0.08432 0.86512 0.63883
 C842 C 0.08955 0.88683 0.64952
 C843 C 0.01645 0.85604 0.69120
 C844 C 0.02160 0.87788 0.70185
 H845 H 0.09576 0.85877 0.62468
 H846 H 0.10487 0.89661 0.64331
 H847 H 0.00130 0.84612 0.69760
 H848 H 0.01027 0.88413 0.71614
 H849 H 0.01154 0.81444 0.66976
 H850 H 0.07117 0.82383 0.62158
 H851 H 0.09681 0.92643 0.67369
 H852 H 0.03575 0.91953 0.71976
 C853 C 0.94012 0.65378 0.67436
 C854 C 0.92577 0.67407 0.67580
 C855 C 0.93254 0.69491 0.66360
 C856 C 0.95346 0.69560 0.64996
 C857 C 0.96798 0.67528 0.64913
 C858 C 0.96127 0.65420 0.66120
 C859 C 0.93254 0.63151 0.68640
 C860 C 0.94650 0.61096 0.68447
 C861 C 0.93862 0.58953 0.69510
 C862 C 0.91685 0.58868 0.70733
 C863 C 0.90351 0.60969 0.70967
 C864 C 0.91116 0.63107 0.69912
 C865 C 0.97500 0.63341 0.66004
 C866 C 0.96773 0.61216 0.67144
 C867 C 0.90473 0.67303 0.68909
 C868 C 0.89756 0.65189 0.70059
 H869 H 0.99138 0.63349 0.64998
 H870 H 0.97870 0.59647 0.66982
 H871 H 0.89357 0.68861 0.69039
 H872 H 0.88105 0.65174 0.71042
 H873 H 0.92149 0.71061 0.66461
 H874 H 0.98406 0.67569 0.63858
 H875 H 0.94892 0.57342 0.69313
 H876 H 0.88695 0.60928 0.71941
 C877 C 0.44090 0.15102 0.16790
 C878 C 0.42619 0.17103 0.16953
 C879 C 0.43251 0.19205 0.15741
 C880 C 0.45334 0.19320 0.14364
 C881 C 0.46816 0.17311 0.14253
 C882 C 0.46193 0.15188 0.15456
 C883 C 0.43387 0.12860 0.17999
 C884 C 0.44823 0.10834 0.17793
 C885 C 0.44087 0.08676 0.18864
 C886 C 0.41921 0.08548 0.20101
 C887 C 0.40548 0.10621 0.20348
 C888 C 0.41261 0.12774 0.19290
 C889 C 0.47605 0.13137 0.15323
 C890 C 0.46931 0.10997 0.16469
 C891 C 0.40529 0.16956 0.18301
 C892 C 0.39861 0.14827 0.19451
 H893 H 0.49233 0.13178 0.14303
 H894 H 0.48057 0.09451 0.16297
 H895 H 0.39386 0.18493 0.18445
 H896 H 0.38220 0.14778 0.20449
 H897 H 0.42124 0.20757 0.15868
 H898 H 0.48416 0.17386 0.13188
 H899 H 0.45147 0.07085 0.18662
 H900 H 0.38898 0.10543 0.21332
 C901 C 0.34180 0.44322 -0.14941
 C902 C 0.36179 0.42994 -0.15556
 C903 C 0.37310 0.43425 -0.17757
 C904 C 0.36479 0.45199 -0.19351
 C905 C 0.34485 0.46547 -0.18654
 C906 C 0.33322 0.46097 -0.16475
 C907 C 0.32931 0.43808 -0.12670
 C908 C 0.30869 0.45064 -0.12105
 C909 C 0.29622 0.44481 -0.10002
 C910 C 0.30444 0.42677 -0.08462
 C911 C 0.32552 0.41485 -0.09022
 C912 C 0.33789 0.42025 -0.11139
 C913 C 0.31281 0.47354 -0.15824
 C914 C 0.30070 0.46839 -0.13681
 C915 C 0.37001 0.41243 -0.13962
 C916 C 0.35830 0.40772 -0.11788
 H917 H 0.30597 0.48727 -0.16995
 H918 H 0.28486 0.47826 -0.13264
 H919 H 0.38551 0.40214 -0.14408
 H920 H 0.36510 0.39392 -0.10621
 H921 H 0.38881 0.42421 -0.18179
 H922 H 0.33741 0.47859 -0.19853
 H923 H 0.28002 0.45404 -0.09574
 H924 H 0.33170 0.40068 -0.07862
 C925 C 0.84507 0.94963 0.35384
 C926 C 0.86580 0.93752 0.34781
 C927 C 0.87733 0.94295 0.32615
 C928 C 0.86846 0.96059 0.31042
 C929 C 0.84787 0.97302 0.31738
 C930 C 0.83601 0.96739 0.33881
 C931 C 0.83226 0.94314 0.37604
 C932 C 0.81089 0.95443 0.38149
 C933 C 0.79813 0.94723 0.40192
 C934 C 0.80677 0.92907 0.41692
 C935 C 0.82858 0.91846 0.41159
 C936 C 0.84128 0.92524 0.39100
 C937 C 0.81487 0.97874 0.34517
 C938 C 0.80248 0.97229 0.36609
 C939 C 0.87446 0.91996 0.36343
 C940 C 0.86245 0.91398 0.38470
 H941 H 0.80766 0.99247 0.33370
 H942 H 0.78606 0.98122 0.37012
 H943 H 0.89054 0.91057 0.35906
 H944 H 0.86959 0.90014 0.39610
 H945 H 0.89355 0.93374 0.32198
 H946 H 0.84005 0.98606 0.30556
 H947 H 0.78136 0.95545 0.40601
 H948 H 0.83512 0.90421 0.42289
 C949 C 0.83146 0.05685 1.15076
 C950 C 0.83290 0.07423 1.16834
 C951 C 0.84609 0.06958 1.18864
 C952 C 0.85788 0.04758 1.19181
 C953 C 0.85582 0.03018 1.17391
 C954 C 0.84285 0.03484 1.15333
 C955 C 0.81779 0.06187 1.12922
 C956 C 0.81668 0.04471 1.11131
 C957 C 0.80386 0.04979 1.09069
 C958 C 0.79197 0.07169 1.08826
 C959 C 0.79328 0.08858 1.10648
 C960 C 0.80620 0.08382 1.12691
 C961 C 0.84123 0.01802 1.13511
 C962 C 0.82844 0.02290 1.11444
 C963 C 0.82103 0.09599 1.16536
 C964 C 0.80787 0.10069 1.14501
 H965 H 0.85000 0.00096 1.13680
 H966 H 0.82774 0.00947 1.10082
 H967 H 0.82194 0.10952 1.17887
 H968 H 0.79900 0.11770 1.14339
 H969 H 0.84624 0.08293 1.20235
 H970 H 0.86511 0.01340 1.17529
 H971 H 0.80291 0.03674 1.07672
 H972 H 0.78457 0.10566 1.10452
 C973 C 0.33443 0.55250 0.64692
 C974 C 0.33342 0.56696 0.66708
 C975 C 0.34683 0.56087 0.68683
 C976 C 0.36130 0.54052 0.68661
 C977 C 0.36199 0.52602 0.66632
 C978 C 0.34862 0.53203 0.64632
 C979 C 0.32041 0.55900 0.62601
 C980 C 0.32153 0.54477 0.60566
 C981 C 0.30833 0.55131 0.58570
 C982 C 0.29406 0.57184 0.58618
 C983 C 0.29322 0.58580 0.60683
 C984 C 0.30631 0.57949 0.62674
 C985 C 0.34918 0.51812 0.62570
 C986 C 0.33590 0.52439 0.60572
 C987 C 0.31902 0.58726 0.66714
 C988 C 0.30570 0.59343 0.64729
 H989 H 0.36004 0.50228 0.62497
 H990 H 0.33693 0.51322 0.59017
 H991 H 0.31810 0.59852 0.68264
 H992 H 0.29486 0.60929 0.64801
 H993 H 0.34580 0.57183 0.70255
 H994 H 0.37312 0.51036 0.66601
 H995 H 0.30905 0.54045 0.56990
 H996 H 0.28278 0.60194 0.60722
 C997 C 0.17529 0.55850 0.34944
 C998 C 0.17890 0.57251 0.32880
 C999 C 0.16740 0.56652 0.30795
 C1000 C 0.15228 0.54677 0.30760
 C1001 C 0.14919 0.53259 0.32832
 C1002 C 0.16059 0.53848 0.34938
 C1003 C 0.18672 0.56528 0.37166
 C1004 C 0.18272 0.55168 0.39252
 C1005 C 0.19286 0.55888 0.41386
 C1006 C 0.20662 0.57966 0.41431
 C1007 C 0.21097 0.59261 0.39305
 C1008 C 0.20098 0.58561 0.37173
 C1009 C 0.15732 0.52506 0.37049
 C1010 C 0.16817 0.53156 0.39169
 C1011 C 0.19366 0.59243 0.32948
 C1012 C 0.20453 0.59887 0.35060
 H1013 H 0.14606 0.50956 0.37070
 H1014 H 0.16494 0.52088 0.40762
 H1015 H 0.19663 0.60331 0.31363
 H1016 H 0.21556 0.61456 0.35047
 H1017 H 0.17016 0.57727 0.29196
 H1018 H 0.13748 0.51743 0.32819
 H1019 H 0.18937 0.54891 0.43019
 H1020 H 0.22186 0.60840 0.39321
 C1021 C 0.67457 0.05091 0.84822
 C1022 C 0.66394 0.02846 0.84714
 C1023 C 0.65248 0.02198 0.82626
 C1024 C 0.65096 0.03811 0.80670
 C1025 C 0.66212 0.06050 0.80833
 C1026 C 0.67396 0.06688 0.82884
 C1027 C 0.68625 0.05804 0.87020
 C1028 C 0.69686 0.08050 0.87112
 C1029 C 0.70721 0.08759 0.89221
 C1030 C 0.70648 0.07276 0.91267
 C1031 C 0.69632 0.04996 0.91130
 C1032 C 0.68616 0.04250 0.89003
 C1033 C 0.68510 0.08906 0.83033
 C1034 C 0.69645 0.09573 0.85109
 C1035 C 0.66462 0.01316 0.86717
 C1036 C 0.67543 0.02010 0.88826
 H1037 H 0.68488 0.10148 0.81539
 H1038 H 0.70463 0.11310 0.85160
 H1039 H 0.65646 -0.00422 0.86664
 H1040 H 0.67525 0.00788 0.90336
 H1041 H 0.64375 0.00489 0.82588
 H1042 H 0.66240 0.07284 0.79333
 H1043 H 0.71552 0.10490 0.89282
 H1044 H 0.69560 0.03841 0.92692
 C1045 C 0.67442 0.93487 0.65021
 C1046 C 0.66079 0.95568 0.65146
 C1047 C 0.64917 0.96118 0.67296
 C1048 C 0.65107 0.94592 0.69299
 C1049 C 0.66509 0.92531 0.69141
 C1050 C 0.67673 0.91967 0.67009
 C1051 C 0.68620 0.92864 0.62756
 C1052 C 0.69943 0.90758 0.62631
 C1053 C 0.70986 0.90124 0.60460
 C1054 C 0.70702 0.91562 0.58410
 C1055 C 0.69425 0.93705 0.58575
 C1056 C 0.68363 0.94357 0.60749
 C1057 C 0.69047 0.89897 0.66822
 C1058 C 0.70162 0.89302 0.64668
 C1059 C 0.65885 0.97036 0.63110
 C1060 C 0.67007 0.96441 0.60949
 H1061 H 0.69242 0.88716 0.68348
 H1062 H 0.71185 0.87676 0.64590
 H1063 H 0.64842 0.98648 0.63181
 H1064 H 0.66794 0.97611 0.59418
 H1065 H 0.63831 0.97700 0.67398
 H1066 H 0.66701 0.91370 0.70684
 H1067 H 0.71999 0.88491 0.60353
 H1068 H 0.69194 0.94813 0.57000
 C1069 C 0.17750 0.44315 0.15157
 C1070 C 0.16387 0.46398 0.15228
 C1071 C 0.15227 0.47004 0.17362
 C1072 C 0.15413 0.45527 0.19401
 C1073 C 0.16828 0.43472 0.19303
 C1074 C 0.17991 0.42852 0.17186
 C1075 C 0.18900 0.43617 0.12901
 C1076 C 0.20207 0.41499 0.12824
 C1077 C 0.21204 0.40782 0.10658
 C1078 C 0.20889 0.42152 0.08568
 C1079 C 0.19637 0.44312 0.08684
 C1080 C 0.18619 0.45045 0.10851
 C1081 C 0.19357 0.40774 0.17049
 C1082 C 0.20447 0.40107 0.14903
 C1083 C 0.16178 0.47805 0.13152
 C1084 C 0.17275 0.47141 0.11001
 H1085 H 0.19561 0.39636 0.18606
 H1086 H 0.21459 0.38473 0.14863
 H1087 H 0.15135 0.49420 0.13184
 H1088 H 0.17045 0.48261 0.09437
 H1089 H 0.14128 0.48580 0.17418
 H1090 H 0.17013 0.42349 0.20874
 H1091 H 0.22196 0.39134 0.10584
 H1092 H 0.19381 0.45366 0.07077
 C1093 C -0.15239 0.33051 0.44529
 C1094 C -0.15413 0.34267 0.46692
 C1095 C -0.17465 0.35558 0.47227
 C1096 C -0.19328 0.35632 0.45611
 C1097 C -0.19120 0.34373 0.43465
 C1098 C -0.17081 0.33094 0.42910
 C1099 C -0.13080 0.31717 0.43938
 C1100 C -0.12907 0.30530 0.41761
 C1101 C -0.10843 0.29304 0.41181
 C1102 C -0.08953 0.29234 0.42762
 C1103 C -0.09162 0.30426 0.44951
 C1104 C -0.11225 0.31676 0.45544
 C1105 C -0.16847 0.31865 0.40759
 C1106 C -0.14792 0.30610 0.40191
 C1107 C -0.13525 0.34177 0.48263
 C1108 C -0.11469 0.32902 0.47700
 H1109 H -0.18259 0.31886 0.39497
 H1110 H -0.14676 0.29698 0.38506
 H1111 H -0.13634 0.35104 0.49939
 H1112 H -0.10054 0.32887 0.48959
 H1113 H -0.17599 0.36530 0.48877
 H1114 H -0.20558 0.34370 0.42232
 H1115 H -0.10691 0.28453 0.39467
 H1116 H -0.07730 0.30377 0.46189
 C1117 C 0.35084 0.83648 0.93718
 C1118 C 0.34661 0.84434 0.96043
 C1119 C 0.32542 0.85607 0.96588
 C1120 C 0.30826 0.85988 0.94824
 C1121 C 0.31317 0.85152 0.92498
 C1122 C 0.33429 0.84009 0.91938
 C1123 C 0.37284 0.82382 0.93140
 C1124 C 0.37676 0.81574 0.90815
 C1125 C 0.39726 0.80313 0.90284
 C1126 C 0.41370 0.79806 0.92061
 C1127 C 0.40987 0.80681 0.94376
 C1128 C 0.38932 0.81967 0.94927
 C1129 C 0.33897 0.83188 0.89628
 C1130 C 0.35990 0.81998 0.89073
 C1131 C 0.36367 0.84023 0.97779
 C1132 C 0.38462 0.82807 0.97232
 H1133 H 0.32630 0.83460 0.88237
 H1134 H 0.36278 0.81380 0.87273
 H1135 H 0.36071 0.84626 0.99583
 H1136 H 0.39715 0.82506 0.98630
 H1137 H 0.32286 0.86275 0.98370
 H1138 H 0.30024 0.85272 0.91118
 H1139 H 0.40031 0.79695 0.88485
 H1140 H 0.42244 0.80297 0.95753
 C1141 C 1.14365 0.84062 0.04554
 C1142 C 1.15039 0.86054 0.05851
 C1143 C 1.17226 0.87099 0.05374
 C1144 C 1.18758 0.86182 0.03598
 C1145 C 1.17996 0.84214 0.02265
 C1146 C 1.15823 0.83135 0.02758
 C1147 C 1.12116 0.82882 0.05137
 C1148 C 1.11494 0.80816 0.03920
 C1149 C 1.09424 0.79617 0.04584
 C1150 C 1.07981 0.80483 0.06440
 C1151 C 1.08593 0.82604 0.07583
 C1152 C 1.10672 0.83796 0.06956
 C1153 C 1.15110 0.81102 0.01533
 C1154 C 1.12987 0.79956 0.02111
 C1155 C 1.13524 0.86944 0.07628
 C1156 C 1.11375 0.85837 0.08168
 H1157 H 1.16221 0.80366 0.00142
 H1158 H 1.12525 0.78370 0.01152
 H1159 H 1.14017 0.88492 0.08633
 H1160 H 1.10274 0.86561 0.09574
 H1161 H 1.17694 0.88669 0.06356
 H1162 H 1.19139 0.83412 0.00942
 H1163 H 1.08956 0.77989 0.03696
 H1164 H 1.07511 0.83257 0.09040
 C1165 C 0.64318 0.33231 0.54972
 C1166 C 0.64635 0.35500 0.55936
 C1167 C 0.66764 0.36692 0.55523
 C1168 C 0.68560 0.35633 0.54146
 C1169 C 0.68193 0.33376 0.53155
 C1170 C 0.66081 0.32159 0.53578
 C1171 C 0.62123 0.31926 0.55487
 C1172 C 0.61846 0.29617 0.54604
 C1173 C 0.59811 0.28333 0.55208
 C1174 C 0.58062 0.29346 0.56678
 C1175 C 0.58337 0.31692 0.57485
 C1176 C 0.60376 0.32982 0.56914
 C1177 C 0.65716 0.29869 0.52678
 C1178 C 0.63637 0.28617 0.53188
 C1179 C 0.62831 0.36513 0.57325
 C1180 C 0.60735 0.35277 0.57802
 H1181 H 0.67063 0.29024 0.51599
 H1182 H 0.63442 0.26841 0.52491
 H1183 H 0.63050 0.38265 0.58072
 H1184 H 0.59400 0.36111 0.58905
 H1185 H 0.67030 0.38437 0.56272
 H1186 H 0.69578 0.32539 0.52118
 H1187 H 0.59604 0.26532 0.54575
 H1188 H 0.57015 0.32468 0.58648
 C1189 C 0.34903 0.17106 0.55006
 C1190 C 0.32875 0.17506 0.56395
 C1191 C 0.30783 0.16401 0.55784
 C1192 C 0.30705 0.14876 0.53819
 C1193 C 0.32737 0.14545 0.52398
 C1194 C 0.34851 0.15650 0.52995
 C1195 C 0.37136 0.18175 0.55717
 C1196 C 0.39186 0.17731 0.54371
 C1197 C 0.41327 0.18666 0.55126
 C1198 C 0.41414 0.19994 0.57231
 C1199 C 0.39330 0.20472 0.58515
 C1200 C 0.37190 0.19563 0.57773
 C1201 C 0.36927 0.15282 0.51665
 C1202 C 0.39056 0.16306 0.52340
 C1203 C 0.32990 0.18957 0.58404
 C1204 C 0.35113 0.19967 0.59083
 H1205 H 0.36913 0.14168 0.50107
 H1206 H 0.40620 0.15950 0.51282
 H1207 H 0.31433 0.19283 0.59483
 H1208 H 0.35135 0.21044 0.60668
 H1209 H 0.29216 0.16699 0.56859
 H1210 H 0.32691 0.13367 0.50888
 H1211 H 0.42930 0.18288 0.54138
 H1212 H 0.39385 0.21522 0.60118
 C1213 C 0.85074 0.67406 0.06062
 C1214 C 0.83227 0.67288 0.07736
 C1215 C 0.81153 0.66135 0.07147
 C1216 C 0.80887 0.65085 0.04892
 C1217 C 0.82763 0.65280 0.03213
 C1218 C 0.84862 0.66416 0.03799
 C1219 C 0.87284 0.68567 0.06706
 C1220 C 0.89162 0.68643 0.05057
 C1221 C 0.91289 0.69681 0.05717
 C1222 C 0.91532 0.70622 0.08012
 C1223 C 0.89602 0.70586 0.09609
 C1224 C 0.87486 0.69547 0.08976
 C1225 C 0.86768 0.66552 0.02181
 C1226 C 0.88882 0.67642 0.02801
 C1227 C 0.83485 0.68322 0.09977
 C1228 C 0.85579 0.69436 0.10586
 H1229 H 0.86632 0.65794 0.00427
 H1230 H 0.90313 0.67688 0.01508
 H1231 H 0.82063 0.68253 0.11280
 H1232 H 0.85715 0.70192 0.12341
 H1233 H 0.79720 0.66148 0.08435
 H1234 H 0.82652 0.64453 0.01489
 H1235 H 0.92767 0.69695 0.04479
 H1236 H 0.89754 0.71354 0.11359
 C1237 C 0.65004 0.66966 0.94812
 C1238 C 0.65817 0.64967 0.93570
 C1239 C 0.68017 0.64014 0.94092
 C1240 C 0.69442 0.65075 0.95801
 C1241 C 0.68596 0.67086 0.97034
 C1242 C 0.66369 0.68029 0.96554
 C1243 C 0.62684 0.67971 0.94263
 C1244 C 0.61852 0.69962 0.95510
 C1245 C 0.59640 0.70913 0.94967
 C1246 C 0.58285 0.69901 0.93165
 C1247 C 0.59182 0.67920 0.91922
 C1248 C 0.61356 0.66935 0.92481
 C1249 C 0.65482 0.70021 0.97767
 C1250 C 0.63258 0.70964 0.97262
 C1251 C 0.64419 0.63962 0.91819
 C1252 C 0.62231 0.64940 0.91272
 H1253 H 0.66514 0.70859 0.99119
 H1254 H 0.62643 0.72501 0.98239
 H1255 H 0.65031 0.62420 0.90847
 H1256 H 0.61215 0.64124 0.89894
 H1257 H 0.68610 0.62433 0.93173
 H1258 H 0.69678 0.67936 0.98337
 H1259 H 0.58977 0.72428 0.95946
 H1260 H 0.58214 0.67165 0.90476
 C1261 C 0.14551 0.16834 0.44705
 C1262 C 0.14841 0.14467 0.43976
 C1263 C 0.17001 0.13326 0.44321
 C1264 C 0.18848 0.14532 0.45406
 C1265 C 0.18515 0.16893 0.46157
 C1266 C 0.16375 0.18061 0.45792
 C1267 C 0.12313 0.18070 0.44272
 C1268 C 0.12056 0.20467 0.44912
 C1269 C 0.09971 0.21671 0.44378
 C1270 C 0.08149 0.20488 0.43225
 C1271 C 0.08407 0.18062 0.42667
 C1272 C 0.10497 0.16850 0.43163
 C1273 C 0.16033 0.20442 0.46459
 C1274 C 0.13914 0.21627 0.46018
 C1275 C 0.12973 0.13297 0.42899
 C1276 C 0.10836 0.14467 0.42504
 H1277 H 0.17427 0.21406 0.47300
 H1278 H 0.13736 0.23474 0.46526
 H1279 H 0.13171 0.11468 0.42338
 H1280 H 0.09449 0.13507 0.41646
 H1281 H 0.17243 0.11501 0.43762
 H1282 H 0.19940 0.17835 0.46975
 H1283 H 0.09777 0.23537 0.44814
 H1284 H 0.07027 0.17153 0.41744
 C1285 C 0.58307 0.10189 0.71193
 C1286 C 0.60403 0.10650 0.72366
 C1287 C 0.61534 0.08785 0.73571
 C1288 C 0.60561 0.06477 0.73655
 C1289 C 0.58456 0.06051 0.72458
 C1290 C 0.57330 0.07896 0.71213
 C1291 C 0.57105 0.12148 0.69931
 C1292 C 0.55023 0.11681 0.68731
 C1293 C 0.53898 0.13547 0.67519
 C1294 C 0.54823 0.15869 0.67536
 C1295 C 0.56899 0.16311 0.68766
 C1296 C 0.58060 0.14451 0.69951
 C1297 C 0.55237 0.07501 0.70004
 C1298 C 0.54109 0.09359 0.68775
 C1299 C 0.61317 0.12972 0.72325
 C1300 C 0.60160 0.14843 0.71147
 H1301 H 0.54466 0.05740 0.70004
 H1302 H 0.52502 0.08977 0.67860
 H1303 H 0.62934 0.13351 0.73225
 H1304 H 0.60918 0.16609 0.71169
 H1305 H 0.63174 0.09133 0.74440
 H1306 H 0.57666 0.04298 0.72533
 H1307 H 0.52290 0.13206 0.66586
 H1308 H 0.57628 0.18092 0.68761
 C1309 C 1.08557 0.61268 0.21291
 C1310 C 1.07762 0.58934 0.20991
 C1311 C 1.08848 0.57057 0.22225
 C1312 C 1.10733 0.57484 0.23770
 C1313 C 1.11511 0.59865 0.24007
 C1314 C 1.10427 0.61750 0.22788
 C1315 C 1.07404 0.63250 0.20015
 C1316 C 1.08198 0.65590 0.20322
 C1317 C 1.07092 0.67468 0.19110
 C1318 C 1.05216 0.67016 0.17590
 C1319 C 1.04443 0.64657 0.17304
 C1320 C 1.05530 0.62767 0.18516
 C1321 C 1.11184 0.64113 0.23037
 C1322 C 1.10086 0.66001 0.21828
 C1323 C 1.05874 0.58521 0.19480
 C1324 C 1.04779 0.60405 0.18261
 H1325 H 1.12633 0.64509 0.24185
 H1326 H 1.10719 0.67796 0.22076
 H1327 H 1.05238 0.56726 0.19236
 H1328 H 1.03333 0.60009 0.17112
 H1329 H 1.08134 0.55286 0.22049
 H1330 H 1.13014 0.60272 0.25072
 H1331 H 1.07714 0.69275 0.19317
 H1332 H 1.02981 0.64297 0.16160
 C1333 C 0.93340 0.89332 0.21508
 C1334 C 0.91704 0.90788 0.20342
 C1335 C 0.90669 0.92687 0.21568
 C1336 C 0.91238 0.93118 0.23951
 C1337 C 0.92884 0.91642 0.25094
 C1338 C 0.93948 0.89750 0.23876
 C1339 C 0.94417 0.87317 0.20233
 C1340 C 0.96057 0.85862 0.21394
 C1341 C 0.97056 0.83930 0.20179
 C1342 C 0.96392 0.83436 0.17835
 C1343 C 0.94756 0.84925 0.16696
 C1344 C 0.93767 0.86872 0.17884
 C1345 C 0.95600 0.88260 0.24978
 C1346 C 0.96641 0.86353 0.23756
 C1347 C 0.91120 0.90300 0.17981
 C1348 C 0.92131 0.88372 0.16774
 H1349 H 0.96089 0.88567 0.26802
 H1350 H 0.97902 0.85244 0.24673
 H1351 H 0.89860 0.91410 0.17063
 H1352 H 0.91621 0.88047 0.14959
 H1353 H 0.89384 0.93801 0.20689
 H1354 H 0.93343 0.91979 0.26922
 H1355 H 0.98302 0.82779 0.21068
 H1356 H 0.94262 0.84571 0.14882
 C1357 C 0.42991 0.38282 0.71202
 C1358 C 0.41429 0.39783 0.69989
 C1359 C 0.40371 0.41679 0.71202
 C1360 C 0.40851 0.42066 0.73615
 C1361 C 0.42418 0.40540 0.74807
 C1362 C 0.43502 0.38648 0.73604
 C1363 C 0.44100 0.36279 0.69936
 C1364 C 0.45668 0.34778 0.71144
 C1365 C 0.46695 0.32856 0.69936
 C1366 C 0.46131 0.32417 0.67552
 C1367 C 0.44571 0.33955 0.66366
 C1368 C 0.43554 0.35890 0.67547
 C1369 C 0.45084 0.37114 0.74752
 C1370 C 0.46152 0.35215 0.73542
 C1371 C 0.40945 0.39350 0.67592
 C1372 C 0.41986 0.37433 0.66393
 H1373 H 0.45496 0.37381 0.76604
 H1374 H 0.47355 0.34070 0.74495
 H1375 H 0.39742 0.40495 0.66638
 H1376 H 0.41555 0.37152 0.64548
 H1377 H 0.39147 0.42831 0.70282
 H1378 H 0.42812 0.40845 0.76657
 H1379 H 0.47881 0.31667 0.70861
 H1380 H 0.44155 0.33645 0.64522
 C1381 C 0.42621 0.60518 0.78097
 C1382 C 0.40573 0.59394 0.78956
 C1383 C 0.39645 0.57499 0.77685
 C1384 C 0.40724 0.56771 0.75549
 C1385 C 0.42755 0.57929 0.74687
 C1386 C 0.43731 0.59793 0.75974
 C1387 C 0.43626 0.62488 0.79449
 C1388 C 0.45706 0.63574 0.78628
 C1389 C 0.46682 0.65411 0.79955
 C1390 C 0.45571 0.66192 0.82069
 C1391 C 0.43450 0.65110 0.82825
 C1392 C 0.42491 0.63240 0.81544
 C1393 C 0.45796 0.60940 0.75193
 C1394 C 0.46774 0.62789 0.76506
 C1395 C 0.39491 0.60192 0.81064
 C1396 C 0.40427 0.62094 0.82328
 H1397 H 0.46671 0.60393 0.73563
 H1398 H 0.48378 0.63614 0.75850
 H1399 H 0.37906 0.59345 0.81738
 H1400 H 0.39537 0.62658 0.83945
 H1401 H 0.38069 0.56608 0.78330
 H1402 H 0.43579 0.57355 0.73038
 H1403 H 0.48326 0.66196 0.79362
 H1404 H 0.42537 0.65724 0.84408
 C1405 C -0.07178 0.11633 0.27948
 C1406 C -0.05869 0.09590 0.27382
 C1407 C -0.06976 0.07688 0.26270
 C1408 C -0.09361 0.07840 0.25695
 C1409 C -0.10641 0.09912 0.26247
 C1410 C -0.09562 0.11808 0.27396
 C1411 C -0.06036 0.13617 0.29165
 C1412 C -0.07359 0.15630 0.29793
 C1413 C -0.06284 0.17477 0.31019
 C1414 C -0.03892 0.17338 0.31597
 C1415 C -0.02582 0.15323 0.30896
 C1416 C -0.03651 0.13448 0.29706
 C1417 C -0.10821 0.13865 0.28024
 C1418 C -0.09741 0.15739 0.29212
 C1419 C -0.03483 0.09490 0.27942
 C1420 C -0.02390 0.11391 0.29075
 H1421 H -0.12661 0.14020 0.27610
 H1422 H -0.10780 0.17285 0.29684
 H1423 H -0.02453 0.07928 0.27506
 H1424 H -0.00548 0.11239 0.29483
 H1425 H -0.05983 0.06102 0.25826
 H1426 H -0.12482 0.10024 0.25820
 H1427 H -0.07329 0.18988 0.31579
 H1428 H -0.00734 0.15205 0.31285
 C1429 C 0.08086 0.39050 0.28650
 C1430 C 0.06872 0.41156 0.28087
 C1431 C 0.08080 0.43037 0.26949
 C1432 C 0.10468 0.42796 0.26336
 C1433 C 0.11658 0.40671 0.26907
 C1434 C 0.10479 0.38797 0.28083
 C1435 C 0.06828 0.37068 0.29851
 C1436 C 0.08051 0.34980 0.30452
 C1437 C 0.06856 0.33116 0.31628
 C1438 C 0.04440 0.33306 0.32172
 C1439 C 0.03237 0.35408 0.31516
 C1440 C 0.04427 0.37301 0.30379
 C1441 C 0.11641 0.36674 0.28700
 C1442 C 0.10450 0.34803 0.29876
 C1443 C 0.04471 0.41328 0.28653
 C1444 C 0.03267 0.39429 0.29770
 H1445 H 0.13487 0.36460 0.28277
 H1446 H 0.11413 0.33199 0.30329
 H1447 H 0.03513 0.42940 0.28222
 H1448 H 0.01415 0.39633 0.30171
 H1449 H 0.07158 0.44665 0.26490
 H1450 H 0.13502 0.40490 0.26446
 H1451 H 0.07822 0.31539 0.32158
 H1452 H 0.01375 0.35572 0.31880
 C1453 C 0.58196 0.87915 0.78792
 C1454 C 0.57254 0.90222 0.78938
 C1455 C 0.58405 0.92113 0.77752
 C1456 C 0.60501 0.91715 0.76448
 C1457 C 0.61442 0.89389 0.76371
 C1458 C 0.60284 0.87483 0.77514
 C1459 C 0.56967 0.85911 0.79991
 C1460 C 0.57890 0.83600 0.79810
 C1461 C 0.56710 0.81699 0.80941
 C1462 C 0.54641 0.82096 0.82291
 C1463 C 0.53748 0.84437 0.82454
 C1464 C 0.54894 0.86345 0.81294
 C1465 C 0.61164 0.85147 0.77389
 C1466 C 0.59981 0.83237 0.78507
 C1467 C 0.55168 0.90585 0.80251
 C1468 C 0.54015 0.88682 0.81418
 H1469 H 0.62774 0.84790 0.76405
 H1470 H 0.60715 0.81463 0.78358
 H1471 H 0.54422 0.92355 0.80381
 H1472 H 0.52415 0.89041 0.82417
 H1473 H 0.57640 0.93880 0.77803
 H1474 H 0.63076 0.89058 0.75420
 H1475 H 0.57400 0.79911 0.80758
 H1476 H 0.52186 0.84785 0.83516
 C1477 C 0.71357 0.58357 0.11313
 C1478 C 0.73810 0.58279 0.11327
 C1479 C 0.75084 0.59381 0.09465
 C1480 C 0.73934 0.60547 0.07562
 C1481 C 0.71454 0.60553 0.07571
 C1482 C 0.70165 0.59489 0.09451
 C1483 C 0.70011 0.57235 0.13294
 C1484 C 0.67556 0.57356 0.13308
 C1485 C 0.66286 0.56307 0.15207
 C1486 C 0.67452 0.55105 0.17067
 C1487 C 0.69920 0.54991 0.17005
 C1488 C 0.71206 0.56068 0.15135
 C1489 C 0.67704 0.59562 0.09521
 C1490 C 0.66422 0.58522 0.11422
 C1491 C 0.74945 0.57094 0.13201
 C1492 C 0.73665 0.55999 0.15068
 H1493 H 0.66759 0.60439 0.08100
 H1494 H 0.64528 0.58626 0.11410
 H1495 H 0.76840 0.57012 0.13225
 H1496 H 0.74609 0.55102 0.16477
 H1497 H 0.76975 0.59237 0.09468
 H1498 H 0.70510 0.61485 0.06185
 H1499 H 0.64394 0.56449 0.15245
 H1500 H 0.70843 0.54039 0.18393
 C1501 C 0.21275 1.08246 0.60786
 C1502 C 0.20064 1.09444 0.58976
 C1503 C 0.21329 1.10456 0.57057
 C1504 C 0.23789 1.10255 0.56925
 C1505 C 0.24973 1.09030 0.58753
 C1506 C 0.23725 1.08033 0.60694
 C1507 C 0.19954 1.07198 0.62820
 C1508 C 0.21165 1.06018 0.64643
 C1509 C 0.19900 1.05039 0.66582
 C1510 C 0.17436 1.05215 0.66695
 C1511 C 0.16254 1.06393 0.64835
 C1512 C 0.17503 1.07398 0.62903
 C1513 C 0.24876 1.06830 0.62546
 C1514 C 0.23619 1.05845 0.64491
 C1515 C 0.17611 1.09613 0.59124
 C1516 C 0.16351 1.08600 0.61051
 H1517 H 0.26767 1.06654 0.62496
 H1518 H 0.24575 1.04938 0.65885
 H1519 H 0.16656 1.10532 0.57737
 H1520 H 0.14460 1.08767 0.61096
 H1521 H 0.20400 1.11428 0.55685
 H1522 H 0.26860 1.08832 0.58656
 H1523 H 0.20833 1.04166 0.68013
 H1524 H 0.14359 1.06503 0.64874
 C1525 C 0.21344 0.92433 0.88229
 C1526 C 0.21397 0.93579 0.90433
 C1527 C 0.22627 0.92520 0.92311
 C1528 C 0.23805 0.90339 0.91989
 C1529 C 0.23725 0.89212 0.89766
 C1530 C 0.22496 0.90251 0.87880
 C1531 C 0.20062 0.93543 0.86245
 C1532 C 0.20000 0.92395 0.84042
 C1533 C 0.18778 0.93461 0.82162
 C1534 C 0.17635 0.95664 0.82474
 C1535 C 0.17715 0.96786 0.84699
 C1536 C 0.18924 0.95733 0.86591
 C1537 C 0.22396 0.89155 0.85651
 C1538 C 0.21168 0.90208 0.83765
 C1539 C 0.20230 0.95766 0.90711
 C1540 C 0.19015 0.96825 0.88822
 H1541 H 0.23277 0.87469 0.85361
 H1542 H 0.21136 0.89304 0.82075
 H1543 H 0.20259 0.96668 0.92403
 H1544 H 0.18140 0.98514 0.89109
 H1545 H 0.22700 0.93409 0.94008
 H1546 H 0.24603 0.87518 0.89515
 H1547 H 0.18742 0.92596 0.80450
 H1548 H 0.16810 0.98462 0.84966
 C1549 C 0.71620 0.42834 0.38950
 C1550 C 0.71565 0.43871 0.41209
 C1551 C 0.72751 0.42747 0.43084
 C1552 C 0.73972 0.40593 0.42711
 C1553 C 0.74003 0.39584 0.40427
 C1554 C 0.72838 0.40700 0.38541
 C1555 C 0.70353 0.43989 0.36979
 C1556 C 0.70392 0.42936 0.34729
 C1557 C 0.69145 0.44009 0.32875
 C1558 C 0.67837 0.46106 0.33262
 C1559 C 0.67848 0.47159 0.35525
 C1560 C 0.69102 0.46105 0.37392
 C1561 C 0.72850 0.39711 0.36259
 C1562 C 0.71652 0.40813 0.34383
 C1563 C 0.70316 0.46003 0.41549
 C1564 C 0.69102 0.47099 0.39674
 H1565 H 0.73787 0.38066 0.35921
 H1566 H 0.71695 0.39985 0.32652
 H1567 H 0.70261 0.46824 0.43283
 H1568 H 0.68145 0.48731 0.40018
 H1569 H 0.72737 0.43554 0.44825
 H1570 H 0.74899 0.37908 0.40126
 H1571 H 0.69182 0.43204 0.31133
 H1572 H 0.66829 0.48757 0.35850
 C1573 C 0.77752 0.41939 0.61343
 C1574 C 0.75363 0.42419 0.61024
 C1575 C 0.74207 0.41372 0.59121
 C1576 C 0.75433 0.39877 0.57533
 C1577 C 0.77825 0.39406 0.57891
 C1578 C 0.78993 0.40429 0.59795
 C1579 C 0.78985 0.43059 0.63320
 C1580 C 0.81375 0.42585 0.63630
 C1581 C 0.82548 0.43676 0.65490
 C1582 C 0.81359 0.45257 0.67024
 C1583 C 0.78952 0.45696 0.66698
 C1584 C 0.77757 0.44600 0.64847
 C1585 C 0.81380 0.39985 0.60174
 C1586 C 0.82550 0.41041 0.62062
 C1587 C 0.74187 0.43955 0.62600
 C1588 C 0.75364 0.45029 0.64477
 H1589 H 0.82355 0.38819 0.58995
 H1590 H 0.84394 0.40659 0.62286
 H1591 H 0.72344 0.44340 0.62373
 H1592 H 0.74395 0.46212 0.65642
 H1593 H 0.72371 0.41760 0.58842
 H1594 H 0.78772 0.38234 0.56693
 H1595 H 0.84386 0.43286 0.65749
 H1596 H 0.78024 0.46924 0.67850
 C1597 C 0.28120 -0.07780 0.10580
 C1598 C 0.26770 -0.09837 0.10982
 C1599 C 0.25632 -0.10873 0.09065
 C1600 C 0.25809 -0.09848 0.06763
 C1601 C 0.27173 -0.07779 0.06398
 C1602 C 0.28340 -0.06746 0.08297
 C1603 C 0.29330 -0.06690 0.12588
 C1604 C 0.30708 -0.04652 0.12178
 C1605 C 0.31885 -0.03645 0.14084
 C1606 C 0.31673 -0.04650 0.16389
 C1607 C 0.30258 -0.06673 0.16777
 C1608 C 0.29095 -0.07713 0.14876
 C1609 C 0.29719 -0.04695 0.07962
 C1610 C 0.30889 -0.03670 0.09868
 C1611 C 0.26583 -0.10815 0.13294
 C1612 C 0.27720 -0.09767 0.15209
 H1613 H 0.29902 -0.03880 0.06209
 H1614 H 0.31944 -0.02096 0.09530
 H1615 H 0.25545 -0.12401 0.13628
 H1616 H 0.27529 -0.10576 0.16964
 H1617 H 0.24625 -0.12486 0.09364
 H1618 H 0.27296 -0.06953 0.04646
 H1619 H 0.32956 -0.02074 0.13783
 H1620 H 0.30109 -0.07466 0.18543
 C1621 C 0.27789 0.07390 0.38360
 C1622 C 0.26664 0.09577 0.37930
 C1623 C 0.25572 0.10761 0.39830
 C1624 C 0.25600 0.09776 0.42150
 C1625 C 0.26731 0.07574 0.42546
 C1626 C 0.27830 0.06374 0.40656
 C1627 C 0.28971 0.06155 0.36372
 C1628 C 0.30121 0.03981 0.36803
 C1629 C 0.31301 0.02850 0.34916
 C1630 C 0.31351 0.03895 0.32620
 C1631 C 0.30144 0.06052 0.32216
 C1632 C 0.28960 0.07193 0.34085
 C1633 C 0.28978 0.04184 0.41015
 C1634 C 0.30104 0.03008 0.39122
 C1635 C 0.26669 0.10545 0.35611
 C1636 C 0.27798 0.09373 0.33720
 H1637 H 0.29018 0.03378 0.42778
 H1638 H 0.30984 0.01332 0.39480
 H1639 H 0.25805 0.12230 0.35256
 H1640 H 0.27776 0.10190 0.31962
 H1641 H 0.24733 0.12468 0.39512
 H1642 H 0.26736 0.06786 0.44318
 H1643 H 0.32244 0.01204 0.35248
 H1644 H 0.30146 0.06852 0.30449
 C1645 C 0.78639 0.58271 0.89140
 C1646 C 0.78087 0.60696 0.88845
 C1647 C 0.77045 0.61925 0.90747
 C1648 C 0.76590 0.60751 0.92936
 C1649 C 0.77203 0.58335 0.93219
 C1650 C 0.78206 0.57078 0.91316
 C1651 C 0.79664 0.56950 0.87121
 C1652 C 0.80162 0.54513 0.87397
 C1653 C 0.81119 0.53260 0.85467
 C1654 C 0.81623 0.54435 0.83280
 C1655 C 0.81113 0.56889 0.83047
 C1656 C 0.80117 0.58147 0.84953
 C1657 C 0.78745 0.54642 0.91530
 C1658 C 0.79698 0.53379 0.89601
 C1659 C 0.78563 0.61832 0.86646
 C1660 C 0.79573 0.60583 0.84737
 H1661 H 0.78413 0.53699 0.93198
 H1662 H 0.80078 0.51500 0.89838
 H1663 H 0.78150 0.63703 0.86397
 H1664 H 0.79915 0.61528 0.83073
 H1665 H 0.76576 0.63787 0.90528
 H1666 H 0.76822 0.57419 0.94894
 H1667 H 0.81461 0.51370 0.85668
 H1668 H 0.81530 0.57834 0.81401
 C1669 C 0.10994 0.71873 0.58342
 C1670 C 0.10637 0.74290 0.57780
 C1671 C 0.08767 0.75506 0.58869
 C1672 C 0.07250 0.74317 0.60493
 C1673 C 0.07628 0.71891 0.61030
 C1674 C 0.09506 0.70662 0.59966
 C1675 C 0.12957 0.70585 0.57200
 C1676 C 0.13322 0.68173 0.57770
 C1677 C 0.15190 0.66955 0.56678
 C1678 C 0.16674 0.68124 0.55003
 C1679 C 0.16277 0.70548 0.54455
 C1680 C 0.14426 0.71789 0.55554
 C1681 C 0.09930 0.68247 0.60493
 C1682 C 0.11809 0.67025 0.59418
 C1683 C 0.12148 0.75437 0.56132
 C1684 C 0.14008 0.74206 0.55034
 H1685 H 0.08799 0.67293 0.61746
 H1686 H 0.12074 0.65163 0.59873
 H1687 H 0.11888 0.77301 0.55682
 H1688 H 0.15129 0.75155 0.53768
 H1689 H 0.08467 0.77366 0.58426
 H1690 H 0.06476 0.70973 0.62292
 H1691 H 0.15498 0.65104 0.57149
 H1692 H 0.17382 0.71461 0.53148
 C1693 C 0.60955 0.21633 1.07677
 C1694 C 0.61322 0.22828 1.09815
 C1695 C 0.59443 0.24019 1.10914
 C1696 C 0.57213 0.24055 1.09873
 C1697 C 0.56887 0.22856 1.07715
 C1698 C 0.58747 0.21627 1.06621
 C1699 C 0.62919 0.20351 1.06530
 C1700 C 0.62539 0.19112 1.04418
 C1701 C 0.64400 0.17854 1.03362
 C1702 C 0.66630 0.17859 1.04389
 C1703 C 0.66992 0.19141 1.06484
 C1704 C 0.65134 0.20374 1.07576
 C1705 C 0.58442 0.20391 1.04492
 C1706 C 0.60304 0.19146 1.03414
 C1707 C 0.63561 0.22804 1.10813
 C1708 C 0.65437 0.21606 1.09707
 H1709 H 0.56746 0.20374 1.03659
 H1710 H 0.59991 0.18201 1.01783
 H1711 H 0.63866 0.23723 1.12461
 H1712 H 0.67135 0.21632 1.10535
 H1713 H 0.59712 0.24893 1.12594
 H1714 H 0.55196 0.22899 1.06872
 H1715 H 0.64123 0.16880 1.01739
 H1716 H 0.68702 0.19126 1.07292
 C1717 C 0.88928 0.21366 0.93442
 C1718 C 0.89175 0.23787 0.93978
 C1719 C 0.90996 0.25099 0.92883
 C1720 C 0.92566 0.23998 0.91275
 C1721 C 0.92311 0.21560 0.90787
 C1722 C 0.90486 0.20239 0.91854
 C1723 C 0.86978 0.19995 0.94534
 C1724 C 0.86695 0.17592 0.93944
 C1725 C 0.84796 0.16317 0.94926
 C1726 C 0.83193 0.17425 0.96493
 C1727 C 0.83529 0.19822 0.97106
 C1728 C 0.85411 0.21123 0.96113
 C1729 C 0.90167 0.17821 0.91339
 C1730 C 0.88300 0.16522 0.92362
 C1731 C 0.87584 0.24850 0.95580
 C1732 C 0.85737 0.23540 0.96634
 H1733 H 0.91357 0.16932 0.90116
 H1734 H 0.88102 0.14667 0.91900
 H1735 H 0.87759 0.26715 0.96013
 H1736 H 0.84540 0.24431 0.97848
 H1737 H 0.91198 0.26970 0.93281
 H1738 H 0.93499 0.20711 0.89531
 H1739 H 0.84560 0.14464 0.94470
 H1740 H 0.82287 0.20688 0.98294
 C1741 C 0.39209 0.71620 0.43577
 C1742 C 0.39506 0.74051 0.44036
 C1743 C 0.41354 0.75290 0.42903
 C1744 C 0.42900 0.74107 0.41330
 C1745 C 0.42598 0.71659 0.40923
 C1746 C 0.40746 0.70410 0.42031
 C1747 C 0.37223 0.70327 0.44699
 C1748 C 0.36888 0.67914 0.44180
 C1749 C 0.34951 0.66716 0.45179
 C1750 C 0.33355 0.67910 0.46689
 C1751 C 0.33746 0.70314 0.47239
 C1752 C 0.35671 0.71539 0.46229
 C1753 C 0.40376 0.67984 0.41590
 C1754 C 0.38477 0.66758 0.42644
 C1755 C 0.37932 0.75199 0.45596
 C1756 C 0.36049 0.73963 0.46678
 H1757 H 0.41551 0.67031 0.40402
 H1758 H 0.38239 0.64895 0.42237
 H1759 H 0.38146 0.77072 0.45970
 H1760 H 0.34866 0.74919 0.47854
 H1761 H 0.41591 0.77169 0.43239
 H1762 H 0.43763 0.70746 0.39692
 H1763 H 0.34673 0.64857 0.44773
 H1764 H 0.32513 0.71245 0.48385
 C1765 C 0.61310 0.78339 0.42041
 C1766 C 0.59102 0.78573 0.43153
 C1767 C 0.57170 0.77420 0.42189
 C1768 C 0.57424 0.76059 0.40109
 C1769 C 0.59656 0.75864 0.39007
 C1770 C 0.61607 0.76987 0.39975
 C1771 C 0.63351 0.79534 0.43060
 C1772 C 0.65567 0.79281 0.41964
 C1773 C 0.67501 0.80429 0.42940
 C1774 C 0.67214 0.81850 0.44970
 C1775 C 0.64980 0.82077 0.46047
 C1776 C 0.63044 0.80914 0.45107
 C1777 C 0.63849 0.76783 0.38921
 C1778 C 0.65797 0.77904 0.39903
 C1779 C 0.58870 0.79952 0.45211
 C1780 C 0.60806 0.81110 0.46167
 H1781 H 0.64102 0.75743 0.37327
 H1782 H 0.67494 0.77699 0.39036
 H1783 H 0.57174 0.80146 0.46086
 H1784 H 0.60550 0.82166 0.47750
 H1785 H 0.55478 0.77551 0.43082
 H1786 H 0.59874 0.74856 0.37388
 H1787 H 0.69215 0.80265 0.42095
 H1788 H 0.64757 0.83149 0.47626
 C1789 C 0.10924 0.28847 -0.07801
 C1790 C 0.08713 0.29062 -0.06688
 C1791 C 0.06792 0.27881 -0.07645
 C1792 C 0.07066 0.26505 -0.09712
 C1793 C 0.09292 0.26356 -0.10832
 C1794 C 0.11230 0.27503 -0.09871
 C1795 C 0.12961 0.30036 -0.06769
 C1796 C 0.15181 0.29784 -0.07858
 C1797 C 0.17116 0.30903 -0.06856
 C1798 C 0.16831 0.32292 -0.04804
 C1799 C 0.14591 0.32531 -0.03740
 C1800 C 0.12651 0.31395 -0.04708
 C1801 C 0.13472 0.27313 -0.10925
 C1802 C 0.15416 0.28428 -0.09931
 C1803 C 0.08475 0.30431 -0.04623
 C1804 C 0.10409 0.31585 -0.03654
 H1805 H 0.13731 0.26280 -0.12523
 H1806 H 0.17116 0.28226 -0.10792
 H1807 H 0.06779 0.30612 -0.03747
 H1808 H 0.10149 0.32626 -0.02062
 H1809 H 0.05100 0.27986 -0.06747
 H1810 H 0.09520 0.25343 -0.12447
 H1811 H 0.18833 0.30734 -0.07693
 H1812 H 0.14368 0.33581 -0.02147
 C1813 C 0.39178 0.28529 0.06893
 C1814 C 0.39554 0.26089 0.06526
 C1815 C 0.41376 0.24931 0.07720
 C1816 C 0.42820 0.26199 0.09265
 C1817 C 0.42444 0.28655 0.09579
 C1818 C 0.40614 0.29826 0.08409
 C1819 C 0.37214 0.29739 0.05706
 C1820 C 0.36798 0.32162 0.06132
 C1821 C 0.34880 0.33282 0.05072
 C1822 C 0.33383 0.32001 0.03592
 C1823 C 0.33857 0.29587 0.03133
 C1824 C 0.35763 0.28440 0.04205
 C1825 C 0.40165 0.32259 0.08755
 C1826 C 0.38286 0.33406 0.07639
 C1827 C 0.38082 0.24853 0.04994
 C1828 C 0.36222 0.26009 0.03849
 H1829 H 0.41261 0.33279 0.09918
 H1830 H 0.37985 0.35278 0.07975
 H1831 H 0.38359 0.22971 0.04690
 H1832 H 0.35118 0.24986 0.02697
 H1833 H 0.41675 0.23045 0.07452
 H1834 H 0.43534 0.29634 0.10782
 H1835 H 0.34538 0.35150 0.05406
 H1836 H 0.32701 0.28592 0.02008
 C1837 C 0.89317 0.78562 0.57170
 C1838 C 0.89712 0.76115 0.56862
 C1839 C 0.91508 0.74990 0.58129
 C1840 C 0.92907 0.76298 0.59683
 C1841 C 0.92512 0.78758 0.59937
 C1842 C 0.90707 0.79896 0.58697
 C1843 C 0.87382 0.79738 0.55905
 C1844 C 0.86942 0.82167 0.56273
 C1845 C 0.85046 0.83256 0.55143
 C1846 C 0.83596 0.81938 0.53650
 C1847 C 0.84095 0.79519 0.53245
 C1848 C 0.85978 0.78402 0.54390
 C1849 C 0.90239 0.82334 0.58983
 C1850 C 0.88384 0.83449 0.57796
 C1851 C 0.88288 0.74842 0.55315
 C1852 C 0.86456 0.75967 0.54096
 H1853 H 0.91299 0.83383 0.60155
 H1854 H 0.88064 0.85326 0.58088
 H1855 H 0.88581 0.72955 0.55057
 H1856 H 0.85388 0.74915 0.52934
 H1857 H 0.91821 0.73100 0.57908
 H1858 H 0.93568 0.79768 0.61146
 H1859 H 0.84682 0.85126 0.55437
 H1860 H 0.82973 0.78496 0.52109
   
