data_POSCAR
  _audit_creation_date              2014-09-24
  _audit_creation_method            'ToBaCCo'
  _symmetry_space_group_name_H-M    'P1'
  _symmetry_Int_Tables_number       1
  _symmetry_cell_setting            triclinic
  loop_
  _symmetry_equiv_pos_as_xyz
 x,y,z
_cell_length_a 60.6980
_cell_length_b 61.9556
_cell_length_c 62.6485
_cell_angle_alpha 90.055800
_cell_angle_beta 90.077500
_cell_angle_gamma 90.007300
loop_
  _atom_site_label
  _atom_site_type_symbol
  _atom_site_fract_x
  _atom_site_fract_y
  _atom_site_fract_z
C1 C 0.30306 0.37209 0.02243
 C2 C 0.29596 0.38117 0.00324
 C3 C 0.30351 0.37376 -0.01666
 C4 C 0.31989 0.35726 -0.01705
 C5 C 0.32708 0.34769 0.00239
 C6 C 0.31856 0.35511 0.02217
 C7 C 0.32640 0.34600 0.04124
 C8 C 0.34234 0.32992 0.04099
 C9 C 0.35113 0.32235 0.02166
 C10 C 0.34350 0.33126 0.00214
 C11 C 0.33081 0.35149 -0.03601
 C12 C 0.34685 0.33549 -0.03626
 C13 C 0.35284 0.32439 -0.01755
 C14 C 0.36942 0.30809 -0.01765
 C15 C 0.37697 0.30004 0.00201
 C16 C 0.36804 0.30672 0.02142
 H17 H 0.32060 0.35150 0.05664
 H18 H 0.34805 0.32382 0.05620
 H19 H 0.32776 0.35990 -0.05083
 H20 H 0.35513 0.33258 -0.05125
 H21 H 0.28334 0.39355 0.00397
 H22 H 0.38932 0.28738 0.00233
 C23 C 0.70976 0.64484 -0.02079
 C24 C 0.71704 0.63589 -0.00157
 C25 C 0.70883 0.64289 0.01808
 C26 C 0.69274 0.65938 0.01869
 C27 C 0.68521 0.66874 -0.00068
 C28 C 0.69395 0.66161 -0.02046
 C29 C 0.68743 0.67208 -0.03929
 C30 C 0.67212 0.68877 -0.03883
 C31 C 0.66212 0.69533 -0.01961
 C32 C 0.66936 0.68566 -0.00022
 C33 C 0.68455 0.66726 0.03816
 C34 C 0.66916 0.68388 0.03863
 C35 C 0.66130 0.69325 0.01967
 C36 C 0.64618 0.71055 0.02012
 C37 C 0.63932 0.72002 0.00102
 C38 C 0.64643 0.71244 -0.01898
 H39 H 0.69454 0.66786 -0.05456
 H40 H 0.66881 0.69687 -0.05375
 H41 H 0.69023 0.66091 0.05327
 H42 H 0.66378 0.68957 0.05411
 H43 H 0.72920 0.62306 -0.00191
 H44 H 0.62706 0.73274 0.00184
 C45 C 0.70889 0.35560 1.02166
 C46 C 0.71628 0.36453 1.00249
 C47 C 0.70785 0.35785 0.98280
 C48 C 0.69144 0.34166 0.98210
 C49 C 0.68375 0.33235 1.00142
 C50 C 0.69268 0.33920 1.02125
 C51 C 0.68592 0.32881 1.04002
 C52 C 0.67024 0.31245 1.03947
 C53 C 0.66009 0.30615 1.02019
 C54 C 0.66753 0.31576 1.00086
 C55 C 0.68308 0.33402 0.96259
 C56 C 0.66737 0.31770 0.96201
 C57 C 0.65933 0.30840 0.98092
 C58 C 0.64388 0.29138 0.98035
 C59 C 0.63680 0.28199 0.99940
 C60 C 0.64405 0.28935 1.01946
 H61 H 0.69313 0.33284 1.05532
 H62 H 0.66674 0.30436 1.05435
 H63 H 0.68889 0.34032 0.94751
 H64 H 0.66189 0.31218 0.94650
 H65 H 0.72870 0.37713 1.00290
 H66 H 0.62432 0.26948 0.99848
 C67 C 0.30544 0.62913 0.97640
 C68 C 0.29816 0.62013 0.99554
 C69 C 0.30567 0.62752 1.01549
 C70 C 0.32218 0.64389 1.01598
 C71 C 0.32954 0.65338 0.99660
 C72 C 0.32108 0.64599 0.97676
 C73 C 0.32912 0.65502 0.95774
 C74 C 0.34516 0.67101 0.95811
 C75 C 0.35384 0.67859 0.97750
 C76 C 0.34604 0.66974 0.99697
 C77 C 0.33304 0.64959 1.03503
 C78 C 0.34915 0.66553 1.03539
 C79 C 0.35527 0.67661 1.01673
 C80 C 0.37186 0.69290 1.01697
 C81 C 0.37960 0.70088 0.99737
 C82 C 0.37079 0.69417 0.97788
 H83 H 0.32341 0.64951 0.94230
 H84 H 0.35101 0.67704 0.94294
 H85 H 0.32988 0.64119 1.04982
 H86 H 0.35737 0.66842 1.05044
 H87 H 0.28543 0.60787 0.99474
 H88 H 0.39196 0.71353 0.99714
 C89 C 0.02239 0.29532 0.35756
 C90 C 0.00238 0.28577 0.36316
 C91 C -0.01799 0.29523 0.35801
 C92 C -0.01813 0.31433 0.34532
 C93 C 0.00215 0.32379 0.33885
 C94 C 0.02244 0.31438 0.34522
 C95 C 0.04229 0.32405 0.33882
 C96 C 0.04230 0.34279 0.32667
 C97 C 0.02248 0.35229 0.31991
 C98 C 0.00217 0.34268 0.32588
 C99 C -0.03787 0.32364 0.33799
 C100 C -0.03785 0.34239 0.32585
 C101 C -0.01807 0.35193 0.31898
 C102 C -0.01788 0.37105 0.30632
 C103 C 0.00248 0.38072 0.30160
 C104 C 0.02247 0.37136 0.30758
 H105 H 0.05807 0.31719 0.34309
 H106 H 0.05810 0.34980 0.32269
 H107 H -0.05372 0.31647 0.34133
 H108 H -0.05371 0.34938 0.32214
 H109 H 0.00284 0.27157 0.37328
 H110 H 0.00299 0.39492 0.29149
 C111 C 0.01767 0.69250 0.62700
 C112 C -0.00249 0.69913 0.61853
 C113 C -0.02266 0.69086 0.62586
 C114 C -0.02231 0.67434 0.64168
 C115 C -0.00187 0.66752 0.65055
 C116 C 0.01816 0.67669 0.64319
 C117 C 0.03823 0.66921 0.65158
 C118 C 0.03872 0.65300 0.66688
 C119 C 0.01915 0.64361 0.67440
 C120 C -0.00137 0.65089 0.66624
 C121 C -0.04150 0.66300 0.64742
 C122 C -0.04101 0.64680 0.66275
 C123 C -0.02131 0.64106 0.67314
 C124 C -0.02067 0.62435 0.68877
 C125 C -0.00003 0.61711 0.69600
 C126 C 0.01965 0.62652 0.68927
 H127 H 0.05384 0.67551 0.64608
 H128 H 0.05468 0.64760 0.67242
 H129 H -0.05705 0.66589 0.63951
 H130 H -0.05622 0.63825 0.66570
 H131 H -0.00234 0.71194 0.60672
 H132 H 0.00087 0.60465 0.70813
 C133 C 1.01847 0.64446 0.29581
 C134 C 0.99853 0.63860 0.28626
 C135 C 0.97829 0.64479 0.29496
 C136 C 0.97787 0.65801 0.31339
 C137 C 0.99800 0.66449 0.32306
 C138 C 1.01835 0.65746 0.31439
 C139 C 1.03802 0.66352 0.32456
 C140 C 1.03777 0.67623 0.34285
 C141 C 1.01791 0.68434 0.35126
 C142 C 0.99775 0.67783 0.34156
 C143 C 0.95790 0.66504 0.32229
 C144 C 0.95762 0.67774 0.34060
 C145 C 0.97732 0.68436 0.35045
 C146 C 0.97712 0.69696 0.36924
 C147 C 0.99699 0.70292 0.37884
 C148 C 1.01750 0.69759 0.36988
 H149 H 1.05388 0.65836 0.31857
 H150 H 1.05343 0.67920 0.35054
 H151 H 0.94223 0.66078 0.31520
 H152 H 0.94173 0.68219 0.34704
 H153 H 0.99875 0.62824 0.27228
 H154 H 0.99630 0.71335 0.39274
 C155 C 1.01758 0.29601 0.63931
 C156 C 0.99758 0.28903 0.63070
 C157 C 0.97743 0.29552 0.63931
 C158 C 0.97710 0.30983 0.65691
 C159 C 0.99728 0.31722 0.66579
 C160 C 1.01760 0.31005 0.65713
 C161 C 1.03734 0.31695 0.66660
 C162 C 1.03720 0.33060 0.68424
 C163 C 1.01735 0.33881 0.69259
 C164 C 0.99713 0.33151 0.68358
 C165 C 0.95717 0.31646 0.66618
 C166 C 0.95699 0.33030 0.68366
 C167 C 0.97674 0.33814 0.69250
 C168 C 0.97662 0.35191 0.71046
 C169 C 0.99655 0.35860 0.71945
 C170 C 1.01702 0.35291 0.71060
 H171 H 1.05316 0.31161 0.66064
 H172 H 1.05294 0.33419 0.69148
 H173 H 0.94147 0.31081 0.66015
 H174 H 0.94116 0.33454 0.69038
 H175 H 0.99769 0.27806 0.61718
 H176 H 0.99594 0.36980 0.73276
 C177 C 0.35701 0.01925 0.29313
 C178 C 0.36273 -0.00038 0.28367
 C179 C 0.35748 -0.02031 0.29307
 C180 C 0.34454 -0.02040 0.31207
 C181 C 0.33791 -0.00051 0.32144
 C182 C 0.34440 0.01934 0.31205
 C183 C 0.33781 0.03882 0.32160
 C184 C 0.32541 0.03890 0.34021
 C185 C 0.31854 0.01951 0.34970
 C186 C 0.32467 -0.00042 0.34021
 C187 C 0.33706 -0.03971 0.32138
 C188 C 0.32469 -0.03963 0.34003
 C189 C 0.31767 -0.02022 0.34948
 C190 C 0.30481 -0.01996 0.36852
 C191 C 0.29995 0.00002 0.37803
 C192 C 0.30598 0.01957 0.36865
 H193 H 0.34212 0.05427 0.31475
 H194 H 0.32132 0.05440 0.34712
 H195 H 0.34044 -0.05526 0.31429
 H196 H 0.32095 -0.05514 0.34700
 H197 H 0.37306 0.00004 0.26955
 H198 H 0.28966 0.00057 0.39217
 C199 C 0.63372 0.02547 0.69936
 C200 C 0.62490 0.00622 0.70709
 C201 C 0.63117 -0.01401 0.69897
 C202 C 0.64655 -0.01473 0.68180
 C203 C 0.65573 0.00483 0.67385
 C204 C 0.64930 0.02496 0.68268
 C205 C 0.65856 0.04407 0.67460
 C206 C 0.67347 0.04354 0.65778
 C207 C 0.67998 0.02385 0.64860
 C208 C 0.67104 0.00431 0.65667
 C209 C 0.65176 -0.03415 0.67124
 C210 C 0.66691 -0.03467 0.65461
 C211 C 0.67706 -0.01570 0.64734
 C212 C 0.69241 -0.01612 0.63036
 C213 C 0.70077 0.00330 0.62240
 C214 C 0.69479 0.02318 0.63120
 H215 H 0.65425 0.05968 0.68113
 H216 H 0.67971 0.05878 0.65194
 H217 H 0.64376 -0.04918 0.67524
 H218 H 0.67015 -0.05009 0.64713
 H219 H 0.61341 0.00711 0.72032
 H220 H 0.71249 0.00291 0.60934
 C221 C 0.35436 0.98097 0.71103
 C222 C 0.36113 1.00055 0.71995
 C223 C 0.35389 1.02055 0.71202
 C224 C 0.33815 1.02069 0.69511
 C225 C 0.33102 1.00083 0.68597
 C226 C 0.33922 0.98094 0.69391
 C227 C 0.33147 0.96150 0.68506
 C228 C 0.31606 0.96150 0.66862
 C229 C 0.30772 0.98094 0.66041
 C230 C 0.31512 1.00079 0.66925
 C231 C 0.32798 1.03991 0.68822
 C232 C 0.31261 1.03988 0.67174
 C233 C 0.30620 1.02057 0.66180
 C234 C 0.29032 1.02041 0.64525
 C235 C 0.28319 1.00073 0.63680
 C236 C 0.29159 0.98108 0.64410
 H237 H 0.33695 0.94602 0.69102
 H238 H 0.31048 0.94605 0.66265
 H239 H 0.33121 1.05520 0.69590
 H240 H 0.30535 1.05518 0.66726
 H241 H 0.37340 1.00006 0.73255
 H242 H 0.27100 1.00070 0.62411
 C243 C 0.63703 0.97801 0.29655
 C244 C 0.62698 0.99726 0.29035
 C245 C 0.63266 1.01723 0.29948
 C246 C 0.64857 1.01756 0.31624
 C247 C 0.65920 0.99809 0.32246
 C248 C 0.65348 0.97829 0.31248
 C249 C 0.66440 0.95928 0.31859
 C250 C 0.67999 0.95948 0.33484
 C251 C 0.68529 0.97870 0.34560
 C252 C 0.67523 0.99830 0.33909
 C253 C 0.65279 1.03634 0.32821
 C254 C 0.66849 1.03656 0.34439
 C255 C 0.68076 1.01799 0.34947
 C256 C 0.69706 1.01812 0.36588
 C257 C 0.70614 0.99832 0.37241
 C258 C 0.70050 0.97882 0.36266
 H259 H 0.66096 0.94401 0.31087
 H260 H 0.68786 0.94435 0.33888
 H261 H 0.64346 1.05099 0.32572
 H262 H 0.67030 1.05136 0.35338
 H263 H 0.61497 0.99660 0.27752
 H264 H 0.71857 0.99799 0.38486
 O265 O 0.81386 0.84751 0.52337
 O266 O 0.84483 0.81671 0.48330
 O267 O 0.81559 0.84731 0.48205
 O268 O 0.84323 0.81685 0.52459
 O269 O 0.81692 0.79230 0.52363
 O270 O 0.78897 0.82309 0.48102
 O271 O 0.81842 0.79226 0.48221
 O272 O 0.78729 0.82325 0.52251
 Cu273 Cu 0.83200 0.83452 0.50346
 Cu274 Cu 0.80022 0.80528 0.50229
 C275 C 0.79516 0.84086 0.52962
 C276 C 0.83707 0.79915 0.47599
 C277 C 0.79750 0.84055 0.47433
 C278 C 0.83507 0.79919 0.53116
 O279 O 0.15039 0.17868 0.47860
 O280 O 0.17851 0.14966 0.52173
 O281 O 0.14860 0.17954 0.52000
 O282 O 0.18079 0.14911 0.48046
 O283 O 0.20655 0.17420 0.48116
 O284 O 0.17435 0.20464 0.52099
 O285 O 0.20449 0.17453 0.52261
 O286 O 0.17591 0.20401 0.47940
 Cu287 Cu 0.16199 0.16177 0.50008
 Cu288 Cu 0.19290 0.19190 0.50109
 C289 C 0.15815 0.19637 0.47170
 C290 C 0.19636 0.15694 0.52947
 C291 C 0.15592 0.19730 0.52727
 C292 C 0.19928 0.15629 0.47420
 O293 O 0.17985 0.85071 0.47985
 O294 O 0.14950 0.82036 0.52074
 O295 O 0.17918 0.85069 0.52125
 O296 O 0.14994 0.82062 0.47943
 O297 O 0.17587 0.79568 0.47970
 O298 O 0.20550 0.82615 0.52157
 O299 O 0.17562 0.79562 0.52113
 O300 O 0.20601 0.82601 0.48001
 Cu301 Cu 0.16204 0.83808 0.50029
 Cu302 Cu 0.19340 0.80839 0.50062
 C303 C 0.19820 0.84367 0.47303
 C304 C 0.15720 0.80267 0.52777
 C305 C 0.19740 0.84374 0.52848
 C306 C 0.15767 0.80287 0.47259
 O307 O 0.84803 0.18137 0.51675
 O308 O 0.81799 0.15151 0.47527
 O309 O 0.84863 0.18086 0.47540
 O310 O 0.81779 0.15172 0.51662
 O311 O 0.79209 0.17689 0.51624
 O312 O 0.82328 0.20635 0.47484
 O313 O 0.79235 0.17672 0.47473
 O314 O 0.82259 0.20678 0.51639
 Cu315 Cu 0.83566 0.16386 0.49603
 Cu316 Cu 0.80501 0.19425 0.49548
 C317 C 0.84058 0.19923 0.52362
 C318 C 0.79991 0.15882 0.46805
 C319 C 0.84144 0.19866 0.46818
 C320 C 0.79960 0.15915 0.52340
 O321 O 0.52346 0.82406 0.85132
 O322 O 0.47981 0.85248 0.82228
 O323 O 0.48084 0.82242 0.85119
 O324 O 0.52251 0.85363 0.82194
 O325 O 0.52341 0.82860 0.79690
 O326 O 0.48144 0.79742 0.82611
 O327 O 0.48052 0.82772 0.79697
 O328 O 0.52423 0.79875 0.82655
 Cu329 Cu 0.50158 0.84065 0.83917
 Cu330 Cu 0.50248 0.81061 0.80909
 C331 C 0.53118 0.80645 0.84414
 C332 C 0.47278 0.84516 0.80461
 C333 C 0.47413 0.80449 0.84378
 C334 C 0.52999 0.84657 0.80434
 O335 O 0.52105 0.17763 0.14890
 O336 O 0.47755 0.14887 0.17773
 O337 O 0.47839 0.17891 0.14878
 O338 O 0.52026 0.14830 0.17856
 O339 O 0.52075 0.17350 0.20344
 O340 O 0.47857 0.20401 0.17377
 O341 O 0.47787 0.17374 0.20294
 O342 O 0.52139 0.20310 0.17352
 Cu343 Cu 0.49929 0.16092 0.16102
 Cu344 Cu 0.49969 0.19111 0.19094
 C345 C 0.52852 0.19537 0.15602
 C346 C 0.47037 0.15617 0.19533
 C347 C 0.47144 0.19680 0.15607
 C348 C 0.52756 0.15556 0.19618
 O349 O 0.51775 0.15356 0.82036
 O350 O 0.47584 0.18355 0.85060
 O351 O 0.47508 0.15361 0.82149
 O352 O 0.51851 0.18267 0.85019
 O353 O 0.51833 0.20826 0.82574
 O354 O 0.47487 0.17852 0.79636
 O355 O 0.47544 0.20877 0.82578
 O356 O 0.51772 0.17889 0.79564
 Cu357 Cu 0.49679 0.16584 0.83812
 Cu358 Cu 0.49654 0.19616 0.80839
 C359 C 0.52484 0.16101 0.80277
 C360 C 0.46861 0.20140 0.84350
 C361 C 0.46769 0.16083 0.80393
 C362 C 0.52578 0.20048 0.84310
 O363 O 0.47624 0.81885 0.14865
 O364 O 0.51871 0.84925 0.17778
 O365 O 0.51890 0.81981 0.14830
 O366 O 0.47601 0.84889 0.17776
 O367 O 0.47651 0.82404 0.20293
 O368 O 0.51955 0.79450 0.17303
 O369 O 0.51937 0.82417 0.20273
 O370 O 0.47669 0.79371 0.17354
 Cu371 Cu 0.49736 0.83670 0.16065
 Cu372 Cu 0.49803 0.80657 0.19057
 C373 C 0.46939 0.80094 0.15592
 C374 C 0.52628 0.84199 0.19527
 C375 C 0.52653 0.80217 0.15546
 C376 C 0.46909 0.84170 0.19549
 O377 O 0.85019 0.52044 0.81861
 O378 O 0.82069 0.48102 0.85175
 O379 O 0.84974 0.47870 0.82146
 O380 O 0.82152 0.52278 0.84932
 O381 O 0.79444 0.52164 0.82583
 O382 O 0.82313 0.47747 0.79748
 O383 O 0.79386 0.47967 0.82802
 O384 O 0.82339 0.51940 0.79482
 Cu385 Cu 0.83820 0.50087 0.83765
 Cu386 Cu 0.80600 0.49946 0.80914
 C387 C 0.84198 0.52654 0.80096
 C388 C 0.80221 0.47363 0.84564
 C389 C 0.84144 0.47060 0.80466
 C390 C 0.80309 0.52965 0.84256
 O391 O 0.18047 0.48262 0.15341
 O392 O 0.15079 0.52596 0.18108
 O393 O 0.18050 0.52435 0.15121
 O394 O 0.15104 0.48422 0.18356
 O395 O 0.17732 0.48558 0.20788
 O396 O 0.20684 0.52594 0.17545
 O397 O 0.17691 0.52747 0.20555
 O398 O 0.20697 0.48409 0.17749
 Cu399 Cu 0.16307 0.50414 0.16491
 Cu400 Cu 0.19465 0.50591 0.19405
 C401 C 0.19892 0.47611 0.16047
 C402 C 0.15857 0.53400 0.19815
 C403 C 0.19883 0.53185 0.15764
 C404 C 0.15899 0.47816 0.20134
 O405 O 0.85238 0.47970 0.18007
 O406 O 0.82239 0.51977 0.14814
 O407 O 0.85177 0.52148 0.17830
 O408 O 0.82307 0.47795 0.14983
 O409 O 0.79644 0.47855 0.17375
 O410 O 0.82545 0.52221 0.20253
 O411 O 0.79584 0.52056 0.17213
 O412 O 0.82601 0.48026 0.20425
 Cu413 Cu 0.84003 0.49965 0.16168
 Cu414 Cu 0.80826 0.50045 0.19059
 C415 C 0.84448 0.47323 0.19770
 C416 C 0.80396 0.52697 0.15455
 C417 C 0.84368 0.52921 0.19536
 C418 C 0.80480 0.47088 0.15676
 O419 O 0.18021 0.52081 0.84598
 O420 O 0.14927 0.47804 0.81866
 O421 O 0.17941 0.47910 0.84823
 O422 O 0.15032 0.51980 0.81619
 O423 O 0.17619 0.51789 0.79158
 O424 O 0.20537 0.47698 0.82371
 O425 O 0.17500 0.47597 0.79392
 O426 O 0.20634 0.51881 0.82162
 Cu427 Cu 0.16221 0.49964 0.83469
 Cu428 Cu 0.19332 0.49722 0.80521
 C429 C 0.19869 0.52695 0.83872
 C430 C 0.15666 0.46979 0.80155
 C431 C 0.19749 0.47125 0.84162
 C432 C 0.15813 0.52570 0.79832
 C433 C 0.27256 0.39961 0.07773
 C434 C 0.26842 0.37803 0.07232
 C435 C 0.27892 0.36874 0.05469
 C436 C 0.29366 0.38098 0.04238
 C437 C 0.29802 0.40246 0.04810
 C438 C 0.28756 0.41171 0.06572
 C439 C 0.26020 0.40999 0.09442
 C440 C 0.24948 0.41949 0.10761
 C441 C 0.23626 0.43176 0.12231
 C442 C 0.21429 0.43623 0.11720
 C443 C 0.20192 0.45007 0.13006
 C444 C 0.21137 0.45969 0.14825
 C445 C 0.23325 0.45452 0.15370
 C446 C 0.24564 0.44068 0.14074
 H447 H 0.25666 0.36860 0.08137
 H448 H 0.27516 0.35224 0.05028
 H449 H 0.30918 0.41217 0.03863
 H450 H 0.29072 0.42847 0.06963
 H451 H 0.20690 0.42949 0.10291
 H452 H 0.18512 0.45367 0.12543
 H453 H 0.24101 0.46170 0.16757
 H454 H 0.26268 0.43743 0.14477
 C455 C 0.73664 0.60973 0.07167
 C456 C 0.71415 0.60753 0.06710
 C457 C 0.70480 0.61892 0.05006
 C458 C 0.71791 0.63260 0.03751
 C459 C 0.74034 0.63502 0.04242
 C460 C 0.74964 0.62368 0.05944
 C461 C 0.74691 0.59655 0.08775
 C462 C 0.75630 0.58519 0.10046
 C463 C 0.76836 0.57129 0.11467
 C464 C 0.75901 0.56413 0.13382
 C465 C 0.77068 0.54993 0.14704
 C466 C 0.79182 0.54270 0.14119
 C467 C 0.80113 0.55023 0.12204
 C468 C 0.78947 0.56440 0.10890
 H469 H 0.70399 0.59662 0.07634
 H470 H 0.68753 0.61666 0.04628
 H471 H 0.75071 0.64535 0.03275
 H472 H 0.76709 0.62536 0.06271
 H473 H 0.74265 0.56934 0.13841
 H474 H 0.76306 0.54442 0.16167
 H475 H 0.81736 0.54502 0.11706
 H476 H 0.79685 0.56982 0.09411
 C477 C 0.73578 0.39124 0.92947
 C478 C 0.71330 0.39351 0.93403
 C479 C 0.70392 0.38205 0.95098
 C480 C 0.71697 0.36820 0.96344
 C481 C 0.73938 0.36571 0.95855
 C482 C 0.74871 0.37713 0.94162
 C483 C 0.74605 0.40443 0.91343
 C484 C 0.75536 0.41579 0.90069
 C485 C 0.76722 0.42968 0.88634
 C486 C 0.75777 0.43635 0.86705
 C487 C 0.76923 0.45046 0.85360
 C488 C 0.79027 0.45808 0.85935
 C489 C 0.79967 0.45108 0.87868
 C490 C 0.78822 0.43699 0.89205
 H491 H 0.70319 0.40454 0.92486
 H492 H 0.68667 0.38439 0.95477
 H493 H 0.74970 0.35526 0.96815
 H494 H 0.76615 0.37538 0.93835
 H495 H 0.74149 0.43081 0.86250
 H496 H 0.76153 0.45556 0.83884
 H497 H 0.81583 0.45662 0.88359
 H498 H 0.79567 0.43196 0.90696
 C499 C 0.27457 0.60209 0.92098
 C500 C 0.28933 0.58974 0.93306
 C501 C 0.29994 0.59883 0.95071
 C502 C 0.29597 0.62039 0.95639
 C503 C 0.28149 0.63287 0.94399
 C504 C 0.27084 0.62374 0.92633
 C505 C 0.26198 0.59190 0.90430
 C506 C 0.25099 0.58258 0.89116
 C507 C 0.23739 0.57056 0.87655
 C508 C 0.21536 0.56664 0.88175
 C509 C 0.20256 0.55305 0.86899
 C510 C 0.21164 0.54313 0.85080
 C511 C 0.23360 0.54775 0.84525
 C512 C 0.24642 0.56134 0.85811
 H513 H 0.29216 0.57292 0.92920
 H514 H 0.31088 0.58893 0.96025
 H515 H 0.27802 0.64944 0.94837
 H516 H 0.25927 0.63337 0.91723
 H517 H 0.20823 0.57361 0.89603
 H518 H 0.18570 0.54987 0.87369
 H519 H 0.24109 0.54032 0.83139
 H520 H 0.26351 0.56417 0.85401
 C521 C 0.07793 0.26514 0.38744
 C522 C 0.07284 0.28669 0.39204
 C523 C 0.05530 0.29685 0.38161
 C524 C 0.04274 0.28556 0.36641
 C525 C 0.04823 0.26410 0.36152
 C526 C 0.06577 0.25396 0.37195
 C527 C 0.09413 0.25388 0.39998
 C528 C 0.10684 0.24400 0.41110
 C529 C 0.12087 0.23166 0.42503
 C530 C 0.11462 0.21074 0.43078
 C531 C 0.12706 0.19912 0.44558
 C532 C 0.14600 0.20826 0.45490
 C533 C 0.15250 0.22913 0.44865
 C534 C 0.13995 0.24078 0.43383
 H535 H 0.08196 0.29541 0.40418
 H536 H 0.05102 0.31326 0.38590
 H537 H 0.03852 0.25507 0.35006
 H538 H 0.06939 0.23721 0.36844
 H539 H 0.09985 0.20355 0.42413
 H540 H 0.12161 0.18308 0.44999
 H541 H 0.16696 0.23663 0.45556
 H542 H 0.14488 0.25702 0.42956
 C543 C 0.07296 0.72594 0.60042
 C544 C 0.06776 0.72860 0.62205
 C545 C 0.05021 0.71710 0.63101
 C546 C 0.03779 0.70283 0.61838
 C547 C 0.04334 0.69994 0.59683
 C548 C 0.06088 0.71139 0.58792
 C549 C 0.08954 0.73917 0.59052
 C550 C 0.10268 0.75050 0.58145
 C551 C 0.11745 0.76424 0.56973
 C552 C 0.13783 0.75643 0.56269
 C553 C 0.15117 0.76920 0.54958
 C554 C 0.14420 0.78991 0.54326
 C555 C 0.12397 0.79781 0.55093
 C556 C 0.11070 0.78505 0.56405
 H557 H 0.07687 0.73996 0.63181
 H558 H 0.04591 0.71975 0.64758
 H559 H 0.03377 0.68917 0.58684
 H560 H 0.06464 0.70934 0.57114
 H561 H 0.14316 0.74030 0.56690
 H562 H 0.16663 0.76263 0.54392
 H563 H 0.11812 0.81367 0.54640
 H564 H 0.09492 0.79122 0.56933
 C565 C 0.92096 0.72554 0.39941
 C566 C 0.92613 0.73086 0.37828
 C567 C 0.94390 0.72087 0.36808
 C568 C 0.95659 0.70541 0.37893
 C569 C 0.95103 0.69979 0.39994
 C570 C 0.93327 0.70978 0.41011
 C571 C 0.90442 0.73756 0.41077
 C572 C 0.89139 0.74815 0.42082
 C573 C 0.87685 0.76135 0.43342
 C574 C 0.88367 0.78198 0.43963
 C575 C 0.87048 0.79445 0.45308
 C576 C 0.85021 0.78644 0.46055
 C577 C 0.84322 0.76585 0.45383
 C578 C 0.85651 0.75337 0.44037
 H579 H 0.91689 0.74322 0.36994
 H580 H 0.94822 0.72568 0.35200
 H581 H 0.96084 0.68811 0.40862
 H582 H 0.92956 0.70570 0.42654
 H583 H 0.89941 0.78830 0.43439
 H584 H 0.87634 0.81023 0.45791
 H585 H 0.82774 0.75922 0.45932
 H586 H 0.85111 0.73737 0.43571
 C587 C 0.92200 0.26730 0.60758
 C588 C 0.93562 0.25465 0.62057
 C589 C 0.95318 0.26409 0.63155
 C590 C 0.95725 0.28630 0.62972
 C591 C 0.94324 0.29908 0.61713
 C592 C 0.92566 0.28959 0.60608
 C593 C 0.90565 0.25693 0.59447
 C594 C 0.89292 0.24739 0.58309
 C595 C 0.87890 0.23511 0.56909
 C596 C 0.88537 0.21435 0.56297
 C597 C 0.87268 0.20256 0.54847
 C598 C 0.85327 0.21140 0.53985
 C599 C 0.84664 0.23216 0.54638
 C600 C 0.85943 0.24396 0.56089
 H601 H 0.93307 0.23738 0.62169
 H602 H 0.96398 0.25400 0.64104
 H603 H 0.94637 0.31619 0.61536
 H604 H 0.91535 0.29949 0.59590
 H605 H 0.90044 0.20736 0.56918
 H606 H 0.87825 0.18663 0.54383
 H607 H 0.83180 0.23941 0.54000
 H608 H 0.85431 0.26006 0.56549
 C609 C 0.38684 0.07417 0.26327
 C610 C 0.37096 0.06207 0.25228
 C611 C 0.36063 0.04463 0.26227
 C612 C 0.36601 0.03919 0.28339
 C613 C 0.38167 0.05161 0.29447
 C614 C 0.39199 0.06905 0.28447
 C615 C 0.39919 0.09054 0.25222
 C616 C 0.41013 0.10346 0.24251
 C617 C 0.42386 0.11783 0.23033
 C618 C 0.42957 0.11224 0.20942
 C619 C 0.44426 0.12504 0.19791
 C620 C 0.45352 0.14367 0.20714
 C621 C 0.44728 0.14951 0.22799
 C622 C 0.43256 0.13660 0.23954
 H623 H 0.36703 0.06574 0.23580
 H624 H 0.34881 0.03506 0.25341
 H625 H 0.38633 0.04739 0.31063
 H626 H 0.40445 0.07812 0.29304
 H627 H 0.42299 0.09772 0.20216
 H628 H 0.44866 0.12010 0.18188
 H629 H 0.45415 0.16372 0.23555
 H630 H 0.42833 0.14102 0.25576
 C631 C 0.60647 0.08066 0.73073
 C632 C 0.60218 0.07718 0.70901
 C633 C 0.61194 0.05975 0.69840
 C634 C 0.62605 0.04571 0.70946
 C635 C 0.63080 0.04966 0.73104
 C636 C 0.62109 0.06708 0.74161
 C637 C 0.59432 0.09669 0.74243
 C638 C 0.58355 0.10922 0.75281
 C639 C 0.57006 0.12311 0.76575
 C640 C 0.56220 0.14273 0.75771
 C641 C 0.54786 0.15538 0.76994
 C642 C 0.54114 0.14846 0.79032
 C643 C 0.54949 0.12892 0.79838
 C644 C 0.56383 0.11636 0.78617
 H645 H 0.59071 0.08745 0.70050
 H646 H 0.60785 0.05671 0.68183
 H647 H 0.64146 0.03882 0.73985
 H648 H 0.62435 0.06948 0.75845
 H649 H 0.56685 0.14807 0.74188
 H650 H 0.54170 0.17032 0.76327
 H651 H 0.54468 0.12314 0.81401
 H652 H 0.56976 0.10116 0.79251
 C653 C 0.38653 0.92595 0.73827
 C654 C 0.38987 0.93106 0.71674
 C655 C 0.37874 0.94853 0.70757
 C656 C 0.36415 0.96098 0.71986
 C657 C 0.36054 0.95550 0.74131
 C658 C 0.37163 0.93805 0.75045
 C659 C 0.39973 0.90965 0.74849
 C660 C 0.41125 0.89689 0.75778
 C661 C 0.42553 0.88283 0.76974
 C662 C 0.43457 0.86428 0.76043
 C663 C 0.44958 0.85161 0.77191
 C664 C 0.45578 0.85747 0.79279
 C665 C 0.44623 0.87590 0.80209
 C666 C 0.43123 0.88845 0.79065
 H667 H 0.40155 0.92198 0.70725
 H668 H 0.38198 0.95277 0.69110
 H669 H 0.34953 0.96509 0.75107
 H670 H 0.36910 0.93438 0.76717
 H671 H 0.43031 0.85983 0.74421
 H672 H 0.45668 0.83754 0.76430
 H673 H 0.45058 0.88085 0.81814
 H674 H 0.42438 0.90280 0.79800
 C675 C 0.60982 0.92308 0.26457
 C676 C 0.62238 0.93812 0.25320
 C677 C 0.63213 0.95550 0.26383
 C678 C 0.62946 0.95796 0.28595
 C679 C 0.61740 0.94249 0.29740
 C680 C 0.60762 0.92510 0.28674
 C681 C 0.59750 0.90693 0.25314
 C682 C 0.58650 0.89429 0.24311
 C683 C 0.57265 0.88024 0.23067
 C684 C 0.56585 0.88674 0.21033
 C685 C 0.55111 0.87407 0.19865
 C686 C 0.54292 0.85467 0.20718
 C687 C 0.55021 0.84801 0.22748
 C688 C 0.56496 0.86077 0.23917
 H689 H 0.62401 0.93683 0.23602
 H690 H 0.64117 0.96743 0.25474
 H691 H 0.61490 0.94436 0.31442
 H692 H 0.59773 0.91368 0.29565
 H693 H 0.57164 0.90184 0.20364
 H694 H 0.54587 0.87965 0.18307
 H695 H 0.54420 0.83317 0.23450
 H696 H 0.57004 0.85564 0.25495
 C697 C 0.39609 0.27668 0.92813
 C698 C 0.37350 0.28108 0.92899
 C699 C 0.36466 0.29210 0.94654
 C700 C 0.37835 0.29893 0.96350
 C701 C 0.40112 0.29452 0.96218
 C702 C 0.40986 0.28363 0.94464
 C703 C 0.40530 0.26395 0.91112
 C704 C 0.41405 0.25287 0.89777
 C705 C 0.42565 0.23928 0.88292
 C706 C 0.43305 0.24754 0.86341
 C707 C 0.44643 0.23495 0.85016
 C708 C 0.45267 0.21398 0.85635
 C709 C 0.44457 0.20562 0.87568
 C710 C 0.43118 0.21821 0.88885
 H711 H 0.36263 0.27548 0.91642
 H712 H 0.34697 0.29428 0.94733
 H713 H 0.41228 0.29965 0.97471
 H714 H 0.42738 0.28027 0.94417
 H715 H 0.42899 0.26390 0.85873
 H716 H 0.45242 0.24186 0.83539
 H717 H 0.44903 0.18955 0.88091
 H718 H 0.42565 0.21170 0.90398
 C719 C 0.61469 0.74074 0.92764
 C720 C 0.61754 0.71835 0.92848
 C721 C 0.62850 0.70894 0.94581
 C722 C 0.63691 0.72183 0.96255
 C723 C 0.63385 0.74438 0.96139
 C724 C 0.62299 0.75370 0.94406
 C725 C 0.60207 0.75058 0.91080
 C726 C 0.59103 0.75973 0.89761
 C727 C 0.57732 0.77169 0.88307
 C728 C 0.56902 0.76215 0.86444
 C729 C 0.55445 0.77364 0.85132
 C730 C 0.54794 0.79474 0.85681
 C731 C 0.55681 0.80429 0.87531
 C732 C 0.57137 0.79284 0.88830
 H733 H 0.61081 0.70813 0.91604
 H734 H 0.62950 0.69150 0.94657
 H735 H 0.64010 0.75490 0.97382
 H736 H 0.62074 0.77105 0.94364
 H737 H 0.57348 0.74575 0.86029
 H738 H 0.54786 0.76583 0.83722
 H739 H 0.55221 0.82050 0.87998
 H740 H 0.57766 0.80037 0.90270
 C741 C 0.39782 0.72452 0.07148
 C742 C 0.41180 0.71761 0.05515
 C743 C 0.40329 0.70666 0.03751
 C744 C 0.38056 0.70215 0.03591
 C745 C 0.36666 0.70896 0.05267
 C746 C 0.37525 0.72004 0.07032
 C747 C 0.40677 0.73735 0.08857
 C748 C 0.41529 0.74855 0.10199
 C749 C 0.42663 0.76233 0.11689
 C750 C 0.43137 0.78363 0.11113
 C751 C 0.44463 0.79646 0.12423
 C752 C 0.45340 0.78811 0.14332
 C753 C 0.44789 0.76692 0.14939
 C754 C 0.43464 0.75408 0.13619
 H755 H 0.42929 0.72105 0.05584
 H756 H 0.41461 0.70156 0.02514
 H757 H 0.34899 0.70672 0.05166
 H758 H 0.36423 0.72561 0.08274
 H759 H 0.42536 0.79014 0.09616
 H760 H 0.44851 0.81271 0.11911
 H761 H 0.45442 0.76001 0.16395
 H762 H 0.43120 0.73755 0.14073
 C763 C 0.61191 0.26125 0.07266
 C764 C 0.61992 0.24826 0.05616
 C765 C 0.63090 0.25752 0.03889
 C766 C 0.63438 0.28001 0.03786
 C767 C 0.62625 0.29293 0.05468
 C768 C 0.61516 0.28359 0.07196
 C769 C 0.59923 0.25148 0.08948
 C770 C 0.58818 0.24235 0.10266
 C771 C 0.57448 0.23037 0.11718
 C772 C 0.56880 0.20911 0.11207
 C773 C 0.55429 0.19761 0.12503
 C774 C 0.54521 0.20719 0.14339
 C775 C 0.55144 0.22841 0.14876
 C776 C 0.56596 0.23996 0.13566
 H777 H 0.61737 0.23095 0.05646
 H778 H 0.63693 0.24697 0.02639
 H779 H 0.62757 0.31035 0.05405
 H780 H 0.60867 0.29385 0.08448
 H781 H 0.57526 0.20154 0.09778
 H782 H 0.54991 0.18130 0.12045
 H783 H 0.54468 0.23625 0.16275
 H784 H 0.57020 0.25644 0.13973
 C785 C 0.26175 0.07548 0.61460
 C786 C 0.24851 0.06135 0.62637
 C787 C 0.25797 0.04385 0.63702
 C788 C 0.28079 0.04036 0.63606
 C789 C 0.29410 0.05486 0.62465
 C790 C 0.28460 0.07237 0.61396
 C791 C 0.25154 0.09191 0.60174
 C792 C 0.24229 0.10476 0.59041
 C793 C 0.23044 0.11891 0.57628
 C794 C 0.20925 0.11313 0.56962
 C795 C 0.19803 0.12579 0.55475
 C796 C 0.20785 0.14447 0.54628
 C797 C 0.22899 0.15047 0.55341
 C798 C 0.24025 0.13771 0.56830
 H799 H 0.23080 0.06348 0.62680
 H800 H 0.24745 0.03270 0.64558
 H801 H 0.31169 0.05220 0.62349
 H802 H 0.29497 0.08308 0.60471
 H803 H 0.20154 0.09859 0.57564
 H804 H 0.18177 0.12073 0.54965
 H805 H 0.23700 0.16474 0.54716
 H806 H 0.25669 0.14228 0.57330
 C807 C 0.72588 0.07327 0.39463
 C808 C 0.71953 0.05567 0.40712
 C809 C 0.70945 0.03780 0.39771
 C810 C 0.70527 0.03722 0.37555
 C811 C 0.71146 0.05526 0.36317
 C812 C 0.72166 0.07314 0.37267
 C813 C 0.73803 0.09060 0.40442
 C814 C 0.74877 0.10417 0.41349
 C815 C 0.76217 0.11918 0.42531
 C816 C 0.75328 0.13856 0.43293
 C817 C 0.76581 0.15193 0.44629
 C818 C 0.78733 0.14596 0.45227
 C819 C 0.79629 0.12676 0.44398
 C820 C 0.78379 0.11349 0.43062
 H821 H 0.72278 0.05556 0.42413
 H822 H 0.70477 0.02443 0.40787
 H823 H 0.70947 0.05513 0.34599
 H824 H 0.72683 0.08656 0.36279
 H825 H 0.73651 0.14306 0.42903
 H826 H 0.75843 0.16658 0.45243
 H827 H 0.81281 0.12170 0.44823
 H828 H 0.79079 0.09848 0.42490
 C829 C 0.72072 0.92756 0.60163
 C830 C 0.70814 0.94184 0.58931
 C831 C 0.69824 0.95978 0.59884
 C832 C 0.70076 0.96358 0.62080
 C833 C 0.71301 0.94897 0.63318
 C834 C 0.72293 0.93102 0.62362
 C835 C 0.73277 0.91048 0.59132
 C836 C 0.74343 0.89694 0.58215
 C837 C 0.75677 0.88174 0.57054
 C838 C 0.74766 0.86258 0.56260
 C839 C 0.76035 0.84883 0.54981
 C840 C 0.78227 0.85419 0.54474
 C841 C 0.79140 0.87320 0.55329
 C842 C 0.77873 0.88685 0.56608
 H843 H 0.70648 0.93943 0.57225
 H844 H 0.68902 0.97099 0.58902
 H845 H 0.71543 0.95184 0.65008
 H846 H 0.73282 0.92020 0.63326
 H847 H 0.73064 0.85852 0.56589
 H848 H 0.75282 0.83434 0.54344
 H849 H 0.80821 0.87779 0.54974
 H850 H 0.78593 0.90167 0.57209
 C851 C 0.27300 0.92684 0.39762
 C852 C 0.28491 0.94158 0.40999
 C853 C 0.29592 0.95873 0.40029
 C854 C 0.29550 0.96135 0.37792
 C855 C 0.28356 0.94624 0.36561
 C856 C 0.27247 0.92910 0.37541
 C857 C 0.26021 0.91040 0.40807
 C858 C 0.24922 0.89741 0.41761
 C859 C 0.23583 0.88283 0.42990
 C860 C 0.21443 0.88890 0.43558
 C861 C 0.20197 0.87586 0.44915
 C862 C 0.21077 0.85653 0.45728
 C863 C 0.23210 0.85024 0.45101
 C864 C 0.24456 0.86336 0.43744
 H865 H 0.28531 0.94007 0.42721
 H866 H 0.30488 0.96996 0.41033
 H867 H 0.28183 0.94829 0.34852
 H868 H 0.26295 0.91800 0.36571
 H869 H 0.20755 0.90399 0.42992
 H870 H 0.18561 0.88116 0.45363
 H871 H 0.23936 0.83548 0.45701
 H872 H 0.26117 0.85857 0.43324
 C873 C 0.07170 0.38521 0.73802
 C874 C 0.05612 0.37512 0.75103
 C875 C 0.03845 0.36398 0.74194
 C876 C 0.03614 0.36246 0.71957
 C877 C 0.05211 0.37258 0.70663
 C878 C 0.06977 0.38380 0.71580
 C879 C 0.08860 0.39825 0.74770
 C880 C 0.10186 0.40962 0.75662
 C881 C 0.11653 0.42369 0.76816
 C882 C 0.11040 0.43100 0.78842
 C883 C 0.12371 0.44564 0.79942
 C884 C 0.14342 0.45321 0.79030
 C885 C 0.14972 0.44544 0.77009
 C886 C 0.13630 0.43078 0.75906
 H887 H 0.05736 0.37624 0.76825
 H888 H 0.02661 0.35642 0.75248
 H889 H 0.05037 0.37276 0.68942
 H890 H 0.08152 0.39191 0.70558
 H891 H 0.09511 0.42565 0.79560
 H892 H 0.11838 0.45125 0.81495
 H893 H 0.16477 0.45099 0.76263
 H894 H 0.14117 0.42525 0.74334
 C895 C 0.07475 0.61566 0.26609
 C896 C 0.06265 0.63152 0.25533
 C897 C 0.04478 0.64150 0.26534
 C898 C 0.03892 0.63577 0.28624
 C899 C 0.05136 0.62014 0.29713
 C900 C 0.06923 0.61017 0.28710
 C901 C 0.09146 0.60370 0.25491
 C902 C 0.10463 0.59308 0.24507
 C903 C 0.11928 0.57970 0.23279
 C904 C 0.11293 0.57304 0.21236
 C905 C 0.12605 0.55863 0.20088
 C906 C 0.14575 0.55064 0.20969
 C907 C 0.15234 0.55787 0.23003
 C908 C 0.13912 0.57229 0.24154
 H909 H 0.06662 0.63572 0.23899
 H910 H 0.03517 0.65332 0.25663
 H911 H 0.04680 0.61526 0.31312
 H912 H 0.07831 0.59772 0.29548
 H913 H 0.09757 0.57862 0.20547
 H914 H 0.12051 0.55343 0.18526
 H915 H 0.16739 0.55199 0.23727
 H916 H 0.14414 0.57728 0.25739
 C917 C 0.92781 0.39966 0.27465
 C918 C 0.93027 0.37720 0.27454
 C919 C 0.94776 0.36759 0.28558
 C920 C 0.96302 0.38031 0.29706
 C921 C 0.96017 0.40292 0.29708
 C922 C 0.94267 0.41244 0.28611
 C923 C 0.91118 0.40989 0.26179
 C924 C 0.89809 0.41921 0.25062
 C925 C 0.88353 0.43117 0.23688
 C926 C 0.86341 0.43906 0.24452
 C927 C 0.85031 0.45228 0.23158
 C928 C 0.85728 0.45784 0.21087
 C929 C 0.87726 0.44937 0.20319
 C930 C 0.89027 0.43614 0.21612
 H931 H 0.91910 0.36718 0.26537
 H932 H 0.94998 0.35030 0.28419
 H933 H 0.97151 0.41328 0.30567
 H934 H 0.94103 0.42985 0.28617
 H935 H 0.85810 0.43540 0.26061
 H936 H 0.83504 0.45858 0.23796
 H937 H 0.88309 0.45328 0.18733
 H938 H 0.90585 0.43020 0.21007
 C939 C 0.92483 0.59687 0.72103
 C940 C 0.94176 0.58373 0.71336
 C941 C 0.95934 0.59273 0.70215
 C942 C 0.96027 0.61513 0.69815
 C943 C 0.94284 0.62817 0.70567
 C944 C 0.92526 0.61908 0.71700
 C945 C 0.90801 0.58750 0.73428
 C946 C 0.89490 0.57879 0.74587
 C947 C 0.88043 0.56746 0.76018
 C948 C 0.88748 0.56309 0.78100
 C949 C 0.87466 0.55028 0.79445
 C950 C 0.85454 0.54162 0.78726
 C951 C 0.84724 0.54662 0.76651
 C952 C 0.86017 0.55942 0.75303
 H953 H 0.94164 0.56653 0.71645
 H954 H 0.97223 0.58207 0.69650
 H955 H 0.94335 0.64554 0.70381
 H956 H 0.91239 0.62946 0.72317
 H957 H 0.90319 0.56913 0.78666
 H958 H 0.88074 0.54679 0.81034
 H959 H 0.83186 0.54018 0.76049
 H960 H 0.85461 0.56261 0.73689
 C961 C 0.73778 0.61489 0.92390
 C962 C 0.71496 0.61421 0.92712
 C963 C 0.70564 0.62470 0.94473
 C964 C 0.71909 0.63594 0.95922
 C965 C 0.74189 0.63695 0.95563
 C966 C 0.75117 0.62652 0.93803
 C967 C 0.74784 0.60216 0.90734
 C968 C 0.75701 0.59094 0.89438
 C969 C 0.76885 0.57692 0.88010
 C970 C 0.75841 0.56756 0.86242
 C971 C 0.76971 0.55259 0.84973
 C972 C 0.79153 0.54674 0.85471
 C973 C 0.80198 0.55665 0.87222
 C974 C 0.79071 0.57161 0.88479
 H975 H 0.70448 0.60506 0.91642
 H976 H 0.68806 0.62349 0.94745
 H977 H 0.75252 0.64539 0.96675
 H978 H 0.76886 0.62697 0.93581
 H979 H 0.74144 0.57149 0.85871
 H980 H 0.76120 0.54521 0.83639
 H981 H 0.81877 0.55258 0.87647
 H982 H 0.79893 0.57870 0.89847
 C983 C 0.27124 0.40057 0.92946
 C984 C 0.27541 0.37838 0.93025
 C985 C 0.28656 0.36949 0.94774
 C986 C 0.29384 0.38273 0.96472
 C987 C 0.28952 0.40508 0.96356
 C988 C 0.27846 0.41388 0.94608
 C989 C 0.25866 0.40984 0.91227
 C990 C 0.24779 0.41849 0.89862
 C991 C 0.23451 0.42984 0.88324
 C992 C 0.21312 0.43615 0.88871
 C993 C 0.20081 0.44905 0.87485
 C994 C 0.20976 0.45587 0.85528
 C995 C 0.23103 0.44889 0.84959
 C996 C 0.24335 0.43600 0.86354
 H997 H 0.26959 0.36787 0.91761
 H998 H 0.28859 0.35214 0.94841
 H999 H 0.29496 0.41590 0.97610
 H1000 H 0.27528 0.43108 0.94567
 H1001 H 0.20615 0.43156 0.90397
 H1002 H 0.18449 0.45410 0.87971
 H1003 H 0.23840 0.45390 0.83467
 H1004 H 0.25994 0.43131 0.85919
 C1005 C 0.27294 0.60121 0.06926
 C1006 C 0.27731 0.62337 0.06840
 C1007 C 0.28858 0.63208 0.05093
 C1008 C 0.29578 0.61871 0.03406
 C1009 C 0.29122 0.59640 0.03526
 C1010 C 0.28005 0.58778 0.05273
 C1011 C 0.26031 0.59214 0.08648
 C1012 C 0.24942 0.58367 0.10020
 C1013 C 0.23610 0.57257 0.11568
 C1014 C 0.21453 0.56664 0.11039
 C1015 C 0.20216 0.55396 0.12436
 C1016 C 0.21121 0.54699 0.14386
 C1017 C 0.23267 0.55361 0.14937
 C1018 C 0.24505 0.56627 0.13531
 H1019 H 0.27158 0.63397 0.08099
 H1020 H 0.29078 0.64941 0.05021
 H1021 H 0.29659 0.58549 0.02279
 H1022 H 0.27670 0.57060 0.05320
 H1023 H 0.20748 0.57133 0.09519
 H1024 H 0.18569 0.54919 0.11964
 H1025 H 0.24012 0.54848 0.16424
 H1026 H 0.26178 0.57068 0.13952
 C1027 C 0.73797 0.38525 0.07665
 C1028 C 0.71513 0.38633 0.07357
 C1029 C 0.70542 0.37584 0.05613
 C1030 C 0.71851 0.36420 0.04167
 C1031 C 0.74131 0.36272 0.04517
 C1032 C 0.75097 0.37315 0.06260
 C1033 C 0.74846 0.39811 0.09288
 C1034 C 0.75793 0.40947 0.10555
 C1035 C 0.77002 0.42364 0.11951
 C1036 C 0.76014 0.43243 0.13774
 C1037 C 0.77162 0.44745 0.15025
 C1038 C 0.79306 0.45390 0.14457
 C1039 C 0.80295 0.44461 0.12646
 C1040 C 0.79150 0.42961 0.11405
 H1041 H 0.70495 0.39584 0.08421
 H1042 H 0.68786 0.37743 0.05347
 H1043 H 0.75166 0.35399 0.03406
 H1044 H 0.76867 0.37238 0.06471
 H1045 H 0.74347 0.42799 0.14205
 H1046 H 0.76354 0.45433 0.16407
 H1047 H 0.81944 0.44917 0.12166
 H1048 H 0.79928 0.42297 0.09994
 C1049 C 0.92079 0.72215 0.60096
 C1050 C 0.93776 0.71559 0.58738
 C1051 C 0.95606 0.70476 0.59553
 C1052 C 0.95772 0.70002 0.61751
 C1053 C 0.94030 0.70648 0.63101
 C1054 C 0.92199 0.71744 0.62278
 C1055 C 0.90307 0.73494 0.59241
 C1056 C 0.88922 0.74617 0.58422
 C1057 C 0.87396 0.76009 0.57328
 C1058 C 0.87984 0.78157 0.56943
 C1059 C 0.86667 0.79456 0.55643
 C1060 C 0.84739 0.78623 0.54704
 C1061 C 0.84109 0.76488 0.55171
 C1062 C 0.85437 0.75186 0.56469
 H1063 H 0.93705 0.71923 0.57048
 H1064 H 0.96892 0.69994 0.58454
 H1065 H 0.94133 0.70404 0.64810
 H1066 H 0.90909 0.72275 0.63350
 H1067 H 0.89503 0.78807 0.57589
 H1068 H 0.87197 0.81092 0.55321
 H1069 H 0.82638 0.75798 0.54468
 H1070 H 0.84974 0.73521 0.56744
 C1071 C 0.92709 0.26610 0.38809
 C1072 C 0.94243 0.25346 0.37712
 C1073 C 0.96018 0.26314 0.36673
 C1074 C 0.96281 0.28577 0.36683
 C1075 C 0.94712 0.29834 0.37788
 C1076 C 0.92938 0.28857 0.38834
 C1077 C 0.91008 0.25571 0.40033
 C1078 C 0.89670 0.24624 0.41100
 C1079 C 0.88184 0.23406 0.42422
 C1080 C 0.88757 0.21305 0.43019
 C1081 C 0.87414 0.20141 0.44410
 C1082 C 0.85472 0.21062 0.45229
 C1083 C 0.84879 0.23159 0.44584
 C1084 C 0.86233 0.24327 0.43191
 H1085 H 0.94092 0.23603 0.37698
 H1086 H 0.97185 0.25288 0.35847
 H1087 H 0.94915 0.31565 0.37934
 H1088 H 0.91783 0.29848 0.39716
 H1089 H 0.90265 0.20579 0.42437
 H1090 H 0.87918 0.18530 0.44869
 H1091 H 0.83397 0.23914 0.45189
 H1092 H 0.85778 0.25955 0.42743
 C1093 C 0.07306 0.26819 0.60749
 C1094 C 0.06857 0.26261 0.62872
 C1095 C 0.05105 0.27241 0.63953
 C1096 C 0.03796 0.28788 0.62917
 C1097 C 0.04288 0.29379 0.60810
 C1098 C 0.06039 0.28403 0.59733
 C1099 C 0.08930 0.25644 0.59546
 C1100 C 0.10207 0.24620 0.58476
 C1101 C 0.11634 0.23357 0.57134
 C1102 C 0.10945 0.21319 0.56440
 C1103 C 0.12248 0.20127 0.55032
 C1104 C 0.14265 0.20959 0.54294
 C1105 C 0.14964 0.22997 0.55028
 C1106 C 0.13652 0.24189 0.56436
 H1107 H 0.07813 0.25022 0.63666
 H1108 H 0.04721 0.26742 0.65566
 H1109 H 0.03274 0.30549 0.59981
 H1110 H 0.06358 0.28832 0.58086
 H1111 H 0.09381 0.20663 0.56963
 H1112 H 0.11663 0.18565 0.54502
 H1113 H 0.16507 0.23683 0.54489
 H1114 H 0.14197 0.25770 0.56957
 C1115 C 0.07234 0.72845 0.39863
 C1116 C 0.05659 0.71809 0.41124
 C1117 C 0.03884 0.70745 0.40172
 C1118 C 0.03661 0.70672 0.37930
 C1119 C 0.05273 0.71715 0.36677
 C1120 C 0.07047 0.72786 0.37638
 C1121 C 0.08945 0.74088 0.40877
 C1122 C 0.10296 0.75169 0.41799
 C1123 C 0.11801 0.76506 0.42988
 C1124 C 0.11206 0.78631 0.43472
 C1125 C 0.12537 0.79883 0.44806
 C1126 C 0.14486 0.79026 0.45678
 C1127 C 0.15112 0.76910 0.45126
 C1128 C 0.13770 0.75655 0.43793
 H1129 H 0.05779 0.71857 0.42849
 H1130 H 0.02689 0.69962 0.41195
 H1131 H 0.05107 0.71796 0.34958
 H1132 H 0.08236 0.73619 0.36648
 H1133 H 0.09681 0.79303 0.42865
 H1134 H 0.12009 0.81506 0.45194
 H1135 H 0.16599 0.76202 0.45775
 H1136 H 0.14240 0.74007 0.43437
 C1137 C 0.60380 0.93232 0.73133
 C1138 C 0.62628 0.93250 0.72640
 C1139 C 0.63537 0.94994 0.71523
 C1140 C 0.62203 0.96740 0.70872
 C1141 C 0.59941 0.96687 0.71386
 C1142 C 0.59042 0.94946 0.72491
 C1143 C 0.59431 0.91522 0.74383
 C1144 C 0.58531 0.90175 0.75461
 C1145 C 0.57341 0.88673 0.76776
 C1146 C 0.56627 0.86696 0.75942
 C1147 C 0.55269 0.85349 0.77157
 C1148 C 0.54599 0.85973 0.79217
 C1149 C 0.55379 0.87935 0.80062
 C1150 C 0.56739 0.89274 0.78847
 H1151 H 0.63687 0.91944 0.73159
 H1152 H 0.65299 0.95017 0.71252
 H1153 H 0.58854 0.97988 0.70908
 H1154 H 0.57300 0.94953 0.72871
 H1155 H 0.57072 0.86222 0.74334
 H1156 H 0.54695 0.83850 0.76460
 H1157 H 0.54898 0.88462 0.81642
 H1158 H 0.57271 0.90807 0.79503
 C1159 C 0.38787 0.92563 0.26389
 C1160 C 0.37651 0.94075 0.25153
 C1161 C 0.36603 0.95824 0.26123
 C1162 C 0.36642 0.96083 0.28361
 C1163 C 0.37789 0.94538 0.29591
 C1164 C 0.38844 0.92790 0.28611
 C1165 C 0.40020 0.90882 0.25345
 C1166 C 0.41092 0.89559 0.24388
 C1167 C 0.42420 0.88095 0.23153
 C1168 C 0.42930 0.88622 0.21041
 C1169 C 0.44343 0.87311 0.19856
 C1170 C 0.45272 0.85445 0.20766
 C1171 C 0.44707 0.84892 0.22875
 C1172 C 0.43292 0.86216 0.24063
 H1173 H 0.37612 0.93927 0.23429
 H1174 H 0.35745 0.96974 0.25119
 H1175 H 0.37962 0.94736 0.31301
 H1176 H 0.39757 0.91651 0.29581
 H1177 H 0.42268 0.90074 0.20321
 H1178 H 0.44738 0.87783 0.18237
 H1179 H 0.45399 0.83470 0.23622
 H1180 H 0.42913 0.85795 0.25700
 C1181 C 0.60293 0.07128 0.26973
 C1182 C 0.59025 0.05338 0.27542
 C1183 C 0.59995 0.03589 0.28581
 C1184 C 0.62259 0.03600 0.29096
 C1185 C 0.63515 0.05435 0.28544
 C1186 C 0.62536 0.07185 0.27492
 C1187 C 0.59289 0.08824 0.25744
 C1188 C 0.58353 0.10151 0.24667
 C1189 C 0.57132 0.11621 0.23340
 C1190 C 0.56541 0.10994 0.21271
 C1191 C 0.55169 0.12304 0.20037
 C1192 C 0.54363 0.14265 0.20858
 C1193 C 0.55018 0.14915 0.22918
 C1194 C 0.56390 0.13596 0.24153
 H1195 H 0.57288 0.05274 0.27145
 H1196 H 0.58963 0.02226 0.28994
 H1197 H 0.65276 0.05474 0.28824
 H1198 H 0.63540 0.08553 0.27031
 H1199 H 0.57097 0.09463 0.20630
 H1200 H 0.54700 0.11757 0.18458
 H1201 H 0.54424 0.16413 0.23597
 H1202 H 0.56825 0.14091 0.25758
 C1203 C 0.38520 0.07538 0.73894
 C1204 C 0.37706 0.05901 0.75207
 C1205 C 0.36636 0.04120 0.74319
 C1206 C 0.36328 0.03950 0.72093
 C1207 C 0.37152 0.05620 0.70785
 C1208 C 0.38233 0.07402 0.71681
 C1209 C 0.39764 0.09273 0.74837
 C1210 C 0.40851 0.10631 0.75730
 C1211 C 0.42200 0.12123 0.76915
 C1212 C 0.42722 0.11646 0.79037
 C1213 C 0.44160 0.12971 0.80179
 C1214 C 0.45102 0.14802 0.79216
 C1215 C 0.44523 0.15308 0.77098
 C1216 C 0.43083 0.13969 0.75951
 H1217 H 0.37932 0.05982 0.76921
 H1218 H 0.36023 0.02882 0.75385
 H1219 H 0.37050 0.05505 0.69062
 H1220 H 0.38893 0.08643 0.70646
 H1221 H 0.42051 0.10221 0.79798
 H1222 H 0.44563 0.12538 0.81807
 H1223 H 0.45227 0.16702 0.76312
 H1224 H 0.42695 0.14348 0.74305
 C1225 C 0.61364 0.73683 0.07492
 C1226 C 0.61051 0.71511 0.06945
 C1227 C 0.62183 0.70622 0.05210
 C1228 C 0.63640 0.71899 0.04012
 C1229 C 0.63984 0.74059 0.04600
 C1230 C 0.62856 0.74945 0.06334
 C1231 C 0.60014 0.74681 0.09103
 C1232 C 0.58837 0.75593 0.10363
 C1233 C 0.57381 0.76771 0.11752
 C1234 C 0.56573 0.75843 0.13633
 C1235 C 0.55063 0.76975 0.14900
 C1236 C 0.54339 0.79044 0.14291
 C1237 C 0.55193 0.79970 0.12416
 C1238 C 0.56700 0.78841 0.11160
 H1239 H 0.59881 0.70527 0.07814
 H1240 H 0.61871 0.68963 0.04755
 H1241 H 0.65082 0.75073 0.03677
 H1242 H 0.63093 0.76632 0.06729
 H1243 H 0.57085 0.74237 0.14103
 H1244 H 0.54434 0.76218 0.16333
 H1245 H 0.54676 0.81560 0.11902
 H1246 H 0.57311 0.79573 0.09706
 C1247 C 0.39565 0.27359 0.07507
 C1248 C 0.40841 0.28832 0.06351
 C1249 C 0.39912 0.29973 0.04653
 C1250 C 0.37693 0.29661 0.04102
 C1251 C 0.36402 0.28220 0.05296
 C1252 C 0.37336 0.27074 0.06995
 C1253 C 0.40602 0.26032 0.09101
 C1254 C 0.41553 0.24896 0.10363
 C1255 C 0.42782 0.23523 0.11781
 C1256 C 0.43365 0.21443 0.11120
 C1257 C 0.44734 0.20167 0.12394
 C1258 C 0.45543 0.20959 0.14350
 C1259 C 0.44896 0.23030 0.15031
 C1260 C 0.43528 0.24305 0.13750
 H1261 H 0.42571 0.29051 0.06722
 H1262 H 0.40934 0.31061 0.03732
 H1263 H 0.34697 0.27938 0.04868
 H1264 H 0.36341 0.25923 0.07867
 H1265 H 0.42806 0.20825 0.09594
 H1266 H 0.45198 0.18581 0.11824
 H1267 H 0.45492 0.23687 0.16526
 H1268 H 0.43095 0.25918 0.14271
 C1269 C 0.61179 0.26568 0.92492
 C1270 C 0.62643 0.25287 0.93667
 C1271 C 0.63749 0.26151 0.95428
 C1272 C 0.63412 0.28310 0.96026
 C1273 C 0.61979 0.29604 0.94816
 C1274 C 0.60869 0.28736 0.93053
 C1275 C 0.59859 0.25592 0.90842
 C1276 C 0.58707 0.24690 0.89550
 C1277 C 0.57283 0.23510 0.88128
 C1278 C 0.56700 0.21392 0.88647
 C1279 C 0.55208 0.20257 0.87375
 C1280 C 0.54270 0.21224 0.85557
 C1281 C 0.54901 0.23341 0.85014
 C1282 C 0.56396 0.24479 0.86299
 H1283 H 0.62878 0.23603 0.93262
 H1284 H 0.64829 0.25125 0.96359
 H1285 H 0.61674 0.31263 0.95276
 H1286 H 0.59721 0.29735 0.92171
 H1287 H 0.57372 0.20626 0.90060
 H1288 H 0.54765 0.18630 0.87837
 H1289 H 0.54205 0.24130 0.83628
 H1290 H 0.56831 0.26123 0.85886
 C1291 C 0.39860 0.72715 0.92430
 C1292 C 0.41135 0.71253 0.93603
 C1293 C 0.40201 0.70118 0.95301
 C1294 C 0.37979 0.70427 0.95834
 C1295 C 0.36690 0.71859 0.94625
 C1296 C 0.37629 0.72998 0.92926
 C1297 C 0.40900 0.74038 0.90836
 C1298 C 0.41849 0.75174 0.89577
 C1299 C 0.43072 0.76557 0.88166
 C1300 C 0.43615 0.78649 0.88823
 C1301 C 0.44977 0.79939 0.87560
 C1302 C 0.45819 0.79149 0.85619
 C1303 C 0.45214 0.77065 0.84941
 C1304 C 0.43852 0.75775 0.86212
 H1305 H 0.42867 0.71036 0.93245
 H1306 H 0.41222 0.69038 0.96234
 H1307 H 0.34982 0.72138 0.95038
 H1308 H 0.36634 0.74141 0.92041
 H1309 H 0.43028 0.79266 0.90339
 H1310 H 0.45408 0.81535 0.88128
 H1311 H 0.45837 0.76410 0.83457
 H1312 H 0.43452 0.74153 0.85694
 C1313 C 0.73140 0.92390 0.39143
 C1314 C 0.74407 0.93908 0.38034
 C1315 C 0.73389 0.95654 0.37026
 C1316 C 0.71092 0.95895 0.37109
 C1317 C 0.69821 0.94342 0.38179
 C1318 C 0.70842 0.92595 0.39191
 C1319 C 0.74220 0.90740 0.40375
 C1320 C 0.75172 0.89439 0.41468
 C1321 C 0.76363 0.87987 0.42839
 C1322 C 0.78485 0.88542 0.43519
 C1323 C 0.79603 0.87235 0.44976
 C1324 C 0.78613 0.85349 0.45778
 C1325 C 0.76498 0.84775 0.45048
 C1326 C 0.75378 0.86091 0.43590
 H1327 H 0.76187 0.93776 0.38003
 H1328 H 0.74395 0.96849 0.36225
 H1329 H 0.68049 0.94522 0.38285
 H1330 H 0.69847 0.91442 0.40062
 H1331 H 0.79260 0.90009 0.42954
 H1332 H 0.81230 0.87723 0.45501
 H1333 H 0.75691 0.83336 0.45637
 H1334 H 0.73732 0.85652 0.43081
 C1335 C 0.26428 0.92615 0.61203
 C1336 C 0.28675 0.93085 0.60989
 C1337 C 0.29595 0.94831 0.62097
 C1338 C 0.28271 0.96114 0.63427
 C1339 C 0.26032 0.95607 0.63667
 C1340 C 0.25117 0.93864 0.62565
 C1341 C 0.25411 0.90978 0.59902
 C1342 C 0.24476 0.89692 0.58774
 C1343 C 0.23268 0.88268 0.57383
 C1344 C 0.24226 0.86372 0.56596
 C1345 C 0.23064 0.85071 0.55151
 C1346 C 0.20935 0.85659 0.54474
 C1347 C 0.19978 0.87549 0.55307
 C1348 C 0.21137 0.88840 0.56749
 H1349 H 0.29699 0.92143 0.59923
 H1350 H 0.31318 0.95221 0.61872
 H1351 H 0.24985 0.96595 0.64670
 H1352 H 0.23374 0.93527 0.62727
 H1353 H 0.25878 0.85918 0.57072
 H1354 H 0.23847 0.83628 0.54536
 H1355 H 0.18342 0.88048 0.54824
 H1356 H 0.20381 0.90306 0.57346
 C1357 C 0.27623 0.07416 0.39913
 C1358 C 0.27121 0.06938 0.37782
 C1359 C 0.28164 0.05214 0.36756
 C1360 C 0.29726 0.03958 0.37850
 C1361 C 0.30259 0.04476 0.39971
 C1362 C 0.29216 0.06200 0.40996
 C1363 C 0.26371 0.09022 0.41046
 C1364 C 0.25267 0.10292 0.42036
 C1365 C 0.23893 0.11716 0.43268
 C1366 C 0.21751 0.11076 0.43792
 C1367 C 0.20444 0.12374 0.45102
 C1368 C 0.21264 0.14336 0.45911
 C1369 C 0.23403 0.14992 0.45337
 C1370 C 0.24711 0.13686 0.44026
 H1371 H 0.25874 0.07852 0.36938
 H1372 H 0.27700 0.04810 0.35134
 H1373 H 0.31437 0.03505 0.40847
 H1374 H 0.29601 0.06542 0.42651
 H1375 H 0.21103 0.09552 0.43218
 H1376 H 0.18806 0.11821 0.45511
 H1377 H 0.24083 0.16491 0.45936
 H1378 H 0.26370 0.14194 0.43635
 C1379 C 0.72573 0.07742 0.60128
 C1380 C 0.70982 0.06539 0.59028
 C1381 C 0.69926 0.04814 0.60031
 C1382 C 0.70443 0.04280 0.62150
 C1383 C 0.72011 0.05512 0.63263
 C1384 C 0.73070 0.07239 0.62256
 C1385 C 0.73806 0.09370 0.59012
 C1386 C 0.74876 0.10656 0.58007
 C1387 C 0.76196 0.12087 0.56731
 C1388 C 0.75308 0.14004 0.55917
 C1389 C 0.76552 0.15290 0.54531
 C1390 C 0.78694 0.14664 0.53935
 C1391 C 0.79585 0.12760 0.54804
 C1392 C 0.78344 0.11484 0.56190
 H1393 H 0.70599 0.06900 0.57376
 H1394 H 0.68737 0.03864 0.59144
 H1395 H 0.72450 0.05100 0.64889
 H1396 H 0.74315 0.08145 0.63115
 H1397 H 0.73642 0.14480 0.56317
 H1398 H 0.75818 0.16744 0.53887
 H1399 H 0.81229 0.12233 0.54383
 H1400 H 0.79045 0.10000 0.56803
 C1401 C 0.92338 0.61460 0.26400
 C1402 C 0.93622 0.62968 0.25296
 C1403 C 0.95355 0.64025 0.26333
 C1404 C 0.95813 0.63592 0.28487
 C1405 C 0.94486 0.62117 0.29602
 C1406 C 0.92754 0.61059 0.28563
 C1407 C 0.90741 0.60183 0.25261
 C1408 C 0.89489 0.59052 0.24267
 C1409 C 0.88103 0.57636 0.23034
 C1410 C 0.88806 0.56951 0.21019
 C1411 C 0.87564 0.55453 0.19865
 C1412 C 0.85595 0.54615 0.20710
 C1413 C 0.84872 0.55350 0.22718
 C1414 C 0.86124 0.56848 0.23875
 H1415 H 0.93331 0.63273 0.23616
 H1416 H 0.96379 0.65136 0.25442
 H1417 H 0.94843 0.61731 0.31253
 H1418 H 0.91788 0.59877 0.29425
 H1419 H 0.90339 0.57544 0.20356
 H1420 H 0.88167 0.54927 0.18324
 H1421 H 0.83366 0.54733 0.23413
 H1422 H 0.85569 0.57361 0.25438
 C1423 C 0.92083 0.38283 0.73898
 C1424 C 0.93347 0.36822 0.75084
 C1425 C 0.95107 0.35736 0.74127
 C1426 C 0.95613 0.36096 0.71971
 C1427 C 0.94303 0.37519 0.70772
 C1428 C 0.92543 0.38605 0.71732
 C1429 C 0.90469 0.39604 0.74959
 C1430 C 0.89213 0.40772 0.75900
 C1431 C 0.87835 0.42234 0.77086
 C1432 C 0.85872 0.43029 0.76212
 C1433 C 0.84633 0.44567 0.77329
 C1434 C 0.85355 0.45332 0.79328
 C1435 C 0.87308 0.44488 0.80205
 C1436 C 0.88536 0.42952 0.79091
 H1437 H 0.93021 0.36578 0.76767
 H1438 H 0.96117 0.34666 0.75082
 H1439 H 0.94696 0.37847 0.69118
 H1440 H 0.91593 0.39752 0.70805
 H1441 H 0.85320 0.42490 0.74655
 H1442 H 0.83139 0.45187 0.76611
 H1443 H 0.87909 0.45037 0.81741
 H1444 H 0.90056 0.42354 0.79779
 C1445 C 0.07603 0.59978 0.72068
 C1446 C 0.07038 0.62144 0.72409
 C1447 C 0.05255 0.63053 0.71313
 C1448 C 0.04030 0.61802 0.69866
 C1449 C 0.04639 0.59650 0.69493
 C1450 C 0.06420 0.58745 0.70585
 C1451 C 0.09255 0.58954 0.73369
 C1452 C 0.10551 0.58020 0.74498
 C1453 C 0.11992 0.56821 0.75885
 C1454 C 0.11329 0.56384 0.77978
 C1455 C 0.12606 0.55051 0.79282
 C1456 C 0.14568 0.54129 0.78508
 C1457 C 0.15256 0.54627 0.76420
 C1458 C 0.13970 0.55960 0.75115
 H1459 H 0.07927 0.63106 0.73570
 H1460 H 0.04783 0.64706 0.71643
 H1461 H 0.03694 0.58657 0.68401
 H1462 H 0.06830 0.57063 0.70324
 H1463 H 0.09796 0.57033 0.78587
 H1464 H 0.12031 0.54704 0.80881
 H1465 H 0.16755 0.53941 0.75775
 H1466 H 0.14492 0.56278 0.73492
 C1467 C 0.07789 0.40210 0.27829
 C1468 C 0.07314 0.38047 0.27372
 C1469 C 0.05567 0.37011 0.28401
 C1470 C 0.04286 0.38128 0.29905
 C1471 C 0.04803 0.40281 0.30397
 C1472 C 0.06551 0.41315 0.29366
 C1473 C 0.09399 0.41355 0.26584
 C1474 C 0.10665 0.42356 0.25482
 C1475 C 0.12072 0.43601 0.24106
 C1476 C 0.11370 0.44083 0.22034
 C1477 C 0.12642 0.45412 0.20725
 C1478 C 0.14641 0.46281 0.21472
 C1479 C 0.15362 0.45748 0.23542
 C1480 C 0.14081 0.44418 0.24853
 H1481 H 0.08244 0.37185 0.26167
 H1482 H 0.05163 0.35364 0.27971
 H1483 H 0.03812 0.41175 0.31530
 H1484 H 0.06888 0.42996 0.29716
 H1485 H 0.09815 0.43463 0.21441
 H1486 H 0.12039 0.45787 0.19140
 H1487 H 0.16891 0.46394 0.24166
 H1488 H 0.14637 0.44060 0.26458
   
