data_POSCAR
  _audit_creation_date              2014-09-24
  _audit_creation_method            'ToBaCCo'
  _symmetry_space_group_name_H-M    'P1'
  _symmetry_Int_Tables_number       1
  _symmetry_cell_setting            triclinic
  loop_
  _symmetry_equiv_pos_as_xyz
 x,y,z
_cell_length_a 71.5847
_cell_length_b 70.5915
_cell_length_c 73.7171
_cell_angle_alpha 89.253700
_cell_angle_beta 90.410300
_cell_angle_gamma 89.280200
loop_
  _atom_site_label
  _atom_site_type_symbol
  _atom_site_fract_x
  _atom_site_fract_y
  _atom_site_fract_z
N1 N 0.28854 0.46329 0.90631
 N2 N 0.30178 0.47598 0.90694
 C3 C 0.30256 0.48521 0.89087
 C4 C 0.28900 0.47796 0.87960
 C5 C 0.28027 0.46409 0.88988
 H6 H 0.31254 0.49606 0.88750
 H7 H 0.26920 0.45482 0.88565
 Cu8 Cu 0.31722 0.47841 0.92839
 Cu9 Cu 0.28383 0.44618 0.92667
 Cu10 Cu 0.32133 0.44089 0.95680
 N11 N 0.33789 0.47595 0.94518
 N12 N 0.33991 0.46115 0.95608
 C13 C 0.35629 0.46258 0.96512
 C14 C 0.36491 0.47912 0.95932
 C15 C 0.35278 0.48720 0.94676
 H16 H 0.36168 0.45212 0.97470
 H17 H 0.35499 0.49997 0.93883
 N18 N 0.30061 0.42244 0.95522
 N19 N 0.28618 0.42501 0.94414
 C20 C 0.27455 0.41030 0.94585
 C21 C 0.28193 0.39773 0.95851
 C22 C 0.29848 0.40584 0.96428
 H23 H 0.26190 0.40850 0.93798
 H24 H 0.30831 0.40000 0.97410
 H25 H 0.29928 0.45725 0.94835
 H26 H 0.31223 0.44455 0.93031
 N27 N 0.44424 0.83663 0.45533
 N28 N 0.45455 0.84081 0.44118
 C29 C 0.46306 0.85747 0.44417
 C30 C 0.45751 0.86393 0.46110
 C31 C 0.44571 0.85028 0.46773
 H32 H 0.47225 0.86439 0.43466
 H33 H 0.43816 0.85060 0.48039
 Cu34 Cu 0.45560 0.82374 0.42032
 Cu35 Cu 0.42797 0.81512 0.45572
 Cu36 Cu 0.41734 0.79407 0.41667
 N37 N 0.45084 0.80809 0.39862
 N38 N 0.43623 0.79690 0.39725
 C39 C 0.43718 0.78762 0.38142
 C40 C 0.45311 0.79309 0.37239
 C41 C 0.46145 0.80616 0.38367
 H42 H 0.42725 0.77723 0.37691
 H43 H 0.47442 0.81345 0.38136
 N44 N 0.40064 0.79326 0.43768
 N45 N 0.40529 0.80100 0.45316
 C46 C 0.39114 0.79935 0.46495
 C47 C 0.37677 0.79008 0.45648
 C48 C 0.38326 0.78628 0.43915
 H49 H 0.39096 0.80533 0.47838
 H50 H 0.37571 0.77967 0.42823
 H51 H 0.44231 0.79941 0.42976
 H52 H 0.42759 0.82039 0.42317
 N53 N 0.93959 0.90105 0.80593
 N54 N 0.95420 0.90173 0.81676
 C55 C 0.96828 0.89155 0.80951
 C56 C 0.96203 0.88435 0.79316
 C57 C 0.94383 0.89070 0.79134
 H58 H 0.98179 0.88926 0.81587
 H59 H 0.93418 0.88752 0.78047
 Cu60 Cu 0.95288 0.91495 0.83980
 Cu61 Cu 0.91612 0.91289 0.81216
 Cu62 Cu 0.91666 0.94835 0.84211
 N63 N 0.95161 0.93445 0.85862
 N64 N 0.93821 0.94747 0.85945
 C65 C 0.94137 0.95831 0.87412
 C66 C 0.95747 0.95164 0.88287
 C67 C 0.96353 0.93660 0.87260
 H68 H 0.93231 0.96976 0.87838
 H69 H 0.97565 0.92768 0.87533
 N70 N 0.89666 0.94598 0.82374
 N71 N 0.89627 0.93146 0.81276
 C72 C 0.88132 0.93293 0.80173
 C73 C 0.87171 0.94930 0.80579
 C74 C 0.88176 0.95733 0.81992
 H75 H 0.87800 0.92310 0.79107
 H76 H 0.87858 0.97041 0.82679
 H77 H 0.93686 0.93513 0.82665
 H78 H 0.92429 0.92040 0.84363
 N79 N 0.45220 -0.09655 0.30850
 N80 N 0.45811 -0.09990 0.32515
 C81 C 0.47052 -0.11429 0.32530
 C82 C 0.47274 -0.12024 0.30777
 C83 C 0.46081 -0.10880 0.29733
 H84 H 0.47802 -0.11947 0.33720
 H85 H 0.45865 -0.10924 0.28282
 Cu86 Cu 0.45172 -0.08338 0.34462
 Cu87 Cu 0.43369 -0.07651 0.30318
 Cu88 Cu 0.42504 -0.04475 0.33801
 N89 N 0.45378 -0.06184 0.36008
 N90 N 0.44373 -0.04630 0.35764
 C91 C 0.44906 -0.03352 0.37010
 C92 C 0.46341 -0.04168 0.38047
 C93 C 0.46593 -0.05954 0.37373
 H94 H 0.44326 -0.01937 0.37124
 H95 H 0.47612 -0.07007 0.37826
 N96 N 0.41165 -0.04356 0.31436
 N97 N 0.41515 -0.05554 0.30112
 C98 C 0.40279 -0.05233 0.28754
 C99 C 0.39095 -0.03770 0.29238
 C100 C 0.39699 -0.03238 0.30946
 H101 H 0.40176 -0.06069 0.27540
 H102 H 0.39062 -0.02189 0.31808
 H103 H 0.44410 -0.05861 0.32272
 H104 H 0.42318 -0.07267 0.32900
 N105 N 0.80422 0.31633 0.36006
 N106 N 0.81891 0.30541 0.36336
 C107 C 0.81609 0.29541 0.37876
 C108 C 0.79865 0.30038 0.38545
 C109 C 0.79154 0.31365 0.37321
 H110 H 0.82629 0.28587 0.38495
 H111 H 0.77838 0.32128 0.37414
 Cu112 Cu 0.84082 0.30643 0.34779
 Cu113 Cu 0.80351 0.33425 0.33960
 Cu114 Cu 0.84805 0.34928 0.32961
 N115 N 0.86248 0.31145 0.33258
 N116 N 0.86624 0.32882 0.32722
 C117 C 0.88148 0.32858 0.31667
 C118 C 0.88702 0.31002 0.31454
 C119 C 0.87479 0.29942 0.32494
 H120 H 0.88671 0.34075 0.30931
 H121 H 0.87429 0.28415 0.32612
 N122 N 0.82544 0.36399 0.32321
 N123 N 0.80841 0.35753 0.32564
 C124 C 0.79618 0.36870 0.31642
 C125 C 0.80615 0.38277 0.30770
 C126 C 0.82455 0.37952 0.31249
 H127 H 0.78131 0.36627 0.31562
 H128 H 0.83655 0.38700 0.30737
 H129 H 0.82846 0.32892 0.32552
 H130 H 0.82918 0.33911 0.34877
 N131 N -0.17790 0.86189 0.79598
 N132 N -0.19375 0.86079 0.80481
 C133 C -0.20418 0.87641 0.80119
 C134 C -0.19433 0.88793 0.78941
 C135 C -0.17773 0.87826 0.78639
 H136 H -0.21781 0.87919 0.80685
 H137 H -0.16632 0.88289 0.77794
 Cu138 Cu -0.19926 0.83939 0.82061
 Cu139 Cu -0.15862 0.84214 0.79787
 Cu140 Cu -0.16763 0.80418 0.82664
 N141 N -0.20359 0.81834 0.83720
 N142 N -0.19127 0.80453 0.83938
 C143 C -0.19738 0.79234 0.85214
 C144 C -0.21443 0.79895 0.85833
 C145 C -0.21793 0.81545 0.84859
 H146 H -0.18960 0.78006 0.85703
 H147 H -0.22977 0.82493 0.85018
 N148 N -0.14447 0.80626 0.81262
 N149 N -0.14094 0.82069 0.80165
 C150 C -0.12399 0.81794 0.79418
 C151 C -0.11658 0.80098 0.80083
 C152 C -0.12992 0.79402 0.81244
 H153 H -0.11754 0.82757 0.78465
 H154 H -0.12899 0.78092 0.82019
 H155 H -0.17628 0.82031 0.80438
 H156 H -0.16574 0.83338 0.82371
 N157 N 0.95278 0.35606 0.41960
 N158 N 0.94797 0.34842 0.43521
 C159 C 0.95606 0.35805 0.44873
 C160 C 0.96652 0.37246 0.44102
 C161 C 0.96411 0.37074 0.42254
 H162 H 0.95445 0.35469 0.46298
 H163 H 0.97018 0.37949 0.41203
 Cu164 Cu 0.93217 0.32612 0.43664
 Cu165 Cu 0.94471 0.34571 0.39686
 Cu166 Cu 0.91142 0.31298 0.39628
 N167 N 0.91147 0.30788 0.43529
 N168 N 0.90329 0.30342 0.41986
 C169 C 0.88970 0.29091 0.42314
 C170 C 0.88923 0.28731 0.44153
 C171 C 0.90316 0.29836 0.44892
 H172 H 0.88086 0.28479 0.41286
 H173 H 0.90693 0.29948 0.46309
 N174 N 0.92766 0.31723 0.37572
 N175 N 0.94074 0.33012 0.37591
 C176 C 0.95136 0.32834 0.36105
 C177 C 0.94473 0.31331 0.35128
 C178 C 0.92948 0.30675 0.36077
 H179 H 0.96391 0.33628 0.35840
 H180 H 0.92110 0.29452 0.35776
 H181 H 0.91775 0.33518 0.41440
 H182 H 0.93536 0.31592 0.41065
 N183 N 0.45931 0.43955 0.83781
 N184 N 0.44447 0.44990 0.84146
 C185 C 0.44607 0.45650 0.85848
 C186 C 0.46289 0.44986 0.86575
 C187 C 0.47089 0.43921 0.85225
 H188 H 0.43578 0.46538 0.86501
 H189 H 0.48417 0.43173 0.85288
 Cu190 Cu 0.42460 0.45373 0.82349
 Cu191 Cu 0.46272 0.42743 0.81462
 Cu192 Cu 0.42270 0.42388 0.78832
 N193 N 0.40200 0.45105 0.80891
 N194 N 0.40111 0.43893 0.79553
 C195 C 0.38401 0.44003 0.78782
 C196 C 0.37365 0.45359 0.79688
 C197 C 0.38550 0.46029 0.81015
 H198 H 0.37968 0.43190 0.77623
 H199 H 0.38235 0.47117 0.81990
 N200 N 0.44501 0.40771 0.78474
 N201 N 0.46046 0.40982 0.79435
 C202 C 0.47301 0.39653 0.78957
 C203 C 0.46514 0.38542 0.77641
 C204 C 0.44734 0.39287 0.77358
 H205 H 0.48650 0.39431 0.79601
 H206 H 0.43666 0.38744 0.76469
 H207 H 0.44304 0.44111 0.79808
 H208 H 0.43449 0.42248 0.81401
 N209 N 0.78058 0.90839 0.93306
 N210 N 0.79210 0.90352 0.94635
 C211 C 0.78888 0.88551 0.95141
 C212 C 0.77449 0.87867 0.94073
 C213 C 0.76949 0.89362 0.92931
 H214 H 0.79655 0.87806 0.96203
 H215 H 0.75878 0.89368 0.91888
 Cu216 Cu 0.81027 0.92108 0.95604
 Cu217 Cu 0.78144 0.93348 0.92159
 Cu218 Cu 0.82518 0.95323 0.92602
 N219 N 0.83100 0.93762 0.96172
 N220 N 0.83648 0.95032 0.94977
 C221 C 0.85128 0.95949 0.95633
 C222 C 0.85535 0.95228 0.97344
 C223 C 0.84230 0.93827 0.97642
 H224 H 0.85880 0.97018 0.94883
 H225 H 0.84134 0.92907 0.98822
 N226 N 0.80733 0.96102 0.90710
 N227 N 0.79028 0.95425 0.90584
 C228 C 0.78129 0.96313 0.89200
 C229 C 0.79339 0.97612 0.88430
 C230 C 0.80971 0.97434 0.89418
 H231 H 0.76723 0.95998 0.88763
 H232 H 0.82239 0.98224 0.89213
 H233 H 0.80894 0.92897 0.92369
 H234 H 0.80006 0.94870 0.93802
 N235 N 0.31381 0.84794 0.29915
 N236 N 0.32669 0.84601 0.28665
 C237 C 0.32787 0.86216 0.27687
 C238 C 0.31510 0.87504 0.28351
 C239 C 0.30633 0.86556 0.29769
 H240 H 0.33744 0.86445 0.26579
 H241 H 0.29528 0.87095 0.30619
 Cu242 Cu 0.34135 0.82297 0.28453
 Cu243 Cu 0.30759 0.82704 0.31595
 Cu244 Cu 0.33322 0.78527 0.31072
 N245 N 0.36021 0.80328 0.28824
 N246 N 0.35692 0.78844 0.29859
 C247 C 0.37215 0.77710 0.29910
 C248 C 0.38577 0.78535 0.28858
 C249 C 0.37773 0.80200 0.28184
 H250 H 0.37332 0.76397 0.30678
 H251 H 0.38414 0.81254 0.27322
 N252 N 0.31318 0.78794 0.32845
 N253 N 0.30364 0.80380 0.33106
 C254 C 0.29209 0.80107 0.34528
 C255 C 0.29474 0.78266 0.35181
 C256 C 0.30815 0.77488 0.34081
 H257 H 0.28295 0.81181 0.35083
 H258 H 0.31436 0.76088 0.34221
 H259 H 0.33354 0.81392 0.31539
 H260 H 0.31538 0.80608 0.29902
 N261 N 0.78427 0.41271 0.45302
 N262 N 0.79466 0.41305 0.46777
 C263 C 0.79254 0.39682 0.47716
 C264 C 0.78024 0.38559 0.46770
 C265 C 0.77501 0.39623 0.45258
 H266 H 0.80029 0.39314 0.48937
 H267 H 0.76620 0.39178 0.44148
 Cu268 Cu 0.81255 0.43283 0.47195
 Cu269 Cu 0.78562 0.43278 0.43474
 Cu270 Cu 0.82780 0.45659 0.43544
 N271 N 0.83625 0.44547 0.47232
 N272 N 0.84260 0.45408 0.45775
 C273 C 0.86029 0.45942 0.46090
 C274 C 0.86525 0.45367 0.47837
 C275 C 0.84962 0.44501 0.48524
 H276 H 0.86900 0.46635 0.45098
 H277 H 0.84841 0.43793 0.49828
 N278 N 0.81042 0.45737 0.41445
 N279 N 0.79426 0.44855 0.41441
 C280 C 0.78566 0.45157 0.39833
 C281 C 0.79696 0.46291 0.38774
 C282 C 0.81248 0.46636 0.39837
 H283 H 0.77229 0.44577 0.39465
 H284 H 0.82441 0.47473 0.39457
 H285 H 0.81375 0.43156 0.43920
 H286 H 0.80201 0.45373 0.44687
 N287 N 0.93908 0.84994 -0.05373
 N288 N 0.95141 0.84863 -0.06679
 C289 C 0.96264 0.86382 -0.06625
 C290 C 0.95707 0.87520 -0.05210
 C291 C 0.94205 0.86593 -0.04444
 H292 H 0.97396 0.86655 -0.07553
 H293 H 0.93373 0.87049 -0.03309
 Cu294 Cu 0.95134 0.82741 -0.08347
 Cu295 Cu 0.91978 0.83112 -0.04996
 Cu296 Cu 0.91818 0.79398 -0.08010
 N297 N 0.94976 0.80670 -0.10064
 N298 N 0.93664 0.79388 -0.09943
 C299 C 0.93825 0.78188 -0.11340
 C300 C 0.95323 0.78736 -0.12386
 C301 C 0.96022 0.80320 -0.11538
 H302 H 0.92907 0.77014 -0.11595
 H303 H 0.97169 0.81184 -0.11989
 N304 N 0.90070 0.79649 -0.05964
 N305 N 0.90125 0.81075 -0.04825
 C306 C 0.88714 0.80902 -0.03636
 C307 C 0.87730 0.79289 -0.04036
 C308 C 0.88628 0.78526 -0.05522
 H309 H 0.88394 0.81895 -0.02575
 H310 H 0.88225 0.77282 -0.06261
 H311 H 0.93390 0.80858 -0.06147
 H312 H 0.91830 0.82302 -0.07684
 N313 N 0.28072 0.32165 0.79659
 N314 N 0.29084 0.31800 0.78220
 C315 C 0.28830 0.33202 0.76985
 C316 C 0.27592 0.34515 0.77684
 C317 C 0.27134 0.33813 0.79386
 H318 H 0.29537 0.33292 0.75696
 H319 H 0.26226 0.34466 0.80368
 Cu320 Cu 0.30748 0.29613 0.78135
 Cu321 Cu 0.28087 0.30493 0.81792
 Cu322 Cu 0.30819 0.26412 0.81509
 N323 N 0.32845 0.27856 0.78469
 N324 N 0.32844 0.26581 0.79783
 C325 C 0.34453 0.25580 0.79754
 C326 C 0.35533 0.26276 0.78360
 C327 C 0.34469 0.27721 0.77562
 H328 H 0.34838 0.24475 0.80721
 H329 H 0.34860 0.28641 0.76447
 N330 N 0.29260 0.26986 0.83610
 N331 N 0.28288 0.28577 0.83767
 C332 C 0.27553 0.28633 0.85445
 C333 C 0.28100 0.26999 0.86379
 C334 C 0.29169 0.25989 0.85172
 H335 H 0.26720 0.29792 0.85957
 H336 H 0.29904 0.24666 0.85444
 H337 H 0.30714 0.29324 0.81410
 H338 H 0.28668 0.28126 0.80373
 N339 N 0.16012 0.55509 0.54382
 N340 N 0.16198 0.54031 0.55486
 C341 C 0.14620 0.53011 0.55429
 C342 C 0.13393 0.53896 0.54221
 C343 C 0.14320 0.55463 0.53582
 H344 H 0.14381 0.51734 0.56215
 H345 H 0.13786 0.56500 0.52612
 Cu346 Cu 0.18444 0.53570 0.56990
 Cu347 Cu 0.17958 0.57418 0.54049
 Cu348 Cu 0.21883 0.56731 0.56510
 N349 N 0.20434 0.53798 0.58776
 N350 N 0.21779 0.55036 0.58604
 C351 C 0.22918 0.54902 0.60063
 C352 C 0.22251 0.53500 0.61204
 C353 C 0.20674 0.52823 0.60340
 H354 H 0.24122 0.55780 0.60294
 H355 H 0.19741 0.51737 0.60819
 N356 N 0.21593 0.58876 0.54852
 N357 N 0.20048 0.59137 0.53902
 C358 C 0.20176 0.60745 0.52918
 C359 C 0.21893 0.61542 0.53277
 C360 C 0.22756 0.60321 0.54512
 H361 H 0.19079 0.61310 0.52045
 H362 H 0.24110 0.60495 0.55145
 H363 H 0.19486 0.55060 0.54756
 H364 H 0.18513 0.56450 0.56673
 N365 N 0.59042 0.69756 0.04212
 N366 N 0.59020 0.71073 0.05458
 C367 C 0.60414 0.72292 0.05144
 C368 C 0.61365 0.71714 0.03622
 C369 C 0.60459 0.70095 0.03060
 H370 H 0.60756 0.73477 0.05993
 H371 H 0.60837 0.69190 0.01945
 Cu372 Cu 0.57281 0.70995 0.07469
 Cu373 Cu 0.57336 0.67610 0.04308
 Cu374 Cu 0.53573 0.68193 0.07198
 N375 N 0.55661 0.70583 0.09544
 N376 N 0.54184 0.69507 0.09416
 C377 C 0.53274 0.69501 0.11005
 C378 C 0.54241 0.70619 0.12201
 C379 C 0.55752 0.71291 0.11229
 H380 H 0.52007 0.68728 0.11274
 H381 H 0.56832 0.72225 0.11702
 N382 N 0.53666 0.66244 0.05332
 N383 N 0.55114 0.65964 0.04265
 C384 C 0.54824 0.64382 0.03299
 C385 C 0.53118 0.63635 0.03805
 C386 C 0.52427 0.64854 0.05087
 H387 H 0.55817 0.63776 0.02366
 H388 H 0.51162 0.64680 0.05862
 H389 H 0.55347 0.69386 0.05219
 H390 H 0.56370 0.67734 0.06966
 N391 N 0.70452 0.23647 0.67044
 N392 N 0.71765 0.22347 0.67275
 C393 C 0.72933 0.22406 0.65854
 C394 C 0.72295 0.23809 0.64663
 C395 C 0.70727 0.24570 0.65459
 H396 H 0.74132 0.21478 0.65697
 H397 H 0.69827 0.25673 0.64890
 Cu398 Cu 0.71830 0.20641 0.69386
 Cu399 Cu 0.68430 0.23911 0.68755
 Cu400 Cu 0.67800 0.20642 0.71972
 N401 N 0.71310 0.18694 0.71267
 N402 N 0.69785 0.18726 0.72263
 C403 C 0.69775 0.17185 0.73352
 C404 C 0.71344 0.16112 0.73010
 C405 C 0.72299 0.17106 0.71681
 H406 H 0.68668 0.16815 0.74277
 H407 H 0.73575 0.16676 0.71020
 N408 N 0.66226 0.22891 0.71784
 N409 N 0.66410 0.24159 0.70482
 C410 C 0.64880 0.25297 0.70440
 C411 C 0.63685 0.24696 0.71789
 C412 C 0.64602 0.23185 0.72634
 H413 H 0.64567 0.26351 0.69399
 H414 H 0.64068 0.22250 0.73673
 H415 H 0.70060 0.22114 0.71139
 H416 H 0.68988 0.20565 0.69386
 N417 N 1.10825 0.06935 0.18763
 N418 N 1.10688 0.05111 0.18462
 C419 C 1.12115 0.04192 0.19296
 C420 C 1.13200 0.05527 0.20158
 C421 C 1.12358 0.07249 0.19771
 H422 H 1.12322 0.02672 0.19293
 H423 H 1.12772 0.08620 0.20264
 Cu424 Cu 1.08638 0.04135 0.17028
 Cu425 Cu 1.08856 0.08707 0.18058
 Cu426 Cu 1.04600 0.06537 0.17440
 N427 N 1.06406 0.03368 0.15745
 N428 N 1.04818 0.04302 0.15918
 C429 C 1.03548 0.03584 0.14772
 C430 C 1.04400 0.02137 0.13813
 C431 C 1.06209 0.02035 0.14473
 H432 H 1.02155 0.04163 0.14575
 H433 H 1.07328 0.01141 0.13980
 N434 N 1.04832 0.09179 0.18224
 N435 N 1.06461 0.10031 0.18319
 C436 C 1.06211 0.11776 0.18980
 C437 C 1.04344 0.12032 0.19338
 C438 C 1.03494 0.10367 0.18828
 H439 H 1.07329 0.12728 0.19323
 H440 H 1.02040 0.10004 0.18978
 H441 H 1.07152 0.06576 0.18821
 H442 H 1.07077 0.07169 0.16346
 N443 N 0.04932 0.16944 1.03406
 N444 N 0.03914 0.16696 1.04865
 C445 C 0.03114 0.14981 1.04799
 C446 C 0.03666 0.14115 1.03207
 C447 C 0.04811 0.15405 1.02357
 H448 H 0.02226 0.14405 1.05844
 H449 H 0.05532 0.15223 1.01086
 Cu450 Cu 0.03747 0.18642 1.06712
 Cu451 Cu 0.06386 0.19223 1.03019
 Cu452 Cu 0.07484 0.21438 1.07045
 N453 N 0.03998 0.20444 1.08674
 N454 N 0.05473 0.21526 1.08796
 C455 C 0.05365 0.22554 1.10314
 C456 C 0.03729 0.22105 1.11188
 C457 C 0.02889 0.20756 1.10112
 H458 H 0.06418 0.23531 1.10767
 H459 H 0.01603 0.20020 1.10375
 N460 N 0.08924 0.21779 1.04807
 N461 N 0.08463 0.20993 1.03255
 C462 C 0.09734 0.21456 1.01996
 C463 C 0.11056 0.22589 1.02794
 C464 C 0.10497 0.22774 1.04576
 H465 H 0.09747 0.20933 1.00623
 H466 H 0.11208 0.23522 1.05643
 H467 H 0.06962 0.18924 1.05684
 H468 H 0.05522 0.21070 1.05095
 N469 N 0.15988 0.70229 0.67118
 N470 N 0.16116 0.69277 0.68659
 C471 C 0.14747 0.69847 0.69777
 C472 C 0.13705 0.71246 0.68893
 C473 C 0.14535 0.71457 0.67211
 H474 H 0.14529 0.69279 0.71127
 H475 H 0.14094 0.72411 0.66127
 Cu476 Cu 0.18048 0.67373 0.69038
 Cu477 Cu 0.17682 0.69730 0.65095
 Cu478 Cu 0.20745 0.65885 0.65624
 N479 N 0.19509 0.65060 0.69257
 N480 N 0.20584 0.64476 0.67932
 C481 C 0.21382 0.62804 0.68426
 C482 C 0.20756 0.62323 0.70149
 C483 C 0.19571 0.63784 0.70627
 H484 H 0.22294 0.61977 0.67573
 H485 H 0.18775 0.63882 0.71864
 N486 N 0.20664 0.67514 0.63406
 N487 N 0.19509 0.68981 0.63216
 C488 C 0.19804 0.69817 0.61591
 C489 C 0.21211 0.68833 0.60709
 C490 C 0.21715 0.67378 0.61898
 H491 H 0.19043 0.71048 0.61085
 H492 H 0.22782 0.66309 0.61679
 H493 H 0.18038 0.66891 0.65782
 H494 H 0.19922 0.68522 0.66507
 N495 N 1.16747 0.14048 0.18191
 N496 N 1.17138 0.13440 0.16548
 C497 C 1.18060 0.11773 0.16680
 C498 C 1.18330 0.11336 0.18488
 C499 C 1.17466 0.12800 0.19421
 H500 H 1.18674 0.11038 0.15548
 H501 H 1.17431 0.12982 0.20875
 Cu502 Cu 1.17043 0.15084 0.14378
 Cu503 Cu 1.15438 0.16506 0.18570
 Cu504 Cu 1.15554 0.19505 0.15008
 N505 N 1.17865 0.17148 0.12825
 N506 N 1.17378 0.18912 0.13151
 C507 C 1.18305 0.20068 0.12018
 C508 C 1.19424 0.18957 0.10919
 C509 C 1.19086 0.17113 0.11447
 H510 H 1.18171 0.21596 0.11998
 H511 H 1.19743 0.15845 0.10925
 N512 N 1.13618 0.19713 0.16830
 N513 N 1.13563 0.18560 0.18246
 C514 C 1.12057 0.19016 0.19251
 C515 C 1.11121 0.20528 0.18402
 C516 C 1.12156 0.20926 0.16876
 H517 H 1.11654 0.18274 0.20477
 H518 H 1.11847 0.21999 0.15853
 H519 H 1.14901 0.16232 0.15941
 H520 H 1.17344 0.16953 0.16455
 N521 N 0.66219 1.04309 0.55375
 N522 N 0.66543 1.05519 0.54047
 C523 C 0.65021 1.05680 0.52974
 C524 C 0.63676 1.04484 0.53645
 C525 C 0.64481 1.03630 0.55172
 H526 H 0.64904 1.06591 0.51786
 H527 H 0.63846 1.02619 0.56087
 Cu528 Cu 0.68922 1.06760 0.53833
 Cu529 Cu 0.68087 1.03748 0.57265
 Cu530 Cu 0.71676 1.07010 0.57511
 N531 N 0.70869 1.08618 0.53992
 N532 N 0.71929 1.08729 0.55447
 C533 C 0.73028 1.10252 0.55290
 C534 C 0.72619 1.11146 0.53650
 C535 C 0.71249 1.10068 0.52858
 H536 H 0.73980 1.10718 0.56332
 H537 H 0.70511 1.10378 0.51601
 N538 N 0.71188 1.05138 0.59444
 N539 N 0.69830 1.03892 0.59357
 C540 C 0.69817 1.02875 0.60917
 C541 C 0.71233 1.03510 0.62031
 C542 C 0.72076 1.04942 0.61052
 H543 H 0.68819 1.01785 0.61241
 H544 H 0.73219 1.05812 0.61493
 H545 H 0.68849 1.06514 0.57115
 H546 H 0.70539 1.04783 0.56145
 N547 N 0.55587 0.54976 0.14629
 N548 N 0.54297 0.56309 0.14750
 C549 C 0.53331 0.56423 0.13180
 C550 C 0.54046 0.55085 0.12015
 C551 C 0.55479 0.54185 0.12979
 H552 H 0.52181 0.57398 0.12907
 H553 H 0.56369 0.53039 0.12527
 Cu554 Cu 0.53970 0.57741 0.16957
 Cu555 Cu 0.57257 0.54345 0.16656
 Cu556 Cu 0.57455 0.57728 0.20032
 N557 N 0.54120 0.59663 0.18806
 N558 N 0.55491 0.59658 0.20002
 C559 C 0.55320 0.61194 0.21053
 C560 C 0.53760 0.62219 0.20475
 C561 C 0.53033 0.61207 0.19049
 H562 H 0.56297 0.61567 0.22110
 H563 H 0.51842 0.61603 0.18209
 N564 N 0.59295 0.55648 0.19830
 N565 N 0.59213 0.54355 0.18555
 C566 C 0.60683 0.53160 0.18753
 C567 C 0.61734 0.53725 0.20222
 C568 C 0.60815 0.55306 0.20876
 H569 H 0.60991 0.51984 0.17872
 H570 H 0.61236 0.56163 0.22009
 H571 H 0.55948 0.55623 0.18849
 H572 H 0.57305 0.57157 0.17275
 N573 N 0.67613 0.69964 0.19677
 N574 N 0.67357 0.70889 0.18132
 C575 C 0.65937 0.72134 0.18306
 C576 C 0.65258 0.71987 0.20049
 C577 C 0.66357 0.70597 0.20892
 H578 H 0.65408 0.73057 0.17232
 H579 H 0.66241 0.70065 0.22268
 Cu580 Cu 0.68864 0.70382 0.16004
 Cu581 Cu 0.69566 0.68009 0.19945
 Cu582 Cu 0.70658 0.66002 0.15818
 N583 N 0.70017 0.69434 0.13806
 N584 N 0.70699 0.67700 0.13748
 C585 C 0.71388 0.67373 0.12091
 C586 C 0.71136 0.68992 0.11052
 C587 C 0.70256 0.70281 0.12178
 H588 H 0.72047 0.66061 0.11681
 H589 H 0.69836 0.71722 0.11850
 N590 N 0.71330 0.64831 0.18152
 N591 N 0.70961 0.65587 0.19741
 C592 C 0.71719 0.64466 0.21057
 C593 C 0.72625 0.62960 0.20233
 C594 C 0.72349 0.63241 0.18403
 H595 H 0.71639 0.64742 0.22494
 H596 H 0.72875 0.62360 0.17326
 H597 H 0.71089 0.68244 0.17523
 H598 H 0.68667 0.67286 0.17499
 N599 N 0.14195 0.07248 1.05534
 N600 N 0.14100 0.05760 1.06620
 C601 C 0.12553 0.04774 1.06195
 C602 C 0.11637 0.05703 1.04767
 C603 C 0.12720 0.07263 1.04391
 H604 H 0.12109 0.03501 1.06890
 H605 H 0.12444 0.08336 1.03360
 Cu606 Cu 0.15998 0.05326 1.08512
 Cu607 Cu 0.16211 0.09084 1.05686
 Cu608 Cu 0.19614 0.08278 1.08997
 N609 N 0.17891 0.04892 1.10408
 N610 N 0.19326 0.06027 1.10561
 C611 C 0.20393 0.05447 1.11984
 C612 C 0.19580 0.03867 1.12775
 C613 C 0.17991 0.03564 1.11742
 H614 H 0.21629 0.06165 1.12448
 H615 H 0.16967 0.02476 1.11976
 N616 N 0.19653 0.10478 1.07289
 N617 N 0.18353 0.10785 1.06035
 C618 C 0.18754 0.12385 1.05102
 C619 C 0.20386 0.13127 1.05801
 C620 C 0.20912 0.11883 1.07186
 H621 H 0.17916 0.12970 1.04001
 H622 H 0.22124 0.12006 1.08059
 H623 H 0.18187 0.07261 1.06794
 H624 H 0.16801 0.08685 1.08427
 N625 N 0.62127 0.19177 0.56510
 N626 N 0.61910 0.17870 0.55276
 C627 C 0.63440 0.17795 0.54228
 C628 C 0.64680 0.19138 0.54822
 C629 C 0.63802 0.19995 0.56278
 H630 H 0.63632 0.16845 0.53102
 H631 H 0.64331 0.21124 0.57106
 Cu632 Cu 0.59626 0.16430 0.55119
 Cu633 Cu 0.60173 0.19733 0.58276
 Cu634 Cu 0.56726 0.16319 0.58678
 N635 N 0.57772 0.14474 0.55386
 N636 N 0.56651 0.14402 0.56790
 C637 C 0.55539 0.12881 0.56634
 C638 C 0.56004 0.11961 0.55046
 C639 C 0.57422 0.13010 0.54295
 H640 H 0.54481 0.12478 0.57599
 H641 H 0.58157 0.12715 0.53051
 N642 N 0.57035 0.18397 0.60426
 N643 N 0.58336 0.19699 0.60268
 C644 C 0.58152 0.20938 0.61634
 C645 C 0.56658 0.20401 0.62692
 C646 C 0.55984 0.18782 0.61888
 H647 H 0.59026 0.22156 0.61837
 H648 H 0.54806 0.17954 0.62323
 H649 H 0.59545 0.16914 0.58373
 H650 H 0.57825 0.18476 0.57153
 N651 N 0.07955 0.54224 0.71040
 N652 N 0.07398 0.52947 0.69880
 C653 C 0.08801 0.51695 0.69604
 C654 C 0.10320 0.52226 0.70640
 C655 C 0.09727 0.53832 0.71545
 H656 H 0.08737 0.50514 0.68686
 H657 H 0.10518 0.54665 0.72494
 Cu658 Cu 0.04937 0.53133 0.68764
 Cu659 Cu 0.06345 0.56301 0.71805
 Cu660 Cu 0.02465 0.57188 0.69053
 N661 N 0.02978 0.53792 0.67028
 N662 N 0.02062 0.55414 0.67093
 C663 C 0.00941 0.55585 0.65621
 C664 C 0.01172 0.53984 0.64582
 C665 C 0.02477 0.52875 0.65519
 H666 H 0.00074 0.56812 0.65298
 H667 H 0.03106 0.51556 0.65091
 N668 N 0.03356 0.58987 0.70882
 N669 N 0.04814 0.58632 0.71946
 C670 C 0.05114 0.60144 0.72997
 C671 C 0.03789 0.61518 0.72573
 C672 C 0.02692 0.60738 0.71226
 H673 H 0.06251 0.60267 0.73961
 H674 H 0.01527 0.61406 0.70519
 H675 H 0.03726 0.55440 0.70968
 H676 H 0.05271 0.56503 0.69220
 N677 N 0.65970 0.52814 0.05450
 N678 N 0.66026 0.54133 0.04177
 C679 C 0.64755 0.53732 0.02879
 C680 C 0.63873 0.52068 0.03377
 C681 C 0.64685 0.51527 0.05005
 H682 H 0.64449 0.54616 0.01703
 H683 H 0.64291 0.50337 0.05851
 Cu684 Cu 0.67689 0.56287 0.04418
 Cu685 Cu 0.67370 0.52967 0.07704
 Cu686 Cu 0.70225 0.56839 0.08252
 N687 N 0.69297 0.58467 0.04747
 N688 N 0.70285 0.58665 0.06242
 C689 C 0.71264 0.60276 0.06121
 C690 C 0.70872 0.61137 0.04467
 C691 C 0.69615 0.59951 0.03625
 H692 H 0.72193 0.60793 0.07162
 H693 H 0.68980 0.60153 0.02301
 N694 N 0.69967 0.54829 0.10124
 N695 N 0.68878 0.53354 0.09899
 C696 C 0.68933 0.52269 0.11412
 C697 C 0.70113 0.53088 0.12650
 C698 C 0.70752 0.54712 0.11793
 H699 H 0.68148 0.50987 0.11621
 H700 H 0.71683 0.55749 0.12355
 H701 H 0.67569 0.55903 0.07709
 H702 H 0.69557 0.54557 0.06693
 N703 N 0.05146 0.70188 0.59734
 N704 N 0.04138 0.68645 0.59712
 C705 C 0.03016 0.68637 0.61177
 C706 C 0.03345 0.70262 0.62157
 C707 C 0.04704 0.71210 0.61196
 H708 H 0.02063 0.67517 0.61531
 H709 H 0.05365 0.72523 0.61548
 Cu710 Cu 0.04463 0.66769 0.57806
 Cu711 Cu 0.07041 0.70739 0.57950
 Cu712 Cu 0.07796 0.67404 0.54645
 N713 N 0.05005 0.64862 0.55974
 N714 N 0.06316 0.65122 0.54759
 C715 C 0.06447 0.63585 0.53707
 C716 C 0.05145 0.62290 0.54278
 C717 C 0.04249 0.63143 0.55724
 H718 H 0.07429 0.63409 0.52611
 H719 H 0.03159 0.62547 0.56553
 N720 N 0.09160 0.69799 0.54750
 N721 N 0.08898 0.71059 0.56031
 C722 C 0.10128 0.72472 0.55811
 C723 C 0.11202 0.72087 0.54312
 C724 C 0.10552 0.70381 0.53671
 H725 H 0.10269 0.73671 0.56697
 H726 H 0.11107 0.69581 0.52553
 H727 H 0.05890 0.69180 0.55881
 H728 H 0.07628 0.67927 0.57395
 N729 N 0.54374 1.02714 0.66387
 N730 N 0.52984 1.03946 0.66407
 C731 C 0.51746 1.03518 0.65102
 C732 C 0.52420 1.01966 0.64182
 C733 C 0.54090 1.01475 0.65041
 H734 H 0.50523 1.04364 0.64750
 H735 H 0.55070 1.00373 0.64664
 Cu736 Cu 0.53070 1.06220 0.67855
 Cu737 Cu 0.56511 1.02991 0.67991
 Cu738 Cu 0.56794 1.06661 0.70841
 N739 N 0.53205 1.08246 0.69648
 N740 N 0.54623 1.08443 0.70785
 C741 C 0.54335 1.10028 0.71760
 C742 C 0.52652 1.10852 0.71196
 C743 C 0.51978 1.09677 0.69873
 H744 H 0.55300 1.10561 0.72760
 H745 H 0.50704 1.09888 0.69096
 N746 N 0.58984 1.05109 0.70217
 N747 N 0.58863 1.03674 0.69103
 C748 C 0.60547 1.02826 0.68960
 C749 C 0.61796 1.03769 0.70044
 C750 C 0.60758 1.05214 0.70829
 H751 H 0.60839 1.01594 0.68147
 H752 H 0.61239 1.06243 0.71795
 H753 H 0.54591 1.05011 0.69948
 H754 H 0.55965 1.06378 0.68254
 N755 N 0.45425 0.34400 0.92751
 N756 N 0.44794 0.34269 0.94418
 C757 C 0.45363 0.35775 0.95366
 C758 C 0.46413 0.36915 0.94225
 C759 C 0.46425 0.35994 0.92581
 H760 H 0.45008 0.36026 0.96766
 H761 H 0.47103 0.36459 0.91349
 Cu762 Cu 0.43212 0.32196 0.95165
 Cu763 Cu 0.44920 0.32480 0.90939
 Cu764 Cu 0.42163 0.28714 0.92296
 N765 N 0.41063 0.30590 0.95553
 N766 N 0.40662 0.29221 0.94430
 C767 C 0.39091 0.28368 0.94980
 C768 C 0.38465 0.29266 0.96526
 C769 C 0.39752 0.30666 0.96852
 H770 H 0.38432 0.27222 0.94268
 H771 H 0.39710 0.31697 0.97925
 N772 N 0.43266 0.28909 0.89866
 N773 N 0.44264 0.30371 0.89330
 C774 C 0.44779 0.30112 0.87598
 C775 C 0.44066 0.28407 0.87015
 C776 C 0.43117 0.27684 0.88488
 H777 H 0.45636 0.31080 0.86833
 H778 H 0.42372 0.26361 0.88550
 H779 H 0.42411 0.31584 0.92026
 H780 H 0.44586 0.30285 0.92729
 N781 N 0.95406 0.43372 0.36201
 N782 N 0.94295 0.44840 0.35897
 C783 C 0.94516 0.46113 0.37217
 C784 C 0.95850 0.45429 0.38420
 C785 C 0.96401 0.43679 0.37734
 H786 H 0.93735 0.47430 0.37314
 H787 H 0.97402 0.42685 0.38323
 Cu788 Cu 0.92583 0.44935 0.33869
 Cu789 Cu 0.95367 0.41173 0.34577
 Cu790 Cu 0.91792 0.41130 0.31328
 N791 N 0.90344 0.44759 0.32423
 N792 N 0.90012 0.43285 0.31402
 C793 C 0.88328 0.43543 0.30587
 C794 C 0.87580 0.45265 0.31153
 C795 C 0.88896 0.45984 0.32316
 H796 H 0.87681 0.42538 0.29692
 H797 H 0.88796 0.47297 0.33052
 N798 N 0.93751 0.39107 0.31531
 N799 N 0.95080 0.39103 0.32788
 C800 C 0.96188 0.37564 0.32564
 C801 C 0.95547 0.36560 0.31091
 C802 C 0.93993 0.37577 0.30471
 H803 H 0.97403 0.37212 0.33388
 H804 H 0.93109 0.37234 0.29331
 H805 H 0.94198 0.42416 0.32248
 H806 H 0.92545 0.41504 0.33986
 N807 N 0.28411 0.95321 0.41554
 N808 N 0.29628 0.96687 0.41377
 C809 C 0.29242 0.97670 0.39839
 C810 C 0.27701 0.96866 0.39013
 C811 C 0.27208 0.95390 0.40144
 H812 H 0.30082 0.98811 0.39313
 H813 H 0.26130 0.94364 0.39892
 Cu814 Cu 0.31731 0.96925 0.43048
 Cu815 Cu 0.28658 0.93355 0.43395
 Cu816 Cu 0.32536 0.93484 0.46205
 N817 N 0.33923 0.96936 0.44629
 N818 N 0.34224 0.95594 0.45852
 C819 C 0.35858 0.95904 0.46701
 C820 C 0.36635 0.97530 0.45963
 C821 C 0.35365 0.98148 0.44655
 H822 H 0.36443 0.94985 0.47747
 H823 H 0.35504 0.99366 0.43762
 N824 N 0.30658 0.91470 0.46358
 N825 N 0.29153 0.91468 0.45316
 C826 C 0.28204 0.89869 0.45629
 C827 C 0.29160 0.88797 0.46926
 C828 C 0.30704 0.89860 0.47366
 H829 H 0.26965 0.89472 0.44890
 H830 H 0.31821 0.89442 0.48288
 H831 H 0.30190 0.94888 0.45268
 H832 H 0.31556 0.93513 0.43565
 O833 O 0.23759 0.46822 0.79586
 O834 O 0.20607 0.47527 0.78911
 O835 O 0.25291 0.43112 0.75249
 O836 O 0.25359 0.43202 0.72254
 O837 O 0.28941 0.47614 0.76804
 O838 O 0.28957 0.50915 0.76245
 O839 O 0.21449 0.48588 0.69787
 O840 O 0.21073 0.45436 0.70722
 O841 O 0.19742 0.51973 0.74052
 O842 O 0.20511 0.52240 0.77218
 O843 O 0.24868 0.52990 0.71448
 O844 O 0.27949 0.51606 0.71623
 O845 O 0.24132 0.50242 0.69443
 O846 O 0.27499 0.49254 0.70157
 O847 O 0.22726 0.53830 0.73561
 O848 O 0.22968 0.53558 0.77016
 O849 O 0.19108 0.49473 0.72243
 O850 O 0.19078 0.46054 0.72896
 O851 O 0.26416 0.48539 0.79318
 O852 O 0.26938 0.51716 0.78143
 O853 O 0.28425 0.45139 0.74927
 O854 O 0.27578 0.45156 0.71643
 O855 O 0.23215 0.43895 0.77446
 O856 O 0.20090 0.45310 0.77108
 Zr857 Zr 0.22630 0.46800 0.76957
 O858 O 0.21175 0.48658 0.75179
 Zr859 Zr 0.25732 0.45656 0.73824
 O860 O 0.24344 0.47381 0.71869
 Zr861 Zr 0.26511 0.49296 0.76538
 O862 O 0.25255 0.51203 0.74660
 Zr863 Zr 0.21501 0.47708 0.72513
 O864 O 0.22828 0.45737 0.74311
 Zr865 Zr 0.22382 0.51361 0.75174
 O866 O 0.23662 0.49577 0.77167
 Zr867 Zr 0.25429 0.50125 0.72018
 O868 O 0.26936 0.48356 0.73868
 O869 O 0.25479 0.46562 0.76481
 O870 O 0.22578 0.50439 0.72511
 C871 C 0.25226 0.47585 0.80247
 C872 C 0.24281 0.42703 0.76631
 C873 C 0.29444 0.46062 0.76045
 C874 C 0.22587 0.49574 0.68841
 C875 C 0.18684 0.51072 0.72961
 C876 C 0.23751 0.54187 0.72172
 H877 H 0.19850 0.48716 0.75544
 H878 H 0.25853 0.52453 0.74754
 H879 H 0.26124 0.45707 0.77365
 H880 H 0.24492 0.46832 0.70651
 H881 H 0.21499 0.44269 0.71370
 H882 H 0.24533 0.43564 0.71223
 H883 H 0.24112 0.54201 0.76605
 H884 H 0.25744 0.51978 0.78766
 H885 H 0.18400 0.46540 0.73960
 H886 H 0.20071 0.44435 0.76069
 H887 H 0.28127 0.52437 0.72679
 H888 H 0.29472 0.50610 0.75038
 H889 H 0.20867 0.48847 0.79266
 H890 H 0.19595 0.51219 0.77395
 H891 H 0.28577 0.46109 0.71720
 H892 H 0.26963 0.48256 0.69389
 O893 O 0.20571 0.02689 0.24806
 O894 O 0.21057 0.02832 0.28091
 O895 O 0.25028 0.05798 0.22669
 O896 O 0.28242 0.05758 0.23071
 O897 O 0.23627 0.00559 0.20516
 O898 O 0.24494 -0.02725 0.21455
 O899 O 0.30488 0.01714 0.28112
 O900 O 0.29557 0.04886 0.27341
 O901 O 0.25958 -0.00861 0.30466
 O902 O 0.22544 -0.01188 0.29509
 O903 O 0.28729 -0.03635 0.26224
 O904 O 0.28722 -0.03071 0.22793
 O905 O 0.30929 -0.00767 0.26219
 O906 O 0.30634 -0.01005 0.22994
 O907 O 0.26425 -0.03624 0.28331
 O908 O 0.23093 -0.03469 0.27994
 O909 O 0.27888 0.01671 0.30329
 O910 O 0.27274 0.04914 0.29370
 O911 O 0.21013 0.00142 0.22984
 O912 O 0.22246 -0.02957 0.23274
 O913 O 0.25660 0.03013 0.20434
 O914 O 0.28873 0.03267 0.21282
 O915 O 0.22762 0.05690 0.24824
 O916 O 0.22704 0.05249 0.27982
 Zr917 Zr 0.23167 0.03054 0.26110
 O918 O 0.24925 0.01815 0.28095
 Zr919 Zr 0.26614 0.03275 0.23120
 O920 O 0.28523 0.01973 0.24967
 Zr921 Zr 0.23872 -0.00479 0.23232
 O922 O 0.25606 -0.01917 0.25137
 Zr923 Zr 0.27709 0.02587 0.27623
 O924 O 0.25911 0.04056 0.25781
 Zr925 Zr 0.24906 -0.01130 0.27796
 O926 O 0.22995 0.00092 0.25903
 Zr927 Zr 0.28367 -0.01005 0.24820
 O928 O 0.26654 0.00311 0.22784
 O929 O 0.23867 0.02447 0.23451
 O930 O 0.27686 -0.00363 0.27485
 C931 C 0.20000 0.01464 0.23655
 C932 C 0.23589 0.06486 0.23487
 C933 C 0.24457 0.01931 0.19689
 C934 C 0.31485 0.00361 0.27462
 C935 C 0.27107 0.00307 0.31184
 C936 C 0.27841 -0.04385 0.27563
 H937 H 0.24490 0.02196 0.29306
 H938 H 0.25493 -0.03296 0.24959
 H939 H 0.22997 0.03076 0.22579
 H940 H 0.29803 0.02422 0.24737
 H941 H 0.28869 0.05901 0.26667
 H942 H 0.29436 0.05465 0.23706
 H943 H 0.23313 -0.04274 0.26927
 H944 H 0.21643 -0.03003 0.24478
 H945 H 0.26113 0.04699 0.30057
 H946 H 0.23871 0.05984 0.28029
 H947 H 0.27779 -0.04062 0.23000
 H948 H 0.25637 -0.02368 0.20792
 H949 H 0.20551 0.01537 0.28007
 H950 H 0.22599 -0.00074 0.30309
 H951 H 0.29012 0.01954 0.20843
 H952 H 0.31057 0.00317 0.22861
 O953 O 0.57260 0.73251 0.25856
 O954 O 0.56255 0.73706 0.28920
 O955 O 0.52510 0.70781 0.23356
 O956 O 0.49533 0.71459 0.22865
 O957 O 0.55324 0.75465 0.20727
 O958 O 0.55340 0.78786 0.21193
 O959 O 0.47308 0.76550 0.26946
 O960 O 0.47741 0.73213 0.27004
 O961 O 0.51896 0.78731 0.29768
 O962 O 0.55203 0.78535 0.29525
 O963 O 0.50236 0.81034 0.24626
 O964 O 0.50707 0.80098 0.21508
 O965 O 0.47667 0.78650 0.24612
 O966 O 0.48734 0.78086 0.21405
 O967 O 0.52065 0.81062 0.27160
 O968 O 0.55610 0.80214 0.27305
 O969 O 0.49487 0.76666 0.29645
 O970 O 0.49648 0.73196 0.29363
 O971 O 0.57620 0.75372 0.23538
 O972 O 0.57098 0.78792 0.23486
 O973 O 0.52997 0.73301 0.20614
 O974 O 0.49581 0.73789 0.20948
 O975 O 0.54510 0.70792 0.25769
 O976 O 0.54028 0.71776 0.28871
 Zr977 Zr 0.54451 0.73628 0.26640
 O978 O 0.52711 0.75533 0.28045
 Zr979 Zr 0.51565 0.73594 0.23090
 O980 O 0.49667 0.75435 0.24368
 Zr981 Zr 0.54994 0.76729 0.23269
 O982 O 0.53228 0.78746 0.24487
 Zr983 Zr 0.49925 0.75190 0.27205
 O984 O 0.51642 0.73141 0.25927
 Zr985 Zr 0.53321 0.78342 0.27312
 O986 O 0.55251 0.76443 0.26105
 Zr987 Zr 0.50437 0.78232 0.23759
 O988 O 0.52232 0.76386 0.22339
 O989 O 0.54341 0.73925 0.23833
 O990 O 0.50534 0.77997 0.26582
 C991 C 0.58232 0.74044 0.24605
 C992 C 0.53655 0.69957 0.24471
 C993 C 0.54398 0.74174 0.19924
 C994 C 0.46701 0.77869 0.25868
 C995 C 0.50412 0.77986 0.30420
 C996 C 0.50902 0.81841 0.26029
 H997 H 0.52874 0.75319 0.29364
 H998 H 0.53614 0.80035 0.24127
 H999 H 0.55165 0.73011 0.23206
 H1000 H 0.48379 0.75158 0.23966
 H1001 H 0.48310 0.72013 0.26581
 H1002 H 0.48431 0.71886 0.23558
 H1003 H 0.55387 0.81182 0.26343
 H1004 H 0.57597 0.78697 0.24740
 H1005 H 0.50676 0.73387 0.30241
 H1006 H 0.52779 0.71218 0.28696
 H1007 H 0.51877 0.80808 0.21672
 H1008 H 0.54168 0.78804 0.20471
 H1009 H 0.56951 0.74906 0.28821
 H1010 H 0.55188 0.77303 0.30178
 H1011 H 0.49946 0.74868 0.20162
 H1012 H 0.47757 0.77135 0.21633
 O1013 O 0.05722 0.72419 0.74826
 O1014 O 0.05008 0.72446 0.78024
 O1015 O 0.00342 0.71194 0.72493
 O1016 O -0.02496 0.72505 0.72391
 O1017 O 0.03754 0.75722 0.70270
 O1018 O 0.04368 0.78895 0.71230
 O1019 O -0.03436 0.77029 0.77308
 O1020 O -0.03579 0.73696 0.76801
 O1021 O 0.01649 0.77884 0.79997
 O1022 O 0.04957 0.76933 0.79362
 O1023 O 0.00086 0.81239 0.75628
 O1024 O 0.00269 0.80877 0.72239
 O1025 O -0.02868 0.79410 0.75285
 O1026 O -0.02128 0.79418 0.72039
 O1027 O 0.02251 0.80530 0.77812
 O1028 O 0.05431 0.79095 0.77601
 O1029 O -0.01087 0.76299 0.79775
 O1030 O -0.01577 0.72973 0.78989
 O1031 O 0.06251 0.74807 0.72796
 O1032 O 0.06342 0.78165 0.73260
 O1033 O 0.01141 0.73927 0.70098
 O1034 O -0.02063 0.75049 0.70735
 O1035 O 0.02544 0.70467 0.74642
 O1036 O 0.02538 0.70903 0.77851
 Zr1037 Zr 0.03067 0.73062 0.75916
 O1038 O 0.01781 0.74918 0.77760
 Zr1039 Zr -0.00056 0.74136 0.72693
 O1040 O -0.01481 0.76032 0.74398
 Zr1041 Zr 0.03876 0.76572 0.72993
 O1042 O 0.02634 0.78586 0.74705
 Zr1043 Zr -0.01078 0.75224 0.77125
 O1044 O 0.00162 0.73183 0.75412
 Zr1045 Zr 0.02866 0.77646 0.77415
 O1046 O 0.04316 0.75739 0.75717
 Zr1047 Zr -0.00253 0.78717 0.74184
 O1048 O 0.01029 0.76870 0.72314
 O1049 O 0.02790 0.73862 0.73208
 O1050 O 0.00008 0.77935 0.76907
 C1051 C 0.06723 0.73256 0.73620
 C1052 C 0.01418 0.70018 0.73354
 C1053 C 0.02610 0.74668 0.69406
 C1054 C -0.03877 0.78594 0.76487
 C1055 C 0.00091 0.77310 0.80645
 C1056 C 0.01087 0.81665 0.77016
 H1057 H 0.01985 0.74438 0.79011
 H1058 H 0.03225 0.79830 0.74520
 H1059 H 0.03396 0.72941 0.72392
 H1060 H -0.02822 0.76069 0.74072
 H1061 H -0.03247 0.72514 0.76161
 H1062 H -0.03473 0.73081 0.73156
 H1063 H 0.05468 0.80039 0.76599
 H1064 H 0.06882 0.77833 0.74465
 H1065 H -0.00469 0.72816 0.79788
 H1066 H 0.01177 0.70675 0.77799
 H1067 H 0.01462 0.81482 0.72564
 H1068 H 0.03152 0.79221 0.70651
 H1069 H 0.05879 0.73524 0.78062
 H1070 H 0.04516 0.75837 0.80082
 H1071 H -0.01552 0.76181 0.70118
 H1072 H -0.03123 0.78458 0.72038
 O1073 O 0.03511 0.02577 0.01686
 O1074 O 0.03007 0.02672 -0.01552
 O1075 O -0.01364 0.05296 0.03738
 O1076 O -0.04434 0.04964 0.03603
 O1077 O 0.00584 -0.00024 0.06036
 O1078 O 0.00313 -0.03255 0.05095
 O1079 O -0.06367 0.00925 -0.01411
 O1080 O -0.05611 0.04146 -0.00865
 O1081 O -0.01740 -0.01539 -0.03813
 O1082 O 0.01662 -0.01645 -0.03062
 O1083 O -0.04211 -0.04271 0.00534
 O1084 O -0.04189 -0.03882 0.03839
 O1085 O -0.06563 -0.01576 0.00553
 O1086 O -0.06031 -0.01712 0.03905
 O1087 O -0.01896 -0.04265 -0.01562
 O1088 O 0.01540 -0.03791 -0.01232
 O1089 O -0.03845 0.00897 -0.03724
 O1090 O -0.03394 0.04215 -0.02922
 O1091 O 0.03308 0.00059 0.03633
 O1092 O 0.02466 -0.03198 0.03172
 O1093 O -0.01558 0.02384 0.06099
 O1094 O -0.04858 0.02391 0.05216
 O1095 O 0.00967 0.05369 0.01654
 O1096 O 0.01018 0.04893 -0.01570
 Zr1097 Zr 0.00858 0.02700 0.00400
 O1098 O -0.00799 0.01302 -0.01537
 Zr1099 Zr -0.02569 0.02625 0.03424
 O1100 O -0.04377 0.01259 0.01617
 Zr1101 Zr 0.00552 -0.00901 0.03314
 O1102 O -0.01132 -0.02449 0.01519
 Zr1103 Zr -0.03634 0.01907 -0.01066
 O1104 O -0.01970 0.03478 0.00741
 Zr1105 Zr -0.00555 -0.01650 -0.01176
 O1106 O 0.01296 -0.00254 0.00620
 Zr1107 Zr -0.03952 -0.01684 0.01876
 O1108 O -0.02284 -0.00319 0.03832
 O1109 O 0.00252 0.02023 0.03080
 O1110 O -0.03378 -0.01030 -0.00824
 C1111 C 0.04199 0.01444 0.02910
 C1112 C -0.00018 0.06121 0.02917
 C1113 C -0.00344 0.01275 0.06859
 C1114 C -0.07242 -0.00465 -0.00685
 C1115 C -0.03024 -0.00473 -0.04536
 C1116 C -0.03301 -0.05026 -0.00769
 H1117 H -0.00424 0.01692 -0.02772
 H1118 H -0.00911 -0.03818 0.01737
 H1119 H 0.01039 0.02719 0.03949
 H1120 H -0.05684 0.01642 0.01859
 H1121 H -0.04991 0.05180 -0.00204
 H1122 H -0.05492 0.04731 0.02770
 H1123 H 0.01302 -0.04687 -0.00220
 H1124 H 0.03133 -0.03050 0.02008
 H1125 H -0.02272 0.04007 -0.03671
 H1126 H -0.00206 0.05561 -0.01566
 H1127 H -0.03087 -0.04730 0.03722
 H1128 H -0.00943 -0.03163 0.05642
 H1129 H 0.03497 0.01356 -0.01580
 H1130 H 0.01610 -0.00427 -0.03740
 H1131 H -0.04755 0.01129 0.05814
 H1132 H -0.06821 -0.00563 0.03738
 O1133 O 0.05150 0.50819 0.52409
 O1134 O 0.05087 0.50858 0.49239
 O1135 O -0.00065 0.53638 0.53665
 O1136 O -0.03081 0.53174 0.53249
 O1137 O 0.01652 0.48535 0.56603
 O1138 O 0.01675 0.45308 0.55957
 O1139 O -0.04097 0.48744 0.48186
 O1140 O -0.03484 0.51919 0.48399
 O1141 O 0.00997 0.46095 0.46786
 O1142 O 0.04114 0.46077 0.47998
 O1143 O -0.02249 0.43764 0.50915
 O1144 O -0.02828 0.44375 0.54001
 O1145 O -0.04634 0.46488 0.50347
 O1146 O -0.04515 0.46674 0.53817
 O1147 O 0.00348 0.43668 0.49158
 O1148 O 0.03766 0.44247 0.50116
 O1149 O -0.01270 0.48337 0.46337
 O1150 O -0.00796 0.51917 0.46938
 O1151 O 0.04741 0.48527 0.54563
 O1152 O 0.03960 0.45177 0.54241
 O1153 O -0.00471 0.50936 0.56222
 O1154 O -0.03690 0.50723 0.54825
 O1155 O 0.02601 0.53599 0.52002
 O1156 O 0.02981 0.52880 0.48765
 Zr1157 Zr 0.02676 0.50852 0.50876
 O1158 O 0.01419 0.49188 0.48860
 Zr1159 Zr -0.01130 0.50907 0.53417
 O1160 O -0.02607 0.49375 0.51450
 Zr1161 Zr 0.02050 0.47478 0.53996
 O1162 O 0.00637 0.45733 0.52162
 Zr1163 Zr -0.01458 0.49756 0.48849
 O1164 O -0.00186 0.51550 0.50771
 Zr1165 Zr 0.01646 0.46294 0.49549
 O1166 O 0.03173 0.47942 0.51404
 Zr1167 Zr -0.02222 0.46477 0.52027
 O1168 O -0.00854 0.48014 0.54084
 O1169 O 0.01728 0.50369 0.53497
 O1170 O -0.01212 0.46869 0.49411
 C1171 C 0.05715 0.49812 0.53775
 C1172 C 0.01406 0.54421 0.53039
 C1173 C 0.00619 0.49877 0.57207
 C1174 C -0.05105 0.47470 0.48927
 C1175 C -0.00239 0.46946 0.45800
 C1176 C -0.01156 0.42947 0.49793
 H1177 H 0.01986 0.49460 0.47669
 H1178 H 0.00828 0.44392 0.52528
 H1179 H 0.02385 0.51146 0.54404
 H1180 H -0.03937 0.49768 0.51464
 H1181 H -0.03098 0.53009 0.49138
 H1182 H -0.03778 0.53023 0.52098
 H1183 H 0.03241 0.43271 0.50934
 H1184 H 0.04876 0.45325 0.53252
 H1185 H 0.00143 0.51415 0.46086
 H1186 H 0.01797 0.53617 0.48697
 H1187 H -0.01641 0.43710 0.54309
 H1188 H 0.00326 0.45304 0.56240
 H1189 H 0.05582 0.49542 0.49260
 H1190 H 0.04272 0.47297 0.47347
 H1191 H -0.03579 0.49625 0.55670
 H1192 H -0.05359 0.47695 0.53358
 O1193 O 0.55111 0.01823 0.51381
 O1194 O 0.54100 0.02638 0.48258
 O1195 O 0.50326 0.03404 0.54479
 O1196 O 0.47249 0.02724 0.54441
 O1197 O 0.53013 -0.02037 0.55328
 O1198 O 0.52880 -0.04996 0.53656
 O1199 O 0.45095 -0.00362 0.48963
 O1200 O 0.45625 0.02763 0.50241
 O1201 O 0.49652 -0.01353 0.45635
 O1202 O 0.53190 -0.01073 0.46127
 O1203 O 0.48149 -0.05471 0.49337
 O1204 O 0.48622 -0.05868 0.52746
 O1205 O 0.45486 -0.03246 0.50335
 O1206 O 0.46408 -0.04230 0.53323
 O1207 O 0.50171 -0.04572 0.47132
 O1208 O 0.53383 -0.03745 0.47146
 O1209 O 0.47278 0.00606 0.46477
 O1210 O 0.47469 0.03471 0.47742
 O1211 O 0.55374 -0.01066 0.52773
 O1212 O 0.54859 -0.04162 0.51708
 O1213 O 0.50677 0.00005 0.56101
 O1214 O 0.47353 -0.00161 0.55606
 O1215 O 0.52390 0.04192 0.52273
 O1216 O 0.52153 0.04594 0.49041
 Zr1217 Zr 0.52309 0.01956 0.50434
 O1218 O 0.50527 0.00898 0.48407
 Zr1219 Zr 0.49322 0.00741 0.53656
 O1220 O 0.47463 -0.00461 0.51777
 Zr1221 Zr 0.52725 -0.02247 0.52485
 O1222 O 0.51053 -0.03513 0.50494
 Zr1223 Zr 0.47731 0.00920 0.49263
 O1224 O 0.49475 0.02268 0.51184
 Zr1225 Zr 0.51178 -0.01972 0.48035
 O1226 O 0.53081 -0.00875 0.49955
 Zr1227 Zr 0.48250 -0.03292 0.51276
 O1228 O 0.49940 -0.02170 0.53360
 O1229 O 0.52116 0.00592 0.52935
 O1230 O 0.48372 -0.01914 0.48768
 C1231 C 0.56040 0.00529 0.52264
 C1232 C 0.51523 0.04526 0.53757
 C1233 C 0.52071 -0.01092 0.56496
 C1234 C 0.44502 -0.01999 0.49471
 C1235 C 0.48166 -0.00359 0.45297
 C1236 C 0.48997 -0.05726 0.47822
 H1237 H 0.50661 0.01659 0.47280
 H1238 H 0.51464 -0.04844 0.50349
 H1239 H 0.52940 0.01149 0.53865
 H1240 H 0.46171 -0.00354 0.52235
 H1241 H 0.46266 0.03798 0.50881
 H1242 H 0.46108 0.02468 0.53727
 H1243 H 0.53579 -0.04744 0.48083
 H1244 H 0.55335 -0.03692 0.50530
 H1245 H 0.48272 0.04400 0.48349
 H1246 H 0.51007 0.05251 0.49454
 H1247 H 0.49650 -0.06589 0.52175
 H1248 H 0.51753 -0.05143 0.54414
 H1249 H 0.54871 0.01494 0.48027
 H1250 H 0.52745 0.00138 0.45576
 H1251 H 0.47590 -0.01529 0.55829
 H1252 H 0.45699 -0.03110 0.53745
 O1253 O 0.55236 0.52237 -0.01731
 O1254 O 0.53811 0.51997 -0.04701
 O1255 O 0.51027 0.55004 0.01331
 O1256 O 0.48019 0.54548 0.02019
 O1257 O 0.53766 0.49961 0.03502
 O1258 O 0.53486 0.46649 0.02889
 O1259 O 0.45034 0.49803 -0.01940
 O1260 O 0.45647 0.53140 -0.01779
 O1261 O 0.49052 0.47513 -0.05292
 O1262 O 0.52514 0.47529 -0.05353
 O1263 O 0.47967 0.45004 -0.00190
 O1264 O 0.48929 0.45777 0.02982
 O1265 O 0.45545 0.47556 0.00251
 O1266 O 0.46940 0.47784 0.03308
 O1267 O 0.49550 0.44955 -0.02851
 O1268 O 0.52905 0.45512 -0.03443
 O1269 O 0.46867 0.49819 -0.04832
 O1270 O 0.47196 0.53165 -0.04367
 O1271 O 0.55727 0.49965 0.00444
 O1272 O 0.55027 0.46644 0.00484
 O1273 O 0.51628 0.52328 0.03908
 O1274 O 0.48243 0.52150 0.03953
 O1275 O 0.52720 0.54906 -0.01270
 O1276 O 0.51800 0.54172 -0.04316
 Zr1277 Zr 0.52335 0.52148 -0.02232
 O1278 O 0.50296 0.50507 -0.03523
 Zr1279 Zr 0.49902 0.52265 0.01586
 O1280 O 0.47751 0.50625 0.00461
 Zr1281 Zr 0.53068 0.48848 0.00948
 O1282 O 0.51064 0.47055 -0.00204
 Zr1283 Zr 0.47666 0.51025 -0.02363
 O1284 O 0.49669 0.52853 -0.01218
 Zr1285 Zr 0.50833 0.47619 -0.03004
 O1286 O 0.53011 0.49254 -0.01886
 Zr1287 Zr 0.48414 0.47732 0.00828
 O1288 O 0.50457 0.49377 0.02144
 O1289 O 0.52542 0.51723 0.00557
 O1290 O 0.48178 0.48137 -0.01970
 C1291 C 0.56297 0.51287 -0.00628
 C1292 C 0.52096 0.55761 0.00132
 C1293 C 0.53034 0.51303 0.04432
 C1294 C 0.44487 0.48455 -0.00886
 C1295 C 0.47584 0.48475 -0.05762
 C1296 C 0.48489 0.44195 -0.01653
 H1297 H 0.50302 0.50800 -0.04837
 H1298 H 0.51419 0.45721 0.00054
 H1299 H 0.53500 0.52523 0.01131
 H1300 H 0.46537 0.50967 0.01007
 H1301 H 0.46341 0.54278 -0.01405
 H1302 H 0.46769 0.54146 0.01606
 H1303 H 0.53018 0.44727 -0.02325
 H1304 H 0.55310 0.46686 -0.00829
 H1305 H 0.48194 0.53062 -0.05281
 H1306 H 0.50628 0.54840 -0.03990
 H1307 H 0.49913 0.44880 0.02589
 H1308 H 0.52425 0.46728 0.03740
 H1309 H 0.54448 0.50744 -0.04706
 H1310 H 0.52227 0.48679 -0.06090
 H1311 H 0.48530 0.50924 0.04567
 H1312 H 0.46132 0.48931 0.03299
 O1313 O 0.80114 0.29677 0.51315
 O1314 O 0.80210 0.29082 0.54515
 O1315 O 0.82725 0.24638 0.49250
 O1316 O 0.82268 0.21477 0.49560
 O1317 O 0.77800 0.26831 0.46770
 O1318 O 0.74527 0.26617 0.47529
 O1319 O 0.77902 0.19794 0.54378
 O1320 O 0.81123 0.20328 0.53914
 O1321 O 0.75734 0.24766 0.56581
 O1322 O 0.75831 0.28197 0.55665
 O1323 O 0.73009 0.22241 0.52274
 O1324 O 0.73499 0.22232 0.48940
 O1325 O 0.75586 0.19694 0.52256
 O1326 O 0.75511 0.20234 0.48947
 O1327 O 0.73108 0.24658 0.54278
 O1328 O 0.73719 0.28051 0.53899
 O1329 O 0.77962 0.22442 0.56650
 O1330 O 0.81272 0.22604 0.55929
 O1331 O 0.77748 0.29594 0.49238
 O1332 O 0.74527 0.28840 0.49393
 O1333 O 0.80027 0.24502 0.46843
 O1334 O 0.79793 0.21186 0.47735
 O1335 O 0.82807 0.27015 0.51307
 O1336 O 0.82305 0.26994 0.54503
 Zr1337 Zr 0.80159 0.26961 0.52517
 O1338 O 0.78611 0.25402 0.54416
 Zr1339 Zr 0.80045 0.23485 0.49535
 O1340 O 0.78490 0.21762 0.51310
 Zr1341 Zr 0.76732 0.26819 0.49438
 O1342 O 0.75028 0.25256 0.51214
 Zr1343 Zr 0.79054 0.22491 0.54010
 O1344 O 0.80791 0.24057 0.52243
 Zr1345 Zr 0.75751 0.25845 0.53913
 O1346 O 0.77297 0.27586 0.52140
 Zr1347 Zr 0.75619 0.22352 0.50950
 O1348 O 0.77173 0.23910 0.49012
 O1349 O 0.79579 0.26377 0.49819
 O1350 O 0.76187 0.22937 0.53659
 C1351 C 0.79050 0.30449 0.50099
 C1352 C 0.83536 0.26021 0.50043
 C1353 C 0.79079 0.25812 0.46022
 C1354 C 0.76569 0.18956 0.53554
 C1355 C 0.76675 0.23441 0.57393
 C1356 C 0.72294 0.23257 0.53537
 H1357 H 0.78967 0.25789 0.55653
 H1358 H 0.73701 0.25559 0.50955
 H1359 H 0.80323 0.27168 0.48982
 H1360 H 0.78802 0.20416 0.51094
 H1361 H 0.82207 0.20867 0.53269
 H1362 H 0.81864 0.20365 0.50280
 H1363 H 0.72873 0.27856 0.52853
 H1364 H 0.74559 0.29475 0.50582
 H1365 H 0.81176 0.23820 0.56574
 H1366 H 0.82911 0.25726 0.54495
 H1367 H 0.72721 0.23394 0.49030
 H1368 H 0.74616 0.25333 0.47011
 H1369 H 0.78962 0.29701 0.54490
 H1370 H 0.76918 0.28024 0.56489
 H1371 H 0.78574 0.21340 0.47104
 H1372 H 0.76661 0.19449 0.49068
 O1373 O 0.77237 0.78589 -0.01855
 O1374 O 0.76834 0.77943 0.01279
 O1375 O 0.79644 0.73349 -0.03701
 O1376 O 0.78862 0.70304 -0.03707
 O1377 O 0.75281 0.76127 -0.06759
 O1378 O 0.71986 0.76316 -0.06483
 O1379 O 0.73627 0.68995 0.00575
 O1380 O 0.76889 0.69149 0.00631
 O1381 O 0.71607 0.74182 0.02561
 O1382 O 0.72050 0.77452 0.01759
 O1383 O 0.69415 0.71802 -0.02256
 O1384 O 0.70372 0.71805 -0.05403
 O1385 O 0.71693 0.69088 -0.01886
 O1386 O 0.72350 0.69724 -0.05228
 O1387 O 0.69404 0.73995 -0.00026
 O1388 O 0.70241 0.77440 -0.00716
 O1389 O 0.73583 0.71640 0.02861
 O1390 O 0.77048 0.71460 0.02590
 O1391 O 0.75214 0.78832 -0.04246
 O1392 O 0.71850 0.78373 -0.04470
 O1393 O 0.77294 0.73614 -0.06491
 O1394 O 0.76604 0.70257 -0.05714
 O1395 O 0.79623 0.75740 -0.01659
 O1396 O 0.78618 0.75574 0.01514
 Zr1397 Zr 0.76826 0.75874 -0.00769
 O1398 O 0.74833 0.74469 0.00815
 Zr1399 Zr 0.76840 0.72512 -0.03862
 O1400 O 0.74917 0.70896 -0.02358
 Zr1401 Zr 0.73874 0.76172 -0.04267
 O1402 O 0.71787 0.74682 -0.02857
 Zr1403 Zr 0.75093 0.71544 0.00413
 O1404 O 0.77224 0.72935 -0.01056
 Zr1405 Zr 0.72107 0.75165 -0.00077
 O1406 O 0.74101 0.76798 -0.01491
 Zr1407 Zr 0.72199 0.71742 -0.03132
 O1408 O 0.74125 0.73243 -0.04761
 O1409 O 0.76592 0.75422 -0.03534
 O1410 O 0.72372 0.72243 -0.00362
 C1411 C 0.76476 0.79502 -0.03186
 C1412 C 0.80450 0.74663 -0.02809
 C1413 C 0.76566 0.75024 -0.07374
 C1414 C 0.72356 0.68285 -0.00440
 C1415 C 0.72308 0.72772 0.03456
 C1416 C 0.68613 0.72712 -0.00978
 H1417 H 0.75029 0.74808 0.02097
 H1418 H 0.70535 0.75102 -0.03285
 H1419 H 0.77522 0.76148 -0.04235
 H1420 H 0.75147 0.69530 -0.02551
 H1421 H 0.78093 0.69520 0.00086
 H1422 H 0.78347 0.69296 -0.02921
 H1423 H 0.69131 0.77338 0.00075
 H1424 H 0.71899 0.79069 -0.03314
 H1425 H 0.76876 0.72618 0.03313
 H1426 H 0.79208 0.74301 0.01442
 H1427 H 0.69784 0.73079 -0.05469
 H1428 H 0.71950 0.75027 -0.06996
 H1429 H 0.75659 0.78685 0.01127
 H1430 H 0.73145 0.77310 0.02577
 H1431 H 0.75591 0.70606 -0.06581
 H1432 H 0.73236 0.68711 -0.04835
 O1433 O 0.97679 0.19098 0.21431
 O1434 O 0.94482 0.20047 0.21645
 O1435 O 1.00230 0.24018 0.19170
 O1436 O 1.00532 0.27084 0.19875
 O1437 O 1.02792 0.21151 0.23812
 O1438 O 1.02165 0.21014 0.26906
 O1439 O 0.95924 0.29066 0.24448
 O1440 O 0.95913 0.28680 0.21314
 O1441 O 0.93154 0.24122 0.26450
 O1442 O 0.93645 0.20757 0.26165
 O1443 O 0.98011 0.26063 0.28860
 O1444 O 1.01450 0.25644 0.28192
 O1445 O 0.98097 0.28695 0.26696
 O1446 O 1.01505 0.27832 0.26342
 O1447 O 0.95651 0.23934 0.28794
 O1448 O 0.95809 0.20430 0.27948
 O1449 O 0.93440 0.26836 0.24784
 O1450 O 0.93699 0.26491 0.21227
 O1451 O 0.99998 0.18761 0.23548
 O1452 O 0.99866 0.19218 0.26865
 O1453 O 1.02931 0.23524 0.21698
 O1454 O 1.02394 0.26993 0.22186
 O1455 O 0.97820 0.21946 0.19072
 O1456 O 0.94568 0.22356 0.19827
 Zr1457 Zr 0.96765 0.21917 0.21724
 O1458 O 0.95110 0.23553 0.23473
 Zr1459 Zr 1.00296 0.24933 0.21879
 O1460 O 0.98756 0.26765 0.23574
 Zr1461 Zr 1.00095 0.21382 0.24870
 O1462 O 0.98633 0.23060 0.26735
 Zr1463 Zr 0.95867 0.26407 0.23208
 O1464 O 0.97404 0.24796 0.21306
 Zr1465 Zr 0.95769 0.22814 0.26174
 O1466 O 0.97224 0.20994 0.24421
 Zr1467 Zr 0.99232 0.25944 0.26289
 O1468 O 1.00915 0.24228 0.24600
 O1469 O 0.99633 0.22097 0.22160
 O1470 O 0.96380 0.25680 0.25896
 C1471 C 0.98979 0.18140 0.22243
 C1472 C 0.99172 0.22845 0.18337
 C1473 C 1.03644 0.22094 0.22580
 C1474 C 0.96809 0.29654 0.25849
 C1475 C 0.92603 0.25780 0.25954
 C1476 C 0.96590 0.25240 0.29557
 H1477 H 0.93772 0.23368 0.23197
 H1478 H 0.98949 0.22647 0.27987
 H1479 H 1.00364 0.21299 0.21323
 H1480 H 0.99106 0.28095 0.23335
 H1481 H 0.96487 0.28177 0.20197
 H1482 H 0.99642 0.28102 0.20205
 H1483 H 0.96777 0.20630 0.28888
 H1484 H 0.98657 0.18590 0.26649
 H1485 H 0.92565 0.25937 0.21766
 H1486 H 0.94719 0.23649 0.19319
 H1487 H 1.01160 0.24569 0.29012
 H1488 H 1.02713 0.22277 0.27092
 H1489 H 0.94523 0.19309 0.22796
 H1490 H 0.92910 0.20942 0.25035
 H1491 H 1.03117 0.26637 0.23291
 H1492 H 1.01297 0.28793 0.25371
 O1493 O 0.70570 1.04928 0.74691
 O1494 O 0.70707 1.04941 0.77854
 O1495 O 0.76021 1.06965 0.73218
 O1496 O 0.78958 1.06086 0.73526
 O1497 O 0.73587 1.02153 0.70514
 O1498 O 0.73345 0.98937 0.71240
 O1499 O 0.79636 1.01644 0.78805
 O1500 O 0.79376 1.04860 0.78430
 O1501 O 0.74272 0.99805 0.80411
 O1502 O 0.71202 1.00046 0.79237
 O1503 O 0.77238 0.96913 0.76329
 O1504 O 0.77778 0.97381 0.73203
 O1505 O 0.79824 0.99237 0.76793
 O1506 O 0.79708 0.99484 0.73269
 O1507 O 0.74686 0.97162 0.78130
 O1508 O 0.71329 0.98166 0.77200
 O1509 O 0.76771 1.01735 0.80726
 O1510 O 0.76778 1.05284 0.79949
 O1511 O 0.70621 1.02499 0.72691
 O1512 O 0.71127 0.99056 0.73046
 O1513 O 0.76015 1.04183 0.70749
 O1514 O 0.79246 1.03520 0.72073
 O1515 O 0.73440 1.07291 0.74977
 O1516 O 0.73011 1.06650 0.78229
 Zr1517 Zr 0.73061 1.04591 0.76170
 O1518 O 0.74191 1.02799 0.78208
 Zr1519 Zr 0.76771 1.04102 0.73533
 O1520 O 0.78141 1.02417 0.75532
 Zr1521 Zr 0.73233 1.01127 0.73166
 O1522 O 0.74519 0.99224 0.75032
 Zr1523 Zr 0.77108 1.02996 0.78135
 O1524 O 0.75976 1.04911 0.76173
 Zr1525 Zr 0.73645 0.99943 0.77643
 O1526 O 0.72243 1.01763 0.75766
 Zr1527 Zr 0.77438 0.99585 0.75093
 O1528 O 0.76172 1.01258 0.72999
 O1529 O 0.73874 1.03958 0.73546
 O1530 O 0.76546 1.00149 0.77712
 C1531 C 0.69833 1.03946 0.73430
 C1532 C 0.74680 1.07947 0.73887
 C1533 C 0.74752 1.03326 0.69831
 C1534 C 0.80440 1.00174 0.78157
 C1535 C 0.75578 1.00546 0.81348
 C1536 C 0.76100 0.96245 0.77503
 H1537 H 0.73677 1.03169 0.79394
 H1538 H 0.74188 0.97912 0.74725
 H1539 H 0.73272 1.04817 0.72637
 H1540 H 0.79504 1.02621 0.75479
 H1541 H 0.79106 1.05965 0.77625
 H1542 H 0.79688 1.05854 0.74651
 H1543 H 0.71739 0.97110 0.76422
 H1544 H 0.70256 0.99319 0.74051
 H1545 H 0.75704 1.05023 0.80746
 H1546 H 0.74260 1.07236 0.78249
 H1547 H 0.76517 0.96926 0.72893
 H1548 H 0.74678 0.98770 0.70923
 H1549 H 0.70039 1.03722 0.77844
 H1550 H 0.71115 1.01332 0.79749
 H1551 H 0.78977 1.02451 0.71260
 H1552 H 0.80704 1.00303 0.73748
 O1553 O 0.75248 0.55171 0.24159
 O1554 O 0.78427 0.53942 0.24290
 O1555 O 0.72479 0.50953 0.21049
 O1556 O 0.71990 0.47836 0.21249
 O1557 O 0.70036 0.53063 0.25985
 O1558 O 0.70671 0.52372 0.29172
 O1559 O 0.76398 0.44690 0.25709
 O1560 O 0.76040 0.45585 0.22509
 O1561 O 0.79414 0.48616 0.28227
 O1562 O 0.79253 0.52203 0.28382
 O1563 O 0.74316 0.46978 0.30395
 O1564 O 0.70970 0.47791 0.29644
 O1565 O 0.74032 0.44765 0.27752
 O1566 O 0.70805 0.45933 0.27599
 O1567 O 0.76892 0.48814 0.30629
 O1568 O 0.77317 0.52232 0.30346
 O1569 O 0.79138 0.46713 0.25776
 O1570 O 0.78586 0.47378 0.22608
 O1571 O 0.73000 0.55255 0.26326
 O1572 O 0.72977 0.54165 0.29381
 O1573 O 0.69798 0.51114 0.23563
 O1574 O 0.69996 0.47683 0.23507
 O1575 O 0.74983 0.52884 0.21342
 O1576 O 0.78176 0.52180 0.22038
 Zr1577 Zr 0.76011 0.52284 0.23971
 O1578 O 0.77522 0.50148 0.25388
 Zr1579 Zr 0.72301 0.49535 0.23573
 O1580 O 0.73634 0.47283 0.24998
 Zr1581 Zr 0.72697 0.52406 0.27099
 O1582 O 0.74076 0.50301 0.28670
 Zr1583 Zr 0.76531 0.47469 0.24664
 O1584 O 0.75191 0.49595 0.23058
 Zr1585 Zr 0.76968 0.50340 0.28169
 O1586 O 0.75611 0.52620 0.26774
 Zr1587 Zr 0.73217 0.47626 0.27799
 O1588 O 0.71685 0.49742 0.26354
 O1589 O 0.73138 0.52222 0.24323
 O1590 O 0.76102 0.47653 0.27447
 C1591 C 0.74048 0.56052 0.25146
 C1592 C 0.73613 0.52206 0.20436
 C1593 C 0.69152 0.52401 0.24612
 C1594 C 0.75365 0.43921 0.26927
 C1595 C 0.80007 0.47286 0.27187
 C1596 C 0.75756 0.47576 0.31253
 H1597 H 0.78868 0.50278 0.25136
 H1598 H 0.73794 0.50504 0.29964
 H1599 H 0.72481 0.53234 0.23619
 H1600 H 0.73174 0.46050 0.24571
 H1601 H 0.75613 0.46367 0.21457
 H1602 H 0.72493 0.46559 0.21555
 H1603 H 0.76139 0.52256 0.31038
 H1604 H 0.74305 0.54535 0.29435
 H1605 H 0.79455 0.48435 0.22804
 H1606 H 0.77975 0.51021 0.21324
 H1607 H 0.71306 0.48711 0.30590
 H1608 H 0.69835 0.51300 0.28916
 H1609 H 0.78409 0.54414 0.25549
 H1610 H 0.80109 0.51944 0.27365
 H1611 H 0.69340 0.47813 0.24677
 H1612 H 0.70837 0.45295 0.26413
 O1613 O 0.54514 0.22871 0.75284
 O1614 O 0.53413 0.23495 0.78253
 O1615 O 0.50115 0.19305 0.73245
 O1616 O 0.47012 0.19557 0.72858
 O1617 O 0.52340 0.23709 0.69923
 O1618 O 0.51797 0.27048 0.69745
 O1619 O 0.44279 0.24998 0.76147
 O1620 O 0.45072 0.21762 0.76637
 O1621 O 0.48589 0.28126 0.78376
 O1622 O 0.52007 0.28136 0.78069
 O1623 O 0.46595 0.29385 0.73180
 O1624 O 0.47160 0.28031 0.70161
 O1625 O 0.44331 0.26699 0.73509
 O1626 O 0.45397 0.25830 0.70407
 O1627 O 0.48631 0.30035 0.75459
 O1628 O 0.52095 0.29606 0.75743
 O1629 O 0.46544 0.25715 0.78752
 O1630 O 0.46986 0.22314 0.78907
 O1631 O 0.54600 0.24673 0.72703
 O1632 O 0.53565 0.27791 0.71868
 O1633 O 0.50222 0.21347 0.70194
 O1634 O 0.46807 0.21508 0.70522
 O1635 O 0.52177 0.19975 0.75503
 O1636 O 0.51504 0.21274 0.78444
 Zr1637 Zr 0.51684 0.22872 0.76006
 O1638 O 0.49764 0.24766 0.77173
 Zr1639 Zr 0.48792 0.21915 0.72621
 O1640 O 0.46712 0.23738 0.73667
 Zr1641 Zr 0.51798 0.25433 0.72180
 O1642 O 0.49852 0.27419 0.73170
 Zr1643 Zr 0.47031 0.23976 0.76491
 O1644 O 0.48952 0.21941 0.75480
 Zr1645 Zr 0.50054 0.27476 0.76008
 O1646 O 0.52142 0.25639 0.75008
 Zr1647 Zr 0.47121 0.26500 0.72649
 O1648 O 0.49079 0.24629 0.71446
 O1649 O 0.51519 0.22697 0.73200
 O1650 O 0.47304 0.26721 0.75462
 C1651 C 0.55384 0.23700 0.73988
 C1652 C 0.51419 0.18833 0.74381
 C1653 C 0.51558 0.22189 0.69368
 C1654 C 0.43493 0.26033 0.74907
 C1655 C 0.47294 0.27274 0.79245
 C1656 C 0.47323 0.30509 0.74336
 H1657 H 0.49972 0.24780 0.78499
 H1658 H 0.50088 0.28675 0.72615
 H1659 H 0.52480 0.21825 0.72712
 H1660 H 0.45461 0.23257 0.73355
 H1661 H 0.45759 0.20574 0.76367
 H1662 H 0.45827 0.20014 0.73388
 H1663 H 0.51912 0.30239 0.74549
 H1664 H 0.54021 0.28105 0.73098
 H1665 H 0.48101 0.22622 0.79639
 H1666 H 0.50356 0.20513 0.78350
 H1667 H 0.48235 0.28896 0.70196
 H1668 H 0.50615 0.26761 0.69106
 H1669 H 0.53881 0.24792 0.78042
 H1670 H 0.51863 0.27204 0.79071
 H1671 H 0.46996 0.22526 0.69608
 H1672 H 0.44630 0.24731 0.70759
 O1673 O 0.23657 0.77883 0.43180
 O1674 O 0.20444 0.77825 0.43941
 O1675 O 0.26252 0.79982 0.47965
 O1676 O 0.26642 0.79168 0.50834
 O1677 O 0.28498 0.74969 0.45241
 O1678 O 0.27659 0.71779 0.45189
 O1679 O 0.21555 0.74779 0.52700
 O1680 O 0.21919 0.78023 0.52319
 O1681 O 0.18732 0.72900 0.48068
 O1682 O 0.19139 0.73093 0.44905
 O1683 O 0.23516 0.69974 0.49968
 O1684 O 0.26832 0.70447 0.49793
 O1685 O 0.23641 0.72334 0.52517
 O1686 O 0.27111 0.72503 0.51669
 O1687 O 0.21138 0.70224 0.47916
 O1688 O 0.21253 0.71198 0.44548
 O1689 O 0.18954 0.74952 0.50411
 O1690 O 0.19724 0.78422 0.50245
 O1691 O 0.25771 0.75471 0.42902
 O1692 O 0.25339 0.72018 0.43420
 O1693 O 0.28803 0.77105 0.47507
 O1694 O 0.28218 0.76589 0.50848
 O1695 O 0.23869 0.80266 0.45913
 O1696 O 0.20553 0.79663 0.46143
 Zr1697 Zr 0.22663 0.77570 0.45840
 O1698 O 0.20895 0.75865 0.47410
 Zr1699 Zr 0.26168 0.77126 0.48815
 O1700 O 0.24496 0.75494 0.50577
 Zr1701 Zr 0.25744 0.74060 0.45455
 O1702 O 0.24173 0.72226 0.47108
 Zr1703 Zr 0.21644 0.76111 0.50152
 O1704 O 0.23324 0.77958 0.48597
 Zr1705 Zr 0.21347 0.72990 0.46827
 O1706 O 0.22904 0.74723 0.45045
 Zr1707 Zr 0.24785 0.72632 0.49878
 O1708 O 0.26580 0.74252 0.48199
 O1709 O 0.25492 0.76912 0.46087
 O1710 O 0.21947 0.73242 0.49585
 C1711 C 0.24875 0.76941 0.42281
 C1712 C 0.25231 0.80942 0.46833
 C1713 C 0.29442 0.76157 0.46156
 C1714 C 0.22399 0.73313 0.53365
 C1715 C 0.18072 0.73727 0.49465
 C1716 C 0.22101 0.69308 0.49124
 H1717 H 0.19582 0.76251 0.47177
 H1718 H 0.24414 0.70903 0.46744
 H1719 H 0.26279 0.77750 0.45334
 H1720 H 0.24858 0.75721 0.51852
 H1721 H 0.22615 0.79123 0.51842
 H1722 H 0.25732 0.78923 0.51809
 H1723 H 0.22185 0.70167 0.44741
 H1724 H 0.24169 0.72374 0.42770
 H1725 H 0.18738 0.78229 0.49321
 H1726 H 0.20747 0.80226 0.47352
 H1727 H 0.26728 0.69841 0.48595
 H1728 H 0.28275 0.71610 0.46388
 H1729 H 0.20411 0.76616 0.43277
 H1730 H 0.18649 0.74409 0.44870
 H1731 H 0.28935 0.75451 0.50477
 H1732 H 0.26892 0.73423 0.52648
 O1733 O 0.24842 0.28841 0.95490
 O1734 O 0.21784 0.29455 0.96504
 O1735 O 0.28158 0.30413 1.00154
 O1736 O 0.28498 0.29505 1.03027
 O1737 O 0.29318 0.25202 0.97283
 O1738 O 0.27950 0.22162 0.97325
 O1739 O 0.22882 0.26062 1.05123
 O1740 O 0.23889 0.29194 1.04750
 O1741 O 0.19498 0.24861 1.00702
 O1742 O 0.19784 0.25065 0.97418
 O1743 O 0.23773 0.21042 1.02269
 O1744 O 0.27132 0.20916 1.01825
 O1745 O 0.24424 0.23261 1.04730
 O1746 O 0.27858 0.22829 1.03767
 O1747 O 0.21341 0.21791 1.00383
 O1748 O 0.21362 0.22729 0.97044
 O1749 O 0.20241 0.26819 1.03016
 O1750 O 0.21614 0.30041 1.02844
 O1751 O 0.26429 0.26067 0.95083
 O1752 O 0.25660 0.22784 0.95648
 O1753 O 0.30098 0.27211 0.99547
 O1754 O 0.29679 0.26672 1.02871
 O1755 O 0.25772 0.31159 0.98206
 O1756 O 0.22420 0.31204 0.98672
 Zr1757 Zr 0.24063 0.28745 0.98231
 O1758 O 0.22116 0.27373 0.99901
 Zr1759 Zr 0.27600 0.27621 1.01001
 O1760 O 0.25787 0.26266 1.02841
 Zr1761 Zr 0.26453 0.24732 0.97659
 O1762 O 0.24650 0.23193 0.99361
 Zr1763 Zr 0.23080 0.27426 1.02596
 O1764 O 0.24949 0.28966 1.00949
 Zr1765 Zr 0.21993 0.24478 0.99273
 O1766 O 0.23748 0.25910 0.97424
 Zr1767 Zr 0.25507 0.23421 1.02083
 O1768 O 0.27469 0.24732 1.00345
 O1769 O 0.26739 0.27573 0.98303
 O1770 O 0.22818 0.24569 1.01978
 C1771 C 0.25723 0.27649 0.94501
 C1772 C 0.27288 0.31557 0.99064
 C1773 C 0.30495 0.26214 0.98149
 C1774 C 0.23418 0.24409 1.05662
 C1775 C 0.19089 0.25791 1.02135
 C1776 C 0.22187 0.20685 1.01531
 H1777 H 0.20883 0.28002 0.99752
 H1778 H 0.24617 0.21859 0.98975
 H1779 H 0.27592 0.28260 0.97481
 H1780 H 0.26264 0.26381 1.04096
 H1781 H 0.24697 0.30182 1.04220
 H1782 H 0.27706 0.29287 1.04101
 H1783 H 0.22158 0.21576 0.97142
 H1784 H 0.24424 0.23214 0.95179
 H1785 H 0.20612 0.30100 1.01915
 H1786 H 0.22798 0.31695 0.99870
 H1787 H 0.26798 0.20344 1.00651
 H1788 H 0.28648 0.21925 0.98471
 H1789 H 0.21409 0.28265 0.95915
 H1790 H 0.19358 0.26384 0.97613
 H1791 H 0.30109 0.25408 1.02471
 H1792 H 0.27827 0.23715 1.04795
 C1793 C 0.27050 0.36331 0.76808
 C1794 C 0.25865 0.37578 0.77544
 C1795 C 0.25538 0.39441 0.76664
 C1796 C 0.24417 0.40758 0.77389
 H1797 H 0.25192 0.37261 0.78822
 H1798 H 0.26298 0.39766 0.75434
 H1799 H 0.27701 0.36673 0.75523
 H1800 H 0.23657 0.40432 0.78618
 C1801 C 0.31192 -0.10555 0.27622
 C1802 C 0.30004 -0.09322 0.28366
 C1803 C 0.29668 -0.07414 0.27563
 C1804 C 0.28413 -0.06254 0.28312
 H1805 H 0.29241 -0.09730 0.29570
 H1806 H 0.30394 -0.06987 0.26342
 H1807 H 0.31962 -0.10136 0.26424
 H1808 H 0.27688 -0.06734 0.29518
 C1809 C 0.80062 0.90566 0.78211
 C1810 C 0.78442 0.91452 0.78574
 C1811 C 0.78024 0.93342 0.77792
 C1812 C 0.76462 0.94307 0.78207
 H1813 H 0.77426 0.90810 0.79464
 H1814 H 0.79041 0.93972 0.76891
 H1815 H 0.81051 0.91253 0.77318
 H1816 H 0.75464 0.93688 0.79133
 C1817 C 0.48561 0.86456 0.30231
 C1818 C 0.48913 0.86052 0.28507
 C1819 C 0.50089 0.84399 0.28080
 C1820 C 0.50171 0.83747 0.26395
 H1821 H 0.48260 0.86870 0.27417
 H1822 H 0.50736 0.83594 0.29186
 H1823 H 0.49230 0.85623 0.31304
 H1824 H 0.49438 0.84502 0.25309
 C1825 C -0.02877 0.87108 0.78078
 C1826 C -0.01232 0.86269 0.78435
 C1827 C -0.00605 0.84682 0.77308
 C1828 C 0.00801 0.83537 0.77837
 H1829 H -0.00442 0.86626 0.79640
 H1830 H -0.01442 0.84326 0.76132
 H1831 H -0.03665 0.86696 0.76887
 H1832 H 0.01609 0.83872 0.79038
 C1833 C -0.03460 -0.10658 -0.04687
 C1834 C -0.04078 -0.09668 -0.03274
 C1835 C -0.03267 -0.07834 -0.02769
 C1836 C -0.03963 -0.06889 -0.01360
 H1837 H -0.05217 -0.10207 -0.02467
 H1838 H -0.02131 -0.07252 -0.03555
 H1839 H -0.02316 -0.10119 -0.05490
 H1840 H -0.05111 -0.07498 -0.00607
 C1841 C -0.02295 0.38635 0.44940
 C1842 C -0.02213 0.38836 0.46737
 C1843 C -0.01278 0.40481 0.47510
 C1844 C -0.01733 0.41085 0.49156
 H1845 H -0.02958 0.37889 0.47635
 H1846 H -0.00369 0.41320 0.46656
 H1847 H -0.01582 0.39645 0.44075
 H1848 H -0.02746 0.40312 0.49953
 C1849 C 0.46163 -0.11935 0.47012
 C1850 C 0.47241 -0.10568 0.46341
 C1851 C 0.47549 -0.08840 0.47401
 C1852 C 0.48633 -0.07454 0.46783
 H1853 H 0.47884 -0.10708 0.45023
 H1854 H 0.46886 -0.08708 0.48712
 H1855 H 0.45539 -0.11739 0.48334
 H1856 H 0.49305 -0.07602 0.45477
 C1857 C 0.47260 0.38647 -0.05418
 C1858 C 0.47165 0.39499 -0.03809
 C1859 C 0.48010 0.41366 -0.03528
 C1860 C 0.47785 0.42273 -0.01962
 H1861 H 0.46425 0.38847 -0.02691
 H1862 H 0.48772 0.42026 -0.04629
 H1863 H 0.48004 0.39336 -0.06516
 H1864 H 0.46989 0.41612 -0.00885
 C1865 C 0.77587 0.36556 0.47121
 C1866 C 0.78609 0.35501 0.48283
 C1867 C 0.78254 0.33478 0.48574
 C1868 C 0.79367 0.32457 0.49684
 H1869 H 0.79765 0.36120 0.49009
 H1870 H 0.77079 0.32832 0.47896
 H1871 H 0.76472 0.35918 0.46347
 H1872 H 0.80530 0.33132 0.50358
 C1873 C 0.76622 0.85957 -0.05890
 C1874 C 0.77282 0.84590 -0.04781
 C1875 C 0.76471 0.82681 -0.04688
 C1876 C 0.77168 0.81433 -0.03477
 H1877 H 0.78452 0.84878 -0.03894
 H1878 H 0.75316 0.82312 -0.05569
 H1879 H 0.75457 0.85676 -0.06788
 H1880 H 0.78310 0.81860 -0.02603
 C1881 C 0.78994 0.29466 0.40275
 C1882 C 0.79683 0.28060 0.41320
 C1883 C 0.78893 0.27626 0.43121
 C1884 C 0.79601 0.26194 0.44123
 H1885 H 0.80880 0.27243 0.40869
 H1886 H 0.77796 0.28527 0.43656
 H1887 H 0.77769 0.30250 0.40711
 H1888 H 0.80702 0.25316 0.43560
 C1889 C 0.77429 0.79163 -0.12658
 C1890 C 0.77849 0.77543 -0.11782
 C1891 C 0.76832 0.76990 -0.10136
 C1892 C 0.77346 0.75451 -0.09173
 H1893 H 0.79005 0.76664 -0.12222
 H1894 H 0.75729 0.77916 -0.09651
 H1895 H 0.76257 0.80023 -0.12213
 H1896 H 0.78464 0.74545 -0.09661
 C1897 C 0.28582 0.48323 0.86040
 C1898 C 0.27209 0.47573 0.85060
 C1899 C 0.26961 0.48029 0.83119
 C1900 C 0.25546 0.47275 0.82200
 H1901 H 0.26258 0.46584 0.85686
 H1902 H 0.27941 0.48954 0.82442
 H1903 H 0.29517 0.49332 0.85415
 H1904 H 0.24573 0.46368 0.82910
 C1905 C 0.26898 -0.02746 0.37199
 C1906 C 0.27568 -0.01417 0.36088
 C1907 C 0.26879 -0.01208 0.34210
 C1908 C 0.27616 0.00093 0.33110
 H1909 H 0.28687 -0.00515 0.36539
 H1910 H 0.25813 -0.02153 0.33714
 H1911 H 0.25777 -0.03643 0.36737
 H1912 H 0.28674 0.01031 0.33636
 C1913 C -0.03406 -0.04253 -0.10098
 C1914 C -0.04008 -0.02785 -0.09119
 C1915 C -0.03118 -0.02348 -0.07357
 C1916 C -0.03682 -0.00852 -0.06399
 H1917 H -0.05185 -0.01926 -0.09586
 H1918 H -0.02048 -0.03299 -0.06810
 H1919 H -0.02202 -0.05063 -0.09611
 H1920 H -0.04761 0.00079 -0.06962
 C1921 C -0.03611 0.46353 0.40004
 C1922 C -0.02285 0.45715 0.41152
 C1923 C -0.01906 0.46731 0.42856
 C1924 C -0.00514 0.46178 0.43964
 H1925 H -0.01504 0.44431 0.40863
 H1926 H -0.02825 0.47888 0.43241
 H1927 H -0.04332 0.47670 0.40314
 H1928 H 0.00387 0.45012 0.43565
 C1929 C 0.47455 -0.03421 0.39547
 C1930 C 0.46969 -0.01916 0.40516
 C1931 C 0.48028 -0.01529 0.42186
 C1932 C 0.47352 -0.00389 0.43457
 H1933 H 0.45718 -0.01101 0.40178
 H1934 H 0.49296 -0.02344 0.42459
 H1935 H 0.48667 -0.04260 0.39966
 H1936 H 0.46063 0.00396 0.43202
 C1937 C 0.47126 0.45305 -0.11624
 C1938 C 0.46366 0.46456 -0.10402
 C1939 C 0.47312 0.46775 -0.08653
 C1940 C 0.46640 0.48042 -0.07487
 H1941 H 0.45066 0.47200 -0.10704
 H1942 H 0.48592 0.45998 -0.08337
 H1943 H 0.48441 0.44590 -0.11311
 H1944 H 0.45372 0.48828 -0.07828
 C1945 C 0.45957 0.78553 0.35483
 C1946 C 0.47565 0.79047 0.34702
 C1947 C 0.48155 0.78219 0.32957
 C1948 C 0.49758 0.78732 0.32174
 H1949 H 0.48463 0.80063 0.35351
 H1950 H 0.47266 0.77193 0.32307
 H1951 H 0.45075 0.77529 0.34820
 H1952 H 0.50621 0.79775 0.32833
 C1953 C -0.04077 0.77863 0.85901
 C1954 C -0.02487 0.78320 0.85068
 C1955 C -0.01995 0.77505 0.83298
 C1956 C -0.00377 0.77921 0.82496
 H1957 H -0.01551 0.79329 0.85676
 H1958 H -0.02995 0.76609 0.82621
 H1959 H -0.04981 0.76816 0.85304
 H1960 H 0.00611 0.78818 0.83190
 C1961 C 0.40483 0.77787 0.28602
 C1962 C 0.41692 0.78593 0.27469
 C1963 C 0.43596 0.77821 0.27280
 C1964 C 0.44771 0.78567 0.26075
 H1965 H 0.41283 0.79832 0.26673
 H1966 H 0.44040 0.76638 0.28139
 H1967 H 0.40899 0.76529 0.29370
 H1968 H 0.44305 0.79738 0.25212
 C1969 C -0.09855 0.79164 0.79685
 C1970 C -0.08630 0.79870 0.78507
 C1971 C -0.06858 0.78863 0.78141
 C1972 C -0.05658 0.79547 0.76925
 H1973 H -0.08934 0.81191 0.77794
 H1974 H -0.06541 0.77548 0.78863
 H1975 H -0.09536 0.77837 0.80383
 H1976 H -0.05994 0.80862 0.76212
 C1977 C 0.87590 0.27479 0.45066
 C1978 C 0.87443 0.27354 0.46867
 C1979 C 0.85889 0.26307 0.47677
 C1980 C 0.85367 0.26626 0.49382
 H1981 H 0.88363 0.28151 0.47736
 H1982 H 0.85031 0.25441 0.46807
 H1983 H 0.86619 0.26719 0.44216
 H1984 H 0.86167 0.27586 0.50212
 C1985 C 0.85996 0.78670 -0.03143
 C1986 C 0.85159 0.77038 -0.03525
 C1987 C 0.83316 0.76580 -0.02758
 C1988 C 0.82427 0.75008 -0.03246
 H1989 H 0.85792 0.76067 -0.04473
 H1990 H 0.82629 0.77600 -0.01893
 H1991 H 0.85363 0.79619 -0.02173
 H1992 H 0.83115 0.74022 -0.04147
 C1993 C -0.12875 -0.04270 -0.01485
 C1994 C -0.11902 -0.02700 -0.01811
 C1995 C -0.10143 -0.02304 -0.00861
 C1996 C -0.09135 -0.00810 -0.01373
 H1997 H -0.12357 -0.01718 -0.02870
 H1998 H -0.09620 -0.03291 0.00167
 H1999 H -0.12462 -0.05231 -0.00393
 H2000 H -0.09674 0.00144 -0.02422
 C2001 C -0.11647 0.45478 0.48757
 C2002 C -0.10146 0.46167 0.47929
 C2003 C -0.08330 0.46277 0.48865
 C2004 C -0.06922 0.47162 0.48054
 H2005 H -0.10254 0.46685 0.46543
 H2006 H -0.08164 0.45699 0.50227
 H2007 H -0.11532 0.44960 0.50145
 H2008 H -0.07141 0.47786 0.46716
 C2009 C 0.38359 -0.01648 0.46363
 C2010 C 0.39534 -0.02384 0.47613
 C2011 C 0.41402 -0.01602 0.47959
 C2012 C 0.42569 -0.02548 0.49076
 H2013 H 0.39147 -0.03636 0.48379
 H2014 H 0.41836 -0.00315 0.47274
 H2015 H 0.38764 -0.00396 0.45603
 H2016 H 0.42106 -0.03859 0.49703
 C2017 C 0.38244 0.48630 -0.03633
 C2018 C 0.39431 0.47816 -0.02443
 C2019 C 0.41313 0.48602 -0.02196
 C2020 C 0.42532 0.47835 -0.01010
 H2021 H 0.39050 0.46550 -0.01694
 H2022 H 0.41728 0.49785 -0.03048
 H2023 H 0.38668 0.49910 -0.04340
 H2024 H 0.42109 0.46652 -0.00161
 C2025 C 0.35446 0.46047 0.79310
 C2026 C 0.34336 0.45272 0.78063
 C2027 C 0.32452 0.46057 0.77696
 C2028 C 0.31309 0.45265 0.76486
 H2029 H 0.34816 0.44064 0.77296
 H2030 H 0.32004 0.47312 0.78415
 H2031 H 0.34936 0.47240 0.80083
 H2032 H 0.31760 0.44000 0.75785
 C2033 C 0.37412 -0.03152 0.28210
 C2034 C 0.36281 -0.01743 0.28735
 C2035 C 0.34515 -0.01336 0.27751
 C2036 C 0.33366 0.00066 0.28260
 H2037 H 0.36620 -0.00932 0.29927
 H2038 H 0.34115 -0.02249 0.26646
 H2039 H 0.37063 -0.03935 0.27001
 H2040 H 0.33779 0.00972 0.29366
 C2041 C 0.12169 0.51277 0.70724
 C2042 C 0.13633 0.52077 0.71532
 C2043 C 0.15466 0.51114 0.71691
 C2044 C 0.16857 0.51967 0.72565
 H2045 H 0.13479 0.53469 0.72115
 H2046 H 0.15656 0.49701 0.71160
 H2047 H 0.12329 0.49902 0.70103
 H2048 H 0.16617 0.53370 0.73108
 C2049 C 0.14849 0.05239 0.21324
 C2050 C 0.15483 0.03520 0.21794
 C2051 C 0.17211 0.03303 0.22853
 C2052 C 0.18088 0.01630 0.22956
 H2053 H 0.14782 0.02265 0.21325
 H2054 H 0.17860 0.04552 0.23409
 H2055 H 0.15570 0.06484 0.21794
 H2056 H 0.17488 0.00412 0.22297
 C2057 C 0.63637 0.73059 0.20737
 C2058 C 0.62860 0.72741 0.22355
 C2059 C 0.61115 0.73745 0.22831
 C2060 C 0.60135 0.73282 0.24308
 H2061 H 0.63445 0.71679 0.23277
 H2062 H 0.60556 0.74796 0.21881
 H2063 H 0.63006 0.74104 0.19824
 H2064 H 0.60671 0.72197 0.25234
 C2065 C 0.12041 0.72285 0.69544
 C2066 C 0.11184 0.71848 0.71102
 C2067 C 0.09482 0.72880 0.71660
 C2068 C 0.08499 0.72326 0.73111
 H2069 H 0.11704 0.70693 0.71953
 H2070 H 0.08998 0.74076 0.70838
 H2071 H 0.11480 0.73418 0.68688
 H2072 H 0.08965 0.71100 0.73900
 C2073 C 0.66521 0.19533 0.54016
 C2074 C 0.67580 0.20975 0.54539
 C2075 C 0.69414 0.21339 0.53706
 C2076 C 0.70421 0.22817 0.54235
 H2077 H 0.67092 0.21909 0.55593
 H2078 H 0.69945 0.20391 0.52680
 H2079 H 0.67005 0.18618 0.52942
 H2080 H 0.69862 0.23740 0.55270
 C2081 C 0.63088 0.72581 0.02924
 C2082 C 0.63954 0.71997 0.01428
 C2083 C 0.65770 0.72798 0.00902
 C2084 C 0.66679 0.72168 -0.00554
 H2085 H 0.63362 0.70877 0.00624
 H2086 H 0.66412 0.73838 0.01769
 H2087 H 0.63688 0.73716 0.03705
 H2088 H 0.66034 0.71108 -0.01397
 C2089 C 0.09860 0.05244 0.03842
 C2090 C 0.08902 0.03661 0.04168
 C2091 C 0.07086 0.03327 0.03256
 C2092 C 0.06104 0.01768 0.03624
 H2093 H 0.09436 0.02619 0.05138
 H2094 H 0.06521 0.04395 0.02329
 H2095 H 0.09316 0.06267 0.02858
 H2096 H 0.06674 0.00728 0.04580
 C2097 C 0.11495 0.53365 0.53676
 C2098 C 0.10557 0.51934 0.54427
 C2099 C 0.08661 0.51536 0.53769
 C2100 C 0.07603 0.50177 0.54495
 H2101 H 0.11172 0.51077 0.55510
 H2102 H 0.08118 0.52391 0.52647
 H2103 H 0.10834 0.54217 0.52612
 H2104 H 0.08130 0.49325 0.55625
 C2105 C 0.61794 0.04231 0.52871
 C2106 C 0.60755 0.02739 0.53301
 C2107 C 0.58873 0.02491 0.52526
 C2108 C 0.57978 0.00873 0.52830
 H2109 H 0.61307 0.01664 0.54229
 H2110 H 0.58214 0.03631 0.51746
 H2111 H 0.61278 0.05267 0.51885
 H2112 H 0.58678 -0.00249 0.53604
 C2113 C 0.62245 0.51141 0.02565
 C2114 C 0.61255 0.51869 0.01174
 C2115 C 0.59444 0.51029 0.00703
 C2116 C 0.58269 0.51856 -0.00492
 H2117 H 0.61691 0.53157 0.00495
 H2118 H 0.58996 0.49799 0.01474
 H2119 H 0.61758 0.49869 0.03242
 H2120 H 0.58710 0.53090 -0.01259
 C2121 C 0.03700 0.01154 0.12200
 C2122 C 0.02027 0.01548 0.11470
 C2123 C 0.01522 0.00863 0.09659
 C2124 C 0.00041 0.01608 0.08787
 H2125 H 0.01079 0.02520 0.12133
 H2126 H 0.02451 -0.00118 0.08978
 H2127 H 0.04650 0.00199 0.11514
 H2128 H -0.00837 0.02637 0.09469
 C2129 C 0.00391 0.53668 0.62753
 C2130 C 0.00651 0.52023 0.61912
 C2131 C 0.00168 0.51763 0.59988
 C2132 C 0.00775 0.50200 0.59165
 H2133 H 0.01343 0.50859 0.62625
 H2134 H -0.00554 0.52879 0.59229
 H2135 H -0.00325 0.54832 0.62059
 H2136 H 0.01549 0.49139 0.59951
 C2137 C 0.51645 0.01284 0.62583
 C2138 C 0.52487 0.00015 0.61520
 C2139 C 0.51715 -0.00305 0.59697
 C2140 C 0.52692 -0.01181 0.58407
 H2141 H 0.53812 -0.00635 0.61905
 H2142 H 0.50377 0.00349 0.59357
 H2143 H 0.50344 0.01941 0.62120
 H2144 H 0.54028 -0.01844 0.58733
 C2145 C 0.53342 0.54720 0.10170
 C2146 C 0.54051 0.53377 0.09104
 C2147 C 0.53231 0.53051 0.07297
 C2148 C 0.53886 0.51691 0.06216
 H2149 H 0.55216 0.52500 0.09567
 H2150 H 0.52052 0.53926 0.06858
 H2151 H 0.52174 0.55582 0.09683
 H2152 H 0.55063 0.50818 0.06662
 C2153 C 0.23023 0.52951 0.62997
 C2154 C 0.22241 0.51621 0.64038
 C2155 C 0.22953 0.51179 0.65874
 C2156 C 0.22039 0.49970 0.66947
 H2157 H 0.21022 0.50879 0.63560
 H2158 H 0.24185 0.51891 0.66369
 H2159 H 0.24238 0.53696 0.63489
 H2160 H 0.20787 0.49299 0.66441
 C2161 C 0.20149 0.02811 0.14449
 C2162 C 0.21825 0.03011 0.15240
 C2163 C 0.22315 0.02091 0.17006
 C2164 C 0.23975 0.02422 0.17784
 H2165 H 0.22841 0.03930 0.14610
 H2166 H 0.21278 0.01270 0.17725
 H2167 H 0.19145 0.01863 0.15056
 H2168 H 0.24953 0.03314 0.17065
 C2169 C 0.73000 0.24358 0.62867
 C2170 C 0.74406 0.23451 0.62058
 C2171 C 0.74932 0.23981 0.60198
 C2172 C 0.76237 0.23009 0.59300
 H2173 H 0.75123 0.22279 0.62736
 H2174 H 0.74198 0.25156 0.59536
 H2175 H 0.72277 0.25511 0.62160
 H2176 H 0.76968 0.21837 0.59966
 C2177 C 0.71766 0.69238 0.09172
 C2178 C 0.71371 0.70786 0.08184
 C2179 C 0.72083 0.70984 0.06328
 C2180 C 0.71593 0.72478 0.05299
 H2181 H 0.70526 0.71918 0.08741
 H2182 H 0.73019 0.69905 0.05805
 H2183 H 0.72584 0.68100 0.08586
 H2184 H 0.70630 0.73531 0.05826
 C2185 C 0.53711 0.70987 0.14092
 C2186 C 0.54699 0.72100 0.15178
 C2187 C 0.54083 0.72473 0.17042
 C2188 C 0.55014 0.73675 0.18089
 H2189 H 0.55955 0.72770 0.14688
 H2190 H 0.52835 0.71793 0.17543
 H2191 H 0.52453 0.70331 0.14597
 H2192 H 0.56245 0.74365 0.17562
 C2193 C 0.02516 0.70788 0.63913
 C2194 C 0.03019 0.72360 0.64778
 C2195 C 0.02326 0.72818 0.66598
 C2196 C 0.03080 0.74247 0.67514
 H2197 H 0.04022 0.73306 0.64172
 H2198 H 0.01273 0.71937 0.67220
 H2199 H 0.01523 0.69834 0.64531
 H2200 H 0.04182 0.75068 0.66893
 C2201 C 0.53090 0.64085 0.21080
 C2202 C 0.53869 0.65004 0.22462
 C2203 C 0.53272 0.66951 0.22874
 C2204 C 0.54083 0.67933 0.24199
 H2205 H 0.54997 0.64355 0.23246
 H2206 H 0.52206 0.67619 0.22022
 H2207 H 0.51953 0.64751 0.20318
 H2208 H 0.55146 0.67260 0.25051
 C2209 C 0.03696 0.63435 0.73336
 C2210 C 0.02474 0.64752 0.72747
 C2211 C 0.02504 0.66689 0.73460
 C2212 C 0.01365 0.68033 0.72771
 H2213 H 0.01473 0.64424 0.71692
 H2214 H 0.03501 0.67028 0.74519
 H2215 H 0.04703 0.63785 0.74381
 H2216 H 0.00389 0.67678 0.71700
 C2217 C 0.03232 0.12207 0.02545
 C2218 C 0.02054 0.11053 0.03397
 C2219 C 0.01684 0.09140 0.02714
 C2220 C 0.00416 0.08048 0.03519
 H2221 H 0.01348 0.11516 0.04611
 H2222 H 0.02448 0.08628 0.01550
 H2223 H 0.03910 0.11741 0.01315
 H2224 H -0.00354 0.08593 0.04666
 C2225 C 0.04870 0.60394 0.53506
 C2226 C 0.03441 0.59297 0.53970
 C2227 C 0.03214 0.57392 0.53203
 C2228 C 0.01716 0.56377 0.53631
 H2229 H 0.02418 0.59805 0.54930
 H2230 H 0.04278 0.56813 0.52322
 H2231 H 0.05866 0.59898 0.52513
 H2232 H 0.00671 0.56992 0.54513
 C2233 C 0.55239 0.10232 0.54248
 C2234 C 0.53885 0.09191 0.54988
 C2235 C 0.53286 0.07463 0.54056
 C2236 C 0.51989 0.06291 0.54714
 H2237 H 0.53251 0.09590 0.56259
 H2238 H 0.53969 0.07127 0.52790
 H2239 H 0.55849 0.09788 0.52977
 H2240 H 0.51302 0.06605 0.55982
 C2241 C 0.52276 0.61811 0.03328
 C2242 C 0.52955 0.60684 0.02045
 C2243 C 0.52146 0.58802 0.01746
 C2244 C 0.52737 0.57715 0.00391
 H2245 H 0.54135 0.61127 0.01239
 H2246 H 0.51091 0.58285 0.02671
 H2247 H 0.51069 0.61366 0.04096
 H2248 H 0.53772 0.58260 -0.00541
 C2249 C 0.73278 0.12980 0.52963
 C2250 C 0.74482 0.14034 0.53886
 C2251 C 0.74955 0.15938 0.53230
 C2252 C 0.76145 0.17015 0.54148
 H2253 H 0.75078 0.13525 0.55158
 H2254 H 0.74293 0.16475 0.51996
 H2255 H 0.72694 0.13510 0.51690
 H2256 H 0.76829 0.16458 0.55363
 C2257 C 0.71659 0.62940 0.03812
 C2258 C 0.71216 0.63740 0.02208
 C2259 C 0.72047 0.65559 0.01657
 C2260 C 0.71580 0.66431 0.00091
 H2261 H 0.70232 0.63069 0.01306
 H2262 H 0.73041 0.66207 0.02568
 H2263 H 0.72640 0.63640 0.04699
 H2264 H 0.70567 0.65791 -0.00805
 C2265 C 0.21096 0.60582 0.71236
 C2266 C 0.22286 0.59217 0.70742
 C2267 C 0.22459 0.57437 0.71805
 C2268 C 0.23640 0.56070 0.71290
 H2269 H 0.23104 0.59385 0.69521
 H2270 H 0.21571 0.57219 0.72973
 H2271 H 0.20304 0.60409 0.72474
 H2272 H 0.24515 0.56311 0.70117
 C2273 C 0.19531 0.09767 0.19162
 C2274 C 0.20513 0.09838 0.20707
 C2275 C 0.21789 0.08262 0.21230
 C2276 C 0.22720 0.08248 0.22805
 H2277 H 0.20389 0.11061 0.21575
 H2278 H 0.21876 0.07030 0.20367
 H2279 H 0.19728 0.08569 0.18275
 H2280 H 0.22541 0.09411 0.23736
 C2281 C 0.71719 1.14217 0.73790
 C2282 C 0.73094 1.13087 0.73224
 C2283 C 0.73253 1.11132 0.73927
 C2284 C 0.74558 1.09947 0.73308
 H2285 H 0.74052 1.13570 0.72191
 H2286 H 0.72254 1.10644 0.74922
 H2287 H 0.70758 1.13699 0.74807
 H2288 H 0.75552 1.10449 0.72313
 C2289 C 0.73660 0.61340 0.21025
 C2290 C 0.73551 0.60817 0.22764
 C2291 C 0.74329 0.58963 0.23334
 C2292 C 0.73731 0.58093 0.24833
 H2293 H 0.72729 0.61644 0.23704
 H2294 H 0.75218 0.58202 0.22398
 H2295 H 0.74415 0.60441 0.20091
 H2296 H 0.72777 0.58830 0.25726
 C2297 C 0.51793 0.12555 0.71689
 C2298 C 0.52475 0.13749 0.72916
 C2299 C 0.51542 0.15604 0.73163
 C2300 C 0.52181 0.16879 0.74334
 H2301 H 0.53743 0.13409 0.73668
 H2302 H 0.50357 0.15968 0.72296
 H2303 H 0.50510 0.12946 0.70978
 H2304 H 0.53362 0.16516 0.75204
 C2305 C 1.03572 0.13643 0.20329
 C2306 C 1.01757 0.13893 0.20647
 C2307 C 1.01153 0.15562 0.21661
 C2308 C 0.99418 0.16258 0.21528
 H2309 H 1.00732 0.12927 0.20113
 H2310 H 1.02205 0.16340 0.22400
 H2311 H 1.04559 0.14677 0.20818
 H2312 H 0.98393 0.15560 0.20689
 C2313 C 0.22622 0.63362 0.52610
 C2314 C 0.21722 0.64423 0.51359
 C2315 C 0.22421 0.66296 0.50820
 C2316 C 0.21510 0.67371 0.49586
 H2317 H 0.20437 0.63934 0.50751
 H2318 H 0.23667 0.66818 0.51480
 H2319 H 0.23921 0.63856 0.53191
 H2320 H 0.20266 0.66836 0.48930
 C2321 C 0.21381 0.14868 1.05246
 C2322 C 0.20808 0.16006 1.03875
 C2323 C 0.21841 0.17742 1.03379
 C2324 C 0.21241 0.18899 1.02031
 H2325 H 0.19564 0.15666 1.03108
 H2326 H 0.23087 0.18087 1.04144
 H2327 H 0.22631 0.15222 1.06001
 H2328 H 0.19974 0.18556 1.01298
 C2329 C 0.22021 0.69217 0.58895
 C2330 C 0.21585 0.70782 0.57928
 C2331 C 0.22354 0.71176 0.56102
 C2332 C 0.21842 0.72775 0.55225
 H2333 H 0.20625 0.71813 0.58489
 H2334 H 0.23286 0.70162 0.55471
 H2335 H 0.23006 0.68197 0.58353
 H2336 H 0.20886 0.73743 0.55891
 C2337 C 0.20729 0.19556 1.09499
 C2338 C 0.21271 0.21348 1.09313
 C2339 C 0.22432 0.21932 1.07775
 C2340 C 0.22712 0.23766 1.07424
 H2341 H 0.20782 0.22414 1.10248
 H2342 H 0.22898 0.20869 1.06824
 H2343 H 0.21248 0.18490 1.08577
 H2344 H 0.22152 0.24824 1.08332
 C2345 C 0.70481 0.52360 0.14501
 C2346 C 0.71724 0.53117 0.15630
 C2347 C 0.71998 0.52316 0.17471
 C2348 C 0.73321 0.52965 0.18581
 H2349 H 0.72544 0.54319 0.15200
 H2350 H 0.71104 0.51175 0.17919
 H2351 H 0.69697 0.51136 0.14945
 H2352 H 0.74223 0.54091 0.18115
 C2353 C 0.71635 1.02867 0.63907
 C2354 C 0.73012 1.03588 0.64915
 C2355 C 0.73270 1.03006 0.66827
 C2356 C 0.74586 1.03779 0.67876
 H2357 H 0.73924 1.04653 0.64352
 H2358 H 0.72325 1.01971 0.67396
 H2359 H 0.70736 1.01799 0.64490
 H2360 H 0.75523 1.04817 0.67301
 C2361 C 0.55954 0.21400 0.64304
 C2362 C 0.54427 0.20856 0.65198
 C2363 C 0.53762 0.21876 0.66809
 C2364 C 0.52251 0.21287 0.67704
 H2365 H 0.53653 0.19639 0.64746
 H2366 H 0.54527 0.23093 0.67280
 H2367 H 0.56714 0.22626 0.64760
 H2368 H 0.51517 0.20052 0.67227
 C2369 C 1.03138 0.22846 0.12955
 C2370 C 1.01540 0.22358 0.13746
 C2371 C 1.01090 0.23018 0.15579
 C2372 C 0.99560 0.22416 0.16427
 H2373 H 1.00586 0.21416 0.13069
 H2374 H 1.02065 0.23928 0.16273
 H2375 H 1.04079 0.23794 0.13646
 H2376 H 0.98614 0.21478 0.15730
 C2377 C 0.61701 0.25240 0.71955
 C2378 C 0.60552 0.24278 0.73037
 C2379 C 0.58523 0.24597 0.72990
 C2380 C 0.57422 0.23497 0.73996
 H2381 H 0.61091 0.23156 0.73915
 H2382 H 0.57930 0.25699 0.72115
 H2383 H 0.61152 0.26349 0.71064
 H2384 H 0.58040 0.22430 0.74895
 C2385 C 1.09351 0.21493 0.18889
 C2386 C 1.08368 0.21042 0.20363
 C2387 C 1.06547 0.21966 0.20740
 C2388 C 1.05546 0.21400 0.22167
 H2389 H 1.08885 0.19943 0.21283
 H2390 H 1.05998 0.23051 0.19821
 H2391 H 1.08824 0.22594 0.17976
 H2392 H 1.06113 0.20285 0.23044
 C2393 C 0.12822 0.73168 0.53677
 C2394 C 0.13623 0.72803 0.52090
 C2395 C 0.15387 0.73683 0.51548
 C2396 C 0.16190 0.73159 0.50003
 H2397 H 0.13013 0.71769 0.51197
 H2398 H 0.16077 0.74654 0.52453
 H2399 H 0.13397 0.74238 0.54554
 H2400 H 0.15483 0.72160 0.49136
 C2401 C 0.12792 0.23231 1.01942
 C2402 C 0.14051 0.24274 1.02811
 C2403 C 0.15867 0.24658 1.01978
 C2404 C 0.17183 0.25627 1.02851
 H2405 H 0.13785 0.24770 1.04170
 H2406 H 0.16162 0.24057 1.00663
 H2407 H 0.13078 0.22756 1.00577
 H2408 H 0.16880 0.26241 1.04158
 C2409 C 0.63503 0.52849 0.20853
 C2410 C 0.64467 0.53477 0.22281
 C2411 C 0.66275 0.52599 0.22781
 C2412 C 0.67292 0.53215 0.24180
 H2413 H 0.63947 0.54657 0.23062
 H2414 H 0.66798 0.51448 0.21959
 H2415 H 0.64044 0.51661 0.20092
 H2416 H 0.66766 0.54363 0.25003
 C2417 C 0.63773 1.03225 0.70336
 C2418 C 0.64931 1.04228 0.71362
 C2419 C 0.66866 1.03581 0.71727
 C2420 C 0.67955 1.04570 0.72834
 H2421 H 0.64437 1.05522 0.71983
 H2422 H 0.67371 1.02266 0.71153
 H2423 H 0.64280 1.01939 0.69708
 H2424 H 0.67408 1.05865 0.73416
 C2425 C 0.85770 0.46197 0.30730
 C2426 C 0.84617 0.45646 0.29414
 C2427 C 0.82858 0.46705 0.29046
 C2428 C 0.81789 0.46299 0.27615
 H2429 H 0.84986 0.44443 0.28585
 H2430 H 0.82443 0.47835 0.29947
 H2431 H 0.85401 0.47435 0.31513
 H2432 H 0.82228 0.45173 0.26720
 C2433 C 0.85482 0.95607 0.79601
 C2434 C 0.84680 0.97295 0.79863
 C2435 C 0.83008 0.97881 0.78802
 C2436 C 0.82174 0.99551 0.79090
 H2437 H 0.85256 0.98249 0.80856
 H2438 H 0.82435 0.96926 0.77808
 H2439 H 0.84897 0.94677 0.78591
 H2440 H 0.82740 1.00474 0.80116
 C2441 C 0.37463 0.25666 0.77978
 C2442 C 0.38486 0.26413 0.76647
 C2443 C 0.40452 0.25824 0.76431
 C2444 C 0.41497 0.26525 0.75092
 H2445 H 0.37892 0.27484 0.75741
 H2446 H 0.41060 0.24825 0.77403
 H2447 H 0.38079 0.24586 0.78863
 H2448 H 0.40876 0.27508 0.74111
 C2449 C 0.90059 0.30353 0.30106
 C2450 C 0.89815 0.28765 0.29176
 C2451 C 0.91144 0.28211 0.27761
 C2452 C 0.91000 0.26550 0.26930
 H2453 H 0.88629 0.27871 0.29457
 H2454 H 0.92350 0.29092 0.27510
 H2455 H 0.91199 0.31286 0.29764
 H2456 H 0.89875 0.25603 0.27284
 C2457 C 0.35814 0.78698 0.46431
 C2458 C 0.34480 0.77758 0.45567
 C2459 C 0.32609 0.77527 0.46360
 C2460 C 0.31362 0.76449 0.45523
 H2461 H 0.34763 0.77150 0.44255
 H2462 H 0.32254 0.78235 0.47609
 H2463 H 0.35533 0.79276 0.47759
 H2464 H 0.31767 0.75731 0.44291
 C2465 C 0.36729 0.28952 0.97545
 C2466 C 0.35498 0.27631 0.97085
 C2467 C 0.33690 0.27478 0.98012
 C2468 C 0.32402 0.26275 0.97418
 H2469 H 0.35785 0.26699 0.95963
 H2470 H 0.33380 0.28418 0.99125
 H2471 H 0.36426 0.29883 0.98666
 H2472 H 0.32721 0.25372 0.96279
 C2473 C 0.79368 0.46999 0.36910
 C2474 C 0.77878 0.46513 0.35926
 C2475 C 0.77589 0.47280 0.34080
 C2476 C 0.76108 0.46788 0.33084
 H2477 H 0.76857 0.45550 0.36480
 H2478 H 0.78594 0.48272 0.33539
 H2479 H 0.80389 0.47949 0.36331
 H2480 H 0.75115 0.45788 0.33632
 C2481 C 0.79063 0.98848 0.86828
 C2482 C 0.77424 0.99014 0.85972
 C2483 C 0.77262 1.00045 0.84232
 C2484 C 0.75705 0.99909 0.83246
 H2485 H 0.76214 0.98286 0.86494
 H2486 H 0.78467 1.00767 0.83687
 H2487 H 0.80267 0.99586 0.86301
 H2488 H 0.74541 0.99113 0.83782
 C2489 C 0.28706 0.77311 0.36798
 C2490 C 0.27316 0.78019 0.37789
 C2491 C 0.26736 0.77035 0.39470
 C2492 C 0.25325 0.77701 0.40463
 H2493 H 0.26641 0.79344 0.37391
 H2494 H 0.27529 0.75804 0.39942
 H2495 H 0.29339 0.75965 0.37199
 H2496 H 0.24549 0.78940 0.39983
 C2497 C 0.27780 0.26455 0.88285
 C2498 C 0.26940 0.27598 0.89465
 C2499 C 0.26741 0.27016 0.91378
 C2500 C 0.25943 0.28172 0.92575
 H2501 H 0.26426 0.28983 0.89033
 H2502 H 0.27261 0.25632 0.91811
 H2503 H 0.28307 0.25083 0.88744
 H2504 H 0.25417 0.29548 0.92125
 C2505 C 0.44312 0.27486 0.85243
 C2506 C 0.45220 0.28325 0.83881
 C2507 C 0.45597 0.27353 0.82162
 C2508 C 0.46680 0.28185 0.80925
 H2509 H 0.45755 0.29740 0.84047
 H2510 H 0.45067 0.25942 0.81945
 H2511 H 0.43769 0.26073 0.85073
 H2512 H 0.47230 0.29580 0.81196
 C2513 C 0.95430 0.30429 0.33614
 C2514 C 0.95199 0.28601 0.33251
 C2515 C 0.96215 0.27728 0.31761
 C2516 C 0.95889 0.25946 0.31282
 H2517 H 0.94256 0.27744 0.34047
 H2518 H 0.97143 0.28602 0.30963
 H2519 H 0.96429 0.31255 0.32853
 H2520 H 0.94891 0.25102 0.32029
 C2521 C 0.47370 0.36793 0.76950
 C2522 C 0.46509 0.35609 0.75828
 C2523 C 0.47382 0.33755 0.75463
 C2524 C 0.46565 0.32459 0.74425
 H2525 H 0.45136 0.35947 0.75281
 H2526 H 0.48689 0.33405 0.76150
 H2527 H 0.48743 0.36413 0.77480
 H2528 H 0.45277 0.32804 0.73707
 C2529 C 0.96399 0.34796 0.30371
 C2530 C 0.95881 0.34029 0.28794
 C2531 C 0.96732 0.32240 0.28133
 C2532 C 0.96224 0.31539 0.26523
 H2533 H 0.94801 0.34718 0.27977
 H2534 H 0.97723 0.31467 0.28989
 H2535 H 0.97512 0.34126 0.31160
 H2536 H 0.95215 0.32330 0.25701
 C2537 C 0.28771 0.86842 0.47538
 C2538 C 0.27328 0.85879 0.46874
 C2539 C 0.27012 0.83876 0.47339
 C2540 C 0.25627 0.82956 0.46518
 H2541 H 0.26376 0.86555 0.45913
 H2542 H 0.27924 0.83150 0.48309
 H2543 H 0.29729 0.86161 0.48494
 H2544 H 0.24742 0.83713 0.45544
 C2545 C 0.27367 0.37932 0.96334
 C2546 C 0.28196 0.36638 0.97418
 C2547 C 0.27309 0.34786 0.97734
 C2548 C 0.28123 0.33439 0.98772
 H2549 H 0.29539 0.36922 0.98038
 H2550 H 0.25976 0.34515 0.97086
 H2551 H 0.26030 0.37610 0.95717
 H2552 H 0.29451 0.33721 0.99426
 C2553 C 0.79959 0.39731 0.29465
 C2554 C 0.78193 0.39866 0.28884
 C2555 C 0.77622 0.41457 0.27698
 C2556 C 0.75835 0.41997 0.27559
 H2557 H 0.77150 0.38888 0.29371
 H2558 H 0.78700 0.42351 0.27130
 H2559 H 0.80975 0.40743 0.28981
 H2560 H 0.74770 0.41185 0.28246
   
