data_POSCAR
  _audit_creation_date              2014-09-24
  _audit_creation_method            'ToBaCCo'
  _symmetry_space_group_name_H-M    'P1'
  _symmetry_Int_Tables_number       1
  _symmetry_cell_setting            triclinic
  loop_
  _symmetry_equiv_pos_as_xyz
 x,y,z
_cell_length_a 61.4224
_cell_length_b 61.2704
_cell_length_c 65.8380
_cell_angle_alpha 90.512100
_cell_angle_beta 90.065900
_cell_angle_gamma 89.914600
loop_
  _atom_site_label
  _atom_site_type_symbol
  _atom_site_fract_x
  _atom_site_fract_y
  _atom_site_fract_z
C1 C 0.40834 -0.02984 0.25142
 C2 C 0.41897 -0.01124 0.24400
 C3 C 0.42992 -0.01236 0.22535
 C4 C 0.43050 -0.03193 0.21422
 C5 C 0.41964 -0.05040 0.22154
 C6 C 0.40843 -0.04938 0.24012
 C7 C 0.41907 0.00928 0.25589
 C8 C 0.42977 0.01013 0.27470
 C9 C 0.43045 0.02964 0.28595
 C10 C 0.41991 0.04832 0.27854
 C11 C 0.40896 0.04754 0.25980
 C12 C 0.40880 0.02808 0.24841
 H13 H 0.39974 -0.02892 0.26579
 H14 H 0.43824 0.00193 0.21966
 H15 H 0.43778 -0.00437 0.28042
 H16 H 0.40036 0.02741 0.23395
 H17 H 0.41979 -0.06544 0.21270
 H18 H 0.42004 0.06335 0.28737
 C19 C 0.09230 -0.02865 0.74539
 C20 C 0.08208 -0.00991 0.75334
 C21 C 0.07149 -0.01090 0.77214
 C22 C 0.07089 -0.03045 0.78293
 C23 C 0.08134 -0.04909 0.77509
 C24 C 0.09218 -0.04818 0.75634
 C25 C 0.08233 0.01074 0.74207
 C26 C 0.07166 0.01214 0.72330
 C27 C 0.07123 0.03190 0.71276
 C28 C 0.08198 0.05025 0.72082
 C29 C 0.09289 0.04888 0.73952
 C30 C 0.09282 0.02920 0.75021
 H31 H 0.10072 -0.02785 0.73095
 H32 H 0.06356 0.00355 0.77828
 H33 H 0.06346 -0.00211 0.71709
 H34 H 0.10123 0.02810 0.76465
 H35 H 0.08128 -0.06412 0.78365
 H36 H 0.08204 0.06547 0.71253
 C37 C 0.59395 0.46942 0.24808
 C38 C 0.58341 0.48795 0.25609
 C39 C 0.57244 0.48660 0.27467
 C40 C 0.57177 0.46686 0.28518
 C41 C 0.58254 0.44844 0.27729
 C42 C 0.59376 0.44973 0.25876
 C43 C 0.58351 0.50867 0.24493
 C44 C 0.57279 0.51006 0.22619
 C45 C 0.57232 0.52979 0.21565
 C46 C 0.58306 0.54816 0.22366
 C47 C 0.59403 0.54682 0.24234
 C48 C 0.59401 0.52714 0.25305
 H49 H 0.60262 0.47049 0.23379
 H50 H 0.56422 0.50087 0.28082
 H51 H 0.56460 0.49583 0.21995
 H52 H 0.60248 0.52603 0.26746
 H53 H 0.58239 0.43325 0.28562
 H54 H 0.58306 0.56333 0.21531
 C55 C 0.90889 0.47208 0.75310
 C56 C 0.91922 0.49087 0.74571
 C57 C 0.92966 0.49012 0.72680
 C58 C 0.93002 0.47078 0.71535
 C59 C 0.91945 0.45213 0.72263
 C60 C 0.90875 0.45276 0.74148
 C61 C 0.91924 0.51136 0.75766
 C62 C 0.93021 0.51240 0.77633
 C63 C 0.93106 0.53206 0.78736
 C64 C 0.92042 0.55065 0.77989
 C65 C 0.90921 0.54966 0.76131
 C66 C 0.90886 0.53008 0.75013
 H67 H 0.90060 0.47268 0.76762
 H68 H 0.93768 0.50459 0.72111
 H69 H 0.93836 0.49799 0.78205
 H70 H 0.90027 0.52927 0.73575
 H71 H 0.91935 0.43726 0.71357
 H72 H 0.92072 0.56580 0.78854
 C73 C 0.25946 0.35025 1.02635
 C74 C 0.25885 0.36573 1.01071
 C75 C 0.27601 0.38079 1.00884
 C76 C 0.29365 0.38031 1.02246
 C77 C 0.29399 0.36490 1.03807
 C78 C 0.27695 0.34987 1.04009
 C79 C 0.24077 0.36535 0.99581
 C80 C 0.22323 0.38010 0.99747
 C81 C 0.20590 0.37913 0.98349
 C82 C 0.20630 0.36355 0.96777
 C83 C 0.22373 0.34889 0.96596
 C84 C 0.24087 0.34975 0.98003
 H85 H 0.24629 0.33858 1.02777
 H86 H 0.27577 0.39256 0.99665
 H87 H 0.22298 0.39206 1.00969
 H88 H 0.25437 0.33840 0.97865
 H89 H 0.30757 0.36460 1.04862
 H90 H 0.19303 0.36286 0.95689
 C91 C 0.74154 0.15017 1.02103
 C92 C 0.74081 0.13491 1.00498
 C93 C 0.72292 0.12065 1.00330
 C94 C 0.70587 0.12172 1.01754
 C95 C 0.70687 0.13697 1.03353
 C96 C 0.72466 0.15119 1.03535
 C97 C 0.75858 0.13446 0.98980
 C98 C 0.77595 0.11956 0.99157
 C99 C 0.79337 0.12007 0.97773
 C100 C 0.79328 0.13540 0.96205
 C101 C 0.77606 0.15027 0.96015
 C102 C 0.75878 0.14982 0.97406
 H103 H 0.75531 0.16116 1.02235
 H104 H 0.72219 0.10896 0.99086
 H105 H 0.77605 0.10790 1.00385
 H106 H 0.74552 0.16142 0.97270
 H107 H 0.69378 0.13773 1.04457
 H108 H 0.80668 0.13580 0.95133
 C109 C 0.24225 0.65000 0.51963
 C110 C 0.24132 0.63448 0.50381
 C111 C 0.22316 0.62053 0.50226
 C112 C 0.20605 0.62220 0.51641
 C113 C 0.20728 0.63771 0.53216
 C114 C 0.22531 0.65159 0.53384
 C115 C 0.25916 0.63347 0.48872
 C116 C 0.27627 0.61832 0.49078
 C117 C 0.29381 0.61836 0.47706
 C118 C 0.29410 0.63348 0.46119
 C119 C 0.27714 0.64860 0.45901
 C120 C 0.25974 0.64861 0.47281
 H121 H 0.25619 0.66076 0.52090
 H122 H 0.22227 0.60865 0.48999
 H123 H 0.27609 0.60683 0.50320
 H124 H 0.24669 0.66042 0.47123
 H125 H 0.19418 0.63897 0.54315
 H126 H 0.30759 0.63353 0.45057
 C127 C 0.76143 0.85200 0.52641
 C128 C 0.76078 0.86714 0.51050
 C129 C 0.77789 0.88222 0.50836
 C130 C 0.79552 0.88211 0.52203
 C131 C 0.79587 0.86700 0.53792
 C132 C 0.77890 0.85197 0.54016
 C133 C 0.74281 0.86623 0.49551
 C134 C 0.72494 0.88061 0.49694
 C135 C 0.70767 0.87902 0.48294
 C136 C 0.70843 0.86318 0.46745
 C137 C 0.72619 0.84888 0.46590
 C138 C 0.74328 0.85037 0.47997
 H139 H 0.74837 0.84028 0.52805
 H140 H 0.77760 0.89369 0.49591
 H141 H 0.72439 0.89274 0.50900
 H142 H 0.75701 0.83928 0.47880
 H143 H 0.80939 0.86687 0.54855
 H144 H 0.69520 0.86199 0.45657
 C145 C -0.03172 0.24648 0.32617
 C146 C -0.00971 0.24361 0.33118
 C147 C -0.00303 0.22450 0.34103
 C148 C -0.01834 0.20863 0.34611
 C149 C -0.04018 0.21141 0.34089
 C150 C -0.04687 0.23035 0.33106
 C151 C 0.00575 0.26172 0.32908
 C152 C 0.00105 0.28184 0.33843
 C153 C 0.01715 0.29784 0.34001
 C154 C 0.03768 0.29422 0.33162
 C155 C 0.04237 0.27428 0.32219
 C156 C 0.02649 0.25803 0.32084
 H157 H -0.03706 0.26151 0.31914
 H158 H 0.01374 0.22273 0.34594
 H159 H -0.01446 0.28431 0.34598
 H160 H 0.03056 0.24220 0.31438
 H161 H -0.05215 0.19933 0.34537
 H162 H 0.05044 0.30626 0.33371
 C163 C -0.03566 0.75047 0.16999
 C164 C -0.01364 0.75297 0.16493
 C165 C -0.00732 0.76998 0.15208
 C166 C -0.02298 0.78408 0.14415
 C167 C -0.04483 0.78170 0.14934
 C168 C -0.05117 0.76490 0.16219
 C169 C 0.00234 0.73622 0.17058
 C170 C -0.00129 0.71453 0.16453
 C171 C 0.01548 0.69917 0.16581
 C172 C 0.03556 0.70511 0.17409
 C173 C 0.03915 0.72665 0.18035
 C174 C 0.02262 0.74222 0.17864
 H175 H -0.04069 0.73705 0.17953
 H176 H 0.00953 0.77148 0.14738
 H177 H -0.01642 0.71020 0.15698
 H178 H 0.02588 0.75915 0.18248
 H179 H -0.05696 0.79254 0.14288
 H180 H 0.04894 0.69351 0.17414
 C181 C 0.46893 0.25356 0.67688
 C182 C 0.49074 0.25573 0.67096
 C183 C 0.49720 0.27409 0.65988
 C184 C 0.48187 0.28985 0.65449
 C185 C 0.46026 0.28779 0.66061
 C186 C 0.45380 0.26963 0.67167
 C187 C 0.50601 0.23746 0.67330
 C188 C 0.50081 0.21713 0.66463
 C189 C 0.51674 0.20094 0.66290
 C190 C 0.53761 0.20458 0.67056
 C191 C 0.54280 0.22473 0.67931
 C192 C 0.52709 0.24117 0.68077
 H193 H 0.46364 0.23907 0.68479
 H194 H 0.51374 0.27530 0.65425
 H195 H 0.48503 0.21466 0.65755
 H196 H 0.53153 0.25717 0.68660
 H197 H 0.44825 0.29971 0.65583
 H198 H 0.55024 0.19240 0.66826
 C199 C 0.46348 0.75227 0.83324
 C200 C 0.48567 0.74882 0.83708
 C201 C 0.49217 0.73128 0.84927
 C202 C 0.47651 0.71755 0.85771
 C203 C 0.45446 0.72094 0.85372
 C204 C 0.44799 0.73828 0.84156
 C205 C 0.50186 0.76497 0.83064
 C206 C 0.49917 0.78684 0.83656
 C207 C 0.51623 0.80164 0.83428
 C208 C 0.53566 0.79499 0.82522
 C209 C 0.53832 0.77327 0.81907
 C210 C 0.52151 0.75824 0.82172
 H211 H 0.45830 0.76598 0.82412
 H212 H 0.50924 0.72899 0.85295
 H213 H 0.48462 0.79181 0.84472
 H214 H 0.52409 0.74118 0.81791
 H215 H 0.44228 0.71038 0.86040
 H216 H 0.54929 0.80620 0.82449
 C217 C -0.28125 0.65745 1.00098
 C218 C -0.26267 0.66777 1.00896
 C219 C -0.26380 0.67836 1.02789
 C220 C -0.28341 0.67889 1.03872
 C221 C -0.30187 0.66834 1.03083
 C222 C -0.30080 0.65748 1.01197
 C223 C -0.24229 0.66818 0.99717
 C224 C -0.24191 0.67860 0.97832
 C225 C -0.22272 0.67927 0.96692
 C226 C -0.20381 0.66906 0.97423
 C227 C -0.20410 0.65841 0.99305
 C228 C -0.22329 0.65823 1.00459
 H229 H -0.28034 0.64916 0.98638
 H230 H -0.24953 0.68650 1.03400
 H231 H -0.25660 0.68631 0.97264
 H232 H -0.22361 0.64994 1.01907
 H233 H -0.31694 0.66847 1.03941
 H234 H -0.18902 0.66914 0.96524
 C235 C -0.27919 0.34211 0.50016
 C236 C -0.26066 0.33156 0.49231
 C237 C -0.26192 0.32054 0.47360
 C238 C -0.28157 0.31981 0.46283
 C239 C -0.30000 0.33060 0.47058
 C240 C -0.29882 0.34189 0.48923
 C241 C -0.24009 0.33152 0.50387
 C242 C -0.23898 0.32067 0.52249
 C243 C -0.21947 0.32013 0.53347
 C244 C -0.20103 0.33092 0.52602
 C245 C -0.20205 0.34203 0.50747
 C246 C -0.22153 0.34208 0.49631
 H247 H -0.27816 0.35074 0.51459
 H248 H -0.24766 0.31227 0.46759
 H249 H -0.25327 0.31244 0.52830
 H250 H -0.22241 0.35066 0.48201
 H251 H -0.31511 0.33033 0.46204
 H252 H -0.18603 0.33088 0.53472
 C253 C 0.22026 -0.15848 -0.00205
 C254 C 0.23885 -0.16886 -0.00995
 C255 C 0.23771 -0.17958 -0.02884
 C256 C 0.21806 -0.18018 -0.03968
 C257 C 0.19959 -0.16954 -0.03182
 C258 C 0.20070 -0.15858 -0.01304
 C259 C 0.25927 -0.16916 0.00186
 C260 C 0.25975 -0.17951 0.02075
 C261 C 0.27894 -0.17998 0.03223
 C262 C 0.29773 -0.16962 0.02494
 C263 C 0.29734 -0.15902 0.00610
 C264 C 0.27817 -0.15905 -0.00552
 H265 H 0.22113 -0.15008 0.01249
 H266 H 0.25203 -0.18776 -0.03485
 H267 H 0.24514 -0.18732 0.02642
 H268 H 0.27776 -0.15079 -0.02000
 H269 H 0.18444 -0.16966 -0.04031
 H270 H 0.31251 -0.16954 0.03398
 C271 C 0.22159 1.15769 0.49874
 C272 C 0.24000 1.16832 0.50670
 C273 C 0.23869 1.17901 0.52557
 C274 C 0.21906 1.17934 0.53636
 C275 C 0.20076 1.16848 0.52849
 C276 C 0.20203 1.15753 0.50970
 C277 C 0.26052 1.16868 0.49513
 C278 C 0.26133 1.17948 0.47648
 C279 C 0.28075 1.18019 0.46539
 C280 C 0.29941 1.16960 0.47281
 C281 C 0.29865 1.15856 0.49141
 C282 C 0.27926 1.15836 0.50264
 H283 H 0.22262 1.14927 0.48422
 H284 H 0.25286 1.18733 0.53168
 H285 H 0.24684 1.18749 0.47073
 H286 H 0.27858 1.14978 0.51696
 H287 H 0.18567 1.16839 0.53702
 H288 H 0.31437 1.16971 0.46407
 C289 C 0.09868 0.50876 0.22670
 C290 C 0.11436 0.50919 0.24227
 C291 C 0.12894 0.52688 0.24364
 C292 C 0.12776 0.54401 0.22956
 C293 C 0.11211 0.54326 0.21404
 C294 C 0.09759 0.52570 0.21255
 C295 C 0.11467 0.49156 0.25753
 C296 C 0.12954 0.47410 0.25593
 C297 C 0.12892 0.45691 0.26997
 C298 C 0.11353 0.45737 0.28569
 C299 C 0.09872 0.47470 0.28743
 C300 C 0.09926 0.49170 0.27331
 H301 H 0.08738 0.49522 0.22562
 H302 H 0.14088 0.52745 0.25576
 H303 H 0.14127 0.47374 0.24365
 H304 H 0.08772 0.50505 0.27456
 H305 H 0.11120 0.55639 0.20313
 H306 H 0.11306 0.44419 0.29657
 C307 C -0.10019 0.98793 0.22538
 C308 C -0.11527 0.98851 0.24142
 C309 C -0.13004 0.97117 0.24373
 C310 C -0.12967 0.95334 0.23012
 C311 C -0.11462 0.95301 0.21411
 C312 C -0.09989 0.97025 0.21167
 C313 C -0.11488 1.00688 0.25616
 C314 C -0.12955 1.02445 0.25440
 C315 C -0.12854 1.04213 0.26817
 C316 C -0.11296 1.04206 0.28376
 C317 C -0.09837 1.02459 0.28564
 C318 C -0.09929 1.00709 0.27180
 H319 H -0.08878 1.00127 0.22361
 H320 H -0.14153 0.97148 0.25623
 H321 H -0.14147 1.02441 0.24224
 H322 H -0.08799 0.99358 0.27323
 H323 H -0.11437 0.93932 0.20353
 H324 H -0.11218 1.05558 0.29450
 C325 C 0.40024 0.49055 -0.27415
 C326 C 0.38484 0.49116 -0.25839
 C327 C 0.36996 0.47387 -0.25637
 C328 C 0.37055 0.45607 -0.26999
 C329 C 0.38591 0.45570 -0.28572
 C330 C 0.40076 0.47289 -0.28788
 C331 C 0.38490 0.50959 -0.24370
 C332 C 0.37025 0.52712 -0.24582
 C333 C 0.37095 0.54489 -0.23214
 C334 C 0.38620 0.54494 -0.21627
 C335 C 0.40078 0.52752 -0.21403
 C336 C 0.40017 0.50992 -0.22778
 H337 H 0.41172 0.50387 -0.27573
 H338 H 0.35819 0.47416 -0.24412
 H339 H 0.35858 0.52700 -0.25820
 H340 H 0.41146 0.49644 -0.22607
 H341 H 0.38627 0.44201 -0.29629
 H342 H 0.38674 0.55854 -0.20560
 C343 C 0.59849 0.00926 -0.27361
 C344 C 0.61376 0.00949 -0.25769
 C345 C 0.62857 0.02696 -0.25602
 C346 C 0.62804 0.04406 -0.27015
 C347 C 0.61279 0.04354 -0.28602
 C348 C 0.59801 0.02620 -0.28783
 C349 C 0.61346 -0.00812 -0.24241
 C350 C 0.62783 -0.02602 -0.24393
 C351 C 0.62668 -0.04312 -0.22984
 C352 C 0.61126 -0.04218 -0.21417
 C353 C 0.59693 -0.02443 -0.21252
 C354 C 0.59801 -0.00748 -0.22667
 H355 H 0.58703 -0.00415 -0.27489
 H356 H 0.64021 0.02736 -0.24364
 H357 H 0.63959 -0.02674 -0.25617
 H358 H 0.58686 0.00620 -0.22547
 H359 H 0.61244 0.05669 -0.29695
 H360 H 0.61037 -0.05531 -0.20326
 C361 C -0.00795 0.22323 0.92994
 C362 C -0.01077 0.24408 0.92172
 C363 C -0.02980 0.24887 0.91082
 C364 C -0.04556 0.23278 0.90776
 C365 C -0.04284 0.21214 0.91615
 C366 C -0.02400 0.20736 0.92710
 C367 C 0.00739 0.25963 0.92141
 C368 C 0.02730 0.25320 0.91276
 C369 C 0.04333 0.26874 0.90890
 C370 C 0.03993 0.29055 0.91422
 C371 C 0.02020 0.29699 0.92286
 C372 C 0.00392 0.28162 0.92653
 H373 H 0.00710 0.21911 0.93765
 H374 H -0.03152 0.26450 0.90336
 H375 H 0.02960 0.23650 0.90757
 H376 H -0.01171 0.28687 0.93247
 H377 H -0.05468 0.19941 0.91303
 H378 H 0.05206 0.30272 0.91046
 C379 C 0.50767 0.22101 0.07428
 C380 C 0.51309 0.24237 0.08020
 C381 C 0.53450 0.24717 0.08616
 C382 C 0.55013 0.23061 0.08678
 C383 C 0.54474 0.20945 0.08070
 C384 C 0.52350 0.20464 0.07465
 C385 C 0.49591 0.25868 0.08369
 C386 C 0.47830 0.25354 0.09634
 C387 C 0.46360 0.26979 0.10222
 C388 C 0.46601 0.29102 0.09516
 C389 C 0.48342 0.29616 0.08253
 C390 C 0.49842 0.28010 0.07677
 H391 H 0.49097 0.21696 0.07046
 H392 H 0.53845 0.26325 0.09211
 H393 H 0.47678 0.23728 0.10255
 H394 H 0.51231 0.28436 0.06746
 H395 H 0.55659 0.19640 0.08220
 H396 H 0.45483 0.30372 0.10014
 C397 C 0.00490 0.72646 0.57903
 C398 C 0.01228 0.74694 0.58577
 C399 C 0.03458 0.75024 0.58914
 C400 C 0.04926 0.73304 0.58646
 C401 C 0.04194 0.71278 0.57954
 C402 C 0.01978 0.70947 0.57596
 C403 C -0.00326 0.76379 0.59245
 C404 C -0.01947 0.75855 0.60659
 C405 C -0.03259 0.77503 0.61486
 C406 C -0.02993 0.79662 0.60880
 C407 C -0.01393 0.80182 0.59466
 C408 C -0.00053 0.78553 0.58650
 H409 H -0.01238 0.72350 0.57711
 H410 H 0.04020 0.76554 0.59569
 H411 H -0.02125 0.74188 0.61174
 H412 H 0.01215 0.78976 0.57579
 H413 H 0.05320 0.69916 0.57847
 H414 H -0.04008 0.80943 0.61526
 C415 C 0.49484 0.71695 0.42214
 C416 C 0.49293 0.73846 0.41527
 C417 C 0.47582 0.74404 0.40214
 C418 C 0.46104 0.72812 0.39573
 C419 C 0.46284 0.70679 0.40274
 C420 C 0.47975 0.70122 0.41586
 C421 C 0.51034 0.75435 0.41931
 C422 C 0.53177 0.74912 0.41373
 C423 C 0.54779 0.76526 0.41381
 C424 C 0.54276 0.78642 0.42022
 C425 C 0.52149 0.79166 0.42590
 C426 C 0.50526 0.77571 0.42551
 H427 H 0.50836 0.71235 0.43180
 H428 H 0.47479 0.76038 0.39600
 H429 H 0.53550 0.73306 0.40759
 H430 H 0.48857 0.78011 0.42906
 H431 H 0.45161 0.69435 0.39736
 H432 H 0.55497 0.79916 0.41932
 Zr433 Zr 0.01451 -0.03802 1.03126
 O434 O 0.03772 -0.02614 1.05240
 O435 O 0.00868 -0.06925 1.04215
 O436 O 0.00056 -0.03509 1.06068
 O437 O 0.05200 -0.05264 0.99447
 O438 O -0.02973 -0.01427 1.05542
 O439 O 0.04458 -0.05496 1.02835
 O440 O -0.01847 -0.08221 1.02174
 O441 O -0.01921 -0.04068 1.02709
 O442 O 0.00989 -0.05593 1.00441
 O443 O 0.00280 -0.00580 1.02998
 O444 O 0.03108 -0.02067 1.00847
 Zr445 Zr -0.02044 -0.00856 0.97445
 Zr446 Zr -0.03061 -0.00864 1.02408
 Zr447 Zr 0.02452 -0.03796 0.98152
 Zr448 Zr -0.02353 -0.05763 0.99982
 O449 O 0.05325 -0.02365 0.96994
 O450 O -0.05409 -0.06405 1.01345
 O451 O -0.00889 -0.04104 0.97555
 O452 O -0.03662 -0.02615 0.99723
 O453 O -0.01585 0.00954 1.00123
 O454 O 0.01319 -0.00609 0.97885
 C455 C -0.00508 -0.08393 1.03675
 C456 C 0.05681 -0.05838 1.01267
 C457 C -0.01668 -0.02497 1.06694
 O458 O -0.06097 -0.02179 1.03287
 O459 O -0.05588 0.01021 1.01158
 O460 O -0.04930 0.01019 0.97753
 C461 C -0.06060 0.01577 0.99328
 O462 O 0.04243 0.01521 1.02835
 Zr463 Zr 0.01770 0.01072 1.00609
 O464 O -0.01440 0.02302 0.96381
 O465 O -0.03209 0.02157 1.03985
 O466 O 0.00892 0.03842 1.02384
 O467 O 0.04741 0.01899 0.99171
 O468 O 0.01085 0.03632 0.98611
 C469 C -0.00200 0.03824 0.97080
 O470 O -0.04501 -0.01951 0.95422
 O471 O 0.02791 -0.06933 0.96815
 O472 O -0.00825 -0.01407 0.94472
 O473 O 0.02118 -0.03606 0.94991
 O474 O -0.01452 -0.08641 0.98377
 O475 O -0.04598 -0.06393 0.97590
 C476 C 0.00786 -0.02581 0.93831
 H477 H 0.01634 -0.07073 1.00488
 H478 H -0.05241 -0.02716 0.99435
 H479 H 0.02064 0.00141 0.96757
 H480 H 0.00560 0.00209 1.04291
 H481 H -0.05652 -0.08002 1.01269
 H482 H -0.06787 -0.01095 1.04210
 H483 H -0.04628 0.02202 1.04700
 H484 H 0.01835 0.05068 1.01962
 H485 H -0.02411 -0.09832 0.98850
 H486 H 0.04203 -0.06949 0.96088
 H487 H 0.06023 -0.03472 0.96101
 H488 H 0.04944 0.03496 0.99335
 H489 H -0.05352 -0.07792 0.97841
 H490 H -0.04752 -0.00769 0.94428
 H491 H 0.04049 -0.03804 1.06219
 H492 H 0.04788 0.03040 1.02782
 Zr493 Zr 0.51596 0.46238 0.53257
 O494 O 0.53967 0.47569 0.55245
 O495 O 0.51080 0.43186 0.54519
 O496 O 0.50276 0.46652 0.56217
 O497 O 0.55227 0.44582 0.49543
 O498 O 0.47218 0.48691 0.55684
 O499 O 0.54608 0.44551 0.52961
 O500 O 0.48280 0.41775 0.52652
 O501 O 0.48214 0.45931 0.52950
 O502 O 0.51058 0.44292 0.50680
 O503 O 0.50392 0.49440 0.53014
 O504 O 0.53161 0.47851 0.50849
 Zr505 Zr 0.47891 0.48835 0.47548
 Zr506 Zr 0.47036 0.49103 0.52532
 Zr507 Zr 0.52429 0.45965 0.48262
 Zr508 Zr 0.47704 0.44078 0.50328
 O509 O 0.55259 0.47335 0.46958
 O510 O 0.44687 0.43499 0.51787
 O511 O 0.49072 0.45605 0.47777
 O512 O 0.46362 0.47199 0.49954
 O513 O 0.48421 0.50799 0.50119
 O514 O 0.51264 0.49125 0.47882
 C515 C 0.49674 0.41698 0.54117
 C516 C 0.55778 0.44122 0.51375
 C517 C 0.48557 0.47674 0.56844
 O518 O 0.44032 0.47828 0.53550
 O519 O 0.44460 0.50910 0.51263
 O520 O 0.45008 0.50715 0.47844
 C521 C 0.43928 0.51360 0.49421
 O522 O 0.54322 0.51557 0.52639
 Zr523 Zr 0.51788 0.50964 0.50504
 O524 O 0.48438 0.51925 0.46305
 O525 O 0.46921 0.52199 0.53979
 O526 O 0.50929 0.53824 0.52157
 O527 O 0.54712 0.51731 0.48956
 O528 O 0.51032 0.53392 0.48386
 C529 C 0.49703 0.53484 0.46878
 O530 O 0.45382 0.47600 0.45655
 O531 O 0.52729 0.42762 0.47063
 O532 O 0.49030 0.48159 0.44571
 O533 O 0.52001 0.46001 0.45102
 O534 O 0.48581 0.41106 0.48866
 O535 O 0.45403 0.43292 0.48023
 C536 C 0.50637 0.46976 0.43936
 H537 H 0.51714 0.42820 0.50784
 H538 H 0.44775 0.47073 0.49715
 H539 H 0.51971 0.49816 0.46701
 H540 H 0.50705 0.50297 0.54261
 H541 H 0.44455 0.41899 0.51801
 H542 H 0.43366 0.48956 0.54441
 H543 H 0.45524 0.52274 0.54730
 H544 H 0.51844 0.55032 0.51647
 H545 H 0.47646 0.39944 0.49432
 H546 H 0.54116 0.42709 0.46296
 H547 H 0.55932 0.46183 0.46098
 H548 H 0.54907 0.53334 0.49041
 H549 H 0.44672 0.41902 0.48359
 H550 H 0.45084 0.48720 0.44611
 H551 H 0.54285 0.46440 0.56274
 H552 H 0.54837 0.53080 0.52510
 Zr553 Zr 0.48257 1.03327 0.53279
 O554 O 0.45784 1.02075 0.55175
 O555 O 0.48863 1.06335 0.54637
 O556 O 0.49494 1.02867 0.56261
 O557 O 0.44831 1.05198 0.49508
 O558 O 0.52463 1.00681 0.55767
 O559 O 0.45322 1.05134 0.52944
 O560 O 0.51847 1.07585 0.52953
 O561 O 0.51655 1.03479 0.53073
 O562 O 0.48963 1.05280 0.50775
 O563 O 0.49324 1.00077 0.52993
 O564 O 0.46699 1.01816 0.50784
 Zr565 Zr 0.52020 1.00618 0.47609
 Zr566 Zr 0.52704 1.00264 0.52610
 Zr567 Zr 0.47599 1.03694 0.48272
 Zr568 Zr 0.52333 1.05339 0.50523
 O569 O 0.44744 1.02486 0.46853
 O570 O 0.55360 1.05754 0.52029
 O571 O 0.50982 1.03900 0.47891
 O572 O 0.53540 1.02163 0.50103
 O573 O 0.51323 0.98654 0.50114
 O574 O 0.48628 1.00486 0.47847
 C575 C 0.50400 1.07715 0.54370
 C576 C 0.44229 1.05643 0.51336
 C577 C 0.51156 1.01779 0.56910
 O578 O 0.55731 1.01384 0.53748
 O579 O 0.55246 0.98375 0.51371
 O580 O 0.54840 0.98648 0.47942
 C581 C 0.55843 0.97949 0.49536
 O582 O 0.45323 0.98151 0.52457
 Zr583 Zr 0.47938 0.98647 0.50402
 O584 O 0.51376 0.97557 0.46284
 O585 O 0.52624 0.97154 0.53978
 O586 O 0.48627 0.95730 0.51992
 O587 O 0.45022 0.98035 0.48767
 O588 O 0.48622 0.96216 0.48229
 C589 C 0.50002 0.96066 0.46768
 O590 O 0.54619 1.01761 0.45799
 O591 O 0.47507 1.06919 0.47149
 O592 O 0.50980 1.01347 0.44618
 O593 O 0.48106 1.03650 0.45122
 O594 O 0.51613 1.08387 0.49177
 O595 O 0.54699 1.06060 0.48275
 C596 C 0.49443 1.02602 0.43968
 H597 H 0.48373 1.06778 0.50910
 H598 H 0.55137 1.02224 0.49912
 H599 H 0.47921 0.99838 0.46632
 H600 H 0.48936 0.99226 0.54211
 H601 H 0.55664 1.07341 0.52094
 H602 H 0.56317 1.00218 0.54629
 H603 H 0.53991 0.97006 0.54767
 H604 H 0.47672 0.94572 0.51426
 H605 H 0.52585 1.09488 0.49812
 H606 H 0.46148 1.07054 0.46347
 H607 H 0.44153 1.03681 0.46009
 H608 H 0.44744 0.96443 0.48812
 H609 H 0.55470 1.07423 0.48653
 H610 H 0.54899 1.00634 0.44739
 H611 H 0.45487 1.03207 0.56225
 H612 H 0.44755 0.96648 0.52287
 Zr613 Zr -0.01822 0.53514 1.03302
 O614 O -0.04378 0.52211 1.05067
 O615 O -0.01206 0.56434 1.04816
 O616 O -0.00697 0.52917 1.06298
 O617 O -0.05064 0.55621 0.99500
 O618 O 0.02258 0.50707 1.05821
 O619 O -0.04729 0.55364 1.02942
 O620 O 0.01914 0.57647 1.03339
 O621 O 0.01583 0.53612 1.03209
 O622 O -0.00988 0.55576 1.00912
 O623 O -0.00793 0.50260 1.02926
 O624 O -0.03301 0.52145 1.00698
 Zr625 Zr 0.02120 0.51009 0.97665
 Zr626 Zr 0.02604 0.50406 1.02662
 Zr627 Zr -0.02273 0.54128 0.98300
 Zr628 Zr 0.02392 0.55584 1.00772
 O629 O -0.05100 0.53050 0.96745
 O630 O 0.05405 0.55882 1.02325
 O631 O 0.01124 0.54295 0.98039
 O632 O 0.03567 0.52409 1.00267
 O633 O 0.01297 0.48938 1.00059
 O634 O -0.01280 0.50923 0.97788
 C635 C 0.00419 0.57738 1.04714
 C636 C -0.05748 0.55968 1.01320
 C637 C 0.00933 0.51790 1.06959
 O638 O 0.05606 0.51419 1.03937
 O639 O 0.05160 0.48530 1.01430
 O640 O 0.04897 0.48981 0.98007
 C641 C 0.05824 0.48186 0.99600
 O642 O -0.04799 0.48428 1.02178
 Zr643 Zr -0.02096 0.48973 1.00236
 O644 O 0.01494 0.48024 0.96199
 O645 O 0.02416 0.47241 1.03908
 O646 O -0.01508 0.45975 1.01726
 O647 O -0.04956 0.48474 0.98485
 O648 O -0.01362 0.46639 0.97983
 C649 C 0.00078 0.46536 0.96569
 O650 O 0.04795 0.52212 0.95990
 O651 O -0.02247 0.57402 0.97304
 O652 O 0.01187 0.51850 0.94673
 O653 O -0.01664 0.54185 0.95163
 O654 O 0.01743 0.58732 0.99603
 O655 O 0.04807 0.56388 0.98595
 C656 C -0.00318 0.53140 0.94016
 H657 H -0.01560 0.57076 1.01100
 H658 H 0.05171 0.52452 1.00129
 H659 H -0.01955 0.50338 0.96530
 H660 H -0.01240 0.49363 1.04097
 H661 H 0.05731 0.57460 1.02460
 H662 H 0.06140 0.50202 1.04787
 H663 H 0.03749 0.47036 1.04734
 H664 H -0.02453 0.44858 1.01078
 H665 H 0.02715 0.59770 1.00325
 H666 H -0.03570 0.57603 0.96463
 H667 H -0.05634 0.54295 0.95930
 H668 H -0.05256 0.46885 0.98461
 H669 H 0.05566 0.57738 0.99029
 H670 H 0.05105 0.51131 0.94897
 H671 H -0.04698 0.53297 1.06153
 H672 H -0.05372 0.46937 1.01940
 Zr673 Zr -0.01888 0.46810 0.46671
 O674 O -0.04361 0.47986 0.44725
 O675 O -0.01210 0.43786 0.45370
 O676 O -0.00629 0.47241 0.43697
 O677 O -0.05325 0.44962 0.50432
 O678 O 0.02290 0.49485 0.44192
 O679 O -0.04799 0.44971 0.47001
 O680 O 0.01770 0.42608 0.47116
 O681 O 0.01510 0.46716 0.46920
 O682 O -0.01175 0.44914 0.49214
 O683 O -0.00884 0.50081 0.46922
 O684 O -0.03500 0.48342 0.49125
 Zr685 Zr 0.01765 0.49680 0.52344
 Zr686 Zr 0.02494 0.49955 0.47345
 Zr687 Zr -0.02593 0.46522 0.51676
 Zr688 Zr 0.02193 0.44913 0.49506
 O689 O -0.05479 0.47716 0.53050
 O690 O 0.05240 0.44516 0.48035
 O691 O 0.00789 0.46378 0.52098
 O692 O 0.03338 0.48113 0.49891
 O693 O 0.01059 0.51589 0.49802
 O694 O -0.01626 0.49752 0.52067
 C695 C 0.00343 0.42429 0.45684
 C696 C -0.05902 0.44478 0.48605
 C697 C 0.01017 0.48348 0.43050
 O698 O 0.05550 0.48861 0.46252
 O699 O 0.04997 0.51895 0.48581
 O700 O 0.04562 0.51678 0.52009
 C701 C 0.05573 0.52357 0.50415
 O702 O -0.04920 0.51959 0.47378
 Zr703 Zr -0.02323 0.51535 0.49474
 O704 O 0.01033 0.52747 0.53622
 O705 O 0.02373 0.53042 0.45935
 O706 O -0.01667 0.54436 0.47852
 O707 O -0.05272 0.52120 0.51063
 O708 O -0.01719 0.54012 0.51621
 C709 C -0.00367 0.54205 0.53103
 O710 O 0.04369 0.48624 0.54204
 O711 O -0.02650 0.43315 0.52842
 O712 O 0.00721 0.48962 0.55334
 O713 O -0.02109 0.46613 0.54829
 O714 O 0.01514 0.41884 0.50903
 O715 O 0.04553 0.44273 0.51789
 C716 C -0.00794 0.47686 0.55983
 H717 H -0.01738 0.43405 0.49097
 H718 H 0.04934 0.48079 0.50100
 H719 H -0.02357 0.50405 0.53266
 H720 H -0.01274 0.50905 0.45686
 H721 H 0.05575 0.42933 0.48003
 H722 H 0.06123 0.50020 0.45359
 H723 H 0.03743 0.53197 0.45158
 H724 H -0.02651 0.55587 0.48388
 H725 H 0.02512 0.40785 0.50298
 H726 H -0.04015 0.43176 0.53631
 H727 H -0.06058 0.46529 0.53907
 H728 H -0.05582 0.53705 0.50993
 H729 H 0.05351 0.42915 0.51442
 H730 H 0.04611 0.49776 0.55250
 H731 H -0.04625 0.46831 0.43689
 H732 H -0.05520 0.53453 0.47523
 Zr733 Zr 0.48202 -0.03404 -0.03263
 O734 O 0.45635 -0.02154 -0.05059
 O735 O 0.48885 -0.06323 -0.04756
 O736 O 0.49336 -0.02803 -0.06252
 O737 O 0.44970 -0.05539 0.00523
 O738 O 0.52248 -0.00547 -0.05762
 O739 O 0.45323 -0.05293 -0.02917
 O740 O 0.52027 -0.07467 -0.03257
 O741 O 0.51608 -0.03448 -0.03141
 O742 O 0.49056 -0.05441 -0.00856
 O743 O 0.49169 -0.00133 -0.02894
 O744 O 0.46679 -0.02045 -0.00678
 Zr745 Zr 0.52058 -0.00807 0.02395
 Zr746 Zr 0.52566 -0.00224 -0.02600
 Zr747 Zr 0.47726 -0.03998 0.01739
 Zr748 Zr 0.52435 -0.05394 -0.00687
 O749 O 0.44872 -0.02953 0.03267
 O750 O 0.55471 -0.05655 -0.02202
 O751 O 0.51125 -0.04110 0.02029
 O752 O 0.53548 -0.02199 -0.00188
 O753 O 0.51213 0.01238 -0.00015
 O754 O 0.48657 -0.00775 0.02245
 C755 C 0.50542 -0.07591 -0.04642
 C756 C 0.44303 -0.05904 -0.01300
 C757 C 0.50950 -0.01655 -0.06906
 O758 O 0.55593 -0.01198 -0.03849
 O759 O 0.55084 0.01693 -0.01357
 O760 O 0.54809 0.01251 0.02066
 C761 C 0.55735 0.02049 0.00476
 O762 O 0.45121 0.01632 -0.02187
 Zr763 Zr 0.47822 0.01147 -0.00221
 O764 O 0.51365 0.02179 0.03836
 O765 O 0.52329 0.02932 -0.03859
 O766 O 0.48356 0.04144 -0.01726
 O767 O 0.44945 0.01609 0.01509
 O768 O 0.48501 0.03512 0.02017
 C769 C 0.49930 0.03648 0.03441
 O770 O 0.54740 -0.01954 0.04106
 O771 O 0.47801 -0.07267 0.02748
 O772 O 0.51120 -0.01653 0.05384
 O773 O 0.48318 -0.04036 0.04879
 O774 O 0.51829 -0.08549 0.00482
 O775 O 0.54840 -0.06150 0.01521
 C776 C 0.49639 -0.02967 0.06033
 H777 H 0.48513 -0.06950 -0.01043
 H778 H 0.55152 -0.02218 -0.00036
 H779 H 0.47965 -0.00193 0.03494
 H780 H 0.48714 0.00751 -0.04073
 H781 H 0.55828 -0.07229 -0.02323
 H782 H 0.56111 0.00022 -0.04700
 H783 H 0.53663 0.03154 -0.04676
 H784 H 0.47382 0.05248 -0.01095
 H785 H 0.52827 -0.09573 -0.00228
 H786 H 0.46477 -0.07482 0.03579
 H787 H 0.44355 -0.04201 0.04083
 H788 H 0.44614 0.03193 0.01523
 H789 H 0.55623 -0.07496 0.01106
 H790 H 0.55020 -0.00861 0.05196
 H791 H 0.45345 -0.03253 -0.06141
 H792 H 0.44511 0.03111 -0.01956
 Zr793 Zr 0.51444 0.53746 -0.03204
 O794 O 0.53794 0.52509 -0.05263
 O795 O 0.50848 0.56832 -0.04377
 O796 O 0.50082 0.53377 -0.06153
 O797 O 0.55145 0.55312 0.00483
 O798 O 0.47058 0.51303 -0.05618
 O799 O 0.54439 0.55453 -0.02918
 O800 O 0.48111 0.58172 -0.02390
 O801 O 0.48067 0.54010 -0.02830
 O802 O 0.50944 0.55606 -0.00565
 O803 O 0.50290 0.50524 -0.03019
 O804 O 0.53085 0.52075 -0.00867
 Zr805 Zr 0.47907 0.50937 0.02501
 Zr806 Zr 0.46943 0.50812 -0.02473
 Zr807 Zr 0.52392 0.53873 0.01781
 Zr808 Zr 0.47597 0.55774 -0.00146
 O809 O 0.55264 0.52491 0.03003
 O810 O 0.44550 0.56373 -0.01554
 O811 O 0.49044 0.54184 0.02335
 O812 O 0.46304 0.52630 0.00166
 O813 O 0.48402 0.49056 -0.00130
 O814 O 0.51276 0.50692 0.02101
 C815 C 0.49457 0.58308 -0.03885
 C816 C 0.55644 0.55837 -0.01344
 C817 C 0.48368 0.52349 -0.06777
 O818 O 0.43907 0.52093 -0.03415
 O819 O 0.44412 0.48955 -0.01208
 O820 O 0.45038 0.49043 0.02203
 C821 C 0.43925 0.48445 0.00629
 O822 O 0.54248 0.48427 -0.02775
 Zr823 Zr 0.51763 0.48938 -0.00577
 O824 O 0.48535 0.47821 0.03659
 O825 O 0.46829 0.47753 -0.03987
 O826 O 0.50897 0.46116 -0.02280
 O827 O 0.54738 0.48166 0.00892
 O828 O 0.51099 0.46444 0.01496
 C829 C 0.49813 0.46296 0.03028
 O830 O 0.45423 0.52079 0.04470
 O831 O 0.52690 0.57045 0.03051
 O832 O 0.49098 0.51553 0.05474
 O833 O 0.52032 0.53751 0.04944
 O834 O 0.48463 0.58697 0.01401
 O835 O 0.45324 0.56457 0.02208
 C836 C 0.50701 0.52738 0.06109
 H837 H 0.51580 0.57086 -0.00640
 H838 H 0.44721 0.52734 0.00434
 H839 H 0.52020 0.49977 0.03252
 H840 H 0.50588 0.49704 -0.04292
 H841 H 0.44298 0.57970 -0.01517
 H842 H 0.43234 0.50984 -0.04322
 H843 H 0.45418 0.47687 -0.04717
 H844 H 0.51839 0.44903 -0.01818
 H845 H 0.47502 0.59872 0.00889
 H846 H 0.54094 0.57087 0.03793
 H847 H 0.55945 0.53624 0.03878
 H848 H 0.54953 0.46567 0.00768
 H849 H 0.44565 0.57848 0.01919
 H850 H 0.45168 0.50923 0.05488
 H851 H 0.54074 0.53673 -0.06267
 H852 H 0.54786 0.46906 -0.02691
 Zr853 Zr 0.01751 1.03459 0.46592
 O854 O 0.04148 1.02079 0.44663
 O855 O 0.01223 1.06468 0.45245
 O856 O 0.00461 1.02977 0.43630
 O857 O 0.05336 1.05222 0.50303
 O858 O -0.02594 1.00948 0.44171
 O859 O 0.04748 1.05164 0.46878
 O860 O -0.01601 1.07917 0.47053
 O861 O -0.01634 1.03766 0.46858
 O862 O 0.01180 1.05473 0.49118
 O863 O 0.00561 1.00262 0.46891
 O864 O 0.03300 1.01912 0.49052
 Zr865 Zr -0.01994 1.01003 0.52317
 Zr866 Zr -0.02800 1.00603 0.47331
 Zr867 Zr 0.02535 1.03866 0.51588
 Zr868 Zr -0.02178 1.05686 0.49432
 O869 O 0.05365 1.02546 0.52949
 O870 O -0.05190 1.06221 0.47939
 O871 O -0.00827 1.04230 0.52032
 O872 O -0.03507 1.02573 0.49859
 O873 O -0.01433 0.98971 0.49798
 O874 O 0.01383 1.00715 0.52022
 C875 C -0.00203 1.07956 0.45592
 C876 C 0.05900 1.05637 0.48466
 C877 C -0.01251 1.01947 0.43006
 O878 O -0.05801 1.01842 0.46253
 O879 O -0.05381 0.98832 0.48613
 O880 O -0.04866 0.99113 0.52033
 C881 C -0.05932 0.98432 0.50459
 O882 O 0.04483 0.98149 0.47344
 Zr883 Zr 0.01939 0.98806 0.49450
 O884 O -0.01423 0.97964 0.53654
 O885 O -0.02884 0.97474 0.45948
 O886 O 0.01085 0.95899 0.47870
 O887 O 0.04865 0.98089 0.51024
 O888 O 0.01202 0.96447 0.51640
 C889 C -0.00126 0.96402 0.53148
 O890 O -0.04528 1.02281 0.54155
 O891 O 0.02798 1.07099 0.52719
 O892 O -0.00886 1.01753 0.55290
 O893 O 0.02087 1.03895 0.54746
 O894 O -0.01327 1.08701 0.50824
 O895 O -0.04497 1.06525 0.51703
 C896 C 0.00717 1.02942 0.55918
 H897 H 0.01828 1.06943 0.48984
 H898 H -0.05097 1.02702 0.50079
 H899 H 0.02089 1.00060 0.53224
 H900 H 0.00890 0.99374 0.45665
 H901 H -0.05429 1.07820 0.47890
 H902 H -0.06452 1.00690 0.45379
 H903 H -0.04272 0.97377 0.45185
 H904 H 0.01996 0.94705 0.48420
 H905 H -0.02265 1.09843 0.50221
 H906 H 0.04177 1.07178 0.53499
 H907 H 0.06023 1.03723 0.53788
 H908 H 0.05071 0.96485 0.50977
 H909 H -0.05230 1.07906 0.51333
 H910 H -0.04829 1.01189 0.55222
 H911 H 0.04471 1.03179 0.43609
 H912 H 0.04986 0.96624 0.47501
 Zr913 Zr 0.71884 0.26559 0.21569
 O914 O 0.73256 0.29047 0.19769
 O915 O 0.68960 0.25983 0.20078
 O916 O 0.72458 0.25347 0.18588
 O917 O 0.69874 0.29974 0.25326
 O918 O 0.74562 0.22327 0.19095
 O919 O 0.70092 0.29513 0.21888
 O920 O 0.67621 0.22971 0.21649
 O921 O 0.71689 0.23153 0.21713
 O922 O 0.69803 0.25844 0.23985
 O923 O 0.75099 0.25452 0.21944
 O924 O 0.73284 0.28077 0.24140
 Zr925 Zr 0.74265 0.22697 0.27254
 Zr926 Zr 0.74859 0.22061 0.22260
 Zr927 Zr 0.71276 0.27166 0.26566
 Zr928 Zr 0.69701 0.22464 0.24177
 O929 O 0.72432 0.30003 0.28077
 O930 O 0.69328 0.19433 0.22636
 O931 O 0.71017 0.23774 0.26881
 O932 O 0.72835 0.21214 0.24683
 O933 O 0.76354 0.23401 0.24835
 O934 O 0.74443 0.26097 0.27079
 C935 C 0.67581 0.24427 0.20244
 C936 C 0.69526 0.30600 0.23495
 C937 C 0.73529 0.23662 0.17944
 O938 O 0.73777 0.19041 0.21047
 O939 O 0.76672 0.19493 0.23524
 O940 O 0.76231 0.19867 0.26945
 C941 C 0.77005 0.18877 0.25363
 O942 O 0.77040 0.29432 0.22616
 Zr943 Zr 0.76413 0.26795 0.24607
 O944 O 0.77247 0.23294 0.28707
 O945 O 0.78017 0.22133 0.20983
 O946 O 0.79391 0.26078 0.23116
 O947 O 0.76980 0.29698 0.26304
 O948 O 0.78712 0.26063 0.26864
 C949 C 0.78768 0.24665 0.28308
 O950 O 0.73000 0.20081 0.28967
 O951 O 0.68007 0.27273 0.27573
 O952 O 0.73419 0.23718 0.30235
 O953 O 0.71177 0.26630 0.29708
 O954 O 0.66590 0.23213 0.25392
 O955 O 0.68841 0.20098 0.26376
 C956 C 0.72163 0.25272 0.30871
 H957 H 0.68322 0.26452 0.23801
 H958 H 0.72751 0.19612 0.24846
 H959 H 0.75037 0.26789 0.28326
 H960 H 0.76008 0.25844 0.20760
 H961 H 0.67746 0.19145 0.22512
 H962 H 0.74976 0.18452 0.20196
 H963 H 0.78187 0.20769 0.20179
 H964 H 0.80530 0.27011 0.23742
 H965 H 0.65523 0.22251 0.24697
 H966 H 0.67846 0.28626 0.28395
 H967 H 0.71204 0.30598 0.28885
 H968 H 0.78572 0.29956 0.26319
 H969 H 0.67487 0.19349 0.25947
 H970 H 0.74066 0.19773 0.30062
 H971 H 0.72187 0.29369 0.18681
 H972 H 0.78542 0.29969 0.22838
 Zr973 Zr 0.78628 0.73509 0.71997
 O974 O 0.77640 0.71160 0.69808
 O975 O 0.81768 0.74233 0.71027
 O976 O 0.78402 0.74923 0.69068
 O977 O 0.80066 0.69774 0.75667
 O978 O 0.76166 0.77856 0.69572
 O979 O 0.80412 0.70553 0.72299
 O980 O 0.82858 0.76976 0.73155
 O981 O 0.78734 0.76893 0.72471
 O982 O 0.80272 0.74018 0.74744
 O983 O 0.75363 0.74546 0.72043
 O984 O 0.76864 0.71757 0.74196
 Zr985 Zr 0.75291 0.76839 0.77634
 Zr986 Zr 0.75481 0.77897 0.72688
 Zr987 Zr 0.78440 0.72459 0.76952
 Zr988 Zr 0.80281 0.77368 0.75257
 O989 O 0.77077 0.69518 0.78032
 O990 O 0.80859 0.80464 0.73950
 O991 O 0.78579 0.75813 0.77606
 O992 O 0.77081 0.78546 0.75434
 O993 O 0.73624 0.76328 0.74894
 O994 O 0.75208 0.73462 0.77139
 C995 C 0.83155 0.75656 0.71645
 C996 C 0.80731 0.69326 0.73860
 C997 C 0.77336 0.76607 0.68434
 O998 O 0.76712 0.80993 0.71877
 O999 O 0.73469 0.80359 0.73908
 O1000 O 0.73346 0.79682 0.77303
 C1001 C 0.72831 0.80812 0.75725
 O1002 O 0.73419 0.70497 0.72080
 Zr1003 Zr 0.73672 0.72965 0.74358
 O1004 O 0.72125 0.76073 0.78589
 O1005 O 0.72524 0.77937 0.71036
 O1006 O 0.70950 0.73751 0.72517
 O1007 O 0.72924 0.69935 0.75723
 O1008 O 0.71007 0.73507 0.76287
 C1009 C 0.70695 0.74764 0.77832
 O1010 O 0.76169 0.79323 0.79736
 O1011 O 0.81524 0.72227 0.78375
 O1012 O 0.75790 0.75621 0.80608
 O1013 O 0.78122 0.72768 0.80107
 O1014 O 0.83104 0.76569 0.76955
 O1015 O 0.80707 0.79629 0.77693
 C1016 C 0.77012 0.74057 0.81258
 H1017 H 0.81774 0.73430 0.74737
 H1018 H 0.77110 0.80130 0.75745
 H1019 H 0.74447 0.72674 0.78235
 H1020 H 0.74643 0.74245 0.70724
 H1021 H 0.82436 0.80775 0.74085
 H1022 H 0.75643 0.81649 0.70931
 H1023 H 0.72451 0.79361 0.70336
 H1024 H 0.69752 0.72748 0.72883
 H1025 H 0.84277 0.77580 0.76538
 H1026 H 0.81565 0.70805 0.79081
 H1027 H 0.78169 0.68856 0.78950
 H1028 H 0.71350 0.69661 0.75510
 H1029 H 0.82081 0.80443 0.77497
 H1030 H 0.74932 0.79507 0.80691
 H1031 H 0.78883 0.70943 0.68866
 H1032 H 0.71928 0.69883 0.72084
 Zr1033 Zr 0.21598 0.23333 0.78455
 O1034 O 0.22968 0.20906 0.80335
 O1035 O 0.18609 0.23869 0.79844
 O1036 O 0.22087 0.24604 0.81430
 O1037 O 0.19790 0.19790 0.74710
 O1038 O 0.24132 0.27657 0.80915
 O1039 O 0.19876 0.20342 0.78142
 O1040 O 0.17193 0.26753 0.78121
 O1041 O 0.21320 0.26730 0.78243
 O1042 O 0.19581 0.23945 0.75962
 O1043 O 0.24794 0.24502 0.78142
 O1044 O 0.23113 0.21789 0.75954
 Zr1045 Zr 0.24053 0.27118 0.72761
 Zr1046 Zr 0.24480 0.27879 0.77755
 Zr1047 Zr 0.21162 0.22597 0.73452
 Zr1048 Zr 0.19396 0.27316 0.75703
 O1049 O 0.22444 0.19760 0.72033
 O1050 O 0.18899 0.30337 0.77230
 O1051 O 0.20825 0.25975 0.73065
 O1052 O 0.22511 0.28627 0.75260
 O1053 O 0.26084 0.26514 0.75251
 O1054 O 0.24314 0.23728 0.73002
 C1055 C 0.17149 0.25332 0.79556
 C1056 C 0.19387 0.19207 0.76542
 C1057 C 0.23121 0.26313 0.82069
 O1058 O 0.23281 0.30894 0.78884
 O1059 O 0.26272 0.30457 0.76490
 O1060 O 0.25958 0.29982 0.73066
 C1061 C 0.26662 0.31025 0.74648
 O1062 O 0.26856 0.20550 0.77602
 Zr1063 Zr 0.26221 0.23129 0.75546
 O1064 O 0.27092 0.26559 0.71403
 O1065 O 0.27605 0.27918 0.79111
 O1066 O 0.29134 0.23940 0.77111
 O1067 O 0.26908 0.20208 0.73914
 O1068 O 0.28575 0.23876 0.73350
 C1069 C 0.28640 0.25242 0.71881
 O1070 O 0.22783 0.29678 0.70971
 O1071 O 0.17929 0.22378 0.72352
 O1072 O 0.23303 0.26029 0.69779
 O1073 O 0.21131 0.23072 0.70300
 O1074 O 0.16366 0.26493 0.74352
 O1075 O 0.18559 0.29656 0.73468
 C1076 C 0.22100 0.24438 0.69138
 H1077 H 0.18110 0.23308 0.76106
 H1078 H 0.22395 0.30223 0.75064
 H1079 H 0.24961 0.23027 0.71784
 H1080 H 0.25680 0.24155 0.79355
 H1081 H 0.17307 0.30590 0.77305
 H1082 H 0.24439 0.31528 0.79755
 H1083 H 0.27716 0.29303 0.79894
 H1084 H 0.30314 0.23021 0.76535
 H1085 H 0.15242 0.27438 0.74988
 H1086 H 0.17833 0.21004 0.71553
 H1087 H 0.21259 0.19118 0.71199
 H1088 H 0.28507 0.19989 0.73943
 H1089 H 0.17187 0.30396 0.73861
 H1090 H 0.23871 0.29984 0.69899
 H1091 H 0.21873 0.20583 0.81396
 H1092 H 0.28373 0.20034 0.77422
 Zr1093 Zr 0.28566 0.76652 0.27979
 O1094 O 0.27479 0.79030 0.30098
 O1095 O 0.31677 0.75978 0.29057
 O1096 O 0.28281 0.75278 0.30921
 O1097 O 0.30101 0.80315 0.24286
 O1098 O 0.26082 0.72325 0.30405
 O1099 O 0.30331 0.79613 0.27679
 O1100 O 0.32850 0.73174 0.27037
 O1101 O 0.28719 0.73260 0.27567
 O1102 O 0.30305 0.76099 0.25293
 O1103 O 0.25314 0.75588 0.27857
 O1104 O 0.26859 0.78345 0.25697
 Zr1105 Zr 0.25445 0.73186 0.22304
 Zr1106 Zr 0.25485 0.72227 0.27272
 Zr1107 Zr 0.28530 0.77599 0.23001
 Zr1108 Zr 0.30363 0.72740 0.24840
 O1109 O 0.27181 0.80515 0.21840
 O1110 O 0.30923 0.69665 0.26199
 O1111 O 0.28722 0.74234 0.22411
 O1112 O 0.27180 0.71536 0.24586
 O1113 O 0.23687 0.73738 0.24984
 O1114 O 0.25314 0.76570 0.22740
 C1115 C 0.33084 0.74533 0.28528
 C1116 C 0.30700 0.80807 0.26106
 C1117 C 0.27218 0.73594 0.31552
 O1118 O 0.26714 0.69152 0.28166
 O1119 O 0.23531 0.69732 0.26035
 O1120 O 0.23515 0.70337 0.22626
 C1121 C 0.22955 0.69238 0.24208
 O1122 O 0.23338 0.79622 0.27689
 Zr1123 Zr 0.23685 0.77111 0.25465
 O1124 O 0.22298 0.73897 0.21248
 O1125 O 0.22482 0.72202 0.28843
 O1126 O 0.20914 0.76338 0.27237
 O1127 O 0.22947 0.80107 0.24028
 O1128 O 0.21090 0.76510 0.23464
 C1129 C 0.20835 0.75213 0.21937
 O1130 O 0.26425 0.70673 0.20273
 O1131 O 0.31652 0.77812 0.21658
 O1132 O 0.26002 0.74361 0.19327
 O1133 O 0.28295 0.77237 0.19842
 O1134 O 0.33243 0.73533 0.23235
 O1135 O 0.30893 0.70449 0.22447
 C1136 C 0.27219 0.75928 0.18683
 H1137 H 0.31801 0.76695 0.25337
 H1138 H 0.27233 0.69947 0.24303
 H1139 H 0.24578 0.77332 0.21611
 H1140 H 0.24553 0.75909 0.29150
 H1141 H 0.32506 0.69364 0.26119
 H1142 H 0.25623 0.68508 0.29091
 H1143 H 0.22399 0.70791 0.29563
 H1144 H 0.19717 0.77322 0.26816
 H1145 H 0.34407 0.72539 0.23710
 H1146 H 0.31706 0.79220 0.20931
 H1147 H 0.28295 0.81165 0.20941
 H1148 H 0.21364 0.80373 0.24193
 H1149 H 0.32272 0.69654 0.22693
 H1150 H 0.25221 0.70455 0.19285
 H1151 H 0.28687 0.79273 0.31075
 H1152 H 0.21839 0.80217 0.27639
 Zr1153 Zr 0.21807 0.76780 0.71393
 O1154 O 0.23161 0.79319 0.69643
 O1155 O 0.18943 0.76135 0.69823
 O1156 O 0.22474 0.75611 0.68415
 O1157 O 0.19624 0.80097 0.75141
 O1158 O 0.24638 0.72636 0.68935
 O1159 O 0.19947 0.79694 0.71705
 O1160 O 0.17686 0.73035 0.71304
 O1161 O 0.21699 0.73369 0.71504
 O1162 O 0.19682 0.75984 0.73752
 O1163 O 0.25040 0.75747 0.71822
 O1164 O 0.23107 0.78297 0.74009
 Zr1165 Zr 0.24143 0.72909 0.77084
 Zr1166 Zr 0.24879 0.72348 0.72102
 Zr1167 Zr 0.21060 0.77308 0.76380
 Zr1168 Zr 0.19665 0.72599 0.73912
 O1169 O 0.22093 0.80163 0.77940
 O1170 O 0.19400 0.69551 0.72379
 O1171 O 0.20878 0.73907 0.76658
 O1172 O 0.22815 0.71422 0.74470
 O1173 O 0.26280 0.73691 0.74722
 O1174 O 0.24240 0.76314 0.76943
 C1175 C 0.17642 0.74505 0.69911
 C1176 C 0.19318 0.80747 0.73312
 C1177 C 0.23591 0.73953 0.67776
 O1178 O 0.23902 0.69315 0.70836
 O1179 O 0.26716 0.69805 0.73379
 O1180 O 0.26178 0.70126 0.76792
 C1181 C 0.27010 0.69170 0.75218
 O1182 O 0.26877 0.79754 0.72566
 Zr1183 Zr 0.26257 0.77088 0.74526
 O1184 O 0.27059 0.73579 0.78623
 O1185 O 0.28063 0.72516 0.70891
 O1186 O 0.29290 0.76442 0.73107
 O1187 O 0.26711 0.79997 0.76244
 O1188 O 0.28502 0.76408 0.76846
 C1189 C 0.28545 0.75008 0.78290
 O1190 O 0.22899 0.70245 0.78746
 O1191 O 0.17766 0.77300 0.77318
 O1192 O 0.23220 0.73880 0.80056
 O1193 O 0.20927 0.76750 0.79521
 O1194 O 0.16490 0.73274 0.75016
 O1195 O 0.18800 0.70219 0.76096
 C1196 C 0.21932 0.75408 0.80688
 H1197 H 0.18192 0.76557 0.73535
 H1198 H 0.22767 0.69816 0.74617
 H1199 H 0.24784 0.77013 0.78205
 H1200 H 0.25966 0.76175 0.70661
 H1201 H 0.17828 0.69225 0.72223
 H1202 H 0.25136 0.68766 0.70006
 H1203 H 0.28286 0.71165 0.70078
 H1204 H 0.30391 0.77392 0.73769
 H1205 H 0.15476 0.72286 0.74284
 H1206 H 0.17545 0.78638 0.78149
 H1207 H 0.20829 0.80712 0.78729
 H1208 H 0.28296 0.80296 0.76293
 H1209 H 0.17461 0.69454 0.75648
 H1210 H 0.23944 0.69951 0.79861
 H1211 H 0.22111 0.79626 0.68536
 H1212 H 0.28368 0.80310 0.72812
 Zr1213 Zr 0.28748 0.23433 0.21893
 O1214 O 0.27600 0.21027 0.19832
 O1215 O 0.31837 0.24059 0.20747
 O1216 O 0.28410 0.24752 0.18933
 O1217 O 0.30334 0.19823 0.25622
 O1218 O 0.26248 0.27741 0.19436
 O1219 O 0.30497 0.20456 0.22214
 O1220 O 0.33071 0.26888 0.22702
 O1221 O 0.28935 0.26830 0.22247
 O1222 O 0.30549 0.24018 0.24540
 O1223 O 0.25509 0.24536 0.22049
 O1224 O 0.27078 0.21802 0.24230
 Zr1225 Zr 0.25776 0.27038 0.27557
 Zr1226 Zr 0.25716 0.27907 0.22576
 Zr1227 Zr 0.28812 0.22581 0.26885
 Zr1228 Zr 0.30641 0.27384 0.24938
 O1229 O 0.27467 0.19702 0.28117
 O1230 O 0.31194 0.30429 0.23525
 O1231 O 0.29042 0.25953 0.27418
 O1232 O 0.27473 0.28629 0.25221
 O1233 O 0.23958 0.26456 0.24915
 O1234 O 0.25609 0.23649 0.27179
 C1235 C 0.33262 0.25504 0.21225
 C1236 C 0.30888 0.19288 0.23801
 C1237 C 0.27348 0.26435 0.18292
 O1238 O 0.26950 0.30950 0.21614
 O1239 O 0.23800 0.30442 0.23807
 O1240 O 0.23853 0.29893 0.27225
 C1241 C 0.23262 0.30968 0.25637
 O1242 O 0.23512 0.20522 0.22319
 Zr1243 Zr 0.23918 0.23077 0.24491
 O1244 O 0.22646 0.26397 0.28671
 O1245 O 0.22682 0.27937 0.21050
 O1246 O 0.21120 0.23838 0.22743
 O1247 O 0.23177 0.20123 0.25996
 O1248 O 0.21366 0.23760 0.26516
 C1249 C 0.21154 0.25093 0.28021
 O1250 O 0.26832 0.29574 0.29528
 O1251 O 0.31960 0.22361 0.28181
 O1252 O 0.26365 0.25904 0.30542
 O1253 O 0.28640 0.23004 0.30043
 O1254 O 0.33553 0.26588 0.26501
 O1255 O 0.31240 0.29707 0.27288
 C1256 C 0.27583 0.24337 0.31194
 H1257 H 0.32040 0.23405 0.24479
 H1258 H 0.27542 0.30222 0.25479
 H1259 H 0.24887 0.22917 0.28331
 H1260 H 0.24718 0.24200 0.20773
 H1261 H 0.32781 0.30714 0.23574
 H1262 H 0.25843 0.31590 0.20697
 H1263 H 0.22596 0.29335 0.20309
 H1264 H 0.19924 0.22877 0.23200
 H1265 H 0.34712 0.27563 0.25989
 H1266 H 0.32018 0.20969 0.28934
 H1267 H 0.28595 0.19057 0.29008
 H1268 H 0.21590 0.19877 0.25859
 H1269 H 0.32619 0.30483 0.27008
 H1270 H 0.25653 0.29829 0.30533
 H1271 H 0.28786 0.20750 0.18841
 H1272 H 0.22011 0.19943 0.22403
 Zr1273 Zr 0.71851 0.73077 0.28666
 O1274 O 0.73271 0.70595 0.30449
 O1275 O 0.68947 0.73641 0.30194
 O1276 O 0.72462 0.74291 0.31641
 O1277 O 0.69822 0.69650 0.24928
 O1278 O 0.74535 0.77321 0.31111
 O1279 O 0.70077 0.70115 0.28364
 O1280 O 0.67550 0.76634 0.28626
 O1281 O 0.71626 0.76483 0.28526
 O1282 O 0.69730 0.73780 0.26272
 O1283 O 0.75051 0.74204 0.28258
 O1284 O 0.73229 0.71570 0.26080
 Zr1285 Zr 0.74113 0.76954 0.22961
 Zr1286 Zr 0.74778 0.77594 0.27945
 Zr1287 Zr 0.71177 0.72468 0.23675
 Zr1288 Zr 0.69595 0.77161 0.26083
 O1289 O 0.72335 0.69639 0.22151
 O1290 O 0.69217 0.80185 0.27635
 O1291 O 0.70881 0.75858 0.23365
 O1292 O 0.72710 0.78430 0.25546
 O1293 O 0.76247 0.76263 0.25354
 O1294 O 0.74326 0.73555 0.23131
 C1295 C 0.67546 0.75182 0.30035
 C1296 C 0.69502 0.69024 0.26762
 C1297 C 0.73530 0.75980 0.32273
 O1298 O 0.73687 0.80607 0.29172
 O1299 O 0.76552 0.80173 0.26660
 O1300 O 0.76068 0.79785 0.23244
 C1301 C 0.76858 0.80782 0.24815
 O1302 O 0.77024 0.70238 0.27566
 Zr1303 Zr 0.76339 0.72870 0.25581
 O1304 O 0.77071 0.76369 0.21467
 O1305 O 0.77956 0.77542 0.29188
 O1306 O 0.79332 0.73608 0.27039
 O1307 O 0.76908 0.69969 0.23880
 O1308 O 0.78597 0.73616 0.23297
 C1309 C 0.78612 0.75008 0.21846
 O1310 O 0.72801 0.79569 0.21269
 O1311 O 0.67894 0.72342 0.22703
 O1312 O 0.73231 0.75937 0.19991
 O1313 O 0.71032 0.73004 0.20533
 O1314 O 0.66474 0.76397 0.24895
 O1315 O 0.68685 0.79526 0.23896
 C1316 C 0.71987 0.74374 0.19363
 H1317 H 0.68257 0.73165 0.26472
 H1318 H 0.72611 0.80032 0.25383
 H1319 H 0.74907 0.72867 0.21877
 H1320 H 0.75981 0.73817 0.29431
 H1321 H 0.67634 0.80463 0.27774
 H1322 H 0.74894 0.81202 0.30009
 H1323 H 0.78126 0.78907 0.29990
 H1324 H 0.80471 0.72685 0.26399
 H1325 H 0.65408 0.77354 0.25600
 H1326 H 0.67734 0.70989 0.21880
 H1327 H 0.71100 0.69037 0.21354
 H1328 H 0.78503 0.69722 0.23847
 H1329 H 0.67333 0.80269 0.24341
 H1330 H 0.73846 0.79883 0.20161
 H1331 H 0.72221 0.70266 0.31547
 H1332 H 0.78528 0.69712 0.27328
 Zr1333 Zr 0.78624 0.26659 0.78067
 O1334 O 0.77412 0.29121 0.80037
 O1335 O 0.81661 0.26042 0.79332
 O1336 O 0.78206 0.25404 0.81041
 O1337 O 0.80386 0.30139 0.74308
 O1338 O 0.76033 0.22427 0.80545
 O1339 O 0.80398 0.29613 0.77735
 O1340 O 0.82909 0.23098 0.77537
 O1341 O 0.78794 0.23253 0.77798
 O1342 O 0.80519 0.25982 0.75499
 O1343 O 0.75384 0.25582 0.77838
 O1344 O 0.77053 0.28239 0.75638
 Zr1345 Zr 0.75828 0.22928 0.72399
 Zr1346 Zr 0.75583 0.22196 0.77395
 Zr1347 Zr 0.78877 0.27369 0.73061
 Zr1348 Zr 0.80595 0.22606 0.75186
 O1349 O 0.77612 0.30234 0.71725
 O1350 O 0.81066 0.19571 0.76648
 O1351 O 0.79098 0.23982 0.72617
 O1352 O 0.77428 0.21385 0.74826
 O1353 O 0.73921 0.23600 0.74965
 O1354 O 0.75676 0.26327 0.72694
 C1355 C 0.83059 0.24531 0.78978
 C1356 C 0.80865 0.30727 0.76134
 C1357 C 0.77126 0.23740 0.81687
 O1358 O 0.76749 0.19161 0.78457
 O1359 O 0.73684 0.19654 0.76159
 O1360 O 0.73875 0.20099 0.72732
 C1361 C 0.73213 0.19079 0.74325
 O1362 O 0.73435 0.29606 0.77408
 Zr1363 Zr 0.73894 0.26989 0.75310
 O1364 O 0.72738 0.23558 0.71175
 O1365 O 0.72503 0.22246 0.78832
 O1366 O 0.71031 0.26297 0.76981
 O1367 O 0.73224 0.29909 0.73717
 O1368 O 0.71413 0.26280 0.73213
 C1369 C 0.71239 0.24899 0.71741
 O1370 O 0.76946 0.20339 0.70519
 O1371 O 0.82068 0.27500 0.71858
 O1372 O 0.76495 0.23994 0.69408
 O1373 O 0.78785 0.26877 0.69907
 O1374 O 0.83588 0.23345 0.73746
 O1375 O 0.81271 0.20241 0.72889
 C1376 C 0.77734 0.25538 0.68755
 H1377 H 0.82012 0.26579 0.75601
 H1378 H 0.77493 0.19786 0.74607
 H1379 H 0.74996 0.27037 0.71506
 H1380 H 0.74556 0.25959 0.79082
 H1381 H 0.82652 0.19270 0.76661
 H1382 H 0.75606 0.18559 0.79354
 H1383 H 0.72381 0.20869 0.79602
 H1384 H 0.69858 0.27254 0.76460
 H1385 H 0.84711 0.22370 0.74328
 H1386 H 0.82169 0.28870 0.71075
 H1387 H 0.78777 0.30840 0.70857
 H1388 H 0.71634 0.30175 0.73802
 H1389 H 0.82641 0.19468 0.73221
 H1390 H 0.75801 0.20063 0.69484
 H1391 H 0.78563 0.29412 0.81062
 H1392 H 0.71937 0.30187 0.77272
 C1393 C 0.49148 1.01273 0.38324
 C1394 C 0.47821 1.02979 0.37635
 C1395 C 0.47204 1.04645 0.38980
 C1396 C 0.47828 1.04567 0.41017
 C1397 C 0.44113 1.03018 0.30415
 C1398 C 0.49788 1.01197 0.40370
 C1399 C 0.46944 1.02967 0.35601
 C1400 C 0.46109 1.02987 0.33939
 C1401 C 0.45051 1.03017 0.32029
 C1402 C 0.49085 1.02818 0.41750
 H1403 H 0.49631 0.99969 0.37297
 H1404 H 0.46178 1.05973 0.38469
 H1405 H 0.47269 1.05850 0.42032
 H1406 H 0.50744 0.99823 0.40890
 C1407 C -0.00602 0.51780 0.88387
 C1408 C -0.01938 0.53473 0.87689
 C1409 C -0.02540 0.55161 0.89017
 C1410 C -0.01901 0.55111 0.91051
 C1411 C -0.05788 0.53294 0.80535
 C1412 C 0.00052 0.51731 0.90429
 C1413 C -0.02854 0.53410 0.85670
 C1414 C -0.03721 0.53376 0.84023
 C1415 C -0.04817 0.53341 0.82132
 C1416 C -0.00645 0.53366 0.91796
 H1417 H -0.00131 0.50459 0.87374
 H1418 H -0.03573 0.56479 0.88498
 H1419 H -0.02458 0.56402 0.92058
 H1420 H 0.01004 0.50359 0.90958
 C1421 C 0.03191 -0.04517 0.88845
 C1422 C 0.02442 -0.02937 0.87497
 C1423 C 0.01018 -0.01299 0.88190
 C1424 C 0.00396 -0.01215 0.90241
 C1425 C 0.05987 -0.03097 0.80224
 C1426 C 0.02585 -0.04431 0.90884
 C1427 C 0.03263 -0.02950 0.85447
 C1428 C 0.04059 -0.03002 0.83772
 C1429 C 0.05077 -0.03071 0.81848
 C1430 C 0.01213 -0.02758 0.91618
 H1431 H 0.04291 -0.05791 0.88331
 H1432 H 0.00433 -0.00061 0.87159
 H1433 H -0.00655 0.00095 0.90760
 H1434 H 0.03230 -0.05659 0.91895
 C1435 C 0.50883 0.48221 0.38297
 C1436 C 0.52300 0.46574 0.37614
 C1437 C 0.53012 0.44976 0.38963
 C1438 C 0.52386 0.45063 0.40997
 C1439 C 0.56027 0.46586 0.30422
 C1440 C 0.50241 0.48305 0.40342
 C1441 C 0.53172 0.46589 0.35583
 C1442 C 0.54009 0.46577 0.33926
 C1443 C 0.55076 0.46564 0.32025
 C1444 C 0.51032 0.46754 0.41723
 H1445 H 0.50327 0.49473 0.37267
 H1446 H 0.54108 0.43696 0.38455
 H1447 H 0.53013 0.43832 0.42015
 H1448 H 0.49207 0.49632 0.40857
 C1449 C 0.50998 0.51440 0.11739
 C1450 C 0.52414 0.53082 0.12429
 C1451 C 0.53121 0.54684 0.11087
 C1452 C 0.52486 0.54611 0.09054
 C1453 C 0.56103 0.53081 0.19647
 C1454 C 0.50347 0.51368 0.09695
 C1455 C 0.53281 0.53066 0.14464
 C1456 C 0.54111 0.53081 0.16126
 C1457 C 0.55166 0.53100 0.18036
 C1458 C 0.51128 0.52928 0.08321
 H1459 H 0.50446 0.50184 0.12765
 H1460 H 0.54215 0.55961 0.11600
 H1461 H 0.53104 0.55849 0.08043
 H1462 H 0.49309 0.50049 0.09176
 C1463 C 0.03110 1.04949 0.60886
 C1464 C 0.02368 1.03377 0.62243
 C1465 C 0.00924 1.01754 0.61568
 C1466 C 0.00285 1.01665 0.59522
 C1467 C 0.06057 1.03299 0.69461
 C1468 C 0.02486 1.04857 0.58849
 C1469 C 0.03236 1.03356 0.64278
 C1470 C 0.04066 1.03354 0.65940
 C1471 C 0.05120 1.03343 0.67849
 C1472 C 0.01106 1.03187 0.58131
 H1473 H 0.04228 1.06210 0.61388
 H1474 H 0.00345 1.00522 0.62605
 H1475 H -0.00769 1.00353 0.59014
 H1476 H 0.03137 1.06064 0.57824
 C1477 C -0.01054 0.48974 0.61638
 C1478 C -0.02344 0.47244 0.62326
 C1479 C -0.02960 0.45587 0.60972
 C1480 C -0.02367 0.45693 0.58931
 C1481 C -0.05905 0.47047 0.69596
 C1482 C -0.00445 0.49079 0.59587
 C1483 C -0.03181 0.47215 0.64372
 C1484 C -0.03982 0.47157 0.66045
 C1485 C -0.05000 0.47081 0.67969
 C1486 C -0.01142 0.47463 0.58201
 H1487 H -0.00573 0.50272 0.62673
 H1488 H -0.03956 0.44241 0.61481
 H1489 H -0.02918 0.44412 0.57911
 H1490 H 0.00486 0.50466 0.59070
 C1491 C 0.47462 -0.05050 0.11021
 C1492 C 0.48029 -0.03359 0.12358
 C1493 C 0.49326 -0.01635 0.11667
 C1494 C 0.49975 -0.01563 0.09626
 C1495 C 0.44211 -0.03281 0.19519
 C1496 C 0.48096 -0.04976 0.08988
 C1497 C 0.47120 -0.03326 0.14378
 C1498 C 0.46260 -0.03319 0.16026
 C1499 C 0.45173 -0.03311 0.17920
 C1500 C 0.49312 -0.03205 0.08251
 H1501 H 0.46460 -0.06391 0.11533
 H1502 H 0.49770 -0.00311 0.12687
 H1503 H 0.50896 -0.00171 0.09104
 H1504 H 0.47566 -0.06273 0.07975
 C1505 C 0.39444 0.45069 0.03096
 C1506 C 0.38153 0.44518 0.01409
 C1507 C 0.38755 0.45250 -0.00516
 C1508 C 0.40625 0.46520 -0.00760
 C1509 C 0.31182 0.39515 0.02039
 C1510 C 0.41322 0.46345 0.02856
 C1511 C 0.36223 0.43186 0.01628
 C1512 C 0.34615 0.42057 0.01765
 C1513 C 0.32746 0.40705 0.01905
 C1514 C 0.41938 0.47088 0.00921
 H1515 H 0.39001 0.44509 0.04595
 H1516 H 0.37778 0.44836 -0.01836
 H1517 H 0.41038 0.47057 -0.02274
 H1518 H 0.42292 0.46744 0.04183
 C1519 C -0.10510 0.95227 0.52968
 C1520 C -0.11751 0.94585 0.51275
 C1521 C -0.11085 0.95202 0.49333
 C1522 C -0.09200 0.96447 0.49077
 C1523 C -0.18733 0.89614 0.51980
 C1524 C -0.08617 0.96479 0.52716
 C1525 C -0.13689 0.93270 0.51508
 C1526 C -0.15302 0.92151 0.51661
 C1527 C -0.17171 0.90804 0.51824
 C1528 C -0.07936 0.97105 0.50763
 H1529 H -0.11002 0.94757 0.54481
 H1530 H -0.12022 0.94716 0.48009
 H1531 H -0.08736 0.96894 0.47550
 H1532 H -0.07687 0.96949 0.54047
 C1533 C -0.10513 0.05037 0.96889
 C1534 C -0.11832 0.05534 0.98570
 C1535 C -0.11258 0.04738 1.00482
 C1536 C -0.09388 0.03458 1.00718
 C1537 C -0.18828 0.10536 0.97968
 C1538 C -0.08636 0.03751 0.97122
 C1539 C -0.13764 0.06873 0.98358
 C1540 C -0.15376 0.08003 0.98226
 C1541 C -0.17253 0.09352 0.98093
 C1542 C -0.08047 0.02943 0.99043
 H1543 H -0.10933 0.05647 0.95399
 H1544 H -0.12256 0.05109 1.01796
 H1545 H -0.08998 0.02871 1.02222
 H1546 H -0.07644 0.03396 0.95800
 C1547 C 0.39417 0.54702 0.46934
 C1548 C 0.38144 0.55290 0.48620
 C1549 C 0.38764 0.54587 0.50553
 C1550 C 0.40635 0.53312 0.50804
 C1551 C 0.31193 0.60342 0.47933
 C1552 C 0.41295 0.53420 0.47180
 C1553 C 0.36218 0.56635 0.48392
 C1554 C 0.34615 0.57775 0.48242
 C1555 C 0.32752 0.59141 0.48082
 C1556 C 0.41931 0.52709 0.49123
 H1557 H 0.38962 0.55239 0.45428
 H1558 H 0.37802 0.55030 0.51872
 H1559 H 0.41063 0.52800 0.52323
 H1560 H 0.42251 0.52996 0.45853
 C1561 C 0.10330 0.55478 0.52804
 C1562 C 0.11441 0.56198 0.51073
 C1563 C 0.10600 0.55704 0.49149
 C1564 C 0.08686 0.54486 0.48948
 C1565 C 0.18696 0.60839 0.51486
 C1566 C 0.08406 0.54254 0.52607
 C1567 C 0.13442 0.57439 0.51244
 C1568 C 0.15114 0.58485 0.51330
 C1569 C 0.17061 0.59736 0.51406
 C1570 C 0.07563 0.53730 0.50672
 H1571 H 0.10957 0.55851 0.54306
 H1572 H 0.11432 0.56251 0.47796
 H1573 H 0.08098 0.54124 0.47431
 H1574 H 0.07591 0.53702 0.53967
 C1575 C 0.60503 0.05148 0.02867
 C1576 C 0.61547 0.05971 0.01141
 C1577 C 0.60661 0.05547 -0.00780
 C1578 C 0.58766 0.04300 -0.00983
 C1579 C 0.68706 0.10755 0.01586
 C1580 C 0.58598 0.03894 0.02668
 C1581 C 0.63526 0.07247 0.01315
 C1582 C 0.65175 0.08327 0.01408
 C1583 C 0.67095 0.09619 0.01495
 C1584 C 0.57709 0.03444 0.00736
 H1585 H 0.61166 0.05466 0.04366
 H1586 H 0.61442 0.06173 -0.02129
 H1587 H 0.58140 0.03996 -0.02497
 H1588 H 0.57834 0.03266 0.04024
 C1589 C 0.60573 0.94793 0.47138
 C1590 C 0.61703 0.94089 0.48867
 C1591 C 0.60895 0.94620 0.50794
 C1592 C 0.58989 0.95852 0.51000
 C1593 C 0.68884 0.89323 0.48441
 C1594 C 0.58656 0.96032 0.47340
 C1595 C 0.63688 0.92819 0.48690
 C1596 C 0.65343 0.91745 0.48600
 C1597 C 0.67269 0.90458 0.48521
 C1598 C 0.57841 0.96585 0.49278
 H1599 H 0.61174 0.94390 0.45635
 H1600 H 0.61745 0.94086 0.52145
 H1601 H 0.58423 0.96239 0.52518
 H1602 H 0.57820 0.96564 0.45982
 C1603 C 0.10782 0.44725 1.00875
 C1604 C 0.11644 0.44262 0.98953
 C1605 C 0.10582 0.45059 0.97222
 C1606 C 0.08679 0.46320 0.97416
 C1607 C 0.18740 0.39373 0.98517
 C1608 C 0.08888 0.45979 1.01073
 C1609 C 0.13611 0.42965 0.98783
 C1610 C 0.15248 0.41863 0.98692
 C1611 C 0.17148 0.40540 0.98608
 C1612 C 0.07809 0.46803 0.99349
 H1613 H 0.11578 0.44120 1.02227
 H1614 H 0.11226 0.44710 0.95723
 H1615 H 0.07897 0.46922 0.96057
 H1616 H 0.08278 0.46311 1.02587
 C1617 C 0.02596 0.37794 0.42494
 C1618 C 0.00826 0.37383 0.41205
 C1619 C -0.01130 0.38506 0.41474
 C1620 C -0.01304 0.40090 0.42989
 C1621 C 0.01422 0.31579 0.35373
 C1622 C 0.02424 0.39382 0.44023
 C1623 C 0.01008 0.35841 0.39574
 C1624 C 0.01123 0.34547 0.38202
 C1625 C 0.01258 0.32989 0.36637
 C1626 C 0.00482 0.40573 0.44257
 H1627 H 0.04115 0.36918 0.42294
 H1628 H -0.02509 0.38184 0.40488
 H1629 H -0.02830 0.40966 0.43141
 H1630 H 0.03826 0.39728 0.44971
 C1631 C 0.49282 -0.10913 -0.09336
 C1632 C 0.51260 -0.11977 -0.09669
 C1633 C 0.52980 -0.11718 -0.08293
 C1634 C 0.52734 -0.10349 -0.06599
 C1635 C 0.51577 -0.17848 -0.15423
 C1636 C 0.49030 -0.09553 -0.07653
 C1637 C 0.51459 -0.13419 -0.11376
 C1638 C 0.51537 -0.14698 -0.12762
 C1639 C 0.51565 -0.16320 -0.14273
 C1640 C 0.50760 -0.09235 -0.06276
 H1641 H 0.47934 -0.11132 -0.10382
 H1642 H 0.54510 -0.12563 -0.08534
 H1643 H 0.54097 -0.10123 -0.05575
 H1644 H 0.47485 -0.08725 -0.07450
 C1645 C 0.01070 -0.12603 1.07551
 C1646 C -0.00665 -0.14061 1.07397
 C1647 C -0.02302 -0.13742 1.05948
 C1648 C -0.02230 -0.11925 1.04685
 C1649 C -0.01722 -0.20019 1.12922
 C1650 C 0.01144 -0.10788 1.06299
 C1651 C -0.00849 -0.15775 1.08841
 C1652 C -0.01045 -0.17150 1.10111
 C1653 C -0.01355 -0.18705 1.11629
 C1654 C -0.00526 -0.10408 1.04878
 H1655 H 0.02337 -0.12838 1.08676
 H1656 H -0.03659 -0.14865 1.05833
 H1657 H -0.03536 -0.11675 1.03605
 H1658 H 0.02491 -0.09664 1.06473
 C1659 C 0.47887 0.36613 0.56862
 C1660 C 0.49580 0.36389 0.58271
 C1661 C 0.51350 0.37812 0.58242
 C1662 C 0.51404 0.39499 0.56845
 C1663 C 0.48724 0.30627 0.64007
 C1664 C 0.47938 0.38304 0.55454
 C1665 C 0.49448 0.34786 0.59827
 C1666 C 0.49301 0.33477 0.61162
 C1667 C 0.49047 0.31956 0.62718
 C1668 C 0.49680 0.39788 0.55459
 H1669 H 0.46508 0.35514 0.56884
 H1670 H 0.52664 0.37646 0.59330
 H1671 H 0.52781 0.40602 0.56878
 H1672 H 0.46590 0.38487 0.54408
 C1673 C 0.48824 1.11508 0.58649
 C1674 C 0.50772 1.12617 0.58992
 C1675 C 0.52568 1.12250 0.57726
 C1676 C 0.52432 1.10715 0.56148
 C1677 C 0.51338 1.18294 0.64931
 C1678 C 0.48685 1.09978 0.57084
 C1679 C 0.50920 1.14105 0.60670
 C1680 C 0.51020 1.15363 0.62072
 C1681 C 0.51157 1.16893 0.63660
 C1682 C 0.50499 1.09535 0.55840
 H1683 H 0.47424 1.11798 0.59615
 H1684 H 0.54081 1.13118 0.57983
 H1685 H 0.53855 1.10398 0.55221
 H1686 H 0.47166 1.09107 0.56876
 C1687 C -0.00936 0.61033 1.09405
 C1688 C 0.01001 0.62169 1.09725
 C1689 C 0.02722 0.61962 1.08344
 C1690 C 0.02518 0.60575 1.06658
 C1691 C 0.01403 0.68052 1.15472
 C1692 C -0.01146 0.59654 1.07728
 C1693 C 0.01169 0.63619 1.11429
 C1694 C 0.01252 0.64903 1.12812
 C1695 C 0.01324 0.66527 1.14321
 C1696 C 0.00586 0.59390 1.06347
 H1697 H -0.02284 0.61209 1.10456
 H1698 H 0.04220 0.62861 1.08577
 H1699 H 0.03882 0.60394 1.05630
 H1700 H -0.02659 0.58770 1.07535
 C1701 C 0.47788 0.63741 -0.06087
 C1702 C 0.49317 0.63954 -0.07645
 C1703 C 0.50925 0.62372 -0.07931
 C1704 C 0.50987 0.60552 -0.06683
 C1705 C 0.48230 0.70182 -0.12904
 C1706 C 0.47846 0.61920 -0.04830
 C1707 C 0.49152 0.65716 -0.09042
 C1708 C 0.48957 0.67150 -0.10255
 C1709 C 0.48627 0.68790 -0.11690
 C1710 C 0.49431 0.60293 -0.05133
 H1711 H 0.46528 0.64961 -0.05869
 H1712 H 0.52106 0.62523 -0.09143
 H1713 H 0.52238 0.59338 -0.06953
 H1714 H 0.46630 0.61768 -0.03650
 C1715 C -0.01910 1.13106 0.42890
 C1716 C -0.00338 1.13196 0.41356
 C1717 C 0.01314 1.11637 0.41254
 C1718 C 0.01379 1.09959 0.42663
 C1719 C -0.01287 1.19215 0.35868
 C1720 C -0.01850 1.11426 0.44308
 C1721 C -0.00472 1.14835 0.39832
 C1722 C -0.00634 1.16196 0.38545
 C1723 C -0.00923 1.17802 0.37069
 C1724 C -0.00217 1.09820 0.44192
 H1725 H -0.03198 1.14313 0.42971
 H1726 H 0.02533 1.11698 0.40067
 H1727 H 0.02665 1.08756 0.42532
 H1728 H -0.03100 1.11362 0.45464
 C1729 C 0.75644 0.73749 0.86888
 C1730 C 0.77359 0.72437 0.87588
 C1731 C 0.79002 0.71788 0.86248
 C1732 C 0.78909 0.72382 0.84212
 C1733 C 0.77715 0.68948 0.94858
 C1734 C 0.75553 0.74360 0.84838
 C1735 C 0.77405 0.71628 0.89637
 C1736 C 0.77502 0.70845 0.91310
 C1737 C 0.77635 0.69842 0.93233
 C1738 C 0.77166 0.73642 0.83470
 H1739 H 0.74358 0.74257 0.87912
 H1740 H 0.80336 0.70776 0.86768
 H1741 H 0.80193 0.71817 0.83209
 H1742 H 0.74189 0.75325 0.84311
 C1743 C 0.26236 0.24044 0.36821
 C1744 C 0.27949 0.22730 0.37519
 C1745 C 0.29606 0.22102 0.36185
 C1746 C 0.29519 0.22708 0.34151
 C1747 C 0.28114 0.19082 0.44727
 C1748 C 0.26152 0.24668 0.34775
 C1749 C 0.27961 0.21879 0.39554
 C1750 C 0.28014 0.21059 0.41214
 C1751 C 0.28085 0.20013 0.43119
 C1752 C 0.27770 0.23959 0.33408
 H1753 H 0.24939 0.24534 0.37842
 H1754 H 0.30938 0.21087 0.36703
 H1755 H 0.30803 0.22150 0.33145
 H1756 H 0.24781 0.25622 0.34248
 C1757 C 0.73370 0.25567 0.36525
 C1758 C 0.71689 0.26946 0.37197
 C1759 C 0.70063 0.27586 0.35839
 C1760 C 0.70162 0.26937 0.33804
 C1761 C 0.71742 0.30809 0.44375
 C1762 C 0.73467 0.24903 0.34481
 C1763 C 0.71705 0.27864 0.39222
 C1764 C 0.71704 0.28734 0.40875
 C1765 C 0.71709 0.29835 0.42773
 C1766 C 0.71893 0.25633 0.33087
 H1767 H 0.74643 0.25067 0.37561
 H1768 H 0.68756 0.28652 0.36338
 H1769 H 0.68916 0.27519 0.32776
 H1770 H 0.74826 0.23912 0.33974
 C1771 C 0.19891 0.77754 0.85667
 C1772 C 0.21511 0.77080 0.87017
 C1773 C 0.23158 0.75666 0.86336
 C1774 C 0.23231 0.75003 0.84293
 C1775 C 0.21704 0.80893 0.94216
 C1776 C 0.19965 0.77104 0.83630
 C1777 C 0.21562 0.77992 0.89043
 C1778 C 0.21598 0.78853 0.90700
 C1779 C 0.21645 0.79936 0.92606
 C1780 C 0.21666 0.75766 0.82905
 H1781 H 0.18609 0.78847 0.86173
 H1782 H 0.24427 0.75139 0.87366
 H1783 H 0.24570 0.73986 0.83781
 H1784 H 0.18728 0.77715 0.82607
 C1785 C 0.29215 0.78204 0.13700
 C1786 C 0.27594 0.77523 0.12348
 C1787 C 0.25903 0.76182 0.13037
 C1788 C 0.25808 0.75577 0.15088
 C1789 C 0.27894 0.80988 0.05061
 C1790 C 0.29119 0.77614 0.15738
 C1791 C 0.27634 0.78328 0.10296
 C1792 C 0.27717 0.79107 0.08619
 C1793 C 0.27829 0.80101 0.06691
 C1794 C 0.27395 0.76327 0.16469
 H1795 H 0.30531 0.79239 0.13189
 H1796 H 0.24634 0.75649 0.12002
 H1797 H 0.24459 0.74591 0.15604
 H1798 H 0.30380 0.78206 0.16752
 C1799 C 0.76377 0.25842 0.63131
 C1800 C 0.78087 0.27151 0.62433
 C1801 C 0.79760 0.27754 0.63763
 C1802 C 0.79686 0.27135 0.65795
 C1803 C 0.78126 0.30873 0.55254
 C1804 C 0.76305 0.25206 0.65173
 C1805 C 0.78074 0.28027 0.60406
 C1806 C 0.78096 0.28864 0.58754
 C1807 C 0.78128 0.29928 0.56856
 C1808 C 0.77933 0.25896 0.66539
 H1809 H 0.75067 0.25370 0.62115
 H1810 H 0.81091 0.28765 0.63244
 H1811 H 0.80976 0.27681 0.66800
 H1812 H 0.74930 0.24264 0.65702
 C1813 C 0.23324 0.24221 0.63485
 C1814 C 0.21700 0.22785 0.62801
 C1815 C 0.20113 0.22058 0.64154
 C1816 C 0.20192 0.22686 0.66194
 C1817 C 0.21798 0.19070 0.55561
 C1818 C 0.23401 0.24864 0.65535
 C1819 C 0.21732 0.21909 0.60761
 C1820 C 0.21742 0.21073 0.59094
 C1821 C 0.21758 0.20011 0.57179
 C1822 C 0.21865 0.24056 0.66922
 H1823 H 0.24567 0.24789 0.62451
 H1824 H 0.18850 0.20946 0.63645
 H1825 H 0.18974 0.22044 0.67216
 H1826 H 0.24714 0.25910 0.66049
 C1827 C 0.69904 0.72035 0.14396
 C1828 C 0.71478 0.72757 0.13028
 C1829 C 0.73113 0.74190 0.13696
 C1830 C 0.73217 0.74828 0.15745
 C1831 C 0.71562 0.69026 0.05797
 C1832 C 0.70010 0.72659 0.16438
 C1833 C 0.71498 0.71875 0.10991
 C1834 C 0.71505 0.71034 0.09327
 C1835 C 0.71523 0.69970 0.07413
 C1836 C 0.71698 0.74019 0.17149
 H1837 H 0.68633 0.70927 0.13900
 H1838 H 0.74346 0.74753 0.12651
 H1839 H 0.74543 0.75865 0.16247
 H1840 H 0.68806 0.72016 0.17473
 C1841 C 0.19581 0.64648 0.21812
 C1842 C 0.19040 0.63413 0.23525
 C1843 C 0.19758 0.64103 0.25441
 C1844 C 0.21010 0.65996 0.25652
 C1845 C 0.14211 0.56272 0.23103
 C1846 C 0.20840 0.66552 0.22019
 C1847 C 0.17746 0.61443 0.23346
 C1848 C 0.16657 0.59797 0.23255
 C1849 C 0.15356 0.57880 0.23180
 C1850 C 0.21578 0.67249 0.23945
 H1851 H 0.19032 0.64138 0.20318
 H1852 H 0.19352 0.63173 0.26781
 H1853 H 0.21541 0.66469 0.27162
 H1854 H 0.21241 0.67471 0.20673
 C1855 C 0.69869 0.14472 0.71923
 C1856 C 0.69241 0.13291 0.73642
 C1857 C 0.69901 0.14017 0.75567
 C1858 C 0.71178 0.15894 0.75778
 C1859 C 0.64272 0.06250 0.73159
 C1860 C 0.71154 0.16358 0.72130
 C1861 C 0.67913 0.11345 0.73459
 C1862 C 0.66791 0.09722 0.73356
 C1863 C 0.65450 0.07833 0.73258
 C1864 C 0.71829 0.17094 0.74064
 H1865 H 0.69367 0.13935 0.70422
 H1866 H 0.69428 0.13129 0.76912
 H1867 H 0.71660 0.16399 0.77293
 H1868 H 0.71617 0.17237 0.70778
 C1869 C 0.80119 0.14184 0.27813
 C1870 C 0.80874 0.13039 0.26097
 C1871 C 0.80378 0.13817 0.24161
 C1872 C 0.79135 0.15713 0.23933
 C1873 C 0.85768 0.05961 0.26642
 C1874 C 0.78868 0.16089 0.27589
 C1875 C 0.82171 0.11078 0.26299
 C1876 C 0.83274 0.09444 0.26416
 C1877 C 0.84599 0.07548 0.26530
 C1878 C 0.78356 0.16877 0.25642
 H1879 H 0.80495 0.13604 0.29323
 H1880 H 0.80952 0.12956 0.22820
 H1881 H 0.78779 0.16260 0.22408
 H1882 H 0.78302 0.16939 0.28938
 C1883 C 0.30022 0.64423 0.77682
 C1884 C 0.30877 0.63338 0.75975
 C1885 C 0.30494 0.64182 0.74040
 C1886 C 0.29259 0.66082 0.73806
 C1887 C 0.35723 0.56236 0.76579
 C1888 C 0.28780 0.66331 0.77452
 C1889 C 0.32156 0.61367 0.76184
 C1890 C 0.33247 0.59727 0.76312
 C1891 C 0.34560 0.57825 0.76444
 C1892 C 0.28376 0.67183 0.75506
 H1893 H 0.30310 0.63791 0.79190
 H1894 H 0.31147 0.63367 0.72706
 H1895 H 0.28988 0.66679 0.72283
 H1896 H 0.28129 0.67131 0.78794
 C1897 C 0.29944 0.36148 0.75807
 C1898 C 0.30569 0.36815 0.73867
 C1899 C 0.29913 0.35586 0.72166
 C1900 C 0.28641 0.33704 0.72407
 C1901 C 0.35576 0.43786 0.73215
 C1902 C 0.28679 0.34273 0.76052
 C1903 C 0.31901 0.38746 0.73645
 C1904 C 0.33031 0.40354 0.73502
 C1905 C 0.34386 0.42221 0.73355
 C1906 C 0.28008 0.33021 0.74356
 H1907 H 0.30440 0.37076 0.77137
 H1908 H 0.30389 0.36080 0.70654
 H1909 H 0.28161 0.32782 0.71069
 H1910 H 0.28227 0.33808 0.77577
 C1911 C 0.80232 0.85853 0.25939
 C1912 C 0.80718 0.86594 0.23989
 C1913 C 0.79950 0.85425 0.22293
 C1914 C 0.78699 0.83532 0.22548
 C1915 C 0.85648 0.93605 0.23246
 C1916 C 0.78987 0.83966 0.26199
 C1917 C 0.82023 0.88539 0.23748
 C1918 C 0.83135 0.90158 0.23587
 C1919 C 0.84470 0.92035 0.23412
 C1920 C 0.78199 0.82777 0.24509
 H1921 H 0.80816 0.86734 0.27265
 H1922 H 0.80319 0.85976 0.20773
 H1923 H 0.78126 0.82660 0.21213
 H1924 H 0.78639 0.83445 0.27732
 C1925 C 0.69402 0.85372 0.78112
 C1926 C 0.68887 0.86629 0.76405
 C1927 C 0.69633 0.85959 0.74492
 C1928 C 0.70891 0.84067 0.74281
 C1929 C 0.64086 0.93800 0.76856
 C1930 C 0.70667 0.83468 0.77905
 C1931 C 0.67595 0.88604 0.76587
 C1932 C 0.66512 0.90256 0.76683
 C1933 C 0.65220 0.92182 0.76769
 C1934 C 0.71436 0.82794 0.75984
 H1935 H 0.68832 0.85865 0.79603
 H1936 H 0.69247 0.86907 0.73157
 H1937 H 0.71446 0.83610 0.72775
 H1938 H 0.71050 0.82534 0.79248
 C1939 C 0.19857 0.35536 0.28036
 C1940 C 0.19309 0.36777 0.26328
 C1941 C 0.20043 0.36105 0.24411
 C1942 C 0.21314 0.34221 0.24197
 C1943 C 0.14358 0.43842 0.26823
 C1944 C 0.21136 0.33643 0.27826
 C1945 C 0.17985 0.38729 0.26515
 C1946 C 0.16867 0.40358 0.26621
 C1947 C 0.15532 0.42253 0.26723
 C1948 C 0.21885 0.32960 0.25900
 H1949 H 0.19297 0.36030 0.29530
 H1950 H 0.19632 0.37041 0.23075
 H1951 H 0.21855 0.33759 0.22688
 H1952 H 0.21536 0.32716 0.29169
 C1953 C 0.12206 0.27182 0.82533
 C1954 C 0.12075 0.25533 0.83985
 C1955 C 0.13525 0.23781 0.83931
 C1956 C 0.15139 0.23694 0.82452
 C1957 C 0.06128 0.26346 0.89597
 C1958 C 0.13824 0.27100 0.81044
 C1959 C 0.10488 0.25660 0.85566
 C1960 C 0.09155 0.25795 0.86890
 C1961 C 0.07558 0.26034 0.88392
 C1962 C 0.15324 0.25367 0.81007
 H1963 H 0.11080 0.28545 0.82570
 H1964 H 0.13428 0.22497 0.85049
 H1965 H 0.16260 0.22328 0.82463
 H1966 H 0.13928 0.28412 0.79957
 C1967 C 0.64315 0.73833 0.34730
 C1968 C 0.62868 0.75585 0.34825
 C1969 C 0.62885 0.77181 0.33316
 C1970 C 0.64376 0.77037 0.31720
 C1971 C 0.56753 0.76167 0.40282
 C1972 C 0.65801 0.73683 0.33142
 C1973 C 0.61324 0.75708 0.36442
 C1974 C 0.59975 0.75808 0.37755
 C1975 C 0.58299 0.75963 0.39188
 C1976 C 0.65859 0.75291 0.31625
 H1977 H 0.64299 0.72584 0.35885
 H1978 H 0.61752 0.78537 0.33379
 H1979 H 0.64386 0.78303 0.30583
 H1980 H 0.66919 0.72314 0.33119
 C1981 C 0.64259 0.25813 0.15612
 C1982 C 0.62941 0.23972 0.15424
 C1983 C 0.63053 0.22311 0.16866
 C1984 C 0.64520 0.22475 0.18483
 C1985 C 0.56963 0.23390 0.09823
 C1986 C 0.65720 0.25983 0.17219
 C1987 C 0.61433 0.23826 0.13775
 C1988 C 0.60118 0.23721 0.12432
 C1989 C 0.58480 0.23576 0.10956
 C1990 C 0.65883 0.24306 0.18663
 H1991 H 0.64164 0.27114 0.14510
 H1992 H 0.62018 0.20886 0.16733
 H1993 H 0.64616 0.21155 0.19563
 H1994 H 0.66741 0.27420 0.17312
 C1995 C 0.14573 0.75675 0.65075
 C1996 C 0.13273 0.73821 0.64892
 C1997 C 0.13335 0.72207 0.66382
 C1998 C 0.14720 0.72441 0.68054
 C1999 C 0.07021 0.73449 0.59579
 C2000 C 0.15951 0.75916 0.66739
 C2001 C 0.11757 0.73663 0.63251
 C2002 C 0.10392 0.73586 0.61951
 C2003 C 0.08651 0.73521 0.60578
 C2004 C 0.16047 0.74299 0.68245
 H2005 H 0.14511 0.76943 0.63939
 H2006 H 0.12305 0.70778 0.66258
 H2007 H 0.14768 0.71163 0.69179
 H2008 H 0.16953 0.77367 0.66832
 C2009 C 0.88593 0.77612 0.69686
 C2010 C 0.89057 0.75988 0.68243
 C2011 C 0.87654 0.74220 0.67978
 C2012 C 0.85754 0.74096 0.69118
 C2013 C 0.95257 0.77042 0.62936
 C2014 C 0.86690 0.77490 0.70838
 C2015 C 0.90867 0.76215 0.66903
 C2016 C 0.92310 0.76422 0.65698
 C2017 C 0.93921 0.76717 0.64224
 C2018 C 0.85234 0.75748 0.70537
 H2019 H 0.89671 0.78995 0.69884
 H2020 H 0.88000 0.72964 0.66854
 H2021 H 0.84679 0.72721 0.68863
 H2022 H 0.86333 0.78782 0.71921
 C2023 C 0.38454 0.27433 0.18742
 C2024 C 0.38814 0.25740 0.17341
 C2025 C 0.37439 0.23931 0.17287
 C2026 C 0.35666 0.23834 0.18593
 C2027 C 0.44746 0.26550 0.11725
 C2028 C 0.36678 0.27339 0.20060
 C2029 C 0.40500 0.25911 0.15860
 C2030 C 0.41861 0.26062 0.14567
 C2031 C 0.43416 0.26286 0.13029
 C2032 C 0.35244 0.25554 0.19970
 H2033 H 0.39514 0.28844 0.18782
 H2034 H 0.37709 0.22617 0.16202
 H2035 H 0.34606 0.22426 0.18498
 H2036 H 0.36392 0.28685 0.21104
 C2037 C 0.38267 0.72498 0.30973
 C2038 C 0.38704 0.74214 0.32330
 C2039 C 0.37395 0.76076 0.32350
 C2040 C 0.35604 0.76200 0.31062
 C2041 C 0.44542 0.73282 0.38028
 C2042 C 0.36473 0.72620 0.29672
 C2043 C 0.40383 0.74010 0.33818
 C2044 C 0.41727 0.73831 0.35128
 C2045 C 0.43249 0.73576 0.36693
 C2046 C 0.35098 0.74455 0.29739
 H2047 H 0.39274 0.71045 0.30961
 H2048 H 0.37723 0.77408 0.33400
 H2049 H 0.34591 0.77648 0.31134
 H2050 H 0.36121 0.71255 0.28670
 C2051 C 0.86997 0.26126 0.83114
 C2052 C 0.88174 0.24196 0.83348
 C2053 C 0.87798 0.22412 0.82052
 C2054 C 0.86187 0.22538 0.80557
 C2055 C 0.93767 0.23597 0.89303
 C2056 C 0.85390 0.26255 0.81631
 C2057 C 0.89699 0.24036 0.84980
 C2058 C 0.90955 0.23925 0.86369
 C2059 C 0.92440 0.23778 0.87978
 C2060 C 0.84938 0.24448 0.80364
 H2061 H 0.87287 0.27515 0.84108
 H2062 H 0.88711 0.20911 0.82229
 H2063 H 0.85867 0.21122 0.79607
 H2064 H 0.84469 0.27758 0.81508
 C2065 C 0.53770 1.00227 0.61885
 C2066 C 0.53472 1.02120 0.63054
 C2067 C 0.52198 1.03830 0.62285
 C2068 C 0.51304 1.03676 0.60322
 C2069 C 0.58352 1.02569 0.69637
 C2070 C 0.52898 1.00077 0.59931
 C2071 C 0.54642 1.02341 0.64952
 C2072 C 0.55734 1.02452 0.66479
 C2073 C 0.57114 1.02527 0.68207
 C2074 C 0.51701 1.01818 0.59105
 H2075 H 0.54750 0.98894 0.62456
 H2076 H 0.51963 1.05311 0.63169
 H2077 H 0.50411 1.05051 0.59717
 H2078 H 0.53227 0.98622 0.59035
 C2079 C 0.03451 0.50140 1.11944
 C2080 C 0.03198 0.52041 1.13112
 C2081 C 0.01960 0.53778 1.12345
 C2082 C 0.01067 0.53646 1.10382
 C2083 C 0.08186 0.52498 1.19619
 C2084 C 0.02580 0.50013 1.09987
 C2085 C 0.04393 0.52250 1.14996
 C2086 C 0.05510 0.52361 1.16507
 C2087 C 0.06920 0.52443 1.18212
 C2088 C 0.01430 0.51784 1.09162
 H2089 H 0.04405 0.48787 1.12512
 H2090 H 0.01762 0.55265 1.13228
 H2091 H 0.00213 0.55045 1.09776
 H2092 H 0.02884 0.48557 1.09085
 C2093 C -0.04390 -0.00982 1.11650
 C2094 C -0.03931 -0.02790 1.12856
 C2095 C -0.02563 -0.04447 1.12102
 C2096 C -0.01717 -0.04319 1.10122
 C2097 C -0.08572 -0.03003 1.19567
 C2098 C -0.03567 -0.00859 1.09683
 C2099 C -0.05015 -0.02972 1.14793
 C2100 C -0.06048 -0.03031 1.16353
 C2101 C -0.07371 -0.03030 1.18114
 C2102 C -0.02260 -0.02544 1.08876
 H2103 H -0.05444 0.00309 1.12210
 H2104 H -0.02202 -0.05862 1.13018
 H2105 H -0.00727 -0.05646 1.09537
 H2106 H -0.04002 0.00539 1.08770
 C2107 C 0.47636 0.45790 0.62260
 C2108 C 0.46296 0.47476 0.63003
 C2109 C 0.45893 0.49296 0.61795
 C2110 C 0.46732 0.49397 0.59831
 C2111 C 0.41522 0.47262 0.69635
 C2112 C 0.48498 0.45896 0.60286
 C2113 C 0.45173 0.47304 0.64921
 C2114 C 0.44109 0.47244 0.66463
 C2115 C 0.42751 0.47240 0.68201
 C2116 C 0.48001 0.47678 0.59034
 H2117 H 0.47952 0.44365 0.63178
 H2118 H 0.44861 0.50610 0.62345
 H2119 H 0.46330 0.50797 0.58909
 H2120 H 0.49453 0.44541 0.59705
 C2121 C 0.45676 0.50773 -0.11736
 C2122 C 0.46173 0.52548 -0.12968
 C2123 C 0.47554 0.54198 -0.12228
 C2124 C 0.48376 0.54098 -0.10237
 C2125 C 0.41585 0.52757 -0.19717
 C2126 C 0.46475 0.50678 -0.09756
 C2127 C 0.45111 0.52712 -0.14919
 C2128 C 0.44093 0.52767 -0.16489
 C2129 C 0.42782 0.52771 -0.18259
 C2130 C 0.47797 0.52359 -0.08965
 H2131 H 0.44610 0.49489 -0.12285
 H2132 H 0.47944 0.55588 -0.13165
 H2133 H 0.49378 0.55421 -0.09665
 H2134 H 0.46012 0.49307 -0.08824
 C2135 C -0.03928 1.00321 0.38059
 C2136 C -0.03496 1.02125 0.36840
 C2137 C -0.02131 1.03792 0.37573
 C2138 C -0.01273 1.03686 0.39550
 C2139 C -0.08291 1.02445 0.30219
 C2140 C -0.03092 1.00221 0.40026
 C2141 C -0.04621 1.02311 0.34922
 C2142 C -0.05690 1.02393 0.33382
 C2143 C -0.07054 1.02433 0.31648
 C2144 C -0.01800 1.01924 0.40814
 H2145 H -0.04981 0.99024 0.37515
 H2146 H -0.01793 1.05203 0.36648
 H2147 H -0.00299 1.05029 0.40124
 H2148 H -0.03518 0.98837 0.40957
 C2149 C 0.02142 0.46240 0.37711
 C2150 C 0.03390 0.47959 0.36933
 C2151 C 0.03642 0.49873 0.38081
 C2152 C 0.02752 0.50035 0.40026
 C2153 C 0.08324 0.47513 0.30397
 C2154 C 0.01229 0.46407 0.39663
 C2155 C 0.04577 0.47733 0.35048
 C2156 C 0.05683 0.47621 0.33532
 C2157 C 0.07076 0.47550 0.31816
 C2158 C 0.01582 0.48287 0.40862
 H2159 H 0.01942 0.44744 0.36841
 H2160 H 0.04602 0.51213 0.37504
 H2161 H 0.03046 0.51507 0.40908
 H2162 H 0.00357 0.45026 0.40276
 C2163 C 0.51990 -0.03641 -0.12293
 C2164 C 0.53220 -0.01903 -0.13057
 C2165 C 0.53472 -0.00006 -0.11885
 C2166 C 0.52605 0.00119 -0.09928
 C2167 C 0.58142 -0.02356 -0.19602
 C2168 C 0.51100 -0.03513 -0.10330
 C2169 C 0.54401 -0.02105 -0.14947
 C2170 C 0.55503 -0.02213 -0.16466
 C2171 C 0.56893 -0.02296 -0.18183
 C2172 C 0.51459 -0.01653 -0.09106
 H2173 H 0.51791 -0.05126 -0.13179
 H2174 H 0.54421 0.01349 -0.12451
 H2175 H 0.52906 0.01574 -0.09025
 H2176 H 0.50249 -0.04912 -0.09727
 C2177 C 0.59854 0.60037 -0.02892
 C2178 C 0.61481 0.59650 -0.01437
 C2179 C 0.61278 0.57883 -0.00125
 C2180 C 0.59425 0.56575 -0.00188
 C2181 C 0.68158 0.64626 0.00472
 C2182 C 0.57991 0.58707 -0.02970
 C2183 C 0.63290 0.61122 -0.01146
 C2184 C 0.64817 0.62289 -0.00741
 C2185 C 0.66614 0.63582 -0.00128
 C2186 C 0.57736 0.57002 -0.01574
 H2187 H 0.59990 0.61405 -0.03914
 H2188 H 0.62521 0.57561 0.01005
 H2189 H 0.59279 0.55266 0.00899
 H2190 H 0.56706 0.59082 -0.04039
 C2191 C 0.11492 1.07754 0.49758
 C2192 C 0.11745 1.09441 0.48364
 C2193 C 0.10173 1.09740 0.46840
 C2194 C 0.08312 1.08405 0.46770
 C2195 C 0.18362 1.14528 0.50210
 C2196 C 0.09640 1.06443 0.49702
 C2197 C 0.13545 1.10929 0.48636
 C2198 C 0.15059 1.12120 0.49026
 C2199 C 0.16837 1.13449 0.49623
 C2200 C 0.08004 1.06785 0.48242
 H2201 H 0.12691 1.07502 0.50941
 H2202 H 0.10348 1.11045 0.45753
 H2203 H 0.07067 1.08716 0.45643
 H2204 H 0.09453 1.05201 0.50850
 C2205 C 0.09882 -0.10079 1.02789
 C2206 C 0.11517 -0.09678 1.01351
 C2207 C 0.11321 -0.07893 1.00057
 C2208 C 0.09469 -0.06578 1.00123
 C2209 C 0.18205 -0.14668 0.99459
 C2210 C 0.08019 -0.08743 1.02870
 C2211 C 0.13330 -0.11152 1.01059
 C2212 C 0.14859 -0.12321 1.00657
 C2213 C 0.16660 -0.13618 1.00051
 C2214 C 0.07772 -0.07017 1.01493
 H2215 H 0.10012 -0.11460 1.03797
 H2216 H 0.12570 -0.07561 0.98941
 H2217 H 0.09330 -0.05254 0.99051
 H2218 H 0.06728 -0.09128 1.03927
 C2219 C 0.60078 0.40009 0.52969
 C2220 C 0.61657 0.40341 0.51462
 C2221 C 0.61394 0.42048 0.50089
 C2222 C 0.59530 0.43348 0.50150
 C2223 C 0.68358 0.35335 0.49629
 C2224 C 0.58204 0.41331 0.53044
 C2225 C 0.63479 0.38874 0.51188
 C2226 C 0.65012 0.37703 0.50801
 C2227 C 0.66814 0.36396 0.50210
 C2228 C 0.57888 0.42974 0.51593
 H2229 H 0.60259 0.38689 0.54040
 H2230 H 0.62599 0.42328 0.48918
 H2231 H 0.59339 0.44607 0.49019
 H2232 H 0.56956 0.40995 0.54159
 C2233 C -0.11367 0.42099 0.49978
 C2234 C -0.11670 0.40517 0.48463
 C2235 C -0.10160 0.40345 0.46868
 C2236 C -0.08318 0.41710 0.46835
 C2237 C -0.18347 0.35430 0.50042
 C2238 C -0.09537 0.43441 0.49955
 C2239 C -0.13480 0.39027 0.48657
 C2240 C -0.15007 0.37837 0.48983
 C2241 C -0.16806 0.36509 0.49509
 C2242 C -0.07966 0.43237 0.48410
 H2243 H -0.12520 0.42257 0.51216
 H2244 H -0.10374 0.39124 0.45685
 H2245 H -0.07129 0.41506 0.45634
 H2246 H -0.09326 0.44611 0.51183
 C2247 C 0.39842 -0.09758 -0.03181
 C2248 C 0.38457 -0.09771 -0.01484
 C2249 C 0.38923 -0.08417 0.00178
 C2250 C 0.40781 -0.07116 0.00185
 C2251 C 0.31624 -0.14708 -0.00073
 C2252 C 0.41715 -0.08434 -0.03183
 C2253 C 0.36598 -0.11209 -0.01352
 C2254 C 0.35033 -0.12363 -0.01067
 C2255 C 0.33195 -0.13656 -0.00580
 C2256 C 0.42225 -0.07131 -0.01476
 H2257 H 0.39501 -0.10800 -0.04480
 H2258 H 0.37868 -0.08401 0.01497
 H2259 H 0.41106 -0.06118 0.01518
 H2260 H 0.42798 -0.08488 -0.04479
 C2261 C 0.38751 1.07991 0.49936
 C2262 C 0.38430 1.09567 0.51453
 C2263 C 0.39928 1.09738 0.53060
 C2264 C 0.41778 1.08380 0.53104
 C2265 C 0.31737 1.14643 0.49843
 C2266 C 0.40590 1.06656 0.49969
 C2267 C 0.36616 1.11055 0.51248
 C2268 C 0.35087 1.12244 0.50913
 C2269 C 0.33285 1.13569 0.50378
 C2270 C 0.42150 1.06862 0.51526
 H2271 H 0.37608 1.07834 0.48689
 H2272 H 0.39700 1.10955 0.54245
 H2273 H 0.42960 1.08585 0.54313
 H2274 H 0.40818 1.05492 0.48738
 C2275 C -0.11161 0.58407 0.99813
 C2276 C -0.11639 0.59775 1.01462
 C2277 C -0.10255 0.59792 1.03162
 C2278 C -0.08368 0.58483 1.03179
 C2279 C -0.18508 0.64664 0.99994
 C2280 C -0.09289 0.57121 0.99821
 C2281 C -0.13510 0.61201 1.01312
 C2282 C -0.15083 0.62345 1.01013
 C2283 C -0.16929 0.63625 1.00511
 C2284 C -0.07845 0.57168 1.01484
 H2285 H -0.12216 0.58369 0.98493
 H2286 H -0.10606 0.60845 1.04451
 H2287 H -0.07283 0.58561 1.04476
 H2288 H -0.08951 0.56113 0.98498
 C2289 C 0.01473 0.59071 0.56196
 C2290 C -0.00252 0.60517 0.55853
 C2291 C -0.02106 0.59821 0.54807
 C2292 C -0.02190 0.57714 0.54005
 C2293 C 0.01235 0.68777 0.57203
 C2294 C 0.01391 0.56955 0.55399
 C2295 C -0.00005 0.62779 0.56337
 C2296 C 0.00281 0.64688 0.56642
 C2297 C 0.00732 0.66907 0.56938
 C2298 C -0.00412 0.56285 0.54236
 H2299 H 0.02921 0.59611 0.56994
 H2300 H -0.03442 0.60937 0.54530
 H2301 H -0.03611 0.57234 0.53135
 H2302 H 0.02783 0.55890 0.55597
 C2303 C 0.52021 0.08464 0.06437
 C2304 C 0.50271 0.09909 0.06235
 C2305 C 0.48317 0.09208 0.05365
 C2306 C 0.48157 0.07102 0.04573
 C2307 C 0.51748 0.18233 0.07182
 C2308 C 0.51862 0.06348 0.05651
 C2309 C 0.50580 0.12180 0.06635
 C2310 C 0.50887 0.14098 0.06847
 C2311 C 0.51313 0.16334 0.07021
 C2312 C 0.49957 0.05682 0.04638
 H2313 H 0.53545 0.09008 0.07097
 H2314 H 0.46961 0.10325 0.05198
 H2315 H 0.46661 0.06623 0.03820
 H2316 H 0.53274 0.05289 0.05718
 C2317 C 0.01131 0.09660 0.95873
 C2318 C -0.00722 0.10276 0.94791
 C2319 C -0.02314 0.08734 0.94285
 C2320 C -0.02094 0.06585 0.94938
 C2321 C -0.01997 0.18529 0.93276
 C2322 C 0.01352 0.07520 0.96532
 C2323 C -0.01055 0.12526 0.94341
 C2324 C -0.01338 0.14426 0.94019
 C2325 C -0.01683 0.16645 0.93649
 C2326 C -0.00285 0.05976 0.96115
 H2327 H 0.02369 0.10849 0.96267
 H2328 H -0.03756 0.09210 0.93449
 H2329 H -0.03384 0.05432 0.94605
 H2330 H 0.02771 0.07094 0.97423
 C2331 C 0.51091 0.59164 0.45193
 C2332 C 0.49230 0.59711 0.44091
 C2333 C 0.47594 0.58165 0.43750
 C2334 C 0.47787 0.56085 0.44581
 C2335 C 0.48251 0.67892 0.42138
 C2336 C 0.51284 0.57097 0.46030
 C2337 C 0.48939 0.61915 0.43462
 C2338 C 0.48716 0.63794 0.43018
 C2339 C 0.48467 0.66003 0.42549
 C2340 C 0.49611 0.55555 0.45772
 H2341 H 0.52362 0.60359 0.45462
 H2342 H 0.46143 0.58588 0.42903
 H2343 H 0.46471 0.54931 0.44366
 H2344 H 0.52716 0.56729 0.46926
 C2345 C 0.52065 0.91183 0.43834
 C2346 C 0.50316 0.89747 0.44067
 C2347 C 0.48382 0.90463 0.44964
 C2348 C 0.48236 0.92578 0.45738
 C2349 C 0.51601 0.81405 0.42930
 C2350 C 0.51920 0.93310 0.44600
 C2351 C 0.50591 0.87477 0.43633
 C2352 C 0.50854 0.85556 0.43378
 C2353 C 0.51220 0.83312 0.43143
 C2354 C 0.50031 0.93996 0.45624
 H2355 H 0.53574 0.90629 0.43150
 H2356 H 0.47025 0.89355 0.45154
 H2357 H 0.46752 0.93073 0.46502
 H2358 H 0.53327 0.94367 0.44499
 C2359 C 0.02225 0.41755 0.93552
 C2360 C 0.00448 0.40335 0.93658
 C2361 C -0.01525 0.41045 0.94482
 C2362 C -0.01686 0.43130 0.95320
 C2363 C 0.01596 0.31972 0.92564
 C2364 C 0.02066 0.43852 0.94383
 C2365 C 0.00728 0.38072 0.93200
 C2366 C 0.00973 0.36149 0.92947
 C2367 C 0.01288 0.33896 0.92738
 C2368 C 0.00132 0.44522 0.95344
 H2369 H 0.03764 0.41203 0.92928
 H2370 H -0.02903 0.39947 0.94575
 H2371 H -0.03202 0.43616 0.96032
 H2372 H 0.03491 0.44891 0.94387
 C2373 C 0.51356 0.40601 0.04573
 C2374 C 0.49564 0.40022 0.05751
 C2375 C 0.47925 0.41546 0.06177
 C2376 C 0.48044 0.43637 0.05361
 C2377 C 0.48666 0.31836 0.07693
 C2378 C 0.51475 0.42680 0.03751
 C2379 C 0.49334 0.37810 0.06371
 C2380 C 0.49141 0.35928 0.06811
 C2381 C 0.48900 0.33720 0.07279
 C2382 C 0.49797 0.44202 0.04099
 H2383 H 0.52627 0.39424 0.04237
 H2384 H 0.46527 0.41097 0.07083
 H2385 H 0.46726 0.44774 0.05647
 H2386 H 0.52855 0.43075 0.02800
 C2387 C -0.01984 0.91971 0.56698
 C2388 C -0.00341 0.90419 0.56399
 C2389 C 0.01426 0.90873 0.55143
 C2390 C 0.01524 0.92851 0.54130
 C2391 C -0.01112 0.82403 0.58892
 C2392 C -0.01887 0.93963 0.55691
 C2393 C -0.00547 0.88284 0.57222
 C2394 C -0.00712 0.86448 0.57812
 C2395 C -0.00914 0.84274 0.58412
 C2396 C -0.00152 0.94400 0.54364
 H2397 H -0.03366 0.91617 0.57661
 H2398 H 0.02698 0.89670 0.54899
 H2399 H 0.02891 0.93148 0.53133
 H2400 H -0.03201 0.95125 0.55896
 C2401 C 0.29332 0.27473 0.12919
 C2402 C 0.27590 0.28704 0.12150
 C2403 C 0.25715 0.28987 0.13324
 C2404 C 0.25609 0.28141 0.15280
 C2405 C 0.27730 0.33528 0.05570
 C2406 C 0.29222 0.26603 0.14886
 C2407 C 0.27748 0.29845 0.10245
 C2408 C 0.27788 0.30921 0.08715
 C2409 C 0.27768 0.32290 0.06991
 C2410 C 0.27379 0.26985 0.16105
 H2411 H 0.30799 0.27250 0.12030
 H2412 H 0.24357 0.29934 0.12753
 H2413 H 0.24162 0.28452 0.16176
 H2414 H 0.30615 0.25736 0.15490
 C2415 C 0.79442 0.77676 0.63100
 C2416 C 0.77736 0.78948 0.62317
 C2417 C 0.75857 0.79275 0.63474
 C2418 C 0.75707 0.78423 0.65424
 C2419 C 0.77934 0.83682 0.55686
 C2420 C 0.79287 0.76800 0.65062
 C2421 C 0.77928 0.80068 0.60404
 C2422 C 0.77985 0.81124 0.58863
 C2423 C 0.77973 0.82468 0.57123
 C2424 C 0.77435 0.77216 0.66262
 H2425 H 0.80911 0.77417 0.62222
 H2426 H 0.74527 0.80253 0.62891
 H2427 H 0.74250 0.78758 0.66301
 H2428 H 0.80647 0.75890 0.65674
 C2429 C 0.21671 0.73011 0.62361
 C2430 C 0.23322 0.71635 0.61619
 C2431 C 0.25160 0.71240 0.62817
 C2432 C 0.25304 0.72117 0.64777
 C2433 C 0.22661 0.66710 0.55046
 C2434 C 0.21819 0.73908 0.64326
 C2435 C 0.23075 0.70455 0.59723
 C2436 C 0.22917 0.69353 0.58198
 C2437 C 0.22770 0.67960 0.56474
 C2438 C 0.23610 0.73413 0.65576
 H2439 H 0.20233 0.73321 0.61453
 H2440 H 0.26447 0.70178 0.62267
 H2441 H 0.26706 0.71709 0.65699
 H2442 H 0.20480 0.74880 0.64908
 C2443 C 0.71572 0.22762 0.12530
 C2444 C 0.73210 0.21377 0.11775
 C2445 C 0.75043 0.20950 0.12968
 C2446 C 0.75198 0.21808 0.14934
 C2447 C 0.72572 0.16558 0.05132
 C2448 C 0.71732 0.23641 0.14503
 C2449 C 0.72958 0.20228 0.09863
 C2450 C 0.72804 0.19151 0.08322
 C2451 C 0.72669 0.17786 0.06578
 C2452 C 0.73522 0.23118 0.15745
 H2453 H 0.70138 0.23097 0.11626
 H2454 H 0.76320 0.19881 0.12408
 H2455 H 0.76600 0.21380 0.15849
 H2456 H 0.70405 0.24623 0.15094
 C2457 C 0.79119 0.22672 0.87052
 C2458 C 0.77373 0.21456 0.87821
 C2459 C 0.75483 0.21209 0.86657
 C2460 C 0.75370 0.22071 0.84706
 C2461 C 0.77609 0.16572 0.94366
 C2462 C 0.79002 0.23558 0.85091
 C2463 C 0.77545 0.20289 0.89713
 C2464 C 0.77607 0.19196 0.91233
 C2465 C 0.77618 0.17814 0.92949
 C2466 C 0.77145 0.23208 0.83879
 H2467 H 0.80597 0.22867 0.87933
 H2468 H 0.74122 0.20274 0.87227
 H2469 H 0.73915 0.21782 0.83812
 H2470 H 0.80401 0.24405 0.84484
 C2471 C 0.25676 0.70949 0.36500
 C2472 C 0.27565 0.71220 0.37659
 C2473 C 0.29291 0.72465 0.36888
 C2474 C 0.29149 0.73365 0.34934
 C2475 C 0.27756 0.66386 0.44238
 C2476 C 0.25539 0.71825 0.34557
 C2477 C 0.27748 0.70064 0.39557
 C2478 C 0.27802 0.68982 0.41084
 C2479 C 0.27792 0.67614 0.42810
 C2480 C 0.27289 0.73000 0.33729
 H2481 H 0.24330 0.69993 0.37073
 H2482 H 0.30768 0.72681 0.37767
 H2483 H 0.30527 0.74247 0.34329
 H2484 H 0.24078 0.71527 0.33674
 C2485 C 0.75119 0.78692 0.37224
 C2486 C 0.73283 0.78312 0.38422
 C2487 C 0.71624 0.76944 0.37685
 C2488 C 0.71764 0.76041 0.35721
 C2489 C 0.72707 0.83308 0.44950
 C2490 C 0.75254 0.77810 0.35266
 C2491 C 0.73046 0.79503 0.40313
 C2492 C 0.72905 0.80620 0.41829
 C2493 C 0.72787 0.82035 0.43539
 C2494 C 0.73553 0.76524 0.34470
 H2495 H 0.76411 0.79747 0.37771
 H2496 H 0.70188 0.76646 0.38594
 H2497 H 0.70420 0.75078 0.35140
 H2498 H 0.76654 0.78207 0.34342
 C2499 C 0.24681 0.29004 0.87041
 C2500 C 0.22871 0.28562 0.88253
 C2501 C 0.21224 0.27185 0.87506
 C2502 C 0.21354 0.26325 0.85524
 C2503 C 0.22425 0.33347 0.94923
 C2504 C 0.24806 0.28165 0.85068
 C2505 C 0.22657 0.29688 0.90180
 C2506 C 0.22546 0.30754 0.91730
 C2507 C 0.22470 0.32115 0.93480
 C2508 C 0.23123 0.26860 0.84267
 H2509 H 0.25964 0.30067 0.87595
 H2510 H 0.19807 0.26839 0.88426
 H2511 H 0.20024 0.25343 0.84941
 H2512 H 0.26194 0.28600 0.84141
 C2513 C 0.84864 0.35097 0.77917
 C2514 C 0.84706 0.36590 0.76315
 C2515 C 0.83181 0.36233 0.74772
 C2516 C 0.81880 0.34371 0.74778
 C2517 C 0.89670 0.43395 0.74834
 C2518 C 0.83541 0.33223 0.77933
 C2519 C 0.86154 0.38440 0.76147
 C2520 C 0.87314 0.39998 0.75845
 C2521 C 0.88612 0.41829 0.75346
 C2522 C 0.82069 0.32819 0.76333
 H2523 H 0.86041 0.35353 0.79121
 H2524 H 0.83034 0.37371 0.73529
 H2525 H 0.80752 0.34122 0.73531
 H2526 H 0.83732 0.32052 0.79142
 C2527 C 0.34927 0.84997 0.27771
 C2528 C 0.34639 0.86593 0.26276
 C2529 C 0.32949 0.86368 0.24867
 C2530 C 0.31613 0.84531 0.24889
 C2531 C 0.39686 0.93298 0.24670
 C2532 C 0.33569 0.83149 0.27806
 C2533 C 0.36121 0.88407 0.26064
 C2534 C 0.37302 0.89941 0.25730
 C2535 C 0.38617 0.91748 0.25202
 C2536 C 0.31933 0.82875 0.26328
 H2537 H 0.36232 0.85149 0.28870
 H2538 H 0.32702 0.87587 0.23706
 H2539 H 0.30358 0.84379 0.23739
 H2540 H 0.33863 0.81893 0.28921
 C2541 C 0.16988 0.86246 0.74738
 C2542 C 0.15470 0.86597 0.73195
 C2543 C 0.15340 0.85114 0.71559
 C2544 C 0.16679 0.83248 0.71514
 C2545 C 0.10423 0.93312 0.74889
 C2546 C 0.18303 0.84391 0.74705
 C2547 C 0.13991 0.88421 0.73406
 C2548 C 0.12808 0.89957 0.73758
 C2549 C 0.11490 0.91763 0.74322
 C2550 C 0.18134 0.82844 0.73120
 H2551 H 0.17113 0.87377 0.76008
 H2552 H 0.14167 0.85367 0.70353
 H2553 H 0.16505 0.82076 0.70283
 H2554 H 0.19419 0.84136 0.75957
 C2555 C 0.67257 0.36129 0.24897
 C2556 C 0.65692 0.36454 0.23387
 C2557 C 0.65517 0.34946 0.21775
 C2558 C 0.66855 0.33081 0.21724
 C2559 C 0.60601 0.43121 0.25124
 C2560 C 0.68570 0.34274 0.24857
 C2561 C 0.64206 0.38269 0.23615
 C2562 C 0.63015 0.39794 0.23977
 C2563 C 0.61683 0.41586 0.24550
 C2564 C 0.68354 0.32702 0.23299
 H2565 H 0.67415 0.37280 0.26148
 H2566 H 0.64308 0.35178 0.20598
 H2567 H 0.66643 0.31888 0.20516
 H2568 H 0.69720 0.34037 0.26085
 C2569 C 0.67318 0.63466 0.25376
 C2570 C 0.65704 0.63164 0.26840
 C2571 C 0.65476 0.64691 0.28430
 C2572 C 0.66808 0.66557 0.28500
 C2573 C 0.60624 0.56528 0.25003
 C2574 C 0.68626 0.65321 0.25434
 C2575 C 0.64218 0.61357 0.26580
 C2576 C 0.63029 0.59839 0.26193
 C2577 C 0.61701 0.58056 0.25595
 C2578 C 0.68354 0.66915 0.26965
 H2579 H 0.67516 0.62300 0.24142
 H2580 H 0.64228 0.64478 0.29572
 H2581 H 0.66553 0.67768 0.29685
 H2582 H 0.69810 0.65546 0.24236
 C2583 C 0.17247 0.13622 0.75192
 C2584 C 0.15579 0.13356 0.76608
 C2585 C 0.15297 0.14917 0.78161
 C2586 C 0.16632 0.16780 0.78240
 C2587 C 0.10505 0.06732 0.74728
 C2588 C 0.18558 0.15475 0.75256
 C2589 C 0.14093 0.11554 0.76332
 C2590 C 0.12904 0.10039 0.75935
 C2591 C 0.11579 0.08259 0.75327
 C2592 C 0.18234 0.17102 0.76747
 H2593 H 0.17487 0.12430 0.73986
 H2594 H 0.14006 0.14733 0.79266
 H2595 H 0.16335 0.18018 0.79392
 H2596 H 0.19786 0.15672 0.74092
 C2597 C 0.35017 0.14990 0.22132
 C2598 C 0.34745 0.13431 0.23662
 C2599 C 0.33096 0.13717 0.25101
 C2600 C 0.31786 0.15577 0.25071
 C2601 C 0.39703 0.06640 0.25276
 C2602 C 0.33686 0.16862 0.22090
 C2603 C 0.36201 0.11590 0.23875
 C2604 C 0.37361 0.10036 0.24211
 C2605 C 0.38653 0.08207 0.24742
 C2606 C 0.32092 0.17196 0.23595
 H2607 H 0.36291 0.14790 0.21009
 H2608 H 0.32860 0.12528 0.26289
 H2609 H 0.30563 0.15775 0.26243
 H2610 H 0.33969 0.18087 0.20945
 C2611 C 0.85057 0.65196 0.72279
 C2612 C 0.84709 0.63559 0.73722
 C2613 C 0.82950 0.63737 0.75058
 C2614 C 0.81604 0.65570 0.75020
 C2615 C 0.89727 0.56844 0.75416
 C2616 C 0.83690 0.67040 0.72228
 C2617 C 0.86195 0.61748 0.73961
 C2618 C 0.87371 0.60214 0.74317
 C2619 C 0.88674 0.58401 0.74868
 C2620 C 0.81982 0.67266 0.73638
 H2621 H 0.86416 0.65080 0.71237
 H2622 H 0.82657 0.62486 0.76178
 H2623 H 0.80294 0.65687 0.76117
 H2624 H 0.84028 0.68328 0.71158
 C2625 C 0.84000 0.73401 0.19574
 C2626 C 0.84571 0.75313 0.18571
 C2627 C 0.83106 0.77060 0.18470
 C2628 C 0.81100 0.76926 0.19454
 C2629 C 0.92745 0.76210 0.16625
 C2630 C 0.82008 0.73267 0.20566
 C2631 C 0.86753 0.75561 0.17871
 C2632 C 0.88628 0.75758 0.17409
 C2633 C 0.90843 0.75991 0.16969
 C2634 C 0.80566 0.75051 0.20562
 H2635 H 0.85134 0.72048 0.19665
 H2636 H 0.83551 0.78553 0.17707
 H2637 H 0.80020 0.78325 0.19433
 H2638 H 0.81629 0.71794 0.21390
 C2639 C 0.34195 0.23728 0.69946
 C2640 C 0.34834 0.25677 0.69043
 C2641 C 0.33364 0.27412 0.68871
 C2642 C 0.31279 0.27232 0.69693
 C2643 C 0.43119 0.26659 0.67573
 C2644 C 0.32124 0.23548 0.70776
 C2645 C 0.37067 0.25961 0.68514
 C2646 C 0.38970 0.26181 0.68178
 C2647 C 0.41206 0.26432 0.67854
 C2648 C 0.30671 0.25321 0.70711
 H2649 H 0.35330 0.22382 0.70088
 H2650 H 0.33860 0.28932 0.68184
 H2651 H 0.30192 0.28623 0.69633
 H2652 H 0.31689 0.22050 0.71536
 C2653 C 0.32964 0.73184 0.81881
 C2654 C 0.34371 0.74974 0.81800
 C2655 C 0.33783 0.76839 0.80726
 C2656 C 0.31835 0.76880 0.79649
 C2657 C 0.42534 0.74178 0.83801
 C2658 C 0.31002 0.73226 0.80811
 C2659 C 0.36538 0.74798 0.82561
 C2660 C 0.38409 0.74636 0.83051
 C2661 C 0.40627 0.74414 0.83490
 C2662 C 0.30456 0.75050 0.79634
 H2663 H 0.33425 0.71726 0.82695
 H2664 H 0.34876 0.78222 0.80646
 H2665 H 0.31445 0.78319 0.78776
 H2666 H 0.29968 0.71795 0.80824
 C2667 C 0.84202 0.26292 0.30457
 C2668 C 0.84869 0.24342 0.31345
 C2669 C 0.83443 0.22567 0.31444
 C2670 C 0.81383 0.22709 0.30559
 C2671 C 0.93163 0.23367 0.32785
 C2672 C 0.82156 0.26434 0.29563
 C2673 C 0.87101 0.24087 0.31898
 C2674 C 0.89006 0.23878 0.32236
 C2675 C 0.91246 0.23620 0.32539
 C2676 C 0.80756 0.24620 0.29548
 H2677 H 0.85304 0.27668 0.30369
 H2678 H 0.83962 0.21045 0.32118
 H2679 H 0.80336 0.21287 0.30561
 H2680 H 0.81703 0.27935 0.28813
 C2681 C 0.15360 0.23690 0.29297
 C2682 C 0.14702 0.25583 0.30321
 C2683 C 0.16210 0.27223 0.30784
 C2684 C 0.18363 0.27013 0.30137
 C2685 C 0.06440 0.26952 0.31689
 C2686 C 0.17503 0.23479 0.28644
 C2687 C 0.12446 0.25914 0.30735
 C2688 C 0.10542 0.26211 0.31022
 C2689 C 0.08323 0.26591 0.31350
 C2690 C 0.19009 0.25166 0.29007
 H2691 H 0.14197 0.22416 0.28936
 H2692 H 0.15703 0.28696 0.31575
 H2693 H 0.19486 0.28341 0.30428
 H2694 H 0.17960 0.22030 0.27790
 C2695 C 0.64859 0.73210 0.78791
 C2696 C 0.64164 0.74967 0.79988
 C2697 C 0.65648 0.76551 0.80649
 C2698 C 0.67819 0.76430 0.80036
 C2699 C 0.55957 0.76596 0.81346
 C2700 C 0.67023 0.73086 0.78174
 C2701 C 0.61895 0.75257 0.80375
 C2702 C 0.59995 0.75584 0.80654
 C2703 C 0.57799 0.76075 0.80990
 C2704 C 0.68510 0.74728 0.78744
 H2705 H 0.63714 0.71981 0.78273
 H2706 H 0.65111 0.77922 0.81572
 H2707 H 0.68924 0.77719 0.80494
 H2708 H 0.67510 0.71745 0.77192
 C2709 C 0.65498 0.26316 0.70280
 C2710 C 0.64819 0.24356 0.69390
 C2711 C 0.66309 0.22665 0.69041
 C2712 C 0.68462 0.22893 0.69686
 C2713 C 0.56510 0.22950 0.68353
 C2714 C 0.67642 0.26544 0.70932
 C2715 C 0.62553 0.24006 0.69040
 C2716 C 0.60640 0.23699 0.68826
 C2717 C 0.58408 0.23313 0.68599
 C2718 C 0.69123 0.24807 0.70701
 H2719 H 0.64349 0.27629 0.70554
 H2720 H 0.65784 0.21139 0.68357
 H2721 H 0.69568 0.21526 0.69500
 H2722 H 0.68113 0.28044 0.71695
 C2723 C 0.15032 0.76735 0.20776
 C2724 C 0.14341 0.74890 0.19700
 C2725 C 0.15828 0.73254 0.19161
 C2726 C 0.17993 0.73413 0.19787
 C2727 C 0.06085 0.73324 0.18513
 C2728 C 0.17189 0.76896 0.21408
 C2729 C 0.12071 0.74577 0.19330
 C2730 C 0.10165 0.74256 0.19084
 C2731 C 0.07952 0.73797 0.18807
 C2732 C 0.18674 0.75205 0.20973
 H2733 H 0.13885 0.78006 0.21199
 H2734 H 0.15295 0.71815 0.18332
 H2735 H 0.19100 0.72084 0.19437
 H2736 H 0.17671 0.78306 0.22304
   
