data_POSCAR
  _audit_creation_date              2014-09-24
  _audit_creation_method            'ToBaCCo'
  _symmetry_space_group_name_H-M    'P1'
  _symmetry_Int_Tables_number       1
  _symmetry_cell_setting            triclinic
  loop_
  _symmetry_equiv_pos_as_xyz
 x,y,z
_cell_length_a 47.5266
_cell_length_b 47.5402
_cell_length_c 47.5636
_cell_angle_alpha 90.013200
_cell_angle_beta 90.033300
_cell_angle_gamma 89.982000
loop_
  _atom_site_label
  _atom_site_type_symbol
  _atom_site_fract_x
  _atom_site_fract_y
  _atom_site_fract_z
C1 C 0.35515 1.35663 0.31910
 C2 C 0.33055 1.36782 0.33156
 C3 C 0.31801 1.35510 0.35518
 C4 C 0.33118 1.33126 0.36699
 C5 C 0.35607 1.32038 0.35561
 C6 C 0.36783 1.33305 0.33169
 H7 H 0.32067 1.38645 0.32315
 H8 H 0.32287 1.32103 0.38545
 H9 H 0.38639 1.32389 0.32216
 C10 C 0.36012 0.85980 0.82331
 C11 C 0.33506 0.87132 0.83406
 C12 C 0.32162 0.85938 0.85774
 C13 C 0.33424 0.83588 0.87063
 C14 C 0.35916 0.82405 0.86011
 C15 C 0.37170 0.83596 0.83617
 H16 H 0.32606 0.88908 0.82332
 H17 H 0.32437 0.82632 0.88884
 H18 H 0.39023 0.82646 0.82696
 C19 C 0.86066 1.36183 0.82646
 C20 C 0.87254 1.33775 0.83860
 C21 C 0.86077 1.32567 0.86284
 C22 C 0.83686 1.33804 0.87495
 C23 C 0.82489 1.36279 0.86363
 C24 C 0.83712 1.37441 0.83929
 H25 H 0.89028 1.32786 0.82831
 H26 H 0.82776 1.32768 0.89297
 H27 H 0.82845 1.39358 0.83056
 C28 C 0.85865 0.85665 0.32032
 C29 C 0.87064 0.83299 0.33380
 C30 C 0.85856 0.82166 0.35828
 C31 C 0.83415 0.83391 0.36925
 C32 C 0.82228 0.85787 0.35687
 C33 C 0.83467 0.86913 0.33247
 H34 H 0.88895 0.82275 0.32532
 H35 H 0.82445 0.82487 0.38780
 H36 H 0.82492 0.88693 0.32212
 C37 C 0.63839 0.63716 0.32582
 C38 C 0.66258 0.62557 0.33832
 C39 C 0.67479 0.63817 0.36215
 C40 C 0.66254 0.66260 0.37335
 C41 C 0.63779 0.67394 0.36166
 C42 C 0.62594 0.66099 0.33794
 H43 H 0.67213 0.60708 0.32922
 H44 H 0.67276 0.67288 0.39089
 H45 H 0.60719 0.66989 0.32845
 C46 C 0.64327 0.14141 0.82035
 C47 C 0.66681 0.12931 0.83396
 C48 C 0.67788 0.14104 0.85866
 C49 C 0.66477 0.16471 0.87051
 C50 C 0.64152 0.17733 0.85729
 C51 C 0.63071 0.16528 0.83262
 H52 H 0.67695 0.11070 0.82584
 H53 H 0.67212 0.17279 0.89044
 H54 H 0.61266 0.17503 0.82260
 C55 C 1.13907 0.63739 0.82511
 C56 C 1.12652 0.66131 0.83699
 C57 C 1.13811 0.67416 0.86099
 C58 C 1.16198 0.66223 0.87358
 C59 C 1.17489 0.63827 0.86196
 C60 C 1.16302 0.62574 0.83804
 H61 H 1.10762 0.66972 0.82746
 H62 H 1.17033 0.67171 0.89252
 H63 H 1.17253 0.60682 0.82968
 C64 C 1.14273 0.13960 0.32244
 C65 C 1.16566 0.12708 0.33668
 C66 C 1.17662 0.13868 0.36166
 C67 C 1.16400 0.16325 0.37255
 C68 C 1.14062 0.17553 0.35925
 C69 C 1.13033 0.16369 0.33431
 H70 H 1.17524 0.10806 0.32879
 H71 H 1.17280 0.17377 0.39057
 H72 H 1.11263 0.17365 0.32388
 C73 C 0.64150 1.36058 0.67591
 C74 C 0.66638 1.37159 0.66421
 C75 C 0.67918 1.35886 0.64074
 C76 C 0.66590 1.33527 0.62851
 C77 C 0.64120 1.32390 0.64012
 C78 C 0.62890 1.33704 0.66342
 H79 H 0.67583 1.39023 0.67327
 H80 H 0.67384 1.32612 0.60937
 H81 H 0.60975 1.32843 0.67234
 C82 C 0.63942 0.86147 1.17518
 C83 C 0.66389 0.87318 1.16331
 C84 C 0.67637 0.86100 1.13943
 C85 C 0.66433 0.83675 1.12770
 C86 C 0.63983 0.82483 1.13924
 C87 C 0.62721 0.83777 1.16254
 H88 H 0.67327 0.89157 1.17277
 H89 H 0.67389 0.82763 1.10917
 H90 H 0.60830 0.82873 1.17153
 C91 C 1.14164 1.36048 1.17638
 C92 C 1.16433 1.37384 1.16256
 C93 C 1.17571 1.36288 1.13737
 C94 C 1.16366 1.33837 1.12603
 C95 C 1.14049 1.32529 1.13876
 C96 C 1.12974 1.33644 1.16394
 H97 H 1.17322 1.39252 1.17148
 H98 H 1.17220 1.32941 1.10687
 H99 H 1.11274 1.32575 1.17466
 C100 C 1.13964 0.86025 0.67608
 C101 C 1.12786 0.83617 0.66376
 C102 C 1.14001 0.82386 0.63984
 C103 C 1.16385 0.83652 0.62769
 C104 C 1.17596 0.86060 0.63969
 C105 C 1.16338 0.87268 0.66356
 H106 H 1.10948 0.82655 0.67322
 H107 H 1.17309 0.82786 0.60878
 H108 H 1.17153 0.89222 0.67185
 C109 C 0.36104 0.63800 0.67397
 C110 C 0.37209 0.66271 0.66209
 C111 C 0.36067 0.67392 0.63722
 C112 C 0.33744 0.66057 0.62478
 C113 C 0.32575 0.63595 0.63633
 C114 C 0.33789 0.62492 0.66112
 H115 H 0.38862 0.67392 0.67290
 H116 H 0.32841 0.66956 0.60585
 H117 H 0.32934 0.60651 0.67126
 C118 C 0.36032 0.13949 1.17553
 C119 C 0.33569 0.12807 1.16397
 C120 C 0.32403 0.13898 1.13917
 C121 C 0.33678 0.16240 1.12640
 C122 C 0.36092 0.17479 1.13824
 C123 C 0.37283 0.16290 1.16247
 H124 H 0.32565 0.11034 1.17421
 H125 H 0.32768 0.17130 1.10758
 H126 H 0.39110 0.17285 1.17174
 C127 C 0.86273 0.63723 1.17498
 C128 C 0.87434 0.66140 1.16211
 C129 C 0.86094 0.67444 1.13926
 C130 C 0.83606 0.66269 1.12850
 C131 C 0.82427 0.63856 1.14058
 C132 C 0.83751 0.62619 1.16397
 H133 H 0.89328 0.67111 1.17001
 H134 H 0.82594 0.67189 1.11030
 H135 H 0.82787 0.60820 1.17407
 C136 C 0.85783 0.14019 0.67800
 C137 C 0.83483 0.12720 0.66428
 C138 C 0.82399 0.13788 0.63872
 C139 C 0.83641 0.16215 0.62726
 C140 C 0.85924 0.17538 0.64042
 C141 C 0.87018 0.16388 0.66536
 H142 H 0.82532 0.10899 0.67350
 H143 H 0.82821 0.17100 0.60789
 H144 H 0.88842 0.17343 0.67511
 C145 C 1.36194 0.36274 0.67323
 C146 C 1.37520 0.33943 0.66087
 C147 C 1.36378 0.32626 0.63678
 C148 C 1.33887 0.33738 0.62520
 C149 C 1.32584 0.36123 0.63670
 C150 C 1.33745 0.37373 0.66084
 H151 H 1.39386 0.33143 0.67104
 H152 H 1.32954 0.32755 0.60683
 H153 H 1.32732 0.39180 0.67015
 C154 C 1.36206 0.86237 1.17390
 C155 C 1.33772 0.87361 1.16143
 C156 C 1.32615 0.86136 1.13716
 C157 C 1.33910 0.83752 1.12555
 C158 C 1.36387 0.82616 1.13717
 C159 C 1.37525 0.83908 1.16144
 H160 H 1.32765 0.89168 1.17081
 H161 H 1.32980 0.82787 1.10707
 H162 H 1.39379 0.83086 1.17165
 C163 C 0.86030 0.36052 1.17468
 C164 C 0.87130 0.33512 1.16410
 C165 C 0.85909 0.32173 1.14066
 C166 C 0.83572 0.33468 1.12759
 C167 C 0.82396 0.35952 1.13851
 C168 C 0.83657 0.37236 1.16180
 H169 H 0.88881 0.32508 1.17465
 H170 H 0.82694 0.32626 1.10847
 H171 H 0.82761 0.39161 1.17016
 C172 C 0.86176 0.86171 0.67437
 C173 C 0.83685 0.87288 0.66282
 C174 C 0.82457 0.86071 0.63879
 C175 C 0.83684 0.83663 0.62698
 C176 C 0.86125 0.82471 0.63871
 C177 C 0.87375 0.83769 0.66205
 H178 H 0.82631 0.89016 0.67311
 H179 H 0.82742 0.82750 0.60838
 H180 H 0.89266 0.82865 0.67107
 C181 C 0.63935 0.63957 0.67553
 C182 C 0.66359 0.62768 0.66357
 C183 C 0.67509 0.63857 0.63857
 C184 C 0.66250 0.66220 0.62617
 C185 C 0.63884 0.67507 0.63840
 C186 C 0.62713 0.66334 0.66279
 H187 H 0.67355 0.61019 0.67417
 H188 H 0.67119 0.67036 0.60678
 H189 H 0.60923 0.67362 0.67239
 C190 C 0.64206 1.14223 1.17756
 C191 C 0.66609 1.12986 1.16559
 C192 C 0.67919 1.14204 1.14212
 C193 C 0.66815 1.16693 1.13074
 C194 C 0.64378 1.17963 1.14214
 C195 C 0.63074 1.16658 1.16531
 H196 H 0.67475 1.11093 1.17469
 H197 H 0.67872 1.17564 1.11266
 H198 H 0.61207 1.17590 1.17454
 C199 C 0.13920 0.63986 1.17645
 C200 C 0.12868 0.66494 1.16434
 C201 C 0.14266 0.67835 1.14190
 C202 C 0.16735 0.66580 1.13120
 C203 C 0.17799 0.64083 1.14262
 C204 C 0.16401 0.62818 1.16531
 H205 H 0.11003 0.67491 1.17260
 H206 H 0.17860 0.67477 1.11366
 H207 H 0.17284 0.60945 1.17484
 C208 C 0.14085 1.14192 0.67685
 C209 C 0.12947 1.16639 0.66488
 C210 C 0.14179 1.17905 0.64114
 C211 C 0.16545 1.16591 0.62886
 C212 C 0.17721 1.14148 0.64067
 C213 C 0.16448 1.12934 0.66426
 H214 H 0.11123 1.17602 0.67466
 H215 H 0.17438 1.17373 0.60958
 H216 H 0.17311 1.11001 0.67264
 C217 C 1.36000 0.64102 0.32366
 C218 C 1.37095 0.66594 0.33533
 C219 C 1.35824 0.67873 0.35881
 C220 C 1.33471 0.66540 0.37108
 C221 C 1.32342 0.64062 0.35952
 C222 C 1.33655 0.62834 0.33621
 H223 H 1.38954 0.67543 0.32622
 H224 H 1.32554 0.67336 0.39020
 H225 H 1.32800 0.60915 0.32731
 C226 C 1.36223 1.13806 0.82634
 C227 C 1.33769 1.12684 0.83837
 C228 C 1.32581 1.13900 0.86254
 C229 C 1.33864 1.16280 0.87441
 C230 C 1.36359 1.17416 0.86316
 C231 C 1.37527 1.16128 0.83905
 H232 H 1.32775 1.10884 0.82872
 H233 H 1.32913 1.17241 0.89279
 H234 H 1.39394 1.16948 0.82910
 C235 C 0.86156 0.63777 0.82520
 C236 C 0.87295 0.66262 0.83661
 C237 C 0.86050 0.67552 0.86014
 C238 C 0.83613 0.66369 0.87179
 C239 C 0.82449 0.63892 0.86080
 C240 C 0.83727 0.62621 0.83736
 H241 H 0.89048 0.67278 0.82636
 H242 H 0.82613 0.67385 0.88959
 H243 H 0.82792 0.60777 0.82784
 C244 C 0.86334 1.13699 0.32681
 C245 C 0.83836 1.12566 0.33798
 C246 C 0.82583 1.13738 0.36200
 C247 C 0.83795 1.16141 0.37431
 C248 C 0.86240 1.17352 0.36290
 C249 C 0.87516 1.16086 0.33954
 H250 H 0.82818 1.10799 0.32790
 H251 H 0.82819 1.17094 0.39246
 H252 H 0.89410 1.17007 0.33080
 C253 C 0.64076 0.35910 0.32239
 C254 C 0.62768 0.33603 0.33558
 C255 C 0.63843 0.32442 0.36078
 C256 C 0.66294 0.33628 0.37240
 C257 C 0.67632 0.35927 0.35974
 C258 C 0.66470 0.37102 0.33526
 H259 H 0.60959 0.32687 0.32534
 H260 H 0.67188 0.32751 0.39147
 H261 H 0.67403 0.38996 0.32705
 C262 C 0.64024 0.85982 0.82292
 C263 C 0.66388 0.87243 0.83550
 C264 C 0.67608 0.86081 0.85982
 C265 C 0.66378 0.83700 0.87209
 C266 C 0.64014 0.82407 0.85980
 C267 C 0.62831 0.83594 0.83550
 H268 H 0.67222 0.89176 0.82696
 H269 H 0.67274 0.82873 0.89132
 H270 H 0.61004 0.82617 0.82595
 C271 C 0.14185 0.35860 0.82139
 C272 C 0.12963 0.33491 0.83430
 C273 C 0.14061 0.32385 0.85951
 C274 C 0.16435 0.33651 0.87160
 C275 C 0.17692 0.36007 0.85924
 C276 C 0.16513 0.37147 0.83465
 H277 H 0.11213 0.32454 0.82406
 H278 H 0.17330 0.32779 0.89068
 H279 H 0.17381 0.39082 0.82666
 C280 C 0.13709 0.86192 0.32507
 C281 C 0.12615 0.83697 0.33699
 C282 C 0.13874 0.82469 0.36080
 C283 C 0.16297 0.83696 0.37222
 C284 C 0.17469 0.86127 0.36044
 C285 C 0.16139 0.87382 0.33716
 H286 H 0.10872 0.82618 0.32734
 H287 H 0.17302 0.82727 0.39027
 H288 H 0.16971 0.89319 0.32855
 O289 O 0.97209 0.89874 0.85955
 O290 O 0.97204 0.86620 0.82650
 C291 C 0.96245 0.88900 0.83661
 C292 C 0.93940 0.90402 0.82198
 C293 C 0.92922 0.89433 0.79601
 H294 H 0.93888 0.87620 0.78612
 O295 O 1.02711 1.10231 0.85979
 O296 O 1.02710 1.13512 0.82703
 C297 C 1.03670 1.11222 0.83694
 C298 C 1.05978 1.09729 0.82227
 C299 C 1.06966 1.10677 0.79610
 H300 H 1.05974 1.12467 0.78603
 O301 O 0.86049 0.97291 0.89883
 O302 O 0.82733 0.97315 0.86638
 C303 C 0.83748 0.96341 0.88910
 C304 C 0.82280 0.94029 0.90394
 C305 C 0.79651 0.93071 0.89445
 H306 H 0.78632 0.94155 0.87724
 O307 O 1.13998 1.02810 0.89849
 O308 O 1.17277 1.02822 0.86572
 C309 C 1.16287 1.03773 0.88864
 C310 C 1.17765 1.06071 0.90369
 C311 C 1.20380 1.07072 0.89416
 H312 H 1.21328 1.06124 0.87579
 O313 O 0.89890 0.85977 0.97249
 O314 O 0.86599 0.82708 0.97243
 C315 C 0.88890 0.83695 0.96283
 C316 C 0.90372 0.82223 0.93972
 C317 C 0.89416 0.79605 0.92994
 H318 H 0.87635 0.78604 0.94006
 O319 O 1.10118 1.14042 0.97301
 O320 O 1.13406 1.17314 0.97309
 C321 C 1.11115 1.16327 0.96342
 C322 C 1.09633 1.17803 0.94026
 C323 C 1.10630 1.20392 0.93009
 H324 H 1.12442 1.21371 0.93988
 O325 O 0.89877 1.02798 0.86032
 O326 O 0.86573 1.02812 0.82775
 C327 C 0.88869 1.03767 0.83756
 C328 C 0.90339 1.06080 0.82277
 C329 C 0.89378 1.07021 0.79651
 H330 H 0.87669 1.05909 0.78642
 O331 O 1.10115 0.97333 0.86004
 O332 O 1.13381 0.97336 0.82712
 C333 C 1.11096 0.96374 0.83712
 C334 C 1.09602 0.94067 0.82239
 C335 C 1.10546 0.93104 0.79611
 H336 H 1.12281 0.94170 0.78597
 O337 O 1.02706 0.86001 0.89777
 O338 O 1.02701 0.82732 0.86486
 C339 C 1.03663 0.83715 0.88777
 C340 C 1.05967 0.82229 0.90259
 C341 C 1.06899 0.79585 0.89324
 H342 H 1.05804 0.78570 0.87608
 O343 O 0.97254 1.14071 0.89866
 O344 O 0.97236 1.17376 0.86614
 C345 C 0.96293 1.16370 0.88902
 C346 C 0.94013 1.17843 0.90434
 C347 C 0.93012 1.20465 0.89503
 H348 H 0.93944 1.21408 0.87657
 O349 O 0.86121 1.10159 0.97348
 O350 O 0.82830 1.13430 0.97386
 C351 C 0.83823 1.11150 0.96406
 C352 C 0.82334 1.09676 0.94098
 C353 C 0.79705 1.10637 0.93146
 H354 H 0.78701 1.12371 0.94223
 O355 O 1.14023 0.89788 0.97146
 O356 O 1.17320 0.86523 0.97105
 C357 C 1.16313 0.88814 0.96168
 C358 C 1.17772 0.90338 0.93874
 C359 C 1.20401 0.89418 0.92875
 H360 H 1.21417 0.87617 0.93837
 O361 O 0.97224 1.10259 0.85978
 O362 O 0.97205 1.13540 0.82703
 C363 C 0.96249 1.11252 0.83697
 C364 C 0.93935 1.09753 0.82240
 C365 C 0.92928 1.10682 0.79617
 H366 H 0.93898 1.12476 0.78599
 O367 O 1.02698 0.89893 0.85971
 O368 O 1.02700 0.86643 0.82662
 C369 C 1.03659 0.88924 0.83676
 C370 C 1.05963 0.90431 0.82216
 C371 C 1.06938 0.89501 0.79588
 H372 H 1.05941 0.87719 0.78573
 O373 O 1.13981 0.97317 0.89843
 O374 O 1.17259 0.97330 0.86563
 C375 C 1.16268 0.96359 0.88846
 C376 C 1.17746 0.94038 0.90309
 C377 C 1.20378 0.93102 0.89353
 H378 H 1.21392 0.94221 0.87654
 O379 O 0.86041 1.02781 0.89896
 O380 O 0.82723 1.02805 0.86653
 C381 C 0.83744 1.03752 0.88934
 C382 C 0.82291 1.06054 0.90451
 C383 C 0.79663 1.07045 0.89529
 H384 H 0.78642 1.06059 0.87744
 O385 O 0.89958 1.14033 0.97361
 O386 O 0.86676 1.17313 0.97400
 C387 C 0.88960 1.16328 0.96422
 C388 C 0.90432 1.17822 0.94118
 C389 C 0.89465 1.20445 0.93163
 H390 H 0.87684 1.21435 0.94186
 O391 O 1.10157 0.85948 0.97146
 O392 O 1.13434 0.82663 0.97108
 C393 C 1.11138 0.83663 0.96169
 C394 C 1.09624 0.82202 0.93872
 C395 C 1.10532 0.79562 0.92904
 H396 H 1.12313 0.78542 0.93899
 O397 O 1.10126 1.02825 0.86007
 O398 O 1.13393 1.02827 0.82717
 C399 C 1.11108 1.03787 0.83717
 C400 C 1.09618 1.06096 0.82246
 C401 C 1.10574 1.07071 0.79629
 H402 H 1.12313 1.06008 0.78618
 O403 O 0.89848 0.97310 0.85979
 O404 O 0.86546 0.97324 0.82721
 C405 C 0.88842 0.96360 0.83693
 C406 C 0.90325 0.94060 0.82202
 C407 C 0.89342 0.93067 0.79596
 H408 H 0.87504 0.94029 0.78659
 O409 O 1.02734 1.14058 0.89848
 O410 O 1.02733 1.17360 0.86593
 C411 C 1.03697 1.16350 0.88874
 C412 C 1.06006 1.17814 0.90376
 C413 C 1.07034 1.20404 0.89392
 H414 H 1.06099 1.21331 0.87537
 O415 O 0.97221 0.86008 0.89792
 O416 O 0.97210 0.82738 0.86503
 C417 C 0.96259 0.83722 0.88799
 C418 C 0.93970 0.82236 0.90304
 C419 C 0.92978 0.79620 0.89347
 H420 H 0.93921 0.78693 0.87498
 O421 O 1.13980 1.10196 0.97278
 O422 O 1.17281 1.13455 0.97296
 C423 C 1.16275 1.11179 0.96324
 C424 C 1.17749 1.09695 0.94015
 C425 C 1.20358 1.10668 0.93031
 H426 H 1.21346 1.12465 0.94027
 O427 O 0.86040 0.89832 0.97261
 O428 O 0.82732 0.86579 0.97254
 C429 C 0.83742 0.88862 0.96300
 C430 C 0.82274 0.90370 0.94002
 C431 C 0.79648 0.89434 0.93014
 H432 H 0.78643 0.87639 0.93995
 Cu433 Cu 0.99958 0.88270 0.88204
 Cu434 Cu 0.99954 0.84357 0.84242
 Cu435 Cu 0.99979 1.11823 0.88241
 Cu436 Cu 0.99970 1.15779 0.84325
 Cu437 Cu 0.88285 1.00042 0.88273
 Cu438 Cu 0.84311 1.00066 0.84370
 Cu439 Cu 1.11728 1.00073 0.88255
 Cu440 Cu 1.15656 1.00079 0.84311
 C441 C 0.92648 0.92738 0.83463
 H442 H 0.93395 0.93470 0.85487
 C443 C 0.90650 0.90765 0.78268
 C444 C 1.07307 1.07426 0.83517
 H445 H 1.06587 1.06710 0.85555
 C446 C 1.09284 1.09389 0.78313
 C447 C 0.83564 0.92679 0.92685
 H448 H 0.85609 0.93384 0.93402
 C449 C 0.78337 0.90743 0.90716
 C450 C 1.16487 1.07375 0.92692
 H451 H 1.14456 1.06639 0.93416
 C452 C 1.21707 1.09357 0.90758
 C453 C 0.92674 0.83501 0.92637
 H454 H 0.93401 0.85536 0.93360
 C455 C 0.90718 0.78269 0.90706
 C456 C 1.07298 1.16550 0.92715
 H457 H 1.06541 1.14535 0.93460
 C458 C 1.09330 1.21725 0.90716
 C459 C 0.92630 1.07444 0.83543
 H460 H 0.93358 1.06746 0.85586
 C461 C 0.90626 1.09354 0.78323
 C462 C 1.07298 0.92727 0.83515
 H463 H 1.06586 0.93430 0.85561
 C464 C 1.09248 0.90795 0.78288
 C465 C 1.07329 0.83509 0.92545
 H466 H 1.06645 0.85565 0.93250
 C467 C 1.09208 0.78251 0.90614
 C468 C 0.92731 1.16558 0.92763
 H469 H 0.93465 1.14519 0.93466
 C470 C 0.90755 1.21800 0.90880
 C471 C 0.83600 1.07373 0.92748
 H472 H 0.85646 1.06649 0.93444
 C473 C 0.78369 1.09354 0.90835
 C474 C 1.16470 0.92656 0.92583
 H475 H 1.14423 0.93348 0.93306
 C476 C 1.21704 0.90761 0.90592
 O477 O 1.02844 0.89689 1.13952
 O478 O 1.02849 0.86400 1.17220
 C479 C 1.03805 0.88693 1.16237
 C480 C 1.06103 0.90185 1.17725
 C481 C 1.07093 0.89208 1.20330
 H482 H 1.06138 0.87360 1.21250
 O483 O 0.97404 1.10094 1.14145
 O484 O 0.97404 1.13347 1.17451
 C485 C 0.96446 1.11063 1.16442
 C486 C 0.94149 1.09553 1.17909
 C487 C 0.93150 1.10509 1.20518
 H488 H 0.94125 1.12314 1.21513
 O489 O 0.86142 1.02707 1.10267
 O490 O 0.82855 1.02702 1.13536
 C491 C 0.83853 1.03670 1.11255
 C492 C 0.82381 1.05977 1.09759
 C493 C 0.79768 1.06979 1.10718
 H494 H 0.78835 1.06030 1.12560
 O495 O 1.14028 0.97135 1.10117
 O496 O 1.17350 0.97120 1.13355
 C497 C 1.16334 0.96175 1.11071
 C498 C 1.17811 0.93893 1.09541
 C499 C 1.20441 0.92908 1.10471
 H500 H 1.21393 0.93853 1.12308
 O501 O 1.10196 0.85914 1.02632
 O502 O 1.13478 0.82634 1.02601
 C503 C 1.11196 0.83623 1.03580
 C504 C 1.09728 0.82144 1.05896
 C505 C 1.10708 0.79532 1.06868
 H506 H 1.12444 0.78530 1.05791
 O507 O 0.90009 1.13964 1.02856
 O508 O 0.86726 1.17243 1.02886
 C509 C 0.89018 1.16244 1.03836
 C510 C 0.90498 1.17708 1.06156
 C511 C 0.89540 1.20330 1.07112
 H512 H 0.87829 1.21348 1.06009
 O513 O 0.89970 0.97172 1.14072
 O514 O 0.86703 0.97150 1.17362
 C515 C 0.88984 0.96189 1.16350
 C516 C 0.90474 0.93857 1.17787
 C517 C 0.89543 0.92852 1.20406
 H518 H 0.87762 0.93839 1.21432
 O519 O 1.10202 1.02610 1.14032
 O520 O 1.13511 1.02586 1.17284
 C521 C 1.11217 1.03560 1.16315
 C522 C 1.09758 1.05874 1.17812
 C523 C 1.10726 1.06798 1.20444
 H524 H 1.12434 1.05676 1.21443
 O525 O 0.97336 0.85862 1.10099
 O526 O 0.97340 0.82557 1.13351
 C527 C 0.96370 0.83572 1.11077
 C528 C 0.94042 0.82124 1.09594
 C529 C 0.93044 0.79509 1.10542
 H530 H 0.94046 0.78493 1.12320
 O531 O 1.02859 1.13992 1.10302
 O532 O 1.02874 1.17262 1.13589
 C533 C 1.03819 1.16281 1.11290
 C534 C 1.06103 1.17768 1.09779
 C535 C 1.07122 1.20367 1.10754
 H536 H 1.06196 1.21298 1.12611
 O537 O 0.86078 0.89850 1.02746
 O538 O 0.82768 0.86600 1.02743
 C539 C 0.83782 0.88880 1.03705
 C540 C 0.82316 0.90382 1.06007
 C541 C 0.79685 0.89449 1.06969
 H542 H 0.78676 0.87673 1.05955
 O543 O 1.13963 1.10135 1.02763
 O544 O 1.17267 1.13391 1.02782
 C545 C 1.16263 1.11099 1.03725
 C546 C 1.17746 1.09568 1.06004
 C547 C 1.20377 1.10501 1.06983
 H548 H 1.21316 1.12345 1.06040
 O549 O 1.02892 1.10123 1.14136
 O550 O 1.02911 1.13370 1.17448
 C551 C 1.03867 1.11090 1.16428
 C552 C 1.06178 1.09568 1.17871
 C553 C 1.07188 1.10474 1.20499
 H554 H 1.06223 1.12266 1.21528
 O555 O 0.97358 0.89718 1.13944
 O556 O 0.97360 0.86428 1.17212
 C557 C 0.96403 0.88725 1.16231
 C558 C 0.94106 0.90215 1.17722
 C559 C 0.93158 0.89254 1.20345
 H560 H 0.94246 0.87522 1.21341
 O561 O 1.13996 1.02623 1.10126
 O562 O 1.17319 1.02609 1.13364
 C563 C 1.16296 1.03580 1.11093
 C564 C 1.17758 1.05890 1.09598
 C565 C 1.20389 1.06848 1.10536
 H566 H 1.21398 1.05828 1.12308
 O567 O 0.86121 0.97222 1.10219
 O568 O 0.82833 0.97209 1.13489
 C569 C 0.83825 0.96265 1.11193
 C570 C 0.82333 0.93989 1.09670
 C571 C 0.79703 0.93017 1.10609
 H572 H 0.78769 0.93969 1.12450
 O573 O 1.10155 1.14037 1.02799
 O574 O 1.13445 1.17307 1.02809
 C575 C 1.11160 1.16314 1.03773
 C576 C 1.09695 1.17777 1.06102
 C577 C 1.10689 1.20369 1.07112
 H578 H 1.12486 1.21358 1.06117
 O579 O 0.89883 0.85945 1.02734
 O580 O 0.86588 0.82680 1.02734
 C581 C 0.88884 0.83659 1.03691
 C582 C 0.90374 0.82171 1.05989
 C583 C 0.89408 0.79555 1.06966
 H584 H 0.87654 0.78558 1.05912
 O585 O 1.10212 0.97113 1.14011
 O586 O 1.13521 0.97088 1.17263
 C587 C 1.11223 0.96135 1.16283
 C588 C 1.09740 0.93818 1.17749
 C589 C 1.10705 0.92808 1.20355
 H590 H 1.12506 0.93786 1.21356
 O591 O 0.90002 1.02663 1.14117
 O592 O 0.86733 1.02651 1.17405
 C593 C 0.89023 1.03610 1.16414
 C594 C 0.90527 1.05900 1.17904
 C595 C 0.89565 1.06882 1.20520
 H596 H 0.87730 1.05920 1.21460
 O597 O 0.97376 1.13979 1.10336
 O598 O 0.97372 1.17256 1.13618
 C599 C 0.96408 1.16263 1.11330
 C600 C 0.94095 1.17725 1.09833
 C601 C 0.93090 1.20346 1.10774
 H602 H 0.94060 1.21355 1.12573
 O603 O 1.02833 0.85856 1.10079
 O604 O 1.02843 0.82552 1.13332
 C605 C 1.03800 0.83562 1.11052
 C606 C 1.06112 0.82107 1.09550
 C607 C 1.07126 0.79494 1.10495
 H608 H 1.06152 0.78482 1.12289
 O609 O 1.14022 0.89785 1.02628
 O610 O 1.17321 0.86522 1.02596
 C611 C 1.16320 0.88801 1.03573
 C612 C 1.17799 0.90287 1.05877
 C613 C 1.20424 0.89332 1.06838
 H614 H 1.21421 0.87547 1.05828
 O615 O 0.86145 1.10119 1.02837
 O616 O 0.82853 1.13389 1.02869
 C617 C 0.83856 1.11097 1.03810
 C618 C 0.82385 1.09595 1.06108
 C619 C 0.79770 1.10554 1.07087
 H620 H 0.78776 1.12344 1.06083
 Cu621 Cu 1.00094 0.88108 1.11689
 Cu622 Cu 1.00098 0.84152 1.15605
 Cu623 Cu 1.00134 1.11722 1.11902
 Cu624 Cu 1.00141 1.15636 1.15859
 Cu625 Cu 0.88303 0.88226 0.99998
 Cu626 Cu 0.84340 0.84314 0.99995
 Cu627 Cu 1.11771 0.88185 0.99888
 Cu628 Cu 1.15718 0.84255 0.99848
 Cu629 Cu 0.88388 1.11741 1.00094
 Cu630 Cu 0.84443 1.15673 1.00140
 Cu631 Cu 1.11722 1.11779 1.00034
 Cu632 Cu 1.15678 1.15696 1.00052
 Cu633 Cu 0.88387 0.99943 1.11843
 Cu634 Cu 0.84453 0.99928 1.15778
 Cu635 Cu 1.11776 0.99868 1.11750
 Cu636 Cu 1.15757 0.99850 1.15643
 C637 C 1.07416 0.92513 1.16472
 H638 H 1.06684 0.93254 1.14446
 C639 C 1.09373 0.90530 1.21682
 C640 C 0.92844 1.07226 1.16636
 H641 H 0.93574 1.06504 1.14603
 C642 C 0.90885 1.09172 1.21856
 C643 C 0.83655 1.07281 1.07434
 H644 H 0.85689 1.06550 1.06709
 C645 C 0.78429 1.09255 1.09371
 C646 C 1.16526 0.92591 1.07220
 H647 H 1.14483 0.93314 1.06515
 C648 C 1.21778 0.90643 1.09108
 C649 C 1.07419 0.83403 1.07239
 H650 H 1.06679 0.85438 1.06527
 C651 C 1.09445 0.78209 1.09196
 C652 C 0.92788 1.16432 1.07516
 H653 H 0.93513 1.14391 1.06808
 C654 C 0.90788 1.21645 1.09452
 C655 C 0.92765 0.92530 1.16470
 H656 H 0.93464 0.93259 1.14430
 C657 C 0.90844 0.90529 1.21684
 C658 C 1.07473 1.07259 1.16554
 H659 H 1.06741 1.06576 1.14507
 C660 C 1.09483 1.09127 1.21788
 C661 C 0.92703 0.83427 1.07306
 H662 H 0.93432 0.85463 1.06591
 C663 C 0.90710 0.78224 1.09269
 C664 C 1.07380 1.16512 1.07429
 H665 H 1.06630 1.14492 1.06688
 C666 C 1.09403 1.21697 1.09411
 C667 C 0.83605 0.92678 1.07348
 H668 H 0.85650 0.93388 1.06639
 C669 C 0.78346 0.90764 1.09246
 C670 C 1.16470 1.07241 1.07306
 H671 H 1.14424 1.06535 1.06592
 C672 C 1.21731 1.09129 1.09233
 O673 O 0.97250 0.39889 0.35835
 O674 O 0.97219 0.36623 0.32542
 C675 C 0.96276 0.38914 0.33547
 C676 C 0.93975 0.40425 0.32086
 C677 C 0.92964 0.39465 0.29481
 H678 H 0.93911 0.37624 0.28537
 O679 O 1.02758 0.60167 0.35968
 O680 O 1.02745 0.63473 0.32717
 C681 C 1.03714 0.61178 0.33688
 C682 C 1.06023 0.59707 0.32195
 C683 C 1.07040 0.60732 0.29620
 H684 H 1.06094 0.62597 0.28725
 O685 O 0.86033 0.47248 0.39799
 O686 O 0.82718 0.47259 0.36553
 C687 C 0.83740 0.46283 0.38824
 C688 C 0.82292 0.43955 0.40310
 C689 C 0.79677 0.42956 0.39358
 H690 H 0.78652 0.44002 0.37616
 O691 O 1.13968 0.52706 0.39763
 O692 O 1.17273 0.52706 0.36511
 C693 C 1.16269 0.53657 0.38797
 C694 C 1.17747 0.55945 0.40309
 C695 C 1.20365 0.56930 0.39358
 H696 H 1.21362 0.55947 0.37560
 O697 O 0.89950 0.35979 0.47221
 O698 O 0.86669 0.32701 0.47209
 C699 C 0.88956 0.33698 0.46249
 C700 C 0.90429 0.32236 0.43925
 C701 C 0.89498 0.29595 0.42985
 H702 H 0.87805 0.28561 0.44096
 O703 O 1.10183 0.63954 0.47273
 O704 O 1.13463 0.67234 0.47269
 C705 C 1.11168 0.66246 0.46317
 C706 C 1.09664 0.67734 0.44027
 C707 C 1.10617 0.70357 0.43059
 H708 H 1.12413 0.71346 0.44057
 O709 O 0.89827 0.52782 0.35957
 O710 O 0.86529 0.52808 0.32694
 C711 C 0.88824 0.53762 0.33683
 C712 C 0.90315 0.56076 0.32219
 C713 C 0.89344 0.57097 0.29620
 H714 H 0.87531 0.56133 0.28628
 O715 O 1.10089 0.47274 0.35859
 O716 O 1.13374 0.47282 0.32587
 C717 C 1.11081 0.46324 0.33569
 C718 C 1.09599 0.44021 0.32082
 C719 C 1.10558 0.43076 0.29457
 H720 H 1.12271 0.44182 0.28450
 O721 O 1.02720 0.35992 0.39660
 O722 O 1.02699 0.32709 0.36383
 C723 C 1.03660 0.33694 0.38674
 C724 C 1.05938 0.32193 0.40179
 C725 C 1.06913 0.29576 0.39215
 H726 H 1.05932 0.28603 0.37402
 O727 O 0.97274 0.63981 0.39873
 O728 O 0.97254 0.67296 0.36632
 C729 C 0.96305 0.66278 0.38912
 C730 C 0.94004 0.67738 0.40428
 C731 C 0.92982 0.70343 0.39471
 H732 H 0.93916 0.71285 0.37625
 O733 O 0.86035 0.60081 0.47333
 O734 O 0.82749 0.63357 0.47347
 C735 C 0.83741 0.61070 0.46382
 C736 C 0.82252 0.59582 0.44084
 C737 C 0.79620 0.60533 0.43137
 H738 H 0.78627 0.62315 0.44156
 O739 O 1.13845 0.39795 0.47124
 O740 O 1.17119 0.36506 0.47115
 C741 C 1.16128 0.38798 0.46157
 C742 C 1.17605 0.40271 0.43843
 C743 C 1.20208 0.39276 0.42868
 H744 H 1.21200 0.37539 0.43950
 O745 O 0.97263 0.60162 0.35986
 O746 O 0.97247 0.63463 0.32730
 C747 C 0.96291 0.61167 0.33709
 C748 C 0.93979 0.59686 0.32228
 C749 C 0.92982 0.60671 0.29627
 H750 H 0.93944 0.62512 0.28702
 O751 O 1.02736 0.39831 0.35798
 O752 O 1.02720 0.36569 0.32501
 C753 C 1.03692 0.38849 0.33505
 C754 C 1.06001 0.40349 0.32045
 C755 C 1.07005 0.39417 0.29423
 H756 H 1.06035 0.37622 0.28406
 O757 O 1.13948 0.47216 0.39697
 O758 O 1.17251 0.47207 0.36443
 C759 C 1.16232 0.46236 0.38714
 C760 C 1.17665 0.43895 0.40198
 C761 C 1.20264 0.42853 0.39238
 H762 H 1.21279 0.43817 0.37441
 O763 O 0.86003 0.52738 0.39838
 O764 O 0.82685 0.52757 0.36595
 C765 C 0.83698 0.53699 0.38882
 C766 C 0.82225 0.55979 0.40418
 C767 C 0.79592 0.56964 0.39498
 H768 H 0.78637 0.56020 0.37662
 O769 O 0.89891 0.63933 0.47335
 O770 O 0.86617 0.67221 0.47344
 C771 C 0.88902 0.66225 0.46380
 C772 C 0.90387 0.67706 0.44079
 C773 C 0.89401 0.70311 0.43095
 H774 H 0.87598 0.71289 0.44091
 O775 O 1.10043 0.35890 0.47134
 O776 O 1.13307 0.32593 0.47127
 C777 C 1.11024 0.33598 0.46168
 C778 C 1.09532 0.32136 0.43854
 C779 C 1.10483 0.29519 0.42856
 H780 H 1.12307 0.28563 0.43825
 O781 O 1.10152 0.52763 0.35872
 O782 O 1.13440 0.52781 0.32603
 C783 C 1.11153 0.53745 0.33599
 C784 C 1.09672 0.56080 0.32152
 C785 C 1.10663 0.57140 0.29577
 H786 H 1.12481 0.56187 0.28585
 O787 O 0.89840 0.47295 0.35907
 O788 O 0.86542 0.47309 0.32644
 C789 C 0.88839 0.46347 0.33618
 C790 C 0.90330 0.44053 0.32122
 C791 C 0.89346 0.43059 0.29519
 H792 H 0.87531 0.44038 0.28544
 O793 O 1.02766 0.63989 0.39853
 O794 O 1.02748 0.67309 0.36616
 C795 C 1.03719 0.66292 0.38889
 C796 C 1.06023 0.67760 0.40396
 C797 C 1.07011 0.70382 0.39453
 H798 H 1.06052 0.71329 0.37622
 O799 O 0.97243 0.36023 0.39669
 O800 O 0.97210 0.32735 0.36397
 C801 C 0.96272 0.33733 0.38692
 C802 C 0.93991 0.32258 0.40218
 C803 C 0.93022 0.29621 0.39302
 H804 H 0.93995 0.28619 0.37501
 O805 O 1.14008 0.60070 0.47243
 O806 O 1.17303 0.63335 0.47240
 C807 C 1.16296 0.61053 0.46277
 C808 C 1.17754 0.59567 0.43959
 C809 C 1.20372 0.60521 0.42976
 H810 H 1.21392 0.62256 0.44038
 O811 O 0.86076 0.39814 0.47224
 O812 O 0.82782 0.36546 0.47210
 C813 C 0.83784 0.38833 0.46257
 C814 C 0.82310 0.40326 0.43952
 C815 C 0.79692 0.39364 0.42974
 H816 H 0.78696 0.37573 0.43971
 Cu817 Cu 0.99992 0.38263 0.38066
 Cu818 Cu 0.99958 0.34331 0.34123
 Cu819 Cu 1.00017 0.61744 0.38244
 Cu820 Cu 0.99997 0.65717 0.34347
 Cu821 Cu 0.88256 0.50016 0.38199
 Cu822 Cu 0.84286 0.50036 0.34295
 Cu823 Cu 1.11710 0.49992 0.38124
 Cu824 Cu 1.15665 0.49995 0.34208
 C825 C 0.92669 0.42744 0.33369
 H826 H 0.93414 0.43470 0.35395
 C827 C 0.90666 0.40790 0.28167
 C828 C 1.07329 0.57358 0.33423
 H829 H 1.06577 0.56580 0.35426
 C830 C 1.09343 0.59442 0.28276
 C831 C 0.83583 0.42635 0.42618
 H832 H 0.85620 0.43362 0.43336
 C833 C 0.78378 0.40635 0.40659
 C834 C 1.16469 0.57266 0.42623
 H835 H 1.14429 0.56548 0.43340
 C836 C 1.21673 0.59239 0.40648
 C837 C 0.92689 0.33540 0.42541
 H838 H 0.93392 0.35595 0.43232
 C839 C 0.90758 0.28287 0.40647
 C840 C 1.07343 0.66472 0.42705
 H841 H 1.06618 0.64433 0.43417
 C842 C 1.09292 0.71715 0.40797
 C843 C 0.92655 0.57365 0.33486
 H844 H 0.93392 0.56617 0.35508
 C845 C 0.90683 0.59367 0.28289
 C846 C 1.07307 0.42659 0.33347
 H847 H 1.06583 0.43358 0.35390
 C848 C 1.09308 0.40742 0.28131
 C849 C 1.07237 0.33435 0.42522
 H850 H 1.06519 0.35470 0.43255
 C851 C 1.09161 0.28205 0.40552
 C852 C 0.92713 0.66455 0.42755
 H853 H 0.93461 0.64428 0.43479
 C854 C 0.90694 0.71661 0.40815
 C855 C 0.83520 0.57280 0.42734
 H856 H 0.85567 0.56558 0.43431
 C857 C 0.78257 0.59225 0.40870
 C858 C 1.16360 0.42593 0.42508
 H859 H 1.14335 0.43347 0.43230
 C860 C 1.21531 0.40520 0.40533
 O861 O 1.02728 0.39762 0.64044
 O862 O 1.02760 0.36482 0.67321
 C863 C 1.03714 0.38769 0.66319
 C864 C 1.06043 0.40257 0.67759
 C865 C 1.07043 0.39328 0.70383
 H866 H 1.06050 0.37554 0.71413
 O867 O 0.97331 0.60068 0.64056
 O868 O 0.97347 0.63329 0.67354
 C869 C 0.96380 0.61047 0.66352
 C870 C 0.94077 0.59550 0.67826
 C871 C 0.93080 0.60517 0.70434
 H872 H 0.94039 0.62350 0.71381
 O873 O 0.86029 0.52677 0.60218
 O874 O 0.82732 0.52672 0.63479
 C875 C 0.83733 0.53634 0.61198
 C876 C 0.82257 0.55936 0.59704
 C877 C 0.79653 0.56940 0.60679
 H878 H 0.78714 0.55987 0.62517
 O879 O 1.14024 0.47140 0.60041
 O880 O 1.17332 0.47108 0.63293
 C881 C 1.16317 0.46164 0.61007
 C882 C 1.17775 0.43866 0.59488
 C883 C 1.20402 0.42872 0.60413
 H884 H 1.21366 0.43825 0.62240
 O885 O 1.10002 0.35952 0.52632
 O886 O 1.13269 0.32658 0.52617
 C887 C 1.10990 0.33662 0.53590
 C888 C 1.09522 0.32194 0.55913
 C889 C 1.10485 0.29569 0.56861
 H890 H 1.12193 0.28552 0.55755
 O891 O 0.89903 0.63922 0.52822
 O892 O 0.86633 0.67215 0.52830
 C893 C 0.88921 0.66214 0.53785
 C894 C 0.90416 0.67684 0.56091
 C895 C 0.89475 0.70313 0.57054
 H896 H 0.87747 0.71332 0.55980
 O897 O 0.89877 0.47184 0.64073
 O898 O 0.86594 0.47187 0.67348
 C899 C 0.88883 0.46225 0.66359
 C900 C 0.90364 0.43916 0.67837
 C901 C 0.89417 0.42965 0.70466
 H902 H 0.87698 0.44057 0.71480
 O903 O 1.10215 0.52627 0.63933
 O904 O 1.13505 0.52601 0.67204
 C905 C 1.11215 0.53572 0.66223
 C906 C 1.09732 0.55871 0.67717
 C907 C 1.10671 0.56799 0.70360
 H908 H 1.12396 0.55708 0.71368
 O909 O 0.97215 0.35939 0.60210
 O910 O 0.97229 0.32637 0.63465
 C911 C 0.96259 0.33644 0.61187
 C912 C 0.93948 0.32182 0.59690
 C913 C 0.92939 0.29578 0.60653
 H914 H 0.93975 0.28571 0.62411
 O915 O 1.02808 0.63925 0.60199
 O916 O 1.02833 0.67204 0.63480
 C917 C 1.03780 0.66210 0.61187
 C918 C 1.06082 0.67678 0.59686
 C919 C 1.07061 0.70305 0.60622
 H920 H 1.06069 0.71314 0.62408
 O921 O 0.86100 0.39834 0.52713
 O922 O 0.82803 0.36570 0.52694
 C923 C 0.83805 0.38852 0.53663
 C924 C 0.82328 0.40336 0.55971
 C925 C 0.79691 0.39394 0.56907
 H926 H 0.78673 0.37683 0.55806
 O927 O 1.14068 0.60083 0.52729
 O928 O 1.17361 0.63350 0.52732
 C929 C 1.16364 0.61062 0.53686
 C930 C 1.17843 0.59555 0.55979
 C931 C 1.20450 0.60519 0.56992
 H932 H 1.21439 0.62333 0.56031
 O933 O 1.02818 0.60055 0.64025
 O934 O 1.02845 0.63312 0.67328
 C935 C 1.03794 0.61027 0.66314
 C936 C 1.06101 0.59513 0.67764
 C937 C 1.07072 0.60415 0.70404
 H938 H 1.06072 0.62186 0.71434
 O939 O 0.97238 0.39754 0.64093
 O940 O 0.97252 0.36475 0.67371
 C941 C 0.96286 0.38763 0.66383
 C942 C 0.93981 0.40261 0.67855
 C943 C 0.92996 0.39328 0.70481
 H944 H 0.93984 0.37538 0.71490
 O945 O 1.14064 0.52632 0.60077
 O946 O 1.17366 0.52600 0.63335
 C947 C 1.16364 0.53577 0.61059
 C948 C 1.17845 0.55885 0.59577
 C949 C 1.20453 0.56875 0.60556
 H950 H 1.21383 0.55909 0.62394
 O951 O 0.86059 0.47195 0.60187
 O952 O 0.82758 0.47182 0.63444
 C953 C 0.83766 0.46231 0.61158
 C954 C 0.82303 0.43935 0.59641
 C955 C 0.79668 0.42955 0.60556
 H956 H 0.78649 0.43935 0.62344
 O957 O 1.10192 0.63915 0.52760
 O958 O 1.13470 0.67197 0.52759
 C959 C 1.11186 0.66200 0.53724
 C960 C 1.09705 0.67669 0.56040
 C961 C 1.10652 0.70297 0.57003
 H962 H 1.12378 0.71315 0.55927
 O963 O 0.89897 0.35925 0.52720
 O964 O 0.86612 0.32650 0.52703
 C965 C 0.88894 0.33640 0.53679
 C966 C 0.90356 0.32173 0.56009
 C967 C 0.89373 0.29569 0.57006
 H968 H 0.87585 0.28572 0.56001
 O969 O 1.10192 0.47139 0.63917
 O970 O 1.13487 0.47115 0.67183
 C971 C 1.11187 0.46171 0.66200
 C972 C 1.09693 0.43877 0.67690
 C973 C 1.10652 0.42929 0.70316
 H974 H 1.12388 0.44011 0.71314
 O975 O 0.89908 0.52671 0.64045
 O976 O 0.86626 0.52680 0.67321
 C977 C 0.88918 0.53635 0.66330
 C978 C 0.90418 0.55936 0.67805
 C979 C 0.89446 0.56938 0.70405
 H980 H 0.87633 0.55967 0.71387
 O981 O 0.97320 0.63932 0.60221
 O982 O 0.97334 0.67213 0.63499
 C983 C 0.96364 0.66220 0.61214
 C984 C 0.94053 0.67692 0.59727
 C985 C 0.93075 0.70318 0.60668
 H986 H 0.94072 0.71325 0.62454
 O987 O 1.02694 0.35932 0.60181
 O988 O 1.02727 0.32626 0.63433
 C989 C 1.03664 0.33637 0.61143
 C990 C 1.05953 0.32175 0.59613
 C991 C 1.06957 0.29552 0.60538
 H992 H 1.06001 0.28542 0.62343
 O993 O 1.13925 0.39740 0.52612
 O994 O 1.17202 0.36455 0.52597
 C995 C 1.16220 0.38746 0.53560
 C996 C 1.17722 0.40235 0.55849
 C997 C 1.20348 0.39271 0.56805
 H998 H 1.21330 0.37475 0.55801
 O999 O 0.86032 0.60086 0.52820
 O1000 O 0.82750 0.63368 0.52833
 C1001 C 0.83745 0.61077 0.53786
 C1002 C 0.82270 0.59585 0.56087
 C1003 C 0.79672 0.60565 0.57096
 H1004 H 0.78688 0.62379 0.56125
 Cu1005 Cu 0.99965 0.38178 0.61809
 Cu1006 Cu 0.99994 0.34224 0.65727
 Cu1007 Cu 1.00067 0.61669 0.61796
 Cu1008 Cu 1.00092 0.65593 0.65746
 Cu1009 Cu 0.88338 0.38213 0.49971
 Cu1010 Cu 0.84388 0.34288 0.49952
 Cu1011 Cu 1.11624 0.38172 0.49877
 Cu1012 Cu 1.15551 0.34222 0.49864
 Cu1013 Cu 0.88293 0.61676 0.50077
 Cu1014 Cu 0.84359 0.65621 0.50088
 Cu1015 Cu 1.11785 0.61678 0.50002
 Cu1016 Cu 1.15729 0.65608 0.49999
 Cu1017 Cu 0.88297 0.49932 0.61804
 Cu1018 Cu 0.84348 0.49930 0.65728
 Cu1019 Cu 1.11795 0.49887 0.61664
 Cu1020 Cu 1.15754 0.49851 0.65581
 C1021 C 1.07376 0.42541 0.66439
 H1022 H 1.06650 0.43239 0.64396
 C1023 C 1.09369 0.40624 0.71659
 C1024 C 0.92755 0.57235 0.66549
 H1025 H 0.93490 0.56501 0.64522
 C1026 C 0.90778 0.59202 0.71752
 C1027 C 0.83528 0.57248 0.57384
 H1028 H 0.85552 0.56506 0.56645
 C1029 C 0.78331 0.59241 0.59367
 C1030 C 1.16471 0.42555 0.57182
 H1031 H 1.14429 0.43286 0.56481
 C1032 C 1.21722 0.40592 0.59059
 C1033 C 1.07242 0.33471 0.57290
 H1034 H 1.06515 0.35515 0.56593
 C1035 C 1.09247 0.28253 0.59204
 C1036 C 0.92717 0.66402 0.57428
 H1037 H 0.93428 0.64356 0.56718
 C1038 C 0.90767 0.71629 0.59371
 C1039 C 0.92658 0.42565 0.66561
 H1040 H 0.93372 0.43267 0.64516
 C1041 C 0.90695 0.40643 0.71788
 C1042 C 1.07436 0.57230 0.66447
 H1043 H 1.06727 0.56550 0.64391
 C1044 C 1.09373 0.59096 0.71705
 C1045 C 0.92654 0.33451 0.57357
 H1046 H 0.93395 0.35478 0.56628
 C1047 C 0.90622 0.28273 0.59346
 C1048 C 1.07409 0.66387 0.57384
 H1049 H 1.06694 0.64341 0.56678
 C1050 C 1.09364 0.71615 0.59320
 C1051 C 0.83607 0.42620 0.57338
 H1052 H 0.85659 0.43331 0.56650
 C1053 C 0.78365 0.40663 0.59229
 C1054 C 1.16579 0.57215 0.57264
 H1055 H 1.14551 0.56484 0.56522
 C1056 C 1.21789 0.59175 0.59254
 O1057 O 0.60182 1.02721 0.63908
 O1058 O 0.63467 1.02688 0.67185
 C1059 C 0.61179 1.03660 0.66203
 C1060 C 0.59707 1.05962 0.67703
 C1061 C 0.60681 1.06898 0.70328
 H1062 H 0.62402 1.05791 0.71322
 O1063 O 0.39927 0.97267 0.64019
 O1064 O 0.36659 0.97256 0.67308
 C1065 C 0.38942 0.96294 0.66303
 C1066 C 0.40433 0.93973 0.67755
 C1067 C 0.39471 0.92960 0.70358
 H1068 H 0.37641 0.93918 0.71313
 O1069 O 0.52784 1.14016 0.60189
 O1070 O 0.52822 1.17292 0.63471
 C1071 C 0.53758 1.16300 0.61173
 C1072 C 0.56049 1.17774 0.59662
 C1073 C 0.57033 1.20392 0.60612
 H1074 H 0.56054 1.21388 0.62413
 O1075 O 0.47222 0.85931 0.60062
 O1076 O 0.47241 0.82638 0.63326
 C1077 C 0.46261 0.83642 0.61051
 C1078 C 0.43932 0.82184 0.59574
 C1079 C 0.42915 0.79584 0.60547
 H1080 H 0.43876 0.78633 0.62377
 O1081 O 0.64029 1.10228 0.52696
 O1082 O 0.67325 1.13492 0.52706
 C1083 C 0.66323 1.11207 0.53662
 C1084 C 0.67791 1.09703 0.55965
 C1085 C 0.70387 1.10678 0.56995
 H1086 H 0.71374 1.12499 0.56044
 O1087 O 0.35970 0.89915 0.52728
 O1088 O 0.32656 0.86669 0.52727
 C1089 C 0.33674 0.88946 0.53690
 C1090 C 0.32222 0.90447 0.56001
 C1091 C 0.29587 0.89529 0.56971
 H1092 H 0.28560 0.87759 0.55964
 O1093 O 0.47315 1.10179 0.64070
 O1094 O 0.47344 1.13434 0.67373
 C1095 C 0.46370 1.11156 0.66368
 C1096 C 0.44067 1.09660 0.67839
 C1097 C 0.43086 1.10600 0.70462
 H1098 H 0.44079 1.12390 0.71467
 O1099 O 0.52752 0.89778 0.63865
 O1100 O 0.52779 0.86503 0.67148
 C1101 C 0.53732 0.88791 0.66146
 C1102 C 0.56048 0.90285 0.67604
 C1103 C 0.57033 0.89344 0.70226
 H1104 H 0.56039 0.87559 0.71236
 O1105 O 0.64036 0.97257 0.60011
 O1106 O 0.67331 0.97234 0.63278
 C1107 C 0.66330 0.96289 0.60988
 C1108 C 0.67806 0.93994 0.59482
 C1109 C 0.70423 0.93004 0.60439
 H1110 H 0.71357 0.93959 0.62278
 O1111 O 0.36089 1.02784 0.60198
 O1112 O 0.32803 1.02785 0.63470
 C1113 C 0.33803 1.03749 0.61188
 C1114 C 0.32337 1.06064 0.59702
 C1115 C 0.29719 1.07050 0.60657
 H1116 H 0.28717 1.06056 0.62445
 O1117 O 0.39912 1.14120 0.52826
 O1118 O 0.36633 1.17403 0.52845
 C1119 C 0.38921 1.16403 0.53802
 C1120 C 0.40411 1.17861 0.56121
 C1121 C 0.39443 1.20462 0.57142
 H1122 H 0.37640 1.21463 0.56169
 O1123 O 0.60155 0.85995 0.52614
 O1124 O 0.63426 0.82704 0.52608
 C1125 C 0.61138 0.83701 0.53568
 C1126 C 0.59638 0.82217 0.55860
 C1127 C 0.60568 0.79575 0.56799
 H1128 H 0.62300 0.78561 0.55727
 O1129 O 0.39932 1.02757 0.64059
 O1130 O 0.36662 1.02752 0.67346
 C1131 C 0.38949 1.03712 0.66352
 C1132 C 0.40439 1.06017 0.67828
 C1133 C 0.39493 1.06981 0.70455
 H1134 H 0.37765 1.05906 0.71469
 O1135 O 0.60172 0.97225 0.63853
 O1136 O 0.63456 0.97198 0.67130
 C1137 C 0.61166 0.96245 0.66131
 C1138 C 0.59682 0.93925 0.67592
 C1139 C 0.60635 0.92953 0.70214
 H1140 H 0.62369 0.94021 0.71231
 O1141 O 0.52715 0.85935 0.60009
 O1142 O 0.52741 0.82640 0.63272
 C1143 C 0.53685 0.83644 0.60984
 C1144 C 0.55986 0.82181 0.59476
 C1145 C 0.56946 0.79539 0.60386
 H1146 H 0.55937 0.78514 0.62153
 O1147 O 0.47301 1.14049 0.60240
 O1148 O 0.47329 1.17324 0.63524
 C1149 C 0.46354 1.16340 0.61238
 C1150 C 0.44051 1.17831 0.59754
 C1151 C 0.43058 1.20434 0.60741
 H1152 H 0.44013 1.21351 0.62591
 O1153 O 0.36096 1.10231 0.52805
 O1154 O 0.32803 1.13500 0.52825
 C1155 C 0.33806 1.11210 0.53773
 C1156 C 0.32342 1.09709 0.56078
 C1157 C 0.29723 1.10661 0.57059
 H1158 H 0.28706 1.12401 0.56002
 O1159 O 0.64016 0.89842 0.52605
 O1160 O 0.67304 0.86567 0.52601
 C1161 C 0.66311 0.88857 0.53559
 C1162 C 0.67795 0.90359 0.55851
 C1163 C 0.70416 0.89405 0.56829
 H1164 H 0.71409 0.87609 0.55835
 O1165 O 0.47265 0.89790 0.63907
 O1166 O 0.47285 0.86512 0.67188
 C1167 C 0.46322 0.88804 0.66203
 C1168 C 0.44037 0.90304 0.67698
 C1169 C 0.43044 0.89320 0.70298
 H1170 H 0.44016 0.87498 0.71265
 O1171 O 0.52805 1.10175 0.64047
 O1172 O 0.52846 1.13431 0.67350
 C1173 C 0.53790 1.11146 0.66333
 C1174 C 0.56106 1.09632 0.67772
 C1175 C 0.57123 1.10552 0.70392
 H1176 H 0.56156 1.12342 0.71420
 O1177 O 0.36059 0.97298 0.60179
 O1178 O 0.32775 0.97296 0.63453
 C1179 C 0.33764 0.96345 0.61161
 C1180 C 0.32272 0.94059 0.59657
 C1181 C 0.29636 0.93113 0.60596
 H1182 H 0.28630 0.94181 0.62335
 O1183 O 0.64022 1.02752 0.60040
 O1184 O 0.67316 1.02725 0.63307
 C1185 C 0.66315 1.03706 0.61031
 C1186 C 0.67789 1.06026 0.59558
 C1187 C 0.70386 1.07028 0.60553
 H1188 H 0.71311 1.06065 0.62395
 O1189 O 0.39767 0.86008 0.52719
 O1190 O 0.36470 0.82745 0.52721
 C1191 C 0.38766 0.83723 0.53678
 C1192 C 0.40258 0.82233 0.55975
 C1193 C 0.39268 0.79638 0.56981
 H1194 H 0.37444 0.78669 0.56012
 O1195 O 0.60146 1.14048 0.52705
 O1196 O 0.63423 1.17330 0.52711
 C1197 C 0.61138 1.16331 0.53674
 C1198 C 0.59657 1.17789 0.55999
 C1199 C 0.60613 1.20406 0.56983
 H1200 H 0.62344 1.21429 0.55918
 Cu1201 Cu 0.61774 0.99991 0.61625
 Cu1202 Cu 0.65722 0.99959 0.65553
 Cu1203 Cu 0.38331 1.00026 0.61787
 Cu1204 Cu 0.34396 1.00021 0.65725
 Cu1205 Cu 0.50048 1.11776 0.61810
 Cu1206 Cu 0.50089 1.15699 0.65761
 Cu1207 Cu 0.49985 0.88185 0.61632
 Cu1208 Cu 0.50015 0.84243 0.65562
 C1209 C 0.57406 1.07328 0.66453
 H1210 H 0.56669 1.06638 0.64410
 C1211 C 0.59433 1.09224 0.71670
 C1212 C 0.42740 0.92654 0.66463
 H1213 H 0.43469 0.93400 0.64438
 C1214 C 0.40787 0.90647 0.71660
 C1215 C 0.57362 1.16499 0.57341
 H1216 H 0.56642 1.14460 0.56624
 C1217 C 0.59334 1.21704 0.59316
 C1218 C 0.42611 0.83470 0.57265
 H1219 H 0.43362 0.85490 0.56526
 C1220 C 0.40597 0.78279 0.59240
 C1221 C 0.66529 1.07355 0.57240
 H1222 H 0.64510 1.06615 0.56485
 C1223 C 0.71719 1.09337 0.59263
 C1224 C 0.33538 0.92725 0.57347
 H1225 H 0.35590 0.93416 0.56639
 C1226 C 0.28294 0.90821 0.59287
 C1227 C 0.42739 1.07357 0.66549
 H1228 H 0.43452 1.06648 0.64506
 C1229 C 0.40781 1.09301 0.71771
 C1230 C 0.57377 0.92588 0.66313
 H1231 H 0.56657 0.93301 0.64273
 C1232 C 0.59345 0.90637 0.71531
 C1233 C 0.66528 0.92680 0.57167
 H1234 H 0.64490 0.93406 0.56446
 C1235 C 0.71764 0.90726 0.59101
 C1236 C 0.33622 1.07398 0.57401
 H1237 H 0.35661 1.06680 0.56681
 C1238 C 0.28415 1.09368 0.59377
 C1239 C 0.42737 1.16583 0.57421
 H1240 H 0.43471 1.14560 0.56671
 C1241 C 0.40771 1.21784 0.59426
 C1242 C 0.57335 0.83493 0.57199
 H1243 H 0.56634 0.85550 0.56513
 C1244 C 0.59255 0.78236 0.59088
 O1245 O 0.60066 0.97283 0.35974
 O1246 O 0.63321 0.97292 0.32672
 C1247 C 0.61040 0.96328 0.33678
 C1248 C 0.59545 0.94021 0.32208
 C1249 C 0.60491 0.93056 0.29583
 H1250 H 0.62218 0.94132 0.28566
 O1251 O 0.39838 1.02810 0.36020
 O1252 O 0.36555 1.02832 0.32741
 C1253 C 0.38853 1.03774 0.33731
 C1254 C 0.40357 1.06063 0.32249
 C1255 C 0.39411 1.07024 0.29622
 H1256 H 0.37625 1.06015 0.28626
 O1257 O 0.47259 1.14089 0.39866
 O1258 O 0.47240 1.17371 0.36590
 C1259 C 0.46294 1.16379 0.38883
 C1260 C 0.44006 1.17862 0.40393
 C1261 C 0.42987 1.20456 0.39409
 H1262 H 0.43914 1.21360 0.37543
 O1263 O 0.52677 0.85979 0.39791
 O1264 O 0.52660 0.82701 0.36510
 C1265 C 0.53633 0.83691 0.38794
 C1266 C 0.55945 0.82214 0.40275
 C1267 C 0.56927 0.79598 0.39315
 H1268 H 0.55928 0.78601 0.37524
 O1269 O 0.64003 0.89837 0.47123
 O1270 O 0.67289 0.86561 0.47111
 C1271 C 0.66291 0.88850 0.46157
 C1272 C 0.67758 0.90346 0.43852
 C1273 C 0.70355 0.89370 0.42834
 H1274 H 0.71343 0.87562 0.43811
 O1275 O 0.36070 1.10270 0.47317
 O1276 O 0.32780 1.13541 0.47334
 C1277 C 0.33777 1.11258 0.46362
 C1278 C 0.32295 1.09775 0.44052
 C1279 C 0.29702 1.10779 0.43043
 H1280 H 0.28785 1.12631 0.43994
 O1281 O 0.52722 1.10232 0.35994
 O1282 O 0.52715 1.13501 0.32704
 C1283 C 0.53675 1.11214 0.33701
 C1284 C 0.55975 1.09717 0.32228
 C1285 C 0.56973 1.10684 0.29622
 H1286 H 0.55996 1.12489 0.28630
 O1287 O 0.47179 0.89863 0.35985
 O1288 O 0.47155 0.86605 0.32683
 C1289 C 0.46206 0.88891 0.33695
 C1290 C 0.43901 0.90402 0.32237
 C1291 C 0.42932 0.89484 0.29602
 H1292 H 0.43932 0.87705 0.28586
 O1293 O 0.63948 1.02755 0.39824
 O1294 O 0.67220 1.02763 0.36539
 C1295 C 0.66234 1.03716 0.38833
 C1296 C 0.67721 1.06010 0.40330
 C1297 C 0.70346 1.06971 0.39377
 H1298 H 0.71336 1.05967 0.37587
 O1299 O 0.35954 0.97349 0.39877
 O1300 O 0.32656 0.97378 0.36615
 C1301 C 0.33655 0.96405 0.38894
 C1302 C 0.32176 0.94098 0.40374
 C1303 C 0.29544 0.93147 0.39425
 H1304 H 0.28528 0.94232 0.37702
 O1305 O 0.60183 1.14102 0.47215
 O1306 O 0.63467 1.17377 0.47208
 C1307 C 0.61176 1.16387 0.46249
 C1308 C 0.59684 1.17856 0.43938
 C1309 C 0.60672 1.20443 0.42901
 H1310 H 0.62493 1.21428 0.43857
 O1311 O 0.39799 0.86058 0.47234
 O1312 O 0.36506 0.82791 0.47231
 C1313 C 0.38800 0.83775 0.46274
 C1314 C 0.40283 0.82292 0.43970
 C1315 C 0.39334 0.79661 0.43028
 H1316 H 0.37614 0.78652 0.44122
 O1317 O 0.39797 0.97321 0.36019
 O1318 O 0.36513 0.97343 0.32741
 C1319 C 0.38798 0.96366 0.33732
 C1320 C 0.40274 0.94050 0.32255
 C1321 C 0.39334 0.93101 0.29618
 H1322 H 0.37608 0.94181 0.28602
 O1323 O 0.60100 1.02775 0.35965
 O1324 O 0.63360 1.02783 0.32667
 C1325 C 0.61080 1.03744 0.33677
 C1326 C 0.59595 1.06065 0.32221
 C1327 C 0.60563 1.07061 0.29616
 H1328 H 0.62302 1.06003 0.28599
 O1329 O 0.47188 0.85989 0.39807
 O1330 O 0.47158 0.82710 0.36528
 C1331 C 0.46212 0.83707 0.38819
 C1332 C 0.43904 0.82249 0.40322
 C1333 C 0.42914 0.79620 0.39399
 H1334 H 0.43899 0.78597 0.37616
 O1335 O 0.52747 1.14086 0.39840
 O1336 O 0.52734 1.17369 0.36566
 C1337 C 0.53706 1.16374 0.38848
 C1338 C 0.56022 1.17849 0.40326
 C1339 C 0.57037 1.20435 0.39324
 H1340 H 0.56085 1.21349 0.37471
 O1341 O 0.35927 0.89895 0.47243
 O1342 O 0.32617 0.86646 0.47236
 C1343 C 0.33627 0.88927 0.46282
 C1344 C 0.32160 0.90439 0.43984
 C1345 C 0.29528 0.89515 0.43002
 H1346 H 0.28514 0.87728 0.43988
 O1347 O 0.63987 1.10197 0.47213
 O1348 O 0.67291 1.13453 0.47212
 C1349 C 0.66283 1.11168 0.46254
 C1350 C 0.67752 1.09653 0.43959
 C1351 C 0.70380 1.10584 0.42975
 H1352 H 0.71337 1.12414 0.43931
 O1353 O 0.52666 0.89846 0.35961
 O1354 O 0.52653 0.86589 0.32660
 C1355 C 0.53619 0.88870 0.33666
 C1356 C 0.55922 0.90372 0.32199
 C1357 C 0.56905 0.89431 0.29576
 H1358 H 0.55918 0.87639 0.28571
 O1359 O 0.47237 1.10241 0.36006
 O1360 O 0.47225 1.13507 0.32715
 C1361 C 0.46271 1.11220 0.33715
 C1362 C 0.43977 1.09711 0.32240
 C1363 C 0.42993 1.10652 0.29615
 H1364 H 0.43948 1.12487 0.28674
 O1365 O 0.36000 1.02844 0.39886
 O1366 O 0.32704 1.02877 0.36621
 C1367 C 0.33717 1.03830 0.38905
 C1368 C 0.32270 1.06154 0.40399
 C1369 C 0.29683 1.07196 0.39417
 H1370 H 0.28690 1.06239 0.37602
 O1371 O 0.63982 0.97264 0.39764
 O1372 O 0.67249 0.97272 0.36474
 C1373 C 0.66265 0.96303 0.38759
 C1374 C 0.67747 0.93989 0.40231
 C1375 C 0.70339 0.92974 0.39230
 H1376 H 0.71250 0.93927 0.37380
 O1377 O 0.60143 0.85990 0.47134
 O1378 O 0.63413 0.82698 0.47123
 C1379 C 0.61120 0.83696 0.46174
 C1380 C 0.59604 0.82214 0.43889
 C1381 C 0.60554 0.79595 0.42902
 H1382 H 0.62397 0.78655 0.43849
 O1383 O 0.39928 1.14121 0.47335
 O1384 O 0.36651 1.17406 0.47349
 C1385 C 0.38937 1.16413 0.46382
 C1386 C 0.40419 1.17885 0.44070
 C1387 C 0.39441 1.20487 0.43070
 H1388 H 0.37651 1.21482 0.44071
 Cu1389 Cu 0.61698 1.00018 0.38212
 Cu1390 Cu 0.65614 1.00029 0.34256
 Cu1391 Cu 0.38226 1.00079 0.38278
 Cu1392 Cu 0.34276 1.00111 0.34353
 Cu1393 Cu 0.61757 1.11819 0.49956
 Cu1394 Cu 0.65705 1.15743 0.49959
 Cu1395 Cu 0.61752 0.88245 0.49870
 Cu1396 Cu 0.65688 0.84303 0.49861
 Cu1397 Cu 0.38332 1.11860 0.50069
 Cu1398 Cu 0.34386 1.15790 0.50089
 Cu1399 Cu 0.38195 0.88296 0.49981
 Cu1400 Cu 0.34230 0.84385 0.49977
 Cu1401 Cu 0.49991 1.11834 0.38255
 Cu1402 Cu 0.49976 1.15767 0.34315
 Cu1403 Cu 0.49930 0.88244 0.38216
 Cu1404 Cu 0.49905 0.84322 0.34264
 C1405 C 0.57247 0.92678 0.33488
 H1406 H 0.56533 0.93387 0.35532
 C1407 C 0.59210 0.90732 0.28270
 C1408 C 0.42665 1.07396 0.33521
 H1409 H 0.43384 1.06687 0.35563
 C1410 C 0.40726 1.09295 0.28272
 C1411 C 0.42729 1.16611 0.42742
 H1412 H 0.43475 1.14588 0.43480
 C1413 C 0.40719 1.21805 0.40756
 C1414 C 0.57276 0.83486 0.42586
 H1415 H 0.56556 0.85522 0.43314
 C1416 C 0.59205 0.78254 0.40632
 C1417 C 0.66494 0.92681 0.42561
 H1418 H 0.64476 0.93425 0.43314
 C1419 C 0.71678 0.90678 0.40541
 C1420 C 0.33542 1.07439 0.42739
 H1421 H 0.35557 1.06676 0.43483
 C1422 C 0.28366 1.09483 0.40740
 C1423 C 0.57289 1.07395 0.33500
 H1424 H 0.56561 1.06666 0.35531
 C1425 C 0.59289 1.09399 0.28321
 C1426 C 0.42569 0.92697 0.33537
 H1427 H 0.43280 0.93391 0.35587
 C1428 C 0.40633 0.90793 0.28290
 C1429 C 0.66459 1.07343 0.42644
 H1430 H 0.64417 1.06636 0.43366
 C1431 C 0.71709 1.09231 0.40700
 C1432 C 0.33456 0.92743 0.42665
 H1433 H 0.35505 0.93440 0.43381
 C1434 C 0.28219 0.90830 0.40704
 C1435 C 0.57336 1.16597 0.42657
 H1436 H 0.56587 1.14584 0.43416
 C1437 C 0.59343 1.21768 0.40620
 C1438 C 0.42581 0.83559 0.42618
 H1439 H 0.43299 0.85607 0.43312
 C1440 C 0.40608 0.78327 0.40713
 O1441 O 0.47210 0.39891 0.85898
 O1442 O 0.47202 0.36640 0.82590
 C1443 C 0.46246 0.38922 0.83602
 C1444 C 0.43944 0.40436 0.82142
 C1445 C 0.42964 0.39517 0.79512
 H1446 H 0.43956 0.37732 0.78496
 O1447 O 0.52726 0.60242 0.86022
 O1448 O 0.52740 0.63532 0.82755
 C1449 C 0.53694 0.61236 0.83740
 C1450 C 0.55995 0.59735 0.82261
 C1451 C 0.56992 0.60698 0.79651
 H1452 H 0.56042 0.62543 0.78720
 O1453 O 0.36056 0.47330 0.89844
 O1454 O 0.32741 0.47346 0.86598
 C1455 C 0.33758 0.46373 0.88871
 C1456 C 0.32298 0.44055 0.90356
 C1457 C 0.29675 0.43081 0.89404
 H1458 H 0.28654 0.44149 0.87674
 O1459 O 0.63991 0.52757 0.89846
 O1460 O 0.67281 0.52769 0.86579
 C1461 C 0.66287 0.53715 0.88871
 C1462 C 0.67774 0.55997 0.90389
 C1463 C 0.70402 0.56974 0.89452
 H1464 H 0.71341 0.56021 0.87614
 O1465 O 0.39859 0.35950 0.97196
 O1466 O 0.36574 0.32675 0.97181
 C1467 C 0.38860 0.33670 0.96219
 C1468 C 0.40338 0.32211 0.93894
 C1469 C 0.39375 0.29602 0.92888
 H1470 H 0.37585 0.28596 0.93876
 O1471 O 0.60162 0.63996 0.97302
 O1472 O 0.63448 0.67271 0.97310
 C1473 C 0.61156 0.66285 0.96348
 C1474 C 0.59667 0.67772 0.94048
 C1475 C 0.60619 0.70401 0.93094
 H1476 H 0.62360 0.71406 0.94162
 O1477 O 0.39867 0.52843 0.85983
 O1478 O 0.36562 0.52868 0.82727
 C1479 C 0.38858 0.53821 0.83711
 C1480 C 0.40338 0.56139 0.82244
 C1481 C 0.39355 0.57149 0.79648
 H1482 H 0.37550 0.56165 0.78660
 O1483 O 0.60114 0.47302 0.85967
 O1484 O 0.63389 0.47313 0.82685
 C1485 C 0.61101 0.46350 0.83675
 C1486 C 0.59617 0.44043 0.82194
 C1487 C 0.60593 0.43066 0.79585
 H1488 H 0.62333 0.44137 0.78585
 O1489 O 0.52689 0.36007 0.89726
 O1490 O 0.52692 0.32735 0.86440
 C1491 C 0.53649 0.33721 0.88733
 C1492 C 0.55951 0.32243 0.90227
 C1493 C 0.56949 0.29633 0.89263
 H1494 H 0.55970 0.28640 0.87459
 O1495 O 0.47247 0.64089 0.89895
 O1496 O 0.47246 0.67397 0.86647
 C1497 C 0.46288 0.66388 0.88929
 C1498 C 0.43991 0.67859 0.90445
 C1499 C 0.42976 0.70469 0.89492
 H1500 H 0.43910 0.71412 0.87647
 O1501 O 0.36055 0.60213 0.97350
 O1502 O 0.32750 0.63471 0.97355
 C1503 C 0.33759 0.61190 0.96391
 C1504 C 0.32289 0.59695 0.94085
 C1505 C 0.29639 0.60615 0.93152
 H1506 H 0.28613 0.62327 0.94244
 O1507 O 0.63916 0.39830 0.97181
 O1508 O 0.67203 0.36555 0.97174
 C1509 C 0.66208 0.38845 0.96221
 C1510 C 0.67696 0.40343 0.93928
 C1511 C 0.70303 0.39363 0.92940
 H1512 H 0.71220 0.37510 0.93890
 O1513 O 0.47236 0.60269 0.86007
 O1514 O 0.47239 0.63559 0.82740
 C1515 C 0.46276 0.61268 0.83723
 C1516 C 0.43970 0.59779 0.82243
 C1517 C 0.42959 0.60758 0.79642
 H1518 H 0.43907 0.62603 0.78710
 O1519 O 0.52702 0.39878 0.85900
 O1520 O 0.52705 0.36625 0.82594
 C1521 C 0.53670 0.38902 0.83609
 C1522 C 0.55989 0.40398 0.82159
 C1523 C 0.57005 0.39443 0.79553
 H1524 H 0.56030 0.37645 0.78546
 O1525 O 0.63980 0.47269 0.89805
 O1526 O 0.67270 0.47275 0.86538
 C1527 C 0.66267 0.46304 0.88816
 C1528 C 0.67728 0.43982 0.90299
 C1529 C 0.70335 0.42968 0.89337
 H1530 H 0.71339 0.43947 0.87541
 O1531 O 0.36048 0.52821 0.89868
 O1532 O 0.32728 0.52839 0.86627
 C1533 C 0.33746 0.53786 0.88910
 C1534 C 0.32280 0.56076 0.90433
 C1535 C 0.29632 0.57031 0.89527
 H1536 H 0.28614 0.56031 0.87749
 O1537 O 0.39896 0.64071 0.97371
 O1538 O 0.36608 0.67346 0.97372
 C1539 C 0.38899 0.66357 0.96412
 C1540 C 0.40382 0.67837 0.94106
 C1541 C 0.39399 0.70443 0.93124
 H1542 H 0.37602 0.71426 0.94125
 O1543 O 0.60057 0.35977 0.97178
 O1544 O 0.63335 0.32693 0.97164
 C1545 C 0.61048 0.33693 0.96206
 C1546 C 0.59568 0.32234 0.93883
 C1547 C 0.60535 0.29625 0.92890
 H1548 H 0.62272 0.28606 0.93953
 O1549 O 0.60123 0.52794 0.86004
 O1550 O 0.63397 0.52808 0.82720
 C1551 C 0.61110 0.53767 0.83721
 C1552 C 0.59618 0.56081 0.82258
 C1553 C 0.60577 0.57069 0.79648
 H1554 H 0.62367 0.56068 0.78652
 O1555 O 0.39858 0.47349 0.85945
 O1556 O 0.36558 0.47370 0.82683
 C1557 C 0.38851 0.46400 0.83658
 C1558 C 0.40326 0.44091 0.82169
 C1559 C 0.39376 0.43144 0.79535
 H1560 H 0.37649 0.44229 0.78525
 O1561 O 0.52736 0.64075 0.89888
 O1562 O 0.52746 0.67386 0.86642
 C1563 C 0.53704 0.66368 0.88919
 C1564 C 0.56018 0.67819 0.90423
 C1565 C 0.56999 0.70449 0.89501
 H1566 H 0.55999 0.71473 0.87727
 O1567 O 0.47205 0.36020 0.89731
 O1568 O 0.47198 0.32749 0.86443
 C1569 C 0.46244 0.33733 0.88738
 C1570 C 0.43953 0.32242 0.90239
 C1571 C 0.42965 0.29632 0.89268
 H1572 H 0.43912 0.28710 0.87417
 O1573 O 0.64003 0.60128 0.97296
 O1574 O 0.67303 0.63388 0.97306
 C1575 C 0.66299 0.61105 0.96343
 C1576 C 0.67775 0.59608 0.94046
 C1577 C 0.70405 0.60548 0.93087
 H1578 H 0.71407 0.62328 0.94099
 O1579 O 0.36065 0.39860 0.97231
 O1580 O 0.32763 0.36602 0.97216
 C1581 C 0.33769 0.38890 0.96268
 C1582 C 0.32299 0.40401 0.93973
 C1583 C 0.29677 0.39457 0.92989
 H1584 H 0.28676 0.37661 0.93972
 Cu1585 Cu 0.49951 0.38276 0.88141
 Cu1586 Cu 0.49947 0.34360 0.84184
 Cu1587 Cu 0.49984 0.61839 0.88278
 Cu1588 Cu 0.49993 0.65800 0.84369
 Cu1589 Cu 0.38289 0.50084 0.88233
 Cu1590 Cu 0.34315 0.50108 0.84333
 Cu1591 Cu 0.61725 0.50030 0.88234
 Cu1592 Cu 0.65662 0.50044 0.84299
 C1593 C 0.42622 0.42735 0.83443
 H1594 H 0.43339 0.43428 0.85491
 C1595 C 0.40665 0.40831 0.78204
 C1596 C 0.57302 0.57405 0.83529
 H1597 H 0.56572 0.56676 0.85559
 C1598 C 0.59268 0.59353 0.78311
 C1599 C 0.33584 0.42713 0.92654
 H1600 H 0.35626 0.43425 0.93372
 C1601 C 0.28368 0.40754 0.90684
 C1602 C 0.66496 0.57307 0.92708
 H1603 H 0.64451 0.56592 0.93415
 C1604 C 0.71752 0.59233 0.90814
 C1605 C 0.42650 0.33494 0.92575
 H1606 H 0.43380 0.35523 0.93313
 C1607 C 0.40695 0.28277 0.90603
 C1608 C 0.57355 0.66508 0.92709
 H1609 H 0.56638 0.64461 0.93406
 C1610 C 0.59317 0.71739 0.90796
 C1611 C 0.42667 0.57447 0.83504
 H1612 H 0.43412 0.56704 0.85525
 C1613 C 0.40666 0.59433 0.78313
 C1614 C 0.57302 0.42709 0.83453
 H1615 H 0.56564 0.43427 0.85485
 C1616 C 0.59328 0.40735 0.78267
 C1617 C 0.57264 0.33515 0.92549
 H1618 H 0.56536 0.35548 0.93277
 C1619 C 0.59262 0.28327 0.90553
 C1620 C 0.42701 0.66580 0.92776
 H1621 H 0.43445 0.64551 0.93498
 C1622 C 0.40693 0.71791 0.90842
 C1623 C 0.33583 0.57413 0.92724
 H1624 H 0.35644 0.56719 0.93407
 C1625 C 0.28311 0.59317 0.90847
 C1626 C 0.66446 0.42676 0.92618
 H1627 H 0.64419 0.43419 0.93348
 C1628 C 0.71658 0.40685 0.90665
 O1629 O 0.52746 0.39760 1.14058
 O1630 O 0.52751 0.36483 1.17339
 C1631 C 0.53709 0.38772 1.16345
 C1632 C 0.56015 0.40275 1.17808
 C1633 C 0.57002 0.39354 1.20440
 H1634 H 0.56015 0.37572 1.21461
 O1635 O 0.47272 0.60140 1.14015
 O1636 O 0.47286 0.63392 1.17323
 C1637 C 0.46316 0.61115 1.16310
 C1638 C 0.44000 0.59627 1.17768
 C1639 C 0.43009 0.60592 1.20376
 H1640 H 0.44073 0.62329 1.21390
 O1641 O 0.36024 0.52715 1.10153
 O1642 O 0.32735 0.52701 1.13422
 C1643 C 0.33731 0.53669 1.11142
 C1644 C 0.32251 0.55976 1.09660
 C1645 C 0.29633 0.56955 1.10627
 H1646 H 0.28707 0.55978 1.12456
 O1647 O 0.63959 0.47197 1.10124
 O1648 O 0.67260 0.47174 1.13384
 C1649 C 0.66251 0.46227 1.11097
 C1650 C 0.67712 0.43927 1.09587
 C1651 C 0.70337 0.42939 1.10521
 H1652 H 0.71346 0.43921 1.12313
 O1653 O 0.60067 0.35969 1.02677
 O1654 O 0.63346 0.32687 1.02657
 C1655 C 0.61065 0.33682 1.03634
 C1656 C 0.59610 0.32208 1.05963
 C1657 C 0.60601 0.29599 1.06929
 H1658 H 0.62318 0.28594 1.05826
 O1659 O 0.39859 0.64085 1.02859
 O1660 O 0.36574 0.67361 1.02869
 C1661 C 0.38864 0.66369 1.03827
 C1662 C 0.40360 0.67838 1.06136
 C1663 C 0.39396 0.70441 1.07156
 H1664 H 0.37586 0.71438 1.06191
 O1665 O 0.39903 0.47220 1.13984
 O1666 O 0.36623 0.47220 1.17261
 C1667 C 0.38912 0.46259 1.16269
 C1668 C 0.40384 0.43944 1.17746
 C1669 C 0.39403 0.42987 1.20357
 H1670 H 0.37689 0.44095 1.21360
 O1671 O 0.60127 0.52676 1.14000
 O1672 O 0.63412 0.52662 1.17277
 C1673 C 0.61121 0.53627 1.16289
 C1674 C 0.59635 0.55929 1.17772
 C1675 C 0.60568 0.56861 1.20414
 H1676 H 0.62286 0.55768 1.21431
 O1677 O 0.47279 0.35935 1.10167
 O1678 O 0.47270 0.32626 1.13416
 C1679 C 0.46319 0.33637 1.11131
 C1680 C 0.44027 0.32174 1.09607
 C1681 C 0.43054 0.29538 1.10518
 H1682 H 0.44041 0.28521 1.12304
 O1683 O 0.52767 0.64004 1.10199
 O1684 O 0.52793 0.67271 1.13491
 C1685 C 0.53741 0.66282 1.11197
 C1686 C 0.56048 0.67749 1.09705
 C1687 C 0.57030 0.70372 1.10647
 H1688 H 0.56038 0.71379 1.12435
 O1689 O 0.36034 0.39792 1.02716
 O1690 O 0.32736 0.36531 1.02708
 C1691 C 0.33741 0.38810 1.03676
 C1692 C 0.32273 0.40304 1.05986
 C1693 C 0.29662 0.39340 1.06987
 H1694 H 0.28667 0.37536 1.06012
 O1695 O 0.64010 0.60118 1.02778
 O1696 O 0.67310 0.63378 1.02791
 C1697 C 0.66306 0.61091 1.03741
 C1698 C 0.67780 0.59579 1.06034
 C1699 C 0.70405 0.60516 1.07017
 H1700 H 0.71408 0.62305 1.06024
 O1701 O 0.52759 0.60139 1.14034
 O1702 O 0.52778 0.63388 1.17345
 C1703 C 0.53725 0.61103 1.16331
 C1704 C 0.56019 0.59583 1.17794
 C1705 C 0.56986 0.60492 1.20434
 H1706 H 0.55992 0.62272 1.21453
 O1707 O 0.47261 0.39744 1.14054
 O1708 O 0.47241 0.36463 1.17330
 C1709 C 0.46285 0.38753 1.16334
 C1710 C 0.43969 0.40256 1.17785
 C1711 C 0.42936 0.39308 1.20390
 H1712 H 0.43886 0.37497 1.21397
 O1713 O 0.63990 0.52686 1.10162
 O1714 O 0.67288 0.52665 1.13425
 C1715 C 0.66287 0.53636 1.11146
 C1716 C 0.67770 0.55937 1.09657
 C1717 C 0.70389 0.56914 1.10622
 H1718 H 0.71315 0.55947 1.12459
 O1719 O 0.36042 0.47221 1.10131
 O1720 O 0.32752 0.47211 1.13398
 C1721 C 0.33752 0.46255 1.11111
 C1722 C 0.32276 0.43953 1.09610
 C1723 C 0.29664 0.42963 1.10575
 H1724 H 0.28731 0.43920 1.12415
 O1725 O 0.60166 0.63983 1.02789
 O1726 O 0.63451 0.67258 1.02800
 C1727 C 0.61160 0.66267 1.03756
 C1728 C 0.59676 0.67738 1.06066
 C1729 C 0.60625 0.70363 1.07033
 H1730 H 0.62355 0.71379 1.05961
 O1731 O 0.39919 0.35968 1.02688
 O1732 O 0.36637 0.32690 1.02677
 C1733 C 0.38929 0.33678 1.03640
 C1734 C 0.40417 0.32195 1.05942
 C1735 C 0.39479 0.29557 1.06880
 H1736 H 0.37761 0.28540 1.05788
 O1737 O 0.60129 0.47189 1.13999
 O1738 O 0.63417 0.47177 1.17273
 C1739 C 0.61123 0.46225 1.16284
 C1740 C 0.59636 0.43924 1.17767
 C1741 C 0.60583 0.42984 1.20400
 H1742 H 0.62303 0.44079 1.21410
 O1743 O 0.39872 0.52715 1.14011
 O1744 O 0.36594 0.52711 1.17290
 C1745 C 0.38879 0.53677 1.16297
 C1746 C 0.40361 0.55994 1.17766
 C1747 C 0.39390 0.57000 1.20370
 H1748 H 0.37588 0.56018 1.21362
 O1749 O 0.47278 0.64041 1.10219
 O1750 O 0.47299 0.67307 1.13511
 C1751 C 0.46328 0.66328 1.11221
 C1752 C 0.44023 0.67820 1.09744
 C1753 C 0.43034 0.70423 1.10732
 H1754 H 0.43999 0.71341 1.12576
 O1755 O 0.52760 0.35922 1.10202
 O1756 O 0.52774 0.32619 1.13456
 C1757 C 0.53731 0.33630 1.11175
 C1758 C 0.56040 0.32179 1.09663
 C1759 C 0.57074 0.29573 1.10609
 H1760 H 0.56128 0.28567 1.12420
 O1761 O 0.63922 0.39821 1.02669
 O1762 O 0.67210 0.36547 1.02656
 C1763 C 0.66215 0.38832 1.03622
 C1764 C 0.67693 0.40313 1.05932
 C1765 C 0.70321 0.39359 1.06890
 H1766 H 0.71334 0.37632 1.05811
 O1767 O 0.36035 0.60196 1.02830
 O1768 O 0.32733 0.63456 1.02839
 C1769 C 0.33734 0.61164 1.03784
 C1770 C 0.32252 0.59641 1.06062
 C1771 C 0.29628 0.60578 1.07044
 H1772 H 0.28631 0.62378 1.06061
 Cu1773 Cu 0.50012 0.38169 1.11797
 Cu1774 Cu 0.50007 0.34216 1.15714
 Cu1775 Cu 0.50019 0.61756 1.11786
 Cu1776 Cu 0.50041 0.65667 1.15750
 Cu1777 Cu 0.38299 0.38218 0.99959
 Cu1778 Cu 0.34348 0.34296 0.99945
 Cu1779 Cu 0.61660 0.38226 0.99926
 Cu1780 Cu 0.65600 0.34289 0.99911
 Cu1781 Cu 0.38292 0.61817 1.00107
 Cu1782 Cu 0.34336 0.65738 1.00109
 Cu1783 Cu 0.61755 0.61730 1.00041
 Cu1784 Cu 0.65708 0.65653 1.00053
 Cu1785 Cu 0.38289 0.49970 1.11742
 Cu1786 Cu 0.34347 0.49956 1.15672
 Cu1787 Cu 0.61722 0.49939 1.11743
 Cu1788 Cu 0.65675 0.49917 1.15668
 C1789 C 0.57340 0.42570 1.16499
 H1790 H 0.56625 0.43262 1.14450
 C1791 C 0.59308 0.40670 1.21734
 C1792 C 0.42676 0.57315 1.16491
 H1793 H 0.43407 0.56585 1.14461
 C1794 C 0.40672 0.59320 1.21673
 C1795 C 0.33525 0.57313 1.07358
 H1796 H 0.35563 0.56597 1.06633
 C1797 C 0.28285 0.59240 1.09308
 C1798 C 0.66416 0.42610 1.07281
 H1799 H 0.64371 0.43330 1.06578
 C1800 C 0.71641 0.40636 1.09213
 C1801 C 0.57318 0.33471 1.07331
 H1802 H 0.56569 0.35501 1.06618
 C1803 C 0.59379 0.28286 1.09282
 C1804 C 0.42696 0.66566 1.07423
 H1805 H 0.43428 0.64542 1.06674
 C1806 C 0.40739 0.71770 1.09428
 C1807 C 0.42681 0.42581 1.16488
 H1808 H 0.43424 0.43292 1.14456
 C1809 C 0.40627 0.40634 1.21672
 C1810 C 0.57348 0.57290 1.16489
 H1811 H 0.56643 0.56606 1.14433
 C1812 C 0.59278 0.59170 1.21745
 C1813 C 0.42704 0.33477 1.07307
 H1814 H 0.43412 0.35530 1.06620
 C1815 C 0.40762 0.28230 1.09195
 C1816 C 0.57375 0.66460 1.07403
 H1817 H 0.56658 0.64416 1.06693
 C1818 C 0.59337 0.71680 1.09351
 C1819 C 0.33543 0.42633 1.07292
 H1820 H 0.35573 0.43363 1.06559
 C1821 C 0.28323 0.40676 1.09253
 C1822 C 0.66500 0.57263 1.07344
 H1823 H 0.64462 0.56548 1.06618
 C1824 C 0.71744 0.59186 1.09290
 C1825 C 1.13166 1.12928 1.29681
 C1826 C 1.14306 1.10841 1.28143
 C1827 C 1.13180 1.09844 1.25418
 C1828 C 1.10515 1.10193 1.24539
 H1829 H 1.16266 1.09873 1.28749
 H1830 H 1.14666 1.08726 1.24110
 H1831 H 1.11324 1.13982 1.28854
 H1832 H 1.09031 1.11337 1.25828
 C1833 C 1.12640 0.62507 0.79941
 C1834 C 1.14143 0.61073 0.78027
 C1835 C 1.13022 0.59921 0.75358
 C1836 C 1.10352 0.60177 0.74463
 H1837 H 1.16376 0.60774 0.78352
 H1838 H 1.14554 0.58887 0.74033
 H1839 H 1.10440 0.62945 0.79582
 H1840 H 1.08835 0.61335 0.75692
 C1841 C 0.63184 1.13095 0.79495
 C1842 C 0.64328 1.11024 0.77938
 C1843 C 0.63170 1.10007 0.75235
 C1844 C 0.60486 1.10312 0.74402
 H1845 H 0.66311 1.10085 0.78509
 H1846 H 0.64651 1.08910 0.73904
 H1847 H 0.61309 1.14118 0.78706
 H1848 H 0.59006 1.11438 0.75711
 C1849 C 0.62557 0.62501 1.30012
 C1850 C 0.64069 0.61155 1.28043
 C1851 C 0.62936 0.60002 1.25381
 C1852 C 0.60265 0.60262 1.24496
 H1853 H 0.66316 0.60919 1.28324
 H1854 H 0.64464 0.58972 1.24049
 H1855 H 0.60336 0.62872 1.29706
 H1856 H 0.58758 0.61437 1.25723
 C1857 C 0.86924 0.86811 1.29498
 C1858 C 0.88983 0.85652 1.27934
 C1859 C 0.90008 0.86801 1.25236
 C1860 C 0.89741 0.89489 1.24413
 H1861 H 0.89904 0.83657 1.28490
 H1862 H 0.91083 0.85309 1.23898
 H1863 H 0.85918 0.88698 1.28716
 H1864 H 0.88636 0.90982 1.25727
 C1865 C 0.87354 0.37329 0.80047
 C1866 C 0.85874 0.38738 0.78097
 C1867 C 0.87019 0.39837 0.75417
 C1868 C 0.89690 0.39546 0.74533
 H1869 H 0.83644 0.39071 0.78411
 H1870 H 0.85503 0.40881 0.74081
 H1871 H 0.89549 0.36855 0.79703
 H1872 H 0.91188 0.38368 0.75769
 C1873 C 0.37372 0.87090 0.79752
 C1874 C 0.37140 0.89777 0.78906
 C1875 C 0.38340 0.90935 0.76274
 C1876 C 0.39742 0.89434 0.74335
 H1877 H 0.36008 0.91267 0.80199
 H1878 H 0.38009 0.93162 0.75943
 H1879 H 0.38643 0.85623 0.78574
 H1880 H 0.40202 0.87240 0.74691
 C1881 C 0.36747 0.36759 1.29435
 C1882 C 0.35601 0.38777 1.27814
 C1883 C 0.36831 0.39817 1.25154
 C1884 C 0.39532 0.39518 1.24374
 H1885 H 0.33562 0.39648 1.28290
 H1886 H 0.35377 0.40914 1.23792
 H1887 H 0.38694 0.35805 1.28743
 H1888 H 0.40991 0.38378 1.25695
 C1889 C 0.86909 1.13062 0.70386
 C1890 C 0.85749 1.11059 0.72017
 C1891 C 0.86899 1.10120 0.74749
 C1892 C 0.89583 1.10430 0.75582
 H1893 H 0.83755 1.10119 0.71488
 H1894 H 0.85414 1.09057 0.76103
 H1895 H 0.88781 1.14107 0.71153
 H1896 H 0.91071 1.11531 0.74262
 C1897 C 0.87459 0.62410 0.19891
 C1898 C 0.89918 0.63133 0.21100
 C1899 C 0.91055 0.61842 0.23697
 C1900 C 0.89510 0.60441 0.25602
 H1901 H 0.91269 0.64694 0.20165
 H1902 H 0.93271 0.62190 0.24081
 H1903 H 0.86298 0.60671 0.20788
 H1904 H 0.87300 0.60062 0.25223
 C1905 C 0.37128 1.12752 0.20217
 C1906 C 0.39837 1.12927 0.21005
 C1907 C 0.40990 1.11846 0.23694
 C1908 C 0.39549 1.10282 0.25552
 H1909 H 0.41340 1.13943 0.19633
 H1910 H 0.43170 1.12351 0.24098
 H1911 H 0.35619 1.11670 0.21522
 H1912 H 0.37434 1.09607 0.25071
 C1913 C 0.37192 0.62608 0.70074
 C1914 C 0.39818 0.63040 0.71030
 C1915 C 0.40958 0.61917 0.73708
 C1916 C 0.39466 0.60473 0.75625
 H1917 H 0.41280 0.64250 0.69778
 H1918 H 0.43165 0.62323 0.74082
 H1919 H 0.35770 0.61260 0.71221
 H1920 H 0.37289 0.59960 0.75234
 C1921 C 1.12650 0.87202 0.70181
 C1922 C 1.14109 0.88679 0.72099
 C1923 C 1.12953 0.89834 0.74747
 C1924 C 1.10251 0.89676 0.75556
 H1925 H 1.16339 0.89015 0.71793
 H1926 H 1.14477 0.90818 0.76121
 H1927 H 1.10464 0.86696 0.70538
 H1928 H 1.08726 0.88584 0.74275
 C1929 C 1.13039 0.36997 0.20226
 C1930 C 1.14199 0.39000 0.21858
 C1931 C 1.13045 0.39945 0.24585
 C1932 C 1.10355 0.39656 0.25398
 H1933 H 1.16200 0.39929 0.21336
 H1934 H 1.14531 0.40997 0.25948
 H1935 H 1.11172 0.35945 0.20993
 H1936 H 1.08866 0.38566 0.24067
 C1937 C 0.62614 0.87340 0.20074
 C1938 C 0.64097 0.88661 0.22083
 C1939 C 0.62922 0.89823 0.24720
 C1940 C 0.60229 0.89604 0.25547
 H1941 H 0.66350 0.88879 0.21851
 H1942 H 0.64434 0.90836 0.26085
 H1943 H 0.60385 0.86982 0.20332
 H1944 H 0.58732 0.88442 0.24294
 C1945 C 0.62805 0.37312 0.70111
 C1946 C 0.64274 0.38643 0.72123
 C1947 C 0.63073 0.39838 0.74736
 C1948 C 0.60380 0.39588 0.75561
 H1949 H 0.66531 0.38843 0.71913
 H1950 H 0.64568 0.40889 0.76090
 H1951 H 0.60568 0.36990 0.70342
 H1952 H 0.58907 0.38382 0.74321
 C1953 C 1.29761 1.12648 1.12824
 C1954 C 1.29001 1.12755 1.10104
 C1955 C 1.26316 1.11660 1.08955
 C1956 C 1.24452 1.10114 1.10407
 H1957 H 1.30387 1.13734 1.08591
 H1958 H 1.25917 1.12142 1.06770
 H1959 H 1.28442 1.11600 1.14345
 H1960 H 1.24932 1.09453 1.12525
 C1961 C 1.30193 0.62403 0.62303
 C1962 C 1.28968 0.59959 0.63046
 C1963 C 1.26381 0.58811 0.61743
 C1964 C 1.24478 0.60349 0.60328
 H1965 H 1.29889 0.58622 0.64629
 H1966 H 1.25999 0.56598 0.62099
 H1967 H 1.29326 0.63538 0.60531
 H1968 H 1.24858 0.62558 0.59945
 C1969 C 0.80065 1.12592 0.62457
 C1970 C 0.78849 1.10122 0.63129
 C1971 C 0.76298 1.08974 0.61761
 C1972 C 0.74394 1.10520 0.60360
 H1973 H 0.79757 1.08755 0.64693
 H1974 H 0.75933 1.06750 0.62071
 H1975 H 0.79239 1.13737 0.60672
 H1976 H 0.74759 1.12739 0.60016
 C1977 C 0.79739 0.62777 1.12899
 C1978 C 0.78973 0.60061 1.13026
 C1979 C 0.76285 0.58919 1.11929
 C1980 C 0.74465 0.60348 1.10303
 H1981 H 0.80363 0.58551 1.14010
 H1982 H 0.75861 0.56750 1.12462
 H1983 H 0.78405 0.64299 1.11868
 H1984 H 0.74988 0.62442 1.09594
 C1985 C 1.29599 0.86957 0.86896
 C1986 C 1.28023 0.89013 0.85748
 C1987 C 1.25303 0.90004 0.86888
 C1988 C 1.24447 0.89679 0.89559
 H1989 H 1.28597 0.89973 0.83779
 H1990 H 1.23978 0.91106 0.85404
 H1991 H 1.28813 0.85929 0.88768
 H1992 H 1.25746 0.88545 0.91043
 C1993 C 1.29277 0.36681 0.36581
 C1994 C 1.27696 0.35534 0.38629
 C1995 C 1.25019 0.36730 0.39669
 C1996 C 1.24234 0.39433 0.39405
 H1997 H 1.28226 0.33524 0.39533
 H1998 H 1.23663 0.35262 0.40753
 H1999 H 1.28521 0.38587 0.35592
 H2000 H 1.25561 0.40904 0.38289
 C2001 C 0.79598 0.86937 0.36910
 C2002 C 0.78816 0.89642 0.36670
 C2003 C 0.76175 0.90846 0.37820
 C2004 C 0.74358 0.89461 0.39485
 H2005 H 0.80162 0.91100 0.35557
 H2006 H 0.75776 0.93016 0.37274
 H2007 H 0.78322 0.85475 0.38087
 H2008 H 0.74842 0.87356 0.40184
 C2009 C 0.80082 0.37606 0.87506
 C2010 C 0.78837 0.36883 0.89944
 C2011 C 0.76240 0.38191 0.91060
 C2012 C 0.74356 0.39615 0.89508
 H2013 H 0.79755 0.35318 0.91305
 H2014 H 0.75838 0.37834 0.93269
 H2015 H 0.79222 0.39365 0.86345
 H2016 H 0.74758 0.40009 0.87306
 C2017 C 0.70281 0.87199 1.12706
 C2018 C 0.71086 0.89901 1.12899
 C2019 C 0.73768 0.91047 1.11796
 C2020 C 0.75626 0.89595 1.10238
 H2021 H 0.69736 0.91402 1.13946
 H2022 H 0.74176 0.93229 1.12289
 H2023 H 0.71558 0.85696 1.11582
 H2024 H 0.75148 0.87476 1.09579
 C2025 C 0.70466 0.37030 0.63052
 C2026 C 0.72104 0.35805 0.61092
 C2027 C 0.74810 0.36949 0.60078
 C2028 C 0.75624 0.39642 0.60315
 H2029 H 0.71599 0.33757 0.60259
 H2030 H 0.76170 0.35447 0.59044
 H2031 H 0.71199 0.38957 0.64016
 H2032 H 0.74301 0.41150 0.61387
 C2033 C 0.20152 0.87275 0.62657
 C2034 C 0.22077 0.88731 0.64128
 C2035 C 0.24727 0.89892 0.62978
 C2036 C 0.25553 0.89715 0.60284
 H2037 H 0.21779 0.89038 0.66361
 H2038 H 0.26094 0.90882 0.64504
 H2039 H 0.20496 0.86807 0.60462
 H2040 H 0.24281 0.88610 0.58760
 C2041 C 0.19921 0.37478 1.12348
 C2042 C 0.21147 0.39940 1.13034
 C2043 C 0.23721 0.41069 1.11698
 C2044 C 0.25628 0.39510 1.10315
 H2045 H 0.20240 0.41310 1.14595
 H2046 H 0.24102 0.43289 1.12018
 H2047 H 0.20765 0.36325 1.10575
 H2048 H 0.25250 0.37296 1.09959
 C2049 C 0.70301 1.12779 0.87165
 C2050 C 0.72167 1.14225 0.88720
 C2051 C 0.74795 1.13059 0.89927
 C2052 C 0.75636 1.10369 0.89718
 H2053 H 0.71845 1.16451 0.89066
 H2054 H 0.76136 1.14573 0.90970
 H2055 H 0.70676 1.10595 0.86664
 H2056 H 0.74384 1.08861 0.88571
 C2057 C 0.70128 0.62749 0.37477
 C2058 C 0.70942 0.60047 0.37319
 C2059 C 0.73634 0.58917 0.38421
 C2060 C 0.75534 0.60401 0.39892
 H2061 H 0.69589 0.58526 0.36303
 H2062 H 0.74019 0.56716 0.37991
 H2063 H 0.71398 0.64269 0.38587
 H2064 H 0.75092 0.62548 0.40488
 C2065 C 0.20035 1.12560 0.37402
 C2066 C 0.21212 1.13305 0.39870
 C2067 C 0.23792 1.12012 0.41050
 C2068 C 0.25704 1.10585 0.39537
 H2069 H 0.20256 1.14876 0.41196
 H2070 H 0.24152 1.12372 0.43266
 H2071 H 0.20938 1.10799 0.36280
 H2072 H 0.25351 1.10201 0.37324
 C2073 C 0.20059 0.62560 0.87433
 C2074 C 0.21979 0.64069 0.88854
 C2075 C 0.24648 0.62953 0.90013
 C2076 C 0.25551 0.60287 0.89756
 H2077 H 0.21657 0.66303 0.89139
 H2078 H 0.25968 0.64487 0.91051
 H2079 H 0.20412 0.60357 0.87010
 H2080 H 0.24330 0.58769 0.88588
 C2081 C 1.12921 1.29911 1.12595
 C2082 C 1.10297 1.28956 1.13042
 C2083 C 1.09133 1.26306 1.11880
 C2084 C 1.10622 1.24371 1.10459
 H2085 H 1.08854 1.30183 1.14300
 H2086 H 1.06917 1.25954 1.12261
 H2087 H 1.14310 1.28802 1.11182
 H2088 H 1.12813 1.24733 1.09981
 C2089 C 1.12713 0.79797 0.62810
 C2090 C 1.14189 0.77874 0.61358
 C2091 C 1.13046 0.75210 0.60216
 C2092 C 1.10361 0.74355 0.60433
 H2093 H 1.16417 0.78190 0.61026
 H2094 H 1.14570 0.73862 0.59199
 H2095 H 1.10523 0.79437 0.63294
 H2096 H 1.08844 0.75607 0.61569
 C2097 C 0.62768 1.29846 0.62814
 C2098 C 0.64248 1.27819 0.61513
 C2099 C 0.63063 1.25205 0.60309
 C2100 C 0.60358 1.24415 0.60468
 H2101 H 0.66508 1.28022 0.61337
 H2102 H 0.64575 1.23825 0.59315
 H2103 H 0.60531 1.29617 0.63138
 H2104 H 0.58854 1.25680 0.61608
 C2105 C 0.62683 0.79904 1.12744
 C2106 C 0.64180 0.77915 1.11409
 C2107 C 0.63027 0.75262 1.10252
 C2108 C 0.60342 0.74412 1.10475
 H2109 H 0.66428 0.78175 1.11173
 H2110 H 0.64549 0.73910 1.09236
 H2111 H 0.60460 0.79617 1.13117
 H2112 H 0.58836 0.75657 1.11633
 C2113 C 0.87173 1.29913 0.87510
 C2114 C 0.89861 1.29073 0.87256
 C2115 C 0.91014 1.26394 0.88363
 C2116 C 0.89562 1.24513 0.89893
 H2117 H 0.91349 1.30402 0.86164
 H2118 H 0.93203 1.26002 0.87886
 H2119 H 0.85691 1.28668 0.88694
 H2120 H 0.87428 1.24961 0.90525
 C2121 C 0.86986 0.79595 0.37189
 C2122 C 0.89715 0.78861 0.37089
 C2123 C 0.90910 0.76233 0.38268
 C2124 C 0.89466 0.74339 0.39784
 H2125 H 0.91205 0.80231 0.36052
 H2126 H 0.93120 0.75888 0.37852
 H2127 H 0.85490 0.78315 0.38318
 H2128 H 0.87310 0.74751 0.40369
 C2129 C 0.36820 1.29464 0.36833
 C2130 C 0.39579 1.28858 0.36788
 C2131 C 0.40832 1.26258 0.37966
 C2132 C 0.39491 1.24480 0.39705
 H2133 H 0.41027 1.30298 0.35785
 H2134 H 0.42996 1.25867 0.37390
 H2135 H 0.35356 1.28064 0.37860
 H2136 H 0.37414 1.25001 0.40465
 C2137 C 0.37040 0.79819 0.87352
 C2138 C 0.39753 0.79033 0.87186
 C2139 C 0.40931 0.76386 0.88341
 C2140 C 0.39472 0.74476 0.89822
 H2141 H 0.41245 0.80377 0.86119
 H2142 H 0.43142 0.76036 0.87932
 H2143 H 0.35551 0.78565 0.88519
 H2144 H 0.37310 0.74879 0.90387
 C2145 C 1.12575 0.69985 0.87366
 C2146 C 1.11170 0.71915 0.85856
 C2147 C 1.10014 0.74584 0.86976
 C2148 C 1.10297 0.75494 0.89635
 H2149 H 1.10892 0.71600 0.83621
 H2150 H 1.08962 0.75899 0.85447
 H2151 H 1.12984 0.70327 0.89573
 H2152 H 1.11486 0.74279 0.91142
 C2153 C 1.12760 0.20186 0.36985
 C2154 C 1.12776 0.20926 0.39712
 C2155 C 1.11640 0.23597 0.40852
 C2156 C 1.10174 0.25500 0.39365
 H2157 H 1.13711 0.19527 0.41244
 H2158 H 1.12027 0.23958 0.43063
 H2159 H 1.11745 0.21508 0.35441
 H2160 H 1.09606 0.25067 0.37209
 C2161 C 0.62467 0.70015 0.37242
 C2162 C 0.62823 0.70971 0.39877
 C2163 C 0.61643 0.73635 0.40988
 C2164 C 0.60231 0.75550 0.39461
 H2165 H 0.64029 0.69743 0.41363
 H2166 H 0.62004 0.74015 0.43201
 H2167 H 0.61118 0.71133 0.35797
 H2168 H 0.59754 0.75153 0.37278
 C2169 C 0.62793 0.20296 0.86884
 C2170 C 0.64206 0.22205 0.88414
 C2171 C 0.63011 0.24839 0.89567
 C2172 C 0.60301 0.25619 0.89401
 H2173 H 0.66429 0.21904 0.88801
 H2174 H 0.64513 0.26221 0.90574
 H2175 H 0.60621 0.20655 0.86319
 H2176 H 0.58796 0.24329 0.88291
 C2177 C 0.87375 0.70013 1.12698
 C2178 C 0.85860 0.72012 1.11395
 C2179 C 0.87010 0.74649 1.10198
 C2180 C 0.89698 0.75499 1.10406
 H2181 H 0.83605 0.71769 1.11215
 H2182 H 0.85486 0.75995 1.09178
 H2183 H 0.89612 0.70278 1.12998
 H2184 H 0.91204 0.74263 1.11575
 C2185 C 0.87139 0.20098 0.62733
 C2186 C 0.88415 0.22125 0.64234
 C2187 C 0.89622 0.24748 0.63066
 C2188 C 0.89449 0.25567 0.60368
 H2189 H 0.88570 0.21913 0.66492
 H2190 H 0.90628 0.26110 0.64585
 H2191 H 0.86855 0.20334 0.60492
 H2192 H 0.88290 0.24320 0.58864
 C2193 C 0.37137 0.70037 0.62449
 C2194 C 0.39773 0.70988 0.62829
 C2195 C 0.40908 0.73651 0.61668
 C2196 C 0.39393 0.75594 0.60283
 H2197 H 0.41251 0.69743 0.64031
 H2198 H 0.43130 0.74000 0.62013
 H2199 H 0.35700 0.71163 0.61096
 H2200 H 0.37196 0.75230 0.59834
 C2201 C 0.37406 0.20030 1.12605
 C2202 C 0.35919 0.21994 1.11220
 C2203 C 0.37076 0.24640 1.10060
 C2204 C 0.39760 0.25490 1.10295
 H2205 H 0.33674 0.21726 1.10962
 H2206 H 0.35557 0.25992 1.09039
 H2207 H 0.39621 0.20330 1.13009
 H2208 H 0.41266 0.24243 1.11453
 C2209 C 1.12752 1.13008 0.70245
 C2210 C 1.14190 1.11505 0.72157
 C2211 C 1.13012 1.10350 0.74796
 C2212 C 1.10308 1.10523 0.75594
 H2213 H 1.16417 1.11147 0.71857
 H2214 H 1.14525 1.09349 0.76171
 H2215 H 1.10570 1.13535 0.70600
 H2216 H 1.08794 1.11631 0.74312
 C2217 C 1.12668 0.62636 0.19982
 C2218 C 1.10234 0.63407 0.21207
 C2219 C 1.09046 0.62060 0.23751
 C2220 C 1.10548 0.60569 0.25625
 H2221 H 1.08942 0.65049 0.20324
 H2222 H 1.06835 0.62445 0.24125
 H2223 H 1.13755 0.60820 0.20821
 H2224 H 1.12755 0.60163 0.25253
 C2225 C 0.62832 1.13028 0.20288
 C2226 C 0.64266 1.11602 0.22261
 C2227 C 0.63054 1.10413 0.24867
 C2228 C 0.60337 1.10564 0.25626
 H2229 H 0.66513 1.11324 0.22033
 H2230 H 0.64551 1.09414 0.26260
 H2231 H 0.60620 1.13472 0.20563
 H2232 H 0.58839 1.11687 0.24340
 C2233 C 0.62852 0.62770 0.70227
 C2234 C 0.60157 0.63001 0.71051
 C2235 C 0.59008 0.61912 0.73737
 C2236 C 0.60456 0.60363 0.75606
 H2237 H 0.58659 0.64055 0.69702
 H2238 H 0.56823 0.62401 0.74134
 H2239 H 0.64351 0.61635 0.71500
 H2240 H 0.62584 0.59716 0.75145
 C2241 C 0.87488 0.87321 0.70029
 C2242 C 0.87025 0.89935 0.71002
 C2243 C 0.88211 0.91086 0.73648
 C2244 C 0.89584 0.89567 0.75594
 H2245 H 0.85741 0.91376 0.69801
 H2246 H 0.87877 0.93311 0.73994
 H2247 H 0.88934 0.85947 0.71116
 H2248 H 0.89999 0.87361 0.75247
 C2249 C 0.87172 0.37438 0.20022
 C2250 C 0.89813 0.37068 0.20955
 C2251 C 0.90970 0.38316 0.23568
 C2252 C 0.89461 0.39731 0.25492
 H2253 H 0.91266 0.35801 0.19749
 H2254 H 0.93196 0.37983 0.23910
 H2255 H 0.85769 0.38857 0.21106
 H2256 H 0.87260 0.40166 0.25138
 C2257 C 0.37443 0.87452 0.19987
 C2258 C 0.35897 0.88764 0.21956
 C2259 C 0.37001 0.89941 0.24623
 C2260 C 0.39664 0.89690 0.25535
 H2261 H 0.33649 0.88963 0.21667
 H2262 H 0.35460 0.90976 0.25937
 H2263 H 0.39670 0.87131 0.20300
 H2264 H 0.41180 0.88507 0.24327
 C2265 C 0.37442 0.37513 0.69904
 C2266 C 0.35902 0.38817 0.71882
 C2267 C 0.37020 0.40003 0.74539
 C2268 C 0.39680 0.39724 0.75455
 H2269 H 0.33651 0.39004 0.71606
 H2270 H 0.35489 0.41061 0.75847
 H2271 H 0.39675 0.37214 0.70198
 H2272 H 0.41180 0.38512 0.74256
 C2273 C 1.12542 0.87505 1.30106
 C2274 C 1.10105 0.86760 1.28869
 C2275 C 1.08980 0.88052 1.26268
 C2276 C 1.10532 0.89466 1.24379
 H2277 H 1.08755 0.85192 1.29796
 H2278 H 1.06769 0.87693 1.25869
 H2279 H 1.13684 0.89273 1.29242
 H2280 H 1.12738 0.89857 1.24776
 C2281 C 1.13038 0.36833 0.79572
 C2282 C 1.14252 0.38781 0.77913
 C2283 C 1.13103 0.39762 0.75196
 C2284 C 1.10403 0.39534 0.74396
 H2285 H 1.16298 0.39626 0.78410
 H2286 H 1.14604 0.40778 0.73824
 H2287 H 1.11121 0.35843 0.78845
 H2288 H 1.08898 0.38479 0.75733
 C2289 C 0.62725 0.87121 0.79691
 C2290 C 0.64191 0.88579 0.77766
 C2291 C 0.63041 0.89710 0.75101
 C2292 C 0.60348 0.89519 0.74266
 H2293 H 0.66417 0.88927 0.78084
 H2294 H 0.64565 0.90709 0.73740
 H2295 H 0.60542 0.86610 0.79327
 H2296 H 0.58827 0.88407 0.75534
 C2297 C 0.62932 0.36917 1.29682
 C2298 C 0.64176 0.38831 1.28006
 C2299 C 0.63026 0.39828 1.25293
 C2300 C 0.60331 0.39590 1.24478
 H2301 H 0.66241 0.39639 1.28487
 H2302 H 0.64529 0.40849 1.23926
 H2303 H 0.60981 0.35981 1.28978
 H2304 H 0.58820 0.38526 1.25802
 C2305 C 0.87676 1.12573 1.30096
 C2306 C 0.87254 1.09955 1.29119
 C2307 C 0.88456 1.08822 1.26475
 C2308 C 0.89833 1.10353 1.24543
 H2309 H 0.85986 1.08496 1.30314
 H2310 H 0.88126 1.06600 1.26116
 H2311 H 0.89103 1.13971 1.29017
 H2312 H 0.90253 1.12555 1.24906
 C2313 C 0.87302 0.62442 0.79940
 C2314 C 0.89942 0.62831 0.79011
 C2315 C 0.91095 0.61634 0.76373
 C2316 C 0.89578 0.60257 0.74427
 H2317 H 0.91400 0.64070 0.80240
 H2318 H 0.93322 0.61961 0.76034
 H2319 H 0.85897 0.61048 0.78825
 H2320 H 0.87374 0.59835 0.74772
 C2321 C 0.37496 1.12599 0.80052
 C2322 C 0.35967 1.11341 0.78036
 C2323 C 0.37107 1.10169 0.75385
 C2324 C 0.39780 1.10426 0.74505
 H2325 H 0.33711 1.11174 0.78281
 H2326 H 0.35582 1.09132 0.74053
 H2327 H 0.39735 1.12882 0.79791
 H2328 H 0.41277 1.11625 0.75723
 C2329 C 0.37252 0.62764 1.29842
 C2330 C 0.38553 0.64245 1.27822
 C2331 C 0.39753 0.63053 1.25208
 C2332 C 0.39511 0.60363 1.24376
 H2333 H 0.38729 0.66504 1.28030
 H2334 H 0.40800 0.64554 1.23860
 H2335 H 0.36955 0.60523 1.29616
 H2336 H 0.38304 0.58885 1.25607
 C2337 C 1.12912 1.29812 0.87295
 C2338 C 1.10262 1.28903 0.86927
 C2339 C 1.09083 1.26291 0.88158
 C2340 C 1.10556 1.24386 0.89641
 H2341 H 1.08816 1.30132 0.85673
 H2342 H 1.06867 1.25944 0.87775
 H2343 H 1.14318 1.28695 0.88685
 H2344 H 1.12742 1.24755 0.90136
 C2345 C 1.12820 0.79807 0.37323
 C2346 C 1.10114 0.79000 0.37185
 C2347 C 1.08986 0.76315 0.38299
 C2348 C 1.10467 0.74430 0.39796
 H2349 H 1.08591 0.80359 0.36178
 H2350 H 1.06786 0.75927 0.37865
 H2351 H 1.14348 0.78530 0.38415
 H2352 H 1.12610 0.74883 0.40398
 C2353 C 0.62638 1.30090 0.37441
 C2354 C 0.60180 1.28876 0.36722
 C2355 C 0.59015 1.26323 0.38070
 C2356 C 0.60539 1.24432 0.39515
 H2357 H 0.58844 1.29788 0.35133
 H2358 H 0.56797 1.25955 0.37720
 H2359 H 0.63766 1.29245 0.39229
 H2360 H 0.62752 1.24800 0.39895
 C2361 C 0.62717 0.79832 0.87176
 C2362 C 0.64169 0.77953 0.88709
 C2363 C 0.63019 0.75298 0.89860
 C2364 C 0.60320 0.74478 0.89690
 H2365 H 0.66388 0.78287 0.89086
 H2366 H 0.64544 0.73932 0.90853
 H2367 H 0.60547 0.79436 0.86630
 H2368 H 0.58793 0.75759 0.88600
 C2369 C 0.87070 1.29595 1.13140
 C2370 C 0.85871 1.27897 1.11216
 C2371 C 0.87041 1.25175 1.10274
 C2372 C 0.89739 1.24376 1.10544
 H2373 H 0.83826 1.28372 1.10353
 H2374 H 0.85556 1.23794 1.09244
 H2375 H 0.88990 1.28897 1.14144
 H2376 H 0.91231 1.25713 1.11622
 C2377 C 0.87428 0.79884 0.62709
 C2378 C 0.85930 0.77886 0.61389
 C2379 C 0.87081 0.75224 0.60252
 C2380 C 0.89765 0.74367 0.60489
 H2381 H 0.83682 0.78148 0.61150
 H2382 H 0.85559 0.73872 0.59237
 H2383 H 0.89651 0.79599 0.63085
 H2384 H 0.91270 0.75610 0.61651
 C2385 C 0.37558 1.30205 0.62413
 C2386 C 0.39994 1.28980 0.63187
 C2387 C 0.41134 1.26369 0.61924
 C2388 C 0.39599 1.24473 0.60496
 H2389 H 0.41326 1.29915 0.64766
 H2390 H 0.43342 1.25973 0.62307
 H2391 H 0.36415 1.29303 0.60664
 H2392 H 0.37396 1.24864 0.60086
 C2393 C 0.37559 0.80198 1.12439
 C2394 C 0.39989 0.78960 1.13208
 C2395 C 0.41120 0.76352 1.11930
 C2396 C 0.39576 0.74463 1.10502
 H2397 H 0.41325 0.79882 1.14792
 H2398 H 0.43328 0.75954 1.12303
 H2399 H 0.36416 0.79311 1.10682
 H2400 H 0.37372 0.74859 1.10101
 C2401 C 0.87125 0.70229 0.87200
 C2402 C 0.89835 0.71016 0.87040
 C2403 C 0.90980 0.73706 0.88126
 C2404 C 0.89540 0.75554 0.89706
 H2405 H 0.91343 0.69641 0.86033
 H2406 H 0.93158 0.74115 0.87619
 H2407 H 0.85608 0.71537 0.88270
 H2408 H 0.87430 0.75063 0.90386
 C2409 C 0.87516 0.19939 0.37477
 C2410 C 0.85984 0.21954 0.38731
 C2411 C 0.87114 0.24622 0.39871
 C2412 C 0.89769 0.25536 0.39552
 H2413 H 0.83731 0.21695 0.38918
 H2414 H 0.85594 0.25940 0.40933
 H2415 H 0.89751 0.20209 0.37177
 H2416 H 0.91253 0.24334 0.38322
 C2417 C 0.36965 0.70425 0.36898
 C2418 C 0.35745 0.72061 0.38862
 C2419 C 0.36889 0.74772 0.39867
 C2420 C 0.39583 0.75587 0.39626
 H2421 H 0.33702 0.71552 0.39704
 H2422 H 0.35388 0.76132 0.40901
 H2423 H 0.38887 0.71162 0.35928
 H2424 H 0.41090 0.74262 0.38554
 C2425 C 0.37516 0.19836 0.87608
 C2426 C 0.39964 0.21060 0.86875
 C2427 C 0.41084 0.23677 0.88142
 C2428 C 0.39535 0.25575 0.89551
 H2429 H 0.41323 0.20121 0.85323
 H2430 H 0.43292 0.24079 0.87774
 H2431 H 0.36345 0.20735 0.89339
 H2432 H 0.37333 0.25177 0.89956
 C2433 C 1.13133 0.70378 1.13130
 C2434 C 1.14363 0.72009 1.11167
 C2435 C 1.13196 0.74693 1.10105
 C2436 C 1.10493 0.75490 1.10318
 H2437 H 1.16412 0.71506 1.10339
 H2438 H 1.14688 0.76051 1.09056
 H2439 H 1.11173 0.71093 1.14038
 H2440 H 1.08992 0.74169 1.11400
 C2441 C 1.12998 0.20431 0.63077
 C2442 C 1.14185 0.22058 0.61087
 C2443 C 1.13003 0.24743 0.60058
 C2444 C 1.10303 0.25532 0.60307
 H2445 H 1.16229 0.21563 0.60238
 H2446 H 1.14483 0.26108 0.59000
 H2447 H 1.11073 0.21154 0.64052
 H2448 H 1.08817 0.24205 0.61403
 C2449 C 0.62590 0.70082 0.62639
 C2450 C 0.64063 0.71977 0.61150
 C2451 C 0.62928 0.74642 0.60004
 C2452 C 0.60237 0.75485 0.60183
 H2453 H 0.66287 0.71646 0.60806
 H2454 H 0.64463 0.76000 0.59017
 H2455 H 0.60410 0.70465 0.63150
 H2456 H 0.58704 0.74216 0.61276
 C2457 C 0.63196 0.20486 1.13166
 C2458 C 0.64356 0.22101 1.11151
 C2459 C 0.63156 0.24780 1.10117
 C2460 C 0.60459 0.25576 1.10400
 H2461 H 0.66378 0.21592 1.10262
 H2462 H 0.64621 0.26133 1.09025
 H2463 H 0.61266 0.21204 1.14136
 H2464 H 0.58990 0.24260 1.11529
 C2465 C 1.29927 1.12835 0.87514
 C2466 C 1.29029 1.10168 0.87228
 C2467 C 1.26343 1.09043 0.88344
 C2468 C 1.24408 1.10550 0.89746
 H2469 H 1.30324 1.08662 0.86121
 H2470 H 1.25977 1.06829 0.87969
 H2471 H 1.28734 1.14318 0.88754
 H2472 H 1.24800 1.12728 0.90252
 C2473 C 1.29805 0.62700 0.37153
 C2474 C 1.27770 0.64172 0.38449
 C2475 C 1.25161 0.62978 0.39651
 C2476 C 1.24380 0.60270 0.39494
 H2477 H 1.27962 0.66433 0.38622
 H2478 H 1.23773 0.64486 0.40641
 H2479 H 1.29587 0.60462 0.36833
 H2480 H 1.25651 0.58770 0.38355
 C2481 C 0.79917 1.12500 0.37252
 C2482 C 0.79045 1.12739 0.39929
 C2483 C 0.76347 1.11638 0.41041
 C2484 C 0.74427 1.10219 0.39530
 H2485 H 0.80363 1.13802 0.41447
 H2486 H 0.75968 1.12031 0.43248
 H2487 H 0.78692 1.11320 0.35748
 H2488 H 0.74843 1.09680 0.37366
 C2489 C 0.79802 0.62804 0.87320
 C2490 C 0.79020 0.60092 0.87180
 C2491 C 0.76336 0.58948 0.88279
 C2492 C 0.74472 0.60404 0.89825
 H2493 H 0.80391 0.58580 0.86173
 H2494 H 0.75935 0.56762 0.87798
 H2495 H 0.78500 0.64322 0.88397
 H2496 H 0.74949 0.62526 0.90479
 C2497 C 1.29975 0.87191 1.12423
 C2498 C 1.29096 0.89869 1.12654
 C2499 C 1.26412 0.90984 1.11521
 C2500 C 1.24493 0.89469 1.10105
 H2501 H 1.30398 0.91386 1.13739
 H2502 H 1.26033 0.93195 1.11901
 H2503 H 1.28774 0.85690 1.11214
 H2504 H 1.24906 0.87299 1.09581
 C2505 C 1.29933 0.37158 0.62379
 C2506 C 1.29057 0.39839 0.62579
 C2507 C 1.26369 0.40944 0.61445
 C2508 C 1.24442 0.39419 0.60049
 H2509 H 1.30366 0.41368 0.63639
 H2510 H 1.25996 0.43159 0.61804
 H2511 H 1.28725 0.35642 0.61196
 H2512 H 1.24851 0.37244 0.59540
 C2513 C 0.79803 0.87149 0.62642
 C2514 C 0.78997 0.89851 0.62820
 C2515 C 0.76327 0.90999 0.61683
 C2516 C 0.74473 0.89546 0.60119
 H2517 H 0.80344 0.91352 0.63875
 H2518 H 0.75929 0.93187 0.62157
 H2519 H 0.78535 0.85642 0.61513
 H2520 H 0.74943 0.87418 0.59481
 C2521 C 0.79863 0.37272 1.12593
 C2522 C 0.77848 0.35770 1.11301
 C2523 C 0.75222 0.36936 1.10099
 C2524 C 0.74368 0.39618 1.10342
 H2525 H 0.78069 0.33510 1.11139
 H2526 H 0.73879 0.35423 1.09058
 H2527 H 0.79627 0.39513 1.12878
 H2528 H 0.75596 0.41106 1.11542
 C2529 C 0.70543 1.13034 1.12992
 C2530 C 0.71232 1.10295 1.13106
 C2531 C 0.73891 1.09083 1.12016
 C2532 C 0.75729 1.10464 1.10375
 H2533 H 0.69809 1.08819 1.14092
 H2534 H 0.74282 1.06913 1.12569
 H2535 H 0.71916 1.14519 1.11960
 H2536 H 0.75235 1.12558 1.09645
 C2537 C 0.70103 0.62703 0.62553
 C2538 C 0.71084 0.60095 0.63031
 C2539 C 0.73721 0.58938 0.61832
 C2540 C 0.75656 0.60446 0.60429
 H2541 H 0.69893 0.58664 0.64333
 H2542 H 0.74070 0.56717 0.62183
 H2543 H 0.71181 0.64066 0.61093
 H2544 H 0.75303 0.62647 0.59996
 C2545 C 0.20261 1.12798 0.62858
 C2546 C 0.22276 1.14276 0.61542
 C2547 C 0.24899 1.13094 0.60353
 C2548 C 0.25701 1.10392 0.60526
 H2549 H 0.22059 1.16533 0.61349
 H2550 H 0.26275 1.14607 0.59358
 H2551 H 0.20503 1.10565 0.63198
 H2552 H 0.24438 1.08888 0.61667
 C2553 C 0.20464 0.62943 1.13112
 C2554 C 0.21107 0.60194 1.13106
 C2555 C 0.23773 0.59011 1.12002
 C2556 C 0.25571 0.60411 1.10329
 H2557 H 0.19643 0.58697 1.13997
 H2558 H 0.24185 0.56845 1.12550
 H2559 H 0.21897 0.64454 1.12204
 H2560 H 0.25030 0.62490 1.09590
 C2561 C 0.70144 0.87320 0.87315
 C2562 C 0.72117 0.88700 0.85840
 C2563 C 0.74753 0.89875 0.87014
 C2564 C 0.75609 0.89618 0.89695
 H2565 H 0.71859 0.88949 0.83594
 H2566 H 0.76094 0.90924 0.85508
 H2567 H 0.70425 0.86937 0.89535
 H2568 H 0.74376 0.88424 0.91181
 C2569 C 0.70215 0.37096 0.37289
 C2570 C 0.72224 0.38405 0.35794
 C2571 C 0.74856 0.39604 0.36952
 C2572 C 0.75660 0.39475 0.39655
 H2573 H 0.71992 0.38594 0.33539
 H2574 H 0.76231 0.40581 0.35426
 H2575 H 0.70478 0.36755 0.39519
 H2576 H 0.74395 0.38361 0.41176
 C2577 C 0.20061 0.87307 0.37326
 C2578 C 0.21941 0.88834 0.35874
 C2579 C 0.24612 0.89964 0.37020
 C2580 C 0.25474 0.89728 0.39701
 H2581 H 0.21590 0.89229 0.33663
 H2582 H 0.25955 0.90995 0.35502
 H2583 H 0.20466 0.86755 0.39491
 H2584 H 0.24220 0.88593 0.41214
 C2585 C 0.20223 0.37245 0.87265
 C2586 C 0.22220 0.38588 0.85786
 C2587 C 0.24837 0.39796 0.86965
 C2588 C 0.25652 0.39609 0.89662
 H2589 H 0.21996 0.38786 0.83531
 H2590 H 0.26201 0.40810 0.85455
 H2591 H 0.20474 0.36905 0.89496
 H2592 H 0.24400 0.38451 0.91161
   
