data_POSCAR
  _audit_creation_date              2014-09-24
  _audit_creation_method            'ToBaCCo'
  _symmetry_space_group_name_H-M    'P1'
  _symmetry_Int_Tables_number       1
  _symmetry_cell_setting            triclinic
  loop_
  _symmetry_equiv_pos_as_xyz
 x,y,z
_cell_length_a 55.6961
_cell_length_b 56.4323
_cell_length_c 56.4022
_cell_angle_alpha 90.145400
_cell_angle_beta 90.064300
_cell_angle_gamma 90.376000
loop_
  _atom_site_label
  _atom_site_type_symbol
  _atom_site_fract_x
  _atom_site_fract_y
  _atom_site_fract_z
C1 C 0.35460 0.32313 0.34179
 C2 C 0.33818 0.32419 0.36057
 C3 C 0.32162 0.34228 0.36158
 C4 C 0.32121 0.35957 0.34376
 C5 C 0.33733 0.35846 0.32518
 C6 C 0.35416 0.34011 0.32420
 C7 C 0.37262 0.30752 0.33629
 N8 N 0.38314 0.31452 0.31568
 C9 C 0.37188 0.33449 0.30821
 C10 C 0.33281 0.37741 0.31059
 N11 N 0.31435 0.39008 0.31988
 C12 C 0.30716 0.37919 0.34018
 C13 C 0.30794 0.33871 0.38155
 N14 N 0.31572 0.31882 0.39267
 C15 C 0.33426 0.30986 0.37987
 H16 H 0.37766 0.29228 0.34671
 H17 H 0.37597 0.34406 0.29210
 H18 H 0.34222 0.38147 0.29432
 H19 H 0.29297 0.38528 0.35174
 H20 H 0.29345 0.34988 0.38758
 H21 H 0.34401 0.29386 0.38396
 C22 C 0.35673 0.82176 -0.16021
 C23 C 0.33926 0.82164 -0.14232
 C24 C 0.32191 0.83900 -0.14184
 C25 C 0.32165 0.85663 -0.15931
 C26 C 0.33880 0.85671 -0.17693
 C27 C 0.35656 0.83919 -0.17733
 C28 C 0.37638 0.80777 -0.16446
 N29 N 0.38835 0.81621 -0.18380
 C30 C 0.37610 0.83551 -0.19172
 C31 C 0.33459 0.87616 -0.19092
 N32 N 0.31516 0.88802 -0.18235
 C33 C 0.30724 0.87599 -0.16288
 C34 C 0.30799 0.83508 -0.12212
 N35 N 0.31632 0.81564 -0.11058
 C36 C 0.33550 0.80733 -0.12294
 H37 H 0.38192 0.79306 -0.15355
 H38 H 0.38080 0.84636 -0.20681
 H39 H 0.34548 0.88152 -0.20585
 H40 H 0.29206 0.88062 -0.15193
 H41 H 0.29322 0.84601 -0.11635
 H42 H 0.34611 0.79204 -0.11831
 C43 C 0.85183 0.32160 -0.16482
 C44 C 0.83421 0.32188 -0.14713
 C45 C 0.81732 0.33967 -0.14668
 C46 C 0.81773 0.35740 -0.16408
 C47 C 0.83509 0.35709 -0.18153
 C48 C 0.85231 0.33904 -0.18189
 C49 C 0.87123 0.30721 -0.16868
 N50 N 0.88373 0.31541 -0.18778
 C51 C 0.87202 0.33493 -0.19596
 C52 C 0.83171 0.37679 -0.19537
 N53 N 0.81255 0.38918 -0.18695
 C54 C 0.80402 0.37726 -0.16765
 C55 C 0.80348 0.33621 -0.12678
 N56 N 0.81153 0.31671 -0.11514
 C57 C 0.83033 0.30783 -0.12763
 H58 H 0.87570 0.29197 -0.15802
 H59 H 0.87785 0.34606 -0.21046
 H60 H 0.84298 0.38192 -0.21009
 H61 H 0.78890 0.38231 -0.15681
 H62 H 0.78911 0.34758 -0.12083
 H63 H 0.84073 0.29244 -0.12289
 C64 C 0.85539 0.82436 0.33742
 C65 C 0.83804 0.82498 0.35540
 C66 C 0.82093 0.84259 0.35552
 C67 C 0.82085 0.85977 0.33760
 C68 C 0.83793 0.85915 0.31991
 C69 C 0.85534 0.84129 0.31982
 C70 C 0.87482 0.80997 0.33349
 N71 N 0.88677 0.81770 0.31384
 C72 C 0.87474 0.83692 0.30544
 C73 C 0.83399 0.87831 0.30544
 N74 N 0.81480 0.89068 0.31382
 C75 C 0.80678 0.87927 0.33360
 C76 C 0.80706 0.83936 0.37543
 N77 N 0.81532 0.82019 0.38744
 C78 C 0.83429 0.81129 0.37521
 H79 H 0.87964 0.79504 0.34443
 H80 H 0.88008 0.84766 0.29048
 H81 H 0.84445 0.88254 0.28987
 H82 H 0.79222 0.88499 0.34486
 H83 H 0.79240 0.85054 0.38103
 H84 H 0.84472 0.79601 0.38024
 C85 C 0.64190 0.67325 0.34394
 C86 C 0.65989 0.67346 0.36133
 C87 C 0.67791 0.65676 0.36076
 C88 C 0.67818 0.63957 0.34274
 C89 C 0.66041 0.63936 0.32561
 C90 C 0.64214 0.65635 0.32620
 C91 C 0.62227 0.68738 0.34014
 N92 N 0.61054 0.67958 0.32042
 C93 C 0.62267 0.66057 0.31178
 C94 C 0.66543 0.62112 0.31020
 N95 N 0.68595 0.61029 0.31741
 C96 C 0.69378 0.62153 0.33738
 C97 C 0.69280 0.66130 0.37976
 N98 N 0.68428 0.68038 0.39184
 C99 C 0.66414 0.68791 0.38055
 H100 H 0.61680 0.70211 0.35116
 H101 H 0.61794 0.65058 0.29604
 H102 H 0.65485 0.61631 0.29482
 H103 H 0.71002 0.61736 0.34701
 H104 H 0.70851 0.65120 0.38458
 H105 H 0.65337 0.70295 0.38568
 C106 C 0.63805 0.17470 -0.15520
 C107 C 0.65561 0.17524 -0.13737
 C108 C 0.67391 0.15883 -0.13748
 C109 C 0.67485 0.14155 -0.15538
 C110 C 0.65746 0.14095 -0.17283
 C111 C 0.63897 0.15773 -0.17280
 C112 C 0.61808 0.18828 -0.15933
 N113 N 0.60666 0.18005 -0.17914
 C114 C 0.61948 0.16121 -0.18734
 C115 C 0.66234 0.12192 -0.18726
 N116 N 0.68234 0.11074 -0.17905
 C117 C 0.69005 0.12287 -0.15950
 C118 C 0.68799 0.16330 -0.11790
 N119 N 0.67864 0.18200 -0.10581
 C120 C 0.65878 0.18933 -0.11770
 H121 H 0.61272 0.20322 -0.14859
 H122 H 0.61483 0.15031 -0.20247
 H123 H 0.65186 0.11688 -0.20263
 H124 H 0.70510 0.11810 -0.14842
 H125 H 0.70392 0.15360 -0.11299
 H126 H 0.64714 0.20361 -0.11223
 C127 C 0.14191 0.67383 -0.16185
 C128 C 0.15960 0.67399 -0.14417
 C129 C 0.17727 0.65695 -0.14417
 C130 C 0.17739 0.63937 -0.16179
 C131 C 0.15993 0.63919 -0.17918
 C132 C 0.14207 0.65663 -0.17926
 C133 C 0.12238 0.68800 -0.16589
 N134 N 0.11047 0.67994 -0.18549
 C135 C 0.12257 0.66065 -0.19369
 C136 C 0.16401 0.61973 -0.19330
 N137 N 0.18358 0.60792 -0.18497
 C138 C 0.19179 0.62004 -0.16560
 C139 C 0.19154 0.66107 -0.12463
 N140 N 0.18288 0.68018 -0.11267
 C141 C 0.16329 0.68811 -0.12461
 H142 H 0.11764 0.70321 -0.15524
 H143 H 0.11736 0.64978 -0.20868
 H144 H 0.15287 0.61428 -0.20807
 H145 H 0.20712 0.61545 -0.15483
 H146 H 0.20701 0.65075 -0.11960
 H147 H 0.15208 0.70273 -0.11919
 C148 C 0.14426 0.17498 0.33911
 C149 C 0.16184 0.17470 0.35693
 C150 C 0.17932 0.15743 0.35680
 C151 C 0.17956 0.14027 0.33877
 C152 C 0.16224 0.14056 0.32127
 C153 C 0.14446 0.15805 0.32144
 C154 C 0.12456 0.18905 0.33533
 N155 N 0.11262 0.18111 0.31568
 C156 C 0.12489 0.16206 0.30719
 C157 C 0.16640 0.12155 0.30659
 N158 N 0.18597 0.10956 0.31466
 C159 C 0.19402 0.12109 0.33444
 C160 C 0.19333 0.16094 0.37661
 N161 N 0.18483 0.17995 0.38879
 C162 C 0.16555 0.18847 0.37676
 H163 H 0.11959 0.20395 0.34630
 H164 H 0.11966 0.15121 0.29221
 H165 H 0.15583 0.11716 0.29109
 H166 H 0.20889 0.11565 0.34545
 H167 H 0.20826 0.15004 0.38202
 H168 H 0.15486 0.20354 0.38195
 C169 C 0.64209 0.31918 0.65668
 C170 C 0.65982 0.31915 0.63901
 C171 C 0.67614 0.33766 0.63766
 C172 C 0.67509 0.35637 0.65401
 C173 C 0.65771 0.35636 0.67144
 C174 C 0.64105 0.33768 0.67273
 C175 C 0.62373 0.30370 0.66218
 N176 N 0.61146 0.31244 0.68110
 C177 C 0.62207 0.33323 0.68764
 C178 C 0.66134 0.37629 0.68511
 N179 N 0.68055 0.38846 0.67639
 C180 C 0.68898 0.37634 0.65729
 C181 C 0.69157 0.33272 0.61933
 N182 N 0.68516 0.31156 0.60950
 C183 C 0.66565 0.30323 0.62145
 H184 H 0.61973 0.28730 0.65298
 H185 H 0.61614 0.34462 0.70190
 H186 H 0.65100 0.38115 0.70057
 H187 H 0.70412 0.38163 0.64648
 H188 H 0.70648 0.34376 0.61379
 H189 H 0.65675 0.28644 0.61813
 C190 C 0.64012 0.81803 1.16035
 C191 C 0.65929 0.81674 1.14427
 C192 C 0.67674 0.83426 1.14416
 C193 C 0.67521 0.85341 1.15995
 C194 C 0.65628 0.85474 1.17567
 C195 C 0.63868 0.83686 1.17594
 C196 C 0.62082 0.80336 1.16481
 N197 N 0.60764 0.81271 1.18290
 C198 C 0.61859 0.83334 1.18964
 C199 C 0.65933 0.87518 1.18868
 N200 N 0.67969 0.88634 1.18128
 C201 C 0.68953 0.87303 1.16369
 C202 C 0.69322 0.82831 1.12708
 N203 N 0.68623 0.80762 1.11665
 C204 C 0.66541 0.80046 1.12713
 H205 H 0.61725 0.78681 1.15574
 H206 H 0.61236 0.84528 1.20329
 H207 H 0.64736 0.88158 1.20234
 H208 H 0.70599 0.87710 1.15435
 H209 H 0.70935 0.83821 1.12288
 H210 H 0.65526 0.78467 1.12267
 C211 C 0.14014 0.32830 1.15325
 C212 C 0.15582 0.33065 1.13395
 C213 C 0.17171 0.34954 1.13298
 C214 C 0.17219 0.36635 1.15137
 C215 C 0.15672 0.36397 1.17039
 C216 C 0.14057 0.34484 1.17129
 C217 C 0.12322 0.31146 1.15911
 N218 N 0.11321 0.31729 1.18039
 C219 C 0.12390 0.33782 1.18784
 C220 C 0.16144 0.38238 1.18575
 N221 N 0.17940 0.39596 1.17657
 C222 C 0.18608 0.38621 1.15552
 C223 C 0.18509 0.34688 1.11265
 N224 N 0.17780 0.32677 1.10130
 C225 C 0.15985 0.31678 1.11429
 H226 H 0.11871 0.29620 1.14834
 H227 H 0.12050 0.34678 1.20445
 H228 H 0.15266 0.38532 1.20260
 H229 H 0.19996 0.39309 1.14398
 H230 H 0.19919 0.35870 1.10667
 H231 H 0.15075 0.30028 1.11019
 C232 C 0.13875 0.82705 0.65552
 C233 C 0.15562 0.82868 0.63711
 C234 C 0.17248 0.84678 0.63718
 C235 C 0.17282 0.86343 0.65569
 C236 C 0.15615 0.86189 0.67369
 C237 C 0.13899 0.84361 0.67360
 C238 C 0.11992 0.81173 0.65989
 N239 N 0.10864 0.81866 0.68015
 C240 C 0.12031 0.83820 0.68856
 C241 C 0.16047 0.88041 0.68902
 N242 N 0.17956 0.89329 0.68092
 C243 C 0.18711 0.88287 0.66041
 C244 C 0.18616 0.84426 0.61706
 N245 N 0.17811 0.82504 0.60472
 C246 C 0.15940 0.81542 0.61695
 H247 H 0.11489 0.79672 0.64897
 H248 H 0.11529 0.84820 0.70414
 H249 H 0.15050 0.88372 0.70511
 H250 H 0.20160 0.88913 0.64928
 H251 H 0.20070 0.85584 0.61165
 H252 H 0.14929 0.79980 0.61180
 C253 C 0.35735 0.68113 0.66055
 C254 C 0.33810 0.68225 0.64457
 C255 C 0.32058 0.66482 0.64464
 C256 C 0.32203 0.64600 0.66077
 C257 C 0.34098 0.64494 0.67656
 C258 C 0.35876 0.66265 0.67647
 C259 C 0.37702 0.69549 0.66430
 N260 N 0.39037 0.68630 0.68223
 C261 C 0.37921 0.66615 0.68977
 C262 C 0.33788 0.62481 0.68989
 N263 N 0.31744 0.61359 0.68268
 C264 C 0.30763 0.62654 0.66485
 C265 C 0.30415 0.67054 0.62737
 N266 N 0.31119 0.69113 0.61688
 C267 C 0.33199 0.69835 0.62740
 H268 H 0.38140 0.71132 0.65439
 H269 H 0.38525 0.65484 0.70399
 H270 H 0.34987 0.61862 0.70362
 H271 H 0.29114 0.62233 0.65556
 H272 H 0.28831 0.66029 0.62284
 H273 H 0.34182 0.71440 0.62322
 C274 C 0.35998 0.17666 1.15830
 C275 C 0.34090 0.17819 1.14214
 C276 C 0.32360 0.16053 1.14131
 C277 C 0.32505 0.14114 1.15677
 C278 C 0.34381 0.13965 1.17267
 C279 C 0.36144 0.15750 1.17341
 C280 C 0.37931 0.19122 1.16309
 N281 N 0.39255 0.18133 1.18073
 C282 C 0.38165 0.16067 1.18710
 C283 C 0.34041 0.11935 1.18568
 N284 N 0.31987 0.10830 1.17820
 C285 C 0.31052 0.12167 1.16036
 C286 C 0.30717 0.16683 1.12425
 N287 N 0.31401 0.18795 1.11470
 C288 C 0.33467 0.19496 1.12563
 H289 H 0.38318 0.20792 1.15449
 H290 H 0.38806 0.14863 1.20057
 H291 H 0.35196 0.11364 1.19994
 H292 H 0.29444 0.11759 1.15037
 H293 H 0.29145 0.15663 1.11923
 H294 H 0.34428 0.21131 1.12219
 C295 C 0.86017 0.67072 1.15551
 C296 C 0.84362 0.66906 1.13682
 C297 C 0.82726 0.65056 1.13611
 C298 C 0.82709 0.63353 1.15419
 C299 C 0.84338 0.63519 1.17263
 C300 C 0.86009 0.65387 1.17324
 C301 C 0.87862 0.68632 1.16034
 N302 N 0.88992 0.67929 1.18052
 C303 C 0.87856 0.65944 1.18850
 C304 C 0.83913 0.61634 1.18750
 N305 N 0.82063 0.60322 1.17856
 C306 C 0.81324 0.61366 1.15812
 C307 C 0.81376 0.65325 1.11588
 N308 N 0.82146 0.67298 1.10426
 C309 C 0.83978 0.68273 1.11703
 H310 H 0.88345 0.70155 1.14972
 H311 H 0.88374 0.64930 1.20391
 H312 H 0.84868 0.61276 1.20380
 H313 H 0.79896 0.60718 1.14676
 H314 H 0.79954 0.64149 1.10995
 H315 H 0.84950 0.69875 1.11254
 C316 C 0.86131 0.17333 0.65917
 C317 C 0.84380 0.17257 0.64126
 C318 C 0.82647 0.15495 0.64136
 C319 C 0.82625 0.13793 0.65943
 C320 C 0.84341 0.13875 0.67713
 C321 C 0.86110 0.15657 0.67696
 C322 C 0.88084 0.18788 0.66306
 N323 N 0.89270 0.18042 0.68285
 C324 C 0.88052 0.16120 0.69136
 C325 C 0.83898 0.11995 0.69204
 N326 N 0.81956 0.10768 0.68380
 C327 C 0.81174 0.11863 0.66380
 C328 C 0.81231 0.15818 0.62167
 N329 N 0.82053 0.17740 0.60956
 C330 C 0.83985 0.18628 0.62152
 H331 H 0.88575 0.20279 0.65206
 H332 H 0.88570 0.15065 0.70648
 H333 H 0.84917 0.11574 0.70779
 H334 H 0.79680 0.11280 0.65293
 H335 H 0.79736 0.14702 0.61636
 H336 H 0.85031 0.20165 0.61641
 C337 C 0.32619 0.35987 0.65689
 C338 C 0.32563 0.34205 0.63957
 C339 C 0.34234 0.32411 0.64007
 C340 C 0.35990 0.32377 0.65788
 C341 C 0.36040 0.34126 0.67507
 C342 C 0.34335 0.35948 0.67460
 C343 C 0.31248 0.37970 0.66036
 N344 N 0.32074 0.39145 0.67984
 C345 C 0.33969 0.37913 0.68864
 C346 C 0.37972 0.33674 0.68959
 N347 N 0.39105 0.31699 0.68154
 C348 C 0.37892 0.30900 0.66213
 C349 C 0.33764 0.30947 0.62107
 N350 N 0.31844 0.31810 0.60901
 C351 C 0.31104 0.33810 0.62027
 H352 H 0.29782 0.38534 0.64917
 H353 H 0.35009 0.38391 0.70416
 H354 H 0.38507 0.34724 0.70479
 H355 H 0.38390 0.29389 0.65141
 H356 H 0.34742 0.29358 0.61660
 H357 H 0.29631 0.34918 0.61467
 C358 C 0.32115 0.85370 0.16076
 C359 C 0.32149 0.83628 0.14300
 C360 C 0.33887 0.81895 0.14332
 C361 C 0.35605 0.81865 0.16150
 C362 C 0.35561 0.83569 0.17913
 C363 C 0.33806 0.85341 0.17871
 C364 C 0.30728 0.87349 0.16407
 N365 N 0.31534 0.88533 0.18358
 C366 C 0.33415 0.87303 0.19268
 C367 C 0.37478 0.83146 0.19391
 N368 N 0.38691 0.81227 0.18568
 C369 C 0.37548 0.80439 0.16581
 C370 C 0.33539 0.80501 0.12357
 N371 N 0.31617 0.81330 0.11127
 C372 C 0.30761 0.83251 0.12314
 H373 H 0.29293 0.87928 0.15256
 H374 H 0.34453 0.87803 0.20814
 H375 H 0.37946 0.84176 0.20946
 H376 H 0.38118 0.78970 0.15486
 H377 H 0.34640 0.79017 0.11837
 H378 H 0.29238 0.84307 0.11790
 C379 C 0.82670 0.35788 0.15869
 C380 C 0.82768 0.34182 0.13973
 C381 C 0.84598 0.32548 0.13857
 C382 C 0.86350 0.32485 0.15642
 C383 C 0.86248 0.34058 0.17521
 C384 C 0.84394 0.35728 0.17633
 C385 C 0.81160 0.37635 0.16377
 N386 N 0.81919 0.38711 0.18407
 C387 C 0.83896 0.37541 0.19190
 C388 C 0.88193 0.33610 0.18957
 N389 N 0.89475 0.31802 0.17995
 C390 C 0.88352 0.31111 0.15963
 C391 C 0.84260 0.31245 0.11820
 N392 N 0.82256 0.32035 0.10697
 C393 C 0.81339 0.33841 0.12009
 H394 H 0.79664 0.38202 0.15297
 H395 H 0.84923 0.37979 0.20761
 H396 H 0.88621 0.34531 0.20589
 H397 H 0.88965 0.29733 0.14776
 H398 H 0.85407 0.29837 0.11194
 H399 H 0.79730 0.34822 0.11598
 C400 C 0.82080 0.85847 0.66340
 C401 C 0.82106 0.84197 0.64476
 C402 C 0.83814 0.82434 0.64439
 C403 C 0.85522 0.82296 0.66260
 C404 C 0.85493 0.83916 0.68101
 C405 C 0.83756 0.85705 0.68143
 C406 C 0.80695 0.87806 0.66782
 N407 N 0.81482 0.88865 0.68811
 C408 C 0.83357 0.87581 0.69654
 C409 C 0.87420 0.83420 0.69544
 N410 N 0.88629 0.81545 0.68617
 C411 C 0.87467 0.80850 0.66607
 C412 C 0.83454 0.81131 0.62404
 N413 N 0.81567 0.82060 0.61196
 C414 C 0.80736 0.83941 0.62457
 H415 H 0.79262 0.88449 0.65663
 H416 H 0.84377 0.87977 0.71241
 H417 H 0.87908 0.84383 0.71135
 H418 H 0.88037 0.79445 0.65431
 H419 H 0.84492 0.79610 0.61861
 H420 H 0.79269 0.85071 0.61928
 C421 C 0.67776 0.64289 0.65778
 C422 C 0.67817 0.66077 0.64061
 C423 C 0.66179 0.67900 0.64164
 C424 C 0.64472 0.67959 0.65988
 C425 C 0.64438 0.66202 0.67691
 C426 C 0.66105 0.64351 0.67585
 C427 C 0.69095 0.62260 0.66058
 N428 N 0.68274 0.61080 0.67996
 C429 C 0.66440 0.62354 0.68941
 C430 C 0.62535 0.66659 0.69174
 N431 N 0.61398 0.68644 0.68406
 C432 C 0.62585 0.69446 0.66457
 C433 C 0.66602 0.69342 0.62243
 N434 N 0.68461 0.68436 0.60975
 C435 C 0.69208 0.66434 0.62081
 H436 H 0.70513 0.61663 0.64896
 H437 H 0.65415 0.61877 0.70498
 H438 H 0.62013 0.65594 0.70682
 H439 H 0.62070 0.70957 0.65400
 H440 H 0.65628 0.70938 0.61818
 H441 H 0.70633 0.65291 0.61468
 C442 C 0.67174 0.13913 0.15458
 C443 C 0.67226 0.15747 0.13786
 C444 C 0.65575 0.17558 0.13918
 C445 C 0.63845 0.17560 0.15722
 C446 C 0.63803 0.15762 0.17379
 C447 C 0.65481 0.13925 0.17247
 C448 C 0.68667 0.12026 0.15861
 N449 N 0.67935 0.10890 0.17862
 C450 C 0.65975 0.12044 0.18710
 C451 C 0.62003 0.16270 0.18966
 N452 N 0.60934 0.18328 0.18304
 C453 C 0.62065 0.19126 0.16320
 C454 C 0.66172 0.19183 0.12201
 N455 N 0.68156 0.18411 0.11031
 C456 C 0.68799 0.16297 0.11989
 H457 H 0.70208 0.11566 0.14795
 H458 H 0.65043 0.11621 0.20338
 H459 H 0.61536 0.15220 0.20500
 H460 H 0.61613 0.20718 0.15359
 H461 H 0.65296 0.20863 0.11910
 H462 H 0.70333 0.15253 0.11471
 C463 C 0.17348 0.63906 0.15724
 C464 C 0.17264 0.65531 0.13851
 C465 C 0.15517 0.67257 0.13810
 C466 C 0.13815 0.67371 0.15638
 C467 C 0.13900 0.65772 0.17487
 C468 C 0.15683 0.64030 0.17533
 C469 C 0.18900 0.62101 0.16264
 N470 N 0.18226 0.61127 0.18367
 C471 C 0.16250 0.62299 0.19146
 C472 C 0.12047 0.66305 0.19002
 N473 N 0.10820 0.68181 0.18111
 C474 C 0.11902 0.68844 0.16053
 C475 C 0.15921 0.68625 0.11832
 N476 N 0.17873 0.67772 0.10666
 C477 C 0.18693 0.65869 0.11895
 H478 H 0.20418 0.61561 0.15203
 H479 H 0.15333 0.61970 0.20804
 H480 H 0.11638 0.65388 0.20636
 H481 H 0.11318 0.70267 0.14912
 H482 H 0.14892 0.70161 0.11325
 H483 H 0.20221 0.64800 0.11408
 C484 C 0.17635 0.14004 0.66144
 C485 C 0.17645 0.15706 0.64336
 C486 C 0.15997 0.17526 0.64371
 C487 C 0.14317 0.17674 0.66216
 C488 C 0.14309 0.15997 0.67995
 C489 C 0.15976 0.14147 0.67956
 C490 C 0.19019 0.12039 0.66565
 N491 N 0.18232 0.10971 0.68584
 C492 C 0.16366 0.12259 0.69440
 C493 C 0.12529 0.16605 0.69566
 N494 N 0.11447 0.18613 0.68788
 C495 C 0.12532 0.19269 0.66727
 C496 C 0.16422 0.18905 0.62406
 N497 N 0.18282 0.17962 0.61169
 C498 C 0.19039 0.16002 0.62345
 H499 H 0.20496 0.11452 0.65473
 H500 H 0.15332 0.11839 0.71007
 H501 H 0.12100 0.15680 0.71190
 H502 H 0.12075 0.20796 0.65669
 H503 H 0.15453 0.20491 0.61935
 H504 H 0.20478 0.14853 0.61780
 C505 C 0.32734 0.63416 0.35360
 C506 C 0.32796 0.65141 0.37156
 C507 C 0.34524 0.66913 0.37116
 C508 C 0.36230 0.66975 0.35284
 C509 C 0.36175 0.65264 0.33530
 C510 C 0.34414 0.63482 0.33563
 C511 C 0.31162 0.61590 0.34849
 N512 N 0.31839 0.60557 0.32771
 C513 C 0.33839 0.61706 0.31989
 C514 C 0.38001 0.65767 0.31976
 N515 N 0.39177 0.67751 0.32728
 C516 C 0.38093 0.68503 0.34757
 C517 C 0.34094 0.68378 0.39021
 N518 N 0.32149 0.67541 0.40223
 C519 C 0.31350 0.65558 0.39085
 H520 H 0.29607 0.61104 0.35890
 H521 H 0.34749 0.61359 0.30332
 H522 H 0.38454 0.64735 0.30423
 H523 H 0.38595 0.70056 0.35774
 H524 H 0.35100 0.69967 0.39456
 H525 H 0.29828 0.64486 0.39619
 C526 C 0.32641 0.13571 0.84990
 C527 C 0.32765 0.15276 0.86807
 C528 C 0.34494 0.17041 0.86722
 C529 C 0.36104 0.17152 0.84816
 C530 C 0.35966 0.15491 0.83020
 C531 C 0.34232 0.13684 0.83112
 C532 C 0.31168 0.11638 0.84596
 N533 N 0.31832 0.10577 0.82530
 C534 C 0.33699 0.11835 0.81610
 C535 C 0.37664 0.16091 0.81357
 N536 N 0.38832 0.18087 0.82090
 C537 C 0.37887 0.18739 0.84216
 C538 C 0.34163 0.18474 0.88663
 N539 N 0.32254 0.17652 0.89928
 C540 C 0.31396 0.15682 0.88800
 H541 H 0.29744 0.11030 0.85752
 H542 H 0.34606 0.11454 0.79959
 H543 H 0.37965 0.15184 0.79692
 H544 H 0.38425 0.20269 0.85251
 H545 H 0.35239 0.20014 0.89107
 H546 H 0.29851 0.14646 0.89339
 C547 C 0.82433 0.63653 0.84219
 C548 C 0.82399 0.65475 0.85914
 C549 C 0.84181 0.67191 0.85919
 C550 C 0.86032 0.67101 0.84237
 C551 C 0.86067 0.65302 0.82573
 C552 C 0.84249 0.63572 0.82557
 C553 C 0.80829 0.61870 0.83671
 N554 N 0.81613 0.60715 0.81699
 C555 C 0.83716 0.61748 0.81020
 C556 C 0.88010 0.65702 0.81123
 N557 N 0.89163 0.67704 0.81862
 C558 C 0.87952 0.68573 0.83767
 C559 C 0.83605 0.68812 0.87649
 N560 N 0.81515 0.68128 0.88698
 C561 C 0.80773 0.66078 0.87643
 H562 H 0.79178 0.61504 0.84611
 H563 H 0.84729 0.61294 0.79450
 H564 H 0.88546 0.64603 0.79644
 H565 H 0.88397 0.70181 0.84724
 H566 H 0.84594 0.70421 0.88049
 H567 H 0.79153 0.65101 0.88066
 C568 C 0.82657 0.13690 0.33957
 C569 C 0.82763 0.15335 0.35819
 C570 C 0.84513 0.17080 0.35833
 C571 C 0.86194 0.17194 0.33986
 C572 C 0.86086 0.15575 0.32145
 C573 C 0.84299 0.13811 0.32128
 C574 C 0.81092 0.11867 0.33449
 N575 N 0.81729 0.10877 0.31342
 C576 C 0.83702 0.12056 0.30531
 C577 C 0.87931 0.16111 0.30613
 N578 N 0.89172 0.18007 0.31487
 C579 C 0.88107 0.18681 0.33549
 C580 C 0.84133 0.18461 0.37811
 N581 N 0.82192 0.17595 0.38999
 C582 C 0.81355 0.15674 0.37787
 H583 H 0.79585 0.11328 0.34534
 H584 H 0.84592 0.11717 0.28860
 H585 H 0.88327 0.15179 0.28983
 H586 H 0.88709 0.20118 0.34680
 H587 H 0.85170 0.20013 0.38305
 H588 H 0.79831 0.14592 0.38294
 C589 C 0.67257 0.36231 0.35024
 C590 C 0.67274 0.34400 0.36703
 C591 C 0.65444 0.32733 0.36726
 C592 C 0.63569 0.32871 0.35067
 C593 C 0.63554 0.34675 0.33415
 C594 C 0.65413 0.36365 0.33392
 C595 C 0.68890 0.37987 0.34473
 N596 N 0.68096 0.39179 0.32529
 C597 C 0.65961 0.38189 0.31869
 C598 C 0.61605 0.34300 0.31960
 N599 N 0.60432 0.32304 0.32673
 C600 C 0.61631 0.31420 0.34577
 C601 C 0.66014 0.31083 0.38427
 N602 N 0.68156 0.31693 0.39431
 C603 C 0.68930 0.33727 0.38380
 H604 H 0.70563 0.38310 0.35394
 H605 H 0.64929 0.38678 0.30322
 H606 H 0.61091 0.35402 0.30479
 H607 H 0.61180 0.29803 0.35506
 H608 H 0.64957 0.29528 0.38853
 H609 H 0.70626 0.34606 0.38733
 C610 C 0.67566 0.86210 0.85049
 C611 C 0.67501 0.84436 0.86791
 C612 C 0.65731 0.82709 0.86716
 C613 C 0.64011 0.82716 0.84900
 C614 C 0.64075 0.84459 0.83191
 C615 C 0.65862 0.86217 0.83265
 C616 C 0.69039 0.88147 0.84688
 N617 N 0.68269 0.89325 0.82728
 C618 C 0.66327 0.88142 0.81849
 C619 C 0.62176 0.84054 0.81683
 N620 N 0.60961 0.82091 0.82419
 C621 C 0.62082 0.81263 0.84394
 C622 C 0.66068 0.81256 0.88635
 N623 N 0.68015 0.82035 0.89878
 C624 C 0.68900 0.83987 0.88754
 H625 H 0.70533 0.88681 0.85798
 H626 H 0.65320 0.88627 0.80284
 H627 H 0.61698 0.85140 0.80179
 H628 H 0.61556 0.79713 0.85394
 H629 H 0.64945 0.79760 0.89104
 H630 H 0.70455 0.85009 0.89300
 C631 C 0.17556 0.36194 0.84270
 C632 C 0.17578 0.34391 0.85976
 C633 C 0.15704 0.32778 0.86091
 C634 C 0.13775 0.32947 0.84496
 C635 C 0.13756 0.34727 0.82818
 C636 C 0.15662 0.36357 0.82700
 C637 C 0.19212 0.37899 0.83647
 N638 N 0.18383 0.39087 0.81718
 C639 C 0.16204 0.38148 0.81137
 C640 C 0.11745 0.34397 0.81441
 N641 N 0.10538 0.32449 0.82226
 C642 C 0.11775 0.31553 0.84100
 C643 C 0.16277 0.31155 0.87817
 N644 N 0.18462 0.31735 0.88745
 C645 C 0.19262 0.33717 0.87619
 H646 H 0.20918 0.38197 0.84517
 H647 H 0.15130 0.38652 0.79623
 H648 H 0.11213 0.35492 0.79962
 H649 H 0.11308 0.29964 0.85068
 H650 H 0.15187 0.29648 0.88325
 H651 H 0.20985 0.34565 0.87911
 C652 C 0.17820 0.85948 0.33872
 C653 C 0.17887 0.84088 0.35514
 C654 C 0.16101 0.82377 0.35508
 C655 C 0.14224 0.82498 0.33853
 C656 C 0.14161 0.84329 0.32232
 C657 C 0.15973 0.86066 0.32241
 C658 C 0.19303 0.87863 0.33480
 N659 N 0.18412 0.89144 0.31642
 C660 C 0.16371 0.88045 0.30874
 C661 C 0.12145 0.84001 0.30858
 N662 N 0.10981 0.82009 0.31595
 C663 C 0.12251 0.81079 0.33429
 C664 C 0.16637 0.80789 0.37275
 N665 N 0.18717 0.81484 0.38349
 C666 C 0.19486 0.83506 0.37273
 H667 H 0.20898 0.88305 0.34489
 H668 H 0.15255 0.88618 0.29416
 H669 H 0.11556 0.85150 0.29441
 H670 H 0.11799 0.79475 0.34379
 H671 H 0.15576 0.79247 0.37734
 H672 H 0.21118 0.84465 0.37700
 O673 O 0.28254 0.97678 0.24415
 O674 O 0.25105 1.02394 0.27662
 O675 O 0.25057 0.97777 0.27754
 O676 O 0.28316 1.02280 0.24292
 O677 O 0.25423 1.02231 0.21615
 O678 O 0.22133 0.97765 0.25107
 O679 O 0.22221 1.02350 0.24976
 O680 O 0.25336 0.97599 0.21764
 Cu681 Cu 0.26973 1.00044 0.26300
 Cu682 Cu 0.23494 0.99985 0.23090
 C683 C 0.27320 0.96819 0.22543
 C684 C 0.23118 1.03169 0.26882
 C685 C 0.23038 0.97006 0.27026
 C686 C 0.27430 1.03021 0.22358
 O687 O 0.24878 0.52201 0.77868
 O688 O 0.28383 0.47879 0.74417
 O689 O 0.28174 0.52471 0.74603
 O690 O 0.25117 0.47567 0.77664
 O691 O 0.22247 0.47597 0.74961
 O692 O 0.25408 0.52387 0.71797
 O693 O 0.25518 0.47790 0.71709
 O694 O 0.22111 0.52219 0.75066
 Cu695 Cu 0.26914 0.50041 0.76424
 Cu696 Cu 0.23533 0.50002 0.73111
 C697 C 0.22909 0.52969 0.77041
 C698 C 0.27530 0.47078 0.72483
 C699 C 0.27335 0.53245 0.72661
 C700 C 0.23174 0.46727 0.76821
 O701 O 0.74994 -0.02353 0.27658
 O702 O 0.71682 0.02171 0.24321
 O703 O 0.71671 -0.02452 0.24398
 O704 O 0.74949 0.02275 0.27542
 O705 O 0.77786 0.02203 0.24811
 O706 O 0.74434 -0.02453 0.21597
 O707 O 0.74520 0.02183 0.21590
 O708 O 0.77774 -0.02415 0.24875
 Cu709 Cu 0.73043 -0.00105 0.26258
 Cu710 Cu 0.76408 -0.00146 0.22937
 C711 C 0.76953 -0.03154 0.26840
 C712 C 0.72577 0.03003 0.22423
 C713 C 0.72479 -0.03248 0.22452
 C714 C 0.76899 0.03082 0.26690
 O715 O 0.77749 0.52245 0.74871
 O716 O 0.74604 0.47554 0.71537
 O717 O 0.74553 0.52163 0.71541
 O718 O 0.77800 0.47625 0.74904
 O719 O 0.74933 0.47615 0.77602
 O720 O 0.71641 0.52111 0.74193
 O721 O 0.71712 0.47525 0.74211
 O722 O 0.74834 0.52259 0.77520
 Cu723 Cu 0.76470 0.49891 0.72949
 Cu724 Cu 0.72997 0.49861 0.76161
 C725 C 0.76804 0.53089 0.76737
 C726 C 0.72610 0.46754 0.72291
 C727 C 0.72549 0.52919 0.72293
 C728 C 0.76923 0.46843 0.76829
 O729 O 0.27891 0.52338 0.25712
 O730 O 0.24673 0.47903 0.22095
 O731 O 0.24799 0.52530 0.22325
 O732 O 0.27845 0.47741 0.25529
 O733 O 0.24902 0.47656 0.28145
 O734 O 0.21852 0.52449 0.24939
 O735 O 0.21729 0.47845 0.24709
 O736 O 0.24947 0.52284 0.28330
 Cu737 Cu 0.26594 0.50115 0.23648
 Cu738 Cu 0.23063 0.50029 0.26795
 C739 C 0.26947 0.53106 0.27612
 C740 C 0.22638 0.47134 0.22772
 C741 C 0.22834 0.53344 0.23114
 C742 C 0.26910 0.46902 0.27402
 O743 O 0.72014 0.97818 0.76051
 O744 O 0.75269 1.02277 0.72513
 O745 O 0.75164 0.97658 0.72647
 O746 O 0.72022 1.02399 0.75822
 O747 O 0.74906 1.02503 0.78507
 O748 O 0.78082 0.97750 0.75297
 O749 O 0.78169 1.02354 0.75182
 O750 O 0.74932 0.97881 0.78703
 Cu751 Cu 0.73332 1.00028 0.73987
 Cu752 Cu 0.76812 1.00134 0.77193
 C753 C 0.72918 0.97091 0.77985
 C754 C 0.77278 1.03073 0.73242
 C755 C 0.77155 0.96893 0.73418
 C756 C 0.72913 1.03253 0.77713
 O757 O 0.72074 0.47492 0.25603
 O758 O 0.75396 0.51875 0.22045
 O759 O 0.75299 0.47294 0.22278
 O760 O 0.72216 0.52151 0.25362
 O761 O 0.75053 0.52191 0.28096
 O762 O 0.78212 0.47419 0.24935
 O763 O 0.78264 0.51985 0.24750
 O764 O 0.74989 0.47511 0.28256
 Cu765 Cu 0.73443 0.49690 0.23568
 Cu766 Cu 0.76901 0.49787 0.26800
 C767 C 0.72995 0.46702 0.27502
 C768 C 0.77401 0.52673 0.22783
 C769 C 0.77300 0.46554 0.23055
 C770 C 0.73137 0.53038 0.27226
 O771 O 0.25055 -0.02500 0.78266
 O772 O 0.21840 0.02234 0.75122
 O773 O 0.21766 -0.02376 0.74964
 O774 O 0.25067 0.02108 0.78449
 O775 O 0.27913 0.02173 0.75728
 O776 O 0.24608 -0.02310 0.72242
 O777 O 0.24660 0.02283 0.72375
 O778 O 0.27878 -0.02431 0.75524
 Cu779 Cu 0.23147 -0.00144 0.76974
 Cu780 Cu 0.26552 -0.00058 0.73696
 C781 C 0.27020 -0.03271 0.77431
 C782 C 0.22694 0.03054 0.73203
 C783 C 0.22616 -0.03105 0.73006
 C784 C 0.27061 0.02899 0.77688
 O785 O 0.25455 0.21931 0.98137
 O786 O 0.21761 0.25797 1.01940
 O787 O 0.22246 0.25178 0.97377
 O788 O 0.24927 0.22524 1.02711
 O789 O 0.27836 0.25197 1.02626
 O790 O 0.25060 0.27951 0.97398
 O791 O 0.24666 0.28476 1.01966
 O792 O 0.28268 0.24702 0.98047
 Cu793 Cu 0.23311 0.23582 1.00045
 Cu794 Cu 0.26746 0.26851 1.00004
 C795 C 0.27482 0.22680 0.97414
 C796 C 0.22599 0.27785 1.02625
 C797 C 0.23191 0.27024 0.96481
 C798 C 0.26835 0.23411 1.03584
 O799 O 0.21554 0.75939 0.51984
 O800 O 0.25185 0.72003 0.48231
 O801 O 0.24691 0.72660 0.52794
 O802 O 0.22072 0.75291 0.47413
 O803 O 0.24949 0.77999 0.47400
 O804 O 0.27632 0.75299 0.52690
 O805 O 0.28090 0.74682 0.48148
 O806 O 0.24496 0.78579 0.51984
 Cu807 Cu 0.23081 0.73707 0.50109
 Cu808 Cu 0.26579 0.76913 0.50043
 C809 C 0.22427 0.77910 0.52668
 C810 C 0.27247 0.72675 0.47533
 C811 C 0.26606 0.73538 0.53664
 C812 C 0.23076 0.77087 0.46480
 O813 O 0.27989 0.75032 -0.02350
 O814 O 0.24660 0.71654 0.02174
 O815 O 0.24705 0.71708 -0.02430
 O816 O 0.27967 0.74921 0.02266
 O817 O 0.25167 0.77671 0.02293
 O818 O 0.21907 0.74461 -0.02418
 O819 O 0.21833 0.74377 0.02183
 O820 O 0.25166 0.77759 -0.02318
 Cu821 Cu 0.26614 0.73056 -0.00089
 Cu822 Cu 0.23237 0.76344 -0.00055
 C823 C 0.27141 0.76973 -0.03109
 C824 C 0.22669 0.72431 0.02938
 C825 C 0.22746 0.72533 -0.03224
 C826 C 0.27130 0.76846 0.03079
 O827 O 0.27973 0.25173 0.47825
 O828 O 0.24800 0.21734 0.52413
 O829 O 0.24834 0.21737 0.47775
 O830 O 0.28004 0.25123 0.52401
 O831 O 0.25076 0.27740 0.52440
 O832 O 0.21897 0.24345 0.47803
 O833 O 0.21871 0.24349 0.52406
 O834 O 0.25036 0.27782 0.47830
 Cu835 Cu 0.26689 0.23169 0.50104
 Cu836 Cu 0.23176 0.26317 0.50124
 C837 C 0.27050 0.27075 0.47056
 C838 C 0.22792 0.22455 0.53191
 C839 C 0.22830 0.22462 0.46993
 C840 C 0.27095 0.27023 0.53193
 O841 O 0.74661 0.77811 0.98199
 O842 O 0.78292 0.74006 1.02095
 O843 O 0.77866 0.74543 0.97528
 O844 O 0.75073 0.77252 1.02773
 O845 O 0.72238 0.74500 1.02724
 O846 O 0.74995 0.71828 0.97432
 O847 O 0.75434 0.71278 1.02010
 O848 O 0.71813 0.75073 0.98138
 Cu849 Cu 0.76759 0.76179 1.00156
 Cu850 Cu 0.73332 0.72898 1.00067
 C851 C 0.72624 0.77075 0.97483
 C852 C 0.77469 0.72002 1.02736
 C853 C 0.76895 0.72736 0.96570
 C854 C 0.73198 0.76322 1.03664
 O855 O 0.75109 0.27428 0.47622
 O856 O 0.78402 0.24083 0.52178
 O857 O 0.78380 0.24129 0.47605
 O858 O 0.75169 0.27355 0.52296
 O859 O 0.72283 0.24657 0.52232
 O860 O 0.75529 0.21392 0.47595
 O861 O 0.75515 0.21383 0.52194
 O862 O 0.72282 0.24670 0.47568
 Cu863 Cu 0.77035 0.26042 0.49919
 Cu864 Cu 0.73605 0.22764 0.49890
 C865 C 0.73161 0.26594 0.46779
 C866 C 0.77516 0.22160 0.52965
 C867 C 0.77519 0.22188 0.46826
 C868 C 0.73211 0.26525 0.53108
 O869 O 0.71749 0.24920 -0.02055
 O870 O 0.75406 0.28365 0.02199
 O871 O 0.75016 0.28210 -0.02394
 O872 O 0.72055 0.25153 0.02559
 O873 O 0.74845 0.22393 0.02499
 O874 O 0.77809 0.25454 -0.02471
 O875 O 0.78166 0.25577 0.02114
 O876 O 0.74519 0.22141 -0.02112
 Cu877 Cu 0.73273 0.26936 0.00083
 Cu878 Cu 0.76609 0.23608 -0.00013
 C879 C 0.72515 0.22941 -0.02811
 C880 C 0.77409 0.27548 0.02890
 C881 C 0.76929 0.27366 -0.03267
 C882 C 0.72957 0.23271 0.03396
 O883 O 0.78150 0.75730 0.47677
 O884 O 0.75000 0.72350 0.52316
 O885 O 0.75042 0.72265 0.47698
 O886 O 0.78162 0.75770 0.52280
 O887 O 0.75206 0.78356 0.52266
 O888 O 0.72073 0.74837 0.47688
 O889 O 0.72048 0.74941 0.52269
 O890 O 0.75186 0.78306 0.47625
 Cu891 Cu 0.76884 0.73768 0.49997
 Cu892 Cu 0.73339 0.76879 0.49955
 C893 C 0.77200 0.77595 0.46855
 C894 C 0.72981 0.73062 0.53076
 C895 C 0.73018 0.72941 0.46923
 C896 C 0.77217 0.77658 0.53060
 O897 O 0.98113 0.25160 0.21738
 O898 O 1.02582 0.21773 0.25105
 O899 O 0.97933 0.21862 0.24975
 O900 O 1.02810 0.24995 0.21870
 O901 O 1.02848 0.27739 0.24665
 O902 O 0.97904 0.24655 0.27722
 O903 O 1.02564 0.24509 0.27909
 O904 O 0.98167 0.27950 0.24486
 Cu905 Cu 1.00346 0.23178 0.23135
 Cu906 Cu 1.00362 0.26496 0.26469
 C907 C 0.97380 0.27135 0.22532
 C908 C 1.03341 0.22564 0.27081
 C909 C 0.97101 0.22710 0.26891
 C910 C 1.03698 0.26874 0.22763
 O911 O 0.47438 0.24693 0.77952
 O912 O 0.52443 0.27596 0.74820
 O913 O 0.47797 0.27872 0.74665
 O914 O 0.52120 0.24422 0.78167
 O915 O 0.52115 0.21640 0.75411
 O916 O 0.47658 0.25002 0.72000
 O917 O 0.52313 0.24819 0.72059
 O918 O 0.47430 0.21820 0.75288
 Cu919 Cu 0.49967 0.26423 0.76681
 Cu920 Cu 0.49881 0.23030 0.73423
 C921 C 0.46562 0.22771 0.77140
 C922 C 0.53204 0.26729 0.72882
 C923 C 0.46970 0.27013 0.72745
 C924 C 0.52872 0.22452 0.77379
 O925 O -0.02568 0.28060 0.75132
 O926 O 0.02538 0.25085 0.72286
 O927 O -0.02150 0.24710 0.71970
 O928 O 0.02076 0.28366 0.75451
 O929 O 0.02070 0.25675 0.78286
 O930 O -0.02182 0.22039 0.74820
 O931 O 0.02505 0.22373 0.75100
 O932 O -0.02559 0.25383 0.77978
 Cu933 Cu -0.00032 0.26817 0.73417
 Cu934 Cu -0.00046 0.23587 0.76821
 C935 C -0.03416 0.27247 0.77058
 C936 C 0.03420 0.23244 0.73230
 C937 C -0.02911 0.22760 0.72815
 C938 C 0.02799 0.27644 0.77460
 O939 O 0.47798 0.21993 0.24852
 O940 O 0.52062 0.25511 0.28431
 O941 O 0.47369 0.25195 0.28065
 O942 O 0.52424 0.22240 0.25110
 O943 O 0.52476 0.25035 0.22379
 O944 O 0.47426 0.27988 0.25332
 O945 O 0.52112 0.28272 0.25668
 O946 O 0.47839 0.24760 0.22091
 Cu947 Cu 0.49932 0.23468 0.26906
 Cu948 Cu 0.49979 0.26803 0.23603
 C949 C 0.47079 0.22780 0.22868
 C950 C 0.52818 0.27493 0.27659
 C951 C 0.46491 0.27059 0.27164
 C952 C 0.53274 0.23104 0.23208
 O953 O 1.02355 0.71770 0.75004
 O954 O 0.97556 0.75029 0.71949
 O955 O 1.02232 0.75105 0.71801
 O956 O 0.97684 0.71696 0.75113
 O957 O 0.97724 0.74404 0.77944
 O958 O 1.02319 0.77771 0.74670
 O959 O 0.97640 0.77755 0.74762
 O960 O 1.02369 0.74451 0.77860
 Cu961 Cu 0.99954 0.73130 0.73180
 Cu962 Cu 1.00017 0.76371 0.76589
 C963 C 1.03163 0.72543 0.76969
 C964 C 0.96781 0.76951 0.72831
 C965 C 1.03056 0.77020 0.72676
 C966 C 0.96933 0.72463 0.77096
 O967 O 0.47465 0.74778 0.22375
 O968 O 0.52192 0.71607 0.25613
 O969 O 0.47531 0.71628 0.25722
 O970 O 0.52139 0.74802 0.22274
 O971 O 0.52196 0.77650 0.24962
 O972 O 0.47637 0.74442 0.28447
 O973 O 0.52302 0.74471 0.28285
 O974 O 0.47530 0.77617 0.25074
 Cu975 Cu 0.49825 0.72921 0.23724
 Cu976 Cu 0.49921 0.76331 0.26963
 C977 C 0.46691 0.76738 0.23167
 C978 C 0.53052 0.72496 0.27506
 C979 C 0.46810 0.72481 0.27681
 C980 C 0.52951 0.76775 0.23027
 O981 O -0.02470 0.72101 0.24707
 O982 O 0.02180 0.75486 0.27910
 O983 O -0.02484 0.75435 0.27889
 O984 O 0.02196 0.72145 0.24687
 O985 O 0.02220 0.74875 0.21891
 O986 O -0.02523 0.78110 0.25042
 O987 O 0.02161 0.78193 0.25092
 O988 O -0.02438 0.74765 0.21847
 Cu989 Cu -0.00139 0.73522 0.26583
 Cu990 Cu -0.00147 0.76761 0.23188
 C991 C -0.03237 0.72845 0.22724
 C992 C 0.02958 0.77423 0.27054
 C993 C -0.03312 0.77330 0.27005
 C994 C 0.03001 0.72945 0.22738
 O995 O 0.47889 0.72218 0.74692
 O996 O 0.52398 0.75502 0.78207
 O997 O 0.47729 0.75403 0.78030
 O998 O 0.52546 0.72297 0.74848
 O999 O 0.52589 0.75121 0.72147
 O1000 O 0.47822 0.78262 0.75369
 O1001 O 0.52488 0.78303 0.75484
 O1002 O 0.47907 0.75086 0.72037
 Cu1003 Cu 0.50140 0.73571 0.76717
 Cu1004 Cu 0.50211 0.76975 0.73487
 C1005 C 0.47116 0.73104 0.72771
 C1006 C 0.53212 0.77465 0.77443
 C1007 C 0.46953 0.77363 0.77246
 C1008 C 0.53378 0.73171 0.72943
 C1009 C 0.41516 0.31381 0.28523
 C1010 C 0.40230 0.30256 0.30340
 C1011 C 0.40858 0.27895 0.30878
 C1012 C 0.42878 0.26837 0.29826
 C1013 C 0.44308 0.28105 0.28197
 C1014 C 0.43496 0.30329 0.27474
 C1015 C 0.44828 0.32626 0.27319
 C1016 C 0.42663 0.33780 0.28470
 H1017 H 0.39844 0.26879 0.32158
 H1018 H 0.43352 0.25052 0.30337
 H1019 H 0.45110 0.33190 0.25452
 H1020 H 0.46463 0.32669 0.28453
 H1021 H 0.41709 0.35012 0.27263
 H1022 H 0.43037 0.34492 0.30274
 C1023 C 0.41895 0.78589 0.81537
 C1024 C 0.40930 0.80733 0.80712
 C1025 C 0.42257 0.81937 0.78933
 C1026 C 0.44277 0.80890 0.77867
 C1027 C 0.45034 0.78611 0.78540
 C1028 C 0.43886 0.77563 0.80478
 C1029 C 0.42900 0.75115 0.80733
 C1030 C 0.40716 0.76224 0.81885
 H1031 H 0.41725 0.83659 0.78298
 H1032 H 0.45178 0.81825 0.76446
 H1033 H 0.43980 0.74031 0.81979
 H1034 H 0.42501 0.74258 0.78997
 H1035 H 0.40539 0.75754 0.83790
 H1036 H 0.39047 0.76012 0.80819
 C1037 C -0.08523 0.31485 0.78214
 C1038 C -0.09524 0.30645 0.80344
 C1039 C -0.08221 0.28865 0.81553
 C1040 C -0.06187 0.27814 0.80524
 C1041 C -0.05390 0.28501 0.78258
 C1042 C -0.06516 0.30439 0.77204
 C1043 C -0.07463 0.30700 0.74746
 C1044 C -0.09664 0.31837 0.75839
 H1045 H -0.08776 0.28222 0.83269
 H1046 H -0.05299 0.26399 0.81469
 H1047 H -0.07850 0.28967 0.73879
 H1048 H -0.06365 0.31955 0.73678
 H1049 H -0.11332 0.30766 0.75606
 H1050 H -0.09833 0.33743 0.75377
 C1051 C -0.08308 0.81655 0.28290
 C1052 C -0.09246 0.80854 0.30463
 C1053 C -0.07912 0.79087 0.31660
 C1054 C -0.05920 0.78005 0.30581
 C1055 C -0.05195 0.78649 0.28279
 C1056 C -0.06341 0.80580 0.27233
 C1057 C -0.07361 0.80815 0.24802
 C1058 C -0.09519 0.81983 0.25944
 H1059 H -0.08420 0.78472 0.33401
 H1060 H -0.05016 0.76592 0.31514
 H1061 H -0.07787 0.79073 0.23970
 H1062 H -0.06288 0.82047 0.23684
 H1063 H -0.11199 0.80920 0.25776
 H1064 H -0.09688 0.83882 0.25460
 C1065 C 0.58123 0.71228 0.31765
 C1066 C 0.58887 0.68965 0.31080
 C1067 C 0.57435 0.67717 0.29436
 C1068 C 0.55480 0.68832 0.28319
 C1069 C 0.54921 0.71213 0.28833
 C1070 C 0.56190 0.72319 0.30673
 C1071 C 0.57383 0.74694 0.30734
 C1072 C 0.59502 0.73502 0.31927
 H1073 H 0.57848 0.65914 0.28940
 H1074 H 0.54470 0.67860 0.26989
 H1075 H 0.56431 0.75955 0.31915
 H1076 H 0.57803 0.75381 0.28934
 H1077 H 0.59769 0.74088 0.33792
 H1078 H 0.61154 0.73496 0.30820
 C1079 C 0.57733 0.18063 0.78902
 C1080 C 0.58598 0.18882 0.81105
 C1081 C 0.57218 0.20652 0.82250
 C1082 C 0.55277 0.21741 0.81088
 C1083 C 0.54646 0.21091 0.78756
 C1084 C 0.55813 0.19140 0.77767
 C1085 C 0.56913 0.18867 0.75375
 C1086 C 0.59021 0.17699 0.76602
 H1087 H 0.57661 0.21278 0.84008
 H1088 H 0.54349 0.23170 0.81977
 H1089 H 0.57381 0.20596 0.74545
 H1090 H 0.55870 0.17629 0.74229
 H1091 H 0.60714 0.18748 0.76486
 H1092 H 0.59193 0.15792 0.76137
 C1093 C 1.08079 0.68138 0.78303
 C1094 C 1.08987 0.68919 0.80502
 C1095 C 1.07651 0.70694 0.81690
 C1096 C 1.05701 0.71811 0.80578
 C1097 C 1.05018 0.71194 0.78252
 C1098 C 1.06151 0.69248 0.77213
 C1099 C 1.07215 0.69005 0.74803
 C1100 C 1.09331 0.67798 0.75981
 H1101 H 1.08127 0.71289 0.83450
 H1102 H 1.04796 0.73228 0.81510
 H1103 H 1.07686 0.70743 0.73995
 H1104 H 1.06145 0.67794 0.73652
 H1105 H 1.11032 0.68835 0.75859
 H1106 H 1.09480 0.65897 0.75486
 C1107 C 1.08249 0.18188 0.28465
 C1108 C 1.09178 0.19007 0.30642
 C1109 C 1.07837 0.20782 0.31825
 C1110 C 1.05858 0.21867 0.30722
 C1111 C 1.05155 0.21210 0.28412
 C1112 C 1.06296 0.19262 0.27387
 C1113 C 1.07326 0.18993 0.24964
 C1114 C 1.09469 0.17826 0.26130
 H1115 H 1.08338 0.21411 0.33567
 H1116 H 1.04958 0.23297 0.31636
 H1117 H 1.07767 0.20722 0.24123
 H1118 H 1.06250 0.17754 0.23847
 H1119 H 1.11157 0.18877 0.25966
 H1120 H 1.09629 0.15920 0.25658
 C1121 C 0.58224 0.31013 0.71407
 C1122 C 0.59032 0.30223 0.69191
 C1123 C 0.57652 0.28449 0.68043
 C1124 C 0.55715 0.27340 0.69215
 C1125 C 0.55104 0.27987 0.71554
 C1126 C 0.56310 0.29927 0.72554
 C1127 C 0.57476 0.30167 0.74926
 C1128 C 0.59574 0.31355 0.73673
 H1129 H 0.58098 0.27861 0.66274
 H1130 H 0.54751 0.25926 0.68318
 H1131 H 0.57938 0.28427 0.75722
 H1132 H 0.56478 0.31389 0.76112
 H1133 H 0.61256 0.30305 0.73738
 H1134 H 0.59783 0.33258 0.74148
 C1135 C 0.57710 0.81277 0.21348
 C1136 C 0.58713 0.80330 0.19265
 C1137 C 0.57490 0.78370 0.18232
 C1138 C 0.55549 0.77266 0.19401
 C1139 C 0.54773 0.78079 0.21634
 C1140 C 0.55802 0.80177 0.22497
 C1141 C 0.56784 0.80721 0.24898
 C1142 C 0.58879 0.81919 0.23657
 H1143 H 0.58053 0.77626 0.16558
 H1144 H 0.54732 0.75711 0.18602
 H1145 H 0.57303 0.79102 0.25891
 H1146 H 0.55631 0.81979 0.25892
 H1147 H 0.60616 0.80998 0.23929
 H1148 H 0.58933 0.83865 0.23961
 C1149 C 1.08566 0.31356 0.21342
 C1150 C 1.09617 0.30459 0.19260
 C1151 C 1.08865 0.28163 0.18531
 C1152 C 1.06979 0.26970 0.19698
 C1153 C 1.05783 0.28029 0.21623
 C1154 C 1.06707 0.30171 0.22486
 C1155 C 1.05427 0.32409 0.23070
 C1156 C 1.07447 0.33715 0.21815
 H1157 H 1.09675 0.27283 0.17034
 H1158 H 1.06411 0.25251 0.19039
 H1159 H 1.05382 0.32752 0.25011
 H1160 H 1.03667 0.32553 0.22150
 H1161 H 1.08544 0.34824 0.23042
 H1162 H 1.06862 0.34619 0.20165
 C1163 C 1.08005 0.81429 0.71351
 C1164 C 1.08754 0.80797 0.69063
 C1165 C 1.07328 0.79118 0.67827
 C1166 C 1.05417 0.77930 0.68969
 C1167 C 1.04874 0.78409 0.71364
 C1168 C 1.06114 0.80271 0.72465
 C1169 C 1.07334 0.80342 0.74821
 C1170 C 1.09409 0.81605 0.73605
 H1171 H 1.07725 0.78650 0.66011
 H1172 H 1.04429 0.76579 0.68004
 H1173 H 1.07805 0.78548 0.75482
 H1174 H 1.06370 0.81483 0.76111
 H1175 H 1.11085 0.80546 0.73557
 H1176 H 1.09639 0.83469 0.74210
 C1177 C 0.41985 0.71926 0.68547
 C1178 C 0.41254 0.69617 0.69133
 C1179 C 0.42776 0.68315 0.70649
 C1180 C 0.44756 0.69413 0.71768
 C1181 C 0.45278 0.71828 0.71374
 C1182 C 0.43950 0.72997 0.69633
 C1183 C 0.42753 0.75352 0.69734
 C1184 C 0.40598 0.74183 0.68551
 H1185 H 0.42394 0.66482 0.71062
 H1186 H 0.45808 0.68402 0.73020
 H1187 H 0.43664 0.76681 0.68588
 H1188 H 0.42393 0.75949 0.71580
 H1189 H 0.40268 0.74855 0.66729
 H1190 H 0.38985 0.74099 0.69709
 C1191 C 0.42274 0.18291 0.21296
 C1192 C 0.41433 0.19086 0.19097
 C1193 C 0.42796 0.20865 0.17948
 C1194 C 0.44720 0.22004 0.19123
 C1195 C 0.45333 0.21379 0.21466
 C1196 C 0.44173 0.19408 0.22448
 C1197 C 0.43032 0.19117 0.24824
 C1198 C 0.40951 0.17896 0.23565
 H1199 H 0.42320 0.21456 0.16188
 H1200 H 0.45641 0.23449 0.18242
 H1201 H 0.42536 0.20838 0.25649
 H1202 H 0.44068 0.17907 0.25986
 H1203 H 0.39246 0.18907 0.23656
 H1204 H 0.40790 0.15984 0.24011
 C1205 C -0.08166 0.68402 0.21404
 C1206 C -0.08908 0.69011 0.19111
 C1207 C -0.07483 0.70682 0.17874
 C1208 C -0.05585 0.71889 0.19020
 C1209 C -0.05052 0.71440 0.21420
 C1210 C -0.06285 0.69580 0.22525
 C1211 C -0.07517 0.69527 0.24872
 C1212 C -0.09580 0.68241 0.23648
 H1213 H -0.07871 0.71126 0.16051
 H1214 H -0.04598 0.73232 0.18052
 H1215 H -0.08000 0.71325 0.25521
 H1216 H -0.06553 0.68404 0.26175
 H1217 H -0.11262 0.69290 0.23583
 H1218 H -0.09803 0.66381 0.24259
 C1219 C -0.07740 0.18227 0.71412
 C1220 C -0.08660 0.18996 0.69222
 C1221 C -0.07326 0.20786 0.68036
 C1222 C -0.05369 0.21932 0.69147
 C1223 C -0.04679 0.21325 0.71470
 C1224 C -0.05809 0.19363 0.72499
 C1225 C -0.06857 0.19096 0.74915
 C1226 C -0.08976 0.17861 0.73740
 H1227 H -0.07817 0.21380 0.66285
 H1228 H -0.04479 0.23374 0.68231
 H1229 H -0.07328 0.20823 0.75740
 H1230 H -0.05777 0.17897 0.76050
 H1231 H -0.10678 0.18871 0.73882
 H1232 H -0.09116 0.15957 0.74223
 C1233 C 0.28169 0.41954 0.31728
 C1234 C 0.30438 0.41155 0.31028
 C1235 C 0.31704 0.42544 0.29358
 C1236 C 0.30589 0.44469 0.28228
 C1237 C 0.28189 0.45058 0.28749
 C1238 C 0.27075 0.43857 0.30619
 C1239 C 0.24654 0.42713 0.30728
 C1240 C 0.25851 0.40628 0.31941
 H1241 H 0.33518 0.42101 0.28854
 H1242 H 0.31574 0.45429 0.26879
 H1243 H 0.23923 0.42273 0.28943
 H1244 H 0.23409 0.43695 0.31909
 H1245 H 0.25816 0.38976 0.30862
 H1246 H 0.25286 0.40411 0.33818
 C1247 C 0.31405 -0.08196 0.78701
 C1248 C 0.30582 -0.09145 0.80859
 C1249 C 0.28768 -0.07853 0.82054
 C1250 C 0.27664 -0.05887 0.80984
 C1251 C 0.28337 -0.05146 0.78696
 C1252 C 0.30312 -0.06254 0.77656
 C1253 C 0.30576 -0.07237 0.75216
 C1254 C 0.31763 -0.09368 0.76345
 H1255 H 0.28131 -0.08374 0.83784
 H1256 H 0.26217 -0.05011 0.81913
 H1257 H 0.31827 -0.06160 0.74118
 H1258 H 0.28821 -0.07661 0.74368
 H1259 H 0.33693 -0.09519 0.75870
 H1260 H 0.30699 -0.11032 0.76152
 C1261 C 0.81284 0.41947 0.78261
 C1262 C 0.80389 0.40999 0.80393
 C1263 C 0.78563 0.42314 0.81543
 C1264 C 0.77502 0.44288 0.80441
 C1265 C 0.78237 0.45015 0.78167
 C1266 C 0.80238 0.43897 0.77187
 C1267 C 0.80585 0.42925 0.74754
 C1268 C 0.81721 0.40783 0.75913
 H1269 H 0.77870 0.41797 0.83253
 H1270 H 0.76030 0.45169 0.81324
 H1271 H 0.81879 0.44001 0.73704
 H1272 H 0.78860 0.42511 0.73845
 H1273 H 0.83665 0.40626 0.75504
 H1274 H 0.80655 0.39125 0.75676
 C1275 C 0.78388 -0.07929 0.31304
 C1276 C 0.80547 -0.08890 0.30451
 C1277 C 0.81708 -0.07630 0.28600
 C1278 C 0.80592 -0.05694 0.27489
 C1279 C 0.78288 -0.04956 0.28190
 C1280 C 0.77294 -0.06019 0.30201
 C1281 C 0.74834 -0.07004 0.30569
 C1282 C 0.76015 -0.09100 0.31769
 H1283 H 0.83443 -0.08158 0.27939
 H1284 H 0.81490 -0.04850 0.26010
 H1285 H 0.73921 -0.07477 0.28877
 H1286 H 0.73761 -0.05900 0.31806
 H1287 H 0.75787 -0.10791 0.30775
 H1288 H 0.75598 -0.09202 0.33693
 C1289 C 0.31619 0.58302 0.71404
 C1290 C 0.30820 0.59164 0.69215
 C1291 C 0.29092 0.57788 0.67983
 C1292 C 0.28005 0.55804 0.69064
 C1293 C 0.28632 0.55144 0.71392
 C1294 C 0.30554 0.56344 0.72462
 C1295 C 0.30743 0.57405 0.74882
 C1296 C 0.31907 0.59552 0.73726
 H1297 H 0.28508 0.58283 0.66225
 H1298 H 0.26607 0.54854 0.68114
 H1299 H 0.31993 0.56404 0.76038
 H1300 H 0.28960 0.57786 0.75677
 H1301 H 0.33825 0.59786 0.74227
 H1302 H 0.30801 0.61181 0.73848
 C1303 C 0.28742 1.07942 0.17998
 C1304 C 0.31029 1.08763 0.18698
 C1305 C 0.32281 1.07346 0.20359
 C1306 C 0.31152 1.05407 0.21475
 C1307 C 0.28748 1.04812 0.20957
 C1308 C 0.27641 1.06020 0.19097
 C1309 C 0.25218 1.07121 0.19002
 C1310 C 0.26409 1.09231 0.17811
 H1311 H 0.34102 1.07756 0.20882
 H1312 H 0.32129 1.04446 0.22822
 H1313 H 0.24492 1.07534 0.20791
 H1314 H 0.23973 1.06131 0.17812
 H1315 H 0.26373 1.10871 0.18907
 H1316 H 0.25822 1.09458 0.15941
 C1317 C 0.78782 0.57357 0.18198
 C1318 C 0.81053 0.58198 0.18882
 C1319 C 0.82290 0.56892 0.20630
 C1320 C 0.81142 0.55023 0.21846
 C1321 C 0.78740 0.54407 0.21331
 C1322 C 0.77658 0.55509 0.19389
 C1323 C 0.75249 0.56633 0.19192
 C1324 C 0.76477 0.58659 0.17891
 H1325 H 0.84104 0.57367 0.21136
 H1326 H 0.82100 0.54139 0.23259
 H1327 H 0.74503 0.57160 0.20943
 H1328 H 0.74007 0.55588 0.18046
 H1329 H 0.76447 0.60363 0.18885
 H1330 H 0.75932 0.58780 0.15999
 C1331 C 0.78619 1.07864 0.68753
 C1332 C 0.80921 1.08654 0.69405
 C1333 C 0.82173 1.07289 0.71095
 C1334 C 0.81022 1.05409 0.72289
 C1335 C 0.78601 1.04835 0.71810
 C1336 C 0.77493 1.06002 0.69921
 C1337 C 0.75099 1.07168 0.69812
 C1338 C 0.76329 1.09209 0.68536
 H1339 H 0.84005 1.07720 0.71571
 H1340 H 0.81998 1.04475 0.73657
 H1341 H 0.73814 1.06172 0.68668
 H1342 H 0.74403 1.07658 0.71593
 H1343 H 0.76350 1.10886 0.69576
 H1344 H 0.75741 1.09388 0.66661
 C1345 C 0.71695 0.57895 0.31631
 C1346 C 0.69815 0.59122 0.30537
 C1347 C 0.69236 0.58472 0.28181
 C1348 C 0.70324 0.56502 0.27096
 C1349 C 0.72032 0.55141 0.28327
 C1350 C 0.72781 0.55964 0.30551
 C1351 C 0.72992 0.54656 0.32835
 C1352 C 0.71802 0.56764 0.34020
 H1353 H 0.67907 0.59437 0.27183
 H1354 H 0.69787 0.56019 0.25313
 H1355 H 0.74894 0.54421 0.33380
 H1356 H 0.71874 0.53015 0.32873
 H1357 H 0.73022 0.57734 0.35250
 H1358 H 0.69991 0.56352 0.34745
 C1359 C 0.71460 1.08205 0.82018
 C1360 C 0.69241 1.09052 0.81188
 C1361 C 0.68086 1.07684 0.79404
 C1362 C 0.69243 1.05745 0.78337
 C1363 C 0.71587 1.05108 0.79011
 C1364 C 0.72597 1.06289 0.80956
 C1365 C 0.75026 1.07381 0.81221
 C1366 C 0.73796 1.09482 0.82375
 H1367 H 0.66314 1.08119 0.78768
 H1368 H 0.68331 1.04809 0.76917
 H1369 H 0.76177 1.06372 0.82467
 H1370 H 0.75871 1.07813 0.79488
 H1371 H 0.73928 1.11136 0.81314
 H1372 H 0.74263 1.09683 0.84282
 C1373 C 0.18433 0.57780 0.78432
 C1374 C 0.19277 0.58733 0.80587
 C1375 C 0.21105 0.57445 0.81761
 C1376 C 0.22215 0.55491 0.80665
 C1377 C 0.21532 0.54761 0.78371
 C1378 C 0.19533 0.55853 0.77360
 C1379 C 0.19216 0.56837 0.74930
 C1380 C 0.18020 0.58951 0.76089
 H1381 H 0.21757 0.57966 0.83490
 H1382 H 0.23686 0.54631 0.81570
 H1383 H 0.17961 0.55746 0.73842
 H1384 H 0.20952 0.57285 0.74061
 H1385 H 0.16081 0.59078 0.75643
 H1386 H 0.19060 0.60629 0.75893
 C1387 C 0.21744 1.08011 0.31324
 C1388 C 0.19551 1.08933 0.30511
 C1389 C 0.18373 1.07645 0.28681
 C1390 C 0.19493 1.05716 0.27557
 C1391 C 0.21819 1.05011 0.28219
 C1392 C 0.22843 1.06107 0.30206
 C1393 C 0.25295 1.07135 0.30519
 C1394 C 0.24107 1.09224 0.31734
 H1395 H 0.16616 1.08140 0.28052
 H1396 H 0.18570 1.04843 0.26103
 H1397 H 0.26160 1.07605 0.28806
 H1398 H 0.26414 1.06060 0.31737
 H1399 H 0.24284 1.10909 0.30729
 H1400 H 0.24567 1.09352 0.33649
 C1401 C 0.71359 0.41795 0.67943
 C1402 C 0.69052 0.41020 0.68581
 C1403 C 0.67765 0.42443 0.70201
 C1404 C 0.68890 0.44369 0.71357
 C1405 C 0.71317 0.44930 0.70903
 C1406 C 0.72458 0.43703 0.69070
 C1407 C 0.74858 0.42545 0.69041
 C1408 C 0.73658 0.40454 0.67808
 H1409 H 0.65928 0.42021 0.70660
 H1410 H 0.67891 0.45350 0.72676
 H1411 H 0.75523 0.42120 0.70849
 H1412 H 0.76159 0.43505 0.67892
 H1413 H 0.73629 0.38815 0.68898
 H1414 H 0.74278 0.40212 0.65951
 C1415 C 0.68108 -0.08248 0.21223
 C1416 C 0.68892 -0.09149 0.19042
 C1417 C 0.70620 -0.07799 0.17792
 C1418 C 0.71730 -0.05809 0.18853
 C1419 C 0.71125 -0.05116 0.21179
 C1420 C 0.69194 -0.06284 0.22262
 C1421 C 0.69001 -0.07308 0.24692
 C1422 C 0.67813 -0.09461 0.23557
 H1423 H 0.71195 -0.08325 0.16039
 H1424 H 0.73135 -0.04887 0.17895
 H1425 H 0.67765 -0.06278 0.25840
 H1426 H 0.70782 -0.07697 0.25489
 H1427 H 0.65894 -0.09668 0.24060
 H1428 H 0.68902 -0.11099 0.23695
 C1429 C 0.21243 0.42533 0.18068
 C1430 C 0.18965 0.41696 0.18727
 C1431 C 0.17735 0.42977 0.20500
 C1432 C 0.18894 0.44814 0.21764
 C1433 C 0.21304 0.45421 0.21277
 C1434 C 0.22381 0.44348 0.19311
 C1435 C 0.24779 0.43205 0.19091
 C1436 C 0.23535 0.41218 0.17732
 H1437 H 0.15917 0.42504 0.20986
 H1438 H 0.17937 0.45680 0.23191
 H1439 H 0.25518 0.42635 0.20830
 H1440 H 0.26032 0.44263 0.17977
 H1441 H 0.23549 0.39493 0.18681
 H1442 H 0.24077 0.41133 0.15838
 C1443 C 0.21106 -0.07693 0.68320
 C1444 C 0.18929 -0.08680 0.69124
 C1445 C 0.17795 -0.07504 0.71042
 C1446 C 0.18947 -0.05628 0.72251
 C1447 C 0.21264 -0.04869 0.71587
 C1448 C 0.22238 -0.05845 0.69523
 C1449 C 0.24678 -0.06831 0.69105
 C1450 C 0.23453 -0.08858 0.67795
 H1451 H 0.16048 -0.08050 0.71674
 H1452 H 0.18062 -0.04845 0.73769
 H1453 H 0.25580 -0.07390 0.70770
 H1454 H 0.25776 -0.05677 0.67929
 H1455 H 0.23645 -0.10596 0.68698
 H1456 H 0.23869 -0.08872 0.65868
 C1457 C 0.28300 0.31534 0.42219
 C1458 C 0.30589 0.30898 0.41418
 C1459 C 0.31871 0.29237 0.42788
 C1460 C 0.30755 0.28045 0.44686
 C1461 C 0.28339 0.28499 0.45268
 C1462 C 0.27207 0.30367 0.44097
 C1463 C 0.24795 0.30446 0.42946
 C1464 C 0.25990 0.31721 0.40888
 H1465 H 0.33698 0.28778 0.42344
 H1466 H 0.31750 0.26698 0.45626
 H1467 H 0.23522 0.31581 0.43945
 H1468 H 0.24097 0.28655 0.42471
 H1469 H 0.25395 0.33588 0.40702
 H1470 H 0.25988 0.30672 0.39216
 C1471 C 0.28448 0.81354 -0.07998
 C1472 C 0.30673 0.80609 -0.08879
 C1473 C 0.31923 0.78897 -0.07539
 C1474 C 0.30821 0.77769 -0.05591
 C1475 C 0.28455 0.78342 -0.04924
 C1476 C 0.27374 0.80254 -0.06070
 C1477 C 0.24924 0.80446 -0.07122
 C1478 C 0.26096 0.81646 -0.09236
 H1479 H 0.33706 0.78345 -0.08039
 H1480 H 0.31780 0.76377 -0.04681
 H1481 H 0.23753 0.81649 -0.06082
 H1482 H 0.24122 0.78691 -0.07557
 H1483 H 0.25585 0.83539 -0.09411
 H1484 H 0.25971 0.80588 -0.10898
 C1485 C 0.78034 0.31538 -0.08387
 C1486 C 0.80244 0.30781 -0.09290
 C1487 C 0.81544 0.29130 -0.07919
 C1488 C 0.80503 0.28066 -0.05907
 C1489 C 0.78150 0.28643 -0.05205
 C1490 C 0.77018 0.30500 -0.06395
 C1491 C 0.74545 0.30622 -0.07404
 C1492 C 0.75654 0.31758 -0.09586
 H1493 H 0.83324 0.28583 -0.08435
 H1494 H 0.81504 0.26726 -0.04964
 H1495 H 0.73378 0.31847 -0.06385
 H1496 H 0.73758 0.28842 -0.07757
 H1497 H 0.75119 0.33637 -0.09820
 H1498 H 0.75508 0.30638 -0.11205
 C1499 C 0.78307 0.81789 0.41757
 C1500 C 0.80593 0.81139 0.40959
 C1501 C 0.81927 0.79591 0.42413
 C1502 C 0.80862 0.78506 0.44401
 C1503 C 0.78449 0.78957 0.44993
 C1504 C 0.77265 0.80728 0.43724
 C1505 C 0.74833 0.80695 0.42610
 C1506 C 0.75972 0.81855 0.40455
 H1507 H 0.83754 0.79135 0.41970
 H1508 H 0.81894 0.77233 0.45404
 H1509 H 0.73556 0.81872 0.43556
 H1510 H 0.74158 0.78868 0.42261
 H1511 H 0.75343 0.83696 0.40161
 H1512 H 0.75961 0.80702 0.38853
 C1513 C 0.68706 0.28000 0.57897
 C1514 C 0.69766 0.29929 0.59079
 C1515 C 0.72136 0.30553 0.58424
 C1516 C 0.73265 0.29444 0.56488
 C1517 C 0.72062 0.27676 0.55164
 C1518 C 0.69827 0.26899 0.55996
 C1519 C 0.67518 0.26578 0.54688
 C1520 C 0.66290 0.27784 0.56766
 H1521 H 0.73110 0.31927 0.59362
 H1522 H 0.75059 0.30010 0.56000
 H1523 H 0.67016 0.24677 0.54496
 H1524 H 0.67450 0.27625 0.53021
 H1525 H 0.65077 0.26574 0.57764
 H1526 H 0.65508 0.29533 0.56311
 C1527 C 0.71790 0.80648 1.08584
 C1528 C 0.69912 0.79535 1.09815
 C1529 C 0.69372 0.77162 1.09192
 C1530 C 0.70479 0.76083 1.07223
 C1531 C 0.72166 0.77342 1.05845
 C1532 C 0.72893 0.79576 1.06658
 C1533 C 0.73104 0.81856 1.05339
 C1534 C 0.71893 0.83034 1.07443
 H1535 H 0.68042 0.76155 1.10161
 H1536 H 0.69954 0.74296 1.06737
 H1537 H 0.71998 0.81877 1.03696
 H1538 H 0.75005 0.82417 1.05107
 H1539 H 0.70081 0.83739 1.07024
 H1540 H 0.73101 0.84281 1.08408
 C1541 C 0.21073 0.32441 1.07190
 C1542 C 0.18793 0.31731 1.07975
 C1543 C 0.17577 0.29990 1.06614
 C1544 C 0.18763 0.28782 1.04768
 C1545 C 0.21182 0.29301 1.04231
 C1546 C 0.22234 0.31258 1.05366
 C1547 C 0.24624 0.31490 1.06548
 C1548 C 0.23354 0.32783 1.08547
 H1549 H 0.15759 0.29467 1.07046
 H1550 H 0.17830 0.27354 1.03861
 H1551 H 0.25874 0.32646 1.05532
 H1552 H 0.25374 0.29752 1.07092
 H1553 H 0.23883 0.34682 1.08681
 H1554 H 0.23365 0.31797 1.10251
 C1555 C 0.21073 0.82349 0.57489
 C1556 C 0.18782 0.81651 0.58257
 C1557 C 0.17500 0.80041 0.56799
 C1558 C 0.18630 0.78925 0.54862
 C1559 C 0.21057 0.79411 0.54328
 C1560 C 0.22180 0.81257 0.55575
 C1561 C 0.24587 0.81342 0.56739
 C1562 C 0.23378 0.82534 0.58836
 H1563 H 0.15673 0.79540 0.57217
 H1564 H 0.17649 0.77579 0.53882
 H1565 H 0.25860 0.82528 0.55788
 H1566 H 0.25291 0.79550 0.57157
 H1567 H 0.23965 0.84404 0.59089
 H1568 H 0.23378 0.81435 0.60470
 C1569 C 0.30993 0.72204 0.58584
 C1570 C 0.29869 0.70364 0.59835
 C1571 C 0.27462 0.69825 0.59229
 C1572 C 0.26362 0.70897 0.57256
 C1573 C 0.27635 0.72545 0.55855
 C1574 C 0.29903 0.73268 0.56652
 C1575 C 0.32211 0.73463 0.55324
 C1576 C 0.33409 0.72294 0.57437
 H1577 H 0.26446 0.68522 0.60216
 H1578 H 0.24550 0.70372 0.56781
 H1579 H 0.32778 0.75337 0.55071
 H1580 H 0.32232 0.72352 0.53693
 H1581 H 0.34672 0.73499 0.58387
 H1582 H 0.34125 0.70502 0.57035
 C1583 C 0.31255 0.21981 1.08459
 C1584 C 0.30138 0.20108 1.09669
 C1585 C 0.27727 0.19588 1.09067
 C1586 C 0.26615 0.20710 1.07128
 C1587 C 0.27881 0.22389 1.05757
 C1588 C 0.30153 0.23094 1.06559
 C1589 C 0.32455 0.23324 1.05227
 C1590 C 0.33664 0.22102 1.07304
 H1591 H 0.26717 0.18261 1.10028
 H1592 H 0.24801 0.20195 1.06653
 H1593 H 0.33020 0.25205 1.05019
 H1594 H 0.32470 0.22254 1.03568
 H1595 H 0.34930 0.23283 1.08281
 H1596 H 0.34380 0.20322 1.06854
 C1597 C 0.78899 0.67473 1.07427
 C1598 C 0.81168 0.68198 1.08237
 C1599 C 0.82417 0.69889 1.06854
 C1600 C 0.81270 0.71043 1.04954
 C1601 C 0.78860 0.70515 1.04383
 C1602 C 0.77777 0.68601 1.05548
 C1603 C 0.75366 0.68422 1.06689
 C1604 C 0.76592 0.67189 1.08748
 H1605 H 0.84230 0.70419 1.07306
 H1606 H 0.82223 0.72441 1.04030
 H1607 H 0.74126 0.67239 1.05682
 H1608 H 0.74616 0.70181 1.07169
 H1609 H 0.76049 0.65299 1.08925
 H1610 H 0.76557 0.68233 1.10423
 C1611 C 0.78774 0.17932 0.57990
 C1612 C 0.81063 0.18633 0.58769
 C1613 C 0.82347 0.20243 0.57322
 C1614 C 0.81233 0.21327 0.55363
 C1615 C 0.78820 0.20812 0.54793
 C1616 C 0.77685 0.18990 0.56051
 C1617 C 0.75270 0.18939 0.57192
 C1618 C 0.76459 0.17784 0.59317
 H1619 H 0.84173 0.20747 0.57747
 H1620 H 0.82227 0.22645 0.54367
 H1621 H 0.73999 0.17739 0.56245
 H1622 H 0.74571 0.20742 0.57574
 H1623 H 0.75861 0.15922 0.59594
 H1624 H 0.76453 0.18916 0.60935
 C1625 C 0.71815 0.68527 0.42003
 C1626 C 0.69461 0.69053 0.41307
 C1627 C 0.68151 0.70616 0.42772
 C1628 C 0.69282 0.71830 0.44656
 C1629 C 0.71739 0.71490 0.45138
 C1630 C 0.72922 0.69710 0.43874
 C1631 C 0.75285 0.69790 0.42633
 C1632 C 0.74076 0.68499 0.40583
 H1633 H 0.66284 0.70984 0.42417
 H1634 H 0.68255 0.73101 0.45670
 H1635 H 0.76660 0.68704 0.43549
 H1636 H 0.75863 0.71626 0.42187
 H1637 H 0.74766 0.66673 0.40318
 H1638 H 0.73950 0.69583 0.38944
 C1639 C 0.68023 0.21448 -0.07615
 C1640 C 0.68780 0.19217 -0.08407
 C1641 C 0.70491 0.18029 -0.06999
 C1642 C 0.71630 0.19194 -0.05088
 C1643 C 0.71068 0.21563 -0.04527
 C1644 C 0.69134 0.22587 -0.05721
 C1645 C 0.68947 0.24957 -0.06870
 C1646 C 0.67733 0.23714 -0.08945
 H1647 H 0.71043 0.16246 -0.07429
 H1648 H 0.73036 0.18281 -0.04136
 H1649 H 0.70729 0.25726 -0.07324
 H1650 H 0.67729 0.26160 -0.05884
 H1651 H 0.68809 0.23765 -0.10604
 H1652 H 0.65816 0.24211 -0.09152
 C1653 C 0.18452 0.71214 -0.08249
 C1654 C 0.19215 0.69000 -0.09081
 C1655 C 0.20908 0.67777 -0.07679
 C1656 C 0.22003 0.68887 -0.05711
 C1657 C 0.21417 0.71234 -0.05086
 C1658 C 0.19520 0.72297 -0.06301
 C1659 C 0.19381 0.74697 -0.07393
 C1660 C 0.18213 0.73516 -0.09528
 H1661 H 0.21467 0.66006 -0.08142
 H1662 H 0.23379 0.67944 -0.04746
 H1663 H 0.21181 0.75463 -0.07784
 H1664 H 0.18147 0.75885 -0.06408
 H1665 H 0.19331 0.73601 -0.11158
 H1666 H 0.16306 0.74034 -0.09769
 C1667 C 0.21718 0.18251 0.41889
 C1668 C 0.19428 0.18892 0.41092
 C1669 C 0.18095 0.20444 0.42548
 C1670 C 0.19163 0.21541 0.44536
 C1671 C 0.21577 0.21095 0.45128
 C1672 C 0.22762 0.19321 0.43857
 C1673 C 0.25191 0.19356 0.42745
 C1674 C 0.24050 0.18187 0.40588
 H1675 H 0.16265 0.20895 0.42109
 H1676 H 0.18131 0.22816 0.45541
 H1677 H 0.26472 0.18185 0.43689
 H1678 H 0.25862 0.21183 0.42399
 H1679 H 0.24685 0.16346 0.40291
 H1680 H 0.24056 0.19334 0.38988
 C1681 C 0.28859 0.42148 0.68162
 C1682 C 0.31106 0.41327 0.68907
 C1683 C 0.32364 0.42726 0.70587
 C1684 C 0.31252 0.44679 0.71687
 C1685 C 0.28868 0.45287 0.71117
 C1686 C 0.27773 0.44076 0.69236
 C1687 C 0.25336 0.42969 0.69087
 C1688 C 0.26522 0.40854 0.67914
 H1689 H 0.34162 0.42265 0.71134
 H1690 H 0.32216 0.45635 0.73061
 H1691 H 0.24129 0.43955 0.67874
 H1692 H 0.24566 0.42561 0.70860
 H1693 H 0.25982 0.40623 0.66030
 H1694 H 0.26442 0.39216 0.69005
 C1695 C 0.28380 0.91603 0.18477
 C1696 C 0.30623 0.90766 0.19213
 C1697 C 0.31958 0.92216 0.20788
 C1698 C 0.30927 0.94253 0.21806
 C1699 C 0.28548 0.94897 0.21258
 C1700 C 0.27371 0.93615 0.19472
 C1701 C 0.24907 0.92559 0.19447
 C1702 C 0.26010 0.90354 0.18359
 H1703 H 0.33758 0.91742 0.21312
 H1704 H 0.31955 0.95256 0.23098
 H1705 H 0.23689 0.93506 0.18214
 H1706 H 0.24179 0.92267 0.21259
 H1707 H 0.25416 0.90034 0.16503
 H1708 H 0.25924 0.88780 0.19539
 C1709 C 0.78591 0.41578 0.18755
 C1710 C 0.80875 0.40805 0.19443
 C1711 C 0.82125 0.42203 0.21129
 C1712 C 0.80992 0.44120 0.22266
 C1713 C 0.78591 0.44695 0.21735
 C1714 C 0.77483 0.43473 0.19868
 C1715 C 0.75073 0.42305 0.19768
 C1716 C 0.76285 0.40227 0.18552
 H1717 H 0.83946 0.41785 0.21631
 H1718 H 0.81970 0.45094 0.23618
 H1719 H 0.73811 0.43267 0.18591
 H1720 H 0.74357 0.41868 0.21555
 H1721 H 0.75709 0.39994 0.16678
 H1722 H 0.76275 0.38581 0.19632
 C1723 C 0.78310 0.91906 0.69093
 C1724 C 0.80540 0.91024 0.69815
 C1725 C 0.81827 0.92358 0.71527
 C1726 C 0.80766 0.94322 0.72658
 C1727 C 0.78403 0.95006 0.72094
 C1728 C 0.77273 0.93843 0.70200
 C1729 C 0.74814 0.92789 0.70047
 C1730 C 0.75947 0.90665 0.68836
 H1731 H 0.83615 0.91850 0.72059
 H1732 H 0.81762 0.95241 0.74034
 H1733 H 0.73622 0.93817 0.68855
 H1734 H 0.74044 0.92371 0.71817
 H1735 H 0.75397 0.90472 0.66950
 H1736 H 0.75838 0.89012 0.69902
 C1737 C 0.71405 0.57988 0.68099
 C1738 C 0.69172 0.58844 0.68844
 C1739 C 0.67855 0.57427 0.70453
 C1740 C 0.68902 0.55417 0.71501
 C1741 C 0.71279 0.54769 0.70949
 C1742 C 0.72429 0.56004 0.69123
 C1743 C 0.74893 0.57057 0.69044
 C1744 C 0.73774 0.59232 0.67924
 H1745 H 0.66063 0.57917 0.70989
 H1746 H 0.67894 0.54447 0.72827
 H1747 H 0.76092 0.56076 0.67816
 H1748 H 0.75651 0.57397 0.70839
 H1749 H 0.74340 0.59503 0.66054
 H1750 H 0.73880 0.60838 0.69068
 C1751 C 0.68067 0.07748 0.20917
 C1752 C 0.69146 0.08961 0.19027
 C1753 C 0.71513 0.08310 0.18417
 C1754 C 0.72629 0.06365 0.19510
 C1755 C 0.71416 0.05030 0.21251
 C1756 C 0.69176 0.05841 0.22005
 C1757 C 0.66866 0.04513 0.22256
 C1758 C 0.65650 0.06597 0.21063
 H1759 H 0.72505 0.09263 0.17075
 H1760 H 0.74427 0.05891 0.18964
 H1761 H 0.66339 0.04294 0.24144
 H1762 H 0.66814 0.02861 0.21177
 H1763 H 0.64419 0.07569 0.22267
 H1764 H 0.64891 0.06160 0.19290
 C1765 C 0.18361 0.58097 0.21529
 C1766 C 0.19463 0.59284 0.19636
 C1767 C 0.21854 0.58661 0.19093
 C1768 C 0.22968 0.56744 0.20236
 C1769 C 0.21725 0.55410 0.21959
 C1770 C 0.19465 0.56215 0.22662
 C1771 C 0.17158 0.54879 0.22906
 C1772 C 0.15947 0.56938 0.21663
 H1773 H 0.22854 0.59607 0.17750
 H1774 H 0.24777 0.56273 0.19727
 H1775 H 0.16607 0.54688 0.24790
 H1776 H 0.17128 0.53210 0.21853
 H1777 H 0.14697 0.57924 0.22834
 H1778 H 0.15215 0.56468 0.19887
 C1779 C 0.18490 0.08116 0.71910
 C1780 C 0.19160 0.08824 0.69620
 C1781 C 0.20758 0.07335 0.68374
 C1782 C 0.21860 0.05405 0.69511
 C1783 C 0.21369 0.04899 0.71908
 C1784 C 0.19560 0.06198 0.73019
 C1785 C 0.19580 0.07406 0.75374
 C1786 C 0.18412 0.09507 0.74166
 H1787 H 0.21239 0.07698 0.66555
 H1788 H 0.23161 0.04368 0.68539
 H1789 H 0.21428 0.07790 0.76022
 H1790 H 0.18383 0.06508 0.76672
 H1791 H 0.19580 0.11112 0.74116
 H1792 H 0.16544 0.09817 0.74779
 C1793 C 0.31602 0.57630 0.29506
 C1794 C 0.30557 0.58735 0.31476
 C1795 C 0.28159 0.58107 0.32021
 C1796 C 0.26972 0.56278 0.30769
 C1797 C 0.28146 0.55040 0.28935
 C1798 C 0.30427 0.55839 0.28268
 C1799 C 0.32683 0.54470 0.27927
 C1800 C 0.33972 0.56428 0.29285
 H1801 H 0.27201 0.58989 0.33432
 H1802 H 0.25153 0.55809 0.31266
 H1803 H 0.33217 0.54373 0.26031
 H1804 H 0.32658 0.52744 0.28875
 H1805 H 0.35253 0.57448 0.28167
 H1806 H 0.34697 0.55843 0.31025
 C1807 C 0.28506 0.07648 0.82226
 C1808 C 0.30780 0.08458 0.81521
 C1809 C 0.31990 0.07114 0.79780
 C1810 C 0.30816 0.05243 0.78583
 C1811 C 0.28411 0.04658 0.79112
 C1812 C 0.27355 0.05795 0.81054
 C1813 C 0.24960 0.06947 0.81259
 C1814 C 0.26219 0.08976 0.82540
 H1815 H 0.33807 0.07556 0.79266
 H1816 H 0.31758 0.04328 0.77178
 H1817 H 0.23716 0.05927 0.82417
 H1818 H 0.24207 0.07461 0.79510
 H1819 H 0.25694 0.09124 0.84435
 H1820 H 0.26197 0.10669 0.81534
 C1821 C 0.81445 0.57673 0.78527
 C1822 C 0.80342 0.58886 0.80402
 C1823 C 0.77909 0.58330 0.80869
 C1824 C 0.76742 0.56459 0.79666
 C1825 C 0.77970 0.55108 0.77953
 C1826 C 0.80286 0.55842 0.77330
 C1827 C 0.82530 0.54426 0.77136
 C1828 C 0.83801 0.56426 0.78449
 H1829 H 0.76906 0.59291 0.82194
 H1830 H 0.74899 0.56040 0.80117
 H1831 H 0.83130 0.54234 0.75267
 H1832 H 0.82442 0.52746 0.78161
 H1833 H 0.85139 0.57373 0.77333
 H1834 H 0.84450 0.55912 0.80239
 C1835 C 0.81497 0.07819 0.28190
 C1836 C 0.80448 0.09023 0.30098
 C1837 C 0.78058 0.08410 0.30686
 C1838 C 0.76895 0.06485 0.29571
 C1839 C 0.78084 0.05134 0.27831
 C1840 C 0.80342 0.05929 0.27081
 C1841 C 0.82624 0.04586 0.26804
 C1842 C 0.83889 0.06653 0.28019
 H1843 H 0.77093 0.09370 0.32039
 H1844 H 0.75087 0.06027 0.30113
 H1845 H 0.83139 0.04377 0.24912
 H1846 H 0.82645 0.02926 0.27862
 H1847 H 0.85134 0.07626 0.26823
 H1848 H 0.84645 0.06196 0.29784
 C1849 C 0.68290 0.42208 0.29354
 C1850 C 0.69376 0.41007 0.31244
 C1851 C 0.71807 0.41569 0.31733
 C1852 C 0.72990 0.43420 0.30522
 C1853 C 0.71785 0.44748 0.28778
 C1854 C 0.69466 0.44018 0.28149
 C1855 C 0.67234 0.45447 0.27934
 C1856 C 0.65945 0.43473 0.29255
 H1857 H 0.72798 0.40626 0.33075
 H1858 H 0.74834 0.43833 0.30981
 H1859 H 0.66640 0.45621 0.26060
 H1860 H 0.67332 0.47138 0.28947
 H1861 H 0.64602 0.42523 0.28138
 H1862 H 0.65294 0.44014 0.31038
 C1863 C 0.71629 0.92208 0.82391
 C1864 C 0.69300 0.91475 0.81779
 C1865 C 0.68018 0.92917 0.80177
 C1866 C 0.69163 0.94812 0.79004
 C1867 C 0.71608 0.95325 0.79422
 C1868 C 0.72751 0.94088 0.81245
 C1869 C 0.75127 0.92882 0.81255
 C1870 C 0.73901 0.90822 0.82506
 H1871 H 0.66165 0.92532 0.79745
 H1872 H 0.68164 0.95802 0.77695
 H1873 H 0.76460 0.93824 0.82389
 H1874 H 0.75764 0.92432 0.79441
 H1875 H 0.74536 0.90580 0.84358
 H1876 H 0.73823 0.89176 0.81420
 C1877 C 0.18519 0.42154 0.78577
 C1878 C 0.19656 0.40886 0.80392
 C1879 C 0.22117 0.41381 0.80792
 C1880 C 0.23278 0.43257 0.79605
 C1881 C 0.22020 0.44671 0.77971
 C1882 C 0.19675 0.43988 0.77392
 C1883 C 0.17453 0.45446 0.77290
 C1884 C 0.16185 0.43445 0.78592
 H1885 H 0.23143 0.40378 0.82063
 H1886 H 0.25141 0.43637 0.80017
 H1887 H 0.16802 0.45682 0.75443
 H1888 H 0.17603 0.47105 0.78350
 H1889 H 0.14797 0.42542 0.77491
 H1890 H 0.15599 0.43938 0.80411
 C1891 C 0.21795 0.91999 0.31289
 C1892 C 0.19445 0.91302 0.30707
 C1893 C 0.18143 0.92800 0.29174
 C1894 C 0.19279 0.94725 0.28038
 C1895 C 0.21733 0.95213 0.28430
 C1896 C 0.22905 0.93909 0.30185
 C1897 C 0.25273 0.92690 0.30096
 C1898 C 0.24061 0.90596 0.31300
 H1899 H 0.16279 0.92443 0.28765
 H1900 H 0.18264 0.95761 0.26778
 H1901 H 0.26637 0.93585 0.31233
 H1902 H 0.25865 0.92302 0.28254
 H1903 H 0.24741 0.90285 0.33125
 H1904 H 0.23947 0.88990 0.30158
 C1905 C 0.41984 0.28384 0.68434
 C1906 C 0.41260 0.30662 0.69113
 C1907 C 0.42743 0.31893 0.70745
 C1908 C 0.44678 0.30746 0.71864
 C1909 C 0.45186 0.28352 0.71362
 C1910 C 0.43897 0.27263 0.69526
 C1911 C 0.42666 0.24907 0.69467
 C1912 C 0.40567 0.26131 0.68275
 H1913 H 0.42365 0.33704 0.71237
 H1914 H 0.45700 0.31701 0.73197
 H1915 H 0.42235 0.24227 0.71268
 H1916 H 0.43597 0.23630 0.68286
 H1917 H 0.38916 0.26165 0.69382
 H1918 H 0.40291 0.25546 0.66411
 C1919 C 0.41662 0.77992 0.18856
 C1920 C 0.40854 0.80235 0.19557
 C1921 C 0.42264 0.81480 0.21241
 C1922 C 0.44218 0.80378 0.22372
 C1923 C 0.44820 0.78013 0.21834
 C1924 C 0.43595 0.76915 0.19961
 C1925 C 0.42440 0.74524 0.19847
 C1926 C 0.40321 0.75701 0.18639
 H1927 H 0.41820 0.83270 0.21755
 H1928 H 0.45194 0.81346 0.23729
 H1929 H 0.42002 0.73805 0.21629
 H1930 H 0.43430 0.73294 0.18663
 H1931 H 0.38652 0.75666 0.19720
 H1932 H 0.40094 0.75138 0.16762
 C1933 C 0.92481 0.28590 0.18143
 C1934 C 0.91657 0.30798 0.18929
 C1935 C 0.93049 0.31983 0.20668
 C1936 C 0.94990 0.30838 0.21779
 C1937 C 0.95592 0.28491 0.21166
 C1938 C 0.94397 0.27469 0.19232
 C1939 C 0.93249 0.25083 0.18996
 C1940 C 0.91148 0.26308 0.17806
 H1941 H 0.92589 0.33749 0.21248
 H1942 H 0.95939 0.31749 0.23192
 H1943 H 0.92783 0.24286 0.20739
 H1944 H 0.94262 0.23908 0.17775
 H1945 H 0.89461 0.26224 0.18857
 H1946 H 0.90953 0.25827 0.15903
 C1947 C 0.91647 0.78340 0.68686
 C1948 C 0.90824 0.80534 0.69514
 C1949 C 0.92259 0.81720 0.71219
 C1950 C 0.94257 0.80595 0.72248
 C1951 C 0.94878 0.78267 0.71585
 C1952 C 0.93622 0.77240 0.69692
 C1953 C 0.92498 0.74841 0.69489
 C1954 C 0.90334 0.76042 0.68390
 H1955 H 0.91803 0.83477 0.71829
 H1956 H 0.95250 0.81512 0.73628
 H1957 H 0.92113 0.74033 0.71245
 H1958 H 0.93476 0.73684 0.68225
 H1959 H 0.88692 0.75931 0.69506
 H1960 H 0.90069 0.75567 0.66494
 C1961 C 0.57589 0.32006 0.29295
 C1962 C 0.58318 0.31295 0.31564
 C1963 C 0.56900 0.29549 0.32701
 C1964 C 0.55037 0.28365 0.31471
 C1965 C 0.54533 0.28914 0.29084
 C1966 C 0.55745 0.30850 0.28092
 C1967 C 0.57001 0.31052 0.25765
 C1968 C 0.59022 0.32313 0.27077
 H1969 H 0.57282 0.29019 0.34502
 H1970 H 0.54068 0.26953 0.32356
 H1971 H 0.56027 0.32221 0.24512
 H1972 H 0.57529 0.29301 0.25028
 H1973 H 0.59212 0.34206 0.26567
 H1974 H 0.60726 0.31296 0.27105
 C1975 C 0.58117 0.81835 0.79046
 C1976 C 0.58839 0.81105 0.81310
 C1977 C 0.57394 0.79381 0.82450
 C1978 C 0.55503 0.78239 0.81227
 C1979 C 0.54998 0.78809 0.78847
 C1980 C 0.56243 0.80721 0.77852
 C1981 C 0.57490 0.80898 0.75519
 C1982 C 0.59545 0.82114 0.76822
 H1983 H 0.57768 0.78839 0.84248
 H1984 H 0.54505 0.76848 0.82114
 H1985 H 0.56537 0.82088 0.74271
 H1986 H 0.57977 0.79137 0.74782
 H1987 H 0.59774 0.84003 0.76311
 H1988 H 0.61226 0.81061 0.76840
 C1989 C 0.07614 0.32155 0.78922
 C1990 C 0.08369 0.31482 0.81194
 C1991 C 0.06937 0.29797 0.82401
 C1992 C 0.05037 0.28615 0.81230
 C1993 C 0.04513 0.29107 0.78835
 C1994 C 0.05733 0.31001 0.77777
 C1995 C 0.06951 0.31130 0.75425
 C1996 C 0.09013 0.32390 0.76675
 H1997 H 0.07344 0.29304 0.84208
 H1998 H 0.04064 0.27236 0.82163
 H1999 H 0.05974 0.32286 0.74162
 H2000 H 0.07440 0.29355 0.74720
 H2001 H 0.09223 0.34268 0.76118
 H2002 H 0.10701 0.31347 0.76698
 C2003 C 0.07959 0.81789 0.28373
 C2004 C 0.08777 0.81074 0.30610
 C2005 C 0.07358 0.79399 0.31844
 C2006 C 0.05395 0.78270 0.30726
 C2007 C 0.04794 0.78803 0.28358
 C2008 C 0.06017 0.80685 0.27279
 C2009 C 0.07160 0.80816 0.24891
 C2010 C 0.09288 0.82023 0.26086
 H2011 H 0.07812 0.78880 0.33632
 H2012 H 0.04422 0.76907 0.31681
 H2013 H 0.06166 0.82003 0.23671
 H2014 H 0.07589 0.79039 0.24154
 H2015 H 0.09518 0.83903 0.25545
 H2016 H 0.10954 0.80948 0.26043
 C2017 C 0.58469 0.71918 0.68706
 C2018 C 0.59241 0.69659 0.69386
 C2019 C 0.57788 0.68411 0.71023
 C2020 C 0.55828 0.69523 0.72134
 C2021 C 0.55259 0.71898 0.71622
 C2022 C 0.56528 0.73004 0.69790
 C2023 C 0.57710 0.75383 0.69739
 C2024 C 0.59838 0.74198 0.68555
 H2025 H 0.58199 0.66610 0.71516
 H2026 H 0.54819 0.68549 0.73456
 H2027 H 0.58123 0.76075 0.71542
 H2028 H 0.56755 0.76638 0.68557
 H2029 H 0.61487 0.74203 0.69669
 H2030 H 0.60105 0.74781 0.66692
 C2031 C 0.58232 0.21756 0.18850
 C2032 C 0.58912 0.19443 0.19442
 C2033 C 0.57487 0.18236 0.21131
 C2034 C 0.55636 0.19413 0.22348
 C2035 C 0.55148 0.21817 0.21894
 C2036 C 0.56393 0.22906 0.20037
 C2037 C 0.57695 0.25225 0.20007
 C2038 C 0.59711 0.23969 0.18711
 H2039 H 0.57828 0.16405 0.21565
 H2040 H 0.54626 0.18455 0.23681
 H2041 H 0.58209 0.25845 0.21812
 H2042 H 0.56763 0.26559 0.18896
 H2043 H 0.61398 0.23858 0.19761
 H2044 H 0.59940 0.24593 0.16856
 C2045 C 0.07905 0.71468 0.18361
 C2046 C 0.08701 0.69244 0.19118
 C2047 C 0.07323 0.68083 0.20875
 C2048 C 0.05418 0.69254 0.22017
 C2049 C 0.04834 0.71605 0.21416
 C2050 C 0.06020 0.72615 0.19477
 C2051 C 0.07207 0.74982 0.19257
 C2052 C 0.09273 0.73730 0.18036
 H2053 H 0.07756 0.66306 0.21435
 H2054 H 0.04466 0.68350 0.23426
 H2055 H 0.07705 0.75759 0.21005
 H2056 H 0.06201 0.76182 0.18059
 H2057 H 0.10972 0.73780 0.19073
 H2058 H 0.09455 0.74217 0.16137
 C2059 C 0.08300 0.18815 0.71883
 C2060 C 0.09563 0.19869 0.70008
 C2061 C 0.08961 0.22225 0.69421
 C2062 C 0.06986 0.23347 0.70494
 C2063 C 0.05576 0.22149 0.72191
 C2064 C 0.06366 0.19929 0.72951
 C2065 C 0.04997 0.17663 0.73198
 C2066 C 0.07110 0.16440 0.72026
 H2067 H 0.09959 0.23191 0.68091
 H2068 H 0.06526 0.25124 0.69944
 H2069 H 0.03334 0.17621 0.72105
 H2070 H 0.04751 0.17153 0.75085
 H2071 H 0.06678 0.15689 0.70250
 H2072 H 0.08070 0.15221 0.73242
 C2073 C 0.41932 0.68099 0.29298
 C2074 C 0.41237 0.68811 0.31580
 C2075 C 0.42669 0.70559 0.32709
 C2076 C 0.44532 0.71722 0.31471
 C2077 C 0.45020 0.71151 0.29084
 C2078 C 0.43776 0.69233 0.28090
 C2079 C 0.42493 0.69061 0.25772
 C2080 C 0.40469 0.67822 0.27090
 H2081 H 0.42314 0.71093 0.34515
 H2082 H 0.45530 0.73120 0.32356
 H2083 H 0.43436 0.67884 0.24499
 H2084 H 0.41982 0.70822 0.25060
 H2085 H 0.40247 0.65935 0.26560
 H2086 H 0.38781 0.68863 0.27142
 C2087 C 0.41779 0.18297 0.78811
 C2088 C 0.40639 0.19353 0.80757
 C2089 C 0.41275 0.21724 0.81293
 C2090 C 0.43173 0.22862 0.80091
 C2091 C 0.44473 0.21665 0.78315
 C2092 C 0.43640 0.19425 0.77620
 C2093 C 0.44990 0.17172 0.77300
 C2094 C 0.42955 0.15935 0.78607
 H2095 H 0.40362 0.22689 0.82679
 H2096 H 0.43667 0.24651 0.80604
 H2097 H 0.46719 0.17162 0.78289
 H2098 H 0.45116 0.16646 0.75404
 H2099 H 0.43499 0.15207 0.80356
 H2100 H 0.41919 0.14693 0.77459
 C2101 C 0.92048 0.68017 0.78534
 C2102 C 0.91295 0.68709 0.80803
 C2103 C 0.92716 0.70418 0.82000
 C2104 C 0.94612 0.71591 0.80827
 C2105 C 0.95146 0.71069 0.78439
 C2106 C 0.93926 0.69163 0.77387
 C2107 C 0.92702 0.69014 0.75036
 C2108 C 0.90644 0.67760 0.76289
 H2109 H 0.92315 0.70924 0.83805
 H2110 H 0.95591 0.72972 0.81760
 H2111 H 0.93678 0.67851 0.73775
 H2112 H 0.92208 0.70782 0.74329
 H2113 H 0.90436 0.65877 0.75740
 H2114 H 0.88954 0.68800 0.76309
 C2115 C 0.92113 0.21306 0.31216
 C2116 C 0.91297 0.19069 0.30472
 C2117 C 0.92675 0.17887 0.28736
 C2118 C 0.94606 0.19044 0.27605
 C2119 C 0.95218 0.21402 0.28193
 C2120 C 0.94024 0.22439 0.30109
 C2121 C 0.92864 0.24808 0.30293
 C2122 C 0.90768 0.23570 0.31503
 H2123 H 0.92226 0.16102 0.28189
 H2124 H 0.95562 0.18119 0.26215
 H2125 H 0.92395 0.25560 0.28533
 H2126 H 0.93870 0.26026 0.31492
 H2127 H 0.89082 0.23601 0.30447
 H2128 H 0.90569 0.24085 0.33396
 C2129 C 0.28470 0.31447 0.58056
 C2130 C 0.30785 0.30813 0.58785
 C2131 C 0.32026 0.29161 0.57365
 C2132 C 0.30855 0.27978 0.55488
 C2133 C 0.28422 0.28432 0.54975
 C2134 C 0.27321 0.30290 0.56196
 C2135 C 0.24946 0.30352 0.57416
 C2136 C 0.26202 0.31617 0.59455
 H2137 H 0.33868 0.28705 0.57752
 H2138 H 0.31825 0.26640 0.54505
 H2139 H 0.24269 0.28555 0.57889
 H2140 H 0.23638 0.31489 0.56469
 H2141 H 0.26257 0.30557 0.61114
 H2142 H 0.25608 0.33480 0.59681
 C2143 C 0.31434 0.78134 0.08106
 C2144 C 0.30695 0.80359 0.08933
 C2145 C 0.29016 0.81595 0.07525
 C2146 C 0.27908 0.80492 0.05560
 C2147 C 0.28469 0.78138 0.04941
 C2148 C 0.30355 0.77059 0.06159
 C2149 C 0.30472 0.74658 0.07252
 C2150 C 0.31650 0.75831 0.09387
 H2151 H 0.28475 0.83373 0.07983
 H2152 H 0.26542 0.81446 0.04592
 H2153 H 0.31697 0.73460 0.06268
 H2154 H 0.28666 0.73907 0.07641
 H2155 H 0.33551 0.75295 0.09630
 H2156 H 0.30529 0.75758 0.11016
 C2157 C 0.82000 0.28886 0.07640
 C2158 C 0.81280 0.31097 0.08514
 C2159 C 0.79534 0.32333 0.07190
 C2160 C 0.78338 0.31231 0.05273
 C2161 C 0.78877 0.28879 0.04626
 C2162 C 0.80831 0.27810 0.05746
 C2163 C 0.81027 0.25404 0.06821
 C2164 C 0.82303 0.26580 0.08899
 H2165 H 0.79002 0.34104 0.07691
 H2166 H 0.76912 0.32175 0.04383
 H2167 H 0.82212 0.24223 0.05771
 H2168 H 0.79250 0.24630 0.07297
 H2169 H 0.84219 0.26063 0.09045
 H2170 H 0.81268 0.26491 0.10582
 C2171 C 0.78323 0.81853 0.58186
 C2172 C 0.80627 0.81226 0.58956
 C2173 C 0.81969 0.79720 0.57463
 C2174 C 0.80898 0.78638 0.55468
 C2175 C 0.78469 0.79053 0.54907
 C2176 C 0.77274 0.80797 0.56210
 C2177 C 0.74855 0.80720 0.57343
 C2178 C 0.76001 0.81874 0.59507
 H2179 H 0.83808 0.79285 0.57883
 H2180 H 0.81938 0.77389 0.54439
 H2181 H 0.74208 0.78881 0.57670
 H2182 H 0.73552 0.81888 0.56426
 H2183 H 0.76022 0.80705 0.61092
 H2184 H 0.75350 0.83703 0.59834
 C2185 C 0.28752 0.67957 0.43028
 C2186 C 0.31080 0.68584 0.42308
 C2187 C 0.32306 0.70303 0.43687
 C2188 C 0.31103 0.71563 0.45487
 C2189 C 0.28657 0.71116 0.45964
 C2190 C 0.27576 0.69188 0.44811
 C2191 C 0.25218 0.69033 0.43559
 C2192 C 0.26502 0.67689 0.41604
 H2193 H 0.34153 0.70766 0.43311
 H2194 H 0.32052 0.72969 0.46412
 H2195 H 0.24546 0.70794 0.42988
 H2196 H 0.23898 0.67924 0.44541
 H2197 H 0.26579 0.68669 0.39897
 H2198 H 0.25909 0.65810 0.41460
 C2199 C 0.32031 0.21013 0.92760
 C2200 C 0.31291 0.18739 0.92045
 C2201 C 0.29541 0.17595 0.93463
 C2202 C 0.28369 0.18826 0.95307
 C2203 C 0.28938 0.21218 0.95790
 C2204 C 0.30891 0.22212 0.94586
 C2205 C 0.31097 0.24541 0.93354
 C2206 C 0.32339 0.23234 0.91350
 H2207 H 0.28984 0.15794 0.93090
 H2208 H 0.26936 0.17945 0.96264
 H2209 H 0.32305 0.25792 0.94315
 H2210 H 0.29323 0.25276 0.92841
 H2211 H 0.34258 0.23753 0.91156
 H2212 H 0.31287 0.23208 0.89673
 C2213 C 0.81385 0.71264 0.91777
 C2214 C 0.80251 0.69432 0.90509
 C2215 C 0.77817 0.68958 0.91049
 C2216 C 0.76692 0.70078 0.92983
 C2217 C 0.77965 0.71713 0.94409
 C2218 C 0.80268 0.72378 0.93671
 C2219 C 0.82546 0.72537 0.95059
 C2220 C 0.83770 0.71314 0.92989
 H2221 H 0.76794 0.67669 0.90042
 H2222 H 0.74856 0.69600 0.93408
 H2223 H 0.82498 0.71447 0.96699
 H2224 H 0.83150 0.74402 0.95315
 H2225 H 0.84433 0.69511 0.93423
 H2226 H 0.85084 0.72477 0.92063
 C2227 C 0.78865 0.17858 0.41899
 C2228 C 0.81166 0.18544 0.41147
 C2229 C 0.82418 0.20204 0.42575
 C2230 C 0.81266 0.21341 0.44484
 C2231 C 0.78847 0.20829 0.45023
 C2232 C 0.77741 0.18966 0.43791
 C2233 C 0.75344 0.18875 0.42609
 C2234 C 0.76571 0.17667 0.40533
 H2235 H 0.84249 0.20704 0.42170
 H2236 H 0.82239 0.22689 0.45470
 H2237 H 0.74645 0.20664 0.42174
 H2238 H 0.74063 0.17697 0.43560
 H2239 H 0.76588 0.18753 0.38890
 H2240 H 0.75981 0.15796 0.40288
 C2241 C 0.71483 0.31319 0.42330
 C2242 C 0.69483 0.30342 0.41160
 C2243 C 0.68898 0.27956 0.41676
 C2244 C 0.70111 0.26721 0.43481
 C2245 C 0.71951 0.27830 0.44808
 C2246 C 0.72687 0.30094 0.44098
 C2247 C 0.73061 0.32280 0.45548
 C2248 C 0.71742 0.33622 0.43617
 H2249 H 0.67469 0.27049 0.40738
 H2250 H 0.69563 0.24920 0.43875
 H2251 H 0.74991 0.32777 0.45686
 H2252 H 0.72075 0.32226 0.47261
 H2253 H 0.72916 0.34894 0.42653
 H2254 H 0.69988 0.34347 0.44206
 C2255 C 0.68167 0.78708 0.92734
 C2256 C 0.68942 0.80963 0.92013
 C2257 C 0.70671 0.82117 0.93457
 C2258 C 0.71795 0.80904 0.95337
 C2259 C 0.71197 0.78524 0.95831
 C2260 C 0.69261 0.77526 0.94594
 C2261 C 0.69063 0.75183 0.93374
 C2262 C 0.67870 0.76472 0.91334
 H2263 H 0.71248 0.83908 0.93079
 H2264 H 0.73217 0.81788 0.96316
 H2265 H 0.67828 0.73951 0.94317
 H2266 H 0.70842 0.74429 0.92906
 H2267 H 0.65952 0.75966 0.91102
 H2268 H 0.68955 0.76470 0.89679
 C2269 C 0.21782 0.31433 0.91652
 C2270 C 0.19779 0.30429 0.90513
 C2271 C 0.19150 0.28081 0.91137
 C2272 C 0.20309 0.26929 0.93032
 C2273 C 0.22132 0.28091 0.94337
 C2274 C 0.22928 0.30293 0.93508
 C2275 C 0.23337 0.32554 0.94829
 C2276 C 0.22080 0.33805 0.92800
 H2277 H 0.17714 0.27154 0.90229
 H2278 H 0.19710 0.25171 0.93530
 H2279 H 0.25277 0.33012 0.94967
 H2280 H 0.22327 0.32629 0.96527
 H2281 H 0.23299 0.34988 0.91779
 H2282 H 0.20337 0.34606 0.93316
 C2283 C 0.21831 0.81363 0.41489
 C2284 C 0.19948 0.80267 0.40239
 C2285 C 0.19349 0.77916 0.40881
 C2286 C 0.20404 0.76848 0.42881
 C2287 C 0.22096 0.78096 0.44273
 C2288 C 0.22881 0.80302 0.43446
 C2289 C 0.23120 0.82600 0.44740
 C2290 C 0.21966 0.83766 0.42602
 H2291 H 0.18015 0.76918 0.39900
 H2292 H 0.19834 0.75079 0.43377
 H2293 H 0.25029 0.83127 0.44999
 H2294 H 0.21990 0.82673 0.46363
 H2295 H 0.23214 0.84970 0.41641
 H2296 H 0.20164 0.84515 0.42980
 C2297 C 0.71728 0.68716 0.58014
 C2298 C 0.69449 0.69388 0.58813
 C2299 C 0.68172 0.71029 0.57416
 C2300 C 0.69286 0.72166 0.55484
 C2301 C 0.71694 0.71679 0.54897
 C2302 C 0.72820 0.69831 0.56105
 C2303 C 0.75237 0.69763 0.57246
 C2304 C 0.74043 0.68543 0.59339
 H2305 H 0.66352 0.71511 0.57861
 H2306 H 0.68294 0.73500 0.54522
 H2307 H 0.75950 0.71559 0.57677
 H2308 H 0.76497 0.68596 0.56268
 H2309 H 0.74060 0.69630 0.60987
 H2310 H 0.74624 0.66677 0.59565
 C2311 C 0.68418 0.21675 0.08115
 C2312 C 0.69454 0.19722 0.09245
 C2313 C 0.71845 0.19163 0.08631
 C2314 C 0.73014 0.20348 0.06759
 C2315 C 0.71829 0.22130 0.05469
 C2316 C 0.69577 0.22849 0.06281
 C2317 C 0.67295 0.23187 0.04938
 C2318 C 0.66024 0.21899 0.06945
 H2319 H 0.72801 0.17773 0.09538
 H2320 H 0.74814 0.19816 0.06279
 H2321 H 0.67260 0.22195 0.03232
 H2322 H 0.66798 0.25087 0.04810
 H2323 H 0.65251 0.20157 0.06407
 H2324 H 0.64792 0.23061 0.07963
 C2325 C 0.21223 0.68043 0.07785
 C2326 C 0.18924 0.68722 0.08528
 C2327 C 0.17703 0.70387 0.07106
 C2328 C 0.18886 0.71541 0.05222
 C2329 C 0.21306 0.71041 0.04701
 C2330 C 0.22377 0.69168 0.05917
 C2331 C 0.24763 0.69066 0.07117
 C2332 C 0.23504 0.67837 0.09165
 H2333 H 0.15875 0.70882 0.07498
 H2334 H 0.17938 0.72895 0.04245
 H2335 H 0.25475 0.70850 0.07585
 H2336 H 0.26039 0.67899 0.06159
 H2337 H 0.23489 0.68908 0.10823
 H2338 H 0.24067 0.65965 0.09385
 C2339 C 0.21553 0.18181 0.58200
 C2340 C 0.19266 0.18852 0.58977
 C2341 C 0.17977 0.20442 0.57531
 C2342 C 0.19087 0.21546 0.55578
 C2343 C 0.21503 0.21073 0.55014
 C2344 C 0.22642 0.19262 0.56267
 C2345 C 0.25056 0.19239 0.57416
 C2346 C 0.23867 0.18058 0.59534
 H2347 H 0.16150 0.20917 0.57957
 H2348 H 0.18087 0.22849 0.54583
 H2349 H 0.25753 0.21050 0.57807
 H2350 H 0.26329 0.18060 0.56469
 H2351 H 0.23871 0.19183 0.61156
 H2352 H 0.24463 0.16203 0.59805
   
