data_POSCAR
  _audit_creation_date              2014-09-24
  _audit_creation_method            'ToBaCCo'
  _symmetry_space_group_name_H-M    'P1'
  _symmetry_Int_Tables_number       1
  _symmetry_cell_setting            triclinic
  loop_
  _symmetry_equiv_pos_as_xyz
 x,y,z
_cell_length_a 96.6663
_cell_length_b 96.5574
_cell_length_c 96.6445
_cell_angle_alpha 90.047100
_cell_angle_beta 90.047800
_cell_angle_gamma 90.027800
loop_
  _atom_site_label
  _atom_site_type_symbol
  _atom_site_fract_x
  _atom_site_fract_y
  _atom_site_fract_z
N1 N 0.31290 0.42778 0.89904
 N2 N 0.32257 0.43739 0.89916
 C3 C 0.32039 0.44615 0.88851
 C4 C 0.30880 0.44172 0.88146
 C5 C 0.30427 0.43009 0.88835
 H6 H 0.32663 0.45514 0.88614
 H7 H 0.29527 0.42390 0.88587
 Cu8 Cu 0.33680 0.43760 0.91344
 Cu9 Cu 0.31197 0.41324 0.91297
 Cu10 Cu 0.33742 0.41330 0.93831
 N11 N 0.35115 0.43745 0.92759
 N12 N 0.35133 0.42788 0.93728
 C13 C 0.36207 0.43022 0.94586
 C14 C 0.36892 0.44184 0.94123
 C15 C 0.36181 0.44623 0.92968
 H16 H 0.36459 0.42406 0.95485
 H17 H 0.36413 0.45521 0.92340
 N18 N 0.32246 0.39942 0.93759
 N19 N 0.31277 0.39940 0.92793
 C20 C 0.30393 0.38889 0.93041
 C21 C 0.30831 0.38207 0.94212
 C22 C 0.32003 0.38893 0.94645
 H23 H 0.29489 0.38646 0.92427
 H24 H 0.32620 0.38654 0.95548
 H25 H 0.32174 0.42415 0.92859
 H26 H 0.33286 0.41299 0.91743
 N27 N 0.42812 0.85135 0.43761
 N28 N 0.43774 0.85118 0.42798
 C29 C 0.44655 0.86179 0.43016
 C30 C 0.44214 0.86887 0.44174
 C31 C 0.43047 0.86204 0.44626
 H32 H 0.45556 0.86410 0.42395
 H33 H 0.42426 0.86456 0.45522
 Cu34 Cu 0.43799 0.83685 0.41378
 Cu35 Cu 0.41350 0.83748 0.43846
 Cu36 Cu 0.41352 0.81211 0.41303
 N37 N 0.43775 0.82269 0.39942
 N38 N 0.42814 0.81303 0.39921
 C39 C 0.43049 0.80442 0.38850
 C40 C 0.44215 0.80897 0.38169
 C41 C 0.44655 0.82054 0.38882
 H42 H 0.42429 0.79546 0.38593
 H43 H 0.45555 0.82678 0.38653
 N44 N 0.39959 0.81291 0.42790
 N45 N 0.39958 0.82258 0.43759
 C46 C 0.38905 0.82013 0.44639
 C47 C 0.38220 0.80843 0.44198
 C48 C 0.38907 0.80407 0.43029
 H49 H 0.38664 0.82627 0.45544
 H50 H 0.38667 0.79503 0.42412
 H51 H 0.42434 0.82178 0.42877
 H52 H 0.41335 0.83302 0.41755
 N53 N 0.92728 0.89890 0.81320
 N54 N 0.93678 0.89893 0.82296
 C55 C 0.94561 0.88836 0.82073
 C56 C 0.94134 0.88142 0.80901
 C57 C 0.92972 0.88831 0.80446
 H58 H 0.95452 0.88593 0.82705
 H59 H 0.92359 0.88587 0.79541
 Cu60 Cu 0.93678 0.91293 0.83748
 Cu61 Cu 0.91264 0.91272 0.81239
 Cu62 Cu 0.91270 0.93808 0.83780
 N63 N 0.93686 0.92743 0.85151
 N64 N 0.92738 0.93721 0.85159
 C65 C 0.92986 0.94593 0.86219
 C66 C 0.94148 0.94131 0.86904
 C67 C 0.94572 0.92960 0.86207
 H68 H 0.92375 0.95498 0.86467
 H69 H 0.95461 0.92324 0.86446
 N70 N 0.89871 0.93724 0.82298
 N71 N 0.89869 0.92757 0.81329
 C72 C 0.88803 0.92989 0.80459
 C73 C 0.88110 0.94152 0.80907
 C74 C 0.88806 0.94596 0.82069
 H75 H 0.88554 0.92369 0.79561
 H76 H 0.88561 0.95494 0.82691
 H77 H 0.92364 0.92820 0.82229
 H78 H 0.91224 0.91716 0.83330
 N79 N 0.42747 -0.10111 0.31285
 N80 N 0.43717 -0.10083 0.32241
 C81 C 0.44601 -0.11140 0.32020
 C82 C 0.44153 -0.11857 0.30871
 C83 C 0.42979 -0.11184 0.30425
 H84 H 0.45508 -0.11364 0.32636
 H85 H 0.42353 -0.11444 0.29534
 Cu86 Cu 0.43744 -0.08650 0.33656
 Cu87 Cu 0.41278 -0.08736 0.31202
 Cu88 Cu 0.41279 -0.06197 0.33741
 N89 N 0.43717 -0.07235 0.35089
 N90 N 0.42747 -0.06280 0.35117
 C91 C 0.42978 -0.05422 0.36192
 C92 C 0.44151 -0.05869 0.36866
 C93 C 0.44600 -0.07017 0.36148
 H94 H 0.42352 -0.04532 0.36453
 H95 H 0.45506 -0.07633 0.36373
 N96 N 0.39881 -0.06288 0.32260
 N97 N 0.39881 -0.07255 0.31292
 C98 C 0.38819 -0.07023 0.30419
 C99 C 0.38128 -0.05859 0.30864
 C100 C 0.38820 -0.05415 0.32028
 H101 H 0.38574 -0.07641 0.29518
 H102 H 0.38574 -0.04514 0.32646
 H103 H 0.42359 -0.07158 0.32164
 H104 H 0.41275 -0.08291 0.33294
 N105 N 0.81254 0.32223 0.35066
 N106 N 0.82215 0.31258 0.35048
 C107 C 0.81985 0.30366 0.36095
 C108 C 0.80822 0.30802 0.36795
 C109 C 0.80381 0.31978 0.36123
 H110 H 0.82601 0.29460 0.36322
 H111 H 0.79482 0.32597 0.36372
 Cu112 Cu 0.83641 0.31246 0.33629
 Cu113 Cu 0.81180 0.33699 0.33696
 Cu114 Cu 0.83730 0.33703 0.31172
 N115 N 0.85078 0.31266 0.32220
 N116 N 0.85104 0.32231 0.31260
 C117 C 0.86175 0.31994 0.30402
 C118 C 0.86849 0.30823 0.30854
 C119 C 0.86134 0.30381 0.32005
 H120 H 0.86434 0.32616 0.29509
 H121 H 0.86360 0.29477 0.32625
 N122 N 0.82251 0.35104 0.31259
 N123 N 0.81280 0.35104 0.32221
 C124 C 0.80411 0.36169 0.31988
 C125 C 0.80861 0.36864 0.30829
 C126 C 0.82024 0.36170 0.30388
 H127 H 0.79509 0.36414 0.32601
 H128 H 0.82646 0.36416 0.29492
 H129 H 0.82152 0.32621 0.32125
 H130 H 0.83272 0.33714 0.33259
 N131 N -0.17784 0.85145 0.81223
 N132 N -0.18739 0.85136 0.82193
 C133 C -0.19622 0.86194 0.81971
 C134 C -0.19189 0.86892 0.80806
 C135 C -0.18024 0.86207 0.80352
 H136 H -0.20517 0.86431 0.82598
 H137 H -0.17407 0.86454 0.79452
 Cu138 Cu -0.18748 0.83729 0.83637
 Cu139 Cu -0.16316 0.83765 0.81146
 Cu140 Cu -0.16335 0.81218 0.83671
 N141 N -0.18764 0.82268 0.85027
 N142 N -0.17815 0.81292 0.85037
 C143 C -0.18074 0.80410 0.86084
 C144 C -0.19245 0.80861 0.86760
 C145 C -0.19661 0.82038 0.86069
 H146 H -0.17465 0.79503 0.86329
 H147 H -0.20556 0.82668 0.86304
 N148 N -0.14923 0.81313 0.82204
 N149 N -0.14917 0.82282 0.81240
 C150 C -0.13846 0.82053 0.80377
 C151 C -0.13154 0.80889 0.80824
 C152 C -0.13857 0.80442 0.81980
 H153 H -0.13593 0.82675 0.79481
 H154 H -0.13615 0.79542 0.82599
 H155 H -0.17422 0.82211 0.82118
 H156 H -0.16291 0.83312 0.83234
 N157 N 0.93804 0.35071 0.42815
 N158 N 0.92847 0.35044 0.43783
 C159 C 0.93071 0.36096 0.44674
 C160 C 0.94224 0.36809 0.44232
 C161 C 0.94669 0.36139 0.43055
 H162 H 0.92456 0.36317 0.45582
 H163 H 0.95562 0.36397 0.42432
 Cu164 Cu 0.91429 0.33612 0.43797
 Cu165 Cu 0.93886 0.33696 0.41341
 Cu166 Cu 0.91348 0.31153 0.41337
 N167 N 0.90000 0.32191 0.43778
 N168 N 0.89974 0.31234 0.42808
 C169 C 0.88909 0.30367 0.43045
 C170 C 0.88238 0.30808 0.44222
 C171 C 0.88949 0.31963 0.44667
 H172 H 0.88652 0.29473 0.42420
 H173 H 0.88726 0.32577 0.45576
 N174 N 0.92826 0.31247 0.39937
 N175 N 0.93793 0.32215 0.39938
 C176 C 0.94664 0.31982 0.38875
 C177 C 0.94220 0.30817 0.38182
 C178 C 0.93057 0.30373 0.38874
 H179 H 0.95564 0.32600 0.38631
 H180 H 0.92439 0.29472 0.38629
 H181 H 0.91797 0.33245 0.41330
 H182 H 0.92925 0.32117 0.42419
 N183 N 0.43693 0.42737 0.85100
 N184 N 0.42717 0.43686 0.85096
 C185 C 0.42938 0.44571 0.86153
 C186 C 0.44109 0.44145 0.86845
 C187 C 0.44566 0.42983 0.86158
 H188 H 0.42306 0.45463 0.86395
 H189 H 0.45472 0.42372 0.86402
 Cu190 Cu 0.41267 0.43685 0.83699
 Cu191 Cu 0.43779 0.41274 0.83718
 Cu192 Cu 0.41245 0.41278 0.81178
 N193 N 0.39873 0.43691 0.82247
 N194 N 0.39867 0.42744 0.81267
 C195 C 0.38812 0.42995 0.80393
 C196 C 0.38127 0.44158 0.80854
 C197 C 0.38820 0.44579 0.82027
 H198 H 0.38567 0.42387 0.79484
 H199 H 0.38580 0.45470 0.82662
 N200 N 0.42727 0.39882 0.81264
 N201 N 0.43693 0.39880 0.82232
 C202 C 0.44566 0.38818 0.81998
 C203 C 0.44123 0.38128 0.80832
 C204 C 0.42961 0.38821 0.80388
 H205 H 0.45464 0.38572 0.82618
 H206 H 0.42343 0.38576 0.79487
 H207 H 0.42792 0.42377 0.82173
 H208 H 0.41689 0.41231 0.83270
 N209 N 0.81262 0.89933 0.92749
 N210 N 0.82222 0.89959 0.93715
 C211 C 0.81997 0.88911 0.94607
 C212 C 0.80839 0.88202 0.94170
 C213 C 0.80394 0.88870 0.92993
 H214 H 0.82616 0.88687 0.95512
 H215 H 0.79498 0.88612 0.92373
 Cu216 Cu 0.83647 0.91381 0.93727
 Cu217 Cu 0.81183 0.91303 0.91274
 Cu218 Cu 0.83736 0.93828 0.91259
 N219 N 0.85087 0.92788 0.93696
 N220 N 0.85115 0.93742 0.92725
 C221 C 0.86194 0.94596 0.92952
 C222 C 0.86869 0.94148 0.94124
 C223 C 0.86148 0.93003 0.94575
 H224 H 0.86458 0.95483 0.92323
 H225 H 0.86374 0.92386 0.95481
 N226 N 0.82251 0.93741 0.89866
 N227 N 0.81279 0.92778 0.89871
 C228 C 0.80406 0.93011 0.88808
 C229 C 0.80855 0.94169 0.88111
 C230 C 0.82022 0.94610 0.88800
 H231 H 0.79502 0.92395 0.88566
 H232 H 0.82645 0.95506 0.88550
 H233 H 0.83278 0.91737 0.91259
 H234 H 0.82160 0.92878 0.92346
 N235 N 0.31271 0.85079 0.32198
 N236 N 0.32252 0.85076 0.31255
 C237 C 0.32032 0.86128 0.30367
 C238 C 0.30857 0.86819 0.30784
 C239 C 0.30396 0.86134 0.31945
 H240 H 0.32668 0.86370 0.29479
 H241 H 0.29487 0.86377 0.32550
 Cu242 Cu 0.33705 0.83682 0.31265
 Cu243 Cu 0.31180 0.83700 0.33661
 Cu244 Cu 0.33716 0.81164 0.33672
 N245 N 0.35100 0.82230 0.31268
 N246 N 0.35100 0.81251 0.32215
 C247 C 0.36157 0.80377 0.31970
 C248 C 0.36846 0.80835 0.30811
 C249 C 0.36156 0.82009 0.30386
 H250 H 0.36398 0.79469 0.32580
 H251 H 0.36400 0.82642 0.29497
 N252 N 0.32227 0.81250 0.35059
 N253 N 0.31261 0.82217 0.35055
 C254 C 0.30378 0.81980 0.36107
 C255 C 0.30815 0.80812 0.36796
 C256 C 0.31984 0.80371 0.36114
 H257 H 0.29476 0.82596 0.36345
 H258 H 0.32598 0.79468 0.36360
 H259 H 0.33270 0.83256 0.33715
 H260 H 0.32175 0.82154 0.32563
 N261 N 0.81204 0.39970 0.42818
 N262 N 0.82140 0.40022 0.43806
 C263 C 0.81900 0.38993 0.44715
 C264 C 0.80757 0.38267 0.44266
 C265 C 0.80337 0.38907 0.43064
 H266 H 0.82502 0.38788 0.45636
 H267 H 0.79461 0.38628 0.42424
 Cu268 Cu 0.83582 0.41427 0.43792
 Cu269 Cu 0.81142 0.41313 0.41314
 Cu270 Cu 0.83516 0.44003 0.41479
 N271 N 0.85001 0.42855 0.43780
 N272 N 0.84978 0.43853 0.42855
 C273 C 0.86046 0.44718 0.43086
 C274 C 0.86770 0.44230 0.44212
 C275 C 0.86087 0.43051 0.44634
 H276 H 0.86264 0.45645 0.42496
 H277 H 0.86350 0.42403 0.45508
 N278 N 0.82146 0.43823 0.39980
 N279 N 0.81250 0.42791 0.39910
 C280 C 0.80436 0.42974 0.38793
 C281 C 0.80846 0.44170 0.38138
 C282 C 0.81929 0.44686 0.38908
 H283 H 0.79588 0.42306 0.38495
 H284 H 0.82497 0.45630 0.38712
 H285 H 0.83210 0.41894 0.41350
 H286 H 0.81978 0.42867 0.42477
 N287 N 0.92774 0.85053 -0.06264
 N288 N 0.93754 0.85015 -0.07207
 C289 C 0.94649 0.86060 -0.06975
 C290 C 0.94199 0.86780 -0.05830
 C291 C 0.93011 0.86121 -0.05399
 H292 H 0.95561 0.86279 -0.07584
 H293 H 0.92378 0.86389 -0.04517
 Cu294 Cu 0.93752 0.83614 -0.08651
 Cu295 Cu 0.91294 0.83687 -0.06191
 Cu296 Cu 0.91462 0.81008 -0.08575
 N297 N 0.93723 0.82198 -0.10083
 N298 N 0.92810 0.81188 -0.10056
 C299 C 0.93030 0.80337 -0.11138
 C300 C 0.94137 0.80848 -0.11875
 C301 C 0.94558 0.82025 -0.11185
 H302 H 0.92449 0.79405 -0.11356
 H303 H 0.95420 0.82686 -0.11454
 N304 N 0.89983 0.81162 -0.07185
 N305 N 0.89910 0.82191 -0.06286
 C306 C 0.88811 0.81987 -0.05455
 C307 C 0.88169 0.80780 -0.05858
 C308 C 0.88928 0.80280 -0.06954
 H309 H 0.88516 0.82647 -0.04600
 H310 H 0.88738 0.79333 -0.07521
 H311 H 0.92469 0.82152 -0.07042
 H312 H 0.91320 0.83115 -0.08263
 N313 N 0.31257 0.35090 0.82219
 N314 N 0.32224 0.35073 0.81260
 C315 C 0.32008 0.36135 0.80381
 C316 C 0.30851 0.36843 0.80819
 C317 C 0.30396 0.36160 0.81983
 H318 H 0.32634 0.36370 0.79484
 H319 H 0.29500 0.36414 0.82602
 Cu320 Cu 0.33651 0.33653 0.81246
 Cu321 Cu 0.31165 0.33707 0.83680
 Cu322 Cu 0.33694 0.31166 0.83682
 N323 N 0.35065 0.32218 0.81261
 N324 N 0.35077 0.31252 0.82222
 C325 C 0.36142 0.30386 0.81987
 C326 C 0.36827 0.30837 0.80823
 C327 C 0.36124 0.31997 0.80383
 H328 H 0.36393 0.29488 0.82608
 H329 H 0.36362 0.32621 0.79485
 N330 N 0.32209 0.31251 0.85073
 N331 N 0.31244 0.32220 0.85072
 C332 C 0.30361 0.31980 0.86124
 C333 C 0.30796 0.30809 0.86809
 C334 C 0.31965 0.30370 0.86125
 H335 H 0.29459 0.32597 0.86364
 H336 H 0.32578 0.29465 0.86367
 H337 H 0.33255 0.33260 0.83704
 H338 H 0.32137 0.32145 0.82586
 N339 N 0.14944 0.57216 0.56206
 N340 N 0.14952 0.56263 0.57180
 C341 C 0.13867 0.55407 0.56987
 C342 C 0.13152 0.55853 0.55836
 C343 C 0.13857 0.56998 0.55361
 H344 H 0.13622 0.54517 0.57622
 H345 H 0.13613 0.57610 0.54456
 Cu346 Cu 0.16390 0.56253 0.58595
 Cu347 Cu 0.16397 0.58611 0.56060
 Cu348 Cu 0.18939 0.58597 0.58578
 N349 N 0.17824 0.56243 0.60015
 N350 N 0.18804 0.57191 0.60020
 C351 C 0.19663 0.56958 0.61091
 C352 C 0.19191 0.55807 0.61789
 C353 C 0.18027 0.55374 0.61087
 H354 H 0.20575 0.57562 0.61330
 H355 H 0.17391 0.54485 0.61330
 N356 N 0.18786 0.60073 0.57173
 N357 N 0.17814 0.60077 0.56209
 C358 C 0.18005 0.61182 0.55380
 C359 C 0.19147 0.61897 0.55848
 C360 C 0.19620 0.61174 0.56981
 H361 H 0.17381 0.61434 0.54486
 H362 H 0.20521 0.61418 0.57599
 H363 H 0.17930 0.57514 0.57047
 H364 H 0.16848 0.58675 0.58147
 N365 N 0.60060 0.67831 0.06211
 N366 N 0.60055 0.68782 0.07187
 C367 C 0.61115 0.69663 0.06971
 C368 C 0.61811 0.69234 0.05804
 C369 C 0.61122 0.68073 0.05343
 H370 H 0.61357 0.70554 0.07606
 H371 H 0.61369 0.67458 0.04440
 Cu372 Cu 0.58652 0.68788 0.08630
 Cu373 Cu 0.58673 0.66372 0.06118
 Cu374 Cu 0.56127 0.66389 0.08641
 N375 N 0.57193 0.68803 0.10016
 N376 N 0.56213 0.67857 0.10018
 C377 C 0.55332 0.68115 0.11065
 C378 C 0.55788 0.69282 0.11747
 C379 C 0.56967 0.69697 0.11063
 H380 H 0.54422 0.67509 0.11305
 H381 H 0.57601 0.70589 0.11303
 N382 N 0.56213 0.64989 0.07161
 N383 N 0.57182 0.64983 0.06198
 C384 C 0.56942 0.63925 0.05320
 C385 C 0.55770 0.63242 0.05757
 C386 C 0.55331 0.63934 0.06921
 H387 H 0.57559 0.63677 0.04421
 H388 H 0.54426 0.63697 0.07534
 H389 H 0.57129 0.67482 0.07098
 H390 H 0.58221 0.66334 0.08206
 N391 N 0.67785 0.18780 0.64920
 N392 N 0.68754 0.17823 0.64943
 C393 C 0.69626 0.18035 0.63876
 C394 C 0.69172 0.19180 0.63157
 C395 C 0.68006 0.19631 0.63840
 H396 H 0.70529 0.17415 0.63646
 H397 H 0.67377 0.20519 0.63579
 Cu398 Cu 0.68793 0.16416 0.66384
 Cu399 Cu 0.66331 0.18874 0.66310
 Cu400 Cu 0.66351 0.16347 0.68857
 N401 N 0.68780 0.14991 0.67807
 N402 N 0.67817 0.14968 0.68768
 C403 C 0.68058 0.13902 0.69632
 C404 C 0.69231 0.13229 0.69184
 C405 C 0.69668 0.13938 0.68028
 H406 H 0.67438 0.13645 0.70527
 H407 H 0.70571 0.13711 0.67408
 N408 N 0.64955 0.17830 0.68774
 N409 N 0.64949 0.18795 0.67804
 C410 C 0.63895 0.19675 0.68048
 C411 C 0.63216 0.19239 0.69220
 C412 C 0.63906 0.18072 0.69658
 H413 H 0.63648 0.20576 0.67431
 H414 H 0.63669 0.17458 0.70563
 H415 H 0.67423 0.17918 0.67880
 H416 H 0.66327 0.16783 0.66763
 N417 N 1.10004 0.07116 0.18823
 N418 N 1.10000 0.06166 0.17847
 C419 C 1.11049 0.05275 0.18075
 C420 C 1.11737 0.05699 0.19250
 C421 C 1.11055 0.06866 0.19703
 H422 H 1.11288 0.04381 0.17445
 H423 H 1.11297 0.07476 0.20610
 Cu424 Cu 1.08608 0.06164 0.16392
 Cu425 Cu 1.08625 0.08580 0.18905
 Cu426 Cu 1.06090 0.08571 0.16368
 N427 N 1.07152 0.06154 0.15001
 N428 N 1.06175 0.07102 0.14994
 C429 C 1.05295 0.06844 0.13944
 C430 C 1.05750 0.05675 0.13266
 C431 C 1.06926 0.05259 0.13955
 H432 H 1.04387 0.07451 0.13700
 H433 H 1.07557 0.04365 0.13718
 N434 N 1.06177 0.09971 0.17847
 N435 N 1.07143 0.09975 0.18815
 C436 C 1.06904 0.11034 0.19691
 C437 C 1.05737 0.11720 0.19248
 C438 C 1.05298 0.11028 0.18082
 H439 H 1.07518 0.11280 0.20594
 H440 H 1.04396 0.11268 0.17465
 H441 H 1.07082 0.07472 0.17915
 H442 H 1.08181 0.08619 0.16814
 N443 N 0.07176 0.14954 1.06189
 N444 N 0.06224 0.14969 1.07163
 C445 C 0.05357 0.13893 1.06966
 C446 C 0.05795 0.13178 1.05812
 C447 C 0.06946 0.13873 1.05339
 H448 H 0.04465 0.13656 1.07598
 H449 H 0.07553 0.13626 1.04432
 Cu450 Cu 0.06227 0.16403 1.08581
 Cu451 Cu 0.08580 0.16397 1.06046
 Cu452 Cu 0.08587 0.18937 1.08569
 N453 N 0.06231 0.17832 1.10006
 N454 N 0.07185 0.18805 1.10013
 C455 C 0.06960 0.19662 1.11090
 C456 C 0.05808 0.19195 1.11787
 C457 C 0.05366 0.18036 1.11080
 H458 H 0.07570 0.20571 1.11330
 H459 H 0.04474 0.17405 1.11322
 N460 N 0.10058 0.18776 1.07162
 N461 N 0.10055 0.17804 1.06197
 C462 C 0.11159 0.17987 1.05367
 C463 C 0.11882 0.19123 1.05836
 C464 C 0.11165 0.19602 1.06971
 H465 H 0.11406 0.17362 1.04472
 H466 H 0.11417 0.20501 1.07589
 H467 H 0.08650 0.16844 1.08134
 H468 H 0.07499 0.17939 1.07036
 N469 N 0.14968 0.68816 0.67810
 N470 N 0.14981 0.67843 0.68762
 C471 C 0.13937 0.68070 0.69657
 C472 C 0.13242 0.69242 0.69237
 C473 C 0.13916 0.69694 0.68066
 H474 H 0.13704 0.67441 0.70553
 H475 H 0.13668 0.70598 0.67455
 Cu476 Cu 0.16377 0.66390 0.68755
 Cu477 Cu 0.16334 0.68895 0.66334
 Cu478 Cu 0.18875 0.66364 0.66329
 N479 N 0.17835 0.65000 0.68757
 N480 N 0.18805 0.64994 0.67803
 C481 C 0.19688 0.63946 0.68055
 C482 C 0.19244 0.63267 0.69226
 C483 C 0.18070 0.63955 0.69650
 H484 H 0.20592 0.63703 0.67442
 H485 H 0.17445 0.63717 0.70547
 N486 N 0.18773 0.67838 0.64924
 N487 N 0.17804 0.68803 0.64926
 C488 C 0.18027 0.69672 0.63859
 C489 C 0.19186 0.69227 0.63161
 C490 C 0.19637 0.68068 0.63855
 H491 H 0.17406 0.70570 0.63613
 H492 H 0.20536 0.67450 0.63607
 H493 H 0.16782 0.66803 0.66296
 H494 H 0.17889 0.67914 0.67428
 N495 N 1.17818 0.14941 0.18759
 N496 N 1.18771 0.14952 0.17788
 C497 C 1.19661 0.13901 0.18011
 C498 C 1.19235 0.13204 0.19180
 C499 C 1.18068 0.13884 0.19632
 H500 H 1.20560 0.13669 0.17388
 H501 H 1.17459 0.13640 0.20539
 Cu502 Cu 1.18774 0.16367 0.16354
 Cu503 Cu 1.16354 0.16322 0.18850
 Cu504 Cu 1.16342 0.18855 0.16307
 N505 N 1.18756 0.17792 0.14931
 N506 N 1.17800 0.18762 0.14919
 C507 C 1.18036 0.19627 0.13853
 C508 C 1.19199 0.19171 0.13167
 C509 C 1.19635 0.18010 0.13871
 H510 H 1.17421 0.20529 0.13605
 H511 H 1.20533 0.17385 0.13636
 N512 N 1.14954 0.18773 0.17798
 N513 N 1.14958 0.17806 0.18766
 C514 C 1.13906 0.18046 0.19648
 C515 C 1.13217 0.19213 0.19211
 C516 C 1.13899 0.19652 0.18040
 H517 H 1.13668 0.17432 0.20552
 H518 H 1.13654 0.20554 0.17425
 H519 H 1.16317 0.16767 0.16761
 H520 H 1.17439 0.17885 0.17869
 N521 N 0.64975 1.06219 0.57149
 N522 N 0.65002 1.07175 0.56180
 C523 C 0.63918 1.06981 0.55323
 C524 C 0.63187 1.05848 0.55785
 C525 C 0.63878 1.05384 0.56942
 H526 H 0.63694 1.07596 0.54415
 H527 H 0.63625 1.04486 0.57560
 Cu528 Cu 0.66472 1.08554 0.56083
 Cu529 Cu 0.66429 1.06063 0.58526
 Cu530 Cu 0.68942 1.08596 0.58551
 N531 N 0.67831 1.10040 0.56213
 N532 N 0.68779 1.10066 0.57190
 C533 C 0.69601 1.11177 0.57005
 C534 C 0.69136 1.11879 0.55855
 C535 C 0.68017 1.11138 0.55373
 H536 H 0.70491 1.11433 0.57634
 H537 H 0.67406 1.11366 0.54463
 N538 N 0.68806 1.07168 0.59996
 N539 N 0.67842 1.06198 0.59987
 C540 C 0.68041 1.05350 0.61076
 C541 C 0.69181 1.05814 0.61795
 C542 C 0.69645 1.06963 0.61092
 H543 H 0.67424 1.04447 0.61313
 H544 H 0.70542 1.07584 0.61344
 H545 H 0.66849 1.08162 0.58536
 H546 H 0.67986 1.07040 0.57446
 N547 N 0.57162 0.56187 0.14974
 N548 N 0.56204 0.57155 0.14986
 C549 C 0.55317 0.56929 0.13934
 C550 C 0.55749 0.55763 0.13234
 C551 C 0.56918 0.55314 0.13914
 H552 H 0.54418 0.57552 0.13699
 H553 H 0.57534 0.54412 0.13667
 Cu554 Cu 0.56205 0.58601 0.16390
 Cu555 Cu 0.58628 0.56105 0.16354
 Cu556 Cu 0.58625 0.58650 0.18889
 N557 N 0.56201 0.60010 0.17830
 N558 N 0.57157 0.60027 0.18800
 C559 C 0.56911 0.61089 0.19669
 C560 C 0.55741 0.61766 0.19215
 C561 C 0.55311 0.61061 0.18051
 H562 H 0.57525 0.61341 0.20570
 H563 H 0.54413 0.61292 0.17425
 N564 N 0.60022 0.57166 0.18805
 N565 N 0.60023 0.56197 0.17840
 C566 C 0.61077 0.55317 0.18083
 C567 C 0.61762 0.55758 0.19252
 C568 C 0.61075 0.56928 0.19688
 H569 H 0.61320 0.54412 0.17469
 H570 H 0.61316 0.57546 0.20590
 H571 H 0.57537 0.57089 0.17909
 H572 H 0.58663 0.58199 0.16800
 N573 N 0.64970 0.67844 0.18775
 N574 N 0.64989 0.68811 0.17816
 C575 C 0.63933 0.69694 0.18040
 C576 C 0.63226 0.69251 0.19195
 C577 C 0.63904 0.68079 0.19640
 H578 H 0.63703 0.70600 0.17423
 H579 H 0.63653 0.67457 0.20536
 Cu580 Cu 0.66413 0.68834 0.16394
 Cu581 Cu 0.66354 0.66383 0.18861
 Cu582 Cu 0.68877 0.66380 0.16313
 N583 N 0.67819 0.68806 0.14954
 N584 N 0.68778 0.67839 0.14927
 C585 C 0.69629 0.68069 0.13849
 C586 C 0.69174 0.69237 0.13171
 C587 C 0.68028 0.69684 0.13891
 H588 H 0.70520 0.67444 0.13588
 H589 H 0.67407 0.70588 0.13664
 N590 N 0.68804 0.64991 0.17803
 N591 N 0.67841 0.64992 0.18774
 C592 C 0.68089 0.63941 0.19657
 C593 C 0.69257 0.63256 0.19216
 C594 C 0.69688 0.63940 0.18044
 H595 H 0.67478 0.63700 0.20562
 H596 H 0.70588 0.63698 0.17425
 H597 H 0.67919 0.67466 0.17887
 H598 H 0.66788 0.66367 0.16768
 N599 N 0.14995 0.07154 1.06179
 N600 N 0.15025 0.06173 1.07123
 C601 C 0.13941 0.05318 1.06925
 C602 C 0.13204 0.05793 1.05800
 C603 C 0.13894 0.06955 1.05347
 H604 H 0.13720 0.04403 1.07531
 H605 H 0.13638 0.07583 1.04457
 Cu606 Cu 0.16501 0.06060 1.08494
 Cu607 Cu 0.16448 0.08534 1.06033
 Cu608 Cu 0.18967 0.08531 1.08560
 N609 N 0.17868 0.06169 1.09973
 N610 N 0.18814 0.07148 1.10009
 C611 C 0.19643 0.06946 1.11111
 C612 C 0.19185 0.05782 1.11796
 C613 C 0.18061 0.05311 1.11055
 H614 H 0.20535 0.07572 1.11372
 H615 H 0.17453 0.04396 1.11272
 N616 N 0.18823 0.09997 1.07153
 N617 N 0.17858 0.09998 1.06185
 C618 C 0.18051 0.11102 1.05355
 C619 C 0.19188 0.11820 1.05829
 C620 C 0.19656 0.11100 1.06966
 H621 H 0.17431 0.11351 1.04457
 H622 H 0.20552 0.11348 1.07590
 H623 H 0.18009 0.07444 1.06994
 H624 H 0.16872 0.08520 1.08130
 N625 N 0.60087 0.18795 0.57193
 N626 N 0.60080 0.17816 0.56245
 C627 C 0.61138 0.18031 0.55364
 C628 C 0.61836 0.19201 0.55790
 C629 C 0.61149 0.19664 0.56949
 H630 H 0.61378 0.17396 0.54474
 H631 H 0.61396 0.20570 0.57560
 Cu632 Cu 0.58675 0.16371 0.56243
 Cu633 Cu 0.58704 0.18891 0.58651
 Cu634 Cu 0.56154 0.16366 0.58643
 N635 N 0.57214 0.14984 0.56232
 N636 N 0.56236 0.14985 0.57178
 C637 C 0.55352 0.13936 0.56925
 C638 C 0.55804 0.13250 0.55760
 C639 C 0.56983 0.13933 0.55342
 H640 H 0.54442 0.13700 0.57531
 H641 H 0.57613 0.13690 0.54450
 N642 N 0.56245 0.17850 0.60038
 N643 N 0.57215 0.18814 0.60041
 C644 C 0.56978 0.19696 0.61095
 C645 C 0.55807 0.19261 0.61779
 C646 C 0.55365 0.18094 0.61091
 H647 H 0.57597 0.20597 0.61340
 H648 H 0.54459 0.17482 0.61330
 H649 H 0.58247 0.16801 0.58694
 H650 H 0.57155 0.17907 0.57546
 N651 N 0.10053 0.57187 0.68769
 N652 N 0.10030 0.56219 0.67810
 C653 C 0.11084 0.55334 0.68033
 C654 C 0.11794 0.55777 0.69188
 C655 C 0.11120 0.56951 0.69634
 H656 H 0.11311 0.54427 0.67416
 H657 H 0.11374 0.57573 0.70530
 Cu658 Cu 0.08603 0.56198 0.66389
 Cu659 Cu 0.08673 0.58652 0.68857
 Cu660 Cu 0.06143 0.58656 0.66311
 N661 N 0.07194 0.56227 0.64950
 N662 N 0.06237 0.57196 0.64925
 C663 C 0.05383 0.56967 0.63846
 C664 C 0.05835 0.55797 0.63167
 C665 C 0.06981 0.55349 0.63886
 H666 H 0.04493 0.57592 0.63586
 H667 H 0.07601 0.54445 0.63658
 N668 N 0.06222 0.60046 0.67802
 N669 N 0.07187 0.60045 0.68772
 C670 C 0.06943 0.61097 0.69656
 C671 C 0.05775 0.61783 0.69217
 C672 C 0.05340 0.61099 0.68044
 H673 H 0.07556 0.61337 0.70562
 H674 H 0.04438 0.61341 0.67428
 H675 H 0.07103 0.57570 0.67884
 H676 H 0.08232 0.58666 0.66764
 N677 N 0.64948 0.56234 0.07166
 N678 N 0.64961 0.57206 0.06213
 C679 C 0.63911 0.56981 0.05321
 C680 C 0.63213 0.55811 0.05746
 C681 C 0.63891 0.55359 0.06915
 H682 H 0.63680 0.57606 0.04422
 H683 H 0.63646 0.54453 0.07525
 Cu684 Cu 0.66375 0.58643 0.06213
 Cu685 Cu 0.66326 0.56147 0.08635
 Cu686 Cu 0.68856 0.58695 0.08652
 N687 N 0.67799 0.60069 0.06234
 N688 N 0.68766 0.60083 0.07193
 C689 C 0.69630 0.61151 0.06958
 C690 C 0.69176 0.61836 0.05794
 C691 C 0.68016 0.61130 0.05355
 H692 H 0.70530 0.61400 0.07576
 H693 H 0.67393 0.61364 0.04456
 N694 N 0.68773 0.57203 0.10040
 N695 N 0.67808 0.56233 0.10034
 C696 C 0.68047 0.55351 0.11087
 C697 C 0.69213 0.55791 0.11779
 C698 C 0.69651 0.56963 0.11097
 H699 H 0.67433 0.54445 0.11325
 H700 H 0.70551 0.57580 0.11344
 H701 H 0.66770 0.58239 0.08672
 H702 H 0.67889 0.57131 0.07553
 N703 N 0.07219 0.68781 0.60055
 N704 N 0.06270 0.67805 0.60052
 C705 C 0.05376 0.68039 0.61097
 C706 C 0.05797 0.69219 0.61781
 C707 C 0.06966 0.69667 0.61101
 H708 H 0.04482 0.67411 0.61335
 H709 H 0.07575 0.70576 0.61340
 Cu710 Cu 0.06275 0.66341 0.58665
 Cu711 Cu 0.08689 0.68855 0.58682
 Cu712 Cu 0.08691 0.66304 0.56158
 N713 N 0.06273 0.64936 0.57218
 N714 N 0.07223 0.64926 0.56243
 C715 C 0.06974 0.63865 0.55372
 C716 C 0.05809 0.63182 0.55829
 C717 C 0.05386 0.63881 0.56998
 H718 H 0.07585 0.63616 0.54469
 H719 H 0.04494 0.63644 0.57630
 N720 N 0.10091 0.67785 0.56243
 N721 N 0.10091 0.68757 0.57206
 C722 C 0.11155 0.69628 0.56974
 C723 C 0.11849 0.69178 0.55814
 C724 C 0.11156 0.68013 0.55373
 H725 H 0.11401 0.70531 0.57590
 H726 H 0.11402 0.67389 0.54476
 H727 H 0.07591 0.67858 0.57137
 H728 H 0.08730 0.66760 0.58247
 N729 N 0.57097 1.06195 0.64968
 N730 N 0.56146 1.07171 0.64973
 C731 C 0.55256 1.06942 0.63922
 C732 C 0.55681 1.05767 0.63232
 C733 C 0.56848 1.05315 0.63915
 H734 H 0.54362 1.07572 0.63683
 H735 H 0.57460 1.04409 0.63673
 Cu736 Cu 0.56148 1.08627 0.66370
 Cu737 Cu 0.58563 1.06116 0.66350
 Cu738 Cu 0.58559 1.08656 0.68886
 N739 N 0.56143 1.10027 0.67824
 N740 N 0.57091 1.10034 0.68801
 C741 C 0.56839 1.11090 0.69679
 C742 C 0.55673 1.11770 0.69221
 C743 C 0.55252 1.11077 0.68047
 H744 H 0.57449 1.11334 0.70586
 H745 H 0.54359 1.11313 0.67414
 N746 N 0.59959 1.07174 0.68801
 N747 N 0.59961 1.06206 0.67834
 C748 C 0.61021 1.05331 0.68071
 C749 C 0.61710 1.05773 0.69239
 C750 C 0.61018 1.06939 0.69679
 H751 H 0.61266 1.04429 0.67454
 H752 H 0.61260 1.07558 0.70581
 H753 H 0.57461 1.07105 0.67896
 H754 H 0.58602 1.08209 0.66796
 N755 N 0.43769 0.35120 0.92792
 N756 N 0.42812 0.35091 0.93759
 C757 C 0.43026 0.36150 0.94645
 C758 C 0.44172 0.36871 0.94198
 C759 C 0.44623 0.36197 0.93025
 H760 H 0.42405 0.36375 0.95548
 H761 H 0.45511 0.36461 0.92398
 Cu762 Cu 0.41405 0.33648 0.93776
 Cu763 Cu 0.43854 0.33743 0.91317
 Cu764 Cu 0.41336 0.31176 0.91332
 N765 N 0.39994 0.32209 0.93780
 N766 N 0.39974 0.31245 0.92817
 C767 C 0.38920 0.30368 0.93066
 C768 C 0.38252 0.30808 0.94246
 C769 C 0.38952 0.31975 0.94678
 H770 H 0.38668 0.29469 0.92447
 H771 H 0.38724 0.32595 0.95582
 N772 N 0.42804 0.31283 0.89920
 N773 N 0.43764 0.32258 0.89915
 C774 C 0.44630 0.32032 0.88846
 C775 C 0.44189 0.30865 0.88154
 C776 C 0.43034 0.30413 0.88854
 H777 H 0.45524 0.32658 0.88595
 H778 H 0.42421 0.29507 0.88613
 H779 H 0.41772 0.33269 0.91305
 H780 H 0.42910 0.32158 0.92398
 N781 N 0.93792 0.42800 0.35086
 N782 N 0.92832 0.43767 0.35069
 C783 C 0.93068 0.44662 0.36115
 C784 C 0.94232 0.44224 0.36813
 C785 C 0.94670 0.43045 0.36141
 H786 H 0.92451 0.45568 0.36345
 H787 H 0.95565 0.42421 0.36392
 Cu788 Cu 0.91389 0.43772 0.33661
 Cu789 Cu 0.93858 0.41318 0.33719
 Cu790 Cu 0.91305 0.41308 0.31201
 N791 N 0.89959 0.43752 0.32241
 N792 N 0.89933 0.42782 0.31283
 C793 C 0.88860 0.43014 0.30424
 C794 C 0.88185 0.44188 0.30871
 C795 C 0.88901 0.44635 0.32021
 H796 H 0.88598 0.42385 0.29535
 H797 H 0.88673 0.45540 0.32640
 N798 N 0.92780 0.39904 0.31288
 N799 N 0.93753 0.39906 0.32249
 C800 C 0.94620 0.38838 0.32017
 C801 C 0.94166 0.38140 0.30859
 C802 C 0.93003 0.38834 0.30419
 H803 H 0.95523 0.38594 0.32630
 H804 H 0.92378 0.38587 0.29523
 H805 H 0.92878 0.42405 0.32156
 H806 H 0.91762 0.41306 0.33290
 N807 N 0.31316 0.92816 0.39901
 N808 N 0.32276 0.93783 0.39921
 C809 C 0.32058 0.94660 0.38858
 C810 C 0.30906 0.94212 0.38145
 C811 C 0.30457 0.93043 0.38828
 H812 H 0.32678 0.95563 0.38626
 H813 H 0.29565 0.92417 0.38572
 Cu814 Cu 0.33695 0.93811 0.41352
 Cu815 Cu 0.31226 0.91357 0.41289
 Cu816 Cu 0.33768 0.91362 0.43823
 N817 N 0.35130 0.93789 0.42767
 N818 N 0.35154 0.92824 0.43728
 C819 C 0.36229 0.93056 0.44585
 C820 C 0.36907 0.94225 0.44132
 C821 C 0.36192 0.94671 0.42981
 H822 H 0.36487 0.92433 0.45478
 H823 H 0.36420 0.95573 0.42359
 N824 N 0.32277 0.89970 0.43746
 N825 N 0.31308 0.89969 0.42781
 C826 C 0.30425 0.88917 0.43026
 C827 C 0.30863 0.88233 0.44197
 C828 C 0.32035 0.88920 0.44631
 H829 H 0.29521 0.88674 0.42412
 H830 H 0.32651 0.88680 0.45534
 H831 H 0.32197 0.92444 0.42856
 H832 H 0.33318 0.91344 0.41732
 O833 O 0.23190 0.50114 0.71334
 O834 O 0.23426 0.47714 0.71772
 O835 O 0.21328 0.51791 0.74913
 O836 O 0.21710 0.51753 0.77226
 O837 O 0.24904 0.53700 0.73214
 O838 O 0.27341 0.53216 0.73351
 O839 O 0.25130 0.48160 0.78596
 O840 O 0.22734 0.48466 0.78232
 O841 O 0.26845 0.46425 0.75132
 O842 O 0.26703 0.46885 0.72611
 O843 O 0.28608 0.49903 0.76825
 O844 O 0.28140 0.52414 0.76708
 O845 O 0.26793 0.49837 0.78601
 O846 O 0.26582 0.52434 0.78135
 O847 O 0.28623 0.48237 0.75156
 O848 O 0.28131 0.48445 0.72575
 O849 O 0.25211 0.46427 0.76828
 O850 O 0.22678 0.46827 0.76341
 O851 O 0.24873 0.51775 0.71325
 O852 O 0.27356 0.51628 0.71824
 O853 O 0.23238 0.53700 0.74884
 O854 O 0.23492 0.53155 0.77398
 O855 O 0.21338 0.50141 0.73221
 O856 O 0.21865 0.47633 0.73571
 Zr857 Zr 0.23328 0.49254 0.73330
 O858 O 0.24573 0.47930 0.74533
 Zr859 Zr 0.23333 0.51704 0.75762
 O860 O 0.24541 0.50463 0.77087
 Zr861 Zr 0.25763 0.51700 0.73320
 O862 O 0.27099 0.50495 0.74552
 Zr863 Zr 0.24225 0.48359 0.76632
 O864 O 0.22867 0.49594 0.75436
 Zr865 Zr 0.26670 0.48389 0.74206
 O866 O 0.25432 0.49595 0.72865
 Zr867 Zr 0.26641 0.50816 0.76656
 O868 O 0.25435 0.52170 0.75424
 O869 O 0.23682 0.51345 0.73680
 O870 O 0.26317 0.48723 0.76297
 C871 C 0.23869 0.51104 0.70761
 C872 C 0.20764 0.51125 0.73908
 C873 C 0.23913 0.54271 0.73891
 C874 C 0.26149 0.48810 0.79150
 C875 C 0.26221 0.45876 0.76166
 C876 C 0.29168 0.48887 0.76178
 H877 H 0.24354 0.46952 0.74318
 H878 H 0.28071 0.50725 0.74336
 H879 H 0.23090 0.51936 0.73092
 H880 H 0.24313 0.50661 0.78064
 H881 H 0.21854 0.48750 0.77790
 H882 H 0.21966 0.51108 0.77977
 H883 H 0.28800 0.49194 0.72778
 H884 H 0.27263 0.50728 0.71341
 H885 H 0.22733 0.46174 0.77130
 H886 H 0.21163 0.47714 0.72826
 H887 H 0.28708 0.52333 0.75862
 H888 H 0.27306 0.53651 0.74278
 H889 H 0.24362 0.47771 0.71360
 H890 H 0.25871 0.46297 0.72716
 H891 H 0.24336 0.53708 0.77226
 H892 H 0.25850 0.52213 0.78815
 O893 O 0.24898 0.03638 0.23153
 O894 O 0.27294 0.03200 0.23367
 O895 O 0.23207 0.00044 0.21309
 O896 O 0.23251 -0.02269 0.21698
 O897 O 0.21327 0.01760 0.24892
 O898 O 0.21829 0.01634 0.27326
 O899 O 0.26857 -0.03625 0.25086
 O900 O 0.26541 -0.03262 0.22695
 O901 O 0.28609 -0.00149 0.26791
 O902 O 0.28148 0.02377 0.26642
 O903 O 0.25159 -0.01837 0.28583
 O904 O 0.22643 -0.01718 0.28135
 O905 O 0.25198 -0.03624 0.26763
 O906 O 0.22607 -0.03153 0.26586
 O907 O 0.26817 -0.00160 0.28584
 O908 O 0.26605 0.02417 0.28084
 O909 O 0.28592 -0.01856 0.25163
 O910 O 0.28180 -0.01374 0.22632
 O911 O 0.23252 0.03654 0.24848
 O912 O 0.23412 0.03164 0.27329
 O913 O 0.21315 0.00081 0.23232
 O914 O 0.21863 -0.02432 0.23487
 O915 O 0.24852 0.01739 0.21303
 O916 O 0.27364 0.01390 0.21815
 Zr917 Zr 0.25756 0.01640 0.23287
 O918 O 0.27089 0.00443 0.24527
 Zr919 Zr 0.23310 -0.00795 0.23316
 O920 O 0.24560 -0.02114 0.24520
 Zr921 Zr 0.23332 0.01659 0.25740
 O922 O 0.24548 0.00434 0.27072
 Zr923 Zr 0.26657 -0.01660 0.24186
 O924 O 0.25413 -0.00470 0.22833
 Zr925 Zr 0.26647 0.00779 0.26627
 O926 O 0.25432 0.02114 0.25393
 Zr927 Zr 0.24225 -0.01674 0.26623
 O928 O 0.22862 -0.00448 0.25421
 O929 O 0.23670 0.01291 0.23657
 O930 O 0.26313 -0.01316 0.26281
 C931 C 0.23917 0.04215 0.23841
 C932 C 0.23867 0.01047 0.20737
 C933 C 0.20750 0.01077 0.23907
 C934 C 0.26214 -0.04176 0.26108
 C935 C 0.29151 -0.01189 0.26167
 C936 C 0.26176 -0.01184 0.29135
 H937 H 0.28064 0.00657 0.24301
 H938 H 0.24326 0.00654 0.28045
 H939 H 0.23075 0.01878 0.23068
 H940 H 0.24359 -0.03093 0.24295
 H941 H 0.26251 -0.02821 0.21816
 H942 H 0.23897 -0.03020 0.21954
 H943 H 0.25858 0.02221 0.28756
 H944 H 0.24312 0.03644 0.27232
 H945 H 0.28831 -0.02165 0.22685
 H946 H 0.27275 0.02130 0.21108
 H947 H 0.22732 -0.00871 0.28704
 H948 H 0.21398 0.00704 0.27299
 H949 H 0.27252 0.03610 0.24305
 H950 H 0.28735 0.02261 0.25813
 H951 H 0.21318 -0.02257 0.24337
 H952 H 0.22810 -0.03827 0.25841
 O953 O 0.53668 0.73196 0.24891
 O954 O 0.53223 0.73411 0.27288
 O955 O 0.50080 0.71357 0.23189
 O956 O 0.47771 0.71751 0.23220
 O957 O 0.51809 0.74943 0.21316
 O958 O 0.51681 0.77380 0.21820
 O959 O 0.46408 0.75147 0.26826
 O960 O 0.46767 0.72751 0.26513
 O961 O 0.49877 0.76846 0.28594
 O962 O 0.52398 0.76692 0.28143
 O963 O 0.48206 0.78638 0.25130
 O964 O 0.48333 0.78189 0.22615
 O965 O 0.46418 0.76824 0.25165
 O966 O 0.46896 0.76640 0.22577
 O967 O 0.49873 0.78637 0.26797
 O968 O 0.52450 0.78132 0.26596
 O969 O 0.48168 0.75221 0.28571
 O970 O 0.48648 0.72685 0.28159
 O971 O 0.53691 0.74895 0.23247
 O972 O 0.53204 0.77378 0.23409
 O973 O 0.50131 0.73283 0.21296
 O974 O 0.47616 0.73544 0.21835
 O975 O 0.51768 0.71347 0.24840
 O976 O 0.51413 0.71859 0.27350
 Zr977 Zr 0.51669 0.73334 0.25744
 O978 O 0.50470 0.74576 0.27074
 Zr979 Zr 0.49246 0.73367 0.23288
 O980 O 0.47925 0.74574 0.24534
 Zr981 Zr 0.51700 0.75790 0.23322
 O982 O 0.50473 0.77124 0.24533
 Zr983 Zr 0.48370 0.74241 0.26635
 O984 O 0.49562 0.72884 0.25393
 Zr985 Zr 0.50810 0.76678 0.26634
 O986 O 0.52147 0.75441 0.25423
 Zr987 Zr 0.48369 0.76677 0.24200
 O988 O 0.49597 0.75473 0.22841
 O989 O 0.51329 0.73705 0.23656
 O990 O 0.48718 0.76336 0.26290
 C991 C 0.54248 0.73884 0.23912
 C992 C 0.51079 0.70782 0.23852
 C993 C 0.51129 0.73958 0.20736
 C994 C 0.45862 0.76171 0.26180
 C995 C 0.48835 0.76225 0.29132
 C996 C 0.48854 0.79190 0.26150
 H997 H 0.50680 0.74349 0.28050
 H998 H 0.50695 0.78098 0.24311
 H999 H 0.51916 0.73114 0.23064
 H1000 H 0.46948 0.74350 0.24330
 H1001 H 0.47207 0.71871 0.26224
 H1002 H 0.47023 0.72004 0.23868
 H1003 H 0.52255 0.78807 0.25852
 H1004 H 0.53681 0.77279 0.24310
 H1005 H 0.47856 0.72742 0.28809
 H1006 H 0.52152 0.71152 0.27265
 H1007 H 0.49179 0.78757 0.22708
 H1008 H 0.50756 0.77351 0.21381
 H1009 H 0.53635 0.74349 0.27246
 H1010 H 0.52283 0.75858 0.28726
 H1011 H 0.47796 0.74391 0.21287
 H1012 H 0.46221 0.75898 0.22779
 O1013 O 0.03663 0.73188 0.74897
 O1014 O 0.03224 0.73410 0.77294
 O1015 O 0.00074 0.71336 0.73211
 O1016 O -0.02236 0.71728 0.73243
 O1017 O 0.01794 0.74919 0.71322
 O1018 O 0.01660 0.77357 0.71815
 O1019 O -0.03592 0.75137 0.76855
 O1020 O -0.03238 0.72738 0.76533
 O1021 O -0.00120 0.76834 0.78599
 O1022 O 0.02400 0.76690 0.78137
 O1023 O -0.01813 0.78621 0.75143
 O1024 O -0.01689 0.78167 0.72625
 O1025 O -0.03592 0.76808 0.75189
 O1026 O -0.03124 0.76613 0.72594
 O1027 O -0.00145 0.78623 0.76808
 O1028 O 0.02436 0.78131 0.76587
 O1029 O -0.01824 0.75204 0.78585
 O1030 O -0.01347 0.72669 0.78171
 O1031 O 0.03680 0.74883 0.73249
 O1032 O 0.03185 0.77367 0.73404
 O1033 O 0.00118 0.73256 0.71311
 O1034 O -0.02396 0.73517 0.71852
 O1035 O 0.01766 0.71335 0.74858
 O1036 O 0.01419 0.71855 0.77366
 Zr1037 Zr 0.01666 0.73324 0.75754
 O1038 O 0.00468 0.74568 0.77083
 Zr1039 Zr -0.00764 0.73347 0.73304
 O1040 O -0.02085 0.74554 0.74550
 Zr1041 Zr 0.01686 0.75774 0.73324
 O1042 O 0.00459 0.77110 0.74536
 Zr1043 Zr -0.01632 0.74226 0.76650
 O1044 O -0.00441 0.72869 0.75409
 Zr1045 Zr 0.00803 0.76669 0.76637
 O1046 O 0.02139 0.75431 0.75425
 Zr1047 Zr -0.01646 0.76659 0.74212
 O1048 O -0.00419 0.75453 0.72852
 O1049 O 0.01320 0.73689 0.73666
 O1050 O -0.01289 0.76320 0.76300
 C1051 C 0.04240 0.73875 0.73916
 C1052 C 0.01075 0.70765 0.73874
 C1053 C 0.01115 0.73929 0.70746
 C1054 C -0.04142 0.76161 0.76212
 C1055 C -0.01158 0.76210 0.79141
 C1056 C -0.01168 0.79173 0.76165
 H1057 H 0.00682 0.74343 0.78058
 H1058 H 0.00678 0.78084 0.74312
 H1059 H 0.01907 0.73097 0.73075
 H1060 H -0.03063 0.74329 0.74350
 H1061 H -0.02799 0.71857 0.76245
 H1062 H -0.02986 0.71984 0.73890
 H1063 H 0.02228 0.78812 0.75852
 H1064 H 0.03664 0.77273 0.74305
 H1065 H -0.02137 0.72723 0.78823
 H1066 H 0.02159 0.71149 0.77282
 H1067 H -0.00846 0.78740 0.72717
 H1068 H 0.00731 0.77328 0.71385
 H1069 H 0.03638 0.74347 0.77244
 H1070 H 0.02291 0.75856 0.78720
 H1071 H -0.02219 0.74365 0.71305
 H1072 H -0.03803 0.75876 0.72806
 O1073 O 0.03684 0.01779 0.00088
 O1074 O 0.03239 0.01567 -0.02309
 O1075 O 0.00104 0.03623 0.01788
 O1076 O -0.02206 0.03236 0.01751
 O1077 O 0.01818 0.00030 0.03660
 O1078 O 0.01688 -0.02405 0.03151
 O1079 O -0.03580 -0.00156 -0.01858
 O1080 O -0.03213 0.02241 -0.01542
 O1081 O -0.00125 -0.01865 -0.03620
 O1082 O 0.02403 -0.01708 -0.03171
 O1083 O -0.01788 -0.03653 -0.00160
 O1084 O -0.01663 -0.03201 0.02356
 O1085 O -0.03572 -0.01837 -0.00201
 O1086 O -0.03098 -0.01654 0.02388
 O1087 O -0.00121 -0.03654 -0.01823
 O1088 O 0.02454 -0.03150 -0.01626
 O1089 O -0.01825 -0.00233 -0.03599
 O1090 O -0.01334 0.02302 -0.03188
 O1091 O 0.03703 0.00081 0.01733
 O1092 O 0.03212 -0.02401 0.01566
 O1093 O 0.00144 0.01693 0.03678
 O1094 O -0.02370 0.01443 0.03133
 O1095 O 0.01791 0.03632 0.00139
 O1096 O 0.01434 0.03123 -0.02373
 Zr1097 Zr 0.01686 0.01646 -0.00768
 O1098 O 0.00482 0.00408 -0.02101
 Zr1099 Zr -0.00738 0.01615 0.01684
 O1100 O -0.02062 0.00413 0.00436
 Zr1101 Zr 0.01710 -0.00812 0.01653
 O1102 O 0.00480 -0.02142 0.00439
 Zr1103 Zr -0.01616 0.00747 -0.01664
 O1104 O -0.00420 0.02100 -0.00420
 Zr1105 Zr 0.00816 -0.01695 -0.01662
 O1106 O 0.02157 -0.00462 -0.00448
 Zr1107 Zr -0.01623 -0.01691 0.00770
 O1108 O -0.00392 -0.00491 0.02131
 O1109 O 0.01344 0.01274 0.01319
 O1110 O -0.01274 -0.01349 -0.01320
 C1111 C 0.04262 0.01091 0.01069
 C1112 C 0.01105 0.04196 0.01128
 C1113 C 0.01139 0.01014 0.04241
 C1114 C -0.04127 -0.01182 -0.01216
 C1115 C -0.01166 -0.01241 -0.04158
 C1116 C -0.01140 -0.04206 -0.01177
 H1117 H 0.00692 0.00635 -0.03076
 H1118 H 0.00699 -0.03116 0.00660
 H1119 H 0.01932 0.01862 0.01915
 H1120 H -0.03039 0.00638 0.00639
 H1121 H -0.02770 0.03120 -0.01254
 H1122 H -0.02955 0.02986 0.01101
 H1123 H 0.02264 -0.03820 -0.00876
 H1124 H 0.03690 -0.02301 0.00666
 H1125 H -0.02127 0.02248 -0.03837
 H1126 H 0.02176 0.03829 -0.02286
 H1127 H -0.00820 -0.03773 0.02262
 H1128 H 0.00764 -0.02375 0.03590
 H1129 H 0.03646 0.00627 -0.02270
 H1130 H 0.02283 -0.00879 -0.03759
 H1131 H -0.02194 0.00593 0.03679
 H1132 H -0.03772 -0.00911 0.02185
 O1133 O -0.00124 0.48173 0.46319
 O1134 O 0.02276 0.48394 0.46753
 O1135 O -0.01799 0.46313 0.49900
 O1136 O -0.01745 0.46691 0.52214
 O1137 O -0.03687 0.49907 0.48212
 O1138 O -0.03185 0.52344 0.48349
 O1139 O 0.01857 0.50087 0.53585
 O1140 O 0.01541 0.47692 0.53210
 O1141 O 0.03595 0.51812 0.50128
 O1142 O 0.03136 0.51673 0.47606
 O1143 O 0.00138 0.53589 0.51820
 O1144 O -0.02375 0.53131 0.51703
 O1145 O 0.00196 0.51764 0.53594
 O1146 O -0.02398 0.51575 0.53130
 O1147 O 0.01795 0.53601 0.50147
 O1148 O 0.01582 0.53106 0.47566
 O1149 O 0.03586 0.50172 0.51821
 O1150 O 0.03178 0.47640 0.51322
 O1151 O -0.01773 0.49868 0.46316
 O1152 O -0.01606 0.52350 0.46817
 O1153 O -0.03691 0.48237 0.49879
 O1154 O -0.03138 0.48480 0.52391
 O1155 O -0.00157 0.46315 0.48205
 O1156 O 0.02355 0.46831 0.48552
 Zr1157 Zr 0.00743 0.48303 0.48315
 O1158 O 0.02078 0.49541 0.49518
 Zr1159 Zr -0.01694 0.48318 0.50752
 O1160 O -0.00445 0.49519 0.52076
 Zr1161 Zr -0.01682 0.50755 0.48313
 O1162 O -0.00467 0.52085 0.49545
 Zr1163 Zr 0.01653 0.49191 0.51618
 O1164 O 0.00408 0.47840 0.50421
 Zr1165 Zr 0.01633 0.51645 0.49197
 O1166 O 0.00417 0.50413 0.47855
 Zr1167 Zr -0.00786 0.51625 0.51649
 O1168 O -0.02148 0.50425 0.50417
 O1169 O -0.01341 0.48669 0.48669
 O1170 O 0.01302 0.51289 0.51288
 C1171 C -0.01111 0.48860 0.45749
 C1172 C -0.01141 0.45745 0.48894
 C1173 C -0.04260 0.48917 0.48889
 C1174 C 0.01215 0.51109 0.54141
 C1175 C 0.04140 0.51183 0.51164
 C1176 C 0.01151 0.54148 0.51171
 H1177 H 0.03053 0.49317 0.49303
 H1178 H -0.00692 0.53059 0.49331
 H1179 H -0.01937 0.48081 0.48081
 H1180 H -0.00642 0.49290 0.53053
 H1181 H 0.01253 0.46814 0.52765
 H1182 H -0.01101 0.46946 0.52967
 H1183 H 0.00837 0.53779 0.47768
 H1184 H -0.00709 0.52252 0.46334
 H1185 H 0.03829 0.47690 0.52113
 H1186 H 0.02266 0.46127 0.47809
 H1187 H -0.02289 0.53705 0.50861
 H1188 H -0.03618 0.52310 0.49276
 H1189 H 0.02229 0.49334 0.46349
 H1190 H 0.03716 0.50836 0.47709
 H1191 H -0.03684 0.49331 0.52223
 H1192 H -0.02185 0.50834 0.53803
 O1193 O 0.53656 0.01826 0.50107
 O1194 O 0.53215 0.01601 0.47712
 O1195 O 0.50076 0.03691 0.51789
 O1196 O 0.47763 0.03305 0.51750
 O1197 O 0.51784 0.00112 0.53688
 O1198 O 0.51637 -0.02329 0.53199
 O1199 O 0.46396 -0.00103 0.48146
 O1200 O 0.46759 0.02292 0.48463
 O1201 O 0.49859 -0.01817 0.46409
 O1202 O 0.52385 -0.01671 0.46877
 O1203 O 0.48168 -0.03596 0.49867
 O1204 O 0.48286 -0.03137 0.52380
 O1205 O 0.46390 -0.01775 0.49812
 O1206 O 0.46859 -0.01578 0.52408
 O1207 O 0.49839 -0.03605 0.48207
 O1208 O 0.52413 -0.03116 0.48420
 O1209 O 0.48163 -0.00180 0.46416
 O1210 O 0.48649 0.02354 0.46828
 O1211 O 0.53668 0.00135 0.51760
 O1212 O 0.53165 -0.02347 0.51615
 O1213 O 0.50112 0.01777 0.53692
 O1214 O 0.47598 0.01518 0.53147
 O1215 O 0.51767 0.03684 0.50144
 O1216 O 0.51416 0.03163 0.47637
 Zr1217 Zr 0.51659 0.01694 0.49251
 O1218 O 0.50457 0.00452 0.47921
 Zr1219 Zr 0.49230 0.01682 0.51697
 O1220 O 0.47906 0.00475 0.50450
 Zr1221 Zr 0.51671 -0.00750 0.51687
 O1222 O 0.50441 -0.02085 0.50474
 Zr1223 Zr 0.48359 0.00800 0.48351
 O1224 O 0.49554 0.02155 0.49592
 Zr1225 Zr 0.50786 -0.01650 0.48372
 O1226 O 0.52125 -0.00413 0.49585
 Zr1227 Zr 0.48337 -0.01629 0.50792
 O1228 O 0.49567 -0.00424 0.52153
 O1229 O 0.51312 0.01335 0.51339
 O1230 O 0.48695 -0.01296 0.48703
 C1231 C 0.54231 0.01140 0.51091
 C1232 C 0.51080 0.04257 0.51126
 C1233 C 0.51107 0.01104 0.54261
 C1234 C 0.45842 -0.01125 0.48788
 C1235 C 0.48825 -0.01189 0.45862
 C1236 C 0.48816 -0.04153 0.48851
 H1237 H 0.50672 0.00674 0.46946
 H1238 H 0.50657 -0.03059 0.50700
 H1239 H 0.51902 0.01926 0.51930
 H1240 H 0.46929 0.00703 0.50648
 H1241 H 0.47201 0.03172 0.48752
 H1242 H 0.47010 0.03047 0.51107
 H1243 H 0.52216 -0.03783 0.49170
 H1244 H 0.53642 -0.02258 0.50713
 H1245 H 0.47859 0.02301 0.46175
 H1246 H 0.52160 0.03866 0.47720
 H1247 H 0.49135 -0.03702 0.52300
 H1248 H 0.50711 -0.02293 0.53633
 H1249 H 0.53624 0.00663 0.47762
 H1250 H 0.52268 -0.00847 0.46281
 H1251 H 0.47772 0.00671 0.53696
 H1252 H 0.46183 -0.00840 0.52193
 O1253 O 0.53637 0.51830 0.00082
 O1254 O 0.53197 0.51607 -0.02314
 O1255 O 0.50054 0.53685 0.01766
 O1256 O 0.47744 0.53298 0.01732
 O1257 O 0.51767 0.50101 0.03655
 O1258 O 0.51629 0.47662 0.03161
 O1259 O 0.46377 0.49892 -0.01882
 O1260 O 0.46737 0.52289 -0.01557
 O1261 O 0.49837 0.48188 -0.03623
 O1262 O 0.52358 0.48325 -0.03163
 O1263 O 0.48151 0.46402 -0.00158
 O1264 O 0.48270 0.46859 0.02351
 O1265 O 0.46375 0.48218 -0.00218
 O1266 O 0.46845 0.48421 0.02382
 O1267 O 0.49814 0.46396 -0.01826
 O1268 O 0.52395 0.46888 -0.01612
 O1269 O 0.48142 0.49826 -0.03612
 O1270 O 0.48626 0.52358 -0.03194
 O1271 O 0.53653 0.50135 0.01731
 O1272 O 0.53153 0.47652 0.01572
 O1273 O 0.50095 0.51766 0.03665
 O1274 O 0.47580 0.51507 0.03122
 O1275 O 0.51744 0.53684 0.00121
 O1276 O 0.51395 0.53164 -0.02389
 Zr1277 Zr 0.51640 0.51695 -0.00776
 O1278 O 0.50437 0.50453 -0.02106
 Zr1279 Zr 0.49212 0.51676 0.01671
 O1280 O 0.47886 0.50472 0.00425
 Zr1281 Zr 0.51656 0.49246 0.01653
 O1282 O 0.50424 0.47912 0.00441
 Zr1283 Zr 0.48338 0.50800 -0.01675
 O1284 O 0.49534 0.52154 -0.00433
 Zr1285 Zr 0.50765 0.48351 -0.01660
 O1286 O 0.52107 0.49587 -0.00448
 Zr1287 Zr 0.48320 0.48367 0.00764
 O1288 O 0.49553 0.49570 0.02124
 O1289 O 0.51294 0.51331 0.01311
 O1290 O 0.48675 0.48704 -0.01325
 C1291 C 0.54214 0.51143 0.01065
 C1292 C 0.51056 0.54255 0.01104
 C1293 C 0.51091 0.51090 0.04230
 C1294 C 0.45825 0.48867 -0.01242
 C1295 C 0.48803 0.48817 -0.04168
 C1296 C 0.48794 0.45846 -0.01178
 H1297 H 0.50650 0.50678 -0.03082
 H1298 H 0.50641 0.46938 0.00666
 H1299 H 0.51883 0.51922 0.01903
 H1300 H 0.46909 0.50698 0.00624
 H1301 H 0.47177 0.53170 -0.01268
 H1302 H 0.46992 0.53043 0.01087
 H1303 H 0.52193 0.46213 -0.00870
 H1304 H 0.53632 0.47747 0.00673
 H1305 H 0.47834 0.52307 -0.03846
 H1306 H 0.52137 0.53870 -0.02303
 H1307 H 0.49121 0.46297 0.02273
 H1308 H 0.50704 0.47696 0.03597
 H1309 H 0.53607 0.50669 -0.02266
 H1310 H 0.52253 0.49162 -0.03743
 H1311 H 0.47757 0.50660 0.03671
 H1312 H 0.46160 0.49149 0.02161
 O1313 O 0.76850 0.28661 0.49919
 O1314 O 0.76631 0.28208 0.52313
 O1315 O 0.78699 0.25082 0.48212
 O1316 O 0.78312 0.22766 0.48248
 O1317 O 0.75125 0.26803 0.46328
 O1318 O 0.72689 0.26668 0.46816
 O1319 O 0.74898 0.21390 0.51834
 O1320 O 0.77294 0.21746 0.51522
 O1321 O 0.73201 0.24852 0.53592
 O1322 O 0.73351 0.27378 0.53146
 O1323 O 0.71418 0.23184 0.50115
 O1324 O 0.71883 0.23316 0.47600
 O1325 O 0.73228 0.21399 0.50165
 O1326 O 0.73426 0.21875 0.47575
 O1327 O 0.71415 0.24846 0.51788
 O1328 O 0.71916 0.27427 0.51593
 O1329 O 0.74831 0.23149 0.53576
 O1330 O 0.77363 0.23629 0.53170
 O1331 O 0.75160 0.28684 0.48265
 O1332 O 0.72681 0.28190 0.48407
 O1333 O 0.76783 0.25123 0.46313
 O1334 O 0.76525 0.22608 0.46845
 O1335 O 0.78701 0.26768 0.49867
 O1336 O 0.78184 0.26400 0.52375
 Zr1337 Zr 0.76715 0.26658 0.50763
 O1338 O 0.75470 0.25453 0.52084
 Zr1339 Zr 0.76693 0.24236 0.48304
 O1340 O 0.75484 0.22909 0.49540
 Zr1341 Zr 0.74270 0.26688 0.48328
 O1342 O 0.72933 0.25456 0.49531
 Zr1343 Zr 0.75810 0.23352 0.51643
 O1344 O 0.77168 0.24550 0.50411
 Zr1345 Zr 0.73371 0.25789 0.51635
 O1346 O 0.74610 0.27132 0.50432
 Zr1347 Zr 0.73383 0.23350 0.49197
 O1348 O 0.74590 0.24584 0.47847
 O1349 O 0.76351 0.26320 0.48674
 O1350 O 0.73717 0.23697 0.51289
 C1351 C 0.76165 0.29243 0.48938
 C1352 C 0.79269 0.26084 0.48878
 C1353 C 0.76111 0.26124 0.45751
 C1354 C 0.73874 0.20844 0.51186
 C1355 C 0.73825 0.23812 0.54133
 C1356 C 0.70864 0.23829 0.51134
 H1357 H 0.75693 0.25661 0.53062
 H1358 H 0.71961 0.25677 0.49304
 H1359 H 0.76941 0.26912 0.48085
 H1360 H 0.75707 0.21931 0.49336
 H1361 H 0.78175 0.22186 0.51238
 H1362 H 0.78049 0.22006 0.48881
 H1363 H 0.71244 0.27232 0.50846
 H1364 H 0.72772 0.28664 0.49312
 H1365 H 0.77308 0.22835 0.53817
 H1366 H 0.78890 0.27141 0.52295
 H1367 H 0.71310 0.24159 0.47695
 H1368 H 0.72721 0.25742 0.46376
 H1369 H 0.75694 0.28619 0.52267
 H1370 H 0.74181 0.27263 0.53733
 H1371 H 0.75676 0.22783 0.46300
 H1372 H 0.74164 0.21197 0.47785
 O1373 O 0.75102 0.76865 -0.03667
 O1374 O 0.72704 0.76655 -0.03224
 O1375 O 0.76812 0.78690 -0.00079
 O1376 O 0.76779 0.78298 0.02230
 O1377 O 0.78665 0.75094 -0.01809
 O1378 O 0.78150 0.72661 -0.01688
 O1379 O 0.73155 0.74921 0.03593
 O1380 O 0.73487 0.77315 0.03236
 O1381 O 0.71383 0.73232 0.00128
 O1382 O 0.71830 0.73377 -0.02393
 O1383 O 0.74842 0.71416 0.01792
 O1384 O 0.77350 0.71854 0.01676
 O1385 O 0.74804 0.73233 0.03582
 O1386 O 0.77401 0.73412 0.03103
 O1387 O 0.73172 0.71427 0.00129
 O1388 O 0.73372 0.71932 -0.02448
 O1389 O 0.71413 0.74862 0.01832
 O1390 O 0.71841 0.77393 0.01354
 O1391 O 0.76739 0.75160 -0.03693
 O1392 O 0.76557 0.72674 -0.03209
 O1393 O 0.78693 0.76754 -0.00128
 O1394 O 0.78155 0.76496 0.02386
 O1395 O 0.75159 0.78709 -0.01765
 O1396 O 0.72647 0.78208 -0.01413
 Zr1397 Zr 0.74247 0.76727 -0.01669
 O1398 O 0.72913 0.75491 -0.00468
 Zr1399 Zr 0.76702 0.76680 0.00756
 O1400 O 0.75452 0.75481 0.02078
 Zr1401 Zr 0.76656 0.74259 -0.01702
 O1402 O 0.75441 0.72931 -0.00473
 Zr1403 Zr 0.73354 0.75827 0.01632
 O1404 O 0.74601 0.77176 0.00439
 Zr1405 Zr 0.73342 0.73386 -0.00807
 O1406 O 0.74557 0.74618 -0.02147
 Zr1407 Zr 0.75775 0.73376 0.01633
 O1408 O 0.77139 0.74572 0.00402
 O1409 O 0.76332 0.76345 -0.01328
 O1410 O 0.73687 0.73729 0.01285
 C1411 C 0.76080 0.76176 -0.04249
 C1412 C 0.76151 0.79268 -0.01078
 C1413 C 0.79249 0.76077 -0.01128
 C1414 C 0.73792 0.73892 0.04139
 C1415 C 0.70847 0.73860 0.01168
 C1416 C 0.73820 0.70868 0.01145
 H1417 H 0.71938 0.75723 -0.00678
 H1418 H 0.75659 0.71956 -0.00695
 H1419 H 0.76928 0.76933 -0.01914
 H1420 H 0.75657 0.75704 0.03055
 H1421 H 0.73780 0.78193 0.02796
 H1422 H 0.76134 0.78046 0.02982
 H1423 H 0.74116 0.71256 -0.02256
 H1424 H 0.75659 0.72783 -0.03690
 H1425 H 0.71193 0.77344 0.02148
 H1426 H 0.72735 0.78915 -0.02151
 H1427 H 0.77269 0.71300 0.00819
 H1428 H 0.78590 0.72687 -0.00763
 H1429 H 0.72744 0.75718 -0.03638
 H1430 H 0.71258 0.74219 -0.02284
 H1431 H 0.78698 0.75646 0.02205
 H1432 H 0.77191 0.74141 0.03791
 O1433 O 1.00071 0.21305 0.23177
 O1434 O 0.97677 0.21755 0.23391
 O1435 O 1.01770 0.24885 0.21321
 O1436 O 1.01733 0.27201 0.21705
 O1437 O 1.03655 0.23173 0.24901
 O1438 O 1.03165 0.23315 0.27337
 O1439 O 0.98138 0.28579 0.25108
 O1440 O 0.98450 0.28215 0.22714
 O1441 O 0.96386 0.25113 0.26814
 O1442 O 0.96839 0.22589 0.26668
 O1443 O 0.99856 0.26794 0.28597
 O1444 O 1.02366 0.26672 0.28139
 O1445 O 0.99804 0.28578 0.26780
 O1446 O 1.02396 0.28104 0.26587
 O1447 O 0.98189 0.25127 0.28603
 O1448 O 0.98389 0.22547 0.28105
 O1449 O 0.96399 0.26813 0.25181
 O1450 O 0.96808 0.26328 0.22649
 O1451 O 1.01722 0.21289 0.24870
 O1452 O 1.01576 0.21791 0.27348
 O1453 O 1.03668 0.24849 0.23240
 O1454 O 1.03129 0.27366 0.23493
 O1455 O 1.00121 0.23195 0.21321
 O1456 O 0.97613 0.23559 0.21834
 Zr1457 Zr 0.99222 0.23307 0.23306
 O1458 O 0.97897 0.24513 0.24547
 Zr1459 Zr 1.01676 0.25734 0.23327
 O1460 O 1.00434 0.27061 0.24531
 Zr1461 Zr 1.01655 0.23288 0.25755
 O1462 O 1.00448 0.24521 0.27087
 Zr1463 Zr 0.98333 0.26613 0.24204
 O1464 O 0.99570 0.25415 0.22849
 Zr1465 Zr 0.98345 0.24182 0.26647
 O1466 O 0.99553 0.22839 0.25413
 Zr1467 Zr 1.00776 0.26627 0.26633
 O1468 O 1.02131 0.25392 0.25431
 O1469 O 1.01310 0.23650 0.23672
 O1470 O 0.98685 0.26275 0.26298
 C1471 C 1.01051 0.20727 0.23865
 C1472 C 1.01108 0.23880 0.20753
 C1473 C 1.04231 0.23851 0.23914
 C1474 C 0.98784 0.29130 0.26130
 C1475 C 0.95843 0.26151 0.26187
 C1476 C 0.98840 0.26147 0.29153
 H1477 H 0.96921 0.24301 0.24323
 H1478 H 1.00673 0.24303 0.28060
 H1479 H 1.01901 0.23058 0.23083
 H1480 H 1.00636 0.28039 0.24305
 H1481 H 0.98737 0.27772 0.21835
 H1482 H 1.01093 0.27956 0.21961
 H1483 H 0.99137 0.22743 0.28776
 H1484 H 1.00674 0.21313 0.27255
 H1485 H 0.96158 0.27120 0.22703
 H1486 H 0.97695 0.22816 0.21129
 H1487 H 1.02283 0.25823 0.28704
 H1488 H 1.03604 0.24241 0.27302
 H1489 H 0.97722 0.21344 0.24328
 H1490 H 0.96253 0.22701 0.25837
 H1491 H 1.03677 0.27192 0.24341
 H1492 H 1.02185 0.28780 0.25848
 O1493 O 0.74889 1.03648 0.73151
 O1494 O 0.77285 1.03198 0.73371
 O1495 O 0.73184 1.00060 0.71312
 O1496 O 0.73219 0.97745 0.71705
 O1497 O 0.71307 1.01795 0.74883
 O1498 O 0.71802 1.01662 0.77321
 O1499 O 0.76824 0.96383 0.75116
 O1500 O 0.76505 0.96734 0.72717
 O1501 O 0.78577 0.99853 0.76808
 O1502 O 0.78126 1.02383 0.76644
 O1503 O 0.75113 0.98188 0.78593
 O1504 O 0.72601 0.98310 0.78137
 O1505 O 0.75161 0.96396 0.76789
 O1506 O 0.72567 0.96870 0.76587
 O1507 O 0.76781 0.99855 0.78591
 O1508 O 0.76582 1.02431 0.78087
 O1509 O 0.78560 0.98143 0.75183
 O1510 O 0.78150 0.98619 0.72646
 O1511 O 0.73240 1.03675 0.74844
 O1512 O 0.73392 1.03187 0.77326
 O1513 O 0.71290 1.00111 0.73227
 O1514 O 0.71826 0.97592 0.73496
 O1515 O 0.74836 1.01748 0.71306
 O1516 O 0.77344 1.01386 0.71818
 Zr1517 Zr 0.75738 1.01646 0.73291
 O1518 O 0.77065 1.00446 0.74535
 Zr1519 Zr 0.73281 0.99222 0.73320
 O1520 O 0.74525 0.97899 0.74529
 Zr1521 Zr 0.73309 1.01681 0.75739
 O1522 O 0.74518 1.00454 0.77075
 Zr1523 Zr 0.76626 0.98343 0.74201
 O1524 O 0.75387 0.99536 0.72842
 Zr1525 Zr 0.76620 1.00790 0.76633
 O1526 O 0.75411 1.02127 0.75395
 Zr1527 Zr 0.74188 0.98346 0.76630
 O1528 O 0.72830 0.99575 0.75423
 O1529 O 0.73650 1.01307 0.73658
 O1530 O 0.76277 0.98695 0.76292
 C1531 C 0.73908 1.04230 0.73835
 C1532 C 0.73846 1.01061 0.70741
 C1533 C 0.70728 1.01114 0.73897
 C1534 C 0.76181 0.95839 0.76142
 C1535 C 0.79118 0.98809 0.76189
 C1536 C 0.76133 0.98837 0.79144
 H1537 H 0.78041 1.00655 0.74310
 H1538 H 0.74295 1.00677 0.78047
 H1539 H 0.73059 1.01896 0.73067
 H1540 H 0.74322 0.96920 0.74308
 H1541 H 0.76217 0.97172 0.71836
 H1542 H 0.73861 0.96992 0.71964
 H1543 H 0.75833 1.02240 0.78757
 H1544 H 0.74294 1.03664 0.77230
 H1545 H 0.78800 0.97827 0.72704
 H1546 H 0.77261 1.02128 0.71112
 H1547 H 0.72687 0.99162 0.78700
 H1548 H 0.71361 1.00737 0.77289
 H1549 H 0.77239 1.03614 0.74306
 H1550 H 0.78719 1.02257 0.75820
 H1551 H 0.71279 0.97774 0.74341
 H1552 H 0.72780 0.96185 0.75856
 O1553 O 0.74929 0.53690 0.23181
 O1554 O 0.77323 0.53245 0.23399
 O1555 O 0.73233 0.50104 0.21325
 O1556 O 0.73272 0.47790 0.21708
 O1557 O 0.71348 0.51816 0.24908
 O1558 O 0.71846 0.51685 0.27343
 O1559 O 0.76869 0.46419 0.25111
 O1560 O 0.76560 0.46784 0.22717
 O1561 O 0.78621 0.49884 0.26828
 O1562 O 0.78168 0.52412 0.26675
 O1563 O 0.75156 0.48207 0.28599
 O1564 O 0.72643 0.48330 0.28141
 O1565 O 0.75205 0.46423 0.26783
 O1566 O 0.72614 0.46895 0.26589
 O1567 O 0.76820 0.49878 0.28609
 O1568 O 0.76619 0.52457 0.28111
 O1569 O 0.78607 0.48181 0.25196
 O1570 O 0.78203 0.48670 0.22662
 O1571 O 0.73278 0.53706 0.24871
 O1572 O 0.73431 0.53211 0.27350
 O1573 O 0.71336 0.50139 0.23245
 O1574 O 0.71881 0.47624 0.23495
 O1575 O 0.74882 0.51795 0.21326
 O1576 O 0.77391 0.51438 0.21842
 Zr1577 Zr 0.75781 0.51689 0.23312
 O1578 O 0.77110 0.50486 0.24554
 Zr1579 Zr 0.73331 0.49259 0.23330
 O1580 O 0.74574 0.47935 0.24535
 Zr1581 Zr 0.73351 0.51709 0.25759
 O1582 O 0.74561 0.50479 0.27091
 Zr1583 Zr 0.76675 0.48385 0.24210
 O1584 O 0.75436 0.49580 0.22855
 Zr1585 Zr 0.76662 0.50819 0.26654
 O1586 O 0.75453 0.52160 0.25418
 Zr1587 Zr 0.74233 0.48373 0.26637
 O1588 O 0.72876 0.49604 0.25434
 O1589 O 0.73693 0.51344 0.23676
 O1590 O 0.76323 0.48726 0.26303
 C1591 C 0.73947 0.54268 0.23867
 C1592 C 0.73895 0.51107 0.20756
 C1593 C 0.70771 0.51134 0.23922
 C1594 C 0.76224 0.45869 0.26133
 C1595 C 0.79163 0.48843 0.26206
 C1596 C 0.76172 0.48856 0.29156
 H1597 H 0.78086 0.50698 0.24331
 H1598 H 0.74335 0.50698 0.28064
 H1599 H 0.73101 0.51934 0.23087
 H1600 H 0.74373 0.46957 0.24308
 H1601 H 0.76273 0.47227 0.21838
 H1602 H 0.73917 0.47038 0.21963
 H1603 H 0.75870 0.52262 0.28781
 H1604 H 0.74332 0.53689 0.27257
 H1605 H 0.78853 0.47877 0.22717
 H1606 H 0.77306 0.52180 0.21137
 H1607 H 0.72733 0.49175 0.28712
 H1608 H 0.71410 0.50758 0.27312
 H1609 H 0.77282 0.53651 0.24338
 H1610 H 0.78760 0.52293 0.25849
 H1611 H 0.71334 0.47798 0.24343
 H1612 H 0.72824 0.46217 0.25851
 O1613 O 0.50077 0.21323 0.73156
 O1614 O 0.47682 0.21766 0.73378
 O1615 O 0.51772 0.24916 0.71327
 O1616 O 0.51746 0.27226 0.71725
 O1617 O 0.53654 0.23183 0.74907
 O1618 O 0.53154 0.23304 0.77341
 O1619 O 0.48146 0.28590 0.75119
 O1620 O 0.48459 0.28232 0.72725
 O1621 O 0.46382 0.25124 0.76812
 O1622 O 0.46831 0.22598 0.76660
 O1623 O 0.49851 0.26792 0.78607
 O1624 O 0.52361 0.26665 0.78158
 O1625 O 0.49808 0.28579 0.76796
 O1626 O 0.52401 0.28097 0.76606
 O1627 O 0.48180 0.25129 0.78604
 O1628 O 0.48382 0.22547 0.78098
 O1629 O 0.46404 0.26831 0.75187
 O1630 O 0.46812 0.26349 0.72655
 O1631 O 0.51725 0.21296 0.74851
 O1632 O 0.51563 0.21781 0.77335
 O1633 O 0.53670 0.24864 0.73251
 O1634 O 0.53133 0.27380 0.73516
 O1635 O 0.50120 0.23228 0.71315
 O1636 O 0.47611 0.23580 0.71833
 Zr1637 Zr 0.49224 0.23323 0.73301
 O1638 O 0.47897 0.24525 0.74545
 Zr1639 Zr 0.51679 0.25749 0.73338
 O1640 O 0.50438 0.27072 0.74545
 Zr1641 Zr 0.51650 0.23289 0.75753
 O1642 O 0.50443 0.24520 0.77089
 Zr1643 Zr 0.48337 0.26627 0.74211
 O1644 O 0.49575 0.25433 0.72854
 Zr1645 Zr 0.48341 0.24187 0.76646
 O1646 O 0.49548 0.22846 0.75406
 Zr1647 Zr 0.50776 0.26627 0.76646
 O1648 O 0.52131 0.25395 0.75441
 O1649 O 0.51312 0.23663 0.73671
 O1650 O 0.48685 0.26280 0.76304
 C1651 C 0.51059 0.20740 0.73839
 C1652 C 0.51106 0.23918 0.70751
 C1653 C 0.54233 0.23865 0.73924
 C1654 C 0.48792 0.29136 0.76145
 C1655 C 0.45844 0.26166 0.76190
 C1656 C 0.48830 0.26147 0.79158
 H1657 H 0.46921 0.24316 0.74319
 H1658 H 0.50667 0.24298 0.78062
 H1659 H 0.51903 0.23076 0.73079
 H1660 H 0.50641 0.28051 0.74323
 H1661 H 0.48745 0.27791 0.71845
 H1662 H 0.51100 0.27976 0.71979
 H1663 H 0.49126 0.22743 0.78774
 H1664 H 0.50661 0.21305 0.77235
 H1665 H 0.46165 0.27144 0.72709
 H1666 H 0.47695 0.22842 0.71123
 H1667 H 0.52274 0.25813 0.78719
 H1668 H 0.53592 0.24231 0.77316
 H1669 H 0.47726 0.21355 0.74315
 H1670 H 0.46250 0.22711 0.75825
 H1671 H 0.53682 0.27199 0.74362
 H1672 H 0.52190 0.28782 0.75875
 O1673 O 0.25101 0.76855 0.46328
 O1674 O 0.22706 0.76644 0.46775
 O1675 O 0.26806 0.78711 0.49907
 O1676 O 0.26770 0.78327 0.52220
 O1677 O 0.28679 0.75124 0.48190
 O1678 O 0.28181 0.72685 0.48332
 O1679 O 0.23164 0.74929 0.53593
 O1680 O 0.23483 0.77325 0.53231
 O1681 O 0.21404 0.73222 0.50130
 O1682 O 0.21858 0.73365 0.47607
 O1683 O 0.24868 0.71434 0.51810
 O1684 O 0.27380 0.71884 0.51683
 O1685 O 0.24827 0.73253 0.53590
 O1686 O 0.27419 0.73442 0.53114
 O1687 O 0.23199 0.71431 0.50145
 O1688 O 0.23403 0.71923 0.47565
 O1689 O 0.21424 0.74856 0.51832
 O1690 O 0.21839 0.77390 0.51347
 O1691 O 0.26746 0.75157 0.46310
 O1692 O 0.26591 0.72677 0.46808
 O1693 O 0.28697 0.76789 0.49865
 O1694 O 0.28160 0.76534 0.52382
 O1695 O 0.25156 0.78713 0.48219
 O1696 O 0.22645 0.78203 0.48580
 Zr1697 Zr 0.24251 0.76727 0.48328
 O1698 O 0.22922 0.75488 0.49531
 Zr1699 Zr 0.26706 0.76704 0.50752
 O1700 O 0.25461 0.75502 0.52077
 Zr1701 Zr 0.26676 0.74272 0.48306
 O1702 O 0.25465 0.72941 0.49537
 Zr1703 Zr 0.23361 0.75833 0.51630
 O1704 O 0.24601 0.77185 0.50434
 Zr1705 Zr 0.23364 0.73385 0.49199
 O1706 O 0.24574 0.74618 0.47858
 Zr1707 Zr 0.25796 0.73396 0.51641
 O1708 O 0.27155 0.74597 0.50408
 O1709 O 0.26338 0.76358 0.48670
 O1710 O 0.23706 0.73736 0.51290
 C1711 C 0.26080 0.76165 0.45750
 C1712 C 0.26144 0.79281 0.48905
 C1713 C 0.29258 0.76113 0.48866
 C1714 C 0.23809 0.73906 0.54143
 C1715 C 0.20864 0.73850 0.51169
 C1716 C 0.23846 0.70881 0.51165
 H1717 H 0.21947 0.75714 0.49320
 H1718 H 0.25687 0.71967 0.49318
 H1719 H 0.26929 0.76946 0.48079
 H1720 H 0.25664 0.75728 0.53054
 H1721 H 0.23773 0.78204 0.52790
 H1722 H 0.26128 0.78072 0.52974
 H1723 H 0.24145 0.71247 0.47765
 H1724 H 0.25689 0.72770 0.46332
 H1725 H 0.21190 0.77338 0.52138
 H1726 H 0.22730 0.78908 0.47839
 H1727 H 0.27293 0.71318 0.50835
 H1728 H 0.28621 0.72721 0.49256
 H1729 H 0.22747 0.75705 0.46367
 H1730 H 0.21272 0.74197 0.47721
 H1731 H 0.28707 0.75685 0.52204
 H1732 H 0.27210 0.74180 0.53792
 O1733 O 0.25118 0.26797 0.96336
 O1734 O 0.22724 0.26574 0.96782
 O1735 O 0.26810 0.28666 0.99916
 O1736 O 0.26771 0.28284 1.02230
 O1737 O 0.28704 0.25086 0.98207
 O1738 O 0.28218 0.22646 0.98349
 O1739 O 0.23184 0.24869 1.03602
 O1740 O 0.23490 0.27266 1.03238
 O1741 O 0.21436 0.23151 1.00136
 O1742 O 0.21893 0.23294 0.97613
 O1743 O 0.24902 0.21383 1.01826
 O1744 O 0.27417 0.21844 1.01697
 O1745 O 0.24856 0.23202 1.03603
 O1746 O 0.27445 0.23399 1.03129
 O1747 O 0.23236 0.21370 1.00158
 O1748 O 0.23446 0.21858 0.97577
 O1749 O 0.21447 0.24785 1.01838
 O1750 O 0.21848 0.27320 1.01352
 O1751 O 0.26773 0.25108 0.96322
 O1752 O 0.26631 0.22627 0.96824
 O1753 O 0.28711 0.26752 0.99881
 O1754 O 0.28172 0.26499 1.02395
 O1755 O 0.25162 0.28658 0.98225
 O1756 O 0.22654 0.28136 0.98584
 Zr1757 Zr 0.24268 0.26668 0.98335
 O1758 O 0.22943 0.25423 0.99538
 Zr1759 Zr 0.26719 0.26659 1.00763
 O1760 O 0.25479 0.25451 1.02088
 Zr1761 Zr 0.26705 0.24225 0.98319
 O1762 O 0.25499 0.22889 0.99550
 Zr1763 Zr 0.23378 0.25772 1.01638
 O1764 O 0.24612 0.27129 1.00441
 Zr1765 Zr 0.23396 0.23323 0.99208
 O1766 O 0.24602 0.24560 0.97868
 Zr1767 Zr 0.25825 0.23347 1.01654
 O1768 O 0.27178 0.24554 1.00422
 O1769 O 0.26356 0.26309 0.98680
 O1770 O 0.23734 0.23677 1.01299
 C1771 C 0.26101 0.26111 0.95760
 C1772 C 0.26146 0.29232 0.98912
 C1773 C 0.29277 0.26078 0.98884
 C1774 C 0.23833 0.23850 1.04154
 C1775 C 0.20892 0.23776 1.01174
 C1776 C 0.23883 0.20825 1.01181
 H1777 H 0.21967 0.25644 0.99326
 H1778 H 0.25725 0.21915 0.99333
 H1779 H 0.26945 0.26899 0.98090
 H1780 H 0.25680 0.25680 1.03065
 H1781 H 0.23776 0.28146 1.02796
 H1782 H 0.26131 0.28025 1.02984
 H1783 H 0.24187 0.21183 0.97782
 H1784 H 0.25728 0.22713 0.96348
 H1785 H 0.21198 0.27265 1.02143
 H1786 H 0.22736 0.28840 0.97841
 H1787 H 0.27325 0.21268 1.00855
 H1788 H 0.28652 0.22681 0.99276
 H1789 H 0.22772 0.25636 0.96372
 H1790 H 0.21303 0.24122 0.97726
 H1791 H 0.28721 0.25652 1.02221
 H1792 H 0.27235 0.24141 1.03803
 C1793 C 0.29044 0.40219 0.78975
 C1794 C 0.29212 0.40250 0.77396
 C1795 C 0.28605 0.41368 0.76785
 C1796 C 0.27891 0.42343 0.77815
 C1797 C 0.29016 0.42728 0.78870
 C1798 C 0.29623 0.41611 0.79481
 C1799 C 0.27478 0.40308 0.79225
 C1800 C 0.26872 0.41425 0.78615
 C1801 C 0.29695 0.39016 0.79633
 C1802 C 0.30226 0.38026 0.80174
 C1803 C 0.27246 0.43556 0.77170
 C1804 C 0.26750 0.44590 0.76680
 H1805 H 0.29762 0.39465 0.76809
 H1806 H 0.28636 0.41541 0.75676
 H1807 H 0.29312 0.43785 0.79116
 H1808 H 0.30437 0.41711 0.80249
 H1809 H 0.26898 0.39560 0.79830
 H1810 H 0.25772 0.41635 0.78696
 C1811 C 0.29029 -0.09830 0.28920
 C1812 C 0.28240 -0.08899 0.29936
 C1813 C 0.27629 -0.07786 0.29324
 C1814 C 0.27867 -0.07714 0.27755
 C1815 C 0.27354 -0.09108 0.27191
 C1816 C 0.27966 -0.10222 0.27804
 C1817 C 0.30056 -0.08863 0.28191
 C1818 C 0.29445 -0.07750 0.27579
 C1819 C 0.29686 -0.11027 0.29581
 C1820 C 0.30224 -0.12010 0.30128
 C1821 C 0.27221 -0.06504 0.27108
 C1822 C 0.26730 -0.05468 0.26619
 H1823 H 0.28170 -0.09095 0.31040
 H1824 H 0.27035 -0.07028 0.29903
 H1825 H 0.26580 -0.09212 0.26384
 H1826 H 0.27714 -0.11281 0.27522
 H1827 H 0.31166 -0.09034 0.28163
 H1828 H 0.30032 -0.06967 0.27027
 C1829 C 0.78998 0.90195 0.79003
 C1830 C 0.79798 0.90741 0.77745
 C1831 C 0.79190 0.91854 0.77127
 C1832 C 0.77840 0.92312 0.77828
 C1833 C 0.78233 0.92563 0.79348
 C1834 C 0.78842 0.91450 0.79965
 C1835 C 0.77532 0.89902 0.78463
 C1836 C 0.76923 0.91015 0.77846
 C1837 C 0.79655 0.88995 0.79666
 C1838 C 0.80198 0.88008 0.80205
 C1839 C 0.77195 0.93521 0.77172
 C1840 C 0.76702 0.94553 0.76671
 H1841 H 0.80760 0.90297 0.77374
 H1842 H 0.79631 0.92363 0.76229
 H1843 H 0.78052 0.93531 0.79891
 H1844 H 0.79182 0.91466 0.81036
 H1845 H 0.77017 0.88907 0.78559
 H1846 H 0.75887 0.90974 0.77413
 C1847 C 0.46017 0.84804 0.29020
 C1848 C 0.47012 0.85209 0.27850
 C1849 C 0.47630 0.84105 0.27226
 C1850 C 0.47190 0.82705 0.27832
 C1851 C 0.45605 0.82688 0.27730
 C1852 C 0.44988 0.83792 0.28354
 C1853 C 0.46883 0.83916 0.30012
 C1854 C 0.47500 0.82813 0.29387
 C1855 C 0.45352 0.85992 0.29689
 C1856 C 0.44805 0.86971 0.30233
 C1857 C 0.47842 0.81506 0.27172
 C1858 C 0.48337 0.80477 0.26671
 H1859 H 0.47214 0.86271 0.27540
 H1860 H 0.48360 0.84219 0.26381
 H1861 H 0.45018 0.81877 0.27217
 H1862 H 0.43873 0.83927 0.28375
 H1863 H 0.46997 0.84132 0.31109
 H1864 H 0.48143 0.82083 0.29950
 C1865 C -0.04010 0.84790 0.79051
 C1866 C -0.04375 0.83396 0.79721
 C1867 C -0.03761 0.82290 0.79097
 C1868 C -0.02841 0.82686 0.77862
 C1869 C -0.01808 0.83745 0.78443
 C1870 C -0.02422 0.84851 0.79068
 C1871 C -0.04401 0.84623 0.77520
 C1872 C -0.03787 0.83517 0.76895
 C1873 C -0.04671 0.85983 0.79721
 C1874 C -0.05216 0.86966 0.80264
 C1875 C -0.02190 0.81485 0.77199
 C1876 C -0.01692 0.80457 0.76693
 H1877 H -0.05057 0.83287 0.80607
 H1878 H -0.03918 0.81234 0.79449
 H1879 H -0.00693 0.83634 0.78372
 H1880 H -0.01833 0.85688 0.79532
 H1881 H -0.05102 0.85312 0.76975
 H1882 H -0.03963 0.83258 0.75816
 C1883 C -0.03951 -0.09857 -0.04006
 C1884 C -0.04988 -0.08802 -0.03429
 C1885 C -0.04379 -0.07688 -0.02815
 C1886 C -0.02791 -0.07738 -0.02838
 C1887 C -0.02410 -0.07908 -0.04371
 C1888 C -0.03020 -0.09022 -0.04986
 C1889 C -0.03020 -0.10238 -0.02775
 C1890 C -0.02410 -0.09123 -0.02161
 C1891 C -0.04608 -0.11056 -0.04663
 C1892 C -0.05152 -0.12043 -0.05198
 C1893 C -0.02145 -0.06530 -0.02187
 C1894 C -0.01654 -0.05496 -0.01693
 H1895 H -0.06103 -0.08917 -0.03502
 H1896 H -0.04972 -0.06847 -0.02362
 H1897 H -0.01727 -0.07210 -0.04926
 H1898 H -0.02860 -0.09279 -0.06068
 H1899 H -0.02855 -0.11290 -0.02418
 H1900 H -0.01722 -0.09219 -0.01277
 C1901 C -0.03959 0.40082 0.46085
 C1902 C -0.04976 0.41034 0.46848
 C1903 C -0.04357 0.42140 0.47470
 C1904 C -0.02782 0.42186 0.47269
 C1905 C -0.02571 0.42138 0.45694
 C1906 C -0.03190 0.41032 0.45073
 C1907 C -0.02875 0.39678 0.47176
 C1908 C -0.02256 0.40784 0.47798
 C1909 C -0.04624 0.38892 0.45414
 C1910 C -0.05168 0.37914 0.44858
 C1911 C -0.02129 0.43392 0.47923
 C1912 C -0.01639 0.44433 0.48407
 H1913 H -0.06084 0.40859 0.46891
 H1914 H -0.04937 0.42911 0.48045
 H1915 H -0.01992 0.42909 0.45117
 H1916 H -0.03140 0.40856 0.43964
 H1917 H -0.02616 0.38615 0.47436
 H1918 H -0.01468 0.40671 0.48591
 C1919 C 0.46020 -0.09810 0.45987
 C1920 C 0.46896 -0.08927 0.45000
 C1921 C 0.47500 -0.07813 0.45623
 C1922 C 0.47169 -0.07690 0.47172
 C1923 C 0.47606 -0.09082 0.47799
 C1924 C 0.47002 -0.10197 0.47177
 C1925 C 0.44979 -0.08796 0.46628
 C1926 C 0.45582 -0.07682 0.47250
 C1927 C 0.45367 -0.11009 0.45318
 C1928 C 0.44827 -0.11996 0.44775
 C1929 C 0.47808 -0.06479 0.47832
 C1930 C 0.48297 -0.05444 0.48331
 H1931 H 0.47028 -0.09155 0.43908
 H1932 H 0.48150 -0.07088 0.45063
 H1933 H 0.48327 -0.09183 0.48655
 H1934 H 0.47205 -0.11254 0.47502
 H1935 H 0.43865 -0.08938 0.46592
 H1936 H 0.44984 -0.06870 0.47745
 C1937 C 0.45958 0.40183 -0.03986
 C1938 C 0.44989 0.41433 -0.03828
 C1939 C 0.45602 0.42549 -0.03220
 C1940 C 0.47124 0.42308 -0.02830
 C1941 C 0.47825 0.41854 -0.04181
 C1942 C 0.47212 0.40736 -0.04789
 C1943 C 0.46501 0.39894 -0.02521
 C1944 C 0.47115 0.41012 -0.01913
 C1945 C 0.45300 0.38980 -0.04643
 C1946 C 0.44766 0.37990 -0.05187
 C1947 C 0.47775 0.43521 -0.02185
 C1948 C 0.48272 0.44556 -0.01695
 H1949 H 0.43918 0.41441 -0.04167
 H1950 H 0.45055 0.43515 -0.03039
 H1951 H 0.48719 0.42367 -0.04625
 H1952 H 0.47582 0.40293 -0.05752
 H1953 H 0.46412 0.38899 -0.02006
 H1954 H 0.47550 0.40975 -0.00878
 C1955 C 0.78932 0.34926 0.46151
 C1956 C 0.77856 0.35322 0.47252
 C1957 C 0.77248 0.34209 0.47872
 C1958 C 0.77776 0.32813 0.47329
 C1959 C 0.79352 0.32864 0.47520
 C1960 C 0.79960 0.33976 0.46900
 C1961 C 0.78158 0.33977 0.45138
 C1962 C 0.77551 0.32866 0.45757
 C1963 C 0.79585 0.36120 0.45482
 C1964 C 0.80121 0.37100 0.44927
 C1965 C 0.77133 0.31603 0.47980
 C1966 C 0.76653 0.30557 0.48459
 H1967 H 0.77596 0.36382 0.47521
 H1968 H 0.76468 0.34315 0.48672
 H1969 H 0.79941 0.32092 0.48085
 H1970 H 0.81069 0.34155 0.46935
 H1971 H 0.78099 0.34158 0.44031
 H1972 H 0.76971 0.32095 0.45179
 C1973 C 0.78984 0.84891 -0.03919
 C1974 C 0.79378 0.83487 -0.04548
 C1975 C 0.78758 0.82391 -0.03915
 C1976 C 0.77804 0.82807 -0.02713
 C1977 C 0.76776 0.83840 -0.03343
 C1978 C 0.77397 0.84937 -0.03977
 C1979 C 0.79338 0.84766 -0.02375
 C1980 C 0.78718 0.83669 -0.01741
 C1981 C 0.79651 0.86070 -0.04601
 C1982 C 0.80196 0.87041 -0.05163
 C1983 C 0.77148 0.81612 -0.02048
 C1984 C 0.76656 0.80575 -0.01560
 H1985 H 0.80083 0.83363 -0.05414
 H1986 H 0.78933 0.81328 -0.04239
 H1987 H 0.75661 0.83721 -0.03297
 H1988 H 0.76813 0.85757 -0.04476
 H1989 H 0.80021 0.85474 -0.01829
 H1990 H 0.78867 0.83437 -0.00652
 C1991 C 0.78943 0.28918 0.40107
 C1992 C 0.78173 0.29939 0.41050
 C1993 C 0.77545 0.29323 0.42150
 C1994 C 0.77748 0.27746 0.42201
 C1995 C 0.79323 0.27537 0.42167
 C1996 C 0.79951 0.28153 0.41066
 C1997 C 0.77857 0.27831 0.39696
 C1998 C 0.77229 0.27214 0.40798
 C1999 C 0.79620 0.29585 0.38925
 C2000 C 0.80173 0.30139 0.37954
 C2001 C 0.77087 0.27098 0.43402
 C2002 C 0.76599 0.26614 0.44441
 H2003 H 0.78130 0.31048 0.40871
 H2004 H 0.76964 0.29906 0.42915
 H2005 H 0.79896 0.26959 0.42943
 H2006 H 0.81061 0.28103 0.40899
 H2007 H 0.77604 0.27569 0.38633
 H2008 H 0.76438 0.26424 0.40680
 C2009 C 0.78871 0.78999 -0.09911
 C2010 C 0.79704 0.77782 -0.09320
 C2011 C 0.79089 0.77160 -0.08214
 C2012 C 0.77701 0.77817 -0.07806
 C2013 C 0.76820 0.77776 -0.09127
 C2014 C 0.77435 0.78397 -0.10234
 C2015 C 0.78644 0.79978 -0.08681
 C2016 C 0.78029 0.79357 -0.07575
 C2017 C 0.79537 0.79668 -0.11102
 C2018 C 0.80090 0.80216 -0.12077
 C2019 C 0.77053 0.77161 -0.06599
 C2020 C 0.76571 0.76672 -0.05558
 H2021 H 0.80692 0.77441 -0.09731
 H2022 H 0.79551 0.76288 -0.07678
 H2023 H 0.75804 0.77301 -0.09187
 H2024 H 0.76945 0.78455 -0.11243
 H2025 H 0.78943 0.81062 -0.08676
 H2026 H 0.77802 0.79911 -0.06623
 C2027 C 0.29029 0.46008 0.84785
 C2028 C 0.29274 0.47577 0.84693
 C2029 C 0.28648 0.48181 0.83582
 C2030 C 0.27839 0.47158 0.82674
 C2031 C 0.26824 0.46440 0.83660
 C2032 C 0.27449 0.45836 0.84771
 C2033 C 0.29517 0.45430 0.83389
 C2034 C 0.28892 0.46034 0.82280
 C2035 C 0.29700 0.45356 0.85982
 C2036 C 0.30244 0.44817 0.86967
 C2037 C 0.27176 0.47799 0.81467
 C2038 C 0.26674 0.48289 0.80436
 H2039 H 0.29887 0.48161 0.85433
 H2040 H 0.28725 0.49283 0.83371
 H2041 H 0.25712 0.46407 0.83500
 H2042 H 0.26873 0.45285 0.85562
 H2043 H 0.30286 0.44618 0.83281
 H2044 H 0.29126 0.45738 0.81221
 C2045 C 0.29055 -0.03961 0.34781
 C2046 C 0.30031 -0.03054 0.33916
 C2047 C 0.29405 -0.02454 0.32804
 C2048 C 0.27864 -0.02819 0.32666
 C2049 C 0.27217 -0.02407 0.34056
 C2050 C 0.27844 -0.03007 0.35168
 C2051 C 0.28444 -0.05008 0.33753
 C2052 C 0.27819 -0.04408 0.32641
 C2053 C 0.29726 -0.04609 0.35979
 C2054 C 0.30270 -0.05145 0.36965
 C2055 C 0.27201 -0.02182 0.31458
 C2056 C 0.26699 -0.01697 0.30425
 H2057 H 0.31118 -0.02902 0.34152
 H2058 H 0.29957 -0.01787 0.32089
 H2059 H 0.26345 -0.01706 0.34158
 H2060 H 0.27507 -0.02821 0.36224
 H2061 H 0.28502 -0.06124 0.33884
 H2062 H 0.27341 -0.05010 0.31820
 C2063 C -0.04020 -0.04083 -0.09794
 C2064 C -0.04991 -0.03135 -0.08969
 C2065 C -0.04374 -0.02524 -0.07856
 C2066 C -0.02846 -0.02921 -0.07678
 C2067 C -0.02160 -0.02556 -0.09062
 C2068 C -0.02778 -0.03168 -0.10175
 C2069 C -0.03457 -0.05121 -0.08732
 C2070 C -0.02841 -0.04510 -0.07619
 C2071 C -0.04685 -0.04739 -0.10993
 C2072 C -0.05233 -0.05273 -0.11981
 C2073 C -0.02192 -0.02271 -0.06470
 C2074 C -0.01693 -0.01773 -0.05440
 H2075 H -0.06069 -0.02962 -0.09231
 H2076 H -0.04924 -0.01829 -0.07166
 H2077 H -0.01269 -0.01879 -0.09160
 H2078 H -0.02415 -0.03013 -0.11226
 H2079 H -0.03541 -0.06237 -0.08840
 H2080 H -0.02397 -0.05104 -0.06774
 C2081 C -0.03937 0.46068 0.40082
 C2082 C -0.02694 0.46980 0.39694
 C2083 C -0.02073 0.47597 0.40802
 C2084 C -0.02756 0.47241 0.42189
 C2085 C -0.02754 0.45652 0.42256
 C2086 C -0.03374 0.45036 0.41149
 C2087 C -0.04905 0.47023 0.40904
 C2088 C -0.04284 0.47640 0.42011
 C2089 C -0.04605 0.45401 0.38892
 C2090 C -0.05154 0.44849 0.37915
 C2091 C -0.02100 0.47890 0.43397
 C2092 C -0.01609 0.48372 0.44438
 H2093 H -0.02334 0.47128 0.38640
 H2094 H -0.01182 0.48273 0.40699
 H2095 H -0.02311 0.45061 0.43103
 H2096 H -0.03462 0.43919 0.41048
 H2097 H -0.05984 0.47195 0.40642
 H2098 H -0.04832 0.48340 0.42699
 C2099 C 0.46004 -0.04037 0.40224
 C2100 C 0.45005 -0.03168 0.41101
 C2101 C 0.45618 -0.02552 0.42212
 C2102 C 0.47170 -0.02866 0.42337
 C2103 C 0.47795 -0.02427 0.40947
 C2104 C 0.47181 -0.03043 0.39835
 C2105 C 0.46654 -0.05069 0.41242
 C2106 C 0.47266 -0.04453 0.42353
 C2107 C 0.45344 -0.04698 0.39029
 C2108 C 0.44799 -0.05237 0.38044
 C2109 C 0.47818 -0.02214 0.43544
 C2110 C 0.48309 -0.01717 0.44576
 H2111 H 0.43911 -0.03050 0.40871
 H2112 H 0.45049 -0.01906 0.42935
 H2113 H 0.48643 -0.01697 0.40844
 H2114 H 0.47504 -0.02840 0.38778
 H2115 H 0.46630 -0.06185 0.41105
 H2116 H 0.47768 -0.05042 0.43168
 C2117 C 0.45950 0.45998 -0.09802
 C2118 C 0.46548 0.47438 -0.10115
 C2119 C 0.47169 0.48048 -0.09004
 C2120 C 0.47130 0.47157 -0.07691
 C2121 C 0.47788 0.45772 -0.08107
 C2122 C 0.47168 0.45162 -0.09218
 C2123 C 0.44972 0.46217 -0.08571
 C2124 C 0.45593 0.46826 -0.07461
 C2125 C 0.45285 0.45340 -0.10997
 C2126 C 0.44744 0.44796 -0.11980
 C2127 C 0.47787 0.47801 -0.06485
 C2128 C 0.48284 0.48294 -0.05453
 H2129 H 0.46488 0.47934 -0.11121
 H2130 H 0.47641 0.49067 -0.09057
 H2131 H 0.48661 0.45308 -0.07573
 H2132 H 0.47509 0.44176 -0.09636
 H2133 H 0.43890 0.45917 -0.08570
 H2134 H 0.45041 0.47048 -0.06508
 C2135 C 0.46049 0.79071 0.34794
 C2136 C 0.46752 0.80099 0.33808
 C2137 C 0.47354 0.79484 0.32691
 C2138 C 0.47194 0.77902 0.32668
 C2139 C 0.45629 0.77647 0.32767
 C2140 C 0.45027 0.78261 0.33884
 C2141 C 0.47181 0.78022 0.35175
 C2142 C 0.47783 0.77408 0.34057
 C2143 C 0.45398 0.79733 0.35996
 C2144 C 0.44860 0.80270 0.36986
 C2145 C 0.47832 0.77251 0.31454
 C2146 C 0.48319 0.76753 0.30419
 H2147 H 0.46772 0.81211 0.33971
 H2148 H 0.47890 0.80071 0.31897
 H2149 H 0.45044 0.77040 0.32022
 H2150 H 0.43928 0.78179 0.34097
 H2151 H 0.47482 0.77782 0.36230
 H2152 H 0.48602 0.76644 0.34153
 C2153 C -0.04010 0.79053 0.84754
 C2154 C -0.03678 0.77515 0.84979
 C2155 C -0.03056 0.76902 0.83872
 C2156 C -0.02828 0.77889 0.82650
 C2157 C -0.02004 0.79109 0.83248
 C2158 C -0.02626 0.79722 0.84356
 C2159 C -0.04887 0.79096 0.83430
 C2160 C -0.04265 0.78484 0.82324
 C2161 C -0.04678 0.79706 0.85947
 C2162 C -0.05223 0.80233 0.86936
 C2163 C -0.02171 0.77238 0.81450
 C2164 C -0.01675 0.76739 0.80423
 H2165 H -0.03913 0.76956 0.85925
 H2166 H -0.02757 0.75818 0.83869
 H2167 H -0.01022 0.79464 0.82835
 H2168 H -0.02176 0.80603 0.84892
 H2169 H -0.05904 0.79568 0.83366
 H2170 H -0.04750 0.78432 0.81311
 C2171 C 0.40205 0.79003 0.28967
 C2172 C 0.41207 0.78341 0.30006
 C2173 C 0.42321 0.77726 0.29401
 C2174 C 0.42324 0.77834 0.27816
 C2175 C 0.42211 0.79390 0.27511
 C2176 C 0.41096 0.80005 0.28116
 C2177 C 0.39820 0.77832 0.27960
 C2178 C 0.40935 0.77217 0.27354
 C2179 C 0.39006 0.79663 0.29620
 C2180 C 0.38021 0.80201 0.30162
 C2181 C 0.43535 0.77183 0.27177
 C2182 C 0.44571 0.76689 0.26691
 H2183 H 0.41057 0.78357 0.31119
 H2184 H 0.43126 0.77217 0.29996
 H2185 H 0.42944 0.79960 0.26879
 H2186 H 0.40875 0.81101 0.28003
 H2187 H 0.38765 0.77515 0.27742
 H2188 H 0.40836 0.76374 0.26617
 C2189 C -0.09783 0.79033 0.79012
 C2190 C -0.09773 0.79140 0.77426
 C2191 C -0.08661 0.78518 0.76824
 C2192 C -0.07667 0.77848 0.77866
 C2193 C -0.08566 0.76853 0.78716
 C2194 C -0.09679 0.77476 0.79318
 C2195 C -0.08390 0.79639 0.79475
 C2196 C -0.07278 0.79017 0.78873
 C2197 C -0.10983 0.79702 0.79660
 C2198 C -0.11971 0.80247 0.80192
 C2199 C -0.06458 0.77188 0.77226
 C2200 C -0.05427 0.76686 0.76735
 H2201 H -0.10569 0.79663 0.76830
 H2202 H -0.08503 0.78507 0.75712
 H2203 H -0.08347 0.75757 0.78837
 H2204 H -0.10413 0.76913 0.79955
 H2205 H -0.08285 0.80484 0.80211
 H2206 H -0.06221 0.79331 0.79092
 C2207 C 0.84913 0.28930 0.46088
 C2208 C 0.83958 0.29936 0.46862
 C2209 C 0.82857 0.29305 0.47475
 C2210 C 0.82818 0.27730 0.47254
 C2211 C 0.84220 0.27204 0.47779
 C2212 C 0.85322 0.27835 0.47166
 C2213 C 0.83966 0.28167 0.45065
 C2214 C 0.82865 0.27536 0.45677
 C2215 C 0.86099 0.29609 0.45427
 C2216 C 0.87073 0.30161 0.44879
 C2217 C 0.81617 0.27065 0.47901
 C2218 C 0.80578 0.26574 0.48385
 H2219 H 0.84128 0.31046 0.46918
 H2220 H 0.82083 0.29876 0.48056
 H2221 H 0.84337 0.26407 0.48562
 H2222 H 0.86385 0.27579 0.47424
 H2223 H 0.84141 0.28131 0.43956
 H2224 H 0.82097 0.26960 0.45092
 C2225 C 0.84867 0.78895 -0.03972
 C2226 C 0.85170 0.78437 -0.02481
 C2227 C 0.84077 0.77808 -0.01849
 C2228 C 0.82790 0.77701 -0.02773
 C2229 C 0.83279 0.76952 -0.04086
 C2230 C 0.84371 0.77580 -0.04717
 C2231 C 0.83581 0.79820 -0.03867
 C2232 C 0.82489 0.79192 -0.03237
 C2233 C 0.86040 0.79572 -0.04651
 C2234 C 0.87008 0.80126 -0.05206
 C2235 C 0.81598 0.77041 -0.02110
 C2236 C 0.80560 0.76556 -0.01620
 H2237 H 0.86156 0.78595 -0.01965
 H2238 H 0.84125 0.77426 -0.00794
 H2239 H 0.82806 0.76014 -0.04487
 H2240 H 0.84835 0.77181 -0.05659
 H2241 H 0.83531 0.80873 -0.04256
 H2242 H 0.81503 0.79709 -0.03086
 C2243 C -0.09767 -0.04025 -0.04031
 C2244 C -0.08663 -0.03544 -0.05065
 C2245 C -0.07551 -0.02927 -0.04454
 C2246 C -0.07654 -0.02851 -0.02870
 C2247 C -0.07884 -0.04353 -0.02404
 C2248 C -0.08996 -0.04971 -0.03014
 C2249 C -0.10138 -0.02727 -0.03190
 C2250 C -0.09026 -0.02110 -0.02579
 C2251 C -0.10964 -0.04686 -0.04689
 C2252 C -0.11951 -0.05223 -0.05230
 C2253 C -0.06447 -0.02197 -0.02225
 C2254 C -0.05415 -0.01700 -0.01734
 H2255 H -0.08743 -0.03681 -0.06177
 H2256 H -0.06679 -0.02537 -0.05044
 H2257 H -0.07228 -0.04887 -0.01665
 H2258 H -0.09293 -0.06033 -0.02798
 H2259 H -0.11183 -0.02328 -0.03084
 H2260 H -0.09117 -0.01183 -0.01950
 C2261 C -0.09902 0.46089 0.46086
 C2262 C -0.08836 0.45067 0.46669
 C2263 C -0.07736 0.45695 0.47290
 C2264 C -0.07811 0.47284 0.47267
 C2265 C -0.09203 0.47643 0.47938
 C2266 C -0.10304 0.47014 0.47316
 C2267 C -0.09078 0.47035 0.45113
 C2268 C -0.07979 0.47663 0.45733
 C2269 C -0.11084 0.45416 0.45416
 C2270 C -0.12060 0.44869 0.44865
 C2271 C -0.06613 0.47945 0.47920
 C2272 C -0.05572 0.48433 0.48403
 H2273 H -0.08932 0.43949 0.46594
 H2274 H -0.06891 0.45114 0.47748
 H2275 H -0.09315 0.48328 0.48822
 H2276 H -0.11360 0.47161 0.47668
 H2277 H -0.09331 0.47191 0.44029
 H2278 H -0.07290 0.48358 0.45181
 C2279 C 0.40204 -0.03953 0.45932
 C2280 C 0.39813 -0.02799 0.46955
 C2281 C 0.40924 -0.02186 0.47573
 C2282 C 0.42317 -0.02787 0.47108
 C2283 C 0.42316 -0.02657 0.45525
 C2284 C 0.41205 -0.03270 0.44907
 C2285 C 0.41100 -0.04961 0.46772
 C2286 C 0.42211 -0.04348 0.47390
 C2287 C 0.39008 -0.04614 0.45269
 C2288 C 0.38022 -0.05159 0.44730
 C2289 C 0.43524 -0.02138 0.47764
 C2290 C 0.44555 -0.01644 0.48263
 H2291 H 0.38755 -0.02492 0.47174
 H2292 H 0.40818 -0.01354 0.48321
 H2293 H 0.43119 -0.02134 0.44940
 H2294 H 0.41058 -0.03272 0.43793
 H2295 H 0.40884 -0.06060 0.46868
 H2296 H 0.42945 -0.04923 0.48015
 C2297 C 0.40194 0.46013 -0.04088
 C2298 C 0.40241 0.45820 -0.02512
 C2299 C 0.41351 0.46438 -0.01898
 C2300 C 0.42306 0.47189 -0.02920
 C2301 C 0.41364 0.48204 -0.03698
 C2302 C 0.40254 0.47586 -0.04312
 C2303 C 0.41590 0.45469 -0.04610
 C2304 C 0.42700 0.46086 -0.03997
 C2305 C 0.38997 0.45348 -0.04747
 C2306 C 0.38010 0.44800 -0.05282
 C2307 C 0.43511 0.47844 -0.02268
 C2308 C 0.44541 0.48343 -0.01769
 H2309 H 0.39471 0.45246 -0.01929
 H2310 H 0.41533 0.46393 -0.00790
 H2311 H 0.41554 0.49311 -0.03762
 H2312 H 0.39493 0.48164 -0.04903
 H2313 H 0.41699 0.44668 -0.05393
 H2314 H 0.43759 0.45813 -0.04253
 C2315 C 0.34788 0.46039 0.79022
 C2316 C 0.34755 0.47617 0.79218
 C2317 C 0.33649 0.48239 0.78603
 C2318 C 0.32686 0.47222 0.77852
 C2319 C 0.32283 0.46148 0.78952
 C2320 C 0.33388 0.45526 0.79567
 C2321 C 0.34724 0.45815 0.77450
 C2322 C 0.33618 0.46437 0.76835
 C2323 C 0.35977 0.45368 0.79682
 C2324 C 0.36957 0.44816 0.80219
 C2325 C 0.31485 0.47879 0.77200
 C2326 C 0.30455 0.48374 0.76702
 H2327 H 0.35531 0.48194 0.79792
 H2328 H 0.33477 0.49349 0.78649
 H2329 H 0.31222 0.45898 0.79225
 H2330 H 0.33274 0.44743 0.80366
 H2331 H 0.35480 0.45218 0.76872
 H2332 H 0.33427 0.46373 0.75730
 C2333 C 0.34779 -0.04013 0.29015
 C2334 C 0.33908 -0.05012 0.28137
 C2335 C 0.32798 -0.04398 0.27522
 C2336 C 0.32670 -0.02846 0.27844
 C2337 C 0.34061 -0.02215 0.27413
 C2338 C 0.35171 -0.02829 0.28030
 C2339 C 0.33757 -0.03370 0.30046
 C2340 C 0.32648 -0.02756 0.29430
 C2341 C 0.35973 -0.04674 0.29677
 C2342 C 0.36955 -0.05216 0.30220
 C2343 C 0.31465 -0.02198 0.27192
 C2344 C 0.30435 -0.01705 0.26694
 H2345 H 0.34138 -0.06106 0.28014
 H2346 H 0.32078 -0.04967 0.26872
 H2347 H 0.34165 -0.01362 0.26690
 H2348 H 0.36228 -0.02502 0.27834
 H2349 H 0.33890 -0.03397 0.31161
 H2350 H 0.31830 -0.02259 0.30018
 C2351 C 0.15119 0.53908 0.71062
 C2352 C 0.16082 0.53146 0.70055
 C2353 C 0.17183 0.52533 0.70686
 C2354 C 0.17214 0.52742 0.72262
 C2355 C 0.15812 0.52205 0.72776
 C2356 C 0.14710 0.52819 0.72145
 C2357 C 0.16056 0.54931 0.71837
 C2358 C 0.17158 0.54318 0.72467
 C2359 C 0.13934 0.54570 0.70384
 C2360 C 0.12959 0.55120 0.69833
 C2361 C 0.18415 0.52096 0.72926
 C2362 C 0.19454 0.51614 0.73418
 H2363 H 0.15917 0.53098 0.68945
 H2364 H 0.17962 0.51959 0.70115
 H2365 H 0.15695 0.51414 0.73565
 H2366 H 0.13647 0.52553 0.72393
 H2367 H 0.15876 0.56040 0.71880
 H2368 H 0.17921 0.54903 0.73051
 C2369 C 0.15070 0.03832 0.21108
 C2370 C 0.14674 0.02727 0.22180
 C2371 C 0.15784 0.02118 0.22802
 C2372 C 0.17179 0.02673 0.22289
 C2373 C 0.17109 0.04246 0.22512
 C2374 C 0.16000 0.04855 0.21892
 C2375 C 0.16037 0.03090 0.20091
 C2376 C 0.17146 0.02481 0.20712
 C2377 C 0.13879 0.04491 0.20440
 C2378 C 0.12902 0.05040 0.19894
 C2379 C 0.18388 0.02033 0.22943
 C2380 C 0.19434 0.01558 0.23426
 H2381 H 0.13615 0.02448 0.22428
 H2382 H 0.15677 0.01316 0.23582
 H2383 H 0.17868 0.04832 0.23101
 H2384 H 0.15809 0.05962 0.21948
 H2385 H 0.15869 0.03051 0.18980
 H2386 H 0.17929 0.01920 0.20132
 C2387 C 0.59897 0.71110 0.21069
 C2388 C 0.58496 0.70587 0.20536
 C2389 C 0.57393 0.71197 0.21166
 C2390 C 0.57800 0.72271 0.22269
 C2391 C 0.58745 0.73299 0.21514
 C2392 C 0.59849 0.72688 0.20883
 C2393 C 0.59854 0.70879 0.22641
 C2394 C 0.58751 0.71490 0.23272
 C2395 C 0.61084 0.70451 0.20392
 C2396 C 0.62059 0.69905 0.19840
 C2397 C 0.56597 0.72914 0.22932
 C2398 C 0.55557 0.73394 0.23422
 H2399 H 0.58379 0.69807 0.19735
 H2400 H 0.56331 0.70937 0.20903
 H2401 H 0.58563 0.74407 0.21475
 H2402 H 0.60611 0.73274 0.20303
 H2403 H 0.60621 0.70285 0.23207
 H2404 H 0.58573 0.71420 0.24378
 C2405 C 0.09911 0.71086 0.71124
 C2406 C 0.09890 0.72669 0.70967
 C2407 C 0.08782 0.73284 0.71586
 C2408 C 0.07804 0.72256 0.72299
 C2409 C 0.08722 0.71441 0.73307
 C2410 C 0.09831 0.70826 0.72689
 C2411 C 0.08514 0.70595 0.70551
 C2412 C 0.07407 0.71209 0.71168
 C2413 C 0.11102 0.70425 0.70455
 C2414 C 0.12078 0.69883 0.69900
 C2415 C 0.06596 0.72904 0.72949
 C2416 C 0.05553 0.73387 0.73430
 H2417 H 0.10674 0.73254 0.70417
 H2418 H 0.08618 0.74396 0.71566
 H2419 H 0.08519 0.71353 0.74408
 H2420 H 0.10576 0.70210 0.73261
 H2421 H 0.08403 0.69832 0.69732
 H2422 H 0.06348 0.70971 0.70878
 C2423 C 0.65203 0.21017 0.53940
 C2424 C 0.66595 0.20451 0.54454
 C2425 C 0.67710 0.21059 0.53844
 C2426 C 0.67324 0.22175 0.52779
 C2427 C 0.66399 0.23196 0.53568
 C2428 C 0.65284 0.22587 0.54179
 C2429 C 0.65241 0.20836 0.52362
 C2430 C 0.66357 0.21445 0.51751
 C2431 C 0.64003 0.20363 0.54599
 C2432 C 0.63015 0.19830 0.55142
 C2433 C 0.68536 0.22820 0.52133
 C2434 C 0.69572 0.23312 0.51644
 H2435 H 0.66697 0.19644 0.55230
 H2436 H 0.68766 0.20773 0.54097
 H2437 H 0.66603 0.24300 0.53643
 H2438 H 0.64532 0.23169 0.54778
 H2439 H 0.64461 0.20277 0.51777
 H2440 H 0.66533 0.21407 0.50643
 C2441 C 0.65185 0.71070 0.03989
 C2442 C 0.66163 0.71784 0.05018
 C2443 C 0.67281 0.72388 0.04407
 C2444 C 0.67310 0.72218 0.02827
 C2445 C 0.65922 0.72799 0.02322
 C2446 C 0.64804 0.72195 0.02933
 C2447 C 0.66101 0.70046 0.03191
 C2448 C 0.67218 0.70650 0.02581
 C2449 C 0.63982 0.70418 0.04644
 C2450 C 0.62992 0.69879 0.05177
 C2451 C 0.68524 0.72856 0.02180
 C2452 C 0.69559 0.73344 0.01687
 H2453 H 0.65996 0.71810 0.06128
 H2454 H 0.68071 0.72930 0.04995
 H2455 H 0.65826 0.73612 0.01553
 H2456 H 0.63749 0.72491 0.02687
 H2457 H 0.65894 0.68943 0.03117
 H2458 H 0.67968 0.70064 0.01984
 C2459 C 0.09882 0.03915 0.03929
 C2460 C 0.10298 0.02937 0.02746
 C2461 C 0.09202 0.02312 0.02112
 C2462 C 0.07799 0.02728 0.02725
 C2463 C 0.07764 0.04316 0.02644
 C2464 C 0.08859 0.04940 0.03277
 C2465 C 0.09006 0.03025 0.04909
 C2466 C 0.07911 0.02401 0.04276
 C2467 C 0.11060 0.04589 0.04608
 C2468 C 0.12034 0.05141 0.05159
 C2469 C 0.06605 0.02071 0.02058
 C2470 C 0.05569 0.01584 0.01564
 H2471 H 0.11361 0.02752 0.02434
 H2472 H 0.09325 0.01592 0.01259
 H2473 H 0.06948 0.04900 0.02139
 H2474 H 0.08981 0.06057 0.03315
 H2475 H 0.09223 0.02900 0.06004
 H2476 H 0.07189 0.01741 0.04830
 C2477 C 0.09771 0.54019 0.54021
 C2478 C 0.08785 0.53311 0.55044
 C2479 C 0.07674 0.52700 0.54426
 C2480 C 0.07658 0.52858 0.52844
 C2481 C 0.09051 0.52276 0.52357
 C2482 C 0.10163 0.52887 0.52976
 C2483 C 0.08860 0.55035 0.53208
 C2484 C 0.07749 0.54424 0.52589
 C2485 C 0.10970 0.54676 0.54682
 C2486 C 0.11962 0.55215 0.55215
 C2487 C 0.06452 0.52210 0.52188
 C2488 C 0.05422 0.51713 0.51688
 H2489 H 0.08942 0.53295 0.56157
 H2490 H 0.06879 0.52161 0.55009
 H2491 H 0.09156 0.51456 0.51595
 H2492 H 0.11220 0.52590 0.52743
 H2493 H 0.09066 0.56138 0.53129
 H2494 H 0.07004 0.55004 0.51981
 C2495 C 0.59864 0.03983 0.53903
 C2496 C 0.60096 0.03674 0.52361
 C2497 C 0.58998 0.03043 0.51737
 C2498 C 0.57778 0.02784 0.52717
 C2499 C 0.57433 0.04210 0.53333
 C2500 C 0.58529 0.04840 0.53956
 C2501 C 0.59482 0.02582 0.54550
 C2502 C 0.58385 0.01952 0.53926
 C2503 C 0.61044 0.04660 0.54576
 C2504 C 0.62017 0.05209 0.55130
 C2505 C 0.56581 0.02120 0.52063
 C2506 C 0.55542 0.01630 0.51579
 H2507 H 0.61039 0.03930 0.51808
 H2508 H 0.59000 0.02758 0.50651
 H2509 H 0.56415 0.04684 0.53284
 H2510 H 0.58451 0.05851 0.54442
 H2511 H 0.60024 0.02128 0.55423
 H2512 H 0.57988 0.00956 0.54264
 C2513 C 0.59886 0.53949 0.03858
 C2514 C 0.58604 0.53869 0.04789
 C2515 C 0.57497 0.53250 0.04173
 C2516 C 0.57780 0.52769 0.02684
 C2517 C 0.59054 0.51828 0.02790
 C2518 C 0.60162 0.52448 0.03407
 C2519 C 0.59393 0.54691 0.02542
 C2520 C 0.58286 0.54071 0.01925
 C2521 C 0.61075 0.54618 0.04526
 C2522 C 0.62050 0.55165 0.05081
 C2523 C 0.56572 0.52116 0.02034
 C2524 C 0.55528 0.51632 0.01552
 H2525 H 0.58567 0.54267 0.05840
 H2526 H 0.56513 0.53118 0.04697
 H2527 H 0.59083 0.50768 0.02414
 H2528 H 0.61140 0.51919 0.03561
 H2529 H 0.59869 0.55624 0.02135
 H2530 H 0.57814 0.54472 0.00988
 C2531 C 0.03907 0.03787 0.09933
 C2532 C 0.03265 0.04818 0.08909
 C2533 C 0.02654 0.04201 0.07798
 C2534 C 0.02744 0.02613 0.07819
 C2535 C 0.02112 0.02181 0.09209
 C2536 C 0.02724 0.02799 0.10321
 C2537 C 0.04906 0.02911 0.09064
 C2538 C 0.04295 0.02294 0.07952
 C2539 C 0.04566 0.04455 0.11125
 C2540 C 0.05108 0.05010 0.12102
 C2541 C 0.02101 0.01965 0.06608
 C2542 C 0.01623 0.01489 0.05559
 H2543 H 0.03293 0.05935 0.09042
 H2544 H 0.02159 0.04790 0.06979
 H2545 H 0.01260 0.01456 0.09310
 H2546 H 0.02395 0.02603 0.11377
 H2547 H 0.05998 0.02791 0.09297
 H2548 H 0.04864 0.01644 0.07233
 C2549 C 0.04024 0.53942 0.59796
 C2550 C 0.02863 0.52926 0.60180
 C2551 C 0.02256 0.52309 0.59065
 C2552 C 0.02871 0.52769 0.57676
 C2553 C 0.04428 0.52478 0.57796
 C2554 C 0.05034 0.53094 0.58911
 C2555 C 0.03356 0.54971 0.58788
 C2556 C 0.02750 0.54355 0.57673
 C2557 C 0.04676 0.54605 0.60996
 C2558 C 0.05208 0.55150 0.61985
 C2559 C 0.02228 0.52116 0.56466
 C2560 C 0.01737 0.51623 0.55431
 H2561 H 0.02545 0.52712 0.61236
 H2562 H 0.01419 0.51567 0.59164
 H2563 H 0.05004 0.51847 0.57067
 H2564 H 0.06130 0.52992 0.59136
 H2565 H 0.03363 0.56086 0.58934
 H2566 H 0.02238 0.54942 0.56864
 C2567 C 0.53857 0.03933 0.59950
 C2568 C 0.53968 0.04777 0.58610
 C2569 C 0.53364 0.04152 0.57499
 C2570 C 0.52707 0.02743 0.57835
 C2571 C 0.51698 0.03035 0.59024
 C2572 C 0.52302 0.03661 0.60137
 C2573 C 0.54482 0.02515 0.59597
 C2574 C 0.53878 0.01889 0.58485
 C2575 C 0.54512 0.04607 0.61145
 C2576 C 0.55059 0.05156 0.62126
 C2577 C 0.52070 0.02083 0.56622
 C2578 C 0.51594 0.01594 0.55576
 H2579 H 0.54478 0.05777 0.58539
 H2580 H 0.53357 0.04618 0.56476
 H2581 H 0.50605 0.02776 0.58995
 H2582 H 0.51727 0.03939 0.61060
 H2583 H 0.55328 0.02045 0.60167
 H2584 H 0.54206 0.00883 0.58104
 C2585 C 0.53879 0.53907 0.09896
 C2586 C 0.54257 0.54572 0.08506
 C2587 C 0.53643 0.53949 0.07399
 C2588 C 0.52710 0.52721 0.07791
 C2589 C 0.51677 0.53312 0.08841
 C2590 C 0.52291 0.53935 0.09949
 C2591 C 0.54258 0.52371 0.09736
 C2592 C 0.53644 0.51748 0.08629
 C2593 C 0.54543 0.54575 0.11087
 C2594 C 0.55093 0.55121 0.12065
 C2595 C 0.52062 0.52065 0.06585
 C2596 C 0.51580 0.51578 0.05543
 H2597 H 0.54946 0.55453 0.08399
 H2598 H 0.53807 0.54299 0.06344
 H2599 H 0.50561 0.53249 0.08724
 H2600 H 0.51702 0.54408 0.10780
 H2601 H 0.54953 0.51823 0.10428
 H2602 H 0.53810 0.50665 0.08373
 C2603 C 0.21038 0.53927 0.65125
 C2604 C 0.22120 0.52838 0.64713
 C2605 C 0.22744 0.52214 0.65814
 C2606 C 0.22224 0.52741 0.67218
 C2607 C 0.20648 0.52538 0.67178
 C2608 C 0.20025 0.53161 0.66077
 C2609 C 0.21811 0.54940 0.66074
 C2610 C 0.22434 0.54318 0.67175
 C2611 C 0.20369 0.54599 0.63939
 C2612 C 0.19827 0.55151 0.62961
 C2613 C 0.22882 0.52085 0.68417
 C2614 C 0.23373 0.51596 0.69454
 H2615 H 0.22373 0.52579 0.63650
 H2616 H 0.23531 0.51421 0.65695
 H2617 H 0.20072 0.51960 0.67950
 H2618 H 0.18915 0.53118 0.65908
 H2619 H 0.21858 0.56051 0.65902
 H2620 H 0.23016 0.54895 0.67945
 C2621 C 0.21034 0.03886 0.15117
 C2622 C 0.22114 0.02799 0.14695
 C2623 C 0.22737 0.02165 0.15791
 C2624 C 0.22218 0.02682 0.17199
 C2625 C 0.20643 0.02481 0.17158
 C2626 C 0.20020 0.03114 0.16063
 C2627 C 0.21808 0.04891 0.16074
 C2628 C 0.22431 0.04259 0.17169
 C2629 C 0.20365 0.04569 0.13939
 C2630 C 0.19822 0.05127 0.12966
 C2631 C 0.22875 0.02018 0.18393
 C2632 C 0.23367 0.01530 0.19429
 H2633 H 0.22367 0.02549 0.13630
 H2634 H 0.23524 0.01373 0.15665
 H2635 H 0.20066 0.01896 0.17925
 H2636 H 0.18910 0.03073 0.15892
 H2637 H 0.21858 0.06003 0.15910
 H2638 H 0.23014 0.04829 0.17943
 C2639 C 0.71001 0.20992 0.59779
 C2640 C 0.72570 0.20758 0.59704
 C2641 C 0.73179 0.21368 0.58589
 C2642 C 0.72159 0.22153 0.57659
 C2643 C 0.71426 0.23182 0.58622
 C2644 C 0.70818 0.22571 0.59737
 C2645 C 0.70439 0.20473 0.58387
 C2646 C 0.71047 0.21083 0.57272
 C2647 C 0.70347 0.20337 0.60981
 C2648 C 0.69810 0.19805 0.61971
 C2649 C 0.72804 0.22800 0.56449
 C2650 C 0.73299 0.23293 0.55417
 H2651 H 0.73152 0.20163 0.60459
 H2652 H 0.74282 0.21296 0.58388
 H2653 H 0.71387 0.24291 0.58443
 H2654 H 0.70256 0.23158 0.60514
 H2655 H 0.69633 0.19696 0.58285
 H2656 H 0.70762 0.20828 0.56215
 C2657 C 0.70984 0.71082 0.09798
 C2658 C 0.69977 0.71932 0.08911
 C2659 C 0.70585 0.72541 0.07795
 C2660 C 0.72141 0.72242 0.07676
 C2661 C 0.72253 0.70656 0.07676
 C2662 C 0.71646 0.70046 0.08792
 C2663 C 0.72151 0.72093 0.10181
 C2664 C 0.72759 0.72703 0.09065
 C2665 C 0.70331 0.70425 0.10999
 C2666 C 0.69799 0.69883 0.11988
 C2667 C 0.72785 0.72887 0.06464
 C2668 C 0.73275 0.73377 0.05429
 H2669 H 0.68882 0.72040 0.09136
 H2670 H 0.70011 0.73173 0.07065
 H2671 H 0.72762 0.70063 0.06868
 H2672 H 0.71634 0.68931 0.08940
 H2673 H 0.72472 0.72309 0.11236
 H2674 H 0.73601 0.73442 0.09163
 C2675 C 0.53931 0.71170 0.15070
 C2676 C 0.54115 0.72750 0.15104
 C2677 C 0.53496 0.73369 0.16210
 C2678 C 0.52754 0.72347 0.17173
 C2679 C 0.53862 0.71280 0.17575
 C2680 C 0.54480 0.70662 0.16471
 C2681 C 0.52361 0.70935 0.15133
 C2682 C 0.51742 0.71554 0.16238
 C2683 C 0.54598 0.70502 0.13883
 C2684 C 0.55144 0.69947 0.12909
 C2685 C 0.52102 0.72997 0.18378
 C2686 C 0.51618 0.73478 0.19422
 H2687 H 0.54685 0.73330 0.14330
 H2688 H 0.53534 0.74479 0.16383
 H2689 H 0.54137 0.71032 0.18636
 H2690 H 0.55284 0.69885 0.16585
 H2691 H 0.51787 0.70333 0.14377
 H2692 H 0.50638 0.71483 0.16430
 C2693 C 0.03914 0.71100 0.65096
 C2694 C 0.03493 0.72609 0.64820
 C2695 C 0.02875 0.73237 0.65923
 C2696 C 0.02739 0.72293 0.67192
 C2697 C 0.04215 0.71787 0.67491
 C2698 C 0.04832 0.71160 0.66390
 C2699 C 0.02580 0.70379 0.65570
 C2700 C 0.01963 0.71006 0.66672
 C2701 C 0.04581 0.70425 0.63912
 C2702 C 0.05134 0.69872 0.62940
 C2703 C 0.02088 0.72953 0.68394
 C2704 C 0.01604 0.73441 0.69435
 H2705 H 0.03667 0.73138 0.63845
 H2706 H 0.02519 0.74302 0.65893
 H2707 H 0.04731 0.71906 0.68483
 H2708 H 0.05875 0.70744 0.66439
 H2709 H 0.02161 0.69455 0.65086
 H2710 H 0.01014 0.70619 0.67131
 C2711 C 0.53862 0.65108 0.21050
 C2712 C 0.54033 0.65139 0.22630
 C2713 C 0.53414 0.66248 0.23245
 C2714 C 0.52685 0.67217 0.22220
 C2715 C 0.51675 0.66289 0.21417
 C2716 C 0.52294 0.65180 0.20802
 C2717 C 0.54423 0.66507 0.20550
 C2718 C 0.53805 0.67616 0.21164
 C2719 C 0.54530 0.63916 0.20390
 C2720 C 0.55082 0.62936 0.19851
 C2721 C 0.52036 0.68425 0.22869
 C2722 C 0.51557 0.69468 0.23356
 H2723 H 0.54595 0.64360 0.23213
 H2724 H 0.53444 0.66418 0.24355
 H2725 H 0.50573 0.66487 0.21336
 H2726 H 0.51721 0.64428 0.20192
 H2727 H 0.55233 0.66618 0.19781
 H2728 H 0.54087 0.68677 0.20919
 C2729 C 0.03886 0.65099 0.71090
 C2730 C 0.03603 0.64890 0.72640
 C2731 C 0.02977 0.65995 0.73255
 C2732 C 0.02695 0.67199 0.72259
 C2733 C 0.01848 0.66566 0.71072
 C2734 C 0.02474 0.65462 0.70457
 C2735 C 0.04733 0.66439 0.71004
 C2736 C 0.04108 0.67543 0.71618
 C2737 C 0.04561 0.63913 0.70425
 C2738 C 0.05116 0.62941 0.69874
 C2739 C 0.02037 0.68405 0.72904
 C2740 C 0.01554 0.69450 0.73385
 H2741 H 0.03874 0.63957 0.73205
 H2742 H 0.02710 0.66010 0.74345
 H2743 H 0.00847 0.66953 0.70741
 H2744 H 0.02010 0.64902 0.69600
 H2745 H 0.05736 0.66516 0.70504
 H2746 H 0.04576 0.68566 0.71643
 C2747 C 0.03915 0.09836 0.03973
 C2748 C 0.03156 0.08878 0.04986
 C2749 C 0.02532 0.07777 0.04361
 C2750 C 0.02730 0.07742 0.02785
 C2751 C 0.04303 0.07790 0.02570
 C2752 C 0.04926 0.08891 0.03195
 C2753 C 0.02822 0.10248 0.02895
 C2754 C 0.02198 0.09146 0.02270
 C2755 C 0.04587 0.11023 0.04641
 C2756 C 0.05139 0.12002 0.05182
 C2757 C 0.02074 0.06543 0.02124
 C2758 C 0.01590 0.05505 0.01630
 H2759 H 0.03117 0.09045 0.06097
 H2760 H 0.01959 0.07000 0.04937
 H2761 H 0.04879 0.07022 0.01985
 H2762 H 0.06034 0.09066 0.03146
 H2763 H 0.02560 0.11313 0.02646
 H2764 H 0.01403 0.09265 0.01486
 C2765 C 0.03954 0.59816 0.54002
 C2766 C 0.03110 0.58920 0.55006
 C2767 C 0.02502 0.57804 0.54393
 C2768 C 0.02796 0.57692 0.52835
 C2769 C 0.04380 0.57698 0.52718
 C2770 C 0.04989 0.58814 0.53331
 C2771 C 0.02940 0.60200 0.52839
 C2772 C 0.02331 0.59083 0.52226
 C2773 C 0.04611 0.61017 0.54660
 C2774 C 0.05156 0.62004 0.55197
 C2775 C 0.02152 0.56479 0.52185
 C2776 C 0.01664 0.55441 0.51690
 H2777 H 0.03004 0.59141 0.56102
 H2778 H 0.01874 0.57068 0.54965
 H2779 H 0.04973 0.56894 0.52203
 H2780 H 0.06102 0.58966 0.53341
 H2781 H 0.02720 0.61256 0.52526
 H2782 H 0.01589 0.59182 0.51388
 C2783 C 0.53921 0.09923 0.53893
 C2784 C 0.54114 0.09867 0.52317
 C2785 C 0.53482 0.08761 0.51708
 C2786 C 0.52719 0.07821 0.52735
 C2787 C 0.51717 0.08779 0.53508
 C2788 C 0.52348 0.09885 0.54117
 C2789 C 0.54446 0.08522 0.54422
 C2790 C 0.53815 0.07416 0.53814
 C2791 C 0.54600 0.11112 0.54552
 C2792 C 0.55154 0.12087 0.55100
 C2793 C 0.52055 0.06615 0.52094
 C2794 C 0.51566 0.05571 0.51615
 H2795 H 0.54698 0.10628 0.51732
 H2796 H 0.53524 0.08573 0.50601
 H2797 H 0.50609 0.08603 0.53573
 H2798 H 0.51782 0.10657 0.54705
 H2799 H 0.55244 0.08406 0.55206
 H2800 H 0.54074 0.06354 0.54077
 C2801 C 0.53876 0.59920 0.03893
 C2802 C 0.53638 0.58697 0.04877
 C2803 C 0.53010 0.57593 0.04264
 C2804 C 0.52681 0.57818 0.02725
 C2805 C 0.54072 0.58209 0.02064
 C2806 C 0.54699 0.59314 0.02678
 C2807 C 0.52442 0.60253 0.03293
 C2808 C 0.51813 0.59147 0.02679
 C2809 C 0.54554 0.61107 0.04556
 C2810 C 0.55111 0.62080 0.05104
 C2811 C 0.52023 0.56613 0.02078
 C2812 C 0.51538 0.55569 0.01595
 H2813 H 0.53939 0.58696 0.05960
 H2814 H 0.52774 0.56646 0.04822
 H2815 H 0.54525 0.57663 0.01193
 H2816 H 0.55691 0.59713 0.02334
 H2817 H 0.51962 0.61268 0.03348
 H2818 H 0.50796 0.59214 0.02206
 C2819 C 0.70978 0.15240 0.54019
 C2820 C 0.70741 0.15311 0.52449
 C2821 C 0.71369 0.16414 0.51834
 C2822 C 0.72173 0.17336 0.52849
 C2823 C 0.73185 0.16358 0.53585
 C2824 C 0.72556 0.15256 0.54200
 C2825 C 0.70486 0.16644 0.54576
 C2826 C 0.71114 0.17746 0.53961
 C2827 C 0.70306 0.14051 0.54680
 C2828 C 0.69765 0.13066 0.55221
 C2829 C 0.72839 0.18534 0.52199
 C2830 C 0.73345 0.19560 0.51705
 H2831 H 0.70130 0.14563 0.51872
 H2832 H 0.71298 0.16611 0.50730
 H2833 H 0.74296 0.16518 0.53620
 H2834 H 0.73129 0.14471 0.54763
 H2835 H 0.69712 0.16763 0.55381
 H2836 H 0.70877 0.18810 0.54239
 C2837 C 0.71004 0.65202 0.03947
 C2838 C 0.71802 0.66126 0.04965
 C2839 C 0.72412 0.67242 0.04356
 C2840 C 0.72165 0.67325 0.02788
 C2841 C 0.70585 0.67292 0.02620
 C2842 C 0.69975 0.66176 0.03228
 C2843 C 0.72059 0.64816 0.02824
 C2844 C 0.72670 0.65932 0.02215
 C2845 C 0.70346 0.64001 0.04604
 C2846 C 0.69809 0.63014 0.05146
 C2847 C 0.72811 0.68538 0.02144
 C2848 C 0.73302 0.69575 0.01656
 H2849 H 0.71878 0.65924 0.06067
 H2850 H 0.73011 0.67996 0.04938
 H2851 H 0.69997 0.68079 0.02074
 H2852 H 0.68865 0.66007 0.03204
 H2853 H 0.72306 0.63758 0.02534
 H2854 H 0.73439 0.65832 0.01403
 C2855 C 0.21109 0.59941 0.71105
 C2856 C 0.21872 0.58991 0.70085
 C2857 C 0.22492 0.57885 0.70701
 C2858 C 0.22289 0.57836 0.72276
 C2859 C 0.20715 0.57882 0.72486
 C2860 C 0.20095 0.58988 0.71870
 C2861 C 0.22199 0.60344 0.72191
 C2862 C 0.22819 0.59236 0.72807
 C2863 C 0.20441 0.61130 0.70439
 C2864 C 0.19892 0.62105 0.69887
 C2865 C 0.22942 0.56629 0.72924
 C2866 C 0.23426 0.55585 0.73406
 H2867 H 0.21915 0.59169 0.68977
 H2868 H 0.23066 0.57114 0.70118
 H2869 H 0.20137 0.57109 0.73062
 H2870 H 0.18986 0.59164 0.71919
 H2871 H 0.22460 0.61406 0.72452
 H2872 H 0.23611 0.59348 0.73596
 C2873 C 0.21123 0.09880 0.21037
 C2874 C 0.21861 0.08911 0.20018
 C2875 C 0.22479 0.07805 0.20637
 C2876 C 0.22298 0.07777 0.22215
 C2877 C 0.20728 0.07841 0.22447
 C2878 C 0.20111 0.08947 0.21828
 C2879 C 0.22232 0.10285 0.22103
 C2880 C 0.22851 0.09178 0.22723
 C2881 C 0.20454 0.11068 0.20370
 C2882 C 0.19899 0.12042 0.19824
 C2883 C 0.22948 0.06571 0.22868
 C2884 C 0.23430 0.05528 0.23352
 H2885 H 0.21890 0.09075 0.18907
 H2886 H 0.23038 0.07023 0.20055
 H2887 H 0.20151 0.07082 0.23041
 H2888 H 0.19005 0.09135 0.21892
 H2889 H 0.22507 0.11347 0.22349
 H2890 H 0.23655 0.09291 0.23499
 C2891 C 0.71112 1.09894 0.71032
 C2892 C 0.71876 1.08944 0.70014
 C2893 C 0.72495 1.07838 0.70631
 C2894 C 0.72290 1.07791 0.72206
 C2895 C 0.70716 1.07837 0.72413
 C2896 C 0.70096 1.08943 0.71796
 C2897 C 0.72200 1.10299 0.72119
 C2898 C 0.72820 1.09192 0.72737
 C2899 C 0.70443 1.11084 0.70367
 C2900 C 0.69890 1.12061 0.69824
 C2901 C 0.72942 1.06585 0.72857
 C2902 C 0.73424 1.05542 0.73343
 H2903 H 0.71920 1.09120 0.68905
 H2904 H 0.73071 1.07067 0.70051
 H2905 H 0.70137 1.07065 0.72989
 H2906 H 0.68988 1.09118 0.71843
 H2907 H 0.72459 1.11361 0.72381
 H2908 H 0.73610 1.09304 0.73527
 C2909 C 0.71145 0.59938 0.21085
 C2910 C 0.70257 0.59254 0.22210
 C2911 C 0.70879 0.58148 0.22825
 C2912 C 0.72328 0.57835 0.22255
 C2913 C 0.73140 0.59191 0.22420
 C2914 C 0.72517 0.60298 0.21804
 C2915 C 0.71501 0.58766 0.20074
 C2916 C 0.72123 0.57660 0.20689
 C2917 C 0.70472 0.61125 0.20420
 C2918 C 0.69917 0.62097 0.19870
 C2919 C 0.72981 0.56628 0.22902
 C2920 C 0.73463 0.55583 0.23382
 H2921 H 0.69229 0.59604 0.22494
 H2922 H 0.70383 0.57551 0.23637
 H2923 H 0.74115 0.59274 0.22970
 H2924 H 0.72960 0.61331 0.21827
 H2925 H 0.71280 0.58798 0.18972
 H2926 H 0.72435 0.56746 0.20113
 C2927 C 0.53835 0.15055 0.71033
 C2928 C 0.52849 0.14664 0.72217
 C2929 C 0.52236 0.15777 0.72833
 C2930 C 0.52669 0.17170 0.72206
 C2931 C 0.52346 0.17041 0.70654
 C2932 C 0.52958 0.15929 0.70039
 C2933 C 0.54867 0.16077 0.71678
 C2934 C 0.54255 0.17188 0.72293
 C2935 C 0.54498 0.13858 0.70370
 C2936 C 0.55048 0.12877 0.69827
 C2937 C 0.52023 0.18382 0.72856
 C2938 C 0.51544 0.19427 0.73343
 H2939 H 0.52651 0.13607 0.72542
 H2940 H 0.51512 0.15673 0.73686
 H2941 H 0.51698 0.17764 0.70088
 H2942 H 0.52835 0.15700 0.68945
 H2943 H 0.55982 0.15943 0.71648
 H2944 H 0.54847 0.18006 0.72790
 C2945 C 1.03854 0.15049 0.21102
 C2946 C 1.03177 0.16045 0.20067
 C2947 C 1.02554 0.17153 0.20677
 C2948 C 1.02669 0.17156 0.22262
 C2949 C 1.04227 0.17059 0.22561
 C2950 C 1.04849 0.15951 0.21951
 C2951 C 1.02694 0.14650 0.22112
 C2952 C 1.02071 0.15759 0.22722
 C2953 C 1.04527 0.13859 0.20443
 C2954 C 1.05081 0.12883 0.19898
 C2955 C 1.02015 0.18365 0.22905
 C2956 C 1.01533 0.19411 0.23382
 H2957 H 1.03190 0.15897 0.18954
 H2958 H 1.02033 0.17954 0.20086
 H2959 H 1.04792 0.17799 0.23192
 H2960 H 1.05948 0.15742 0.22059
 H2961 H 1.02390 0.13589 0.22328
 H2962 H 1.01232 0.15651 0.23461
 C2963 C 0.20987 0.65262 0.54015
 C2964 C 0.21817 0.66171 0.55021
 C2965 C 0.22438 0.67276 0.54404
 C2966 C 0.22169 0.67364 0.52840
 C2967 C 0.20587 0.67360 0.52695
 C2968 C 0.19966 0.66255 0.53313
 C2969 C 0.22019 0.64858 0.52876
 C2970 C 0.22640 0.65964 0.52258
 C2971 C 0.20320 0.64071 0.54678
 C2972 C 0.19779 0.63084 0.55217
 C2973 C 0.22827 0.68565 0.52186
 C2974 C 0.23326 0.69594 0.51688
 H2975 H 0.21906 0.65967 0.56123
 H2976 H 0.23059 0.68019 0.54976
 H2977 H 0.20005 0.68157 0.52158
 H2978 H 0.18852 0.66106 0.53305
 H2979 H 0.22241 0.63796 0.52581
 H2980 H 0.23394 0.65850 0.51434
 C2981 C 0.21023 0.15199 1.04015
 C2982 C 0.21869 0.16091 1.05023
 C2983 C 0.22490 0.17200 1.04412
 C2984 C 0.22205 0.17307 1.02852
 C2985 C 0.20622 0.17314 1.02724
 C2986 C 0.20000 0.16205 1.03335
 C2987 C 0.22040 0.14801 1.02861
 C2988 C 0.22662 0.15910 1.02249
 C2989 C 0.20358 0.14003 1.04672
 C2990 C 0.19818 0.13012 1.05204
 C2991 C 0.22864 0.18510 1.02203
 C2992 C 0.23363 0.19539 1.01706
 H2993 H 0.21966 0.15875 1.06121
 H2994 H 0.23119 0.17934 1.04986
 H2995 H 0.20039 0.18121 1.02203
 H2996 H 0.18886 0.16063 1.03338
 H2997 H 0.22253 0.13741 1.02551
 H2998 H 0.23406 0.15801 1.01416
 C2999 C 0.21010 0.71072 0.59795
 C3000 C 0.22152 0.72110 0.60182
 C3001 C 0.22758 0.72725 0.59067
 C3002 C 0.22162 0.72243 0.57676
 C3003 C 0.20600 0.72510 0.57779
 C3004 C 0.19994 0.71895 0.58893
 C3005 C 0.21702 0.70044 0.58802
 C3006 C 0.22308 0.70659 0.57688
 C3007 C 0.20357 0.70411 0.60995
 C3008 C 0.19821 0.69869 0.61981
 C3009 C 0.22803 0.72894 0.56466
 C3010 C 0.23292 0.73389 0.55432
 H3011 H 0.22458 0.72340 0.61239
 H3012 H 0.23583 0.73482 0.59168
 H3013 H 0.20019 0.73125 0.57039
 H3014 H 0.18895 0.71983 0.59107
 H3015 H 0.21712 0.68930 0.58957
 H3016 H 0.22836 0.70072 0.56889
 C3017 C 0.21044 0.21006 1.09807
 C3018 C 0.20019 0.21787 1.08879
 C3019 C 0.20623 0.22404 1.07766
 C3020 C 0.22194 0.22181 1.07689
 C3021 C 0.22385 0.20602 1.07725
 C3022 C 0.21781 0.19984 1.08839
 C3023 C 0.22150 0.22081 1.10196
 C3024 C 0.22755 0.22699 1.09082
 C3025 C 0.20390 0.20343 1.11006
 C3026 C 0.19848 0.19805 1.11991
 C3027 C 0.22833 0.22835 1.06479
 C3028 C 0.23319 0.23331 1.05444
 H3029 H 0.18915 0.21846 1.09076
 H3030 H 0.20037 0.22993 1.07010
 H3031 H 0.22943 0.20020 1.06943
 H3032 H 0.21821 0.18874 1.09010
 H3033 H 0.22432 0.22335 1.11254
 H3034 H 0.23556 0.23481 1.09185
 C3035 C 0.71082 0.53911 0.15102
 C3036 C 0.72149 0.52806 0.14696
 C3037 C 0.72769 0.52183 0.15800
 C3038 C 0.72260 0.52728 0.17201
 C3039 C 0.70682 0.52543 0.17168
 C3040 C 0.70063 0.53165 0.16064
 C3041 C 0.71870 0.54923 0.16041
 C3042 C 0.72489 0.54301 0.17145
 C3043 C 0.70415 0.54583 0.13916
 C3044 C 0.69865 0.55135 0.12942
 C3045 C 0.72913 0.52074 0.18404
 C3046 C 0.73400 0.51591 0.19445
 H3047 H 0.72396 0.52535 0.13634
 H3048 H 0.73546 0.51380 0.15685
 H3049 H 0.70101 0.51978 0.17945
 H3050 H 0.68953 0.53133 0.15897
 H3051 H 0.71932 0.56031 0.15860
 H3052 H 0.73081 0.54877 0.17908
 C3053 C 0.71024 1.03926 0.65125
 C3054 C 0.72116 1.02849 0.64705
 C3055 C 0.72734 1.02212 0.65801
 C3056 C 0.72201 1.02715 0.67208
 C3057 C 0.70627 1.02503 0.67153
 C3058 C 0.70008 1.03140 0.66058
 C3059 C 0.71785 1.04929 0.66096
 C3060 C 0.72403 1.04293 0.67191
 C3061 C 0.70360 1.04610 0.63945
 C3062 C 0.69818 1.05166 0.62969
 C3063 C 0.72854 1.02045 0.68401
 C3064 C 0.73345 1.01551 0.69435
 H3065 H 0.72379 1.02608 0.63640
 H3066 H 0.73527 1.01426 0.65676
 H3067 H 0.70047 1.01912 0.67912
 H3068 H 0.68900 1.03094 0.65879
 H3069 H 0.71827 1.06042 0.65941
 H3070 H 0.72975 1.04861 0.67975
 C3071 C 0.53927 0.21139 0.65093
 C3072 C 0.52942 0.22321 0.64690
 C3073 C 0.52318 0.22940 0.65794
 C3074 C 0.52741 0.22315 0.67191
 C3075 C 0.54327 0.22407 0.67224
 C3076 C 0.54951 0.21789 0.66121
 C3077 C 0.53046 0.20144 0.65962
 C3078 C 0.52423 0.20762 0.67065
 C3079 C 0.54599 0.20471 0.63909
 C3080 C 0.55152 0.19919 0.62938
 C3081 C 0.52085 0.22964 0.68394
 C3082 C 0.51598 0.23442 0.69437
 H3083 H 0.52752 0.22642 0.63631
 H3084 H 0.51594 0.23791 0.65682
 H3085 H 0.54911 0.22908 0.68044
 H3086 H 0.56066 0.21760 0.65997
 H3087 H 0.52927 0.19049 0.65735
 H3088 H 0.51770 0.20196 0.67782
 C3089 C 1.03935 0.21045 0.15122
 C3090 C 1.03743 0.20085 0.16372
 C3091 C 1.03120 0.20711 0.17470
 C3092 C 1.02750 0.22237 0.17212
 C3093 C 1.01858 0.22227 0.15899
 C3094 C 1.02481 0.21600 0.14800
 C3095 C 1.04739 0.22297 0.15683
 C3096 C 1.04116 0.22923 0.16782
 C3097 C 1.04606 0.20375 0.13938
 C3098 C 1.05157 0.19831 0.12960
 C3099 C 1.02094 0.22898 0.18410
 C3100 C 1.01604 0.23389 0.19446
 H3101 H 1.04070 0.19010 0.16394
 H3102 H 1.02914 0.20171 0.18434
 H3103 H 1.00827 0.22670 0.15839
 H3104 H 1.01983 0.21505 0.13796
 H3105 H 1.05716 0.22654 0.15260
 H3106 H 1.04559 0.23819 0.17299
 C3107 C 0.59899 0.21101 0.71110
 C3108 C 0.58955 0.20074 0.71870
 C3109 C 0.57850 0.20684 0.72495
 C3110 C 0.57797 0.22262 0.72301
 C3111 C 0.57839 0.22481 0.70728
 C3112 C 0.58944 0.21871 0.70102
 C3113 C 0.60302 0.22183 0.72206
 C3114 C 0.59196 0.22794 0.72832
 C3115 C 0.61086 0.20441 0.70435
 C3116 C 0.62057 0.19893 0.69879
 C3117 C 0.56591 0.22904 0.72959
 C3118 C 0.55547 0.23381 0.73443
 H3119 H 0.59135 0.18965 0.71907
 H3120 H 0.57083 0.20097 0.73069
 H3121 H 0.57066 0.23060 0.70154
 H3122 H 0.59117 0.21927 0.68994
 H3123 H 0.61363 0.22446 0.72465
 H3124 H 0.59308 0.23580 0.73628
 C3125 C 1.09893 0.21071 0.21097
 C3126 C 1.10278 0.22341 0.21975
 C3127 C 1.09172 0.22953 0.22601
 C3128 C 1.07791 0.22235 0.22287
 C3129 C 1.08004 0.20718 0.22711
 C3130 C 1.09110 0.20106 0.22085
 C3131 C 1.08795 0.21593 0.20076
 C3132 C 1.07690 0.22205 0.20701
 C3133 C 1.11081 0.20410 0.20422
 C3134 C 1.12055 0.19864 0.19867
 C3135 C 1.06586 0.22880 0.22944
 C3136 C 1.05544 0.23362 0.23429
 H3137 H 1.11327 0.22725 0.22094
 H3138 H 1.09273 0.23862 0.23256
 H3139 H 1.07342 0.20170 0.23434
 H3140 H 1.09394 0.19035 0.22273
 H3141 H 1.08875 0.21487 0.18960
 H3142 H 1.06824 0.22622 0.20119
 C3143 C 0.15213 0.71017 0.53978
 C3144 C 0.16193 0.71725 0.55010
 C3145 C 0.17307 0.72337 0.54401
 C3146 C 0.17332 0.72182 0.52820
 C3147 C 0.15941 0.72764 0.52324
 C3148 C 0.14826 0.72151 0.52933
 C3149 C 0.16128 0.70003 0.53167
 C3150 C 0.17243 0.70616 0.52559
 C3151 C 0.14013 0.70358 0.54634
 C3152 C 0.13027 0.69818 0.55173
 C3153 C 0.18543 0.72830 0.52176
 C3154 C 0.19577 0.73325 0.51686
 H3155 H 0.16029 0.71740 0.56121
 H3156 H 0.18097 0.72876 0.54992
 H3157 H 0.15840 0.73584 0.51562
 H3158 H 0.13769 0.72447 0.52693
 H3159 H 0.15922 0.68901 0.53081
 H3160 H 0.17990 0.70038 0.51951
 C3161 C 0.15262 0.20933 1.04007
 C3162 C 0.16279 0.21589 1.05037
 C3163 C 0.17389 0.22200 1.04421
 C3164 C 0.17374 0.22097 1.02835
 C3165 C 0.15983 0.22719 1.02393
 C3166 C 0.14872 0.22107 1.03009
 C3167 C 0.16139 0.19929 1.03142
 C3168 C 0.17250 0.20541 1.02526
 C3169 C 0.14065 0.20277 1.04669
 C3170 C 0.13074 0.19745 1.05207
 C3171 C 0.18580 0.22746 1.02185
 C3172 C 0.19610 0.23245 1.01692
 H3173 H 0.16142 0.21571 1.06152
 H3174 H 0.18203 0.22707 1.05009
 H3175 H 0.15879 0.23565 1.01660
 H3176 H 0.13815 0.22429 1.02804
 H3177 H 0.15911 0.18834 1.03026
 H3178 H 0.17972 0.19971 1.01883
 C3179 C 0.65086 0.53895 0.21134
 C3180 C 0.66260 0.53542 0.20127
 C3181 C 0.67369 0.52931 0.20746
 C3182 C 0.67195 0.52733 0.22314
 C3183 C 0.65846 0.51911 0.22477
 C3184 C 0.64736 0.52523 0.21856
 C3185 C 0.65762 0.54795 0.22257
 C3186 C 0.66871 0.54184 0.22877
 C3187 C 0.63896 0.54557 0.20463
 C3188 C 0.62923 0.55105 0.19910
 C3189 C 0.68405 0.52091 0.22964
 C3190 C 0.69453 0.51615 0.23444
 H3191 H 0.66227 0.53756 0.19024
 H3192 H 0.68284 0.52622 0.20174
 H3193 H 0.65769 0.50936 0.23031
 H3194 H 0.63708 0.52071 0.21878
 H3195 H 0.65404 0.55823 0.22537
 H3196 H 0.67462 0.54688 0.23689
 C3197 C 0.65051 1.03912 0.71105
 C3198 C 0.64655 1.02840 0.72210
 C3199 C 0.65765 1.02224 0.72826
 C3200 C 0.67162 1.02740 0.72277
 C3201 C 0.67123 1.04320 0.72464
 C3202 C 0.66014 1.04935 0.71848
 C3203 C 0.65987 1.03128 0.70089
 C3204 C 0.67096 1.02512 0.70705
 C3205 C 0.63858 1.04577 0.70439
 C3206 C 0.62879 1.05124 0.69891
 C3207 C 0.68372 1.02090 0.72927
 C3208 C 0.69415 1.01606 0.73409
 H3209 H 0.63596 1.02588 0.72484
 H3210 H 0.65657 1.01444 0.73628
 H3211 H 0.67903 1.04905 0.73025
 H3212 H 0.65844 1.06046 0.71882
 H3213 H 0.65799 1.03066 0.68983
 H3214 H 0.67858 1.01924 0.70125
 C3215 C 0.84810 0.46028 0.29054
 C3216 C 0.84737 0.45794 0.27484
 C3217 C 0.83621 0.46402 0.26872
 C3218 C 0.82688 0.47186 0.27890
 C3219 C 0.83648 0.48216 0.28628
 C3220 C 0.84764 0.47607 0.29239
 C3221 C 0.83418 0.45507 0.29611
 C3222 C 0.82303 0.46115 0.29000
 C3223 C 0.86012 0.45372 0.29709
 C3224 C 0.87002 0.44832 0.30243
 C3225 C 0.81477 0.47830 0.27240
 C3226 C 0.80446 0.48322 0.26739
 H3227 H 0.85494 0.45200 0.26904
 H3228 H 0.83422 0.46330 0.25769
 H3229 H 0.83465 0.49324 0.28670
 H3230 H 0.85538 0.48195 0.29805
 H3231 H 0.83316 0.44729 0.30416
 H3232 H 0.81246 0.45858 0.29283
 C3233 C 0.84748 0.95990 0.79061
 C3234 C 0.84131 0.95132 0.77873
 C3235 C 0.83020 0.95741 0.77254
 C3236 C 0.82635 0.97150 0.77883
 C3237 C 0.83961 0.98019 0.77803
 C3238 C 0.85072 0.97409 0.78422
 C3239 C 0.83535 0.96252 0.80051
 C3240 C 0.82424 0.96862 0.79432
 C3241 C 0.85945 0.95333 0.79726
 C3242 C 0.86931 0.94793 0.80268
 C3243 C 0.81429 0.97795 0.77226
 C3244 C 0.80399 0.98288 0.76723
 H3245 H 0.84528 0.94131 0.77549
 H3246 H 0.82466 0.95262 0.76401
 H3247 H 0.84022 0.99025 0.77306
 H3248 H 0.86086 0.97893 0.78455
 H3249 H 0.83545 0.95980 0.81141
 H3250 H 0.81483 0.97111 0.79992
 C3251 C 0.40195 0.29007 0.78991
 C3252 C 0.41197 0.30037 0.78316
 C3253 C 0.42313 0.29422 0.77713
 C3254 C 0.42316 0.27837 0.77843
 C3255 C 0.40928 0.27367 0.77232
 C3256 C 0.39812 0.27982 0.77836
 C3257 C 0.41086 0.28170 0.80006
 C3258 C 0.42201 0.27556 0.79402
 C3259 C 0.38994 0.29667 0.79642
 C3260 C 0.38006 0.30204 0.80180
 C3261 C 0.43527 0.27185 0.77204
 C3262 C 0.44559 0.26688 0.76714
 H3263 H 0.41047 0.31151 0.78316
 H3264 H 0.43118 0.30011 0.77196
 H3265 H 0.40829 0.26619 0.76398
 H3266 H 0.38756 0.27761 0.77519
 H3267 H 0.40864 0.28074 0.81103
 H3268 H 0.42935 0.26933 0.79983
 C3269 C 0.90205 0.28965 0.29028
 C3270 C 0.91206 0.28287 0.30057
 C3271 C 0.92317 0.27676 0.29443
 C3272 C 0.92319 0.27803 0.27859
 C3273 C 0.92210 0.29364 0.27575
 C3274 C 0.91098 0.29974 0.28188
 C3275 C 0.89815 0.27809 0.28007
 C3276 C 0.90927 0.27197 0.27393
 C3277 C 0.89009 0.29625 0.29687
 C3278 C 0.88025 0.30171 0.30224
 C3279 C 0.93526 0.27158 0.27209
 C3280 C 0.94558 0.26667 0.26713
 H3281 H 0.91057 0.28290 0.31171
 H3282 H 0.93121 0.27156 0.30031
 H3283 H 0.92944 0.29939 0.26949
 H3284 H 0.90880 0.31073 0.28088
 H3285 H 0.88758 0.27498 0.27786
 H3286 H 0.90824 0.26362 0.26647
 C3287 C 0.34903 0.78947 0.46064
 C3288 C 0.33951 0.79954 0.46840
 C3289 C 0.32851 0.79325 0.47456
 C3290 C 0.32810 0.77750 0.47237
 C3291 C 0.34213 0.77223 0.47759
 C3292 C 0.35314 0.77853 0.47142
 C3293 C 0.33953 0.78183 0.45044
 C3294 C 0.32853 0.77554 0.45661
 C3295 C 0.36088 0.79625 0.45399
 C3296 C 0.37060 0.80182 0.44851
 C3297 C 0.31609 0.77088 0.47888
 C3298 C 0.30569 0.76600 0.48373
 H3299 H 0.34122 0.81064 0.46895
 H3300 H 0.32080 0.79897 0.48040
 H3301 H 0.34332 0.76428 0.48543
 H3302 H 0.36378 0.77596 0.47397
 H3303 H 0.34125 0.78145 0.43935
 H3304 H 0.32083 0.76977 0.45079
 C3305 C 0.34934 0.28923 0.96119
 C3306 C 0.34167 0.27915 0.95159
 C3307 C 0.33063 0.27285 0.95767
 C3308 C 0.32834 0.27724 0.97277
 C3309 C 0.32719 0.29310 0.97230
 C3310 C 0.33823 0.29940 0.96621
 C3311 C 0.35317 0.28062 0.97399
 C3312 C 0.34212 0.27432 0.98008
 C3313 C 0.36121 0.29602 0.95459
 C3314 C 0.37093 0.30157 0.94909
 C3315 C 0.31629 0.27060 0.97918
 C3316 C 0.30588 0.26569 0.98397
 H3317 H 0.34462 0.27718 0.94093
 H3318 H 0.32412 0.26548 0.95221
 H3319 H 0.31844 0.29888 0.97634
 H3320 H 0.33894 0.31056 0.96504
 H3321 H 0.36364 0.27958 0.97793
 H3322 H 0.34311 0.26788 0.98923
 C3323 C 0.79011 0.46008 0.34777
 C3324 C 0.79263 0.47577 0.34703
 C3325 C 0.78646 0.48196 0.33597
 C3326 C 0.77837 0.47185 0.32674
 C3327 C 0.76814 0.46461 0.33648
 C3328 C 0.77432 0.45842 0.34754
 C3329 C 0.79505 0.45443 0.33377
 C3330 C 0.78887 0.46062 0.32272
 C3331 C 0.79674 0.45344 0.35968
 C3332 C 0.80213 0.44803 0.36953
 C3333 C 0.77183 0.47840 0.31473
 C3334 C 0.76688 0.48337 0.30444
 H3335 H 0.79876 0.48150 0.35452
 H3336 H 0.78728 0.49299 0.33398
 H3337 H 0.75703 0.46435 0.33483
 H3338 H 0.76850 0.45285 0.35537
 H3339 H 0.80271 0.44629 0.33264
 H3340 H 0.79125 0.45777 0.31211
 C3341 C 0.78999 0.96014 0.84765
 C3342 C 0.77427 0.95791 0.84715
 C3343 C 0.76804 0.96404 0.83608
 C3344 C 0.77814 0.97180 0.82662
 C3345 C 0.78911 0.96101 0.82260
 C3346 C 0.79534 0.95488 0.83366
 C3347 C 0.79195 0.97591 0.84718
 C3348 C 0.78572 0.98205 0.83611
 C3349 C 0.79667 0.95354 0.85956
 C3350 C 0.80212 0.94812 0.86938
 C3351 C 0.77154 0.97828 0.81461
 C3352 C 0.76654 0.98320 0.80431
 H3353 H 0.76854 0.95201 0.85480
 H3354 H 0.75698 0.96340 0.83425
 H3355 H 0.79177 0.95842 0.81199
 H3356 H 0.80332 0.94705 0.83252
 H3357 H 0.79776 0.98175 0.85484
 H3358 H 0.78619 0.99313 0.83429
 C3359 C 0.28916 0.78948 0.40106
 C3360 C 0.28158 0.79972 0.41055
 C3361 C 0.27528 0.79358 0.42155
 C3362 C 0.27717 0.77779 0.42198
 C3363 C 0.29289 0.77555 0.42158
 C3364 C 0.29919 0.78169 0.41058
 C3365 C 0.27818 0.77873 0.39694
 C3366 C 0.27187 0.77258 0.40795
 C3367 C 0.29595 0.79612 0.38924
 C3368 C 0.30154 0.80160 0.37954
 C3369 C 0.27055 0.77132 0.43398
 C3370 C 0.26567 0.76651 0.44439
 H3371 H 0.28126 0.81083 0.40883
 H3372 H 0.26956 0.79943 0.42925
 H3373 H 0.29859 0.76970 0.42930
 H3374 H 0.31028 0.78111 0.40888
 H3375 H 0.27559 0.77618 0.38630
 H3376 H 0.26388 0.76477 0.40677
 C3377 C 0.28906 0.28923 0.90113
 C3378 C 0.29850 0.27908 0.90888
 C3379 C 0.29228 0.27285 0.91987
 C3380 C 0.27720 0.27737 0.92204
 C3381 C 0.26997 0.27448 0.90820
 C3382 C 0.27621 0.28072 0.89720
 C3383 C 0.28404 0.29946 0.91220
 C3384 C 0.27781 0.29323 0.92319
 C3385 C 0.29580 0.29596 0.88933
 C3386 C 0.30136 0.30151 0.87965
 C3387 C 0.27067 0.27082 0.93405
 C3388 C 0.26584 0.26598 0.94447
 H3389 H 0.30916 0.27701 0.90602
 H3390 H 0.29760 0.26544 0.92643
 H3391 H 0.26077 0.26811 0.90714
 H3392 H 0.27235 0.27970 0.88670
 H3393 H 0.28531 0.31061 0.91150
 H3394 H 0.27374 0.29905 0.93190
 C3395 C 0.46023 0.29007 0.84798
 C3396 C 0.47022 0.27834 0.85192
 C3397 C 0.47630 0.27212 0.84081
 C3398 C 0.47181 0.27824 0.82687
 C3399 C 0.47492 0.29380 0.82799
 C3400 C 0.46884 0.30002 0.83908
 C3401 C 0.44987 0.28345 0.83791
 C3402 C 0.45595 0.27724 0.82682
 C3403 C 0.45368 0.29676 0.85993
 C3404 C 0.44829 0.30222 0.86977
 C3405 C 0.47825 0.27166 0.81481
 C3406 C 0.48315 0.26667 0.80448
 H3407 H 0.47231 0.27520 0.86249
 H3408 H 0.48361 0.26366 0.84187
 H3409 H 0.48131 0.29945 0.82068
 H3410 H 0.47002 0.31099 0.84128
 H3411 H 0.43873 0.28366 0.83935
 H3412 H 0.45002 0.27213 0.81875
 C3413 C 0.96050 0.28969 0.34819
 C3414 C 0.96713 0.30002 0.33812
 C3415 C 0.97319 0.29389 0.32696
 C3416 C 0.97203 0.27802 0.32697
 C3417 C 0.95647 0.27505 0.32817
 C3418 C 0.95041 0.28118 0.33933
 C3419 C 0.97216 0.27957 0.35201
 C3420 C 0.97822 0.27344 0.34085
 C3421 C 0.95397 0.29630 0.36020
 C3422 C 0.94860 0.30173 0.37006
 C3423 C 0.97844 0.27154 0.31484
 C3424 C 0.98331 0.26663 0.30446
 H3425 H 0.96704 0.31116 0.33959
 H3426 H 0.97828 0.29979 0.31887
 H3427 H 0.95071 0.26872 0.32088
 H3428 H 0.93947 0.28009 0.34160
 H3429 H 0.97536 0.27742 0.36256
 H3430 H 0.98661 0.26603 0.34183
 C3431 C 0.45972 0.34778 0.78983
 C3432 C 0.47131 0.35172 0.77970
 C3433 C 0.47745 0.34061 0.77354
 C3434 C 0.47139 0.32666 0.77812
 C3435 C 0.45581 0.32774 0.77519
 C3436 C 0.44968 0.33885 0.78134
 C3437 C 0.46646 0.33774 0.80012
 C3438 C 0.47259 0.32663 0.79396
 C3439 C 0.45311 0.35973 0.79645
 C3440 C 0.44768 0.36955 0.80188
 C3441 C 0.47786 0.31459 0.77160
 C3442 C 0.48277 0.30425 0.76665
 H3443 H 0.47442 0.36231 0.77757
 H3444 H 0.48582 0.34166 0.76613
 H3445 H 0.45009 0.32040 0.76886
 H3446 H 0.43871 0.34102 0.78030
 H3447 H 0.46639 0.33919 0.81126
 H3448 H 0.47777 0.31857 0.79983
 C3449 C 0.95991 0.34779 0.28993
 C3450 C 0.96811 0.33858 0.29994
 C3451 C 0.97415 0.32746 0.29370
 C3452 C 0.97141 0.32664 0.27807
 C3453 C 0.97630 0.34060 0.27229
 C3454 C 0.97025 0.35173 0.27853
 C3455 C 0.94954 0.33801 0.28290
 C3456 C 0.95558 0.32689 0.27667
 C3457 C 0.95340 0.35977 0.29664
 C3458 C 0.94803 0.36962 0.30212
 C3459 C 0.97780 0.31455 0.27148
 C3460 C 0.98268 0.30421 0.26650
 H3461 H 0.96906 0.34058 0.31095
 H3462 H 0.98028 0.31994 0.29938
 H3463 H 0.98384 0.34166 0.26404
 H3464 H 0.97262 0.36232 0.27562
 H3465 H 0.93843 0.33964 0.28285
 H3466 H 0.94964 0.31900 0.27129
 C3467 C 0.28978 0.84924 0.46088
 C3468 C 0.27898 0.85338 0.47178
 C3469 C 0.27274 0.84237 0.47803
 C3470 C 0.27791 0.82831 0.47276
 C3471 C 0.29367 0.82869 0.47477
 C3472 C 0.29990 0.83969 0.46853
 C3473 C 0.28201 0.83974 0.45077
 C3474 C 0.27578 0.82874 0.45701
 C3475 C 0.29651 0.86106 0.45414
 C3476 C 0.30205 0.87076 0.44857
 C3477 C 0.27134 0.81630 0.47932
 C3478 C 0.26643 0.80591 0.48418
 H3479 H 0.27646 0.86403 0.47436
 H3480 H 0.26488 0.84358 0.48596
 H3481 H 0.29944 0.82096 0.48053
 H3482 H 0.31100 0.84138 0.46895
 H3483 H 0.28150 0.84146 0.43968
 H3484 H 0.26993 0.82104 0.45126
 C3485 C 0.28956 0.34887 0.96098
 C3486 C 0.27878 0.35296 0.97191
 C3487 C 0.27258 0.34192 0.97815
 C3488 C 0.27778 0.32788 0.97283
 C3489 C 0.29354 0.32830 0.97481
 C3490 C 0.29973 0.33933 0.96858
 C3491 C 0.28180 0.33937 0.95087
 C3492 C 0.27561 0.32834 0.95710
 C3493 C 0.29625 0.36073 0.95425
 C3494 C 0.30176 0.37046 0.94871
 C3495 C 0.27125 0.31585 0.97939
 C3496 C 0.26639 0.30543 0.98425
 H3497 H 0.27624 0.36360 0.97452
 H3498 H 0.26474 0.34308 0.98609
 H3499 H 0.29934 0.32057 0.98056
 H3500 H 0.31083 0.34105 0.96899
 H3501 H 0.28127 0.34112 0.93978
 H3502 H 0.26977 0.32065 0.95134
 C3503 C 0.79032 0.40225 0.28979
 C3504 C 0.79204 0.40247 0.27400
 C3505 C 0.78595 0.41359 0.26781
 C3506 C 0.77875 0.42339 0.27802
 C3507 C 0.78996 0.42733 0.28859
 C3508 C 0.79605 0.41622 0.29477
 C3509 C 0.77465 0.40310 0.29224
 C3510 C 0.76857 0.41422 0.28605
 C3511 C 0.79687 0.39028 0.29643
 C3512 C 0.80224 0.38042 0.30186
 C3513 C 0.77231 0.43546 0.27148
 C3514 C 0.76741 0.44580 0.26651
 H3515 H 0.79757 0.39460 0.26819
 H3516 H 0.78625 0.41524 0.25670
 H3517 H 0.79287 0.43793 0.29101
 H3518 H 0.80416 0.41730 0.30248
 H3519 H 0.76886 0.39565 0.29832
 H3520 H 0.75756 0.41629 0.28683
   
