data_POSCAR
  _audit_creation_date              2014-09-24
  _audit_creation_method            'ToBaCCo'
  _symmetry_space_group_name_H-M    'P1'
  _symmetry_Int_Tables_number       1
  _symmetry_cell_setting            triclinic
  loop_
  _symmetry_equiv_pos_as_xyz
 x,y,z
_cell_length_a 49.5780
_cell_length_b 50.6645
_cell_length_c 45.9610
_cell_angle_alpha 91.379200
_cell_angle_beta 90.261100
_cell_angle_gamma 89.484500
loop_
  _atom_site_label
  _atom_site_type_symbol
  _atom_site_fract_x
  _atom_site_fract_y
  _atom_site_fract_z
C1 C 0.35905 -0.00184 0.24369
 C2 C 0.14266 -0.00375 0.73443
 C3 C 0.64213 0.49901 0.25329
 C4 C 0.86423 0.50225 0.75995
 C5 C 0.24771 0.38684 1.00838
 C6 C 0.75442 0.11701 0.98570
 C7 C 0.24907 0.61238 0.49117
 C8 C 0.73869 0.88048 0.51723
 C9 C -0.00055 0.25576 0.38497
 C10 C -0.00343 0.76636 0.12359
 C11 C 0.49923 0.24375 0.62025
 C12 C 0.50255 0.74842 0.88354
 C13 C -0.25470 0.61606 0.99323
 C14 C -0.24990 0.37909 0.50615
 C15 C 0.25602 -0.11455 -0.00531
 C16 C 0.23472 1.11197 0.50006
 C17 C 0.14268 0.49581 0.25071
 C18 C -0.14097 0.99499 0.23715
 C19 C 0.36525 0.49416 -0.24563
 C20 C 0.64133 0.00405 -0.25806
 C21 C 0.01076 0.25829 0.88031
 C22 C 0.49911 0.25176 0.12334
 C23 C 0.00076 0.75515 0.61333
 C24 C 0.49894 0.74050 0.37820
 B25 B -0.01059 0.02018 1.01688
 B26 B -0.02404 0.01582 0.98354
 B27 B 0.00175 0.03697 0.98842
 B28 B 0.02304 0.02440 1.01367
 B29 B 0.01010 -0.00516 1.02358
 B30 B -0.01914 -0.01045 1.00474
 B31 B 0.02190 -0.00843 0.96541
 B32 B 0.03506 -0.00426 0.99907
 B33 B 0.00937 -0.02525 0.99362
 B34 B -0.01192 -0.01263 0.96853
 B35 B 0.00099 0.01682 0.95871
 B36 B 0.03037 0.02207 0.97757
 B37 B 0.47901 0.50660 0.52182
 B38 B 0.46621 0.50070 0.48834
 B39 B 0.49168 0.52214 0.49278
 B40 B 0.51275 0.51087 0.51876
 B41 B 0.50002 0.48194 0.53020
 B42 B 0.47095 0.47544 0.51138
 B43 B 0.51213 0.47583 0.47232
 B44 B 0.52525 0.48193 0.50559
 B45 B 0.49986 0.46038 0.50167
 B46 B 0.47858 0.47151 0.47554
 B47 B 0.49132 0.50075 0.46396
 B48 B 0.52042 0.50702 0.48273
 B49 B 0.49836 0.97411 0.52913
 B50 B 0.51321 0.97688 0.49614
 B51 B 0.48503 0.95860 0.49964
 B52 B 0.46447 0.97385 0.52422
 B53 B 0.48035 1.00191 0.53595
 B54 B 0.51064 1.00350 0.51883
 B55 B 0.47093 1.00581 0.47752
 B56 B 0.45624 1.00348 0.51031
 B57 B 0.48444 1.02131 0.50703
 B58 B 0.50474 1.00618 0.48229
 B59 B 0.48885 0.97813 0.47054
 B60 B 0.45858 0.97675 0.48805
 B61 B 0.01519 0.49371 1.02635
 B62 B 0.03041 0.49909 0.99416
 B63 B 0.00155 0.48157 0.99512
 B64 B -0.01859 0.49490 1.02114
 B65 B -0.00205 0.52128 1.03624
 B66 B 0.02853 0.52363 1.01975
 B67 B -0.01074 0.53105 0.97872
 B68 B -0.02590 0.52591 1.01080
 B69 B 0.00288 0.54327 1.00974
 B70 B 0.02310 0.52991 0.98382
 B71 B 0.00646 0.50370 0.96873
 B72 B -0.02413 0.50144 0.98554
 B73 B 0.00279 0.51734 0.46373
 B74 B 0.02358 0.51487 0.49264
 B75 B -0.00059 0.53850 0.49260
 B76 B -0.02826 0.52589 0.47568
 B77 B -0.02090 0.49406 0.46591
 B78 B 0.01153 0.48737 0.47642
 B79 B -0.01781 0.49849 0.52527
 B80 B -0.03848 0.50083 0.49640
 B81 B -0.01429 0.47731 0.49647
 B82 B 0.01324 0.48988 0.51340
 B83 B 0.00591 0.52176 0.52332
 B84 B -0.02644 0.52850 0.51267
 B85 B 0.51999 0.01952 -0.02970
 B86 B 0.53654 0.01260 0.00133
 B87 B 0.51169 0.03549 0.00173
 B88 B 0.48717 0.02553 -0.02173
 B89 B 0.49733 -0.00408 -0.03643
 B90 B 0.52812 -0.01207 -0.02212
 B91 B 0.49167 -0.00963 0.02234
 B92 B 0.47527 -0.00289 -0.00869
 B93 B 0.50018 -0.02565 -0.00911
 B94 B 0.52448 -0.01575 0.01449
 B95 B 0.51442 0.01396 0.02916
 B96 B 0.48369 0.02197 0.01475
 B97 B 0.47839 0.48681 -0.01387
 B98 B 0.46623 0.49299 0.01969
 B99 B 0.49228 0.47179 0.01507
 B100 B 0.51228 0.48291 -0.01147
 B101 B 0.49848 0.51165 -0.02317
 B102 B 0.46966 0.51795 -0.00384
 B103 B 0.51193 0.51850 0.03435
 B104 B 0.52437 0.51208 0.00090
 B105 B 0.49835 0.53339 0.00526
 B106 B 0.47811 0.52230 0.03184
 B107 B 0.49202 0.49349 0.04363
 B108 B 0.52084 0.48726 0.02435
 B109 B -0.03561 0.98987 0.47393
 B110 B -0.04947 0.99625 0.50673
 B111 B -0.02441 0.97376 0.50330
 B112 B -0.00214 0.98420 0.47855
 B113 B -0.01371 1.01375 0.46662
 B114 B -0.04331 1.02130 0.48420
 B115 B -0.00320 1.01920 0.52490
 B116 B 0.01067 1.01247 0.49213
 B117 B -0.01435 1.03523 0.49544
 B118 B -0.03658 1.02483 0.52044
 B119 B -0.02521 0.99504 0.53214
 B120 B 0.00428 0.98764 0.51494
 B121 B 0.76854 0.23411 0.21887
 B122 B 0.76420 0.21751 0.24972
 B123 B 0.78546 0.24308 0.24960
 B124 B 0.77259 0.26632 0.22772
 B125 B 0.74250 0.25496 0.21459
 B126 B 0.73735 0.22435 0.22828
 B127 B 0.73872 0.25986 0.27387
 B128 B 0.74341 0.27645 0.24309
 B129 B 0.72191 0.25087 0.24331
 B130 B 0.73487 0.22745 0.26517
 B131 B 0.76477 0.23899 0.27833
 B132 B 0.77005 0.26948 0.26463
 B133 B 0.73919 0.76752 0.74070
 B134 B 0.75116 0.78785 0.76711
 B135 B 0.72905 0.76390 0.77510
 B136 B 0.73598 0.73693 0.75406
 B137 B 0.76292 0.74456 0.73312
 B138 B 0.77210 0.77614 0.74104
 B139 B 0.77920 0.74744 0.78999
 B140 B 0.76733 0.72706 0.76323
 B141 B 0.78939 0.75102 0.75552
 B142 B 0.78244 0.77799 0.77647
 B143 B 0.75542 0.77050 0.79739
 B144 B 0.74634 0.73862 0.78950
 B145 B 0.27187 0.25041 0.79116
 B146 B 0.26781 0.27343 0.76538
 B147 B 0.29113 0.24919 0.76070
 B148 B 0.27873 0.22097 0.77458
 B149 B 0.24714 0.22808 0.78709
 B150 B 0.24063 0.26091 0.78154
 B151 B 0.24716 0.23652 0.72861
 B152 B 0.25115 0.21343 0.75416
 B153 B 0.22799 0.23778 0.75887
 B154 B 0.24040 0.26580 0.74508
 B155 B 0.27178 0.25864 0.73242
 B156 B 0.27843 0.22592 0.73809
 B157 B 0.23318 0.73416 0.27043
 B158 B 0.24201 0.71660 0.24016
 B159 B 0.21801 0.74030 0.23863
 B160 B 0.22668 0.76565 0.26132
 B161 B 0.25675 0.75731 0.27677
 B162 B 0.26595 0.72665 0.26399
 B163 B 0.26437 0.76017 0.21809
 B164 B 0.25592 0.77751 0.24839
 B165 B 0.27981 0.75370 0.25014
 B166 B 0.27109 0.72850 0.22728
 B167 B 0.24112 0.73700 0.21170
 B168 B 0.23160 0.76747 0.22488
 B169 B 0.27065 0.72875 0.72105
 B170 B 0.26421 0.71571 0.75359
 B171 B 0.28544 0.74124 0.75151
 B172 B 0.27393 0.76172 0.72564
 B173 B 0.24489 0.74854 0.71193
 B174 B 0.23886 0.71977 0.72934
 B175 B 0.23718 0.76004 0.76982
 B176 B 0.24373 0.77308 0.73730
 B177 B 0.22243 0.74751 0.73942
 B178 B 0.23396 0.72701 0.76530
 B179 B 0.26301 0.74026 0.77901
 B180 B 0.26899 0.76900 0.76162
 B181 B 0.23737 0.26651 0.23170
 B182 B 0.24434 0.27847 0.26556
 B183 B 0.22084 0.25471 0.26050
 B184 B 0.23147 0.23379 0.23340
 B185 B 0.26204 0.24491 0.22203
 B186 B 0.26966 0.27261 0.24173
 B187 B 0.26681 0.23161 0.27921
 B188 B 0.26065 0.21995 0.24520
 B189 B 0.28363 0.24371 0.25060
 B190 B 0.27295 0.26439 0.27754
 B191 B 0.24255 0.25338 0.28885
 B192 B 0.23493 0.22544 0.26867
 B193 B 0.76662 0.76077 0.28556
 B194 B 0.75983 0.77699 0.25479
 B195 B 0.78433 0.75393 0.25485
 B196 B 0.77496 0.72917 0.27644
 B197 B 0.74378 0.73713 0.28951
 B198 B 0.73434 0.76708 0.27612
 B199 B 0.73998 0.73240 0.23020
 B200 B 0.74714 0.71609 0.26073
 B201 B 0.72240 0.73916 0.26098
 B202 B 0.73185 0.76405 0.23930
 B203 B 0.76299 0.75591 0.22613
 B204 B 0.77248 0.72610 0.23945
 B205 B 0.73704 0.23952 0.76922
 B206 B 0.74443 0.22151 0.73873
 B207 B 0.72627 0.24967 0.73651
 B208 B 0.73822 0.27183 0.76116
 B209 B 0.76443 0.25706 0.77884
 B210 B 0.76782 0.22563 0.76509
 B211 B 0.77794 0.25975 0.72147
 B212 B 0.77031 0.27778 0.75182
 B213 B 0.78861 0.24958 0.75425
 B214 B 0.77666 0.22739 0.72948
 B215 B 0.75047 0.24222 0.71171
 B216 B 0.74686 0.27356 0.72539
 C217 C 0.39720 1.02553 0.26794
 C218 C 0.41312 1.03299 0.29210
 C219 C 0.40814 1.02238 0.31938
 C220 C 0.38697 1.00438 0.32212
 C221 C 0.37159 0.99661 0.29815
 C222 C 0.37703 1.00607 0.27017
 N223 N 0.42454 1.02923 0.34428
 N224 N 0.41505 1.02491 0.36936
 C225 C 0.42899 1.02701 0.39656
 C226 C 0.41465 1.01923 0.42072
 C227 C 0.42779 1.01417 0.44663
 C228 C 0.45575 1.01824 0.44995
 C229 C 0.46999 1.02807 0.42603
 C230 C 0.45673 1.03214 0.39926
 H231 H 0.40091 1.03463 0.24727
 H232 H 0.42904 1.04724 0.28963
 H233 H 0.38232 0.99601 0.34294
 H234 H 0.35507 0.98337 0.30202
 H235 H 0.39340 1.01469 0.41867
 H236 H 0.41593 1.00510 0.46322
 H237 H 0.49159 1.03084 0.42735
 H238 H 0.46827 1.03786 0.38053
 C239 C -0.12421 0.49740 0.81410
 C240 C -0.11040 0.50535 0.83914
 C241 C -0.08978 0.52379 0.83791
 C242 C -0.08270 0.53424 0.81108
 C243 C -0.09665 0.52634 0.78578
 C244 C -0.11733 0.50727 0.78666
 N245 N -0.07736 0.53170 0.86475
 N246 N -0.05746 0.54727 0.86764
 C247 C -0.04731 0.55253 0.89646
 C248 C -0.01990 0.55771 0.90103
 C249 C -0.00845 0.55480 0.92881
 C250 C -0.02435 0.54640 0.95221
 C251 C -0.05241 0.54454 0.94782
 C252 C -0.06373 0.54801 0.92053
 H253 H -0.14113 0.48438 0.81674
 H254 H -0.11629 0.49757 0.85990
 H255 H -0.06705 0.54892 0.80982
 H256 H -0.09181 0.53571 0.76556
 H257 H -0.00695 0.56148 0.88271
 H258 H 0.01322 0.55637 0.93109
 H259 H -0.06561 0.53721 0.96426
 H260 H -0.08510 0.54444 0.91770
 C261 C 0.09671 0.00551 0.76095
 C262 C 0.08028 0.00219 0.78524
 C263 C 0.09119 -0.00729 0.81109
 C264 C 0.11917 -0.01155 0.81307
 C265 C 0.13554 -0.00836 0.78890
 C266 C 0.12434 -0.00176 0.76172
 N267 N 0.07396 -0.01139 0.83550
 N268 N 0.08397 -0.01908 0.85938
 C269 C 0.06871 -0.02161 0.88536
 C270 C 0.08162 -0.01502 0.91133
 C271 C 0.06700 -0.01225 0.93681
 C272 C 0.03929 -0.01837 0.93778
 C273 C 0.02669 -0.02702 0.91171
 C274 C 0.04120 -0.02807 0.88545
 H275 H 0.08744 0.01328 0.74161
 H276 H 0.05895 0.00683 0.78384
 H277 H 0.12841 -0.01790 0.83313
 H278 H 0.15687 -0.01281 0.79085
 H279 H 0.10269 -0.00953 0.91132
 H280 H 0.07742 -0.00326 0.95509
 H281 H 0.00529 -0.03108 0.91117
 H282 H 0.03093 -0.03322 0.86530
 C283 C 0.63838 0.49304 0.30775
 C284 C 0.62547 0.48495 0.33261
 C285 C 0.59965 0.47453 0.33103
 C286 C 0.58682 0.47156 0.30386
 C287 C 0.59993 0.47966 0.27854
 C288 C 0.62552 0.49179 0.28027
 N289 N 0.58696 0.46906 0.35798
 N290 N 0.56391 0.45872 0.36113
 C291 C 0.55326 0.45701 0.39005
 C292 C 0.52729 0.44725 0.39455
 C293 C 0.51499 0.45033 0.42193
 C294 C 0.52839 0.46370 0.44501
 C295 C 0.55509 0.47181 0.44056
 C296 C 0.56748 0.46804 0.41380
 H297 H 0.65876 0.50030 0.31014
 H298 H 0.63563 0.48699 0.35346
 H299 H 0.56687 0.46313 0.30224
 H300 H 0.59015 0.47619 0.25775
 H301 H 0.51603 0.43864 0.37652
 H302 H 0.49432 0.44405 0.42428
 H303 H 0.56604 0.48294 0.45707
 H304 H 0.58763 0.47570 0.41125
 C305 C 0.64001 0.50708 0.19920
 C306 C 0.62756 0.51544 0.17394
 C307 C 0.60137 0.52549 0.17463
 C308 C 0.58785 0.52814 0.20136
 C309 C 0.60050 0.51985 0.22707
 C310 C 0.62636 0.50788 0.22612
 N311 N 0.58884 0.53046 0.14727
 N312 N 0.56527 0.53999 0.14374
 C313 C 0.55424 0.54104 0.11484
 C314 C 0.52771 0.54983 0.11052
 C315 C 0.51492 0.54556 0.08354
 C316 C 0.52842 0.53197 0.06066
 C317 C 0.55571 0.52514 0.06465
 C318 C 0.56855 0.52998 0.09113
 H319 H 0.66046 0.49956 0.19759
 H320 H 0.63823 0.51356 0.15347
 H321 H 0.56760 0.53626 0.20231
 H322 H 0.59007 0.52292 0.24749
 H323 H 0.51640 0.55846 0.12851
 H324 H 0.49386 0.55104 0.08149
 H325 H 0.56680 0.51402 0.04821
 H326 H 0.58913 0.52307 0.09363
 C327 C 0.10427 0.98258 0.70005
 C328 C 0.08692 0.98701 0.67674
 C329 C 0.09166 1.00756 0.65782
 C330 C 0.11524 1.02240 0.66099
 C331 C 0.13280 1.01790 0.68434
 C332 C 0.12642 0.99930 0.70574
 N333 N 0.07170 1.01298 0.63621
 N334 N 0.07335 1.03131 0.61786
 C335 C 0.05185 1.03498 0.59736
 C336 C 0.05678 1.04696 0.57081
 C337 C 0.03760 1.04533 0.54834
 C338 C 0.01354 1.03121 0.55205
 C339 C 0.00722 1.02299 0.58027
 C340 C 0.02625 1.02458 0.60254
 H341 H 0.09928 0.96709 0.71483
 H342 H 0.06915 0.97492 0.67397
 H343 H 0.11984 1.03772 0.64580
 H344 H 0.15095 1.02951 0.68570
 H345 H 0.07612 1.05591 0.56681
 H346 H 0.04245 1.05375 0.52770
 H347 H -0.01160 1.01332 0.58487
 H348 H 0.02149 1.01624 0.62335
 C349 C -0.13507 0.49917 0.70468
 C350 C -0.12240 0.49532 0.67798
 C351 C -0.09494 0.48931 0.67659
 C352 C -0.08020 0.48629 0.70244
 C353 C -0.09291 0.49031 0.72946
 C354 C -0.12038 0.49811 0.73099
 N355 N -0.08269 0.48875 0.64851
 N356 N -0.05875 0.48098 0.64276
 C357 C -0.04876 0.48402 0.61373
 C358 C -0.02557 0.47045 0.60394
 C359 C -0.01582 0.47416 0.57558
 C360 C -0.02897 0.49186 0.55693
 C361 C -0.05203 0.50547 0.56732
 C362 C -0.06186 0.50143 0.59498
 H363 H -0.15646 0.50365 0.70478
 H364 H -0.13400 0.49747 0.65813
 H365 H -0.05893 0.48133 0.70175
 H366 H -0.08118 0.48721 0.74898
 H367 H -0.01509 0.45704 0.61818
 H368 H 0.00211 0.46355 0.56846
 H369 H -0.06286 0.51944 0.55409
 H370 H -0.07958 0.51249 0.60190
 C371 C 0.36113 -0.01351 0.18957
 C372 C 0.37462 -0.02034 0.16395
 C373 C 0.40257 -0.02375 0.16388
 C374 C 0.41697 -0.02120 0.19008
 C375 C 0.40347 -0.01417 0.21589
 C376 C 0.37537 -0.00877 0.21582
 N377 N 0.41567 -0.02668 0.13638
 N378 N 0.44055 -0.03231 0.13282
 C379 C 0.45189 -0.03089 0.10421
 C380 C 0.47793 -0.04065 0.09822
 C381 C 0.49013 -0.03596 0.07123
 C382 C 0.47659 -0.02090 0.05020
 C383 C 0.45034 -0.01164 0.05661
 C384 C 0.43803 -0.01705 0.08271
 H385 H 0.33940 -0.01123 0.18883
 H386 H 0.36328 -0.02244 0.14384
 H387 H 0.43863 -0.02408 0.19050
 H388 H 0.41522 -0.01336 0.23573
 H389 H 0.48906 -0.05114 0.11471
 H390 H 0.51057 -0.04288 0.06748
 H391 H 0.43939 0.00112 0.04212
 H392 H 0.41814 -0.00879 0.08672
 C393 C 0.29682 0.38502 0.02430
 C394 C 0.32136 0.39627 0.03197
 C395 C 0.32367 0.42354 0.03520
 C396 C 0.30061 0.43958 0.03268
 C397 C 0.27573 0.42825 0.02516
 C398 C 0.27383 0.40084 0.01873
 N399 N 0.35024 0.43401 0.03753
 N400 N 0.35589 0.45833 0.04099
 C401 C 0.38353 0.46624 0.03902
 C402 C 0.39138 0.49185 0.04730
 C403 C 0.41796 0.50013 0.04260
 C404 C 0.43690 0.48302 0.02897
 C405 C 0.42860 0.45736 0.02097
 C406 C 0.40260 0.44900 0.02628
 H407 H 0.29606 0.36378 0.02130
 H408 H 0.33900 0.38369 0.03420
 H409 H 0.30195 0.46077 0.03576
 H410 H 0.25835 0.44117 0.02433
 H411 H 0.37683 0.50552 0.05685
 H412 H 0.42332 0.52018 0.04869
 H413 H 0.44145 0.44395 0.00873
 H414 H 0.39707 0.42933 0.01888
 C415 C -0.21159 0.88231 0.53007
 C416 C -0.18756 0.89557 0.53471
 C417 C -0.18744 0.92288 0.53847
 C418 C -0.21207 0.93667 0.54102
 C419 C -0.23655 0.92312 0.53714
 C420 C -0.23647 0.89607 0.52871
 N421 N -0.16200 0.93552 0.53555
 N422 N -0.15783 0.96026 0.53696
 C423 C -0.13147 0.96958 0.52971
 C424 C -0.12278 0.99464 0.53902
 C425 C -0.09685 1.00334 0.53181
 C426 C -0.07945 0.98725 0.51468
 C427 C -0.08888 0.96252 0.50475
 C428 C -0.11429 0.95377 0.51230
 H429 H -0.21041 0.86137 0.52512
 H430 H -0.16870 0.88468 0.53318
 H431 H -0.21236 0.95784 0.54485
 H432 H -0.25519 0.93411 0.53964
 H433 H -0.13588 1.00724 0.55216
 H434 H -0.09050 1.02262 0.53968
 H435 H -0.07683 0.94978 0.49072
 H436 H -0.12067 0.93461 0.50406
 C437 C -0.22569 0.07286 0.96321
 C438 C -0.20303 0.05720 0.95588
 C439 C -0.17713 0.06800 0.95743
 C440 C -0.17454 0.09520 0.96331
 C441 C -0.19682 0.11046 0.97109
 C442 C -0.22249 0.09911 0.97382
 N443 N -0.15348 0.05138 0.95623
 N444 N -0.13192 0.06088 0.96710
 C445 C -0.10625 0.04824 0.96961
 C446 C -0.08742 0.06154 0.98674
 C447 C -0.06198 0.05103 0.99101
 C448 C -0.05404 0.02691 0.97760
 C449 C -0.07314 0.01331 0.96012
 C450 C -0.09932 0.02388 0.95623
 H451 H -0.24542 0.06413 0.96111
 H452 H -0.20559 0.03652 0.95015
 H453 H -0.15498 0.10454 0.96327
 H454 H -0.19369 0.13116 0.97638
 H455 H -0.09269 0.08025 0.99724
 H456 H -0.04856 0.06223 1.00504
 H457 H -0.06793 -0.00540 0.94965
 H458 H -0.11384 0.01330 0.94285
 C459 C 0.27797 0.57352 0.50706
 C460 C 0.30070 0.55725 0.50527
 C461 C 0.31857 0.55930 0.48214
 C462 C 0.31349 0.57775 0.46054
 C463 C 0.29117 0.59472 0.46273
 C464 C 0.27274 0.59280 0.48599
 N465 N 0.34395 0.54604 0.48386
 N466 N 0.35761 0.53877 0.46168
 C467 C 0.38460 0.52975 0.46618
 C468 C 0.39436 0.50653 0.45268
 C469 C 0.42032 0.49711 0.45942
 C470 C 0.43689 0.51122 0.47923
 C471 C 0.42715 0.53532 0.49116
 C472 C 0.40131 0.54421 0.48505
 H473 H 0.26472 0.57158 0.52552
 H474 H 0.30485 0.54351 0.52245
 H475 H 0.32780 0.58025 0.44311
 H476 H 0.28933 0.60990 0.44674
 H477 H 0.38162 0.49533 0.43781
 H478 H 0.42721 0.47873 0.44938
 H479 H 0.43919 0.54722 0.50599
 H480 H 0.39419 0.56247 0.49520
 C481 C 0.19836 0.61383 0.49831
 C482 C 0.17285 0.60274 0.49799
 C483 C 0.16973 0.57590 0.49186
 C484 C 0.19235 0.56006 0.48557
 C485 C 0.21802 0.57122 0.48528
 C486 C 0.22158 0.59831 0.49232
 N487 N 0.14308 0.56576 0.49071
 N488 N 0.13770 0.54130 0.49116
 C489 C 0.11022 0.53330 0.48897
 C490 C 0.10194 0.50991 0.50155
 C491 C 0.07450 0.50372 0.50240
 C492 C 0.05504 0.52080 0.49029
 C493 C 0.06397 0.54331 0.47612
 C494 C 0.09111 0.54962 0.47565
 H495 H 0.20008 0.63478 0.50314
 H496 H 0.15538 0.61514 0.50246
 H497 H 0.19009 0.53931 0.48001
 H498 H 0.23468 0.55856 0.47881
 H499 H 0.11657 0.49703 0.51169
 H500 H 0.06863 0.48583 0.51300
 H501 H 0.05010 0.55689 0.46632
 H502 H 0.09714 0.56762 0.46533
 C503 C 0.70519 0.11857 0.00008
 C504 C 0.68109 0.10718 0.00793
 C505 C 0.68011 0.08050 0.01415
 C506 C 0.70414 0.06570 0.01554
 C507 C 0.72874 0.07746 0.00841
 C508 C 0.72916 0.10341 -0.00225
 N509 N 0.65400 0.06908 0.01523
 N510 N 0.64887 0.04479 0.01845
 C511 C 0.62143 0.03652 0.01492
 C512 C 0.61279 0.01221 0.02517
 C513 C 0.58587 0.00441 0.02112
 C514 C 0.56740 0.02070 0.00631
 C515 C 0.57666 0.04470 -0.00442
 C516 C 0.60306 0.05255 -0.00005
 H517 H 0.70475 0.13916 -0.00570
 H518 H 0.66270 0.11888 0.00742
 H519 H 0.70380 0.04512 0.02132
 H520 H 0.74708 0.06599 0.01062
 H521 H 0.62678 -0.00055 0.03645
 H522 H 0.57964 -0.01435 0.02951
 H523 H 0.56357 0.05768 -0.01649
 H524 H 0.60920 0.07116 -0.00891
 C525 C 0.71467 0.92141 0.49543
 C526 C 0.69116 0.93541 0.48817
 C527 C 0.66579 0.92415 0.49190
 C528 C 0.66421 0.89845 0.50228
 C529 C 0.68754 0.88487 0.51036
 C530 C 0.71324 0.89671 0.50898
 N531 N 0.64180 0.93940 0.48686
 N532 N 0.61930 0.92832 0.48147
 C533 C 0.59437 0.94277 0.48025
 C534 C 0.57161 0.93061 0.46802
 C535 C 0.54609 0.94237 0.47097
 C536 C 0.54266 0.96569 0.48781
 C537 C 0.56600 0.97906 0.49761
 C538 C 0.59156 0.96764 0.49400
 H539 H 0.73389 0.93010 0.49047
 H540 H 0.69274 0.95496 0.47934
 H541 H 0.64486 0.88909 0.50487
 H542 H 0.68530 0.86493 0.51786
 H543 H 0.57356 0.91166 0.45681
 H544 H 0.52906 0.93269 0.46077
 H545 H 0.56456 0.99767 0.50957
 H546 H 0.60889 0.97753 0.50345
 C547 C 0.22708 0.42706 0.98255
 C548 C 0.20533 0.44384 0.97592
 C549 C 0.17946 0.43842 0.98612
 C550 C 0.17558 0.41617 1.00299
 C551 C 0.19726 0.40008 1.01046
 C552 C 0.22383 0.40575 1.00151
 N553 N 0.15720 0.45574 0.98030
 N554 N 0.13363 0.44628 0.97723
 C555 C 0.10971 0.46217 0.97580
 C556 C 0.08623 0.45082 0.96447
 C557 C 0.06132 0.46347 0.96813
 C558 C 0.05921 0.48711 0.98468
 C559 C 0.08326 0.49965 0.99371
 C560 C 0.10831 0.48723 0.98938
 H561 H 0.24664 0.43099 0.97328
 H562 H 0.20855 0.46071 0.96238
 H563 H 0.15568 0.41142 1.01082
 H564 H 0.19271 0.38278 1.02276
 H565 H 0.08712 0.43164 0.95356
 H566 H 0.04385 0.45417 0.95859
 H567 H 0.08273 0.51833 1.00561
 H568 H 0.12627 0.49636 0.99835
 C569 C 0.01771 0.28397 0.42814
 C570 C 0.01761 0.30669 0.44629
 C571 C -0.00106 0.32711 0.44174
 C572 C -0.01903 0.32479 0.41814
 C573 C -0.01876 0.30237 0.39991
 C574 C -0.00124 0.28080 0.40522
 N575 N -0.00076 0.35061 0.46001
 N576 N -0.01961 0.36774 0.45799
 C577 C -0.02044 0.39275 0.47331
 C578 C -0.04112 0.41026 0.46610
 C579 C -0.04048 0.43650 0.47575
 C580 C -0.01945 0.44596 0.49384
 C581 C 0.00027 0.42762 0.50305
 C582 C -0.00006 0.40125 0.49265
 H583 H 0.03252 0.26864 0.43216
 H584 H 0.03214 0.30839 0.46387
 H585 H -0.03301 0.34063 0.41330
 H586 H -0.03221 0.30248 0.38136
 H587 H -0.05684 0.40401 0.45107
 H588 H -0.05552 0.44972 0.46698
 H589 H 0.01705 0.43403 0.51652
 H590 H 0.01619 0.38799 0.49854
 C591 C 0.50731 -0.22636 -0.06633
 C592 C 0.50763 -0.20281 -0.04969
 C593 C 0.50229 -0.17864 -0.06263
 C594 C 0.49748 -0.17821 -0.09276
 C595 C 0.49756 -0.20157 -0.10943
 C596 C 0.50124 -0.22636 -0.09651
 N597 N 0.50245 -0.15466 -0.04530
 N598 N 0.49250 -0.13360 -0.05557
 C599 C 0.49253 -0.10831 -0.04103
 C600 C 0.47900 -0.08783 -0.05467
 C601 C 0.48047 -0.06215 -0.04362
 C602 C 0.49553 -0.05609 -0.01823
 C603 C 0.50837 -0.07698 -0.00373
 C604 C 0.50690 -0.10301 -0.01508
 H605 H 0.51272 -0.24425 -0.05536
 H606 H 0.51218 -0.20341 -0.02665
 H607 H 0.49409 -0.15972 -0.10358
 H608 H 0.49453 -0.20035 -0.13272
 H609 H 0.46787 -0.09169 -0.07464
 H610 H 0.47013 -0.04695 -0.05562
 H611 H 0.52023 -0.07312 0.01571
 H612 H 0.51760 -0.11869 -0.00421
 C613 C 0.00240 -0.18420 1.11867
 C614 C 0.00450 -0.16120 1.10293
 C615 C 0.00057 -0.16163 1.07286
 C616 C -0.00654 -0.18538 1.05860
 C617 C -0.00859 -0.20868 1.07441
 C618 C -0.00287 -0.20871 1.10464
 N619 N 0.00465 -0.13755 1.05791
 N620 N 0.00039 -0.13405 1.03091
 C621 C 0.00593 -0.10867 1.01901
 C622 C -0.00537 -0.10124 0.99233
 C623 C -0.00275 -0.07520 0.98275
 C624 C 0.01140 -0.05631 0.99970
 C625 C 0.02402 -0.06461 1.02550
 C626 C 0.02147 -0.09030 1.03487
 H627 H 0.00580 -0.18310 1.14197
 H628 H 0.00957 -0.14289 1.11423
 H629 H -0.01028 -0.18597 1.03537
 H630 H -0.01475 -0.22641 1.06279
 H631 H -0.01728 -0.11521 0.97968
 H632 H -0.01286 -0.06959 0.96288
 H633 H 0.03504 -0.05097 1.03947
 H634 H 0.03090 -0.09550 1.05527
 C635 C 0.49025 0.26469 0.56930
 C636 C 0.48859 0.28665 0.55141
 C637 C 0.49346 0.31196 0.56272
 C638 C 0.49955 0.31513 0.59251
 C639 C 0.50079 0.29333 0.61053
 C640 C 0.49591 0.26754 0.59954
 N641 N 0.49301 0.33414 0.54376
 N642 N 0.50373 0.35568 0.55227
 C643 C 0.50434 0.37959 0.53635
 C644 C 0.51884 0.40023 0.54890
 C645 C 0.51835 0.42497 0.53684
 C646 C 0.50357 0.43009 0.51117
 C647 C 0.48957 0.40891 0.49776
 C648 C 0.48993 0.38370 0.51030
 H649 H 0.48758 0.24566 0.55876
 H650 H 0.48425 0.28380 0.52844
 H651 H 0.50343 0.33451 0.60196
 H652 H 0.50568 0.29657 0.63332
 H653 H 0.52986 0.39734 0.56901
 H654 H 0.52895 0.44035 0.54876
 H655 H 0.47759 0.41208 0.47839
 H656 H 0.47839 0.36785 0.50031
 C657 C 0.46962 1.21046 0.59252
 C658 C 0.46512 1.18679 0.57720
 C659 C 0.48647 1.16942 0.57123
 C660 C 0.51233 1.17548 0.58159
 C661 C 0.51678 1.19873 0.59785
 C662 C 0.49562 1.21720 0.60302
 N663 N 0.48099 1.14450 0.55735
 N664 N 0.49833 1.13201 0.54186
 C665 C 0.49300 1.10572 0.53138
 C666 C 0.50621 1.09544 0.50665
 C667 C 0.50243 1.06905 0.49767
 C668 C 0.48596 1.05240 0.51389
 C669 C 0.47301 1.06304 0.53884
 C670 C 0.47604 1.08940 0.54709
 H671 H 0.45267 1.22374 0.59618
 H672 H 0.44493 1.18202 0.56984
 H673 H 0.52888 1.16169 0.57811
 H674 H 0.53681 1.20152 0.60647
 H675 H 0.51960 1.10780 0.49450
 H676 H 0.51308 1.06153 0.47866
 H677 H 0.46062 1.05095 0.55242
 H678 H 0.46603 1.09675 0.56658
 C679 C -0.02400 0.72013 1.11461
 C680 C -0.02424 0.69547 1.10067
 C681 C -0.00651 0.68954 1.07799
 C682 C 0.01173 0.70871 1.06910
 C683 C 0.01217 0.73356 1.08323
 C684 C -0.00619 0.74009 1.10584
 N685 N -0.00635 0.66312 1.06640
 N686 N 0.00681 0.65526 1.04407
 C687 C 0.00632 0.62783 1.03554
 C688 C 0.01500 0.61956 1.00779
 C689 C 0.01396 0.59278 0.99931
 C690 C 0.00455 0.57386 1.01870
 C691 C -0.00354 0.58237 1.04673
 C692 C -0.00284 0.60893 1.05493
 H693 H -0.03719 0.72280 1.13310
 H694 H -0.03786 0.68053 1.10820
 H695 H 0.02615 0.70422 1.05203
 H696 H 0.02722 0.74762 1.07684
 H697 H 0.02223 0.63388 0.99262
 H698 H 0.02046 0.58695 0.97763
 H699 H -0.01097 0.56864 1.06242
 H700 H -0.00942 0.61465 1.07663
 C701 C 0.52529 0.70336 -0.10512
 C702 C 0.52656 0.67992 -0.08990
 C703 C 0.50790 0.67472 -0.06822
 C704 C 0.48732 0.69318 -0.06211
 C705 C 0.48578 0.71669 -0.07763
 C706 C 0.50533 0.72275 -0.09876
 N707 N 0.50953 0.64962 -0.05462
 N708 N 0.49601 0.64313 -0.03244
 C709 C 0.49834 0.61677 -0.02170
 C710 C 0.48629 0.61013 0.00468
 C711 C 0.48731 0.58398 0.01432
 C712 C 0.50017 0.56402 -0.00254
 C713 C 0.51240 0.57109 -0.02882
 C714 C 0.51177 0.59700 -0.03805
 H715 H 0.53963 0.70555 -0.12248
 H716 H 0.54201 0.66542 -0.09542
 H717 H 0.47217 0.68919 -0.04596
 H718 H 0.46933 0.73036 -0.07307
 H719 H 0.47578 0.62511 0.01756
 H720 H 0.47738 0.57931 0.03445
 H721 H 0.52226 0.55648 -0.04278
 H722 H 0.52118 0.60136 -0.05857
 C723 C 0.00019 1.20559 0.38491
 C724 C -0.00103 1.18111 0.39786
 C725 C -0.00485 1.17924 0.42777
 C726 C -0.00815 1.20244 0.44477
 C727 C -0.00725 1.22728 0.43169
 C728 C -0.00218 1.22933 0.40149
 N729 N -0.00630 1.15326 0.43929
 N730 N -0.00682 1.14755 0.46614
 C731 C -0.00878 1.12025 0.47400
 C732 C -0.00549 1.11258 0.50299
 C733 C -0.00698 1.08574 0.51029
 C734 C -0.01163 1.06615 0.48860
 C735 C -0.01573 1.07436 0.45979
 C736 C -0.01409 1.10076 0.45261
 H737 H 0.00334 1.20609 0.36163
 H738 H 0.00109 1.16336 0.38444
 H739 H -0.01189 1.20135 0.46790
 H740 H -0.01096 1.24457 0.44531
 H741 H -0.00171 1.12734 0.51991
 H742 H -0.00479 1.08049 0.53283
 H743 H -0.02018 1.06041 0.44228
 H744 H -0.01719 1.10588 0.43010
 C745 C 0.76262 0.61927 0.94153
 C746 C 0.77296 0.63306 0.91827
 C747 C 0.77256 0.66057 0.91881
 C748 C 0.75960 0.67421 0.94188
 C749 C 0.74878 0.66035 0.96507
 C750 C 0.75202 0.63270 0.96634
 N751 N 0.78412 0.67405 0.89492
 N752 N 0.78863 0.69873 0.89593
 C753 C 0.79780 0.71239 0.87098
 C754 C 0.79453 0.73975 0.87058
 C755 C 0.79410 0.75262 0.84409
 C756 C 0.79640 0.73800 0.81765
 C757 C 0.80629 0.71200 0.81897
 C758 C 0.80599 0.69885 0.84541
 H759 H 0.76416 0.59793 0.94092
 H760 H 0.78193 0.62227 0.90008
 H761 H 0.75770 0.69551 0.94189
 H762 H 0.73821 0.67146 0.98186
 H763 H 0.78923 0.75065 0.89033
 H764 H 0.78847 0.77332 0.84434
 H765 H 0.81166 0.70103 0.79941
 H766 H 0.81017 0.67784 0.84546
 C767 C 0.24343 0.15840 0.47819
 C768 C 0.25205 0.17379 0.45531
 C769 C 0.25712 0.16224 0.42806
 C770 C 0.25155 0.13531 0.42328
 C771 C 0.24276 0.11991 0.44605
 C772 C 0.24048 0.13068 0.47453
 N773 N 0.26612 0.17838 0.40495
 N774 N 0.27265 0.16783 0.38064
 C775 C 0.27853 0.18260 0.35552
 C776 C 0.27153 0.17105 0.32896
 C777 C 0.26940 0.18627 0.30451
 C778 C 0.27694 0.21310 0.30501
 C779 C 0.28670 0.22408 0.33147
 C780 C 0.28682 0.20908 0.35684
 H781 H 0.23935 0.16859 0.49860
 H782 H 0.25491 0.19479 0.45887
 H783 H 0.25416 0.12606 0.40199
 H784 H 0.23933 0.09907 0.44190
 H785 H 0.26445 0.15087 0.32794
 H786 H 0.25920 0.17718 0.28618
 H787 H 0.29189 0.24477 0.33319
 H788 H 0.29219 0.21836 0.37750
 C789 C 0.76121 0.36797 0.45228
 C790 C 0.75657 0.35433 0.42627
 C791 C 0.73741 0.33450 0.42437
 C792 C 0.72260 0.32814 0.44914
 C793 C 0.72722 0.34195 0.47562
 C794 C 0.74714 0.36181 0.47791
 N795 N 0.73352 0.32240 0.39632
 N796 N 0.71801 0.30328 0.38968
 C797 C 0.71752 0.29418 0.35978
 C798 C 0.70844 0.26880 0.35208
 C799 C 0.71281 0.25837 0.32379
 C800 C 0.72642 0.27324 0.30293
 C801 C 0.73376 0.29926 0.31057
 C802 C 0.72895 0.30967 0.33822
 H803 H 0.77521 0.38413 0.45144
 H804 H 0.76765 0.35972 0.40707
 H805 H 0.70730 0.31304 0.44790
 H806 H 0.71505 0.33743 0.49433
 H807 H 0.69948 0.25656 0.36835
 H808 H 0.70710 0.23817 0.31891
 H809 H 0.74504 0.31133 0.29597
 H810 H 0.73585 0.32949 0.34322
 C811 C 0.26353 0.87441 0.94013
 C812 C 0.25689 0.86125 0.91435
 C813 C 0.23692 0.84217 0.91357
 C814 C 0.22314 0.83630 0.93919
 C815 C 0.22967 0.84976 0.96540
 C816 C 0.25067 0.86856 0.96661
 N817 N 0.23162 0.82976 0.88595
 N818 N 0.21553 0.81078 0.88074
 C819 C 0.21392 0.80044 0.85138
 C820 C 0.20482 0.77472 0.84570
 C821 C 0.20934 0.76246 0.81837
 C822 C 0.22318 0.77582 0.79643
 C823 C 0.22993 0.80242 0.80169
 C824 C 0.22499 0.81464 0.82851
 H825 H 0.27818 0.88995 0.93856
 H826 H 0.26723 0.86625 0.89453
 H827 H 0.20723 0.82181 0.93885
 H828 H 0.21822 0.84571 0.98476
 H829 H 0.19611 0.76349 0.86301
 H830 H 0.20393 0.74193 0.81530
 H831 H 0.24117 0.81345 0.78604
 H832 H 0.23181 0.83472 0.83199
 C833 C 0.26586 0.88277 0.04882
 C834 C 0.27214 0.86950 0.07412
 C835 C 0.27516 0.84212 0.07368
 C836 C 0.27225 0.82794 0.04728
 C837 C 0.26571 0.84127 0.02167
 C838 C 0.26141 0.86898 0.02219
 N839 N 0.27843 0.82964 0.10106
 N840 N 0.28466 0.80550 0.10481
 C841 C 0.28404 0.79554 0.13386
 C842 C 0.29427 0.77035 0.14020
 C843 C 0.29047 0.75971 0.16797
 C844 C 0.27589 0.77396 0.18955
 C845 C 0.26628 0.79936 0.18274
 C846 C 0.27080 0.81013 0.15585
 H847 H 0.26407 0.90409 0.05005
 H848 H 0.27436 0.88064 0.09439
 H849 H 0.27463 0.80668 0.04653
 H850 H 0.26458 0.82974 0.00165
 H851 H 0.30437 0.75865 0.12344
 H852 H 0.29754 0.73983 0.17192
 H853 H 0.25346 0.81070 0.19736
 H854 H 0.26219 0.82940 0.15173
 C855 C 0.75898 0.37691 0.56061
 C856 C 0.76851 0.36445 0.58534
 C857 C 0.77581 0.33782 0.58410
 C858 C 0.77293 0.32347 0.55778
 C859 C 0.76326 0.33591 0.53284
 C860 C 0.75586 0.36297 0.53378
 N861 N 0.78521 0.32592 0.61021
 N862 N 0.79307 0.30199 0.61140
 C863 C 0.80005 0.29073 0.63877
 C864 C 0.79891 0.26338 0.64155
 C865 C 0.79682 0.25255 0.66914
 C866 C 0.79545 0.26911 0.69429
 C867 C 0.80213 0.29581 0.69136
 C868 C 0.80385 0.30669 0.66382
 H869 H 0.75469 0.39790 0.56215
 H870 H 0.77063 0.37572 0.60553
 H871 H 0.77854 0.30278 0.55636
 H872 H 0.76293 0.32442 0.51276
 H873 H 0.79669 0.25071 0.62240
 H874 H 0.79288 0.23162 0.67032
 H875 H 0.80389 0.30891 0.70994
 H876 H 0.80612 0.32784 0.66218
 C877 C 0.25888 0.13948 0.53880
 C878 C 0.25957 0.15638 0.56294
 C879 C 0.23614 0.16217 0.57844
 C880 C 0.21201 0.14960 0.57077
 C881 C 0.21128 0.13213 0.54669
 C882 C 0.23449 0.12785 0.52926
 N883 N 0.23833 0.18017 0.60254
 N884 N 0.21871 0.19037 0.61672
 C885 C 0.22473 0.20730 0.64129
 C886 C 0.20424 0.21668 0.65986
 C887 C 0.21089 0.22888 0.68671
 C888 C 0.23804 0.23014 0.69578
 C889 C 0.25821 0.22389 0.67523
 C890 C 0.25166 0.21275 0.64844
 H891 H 0.27732 0.13648 0.52658
 H892 H 0.27843 0.16558 0.56923
 H893 H 0.19390 0.15317 0.58339
 H894 H 0.19242 0.12247 0.54194
 H895 H 0.18328 0.21337 0.65427
 H896 H 0.19482 0.23496 0.70127
 H897 H 0.27943 0.22624 0.68015
 H898 H 0.26801 0.20691 0.63406
 C899 C 0.72123 0.62023 0.04241
 C900 C 0.71663 0.63214 0.06954
 C901 C 0.72945 0.65557 0.07741
 C902 C 0.74803 0.66651 0.05832
 C903 C 0.75349 0.65399 0.03140
 C904 C 0.73896 0.63142 0.02206
 N905 N 0.72628 0.66565 0.10645
 N906 N 0.72453 0.69018 0.11279
 C907 C 0.72424 0.69888 0.14267
 C908 C 0.71326 0.72356 0.15068
 C909 C 0.71564 0.73323 0.17944
 C910 C 0.72985 0.71866 0.20040
 C911 C 0.74022 0.69362 0.19205
 C912 C 0.73695 0.68367 0.16385
 H913 H 0.71129 0.60167 0.03782
 H914 H 0.70326 0.62285 0.08471
 H915 H 0.75935 0.68384 0.06492
 H916 H 0.76946 0.66177 0.01825
 H917 H 0.70348 0.73557 0.13449
 H918 H 0.70783 0.75278 0.18470
 H919 H 0.75249 0.68215 0.20665
 H920 H 0.74603 0.66475 0.15810
 C921 C 0.17708 0.52779 0.27364
 C922 C 0.19275 0.55064 0.27358
 C923 C 0.19466 0.56556 0.24849
 C924 C 0.18215 0.55628 0.22281
 C925 C 0.16669 0.53330 0.22272
 C926 C 0.16248 0.51936 0.24862
 N927 N 0.20795 0.59066 0.25004
 N928 N 0.20662 0.60682 0.22925
 C929 C 0.21836 0.63263 0.23083
 C930 C 0.21200 0.65050 0.20907
 C931 C 0.22044 0.67672 0.21138
 C932 C 0.23545 0.68574 0.23563
 C933 C 0.24368 0.66712 0.25630
 C934 C 0.23481 0.64093 0.25422
 H935 H 0.17516 0.51735 0.29381
 H936 H 0.20255 0.55732 0.29349
 H937 H 0.18392 0.56705 0.20286
 H938 H 0.15782 0.52711 0.20223
 H939 H 0.19965 0.64429 0.19070
 H940 H 0.21467 0.68994 0.19432
 H941 H 0.25575 0.67305 0.27498
 H942 H 0.24031 0.62740 0.27117
 C943 C 0.68674 0.02920 0.74564
 C944 C 0.70204 0.05172 0.74172
 C945 C 0.69193 0.07250 0.72557
 C946 C 0.66675 0.06993 0.71178
 C947 C 0.65141 0.04715 0.71534
 C948 C 0.66087 0.02624 0.73265
 N949 N 0.70619 0.09693 0.72664
 N950 N 0.69742 0.11774 0.71475
 C951 C 0.71098 0.14244 0.71851
 C952 C 0.70069 0.16462 0.70467
 C953 C 0.71173 0.18950 0.71029
 C954 C 0.73292 0.19283 0.73053
 C955 C 0.74426 0.17014 0.74305
 C956 C 0.73326 0.14525 0.73731
 H957 H 0.69437 0.01532 0.76122
 H958 H 0.72113 0.05378 0.75307
 H959 H 0.65834 0.08598 0.69941
 H960 H 0.63150 0.04672 0.70574
 H961 H 0.68376 0.16269 0.68983
 H962 H 0.70346 0.20595 0.69870
 H963 H 0.76105 0.17162 0.75810
 H964 H 0.74174 0.12836 0.74819
 C965 C 0.82451 0.02196 0.26737
 C966 C 0.80837 0.04437 0.27246
 C967 C 0.80669 0.06386 0.25157
 C968 C 0.81906 0.05951 0.22447
 C969 C 0.83491 0.03714 0.21928
 C970 C 0.83985 0.01899 0.24154
 N971 N 0.79466 0.08894 0.25865
 N972 N 0.80403 0.10910 0.24644
 C973 C 0.79434 0.13544 0.25059
 C974 C 0.80970 0.15531 0.23884
 C975 C 0.80060 0.18121 0.23976
 C976 C 0.77555 0.18801 0.25233
 C977 C 0.76036 0.16796 0.26505
 C978 C 0.76975 0.14172 0.26425
 H979 H 0.82609 0.00750 0.28425
 H980 H 0.79835 0.04715 0.29321
 H981 H 0.81693 0.07381 0.20746
 H982 H 0.84346 0.03452 0.19781
 H983 H 0.82860 0.15054 0.22812
 H984 H 0.81281 0.19554 0.22902
 H985 H 0.74097 0.17236 0.27485
 H986 H 0.75755 0.12639 0.27339
 C987 C 0.33269 0.52822 0.73427
 C988 C 0.31962 0.55262 0.73461
 C989 C 0.32193 0.56968 0.75867
 C990 C 0.33776 0.56229 0.78251
 C991 C 0.35171 0.53811 0.78187
 C992 C 0.34906 0.52031 0.75784
 N993 N 0.31076 0.59561 0.75672
 N994 N 0.30213 0.60901 0.77856
 C995 C 0.29358 0.63565 0.77438
 C996 C 0.27011 0.64560 0.78760
 C997 C 0.26064 0.67098 0.78117
 C998 C 0.27495 0.68692 0.76193
 C999 C 0.29937 0.67709 0.75026
 C1000 C 0.30830 0.65170 0.75602
 H1001 H 0.33049 0.51553 0.71512
 H1002 H 0.30789 0.55843 0.71585
 H1003 H 0.34051 0.57582 0.80086
 H1004 H 0.36518 0.53417 0.79977
 H1005 H 0.25868 0.63339 0.80202
 H1006 H 0.24206 0.67795 0.79110
 H1007 H 0.31168 0.68886 0.73632
 H1008 H 0.32681 0.64449 0.74612
 C1009 C 0.31804 0.47177 0.75469
 C1010 C 0.30222 0.44906 0.75434
 C1011 C 0.31416 0.42421 0.75054
 C1012 C 0.34198 0.42230 0.74524
 C1013 C 0.35773 0.44496 0.74471
 C1014 C 0.34625 0.47023 0.74982
 N1015 N 0.29836 0.40101 0.75413
 N1016 N 0.30937 0.38059 0.76468
 C1017 C 0.29599 0.35605 0.76834
 C1018 C 0.30968 0.33665 0.78353
 C1019 C 0.29971 0.31116 0.78432
 C1020 C 0.27576 0.30409 0.76976
 C1021 C 0.26100 0.32430 0.75600
 C1022 C 0.27106 0.35011 0.75523
 H1023 H 0.30800 0.49020 0.76020
 H1024 H 0.28083 0.45075 0.75879
 H1025 H 0.35161 0.40319 0.74209
 H1026 H 0.37925 0.44273 0.74142
 H1027 H 0.32906 0.34093 0.79345
 H1028 H 0.31265 0.29668 0.79360
 H1029 H 0.24236 0.32004 0.74455
 H1030 H 0.26008 0.36496 0.74333
 C1031 C 0.82287 0.96729 0.21004
 C1032 C 0.80552 0.94556 0.20794
 C1033 C 0.80356 0.92832 0.23112
 C1034 C 0.81739 0.93429 0.25715
 C1035 C 0.83479 0.95549 0.25908
 C1036 C 0.83950 0.97137 0.23486
 N1037 N 0.78974 0.90367 0.22777
 N1038 N 0.79629 0.88562 0.24524
 C1039 C 0.78596 0.85956 0.24596
 C1040 C 0.79999 0.84218 0.26344
 C1041 C 0.79162 0.81646 0.26591
 C1042 C 0.76828 0.80727 0.25146
 C1043 C 0.75397 0.82489 0.23361
 C1044 C 0.76287 0.85104 0.23073
 H1045 H 0.82405 0.98043 0.19187
 H1046 H 0.79442 0.94171 0.18797
 H1047 H 0.81526 0.92209 0.27601
 H1048 H 0.84446 0.95925 0.27988
 H1049 H 0.81786 0.84865 0.27515
 H1050 H 0.80375 0.80389 0.27947
 H1051 H 0.73614 0.81850 0.22184
 H1052 H 0.75176 0.86446 0.21705
 C1053 C 0.64639 0.96254 0.77426
 C1054 C 0.65964 0.93929 0.78212
 C1055 C 0.68352 0.93143 0.76844
 C1056 C 0.69451 0.94743 0.74720
 C1057 C 0.68145 0.97067 0.73941
 C1058 C 0.65694 0.97904 0.75264
 N1059 N 0.69525 0.90632 0.77489
 N1060 N 0.71526 0.89717 0.76053
 C1061 C 0.72646 0.87153 0.76513
 C1062 C 0.74499 0.86135 0.74497
 C1063 C 0.75382 0.83524 0.74644
 C1064 C 0.74422 0.81871 0.76829
 C1065 C 0.72723 0.82974 0.78986
 C1066 C 0.71808 0.85583 0.78810
 H1067 H 0.62764 0.96686 0.78511
 H1068 H 0.65078 0.92693 0.79837
 H1069 H 0.71293 0.94172 0.73606
 H1070 H 0.69046 0.98182 0.72224
 H1071 H 0.75171 0.87338 0.72728
 H1072 H 0.76728 0.82786 0.72960
 H1073 H 0.72039 0.81817 0.80771
 H1074 H 0.70408 0.86352 0.80427
 C1075 C 0.15157 0.45951 0.28944
 C1076 C 0.16423 0.43611 0.29770
 C1077 C 0.18567 0.42554 0.28161
 C1078 C 0.19573 0.43981 0.25822
 C1079 C 0.18287 0.46316 0.24969
 C1080 C 0.15912 0.47239 0.26369
 N1081 N 0.19527 0.39946 0.28790
 N1082 N 0.21662 0.38984 0.27648
 C1083 C 0.22505 0.36295 0.28006
 C1084 C 0.25003 0.35505 0.26894
 C1085 C 0.25708 0.32838 0.26701
 C1086 C 0.23886 0.30872 0.27549
 C1087 C 0.21494 0.31692 0.28956
 C1088 C 0.20792 0.34383 0.29156
 H1089 H 0.13552 0.46678 0.30329
 H1090 H 0.15682 0.42579 0.31638
 H1091 H 0.21268 0.43231 0.24566
 H1092 H 0.19032 0.47308 0.23077
 H1093 H 0.26358 0.36957 0.26035
 H1094 H 0.27622 0.32331 0.25705
 H1095 H 0.20102 0.30268 0.29781
 H1096 H 0.18859 0.34952 0.30072
 C1097 C 0.05796 0.27662 0.86618
 C1098 C 0.08102 0.27557 0.84881
 C1099 C 0.08486 0.25505 0.82836
 C1100 C 0.06531 0.23534 0.82545
 C1101 C 0.04191 0.23666 0.84229
 C1102 C 0.03731 0.25773 0.86249
 N1103 N 0.10926 0.25418 0.81178
 N1104 N 0.11767 0.23314 0.79899
 C1105 C 0.14270 0.23255 0.78363
 C1106 C 0.15966 0.21064 0.78642
 C1107 C 0.18625 0.21147 0.77674
 C1108 C 0.19608 0.23371 0.76237
 C1109 C 0.17802 0.25483 0.75743
 C1110 C 0.15173 0.25444 0.76842
 H1111 H 0.05686 0.29218 0.88259
 H1112 H 0.09636 0.29049 0.85181
 H1113 H 0.06799 0.21907 0.81002
 H1114 H 0.02700 0.22133 0.83929
 H1115 H 0.15299 0.19376 0.79841
 H1116 H 0.19948 0.19535 0.78252
 H1117 H 0.18468 0.27249 0.74692
 H1118 H 0.13875 0.27155 0.76595
 C1119 C 0.52342 0.75172 0.33013
 C1120 C 0.54657 0.75289 0.31297
 C1121 C 0.57150 0.74480 0.32391
 C1122 C 0.57333 0.73711 0.35305
 C1123 C 0.55025 0.73649 0.37046
 C1124 C 0.52447 0.74191 0.35877
 N1125 N 0.59471 0.74481 0.30534
 N1126 N 0.61563 0.73139 0.31168
 C1127 C 0.63998 0.73094 0.29500
 C1128 C 0.66077 0.71447 0.30419
 C1129 C 0.68612 0.71559 0.29159
 C1130 C 0.69151 0.73309 0.26890
 C1131 C 0.66999 0.74864 0.25844
 C1132 C 0.64436 0.74761 0.27143
 H1133 H 0.50480 0.75886 0.32072
 H1134 H 0.54499 0.75983 0.29092
 H1135 H 0.59262 0.73178 0.36245
 H1136 H 0.55242 0.73105 0.39299
 H1137 H 0.65766 0.70158 0.32232
 H1138 H 0.70191 0.70366 0.30107
 H1139 H 0.67332 0.76264 0.24143
 H1140 H 0.62844 0.76058 0.26396
 C1141 C 0.53794 0.28020 0.14598
 C1142 C 0.56160 0.28265 0.16235
 C1143 C 0.57219 0.26123 0.17725
 C1144 C 0.55815 0.23730 0.17658
 C1145 C 0.53451 0.23467 0.15984
 C1146 C 0.52468 0.25565 0.14280
 N1147 N 0.59811 0.26409 0.19092
 N1148 N 0.60815 0.24776 0.20873
 C1149 C 0.63522 0.25096 0.21955
 C1150 C 0.65338 0.26759 0.20568
 C1151 C 0.68039 0.26840 0.21421
 C1152 C 0.69001 0.25318 0.23740
 C1153 C 0.67149 0.23734 0.25206
 C1154 C 0.64442 0.23608 0.24300
 H1155 H 0.53042 0.29786 0.13598
 H1156 H 0.57192 0.30141 0.16323
 H1157 H 0.56583 0.22047 0.18820
 H1158 H 0.52430 0.21586 0.15932
 H1159 H 0.64697 0.27915 0.18735
 H1160 H 0.69389 0.28053 0.20194
 H1161 H 0.67807 0.22507 0.26974
 H1162 H 0.63073 0.22307 0.25388
 C1163 C 0.04670 0.77654 0.62704
 C1164 C 0.07097 0.77700 0.64242
 C1165 C 0.07727 0.75750 0.66228
 C1166 C 0.05911 0.73679 0.66614
 C1167 C 0.03476 0.73604 0.65033
 C1168 C 0.02744 0.75655 0.63134
 N1169 N 0.10307 0.75874 0.67642
 N1170 N 0.11030 0.74488 0.69792
 C1171 C 0.13724 0.74715 0.70951
 C1172 C 0.14439 0.73483 0.73550
 C1173 C 0.17104 0.73599 0.74609
 C1174 C 0.19107 0.74927 0.73062
 C1175 C 0.18350 0.76180 0.70474
 C1176 C 0.15703 0.76100 0.69454
 H1177 H 0.04372 0.79171 0.61121
 H1178 H 0.08523 0.79259 0.63853
 H1179 H 0.06397 0.72100 0.68077
 H1180 H 0.02139 0.71951 0.65308
 H1181 H 0.12942 0.72403 0.74734
 H1182 H 0.17607 0.72585 0.76588
 H1183 H 0.19815 0.77196 0.69182
 H1184 H 0.15228 0.77064 0.67437
 C1185 C 0.94983 0.75089 0.61842
 C1186 C 0.92603 0.74889 0.63414
 C1187 C 0.92650 0.74896 0.66447
 C1188 C 0.95124 0.75159 0.67915
 C1189 C 0.97530 0.75362 0.66338
 C1190 C 0.97520 0.75232 0.63252
 N1191 N 0.90127 0.74715 0.67928
 N1192 N 0.89848 0.74693 0.70682
 C1193 C 0.87194 0.74558 0.71917
 C1194 C 0.86839 0.74702 0.74944
 C1195 C 0.84234 0.74760 0.76143
 C1196 C 0.81939 0.74657 0.74326
 C1197 C 0.82333 0.74466 0.71293
 C1198 C 0.84909 0.74395 0.70112
 H1199 H 0.94855 0.75096 0.59489
 H1200 H 0.90700 0.74739 0.62257
 H1201 H 0.95193 0.75245 0.70270
 H1202 H 0.99360 0.75686 0.67567
 H1203 H 0.88579 0.74842 0.76370
 H1204 H 0.84028 0.74979 0.78476
 H1205 H 0.80646 0.74439 0.69790
 H1206 H 0.85103 0.74284 0.67767
 C1207 C 0.46285 0.22004 0.14366
 C1208 C 0.44047 0.21548 0.16105
 C1209 C 0.43141 0.23464 0.18109
 C1210 C 0.44616 0.25798 0.18498
 C1211 C 0.46856 0.26271 0.16735
 C1212 C 0.47617 0.24465 0.14479
 N1213 N 0.40587 0.23078 0.19474
 N1214 N 0.39693 0.24500 0.21586
 C1215 C 0.36989 0.24168 0.22619
 C1216 C 0.36197 0.25315 0.25288
 C1217 C 0.33494 0.25230 0.26176
 C1218 C 0.31521 0.24044 0.24370
 C1219 C 0.32354 0.22853 0.21718
 C1220 C 0.35050 0.22881 0.20875
 H1221 H 0.46911 0.20413 0.12912
 H1222 H 0.42968 0.19709 0.15838
 H1223 H 0.43972 0.27300 0.20067
 H1224 H 0.47909 0.28124 0.17015
 H1225 H 0.37664 0.26327 0.26653
 H1226 H 0.32941 0.26187 0.28221
 H1227 H 0.30910 0.21951 0.20236
 H1228 H 0.35594 0.22000 0.18788
 C1229 C 0.46994 0.72244 0.33606
 C1230 C 0.44736 0.72282 0.31771
 C1231 C 0.42671 0.74136 0.32238
 C1232 C 0.42847 0.75888 0.34650
 C1233 C 0.45099 0.75848 0.36492
 C1234 C 0.47292 0.74116 0.35920
 N1235 N 0.40380 0.74153 0.30313
 N1236 N 0.38528 0.75894 0.30606
 C1237 C 0.36131 0.75968 0.28856
 C1238 C 0.34089 0.77721 0.29714
 C1239 C 0.31577 0.77647 0.28359
 C1240 C 0.31051 0.75866 0.26019
 C1241 C 0.33174 0.74205 0.25039
 C1242 C 0.35692 0.74240 0.26462
 H1243 H 0.48563 0.70787 0.33177
 H1244 H 0.44601 0.70869 0.29972
 H1245 H 0.41230 0.77278 0.35132
 H1246 H 0.45078 0.77164 0.38375
 H1247 H 0.34399 0.79055 0.31560
 H1248 H 0.30007 0.78911 0.29262
 H1249 H 0.32849 0.72779 0.23284
 H1250 H 0.37255 0.72867 0.25755
 C1251 C 0.98758 0.26558 0.82979
 C1252 C 0.96460 0.26665 0.81200
 C1253 C 0.93903 0.26239 0.82350
 C1254 C 0.93659 0.25853 0.85357
 C1255 C 0.95949 0.25794 0.87149
 C1256 C 0.98568 0.25985 0.85978
 N1257 N 0.91592 0.26171 0.80443
 N1258 N 0.89390 0.25175 0.81283
 C1259 C 0.86964 0.25012 0.79577
 C1260 C 0.84844 0.23591 0.80717
 C1261 C 0.82366 0.23479 0.79302
 C1262 C 0.81903 0.24814 0.76679
 C1263 C 0.84080 0.26175 0.75462
 C1264 C 0.86600 0.26276 0.76904
 H1265 H 1.00670 0.26958 0.81972
 H1266 H 0.96680 0.27042 0.78905
 H1267 H 0.91696 0.25597 0.86327
 H1268 H 0.95687 0.25514 0.89459
 H1269 H 0.85098 0.22604 0.82767
 H1270 H 0.80783 0.22412 0.80364
 H1271 H 0.83812 0.27244 0.73474
 H1272 H 0.88223 0.27394 0.75981
 C1273 C 0.63497 0.97818 0.69293
 C1274 C 0.61979 0.96958 0.66898
 C1275 C 0.59327 0.97808 0.66538
 C1276 C 0.58247 0.99671 0.68530
 C1277 C 0.59796 1.00588 0.70905
 C1278 C 0.62409 0.99547 0.71468
 N1279 N 0.57864 0.96900 0.64015
 N1280 N 0.55306 0.97040 0.63827
 C1281 C 0.53895 0.96305 0.61200
 C1282 C 0.51090 0.96565 0.61115
 C1283 C 0.49716 0.96460 0.58454
 C1284 C 0.51138 0.96174 0.55805
 C1285 C 0.53893 0.95501 0.55960
 C1286 C 0.55271 0.95597 0.58627
 H1287 H 0.65537 0.97105 0.69364
 H1288 H 0.62880 0.95611 0.65307
 H1289 H 0.56240 1.00473 0.68205
 H1290 H 0.58940 1.02144 0.72269
 H1291 H 0.49988 0.97046 0.63089
 H1292 H 0.47573 0.96894 0.58470
 H1293 H 0.55043 0.95061 0.54034
 H1294 H 0.57434 0.95286 0.58643
 C1295 C 0.13451 0.46334 1.20603
 C1296 C 0.12186 0.45712 1.17949
 C1297 C 0.10326 0.47456 1.16738
 C1298 C 0.09797 0.49879 1.18163
 C1299 C 0.11137 0.50556 1.20754
 C1300 C 0.13015 0.48809 1.22045
 N1301 N 0.09038 0.46784 1.14027
 N1302 N 0.06590 0.47432 1.13566
 C1303 C 0.05286 0.47072 1.10798
 C1304 C 0.02494 0.47419 1.10634
 C1305 C 0.01225 0.47730 1.07944
 C1306 C 0.02747 0.47804 1.05357
 C1307 C 0.05499 0.47104 1.05517
 C1308 C 0.06763 0.46750 1.08214
 H1309 H 0.14713 0.44815 1.21497
 H1310 H 0.12593 0.43824 1.16880
 H1311 H 0.08378 0.51269 1.17242
 H1312 H 0.10691 0.52455 1.21781
 H1313 H 0.01321 0.47632 1.12608
 H1314 H -0.00912 0.48189 1.07944
 H1315 H 0.06736 0.46995 1.03609
 H1316 H 0.08924 0.46432 1.08285
 C1317 C -0.11973 -0.02179 1.18837
 C1318 C -0.10443 -0.01727 1.16360
 C1319 C -0.09062 0.00643 1.16066
 C1320 C -0.09099 0.02519 1.18351
 C1321 C -0.10646 0.02079 1.20827
 C1322 C -0.12258 -0.00203 1.21032
 N1323 N -0.07773 0.01117 1.13355
 N1324 N -0.06241 0.03064 1.12878
 C1325 C -0.05188 0.03368 1.10005
 C1326 C -0.02676 0.04547 1.09580
 C1327 C -0.01439 0.04389 1.06832
 C1328 C -0.02721 0.03069 1.04479
 C1329 C -0.05354 0.02122 1.04896
 C1330 C -0.06568 0.02280 1.07607
 H1331 H -0.12929 -0.04076 1.18994
 H1332 H -0.10359 -0.03222 1.14638
 H1333 H -0.08002 0.04348 1.18190
 H1334 H -0.10684 0.03579 1.22545
 H1335 H -0.01598 0.05421 1.11410
 H1336 H 0.00589 0.05132 1.06610
 H1337 H -0.06428 0.01063 1.03188
 H1338 H -0.08538 0.01411 1.07864
 C1339 C 0.40341 0.51894 0.72995
 C1340 C 0.41866 0.52584 0.70582
 C1341 C 0.41366 0.51395 0.67866
 C1342 C 0.39372 0.49445 0.67611
 C1343 C 0.37882 0.48715 0.70025
 C1344 C 0.38352 0.49907 0.72783
 N1345 N 0.42870 0.52171 0.65374
 N1346 N 0.41918 0.51690 0.62848
 C1347 C 0.43290 0.52126 0.60180
 C1348 C 0.42004 0.51252 0.57651
 C1349 C 0.43410 0.51017 0.55062
 C1350 C 0.46137 0.51774 0.54875
 C1351 C 0.47367 0.52884 0.57389
 C1352 C 0.45959 0.53032 0.60043
 H1353 H 0.40695 0.52928 0.75049
 H1354 H 0.43384 0.54098 0.70814
 H1355 H 0.38945 0.48492 0.65528
 H1356 H 0.36300 0.47289 0.69674
 H1357 H 0.39961 0.50518 0.57745
 H1358 H 0.42390 0.50009 0.53283
 H1359 H 0.49472 0.53433 0.57366
 H1360 H 0.46995 0.53707 0.61997
 C1361 C 0.40966 0.47942 -0.21998
 C1362 C 0.42388 0.47184 -0.19520
 C1363 C 0.41096 0.47083 -0.16837
 C1364 C 0.38324 0.47668 -0.16673
 C1365 C 0.36899 0.48429 -0.19146
 C1366 C 0.38212 0.48708 -0.21837
 N1367 N 0.42665 0.46592 -0.14278
 N1368 N 0.41568 0.46649 -0.11784
 C1369 C 0.43054 0.46498 -0.09124
 C1370 C 0.41788 0.47463 -0.06622
 C1371 C 0.43277 0.47994 -0.04118
 C1372 C 0.46062 0.47406 -0.03975
 C1373 C 0.47288 0.46207 -0.06439
 C1374 C 0.45803 0.45795 -0.09019
 H1375 H 0.42047 0.47875 -0.24033
 H1376 H 0.44514 0.46696 -0.19687
 H1377 H 0.37260 0.47573 -0.14628
 H1378 H 0.34758 0.48835 -0.18955
 H1379 H 0.39684 0.48054 -0.06698
 H1380 H 0.42251 0.49071 -0.02393
 H1381 H 0.49430 0.45775 -0.06451
 H1382 H 0.46821 0.45049 -0.10952
 C1383 C -0.10484 0.96811 0.26351
 C1384 C -0.08932 0.96232 0.28808
 C1385 C -0.08918 0.97980 0.31201
 C1386 C -0.10226 1.00437 0.30992
 C1387 C -0.11722 1.01045 0.28517
 C1388 C -0.12070 0.99146 0.26255
 N1389 N -0.07690 0.97221 0.33882
 N1390 N -0.08754 0.98012 0.36263
 C1391 C -0.07639 0.97561 0.39080
 C1392 C -0.09090 0.98519 0.41473
 C1393 C -0.07887 0.98689 0.44206
 C1394 C -0.05194 0.97862 0.44626
 C1395 C -0.03824 0.96654 0.42255
 C1396 C -0.05035 0.96517 0.39490
 H1397 H -0.10585 0.95358 0.24588
 H1398 H -0.07871 0.94359 0.28909
 H1399 H -0.10123 1.01871 0.32773
 H1400 H -0.12651 1.02978 0.28439
 H1401 H -0.11096 0.99336 0.41175
 H1402 H -0.09007 0.99707 0.45910
 H1403 H -0.01743 0.96023 0.42468
 H1404 H -0.03878 0.95762 0.37654
 C1405 C 0.09712 0.48468 0.27308
 C1406 C 0.07608 0.48904 0.29265
 C1407 C 0.07489 0.51218 0.30969
 C1408 C 0.09393 0.53196 0.30541
 C1409 C 0.11504 0.52773 0.28563
 C1410 C 0.11811 0.50318 0.27045
 N1411 N 0.05636 0.51323 0.33343
 N1412 N 0.05333 0.53291 0.35093
 C1413 C 0.03701 0.53029 0.37643
 C1414 C 0.02888 0.50522 0.38492
 C1415 C 0.01718 0.50180 0.41188
 C1416 C 0.01291 0.52334 0.43139
 C1417 C 0.01861 0.54884 0.42168
 C1418 C 0.03124 0.55221 0.39467
 H1419 H 0.09794 0.46600 0.26113
 H1420 H 0.06136 0.47368 0.29564
 H1421 H 0.09307 0.55025 0.31805
 H1422 H 0.12894 0.54373 0.28303
 H1423 H 0.03276 0.48787 0.37131
 H1424 H 0.01227 0.48182 0.41760
 H1425 H 0.01447 0.56605 0.43531
 H1426 H 0.03710 0.57177 0.38832
 C1427 C 0.63583 0.03349 -0.21139
 C1428 C 0.62253 0.04116 -0.18593
 C1429 C 0.59704 0.03162 -0.17988
 C1430 C 0.58460 0.01430 -0.19990
 C1431 C 0.59819 0.00599 -0.22527
 C1432 C 0.62420 0.01560 -0.23200
 N1433 N 0.58658 0.03611 -0.15126
 N1434 N 0.56155 0.03641 -0.14526
 C1435 C 0.55313 0.03730 -0.11545
 C1436 C 0.52727 0.04638 -0.10793
 C1437 C 0.51770 0.04368 -0.07948
 C1438 C 0.53354 0.03092 -0.05836
 C1439 C 0.55984 0.02274 -0.06608
 C1440 C 0.56968 0.02641 -0.09396
 H1441 H 0.65583 0.04112 -0.21370
 H1442 H 0.63266 0.05394 -0.17020
 H1443 H 0.56527 0.00574 -0.19493
 H1444 H 0.58894 -0.00935 -0.23858
 H1445 H 0.51421 0.05471 -0.12434
 H1446 H 0.49720 0.04985 -0.07472
 H1447 H 0.57239 0.01166 -0.05137
 H1448 H 0.58956 0.01879 -0.09933
 C1449 C 0.69588 0.61704 -0.01981
 C1450 C 0.67077 0.60564 -0.02381
 C1451 C 0.66820 0.57832 -0.02540
 C1452 C 0.69156 0.56234 -0.02554
 C1453 C 0.71715 0.57389 -0.02186
 C1454 C 0.71941 0.60141 -0.01668
 N1455 N 0.64148 0.56809 -0.02367
 N1456 N 0.63519 0.54381 -0.02550
 C1457 C 0.60772 0.53638 -0.02046
 C1458 C 0.59859 0.51128 -0.02893
 C1459 C 0.57200 0.50377 -0.02305
 C1460 C 0.55417 0.52115 -0.00807
 C1461 C 0.56376 0.54620 0.00059
 C1462 C 0.58994 0.55380 -0.00576
 H1463 H 0.69676 0.63832 -0.01718
 H1464 H 0.65296 0.61817 -0.02409
 H1465 H 0.68998 0.54108 -0.02751
 H1466 H 0.73472 0.56118 -0.02245
 H1467 H 0.61207 0.49749 -0.04003
 H1468 H 0.56568 0.48416 -0.02976
 H1469 H 0.55139 0.55986 0.01319
 H1470 H 0.59654 0.57313 0.00167
 C1471 C 0.18465 1.11606 0.48723
 C1472 C 0.15917 1.10575 0.48120
 C1473 C 0.15522 1.07852 0.48046
 C1474 C 0.17742 1.06156 0.48428
 C1475 C 0.20307 1.07182 0.48982
 C1476 C 0.20702 1.09936 0.49287
 N1477 N 0.12838 1.06867 0.47714
 N1478 N 0.12262 1.04484 0.48243
 C1479 C 0.09557 1.03529 0.48069
 C1480 C 0.08930 1.01214 0.49495
 C1481 C 0.06255 1.00417 0.49726
 C1482 C 0.04143 1.01916 0.48502
 C1483 C 0.04820 1.04110 0.46842
 C1484 C 0.07496 1.04941 0.46672
 H1485 H 0.18685 1.13731 0.48828
 H1486 H 0.14227 1.11906 0.47796
 H1487 H 0.17494 1.04035 0.48302
 H1488 H 0.21949 1.05784 0.49157
 H1489 H 0.10506 1.00095 0.50559
 H1490 H 0.05852 0.98680 0.50971
 H1491 H 0.03290 1.05244 0.45750
 H1492 H 0.07947 1.06710 0.45499
 C1493 C 0.22376 -0.07950 0.97510
 C1494 C 0.20002 -0.06452 0.97588
 C1495 C 0.18272 -0.06564 0.99966
 C1496 C 0.18912 -0.08231 1.02258
 C1497 C 0.21238 -0.09809 1.02141
 C1498 C 0.23067 -0.09656 0.99792
 N1499 N 0.15703 -0.05281 0.99815
 N1500 N 0.14442 -0.04400 1.02046
 C1501 C 0.11729 -0.03471 1.01713
 C1502 C 0.10818 -0.01166 1.03157
 C1503 C 0.08201 -0.00194 1.02635
 C1504 C 0.06446 -0.01560 1.00718
 C1505 C 0.07355 -0.03964 0.99439
 C1506 C 0.09964 -0.04878 0.99893
 H1507 H 0.23664 -0.07813 0.95626
 H1508 H 0.19487 -0.05225 0.95766
 H1509 H 0.17529 -0.08427 1.04055
 H1510 H 0.21518 -0.11200 1.03860
 H1511 H 0.12161 -0.00077 1.04601
 H1512 H 0.07572 0.01639 1.03697
 H1513 H 0.06096 -0.05105 0.97965
 H1514 H 0.10618 -0.06691 0.98804
 C1515 C 0.71618 0.41147 0.48471
 C1516 C 0.69185 0.42545 0.48469
 C1517 C 0.67438 0.42418 0.50828
 C1518 C 0.68106 0.40821 0.53171
 C1519 C 0.70498 0.39338 0.53135
 C1520 C 0.72351 0.39529 0.50816
 N1521 N 0.64840 0.43629 0.50616
 N1522 N 0.63555 0.44560 0.52807
 C1523 C 0.60830 0.45426 0.52416
 C1524 C 0.59845 0.47716 0.53831
 C1525 C 0.57208 0.48613 0.53272
 C1526 C 0.55511 0.47185 0.51348
 C1527 C 0.56501 0.44808 0.50086
 C1528 C 0.59126 0.43966 0.50577
 H1529 H 0.72934 0.41311 0.46613
 H1530 H 0.68649 0.43717 0.46611
 H1531 H 0.66709 0.40613 0.54954
 H1532 H 0.70824 0.38004 0.54900
 H1533 H 0.61141 0.48844 0.55287
 H1534 H 0.56513 0.50427 0.54326
 H1535 H 0.55266 0.43591 0.48662
 H1536 H 0.59834 0.42157 0.49522
 C1537 C -0.19932 0.38460 0.50128
 C1538 C -0.17590 0.39929 0.50028
 C1539 C -0.17709 0.42673 0.50212
 C1540 C -0.20202 0.43962 0.50559
 C1541 C -0.22569 0.42487 0.50720
 C1542 C -0.22483 0.39698 0.50429
 N1543 N -0.15224 0.44054 0.50232
 N1544 N -0.14987 0.46515 0.49829
 C1545 C -0.12350 0.47625 0.50033
 C1546 C -0.11675 0.49839 0.48431
 C1547 C -0.08989 0.50685 0.48345
 C1548 C -0.06961 0.49332 0.49886
 C1549 C -0.07713 0.47204 0.51607
 C1550 C -0.10359 0.46369 0.51684
 H1551 H -0.19761 0.36329 0.49956
 H1552 H -0.15661 0.38923 0.49808
 H1553 H -0.20309 0.46092 0.50793
 H1554 H -0.24429 0.43552 0.51128
 H1555 H -0.13199 0.50834 0.47156
 H1556 H -0.08498 0.52347 0.47016
 H1557 H -0.06246 0.46090 0.52829
 H1558 H -0.10837 0.44679 0.52978
 C1559 C 0.30655 -0.11296 -0.01315
 C1560 C 0.33094 -0.10013 -0.01626
 C1561 C 0.33209 -0.07269 -0.01462
 C1562 C 0.30853 -0.05791 -0.00923
 C1563 C 0.28388 -0.07078 -0.00572
 C1564 C 0.28234 -0.09864 -0.00844
 N1565 N 0.35807 -0.06102 -0.01587
 N1566 N 0.36271 -0.03654 -0.01859
 C1567 C 0.39017 -0.02795 -0.01718
 C1568 C 0.39764 -0.00305 -0.02696
 C1569 C 0.42472 0.00497 -0.02513
 C1570 C 0.44451 -0.01176 -0.01313
 C1571 C 0.43641 -0.03649 -0.00313
 C1572 C 0.40991 -0.04448 -0.00528
 H1573 H 0.30644 -0.13432 -0.01474
 H1574 H 0.34918 -0.11168 -0.01976
 H1575 H 0.30932 -0.03662 -0.00691
 H1576 H 0.26642 -0.05876 -0.00041
 H1577 H 0.38259 0.01005 -0.03601
 H1578 H 0.43002 0.02431 -0.03269
 H1579 H 0.45026 -0.04968 0.00755
 H1580 H 0.40478 -0.06356 0.00313
 C1581 C 0.25709 1.07283 0.52635
 C1582 C 0.27934 1.05644 0.53247
 C1583 C 0.30315 1.05847 0.51648
 C1584 C 0.30395 1.07624 0.49358
 C1585 C 0.28208 1.09247 0.48752
 C1586 C 0.25784 1.09115 0.50349
 N1587 N 0.32708 1.04394 0.52419
 N1588 N 0.34956 1.05268 0.51555
 C1589 C 0.37554 1.04080 0.51898
 C1590 C 0.39707 1.05442 0.50750
 C1591 C 0.42247 1.04297 0.50591
 C1592 C 0.42748 1.01752 0.51647
 C1593 C 0.40586 1.00410 0.52928
 C1594 C 0.37989 1.01563 0.53039
 H1595 H 0.23942 1.07181 0.54001
 H1596 H 0.27837 1.04300 0.55039
 H1597 H 0.32205 1.07835 0.48078
 H1598 H 0.28546 1.10700 0.47124
 H1599 H 0.39377 1.07363 0.49817
 H1600 H 0.43760 1.05368 0.49436
 H1601 H 0.40870 0.98435 0.53730
 H1602 H 0.36326 1.00467 0.53914
 C1603 C -0.23004 0.57594 1.01692
 C1604 C -0.20604 0.56258 1.02452
 C1605 C -0.18084 0.57335 1.01806
 C1606 C -0.18005 0.59784 1.00460
 C1607 C -0.20360 0.61075 0.99678
 C1608 C -0.22927 0.59950 1.00102
 N1609 N -0.15609 0.55954 1.02442
 N1610 N -0.13386 0.57148 1.02099
 C1611 C -0.10745 0.56026 1.02362
 C1612 C -0.08582 0.57624 1.01651
 C1613 C -0.05994 0.56574 1.01378
 C1614 C -0.05474 0.53888 1.01885
 C1615 C -0.07648 0.52308 1.02761
 C1616 C -0.10272 0.53364 1.02976
 H1617 H -0.24905 0.56793 1.02380
 H1618 H -0.20711 0.54409 1.03575
 H1619 H -0.16107 0.60720 0.99989
 H1620 H -0.20139 0.63001 0.98745
 H1621 H -0.08938 0.59670 1.01120
 H1622 H -0.04472 0.57847 1.00534
 H1623 H -0.07357 0.50225 1.03141
 H1624 H -0.11929 0.52088 1.03509
 C1625 C 0.02633 0.72999 0.57242
 C1626 C 0.03101 0.70781 0.55415
 C1627 C 0.01358 0.68625 0.55448
 C1628 C -0.00792 0.68667 0.57409
 C1629 C -0.01198 0.70821 0.59313
 C1630 C 0.00440 0.73095 0.59207
 N1631 N 0.01906 0.66296 0.53703
 N1632 N -0.00014 0.64943 0.52597
 C1633 C 0.00392 0.62399 0.51219
 C1634 C -0.01565 0.61414 0.49284
 C1635 C -0.01532 0.58752 0.48383
 C1636 C 0.00421 0.56991 0.49475
 C1637 C 0.02455 0.58036 0.51318
 C1638 C 0.02469 0.60714 0.52135
 H1639 H 0.04005 0.74644 0.57145
 H1640 H 0.04817 0.70751 0.53965
 H1641 H -0.02091 0.66969 0.57560
 H1642 H -0.02769 0.70623 0.60906
 H1643 H -0.03199 0.62685 0.48584
 H1644 H -0.03155 0.58044 0.46997
 H1645 H 0.03943 0.56757 0.52302
 H1646 H 0.03972 0.61415 0.53678
 C1647 C 0.48121 0.22422 0.08001
 C1648 C 0.48237 0.20286 0.06020
 C1649 C 0.50520 0.18656 0.05891
 C1650 C 0.52780 0.19324 0.07603
 C1651 C 0.52684 0.21484 0.09558
 C1652 C 0.50281 0.22971 0.09946
 N1653 N 0.50420 0.16226 0.04218
 N1654 N 0.52162 0.14410 0.04616
 C1655 C 0.52073 0.11858 0.03208
 C1656 C 0.53619 0.09848 0.04411
 C1657 C 0.53373 0.07255 0.03392
 C1658 C 0.51659 0.06603 0.01029
 C1659 C 0.50180 0.08657 -0.00269
 C1660 C 0.50362 0.11265 0.00834
 H1661 H 0.46272 0.23573 0.08134
 H1662 H 0.46489 0.19823 0.04687
 H1663 H 0.54609 0.18143 0.07475
 H1664 H 0.54496 0.21928 0.10774
 H1665 H 0.54924 0.10274 0.06256
 H1666 H 0.54501 0.05752 0.04520
 H1667 H 0.48811 0.08237 -0.02059
 H1668 H 0.49139 0.12799 -0.00126
 C1669 C 0.03296 0.22863 0.91842
 C1670 C 0.03435 0.20594 0.93523
 C1671 C 0.01540 0.18590 0.93131
 C1672 C -0.00444 0.18858 0.90955
 C1673 C -0.00587 0.21119 0.89283
 C1674 C 0.01194 0.23241 0.89788
 N1675 N 0.01704 0.16253 0.94845
 N1676 N -0.00004 0.14425 0.94414
 C1677 C -0.00037 0.11943 0.95832
 C1678 C -0.01696 0.10023 0.94604
 C1679 C -0.01674 0.07481 0.95638
 C1680 C -0.00087 0.06780 0.98066
 C1681 C 0.01534 0.08753 0.99383
 C1682 C 0.01579 0.11323 0.98255
 H1683 H 0.04799 0.24377 0.92195
 H1684 H 0.05025 0.20396 0.95128
 H1685 H -0.01881 0.17301 0.90515
 H1686 H -0.02080 0.21143 0.87568
 H1687 H -0.02926 0.10470 0.92720
 H1688 H -0.02861 0.06046 0.94432
 H1689 H 0.02839 0.08285 1.01197
 H1690 H 0.02892 0.12795 0.99233
 C1691 C 0.47449 0.71194 0.41454
 C1692 C 0.47009 0.68854 0.42923
 C1693 C 0.48767 0.66708 0.42547
 C1694 C 0.50912 0.66883 0.40590
 C1695 C 0.51293 0.69187 0.39019
 C1696 C 0.49627 0.71437 0.39499
 N1697 N 0.48203 0.64275 0.43932
 N1698 N 0.49965 0.63099 0.45466
 C1699 C 0.49468 0.60545 0.46627
 C1700 C 0.50838 0.59745 0.49133
 C1701 C 0.50568 0.57165 0.50130
 C1702 C 0.48988 0.55306 0.48576
 C1703 C 0.47600 0.56150 0.46073
 C1704 C 0.47792 0.58746 0.45148
 H1705 H 0.46061 0.72829 0.41821
 H1706 H 0.45301 0.68719 0.44369
 H1707 H 0.52217 0.65190 0.40185
 H1708 H 0.52848 0.69142 0.37384
 H1709 H 0.52155 0.61109 0.50287
 H1710 H 0.51706 0.56599 0.52035
 H1711 H 0.46437 0.54782 0.44742
 H1712 H 0.46751 0.59304 0.43177
 C1713 C 0.50871 0.76213 0.42924
 C1714 C 0.51028 0.78433 0.44798
 C1715 C 0.50485 0.80955 0.43763
 C1716 C 0.49976 0.81248 0.40778
 C1717 C 0.49885 0.79044 0.38894
 C1718 C 0.50146 0.76462 0.39954
 N1719 N 0.50374 0.83191 0.45747
 N1720 N 0.48859 0.85143 0.45138
 C1721 C 0.48598 0.87544 0.46828
 C1722 C 0.46553 0.89276 0.46020
 C1723 C 0.46407 0.91813 0.47219
 C1724 C 0.48341 0.92727 0.49263
 C1725 C 0.50262 0.90893 0.50287
 C1726 C 0.50412 0.88317 0.49050
 H1727 H 0.51323 0.74309 0.43828
 H1728 H 0.51501 0.78177 0.47077
 H1729 H 0.49640 0.83188 0.39901
 H1730 H 0.49506 0.79349 0.36604
 H1731 H 0.45128 0.88695 0.44335
 H1732 H 0.44845 0.93088 0.46374
 H1733 H 0.51766 0.91501 0.51870
 H1734 H 0.52011 0.86992 0.49719
 C1735 C 0.00490 0.28196 0.93130
 C1736 C 0.00413 0.30496 0.94879
 C1737 C 0.00524 0.32975 0.93630
 C1738 C 0.00673 0.33130 0.90586
 C1739 C 0.00805 0.30840 0.88841
 C1740 C 0.00838 0.28313 0.90074
 N1741 N 0.00433 0.35314 0.95454
 N1742 N -0.00188 0.37517 0.94355
 C1743 C -0.00274 0.39991 0.95916
 C1744 C -0.01519 0.42086 0.94534
 C1745 C -0.01478 0.44605 0.95773
 C1746 C -0.00143 0.45130 0.98444
 C1747 C 0.01041 0.42991 0.99901
 C1748 C 0.00974 0.40426 0.98643
 H1749 H 0.00247 0.26350 0.94215
 H1750 H 0.00212 0.30344 0.97214
 H1751 H 0.00726 0.35026 0.89551
 H1752 H 0.00955 0.31037 0.86506
 H1753 H -0.02481 0.41773 0.92434
 H1754 H -0.02424 0.46159 0.94544
 H1755 H 0.02096 0.43306 1.01941
 H1756 H 0.01968 0.38817 0.99739
 C1757 C 0.46784 0.29124 0.10856
 C1758 C 0.46395 0.31507 0.09438
 C1759 C 0.48374 0.32480 0.07607
 C1760 C 0.50718 0.30974 0.07094
 C1761 C 0.51134 0.28607 0.08548
 C1762 C 0.49245 0.27705 0.10596
 N1763 N 0.48044 0.35086 0.06506
 N1764 N 0.49475 0.35988 0.04466
 C1765 C 0.49230 0.38696 0.03646
 C1766 C 0.50242 0.39495 0.00968
 C1767 C 0.50155 0.42164 0.00221
 C1768 C 0.49110 0.44091 0.02179
 C1769 C 0.48106 0.43261 0.04869
 C1770 C 0.48130 0.40601 0.05574
 H1771 H 0.45140 0.28442 0.12159
 H1772 H 0.44548 0.32623 0.09798
 H1773 H 0.52272 0.31675 0.05665
 H1774 H 0.53001 0.27527 0.08179
 H1775 H 0.51114 0.38050 -0.00534
 H1776 H 0.50961 0.42720 -0.01859
 H1777 H 0.47294 0.44669 0.06451
 H1778 H 0.47364 0.40044 0.07671
 C1779 C -0.00795 0.80478 0.61471
 C1780 C -0.01335 0.82905 0.60222
 C1781 C -0.01539 0.83115 0.57209
 C1782 C -0.01246 0.80833 0.55437
 C1783 C -0.00739 0.78370 0.56692
 C1784 C -0.00439 0.78155 0.59745
 N1785 N -0.02047 0.85684 0.56068
 N1786 N -0.01962 0.86239 0.53381
 C1787 C -0.02443 0.88905 0.52482
 C1788 C -0.01695 0.89670 0.49689
 C1789 C -0.01837 0.92336 0.48920
 C1790 C -0.02751 0.94282 0.50933
 C1791 C -0.03664 0.93465 0.53664
 C1792 C -0.03505 0.90820 0.54430
 H1793 H -0.00635 0.80409 0.63819
 H1794 H -0.01575 0.84645 0.61615
 H1795 H -0.01440 0.80947 0.53097
 H1796 H -0.00623 0.76657 0.55255
 H1797 H -0.00889 0.88219 0.48152
 H1798 H -0.01128 0.92879 0.46795
 H1799 H -0.04424 0.94877 0.55269
 H1800 H -0.04144 0.90287 0.56585
 C1801 C 0.24455 0.34122 0.03299
 C1802 C 0.23839 0.32592 0.05678
 C1803 C 0.22919 0.33774 0.08261
 C1804 C 0.22649 0.36530 0.08473
 C1805 C 0.23261 0.38071 0.06091
 C1806 C 0.24083 0.36895 0.03416
 N1807 N 0.22493 0.32137 0.10696
 N1808 N 0.21722 0.33044 0.13160
 C1809 C 0.21552 0.31361 0.15602
 C1810 C 0.21285 0.32493 0.18383
 C1811 C 0.21719 0.30969 0.20834
 C1812 C 0.22445 0.28282 0.20546
 C1813 C 0.22382 0.27102 0.17736
 C1814 C 0.21964 0.28626 0.15291
 H1815 H 0.25288 0.33107 0.01411
 H1816 H 0.24144 0.30474 0.05534
 H1817 H 0.22008 0.37492 0.10484
 H1818 H 0.23070 0.40197 0.06317
 H1819 H 0.20903 0.34593 0.18652
 H1820 H 0.21543 0.31948 0.22917
 H1821 H 0.22835 0.25024 0.17390
 H1822 H 0.22115 0.27688 0.13156
 C1823 C 0.74343 0.83619 0.54425
 C1824 C 0.73797 0.82037 0.56787
 C1825 C 0.72235 0.83001 0.59103
 C1826 C 0.71242 0.85597 0.59063
 C1827 C 0.71777 0.87184 0.56691
 C1828 C 0.73240 0.86191 0.54259
 N1829 N 0.71915 0.81366 0.61564
 N1830 N 0.70637 0.82074 0.63853
 C1831 C 0.70635 0.80403 0.66324
 C1832 C 0.69897 0.81448 0.69056
 C1833 C 0.70594 0.80105 0.71585
 C1834 C 0.72116 0.77747 0.71399
 C1835 C 0.72446 0.76522 0.68637
 C1836 C 0.71731 0.77844 0.66128
 H1837 H 0.75681 0.82821 0.52772
 H1838 H 0.74662 0.80069 0.56854
 H1839 H 0.70103 0.86414 0.60881
 H1840 H 0.71045 0.89205 0.56754
 H1841 H 0.68976 0.83390 0.69241
 H1842 H 0.70112 0.81016 0.73668
 H1843 H 0.73466 0.74636 0.68372
 H1844 H 0.72228 0.76943 0.64036
 C1845 C 0.24182 0.61987 0.54653
 C1846 C 0.24894 0.63112 0.57327
 C1847 C 0.27026 0.64873 0.57564
 C1848 C 0.28525 0.65458 0.55085
 C1849 C 0.27839 0.64291 0.52382
 C1850 C 0.25571 0.62622 0.52085
 N1851 N 0.27546 0.66012 0.60379
 N1852 N 0.29200 0.67858 0.60969
 C1853 C 0.29349 0.68852 0.63919
 C1854 C 0.30348 0.71385 0.64539
 C1855 C 0.29898 0.72599 0.67279
 C1856 C 0.28428 0.71291 0.69425
 C1857 C 0.27649 0.68664 0.68843
 C1858 C 0.28142 0.67452 0.66159
 H1859 H 0.22577 0.60560 0.54656
 H1860 H 0.23767 0.62605 0.59247
 H1861 H 0.30221 0.66784 0.55242
 H1862 H 0.29058 0.64710 0.50502
 H1863 H 0.31295 0.72490 0.62841
 H1864 H 0.30518 0.74625 0.67630
 H1865 H 0.26470 0.67582 0.70381
 H1866 H 0.27387 0.65476 0.65769
 C1867 C 0.78049 0.11991 0.03355
 C1868 C 0.78787 0.13227 0.05973
 C1869 C 0.77975 0.15816 0.06606
 C1870 C 0.76373 0.17163 0.04590
 C1871 C 0.75570 0.15901 0.01980
 C1872 C 0.76476 0.13313 0.01256
 N1873 N 0.78444 0.16856 0.09481
 N1874 N 0.78503 0.19312 0.10130
 C1875 C 0.78620 0.20173 0.13124
 C1876 C 0.79398 0.22753 0.13879
 C1877 C 0.79130 0.23713 0.16757
 C1878 C 0.77995 0.22127 0.18907
 C1879 C 0.77306 0.19511 0.18122
 C1880 C 0.77669 0.18534 0.15299
 H1881 H 0.78644 0.09946 0.03012
 H1882 H 0.79934 0.12132 0.07560
 H1883 H 0.75611 0.19126 0.05110
 H1884 H 0.74158 0.16927 0.00603
 H1885 H 0.80120 0.24050 0.12220
 H1886 H 0.79635 0.25751 0.17242
 H1887 H 0.76300 0.18245 0.19625
 H1888 H 0.77006 0.16548 0.14771
 C1889 C 0.72907 0.12012 0.93764
 C1890 C 0.72035 0.13316 0.91296
 C1891 C 0.72830 0.15898 0.90825
 C1892 C 0.74636 0.17128 0.92783
 C1893 C 0.75568 0.15796 0.95234
 C1894 C 0.74587 0.13268 0.95863
 N1895 N 0.71970 0.17131 0.88211
 N1896 N 0.72017 0.19619 0.87920
 C1897 C 0.71432 0.20797 0.85186
 C1898 C 0.71715 0.23521 0.84949
 C1899 C 0.71956 0.24630 0.82213
 C1900 C 0.72008 0.23005 0.79672
 C1901 C 0.71230 0.20360 0.79918
 C1902 C 0.70980 0.19250 0.82656
 H1903 H 0.72241 0.10006 0.94050
 H1904 H 0.70728 0.12309 0.89744
 H1905 H 0.75388 0.19083 0.92368
 H1906 H 0.77068 0.16744 0.96603
 H1907 H 0.71996 0.24752 0.86884
 H1908 H 0.72427 0.26709 0.82129
 H1909 H 0.71008 0.19083 0.78036
 H1910 H 0.70647 0.17147 0.82783
 C1911 C 0.24299 0.65951 0.47050
 C1912 C 0.23605 0.67597 0.44766
 C1913 C 0.23003 0.66537 0.42010
 C1914 C 0.23152 0.63801 0.41528
 C1915 C 0.23895 0.62153 0.43789
 C1916 C 0.24519 0.63187 0.46598
 N1917 N 0.22408 0.68291 0.39701
 N1918 N 0.21394 0.67516 0.37281
 C1919 C 0.21123 0.69284 0.34910
 C1920 C 0.20137 0.68349 0.32221
 C1921 C 0.20485 0.69831 0.29717
 C1922 C 0.21947 0.72197 0.29861
 C1923 C 0.22558 0.73289 0.32635
 C1924 C 0.22161 0.71845 0.35128
 H1925 H 0.24554 0.66873 0.49172
 H1926 H 0.23483 0.69711 0.45159
 H1927 H 0.22712 0.62938 0.39403
 H1928 H 0.23934 0.60041 0.43366
 H1929 H 0.19254 0.66405 0.32032
 H1930 H 0.19774 0.69029 0.27656
 H1931 H 0.23534 0.75181 0.32897
 H1932 H 0.22859 0.72657 0.37194
 C1933 C 0.76341 0.87918 0.46838
 C1934 C 0.77136 0.86686 0.44240
 C1935 C 0.76268 0.84144 0.43528
 C1936 C 0.74438 0.82899 0.45351
 C1937 C 0.73557 0.84176 0.47918
 C1938 C 0.74652 0.86630 0.48820
 N1939 N 0.76966 0.83039 0.40748
 N1940 N 0.77315 0.80578 0.40247
 C1941 C 0.77657 0.79634 0.37307
 C1942 C 0.78774 0.77130 0.36692
 C1943 C 0.78756 0.76086 0.33828
 C1944 C 0.77539 0.77506 0.31563
 C1945 C 0.76489 0.80045 0.32232
 C1946 C 0.76611 0.81113 0.35027
 H1947 H 0.77067 0.89892 0.47299
 H1948 H 0.78436 0.87718 0.42769
 H1949 H 0.73613 0.80996 0.44729
 H1950 H 0.72044 0.83225 0.49206
 H1951 H 0.79572 0.75954 0.38439
 H1952 H 0.79518 0.74101 0.33432
 H1953 H 0.75377 0.81168 0.30651
 H1954 H 0.75683 0.83028 0.35443
 C1955 C 0.23106 0.35387 0.96972
 C1956 C 0.23526 0.33568 0.94701
 C1957 C 0.26033 0.33356 0.93347
 C1958 C 0.28070 0.35140 0.94117
 C1959 C 0.27637 0.37010 0.96367
 C1960 C 0.25210 0.37030 0.97990
 N1961 N 0.26371 0.31340 0.91154
 N1962 N 0.28595 0.30642 0.89975
 C1963 C 0.28554 0.28617 0.87730
 C1964 C 0.30812 0.28105 0.85960
 C1965 C 0.30537 0.26580 0.83371
 C1966 C 0.27966 0.25748 0.82448
 C1967 C 0.25857 0.25884 0.84501
 C1968 C 0.26149 0.27291 0.87096
 H1969 H 0.21177 0.35392 0.98062
 H1970 H 0.21911 0.32249 0.94054
 H1971 H 0.29984 0.35083 0.92991
 H1972 H 0.29239 0.38386 0.96847
 H1973 H 0.32730 0.29005 0.86489
 H1974 H 0.32276 0.26255 0.81991
 H1975 H 0.23877 0.25099 0.84025
 H1976 H 0.24405 0.27510 0.88494
 C1977 C 0.82076 0.47469 0.75323
 C1978 C 0.80726 0.45061 0.75346
 C1979 C 0.82059 0.42772 0.76223
 C1980 C 0.84787 0.42898 0.77030
 C1981 C 0.86151 0.45293 0.76969
 C1982 C 0.84800 0.47649 0.76222
 N1983 N 0.80652 0.40319 0.76106
 N1984 N 0.81627 0.38235 0.77208
 C1985 C 0.80298 0.35746 0.76933
 C1986 C 0.81359 0.33579 0.78391
 C1987 C 0.80254 0.31073 0.77955
 C1988 C 0.78127 0.30672 0.75960
 C1989 C 0.76946 0.32900 0.74662
 C1990 C 0.78035 0.35406 0.75124
 H1991 H 0.80992 0.49165 0.74521
 H1992 H 0.78642 0.44970 0.74638
 H1993 H 0.85884 0.41136 0.77635
 H1994 H 0.88279 0.45311 0.77508
 H1995 H 0.83069 0.33828 0.79843
 H1996 H 0.81093 0.29463 0.79170
 H1997 H 0.75246 0.32705 0.73191
 H1998 H 0.77156 0.37059 0.73996
 C1999 C 0.35950 0.94963 0.25615
 C2000 C 0.34770 0.92511 0.25924
 C2001 C 0.31999 0.92202 0.25559
 C2002 C 0.30390 0.94402 0.24887
 C2003 C 0.31579 0.96884 0.24543
 C2004 C 0.34391 0.97214 0.24934
 N2005 N 0.30973 0.89577 0.25619
 N2006 N 0.28490 0.88970 0.25740
 C2007 C 0.27759 0.86231 0.25586
 C2008 C 0.25210 0.85410 0.26493
 C2009 C 0.24521 0.82722 0.26333
 C2010 C 0.26363 0.80821 0.25220
 C2011 C 0.28893 0.81695 0.24270
 C2012 C 0.29587 0.84341 0.24474
 H2013 H 0.38117 0.95105 0.25869
 H2014 H 0.36035 0.90818 0.26393
 H2015 H 0.28245 0.94181 0.24522
 H2016 H 0.30298 0.98499 0.23879
 H2017 H 0.23765 0.86846 0.27336
 H2018 H 0.22538 0.82145 0.27046
 H2019 H 0.30342 0.80347 0.23285
 H2020 H 0.31550 0.84914 0.23695
 C2021 C 0.14277 0.94653 0.74508
 C2022 C 0.15337 0.92121 0.74262
 C2023 C 0.17652 0.91614 0.72647
 C2024 C 0.18857 0.93669 0.71138
 C2025 C 0.17759 0.96239 0.71347
 C2026 C 0.15542 0.96816 0.73195
 N2027 N 0.18677 0.88973 0.72655
 N2028 N 0.20872 0.88164 0.71507
 C2029 C 0.21655 0.85448 0.71828
 C2030 C 0.24178 0.84545 0.70855
 C2031 C 0.25029 0.81950 0.71385
 C2032 C 0.23363 0.80215 0.72906
 C2033 C 0.20809 0.81132 0.73806
 C2034 C 0.19964 0.83696 0.73269
 H2035 H 0.12419 0.94876 0.75714
 H2036 H 0.14348 0.90529 0.75359
 H2037 H 0.20617 0.93291 0.69801
 H2038 H 0.18663 0.97787 0.70106
 H2039 H 0.25510 0.85868 0.69745
 H2040 H 0.27012 0.81331 0.70653
 H2041 H 0.19472 0.79902 0.75022
 H2042 H 0.18000 0.84322 0.74055
 C2043 C 0.64356 0.45301 0.23017
 C2044 C 0.65445 0.42780 0.22670
 C2045 C 0.67929 0.42161 0.23906
 C2046 C 0.69332 0.44093 0.25527
 C2047 C 0.68209 0.46619 0.25943
 C2048 C 0.65730 0.47296 0.24618
 N2049 N 0.68828 0.39485 0.23721
 N2050 N 0.71284 0.38797 0.23995
 C2051 C 0.71990 0.36058 0.23974
 C2052 C 0.74554 0.35240 0.23067
 C2053 C 0.75259 0.32563 0.23051
 C2054 C 0.73424 0.30661 0.24016
 C2055 C 0.70867 0.31524 0.24977
 C2056 C 0.70145 0.34182 0.24914
 H2057 H 0.62373 0.45660 0.22108
 H2058 H 0.64316 0.41279 0.21484
 H2059 H 0.71218 0.43607 0.26592
 H2060 H 0.69237 0.47999 0.27385
 H2061 H 0.76001 0.36675 0.22358
 H2062 H 0.77269 0.32004 0.22351
 H2063 H 0.69449 0.30176 0.25898
 H2064 H 0.68170 0.34785 0.25694
 C2065 C 0.64716 0.54507 0.27513
 C2066 C 0.66040 0.56889 0.27909
 C2067 C 0.68632 0.57208 0.26837
 C2068 C 0.69923 0.55099 0.25361
 C2069 C 0.68576 0.52697 0.24919
 C2070 C 0.65960 0.52339 0.26051
 N2071 N 0.69696 0.59811 0.26913
 N2072 N 0.72172 0.60375 0.26626
 C2073 C 0.72874 0.63100 0.26454
 C2074 C 0.75345 0.64025 0.27533
 C2075 C 0.75932 0.66729 0.27474
 C2076 C 0.74069 0.68528 0.26278
 C2077 C 0.71644 0.67538 0.25106
 C2078 C 0.71045 0.64878 0.25219
 H2079 H 0.62658 0.54388 0.28274
 H2080 H 0.64998 0.58535 0.28967
 H2081 H 0.71894 0.55357 0.24412
 H2082 H 0.69541 0.51179 0.23589
 H2083 H 0.76785 0.62667 0.28472
 H2084 H 0.77844 0.67401 0.28347
 H2085 H 0.70197 0.68808 0.24050
 H2086 H 0.69151 0.64198 0.24304
 C2087 C 0.19060 0.01523 0.74684
 C2088 C 0.20775 0.03695 0.75115
 C2089 C 0.19774 0.06275 0.74879
 C2090 C 0.17003 0.06654 0.74380
 C2091 C 0.15301 0.04509 0.73982
 C2092 C 0.16307 0.01895 0.73949
 N2093 N 0.21543 0.08505 0.75116
 N2094 N 0.20736 0.10691 0.74102
 C2095 C 0.22132 0.13148 0.74244
 C2096 C 0.20927 0.15238 0.72814
 C2097 C 0.21938 0.17769 0.73118
 C2098 C 0.24219 0.18318 0.74845
 C2099 C 0.25511 0.16177 0.76214
 C2100 C 0.24467 0.13600 0.75925
 H2101 H 0.19904 -0.00424 0.74979
 H2102 H 0.22889 0.03364 0.75598
 H2103 H 0.16141 0.08622 0.74292
 H2104 H 0.13174 0.04894 0.73621
 H2105 H 0.19098 0.14923 0.71559
 H2106 H 0.20761 0.19309 0.72179
 H2107 H 0.27264 0.16500 0.77583
 H2108 H 0.25421 0.12000 0.77074
 C2109 C 0.32205 0.02975 0.26232
 C2110 C 0.30775 0.05366 0.26187
 C2111 C 0.31050 0.07068 0.23861
 C2112 C 0.32771 0.06350 0.21565
 C2113 C 0.34283 0.04007 0.21654
 C2114 C 0.34010 0.02240 0.23977
 N2115 N 0.29936 0.09681 0.24100
 N2116 N 0.29187 0.11004 0.21911
 C2117 C 0.28478 0.13734 0.22317
 C2118 C 0.26118 0.14790 0.21097
 C2119 C 0.25367 0.17430 0.21708
 C2120 C 0.27011 0.19066 0.23482
 C2121 C 0.29472 0.18007 0.24505
 C2122 C 0.30166 0.15376 0.23976
 H2123 H 0.31986 0.01738 0.28103
 H2124 H 0.29506 0.05930 0.28014
 H2125 H 0.33094 0.07693 0.19805
 H2126 H 0.35757 0.03682 0.19958
 H2127 H 0.24810 0.13546 0.19776
 H2128 H 0.23475 0.18165 0.20849
 H2129 H 0.30805 0.19152 0.25895
 H2130 H 0.32019 0.14604 0.24893
 C2131 C 0.82579 0.53088 0.78133
 C2132 C 0.81098 0.55446 0.78366
 C2133 C 0.81629 0.57522 0.76513
 C2134 C 0.83683 0.57219 0.74434
 C2135 C 0.85178 0.54881 0.74216
 C2136 C 0.84605 0.52726 0.75997
 N2137 N 0.80182 0.59972 0.76864
 N2138 N 0.80509 0.61805 0.75060
 C2139 C 0.79277 0.64359 0.75320
 C2140 C 0.79846 0.66169 0.73178
 C2141 C 0.78949 0.68768 0.73455
 C2142 C 0.77485 0.69641 0.75917
 C2143 C 0.76741 0.67763 0.77975
 C2144 C 0.77667 0.65142 0.77703
 H2145 H 0.82166 0.51547 0.79655
 H2146 H 0.79562 0.55670 0.80023
 H2147 H 0.84194 0.58821 0.73027
 H2148 H 0.86839 0.54811 0.72698
 H2149 H 0.81052 0.65573 0.71312
 H2150 H 0.79446 0.70089 0.71738
 H2151 H 0.75559 0.68343 0.79863
 H2152 H 0.77186 0.63759 0.79378
 C2153 C 0.94607 0.77262 0.12977
 C2154 C 0.92254 0.77442 0.14607
 C2155 C 0.92363 0.77463 0.17638
 C2156 C 0.94876 0.77500 0.19049
 C2157 C 0.97259 0.77402 0.17409
 C2158 C 0.97161 0.77105 0.14337
 N2159 N 0.89862 0.77435 0.19168
 N2160 N 0.89578 0.76817 0.21819
 C2161 C 0.86910 0.76788 0.23026
 C2162 C 0.86363 0.75358 0.25534
 C2163 C 0.83684 0.75002 0.26441
 C2164 C 0.81525 0.76083 0.24848
 C2165 C 0.82127 0.77630 0.22430
 C2166 C 0.84766 0.77992 0.21553
 H2167 H 0.94433 0.77135 0.10628
 H2168 H 0.90322 0.77470 0.13497
 H2169 H 0.94993 0.77620 0.21401
 H2170 H 0.99148 0.77543 0.18575
 H2171 H 0.87996 0.74418 0.26703
 H2172 H 0.83302 0.73806 0.28313
 H2173 H 0.80555 0.78528 0.21137
 H2174 H 0.85118 0.79145 0.19640
 C2175 C 0.47564 0.22224 0.66334
 C2176 C 0.45554 0.22095 0.68458
 C2177 C 0.43622 0.24107 0.68751
 C2178 C 0.43718 0.26244 0.66860
 C2179 C 0.45704 0.26367 0.64721
 C2180 C 0.47719 0.24387 0.64440
 N2181 N 0.41477 0.23882 0.70828
 N2182 N 0.39819 0.25786 0.71233
 C2183 C 0.37471 0.25709 0.73035
 C2184 C 0.35648 0.27796 0.72818
 C2185 C 0.33084 0.27633 0.73998
 C2186 C 0.32288 0.25420 0.75586
 C2187 C 0.34222 0.23398 0.76005
 C2188 C 0.36788 0.23524 0.74707
 H2189 H 0.49021 0.20623 0.66159
 H2190 H 0.45488 0.20409 0.69858
 H2191 H 0.42209 0.27801 0.66980
 H2192 H 0.45580 0.28004 0.63268
 H2193 H 0.36135 0.29472 0.71503
 H2194 H 0.31668 0.29166 0.73424
 H2195 H 0.33686 0.21631 0.77140
 H2196 H 0.38175 0.21874 0.74894
 C2197 C 0.47517 0.72227 0.84541
 C2198 C 0.45237 0.71773 0.82803
 C2199 C 0.43065 0.73546 0.82889
 C2200 C 0.43128 0.75700 0.84851
 C2201 C 0.45355 0.76097 0.86687
 C2202 C 0.47663 0.74438 0.86478
 N2203 N 0.40701 0.73014 0.81185
 N2204 N 0.39509 0.74815 0.79767
 C2205 C 0.36965 0.74351 0.78357
 C2206 C 0.36202 0.75825 0.75941
 C2207 C 0.33596 0.75601 0.74757
 C2208 C 0.31678 0.73960 0.76039
 C2209 C 0.32486 0.72482 0.78461
 C2210 C 0.35107 0.72628 0.79558
 H2211 H 0.49195 0.70851 0.84360
 H2212 H 0.45180 0.70057 0.81354
 H2213 H 0.41403 0.77018 0.85040
 H2214 H 0.45208 0.77689 0.88279
 H2215 H 0.37609 0.77189 0.75011
 H2216 H 0.33051 0.76811 0.72933
 H2217 H 0.31067 0.71286 0.79612
 H2218 H 0.35630 0.71518 0.81467
 C2219 C 0.94851 0.25428 0.37818
 C2220 C 0.92491 0.25167 0.36186
 C2221 C 0.92585 0.24920 0.33160
 C2222 C 0.95099 0.24885 0.31767
 C2223 C 0.97491 0.25095 0.33412
 C2224 C 0.97411 0.25458 0.36480
 N2225 N 0.90087 0.24565 0.31626
 N2226 N 0.89752 0.24825 0.28896
 C2227 C 0.87128 0.24375 0.27638
 C2228 C 0.86345 0.25614 0.25064
 C2229 C 0.83658 0.25472 0.24071
 C2230 C 0.81726 0.24056 0.25624
 C2231 C 0.82595 0.22667 0.28085
 C2232 C 0.85245 0.22829 0.29077
 H2233 H 0.94684 0.25595 0.40165
 H2234 H 0.90567 0.25146 0.37292
 H2235 H 0.95217 0.24608 0.29428
 H2236 H 0.99373 0.24881 0.32261
 H2237 H 0.87777 0.26800 0.23912
 H2238 H 0.83074 0.26562 0.22167
 H2239 H 0.81204 0.21520 0.29337
 H2240 H 0.85803 0.21804 0.31033
 C2241 C 0.04912 0.24156 0.37696
 C2242 C 0.07349 0.24235 0.36220
 C2243 C 0.07694 0.25914 0.33899
 C2244 C 0.05589 0.27643 0.33145
 C2245 C 0.03126 0.27591 0.34666
 C2246 C 0.02676 0.25716 0.36848
 N2247 N 0.10245 0.25782 0.32449
 N2248 N 0.10918 0.27000 0.30171
 C2249 C 0.13595 0.26580 0.29019
 C2250 C 0.15401 0.24864 0.30399
 C2251 C 0.18007 0.24492 0.29372
 C2252 C 0.18941 0.25815 0.26909
 C2253 C 0.17106 0.27480 0.25461
 C2254 C 0.14459 0.27867 0.26518
 H2255 H 0.04819 0.22861 0.39527
 H2256 H 0.08993 0.22960 0.36889
 H2257 H 0.05848 0.29025 0.31411
 H2258 H 0.01543 0.28972 0.34091
 H2259 H 0.14818 0.23816 0.32319
 H2260 H 0.19305 0.23186 0.30586
 H2261 H 0.17708 0.28520 0.23558
 H2262 H 0.13095 0.29187 0.25404
 C2263 C 0.52667 0.75598 0.83381
 C2264 C 0.55023 0.75967 0.81773
 C2265 C 0.57531 0.76119 0.83165
 C2266 C 0.57652 0.75937 0.86207
 C2267 C 0.55317 0.75543 0.87810
 C2268 C 0.52777 0.75280 0.86434
 N2269 N 0.59938 0.76401 0.81476
 N2270 N 0.62191 0.76799 0.82739
 C2271 C 0.64722 0.76971 0.81276
 C2272 C 0.67003 0.77434 0.82985
 C2273 C 0.69560 0.77356 0.81759
 C2274 C 0.69915 0.76856 0.78752
 C2275 C 0.67599 0.76443 0.77013
 C2276 C 0.65016 0.76508 0.78264
 H2277 H 0.50778 0.75590 0.82203
 H2278 H 0.54891 0.76149 0.79434
 H2279 H 0.59560 0.76065 0.87354
 H2280 H 0.55494 0.75390 0.90150
 H2281 H 0.66802 0.77768 0.85311
 H2282 H 0.71260 0.77620 0.83216
 H2283 H 0.67783 0.75968 0.74715
 H2284 H 0.63269 0.76114 0.76905
 C2285 C 0.55057 0.24879 0.61533
 C2286 C 0.57675 0.25096 0.62657
 C2287 C 0.58130 0.25106 0.65660
 C2288 C 0.55919 0.24990 0.67538
 C2289 C 0.53296 0.24800 0.66424
 C2290 C 0.52804 0.24626 0.63383
 N2291 N 0.60848 0.25237 0.66739
 N2292 N 0.61434 0.24983 0.69421
 C2293 C 0.64163 0.25099 0.70472
 C2294 C 0.64721 0.24490 0.73370
 C2295 C 0.67378 0.24488 0.74422
 C2296 C 0.69538 0.25103 0.72589
 C2297 C 0.68942 0.25800 0.69699
 C2298 C 0.66295 0.25779 0.68649
 H2299 H 0.54786 0.24855 0.59193
 H2300 H 0.59360 0.25226 0.61178
 H2301 H 0.56212 0.25068 0.69874
 H2302 H 0.51687 0.24820 0.67993
 H2303 H 0.63092 0.23979 0.74808
 H2304 H 0.67714 0.23984 0.76660
 H2305 H 0.70530 0.26312 0.68211
 H2306 H 0.65922 0.26281 0.66406
 C2307 C 0.04743 0.77537 0.13114
 C2308 C 0.07204 0.77075 0.14482
 C2309 C 0.07396 0.75348 0.16788
 C2310 C 0.05097 0.74001 0.17674
 C2311 C 0.02623 0.74415 0.16254
 C2312 C 0.02358 0.76299 0.14040
 N2313 N 0.10007 0.74890 0.18009
 N2314 N 0.10458 0.73886 0.20479
 C2315 C 0.13202 0.73500 0.21387
 C2316 C 0.13914 0.73668 0.24340
 C2317 C 0.16644 0.73710 0.25176
 C2318 C 0.18696 0.73518 0.23068
 C2319 C 0.17935 0.73211 0.20122
 C2320 C 0.15238 0.73192 0.19300
 H2321 H 0.04763 0.78808 0.11261
 H2322 H 0.08992 0.78050 0.13713
 H2323 H 0.05232 0.72574 0.19386
 H2324 H 0.00907 0.73256 0.16884
 H2325 H 0.12364 0.73921 0.25977
 H2326 H 0.17135 0.74019 0.27453
 H2327 H 0.19413 0.73110 0.18400
 H2328 H 0.14742 0.73034 0.17006
   
