data_POSCAR
  _audit_creation_date              2014-09-24
  _audit_creation_method            'ToBaCCo'
  _symmetry_space_group_name_H-M    'P1'
  _symmetry_Int_Tables_number       1
  _symmetry_cell_setting            triclinic
  loop_
  _symmetry_equiv_pos_as_xyz
 x,y,z
_cell_length_a 50.4628
_cell_length_b 50.5304
_cell_length_c 50.4926
_cell_angle_alpha 89.963500
_cell_angle_beta 90.027300
_cell_angle_gamma 89.970700
loop_
  _atom_site_label
  _atom_site_type_symbol
  _atom_site_fract_x
  _atom_site_fract_y
  _atom_site_fract_z
C1 C 0.25788 1.02057 -0.02454
 C2 C 0.25534 1.01964 0.00358
 C3 C 0.25339 0.99449 0.01565
 C4 C 0.25261 0.97071 0.00126
 C5 C 0.25126 0.97192 -0.02670
 C6 C 0.25498 0.99676 -0.03883
 H7 H 0.25528 0.99761 -0.06030
 H8 H 0.25361 0.99310 0.03709
 C9 C 0.75140 0.47402 0.50225
 C10 C 0.75158 0.47264 0.47427
 C11 C 0.75279 0.49627 0.45962
 C12 C 0.75415 0.52119 0.47185
 C13 C 0.75365 0.52258 0.49979
 C14 C 0.75255 0.49897 0.51445
 H15 H 0.75325 0.50005 0.53589
 H16 H 0.75219 0.49529 0.43818
 C17 C 0.74026 1.01213 0.96152
 C18 C 0.74595 0.98462 0.96289
 C19 C 0.74609 0.97210 0.98782
 C20 C 0.74071 0.98578 1.01151
 C21 C 0.73429 1.01311 1.01025
 C22 C 0.73419 1.02547 0.98527
 H23 H 0.73186 1.04679 0.98471
 H24 H 0.74916 0.95088 0.98873
 C25 C 0.25444 0.50991 0.46560
 C26 C 0.25785 0.48212 0.46457
 C27 C 0.25902 0.46782 0.48843
 C28 C 0.25737 0.48016 0.51328
 C29 C 0.25365 0.50789 0.51436
 C30 C 0.25255 0.52223 0.49051
 H31 H 0.25089 0.54360 0.49141
 H32 H 0.26083 0.44645 0.48767
 C33 C 0.97101 0.24779 0.02373
 C34 C 0.97256 0.25406 -0.00347
 C35 C 0.99760 0.25682 -0.01516
 C36 C 1.02141 0.25309 -0.00099
 C37 C 1.01969 0.24564 0.02613
 C38 C 0.99454 0.24358 0.03798
 H39 H 0.99328 0.23936 0.05901
 H40 H 0.99847 0.26023 -0.03634
 C41 C 0.46811 0.75024 0.49285
 C42 C 0.46741 0.74626 0.52057
 C43 C 0.49147 0.74485 0.53461
 C44 C 0.51619 0.74713 0.52194
 C45 C 0.51676 0.75163 0.49430
 C46 C 0.49277 0.75270 0.48030
 H47 H 0.49337 0.75473 0.45892
 H48 H 0.49095 0.74232 0.55593
 C49 C 0.00509 0.75890 0.03222
 C50 C -0.02290 0.75562 0.03197
 C51 C -0.03564 0.75349 0.00710
 C52 C -0.02181 0.75422 -0.01717
 C53 C 0.00620 0.75616 -0.01639
 C54 C 0.01894 0.75865 0.00812
 H55 H 0.04043 0.75902 0.00854
 H56 H -0.05710 0.75361 0.00654
 C57 C 0.48239 0.23890 0.53746
 C58 C 0.51043 0.23846 0.53827
 C59 C 0.52456 0.23383 0.51478
 C60 C 0.51200 0.23122 0.49020
 C61 C 0.48411 0.23352 0.48886
 C62 C 0.46980 0.23669 0.51262
 H63 H 0.44837 0.23782 0.51169
 H64 H 0.54603 0.23273 0.51559
 C65 C 1.02691 -0.01227 0.26353
 C66 C 1.02726 0.01462 0.25543
 C67 C 1.00322 0.02840 0.25290
 C68 C 0.97859 0.01596 0.25672
 C69 C 0.97795 -0.01159 0.26231
 C70 C 1.00216 -0.02473 0.26666
 H71 H 1.00198 -0.04592 0.26999
 H72 H 1.00387 0.04947 0.24890
 C73 C 0.53409 0.51927 0.74617
 C74 C 0.53340 0.49125 0.74688
 C75 C 0.50868 0.47852 0.74840
 C76 C 0.48478 0.49261 0.75033
 C77 C 0.48561 0.52054 0.75103
 C78 C 0.51017 0.53334 0.74861
 H79 H 0.51066 0.55480 0.74885
 H80 H 0.50802 0.45707 0.74833
 C81 C 1.02142 0.98024 0.77147
 C82 C 0.99414 0.98077 0.77772
 C83 C 0.98147 1.00525 0.78088
 C84 C 0.99443 1.02966 0.77673
 C85 C 1.02156 1.02910 0.76902
 C86 C 1.03458 1.00443 0.76726
 H87 H 1.05567 1.00412 0.76318
 H88 H 0.96031 1.00512 0.78467
 C89 C 0.51444 0.47782 0.24201
 C90 C 0.48687 0.47955 0.23756
 C91 C 0.47467 0.50446 0.23786
 C92 C 0.48897 0.52784 0.24253
 C93 C 0.51651 0.52611 0.24765
 C94 C 0.52879 0.50112 0.24694
 H95 H 0.55004 0.49981 0.24989
 H96 H 0.45337 0.50555 0.23523
 O97 O 0.26142 0.17089 0.20987
 O98 O 0.28966 0.16304 0.24807
 O99 O 0.19392 0.20778 0.24750
 O100 O 0.18406 0.24533 0.26749
 O101 O 0.23081 0.24191 0.17454
 O102 O 0.27061 0.26716 0.16791
 O103 O 0.26516 0.27998 0.31136
 O104 O 0.23070 0.24678 0.31821
 O105 O 0.33112 0.23750 0.28479
 O106 O 0.33885 0.20631 0.24844
 O107 O 0.30498 0.30607 0.24439
 O108 O 0.26815 0.31457 0.21164
 O109 O 0.26693 0.31041 0.27820
 O110 O 0.24051 0.31905 0.23975
 O111 O 0.33471 0.27252 0.24889
 O112 O 0.34181 0.23358 0.21925
 O113 O 0.29788 0.24305 0.31460
 O114 O 0.26368 0.21517 0.32305
 O115 O 0.26534 0.20160 0.17715
 O116 O 0.29696 0.23558 0.16987
 O117 O 0.19748 0.24153 0.20492
 O118 O 0.19178 0.27553 0.24003
 O119 O 0.22362 0.17396 0.24530
 O120 O 0.25980 0.16438 0.27577
 Zr121 Zr 0.26061 0.19309 0.24524
 O122 O 0.28529 0.21519 0.27061
 Zr123 Zr 0.21698 0.24206 0.24183
 O124 O 0.23996 0.26653 0.26660
 Zr125 Zr 0.26550 0.23787 0.19739
 O126 O 0.29078 0.26169 0.22040
 Zr127 Zr 0.26312 0.24316 0.29190
 O128 O 0.23768 0.21841 0.26942
 Zr129 Zr 0.31148 0.23807 0.24787
 O130 O 0.28865 0.21375 0.22240
 Zr131 Zr 0.26772 0.28740 0.24358
 O132 O 0.24244 0.26542 0.21842
 O133 O 0.23836 0.21550 0.21889
 O134 O 0.29024 0.26541 0.27035
 C135 C 0.26342 0.17762 0.18537
 C136 C 0.20000 0.18307 0.24758
 C137 C 0.20619 0.24258 0.18102
 C138 C 0.26645 0.30393 0.30277
 C139 C 0.32246 0.24048 0.30854
 C140 C 0.32869 0.29711 0.24685
 H141 H 0.29465 0.20303 0.28281
 H142 H 0.30292 0.27145 0.20856
 H143 H 0.22669 0.20442 0.20771
 H144 H 0.22824 0.27846 0.27678
 H145 H 0.21826 0.23224 0.31392
 H146 H 0.19082 0.25224 0.28451
 H147 H 0.34017 0.24822 0.20635
 H148 H 0.31033 0.22353 0.17768
 H149 H 0.25291 0.20002 0.31703
 H150 H 0.24472 0.16877 0.28749
 H151 H 0.28408 0.31095 0.20082
 H152 H 0.25873 0.28202 0.17263
 H153 H 0.30376 0.16757 0.23521
 H154 H 0.33291 0.19360 0.26210
 H155 H 0.19788 0.28649 0.22496
 H156 H 0.22518 0.31508 0.25129
 O157 O 0.74320 0.83308 0.21591
 O158 O 0.71427 0.84397 0.25216
 O159 O 0.80909 0.79799 0.25976
 O160 O 0.81685 0.76240 0.28411
 O161 O 0.77668 0.75875 0.18827
 O162 O 0.73696 0.73411 0.18047
 O163 O 0.73480 0.73214 0.32542
 O164 O 0.76775 0.76622 0.33119
 O165 O 0.66975 0.77134 0.29100
 O166 O 0.66513 0.80152 0.25180
 O167 O 0.69688 0.70107 0.25904
 O168 O 0.73435 0.68897 0.22892
 O169 O 0.73369 0.69940 0.29459
 O170 O 0.76179 0.68741 0.25736
 O171 O 0.66760 0.73502 0.25468
 O172 O 0.66228 0.77206 0.22536
 O173 O 0.70099 0.76788 0.32327
 O174 O 0.73390 0.79745 0.33134
 O175 O 0.74426 0.79987 0.18549
 O176 O 0.71100 0.76635 0.17865
 O177 O 0.80805 0.76107 0.22051
 O178 O 0.81091 0.73009 0.25829
 O179 O 0.78012 0.83195 0.25377
 O180 O 0.74227 0.84415 0.28118
 Zr181 Zr 0.74284 0.81335 0.25279
 O182 O 0.71633 0.79335 0.27806
 Zr183 Zr 0.78597 0.76371 0.25582
 O184 O 0.76118 0.74148 0.28087
 Zr185 Zr 0.74067 0.76521 0.20820
 O186 O 0.71364 0.74337 0.23120
 Zr187 Zr 0.73691 0.76700 0.30278
 O188 O 0.76399 0.78968 0.28012
 Zr189 Zr 0.69145 0.76905 0.25532
 O190 O 0.71616 0.79125 0.22967
 Zr191 Zr 0.73448 0.71920 0.25795
 O192 O 0.76166 0.73890 0.23274
 O193 O 0.76655 0.78886 0.22974
 O194 O 0.71072 0.74337 0.28138
 C195 C 0.74432 0.82445 0.19198
 C196 C 0.80347 0.82273 0.25792
 C197 C 0.80087 0.75827 0.19625
 C198 C 0.73401 0.70767 0.31864
 C199 C 0.67693 0.76993 0.31541
 C200 C 0.67325 0.71033 0.25671
 H201 H 0.70630 0.80637 0.28871
 H202 H 0.70217 0.73293 0.21927
 H203 H 0.77912 0.79892 0.21856
 H204 H 0.77227 0.73033 0.29254
 H205 H 0.78022 0.78059 0.32648
 H206 H 0.80886 0.75664 0.30102
 H207 H 0.66727 0.75964 0.21107
 H208 H 0.69863 0.78072 0.18363
 H209 H 0.74497 0.81219 0.32488
 H210 H 0.75679 0.84068 0.29390
 H211 H 0.71961 0.69255 0.21650
 H212 H 0.74712 0.71899 0.18773
 H213 H 0.70023 0.83834 0.23969
 H214 H 0.66872 0.81381 0.26661
 H215 H 0.80547 0.71789 0.24394
 H216 H 0.77600 0.69157 0.27019
 O217 O 0.76585 0.18682 0.78250
 O218 O 0.73958 0.17658 0.74542
 O219 O 0.83319 0.22525 0.74619
 O220 O 0.83830 0.26220 0.71827
 O221 O 0.79722 0.25729 0.81546
 O222 O 0.75988 0.28425 0.82331
 O223 O 0.75815 0.29151 0.67763
 O224 O 0.78838 0.25701 0.66834
 O225 O 0.69247 0.25115 0.71103
 O226 O 0.68556 0.22223 0.74704
 O227 O 0.71999 0.32135 0.74509
 O228 O 0.75612 0.33298 0.77438
 O229 O 0.75409 0.32324 0.70921
 O230 O 0.78562 0.33334 0.74724
 O231 O 0.69046 0.28743 0.74673
 O232 O 0.68689 0.24742 0.77769
 O233 O 0.72357 0.25500 0.67873
 O234 O 0.76457 0.22486 0.67172
 O235 O 0.76104 0.21831 0.81432
 O236 O 0.73133 0.25497 0.82240
 O237 O 0.82924 0.26246 0.78414
 O238 O 0.83410 0.29216 0.74627
 O239 O 0.80429 0.19067 0.74723
 O240 O 0.76833 0.18104 0.71565
 Zr241 Zr 0.76645 0.20860 0.74710
 O242 O 0.73924 0.22916 0.72296
 Zr243 Zr 0.80873 0.25890 0.74773
 O244 O 0.78410 0.28121 0.72240
 Zr245 Zr 0.76195 0.25465 0.79381
 O246 O 0.73574 0.27790 0.77128
 Zr247 Zr 0.76014 0.25614 0.69928
 O248 O 0.78779 0.23380 0.72173
 Zr249 Zr 0.71410 0.25289 0.74626
 O250 O 0.73864 0.22922 0.77056
 Zr251 Zr 0.75705 0.30271 0.74545
 O252 O 0.78335 0.28230 0.77099
 O253 O 0.78880 0.23236 0.77209
 O254 O 0.73365 0.27909 0.72105
 C255 C 0.76252 0.19408 0.80662
 C256 C 0.82787 0.20040 0.74650
 C257 C 0.82135 0.26092 0.80836
 C258 C 0.75514 0.31563 0.68494
 C259 C 0.69943 0.25280 0.68670
 C260 C 0.69631 0.31221 0.74596
 H261 H 0.72910 0.21637 0.71218
 H262 H 0.72414 0.28803 0.78336
 H263 H 0.80068 0.22182 0.78361
 H264 H 0.79518 0.29287 0.71125
 H265 H 0.80290 0.26883 0.67407
 H266 H 0.83284 0.25039 0.70361
 H267 H 0.68693 0.26368 0.78861
 H268 H 0.71839 0.24129 0.81700
 H269 H 0.74855 0.21362 0.67267
 H270 H 0.78187 0.18766 0.70311
 H271 H 0.74439 0.32695 0.78886
 H272 H 0.77028 0.29946 0.81664
 H273 H 0.72413 0.18175 0.75633
 H274 H 0.69231 0.20767 0.73584
 H275 H 0.82721 0.30504 0.75934
 H276 H 0.79683 0.33214 0.73122
 O277 O 0.24242 0.79948 0.79042
 O278 O 0.27134 0.80631 0.75314
 O279 O 0.17048 0.77361 0.75417
 O280 O 0.15782 0.74091 0.72699
 O281 O 0.20282 0.73427 0.82151
 O282 O 0.23614 0.70037 0.82649
 O283 O 0.23240 0.69833 0.68179
 O284 O 0.20421 0.73526 0.67670
 O285 O 0.30335 0.72635 0.71259
 O286 O 0.31562 0.75566 0.74956
 O287 O 0.26850 0.66154 0.74733
 O288 O 0.23112 0.65501 0.77801
 O289 O 0.23318 0.66544 0.71256
 O290 O 0.20200 0.65840 0.75059
 O291 O 0.30220 0.69134 0.74859
 O292 O 0.31369 0.72876 0.77848
 O293 O 0.27092 0.73107 0.68164
 O294 O 0.23627 0.76441 0.67592
 O295 O 0.24361 0.76637 0.82096
 O296 O 0.26855 0.72652 0.82654
 O297 O 0.16966 0.73585 0.79097
 O298 O 0.16020 0.70633 0.75360
 O299 O 0.20460 0.80306 0.75262
 O300 O 0.24188 0.80949 0.72454
 Zr301 Zr 0.23909 0.77965 0.75376
 O302 O 0.26143 0.75619 0.72758
 Zr303 Zr 0.18942 0.73641 0.75420
 O304 O 0.20960 0.71120 0.72763
 Zr305 Zr 0.23756 0.73176 0.79882
 O306 O 0.25968 0.70609 0.77464
 Zr307 Zr 0.23586 0.73326 0.70412
 O308 O 0.21325 0.75899 0.72829
 Zr309 Zr 0.28368 0.72849 0.74917
 O310 O 0.26390 0.75419 0.77561
 Zr311 Zr 0.23417 0.68526 0.74917
 O312 O 0.21165 0.70857 0.77591
 O313 O 0.21393 0.75873 0.77855
 O314 O 0.25959 0.70610 0.72427
 C315 C 0.24452 0.79089 0.81436
 C316 C 0.17978 0.79729 0.75288
 C317 C 0.17826 0.73563 0.81494
 C318 C 0.23227 0.67381 0.68855
 C319 C 0.29524 0.72792 0.68852
 C320 C 0.29323 0.66760 0.74773
 H321 H 0.27293 0.76768 0.71670
 H322 H 0.27018 0.69414 0.78606
 H323 H 0.20391 0.77078 0.79031
 H324 H 0.19669 0.70158 0.71651
 H325 H 0.19161 0.74865 0.68353
 H326 H 0.16210 0.73019 0.71118
 H327 H 0.31015 0.71396 0.79082
 H328 H 0.28337 0.73790 0.82060
 H329 H 0.25168 0.77592 0.67961
 H330 H 0.22968 0.80429 0.71009
 H331 H 0.24506 0.65814 0.79142
 H332 H 0.22199 0.68821 0.82044
 H333 H 0.28542 0.79827 0.76418
 H334 H 0.31191 0.76953 0.73625
 H335 H 0.16552 0.69292 0.76689
 H336 H 0.18977 0.66280 0.73592
 O337 O 0.24617 0.33607 0.72579
 O338 O 0.22089 0.34648 0.76398
 O339 O 0.31635 0.30123 0.76027
 O340 O 0.32439 0.26813 0.78934
 O341 O 0.27995 0.26276 0.69442
 O342 O 0.24031 0.23764 0.68850
 O343 O 0.24534 0.23376 0.83370
 O344 O 0.27893 0.26694 0.83818
 O345 O 0.17916 0.27349 0.80336
 O346 O 0.17128 0.30225 0.76432
 O347 O 0.20523 0.20244 0.76754
 O348 O 0.24189 0.19146 0.73675
 O349 O 0.24290 0.20133 0.80260
 O350 O 0.27035 0.19021 0.76400
 O351 O 0.17540 0.23610 0.76999
 O352 O 0.16798 0.27258 0.73805
 O353 O 0.21189 0.26973 0.83408
 O354 O 0.24561 0.29925 0.84011
 O355 O 0.24555 0.30364 0.69450
 O356 O 0.21337 0.26901 0.68910
 O357 O 0.31301 0.26353 0.72505
 O358 O 0.31890 0.23378 0.76250
 O359 O 0.28638 0.33489 0.76049
 O360 O 0.25024 0.34560 0.79145
 Zr361 Zr 0.24928 0.31576 0.76205
 O362 O 0.22435 0.29504 0.78824
 Zr363 Zr 0.29308 0.26682 0.76150
 O364 O 0.27001 0.24390 0.78770
 Zr365 Zr 0.24492 0.26825 0.71664
 O366 O 0.21965 0.24553 0.74087
 Zr367 Zr 0.24670 0.26878 0.81142
 O368 O 0.27238 0.29209 0.78761
 Zr369 Zr 0.19861 0.27054 0.76666
 O370 O 0.22154 0.29358 0.74017
 Zr371 Zr 0.24243 0.22143 0.76604
 O372 O 0.26772 0.24197 0.73957
 O373 O 0.27159 0.29193 0.73698
 O374 O 0.21977 0.24495 0.79119
 C375 C 0.24523 0.32807 0.70166
 C376 C 0.31020 0.32591 0.75987
 C377 C 0.30453 0.26150 0.70114
 C378 C 0.24404 0.20938 0.82673
 C379 C 0.18748 0.27219 0.82737
 C380 C 0.18146 0.21141 0.76949
 H381 H 0.21476 0.30788 0.79950
 H382 H 0.20766 0.23495 0.72960
 H383 H 0.28299 0.30215 0.72474
 H384 H 0.28173 0.23267 0.79867
 H385 H 0.29149 0.28105 0.83293
 H386 H 0.31868 0.25798 0.80508
 H387 H 0.17053 0.25783 0.72544
 H388 H 0.20025 0.28183 0.69600
 H389 H 0.25769 0.31327 0.83383
 H390 H 0.26625 0.34261 0.80238
 H391 H 0.22718 0.19539 0.72440
 H392 H 0.25129 0.22265 0.69478
 H393 H 0.20565 0.34076 0.75303
 H394 H 0.17594 0.31515 0.77829
 H395 H 0.31203 0.22083 0.74949
 H396 H 0.28444 0.19390 0.77711
 O397 O 0.76218 0.68280 0.69670
 O398 O 0.79085 0.67329 0.73417
 O399 O 0.69498 0.71814 0.73107
 O400 O 0.68618 0.75288 0.75761
 O401 O 0.73277 0.75487 0.66345
 O402 O 0.77226 0.78087 0.65851
 O403 O 0.76701 0.78647 0.80298
 O404 O 0.73194 0.75516 0.80819
 O405 O 0.83199 0.74710 0.77470
 O406 O 0.83939 0.71579 0.73622
 O407 O 0.80663 0.81618 0.73997
 O408 O 0.77166 0.82691 0.70556
 O409 O 0.76760 0.81864 0.77149
 O410 O 0.74199 0.82919 0.73203
 O411 O 0.83643 0.78245 0.73832
 O412 O 0.84438 0.74524 0.70996
 O413 O 0.79815 0.74752 0.80441
 O414 O 0.75886 0.72091 0.81027
 O415 O 0.76673 0.71455 0.66500
 O416 O 0.79928 0.74909 0.65963
 O417 O 0.69933 0.75432 0.69371
 O418 O 0.69300 0.78616 0.72958
 O419 O 0.72501 0.68459 0.73329
 O420 O 0.76051 0.67409 0.76240
 Zr421 Zr 0.76198 0.70361 0.73274
 O422 O 0.78664 0.72434 0.75903
 Zr423 Zr 0.71835 0.75275 0.73072
 O424 O 0.74116 0.77581 0.75701
 Zr425 Zr 0.76730 0.75027 0.68664
 O426 O 0.79237 0.77310 0.71103
 Zr427 Zr 0.76388 0.75101 0.78140
 O428 O 0.73857 0.72779 0.75743
 Zr429 Zr 0.81288 0.74827 0.73745
 O430 O 0.79021 0.72510 0.71081
 Zr431 Zr 0.76940 0.79768 0.73556
 O432 O 0.74434 0.77703 0.70889
 O433 O 0.74009 0.72718 0.70713
 O434 O 0.79147 0.77422 0.76137
 C435 C 0.76405 0.69034 0.67244
 C436 C 0.70117 0.69344 0.73238
 C437 C 0.70810 0.75537 0.66984
 C438 C 0.76766 0.81084 0.79570
 C439 C 0.82282 0.74637 0.79846
 C440 C 0.83042 0.80705 0.74007
 H441 H 0.79615 0.71146 0.77029
 H442 H 0.80465 0.78341 0.69983
 H443 H 0.72847 0.71666 0.69538
 H444 H 0.72944 0.78733 0.76764
 H445 H 0.71755 0.74354 0.80166
 H446 H 0.69108 0.76436 0.77270
 H447 H 0.84052 0.75752 0.69520
 H448 H 0.81159 0.73526 0.66612
 H449 H 0.77166 0.70659 0.80648
 H450 H 0.74826 0.68067 0.77622
 H451 H 0.78800 0.82377 0.69523
 H452 H 0.76137 0.79592 0.66475
 H453 H 0.80510 0.67848 0.72173
 H454 H 0.83514 0.70396 0.75124
 H455 H 0.70002 0.79822 0.71580
 H456 H 0.72693 0.82527 0.74393
 O457 O 0.25146 0.68461 0.28203
 O458 O 0.22154 0.67781 0.24665
 O459 O 0.32031 0.71539 0.24606
 O460 O 0.33170 0.74857 0.22013
 O461 O 0.28854 0.75141 0.31535
 O462 O 0.25420 0.78168 0.32346
 O463 O 0.25184 0.78951 0.17702
 O464 O 0.28028 0.75434 0.16890
 O465 O 0.18333 0.75695 0.21109
 O466 O 0.17287 0.73049 0.24685
 O467 O 0.22000 0.82395 0.24340
 O468 O 0.25515 0.83236 0.27249
 O469 O 0.25623 0.82141 0.20844
 O470 O 0.28708 0.82679 0.24862
 O471 O 0.18637 0.79415 0.24639
 O472 O 0.17841 0.75483 0.27822
 O473 O 0.21449 0.75758 0.17859
 O474 O 0.25001 0.72292 0.17092
 O475 O 0.24946 0.71617 0.31411
 O476 O 0.22223 0.75581 0.32155
 O477 O 0.32056 0.75313 0.28370
 O478 O 0.32778 0.78273 0.24464
 O479 O 0.28755 0.68456 0.24328
 O480 O 0.24853 0.67867 0.21555
 Zr481 Zr 0.25205 0.70646 0.24665
 O482 O 0.22726 0.73013 0.22286
 Zr483 Zr 0.29995 0.75147 0.24726
 O484 O 0.27818 0.77620 0.22159
 Zr485 Zr 0.25323 0.75242 0.29357
 O486 O 0.23025 0.77894 0.27098
 Zr487 Zr 0.25098 0.75429 0.19883
 O488 O 0.27606 0.72903 0.22116
 Zr489 Zr 0.20541 0.75683 0.24620
 O490 O 0.22694 0.73009 0.27032
 Zr491 Zr 0.25433 0.80090 0.24489
 O492 O 0.27770 0.77754 0.27079
 O493 O 0.27727 0.72732 0.27157
 O494 O 0.22788 0.78040 0.22081
 C495 C 0.24955 0.69191 0.30631
 C496 C 0.31209 0.69149 0.24375
 C497 C 0.31282 0.75278 0.30798
 C498 C 0.25445 0.81370 0.18422
 C499 C 0.19033 0.75788 0.18670
 C500 C 0.19538 0.81791 0.24465
 H501 H 0.21541 0.71861 0.21239
 H502 H 0.22008 0.79058 0.28298
 H503 H 0.28830 0.71554 0.28272
 H504 H 0.29054 0.78621 0.21016
 H505 H 0.29418 0.74174 0.17462
 H506 H 0.32510 0.75540 0.20300
 H507 H 0.18012 0.77134 0.28861
 H508 H 0.20875 0.74239 0.31680
 H509 H 0.23303 0.71334 0.17286
 H510 H 0.26139 0.68400 0.20175
 H511 H 0.24613 0.82610 0.28869
 H512 H 0.26614 0.79580 0.31697
 H513 H 0.20771 0.68437 0.25890
 H514 H 0.17895 0.71376 0.23872
 H515 H 0.32465 0.79457 0.25993
 H516 H 0.29791 0.82512 0.23237
 O517 O 0.73783 0.30500 0.28271
 O518 O 0.76314 0.31167 0.24286
 O519 O 0.66551 0.27182 0.24682
 O520 O 0.65685 0.23617 0.22098
 O521 O 0.69777 0.23729 0.31767
 O522 O 0.73567 0.20873 0.32597
 O523 O 0.73491 0.19532 0.18266
 O524 O 0.70246 0.23051 0.17486
 O525 O 0.80199 0.23246 0.21116
 O526 O 0.80963 0.26696 0.24739
 O527 O 0.77299 0.16792 0.25140
 O528 O 0.73438 0.16153 0.28288
 O529 O 0.73756 0.16536 0.21619
 O530 O 0.70765 0.15790 0.25321
 O531 O 0.80362 0.20072 0.24865
 O532 O 0.81225 0.23919 0.27604
 O533 O 0.76983 0.23236 0.17957
 O534 O 0.73542 0.25937 0.16954
 O535 O 0.73533 0.27494 0.31620
 O536 O 0.76398 0.23902 0.32554
 O537 O 0.66599 0.23757 0.28565
 O538 O 0.65984 0.20438 0.25148
 O539 O 0.69732 0.30371 0.24889
 O540 O 0.73157 0.31102 0.21682
 Zr541 Zr 0.73322 0.28281 0.24774
 O542 O 0.75762 0.25944 0.22345
 Zr543 Zr 0.68715 0.23617 0.24998
 O544 O 0.71002 0.21016 0.22657
 Zr545 Zr 0.73391 0.23834 0.29641
 O546 O 0.75928 0.21337 0.27463
 Zr547 Zr 0.73464 0.23244 0.20166
 O548 O 0.70977 0.25862 0.22307
 Zr549 Zr 0.78170 0.23570 0.24753
 O550 O 0.75916 0.26105 0.27201
 Zr551 Zr 0.73631 0.18836 0.25071
 O552 O 0.71069 0.21170 0.27446
 O553 O 0.70913 0.26178 0.27356
 O554 O 0.76018 0.20926 0.22437
 C555 C 0.73798 0.29865 0.30738
 C556 C 0.67305 0.29612 0.24803
 C557 C 0.67344 0.23752 0.30995
 C558 C 0.73659 0.17151 0.19156
 C559 C 0.79414 0.23174 0.18694
 C560 C 0.79703 0.17627 0.24978
 H561 H 0.76817 0.27101 0.21169
 H562 H 0.77066 0.20331 0.28699
 H563 H 0.69822 0.27353 0.28482
 H564 H 0.69824 0.19851 0.21616
 H565 H 0.69046 0.24543 0.17916
 H566 H 0.66205 0.22354 0.20695
 H567 H 0.80811 0.22689 0.29071
 H568 H 0.77848 0.25001 0.31824
 H569 H 0.73985 0.27690 0.17693
 H570 H 0.71745 0.30516 0.20452
 H571 H 0.74989 0.16480 0.29440
 H572 H 0.72266 0.19497 0.32091
 H573 H 0.77801 0.30632 0.25448
 H574 H 0.80795 0.27654 0.23038
 H575 H 0.66614 0.19213 0.26544
 H576 H 0.69344 0.16201 0.24036
 C577 C 0.27800 0.08262 0.03583
 C578 C 0.26234 0.08305 0.05913
 C579 C 0.24376 0.06238 0.06265
 C580 C 0.24072 0.04271 0.04342
 C581 C 0.25678 0.04192 0.02067
 C582 C 0.27544 0.06227 0.01716
 C583 C 0.22852 0.06098 0.08561
 C584 C 0.23211 0.07903 0.10592
 C585 C 0.25067 0.09976 0.10372
 C586 C 0.26495 0.10271 0.07940
 C587 C 0.28095 0.12537 0.07606
 C588 C 0.28330 0.14424 0.09597
 C589 C 0.27067 0.14080 0.12032
 C590 C 0.25483 0.11810 0.12484
 C591 C 0.24408 0.11450 0.15050
 C592 C 0.24771 0.13341 0.17026
 C593 C 0.26198 0.15658 0.16515
 C594 C 0.27367 0.16003 0.14019
 H595 H 0.29330 0.09701 0.03206
 H596 H 0.22571 0.02762 0.04638
 H597 H 0.28915 0.06186 0.00069
 H598 H 0.21401 0.04537 0.08819
 H599 H 0.21940 0.07664 0.12289
 H600 H 0.29130 0.12952 0.05786
 H601 H 0.29541 0.16159 0.09236
 H602 H 0.23313 0.09707 0.15609
 H603 H 0.23868 0.13018 0.18946
 H604 H 0.28520 0.17771 0.13625
 C605 C 0.77711 0.58829 0.52777
 C606 C 0.75953 0.59194 0.54937
 C607 C 0.73901 0.57308 0.55281
 C608 C 0.73629 0.55182 0.53530
 C609 C 0.75453 0.54780 0.51484
 C610 C 0.77478 0.56633 0.51101
 C611 C 0.72176 0.57492 0.57425
 C612 C 0.72540 0.59410 0.59348
 C613 C 0.74614 0.61271 0.59160
 C614 C 0.76225 0.61284 0.56832
 C615 C 0.78037 0.63385 0.56484
 C616 C 0.78330 0.65350 0.58394
 C617 C 0.76923 0.65234 0.60772
 C618 C 0.75097 0.63148 0.61214
 C619 C 0.73884 0.62972 0.63731
 C620 C 0.74383 0.64851 0.65681
 C621 C 0.76077 0.66987 0.65190
 C622 C 0.77344 0.67175 0.62727
 H623 H 0.79366 0.60127 0.52414
 H624 H 0.72055 0.53751 0.53832
 H625 H 0.78941 0.56334 0.49562
 H626 H 0.70572 0.56085 0.57665
 H627 H 0.71117 0.59424 0.60939
 H628 H 0.79210 0.63600 0.54713
 H629 H 0.79722 0.66943 0.58032
 H630 H 0.72597 0.61363 0.64285
 H631 H 0.73388 0.64658 0.67573
 H632 H 0.78691 0.68804 0.62353
 C633 C 0.71661 0.95569 0.07628
 C634 C 0.73695 0.93731 0.08229
 C635 C 0.75847 0.93532 0.06435
 C636 C 0.75997 0.95194 0.04216
 C637 C 0.73965 0.96995 0.03641
 C638 C 0.71782 0.97140 0.05350
 C639 C 0.77821 0.91643 0.06834
 C640 C 0.77650 0.89854 0.08912
 C641 C 0.75535 0.89946 0.10736
 C642 C 0.73624 0.92023 0.10491
 C643 C 0.71739 0.92343 0.12532
 C644 C 0.71659 0.90628 0.14687
 C645 C 0.73373 0.88465 0.14838
 C646 C 0.75294 0.88056 0.12828
 C647 C 0.76841 0.85722 0.12947
 C648 C 0.76527 0.83912 0.15007
 C649 C 0.74710 0.84386 0.17042
 C650 C 0.73152 0.86678 0.16966
 H651 H 0.69898 0.95757 0.08818
 H652 H 0.77682 0.95050 0.02891
 H653 H 0.70142 0.98449 0.04902
 H654 H 0.79487 0.91503 0.05487
 H655 H 0.79259 0.88460 0.09086
 H656 H 0.70344 0.93959 0.12555
 H657 H 0.70196 0.90964 0.16222
 H658 H 0.78244 0.85190 0.11429
 H659 H 0.77732 0.82135 0.15024
 H660 H 0.71705 0.87020 0.18516
 C661 C 0.28153 0.42595 0.55877
 C662 C 0.26182 0.42510 0.57863
 C663 C 0.24205 0.44506 0.57835
 C664 C 0.24074 0.46340 0.55738
 C665 C 0.25970 0.46298 0.53710
 C666 C 0.28042 0.44459 0.53848
 C667 C 0.22348 0.44631 0.59877
 C668 C 0.22414 0.42823 0.61955
 C669 C 0.24280 0.40738 0.62013
 C670 C 0.26117 0.40516 0.59870
 C671 C 0.27754 0.38251 0.59740
 C672 C 0.27643 0.36294 0.61664
 C673 C 0.25972 0.36553 0.63844
 C674 C 0.24319 0.38813 0.64095
 C675 C 0.22804 0.39065 0.66443
 C676 C 0.22890 0.37121 0.68410
 C677 C 0.24433 0.34844 0.68080
 C678 C 0.25963 0.34566 0.65790
 H679 H 0.29827 0.41270 0.55854
 H680 H 0.22465 0.47760 0.55655
 H681 H 0.29571 0.44436 0.52341
 H682 H 0.20834 0.46154 0.59877
 H683 H 0.20895 0.43043 0.63439
 H684 H 0.29073 0.37877 0.58105
 H685 H 0.28904 0.34569 0.61457
 H686 H 0.21595 0.40775 0.66852
 H687 H 0.21722 0.37386 0.70191
 H688 H 0.27212 0.32833 0.65561
 C689 C 0.76663 0.04224 0.89901
 C690 C 0.75058 0.06514 0.89659
 C691 C 0.72939 0.06810 0.91472
 C692 C 0.72479 0.04910 0.93430
 C693 C 0.74203 0.02753 0.93800
 C694 C 0.76257 0.02396 0.91952
 C695 C 0.71337 0.09055 0.91401
 C696 C 0.71900 0.11118 0.89688
 C697 C 0.74051 0.10977 0.87914
 C698 C 0.75536 0.08570 0.87763
 C699 C 0.77429 0.08307 0.85720
 C700 C 0.77890 0.10351 0.83926
 C701 C 0.76581 0.12774 0.84174
 C702 C 0.74714 0.13149 0.86236
 C703 C 0.73623 0.15707 0.86573
 C704 C 0.74227 0.17751 0.84823
 C705 C 0.75911 0.17314 0.82669
 C706 C 0.77114 0.14828 0.82371
 H707 H 0.78350 0.03875 0.88641
 H708 H 0.70799 0.05171 0.94745
 H709 H 0.77683 0.00813 0.92188
 H710 H 0.69679 0.09262 0.92751
 H711 H 0.70566 0.12784 0.89752
 H712 H 0.78530 0.06506 0.85408
 H713 H 0.79322 0.10046 0.82355
 H714 H 0.72334 0.16204 0.88201
 H715 H 0.73300 0.19664 0.85112
 H716 H 0.78470 0.14497 0.80738
 C717 C 0.27370 0.54394 0.40123
 C718 C 0.25533 0.56516 0.40003
 C719 C 0.23593 0.56675 0.42026
 C720 C 0.23472 0.54751 0.44022
 C721 C 0.25358 0.52718 0.44169
 C722 C 0.27300 0.52555 0.42196
 C723 C 0.21830 0.58799 0.42101
 C724 C 0.22028 0.60852 0.40289
 C725 C 0.23950 0.60816 0.38261
 C726 C 0.25616 0.58536 0.38014
 C727 C 0.27280 0.58343 0.35777
 C728 C 0.27374 0.60344 0.33888
 C729 C 0.25899 0.62659 0.34205
 C730 C 0.24220 0.62962 0.36434
 C731 C 0.22929 0.65430 0.36775
 C732 C 0.23219 0.67461 0.34921
 C733 C 0.24762 0.67090 0.32652
 C734 C 0.26105 0.64685 0.32309
 H735 H 0.28968 0.54182 0.38724
 H736 H 0.21960 0.54897 0.45542
 H737 H 0.28831 0.51055 0.42304
 H738 H 0.20323 0.58912 0.43627
 H739 H 0.20591 0.62419 0.40482
 H740 H 0.28479 0.56621 0.35387
 H741 H 0.28653 0.60095 0.32182
 H742 H 0.21737 0.65876 0.38488
 H743 H 0.22191 0.69317 0.35239
 H744 H 0.27354 0.64410 0.30583
 C745 C 0.22521 0.93435 0.91587
 C746 C 0.23975 0.91054 0.91682
 C747 C 0.25567 0.90579 0.93950
 C748 C 0.25878 0.92548 0.95908
 C749 C 0.24593 0.95007 0.95654
 C750 C 0.22843 0.95363 0.93515
 C751 C 0.26896 0.88170 0.94206
 C752 C 0.26697 0.86233 0.92255
 C753 C 0.25224 0.86666 0.89910
 C754 C 0.23906 0.89151 0.89592
 C755 C 0.22655 0.89704 0.87149
 C756 C 0.22629 0.87876 0.85107
 C757 C 0.23801 0.85402 0.85421
 C758 C 0.25078 0.84733 0.87838
 C759 C 0.26129 0.82145 0.88076
 C760 C 0.25938 0.80333 0.85995
 C761 C 0.24732 0.81041 0.83596
 C762 C 0.23681 0.83587 0.83322
 H763 H 0.21101 0.93872 0.90054
 H764 H 0.27262 0.92219 0.97515
 H765 H 0.21699 0.97170 0.93324
 H766 H 0.28110 0.87777 0.95934
 H767 H 0.27807 0.84445 0.92601
 H768 H 0.21748 0.91583 0.86708
 H769 H 0.21666 0.88404 0.83261
 H770 H 0.27055 0.81436 0.89863
 H771 H 0.26745 0.78364 0.86264
 H772 H 0.22696 0.84135 0.81492
 C773 C 0.72762 0.40637 0.44800
 C774 C 0.74439 0.40247 0.42581
 C775 C 0.76431 0.42165 0.42100
 C776 C 0.76746 0.44331 0.43797
 C777 C 0.75016 0.44739 0.45924
 C778 C 0.73031 0.42868 0.46420
 C779 C 0.78060 0.41962 0.39882
 C780 C 0.77666 0.39974 0.38036
 C781 C 0.75667 0.38055 0.38379
 C782 C 0.74147 0.38088 0.40769
 C783 C 0.72411 0.35955 0.41269
 C784 C 0.72108 0.33904 0.39456
 C785 C 0.73432 0.33955 0.37030
 C786 C 0.75175 0.36071 0.36428
 C787 C 0.76302 0.36156 0.33863
 C788 C 0.75799 0.34166 0.32022
 C789 C 0.74193 0.32009 0.32677
 C790 C 0.73009 0.31912 0.35186
 H791 H 0.71143 0.39324 0.45259
 H792 H 0.78289 0.45772 0.43403
 H793 H 0.71630 0.43173 0.48015
 H794 H 0.79613 0.43402 0.39530
 H795 H 0.79015 0.39951 0.36381
 H796 H 0.71311 0.35776 0.43090
 H797 H 0.70780 0.32289 0.39936
 H798 H 0.77521 0.37773 0.33191
 H799 H 0.76713 0.34295 0.30085
 H800 H 0.71716 0.30271 0.35683
 C801 C 0.06423 0.21594 0.07850
 C802 C 0.08445 0.23510 0.08125
 C803 C 0.08441 0.25682 0.06345
 C804 C 0.06344 0.26032 0.04542
 C805 C 0.04303 0.24158 0.04370
 C806 C 0.04400 0.21917 0.06000
 C807 C 0.10516 0.27505 0.06396
 C808 C 0.12606 0.27215 0.08168
 C809 C 0.12641 0.25146 0.10051
 C810 C 0.10466 0.23335 0.10101
 C811 C 0.10316 0.21482 0.12190
 C812 C 0.12240 0.21379 0.14151
 C813 C 0.14439 0.23042 0.14057
 C814 C 0.14725 0.24888 0.11957
 C815 C 0.17098 0.26382 0.11851
 C816 C 0.19036 0.26126 0.13813
 C817 C 0.18648 0.24420 0.15960
 C818 C 0.16355 0.22872 0.16064
 H819 H 0.06374 0.19797 0.09001
 H820 H 0.06286 0.27774 0.03290
 H821 H 0.02877 0.20413 0.05858
 H822 H 0.10534 0.29166 0.05036
 H823 H 0.14115 0.28722 0.08096
 H824 H 0.08663 0.20156 0.12435
 H825 H 0.12011 0.19966 0.15751
 H826 H 0.17537 0.27723 0.10249
 H827 H 0.20821 0.27310 0.13684
 H828 H 0.16085 0.21500 0.17695
 C829 C 0.56351 0.72095 0.57366
 C830 C 0.58383 0.74022 0.57412
 C831 C 0.58290 0.76066 0.55489
 C832 C 0.56106 0.76291 0.53764
 C833 C 0.54046 0.74429 0.53844
 C834 C 0.54232 0.72304 0.55614
 C835 C 0.60358 0.77891 0.55325
 C836 C 0.62517 0.77742 0.57037
 C837 C 0.62639 0.75816 0.59063
 C838 C 0.60490 0.73985 0.59306
 C839 C 0.60450 0.72254 0.61501
 C840 C 0.62445 0.72290 0.63387
 C841 C 0.64600 0.73989 0.63126
 C842 C 0.64784 0.75721 0.60923
 C843 C 0.67114 0.77274 0.60683
 C844 C 0.69107 0.77177 0.62615
 C845 C 0.68813 0.75576 0.64855
 C846 C 0.66569 0.73972 0.65083
 H847 H 0.56359 0.70379 0.58633
 H848 H 0.55987 0.77941 0.52397
 H849 H 0.52703 0.70799 0.55658
 H850 H 0.60312 0.79451 0.53851
 H851 H 0.64014 0.79243 0.56795
 H852 H 0.58835 0.70915 0.61887
 H853 H 0.62298 0.70964 0.65071
 H854 H 0.67473 0.78548 0.59009
 H855 H 0.70855 0.78400 0.62387
 H856 H 0.66372 0.72674 0.66784
 C857 C 0.03667 0.72754 0.92110
 C858 C 0.05868 0.74440 0.91691
 C859 C 0.06284 0.76527 0.93521
 C860 C 0.04491 0.76969 0.95589
 C861 C 0.02338 0.75271 0.95991
 C862 C 0.01962 0.73144 0.94252
 C863 C 0.08517 0.78134 0.93315
 C864 C 0.10425 0.77640 0.91404
 C865 C 0.10116 0.75573 0.89552
 C866 C 0.07719 0.74070 0.89584
 C867 C 0.07236 0.72288 0.87485
 C868 C 0.09076 0.71929 0.85467
 C869 C 0.11512 0.73232 0.85530
 C870 C 0.12099 0.75008 0.87623
 C871 C 0.14675 0.76102 0.87738
 C872 C 0.16539 0.75549 0.85784
 C873 C 0.15891 0.73925 0.83637
 C874 C 0.13376 0.72766 0.83516
 H875 H 0.03284 0.71047 0.90889
 H876 H 0.04809 0.78605 0.96942
 H877 H 0.00362 0.71752 0.94576
 H878 H 0.08829 0.79752 0.94690
 H879 H 0.12090 0.78976 0.91368
 H880 H 0.05402 0.71211 0.87299
 H881 H 0.08607 0.70577 0.83868
 H882 H 0.15332 0.77339 0.89349
 H883 H 0.18482 0.76451 0.85919
 H884 H 0.12889 0.71469 0.81875
 C885 C 0.56748 0.20450 0.44811
 C886 C 0.56936 0.22344 0.42756
 C887 C 0.54927 0.24305 0.42595
 C888 C 0.52974 0.24499 0.44574
 C889 C 0.52935 0.22705 0.46687
 C890 C 0.54785 0.20640 0.46738
 C891 C 0.54922 0.26101 0.40499
 C892 C 0.56870 0.26005 0.38557
 C893 C 0.58970 0.24156 0.38686
 C894 C 0.59054 0.22363 0.40875
 C895 C 0.61306 0.20727 0.41178
 C896 C 0.63382 0.20798 0.39377
 C897 C 0.63268 0.22433 0.37157
 C898 C 0.61032 0.24090 0.36741
 C899 C 0.60938 0.25583 0.34371
 C900 C 0.62995 0.25460 0.32532
 C901 C 0.65232 0.23889 0.33003
 C902 C 0.65371 0.22396 0.35330
 H903 H 0.58083 0.18794 0.44981
 H904 H 0.51543 0.26100 0.44522
 H905 H 0.54753 0.19204 0.48333
 H906 H 0.53393 0.27602 0.40358
 H907 H 0.56735 0.27488 0.37030
 H908 H 0.61572 0.19431 0.42852
 H909 H 0.65086 0.19534 0.39713
 H910 H 0.59271 0.26806 0.33839
 H911 H 0.62843 0.26616 0.30729
 H912 H 0.67079 0.21137 0.35674
 C913 C 0.94834 0.77309 0.09828
 C914 C 0.92515 0.75730 0.09891
 C915 C 0.92055 0.74022 0.07718
 C916 C 0.93850 0.73897 0.05610
 C917 C 0.96108 0.75528 0.05513
 C918 C 0.96579 0.77221 0.07673
 C919 C 0.89775 0.72472 0.07619
 C920 C 0.87852 0.72678 0.09564
 C921 C 0.88161 0.74414 0.11728
 C922 C 0.90595 0.75845 0.11980
 C923 C 0.91026 0.77325 0.14312
 C924 C 0.89108 0.77478 0.16285
 C925 C 0.86654 0.76243 0.15976
 C926 C 0.86125 0.74735 0.13669
 C927 C 0.83547 0.73675 0.13359
 C928 C 0.81609 0.74047 0.15289
 C929 C 0.82171 0.75454 0.17606
 C930 C 0.84705 0.76539 0.17946
 H931 H 0.95294 0.78725 0.11354
 H932 H 0.93472 0.72505 0.04019
 H933 H 0.98212 0.78607 0.07645
 H934 H 0.89440 0.71125 0.05982
 H935 H 0.86158 0.71400 0.09341
 H936 H 0.92860 0.78347 0.14699
 H937 H 0.89532 0.78623 0.18050
 H938 H 0.82933 0.72619 0.11611
 H939 H 0.79658 0.73211 0.14970
 H940 H 0.85138 0.77680 0.19713
 C941 C 0.45158 0.26621 0.60078
 C942 C 0.42826 0.25073 0.60321
 C943 C 0.42397 0.23070 0.58404
 C944 C 0.44265 0.22603 0.56402
 C945 C 0.46525 0.24197 0.56137
 C946 C 0.46951 0.26209 0.57997
 C947 C 0.40074 0.21580 0.58446
 C948 C 0.38099 0.22099 0.60284
 C949 C 0.38407 0.24084 0.62223
 C950 C 0.40869 0.25489 0.62338
 C951 C 0.41301 0.27225 0.64486
 C952 C 0.39379 0.27610 0.66425
 C953 C 0.36912 0.26372 0.66248
 C954 C 0.36359 0.24657 0.64097
 C955 C 0.33758 0.23622 0.63888
 C956 C 0.31838 0.24172 0.65802
 C957 C 0.32446 0.25734 0.68006
 C958 C 0.34987 0.26842 0.68209
 H959 H 0.45588 0.28248 0.61388
 H960 H 0.43910 0.21039 0.54974
 H961 H 0.48626 0.27531 0.57797
 H962 H 0.39750 0.20028 0.56999
 H963 H 0.36372 0.20849 0.60186
 H964 H 0.43150 0.28251 0.64770
 H965 H 0.39817 0.28924 0.68064
 H966 H 0.33127 0.22428 0.62237
 H967 H 0.29879 0.23321 0.65586
 H968 H 0.35456 0.28101 0.69882
 C969 C 0.90992 0.23530 0.95955
 C970 C 0.90916 0.25443 0.93903
 C971 C 0.92872 0.27454 0.93919
 C972 C 0.94771 0.27558 0.95943
 C973 C 0.94898 0.25579 0.97887
 C974 C 0.92978 0.23580 0.97883
 C975 C 0.92994 0.29291 0.91860
 C976 C 0.91305 0.29095 0.89698
 C977 C 0.89354 0.27102 0.89562
 C978 C 0.89045 0.25359 0.91777
 C979 C 0.86869 0.23608 0.91800
 C980 C 0.85110 0.23492 0.89690
 C981 C 0.85498 0.25045 0.87440
 C982 C 0.87659 0.26829 0.87308
 C983 C 0.88062 0.28220 0.84901
 C984 C 0.86317 0.27926 0.82768
 C985 C 0.84108 0.26272 0.82982
 C986 C 0.83725 0.24822 0.85316
 H987 H 0.89646 0.21878 0.96036
 H988 H 0.96254 0.29112 0.95926
 H989 H 0.93078 0.21979 0.99306
 H990 H 0.94469 0.30850 0.91878
 H991 H 0.91534 0.30581 0.88183
 H992 H 0.86424 0.22351 0.93466
 H993 H 0.83447 0.22138 0.89806
 H994 H 0.89735 0.29508 0.84587
 H995 H 0.86663 0.29041 0.80968
 H996 H 0.82046 0.23489 0.85469
 C997 C 0.40481 0.72955 0.45788
 C998 C 0.40342 0.74812 0.43686
 C999 C 0.42280 0.76839 0.43607
 C1000 C 0.44220 0.77014 0.45582
 C1001 C 0.44412 0.75090 0.47572
 C1002 C 0.42513 0.73073 0.47670
 C1003 C 0.42345 0.78626 0.41505
 C1004 C 0.40616 0.78363 0.39387
 C1005 C 0.38681 0.76351 0.39340
 C1006 C 0.38424 0.74665 0.41603
 C1007 C 0.36249 0.72914 0.41715
 C1008 C 0.34429 0.72765 0.39653
 C1009 C 0.34768 0.74263 0.37356
 C1010 C 0.36947 0.76016 0.37130
 C1011 C 0.37332 0.77322 0.34676
 C1012 C 0.35541 0.77002 0.32594
 C1013 C 0.33299 0.75408 0.32902
 C1014 C 0.32934 0.74024 0.35279
 H1015 H 0.39145 0.71299 0.45941
 H1016 H 0.45685 0.78582 0.45492
 H1017 H 0.42659 0.71521 0.49142
 H1018 H 0.43805 0.80199 0.41454
 H1019 H 0.40793 0.79821 0.37837
 H1020 H 0.35850 0.71693 0.43420
 H1021 H 0.32760 0.71427 0.39842
 H1022 H 0.39027 0.78560 0.34288
 H1023 H 0.35872 0.78063 0.30758
 H1024 H 0.31228 0.72738 0.35501
 C1025 C 0.08406 0.05166 0.22394
 C1026 C 0.09398 0.06679 0.24534
 C1027 C 0.08151 0.06389 0.27035
 C1028 C 0.06116 0.04524 0.27394
 C1029 C 0.05178 0.03038 0.25254
 C1030 C 0.06280 0.03434 0.22745
 C1031 C 0.08879 0.08024 0.29138
 C1032 C 0.10742 0.10019 0.28787
 C1033 C 0.12048 0.10372 0.26340
 C1034 C 0.11496 0.08557 0.24243
 C1035 C 0.13091 0.08644 0.21948
 C1036 C 0.15104 0.10502 0.21677
 C1037 C 0.15523 0.12419 0.23619
 C1038 C 0.13942 0.12437 0.25942
 C1039 C 0.14283 0.14558 0.27742
 C1040 C 0.16193 0.16508 0.27297
 C1041 C 0.17853 0.16372 0.25088
 C1042 C 0.17513 0.14329 0.23251
 H1043 H 0.09131 0.05394 0.20398
 H1044 H 0.05161 0.04322 0.29308
 H1045 H 0.05468 0.02414 0.21041
 H1046 H 0.07944 0.07808 0.31059
 H1047 H 0.11193 0.11205 0.30504
 H1048 H 0.12894 0.07223 0.20367
 H1049 H 0.16314 0.10466 0.19903
 H1050 H 0.13057 0.14798 0.29474
 H1051 H 0.16420 0.18097 0.28720
 H1052 H 0.18775 0.14256 0.21513
 C1053 C 0.60187 0.54892 0.76012
 C1054 C 0.60229 0.57092 0.74263
 C1055 C 0.58042 0.57424 0.72534
 C1056 C 0.55947 0.55607 0.72539
 C1057 C 0.55882 0.53506 0.74350
 C1058 C 0.58027 0.53153 0.76073
 C1059 C 0.57903 0.59617 0.70863
 C1060 C 0.59825 0.61575 0.70958
 C1061 C 0.62016 0.61376 0.72682
 C1062 C 0.62306 0.59023 0.74239
 C1063 C 0.64667 0.58677 0.75698
 C1064 C 0.66640 0.60596 0.75701
 C1065 C 0.66301 0.62974 0.74337
 C1066 C 0.63956 0.63430 0.72859
 C1067 C 0.63627 0.65950 0.71667
 C1068 C 0.65594 0.67884 0.71856
 C1069 C 0.67962 0.67366 0.73202
 C1070 C 0.68297 0.64908 0.74447
 H1071 H 0.61725 0.54538 0.77450
 H1072 H 0.54287 0.55895 0.71203
 H1073 H 0.57993 0.51587 0.77537
 H1074 H 0.56249 0.59860 0.69513
 H1075 H 0.59571 0.63203 0.69601
 H1076 H 0.65083 0.56899 0.76803
 H1077 H 0.68436 0.60230 0.76824
 H1078 H 0.61848 0.66510 0.70626
 H1079 H 0.65281 0.69777 0.70897
 H1080 H 0.70107 0.64511 0.75537
 C1081 C 0.93985 0.07371 0.79861
 C1082 C 0.93826 0.09219 0.77774
 C1083 C 0.95935 0.09279 0.75920
 C1084 C 0.97936 0.07323 0.75979
 C1085 C 0.97878 0.05293 0.77892
 C1086 C 0.95956 0.05450 0.79904
 C1087 C 0.95966 0.11224 0.73955
 C1088 C 0.93927 0.13076 0.73761
 C1089 C 0.91706 0.12987 0.75466
 C1090 C 0.91625 0.10973 0.77453
 C1091 C 0.89287 0.10673 0.78961
 C1092 C 0.87114 0.12309 0.78577
 C1093 C 0.87201 0.14359 0.76737
 C1094 C 0.89518 0.14781 0.75198
 C1095 C 0.89546 0.17000 0.73481
 C1096 C 0.87356 0.18690 0.73291
 C1097 C 0.85049 0.18190 0.74747
 C1098 C 0.84980 0.16011 0.76452
 H1099 H 0.92604 0.07347 0.81489
 H1100 H 0.99384 0.07266 0.74398
 H1101 H 0.95939 0.04025 0.81509
 H1102 H 0.97576 0.11306 0.72537
 H1103 H 0.94087 0.14485 0.72166
 H1104 H 0.89028 0.09108 0.80388
 H1105 H 0.85348 0.11973 0.79753
 H1106 H 0.91257 0.17529 0.72320
 H1107 H 0.87462 0.20395 0.71993
 H1108 H 0.83222 0.15660 0.77638
 C1109 C 0.45686 0.59157 0.26608
 C1110 C 0.43697 0.59553 0.24660
 C1111 C 0.43634 0.57786 0.22483
 C1112 C 0.45510 0.55759 0.22260
 C1113 C 0.47366 0.55299 0.24273
 C1114 C 0.47458 0.57033 0.26433
 C1115 C 0.41632 0.57972 0.20589
 C1116 C 0.39582 0.59774 0.20888
 C1117 C 0.39514 0.61535 0.23051
 C1118 C 0.41700 0.61553 0.24858
 C1119 C 0.41819 0.63576 0.26779
 C1120 C 0.39829 0.65470 0.26978
 C1121 C 0.37591 0.65349 0.25358
 C1122 C 0.37360 0.63328 0.23428
 C1123 C 0.34952 0.63147 0.21994
 C1124 C 0.32922 0.64985 0.22375
 C1125 C 0.33245 0.67076 0.24154
 C1126 C 0.35574 0.67239 0.25656
 H1127 H 0.45816 0.60354 0.28369
 H1128 H 0.45427 0.54422 0.20582
 H1129 H 0.48827 0.56680 0.28047
 H1130 H 0.41599 0.56647 0.18901
 H1131 H 0.38104 0.59792 0.19346
 H1132 H 0.43479 0.63798 0.28104
 H1133 H 0.40022 0.67017 0.28452
 H1134 H 0.34556 0.61571 0.20611
 H1135 H 0.31119 0.64811 0.21222
 H1136 H 0.35801 0.68828 0.27082
 C1137 C 0.04970 0.91254 0.78890
 C1138 C 0.06890 0.90854 0.76883
 C1139 C 0.07204 0.92878 0.74962
 C1140 C 0.05581 0.95137 0.75002
 C1141 C 0.03700 0.95513 0.77011
 C1142 C 0.03435 0.93558 0.78964
 C1143 C 0.09166 0.92664 0.73031
 C1144 C 0.10907 0.90536 0.73024
 C1145 C 0.10699 0.88481 0.74907
 C1146 C 0.08562 0.88564 0.76765
 C1147 C 0.08148 0.86340 0.78411
 C1148 C 0.09820 0.84152 0.78310
 C1149 C 0.12026 0.84128 0.76646
 C1150 C 0.12533 0.86320 0.74962
 C1151 C 0.14901 0.86293 0.73460
 C1152 C 0.16650 0.84157 0.73589
 C1153 C 0.16084 0.81955 0.75170
 C1154 C 0.13757 0.81941 0.76683
 H1155 H 0.04685 0.89874 0.80493
 H1156 H 0.05814 0.96636 0.73482
 H1157 H 0.02068 0.93833 0.80593
 H1158 H 0.09397 0.94190 0.71539
 H1159 H 0.12359 0.90519 0.71460
 H1160 H 0.06492 0.86202 0.79751
 H1161 H 0.09410 0.82481 0.79594
 H1162 H 0.15506 0.87931 0.72234
 H1163 H 0.18454 0.84220 0.72427
 H1164 H 0.13340 0.80264 0.77958
 C1165 C 0.54159 0.41136 0.21963
 C1166 C 0.55978 0.40516 0.24011
 C1167 C 0.56212 0.42331 0.26141
 C1168 C 0.54654 0.44623 0.26223
 C1169 C 0.52904 0.45230 0.24162
 C1170 C 0.52670 0.43470 0.22032
 C1171 C 0.58038 0.41885 0.28160
 C1172 C 0.59760 0.39752 0.28044
 C1173 C 0.59680 0.37941 0.25919
 C1174 C 0.57643 0.38221 0.23971
 C1175 C 0.57342 0.36197 0.22066
 C1176 C 0.59056 0.34039 0.21990
 C1177 C 0.61196 0.33866 0.23733
 C1178 C 0.61563 0.35845 0.25693
 C1179 C 0.63865 0.35711 0.27283
 C1180 C 0.65697 0.33681 0.26959
 C1181 C 0.65287 0.31692 0.25081
 C1182 C 0.63013 0.31762 0.23494
 H1183 H 0.53921 0.39914 0.20231
 H1184 H 0.54840 0.45978 0.27878
 H1185 H 0.51370 0.43930 0.20387
 H1186 H 0.58186 0.43238 0.29819
 H1187 H 0.61104 0.39542 0.29690
 H1188 H 0.55755 0.36199 0.20637
 H1189 H 0.58745 0.32527 0.20499
 H1190 H 0.64368 0.37201 0.28724
 H1191 H 0.67452 0.33661 0.28198
 H1192 H 0.62716 0.30241 0.22010
 C1193 C 0.91195 0.96171 0.24161
 C1194 C 0.90896 0.93961 0.25855
 C1195 C 0.92927 0.93466 0.27728
 C1196 C 0.95114 0.95158 0.27925
 C1197 C 0.95428 0.97320 0.26198
 C1198 C 0.93428 0.97794 0.24315
 C1199 C 0.92801 0.91254 0.29371
 C1200 C 0.90769 0.89430 0.29104
 C1201 C 0.88733 0.89793 0.27223
 C1202 C 0.88705 0.92175 0.25693
 C1203 C 0.86480 0.92699 0.24079
 C1204 C 0.84402 0.90908 0.23886
 C1205 C 0.84499 0.88490 0.25216
 C1206 C 0.86694 0.87871 0.26858
 C1207 C 0.86793 0.85321 0.28013
 C1208 C 0.84752 0.83508 0.27624
 C1209 C 0.82535 0.84178 0.26100
 C1210 C 0.82420 0.86674 0.24897
 H1211 H 0.89805 0.96625 0.22605
 H1212 H 0.96580 0.94779 0.29450
 H1213 H 0.93640 0.99347 0.22853
 H1214 H 0.94328 0.90889 0.30837
 H1215 H 0.90813 0.87779 0.30455
 H1216 H 0.86253 0.94520 0.22990
 H1217 H 0.82721 0.91402 0.22642
 H1218 H 0.88454 0.84637 0.29169
 H1219 H 0.84896 0.81580 0.28554
 H1220 H 0.80731 0.87184 0.23669
 C1221 C 0.41928 0.46479 0.77492
 C1222 C 0.41504 0.44341 0.75727
 C1223 C 0.43398 0.43930 0.73695
 C1224 C 0.45555 0.45644 0.73406
 C1225 C 0.45983 0.47709 0.75201
 C1226 C 0.44158 0.48106 0.77252
 C1227 C 0.43175 0.41769 0.71998
 C1228 C 0.41187 0.39912 0.72354
 C1229 C 0.39280 0.40200 0.74376
 C1230 C 0.39332 0.42539 0.75967
 C1231 C 0.37197 0.43007 0.77712
 C1232 C 0.35127 0.41206 0.77955
 C1233 C 0.35165 0.38819 0.76567
 C1234 C 0.37286 0.38249 0.74816
 C1235 C 0.37365 0.35714 0.73630
 C1236 C 0.35361 0.33875 0.74080
 C1237 C 0.33195 0.34508 0.75686
 C1238 C 0.33102 0.36984 0.76928
 H1239 H 0.40646 0.46862 0.79155
 H1240 H 0.46970 0.45317 0.71822
 H1241 H 0.44490 0.49637 0.78714
 H1242 H 0.44598 0.41468 0.70418
 H1243 H 0.41145 0.38302 0.70956
 H1244 H 0.37030 0.44800 0.78856
 H1245 H 0.33507 0.41663 0.79289
 H1246 H 0.38987 0.35066 0.72403
 H1247 H 0.35479 0.31962 0.73121
 H1248 H 0.31450 0.37459 0.78216
 C1249 C 0.08877 0.23961 0.97081
 C1250 C 0.09041 0.25905 0.95062
 C1251 C 0.06933 0.27742 0.94853
 C1252 C 0.04774 0.27618 0.96580
 C1253 C 0.04552 0.25605 0.98488
 C1254 C 0.06661 0.23804 0.98744
 C1255 C 0.06934 0.29658 0.92869
 C1256 C 0.08894 0.29683 0.90954
 C1257 C 0.10972 0.27817 0.90988
 C1258 C 0.11154 0.26023 0.93174
 C1259 C 0.13433 0.24415 0.93385
 C1260 C 0.15409 0.24477 0.91465
 C1261 C 0.15140 0.26058 0.89212
 C1262 C 0.12888 0.27709 0.88915
 C1263 C 0.12592 0.29113 0.86505
 C1264 C 0.14490 0.28929 0.84512
 C1265 C 0.16759 0.27383 0.84863
 C1266 C 0.17086 0.25962 0.87225
 H1267 H 0.10358 0.22445 0.97332
 H1268 H 0.03216 0.29089 0.96397
 H1269 H 0.06539 0.22158 1.00111
 H1270 H 0.05352 0.31107 0.92742
 H1271 H 0.08754 0.31229 0.89489
 H1272 H 0.13773 0.23123 0.95050
 H1273 H 0.17133 0.23219 0.91712
 H1274 H 0.10871 0.30295 0.86059
 H1275 H 0.14187 0.30021 0.82688
 H1276 H 0.18816 0.24717 0.87480
 C1277 C 0.58238 0.73617 0.46120
 C1278 C 0.58363 0.75607 0.44140
 C1279 C 0.56339 0.77552 0.44112
 C1280 C 0.54320 0.77511 0.46008
 C1281 C 0.54146 0.75454 0.47860
 C1282 C 0.56135 0.73525 0.47921
 C1283 C 0.56268 0.79467 0.42125
 C1284 C 0.58074 0.79409 0.40059
 C1285 C 0.60089 0.77478 0.39955
 C1286 C 0.60346 0.75665 0.42119
 C1287 C 0.62580 0.73986 0.42195
 C1288 C 0.64449 0.74012 0.40177
 C1289 C 0.64112 0.75629 0.37963
 C1290 C 0.61891 0.77335 0.37780
 C1291 C 0.61535 0.78780 0.35398
 C1292 C 0.63378 0.78614 0.33340
 C1293 C 0.65642 0.77044 0.33611
 C1294 C 0.65987 0.75545 0.35919
 H1295 H 0.59646 0.72016 0.46228
 H1296 H 0.52777 0.79006 0.45950
 H1297 H 0.56006 0.71880 0.49290
 H1298 H 0.54742 0.80979 0.42119
 H1299 H 0.57884 0.80951 0.38595
 H1300 H 0.62981 0.72681 0.43836
 H1301 H 0.66155 0.72713 0.40331
 H1302 H 0.59822 0.80004 0.35040
 H1303 H 0.63061 0.79762 0.31555
 H1304 H 0.67710 0.74279 0.36108
 C1305 C 0.95584 0.76946 0.91368
 C1306 C 0.93297 0.75345 0.91115
 C1307 C 0.92552 0.73791 0.93330
 C1308 C 0.94071 0.73803 0.95653
 C1309 C 0.96353 0.75379 0.95881
 C1310 C 0.97065 0.76969 0.93707
 C1311 C 0.90283 0.72228 0.93231
 C1312 C 0.88660 0.72249 0.91020
 C1313 C 0.89265 0.73816 0.88785
 C1314 C 0.91689 0.75284 0.88777
 C1315 C 0.92426 0.76615 0.86428
 C1316 C 0.90802 0.76603 0.84201
 C1317 C 0.88351 0.75329 0.84244
 C1318 C 0.87533 0.73946 0.86550
 C1319 C 0.84970 0.72815 0.86557
 C1320 C 0.83314 0.73032 0.84366
 C1321 C 0.84146 0.74355 0.82079
 C1322 C 0.86683 0.75475 0.82011
 H1323 H 0.96235 0.78270 0.89828
 H1324 H 0.93496 0.72515 0.97273
 H1325 H 0.98719 0.78326 0.93839
 H1326 H 0.89729 0.71000 0.94903
 H1327 H 0.86963 0.70961 0.91107
 H1328 H 0.94280 0.77652 0.86230
 H1329 H 0.91451 0.77649 0.82443
 H1330 H 0.84139 0.71825 0.88253
 H1331 H 0.81356 0.72159 0.84469
 H1332 H 0.87320 0.76542 0.80259
 C1333 C 0.45762 0.21353 0.42101
 C1334 C 0.43712 0.23228 0.41696
 C1335 C 0.43290 0.25146 0.43700
 C1336 C 0.44922 0.25233 0.45941
 C1337 C 0.46905 0.23336 0.46347
 C1338 C 0.47300 0.21386 0.44412
 C1339 C 0.41204 0.26942 0.43496
 C1340 C 0.39423 0.26789 0.41414
 C1341 C 0.39720 0.24884 0.39395
 C1342 C 0.42002 0.23211 0.39431
 C1343 C 0.42507 0.21616 0.37190
 C1344 C 0.40790 0.21604 0.35025
 C1345 C 0.38435 0.23059 0.35073
 C1346 C 0.37831 0.24645 0.37309
 C1347 C 0.35310 0.25852 0.37422
 C1348 C 0.33514 0.25585 0.35350
 C1349 C 0.34179 0.24182 0.33055
 C1350 C 0.36652 0.22913 0.32926
 H1351 H 0.46137 0.19765 0.40725
 H1352 H 0.44600 0.26754 0.47422
 H1353 H 0.48763 0.19847 0.44710
 H1354 H 0.40900 0.28440 0.45003
 H1355 H 0.37868 0.28253 0.41388
 H1356 H 0.44271 0.20422 0.37020
 H1357 H 0.41276 0.20386 0.33326
 H1358 H 0.34625 0.26924 0.39136
 H1359 H 0.31588 0.26496 0.35548
 H1360 H 0.37154 0.21750 0.31193
 C1361 C 0.03881 0.73880 0.09639
 C1362 C 0.06031 0.75684 0.09749
 C1363 C 0.06166 0.77673 0.07774
 C1364 C 0.04204 0.77862 0.05824
 C1365 C 0.02172 0.75981 0.05655
 C1366 C 0.02013 0.74003 0.07592
 C1367 C 0.08318 0.79399 0.07679
 C1368 C 0.10434 0.79100 0.09405
 C1369 C 0.10428 0.77115 0.11370
 C1370 C 0.08112 0.75510 0.11667
 C1371 C 0.07952 0.73807 0.13878
 C1372 C 0.10021 0.73618 0.15688
 C1373 C 0.12372 0.75020 0.15301
 C1374 C 0.12641 0.76727 0.13090
 C1375 C 0.15140 0.77923 0.12653
 C1376 C 0.17235 0.77535 0.14416
 C1377 C 0.16896 0.75992 0.16688
 C1378 C 0.14464 0.74723 0.17112
 H1379 H 0.03683 0.72254 0.11008
 H1380 H 0.04345 0.79389 0.04319
 H1381 H 0.00501 0.72489 0.07465
 H1382 H 0.08411 0.80946 0.06192
 H1383 H 0.12027 0.80505 0.09202
 H1384 H 0.06206 0.72656 0.14308
 H1385 H 0.09797 0.72318 0.17382
 H1386 H 0.15557 0.79116 0.10931
 H1387 H 0.19110 0.78499 0.14034
 H1388 H 0.14211 0.73475 0.18842
 C1389 C 0.54426 0.22648 0.60413
 C1390 C 0.56629 0.24388 0.60235
 C1391 C 0.56716 0.26154 0.58056
 C1392 C 0.54705 0.26141 0.56148
 C1393 C 0.52655 0.24277 0.56246
 C1394 C 0.52490 0.22574 0.58423
 C1395 C 0.58872 0.27841 0.57708
 C1396 C 0.61044 0.27708 0.59384
 C1397 C 0.61111 0.25921 0.61528
 C1398 C 0.58803 0.24358 0.62061
 C1399 C 0.58754 0.22820 0.64394
 C1400 C 0.60909 0.22750 0.66106
 C1401 C 0.63231 0.24130 0.65519
 C1402 C 0.63395 0.25685 0.63190
 C1403 C 0.65860 0.26897 0.62599
 C1404 C 0.68016 0.26679 0.64324
 C1405 C 0.67782 0.25270 0.66696
 C1406 C 0.65391 0.23973 0.67263
 H1407 H 0.54225 0.21210 0.61976
 H1408 H 0.54835 0.27461 0.54457
 H1409 H 0.50941 0.21094 0.58515
 H1410 H 0.58922 0.29223 0.56065
 H1411 H 0.62631 0.29074 0.58975
 H1412 H 0.57041 0.21695 0.64989
 H1413 H 0.60770 0.21568 0.67893
 H1414 H 0.66199 0.27994 0.60799
 H1415 H 0.69850 0.27682 0.63836
 H1416 H 0.65211 0.22834 0.69075
 C1417 C 0.90428 0.26661 0.05275
 C1418 C 0.89935 0.24553 0.07063
 C1419 C 0.91808 0.22460 0.07154
 C1420 C 0.94054 0.22494 0.05524
 C1421 C 0.94550 0.24631 0.03833
 C1422 C 0.92710 0.26701 0.03706
 C1423 C 0.91472 0.20368 0.08919
 C1424 C 0.89394 0.20366 0.10712
 C1425 C 0.87531 0.22449 0.10781
 C1426 C 0.87715 0.24496 0.08829
 C1427 C 0.85680 0.26413 0.08718
 C1428 C 0.83609 0.26412 0.10532
 C1429 C 0.83515 0.24549 0.12568
 C1430 C 0.85486 0.22551 0.12737
 C1431 C 0.85373 0.20785 0.14913
 C1432 C 0.83391 0.21002 0.16819
 C1433 C 0.81449 0.22957 0.16624
 C1434 C 0.81485 0.24701 0.14472
 H1435 H 0.89150 0.28361 0.05117
 H1436 H 0.95471 0.20881 0.05622
 H1437 H 0.93078 0.28396 0.02445
 H1438 H 0.92873 0.18740 0.08962
 H1439 H 0.89284 0.18672 0.12002
 H1440 H 0.85611 0.27930 0.07220
 H1441 H 0.82095 0.27928 0.10374
 H1442 H 0.86826 0.19258 0.15249
 H1443 H 0.83354 0.19611 0.18441
 H1444 H 0.79982 0.26230 0.14330
 C1445 C 0.39962 0.76132 0.54956
 C1446 C 0.39690 0.74126 0.56901
 C1447 C 0.41757 0.72237 0.57124
 C1448 C 0.43961 0.72344 0.55441
 C1449 C 0.44235 0.74381 0.53581
 C1450 C 0.42214 0.76266 0.53347
 C1451 C 0.41656 0.70283 0.59069
 C1452 C 0.39621 0.70245 0.60912
 C1453 C 0.37561 0.72133 0.60839
 C1454 C 0.37501 0.73992 0.58701
 C1455 C 0.35258 0.75642 0.58436
 C1456 C 0.33206 0.75573 0.60273
 C1457 C 0.33350 0.73932 0.62492
 C1458 C 0.35549 0.72214 0.62828
 C1459 C 0.35697 0.70720 0.65196
 C1460 C 0.33734 0.70916 0.67127
 C1461 C 0.31538 0.72564 0.66751
 C1462 C 0.31334 0.74041 0.64412
 H1463 H 0.38530 0.77695 0.54710
 H1464 H 0.45520 0.70877 0.55632
 H1465 H 0.42410 0.77894 0.51964
 H1466 H 0.43208 0.68806 0.59216
 H1467 H 0.39689 0.68669 0.62349
 H1468 H 0.35005 0.76978 0.56791
 H1469 H 0.31521 0.76874 0.59989
 H1470 H 0.37353 0.69458 0.65667
 H1471 H 0.33934 0.69766 0.68928
 H1472 H 0.29657 0.75355 0.64135
 C1473 C 0.27992 0.06401 0.92055
 C1474 C 0.26296 0.08607 0.92289
 C1475 C 0.24688 0.08789 0.94585
 C1476 C 0.24582 0.06677 0.96412
 C1477 C 0.26123 0.04388 0.96020
 C1478 C 0.27891 0.04341 0.93870
 C1479 C 0.23146 0.11045 0.94997
 C1480 C 0.23151 0.13114 0.93171
 C1481 C 0.24619 0.12955 0.90792
 C1482 C 0.26139 0.10617 0.90309
 C1483 C 0.27350 0.10297 0.87809
 C1484 C 0.27141 0.12218 0.85863
 C1485 C 0.25783 0.14566 0.86346
 C1486 C 0.24553 0.15008 0.88835
 C1487 C 0.23335 0.17500 0.89256
 C1488 C 0.23304 0.19427 0.87265
 C1489 C 0.24431 0.18917 0.84783
 C1490 C 0.25661 0.16480 0.84339
 H1491 H 0.29439 0.06213 0.90497
 H1492 H 0.23189 0.06763 0.98042
 H1493 H 0.29206 0.02670 0.93576
 H1494 H 0.21921 0.11215 0.96751
 H1495 H 0.21887 0.14772 0.93626
 H1496 H 0.28390 0.08522 0.87246
 H1497 H 0.28071 0.11865 0.83960
 H1498 H 0.22448 0.18043 0.91119
 H1499 H 0.22373 0.21316 0.87662
 H1500 H 0.26591 0.16098 0.82440
 C1501 C 0.77445 0.56501 0.41490
 C1502 C 0.75584 0.58589 0.41608
 C1503 C 0.73861 0.58690 0.43824
 C1504 C 0.73834 0.56616 0.45686
 C1505 C 0.75592 0.54480 0.45440
 C1506 C 0.77441 0.54492 0.43375
 C1507 C 0.72146 0.60834 0.44136
 C1508 C 0.72102 0.62885 0.42296
 C1509 C 0.73697 0.62812 0.39998
 C1510 C 0.75380 0.60570 0.39600
 C1511 C 0.76716 0.60314 0.37158
 C1512 C 0.76467 0.62209 0.35189
 C1513 C 0.74954 0.64477 0.35603
 C1514 C 0.73603 0.64856 0.38036
 C1515 C 0.72248 0.67285 0.38408
 C1516 C 0.72198 0.69211 0.36417
 C1517 C 0.73436 0.68754 0.33980
 C1518 C 0.74805 0.66381 0.33588
 H1519 H 0.78952 0.56380 0.39984
 H1520 H 0.72400 0.56631 0.47283
 H1521 H 0.78869 0.52899 0.43192
 H1522 H 0.70829 0.60934 0.45829
 H1523 H 0.70705 0.64455 0.42670
 H1524 H 0.77890 0.58603 0.36659
 H1525 H 0.77494 0.61906 0.33328
 H1526 H 0.71273 0.67786 0.40239
 H1527 H 0.71172 0.71056 0.36779
 H1528 H 0.75828 0.66047 0.31728
 C1529 C 0.70717 0.06813 0.05091
 C1530 C 0.72413 0.06827 0.07313
 C1531 C 0.74215 0.04692 0.07599
 C1532 C 0.74482 0.02783 0.05582
 C1533 C 0.72933 0.02931 0.03267
 C1534 C 0.70986 0.04919 0.03115
 C1535 C 0.75798 0.04523 0.09858
 C1536 C 0.75656 0.06441 0.11828
 C1537 C 0.73982 0.08671 0.11570
 C1538 C 0.72393 0.08900 0.09236
 C1539 C 0.70930 0.11251 0.08834
 C1540 C 0.70981 0.13295 0.10661
 C1541 C 0.72433 0.13063 0.12995
 C1542 C 0.73907 0.10727 0.13522
 C1543 C 0.75228 0.10551 0.15991
 C1544 C 0.75130 0.12629 0.17812
 C1545 C 0.73749 0.14962 0.17225
 C1546 C 0.72410 0.15166 0.14810
 H1547 H 0.69148 0.08235 0.04820
 H1548 H 0.76024 0.01301 0.05750
 H1549 H 0.69653 0.05021 0.01434
 H1550 H 0.77173 0.02891 0.10104
 H1551 H 0.76971 0.06174 0.13487
 H1552 H 0.69797 0.11623 0.07064
 H1553 H 0.69859 0.15078 0.10244
 H1554 H 0.76310 0.08815 0.16601
 H1555 H 0.76165 0.12420 0.19681
 H1556 H 0.71294 0.16948 0.14366
 C1557 C 0.26836 0.53677 0.58235
 C1558 C 0.24848 0.55646 0.58477
 C1559 C 0.22992 0.55892 0.56383
 C1560 C 0.23095 0.54191 0.54197
 C1561 C 0.25113 0.52303 0.53951
 C1562 C 0.26982 0.52062 0.55988
 C1563 C 0.21078 0.57881 0.56438
 C1564 C 0.21043 0.59733 0.58462
 C1565 C 0.22879 0.59616 0.60566
 C1566 C 0.24696 0.57443 0.60664
 C1567 C 0.26277 0.57131 0.62951
 C1568 C 0.26158 0.58935 0.65027
 C1569 C 0.24545 0.61174 0.64861
 C1570 C 0.22928 0.61581 0.62600
 C1571 C 0.21489 0.63983 0.62430
 C1572 C 0.21609 0.65860 0.64452
 C1573 C 0.23115 0.65388 0.66727
 C1574 C 0.24569 0.63034 0.66929
 H1575 H 0.28382 0.53422 0.59686
 H1576 H 0.21646 0.54396 0.52622
 H1577 H 0.28605 0.50670 0.55812
 H1578 H 0.19632 0.58053 0.54858
 H1579 H 0.19499 0.61205 0.58361
 H1580 H 0.27579 0.55462 0.63225
 H1581 H 0.27390 0.58605 0.66756
 H1582 H 0.20326 0.64512 0.60719
 H1583 H 0.20498 0.67684 0.64245
 H1584 H 0.25788 0.62691 0.68664
 C1585 C 0.73230 0.95207 0.89637
 C1586 C 0.75162 0.93175 0.89546
 C1587 C 0.76928 0.92950 0.91720
 C1588 C 0.76818 0.94762 0.93824
 C1589 C 0.74874 0.96745 0.93899
 C1590 C 0.73071 0.96930 0.91795
 C1591 C 0.78757 0.90883 0.91816
 C1592 C 0.78798 0.88953 0.89860
 C1593 C 0.77065 0.89069 0.87668
 C1594 C 0.75338 0.91303 0.87426
 C1595 C 0.73875 0.91607 0.85062
 C1596 C 0.74007 0.89736 0.83049
 C1597 C 0.75521 0.87445 0.83348
 C1598 C 0.77031 0.87048 0.85685
 C1599 C 0.78382 0.84606 0.85972
 C1600 C 0.78268 0.82674 0.83998
 C1601 C 0.76855 0.83126 0.81657
 C1602 C 0.75502 0.85525 0.81334
 H1603 H 0.71735 0.95440 0.88130
 H1604 H 0.78211 0.94586 0.95450
 H1605 H 0.71491 0.98380 0.91844
 H1606 H 0.80130 0.90715 0.93459
 H1607 H 0.80269 0.87421 0.90082
 H1608 H 0.72660 0.93319 0.84676
 H1609 H 0.72864 0.90063 0.81260
 H1610 H 0.79473 0.84093 0.87735
 H1611 H 0.79314 0.80823 0.84293
 H1612 H 0.74363 0.85864 0.79543
 C1613 C 0.24084 0.45139 0.39799
 C1614 C 0.25975 0.43068 0.39623
 C1615 C 0.27915 0.42897 0.41648
 C1616 C 0.27956 0.44731 0.43724
 C1617 C 0.25988 0.46673 0.43952
 C1618 C 0.24074 0.46886 0.41954
 C1619 C 0.29749 0.40835 0.41659
 C1620 C 0.29598 0.38824 0.39801
 C1621 C 0.27648 0.38844 0.37800
 C1622 C 0.25938 0.41093 0.37589
 C1623 C 0.24264 0.41284 0.35355
 C1624 C 0.24195 0.39296 0.33446
 C1625 C 0.25690 0.36990 0.33752
 C1626 C 0.27383 0.36703 0.35976
 C1627 C 0.28676 0.34244 0.36336
 C1628 C 0.28371 0.32201 0.34511
 C1629 C 0.26818 0.32541 0.32246
 C1630 C 0.25484 0.34947 0.31867
 H1631 H 0.22499 0.45366 0.38385
 H1632 H 0.29451 0.44561 0.45260
 H1633 H 0.22502 0.48337 0.42112
 H1634 H 0.31266 0.40725 0.43177
 H1635 H 0.31085 0.37298 0.39944
 H1636 H 0.23034 0.42991 0.34992
 H1637 H 0.22904 0.39539 0.31746
 H1638 H 0.29870 0.33808 0.38053
 H1639 H 0.29395 0.30355 0.34849
 H1640 H 0.24234 0.35202 0.30137
 C1641 C 0.23017 0.90750 0.03528
 C1642 C 0.24943 0.90495 0.05563
 C1643 C 0.27070 0.92324 0.05579
 C1644 C 0.27263 0.94276 0.03625
 C1645 C 0.25273 0.94598 0.01719
 C1646 C 0.23161 0.92804 0.01665
 C1647 C 0.28943 0.92279 0.07609
 C1648 C 0.28675 0.90552 0.09724
 C1649 C 0.26565 0.88729 0.09842
 C1650 C 0.24777 0.88574 0.07645
 C1651 C 0.22911 0.86495 0.07598
 C1652 C 0.22758 0.84669 0.09656
 C1653 C 0.24366 0.84917 0.11894
 C1654 C 0.26229 0.87005 0.12060
 C1655 C 0.27643 0.87317 0.14465
 C1656 C 0.27313 0.85539 0.16557
 C1657 C 0.25607 0.83376 0.16305
 C1658 C 0.24125 0.83085 0.13974
 H1659 H 0.21296 0.89492 0.03420
 H1660 H 0.28891 0.95678 0.03684
 H1661 H 0.21571 0.93054 0.00245
 H1662 H 0.30592 0.93654 0.07606
 H1663 H 0.30203 0.90640 0.11215
 H1664 H 0.21597 0.86178 0.05944
 H1665 H 0.21329 0.83073 0.09516
 H1666 H 0.28971 0.88951 0.14812
 H1667 H 0.28452 0.85817 0.18355
 H1668 H 0.22762 0.81441 0.13791
 C1669 C 0.77026 0.40884 0.53472
 C1670 C 0.75381 0.40859 0.55747
 C1671 C 0.73573 0.42982 0.56073
 C1672 C 0.73393 0.44989 0.54166
 C1673 C 0.75092 0.45032 0.51973
 C1674 C 0.76903 0.42958 0.51641
 C1675 C 0.72005 0.43142 0.58339
 C1676 C 0.72284 0.41315 0.60370
 C1677 C 0.74094 0.39195 0.60174
 C1678 C 0.75539 0.38867 0.57758
 C1679 C 0.77069 0.36552 0.57428
 C1680 C 0.77259 0.34668 0.59427
 C1681 C 0.76019 0.35063 0.61864
 C1682 C 0.74469 0.37362 0.62297
 C1683 C 0.73416 0.37765 0.64865
 C1684 C 0.73812 0.35913 0.66877
 C1685 C 0.75231 0.33583 0.66396
 C1686 C 0.76335 0.33173 0.63882
 H1687 H 0.78521 0.39402 0.53121
 H1688 H 0.71989 0.46592 0.54442
 H1689 H 0.78290 0.42984 0.50005
 H1690 H 0.70594 0.44743 0.58580
 H1691 H 0.70999 0.41577 0.62053
 H1692 H 0.78088 0.36101 0.55608
 H1693 H 0.78434 0.32906 0.59077
 H1694 H 0.72337 0.39526 0.65403
 H1695 H 0.72969 0.36291 0.68811
 H1696 H 0.77484 0.31398 0.63507
 C1697 C 0.07343 0.07406 0.73926
 C1698 C 0.07657 0.09389 0.75874
 C1699 C 0.05834 0.09420 0.78012
 C1700 C 0.03965 0.07366 0.78313
 C1701 C 0.03812 0.05313 0.76448
 C1702 C 0.05456 0.05414 0.74216
 C1703 C 0.05933 0.11465 0.79866
 C1704 C 0.07811 0.13474 0.79658
 C1705 C 0.09750 0.13457 0.77639
 C1706 C 0.09725 0.11325 0.75775
 C1707 C 0.11837 0.11123 0.73953
 C1708 C 0.13889 0.12951 0.73925
 C1709 C 0.13881 0.15108 0.75643
 C1710 C 0.11774 0.15444 0.77473
 C1711 C 0.11779 0.17769 0.79042
 C1712 C 0.13827 0.19626 0.78841
 C1713 C 0.15960 0.19203 0.77121
 C1714 C 0.15976 0.16938 0.75530
 H1715 H 0.08515 0.07346 0.72143
 H1716 H 0.02691 0.07319 0.80041
 H1717 H 0.05325 0.03892 0.72711
 H1718 H 0.04541 0.11515 0.81500
 H1719 H 0.07768 0.14958 0.81188
 H1720 H 0.12025 0.09497 0.72586
 H1721 H 0.15494 0.12681 0.72524
 H1722 H 0.10198 0.18240 0.80397
 H1723 H 0.13764 0.21384 0.80068
 H1724 H 0.17596 0.16633 0.74152
 C1725 C 0.56947 0.56830 0.27939
 C1726 C 0.57109 0.59034 0.26219
 C1727 C 0.55195 0.59239 0.24169
 C1728 C 0.53371 0.57180 0.23722
 C1729 C 0.53347 0.54941 0.25360
 C1730 C 0.55100 0.54829 0.27509
 C1731 C 0.55150 0.61469 0.22544
 C1732 C 0.56974 0.63501 0.22892
 C1733 C 0.58993 0.63334 0.24826
 C1734 C 0.59111 0.61022 0.26456
 C1735 C 0.61294 0.60711 0.28182
 C1736 C 0.63292 0.62591 0.28316
 C1737 C 0.63160 0.64898 0.26810
 C1738 C 0.60965 0.65351 0.25111
 C1739 C 0.60842 0.67810 0.23769
 C1740 C 0.62876 0.69667 0.24013
 C1741 C 0.65110 0.69129 0.25568
 C1742 C 0.65228 0.66750 0.26982
 H1743 H 0.58205 0.56602 0.29649
 H1744 H 0.52019 0.57289 0.22057
 H1745 H 0.55068 0.53149 0.28844
 H1746 H 0.53687 0.61648 0.20980
 H1747 H 0.56822 0.65132 0.21525
 H1748 H 0.61580 0.58968 0.29378
 H1749 H 0.64962 0.62234 0.29621
 H1750 H 0.59185 0.68376 0.22547
 H1751 H 0.62728 0.71511 0.22927
 H1752 H 0.66927 0.66350 0.28238
 C1753 C 0.06925 0.93366 0.28958
 C1754 C 0.08816 0.93063 0.26922
 C1755 C 0.08937 0.95056 0.24950
 C1756 C 0.07030 0.97088 0.24866
 C1757 C 0.04981 0.97197 0.26745
 C1758 C 0.05041 0.95376 0.28852
 C1759 C 0.10878 0.94935 0.22989
 C1760 C 0.12673 0.92851 0.22909
 C1761 C 0.12542 0.90743 0.24745
 C1762 C 0.10538 0.90822 0.26746
 C1763 C 0.10227 0.88599 0.28415
 C1764 C 0.11833 0.86384 0.28165
 C1765 C 0.13862 0.86316 0.26298
 C1766 C 0.14290 0.88516 0.24599
 C1767 C 0.16475 0.88399 0.22844
 C1768 C 0.18135 0.86192 0.22783
 C1769 C 0.17652 0.84011 0.24420
 C1770 C 0.15495 0.84068 0.26152
 H1771 H 0.06824 0.92065 0.30647
 H1772 H 0.07000 0.98386 0.23171
 H1773 H 0.03560 0.95462 0.30405
 H1774 H 0.10995 0.96457 0.21479
 H1775 H 0.14072 0.92894 0.21300
 H1776 H 0.08684 0.88463 0.29882
 H1777 H 0.11493 0.84711 0.29467
 H1778 H 0.17010 0.90009 0.21552
 H1779 H 0.19818 0.86194 0.21450
 H1780 H 0.15156 0.82403 0.27467
 C1781 C 0.59734 0.45824 0.72446
 C1782 C 0.59890 0.43620 0.74183
 C1783 C 0.57911 0.43379 0.76158
 C1784 C 0.55927 0.45299 0.76412
 C1785 C 0.55739 0.47412 0.74623
 C1786 C 0.57666 0.47665 0.72645
 C1787 C 0.57865 0.41184 0.77830
 C1788 C 0.59678 0.39146 0.77519
 C1789 C 0.61677 0.39268 0.75572
 C1790 C 0.61881 0.41608 0.73983
 C1791 C 0.64088 0.41872 0.72287
 C1792 C 0.66009 0.39905 0.72123
 C1793 C 0.65752 0.37555 0.73553
 C1794 C 0.63533 0.37160 0.75225
 C1795 C 0.63252 0.34655 0.76458
 C1796 C 0.65181 0.32694 0.76165
 C1797 C 0.67459 0.33175 0.74667
 C1798 C 0.67715 0.35597 0.73336
 H1799 H 0.61102 0.46108 0.70832
 H1800 H 0.54442 0.45088 0.77951
 H1801 H 0.57526 0.49238 0.71195
 H1802 H 0.56368 0.41007 0.79359
 H1803 H 0.59514 0.37526 0.78898
 H1804 H 0.64436 0.43629 0.71127
 H1805 H 0.67702 0.40217 0.70839
 H1806 H 0.61543 0.34135 0.77627
 H1807 H 0.64928 0.30823 0.77182
 H1808 H 0.69449 0.35956 0.72124
 C1809 C 0.91220 0.04472 0.27780
 C1810 C 0.90771 0.06444 0.25845
 C1811 C 0.92777 0.06877 0.23924
 C1812 C 0.95032 0.05256 0.23840
 C1813 C 0.95430 0.03280 0.25744
 C1814 C 0.93537 0.02959 0.27754
 C1815 C 0.92535 0.08942 0.22109
 C1816 C 0.90408 0.10675 0.22241
 C1817 C 0.88373 0.10329 0.24127
 C1818 C 0.88452 0.08066 0.25812
 C1819 C 0.86194 0.07479 0.27357
 C1820 C 0.83971 0.09118 0.27327
 C1821 C 0.83980 0.11478 0.25886
 C1822 C 0.86231 0.12152 0.24343
 C1823 C 0.86313 0.14684 0.23174
 C1824 C 0.84210 0.16433 0.23454
 C1825 C 0.81901 0.15700 0.24806
 C1826 C 0.81788 0.13206 0.26020
 H1827 H 0.89866 0.04131 0.29396
 H1828 H 0.96493 0.05546 0.22293
 H1829 H 0.93846 0.01520 0.29315
 H1830 H 0.94042 0.09265 0.20613
 H1831 H 0.90351 0.12222 0.20769
 H1832 H 0.86057 0.05703 0.28536
 H1833 H 0.82263 0.08574 0.28508
 H1834 H 0.88036 0.15418 0.22144
 H1835 H 0.84405 0.18389 0.22608
 H1836 H 0.80047 0.12658 0.27152
 C1837 C 0.44076 0.57430 0.77695
 C1838 C 0.41871 0.57314 0.75969
 C1839 C 0.41787 0.55233 0.74087
 C1840 C 0.43951 0.53496 0.73808
 C1841 C 0.46172 0.53732 0.75459
 C1842 C 0.46181 0.55671 0.77434
 C1843 C 0.39563 0.54922 0.72476
 C1844 C 0.37417 0.56641 0.72678
 C1845 C 0.37457 0.58812 0.74439
 C1846 C 0.39761 0.59197 0.76048
 C1847 C 0.39938 0.61513 0.77599
 C1848 C 0.37932 0.63383 0.77602
 C1849 C 0.35638 0.62994 0.76123
 C1850 C 0.35318 0.60673 0.74578
 C1851 C 0.32868 0.60328 0.73242
 C1852 C 0.30886 0.62265 0.73359
 C1853 C 0.31300 0.64611 0.74769
 C1854 C 0.33668 0.64945 0.76167
 H1855 H 0.44224 0.58831 0.79295
 H1856 H 0.43925 0.51989 0.72281
 H1857 H 0.47848 0.55840 0.78777
 H1858 H 0.39475 0.53327 0.71043
 H1859 H 0.35790 0.56278 0.71344
 H1860 H 0.41662 0.62004 0.78756
 H1861 H 0.38183 0.65158 0.78781
 H1862 H 0.32411 0.58572 0.72122
 H1863 H 0.29049 0.61953 0.72296
 H1864 H 0.33972 0.66734 0.77315
 C1865 C 0.93937 0.93413 0.79829
 C1866 C 0.93744 0.91697 0.77625
 C1867 C 0.95754 0.91853 0.75669
 C1868 C 0.97691 0.93850 0.75786
 C1869 C 0.97720 0.95667 0.77882
 C1870 C 0.95891 0.95360 0.79945
 C1871 C 0.95766 0.90072 0.73561
 C1872 C 0.93807 0.88155 0.73327
 C1873 C 0.91685 0.88007 0.75146
 C1874 C 0.91610 0.89865 0.77281
 C1875 C 0.89344 0.89924 0.78921
 C1876 C 0.87226 0.88222 0.78500
 C1877 C 0.87314 0.86329 0.76496
 C1878 C 0.89580 0.86132 0.74843
 C1879 C 0.89648 0.84047 0.72970
 C1880 C 0.87524 0.82295 0.72712
 C1881 C 0.85248 0.82593 0.74262
 C1882 C 0.85149 0.84615 0.76149
 H1883 H 0.92606 0.93305 0.81494
 H1884 H 0.99103 0.94065 0.74182
 H1885 H 0.95920 0.96699 0.81621
 H1886 H 0.97304 0.90170 0.72065
 H1887 H 0.93942 0.86890 0.71615
 H1888 H 0.89094 0.91350 0.80487
 H1889 H 0.85503 0.88380 0.79774
 H1890 H 0.91341 0.83671 0.71727
 H1891 H 0.87652 0.80708 0.71276
 H1892 H 0.83415 0.84799 0.77405
 C1893 C 0.43264 0.43569 0.21086
 C1894 C 0.43128 0.41528 0.23000
 C1895 C 0.45104 0.41466 0.24997
 C1896 C 0.46967 0.43520 0.25202
 C1897 C 0.46963 0.45609 0.23377
 C1898 C 0.45148 0.45571 0.21283
 C1899 C 0.45171 0.39389 0.26814
 C1900 C 0.43304 0.37372 0.26711
 C1901 C 0.41224 0.37408 0.24838
 C1902 C 0.41088 0.39569 0.23010
 C1903 C 0.38855 0.39773 0.21336
 C1904 C 0.36832 0.37921 0.21424
 C1905 C 0.36986 0.35749 0.23115
 C1906 C 0.39217 0.35410 0.24793
 C1907 C 0.39342 0.33075 0.26343
 C1908 C 0.37296 0.31216 0.26283
 C1909 C 0.35049 0.31643 0.24715
 C1910 C 0.34909 0.33908 0.23133
 H1911 H 0.41955 0.43668 0.19402
 H1912 H 0.48368 0.43537 0.26830
 H1913 H 0.45155 0.47138 0.19816
 H1914 H 0.46684 0.39322 0.28338
 H1915 H 0.43478 0.35865 0.28211
 H1916 H 0.38553 0.41411 0.20004
 H1917 H 0.35130 0.38189 0.20139
 H1918 H 0.41017 0.32598 0.27580
 H1919 H 0.37453 0.29454 0.27498
 H1920 H 0.33196 0.34211 0.21868
   
