data_POSCAR
  _audit_creation_date              2014-09-24
  _audit_creation_method            'ToBaCCo'
  _symmetry_space_group_name_H-M    'P1'
  _symmetry_Int_Tables_number       1
  _symmetry_cell_setting            triclinic
  loop_
  _symmetry_equiv_pos_as_xyz
 x,y,z
_cell_length_a 61.6853
_cell_length_b 61.1918
_cell_length_c 61.5459
_cell_angle_alpha 90.142300
_cell_angle_beta 89.845700
_cell_angle_gamma 90.073700
loop_
  _atom_site_label
  _atom_site_type_symbol
  _atom_site_fract_x
  _atom_site_fract_y
  _atom_site_fract_z
C1 C 0.12788 -0.02654 0.24859
 C2 C 0.11902 -0.00564 0.25131
 C3 C 0.10647 -0.00093 0.26974
 C4 C 0.10272 -0.01700 0.28548
 C5 C 0.11148 -0.03800 0.28252
 C6 C 0.12446 -0.04293 0.26432
 C7 C 0.12330 0.01140 0.23497
 C8 C 0.11564 0.00896 0.21367
 C9 C 0.12018 0.02491 0.19773
 C10 C 0.13282 0.04315 0.20367
 C11 C 0.14053 0.04564 0.22499
 C12 C 0.13576 0.02969 0.24053
 H13 H 0.13715 -0.02970 0.23399
 H14 H 0.09972 0.01529 0.27184
 H15 H 0.10665 -0.00570 0.20982
 H16 H 0.14191 0.03138 0.25694
 H17 H 0.10826 -0.05054 0.29452
 H18 H 0.13688 0.05539 0.19161
 C19 C 0.36891 -0.02805 0.74384
 C20 C 0.37507 -0.00607 0.74171
 C21 C 0.38486 0.00096 0.72234
 C22 C 0.38834 -0.01366 0.70515
 C23 C 0.38220 -0.03563 0.70749
 C24 C 0.37235 -0.04291 0.72672
 C25 C 0.37215 0.00945 0.75994
 C26 C 0.37971 0.00416 0.78078
 C27 C 0.37943 0.01970 0.79765
 C28 C 0.37041 0.04046 0.79352
 C29 C 0.36185 0.04551 0.77309
 C30 C 0.36297 0.03007 0.75628
 H31 H 0.36173 -0.03354 0.75896
 H32 H 0.39006 0.01782 0.72074
 H33 H 0.38691 -0.01176 0.78348
 H34 H 0.35706 0.03420 0.74024
 H35 H 0.38530 -0.04718 0.69448
 H36 H 0.36911 0.05264 0.80620
 C37 C 0.85969 0.48104 0.24238
 C38 C 0.87382 0.49882 0.23998
 C39 C 0.88671 0.50046 0.22126
 C40 C 0.88547 0.48460 0.20485
 C41 C 0.87135 0.46674 0.20744
 C42 C 0.85851 0.46482 0.22628
 C43 C 0.87551 0.51565 0.25709
 C44 C 0.88221 0.50996 0.27811
 C45 C 0.88595 0.52616 0.29395
 C46 C 0.88177 0.54816 0.28854
 C47 C 0.87419 0.55383 0.26790
 C48 C 0.87141 0.53758 0.25209
 H49 H 0.84977 0.47973 0.25689
 H50 H 0.89779 0.51412 0.21950
 H51 H 0.88541 0.49294 0.28178
 H52 H 0.86613 0.54195 0.23590
 H53 H 0.87046 0.45430 0.19493
 H54 H 0.88329 0.56109 0.30042
 C55 C 0.64674 0.46644 0.76155
 C56 C 0.63255 0.48428 0.76186
 C57 C 0.61895 0.48755 0.77986
 C58 C 0.61961 0.47336 0.79766
 C59 C 0.63383 0.45542 0.79718
 C60 C 0.64734 0.45182 0.77905
 C61 C 0.63203 0.49986 0.74363
 C62 C 0.62763 0.49269 0.72241
 C63 C 0.62518 0.50788 0.70555
 C64 C 0.62841 0.53023 0.70987
 C65 C 0.63366 0.53745 0.73081
 C66 C 0.63500 0.52220 0.74773
 H67 H 0.65727 0.46391 0.74763
 H68 H 0.60788 0.50130 0.78003
 H69 H 0.62501 0.47545 0.71927
 H70 H 0.63820 0.52762 0.76418
 H71 H 0.63430 0.44425 0.81078
 H72 H 0.62726 0.54206 0.69684
 C73 C 0.24841 0.13603 1.03240
 C74 C 0.24405 0.12985 1.01087
 C75 C 0.22301 0.12338 1.00501
 C76 C 0.20625 0.12299 1.02065
 C77 C 0.21091 0.12950 1.04201
 C78 C 0.23182 0.13587 1.04800
 C79 C 0.26169 0.12973 0.99462
 C80 C 0.28011 0.11682 0.99806
 C81 C 0.29759 0.11716 0.98338
 C82 C 0.29627 0.13087 0.96501
 C83 C 0.27763 0.14336 0.96104
 C84 C 0.26034 0.14271 0.97593
 H85 H 0.26470 0.14077 1.03700
 H86 H 0.21995 0.11891 0.98827
 H87 H 0.28079 0.10655 1.01239
 H88 H 0.24613 0.15277 0.97343
 H89 H 0.19824 0.12933 1.05428
 H90 H 0.30914 0.13130 0.95307
 C91 C 0.75622 0.36783 1.03394
 C92 C 0.75915 0.37373 1.01214
 C93 C 0.77998 0.37881 1.00450
 C94 C 0.79785 0.37779 1.01855
 C95 C 0.79486 0.37074 1.04003
 C96 C 0.77399 0.36565 1.04797
 C97 C 0.74051 0.37272 0.99717
 C98 C 0.72132 0.38401 1.00205
 C99 C 0.70251 0.38087 0.98955
 C100 C 0.70339 0.36624 0.97181
 C101 C 0.72265 0.35532 0.96646
 C102 C 0.74119 0.35865 0.97920
 H103 H 0.74005 0.36371 1.03961
 H104 H 0.78224 0.38331 0.98763
 H105 H 0.72098 0.39487 1.01601
 H106 H 0.75585 0.34948 0.97590
 H107 H 0.80886 0.37016 1.05054
 H108 H 0.68950 0.36365 0.96146
 C109 C 0.25221 0.86965 0.52833
 C110 C 0.25724 0.87745 0.50751
 C111 C 0.27871 0.88301 0.50239
 C112 C 0.29528 0.88092 0.51802
 C113 C 0.29005 0.87191 0.53841
 C114 C 0.26855 0.86639 0.54372
 C115 C 0.23993 0.87979 0.49113
 C116 C 0.22142 0.89218 0.49602
 C117 C 0.20419 0.89336 0.48131
 C118 C 0.20558 0.88199 0.46150
 C119 C 0.22422 0.87002 0.45611
 C120 C 0.24146 0.86907 0.47096
 H121 H 0.23558 0.86549 0.53232
 H122 H 0.28214 0.88884 0.48618
 H123 H 0.22038 0.90077 0.51142
 H124 H 0.25564 0.85927 0.46731
 H125 H 0.30259 0.87021 0.55059
 H126 H 0.19244 0.88294 0.44989
 C127 C 0.74903 0.63358 0.53709
 C128 C 0.74488 0.62844 0.51520
 C129 C 0.72434 0.62053 0.50929
 C130 C 0.70842 0.61670 0.52509
 C131 C 0.71286 0.62159 0.54693
 C132 C 0.73292 0.63044 0.55299
 C133 C 0.76221 0.63026 0.49858
 C134 C 0.78241 0.62047 0.50213
 C135 C 0.79873 0.62085 0.48612
 C136 C 0.79463 0.63191 0.46640
 C137 C 0.77425 0.64152 0.46256
 C138 C 0.75815 0.64044 0.47864
 H139 H 0.76480 0.63982 0.54173
 H140 H 0.72105 0.61643 0.49247
 H141 H 0.78514 0.61193 0.51730
 H142 H 0.74239 0.64764 0.47565
 H143 H 0.70045 0.61924 0.55920
 H144 H 0.80649 0.63190 0.45345
 C145 C -0.02938 0.24943 0.13211
 C146 C -0.00843 0.25391 0.12429
 C147 C -0.00424 0.27424 0.11449
 C148 C -0.02084 0.28967 0.11153
 C149 C -0.04185 0.28458 0.11909
 C150 C -0.04607 0.26479 0.12970
 C151 C 0.00898 0.23723 0.12576
 C152 C 0.00476 0.21531 0.12034
 C153 C 0.02143 0.19960 0.12005
 C154 C 0.04241 0.20601 0.12681
 C155 C 0.04669 0.22782 0.13272
 C156 C 0.03007 0.24333 0.13171
 H157 H -0.03273 0.23394 0.13994
 H158 H 0.01191 0.27771 0.10839
 H159 H -0.01143 0.21076 0.11516
 H160 H 0.03347 0.26014 0.13613
 H161 H -0.05495 0.29622 0.11785
 H162 H 0.05553 0.19435 0.12754
 C163 C -0.01912 0.74221 0.36149
 C164 C 0.00036 0.73942 0.37297
 C165 C 0.00646 0.71847 0.37978
 C166 C -0.00691 0.70047 0.37579
 C167 C -0.02612 0.70327 0.36398
 C168 C -0.03231 0.72403 0.35662
 C169 C 0.01481 0.75814 0.37752
 C170 C 0.00722 0.77646 0.38898
 C171 C 0.02135 0.79371 0.39408
 C172 C 0.04323 0.79244 0.38771
 C173 C 0.05093 0.77437 0.37602
 C174 C 0.03665 0.75716 0.37117
 H175 H -0.02334 0.75832 0.35565
 H176 H 0.02139 0.71629 0.38879
 H177 H -0.00958 0.77715 0.39415
 H178 H 0.04248 0.74277 0.36272
 H179 H -0.03618 0.68921 0.36034
 H180 H 0.05438 0.80546 0.39195
 C181 C 0.46015 0.24093 0.86798
 C182 C 0.48195 0.23729 0.87321
 C183 C 0.48875 0.21612 0.87861
 C184 C 0.47382 0.19872 0.87975
 C185 C 0.45207 0.20260 0.87367
 C186 C 0.44530 0.22364 0.86751
 C187 C 0.49755 0.25572 0.87290
 C188 C 0.49231 0.27557 0.88316
 C189 C 0.50618 0.29377 0.88174
 C190 C 0.52564 0.29167 0.86984
 C191 C 0.53143 0.27172 0.86024
 C192 C 0.51736 0.25377 0.86181
 H193 H 0.45491 0.25719 0.86341
 H194 H 0.50557 0.21347 0.88295
 H195 H 0.47721 0.27683 0.89215
 H196 H 0.52140 0.23856 0.85371
 H197 H 0.44033 0.18948 0.87344
 H198 H 0.53705 0.30504 0.86872
 C199 C 0.46580 0.75075 0.62329
 C200 C 0.48691 0.75429 0.61540
 C201 C 0.49118 0.77285 0.60269
 C202 C 0.47459 0.78775 0.59798
 C203 C 0.45349 0.78373 0.60564
 C204 C 0.44904 0.76545 0.61853
 C205 C 0.50426 0.73836 0.62038
 C206 C 0.50005 0.71588 0.61853
 C207 C 0.51597 0.70045 0.62357
 C208 C 0.53615 0.70767 0.63131
 C209 C 0.54060 0.73013 0.63355
 C210 C 0.52476 0.74539 0.62754
 H211 H 0.46245 0.73642 0.63303
 H212 H 0.50739 0.77570 0.59646
 H213 H 0.48443 0.71036 0.61260
 H214 H 0.52805 0.76270 0.62933
 H215 H 0.44046 0.79487 0.60166
 H216 H 0.54843 0.69587 0.63563
 C217 C 0.87038 1.01984 0.74713
 C218 C 0.87671 0.99807 0.75040
 C219 C 0.88745 0.99238 0.76968
 C220 C 0.89323 1.00848 0.78496
 C221 C 0.88693 1.03028 0.78120
 C222 C 0.87501 1.03591 0.76274
 C223 C 0.87300 0.98157 0.73314
 C224 C 0.87897 0.98625 0.71161
 C225 C 0.87645 0.97057 0.69495
 C226 C 0.86731 0.95020 0.70038
 C227 C 0.86097 0.94539 0.72178
 C228 C 0.86410 0.96110 0.73815
 H229 H 0.86192 1.02418 0.73236
 H230 H 0.89235 0.97556 0.77221
 H231 H 0.88586 1.00212 0.70840
 H232 H 0.85988 0.95746 0.75483
 H233 H 0.89004 1.04286 0.79318
 H234 H 0.86517 0.93786 0.68788
 C235 C 0.37036 0.53907 0.25849
 C236 C 0.37915 0.51809 0.26045
 C237 C 0.39315 0.51329 0.27760
 C238 C 0.39846 0.52931 0.29296
 C239 C 0.38961 0.55042 0.29090
 C240 C 0.37531 0.55536 0.27387
 C241 C 0.37523 0.50162 0.24354
 C242 C 0.38741 0.50235 0.22442
 C243 C 0.38482 0.48634 0.20837
 C244 C 0.36994 0.46921 0.21175
 C245 C 0.35785 0.46813 0.23123
 C246 C 0.36041 0.48463 0.24690
 H247 H 0.36024 0.54264 0.24462
 H248 H 0.40013 0.49708 0.27879
 H249 H 0.39909 0.51541 0.22213
 H250 H 0.35131 0.48396 0.26198
 H251 H 0.39400 0.56317 0.30229
 H252 H 0.36807 0.45665 0.19950
 C253 C 0.63208 1.03498 0.23894
 C254 C 0.62710 1.01285 0.23539
 C255 C 0.62222 1.00570 0.21428
 C256 C 0.62120 1.02061 0.19713
 C257 C 0.62597 1.04272 0.20087
 C258 C 0.63204 1.04995 0.22162
 C259 C 0.62635 0.99732 0.25380
 C260 C 0.61551 1.00303 0.27307
 C261 C 0.61418 0.98838 0.29056
 C262 C 0.62372 0.96755 0.28825
 C263 C 0.63461 0.96160 0.26910
 C264 C 0.63584 0.97658 0.25190
 H265 H 0.63585 1.04042 0.25524
 H266 H 0.61814 0.98871 0.21137
 H267 H 0.60786 1.01893 0.27433
 H268 H 0.64379 0.97213 0.23684
 H269 H 0.62552 1.05417 0.18747
 H270 H 0.62237 0.95545 0.30093
 C271 C 0.13754 0.53235 0.73724
 C272 C 0.12942 0.51126 0.73321
 C273 C 0.12317 0.50544 0.71207
 C274 C 0.12454 0.52066 0.69506
 C275 C 0.13305 0.54152 0.69926
 C276 C 0.13965 0.54753 0.72025
 C277 C 0.12651 0.49561 0.75128
 C278 C 0.11518 0.50203 0.77003
 C279 C 0.11170 0.48729 0.78705
 C280 C 0.11955 0.46582 0.78512
 C281 C 0.13111 0.45913 0.76660
 C282 C 0.13439 0.47412 0.74959
 H283 H 0.14188 0.53686 0.75368
 H284 H 0.11696 0.48917 0.70905
 H285 H 0.10879 0.51849 0.77125
 H286 H 0.14276 0.46917 0.73491
 H287 H 0.13423 0.55327 0.68615
 H288 H 0.11641 0.45408 0.79789
 C289 C 0.75374 0.87313 -0.02415
 C290 C 0.75208 0.88201 -0.00312
 C291 C 0.73298 0.89291 0.00310
 C292 C 0.71567 0.89502 -0.01146
 C293 C 0.71774 0.88637 -0.03254
 C294 C 0.73649 0.87511 -0.03890
 C295 C 0.77030 0.88001 0.01237
 C296 C 0.79125 0.88686 0.00640
 C297 C 0.80858 0.88560 0.02127
 C298 C 0.80452 0.87682 0.04200
 C299 C 0.78375 0.86978 0.04814
 C300 C 0.76663 0.87160 0.03328
 H301 H 0.76852 0.86488 -0.02895
 H302 H 0.73166 0.89984 0.01927
 H303 H 0.79364 0.89318 -0.00981
 H304 H 0.75039 0.86673 0.03791
 H305 H 0.70478 0.88845 -0.04419
 H306 H 0.81762 0.87563 0.05367
 C307 C 0.24990 0.36704 0.47280
 C308 C 0.24681 0.37442 0.49425
 C309 C 0.22743 0.38502 0.49983
 C310 C 0.21119 0.38835 0.48433
 C311 C 0.21452 0.38097 0.46291
 C312 C 0.23372 0.37013 0.45701
 C313 C 0.26421 0.37206 0.51064
 C314 C 0.28545 0.37860 0.50556
 C315 C 0.30188 0.37755 0.52124
 C316 C 0.29705 0.36932 0.54192
 C317 C 0.27596 0.36264 0.54734
 C318 C 0.25951 0.36421 0.53161
 H319 H 0.26508 0.35930 0.46853
 H320 H 0.22515 0.39112 0.51624
 H321 H 0.28905 0.38474 0.48946
 H322 H 0.24303 0.35965 0.53559
 H323 H 0.20239 0.38402 0.45061
 H324 H 0.30977 0.36845 0.55402
 C325 C 0.25140 0.63003 -0.03016
 C326 C 0.25339 0.62184 -0.00903
 C327 C 0.27235 0.61090 -0.00290
 C328 C 0.28943 0.60816 -0.01772
 C329 C 0.28725 0.61631 -0.03893
 C330 C 0.26847 0.62758 -0.04516
 C331 C 0.23629 0.62601 0.00720
 C332 C 0.21589 0.61599 0.00546
 C333 C 0.19967 0.61987 0.02129
 C334 C 0.20436 0.63437 0.03851
 C335 C 0.22482 0.64436 0.04030
 C336 C 0.24060 0.64015 0.02452
 H337 H 0.23665 0.63840 -0.03472
 H338 H 0.27391 0.60477 0.01354
 H339 H 0.21306 0.60545 -0.00834
 H340 H 0.25641 0.64783 0.02574
 H341 H 0.30016 0.61398 -0.05067
 H342 H 0.19199 0.63794 0.05055
 C343 C 0.74613 0.13372 0.47136
 C344 C 0.74974 0.12634 0.49255
 C345 C 0.76928 0.11588 0.49764
 C346 C 0.78546 0.11289 0.48181
 C347 C 0.78151 0.12037 0.46051
 C348 C 0.76208 0.13100 0.45530
 C349 C 0.73325 0.12988 0.50956
 C350 C 0.71191 0.12260 0.50656
 C351 C 0.69630 0.12552 0.52300
 C352 C 0.70215 0.13641 0.54220
 C353 C 0.72352 0.14375 0.54533
 C354 C 0.73892 0.14051 0.52891
 H355 H 0.73087 0.14153 0.46753
 H356 H 0.77186 0.11017 0.51410
 H357 H 0.70762 0.11472 0.49141
 H358 H 0.75540 0.14625 0.53118
 H359 H 0.79321 0.11786 0.44766
 H360 H 0.69001 0.13913 0.55466
 C361 C 1.02502 0.75001 0.85707
 C362 C 1.00723 0.75162 0.87097
 C363 C 1.00496 0.76979 0.88461
 C364 C 1.02038 0.78676 0.88438
 C365 C 1.03851 0.78478 0.87030
 C366 C 1.04084 0.76636 0.85669
 C367 C 0.99014 0.73499 0.86979
 C368 C 0.99272 0.71476 0.88001
 C369 C 0.97693 0.69819 0.87759
 C370 C 0.95862 0.70256 0.86459
 C371 C 0.95611 0.72291 0.85430
 C372 C 0.97200 0.73894 0.85693
 H373 H 1.02644 0.73597 0.84636
 H374 H 0.99078 0.77087 0.89502
 H375 H 1.00741 0.71218 0.88915
 H376 H 0.97037 0.75456 0.84879
 H377 H 1.05069 0.79739 0.86953
 H378 H 0.94649 0.68996 0.86214
 C379 C 0.53123 0.25473 0.36700
 C380 C 0.51025 0.25534 0.37593
 C381 C 0.50430 0.27283 0.38945
 C382 C 0.51886 0.28983 0.39378
 C383 C 0.53981 0.28907 0.38476
 C384 C 0.54611 0.27170 0.37119
 C385 C 0.49431 0.23793 0.37094
 C386 C 0.49995 0.21581 0.37298
 C387 C 0.48455 0.19928 0.36898
 C388 C 0.46387 0.20513 0.36149
 C389 C 0.45809 0.22721 0.35937
 C390 C 0.47321 0.24347 0.36452
 H391 H 0.53580 0.24101 0.35687
 H392 H 0.48819 0.27329 0.39653
 H393 H 0.51620 0.21166 0.37806
 H394 H 0.46870 0.26051 0.36297
 H395 H 0.55133 0.30195 0.38837
 H396 H 0.45193 0.19252 0.35831
 C397 C 1.01444 0.25193 0.63767
 C398 C 0.99463 0.24409 0.62961
 C399 C 0.99269 0.22190 0.62396
 C400 C 1.01033 0.20743 0.62644
 C401 C 1.02951 0.21543 0.63589
 C402 C 1.03176 0.23763 0.64121
 C403 C 0.97590 0.25907 0.62701
 C404 C 0.97866 0.27940 0.61680
 C405 C 0.96103 0.29384 0.61435
 C406 C 0.94069 0.28762 0.62268
 C407 C 0.93763 0.26740 0.63289
 C408 C 0.95531 0.25308 0.63483
 H409 H 1.01619 0.26906 0.64188
 H410 H 0.97733 0.21632 0.61765
 H411 H 0.99466 0.28371 0.61107
 H412 H 0.95324 0.23727 0.64239
 H413 H 1.04324 0.20461 0.63809
 H414 H 0.92698 0.29859 0.62110
 C415 C 0.53772 0.74562 0.13845
 C416 C 0.51670 0.74292 0.13026
 C417 C 0.51150 0.72413 0.11835
 C418 C 0.52700 0.70784 0.11468
 C419 C 0.54800 0.71048 0.12317
 C420 C 0.55350 0.72925 0.13526
 C421 C 0.49976 0.75941 0.13446
 C422 C 0.50103 0.78022 0.12501
 C423 C 0.48408 0.79536 0.12791
 C424 C 0.46616 0.78954 0.14082
 C425 C 0.46476 0.76870 0.15032
 C426 C 0.48170 0.75381 0.14715
 H427 H 0.54156 0.76047 0.14720
 H428 H 0.49526 0.72221 0.11192
 H429 H 0.51516 0.78441 0.11542
 H430 H 0.48070 0.73766 0.15430
 H431 H 0.56019 0.69811 0.12016
 H432 H 0.45329 0.80129 0.14343
 O433 O 0.00170 0.99343 0.92740
 O434 O 0.03667 1.00649 0.92926
 O435 O 0.00190 0.93934 0.97270
 O436 O 0.00786 0.93447 1.00805
 O437 O -0.05066 0.98741 0.97444
 O438 O -0.05318 1.02369 0.98795
 O439 O 0.05114 0.99660 1.03874
 O440 O 0.05575 0.96343 1.02132
 O441 O 0.05518 1.04555 0.99221
 O442 O 0.03674 1.05334 0.95765
 O443 O 0.00404 1.04418 1.03735
 O444 O -0.03127 1.02413 1.03849
 O445 O 0.01887 1.00827 1.05262
 O446 O -0.01935 0.99639 1.05073
 O447 O 0.02137 1.06085 1.00926
 O448 O 0.00926 1.06539 0.97060
 O449 O 0.06963 1.01469 1.00674
 O450 O 0.07123 0.97867 0.98869
 O451 O -0.03016 1.00645 0.94113
 O452 O -0.03714 1.03917 0.96202
 O453 O -0.03629 0.95631 0.98851
 O454 O -0.01838 0.95061 1.02376
 O455 O 0.01787 0.95711 0.94442
 O456 O 0.05228 0.97746 0.94592
 Zr457 Zr 0.02125 0.98950 0.95499
 O458 O 0.03993 1.00867 0.97622
 Zr459 Zr -0.00387 0.96441 0.99575
 O460 O 0.01415 0.98241 1.01875
 Zr461 Zr -0.02469 1.00973 0.97481
 O462 O -0.00789 1.02975 0.99716
 Zr463 Zr 0.04417 0.99184 1.00560
 O464 O 0.02728 0.97146 0.98351
 Zr465 Zr 0.02299 1.03709 0.98472
 O466 O 0.00524 1.01918 0.96138
 Zr467 Zr -0.00169 1.01208 1.02569
 O468 O -0.02099 0.99296 1.00436
 O469 O -0.00921 0.98067 0.96673
 O470 O 0.02872 1.02096 1.01387
 C471 C -0.01783 1.00035 0.92533
 C472 C 0.01073 0.93981 0.95370
 C473 C -0.05215 0.96751 0.98085
 C474 C 0.03881 1.00261 1.05456
 C475 C 0.07091 1.03462 1.00042
 C476 C 0.01370 1.06065 1.02863
 H477 H 0.05396 1.01189 0.96909
 H478 H -0.01634 1.04312 1.00020
 H479 H -0.01756 0.97167 0.95630
 H480 H 0.01620 0.97343 1.03192
 H481 H 0.05354 0.95114 1.01107
 H482 H 0.02012 0.93804 1.01773
 H483 H -0.00392 1.06926 0.97893
 H484 H -0.02528 1.04587 0.95343
 H485 H 0.08392 0.97911 0.99854
 H486 H 0.05128 0.97046 0.93138
 H487 H -0.03513 1.03750 1.03039
 H488 H -0.05492 1.01743 1.00266
 H489 H 0.03054 1.02143 0.92908
 H490 H 0.04934 1.04466 0.95267
 H491 H -0.03055 0.96029 1.02796
 H492 H -0.01196 0.98243 1.05395
 O493 O 0.50205 0.53887 0.55438
 O494 O 0.46729 0.52243 0.55570
 O495 O 0.54609 0.48551 0.54906
 O496 O 0.54968 0.45582 0.52706
 O497 O 0.55183 0.53964 0.50500
 O498 O 0.53185 0.55073 0.47323
 O499 O 0.48772 0.43998 0.48246
 O500 O 0.50101 0.43277 0.51649
 O501 O 0.44093 0.49020 0.49121
 O502 O 0.44193 0.52654 0.51000
 O503 O 0.48731 0.49715 0.44219
 O504 O 0.52716 0.50735 0.44258
 O505 O 0.50214 0.45925 0.45427
 O506 O 0.53644 0.47682 0.44943
 O507 O 0.45856 0.51161 0.46036
 O508 O 0.45506 0.54254 0.48485
 O509 O 0.45456 0.45697 0.50031
 O510 O 0.47199 0.44988 0.53588
 O511 O 0.51848 0.55653 0.52616
 O512 O 0.50578 0.56467 0.49025
 O513 O 0.56459 0.50679 0.51654
 O514 O 0.56309 0.47180 0.49772
 O515 O 0.51677 0.50048 0.56602
 O516 O 0.47896 0.48825 0.56483
 Zr517 Zr 0.49487 0.50777 0.54117
 O518 O 0.47306 0.49189 0.52016
 Zr519 Zr 0.53747 0.48603 0.51580
 O520 O 0.51731 0.46972 0.49347
 Zr521 Zr 0.51841 0.53421 0.50023
 O522 O 0.49711 0.52001 0.47759
 Zr523 Zr 0.48715 0.46316 0.50784
 O524 O 0.50810 0.47755 0.53108
 Zr525 Zr 0.46778 0.51151 0.49292
 O526 O 0.48805 0.52848 0.51486
 Zr527 Zr 0.51001 0.49012 0.46698
 O528 O 0.53263 0.50552 0.48798
 O529 O 0.52476 0.51516 0.52728
 O530 O 0.48013 0.48225 0.48070
 C531 C 0.51146 0.55559 0.54580
 C532 C 0.53574 0.49198 0.56612
 C533 C 0.56709 0.52698 0.51156
 C534 C 0.49430 0.44175 0.46267
 C535 C 0.43898 0.46957 0.49459
 C536 C 0.46824 0.50564 0.44294
 H537 H 0.45946 0.48864 0.52806
 H538 H 0.49492 0.53033 0.46548
 H539 H 0.53472 0.52241 0.53761
 H540 H 0.52451 0.45609 0.48875
 H541 H 0.50849 0.43508 0.53053
 H542 H 0.54246 0.44411 0.51866
 H543 H 0.46535 0.54957 0.47469
 H544 H 0.49147 0.56622 0.49740
 H545 H 0.46471 0.43606 0.53162
 H546 H 0.48120 0.49491 0.57938
 H547 H 0.51935 0.52117 0.43982
 H548 H 0.54173 0.54026 0.46595
 H549 H 0.46285 0.53464 0.54619
 H550 H 0.43731 0.51656 0.52175
 H551 H 0.56551 0.48124 0.48489
 H552 H 0.54282 0.46513 0.45844
 O553 O 0.44911 -0.04239 0.48901
 O554 O 0.47150 -0.05017 0.45963
 O555 O 0.49026 -0.03923 0.54404
 O556 O 0.51988 -0.02126 0.55458
 O557 O 0.44387 0.01120 0.53218
 O558 O 0.44400 0.04277 0.50936
 O559 O 0.55827 0.01167 0.49166
 O560 O 0.55639 -0.02091 0.51022
 O561 O 0.52008 0.00684 0.43664
 O562 O 0.48327 -0.00447 0.42890
 O563 O 0.51269 0.06072 0.47770
 O564 O 0.49538 0.06800 0.51146
 O565 O 0.54250 0.04393 0.50124
 O566 O 0.51625 0.05353 0.53207
 O567 O 0.50151 0.04324 0.44708
 O568 O 0.46729 0.02248 0.43836
 O569 O 0.54629 -0.00758 0.45820
 O570 O 0.54227 -0.04148 0.48002
 O571 O 0.43291 -0.00957 0.49562
 O572 O 0.43532 0.02694 0.48056
 O573 O 0.47086 -0.00130 0.55397
 O574 O 0.50872 0.01142 0.55933
 O575 O 0.48072 -0.05784 0.51344
 O576 O 0.50064 -0.06222 0.47878
 Zr577 Zr 0.48227 -0.03448 0.48837
 O578 O 0.50560 -0.01831 0.46924
 Zr579 Zr 0.49709 -0.00753 0.53298
 O580 O 0.52175 0.00890 0.51590
 Zr581 Zr 0.45857 0.01257 0.50126
 O582 O 0.48144 0.03076 0.48330
 Zr583 Zr 0.53186 -0.00965 0.48902
 O584 O 0.50942 -0.02757 0.50794
 Zr585 Zr 0.49344 0.01150 0.45767
 O586 O 0.46896 -0.00603 0.47444
 Zr587 Zr 0.50886 0.03752 0.50246
 O588 O 0.48449 0.02214 0.52141
 O589 O 0.47046 -0.01623 0.51434
 O590 O 0.52051 0.01966 0.47610
 C591 C 0.43232 -0.03018 0.49151
 C592 C 0.48451 -0.05667 0.53395
 C593 C 0.45152 0.00575 0.55078
 C594 C 0.55910 0.03202 0.49668
 C595 C 0.53917 -0.00090 0.43983
 C596 C 0.50874 0.06008 0.45727
 H597 H 0.51026 -0.02806 0.45728
 H598 H 0.47450 0.04429 0.47802
 H599 H 0.45946 -0.02436 0.52283
 H600 H 0.53402 0.01193 0.52577
 H601 H 0.55026 -0.03360 0.51808
 H602 H 0.53433 -0.01914 0.54794
 H603 H 0.46226 0.03659 0.44441
 H604 H 0.43569 0.01855 0.46680
 H605 H 0.55778 -0.04062 0.47584
 H606 H 0.49175 -0.07555 0.48107
 H607 H 0.48121 0.06923 0.50409
 H608 H 0.45318 0.04948 0.52075
 H609 H 0.46394 -0.03897 0.45089
 H610 H 0.48909 -0.01952 0.42922
 H611 H 0.50037 0.02523 0.55941
 H612 H 0.52876 0.04597 0.53869
 O613 O -0.04968 0.45502 0.98501
 O614 O -0.02726 0.44959 0.95476
 O615 O -0.00636 0.44982 1.03920
 O616 O 0.02337 0.46643 1.05151
 O617 O -0.05196 0.50344 1.03468
 O618 O -0.05128 0.53733 1.01525
 O619 O 0.06129 0.50532 0.99156
 O620 O 0.05876 0.47087 1.00684
 O621 O 0.02192 0.50708 0.93724
 O622 O -0.01542 0.49748 0.92928
 O623 O 0.01586 0.55694 0.98392
 O624 O -0.00037 0.55992 1.01961
 O625 O 0.04654 0.53691 1.00444
 O626 O 0.02219 0.54395 1.03665
 O627 O 0.00387 0.54271 0.95198
 O628 O -0.03033 0.52367 0.94156
 O629 O 0.04820 0.49000 0.95669
 O630 O 0.04379 0.45409 0.97473
 O631 O -0.06462 0.48708 0.99652
 O632 O -0.06155 0.52474 0.98542
 O633 O -0.02531 0.48700 1.05419
 O634 O 0.01283 0.49850 1.06006
 O635 O -0.01965 0.43605 1.00751
 O636 O 0.00126 0.43429 0.97306
 Zr637 Zr -0.01621 0.46167 0.98507
 O638 O 0.00737 0.47905 0.96738
 Zr639 Zr 0.00044 0.48283 1.03200
 O640 O 0.02511 0.50067 1.01625
 Zr641 Zr -0.03808 0.50763 1.00366
 O642 O -0.01516 0.52692 0.98705
 Zr643 Zr 0.03425 0.48494 0.98736
 O644 O 0.01162 0.46551 1.00457
 Zr645 Zr -0.00422 0.51016 0.95926
 O646 O -0.02895 0.49181 0.97469
 Zr647 Zr 0.01282 0.53098 1.00615
 O648 O -0.01142 0.51405 1.02402
 O649 O -0.02687 0.47721 1.01319
 O650 O 0.02345 0.51576 0.97777
 C651 C -0.06600 0.46725 0.98971
 C652 C -0.01446 0.43431 1.02760
 C653 C -0.04434 0.49533 1.05231
 C654 C 0.06276 0.52513 0.99835
 C655 C 0.04089 0.49862 0.93923
 C656 C 0.01108 0.55851 0.96369
 H657 H 0.01156 0.47048 0.95439
 H658 H -0.02199 0.54104 0.98341
 H659 H -0.03803 0.46858 1.02096
 H660 H 0.03769 0.50232 1.02604
 H661 H 0.05245 0.45748 1.01330
 H662 H 0.03776 0.46918 1.04496
 H663 H -0.03547 0.53674 0.94953
 H664 H -0.06169 0.51802 0.97077
 H665 H 0.05930 0.45504 0.97053
 H666 H -0.00827 0.42123 0.97372
 H667 H -0.01381 0.56324 1.01155
 H668 H -0.04176 0.54231 1.02721
 H669 H -0.03499 0.46174 0.94756
 H670 H -0.00946 0.48257 0.92760
 H671 H 0.00519 0.51266 1.06142
 H672 H 0.03375 0.53453 1.04259
 O673 O 0.05947 0.47469 0.50642
 O674 O 0.06599 0.51036 0.49618
 O675 O 0.01269 0.48103 0.55853
 O676 O -0.02066 0.49412 0.56318
 O677 O 0.00343 0.43382 0.50668
 O678 O -0.01036 0.43690 0.47055
 O679 O -0.03772 0.54860 0.50547
 O680 O -0.02038 0.54626 0.53933
 O681 O 0.00871 0.54595 0.45742
 O682 O 0.03985 0.52201 0.44929
 O683 O -0.04454 0.50385 0.45349
 O684 O -0.05526 0.47015 0.47117
 O685 O -0.05757 0.52189 0.48898
 O686 O -0.06494 0.48268 0.49987
 O687 O -0.01299 0.51679 0.43922
 O688 O 0.02294 0.49754 0.43512
 O689 O -0.00447 0.56061 0.48877
 O690 O 0.01456 0.55628 0.52445
 O691 O 0.03993 0.44860 0.48860
 O692 O 0.01825 0.44818 0.45620
 O693 O -0.00941 0.44848 0.53817
 O694 O -0.04071 0.47333 0.54427
 O695 O 0.04458 0.49208 0.54345
 O696 O 0.05193 0.52752 0.52583
 Zr697 Zr 0.03679 0.50002 0.51116
 O698 O 0.02100 0.52469 0.49340
 Zr699 Zr -0.00963 0.48247 0.53274
 O700 O -0.02729 0.50683 0.51633
 Zr701 Zr 0.00826 0.46110 0.48650
 O702 O -0.00901 0.48409 0.46795
 Zr703 Zr -0.00737 0.53388 0.50991
 O704 O 0.00950 0.51077 0.52894
 Zr705 Zr 0.01018 0.51216 0.46363
 O706 O 0.02829 0.48816 0.48018
 Zr707 Zr -0.03623 0.49508 0.48551
 O708 O -0.02047 0.46978 0.50287
 O709 O 0.01825 0.47217 0.51680
 O710 O -0.01760 0.52277 0.47963
 C711 C 0.05763 0.45614 0.49666
 C712 C 0.03299 0.48565 0.55960
 C713 C -0.00389 0.43218 0.52615
 C714 C -0.05520 0.54131 0.49677
 C715 C 0.00194 0.56208 0.46899
 C716 C -0.03328 0.51243 0.43811
 H717 H 0.03082 0.53733 0.49145
 H718 H -0.01316 0.47737 0.45394
 H719 H 0.02639 0.46106 0.52511
 H720 H -0.04001 0.51123 0.52511
 H721 H -0.01077 0.54108 0.55110
 H722 H -0.02646 0.50895 0.56070
 H723 H 0.01216 0.48687 0.42970
 H724 H 0.02957 0.45815 0.45055
 H725 H 0.00747 0.57081 0.52479
 H726 H 0.06546 0.52271 0.53307
 H727 H -0.04635 0.46314 0.45974
 H728 H -0.02481 0.43693 0.47760
 H729 H 0.06507 0.50605 0.48070
 H730 H 0.04684 0.53260 0.45923
 H731 H -0.04680 0.46292 0.53356
 H732 H -0.06790 0.49129 0.51317
 O733 O 0.50663 0.93261 0.00792
 O734 O 0.49172 0.93411 -0.02688
 O735 O 0.56050 0.97631 0.00602
 O736 O 0.56669 1.01118 -0.00191
 O737 O 0.51352 0.98196 0.05893
 O738 O 0.47779 0.99473 0.06181
 O739 O 0.50580 1.04375 -0.04427
 O740 O 0.53808 1.02405 -0.04925
 O741 O 0.45480 0.99965 -0.04603
 O742 O 0.44604 0.96535 -0.02808
 O743 O 0.45967 1.04464 0.00485
 O744 O 0.48088 1.04597 0.03925
 O745 O 0.49284 1.05827 -0.01270
 O746 O 0.50840 1.05730 0.02519
 O747 O 0.44079 1.01681 -0.01078
 O748 O 0.43600 0.97744 0.00078
 O749 O 0.48545 1.01419 -0.06077
 O750 O 0.51972 0.99250 -0.06427
 O751 O 0.49372 0.94742 0.03941
 O752 O 0.46175 0.96946 0.04621
 O753 O 0.54493 0.99391 0.04350
 O754 O 0.55169 1.02859 0.02446
 O755 O 0.54203 0.94840 -0.01000
 O756 O 0.52072 0.94960 -0.04399
 Zr757 Zr 0.50999 0.95979 -0.01276
 O758 O 0.49134 0.98157 -0.03147
 Zr759 Zr 0.53672 1.00051 0.01100
 O760 O 0.51966 1.02400 -0.00719
 Zr761 Zr 0.49127 0.98125 0.03317
 O762 O 0.47219 1.00427 0.01647
 Zr763 Zr 0.50912 1.01040 -0.03664
 O764 O 0.52878 0.98775 -0.01978
 Zr765 Zr 0.46372 0.99145 -0.01405
 O766 O 0.48096 0.96751 0.00364
 Zr767 Zr 0.49095 1.03209 0.00934
 O768 O 0.50909 1.01026 0.02867
 O769 O 0.51959 0.97202 0.01733
 O770 O 0.48096 1.01990 -0.02052
 C771 C 0.49984 0.93109 0.02764
 C772 C 0.55944 0.95717 -0.00262
 C773 C 0.53351 0.98771 0.05986
 C774 C 0.49847 1.05971 -0.03276
 C775 C 0.46537 1.00883 -0.06156
 C776 C 0.44242 1.03642 -0.00339
 H777 H 0.48750 0.97456 -0.04544
 H778 H 0.45930 1.00797 0.02531
 H779 H 0.52833 0.96158 0.02588
 H780 H 0.52890 1.03694 -0.00985
 H781 H 0.54949 1.01283 -0.04747
 H782 H 0.56330 1.02087 -0.01426
 H783 H 0.43277 0.98588 0.01412
 H784 H 0.45524 0.95988 0.03499
 H785 H 0.51927 1.00244 -0.07696
 H786 H 0.52721 0.93482 -0.04278
 H787 H 0.46729 1.03861 0.04372
 H788 H 0.48381 1.00967 0.06311
 H789 H 0.47717 0.93450 -0.02006
 H790 H 0.45507 0.95900 -0.03980
 H791 H 0.54217 1.03377 0.03637
 H792 H 0.52087 1.06131 0.01587
 O793 O 0.43993 0.52413 0.00419
 O794 O 0.43465 0.49323 -0.01657
 O795 O 0.47488 0.50158 0.05984
 O796 O 0.50605 0.48538 0.06727
 O797 O 0.49723 0.55942 0.02478
 O798 O 0.51597 0.56460 -0.00813
 O799 O 0.53308 0.44550 0.00145
 O800 O 0.50954 0.44033 0.03030
 O801 O 0.49772 0.46409 -0.05228
 O802 O 0.46967 0.49173 -0.05946
 O803 O 0.55189 0.49950 -0.03449
 O804 O 0.55952 0.52819 -0.00783
 O805 O 0.55657 0.47398 -0.00243
 O806 O 0.56247 0.50899 0.01844
 O807 O 0.52364 0.49537 -0.05778
 O808 O 0.48971 0.51752 -0.06315
 O809 O 0.50212 0.44067 -0.02399
 O810 O 0.47755 0.43783 0.00800
 O811 O 0.46299 0.55252 -0.00229
 O812 O 0.49058 0.55906 -0.02953
 O813 O 0.50246 0.53631 0.05316
 O814 O 0.53033 0.50759 0.05832
 O815 O 0.44639 0.49694 0.03691
 O816 O 0.44200 0.46786 0.00940
 Zr817 Zr 0.46050 0.49692 0.00574
 O818 O 0.47885 0.47651 -0.01483
 Zr819 Zr 0.50195 0.50479 0.03925
 O820 O 0.52173 0.48390 0.02060
 Zr821 Zr 0.49430 0.53850 -0.00223
 O822 O 0.51456 0.51960 -0.02256
 Zr823 Zr 0.50283 0.46099 0.00361
 O824 O 0.48324 0.47990 0.02474
 Zr825 Zr 0.49599 0.49519 -0.03771
 O826 O 0.47537 0.51546 -0.01899
 Zr827 Zr 0.53714 0.50225 -0.00375
 O828 O 0.51888 0.52365 0.01625
 O829 O 0.47818 0.52105 0.02182
 O830 O 0.51947 0.47847 -0.02019
 C831 C 0.44390 0.54437 0.00028
 C832 C 0.45466 0.49833 0.05597
 C833 C 0.50096 0.55552 0.04494
 C834 C 0.55222 0.45349 -0.00068
 C835 C 0.50008 0.44487 -0.04433
 C836 C 0.54398 0.49678 -0.05357
 H837 H 0.46917 0.46570 -0.02183
 H838 H 0.52179 0.52917 -0.03328
 H839 H 0.46905 0.53044 0.03125
 H840 H 0.53220 0.47647 0.03023
 H841 H 0.49818 0.44322 0.04133
 H842 H 0.51071 0.47081 0.06214
 H843 H 0.50146 0.52854 -0.06321
 H844 H 0.47995 0.55183 -0.03919
 H845 H 0.48372 0.42304 0.00573
 H846 H 0.42738 0.47170 0.01498
 H847 H 0.55403 0.53772 -0.01953
 H848 H 0.52960 0.56086 -0.00055
 H849 H 0.43883 0.50126 -0.02988
 H850 H 0.46031 0.47980 -0.05400
 H851 H 0.53885 0.51990 0.05232
 H852 H 0.56245 0.49732 0.02953
 O853 O -0.02163 0.01903 0.55749
 O854 O 0.01115 0.00139 0.56220
 O855 O -0.00851 0.07020 0.51256
 O856 O 0.00645 0.07362 0.47968
 O857 O -0.06340 0.02901 0.50249
 O858 O -0.06841 -0.00658 0.48876
 O859 O 0.04673 0.00650 0.45732
 O860 O 0.05229 0.03899 0.47594
 O861 O 0.03517 -0.04262 0.50157
 O862 O 0.01172 -0.04718 0.53331
 O863 O -0.00614 -0.03469 0.44981
 O864 O -0.03650 -0.01113 0.44137
 O865 O 0.01668 -0.00243 0.43776
 O866 O -0.01989 0.01590 0.43302
 O867 O 0.00178 -0.05363 0.48050
 O868 O -0.01602 -0.05457 0.51764
 O869 O 0.05605 -0.01398 0.49067
 O870 O 0.05939 0.02151 0.51027
 O871 O -0.05135 0.00702 0.53898
 O872 O -0.05890 -0.02419 0.51586
 O873 O -0.04310 0.05728 0.48967
 O874 O -0.01771 0.06015 0.45866
 O875 O 0.00116 0.05234 0.54343
 O876 O 0.03314 0.02781 0.54804
 Zr877 Zr 0.00296 0.01915 0.53391
 O878 O 0.02249 -0.00311 0.51651
 Zr879 Zr -0.01110 0.04548 0.48905
 O880 O 0.00881 0.02520 0.46992
 Zr881 Zr -0.04081 0.00359 0.50638
 O882 O -0.02291 -0.01849 0.48709
 Zr883 Zr 0.03428 0.01238 0.48854
 O884 O 0.01625 0.03544 0.50687
 Zr885 Zr 0.00390 -0.02945 0.50490
 O886 O -0.01509 -0.00878 0.52491
 Zr887 Zr -0.00924 -0.00220 0.46024
 O888 O -0.02989 0.01911 0.47781
 O889 O -0.02363 0.03082 0.51676
 O890 O 0.01694 -0.01465 0.47742
 C891 C -0.04157 0.01309 0.55648
 C892 C -0.00354 0.06977 0.53278
 C893 C -0.06122 0.04854 0.49514
 C894 C 0.03718 0.00103 0.43960
 C895 C 0.05334 -0.03413 0.49586
 C896 C -0.00184 -0.05240 0.45998
 H897 H 0.03455 -0.00805 0.52585
 H898 H -0.03239 -0.03070 0.48255
 H899 H -0.03280 0.04082 0.52547
 H900 H 0.01448 0.03356 0.45740
 H901 H 0.04984 0.05146 0.48594
 H902 H 0.02005 0.06843 0.47291
 H903 H -0.02782 -0.05733 0.50712
 H904 H -0.05035 -0.03167 0.52721
 H905 H 0.07346 0.01909 0.50281
 H906 H 0.03036 0.03560 0.56193
 H907 H -0.04518 -0.02162 0.44996
 H908 H -0.06668 -0.00062 0.47392
 H909 H 0.00398 -0.01303 0.56092
 H910 H 0.02370 -0.03941 0.54068
 H911 H -0.03019 0.05221 0.45231
 H912 H -0.00879 0.02712 0.42979
 O913 O 0.68984 0.24390 0.26112
 O914 O 0.69223 0.25566 0.22536
 O915 O 0.73579 0.19181 0.26553
 O916 O 0.77109 0.18664 0.26003
 O917 O 0.73508 0.24297 0.31428
 O918 O 0.74819 0.27928 0.31511
 O919 O 0.80211 0.24434 0.21357
 O920 O 0.78351 0.21160 0.20994
 O921 O 0.75681 0.29457 0.20585
 O922 O 0.72155 0.30316 0.22154
 O923 O 0.79932 0.29580 0.25767
 O924 O 0.80081 0.27883 0.29328
 O925 O 0.81519 0.25960 0.24469
 O926 O 0.81171 0.24918 0.28437
 O927 O 0.77122 0.31226 0.24040
 O928 O 0.73155 0.31597 0.24994
 O929 O 0.77306 0.26334 0.19413
 O930 O 0.75267 0.22791 0.19249
 O931 O 0.70243 0.26065 0.29173
 O932 O 0.72341 0.29395 0.29711
 O933 O 0.74994 0.21124 0.30204
 O934 O 0.78603 0.20477 0.28532
 O935 O 0.70786 0.20727 0.24702
 O936 O 0.70970 0.22599 0.21136
 Zr937 Zr 0.71784 0.23987 0.24193
 O938 O 0.73940 0.25818 0.22253
 Zr939 Zr 0.75827 0.21725 0.26947
 O940 O 0.78150 0.23379 0.25061
 Zr941 Zr 0.73625 0.26355 0.28697
 O942 O 0.75911 0.28229 0.26953
 Zr943 Zr 0.76884 0.24125 0.21989
 O944 O 0.74663 0.22183 0.23765
 Zr945 Zr 0.74740 0.28770 0.23800
 O946 O 0.72359 0.27073 0.25615
 Zr947 Zr 0.78783 0.26430 0.26489
 O948 O 0.76604 0.24682 0.28511
 O949 O 0.72899 0.23346 0.27314
 O950 O 0.77666 0.27128 0.23385
 C951 C 0.68709 0.25266 0.27994
 C952 C 0.71721 0.19097 0.25623
 C953 C 0.74144 0.22320 0.31698
 C954 C 0.81758 0.25189 0.22536
 C955 C 0.76705 0.28322 0.19155
 C956 C 0.79053 0.31217 0.24817
 H957 H 0.73294 0.26062 0.20805
 H958 H 0.76183 0.29616 0.27731
 H959 H 0.71845 0.22493 0.28184
 H960 H 0.79466 0.22466 0.24934
 H961 H 0.77267 0.19991 0.21244
 H962 H 0.78006 0.18926 0.24697
 H963 H 0.73923 0.32084 0.26318
 H964 H 0.71397 0.29914 0.28521
 H965 H 0.76302 0.22787 0.18014
 H966 H 0.69535 0.21873 0.21259
 H967 H 0.79097 0.29079 0.29773
 H968 H 0.76290 0.27334 0.31757
 H969 H 0.69203 0.27100 0.23049
 H970 H 0.71630 0.29297 0.21022
 H971 H 0.78941 0.21490 0.29742
 H972 H 0.81650 0.23574 0.27678
 O973 O 0.74690 0.70413 0.71209
 O974 O 0.77986 0.70026 0.72998
 O975 O 0.69896 0.69855 0.76242
 O976 O 0.69107 0.71508 0.79387
 O977 O 0.69591 0.75124 0.71604
 O978 O 0.71473 0.78572 0.71364
 O979 O 0.75316 0.75645 0.82262
 O980 O 0.73849 0.72150 0.82243
 O981 O 0.80241 0.75759 0.77605
 O982 O 0.80476 0.74790 0.73716
 O983 O 0.75431 0.80738 0.77533
 O984 O 0.71661 0.80896 0.76369
 O985 O 0.73847 0.78762 0.80892
 O986 O 0.70348 0.79371 0.78926
 O987 O 0.78492 0.79317 0.76033
 O988 O 0.79151 0.77492 0.72534
 O989 O 0.78624 0.74205 0.80548
 O990 O 0.76907 0.70546 0.80389
 O991 O 0.73311 0.73575 0.69838
 O992 O 0.74277 0.77353 0.69919
 O993 O 0.68105 0.73446 0.74548
 O994 O 0.67954 0.74681 0.78338
 O995 O 0.72969 0.68488 0.74699
 O996 O 0.76675 0.68491 0.76093
 Zr997 Zr 0.75112 0.71147 0.74529
 O998 O 0.77112 0.72963 0.76626
 Zr999 Zr 0.70636 0.73173 0.76793
 O1000 O 0.72455 0.75065 0.78994
 Zr1001 Zr 0.72853 0.75645 0.72542
 O1002 O 0.74778 0.77651 0.74556
 Zr1003 Zr 0.75453 0.73571 0.79548
 O1004 O 0.73532 0.71538 0.77551
 Zr1005 Zr 0.77705 0.76060 0.75312
 O1006 O 0.75882 0.74166 0.73086
 Zr1007 Zr 0.73242 0.78087 0.77580
 O1008 O 0.71188 0.76291 0.75461
 O1009 O 0.72147 0.72593 0.73827
 O1010 O 0.76211 0.76646 0.78293
 C1011 C 0.74037 0.71617 0.69628
 C1012 C 0.71037 0.68286 0.75446
 C1013 C 0.67990 0.74251 0.72632
 C1014 C 0.74653 0.77625 0.82451
 C1015 C 0.80269 0.74997 0.79554
 C1016 C 0.77392 0.80902 0.76845
 H1017 H 0.78466 0.72141 0.76884
 H1018 H 0.75030 0.79056 0.73809
 H1019 H 0.71263 0.71674 0.72842
 H1020 H 0.71642 0.75243 0.80369
 H1021 H 0.73172 0.70781 0.81711
 H1022 H 0.69828 0.71981 0.80741
 H1023 H 0.78213 0.78712 0.72063
 H1024 H 0.75783 0.76811 0.69790
 H1025 H 0.77501 0.70686 0.81879
 H1026 H 0.76523 0.67162 0.75178
 H1027 H 0.72324 0.81249 0.74948
 H1028 H 0.70387 0.79042 0.72456
 H1029 H 0.78541 0.71243 0.72096
 H1030 H 0.80822 0.73365 0.74386
 H1031 H 0.67738 0.76110 0.77621
 H1032 H 0.69892 0.78406 0.80130
 O1033 O 0.27791 0.19588 0.74329
 O1034 O 0.28176 0.21351 0.71003
 O1035 O 0.28941 0.24529 0.79081
 O1036 O 0.27625 0.27833 0.79913
 O1037 O 0.23322 0.20363 0.79689
 O1038 O 0.19915 0.20190 0.77947
 O1039 O 0.23371 0.30989 0.73818
 O1040 O 0.26884 0.30787 0.75034
 O1041 O 0.22501 0.26267 0.69046
 O1042 O 0.23189 0.22391 0.68723
 O1043 O 0.17978 0.26567 0.74217
 O1044 O 0.17976 0.25583 0.77973
 O1045 O 0.20305 0.29866 0.75558
 O1046 O 0.19840 0.27949 0.79173
 O1047 O 0.19053 0.24977 0.71051
 O1048 O 0.20638 0.21246 0.70395
 O1049 O 0.24524 0.29067 0.70390
 O1050 O 0.28201 0.28716 0.71980
 O1051 O 0.24693 0.18408 0.75982
 O1052 O 0.20890 0.18752 0.75051
 O1053 O 0.25335 0.23147 0.81088
 O1054 O 0.24446 0.27111 0.81200
 O1055 O 0.30000 0.22783 0.75987
 O1056 O 0.29940 0.24393 0.72270
 Zr1057 Zr 0.27279 0.22949 0.73926
 O1058 O 0.25489 0.25119 0.71983
 Zr1059 Zr 0.25683 0.25368 0.78492
 O1060 O 0.23902 0.27704 0.76726
 Zr1061 Zr 0.22808 0.21259 0.76434
 O1062 O 0.20845 0.23420 0.74660
 Zr1063 Zr 0.25218 0.28122 0.73604
 O1064 O 0.27194 0.26018 0.75483
 Zr1065 Zr 0.22284 0.24023 0.71622
 O1066 O 0.24153 0.21689 0.73324
 Zr1067 Zr 0.20761 0.26503 0.76180
 O1068 O 0.22478 0.24238 0.78128
 O1069 O 0.25943 0.22351 0.76973
 O1070 O 0.22034 0.27079 0.73096
 C1071 C 0.26583 0.18086 0.75147
 C1072 C 0.30347 0.23502 0.77918
 C1073 C 0.24330 0.21311 0.81252
 C1074 C 0.21487 0.31337 0.74640
 C1075 C 0.23461 0.28120 0.68860
 C1076 C 0.17624 0.25886 0.72276
 H1077 H 0.26233 0.25294 0.70568
 H1078 H 0.19385 0.22768 0.74526
 H1079 H 0.26799 0.21300 0.77838
 H1080 H 0.23887 0.29107 0.77525
 H1081 H 0.28224 0.30183 0.75680
 H1082 H 0.27330 0.29195 0.79108
 H1083 H 0.19372 0.20966 0.71345
 H1084 H 0.21467 0.18489 0.73571
 H1085 H 0.28135 0.30195 0.71328
 H1086 H 0.31206 0.23400 0.72377
 H1087 H 0.17512 0.24133 0.77431
 H1088 H 0.19490 0.21354 0.78983
 H1089 H 0.26876 0.20560 0.70483
 H1090 H 0.24682 0.22853 0.68353
 H1091 H 0.23032 0.26441 0.81573
 H1092 H 0.20839 0.29179 0.79469
 O1093 O 0.20781 0.75992 0.29596
 O1094 O 0.22610 0.72733 0.30289
 O1095 O 0.26018 0.80650 0.28829
 O1096 O 0.28925 0.81048 0.26681
 O1097 O 0.20736 0.80424 0.24241
 O1098 O 0.19985 0.78117 0.21174
 O1099 O 0.31061 0.74253 0.23172
 O1100 O 0.31524 0.75995 0.26429
 O1101 O 0.26196 0.69455 0.24260
 O1102 O 0.22549 0.69523 0.25865
 O1103 O 0.25633 0.73519 0.18847
 O1104 O 0.24564 0.77347 0.18307
 O1105 O 0.29278 0.75296 0.20107
 O1106 O 0.27354 0.78692 0.19218
 O1107 O 0.24216 0.70766 0.20878
 O1108 O 0.20960 0.70624 0.23267
 O1109 O 0.29383 0.71044 0.25238
 O1110 O 0.29795 0.73257 0.28598
 O1111 O 0.19091 0.77061 0.26486
 O1112 O 0.18626 0.75565 0.22945
 O1113 O 0.23922 0.82033 0.25197
 O1114 O 0.27557 0.81781 0.23582
 O1115 O 0.24406 0.77942 0.30781
 O1116 O 0.25898 0.74214 0.31161
 Zr1117 Zr 0.23985 0.75376 0.28545
 O1118 O 0.25738 0.73002 0.26785
 Zr1119 Zr 0.26092 0.79419 0.25622
 O1120 O 0.27938 0.77206 0.23761
 Zr1121 Zr 0.21496 0.77076 0.24072
 O1122 O 0.23133 0.74774 0.22131
 Zr1123 Zr 0.28612 0.74381 0.25563
 O1124 O 0.26978 0.76712 0.27530
 Zr1125 Zr 0.23991 0.72059 0.24023
 O1126 O 0.22122 0.74253 0.25905
 Zr1127 Zr 0.26109 0.76083 0.21101
 O1128 O 0.24342 0.78501 0.22830
 O1129 O 0.23189 0.78155 0.26780
 O1130 O 0.26917 0.73284 0.22836
 C1131 C 0.19096 0.76578 0.28514
 C1132 C 0.25272 0.79845 0.30609
 C1133 C 0.21913 0.82106 0.24662
 C1134 C 0.30988 0.74689 0.21127
 C1135 C 0.28215 0.69374 0.24749
 C1136 C 0.24857 0.71580 0.19072
 H1137 H 0.26058 0.71747 0.27741
 H1138 H 0.22192 0.74366 0.20897
 H1139 H 0.22351 0.79219 0.27657
 H1140 H 0.29291 0.77938 0.23298
 H1141 H 0.31192 0.76890 0.27731
 H1142 H 0.30168 0.80119 0.26263
 H1143 H 0.20409 0.71329 0.21934
 H1144 H 0.18502 0.74158 0.23725
 H1145 H 0.31214 0.72538 0.28343
 H1146 H 0.25173 0.74604 0.32550
 H1147 H 0.23119 0.76653 0.18202
 H1148 H 0.21041 0.79067 0.20414
 H1149 H 0.21574 0.72003 0.29299
 H1150 H 0.23420 0.69323 0.27197
 H1151 H 0.26671 0.81855 0.22245
 H1152 H 0.28615 0.79309 0.19997
 O1153 O 0.24094 0.69102 0.76913
 O1154 O 0.27598 0.68827 0.75530
 O1155 O 0.24542 0.74378 0.81542
 O1156 O 0.25651 0.77869 0.81502
 O1157 O 0.19298 0.74314 0.76933
 O1158 O 0.19076 0.75162 0.73132
 O1159 O 0.29904 0.79760 0.75061
 O1160 O 0.30318 0.78357 0.78516
 O1161 O 0.29874 0.74442 0.70757
 O1162 O 0.27805 0.70957 0.70571
 O1163 O 0.25089 0.79217 0.70322
 O1164 O 0.21667 0.79936 0.72322
 O1165 O 0.26809 0.81156 0.73604
 O1166 O 0.23012 0.81459 0.74853
 O1167 O 0.26530 0.76044 0.69052
 O1168 O 0.25124 0.72220 0.69216
 O1169 O 0.31460 0.76238 0.73578
 O1170 O 0.31619 0.74847 0.77326
 O1171 O 0.21066 0.70503 0.75324
 O1172 O 0.20333 0.72243 0.71971
 O1173 O 0.20990 0.76006 0.79757
 O1174 O 0.22992 0.79433 0.79768
 O1175 O 0.25881 0.71178 0.80220
 O1176 O 0.29317 0.70753 0.78191
 Zr1177 Zr 0.26294 0.71734 0.76873
 O1178 O 0.28300 0.73422 0.74670
 Zr1179 Zr 0.24211 0.76355 0.78769
 O1180 O 0.26125 0.78236 0.76652
 Zr1181 Zr 0.21827 0.73795 0.74649
 O1182 O 0.23657 0.75559 0.72337
 Zr1183 Zr 0.28989 0.76552 0.75898
 O1184 O 0.27185 0.74773 0.78232
 Zr1185 Zr 0.26632 0.73982 0.71764
 O1186 O 0.24689 0.72084 0.73878
 Zr1187 Zr 0.24535 0.78600 0.73654
 O1188 O 0.22489 0.76935 0.75874
 O1189 O 0.23378 0.73284 0.77592
 O1190 O 0.27459 0.77068 0.72926
 C1191 C 0.22157 0.68925 0.76166
 C1192 C 0.25214 0.72407 0.81779
 C1193 C 0.19306 0.75231 0.78821
 C1194 C 0.28791 0.81318 0.74215
 C1195 C 0.31507 0.75351 0.71691
 C1196 C 0.25901 0.78022 0.68803
 H1197 H 0.29645 0.72574 0.74435
 H1198 H 0.22811 0.75722 0.70987
 H1199 H 0.22468 0.72436 0.78615
 H1200 H 0.26443 0.79659 0.77346
 H1201 H 0.30042 0.77494 0.79848
 H1202 H 0.26801 0.78853 0.80957
 H1203 H 0.23830 0.73049 0.68754
 H1204 H 0.21446 0.71280 0.71315
 H1205 H 0.32947 0.75745 0.77144
 H1206 H 0.29095 0.69414 0.79071
 H1207 H 0.21141 0.78925 0.71183
 H1208 H 0.19001 0.76704 0.73617
 H1209 H 0.26940 0.68642 0.74076
 H1210 H 0.29074 0.70541 0.71457
 H1211 H 0.21817 0.79823 0.78747
 H1212 H 0.23806 0.81930 0.76168
 O1213 O 0.24650 0.21143 0.20473
 O1214 O 0.27932 0.20342 0.22070
 O1215 O 0.20218 0.21428 0.25933
 O1216 O 0.20016 0.23289 0.29091
 O1217 O 0.20062 0.26241 0.21020
 O1218 O 0.22129 0.29544 0.20445
 O1219 O 0.26872 0.26817 0.31069
 O1220 O 0.25153 0.23511 0.31422
 O1221 O 0.31272 0.26112 0.25834
 O1222 O 0.30959 0.24966 0.22043
 O1223 O 0.27057 0.31617 0.26027
 O1224 O 0.23409 0.32261 0.25322
 O1225 O 0.25491 0.29978 0.29704
 O1226 O 0.21896 0.30840 0.27860
 O1227 O 0.29773 0.29744 0.24355
 O1228 O 0.29752 0.27714 0.20847
 O1229 O 0.29907 0.24923 0.29057
 O1230 O 0.27774 0.21491 0.29357
 O1231 O 0.23473 0.24363 0.19040
 O1232 O 0.24721 0.28064 0.18837
 O1233 O 0.18699 0.25019 0.24233
 O1234 O 0.19110 0.26533 0.27966
 O1235 O 0.22899 0.19612 0.24134
 O1236 O 0.26704 0.19233 0.25373
 Zr1237 Zr 0.25372 0.21957 0.23716
 O1238 O 0.27785 0.23655 0.25439
 Zr1239 Zr 0.21417 0.24631 0.26252
 O1240 O 0.23676 0.26395 0.28130
 Zr1241 Zr 0.23415 0.26587 0.21654
 O1242 O 0.25734 0.28474 0.23329
 Zr1243 Zr 0.26558 0.24609 0.28477
 O1244 O 0.24186 0.22710 0.26845
 Zr1245 Zr 0.28532 0.26594 0.23866
 O1246 O 0.26298 0.24783 0.21991
 Zr1247 Zr 0.24606 0.29241 0.26465
 O1248 O 0.22150 0.27592 0.24672
 O1249 O 0.22544 0.23712 0.23202
 O1250 O 0.27473 0.27514 0.26955
 C1251 C 0.24014 0.22341 0.18881
 C1252 C 0.21022 0.19707 0.25045
 C1253 C 0.18488 0.25603 0.22243
 C1254 C 0.26319 0.28832 0.31247
 C1255 C 0.31487 0.25461 0.27802
 C1256 C 0.28955 0.31490 0.25164
 H1257 H 0.29066 0.22698 0.25594
 H1258 H 0.26050 0.29806 0.22480
 H1259 H 0.21496 0.22844 0.22343
 H1260 H 0.23024 0.26728 0.29561
 H1261 H 0.24250 0.22225 0.31052
 H1262 H 0.20955 0.23710 0.30322
 H1263 H 0.29012 0.29101 0.20492
 H1264 H 0.26146 0.27366 0.18579
 H1265 H 0.28571 0.21650 0.30747
 H1266 H 0.26282 0.17874 0.24597
 H1267 H 0.23529 0.32229 0.23720
 H1268 H 0.21161 0.30134 0.21590
 H1269 H 0.28598 0.21426 0.21080
 H1270 H 0.31239 0.23545 0.22751
 H1271 H 0.18856 0.27868 0.27098
 H1272 H 0.21523 0.30073 0.29224
 O1273 O 0.79973 0.71153 0.25349
 O1274 O 0.80372 0.72674 0.21969
 O1275 O 0.80439 0.76873 0.29595
 O1276 O 0.78556 0.79888 0.30293
 O1277 O 0.75461 0.71889 0.30558
 O1278 O 0.72004 0.71323 0.28872
 O1279 O 0.74420 0.81923 0.23722
 O1280 O 0.77893 0.82211 0.25022
 O1281 O 0.74240 0.76700 0.19364
 O1282 O 0.75402 0.72865 0.19484
 O1283 O 0.69538 0.77069 0.24272
 O1284 O 0.69358 0.76343 0.28014
 O1285 O 0.71449 0.80636 0.25515
 O1286 O 0.71035 0.78885 0.29268
 O1287 O 0.70885 0.75201 0.21374
 O1288 O 0.72873 0.71650 0.21120
 O1289 O 0.75854 0.79834 0.20518
 O1290 O 0.79503 0.80034 0.22189
 O1291 O 0.76928 0.69806 0.26974
 O1292 O 0.73135 0.69669 0.26142
 O1293 O 0.77074 0.75032 0.31698
 O1294 O 0.75532 0.78841 0.31442
 O1295 O 0.81802 0.74797 0.26841
 O1296 O 0.81704 0.75993 0.22967
 Zr1297 Zr 0.79160 0.74418 0.24688
 O1298 O 0.77220 0.76175 0.22488
 Zr1299 Zr 0.77109 0.77066 0.28941
 O1300 O 0.75160 0.78997 0.26908
 Zr1301 Zr 0.74799 0.72482 0.27244
 O1302 O 0.72687 0.74211 0.25184
 Zr1303 Zr 0.76555 0.79264 0.23807
 O1304 O 0.78667 0.77591 0.25935
 Zr1305 Zr 0.74171 0.74687 0.22143
 O1306 O 0.76205 0.72766 0.24139
 Zr1307 Zr 0.72197 0.77391 0.26386
 O1308 O 0.74066 0.75545 0.28617
 O1309 O 0.77786 0.73966 0.27740
 O1310 O 0.73530 0.77819 0.23304
 C1311 C 0.78847 0.69594 0.26182
 C1312 C 0.81995 0.75872 0.28630
 C1313 C 0.76365 0.73085 0.32021
 C1314 C 0.72500 0.82141 0.24501
 C1315 C 0.74975 0.78639 0.19045
 C1316 C 0.69335 0.76150 0.22406
 H1317 H 0.77993 0.76301 0.21084
 H1318 H 0.71308 0.73396 0.25060
 H1319 H 0.78756 0.73103 0.28685
 H1320 H 0.74964 0.80454 0.27579
 H1321 H 0.79273 0.81818 0.25741
 H1322 H 0.78363 0.81071 0.29222
 H1323 H 0.71607 0.71317 0.22053
 H1324 H 0.73675 0.69368 0.24656
 H1325 H 0.79300 0.81434 0.21406
 H1326 H 0.83077 0.75195 0.23235
 H1327 H 0.69244 0.74746 0.27794
 H1328 H 0.71521 0.72513 0.29852
 H1329 H 0.79156 0.71781 0.21408
 H1330 H 0.76772 0.73560 0.19011
 H1331 H 0.74286 0.77945 0.31933
 H1332 H 0.71845 0.80265 0.29479
 O1333 O 0.69956 0.28009 0.76084
 O1334 O 0.69317 0.26040 0.72909
 O1335 O 0.70198 0.23192 0.81085
 O1336 O 0.72173 0.20311 0.81988
 O1337 O 0.75352 0.28162 0.80552
 O1338 O 0.78334 0.28631 0.78210
 O1339 O 0.75619 0.17212 0.75305
 O1340 O 0.72363 0.17101 0.77135
 O1341 O 0.75114 0.21611 0.70246
 O1342 O 0.73962 0.25325 0.69818
 O1343 O 0.80398 0.22105 0.74525
 O1344 O 0.80925 0.23498 0.78158
 O1345 O 0.78765 0.18793 0.76436
 O1346 O 0.79565 0.21041 0.79833
 O1347 O 0.78688 0.23469 0.71556
 O1348 O 0.76538 0.26928 0.71003
 O1349 O 0.73722 0.18708 0.72086
 O1350 O 0.70321 0.18779 0.74254
 O1351 O 0.73096 0.29664 0.77142
 O1352 O 0.76695 0.29708 0.75461
 O1353 O 0.73865 0.25315 0.82406
 O1354 O 0.75328 0.21497 0.82563
 O1355 O 0.68470 0.24626 0.78156
 O1356 O 0.68154 0.22895 0.74529
 Zr1357 Zr 0.70838 0.24725 0.75696
 O1358 O 0.72546 0.22636 0.73588
 Zr1359 Zr 0.73435 0.22852 0.80039
 O1360 O 0.75179 0.20608 0.78115
 Zr1361 Zr 0.75395 0.27104 0.77307
 O1362 O 0.77309 0.25052 0.75332
 Zr1363 Zr 0.73433 0.19821 0.75300
 O1364 O 0.71549 0.21817 0.77376
 Zr1365 Zr 0.75490 0.24065 0.72622
 O1366 O 0.73639 0.26293 0.74500
 Zr1367 Zr 0.78012 0.22120 0.76966
 O1368 O 0.76367 0.24321 0.79063
 O1369 O 0.72549 0.25692 0.78444
 O1370 O 0.76335 0.21180 0.74187
 C1371 C 0.71066 0.29692 0.76646
 C1372 C 0.68504 0.23928 0.80123
 C1373 C 0.74688 0.27245 0.82303
 C1374 C 0.77639 0.17144 0.75785
 C1375 C 0.74380 0.19646 0.70345
 C1376 C 0.80368 0.22718 0.72534
 H1377 H 0.71613 0.22271 0.72334
 H1378 H 0.78640 0.25847 0.74910
 H1379 H 0.71700 0.26671 0.79405
 H1380 H 0.75493 0.19279 0.78968
 H1381 H 0.71074 0.17591 0.77963
 H1382 H 0.72327 0.18949 0.81136
 H1383 H 0.77887 0.27432 0.71711
 H1384 H 0.75800 0.29824 0.74134
 H1385 H 0.70456 0.17269 0.73681
 H1386 H 0.66806 0.23734 0.74809
 H1387 H 0.81154 0.24901 0.77396
 H1388 H 0.79112 0.27574 0.79140
 H1389 H 0.70408 0.26962 0.72163
 H1390 H 0.72460 0.24757 0.69798
 H1391 H 0.76655 0.22400 0.82680
 H1392 H 0.78811 0.19708 0.80342
 C1393 C 0.11302 1.02315 1.17607
 C1394 C 0.09759 1.00808 1.16875
 C1395 C 0.09067 1.00711 1.14591
 N1396 N 0.07144 0.99767 1.14084
 N1397 N 0.06474 0.99678 1.12031
 C1398 C 0.07713 1.00509 1.10403
 N1399 N 0.09655 1.01423 1.10904
 N1400 N 0.10316 1.01532 1.12963
 C1401 C 0.06953 1.00447 1.08138
 C1402 C 0.04752 1.00274 1.07674
 H1403 H 0.08895 0.99771 1.18000
 H1404 H 0.08115 1.00665 1.06833
 H1405 H 0.11917 1.03486 1.16436
 H1406 H 0.03593 1.00265 1.09001
 C1407 C 0.61845 0.50031 0.68376
 C1408 C 0.60407 0.51258 0.67139
 C1409 C 0.59508 0.50517 0.65061
 N1410 N 0.57676 0.51471 0.64321
 N1411 N 0.56813 0.50856 0.62442
 C1412 C 0.57754 0.49272 0.61214
 N1413 N 0.59611 0.48332 0.61935
 N1414 N 0.60468 0.48935 0.63836
 C1415 C 0.56784 0.48654 0.59116
 C1416 C 0.54605 0.49113 0.58753
 H1417 H 0.59763 0.52766 0.67802
 H1418 H 0.57789 0.47965 0.57842
 H1419 H 0.62298 0.48406 0.67840
 H1420 H 0.53628 0.49681 0.60108
 C1421 C 0.39955 -0.00592 0.68541
 C1422 C 0.39437 -0.01358 0.66473
 C1423 C 0.40692 -0.00710 0.64547
 N1424 N 0.39898 -0.01091 0.62527
 N1425 N 0.41071 -0.00605 0.60772
 C1426 C 0.43088 0.00265 0.60977
 N1427 N 0.43882 0.00641 0.62996
 N1428 N 0.42702 0.00174 0.64749
 C1429 C 0.44480 0.00627 0.59074
 C1430 C 0.43681 0.00657 0.56959
 H1431 H 0.38071 -0.02451 0.66258
 H1432 H 0.46207 0.00803 0.59346
 H1433 H 0.41167 0.00680 0.68716
 H1434 H 0.41948 0.00668 0.56678
 C1435 C -0.10027 0.48669 1.18566
 C1436 C -0.10667 0.48049 1.16484
 C1437 C -0.09226 0.48321 1.14595
 N1438 N -0.10051 0.48276 1.12553
 N1439 N -0.08758 0.48519 1.10832
 C1440 C -0.06588 0.48799 1.11090
 N1441 N -0.05761 0.48823 1.13130
 N1442 N -0.07056 0.48599 1.14851
 C1443 C -0.05127 0.49005 1.09210
 C1444 C -0.05884 0.49484 1.07132
 H1445 H -0.12297 0.47450 1.16213
 H1446 H -0.03404 0.48800 1.09477
 H1447 H -0.08479 0.49481 1.18777
 H1448 H -0.07587 0.49835 1.06891
 C1449 C -0.10632 0.51987 0.31453
 C1450 C -0.09799 0.53451 0.32989
 C1451 C -0.08944 0.52751 0.35098
 N1452 N -0.07614 0.54114 0.36209
 N1453 N -0.06794 0.53522 0.38114
 C1454 C -0.07291 0.51551 0.38993
 N1455 N -0.08652 0.50196 0.37900
 N1456 N -0.09459 0.50782 0.35979
 C1457 C -0.06330 0.50884 0.41072
 C1458 C -0.04401 0.51831 0.41774
 H1459 H -0.09574 0.55156 0.32602
 H1460 H -0.07072 0.49574 0.41992
 H1461 H -0.10568 0.50259 0.31831
 H1462 H -0.03575 0.52992 0.40733
 C1463 C 0.38832 1.01400 -0.18210
 C1464 C 0.39365 1.02906 -0.16584
 C1465 C 0.40392 1.02234 -0.14545
 N1466 N 0.41631 1.03684 -0.13435
 N1467 N 0.42610 1.03100 -0.11602
 C1468 C 0.42366 1.01050 -0.10798
 N1469 N 0.41095 0.99608 -0.11887
 N1470 N 0.40134 1.00185 -0.13737
 C1471 C 0.43475 1.00399 -0.08794
 C1472 C 0.45386 1.01428 -0.08163
 H1473 H 0.39247 1.04643 -0.16867
 H1474 H 0.42846 0.99035 -0.07866
 H1475 H 0.39265 0.99705 -0.17940
 H1476 H 0.46111 1.02642 -0.09220
 C1477 C 0.60475 0.47744 -0.18391
 C1478 C 0.60993 0.47256 -0.16243
 C1479 C 0.59507 0.47787 -0.14442
 N1480 N 0.60209 0.47693 -0.12357
 N1481 N 0.58877 0.48177 -0.10716
 C1482 C 0.56790 0.48766 -0.11103
 N1483 N 0.56085 0.48846 -0.13187
 N1484 N 0.57420 0.48374 -0.14826
 C1485 C 0.55274 0.49240 -0.09315
 C1486 C 0.55950 0.49452 -0.07165
 H1487 H 0.62561 0.46568 -0.15857
 H1488 H 0.53570 0.49400 -0.09707
 H1489 H 0.58982 0.48611 -0.18724
 H1490 H 0.57662 0.49378 -0.06784
 C1491 C 0.08936 -0.01166 0.30472
 C1492 C 0.09391 -0.02010 0.32523
 C1493 C 0.08057 -0.01502 0.34441
 N1494 N 0.08834 -0.01916 0.36458
 N1495 N 0.07632 -0.01502 0.38213
 C1496 C 0.05600 -0.00675 0.38012
 N1497 N 0.04816 -0.00276 0.35994
 N1498 N 0.06026 -0.00673 0.34239
 C1499 C 0.04232 -0.00273 0.39933
 C1500 C 0.05092 -0.00176 0.42023
 H1501 H 0.10817 -0.03014 0.32750
 H1502 H 0.02513 -0.00014 0.39689
 H1503 H 0.07652 0.00027 0.30297
 H1504 H 0.06830 -0.00279 0.42248
 C1505 C 0.18504 1.11618 1.01602
 C1506 C 0.17905 1.10371 0.99801
 C1507 C 0.15698 1.09490 0.99670
 N1508 N 0.15371 1.07408 0.98987
 N1509 N 0.13394 1.06532 0.99047
 C1510 C 0.11675 1.07714 0.99773
 N1511 N 0.11994 1.09814 1.00403
 N1512 N 0.13975 1.10680 1.00373
 C1513 C 0.09503 1.06748 0.99875
 C1514 C 0.09222 1.04515 1.00188
 H1515 H 0.19105 1.09748 0.98676
 H1516 H 0.08108 1.07816 0.99764
 H1517 H 0.17268 1.11904 1.02829
 H1518 H 0.10621 1.03493 1.00496
 C1519 C 0.68722 0.60772 0.51844
 C1520 C 0.67579 0.59308 0.53144
 C1521 C 0.65488 0.58372 0.52490
 N1522 N 0.64713 0.56588 0.53537
 N1523 N 0.62811 0.55723 0.52985
 C1524 C 0.61605 0.56620 0.51375
 N1525 N 0.62370 0.58419 0.50339
 N1526 N 0.64284 0.59275 0.50879
 C1527 C 0.59480 0.55697 0.50801
 C1528 C 0.58888 0.53608 0.51472
 H1529 H 0.68285 0.58743 0.54651
 H1530 H 0.58372 0.56670 0.49844
 H1531 H 0.68124 0.61150 0.50234
 H1532 H 0.60062 0.52600 0.52309
 C1533 C 0.68372 0.39271 -0.00496
 C1534 C 0.66311 0.38865 -0.01353
 C1535 C 0.64455 0.40296 -0.00887
 N1536 N 0.62422 0.39636 -0.01414
 N1537 N 0.60731 0.40947 -0.01082
 C1538 C 0.61014 0.42975 -0.00226
 N1539 N 0.63047 0.43638 0.00295
 N1540 N 0.64737 0.42321 -0.00023
 C1541 C 0.59182 0.44480 0.00050
 C1542 C 0.57035 0.43796 -0.00149
 H1543 H 0.65997 0.37442 -0.02345
 H1544 H 0.59537 0.46177 0.00408
 H1545 H 0.68516 0.40559 0.00709
 H1546 H 0.56672 0.42077 -0.00374
 C1547 C 0.18531 -0.09279 0.48661
 C1548 C 0.16439 -0.09785 0.47975
 C1549 C 0.14597 -0.08321 0.48388
 N1550 N 0.12543 -0.09062 0.48117
 N1551 N 0.10859 -0.07737 0.48429
 C1552 C 0.11169 -0.05616 0.49006
 N1553 N 0.13224 -0.04870 0.49263
 N1554 N 0.14908 -0.06200 0.48968
 C1555 C 0.09326 -0.04120 0.49281
 C1556 C 0.07208 -0.04887 0.49480
 H1557 H 0.16127 -0.11317 0.47148
 H1558 H 0.09647 -0.02380 0.49342
 H1559 H 0.18787 -0.07862 0.49688
 H1560 H 0.06910 -0.06631 0.49563
 C1561 C 0.31674 -0.11212 0.51427
 C1562 C 0.32309 -0.09830 0.49731
 C1563 C 0.34528 -0.08961 0.49576
 N1564 N 0.34899 -0.07072 0.48488
 N1565 N 0.36882 -0.06212 0.48404
 C1566 C 0.38573 -0.07224 0.49387
 N1567 N 0.38210 -0.09135 0.50443
 N1568 N 0.36221 -0.09983 0.50546
 C1569 C 0.40757 -0.06260 0.49359
 C1570 C 0.41078 -0.04034 0.49004
 H1571 H 0.31131 -0.09158 0.48622
 H1572 H 0.42119 -0.07287 0.49784
 H1573 H 0.32889 -0.11623 0.52629
 H1574 H 0.39691 -0.02977 0.48770
 C1575 C -0.18012 0.38385 1.01128
 C1576 C -0.17627 0.40149 0.99751
 C1577 C -0.15421 0.40979 0.99362
 N1578 N -0.15126 0.43061 0.98669
 N1579 N -0.13135 0.43880 0.98440
 C1580 C -0.11366 0.42638 0.98879
 N1581 N -0.11661 0.40541 0.99529
 N1582 N -0.13651 0.39729 0.99777
 C1583 C -0.09163 0.43551 0.98748
 C1584 C -0.08791 0.45798 0.98784
 H1585 H -0.18978 0.41084 0.99131
 H1586 H -0.07805 0.42433 0.98821
 H1587 H -0.16649 0.37601 1.01914
 H1588 H -0.10155 0.46910 0.98868
 C1589 C -0.18219 0.60888 0.49004
 C1590 C -0.16340 0.60943 0.47731
 C1591 C -0.14543 0.59415 0.48143
 N1592 N -0.12475 0.59975 0.47628
 N1593 N -0.10849 0.58585 0.47978
 C1594 C -0.11237 0.56573 0.48827
 N1595 N -0.13308 0.56003 0.49312
 N1596 N -0.14928 0.57403 0.48991
 C1597 C -0.09467 0.54997 0.49155
 C1598 C -0.07340 0.55675 0.49504
 H1599 H -0.16120 0.62164 0.46482
 H1600 H -0.09859 0.53271 0.49191
 H1601 H -0.18188 0.59839 0.50423
 H1602 H -0.06995 0.57404 0.49673
 C1603 C 0.31535 1.10331 -0.01269
 C1604 C 0.33525 1.10452 -0.02353
 C1605 C 0.35265 1.08869 -0.01944
 N1606 N 0.37354 1.09434 -0.02342
 N1607 N 0.38949 1.08014 -0.01999
 C1608 C 0.38512 1.05966 -0.01270
 N1609 N 0.36420 1.05388 -0.00902
 N1610 N 0.34824 1.06819 -0.01221
 C1611 C 0.40274 1.04392 -0.00917
 C1612 C 0.42373 1.05113 -0.00501
 H1613 H 0.33899 1.11802 -0.03418
 H1614 H 0.39911 1.02659 -0.00939
 H1615 H 0.31380 1.09122 0.00009
 H1616 H 0.42669 1.06847 -0.00292
 C1617 C 0.01644 1.17840 1.11242
 C1618 C 0.03177 1.16276 1.10612
 C1619 C 0.02543 1.14218 1.09526
 N1620 N 0.03969 1.13208 1.08178
 N1621 N 0.03406 1.11400 1.07110
 C1622 C 0.01400 1.10514 1.07364
 N1623 N -0.00016 1.11498 1.08746
 N1624 N 0.00540 1.13326 1.09797
 C1625 C 0.00770 1.08536 1.06136
 C1626 C 0.01752 1.08063 1.04148
 H1627 H 0.04889 1.16647 1.10653
 H1628 H -0.00513 1.07498 1.06754
 H1629 H -0.00045 1.17451 1.10940
 H1630 H 0.02895 1.09232 1.03481
 C1631 C 0.51101 0.67699 0.62036
 C1632 C 0.52691 0.66167 0.61520
 C1633 C 0.52153 0.63954 0.60764
 N1634 N 0.53665 0.62794 0.59658
 N1635 N 0.53171 0.60866 0.58791
 C1636 C 0.51149 0.60012 0.59011
 N1637 N 0.49648 0.61141 0.60173
 N1638 N 0.50138 0.63085 0.61027
 C1639 C 0.50564 0.57987 0.57862
 C1640 C 0.51598 0.57493 0.55911
 H1641 H 0.54370 0.66666 0.61402
 H1642 H 0.49229 0.56993 0.58441
 H1643 H 0.49413 0.67213 0.61958
 H1644 H 0.52775 0.58639 0.55267
 C1645 C -0.00064 0.67891 0.38428
 C1646 C -0.01571 0.66540 0.39442
 C1647 C -0.00927 0.64528 0.40557
 N1648 N -0.02187 0.63731 0.42180
 N1649 N -0.01614 0.61928 0.43236
 C1650 C 0.00230 0.60844 0.42695
 N1651 N 0.01476 0.61622 0.41049
 N1652 N 0.00916 0.63443 0.40008
 C1653 C 0.00824 0.58818 0.43818
 C1654 C 0.00022 0.58367 0.45886
 H1655 H -0.03238 0.67075 0.39601
 H1656 H 0.01868 0.57657 0.42997
 H1657 H 0.01644 0.67483 0.38501
 H1658 H -0.00877 0.59616 0.46754
 C1659 C 0.48122 1.17831 -0.11275
 C1660 C 0.46770 1.16166 -0.10507
 C1661 C 0.47652 1.14185 -0.09487
 N1662 N 0.46504 1.13172 -0.07900
 N1663 N 0.47291 1.11408 -0.06919
 C1664 C 0.49247 1.10572 -0.07503
 N1665 N 0.50382 1.11561 -0.09119
 N1666 N 0.49607 1.13348 -0.10081
 C1667 C 0.50088 1.08596 -0.06434
 C1668 C 0.49482 1.08104 -0.04309
 H1669 H 0.45040 1.16413 -0.10378
 H1670 H 0.51159 1.07517 -0.07328
 H1671 H 0.49855 1.17603 -0.11085
 H1672 H 0.48559 1.09299 -0.03392
 C1673 C 0.50050 0.31305 -0.10707
 C1674 C 0.51088 0.33321 -0.10975
 C1675 C 0.50640 0.35196 -0.09547
 N1676 N 0.51324 0.37221 -0.10128
 N1677 N 0.51027 0.38921 -0.08805
 C1678 C 0.50052 0.38654 -0.06842
 N1679 N 0.49374 0.36628 -0.06257
 N1680 N 0.49656 0.34930 -0.07588
 C1681 C 0.49810 0.40495 -0.05323
 C1682 C 0.50085 0.42656 -0.05980
 H1683 H 0.52232 0.33581 -0.12282
 H1684 H 0.49398 0.40139 -0.03648
 H1685 H 0.48700 0.31235 -0.09577
 H1686 H 0.50342 0.43021 -0.07683
 C1687 C 0.01332 -0.18743 0.40675
 C1688 C 0.02081 -0.16631 0.40285
 C1689 C 0.01455 -0.14752 0.41634
 N1690 N 0.01823 -0.12701 0.40894
 N1691 N 0.01355 -0.10972 0.42125
 C1692 C 0.00521 -0.11230 0.44152
 N1693 N 0.00164 -0.13285 0.44901
 N1694 N 0.00614 -0.15016 0.43660
 C1695 C 0.00093 -0.09322 0.45546
 C1696 C -0.00035 -0.07230 0.44669
 H1697 H 0.03149 -0.16332 0.38917
 H1698 H -0.00107 -0.09562 0.47279
 H1699 H 0.00076 -0.19010 0.41879
 H1700 H 0.00014 -0.07031 0.42920
 C1701 C 0.47939 -0.19270 0.58484
 C1702 C 0.46945 -0.17272 0.58916
 C1703 C 0.47326 -0.15322 0.57589
 N1704 N 0.46736 -0.13332 0.58362
 N1705 N 0.47024 -0.11546 0.57165
 C1706 C 0.47893 -0.11688 0.55141
 N1707 N 0.48466 -0.13680 0.54358
 N1708 N 0.48195 -0.15466 0.55564
 C1709 C 0.48186 -0.09728 0.53799
 C1710 C 0.48169 -0.07643 0.54710
 H1711 H 0.45892 -0.17110 0.60319
 H1712 H 0.48494 -0.09934 0.52077
 H1713 H 0.49178 -0.19374 0.57237
 H1714 H 0.48034 -0.07454 0.56456
 C1715 C -0.01575 0.30973 1.10151
 C1716 C -0.03114 0.32461 1.09388
 C1717 C -0.02500 0.34567 1.08422
 N1718 N -0.03914 0.35609 1.07099
 N1719 N -0.03403 0.37528 1.06221
 C1720 C -0.01467 0.38492 1.06653
 N1721 N -0.00061 0.37466 1.08001
 N1722 N -0.00564 0.35532 1.08863
 C1723 C -0.00903 0.40614 1.05683
 C1724 C -0.01905 0.41315 1.03784
 H1725 H -0.04815 0.32041 1.09345
 H1726 H 0.00367 0.41591 1.06414
 H1727 H 0.00120 0.31359 1.09872
 H1728 H -0.03028 0.40232 1.02962
 C1729 C 0.77013 0.35825 0.06925
 C1730 C 0.78613 0.35070 0.08340
 C1731 C 0.78047 0.34159 0.10473
 N1732 N 0.79404 0.32721 0.11445
 N1733 N 0.78873 0.31817 0.13340
 C1734 C 0.76976 0.32334 0.14340
 N1735 N 0.75637 0.33802 0.13388
 N1736 N 0.76158 0.34690 0.11482
 C1737 C 0.76360 0.31320 0.16411
 C1738 C 0.77278 0.29358 0.17084
 H1739 H 0.80281 0.34920 0.07822
 H1740 H 0.75095 0.32079 0.17375
 H1741 H 0.75341 0.35686 0.07459
 H1742 H 0.78424 0.28524 0.16034
 C1743 C 0.26262 0.85791 0.56546
 C1744 C 0.27643 0.84460 0.57748
 C1745 C 0.27036 0.83570 0.59885
 N1746 N 0.28189 0.81891 0.60728
 N1747 N 0.27675 0.81062 0.62660
 C1748 C 0.25997 0.81891 0.63835
 N1749 N 0.24856 0.83589 0.63003
 N1750 N 0.25360 0.84408 0.61058
 C1751 C 0.25446 0.80988 0.65986
 C1752 C 0.26224 0.78952 0.66625
 H1753 H 0.29179 0.83955 0.57056
 H1754 H 0.24407 0.81920 0.67064
 H1755 H 0.24640 0.86103 0.57150
 H1756 H 0.27150 0.77985 0.65474
 C1757 C 0.73651 0.63612 0.57605
 C1758 C 0.74713 0.65523 0.58232
 C1759 C 0.74726 0.66272 0.60508
 N1760 N 0.75081 0.68412 0.60965
 N1761 N 0.75005 0.69136 0.63007
 C1762 C 0.74587 0.67743 0.64673
 N1763 N 0.74268 0.65595 0.64220
 N1764 N 0.74323 0.64874 0.62174
 C1765 C 0.74470 0.68537 0.66932
 C1766 C 0.74123 0.70739 0.67401
 H1767 H 0.75359 0.66607 0.57001
 H1768 H 0.74573 0.67362 0.68241
 H1769 H 0.72812 0.62657 0.58827
 H1770 H 0.73867 0.71874 0.66078
 C1771 C 0.23584 0.14171 0.07085
 C1772 C 0.24768 0.16015 0.07669
 C1773 C 0.24770 0.16806 0.09924
 N1774 N 0.25087 0.18959 0.10342
 N1775 N 0.24957 0.19719 0.12367
 C1776 C 0.24519 0.18352 0.14049
 N1777 N 0.24245 0.16192 0.13637
 N1778 N 0.24353 0.15435 0.11608
 C1779 C 0.24355 0.19185 0.16284
 C1780 C 0.23942 0.21384 0.16694
 H1781 H 0.25481 0.17033 0.06419
 H1782 H 0.24534 0.18050 0.17619
 H1783 H 0.22670 0.13309 0.08323
 H1784 H 0.23624 0.22472 0.15345
 C1785 C 0.27689 0.15718 0.94138
 C1786 C 0.25785 0.16088 0.92980
 C1787 C 0.25773 0.17329 0.90934
 N1788 N 0.24054 0.17169 0.89573
 N1789 N 0.24037 0.18247 0.87694
 C1790 C 0.25734 0.19540 0.87114
 N1791 N 0.27442 0.19722 0.88488
 N1792 N 0.27466 0.18630 0.90359
 C1793 C 0.25743 0.20726 0.85035
 C1794 C 0.24327 0.20179 0.83358
 H1795 H 0.24287 0.15327 0.93504
 H1796 H 0.26948 0.21991 0.84788
 H1797 H 0.29212 0.16306 0.93478
 H1798 H 0.23222 0.18816 0.83563
 C1799 C 0.76862 0.65134 0.44135
 C1800 C 0.78339 0.66285 0.42855
 C1801 C 0.77694 0.67291 0.40780
 N1802 N 0.78914 0.68912 0.39903
 N1803 N 0.78343 0.69839 0.38033
 C1804 C 0.76537 0.69169 0.36959
 N1805 N 0.75330 0.67530 0.37823
 N1806 N 0.75890 0.66617 0.39704
 C1807 C 0.75920 0.70148 0.34862
 C1808 C 0.76750 0.72158 0.34194
 H1809 H 0.79971 0.66561 0.43441
 H1810 H 0.74785 0.69278 0.33836
 H1811 H 0.75180 0.65071 0.43632
 H1812 H 0.77775 0.73079 0.35294
 C1813 C 0.22462 0.85780 0.43539
 C1814 C 0.24334 0.85491 0.42295
 C1815 C 0.24280 0.84272 0.40228
 N1816 N 0.25904 0.84500 0.38750
 N1817 N 0.25856 0.83398 0.36877
 C1818 C 0.24190 0.82017 0.36425
 N1819 N 0.22580 0.81776 0.37911
 N1820 N 0.22618 0.82890 0.39771
 C1821 C 0.24121 0.80732 0.34404
 C1822 C 0.25388 0.81208 0.32583
 H1823 H 0.25840 0.86250 0.42794
 H1824 H 0.22971 0.79394 0.34330
 H1825 H 0.20927 0.85207 0.42901
 H1826 H 0.26426 0.82637 0.32583
 C1827 C 0.72260 0.33978 0.94806
 C1828 C 0.74085 0.33584 0.93527
 C1829 C 0.74010 0.32095 0.91653
 N1830 N 0.75580 0.32197 0.90110
 N1831 N 0.75503 0.30895 0.88374
 C1832 C 0.73864 0.29431 0.88129
 N1833 N 0.72313 0.29305 0.89689
 N1834 N 0.72380 0.30619 0.91417
 C1835 C 0.73733 0.28030 0.86191
 C1836 C 0.74879 0.28535 0.84306
 H1837 H 0.75567 0.34488 0.93816
 H1838 H 0.72621 0.26659 0.86205
 H1839 H 0.70732 0.33229 0.94359
 H1840 H 0.75868 0.29998 0.84257
 C1841 C 0.84372 0.44611 0.22945
 C1842 C 0.84938 0.42495 0.22327
 C1843 C 0.83521 0.40611 0.22756
 N1844 N 0.84363 0.38565 0.22750
 N1845 N 0.83105 0.36840 0.23145
 C1846 C 0.80953 0.37096 0.23543
 N1847 N 0.80105 0.39141 0.23524
 N1848 N 0.81368 0.40869 0.23150
 C1849 C 0.79546 0.35196 0.23942
 C1850 C 0.80397 0.33186 0.24567
 H1851 H 0.86524 0.42187 0.21633
 H1852 H 0.77810 0.35393 0.23777
 H1853 H 0.82891 0.44873 0.23859
 H1854 H 0.82119 0.33044 0.24885
 C1855 C 0.36632 0.93382 0.72874
 C1856 C 0.34806 0.92714 0.74032
 C1857 C 0.34113 0.90421 0.74117
 N1858 N 0.32031 0.89945 0.74642
 N1859 N 0.31352 0.87881 0.74693
 C1860 C 0.32733 0.86213 0.74242
 N1861 N 0.34828 0.86684 0.73754
 N1862 N 0.35504 0.88754 0.73680
 C1863 C 0.31958 0.83938 0.74279
 C1864 C 0.29766 0.83492 0.73985
 H1865 H 0.33753 0.93927 0.74763
 H1866 H 0.33107 0.82621 0.74496
 H1867 H 0.37541 0.92185 0.71946
 H1868 H 0.28680 0.84825 0.73592
 C1869 C 0.13344 0.93600 0.26257
 C1870 C 0.14997 0.93021 0.24806
 C1871 C 0.15922 0.90810 0.24763
 N1872 N 0.17927 0.90487 0.23912
 N1873 N 0.18808 0.88501 0.23894
 C1874 C 0.17706 0.86762 0.24707
 N1875 N 0.15687 0.87078 0.25529
 N1876 N 0.14814 0.89069 0.25566
 C1877 C 0.18675 0.84571 0.24719
 C1878 C 0.20909 0.84276 0.24564
 H1879 H 0.15782 0.94231 0.23799
 H1880 H 0.17625 0.83175 0.24980
 H1881 H 0.12813 0.92370 0.27408
 H1882 H 0.21967 0.85690 0.24489
 C1883 C 0.66226 0.43301 0.77795
 C1884 C 0.65671 0.41262 0.78630
 C1885 C 0.67048 0.39332 0.78306
 N1886 N 0.66182 0.37309 0.78541
 N1887 N 0.67386 0.35537 0.78200
 C1888 C 0.69506 0.35720 0.77626
 N1889 N 0.70384 0.37744 0.77424
 N1890 N 0.69173 0.39520 0.77746
 C1891 C 0.70833 0.33761 0.77246
 C1892 C 0.69859 0.31749 0.76831
 H1893 H 0.64100 0.41027 0.79384
 H1894 H 0.72583 0.33905 0.77265
 H1895 H 0.67696 0.43464 0.76841
 H1896 H 0.68111 0.31664 0.76674
 C1897 C 0.63759 0.56094 0.73467
 C1898 C 0.65281 0.56814 0.74975
 C1899 C 0.65887 0.59122 0.75187
 N1900 N 0.67828 0.59648 0.76071
 N1901 N 0.68460 0.61723 0.76195
 C1902 C 0.67165 0.63352 0.75461
 N1903 N 0.65199 0.62834 0.74619
 N1904 N 0.64575 0.60751 0.74473
 C1905 C 0.67921 0.65628 0.75505
 C1906 C 0.70130 0.66075 0.75397
 H1907 H 0.66220 0.55635 0.75882
 H1908 H 0.66751 0.66946 0.75489
 H1909 H 0.63001 0.57268 0.72396
 H1910 H 0.71260 0.64735 0.75190
 C1911 C 0.15436 0.06432 0.23112
 C1912 C 0.15015 0.08545 0.22397
 C1913 C 0.16415 0.10393 0.22996
 N1914 N 0.15636 0.12463 0.22907
 N1915 N 0.16903 0.14155 0.23405
 C1916 C 0.19001 0.13840 0.23990
 N1917 N 0.19785 0.11771 0.24059
 N1918 N 0.18511 0.10077 0.23586
 C1919 C 0.20443 0.15702 0.24423
 C1920 C 0.19634 0.17756 0.24965
 H1921 H 0.13574 0.08868 0.21449
 H1922 H 0.22177 0.15454 0.24288
 H1923 H 0.16728 0.06160 0.24270
 H1924 H 0.17916 0.17955 0.25277
 C1925 C 0.35251 0.06737 0.76953
 C1926 C 0.33371 0.07056 0.75745
 C1927 C 0.32408 0.09238 0.75520
 N1928 N 0.30276 0.09457 0.75028
 N1929 N 0.29384 0.11433 0.74867
 C1930 C 0.30601 0.13260 0.75172
 N1931 N 0.32738 0.13039 0.75632
 N1932 N 0.33623 0.11066 0.75815
 C1933 C 0.29662 0.15454 0.75003
 C1934 C 0.27443 0.15847 0.75189
 H1935 H 0.32516 0.05664 0.75073
 H1936 H 0.30772 0.16821 0.74861
 H1937 H 0.35953 0.08105 0.77825
 H1938 H 0.26341 0.14505 0.75508
 C1939 C 0.86898 0.57687 0.26346
 C1940 C 0.84992 0.58276 0.25298
 C1941 C 0.84228 0.60547 0.25294
 N1942 N 0.82082 0.60967 0.25083
 N1943 N 0.81345 0.63008 0.25201
 C1944 C 0.82730 0.64705 0.25518
 N1945 N 0.84883 0.64290 0.25686
 N1946 N 0.85618 0.62245 0.25592
 C1947 C 0.81922 0.66957 0.25668
 C1948 C 0.79770 0.67385 0.26207
 H1949 H 0.83907 0.57015 0.24707
 H1950 H 0.83045 0.68292 0.25397
 H1951 H 0.87853 0.58938 0.27148
 H1952 H 0.78704 0.66043 0.26632
 C1953 C 0.93185 0.26061 0.13800
 C1954 C 0.92802 0.25102 0.15816
 C1955 C 0.90604 0.24971 0.16742
 N1956 N 0.90328 0.24698 0.18913
 N1957 N 0.88345 0.24655 0.19779
 C1958 C 0.86565 0.24866 0.18501
 N1959 N 0.86841 0.25106 0.16327
 N1960 N 0.88823 0.25169 0.15465
 C1961 C 0.84365 0.24840 0.19425
 C1962 C 0.83970 0.25164 0.21635
 H1963 H 0.94157 0.24608 0.16816
 H1964 H 0.83014 0.24659 0.18318
 H1965 H 0.91836 0.26759 0.12916
 H1966 H 0.85312 0.25491 0.22721
 C1967 C 0.42676 0.76205 0.62671
 C1968 C 0.42264 0.75268 0.64691
 C1969 C 0.40069 0.75118 0.65605
 N1970 N 0.39814 0.74783 0.67766
 N1971 N 0.37843 0.74710 0.68645
 C1972 C 0.36050 0.74949 0.67393
 N1973 N 0.36300 0.75246 0.65222
 N1974 N 0.38277 0.75339 0.64344
 C1975 C 0.33876 0.74929 0.68379
 C1976 C 0.33614 0.75360 0.70585
 H1977 H 0.43602 0.74787 0.65718
 H1978 H 0.32474 0.74674 0.67353
 H1979 H 0.41342 0.76889 0.61755
 H1980 H 0.35021 0.75785 0.71551
 C1981 C 0.42283 0.22815 0.86051
 C1982 C 0.41129 0.21398 0.84703
 C1983 C 0.39028 0.22011 0.83748
 N1984 N 0.38244 0.20882 0.82019
 N1985 N 0.36375 0.21453 0.81100
 C1986 C 0.35213 0.23170 0.81881
 N1987 N 0.35984 0.24284 0.83625
 N1988 N 0.37862 0.23723 0.84535
 C1989 C 0.33133 0.23806 0.80892
 C1990 C 0.32484 0.23017 0.78866
 H1991 H 0.41865 0.19876 0.84188
 H1992 H 0.32102 0.24936 0.81772
 H1993 H 0.41625 0.24423 0.86384
 H1994 H 0.33569 0.21971 0.77949
 C1995 C 0.94799 0.72572 0.34303
 C1996 C 0.93565 0.74469 0.34099
 C1997 C 0.91582 0.74516 0.32771
 N1998 N 0.90170 0.76203 0.32970
 N1999 N 0.88345 0.76237 0.31816
 C2000 C 0.87870 0.74591 0.30408
 N2001 N 0.89295 0.72919 0.30187
 N2002 N 0.91114 0.72879 0.31350
 C2003 C 0.85827 0.74575 0.29172
 C2004 C 0.84123 0.75972 0.29700
 H2005 H 0.93986 0.75918 0.35019
 H2006 H 0.85615 0.73356 0.27910
 H2007 H 0.94234 0.71095 0.33510
 H2008 H 0.84307 0.77105 0.31043
 C2009 C 0.07396 0.77366 0.36934
 C2010 C 0.08054 0.76342 0.35019
 C2011 C 0.10307 0.76367 0.34246
 N2012 N 0.10728 0.75834 0.32151
 N2013 N 0.12747 0.75872 0.31391
 C2014 C 0.14429 0.76427 0.32700
 N2015 N 0.14017 0.76929 0.34811
 N2016 N 0.11988 0.76909 0.35570
 C2017 C 0.16653 0.76496 0.31825
 C2018 C 0.16977 0.76684 0.29594
 H2019 H 0.06853 0.75619 0.33958
 H2020 H 0.18020 0.76438 0.32923
 H2021 H 0.08570 0.78283 0.37874
 H2022 H 0.15581 0.76905 0.28551
 C2023 C 0.55208 0.27035 0.84817
 C2024 C 0.56537 0.25196 0.84874
 C2025 C 0.58651 0.25170 0.83765
 N2026 N 0.60167 0.23662 0.84305
 N2027 N 0.62097 0.23649 0.83324
 C2028 C 0.62572 0.25137 0.81758
 N2029 N 0.61047 0.26629 0.81204
 N2030 N 0.59127 0.26652 0.82196
 C2031 C 0.64665 0.25129 0.80616
 C2032 C 0.66462 0.23975 0.81363
 H2033 H 0.56078 0.23801 0.85854
 H2034 H 0.64802 0.26104 0.79155
 H2035 H 0.55789 0.28500 0.84018
 H2036 H 0.66377 0.23110 0.82894
 C2037 C 0.56161 0.73778 0.64237
 C2038 C 0.57235 0.72608 0.65849
 C2039 C 0.59328 0.73263 0.66783
 N2040 N 0.60048 0.72215 0.68575
 N2041 N 0.61952 0.72726 0.69445
 C2042 C 0.63225 0.74299 0.68552
 N2043 N 0.62514 0.75344 0.66744
 N2044 N 0.60595 0.74839 0.65876
 C2045 C 0.65350 0.74825 0.69523
 C2046 C 0.65867 0.74032 0.71578
 H2047 H 0.56472 0.71169 0.66530
 H2048 H 0.66501 0.75813 0.68626
 H2049 H 0.56799 0.75341 0.63713
 H2050 H 0.64645 0.73136 0.72479
 C2051 C 0.06848 0.23507 0.13965
 C2052 C 0.08076 0.22331 0.15455
 C2053 C 0.10097 0.23210 0.16384
 N2054 N 0.10826 0.22439 0.18312
 N2055 N 0.12631 0.23236 0.19196
 C2056 C 0.13789 0.24826 0.18180
 N2057 N 0.13076 0.25580 0.16236
 N2058 N 0.11255 0.24799 0.15362
 C2059 C 0.15834 0.25646 0.19120
 C2060 C 0.16307 0.25336 0.21311
 H2061 H 0.07440 0.20815 0.16104
 H2062 H 0.17007 0.26424 0.18061
 H2063 H 0.07373 0.25133 0.13508
 H2064 H 0.15064 0.24662 0.22363
 C2065 C -0.09541 1.00239 0.80377
 C2066 C -0.08362 1.01719 0.81641
 C2067 C -0.07379 1.01109 0.83717
 N2068 N -0.05576 1.02169 0.84410
 N2069 N -0.04735 1.01734 0.86350
 C2070 C -0.05687 1.00251 0.87683
 N2071 N -0.07503 0.99203 0.86999
 N2072 N -0.08328 0.99614 0.85042
 C2073 C -0.04831 0.99868 0.89870
 C2074 C -0.02641 1.00159 0.90319
 H2075 H -0.08027 1.03349 0.81049
 H2076 H -0.05928 0.99328 0.91138
 H2077 H -0.09476 0.98524 0.80814
 H2078 H -0.01510 1.00445 0.88999
 C2079 C 0.41366 0.52358 0.31058
 C2080 C 0.41318 0.53370 0.33084
 C2081 C 0.42696 0.52661 0.34892
 N2082 N 0.42276 0.53420 0.36917
 N2083 N 0.43458 0.52761 0.38595
 C2084 C 0.45112 0.51324 0.38317
 N2085 N 0.45557 0.50584 0.36283
 N2086 N 0.44363 0.51235 0.34600
 C2087 C 0.46389 0.50588 0.40198
 C2088 C 0.45614 0.50972 0.42290
 H2089 H 0.40128 0.54625 0.33421
 H2090 H 0.47923 0.49765 0.39944
 H2091 H 0.42440 0.50978 0.30808
 H2092 H 0.44031 0.51714 0.42488
 C2093 C 0.60276 -0.00517 0.30936
 C2094 C 0.60290 -0.01661 0.32899
 C2095 C 0.58935 -0.01021 0.34760
 N2096 N 0.59278 -0.01963 0.36719
 N2097 N 0.58025 -0.01469 0.38412
 C2098 C 0.56371 -0.00021 0.38209
 N2099 N 0.56022 0.00919 0.36247
 N2100 N 0.57285 0.00432 0.34552
 C2101 C 0.54931 0.00459 0.40058
 C2102 C 0.55412 -0.00294 0.42135
 H2103 H 0.61364 -0.03030 0.33145
 H2104 H 0.53458 0.01375 0.39772
 H2105 H 0.59363 0.00995 0.30880
 H2106 H 0.56933 -0.01128 0.42417
 C2107 C 0.09902 0.49443 0.80622
 C2108 C 0.10236 0.48574 0.82685
 C2109 C 0.08898 0.49178 0.84572
 N2110 N 0.09443 0.48426 0.86566
 N2111 N 0.08215 0.48881 0.88289
 C2112 C 0.06388 0.50100 0.88084
 N2113 N 0.05842 0.50857 0.86088
 N2114 N 0.07077 0.50407 0.84362
 C2115 C 0.04971 0.50512 0.89972
 C2116 C 0.05553 0.49803 0.92039
 H2117 H 0.11539 0.47421 0.82944
 H2118 H 0.03420 0.51298 0.89717
 H2119 H 0.08731 0.50743 0.80417
 H2120 H 0.07126 0.49053 0.92274
 C2121 C 0.11708 0.51540 0.67282
 C2122 C 0.10016 0.50082 0.66860
 C2123 C 0.09143 0.49761 0.64659
 N2124 N 0.07260 0.48646 0.64375
 N2125 N 0.06405 0.48417 0.62401
 C2126 C 0.07410 0.49286 0.60636
 N2127 N 0.09305 0.50377 0.60917
 N2128 N 0.10155 0.50614 0.62891
 C2129 C 0.06448 0.49147 0.58456
 C2130 C 0.04352 0.48368 0.58096
 H2131 H 0.09202 0.49264 0.68189
 H2132 H 0.07372 0.49819 0.57115
 H2133 H 0.12383 0.52478 0.65950
 H2134 H 0.03404 0.47745 0.59443
 C2135 C 0.61474 1.01290 0.17546
 C2136 C 0.59811 1.02315 0.16423
 C2137 C 0.58977 1.01443 0.14369
 N2138 N 0.56881 1.01797 0.13821
 N2139 N 0.56097 1.01026 0.11958
 C2140 C 0.57387 0.99892 0.10566
 N2141 N 0.59493 0.99559 0.11101
 N2142 N 0.60270 1.00304 0.12982
 C2143 C 0.56553 0.99172 0.08452
 C2144 C 0.54345 0.98821 0.08147
 H2145 H 0.58976 1.03685 0.17164
 H2146 H 0.57670 0.99030 0.07099
 H2147 H 0.62117 0.99753 0.16951
 H2148 H 0.53277 0.98771 0.09547
 C2149 C 0.39886 0.48762 0.18897
 C2150 C 0.39277 0.48043 0.16837
 C2151 C 0.40694 0.48418 0.14944
 N2152 N 0.39933 0.48115 0.12898
 N2153 N 0.41196 0.48512 0.11182
 C2154 C 0.43267 0.49222 0.11452
 N2155 N 0.44031 0.49506 0.13496
 N2156 N 0.42768 0.49117 0.15208
 C2157 C 0.44701 0.49652 0.09591
 C2158 C 0.43977 0.49577 0.07450
 H2159 H 0.37693 0.47323 0.16583
 H2160 H 0.46386 0.50022 0.09924
 H2161 H 0.41408 0.49632 0.19071
 H2162 H 0.42283 0.49250 0.07117
 C2163 C -0.11704 -0.02578 0.67323
 C2164 C -0.10616 -0.00710 0.66582
 C2165 C -0.09823 -0.00484 0.64335
 N2166 N -0.08451 0.01175 0.63839
 N2167 N -0.07645 0.01378 0.61841
 C2168 C -0.08192 -0.00065 0.60254
 N2169 N -0.09591 -0.01709 0.60739
 N2170 N -0.10389 -0.01919 0.62744
 C2171 C -0.07216 0.00087 0.58071
 C2172 C -0.05373 0.01356 0.57703
 H2173 H -0.10196 0.00606 0.67670
 H2174 H -0.07844 -0.00946 0.56786
 H2175 H -0.12000 -0.03868 0.66149
 H2176 H -0.04668 0.02265 0.59040
 C2177 C -0.17021 0.89283 1.01656
 C2178 C -0.16395 0.90479 0.99819
 C2179 C -0.14150 0.91273 0.99550
 N2180 N -0.13697 0.92868 0.98087
 N2181 N -0.11688 0.93654 0.97890
 C2182 C -0.10056 0.92862 0.99139
 N2183 N -0.10504 0.91247 1.00577
 N2184 N -0.12512 0.90471 1.00784
 C2185 C -0.07843 0.93762 0.99014
 C2186 C -0.07363 0.95706 0.97933
 H2187 H -0.17566 0.90989 0.98623
 H2188 H -0.06587 0.92949 0.99935
 H2189 H -0.15783 0.88979 1.02866
 H2190 H -0.08640 0.96573 0.97094
 C2191 C 0.32419 0.38505 0.51666
 C2192 C 0.32879 0.40254 0.50288
 C2193 C 0.35087 0.41137 0.50069
 N2194 N 0.35412 0.43110 0.49118
 N2195 N 0.37396 0.43969 0.48998
 C2196 C 0.39127 0.42877 0.49814
 N2197 N 0.38804 0.40892 0.50737
 N2198 N 0.36821 0.40040 0.50867
 C2199 C 0.41317 0.43822 0.49786
 C2200 C 0.41729 0.45986 0.49208
 H2201 H 0.31573 0.41106 0.49480
 H2202 H 0.42630 0.42808 0.50369
 H2203 H 0.33721 0.37797 0.52609
 H2204 H 0.40412 0.47023 0.48673
 C2205 C 0.30916 0.59645 -0.01074
 C2206 C 0.32972 0.60130 -0.01895
 C2207 C 0.34913 0.58906 -0.01240
 N2208 N 0.36906 0.59594 -0.01884
 N2209 N 0.38674 0.58463 -0.01361
 C2210 C 0.38510 0.56597 -0.00182
 N2211 N 0.36518 0.55910 0.00462
 N2212 N 0.34752 0.57046 -0.00052
 C2213 C 0.40423 0.55254 0.00302
 C2214 C 0.42533 0.55932 -0.00166
 H2215 H 0.33178 0.61468 -0.03025
 H2216 H 0.40148 0.53649 0.00990
 H2217 H 0.30757 0.58440 0.00203
 H2218 H 0.42823 0.57572 -0.00761
 C2219 C -0.19521 0.10237 0.48784
 C2220 C -0.17639 0.10187 0.47516
 C2221 C -0.15686 0.09009 0.48204
 N2222 N -0.13769 0.09423 0.47206
 N2223 N -0.11987 0.08345 0.47777
 C2224 C -0.12060 0.06802 0.49357
 N2225 N -0.13982 0.06375 0.50346
 N2226 N -0.15763 0.07466 0.49786
 C2227 C -0.10114 0.05551 0.49932
 C2228 C -0.08065 0.06203 0.49231
 H2229 H -0.17512 0.11121 0.46035
 H2230 H -0.10301 0.04079 0.50890
 H2231 H -0.19451 0.09488 0.50378
 H2232 H -0.07881 0.07740 0.48379
 C2233 C 0.67384 0.11746 0.52059
 C2234 C 0.66871 0.09910 0.50814
 C2235 C 0.64662 0.09021 0.50695
 N2236 N 0.64319 0.07068 0.49709
 N2237 N 0.62336 0.06213 0.49618
 C2238 C 0.60620 0.07283 0.50503
 N2239 N 0.60958 0.09247 0.51474
 N2240 N 0.62944 0.10100 0.51573
 C2241 C 0.58429 0.06335 0.50438
 C2242 C 0.58071 0.04208 0.49710
 H2243 H 0.68141 0.09013 0.49989
 H2244 H 0.57085 0.07311 0.51026
 H2245 H 0.66124 0.12517 0.53020
 H2246 H 0.59432 0.03218 0.49187
 C2247 C 0.17898 0.61001 1.02067
 C2248 C 0.17274 0.59330 1.00637
 C2249 C 0.15087 0.58354 1.00691
 N2250 N 0.14676 0.56506 0.99539
 N2251 N 0.12712 0.55597 0.99569
 C2252 C 0.11078 0.56508 1.00746
 N2253 N 0.11485 0.58364 1.01887
 N2254 N 0.13453 0.59268 1.01865
 C2255 C 0.08891 0.55534 1.00777
 C2256 C 0.08463 0.53482 0.99878
 H2257 H 0.18415 0.58622 0.99504
 H2258 H 0.07594 0.56445 1.01547
 H2259 H 0.16716 0.61519 1.03269
 H2260 H 0.09782 0.52541 0.99185
 C2261 C 0.19149 0.40058 0.49075
 C2262 C 0.17152 0.39784 0.48054
 C2263 C 0.15228 0.41067 0.48666
 N2264 N 0.13277 0.40566 0.47785
 N2265 N 0.11525 0.41735 0.48282
 C2266 C 0.11656 0.43456 0.49673
 N2267 N 0.13609 0.43962 0.50553
 N2268 N 0.15362 0.42787 0.50062
 C2269 C 0.09736 0.44798 0.50173
 C2270 C 0.07687 0.44221 0.49412
 H2271 H 0.16967 0.38561 0.46795
 H2272 H 0.09947 0.46282 0.51113
 H2273 H 0.19258 0.41153 0.50457
 H2274 H 0.07489 0.42706 0.48519
 C2275 C 0.69584 0.90685 -0.00461
 C2276 C 0.67547 0.90188 -0.01314
 C2277 C 0.65579 0.91442 -0.00792
 N2278 N 0.63646 0.90767 -0.01595
 N2279 N 0.61850 0.91912 -0.01219
 C2280 C 0.61917 0.93782 -0.00028
 N2281 N 0.63852 0.94458 0.00781
 N2282 N 0.65651 0.93308 0.00408
 C2283 C 0.59943 0.95093 0.00330
 C2284 C 0.57930 0.94399 -0.00438
 H2285 H 0.67370 0.88816 -0.02412
 H2286 H 0.60086 0.96642 0.01173
 H2287 H 0.69722 0.91927 0.00788
 H2288 H 0.57800 0.92829 -0.01246
 C2289 C 0.01669 0.80505 0.89792
 C2290 C 0.02881 0.82438 0.89767
 C2291 C 0.02312 0.84342 0.91125
 N2292 N 0.03261 0.86297 0.90714
 N2293 N 0.02750 0.88053 0.91888
 C2294 C 0.01276 0.87925 0.93527
 N2295 N 0.00342 0.85963 0.93958
 N2296 N 0.00844 0.84204 0.92773
 C2297 C 0.00718 0.89882 0.94821
 C2298 C 0.01347 0.91951 0.94117
 H2299 H 0.04207 0.82660 0.88641
 H2300 H -0.00180 0.89695 0.96324
 H2301 H 0.00281 0.80450 0.90877
 H2302 H 0.02165 0.92099 0.92563
 C2303 C 0.51180 0.30806 0.40791
 C2304 C 0.51846 0.32951 0.40434
 C2305 C 0.51066 0.34791 0.41762
 N2306 N 0.51453 0.36864 0.41095
 N2307 N 0.50797 0.38557 0.42286
 C2308 C 0.49734 0.38246 0.44197
 N2309 N 0.49348 0.36170 0.44870
 N2310 N 0.49994 0.34472 0.43669
 C2311 C 0.49135 0.40122 0.45579
 C2312 C 0.49401 0.42254 0.44833
 H2313 H 0.52898 0.33317 0.39072
 H2314 H 0.48637 0.39827 0.47242
 H2315 H 0.49966 0.30479 0.42024
 H2316 H 0.49865 0.42515 0.43154
 C2317 C -0.03715 0.31439 0.60423
 C2318 C -0.01921 0.32156 0.59224
 C2319 C -0.01860 0.34347 0.58245
 N2320 N -0.00403 0.34802 0.56653
 N2321 N -0.00333 0.36779 0.55752
 C2322 C -0.01708 0.38378 0.56422
 N2323 N -0.03149 0.37930 0.58029
 N2324 N -0.03230 0.35949 0.58919
 C2325 C -0.01632 0.40577 0.55468
 C2326 C -0.00530 0.41008 0.53535
 H2327 H -0.00577 0.31081 0.58873
 H2328 H -0.02504 0.41878 0.56284
 H2329 H -0.05102 0.32523 0.60508
 H2330 H 0.00230 0.39679 0.52652
 C2331 C 0.48457 0.81737 0.11790
 C2332 C 0.49545 0.82201 0.09851
 C2333 C 0.49463 0.84374 0.08823
 N2334 N 0.50343 0.84675 0.06822
 N2335 N 0.50271 0.86626 0.05865
 C2336 C 0.49318 0.88353 0.06877
 N2337 N 0.48445 0.88054 0.08881
 N2338 N 0.48512 0.86102 0.09835
 C2339 C 0.49241 0.90530 0.05857
 C2340 C 0.49979 0.90912 0.03745
 H2341 H 0.50407 0.80917 0.09000
 H2342 H 0.48585 0.91869 0.06806
 H2343 H 0.47470 0.83002 0.12529
 H2344 H 0.50595 0.89564 0.02783
 C2345 C 0.52084 0.68874 0.10125
 C2346 C 0.52914 0.66780 0.10442
 C2347 C 0.52190 0.64907 0.09117
 N2348 N 0.52671 0.62837 0.09737
 N2349 N 0.52030 0.61133 0.08545
 C2350 C 0.50891 0.61437 0.06683
 N2351 N 0.50422 0.63507 0.06058
 N2352 N 0.51050 0.65209 0.07256
 C2353 C 0.50249 0.59581 0.05297
 C2354 C 0.50425 0.57416 0.05979
 H2355 H 0.54044 0.66483 0.11752
 H2356 H 0.49666 0.59932 0.03676
 H2357 H 0.50808 0.69099 0.08940
 H2358 H 0.50921 0.57072 0.07630
 C2359 C 0.00988 0.18553 0.61925
 C2360 C -0.00604 0.17668 0.60566
 C2361 C -0.00404 0.15475 0.59599
 N2362 N -0.01613 0.14957 0.57835
 N2363 N -0.01402 0.13018 0.56873
 C2364 C 0.00018 0.11516 0.57645
 N2365 N 0.01204 0.12018 0.59433
 N2366 N 0.01006 0.13968 0.60387
 C2367 C 0.00273 0.09385 0.56555
 C2368 C -0.00438 0.09082 0.54428
 H2369 H -0.01931 0.18653 0.59984
 H2370 H 0.01069 0.08067 0.57410
 H2371 H 0.02367 0.17526 0.62304
 H2372 H -0.01103 0.10459 0.53551
 C2373 C 0.48910 0.17594 0.37348
 C2374 C 0.50383 0.16931 0.38934
 C2375 C 0.50505 0.14666 0.39720
 N2376 N 0.51713 0.14214 0.41500
 N2377 N 0.51733 0.12212 0.42339
 C2378 C 0.50549 0.10580 0.41426
 N2379 N 0.49367 0.11020 0.39622
 N2380 N 0.49341 0.13029 0.38786
 C2381 C 0.50440 0.08402 0.42437
 C2382 C 0.51256 0.08040 0.44517
 H2383 H 0.51337 0.18134 0.39796
 H2384 H 0.49556 0.07118 0.41609
 H2385 H 0.47870 0.16377 0.36603
 H2386 H 0.52060 0.09362 0.45369
 C2387 C -0.02098 0.67730 0.88699
 C2388 C -0.00473 0.67121 0.90165
 C2389 C -0.00279 0.64874 0.90995
 N2390 N 0.01101 0.64439 0.92653
 N2391 N 0.01297 0.62415 0.93423
 C2392 C 0.00133 0.60747 0.92549
 N2393 N -0.01232 0.61179 0.90879
 N2394 N -0.01437 0.63204 0.90116
 C2395 C 0.00273 0.58512 0.93411
 C2396 C 0.01322 0.58019 0.95356
 H2397 H 0.00667 0.68299 0.90796
 H2398 H -0.00617 0.57244 0.92564
 H2399 H -0.03299 0.66506 0.88278
 H2400 H 0.02132 0.59302 0.96258
 C2401 C 0.26729 0.63662 0.93263
 C2402 C 0.25579 0.65558 0.92766
 C2403 C 0.25643 0.66535 0.90586
 N2404 N 0.24741 0.68525 0.90241
 N2405 N 0.24820 0.69445 0.88282
 C2406 C 0.25802 0.68404 0.86595
 N2407 N 0.26693 0.66410 0.86937
 N2408 N 0.26619 0.65493 0.88896
 C2409 C 0.25903 0.69381 0.84419
 C2410 C 0.25161 0.71487 0.83985
 H2411 H 0.24705 0.66423 0.94028
 H2412 H 0.26592 0.68405 0.83119
 H2413 H 0.27732 0.62915 0.92019
 H2414 H 0.24509 0.72483 0.85290
 C2415 C 0.75896 0.13890 0.43287
 C2416 C 0.74634 0.15709 0.42786
 C2417 C 0.74541 0.16588 0.40569
 N2418 N 0.73589 0.18549 0.40197
 N2419 N 0.73572 0.19400 0.38206
 C2420 C 0.74501 0.18314 0.36517
 N2421 N 0.75431 0.16344 0.36886
 N2422 N 0.75453 0.15497 0.38875
 C2423 C 0.74578 0.19250 0.34326
 C2424 C 0.73867 0.21360 0.33868
 H2425 H 0.73809 0.16604 0.44061
 H2426 H 0.75306 0.18269 0.33052
 H2427 H 0.76841 0.13123 0.42010
 H2428 H 0.73155 0.22355 0.35142
 C2429 C 0.23654 0.36313 0.43404
 C2430 C 0.25112 0.34703 0.42723
 C2431 C 0.25281 0.34002 0.40433
 N2432 N 0.26547 0.32270 0.39893
 N2433 N 0.26676 0.31582 0.37840
 C2434 C 0.25550 0.32606 0.36245
 N2435 N 0.24300 0.34350 0.36782
 N2436 N 0.24167 0.35035 0.38836
 C2437 C 0.25591 0.31803 0.33984
 C2438 C 0.26604 0.29848 0.33400
 H2439 H 0.26098 0.33852 0.43899
 H2440 H 0.24668 0.32694 0.32781
 H2441 H 0.22588 0.37032 0.42206
 H2442 H 0.27469 0.28927 0.34623
 C2443 C 0.73747 0.86600 0.93882
 C2444 C 0.74911 0.84722 0.93336
 C2445 C 0.74761 0.83723 0.91159
 N2446 N 0.75645 0.81728 0.90780
 N2447 N 0.75467 0.80781 0.88835
 C2448 C 0.74400 0.81797 0.87195
 N2449 N 0.73531 0.83799 0.87569
 N2450 N 0.73704 0.84742 0.89514
 C2451 C 0.74169 0.80772 0.85040
 C2452 C 0.74860 0.78645 0.84611
 H2453 H 0.75842 0.83878 0.94562
 H2454 H 0.73410 0.81716 0.83765
 H2455 H 0.72703 0.87325 0.92669
 H2456 H 0.75586 0.77691 0.85899
 C2457 C 0.78051 0.86161 0.07055
 C2458 C 0.76430 0.84681 0.07650
 C2459 C 0.76240 0.83870 0.09897
 N2460 N 0.74927 0.82149 0.10362
 N2461 N 0.74784 0.81381 0.12385
 C2462 C 0.75941 0.82316 0.14018
 N2463 N 0.77235 0.84048 0.13555
 N2464 N 0.77385 0.84808 0.11535
 C2465 C 0.75859 0.81479 0.16256
 C2466 C 0.74829 0.79529 0.16825
 H2467 H 0.75345 0.84020 0.06435
 H2468 H 0.76740 0.82389 0.17482
 H2469 H 0.79224 0.86656 0.08267
 H2470 H 0.73997 0.78580 0.15595
 C2471 C 0.27178 0.35513 0.56985
 C2472 C 0.25441 0.34181 0.57595
 C2473 C 0.25183 0.33404 0.59849
 N2474 N 0.23679 0.31857 0.60328
 N2475 N 0.23477 0.31098 0.62348
 C2476 C 0.24766 0.31868 0.63967
 N2477 N 0.26253 0.33431 0.63491
 N2478 N 0.26459 0.34183 0.61472
 C2479 C 0.24634 0.30991 0.66191
 C2480 C 0.23357 0.29184 0.66717
 H2481 H 0.24305 0.33598 0.56389
 H2482 H 0.25674 0.31710 0.67416
 H2483 H 0.28369 0.35942 0.58206
 H2484 H 0.22360 0.28431 0.65477
 C2485 C 0.73018 0.15507 0.56541
 C2486 C 0.72141 0.14993 0.58563
 C2487 C 0.72863 0.16077 0.60563
 N2488 N 0.72210 0.15295 0.62517
 N2489 N 0.72826 0.16274 0.64347
 C2490 C 0.74114 0.18076 0.64292
 N2491 N 0.74763 0.18863 0.62338
 N2492 N 0.74155 0.17877 0.60505
 C2493 C 0.74709 0.19228 0.66301
 C2494 C 0.74190 0.18374 0.68332
 H2495 H 0.70952 0.13697 0.58703
 H2496 H 0.75478 0.20815 0.66175
 H2497 H 0.74348 0.16662 0.56446
 H2498 H 0.73478 0.16758 0.68443
 C2499 C 0.23025 0.65939 0.05831
 C2500 C 0.22210 0.65670 0.07926
 C2501 C 0.22927 0.67044 0.09753
 N2502 N 0.22402 0.66463 0.11811
 N2503 N 0.23052 0.67670 0.13490
 C2504 C 0.24248 0.69509 0.13177
 N2505 N 0.24762 0.70101 0.11115
 N2506 N 0.24120 0.68885 0.09434
 C2507 C 0.24914 0.70878 0.15031
 C2508 C 0.24591 0.70171 0.17157
 H2509 H 0.21120 0.64328 0.08275
 H2510 H 0.25589 0.72483 0.14722
 H2511 H 0.24260 0.67168 0.05546
 H2512 H 0.23958 0.68542 0.17436
 C2513 C 0.14766 0.57009 0.72394
 C2514 C 0.16134 0.57599 0.74104
 C2515 C 0.16917 0.59858 0.74389
 N2516 N 0.18503 0.60302 0.75851
 N2517 N 0.19250 0.62333 0.76097
 C2518 C 0.18430 0.63998 0.74898
 N2519 N 0.16830 0.63556 0.73452
 N2520 N 0.16090 0.61526 0.73200
 C2521 C 0.19279 0.66240 0.75085
 C2522 C 0.21144 0.66746 0.76265
 H2523 H 0.16727 0.56369 0.75212
 H2524 H 0.18490 0.67504 0.74147
 H2525 H 0.14337 0.58238 0.71206
 H2526 H 0.21981 0.65467 0.77139
 C2527 C 0.63832 0.07312 0.22462
 C2528 C 0.65275 0.07989 0.24070
 C2529 C 0.66095 0.10241 0.24213
 N2530 N 0.67708 0.10717 0.25629
 N2531 N 0.68534 0.12725 0.25733
 C2532 C 0.67774 0.14336 0.24428
 N2533 N 0.66142 0.13868 0.23027
 N2534 N 0.65319 0.11855 0.22918
 C2535 C 0.68736 0.16538 0.24478
 C2536 C 0.70614 0.16972 0.25659
 H2537 H 0.65956 0.06808 0.25181
 H2538 H 0.68013 0.17807 0.23494
 H2539 H 0.63293 0.08485 0.21264
 H2540 H 0.71363 0.15672 0.26583
 C2541 C 0.86731 0.05865 0.76055
 C2542 C 0.84776 0.06385 0.75052
 C2543 C 0.83824 0.08579 0.75205
 N2544 N 0.81760 0.08910 0.74529
 N2545 N 0.80831 0.10860 0.74755
 C2546 C 0.81932 0.12554 0.75663
 N2547 N 0.84005 0.12231 0.76317
 N2548 N 0.84933 0.10277 0.76097
 C2549 C 0.80903 0.14700 0.75964
 C2550 C 0.78711 0.15018 0.75534
 H2551 H 0.83813 0.05112 0.74300
 H2552 H 0.81883 0.16041 0.76563
 H2553 H 0.87595 0.07130 0.76933
 H2554 H 0.77735 0.13659 0.74968
 C2555 C 0.36654 0.57782 0.27215
 C2556 C 0.34733 0.58269 0.26124
 C2557 C 0.33873 0.60503 0.25966
 N2558 N 0.31918 0.60840 0.25022
 N2559 N 0.31102 0.62847 0.24869
 C2560 C 0.32215 0.64597 0.25649
 N2561 N 0.34177 0.64263 0.26583
 N2562 N 0.34992 0.62253 0.26740
 C2563 C 0.31308 0.66818 0.25523
 C2564 C 0.29219 0.67196 0.24752
 H2565 H 0.33776 0.56970 0.25413
 H2566 H 0.32278 0.68170 0.26116
 H2567 H 0.37502 0.59083 0.28056
 H2568 H 0.28240 0.65831 0.24208
 C2569 C 0.34285 0.44985 0.23595
 C2570 C 0.34678 0.42857 0.22884
 C2571 C 0.33328 0.40989 0.23552
 N2572 N 0.33992 0.38932 0.23076
 N2573 N 0.32812 0.37213 0.23674
 C2574 C 0.30916 0.37479 0.24773
 N2575 N 0.30244 0.39539 0.25244
 N2576 N 0.31432 0.41263 0.24652
 C2577 C 0.29575 0.35573 0.25370
 C2578 C 0.30320 0.33454 0.25002
 H2579 H 0.36103 0.42514 0.21911
 H2580 H 0.27958 0.35838 0.26006
 H2581 H 0.32958 0.45278 0.24715
 H2582 H 0.31950 0.33223 0.24382
 C2583 C 0.85202 0.92348 0.72662
 C2584 C 0.83779 0.91934 0.74382
 C2585 C 0.82917 0.89729 0.74797
 N2586 N 0.81248 0.89440 0.76211
 N2587 N 0.80435 0.87452 0.76568
 C2588 C 0.81275 0.85680 0.75534
 N2589 N 0.82957 0.85969 0.74140
 N2590 N 0.83761 0.87954 0.73775
 C2591 C 0.80368 0.83479 0.75830
 C2592 C 0.78422 0.83075 0.76921
 H2593 H 0.83207 0.93262 0.75394
 H2594 H 0.81194 0.82145 0.75016
 H2595 H 0.85599 0.91029 0.71552
 H2596 H 0.77552 0.84410 0.77683
 C2597 C 0.64359 0.93924 0.26739
 C2598 C 0.66030 0.93338 0.25322
 C2599 C 0.66896 0.91100 0.25257
 N2600 N 0.68684 0.90645 0.24051
 N2601 N 0.69510 0.88633 0.24018
 C2602 C 0.68570 0.87003 0.25184
 N2603 N 0.66772 0.87455 0.26374
 N2604 N 0.65951 0.89466 0.26411
 C2605 C 0.69496 0.84793 0.25233
 C2606 C 0.71465 0.84287 0.24239
 H2607 H 0.66793 0.94552 0.24298
 H2608 H 0.68650 0.83559 0.26169
 H2609 H 0.63737 0.92705 0.27854
 H2610 H 0.72330 0.85531 0.23334
 C2611 C 0.13877 0.43620 0.76543
 C2612 C 0.15617 0.42929 0.75259
 C2613 C 0.16390 0.40651 0.75286
 N2614 N 0.18223 0.40096 0.74192
 N2615 N 0.18959 0.38049 0.74231
 C2616 C 0.17886 0.36478 0.75363
 N2617 N 0.16047 0.37030 0.76445
 N2618 N 0.15314 0.39077 0.76410
 C2619 C 0.18687 0.34212 0.75448
 C2620 C 0.20650 0.33586 0.74506
 H2621 H 0.16505 0.44094 0.74280
 H2622 H 0.17721 0.33017 0.76316
 H2623 H 0.13112 0.42447 0.77616
 H2624 H 0.21629 0.34791 0.73669
 C2625 C 0.05915 0.76374 0.84136
 C2626 C 0.07975 0.77215 0.84522
 C2627 C 0.09828 0.76689 0.83108
 N2628 N 0.11852 0.77259 0.83740
 N2629 N 0.13560 0.76742 0.82520
 C2630 C 0.13316 0.75636 0.80618
 N2631 N 0.11287 0.75082 0.79971
 N2632 N 0.09574 0.75594 0.81198
 C2633 C 0.15222 0.75073 0.79278
 C2634 C 0.17296 0.75446 0.80080
 H2635 H 0.08285 0.78154 0.85981
 H2636 H 0.14997 0.74421 0.77657
 H2637 H 0.05680 0.75307 0.82748
 H2638 H 0.17472 0.76074 0.81718
 C2639 C 0.56842 0.27163 0.36211
 C2640 C 0.57425 0.26053 0.34312
 C2641 C 0.59648 0.26109 0.33427
 N2642 N 0.60089 0.25124 0.31498
 N2643 N 0.62089 0.25155 0.30674
 C2644 C 0.63727 0.26171 0.31750
 N2645 N 0.63287 0.27152 0.33681
 N2646 N 0.61286 0.27124 0.34504
 C2647 C 0.65952 0.26206 0.30871
 C2648 C 0.66478 0.25294 0.28857
 H2649 H 0.56215 0.25167 0.33395
 H2650 H 0.67207 0.26968 0.31842
 H2651 H 0.58049 0.28164 0.37016
 H2652 H 0.65215 0.24557 0.27879
 C2653 C 0.57591 0.73138 0.14382
 C2654 C 0.58149 0.74493 0.16126
 C2655 C 0.60378 0.74641 0.16978
 N2656 N 0.60788 0.75886 0.18759
 N2657 N 0.62787 0.76027 0.19567
 C2658 C 0.64455 0.74931 0.18620
 N2659 N 0.64047 0.73693 0.16833
 N2660 N 0.62047 0.73549 0.16027
 C2661 C 0.66670 0.75035 0.19514
 C2662 C 0.67158 0.76173 0.21421
 H2663 H 0.56914 0.75431 0.16957
 H2664 H 0.67935 0.74136 0.18679
 H2665 H 0.58833 0.72107 0.13671
 H2666 H 0.65885 0.77046 0.22271
 C2667 C 0.05253 0.24616 0.64950
 C2668 C 0.06371 0.23558 0.66602
 C2669 C 0.08523 0.24276 0.67331
 N2670 N 0.09183 0.23827 0.69381
 N2671 N 0.11173 0.24361 0.70031
 C2672 C 0.12588 0.25337 0.68643
 N2673 N 0.11934 0.25772 0.66585
 N2674 N 0.09931 0.25267 0.65945
 C2675 C 0.14841 0.25754 0.69304
 C2676 C 0.15385 0.26044 0.71480
 H2677 H 0.05621 0.22185 0.67422
 H2678 H 0.16097 0.25747 0.68070
 H2679 H 0.05864 0.26149 0.64317
 H2680 H 0.14105 0.26259 0.72671
 C2681 C 0.91561 0.26183 0.64090
 C2682 C 0.91144 0.24667 0.65731
 C2683 C 0.88943 0.24313 0.66600
 N2684 N 0.88648 0.23042 0.68381
 N2685 N 0.86679 0.22778 0.69237
 C2686 C 0.84927 0.23768 0.68340
 N2687 N 0.85217 0.25018 0.66544
 N2688 N 0.87187 0.25287 0.65691
 C2689 C 0.82759 0.23592 0.69336
 C2690 C 0.82436 0.22587 0.71342
 H2691 H 0.92466 0.23807 0.66499
 H2692 H 0.81418 0.24405 0.68544
 H2693 H 0.90215 0.27118 0.63452
 H2694 H 0.83794 0.21824 0.72154
 C2695 C 0.44585 0.76208 0.16360
 C2696 C 0.42483 0.76876 0.15870
 C2697 C 0.40577 0.76160 0.17124
 N2698 N 0.38565 0.76514 0.16318
 N2699 N 0.36813 0.75924 0.17440
 C2700 C 0.37000 0.74963 0.19418
 N2701 N 0.39014 0.74612 0.20230
 N2702 N 0.40772 0.75190 0.19099
 C2703 C 0.35055 0.74437 0.20718
 C2704 C 0.32988 0.74607 0.19824
 H2705 H 0.42206 0.77885 0.14454
 H2706 H 0.35246 0.74057 0.22425
 H2707 H 0.44831 0.75027 0.17645
 H2708 H 0.32833 0.74937 0.18102
 C2709 C 0.43606 0.23365 0.35272
 C2710 C 0.42528 0.22328 0.33574
 C2711 C 0.40370 0.23037 0.32858
 N2712 N 0.39724 0.22641 0.30790
 N2713 N 0.37769 0.23267 0.30121
 C2714 C 0.36380 0.24290 0.31504
 N2715 N 0.37016 0.24662 0.33581
 N2716 N 0.38983 0.24061 0.34242
 C2717 C 0.34187 0.24898 0.30798
 C2718 C 0.33713 0.25227 0.28612
 H2719 H 0.43344 0.21057 0.32656
 H2720 H 0.32926 0.25073 0.32014
 H2721 H 0.42896 0.24807 0.36008
 H2722 H 0.35021 0.25237 0.27433
 C2723 C 0.93748 0.72785 0.84019
 C2724 C 0.91663 0.72045 0.84468
 C2725 C 0.89780 0.72810 0.83226
 N2726 N 0.87759 0.72493 0.84029
 N2727 N 0.86036 0.73215 0.82954
 C2728 C 0.86264 0.74279 0.81031
 N2729 N 0.88287 0.74579 0.80213
 N2730 N 0.90016 0.73868 0.81298
 C2731 C 0.84344 0.75000 0.79810
 C2732 C 0.82303 0.74926 0.80774
 H2733 H 0.91374 0.71024 0.85874
 H2734 H 0.84517 0.75444 0.78116
 H2735 H 0.93982 0.73964 0.82728
 H2736 H 0.82177 0.74508 0.82481
   
