data_POSCAR
  _audit_creation_date              2014-09-24
  _audit_creation_method            'ToBaCCo'
  _symmetry_space_group_name_H-M    'P1'
  _symmetry_Int_Tables_number       1
  _symmetry_cell_setting            triclinic
  loop_
  _symmetry_equiv_pos_as_xyz
 x,y,z
_cell_length_a 57.0155
_cell_length_b 55.4143
_cell_length_c 57.7689
_cell_angle_alpha 90.849500
_cell_angle_beta 89.096700
_cell_angle_gamma 91.132800
loop_
  _atom_site_label
  _atom_site_type_symbol
  _atom_site_fract_x
  _atom_site_fract_y
  _atom_site_fract_z
N1 N 0.16261 0.23019 0.21354
 N2 N 0.16638 0.21231 0.22760
 C3 C 0.14908 0.21138 0.24368
 C4 C 0.13352 0.22966 0.23960
 C5 C 0.14274 0.24125 0.22024
 H6 H 0.14771 0.19802 0.25707
 H7 H 0.13552 0.25650 0.21155
 Cu8 Cu 0.19308 0.19144 0.22320
 Cu9 Cu 0.18354 0.23722 0.18727
 Cu10 Cu 0.23133 0.19983 0.17924
 N11 N 0.21984 0.17067 0.21864
 N12 N 0.23475 0.17391 0.20136
 C13 C 0.25121 0.15683 0.20195
 C14 C 0.24635 0.14199 0.22065
 C15 C 0.22628 0.15144 0.23081
 H16 H 0.26542 0.15519 0.18946
 H17 H 0.21695 0.14481 0.24589
 N18 N 0.22486 0.22702 0.15877
 N19 N 0.20676 0.24128 0.16177
 C20 C 0.20718 0.25783 0.14489
 C21 C 0.22648 0.25385 0.13051
 C22 C 0.23722 0.23412 0.13995
 H23 H 0.19433 0.27174 0.14320
 H24 H 0.25276 0.22532 0.13344
 H25 H 0.19523 0.20243 0.18249
 H26 H 0.21329 0.22302 0.20122
 N27 N 0.66771 0.72829 0.72772
 N28 N 0.67605 0.71320 0.74268
 C29 C 0.66062 0.71062 0.76037
 C30 C 0.64144 0.72495 0.75634
 C31 C 0.64668 0.73590 0.73538
 H32 H 0.66318 0.69895 0.77490
 H33 H 0.63593 0.74823 0.72612
 Cu34 Cu 0.70588 0.69778 0.73718
 Cu35 Cu 0.68465 0.73653 0.69934
 Cu36 Cu 0.73336 0.70250 0.68525
 N37 N 0.72974 0.67535 0.72724
 N38 N 0.74053 0.67692 0.70703
 C39 C 0.75557 0.65849 0.70474
 C40 C 0.75393 0.64457 0.72457
 C41 C 0.73736 0.65601 0.73841
 H42 H 0.76645 0.65517 0.68958
 H43 H 0.73107 0.65066 0.75534
 N44 N 0.72271 0.72940 0.66593
 N45 N 0.70412 0.74219 0.67148
 C46 C 0.70119 0.75907 0.65537
 C47 C 0.71876 0.75702 0.63870
 C48 C 0.73211 0.73791 0.64600
 H49 H 0.68711 0.77182 0.65575
 H50 H 0.74756 0.73077 0.63752
 H51 H 0.69896 0.70229 0.69622
 H52 H 0.71857 0.72681 0.70811
 N53 N 0.32353 0.76979 0.73625
 N54 N 0.31885 0.79028 0.74693
 C55 C 0.33532 0.79485 0.76296
 C56 C 0.35121 0.77617 0.76233
 C57 C 0.34300 0.76055 0.74517
 H58 H 0.33590 0.81079 0.77395
 H59 H 0.35059 0.74374 0.73941
 Cu60 Cu 0.29159 0.80886 0.73875
 Cu61 Cu 0.30407 0.75668 0.71144
 Cu62 Cu 0.26861 0.79888 0.68652
 N63 N 0.26407 0.82613 0.72889
 N64 N 0.25499 0.82176 0.70847
 C65 C 0.23693 0.83651 0.70535
 C66 C 0.23442 0.85123 0.72488
 C67 C 0.25209 0.84397 0.73950
 H68 H 0.22705 0.83691 0.68955
 H69 H 0.25623 0.85124 0.75643
 N70 N 0.27704 0.76838 0.67107
 N71 N 0.28990 0.75192 0.68077
 C72 C 0.29230 0.73313 0.66592
 C73 C 0.28024 0.73795 0.64587
 C74 C 0.27079 0.76051 0.64988
 H75 H 0.30233 0.71728 0.66942
 H76 H 0.26032 0.77070 0.63820
 H77 H 0.30115 0.79107 0.70093
 H78 H 0.27380 0.77765 0.71396
 N79 N 0.83748 0.27774 0.22429
 N80 N 0.83358 0.29794 0.23571
 C81 C 0.84860 0.30009 0.25336
 C82 C 0.86306 0.28019 0.25300
 C83 C 0.85534 0.26638 0.23417
 H84 H 0.84910 0.31536 0.26520
 H85 H 0.86205 0.24931 0.22802
 Cu86 Cu 0.80995 0.32011 0.22598
 Cu87 Cu 0.81901 0.26797 0.19744
 Cu88 Cu 0.77139 0.30348 0.18503
 N89 N 0.78118 0.33739 0.22185
 N90 N 0.76608 0.33114 0.20580
 C91 C 0.74810 0.34662 0.20669
 C92 C 0.75217 0.36341 0.22436
 C93 C 0.77339 0.35685 0.23353
 H94 H 0.73321 0.34567 0.19534
 H95 H 0.78277 0.36575 0.24745
 N96 N 0.78005 0.27470 0.16629
 N97 N 0.79815 0.26126 0.17109
 C98 C 0.79987 0.24349 0.15505
 C99 C 0.78201 0.24572 0.13925
 C100 C 0.76979 0.26578 0.14703
 H101 H 0.81336 0.23009 0.15480
 H102 H 0.75475 0.27359 0.13910
 H103 H 0.80735 0.30147 0.18758
 H104 H 0.78929 0.28518 0.20988
 N105 N 0.84104 0.72674 0.26728
 N106 N 0.83410 0.70948 0.25300
 C107 C 0.85002 0.70712 0.23574
 C108 C 0.86805 0.72387 0.23931
 C109 C 0.86165 0.73603 0.25955
 H110 H 0.84856 0.69400 0.22180
 H111 H 0.87135 0.75030 0.26831
 Cu112 Cu 0.80538 0.69111 0.25851
 Cu113 Cu 0.82300 0.73543 0.29498
 Cu114 Cu 0.77638 0.69724 0.30934
 N115 N 0.78262 0.66712 0.26896
 N116 N 0.77125 0.66947 0.28878
 C117 C 0.75665 0.65030 0.29156
 C118 C 0.75908 0.63504 0.27244
 C119 C 0.77577 0.64640 0.25848
 H120 H 0.74528 0.64764 0.30649
 H121 H 0.78236 0.64026 0.24181
 N122 N 0.78465 0.72641 0.32767
 N123 N 0.80243 0.74093 0.32220
 C124 C 0.80368 0.75901 0.33798
 C125 C 0.78582 0.75579 0.35426
 C126 C 0.77412 0.73488 0.34708
 H127 H 0.81683 0.77331 0.33771
 H128 H 0.75901 0.72640 0.35530
 H129 H 0.81122 0.70019 0.29922
 H130 H 0.79046 0.72139 0.28566
 N131 N 0.33943 0.21248 -0.21926
 N132 N 0.33259 0.19458 -0.23287
 C133 C 0.34776 0.19256 -0.25080
 C134 C 0.36533 0.21012 -0.24844
 C135 C 0.35930 0.22246 -0.22809
 H136 H 0.34597 0.17918 -0.26445
 H137 H 0.36860 0.23748 -0.22010
 Cu138 Cu 0.30480 0.17496 -0.22626
 Cu139 Cu 0.32214 0.22123 -0.19101
 Cu140 Cu 0.26877 0.19177 -0.18279
 N141 N 0.27325 0.16141 -0.22302
 N142 N 0.25913 0.16848 -0.20620
 C143 C 0.23910 0.15537 -0.20697
 C144 C 0.24067 0.13900 -0.22521
 C145 C 0.26265 0.14342 -0.23509
 H146 H 0.22504 0.15669 -0.19429
 H147 H 0.27067 0.13381 -0.24947
 N148 N 0.28128 0.21570 -0.16080
 N149 N 0.30162 0.22709 -0.16364
 C150 C 0.30512 0.24201 -0.14528
 C151 C 0.28608 0.23960 -0.13015
 C152 C 0.27138 0.22283 -0.14068
 H153 H 0.32044 0.25354 -0.14295
 H154 H 0.25452 0.21646 -0.13427
 H155 H 0.30523 0.18874 -0.18600
 H156 H 0.29110 0.21058 -0.20566
 N157 N 0.66375 0.27973 -0.21734
 N158 N 0.66781 0.29728 -0.23198
 C159 C 0.65164 0.29595 -0.24874
 C160 C 0.63648 0.27650 -0.24433
 C161 C 0.64495 0.26667 -0.22420
 H162 H 0.65079 0.30855 -0.26278
 H163 H 0.63789 0.25138 -0.21484
 Cu164 Cu 0.69329 0.32061 -0.22685
 Cu165 Cu 0.68245 0.27542 -0.18990
 Cu166 Cu 0.72824 0.31631 -0.18078
 N167 N 0.71927 0.34333 -0.22175
 N168 N 0.73277 0.34151 -0.20367
 C169 C 0.74900 0.35944 -0.20396
 C170 C 0.74559 0.37342 -0.22329
 C171 C 0.72650 0.36255 -0.23418
 H172 H 0.76215 0.36212 -0.19086
 H173 H 0.71839 0.36822 -0.24992
 N174 N 0.72076 0.28953 -0.15964
 N175 N 0.70331 0.27401 -0.16317
 C176 C 0.70252 0.25806 -0.14583
 C177 C 0.72036 0.26371 -0.13055
 C178 C 0.73156 0.28382 -0.13994
 H179 H 0.68970 0.24354 -0.14436
 H180 H 0.74653 0.29356 -0.13301
 H181 H 0.69272 0.31121 -0.18574
 H182 H 0.71282 0.29145 -0.20299
 N183 N 0.17241 0.77433 0.27952
 N184 N 0.17681 0.79424 0.26803
 C185 C 0.15997 0.79686 0.25215
 C186 C 0.14415 0.77756 0.25391
 C187 C 0.15279 0.76365 0.27143
 H188 H 0.15895 0.81197 0.24061
 H189 H 0.14529 0.74704 0.27807
 Cu190 Cu 0.20371 0.81496 0.27593
 Cu191 Cu 0.19144 0.76401 0.30502
 Cu192 Cu 0.23951 0.80004 0.31902
 N193 N 0.23135 0.83471 0.28359
 N194 N 0.24506 0.82869 0.30053
 C195 C 0.26236 0.84535 0.30275
 C196 C 0.25954 0.86302 0.28628
 C197 C 0.23957 0.85549 0.27437
 H198 H 0.27587 0.84451 0.31558
 H199 H 0.23136 0.86453 0.26027
 N200 N 0.23102 0.77032 0.33570
 N201 N 0.21272 0.75656 0.33030
 C202 C 0.21105 0.73816 0.34522
 C203 C 0.22916 0.74039 0.36086
 C204 C 0.24148 0.76101 0.35420
 H205 H 0.19723 0.72455 0.34512
 H206 H 0.25678 0.76889 0.36239
 H207 H 0.20363 0.79800 0.31467
 H208 H 0.22214 0.78061 0.29358
 N209 N 0.47946 0.40727 0.47060
 N210 N 0.46072 0.41106 0.48354
 C211 C 0.45958 0.39448 0.50037
 C212 C 0.47862 0.37944 0.49777
 C213 C 0.49086 0.38821 0.47868
 H214 H 0.44558 0.39304 0.51313
 H215 H 0.50675 0.38114 0.47100
 Cu216 Cu 0.43929 0.43666 0.47636
 Cu217 Cu 0.48703 0.42637 0.44348
 Cu218 Cu 0.44879 0.47183 0.42991
 N219 N 0.41813 0.46234 0.46885
 N220 N 0.42175 0.47601 0.45070
 C221 C 0.40437 0.49208 0.44965
 C222 C 0.38898 0.48828 0.46816
 C223 C 0.39840 0.46923 0.47993
 H224 H 0.40307 0.50545 0.43632
 H225 H 0.39153 0.46101 0.49551
 N226 N 0.47726 0.46459 0.41123
 N227 N 0.49182 0.44744 0.41672
 C228 C 0.50925 0.44654 0.40082
 C229 C 0.50563 0.46386 0.38432
 C230 C 0.48514 0.47504 0.39156
 H231 H 0.52347 0.43399 0.40121
 H232 H 0.47638 0.48943 0.38297
 H233 H 0.47010 0.45753 0.45432
 H234 H 0.45283 0.43570 0.43613
 N235 N -0.02766 -0.08163 0.97532
 N236 N -0.04664 -0.07696 0.98756
 C237 C -0.04650 -0.08965 1.00722
 C238 C -0.02634 -0.10322 1.00723
 C239 C -0.01479 -0.09761 0.98664
 H240 H -0.06060 -0.08983 1.01995
 H241 H 0.00141 -0.10500 0.97999
 Cu242 Cu -0.07063 -0.05656 0.97563
 Cu243 Cu -0.02251 -0.06844 0.94470
 Cu244 Cu -0.05634 -0.01878 0.93215
 N245 N -0.08911 -0.02874 0.96926
 N246 N -0.08367 -0.01359 0.95265
 C247 C -0.09979 0.00395 0.95271
 C248 C -0.11611 -0.00053 0.97041
 C249 C -0.10856 -0.02148 0.98043
 H250 H -0.09969 0.01871 0.94068
 H251 H -0.11651 -0.03099 0.99481
 N252 N -0.02805 -0.02802 0.91373
 N253 N -0.01562 -0.04706 0.91865
 C254 C 0.00190 -0.04934 0.90304
 C255 C 0.00062 -0.03099 0.88718
 C256 C -0.01867 -0.01774 0.89456
 H257 H 0.01451 -0.06361 0.90324
 H258 H -0.02562 -0.00204 0.88640
 H259 H -0.03735 -0.03690 0.95651
 H260 H -0.05530 -0.05511 0.93572
 N261 N 1.02071 0.58680 0.97946
 N262 N 1.04125 0.58402 0.98891
 C263 C 1.04299 0.59823 1.00783
 C264 C 1.02248 0.61095 1.01046
 C265 C 1.00868 0.60325 0.99204
 H266 H 1.05853 0.60002 1.01824
 H267 H 0.99144 0.60950 0.98782
 Cu268 Cu 1.06477 0.56388 0.97480
 Cu269 Cu 1.01224 0.56950 0.95090
 Cu270 Cu 1.05138 0.52611 0.93088
 N271 N 1.08414 0.53682 0.96692
 N272 N 1.07932 0.52191 0.94971
 C273 C 1.09626 0.50524 0.94820
 C274 C 1.11248 0.51010 0.96551
 C275 C 1.10397 0.53024 0.97702
 H276 H 1.09681 0.49087 0.93535
 H277 H 1.11146 0.53955 0.99179
 N278 N 1.02203 0.53358 0.91472
 N279 N 1.00721 0.54999 0.92241
 C280 C 0.98970 0.55175 0.90721
 C281 C 0.99358 0.53575 0.88893
 C282 C 1.01427 0.52450 0.89440
 H283 H 0.97541 0.56416 0.90915
 H284 H 1.02345 0.51122 0.88401
 H285 H 1.03263 0.54017 0.95864
 H286 H 1.04543 0.56222 0.93755
 N287 N 0.52149 0.07660 0.48468
 N288 N 0.53934 0.06940 0.49670
 C289 C 0.54268 0.08478 0.51469
 C290 C 0.52596 0.10262 0.51395
 C291 C 0.51285 0.09673 0.49458
 H292 H 0.55635 0.08317 0.52727
 H293 H 0.49831 0.10652 0.48786
 Cu294 Cu 0.55685 0.04094 0.48733
 Cu295 Cu 0.51100 0.05977 0.45682
 Cu296 Cu 0.54248 0.00993 0.43875
 N297 N 0.57481 0.01340 0.47635
 N298 N 0.56914 0.00136 0.45742
 C299 C 0.58467 -0.01630 0.45363
 C300 C 0.60109 -0.01534 0.47110
 C301 C 0.59417 0.00380 0.48520
 H302 H 0.58428 -0.02859 0.43893
 H303 H 0.60267 0.01041 0.50069
 N304 N 0.51495 0.02144 0.42219
 N305 N 0.50300 0.04044 0.42908
 C306 C 0.48564 0.04404 0.41405
 C307 C 0.48662 0.02647 0.39676
 C308 C 0.50548 0.01244 0.40258
 H309 H 0.47346 0.05868 0.41542
 H310 H 0.51202 -0.00306 0.39316
 H311 H 0.52334 0.02617 0.46507
 H312 H 0.54354 0.04616 0.44784
 N313 N -0.03092 0.08274 0.53073
 N314 N -0.04728 0.07649 0.51590
 C315 C -0.04774 0.09316 0.49913
 C316 C -0.03072 0.11081 0.50369
 C317 C -0.02048 0.10347 0.52396
 H318 H -0.05949 0.09238 0.48464
 H319 H -0.00647 0.11249 0.53326
 Cu320 Cu -0.06618 0.04702 0.52001
 Cu321 Cu -0.02396 0.06373 0.55778
 Cu322 Cu -0.05770 0.01204 0.56604
 N323 N -0.08566 0.01821 0.52569
 N324 N -0.08177 0.00462 0.54362
 C325 C -0.09740 -0.01378 0.54404
 C326 C -0.11211 -0.01186 0.52539
 C327 C -0.10416 0.00879 0.51408
 H328 H -0.09841 -0.02715 0.55745
 H329 H -0.11138 0.01646 0.49872
 N330 N -0.03262 0.02228 0.58703
 N331 N -0.01968 0.04201 0.58408
 C332 C -0.00443 0.04415 0.60164
 C333 C -0.00810 0.02487 0.61638
 C334 C -0.02606 0.01141 0.60646
 H335 H 0.00810 0.05887 0.60378
 H336 H -0.03378 -0.00518 0.61290
 H337 H -0.03533 0.03127 0.54404
 H338 H -0.05726 0.04912 0.56112
 N339 N 0.47459 0.58908 0.02880
 N340 N 0.45732 0.58377 0.01468
 C341 C 0.45751 0.59996 -0.00251
 C342 C 0.47592 0.61632 0.00097
 C343 C 0.48631 0.60873 0.02108
 H344 H 0.44513 0.59983 -0.01648
 H345 H 0.50116 0.61700 0.02972
 Cu346 Cu 0.43605 0.55638 0.02025
 Cu347 Cu 0.48064 0.57047 0.05637
 Cu348 Cu 0.44242 0.52283 0.06761
 N349 N 0.41417 0.52994 0.02768
 N350 N 0.41703 0.51708 0.04629
 C351 C 0.39991 0.50020 0.04775
 C352 C 0.38531 0.50233 0.02902
 C353 C 0.39494 0.52153 0.01659
 H354 H 0.39824 0.48745 0.06165
 H355 H 0.38848 0.52882 0.00072
 N356 N 0.46904 0.53116 0.08739
 N357 N 0.48369 0.54936 0.08336
 C358 C 0.49967 0.55046 0.10036
 C359 C 0.49473 0.53203 0.11583
 C360 C 0.47523 0.52020 0.10689
 H361 H 0.51364 0.56386 0.10154
 H362 H 0.46615 0.50467 0.11402
 H363 H 0.46592 0.53876 0.04425
 H364 H 0.44629 0.55953 0.06100
 N365 N 0.52440 -0.08606 0.02990
 N366 N 0.54354 -0.08168 0.01759
 C367 C 0.54587 -0.09938 0.00140
 C368 C 0.52715 -0.11568 0.00388
 C369 C 0.51396 -0.10643 0.02211
 H370 H 0.56018 -0.10046 -0.01104
 H371 H 0.49780 -0.11384 0.02924
 Cu372 Cu 0.56317 -0.05315 0.02447
 Cu373 Cu 0.51419 -0.06580 0.05561
 Cu374 Cu 0.54914 -0.01630 0.06947
 N375 N 0.58303 -0.02531 0.03301
 N376 N 0.57722 -0.01115 0.05054
 C377 C 0.59347 0.00657 0.05279
 C378 C 0.61062 0.00358 0.03579
 C379 C 0.60334 -0.01696 0.02352
 H380 H 0.59269 0.02063 0.06590
 H381 H 0.61213 -0.02522 0.00881
 N382 N 0.51999 -0.02453 0.08658
 N383 N 0.50661 -0.04336 0.08110
 C384 C 0.48841 -0.04470 0.09616
 C385 C 0.49036 -0.02583 0.11201
 C386 C 0.51064 -0.01339 0.10535
 H387 H 0.47513 -0.05886 0.09604
 H388 H 0.51818 0.00246 0.11369
 H389 H 0.53008 -0.03410 0.04429
 H390 H 0.54747 -0.05312 0.06397
 N391 N 1.03052 0.40800 0.52918
 N392 N 1.04821 0.41120 0.51463
 C393 C 1.04706 0.39406 0.49786
 C394 C 1.02758 0.37925 0.50210
 C395 C 1.01755 0.38878 0.52219
 H396 H 1.05958 0.39243 0.48373
 H397 H 1.00204 0.38222 0.53125
 Cu398 Cu 1.07116 0.43729 0.51931
 Cu399 Cu 1.02565 0.42870 0.55634
 Cu400 Cu 1.06615 0.47525 0.56495
 N401 N 1.09382 0.46356 0.52447
 N402 N 1.09162 0.47829 0.54236
 C403 C 1.10942 0.49454 0.54214
 C404 C 1.12376 0.48988 0.52306
 C405 C 1.11322 0.47001 0.51223
 H406 H 1.11171 0.50862 0.55507
 H407 H 1.11924 0.46082 0.49669
 N408 N 1.03923 0.46932 0.58596
 N409 N 1.02380 0.45159 0.58277
 C410 C 1.00776 0.45218 0.60014
 C411 C 1.01336 0.47121 0.61505
 C412 C 1.03344 0.48164 0.60541
 H413 H 0.99324 0.43949 0.60193
 H414 H 1.04313 0.49714 0.61201
 H415 H 1.04226 0.45884 0.54283
 H416 H 1.06046 0.43847 0.56035
 C417 C 0.34934 -0.01417 0.25554
 C418 C 0.36289 0.00682 0.25177
 C419 C 0.35200 0.02820 0.24563
 C420 C 0.32751 0.02884 0.24348
 C421 C 0.31413 0.00762 0.24717
 C422 C 0.32486 -0.01403 0.25302
 C423 C 0.38864 0.00604 0.25283
 C424 C 0.40190 0.00578 0.23223
 C425 C 0.42644 0.00428 0.23271
 C426 C 0.43757 0.00346 0.25419
 C427 C 0.42451 0.00394 0.27501
 C428 C 0.39992 0.00512 0.27420
 H429 H 0.35803 -0.03077 0.25960
 H430 H 0.36262 0.04434 0.24280
 H431 H 0.39303 0.00663 0.21581
 H432 H 0.38957 0.00520 0.29009
 H433 H 0.29526 0.00793 0.24531
 H434 H 0.45650 0.00233 0.25471
 C435 C 0.14266 -0.02658 0.75061
 C436 C 0.13234 -0.00390 0.74897
 C437 C 0.14651 0.01700 0.74818
 C438 C 0.17099 0.01560 0.74971
 C439 C 0.18113 -0.00714 0.75168
 C440 C 0.16716 -0.02827 0.75188
 C441 C 0.10669 -0.00161 0.74842
 C442 C 0.09332 -0.00376 0.76888
 C443 C 0.06907 0.00042 0.76893
 C444 C 0.05838 0.00635 0.74807
 C445 C 0.07159 0.00836 0.72741
 C446 C 0.09585 0.00458 0.72781
 H447 H 0.13171 -0.04279 0.75095
 H448 H 0.13833 0.03436 0.74649
 H449 H 0.10200 -0.00787 0.78487
 H450 H 0.10633 0.00615 0.71207
 H451 H 0.19999 -0.00850 0.75302
 H452 H 0.03968 0.00940 0.74790
 C453 C 0.64638 0.48015 0.24191
 C454 C 0.63552 0.50177 0.24831
 C455 C 0.64907 0.52164 0.25573
 C456 C 0.67356 0.52022 0.25676
 C457 C 0.68431 0.49841 0.25056
 C458 C 0.67087 0.47824 0.24320
 C459 C 0.60990 0.50382 0.24757
 C460 C 0.59646 0.50111 0.26789
 C461 C 0.57208 0.50421 0.26772
 C462 C 0.56138 0.51038 0.24695
 C463 C 0.57470 0.51309 0.22640
 C464 C 0.59905 0.50973 0.22689
 H465 H 0.63574 0.46475 0.23643
 H466 H 0.64048 0.53838 0.26022
 H467 H 0.60509 0.49686 0.28386
 H468 H 0.60961 0.51163 0.21124
 H469 H 0.70322 0.49713 0.25141
 H470 H 0.54260 0.51291 0.24677
 C471 C 0.85611 0.48672 0.75480
 C472 C 0.86943 0.50686 0.74776
 C473 C 0.85819 0.52772 0.74068
 C474 C 0.83353 0.52861 0.74078
 C475 C 0.82038 0.50805 0.74756
 C476 C 0.83152 0.48706 0.75465
 C477 C 0.89518 0.50558 0.74736
 C478 C 0.90699 0.50031 0.72653
 C479 C 0.93133 0.49683 0.72612
 C480 C 0.94380 0.49926 0.74687
 C481 C 0.93217 0.50470 0.76792
 C482 C 0.90773 0.50769 0.76798
 H483 H 0.86500 0.47056 0.75988
 H484 H 0.86868 0.54333 0.73560
 H485 H 0.89708 0.49858 0.71072
 H486 H 0.89832 0.51115 0.78410
 H487 H 0.80140 0.50841 0.74749
 H488 H 0.96257 0.49664 0.74669
 C489 C 0.25996 0.35382 -0.02581
 C490 C 0.25020 0.36775 -0.00787
 C491 C 0.24334 0.35690 0.01300
 C492 C 0.24655 0.33208 0.01615
 C493 C 0.25637 0.31827 -0.00206
 C494 C 0.26297 0.32896 -0.02318
 C495 C 0.24852 0.39396 -0.01068
 C496 C 0.22713 0.40441 -0.01596
 C497 C 0.22590 0.42945 -0.01918
 C498 C 0.24640 0.44385 -0.01688
 C499 C 0.26784 0.43353 -0.01129
 C500 C 0.26875 0.40845 -0.00856
 H501 H 0.26479 0.36240 -0.04198
 H502 H 0.23620 0.36794 0.02695
 H503 H 0.21150 0.39307 -0.01737
 H504 H 0.28524 0.40007 -0.00474
 H505 H 0.25873 0.29911 0.00018
 H506 H 0.24559 0.46318 -0.01911
 C507 C 0.73933 0.15444 -0.02152
 C508 C 0.74465 0.14197 -0.00146
 C509 C 0.74751 0.15461 0.01954
 C510 C 0.74499 0.17981 0.02058
 C511 C 0.73962 0.19212 0.00026
 C512 C 0.73674 0.17957 -0.02086
 C513 C 0.74675 0.11556 -0.00264
 C514 C 0.76825 0.10525 -0.00880
 C515 C 0.77010 0.08008 -0.01087
 C516 C 0.75005 0.06539 -0.00706
 C517 C 0.72834 0.07553 -0.00114
 C518 C 0.72690 0.10074 0.00117
 H519 H 0.73741 0.14450 -0.03770
 H520 H 0.75137 0.14477 0.03505
 H521 H 0.78354 0.11681 -0.01174
 H522 H 0.71024 0.10894 0.00537
 H523 H 0.73765 0.21152 0.00089
 H524 H 0.75139 0.04596 -0.00870
 C525 C 0.26026 0.65132 0.47884
 C526 C 0.26039 0.63818 0.49936
 C527 C 0.26028 0.65036 0.52080
 C528 C 0.26011 0.67570 0.52184
 C529 C 0.25976 0.68866 0.50113
 C530 C 0.25966 0.67663 0.47955
 C531 C 0.25975 0.61163 0.49828
 C532 C 0.27932 0.59901 0.49010
 C533 C 0.27873 0.57366 0.48887
 C534 C 0.25797 0.56116 0.49534
 C535 C 0.23818 0.57366 0.50341
 C536 C 0.23934 0.59897 0.50504
 H537 H 0.26033 0.64174 0.46234
 H538 H 0.26009 0.64008 0.53662
 H539 H 0.29517 0.60897 0.48533
 H540 H 0.22417 0.60894 0.51097
 H541 H 0.25930 0.70819 0.50183
 H542 H 0.25727 0.54163 0.49424
 C543 C 0.74766 0.84423 0.47441
 C544 C 0.74502 0.85719 0.49526
 C545 C 0.74378 0.84488 0.51630
 C546 C 0.74520 0.81957 0.51665
 C547 C 0.74762 0.80680 0.49556
 C548 C 0.74891 0.81895 0.47439
 C549 C 0.74464 0.88374 0.49506
 C550 C 0.72327 0.89581 0.49467
 C551 C 0.72299 0.92117 0.49476
 C552 C 0.74436 0.93424 0.49520
 C553 C 0.76589 0.92236 0.49543
 C554 C 0.76582 0.89698 0.49526
 H555 H 0.74861 0.85389 0.45823
 H556 H 0.74226 0.85510 0.53237
 H557 H 0.70693 0.88547 0.49458
 H558 H 0.78222 0.88742 0.49520
 H559 H 0.74864 0.78731 0.49562
 H560 H 0.74418 0.95378 0.49550
 C561 C -0.02434 0.24369 0.34422
 C562 C -0.00380 0.24217 0.35707
 C563 C 0.01788 0.23960 0.34564
 C564 C 0.01921 0.23815 0.32134
 C565 C -0.00154 0.23959 0.30864
 C566 C -0.02332 0.24256 0.31992
 C567 C -0.00491 0.24321 0.38255
 C568 C -0.01257 0.22294 0.39500
 C569 C -0.01268 0.22340 0.41933
 C570 C -0.00563 0.24472 0.43100
 C571 C 0.00187 0.26526 0.41871
 C572 C 0.00237 0.26423 0.39439
 H573 H -0.04106 0.24574 0.35314
 H574 H 0.03370 0.23879 0.35574
 H575 H -0.01764 0.20658 0.38569
 H576 H 0.00809 0.27987 0.38459
 H577 H -0.00076 0.23849 0.28991
 H578 H -0.00576 0.24525 0.44976
 C579 C -0.01132 0.75710 0.15140
 C580 C 0.00916 0.76069 0.13812
 C581 C 0.03042 0.76628 0.14904
 C582 C 0.03136 0.76799 0.17331
 C583 C 0.01055 0.76477 0.18640
 C584 C -0.01085 0.75935 0.17561
 C585 C 0.00806 0.75914 0.11274
 C586 C 0.00894 0.78032 0.09980
 C587 C 0.00676 0.77922 0.07566
 C588 C 0.00400 0.75668 0.06458
 C589 C 0.00303 0.73530 0.07732
 C590 C 0.00500 0.73669 0.10153
 H591 H -0.02774 0.75320 0.14276
 H592 H 0.04626 0.76867 0.13863
 H593 H 0.01101 0.79764 0.10858
 H594 H 0.00399 0.72040 0.11169
 H595 H 0.01102 0.76633 0.20510
 H596 H 0.00243 0.75580 0.04591
 C597 C 0.48036 0.24476 0.65853
 C598 C 0.50023 0.24837 0.64435
 C599 C 0.52199 0.25379 0.65428
 C600 C 0.52407 0.25537 0.67845
 C601 C 0.50401 0.25168 0.69252
 C602 C 0.48205 0.24650 0.68273
 C603 C 0.49796 0.24757 0.61906
 C604 C 0.49374 0.26888 0.60722
 C605 C 0.49097 0.26843 0.58313
 C606 C 0.49231 0.24631 0.57106
 C607 C 0.49656 0.22481 0.58274
 C608 C 0.49949 0.22559 0.60683
 H609 H 0.46351 0.24118 0.65062
 H610 H 0.53728 0.25660 0.64318
 H611 H 0.49283 0.28581 0.61681
 H612 H 0.50257 0.20912 0.61612
 H613 H 0.50551 0.25299 0.71116
 H614 H 0.49002 0.24578 0.55247
 C615 C 0.47566 0.75181 0.84432
 C616 C 0.49721 0.75151 0.85567
 C617 C 0.51818 0.75103 0.84274
 C618 C 0.51785 0.75061 0.81846
 C619 C 0.49618 0.75106 0.80724
 C620 C 0.47500 0.75171 0.82000
 C621 C 0.49803 0.75124 0.88112
 C622 C 0.49165 0.73020 0.89304
 C623 C 0.49369 0.72929 0.91720
 C624 C 0.50171 0.74996 0.92931
 C625 C 0.50762 0.77141 0.91764
 C626 C 0.50604 0.77173 0.89340
 H627 H 0.45948 0.75198 0.85442
 H628 H 0.53476 0.75091 0.85167
 H629 H 0.48582 0.71434 0.88337
 H630 H 0.51049 0.78802 0.88403
 H631 H 0.49580 0.75081 0.78849
 H632 H 0.50318 0.74937 0.94796
 C633 C 0.09524 0.25123 0.24419
 C634 C 0.11147 0.23487 0.25268
 C635 C 0.10627 0.22310 0.27364
 C636 C 0.08512 0.22720 0.28565
 C637 C 0.06887 0.24346 0.27679
 C638 C 0.07417 0.25550 0.25614
 C639 C 0.04753 0.24724 0.28864
 C640 C 0.04213 0.23484 0.30922
 C641 C 0.05857 0.21887 0.31793
 C642 C 0.07987 0.21512 0.30630
 H643 H 0.11855 0.21065 0.28073
 H644 H 0.06192 0.26806 0.24909
 H645 H 0.03518 0.25988 0.28190
 H646 H 0.09212 0.20254 0.31331
 H647 H 0.09860 0.26056 0.22813
 H648 H 0.05475 0.20886 0.33355
 C649 C 0.61634 0.71350 0.79081
 C650 C 0.61982 0.72747 0.77085
 C651 C 0.60234 0.74371 0.76474
 C652 C 0.58171 0.74577 0.77812
 C653 C 0.57843 0.73153 0.79804
 C654 C 0.59588 0.71552 0.80426
 C655 C 0.55769 0.73339 0.81127
 C656 C 0.54005 0.74923 0.80480
 C657 C 0.54355 0.76340 0.78502
 C658 C 0.56421 0.76173 0.77182
 H659 H 0.60459 0.75476 0.74956
 H660 H 0.59365 0.70445 0.81947
 H661 H 0.55505 0.72215 0.82633
 H662 H 0.56645 0.77284 0.75664
 H663 H 0.62931 0.70081 0.79608
 H664 H 0.53034 0.77593 0.77985
 C665 C 0.37641 0.78861 0.79598
 C666 C 0.37267 0.77379 0.77634
 C667 C 0.38979 0.75687 0.76998
 C668 C 0.41039 0.75501 0.78275
 C669 C 0.41400 0.77012 0.80234
 C670 C 0.39684 0.78676 0.80887
 C671 C 0.43487 0.76858 0.81482
 C672 C 0.45232 0.75233 0.80776
 C673 C 0.44838 0.73721 0.78840
 C674 C 0.42760 0.73848 0.77605
 H675 H 0.38741 0.74541 0.75483
 H676 H 0.39928 0.79848 0.82386
 H677 H 0.43783 0.78048 0.82959
 H678 H 0.42510 0.72670 0.76112
 H679 H 0.36354 0.80166 0.80150
 H680 H 0.46144 0.72435 0.78281
 C681 C -0.11357 0.29094 0.28711
 C682 C -0.11824 0.27554 0.26798
 C683 C -0.10348 0.25569 0.26398
 C684 C -0.08425 0.25179 0.27827
 C685 C -0.07981 0.26756 0.29719
 C686 C -0.09468 0.28692 0.30156
 C687 C -0.06029 0.26400 0.31115
 C688 C -0.04484 0.24512 0.30618
 C689 C -0.04948 0.22940 0.28743
 C690 C -0.06909 0.23261 0.27367
 H691 H -0.10639 0.24349 0.24948
 H692 H -0.09156 0.29918 0.31602
 H693 H -0.05668 0.27639 0.32542
 H694 H -0.07220 0.22029 0.25925
 H695 H -0.12443 0.30623 0.29119
 H696 H -0.03787 0.21463 0.28340
 C697 C -0.10533 0.71180 0.20622
 C698 C -0.11036 0.72751 0.22494
 C699 C -0.09450 0.74662 0.22988
 C700 C -0.07397 0.74990 0.21650
 C701 C -0.06916 0.73395 0.19780
 C702 C -0.08496 0.71500 0.19279
 C703 C -0.04859 0.73716 0.18447
 C704 C -0.03267 0.75610 0.18962
 C705 C -0.03765 0.77189 0.20825
 C706 C -0.05813 0.76884 0.22155
 H707 H -0.09800 0.75904 0.24409
 H708 H -0.08153 0.70258 0.17852
 H709 H -0.04479 0.72470 0.17032
 H710 H -0.06156 0.78129 0.23578
 H711 H -0.11699 0.69685 0.20190
 H712 H -0.02580 0.78680 0.21236
 C713 C 0.38859 0.19939 0.71691
 C714 C 0.38495 0.21413 0.73675
 C715 C 0.40149 0.23278 0.74145
 C716 C 0.42118 0.23642 0.72690
 C717 C 0.42454 0.22133 0.70727
 C718 C 0.40812 0.20295 0.70241
 C719 C 0.44433 0.22476 0.69287
 C720 C 0.46092 0.24314 0.69781
 C721 C 0.45731 0.25819 0.71730
 C722 C 0.43764 0.25487 0.73171
 H723 H 0.39934 0.24454 0.75641
 H724 H 0.41041 0.19122 0.68740
 H725 H 0.44703 0.21285 0.67805
 H726 H 0.43533 0.26672 0.74663
 H727 H 0.37653 0.18487 0.71238
 H728 H 0.46962 0.27273 0.72130
 C729 C 0.60227 0.24940 0.75095
 C730 C 0.61643 0.26896 0.74321
 C731 C 0.60976 0.28099 0.72303
 C732 C 0.58921 0.27410 0.71134
 C733 C 0.57504 0.25488 0.71977
 C734 C 0.58186 0.24251 0.73939
 C735 C 0.55411 0.24852 0.70864
 C736 C 0.54699 0.26119 0.68915
 C737 C 0.56145 0.27992 0.68052
 C738 C 0.58238 0.28634 0.69153
 H739 H 0.62024 0.29589 0.71636
 H740 H 0.57125 0.22762 0.74600
 H741 H 0.54326 0.23378 0.71521
 H742 H 0.59303 0.30111 0.68475
 H743 H 0.60656 0.23938 0.76615
 H744 H 0.55625 0.29003 0.66561
 C745 C 0.10560 0.75578 0.24888
 C746 C 0.12216 0.77304 0.24092
 C747 C 0.11739 0.78584 0.22069
 C748 C 0.09644 0.78140 0.20866
 C749 C 0.08006 0.76401 0.21699
 C750 C 0.08483 0.75129 0.23705
 C751 C 0.05908 0.75962 0.20521
 C752 C 0.05398 0.77248 0.18518
 C753 C 0.07046 0.78959 0.17683
 C754 C 0.09150 0.79403 0.18848
 H755 H 0.12995 0.79910 0.21419
 H756 H 0.07241 0.73795 0.24368
 H757 H 0.04676 0.74603 0.21158
 H758 H 0.10382 0.80744 0.18180
 H759 H 0.10844 0.74578 0.26449
 H760 H 0.06687 0.79985 0.16152
 C761 C 0.24988 0.10543 0.24543
 C762 C 0.25923 0.12036 0.22792
 C763 C 0.28080 0.11430 0.21737
 C764 C 0.29267 0.09360 0.22405
 C765 C 0.28294 0.07876 0.24155
 C766 C 0.26161 0.08490 0.25219
 C767 C 0.29457 0.05792 0.24804
 C768 C 0.31582 0.05148 0.23715
 C769 C 0.32550 0.06649 0.21991
 C770 C 0.31405 0.08738 0.21344
 H771 H 0.28844 0.12556 0.20398
 H772 H 0.25390 0.07370 0.26563
 H773 H 0.28711 0.04673 0.26162
 H774 H 0.32179 0.09851 0.19996
 H775 H 0.23332 0.10933 0.25389
 H776 H 0.34172 0.06182 0.21108
 C777 C 0.75843 0.60761 0.74845
 C778 C 0.76638 0.62204 0.72995
 C779 C 0.78623 0.61477 0.71699
 C780 C 0.79802 0.59360 0.72263
 C781 C 0.78982 0.57950 0.74137
 C782 C 0.77001 0.58663 0.75410
 C783 C 0.80154 0.55848 0.74717
 C784 C 0.82141 0.55107 0.73445
 C785 C 0.82951 0.56522 0.71583
 C786 C 0.81792 0.58629 0.70997
 H787 H 0.79269 0.62565 0.70274
 H788 H 0.76343 0.57596 0.76846
 H789 H 0.79533 0.54804 0.76184
 H790 H 0.82450 0.59680 0.69551
 H791 H 0.74306 0.61232 0.75861
 H792 H 0.84465 0.55983 0.70560
 C793 C 0.75266 0.40845 0.75005
 C794 C 0.75920 0.39532 0.76952
 C795 C 0.77887 0.40335 0.78215
 C796 C 0.79171 0.42403 0.77551
 C797 C 0.78492 0.43703 0.75595
 C798 C 0.76538 0.42907 0.74333
 C799 C 0.79785 0.45768 0.74928
 C800 C 0.81756 0.46549 0.76189
 C801 C 0.82409 0.45242 0.78137
 C802 C 0.81129 0.43191 0.78812
 H803 H 0.78437 0.39359 0.79713
 H804 H 0.75992 0.43880 0.72827
 H805 H 0.79281 0.46742 0.73406
 H806 H 0.81671 0.42220 0.80322
 H807 H 0.73766 0.40292 0.73991
 H808 H 0.83902 0.45823 0.79154
 C809 C 0.29275 -0.11062 0.29742
 C810 C 0.27362 -0.11600 0.28286
 C811 C 0.26889 -0.09981 0.26496
 C812 C 0.28277 -0.07883 0.26182
 C813 C 0.30167 -0.07373 0.27673
 C814 C 0.30652 -0.08976 0.29442
 C815 C 0.31537 -0.05264 0.27378
 C816 C 0.31050 -0.03650 0.25601
 C817 C 0.29177 -0.04191 0.24111
 C818 C 0.27801 -0.06282 0.24401
 H819 H 0.25450 -0.10330 0.25332
 H820 H 0.32098 -0.08616 0.30601
 H821 H 0.32959 -0.04861 0.28555
 H822 H 0.26368 -0.06648 0.23229
 H823 H 0.29724 -0.12230 0.31142
 H824 H 0.28787 -0.03006 0.22700
 C825 C 0.20086 -0.12562 0.71200
 C826 C 0.21847 -0.12979 0.72831
 C827 C 0.22019 -0.11402 0.74765
 C828 C 0.20564 -0.09393 0.74993
 C829 C 0.18853 -0.08978 0.73310
 C830 C 0.18602 -0.10597 0.71446
 C831 C 0.17485 -0.06900 0.73468
 C832 C 0.17864 -0.05193 0.75248
 C833 C 0.19532 -0.05644 0.76944
 C834 C 0.20854 -0.07739 0.76833
 H835 H 0.23341 -0.11659 0.76056
 H836 H 0.17293 -0.10313 0.70143
 H837 H 0.16221 -0.06542 0.72139
 H838 H 0.22156 -0.08025 0.78142
 H839 H 0.19841 -0.13737 0.69711
 H840 H 0.19844 -0.04343 0.78328
 C841 C 0.74275 0.39694 0.25239
 C842 C 0.73774 0.38434 0.23165
 C843 C 0.71935 0.39232 0.21786
 C844 C 0.70666 0.41292 0.22439
 C845 C 0.71236 0.42565 0.24499
 C846 C 0.73023 0.41736 0.25896
 C847 C 0.70032 0.44664 0.25118
 C848 C 0.68258 0.45527 0.23706
 C849 C 0.67662 0.44223 0.21687
 C850 C 0.68859 0.42126 0.21055
 H851 H 0.71519 0.38291 0.20185
 H852 H 0.73469 0.42679 0.27491
 H853 H 0.70479 0.45634 0.26699
 H854 H 0.68390 0.41175 0.19472
 H855 H 0.75643 0.39116 0.26367
 H856 H 0.66308 0.44860 0.20567
 C857 C 0.75400 0.59651 0.24957
 C858 C 0.74635 0.61194 0.26759
 C859 C 0.72622 0.60534 0.28060
 C860 C 0.71367 0.58396 0.27537
 C861 C 0.72139 0.56883 0.25699
 C862 C 0.74166 0.57517 0.24433
 C863 C 0.70850 0.54780 0.25133
 C864 C 0.68785 0.54171 0.26369
 C865 C 0.68051 0.55671 0.28215
 C866 C 0.69331 0.57762 0.28797
 H867 H 0.71995 0.61699 0.29447
 H868 H 0.74788 0.56373 0.23025
 H869 H 0.71418 0.53656 0.23686
 H870 H 0.68718 0.58894 0.30218
 H871 H 0.76958 0.60082 0.23941
 H872 H 0.66482 0.55224 0.29212
 C873 C 0.20111 0.11911 0.77942
 C874 C 0.22381 0.11906 0.76950
 C875 C 0.23066 0.09914 0.75581
 C876 C 0.21551 0.07908 0.75305
 C877 C 0.19313 0.07901 0.76390
 C878 C 0.18594 0.09927 0.77667
 C879 C 0.17851 0.05846 0.76231
 C880 C 0.18591 0.03785 0.74998
 C881 C 0.20793 0.03837 0.73865
 C882 C 0.22262 0.05879 0.74019
 H883 H 0.24805 0.09873 0.74802
 H884 H 0.16873 0.09961 0.78491
 H885 H 0.16173 0.05825 0.77139
 H886 H 0.23964 0.05858 0.73160
 H887 H 0.19508 0.13433 0.78965
 H888 H 0.21387 0.02292 0.72865
 C889 C 0.25549 0.26243 0.09833
 C890 C 0.23388 0.26728 0.10940
 C891 C 0.21940 0.28483 0.09996
 C892 C 0.22623 0.29700 0.07968
 C893 C 0.24783 0.29163 0.06865
 C894 C 0.26237 0.27445 0.07820
 C895 C 0.25448 0.30339 0.04816
 C896 C 0.23980 0.32046 0.03837
 C897 C 0.21850 0.32595 0.04966
 C898 C 0.21176 0.31431 0.07011
 H899 H 0.20269 0.28889 0.10810
 H900 H 0.27905 0.27020 0.07003
 H901 H 0.27114 0.29928 0.03985
 H902 H 0.19513 0.31869 0.07831
 H903 H 0.26725 0.24931 0.10513
 H904 H 0.20679 0.33889 0.04238
 C905 C 0.70803 0.79230 0.61441
 C906 C 0.72197 0.77193 0.61760
 C907 C 0.73859 0.76583 0.60031
 C908 C 0.74086 0.77951 0.58005
 C909 C 0.72643 0.79962 0.57699
 C910 C 0.71022 0.80595 0.59436
 C911 C 0.72821 0.81290 0.55650
 C912 C 0.74420 0.80631 0.53886
 C913 C 0.75878 0.78652 0.54228
 C914 C 0.75713 0.77325 0.56265
 H915 H 0.74951 0.75027 0.60232
 H916 H 0.69908 0.82138 0.59237
 H917 H 0.71670 0.82796 0.55404
 H918 H 0.76847 0.75798 0.56471
 H919 H 0.69528 0.79785 0.62736
 H920 H 0.77156 0.78129 0.52917
 C921 C 0.79293 0.79308 0.37869
 C922 C 0.78075 0.77103 0.37507
 C923 C 0.76394 0.76350 0.39170
 C924 C 0.75964 0.77750 0.41169
 C925 C 0.77220 0.79945 0.41520
 C926 C 0.78869 0.80714 0.39853
 C927 C 0.76830 0.81316 0.43547
 C928 C 0.75208 0.80514 0.45240
 C929 C 0.73945 0.78344 0.44856
 C930 C 0.74317 0.76976 0.42839
 H931 H 0.75439 0.74659 0.38940
 H932 H 0.79844 0.82395 0.40090
 H933 H 0.77833 0.82973 0.43835
 H934 H 0.73330 0.75303 0.42595
 H935 H 0.80581 0.79961 0.36624
 H936 H 0.72664 0.77705 0.46120
 C937 C 0.26461 0.24286 -0.09224
 C938 C 0.28149 0.25231 -0.10785
 C939 C 0.29291 0.27435 -0.10242
 C940 C 0.28671 0.28728 -0.08218
 C941 C 0.26911 0.27790 -0.06712
 C942 C 0.25848 0.25551 -0.07211
 C943 C 0.26196 0.29129 -0.04761
 C944 C 0.27208 0.31409 -0.04281
 C945 C 0.29006 0.32300 -0.05752
 C946 C 0.29731 0.30972 -0.07703
 H947 H 0.30594 0.28188 -0.11425
 H948 H 0.24513 0.24795 -0.06063
 H949 H 0.24785 0.28432 -0.03666
 H950 H 0.31094 0.31716 -0.08826
 H951 H 0.25590 0.22568 -0.09560
 H952 H 0.29844 0.34034 -0.05401
 C953 C 0.74274 0.26080 -0.09355
 C954 C 0.72606 0.25101 -0.10893
 C955 C 0.71481 0.22893 -0.10348
 C956 C 0.72007 0.21687 -0.08309
 C957 C 0.73685 0.22689 -0.06782
 C958 C 0.74809 0.24886 -0.07321
 C959 C 0.74218 0.21474 -0.04747
 C960 C 0.73094 0.19262 -0.04220
 C961 C 0.71420 0.18289 -0.05751
 C962 C 0.70882 0.19489 -0.07777
 H963 H 0.70205 0.22088 -0.11508
 H964 H 0.76100 0.25684 -0.06168
 H965 H 0.75533 0.22228 -0.03595
 H966 H 0.69583 0.18698 -0.08925
 H967 H 0.75165 0.27779 -0.09706
 H968 H 0.70506 0.16607 -0.05369
 C969 C 0.22117 0.70283 0.38370
 C970 C 0.23346 0.72491 0.38108
 C971 C 0.24945 0.73234 0.39821
 C972 C 0.25272 0.71825 0.41784
 C973 C 0.23996 0.69631 0.42040
 C974 C 0.22438 0.68868 0.40315
 C975 C 0.24269 0.68257 0.44033
 C976 C 0.25794 0.69051 0.45789
 C977 C 0.27081 0.71218 0.45500
 C978 C 0.26825 0.72592 0.43515
 H979 H 0.25904 0.74930 0.39666
 H980 H 0.21452 0.67185 0.40479
 H981 H 0.23242 0.66606 0.44249
 H982 H 0.27825 0.74264 0.43344
 H983 H 0.20896 0.69637 0.37077
 H984 H 0.28289 0.71853 0.46814
 C985 C 0.29285 0.70277 0.62093
 C986 C 0.27844 0.72286 0.62447
 C987 C 0.26253 0.72874 0.60714
 C988 C 0.26137 0.71520 0.58648
 C989 C 0.27614 0.69526 0.58301
 C990 C 0.29170 0.68910 0.60042
 C991 C 0.27534 0.68206 0.56208
 C992 C 0.26010 0.68874 0.54446
 C993 C 0.24527 0.70842 0.54827
 C994 C 0.24586 0.72149 0.56909
 H995 H 0.25104 0.74392 0.60954
 H996 H 0.30318 0.67387 0.59808
 H997 H 0.28698 0.66704 0.55924
 H998 H 0.23432 0.73666 0.57150
 H999 H 0.30534 0.69775 0.63382
 H1000 H 0.23315 0.71368 0.53509
 C1001 C 0.79272 0.21153 0.11215
 C1002 C 0.77760 0.23047 0.11823
 C1003 C 0.75844 0.23487 0.10388
 C1004 C 0.75469 0.22090 0.08374
 C1005 C 0.77015 0.20211 0.07779
 C1006 C 0.78904 0.19751 0.09219
 C1007 C 0.76667 0.18843 0.05742
 C1008 C 0.74800 0.19343 0.04273
 C1009 C 0.73255 0.21199 0.04897
 C1010 C 0.73583 0.22556 0.06928
 H1011 H 0.74647 0.24924 0.10816
 H1012 H 0.80109 0.18318 0.08792
 H1013 H 0.77884 0.17434 0.05269
 H1014 H 0.72371 0.23982 0.07359
 H1015 H 0.80762 0.20749 0.12265
 H1016 H 0.71784 0.21598 0.03813
 C1017 C 0.50043 0.34113 0.50311
 C1018 C 0.48407 0.35793 0.51153
 C1019 C 0.47275 0.35378 0.53296
 C1020 C 0.47751 0.33309 0.54566
 C1021 C 0.49382 0.31628 0.53685
 C1022 C 0.50525 0.32052 0.51564
 C1023 C 0.49832 0.29540 0.54930
 C1024 C 0.48667 0.29097 0.57048
 C1025 C 0.47070 0.30793 0.57926
 C1026 C 0.46615 0.32881 0.56696
 H1027 H 0.46028 0.36661 0.53987
 H1028 H 0.51780 0.30781 0.50864
 H1029 H 0.51095 0.28263 0.54254
 H1030 H 0.45358 0.34149 0.57399
 H1031 H 0.50932 0.34360 0.48662
 H1032 H 0.46138 0.30481 0.59545
 C1033 C -0.03150 0.87724 0.04588
 C1034 C -0.02015 0.87818 0.02411
 C1035 C -0.00377 0.86042 0.01811
 C1036 C 0.00038 0.84138 0.03312
 C1037 C -0.01166 0.84025 0.05466
 C1038 C -0.02725 0.85849 0.06104
 C1039 C -0.00858 0.82044 0.06904
 C1040 C 0.00603 0.80152 0.06195
 C1041 C 0.01847 0.80316 0.04083
 C1042 C 0.01576 0.82299 0.02657
 H1043 H 0.00508 0.86072 0.00139
 H1044 H -0.03655 0.85797 0.07754
 H1045 H -0.01844 0.81917 0.08520
 H1046 H 0.02522 0.82363 0.01017
 H1047 H -0.04393 0.89084 0.05115
 H1048 H 0.03001 0.78887 0.03518
 C1049 C 0.03177 0.63246 0.04765
 C1050 C 0.01817 0.63061 0.02757
 C1051 C 0.00190 0.64865 0.02318
 C1052 C 0.00039 0.66904 0.03783
 C1053 C 0.01497 0.67119 0.05736
 C1054 C 0.03016 0.65252 0.06242
 C1055 C 0.01486 0.69239 0.07094
 C1056 C 0.00064 0.71170 0.06504
 C1057 C -0.01455 0.70895 0.04618
 C1058 C -0.01472 0.68780 0.03273
 H1059 H -0.00869 0.64752 0.00779
 H1060 H 0.04131 0.65375 0.07743
 H1061 H 0.02676 0.69435 0.08532
 H1062 H -0.02618 0.68641 0.01796
 H1063 H 0.04408 0.61862 0.05178
 H1064 H -0.02602 0.72341 0.04157
 C1065 C 0.53979 0.12923 0.54695
 C1066 C 0.52313 0.12380 0.52982
 C1067 C 0.50385 0.13905 0.52769
 C1068 C 0.50152 0.15959 0.54195
 C1069 C 0.51852 0.16499 0.55889
 C1070 C 0.53749 0.14958 0.56135
 C1071 C 0.51646 0.18594 0.57273
 C1072 C 0.49783 0.20173 0.56953
 C1073 C 0.48086 0.19595 0.55286
 C1074 C 0.48262 0.17503 0.53926
 H1075 H 0.49065 0.13520 0.51483
 H1076 H 0.55072 0.15343 0.57423
 H1077 H 0.52973 0.19037 0.58543
 H1078 H 0.46938 0.17112 0.52642
 H1079 H 0.55486 0.11799 0.54912
 H1080 H 0.46623 0.20774 0.55030
 C1081 C -0.00509 0.14735 0.49620
 C1082 C -0.02449 0.13265 0.49000
 C1083 C -0.03774 0.13906 0.47071
 C1084 C -0.03171 0.15975 0.45793
 C1085 C -0.01223 0.17428 0.46450
 C1086 C 0.00096 0.16790 0.48361
 C1087 C -0.00617 0.19495 0.45184
 C1088 C -0.01933 0.20145 0.43260
 C1089 C -0.03863 0.18683 0.42611
 C1090 C -0.04480 0.16619 0.43868
 H1091 H -0.05277 0.12811 0.46560
 H1092 H 0.01599 0.17882 0.48884
 H1093 H 0.00901 0.20581 0.45680
 H1094 H -0.05982 0.15531 0.43337
 H1095 H 0.00566 0.14305 0.51075
 H1096 H -0.04915 0.19154 0.41146
 C1097 C 0.50349 0.65086 0.99155
 C1098 C 0.48281 0.63754 0.98671
 C1099 C 0.46876 0.64486 0.96833
 C1100 C 0.47509 0.66525 0.95527
 C1101 C 0.49574 0.67855 0.96059
 C1102 C 0.50987 0.67111 0.97865
 C1103 C 0.50187 0.69917 0.94789
 C1104 C 0.48757 0.70686 0.92991
 C1105 C 0.46722 0.69331 0.92453
 C1106 C 0.46102 0.67271 0.93710
 H1107 H 0.45276 0.63497 0.96425
 H1108 H 0.52583 0.68105 0.98290
 H1109 H 0.51781 0.70923 0.95197
 H1110 H 0.44511 0.66275 0.93275
 H1111 H 0.51489 0.64573 1.00534
 H1112 H 0.45583 0.69896 0.91088
 C1113 C 0.50454 0.84548 0.99870
 C1114 C 0.52185 0.86182 0.99044
 C1115 C 0.53346 0.85657 0.96930
 C1116 C 0.52749 0.83557 0.95649
 C1117 C 0.50976 0.81968 0.96494
 C1118 C 0.49853 0.82474 0.98608
 C1119 C 0.50342 0.79898 0.95214
 C1120 C 0.51468 0.79352 0.93095
 C1121 C 0.53241 0.80935 0.92267
 C1122 C 0.53873 0.83019 0.93530
 H1123 H 0.54681 0.86889 0.96263
 H1124 H 0.48503 0.81263 0.99289
 H1125 H 0.48938 0.78730 0.95857
 H1126 H 0.55242 0.84207 0.92851
 H1127 H 0.49552 0.84853 1.01504
 H1128 H 0.54158 0.80548 0.90653
 C1129 C -0.00077 0.34455 0.49550
 C1130 C 0.01944 0.35770 0.48851
 C1131 C 0.03185 0.34993 0.46855
 C1132 C 0.02435 0.32936 0.45600
 C1133 C 0.00414 0.31630 0.46339
 C1134 C -0.00833 0.32411 0.48309
 C1135 C -0.00322 0.29558 0.45104
 C1136 C 0.00939 0.28759 0.43135
 C1137 C 0.02937 0.30085 0.42402
 C1138 C 0.03679 0.32153 0.43623
 H1139 H 0.04742 0.35970 0.46273
 H1140 H -0.02390 0.31433 0.48898
 H1141 H -0.01887 0.28575 0.45668
 H1142 H 0.05235 0.33129 0.43030
 H1143 H -0.01086 0.34989 0.51065
 H1144 H 0.03955 0.29495 0.40907
 C1145 C 0.35252 0.49343 0.49252
 C1146 C 0.36726 0.50152 0.47433
 C1147 C 0.36109 0.52235 0.46231
 C1148 C 0.34071 0.53494 0.46852
 C1149 C 0.32627 0.52662 0.48694
 C1150 C 0.33229 0.50585 0.49877
 C1151 C 0.30608 0.53926 0.49336
 C1152 C 0.29994 0.56018 0.48159
 C1153 C 0.31438 0.56829 0.46321
 C1154 C 0.33458 0.55579 0.45673
 H1155 H 0.37215 0.52898 0.44830
 H1156 H 0.32136 0.49919 0.51290
 H1157 H 0.29536 0.53303 0.50783
 H1158 H 0.34539 0.56243 0.44251
 H1159 H 0.35643 0.47741 0.50206
 H1160 H 0.30993 0.58422 0.45370
 C1161 C 0.84859 0.00555 -0.00386
 C1162 C 0.86261 0.01320 -0.02279
 C1163 C 0.85581 0.03363 -0.03509
 C1164 C 0.83515 0.04581 -0.02883
 C1165 C 0.82115 0.03744 -0.01009
 C1166 C 0.82813 0.01748 0.00237
 C1167 C 0.80022 0.04898 -0.00417
 C1168 C 0.79289 0.06890 -0.01670
 C1169 C 0.80711 0.07754 -0.03500
 C1170 C 0.82804 0.06604 -0.04107
 H1171 H 0.86633 0.03995 -0.04963
 H1172 H 0.81766 0.01095 0.01688
 H1173 H 0.78956 0.04244 0.01022
 H1174 H 0.83852 0.07281 -0.05546
 H1175 H 0.85315 -0.00983 0.00627
 H1176 H 0.80174 0.09283 -0.04495
 C1177 C 0.63665 0.03893 0.04677
 C1178 C 0.63184 0.01918 0.03183
 C1179 C 0.64742 0.01466 0.01317
 C1180 C 0.66734 0.02959 0.00952
 C1181 C 0.67179 0.04936 0.02466
 C1182 C 0.65636 0.05382 0.04322
 C1183 C 0.69163 0.06431 0.02105
 C1184 C 0.70724 0.05978 0.00250
 C1185 C 0.70267 0.04004 -0.01246
 C1186 C 0.68290 0.02511 -0.00901
 H1187 H 0.64415 -0.00039 0.00142
 H1188 H 0.65952 0.06887 0.05504
 H1189 H 0.69510 0.07927 0.03289
 H1190 H 0.67979 0.01008 -0.02085
 H1191 H 0.62527 0.04306 0.06136
 H1192 H 0.71427 0.03632 -0.02705
 C1193 C 0.15833 0.49631 0.49601
 C1194 C 0.14565 0.50313 0.51609
 C1195 C 0.15411 0.52275 0.52954
 C1196 C 0.17478 0.53527 0.52315
 C1197 C 0.18734 0.52818 0.50299
 C1198 C 0.17895 0.50871 0.48954
 C1199 C 0.20803 0.54073 0.49663
 C1200 C 0.21635 0.56032 0.51016
 C1201 C 0.20366 0.56718 0.53018
 C1202 C 0.18308 0.55478 0.53662
 H1203 H 0.14477 0.52843 0.54505
 H1204 H 0.18834 0.50303 0.47400
 H1205 H 0.21748 0.53545 0.48099
 H1206 H 0.17370 0.56042 0.55216
 H1207 H 0.15242 0.48139 0.48520
 H1208 H 0.20983 0.58201 0.54104
 C1209 C 0.15027 0.50761 -0.01322
 C1210 C 0.13445 0.49738 -0.02928
 C1211 C 0.13994 0.47519 -0.04006
 C1212 C 0.16085 0.46349 -0.03482
 C1213 C 0.17640 0.47410 -0.01862
 C1214 C 0.17093 0.49608 -0.00792
 C1215 C 0.19732 0.46269 -0.01342
 C1216 C 0.20324 0.44080 -0.02434
 C1217 C 0.18761 0.43017 -0.04028
 C1218 C 0.16658 0.44141 -0.04548
 H1219 H 0.12801 0.46696 -0.05241
 H1220 H 0.18272 0.50448 0.00448
 H1221 H 0.20896 0.47085 -0.00074
 H1222 H 0.15493 0.43295 -0.05795
 H1223 H 0.14696 0.52472 -0.00472
 H1224 H 0.19185 0.41337 -0.04904
 C1225 C 0.62502 0.94864 0.45950
 C1226 C 0.62197 0.96929 0.47363
 C1227 C 0.63926 0.97537 0.48995
 C1228 C 0.65939 0.96141 0.49184
 C1229 C 0.66236 0.94089 0.47736
 C1230 C 0.64498 0.93458 0.46136
 C1231 C 0.68284 0.92733 0.47883
 C1232 C 0.70054 0.93425 0.49440
 C1233 C 0.69718 0.95446 0.50898
 C1234 C 0.67679 0.96788 0.50776
 H1235 H 0.63743 0.99122 0.50094
 H1236 H 0.64691 0.91888 0.45014
 H1237 H 0.68535 0.91190 0.46737
 H1238 H 0.67476 0.98350 0.51908
 H1239 H 0.61202 0.94325 0.44691
 H1240 H 0.71043 0.95995 0.52132
 C1241 C 0.86475 0.94977 0.53115
 C1242 C 0.86740 0.97216 0.52009
 C1243 C 0.84991 0.97938 0.50488
 C1244 C 0.82970 0.96487 0.50151
 C1245 C 0.82702 0.94282 0.51335
 C1246 C 0.84478 0.93530 0.52786
 C1247 C 0.80643 0.92884 0.51089
 C1248 C 0.78830 0.93650 0.49670
 C1249 C 0.79139 0.95816 0.48450
 C1250 C 0.81187 0.97223 0.48690
 H1251 H 0.85162 0.99652 0.49620
 H1252 H 0.84311 0.91835 0.53690
 H1253 H 0.80423 0.91238 0.52067
 H1254 H 0.81365 0.98897 0.47753
 H1255 H 0.87804 0.94334 0.54256
 H1256 H 0.77791 0.96430 0.47311
 C1257 C 0.35837 0.46728 0.03792
 C1258 C 0.36413 0.48720 0.02392
 C1259 C 0.34946 0.49242 0.00532
 C1260 C 0.32936 0.47804 0.00093
 C1261 C 0.32387 0.45824 0.01531
 C1262 C 0.33848 0.45303 0.03370
 C1263 C 0.30384 0.44394 0.01117
 C1264 C 0.28907 0.44891 -0.00732
 C1265 C 0.29459 0.46864 -0.02159
 C1266 C 0.31457 0.48308 -0.01750
 H1267 H 0.35349 0.50765 -0.00567
 H1268 H 0.33453 0.43787 0.04484
 H1269 H 0.29955 0.42909 0.02260
 H1270 H 0.31846 0.49815 -0.02876
 H1271 H 0.36917 0.46244 0.05225
 H1272 H 0.28360 0.47274 -0.03607
 C1273 C 0.53848 0.45289 0.35697
 C1274 C 0.52027 0.46860 0.36328
 C1275 C 0.51618 0.48861 0.34925
 C1276 C 0.53001 0.49278 0.32929
 C1277 C 0.54821 0.47680 0.32328
 C1278 C 0.55229 0.45695 0.33723
 C1279 C 0.56195 0.48079 0.30333
 C1280 C 0.55776 0.50053 0.28910
 C1281 C 0.53965 0.51639 0.29521
 C1282 C 0.52593 0.51258 0.31516
 H1283 H 0.50235 0.50101 0.35378
 H1284 H 0.56613 0.44448 0.33283
 H1285 H 0.57564 0.46824 0.29861
 H1286 H 0.51210 0.52507 0.31948
 H1287 H 0.54210 0.43719 0.36709
 H1288 H 0.53624 0.53187 0.28465
 C1289 C 0.03444 -0.04346 0.86159
 C1290 C 0.01608 -0.02740 0.86644
 C1291 C 0.01250 -0.00834 0.85110
 C1292 C 0.02674 -0.00569 0.83116
 C1293 C 0.04483 -0.02221 0.82646
 C1294 C 0.04860 -0.04091 0.84186
 C1295 C 0.05873 -0.01996 0.80633
 C1296 C 0.05484 -0.00137 0.79065
 C1297 C 0.03700 0.01521 0.79564
 C1298 C 0.02308 0.01307 0.81568
 H1299 H -0.00141 0.00431 0.85446
 H1300 H 0.06244 -0.05370 0.83857
 H1301 H 0.07222 -0.03304 0.80260
 H1302 H 0.00940 0.02603 0.81901
 H1303 H 0.03796 -0.05828 0.87287
 H1304 H 0.03388 0.02997 0.78408
 C1305 C -0.00618 0.00331 0.65404
 C1306 C 0.00399 0.01969 0.63824
 C1307 C 0.02573 0.03077 0.64346
 C1308 C 0.03721 0.02537 0.66404
 C1309 C 0.02677 0.00878 0.67964
 C1310 C 0.00508 -0.00209 0.67450
 C1311 C 0.03815 0.00327 0.70015
 C1312 C 0.05989 0.01417 0.70547
 C1313 C 0.07023 0.03059 0.68984
 C1314 C 0.05898 0.03616 0.66930
 H1315 H 0.03390 0.04332 0.63144
 H1316 H -0.00320 -0.01477 0.68633
 H1317 H 0.03019 -0.00974 0.71186
 H1318 H 0.06726 0.04894 0.65759
 H1319 H -0.02303 -0.00527 0.65078
 H1320 H 0.08687 0.03940 0.69366
 C1321 C 0.49687 0.50953 0.15303
 C1322 C 0.50704 0.52616 0.13745
 C1323 C 0.52892 0.53693 0.14273
 C1324 C 0.54043 0.53108 0.16319
 C1325 C 0.52996 0.51427 0.17854
 C1326 C 0.50822 0.50362 0.17330
 C1327 C 0.54134 0.50836 0.19895
 C1328 C 0.56307 0.51917 0.20448
 C1329 C 0.57343 0.53583 0.18908
 C1330 C 0.56223 0.54172 0.16861
 H1331 H 0.53712 0.54969 0.13096
 H1332 H 0.49991 0.49076 0.18494
 H1333 H 0.53334 0.49516 0.21043
 H1334 H 0.57054 0.55469 0.15710
 H1335 H 0.47997 0.50108 0.14980
 H1336 H 0.59005 0.54460 0.19305
 C1337 C 0.45290 -0.03297 0.13441
 C1338 C 0.47490 -0.02116 0.13242
 C1339 C 0.48225 -0.00550 0.15040
 C1340 C 0.46816 -0.00223 0.17030
 C1341 C 0.44633 -0.01460 0.17224
 C1342 C 0.43877 -0.02973 0.15411
 C1343 C 0.43259 -0.01199 0.19243
 C1344 C 0.44041 0.00276 0.21086
 C1345 C 0.46198 0.01532 0.20861
 C1346 C 0.47572 0.01287 0.18851
 H1347 H 0.49916 0.00369 0.14929
 H1348 H 0.42202 -0.03926 0.15525
 H1349 H 0.41615 -0.02203 0.19406
 H1350 H 0.49236 0.02259 0.18730
 H1351 H 0.44652 -0.04485 0.12079
 H1352 H 0.46823 0.02705 0.22243
 C1353 C 1.01114 0.49576 0.65193
 C1354 C 1.00086 0.47869 0.63669
 C1355 C 0.97860 0.46883 0.64235
 C1356 C 0.96686 0.47583 0.66283
 C1357 C 0.97742 0.49295 0.67796
 C1358 C 0.99954 0.50282 0.67232
 C1359 C 0.96572 0.49989 0.69849
 C1360 C 0.94355 0.48988 0.70418
 C1361 C 0.93321 0.47287 0.68896
 C1362 C 0.94472 0.46594 0.66848
 H1363 H 0.97024 0.45582 0.63083
 H1364 H 1.00793 0.51594 0.68373
 H1365 H 0.97377 0.51323 0.70992
 H1366 H 0.93638 0.45273 0.65713
 H1367 H 1.02829 0.50360 0.64831
 H1368 H 0.91632 0.46460 0.69308
 C1369 C 0.96115 0.54843 0.86298
 C1370 C 0.97943 0.53255 0.86760
 C1371 C 0.98426 0.51390 0.85149
 C1372 C 0.97128 0.51135 0.83108
 C1373 C 0.95312 0.52755 0.82665
 C1374 C 0.94816 0.54595 0.84276
 C1375 C 0.94034 0.52522 0.80613
 C1376 C 0.94547 0.50688 0.78983
 C1377 C 0.96347 0.49073 0.79452
 C1378 C 0.97624 0.49293 0.81494
 H1379 H 0.99809 0.50133 0.85471
 H1380 H 0.93429 0.55855 0.83965
 H1381 H 0.92669 0.53795 0.80265
 H1382 H 0.99002 0.48025 0.81807
 H1383 H 0.95692 0.56305 0.87481
 H1384 H 0.96755 0.47620 0.78248
 C1385 C 0.45220 0.03910 0.37333
 C1386 C 0.47148 0.02396 0.37605
 C1387 C 0.47648 0.00678 0.35856
 C1388 C 0.46290 0.00516 0.33851
 C1389 C 0.44386 0.02076 0.33586
 C1390 C 0.43853 0.03750 0.35347
 C1391 C 0.43082 0.01973 0.31543
 C1392 C 0.43680 0.00350 0.29745
 C1393 C 0.45546 -0.01229 0.30051
 C1394 C 0.46835 -0.01152 0.32087
 H1395 H 0.49119 -0.00509 0.36016
 H1396 H 0.42396 0.04958 0.35178
 H1397 H 0.41659 0.03214 0.31316
 H1398 H 0.48280 -0.02373 0.32264
 H1399 H 0.44761 0.05237 0.38644
 H1400 H 0.46018 -0.02517 0.28703
   
