data_POSCAR
  _audit_creation_date              2014-09-24
  _audit_creation_method            'ToBaCCo'
  _symmetry_space_group_name_H-M    'P1'
  _symmetry_Int_Tables_number       1
  _symmetry_cell_setting            triclinic
  loop_
  _symmetry_equiv_pos_as_xyz
 x,y,z
_cell_length_a 53.5859
_cell_length_b 56.4326
_cell_length_c 53.8993
_cell_angle_alpha 88.765600
_cell_angle_beta 88.671800
_cell_angle_gamma 90.520900
loop_
  _atom_site_label
  _atom_site_type_symbol
  _atom_site_fract_x
  _atom_site_fract_y
  _atom_site_fract_z
C1 C 0.69795 0.68192 0.99076
 H2 H 0.71715 0.68369 0.98429
 C3 C 0.67940 0.69529 0.97945
 H4 H 0.68443 0.70740 0.96425
 C5 C 0.66775 0.66252 1.01709
 H6 H 0.66322 0.64928 1.03129
 C7 C 0.64863 0.67535 1.00616
 H8 H 0.62948 0.67208 1.01224
 N9 N 0.69178 0.66571 1.00896
 C10 C 0.75817 0.64610 1.04873
 H11 H 0.75524 0.62711 1.04855
 C12 C 0.77836 0.65544 1.06111
 H13 H 0.79108 0.64349 1.07029
 C14 C 0.74538 0.68460 1.03629
 H15 H 0.73236 0.69583 1.02670
 C16 C 0.76563 0.69474 1.04827
 H17 H 0.76814 0.71380 1.04782
 Zn18 Zn 0.71646 0.64477 1.02014
 N19 N 0.74231 0.66063 1.03647
 C20 C 0.75506 0.63148 0.98732
 N21 N 0.73011 0.62939 0.99212
 C22 C 0.71503 0.61728 0.97672
 C23 C 0.72520 0.60573 0.95615
 C24 C 0.76593 0.62031 0.96709
 C25 C 0.69786 0.63106 1.06656
 C26 C 0.69011 0.61580 1.08594
 C27 C 0.69070 0.58354 1.05723
 C28 C 0.69914 0.59941 1.03857
 N29 N 0.70254 0.62270 1.04356
 H30 H 0.76668 0.64185 0.99914
 H31 H 0.69514 0.61642 0.98057
 H32 H 0.71310 0.59562 0.94444
 H33 H 0.78586 0.62220 0.96369
 H34 H 0.70062 0.64973 1.06998
 H35 H 0.68598 0.62366 1.10366
 H36 H 0.68938 0.56506 1.05245
 H37 H 0.70351 0.59299 1.02028
 C38 C 0.78240 0.68002 1.06084
 C39 C 0.65434 0.69156 0.98672
 C40 C 0.68651 0.59131 1.08180
 C41 C 0.75107 0.60686 0.95143
 C42 C 0.73301 0.34510 0.54842
 H43 H 0.74922 0.34718 0.55980
 C44 C 0.71249 0.33186 0.55736
 H45 H 0.71308 0.32384 0.57576
 C46 C 0.71205 0.35457 0.51130
 H47 H 0.71177 0.36386 0.49358
 C48 C 0.69117 0.34135 0.51944
 H49 H 0.67520 0.34019 0.50757
 N50 N 0.73231 0.35633 0.52591
 C51 C 0.80883 0.37314 0.50224
 H52 H 0.80782 0.39225 0.50070
 C53 C 0.83072 0.36167 0.49521
 H54 H 0.84663 0.37196 0.48820
 C55 C 0.78879 0.33628 0.51176
 H56 H 0.77223 0.32650 0.51774
 C57 C 0.81017 0.32407 0.50433
 H58 H 0.81005 0.30487 0.50460
 Zn59 Zn 0.75884 0.37721 0.51710
 N60 N 0.78849 0.36039 0.51043
 C61 C 0.78575 0.40073 0.55407
 N62 N 0.76289 0.39768 0.54412
 C63 C 0.74216 0.40758 0.55452
 C64 C 0.74405 0.42137 0.57566
 C65 C 0.78854 0.41469 0.57482
 C66 C 0.75365 0.38238 0.46614
 C67 C 0.74626 0.39281 0.44384
 C68 C 0.73368 0.42745 0.46641
 C69 C 0.74164 0.41647 0.48828
 N70 N 0.75088 0.39412 0.48780
 H71 H 0.80188 0.39209 0.54626
 H72 H 0.72410 0.40439 0.54661
 H73 H 0.72747 0.42911 0.58386
 H74 H 0.80688 0.41690 0.58254
 H75 H 0.76097 0.36458 0.46634
 H76 H 0.74777 0.38289 0.42690
 H77 H 0.72565 0.44498 0.46709
 H78 H 0.73973 0.42551 0.50567
 C79 C 0.83134 0.33689 0.49592
 C80 C 0.69105 0.33010 0.54294
 C81 C 0.73564 0.41541 0.44392
 C82 C 0.76754 0.42512 0.58587
 C83 C 0.21416 -0.17200 -0.00231
 H84 H 0.23204 -0.17174 0.00661
 C85 C 0.19473 -0.18613 0.00763
 H86 H 0.19785 -0.19675 0.02422
 C87 C 0.18787 -0.15691 -0.03357
 H88 H 0.18505 -0.14499 -0.04917
 C89 C 0.16792 -0.17074 -0.02422
 H90 H 0.15004 -0.16968 -0.03311
 N91 N 0.21039 -0.15767 -0.02244
 C92 C 0.28206 -0.13684 -0.05540
 H93 H 0.27777 -0.11829 -0.05813
 C94 C 0.30499 -0.14538 -0.06360
 H95 H 0.31790 -0.13330 -0.07321
 C96 C 0.26995 -0.17494 -0.03988
 H97 H 0.25624 -0.18630 -0.03050
 C98 C 0.29297 -0.18422 -0.04752
 H99 H 0.29679 -0.20273 -0.04371
 Zn100 Zn 0.23612 -0.13611 -0.03209
 N101 N 0.26517 -0.15152 -0.04363
 C102 C 0.26752 -0.12147 0.00541
 N103 N 0.24425 -0.11875 -0.00365
 C104 C 0.22675 -0.10577 0.00856
 C105 C 0.23263 -0.09452 0.03064
 C106 C 0.27409 -0.11076 0.02733
 C107 C 0.22222 -0.12678 -0.08050
 C108 C 0.21667 -0.11337 -0.10165
 C109 C 0.21911 -0.07810 -0.07723
 C110 C 0.22468 -0.09231 -0.05657
 N111 N 0.22598 -0.11619 -0.05855
 H112 H 0.28095 -0.13249 -0.00394
 H113 H 0.20816 -0.10436 0.00129
 H114 H 0.21863 -0.08405 0.04003
 H115 H 0.29257 -0.11380 0.03440
 H116 H 0.22363 -0.14585 -0.08159
 H117 H 0.21269 -0.12311 -0.11813
 H118 H 0.21967 -0.05918 -0.07467
 H119 H 0.22865 -0.08415 -0.03913
 C120 C 0.31097 -0.16927 -0.05934
 C121 C 0.17112 -0.18531 -0.00312
 C122 C 0.21495 -0.08834 -0.10064
 C123 C 0.25667 -0.09691 0.04023
 C124 C 0.23463 0.15701 0.43753
 H125 H 0.25026 0.15363 0.42508
 C126 C 0.21540 0.17181 0.42985
 H127 H 0.21643 0.17968 0.41136
 C128 C 0.21349 0.14921 0.47597
 H129 H 0.21248 0.13997 0.49372
 C130 C 0.19405 0.16410 0.46921
 H131 H 0.17862 0.16655 0.48219
 N132 N 0.23307 0.14567 0.46002
 C133 C 0.30397 0.12037 0.48646
 H134 H 0.29946 0.10167 0.48817
 C135 C 0.32491 0.12919 0.49806
 H136 H 0.33672 0.11717 0.50830
 C137 C 0.29260 0.15909 0.47329
 H138 H 0.27930 0.17071 0.46460
 C139 C 0.31360 0.16870 0.48451
 H140 H 0.31646 0.18772 0.48433
 Zn141 Zn 0.25663 0.12200 0.46753
 N142 N 0.28795 0.13536 0.47500
 C143 C 0.28217 0.09328 0.43301
 N144 N 0.25944 0.10173 0.43999
 C145 C 0.23886 0.09752 0.42632
 C146 C 0.24080 0.08467 0.40444
 C147 C 0.28482 0.07993 0.41168
 C148 C 0.25035 0.11657 0.51828
 C149 C 0.24350 0.10600 0.54101
 C150 C 0.22694 0.07261 0.51911
 C151 C 0.23458 0.08369 0.49665
 N152 N 0.24586 0.10538 0.49671
 H153 H 0.29840 0.09711 0.44372
 H154 H 0.22102 0.10461 0.43213
 H155 H 0.22440 0.08163 0.39354
 H156 H 0.30306 0.07338 0.40632
 H157 H 0.25918 0.13389 0.51779
 H158 H 0.24691 0.11537 0.55795
 H159 H 0.21763 0.05551 0.51896
 H160 H 0.23124 0.07517 0.47924
 C161 C 0.32943 0.15367 0.49783
 C162 C 0.19446 0.17514 0.44560
 C163 C 0.23149 0.08385 0.54161
 C164 C 0.26404 0.07571 0.39703
 C165 C 0.17771 0.47007 0.22762
 H166 H 0.17663 0.46427 0.24688
 C167 C 0.19168 0.45710 0.21056
 H168 H 0.20169 0.44163 0.21695
 C169 C 0.16449 0.49621 0.19564
 H170 H 0.15318 0.51095 0.18974
 C171 C 0.17833 0.48379 0.17795
 H172 H 0.17746 0.48912 0.15857
 N173 N 0.16386 0.48878 0.21983
 C174 C 0.14234 0.52936 0.28455
 H175 H 0.12319 0.53257 0.27980
 C176 C 0.15246 0.54116 0.30441
 H177 H 0.14061 0.55262 0.31531
 C178 C 0.18124 0.51164 0.27527
 H179 H 0.19261 0.50066 0.26349
 C180 C 0.19220 0.52319 0.29511
 H181 H 0.21190 0.52089 0.29842
 Zn182 Zn 0.14048 0.50205 0.24255
 N183 N 0.15663 0.51483 0.27044
 C184 C 0.09977 0.48280 0.27137
 N185 N 0.11699 0.47802 0.25326
 C186 C 0.11817 0.45605 0.24327
 C187 C 0.10294 0.43758 0.25266
 C188 C 0.08409 0.46489 0.28120
 C189 C 0.13746 0.54775 0.22269
 C190 C 0.12592 0.56847 0.21454
 C191 C 0.08649 0.54730 0.21519
 C192 C 0.09878 0.52697 0.22347
 N193 N 0.12377 0.52768 0.22733
 H194 H 0.09839 0.50040 0.27861
 H195 H 0.13129 0.45259 0.22834
 H196 H 0.10513 0.42000 0.24529
 H197 H 0.07090 0.46902 0.29597
 H198 H 0.15727 0.54782 0.22610
 H199 H 0.13708 0.58436 0.21122
 H200 H 0.06648 0.54667 0.21288
 H201 H 0.08826 0.51085 0.22744
 C202 C 0.17777 0.53839 0.30979
 C203 C 0.19141 0.46346 0.18524
 C204 C 0.10004 0.56852 0.21107
 C205 C 0.08610 0.44172 0.27238
 C206 C -0.12829 0.03000 0.23222
 H207 H -0.12579 0.03774 0.25020
 C208 C -0.14460 0.04043 0.21553
 H209 H -0.15516 0.05545 0.22186
 C210 C -0.11776 0.00051 0.20344
 H211 H -0.10672 -0.01468 0.19852
 C212 C -0.13380 0.01045 0.18601
 H213 H -0.13415 0.00261 0.16791
 N214 N -0.11525 0.01041 0.22603
 C215 C -0.09453 -0.02297 0.29637
 H216 H -0.07523 -0.02687 0.29198
 C217 C -0.10504 -0.03077 0.31905
 H218 H -0.09335 -0.03992 0.33220
 C219 C -0.13308 -0.00679 0.28426
 H220 H -0.14418 0.00211 0.27052
 C221 C -0.14446 -0.01452 0.30667
 H222 H -0.16419 -0.01149 0.30974
 Zn223 Zn -0.09185 -0.00102 0.24934
 N224 N -0.10839 -0.01077 0.27967
 C225 C -0.05702 0.02512 0.27722
 N226 N -0.06879 0.02409 0.25518
 C227 C -0.06640 0.04212 0.23802
 C228 C -0.05326 0.06283 0.24350
 C229 C -0.04382 0.04545 0.28346
 C230 C -0.08950 -0.04729 0.23300
 C231 C -0.07854 -0.06827 0.22530
 C232 C -0.03809 -0.04915 0.22684
 C233 C -0.04991 -0.02835 0.23423
 N234 N -0.07518 -0.02786 0.23716
 H235 H -0.05878 0.01071 0.29059
 H236 H -0.07568 0.04092 0.22049
 H237 H -0.05286 0.07759 0.23031
 H238 H -0.03566 0.04642 0.30162
 H239 H -0.10953 -0.04644 0.23574
 H240 H -0.09048 -0.08327 0.22155
 H241 H -0.01793 -0.04936 0.22514
 H242 H -0.03890 -0.01276 0.23805
 C243 C -0.13039 -0.02668 0.32448
 C244 C -0.14740 0.03109 0.19160
 C245 C -0.05244 -0.06956 0.22235
 C246 C -0.04263 0.06495 0.26687
 C247 C 0.34562 0.52621 0.73173
 H248 H 0.34639 0.53377 0.74998
 C249 C 0.33283 0.53793 0.71299
 H250 H 0.32339 0.55431 0.71712
 C251 C 0.35790 0.49610 0.70411
 H252 H 0.36839 0.48021 0.70060
 C253 C 0.34534 0.50732 0.68472
 H254 H 0.34627 0.49990 0.66637
 N255 N 0.35805 0.50588 0.72697
 C256 C 0.37130 0.47492 0.79986
 H257 H 0.39142 0.47356 0.79875
 C258 C 0.35814 0.46552 0.82046
 H259 H 0.36825 0.45708 0.83535
 C260 C 0.33360 0.48694 0.78138
 H261 H 0.32406 0.49469 0.76580
 C262 C 0.31969 0.47796 0.80181
 H263 H 0.29951 0.47892 0.80182
 Zn264 Zn 0.37854 0.49453 0.75251
 N265 N 0.35893 0.48516 0.78076
 C266 C 0.39605 0.53146 0.78186
 N267 N 0.39962 0.52037 0.75993
 C268 C 0.41421 0.53025 0.74137
 C269 C 0.42507 0.55265 0.74415
 C270 C 0.40622 0.55397 0.78525
 C271 C 0.38190 0.44778 0.73946
 C272 C 0.39262 0.42653 0.73231
 C273 C 0.43300 0.44593 0.73095
 C274 C 0.42147 0.46687 0.73850
 N275 N 0.39627 0.46745 0.74218
 H276 H 0.38385 0.52367 0.79610
 H277 H 0.41606 0.52143 0.72381
 H278 H 0.43563 0.56085 0.72883
 H279 H 0.40220 0.56312 0.80232
 H280 H 0.36197 0.44864 0.74297
 H281 H 0.38070 0.41109 0.73062
 H282 H 0.45296 0.44595 0.72737
 H283 H 0.43262 0.48261 0.74122
 C284 C 0.33199 0.46672 0.82144
 C285 C 0.33310 0.52884 0.68895
 C286 C 0.41847 0.42541 0.72752
 C287 C 0.42031 0.56504 0.76598
 C288 C 0.68663 0.99614 0.72147
 H289 H 0.69590 1.00018 0.73847
 C290 C 0.70046 0.98740 0.70127
 H291 H 0.72031 0.98452 0.70296
 C292 C 0.64953 0.99435 0.69851
 H293 H 0.62976 0.99753 0.69725
 C294 C 0.66249 0.98563 0.67809
 H295 H 0.65244 0.98194 0.66138
 N296 N 0.66150 0.99896 0.71987
 C297 C 0.65306 1.04605 0.77730
 H298 H 0.64037 1.05572 0.76571
 C299 C 0.66279 1.05715 0.79776
 H300 H 0.65799 1.07551 0.80037
 C301 C 0.67544 1.01121 0.78650
 H302 H 0.67997 0.99309 0.78221
 C303 C 0.68548 1.02161 0.80755
 H304 H 0.69725 1.01085 0.81919
 Zn305 Zn 0.64042 1.00890 0.74647
 N306 N 0.65875 1.02320 0.77241
 C307 C 0.62519 0.97277 0.78182
 N308 N 0.62180 0.98186 0.75855
 C309 C 0.60652 0.97074 0.74255
 C310 C 0.59528 0.94900 0.74909
 C311 C 0.61446 0.95095 0.78906
 C312 C 0.62883 1.04738 0.71607
 C313 C 0.61431 1.06483 0.70509
 C314 C 0.57891 1.05084 0.73007
 C315 C 0.59411 1.03330 0.74039
 N316 N 0.61855 1.03186 0.73311
 H317 H 0.63676 0.98200 0.79463
 H318 H 0.60346 0.97843 0.72439
 H319 H 0.58403 0.94003 0.73568
 H320 H 0.61793 0.94370 0.80741
 H321 H 0.64840 1.04612 0.71096
 H322 H 0.62279 1.07692 0.69141
 H323 H 0.55943 1.05178 0.73576
 H324 H 0.58647 1.02090 0.75420
 C325 C 0.67833 1.04472 0.81424
 C326 C 0.68819 0.98156 0.67942
 C327 C 0.58901 1.06664 0.71195
 C328 C 0.59978 0.93851 0.77237
 C329 C 0.00884 0.24400 -0.17646
 H330 H 0.01935 0.26047 -0.17696
 C331 C 0.01679 0.22508 -0.19083
 H332 H 0.03319 0.22739 -0.20278
 C333 C -0.02494 0.22093 -0.15975
 H334 H -0.04091 0.21922 -0.14722
 C335 C -0.01746 0.20146 -0.17356
 H336 H -0.02768 0.18490 -0.17124
 N337 N -0.01144 0.24149 -0.16100
 C338 C -0.03416 0.31256 -0.13999
 H339 H -0.03433 0.30986 -0.12005
 C340 C -0.04180 0.33413 -0.15009
 H341 H -0.04752 0.34805 -0.13773
 C342 C -0.02665 0.29746 -0.18013
 H343 H -0.02109 0.28296 -0.19173
 C344 C -0.03427 0.31889 -0.19109
 H345 H -0.03466 0.32066 -0.21112
 Zn346 Zn -0.01847 0.26583 -0.13834
 N347 N -0.02681 0.29471 -0.15495
 C348 C 0.02100 0.29253 -0.11761
 N349 N 0.01085 0.27045 -0.11937
 C350 C 0.02240 0.25120 -0.10936
 C351 C 0.04464 0.25386 -0.09649
 C352 C 0.04302 0.29599 -0.10479
 C353 C -0.06927 0.26456 -0.12380
 C354 C -0.09069 0.25700 -0.11056
 C355 C -0.06486 0.23223 -0.08502
 C356 C -0.04393 0.24049 -0.09870
 N357 N -0.04643 0.25631 -0.11777
 H358 H 0.01240 0.30757 -0.12647
 H359 H 0.01467 0.23368 -0.11183
 H360 H 0.05348 0.23837 -0.08854
 H361 H 0.05084 0.31371 -0.10386
 H362 H -0.07105 0.27690 -0.13926
 H363 H -0.10795 0.26519 -0.11582
 H364 H -0.06143 0.21861 -0.07120
 H365 H -0.02574 0.23365 -0.09445
 C366 C -0.04231 0.33744 -0.17596
 C367 C 0.00405 0.20318 -0.18891
 C368 C -0.08922 0.24014 -0.09076
 C369 C 0.05512 0.27654 -0.09395
 C370 C 0.45342 0.19976 0.16950
 H371 H 0.44192 0.20858 0.15613
 C372 C 0.44485 0.17854 0.18032
 H373 H 0.42663 0.17182 0.17550
 C374 C 0.49138 0.19674 0.19089
 H375 H 0.50992 0.20333 0.19423
 C376 C 0.48360 0.17510 0.20192
 H377 H 0.49621 0.16538 0.21370
 N378 N 0.47658 0.20829 0.17439
 C379 C 0.48898 0.28231 0.17107
 H380 H 0.47404 0.28493 0.15827
 C381 C 0.49894 0.30192 0.18290
 H382 H 0.49134 0.31930 0.17911
 C383 C 0.51871 0.25712 0.18956
 H384 H 0.52712 0.23989 0.19124
 C385 C 0.52922 0.27622 0.20175
 H386 H 0.54517 0.27323 0.21334
 Zn387 Zn 0.48889 0.23473 0.15459
 N388 N 0.49906 0.26042 0.17440
 C389 C 0.44156 0.25294 0.14236
 N390 N 0.46352 0.24494 0.13259
 C391 C 0.46726 0.24368 0.10761
 C392 C 0.44864 0.25088 0.09141
 C393 C 0.42233 0.25997 0.12686
 C394 C 0.53143 0.24225 0.12361
 C395 C 0.55340 0.23624 0.11080
 C396 C 0.54630 0.19541 0.12354
 C397 C 0.52441 0.20216 0.13590
 N398 N 0.51751 0.22528 0.13594
 H399 H 0.43896 0.25370 0.16229
 H400 H 0.48466 0.23704 0.10016
 H401 H 0.45195 0.24986 0.07157
 H402 H 0.40510 0.26648 0.13495
 H403 H 0.52552 0.26053 0.12390
 H404 H 0.56407 0.24999 0.10093
 H405 H 0.55169 0.17698 0.12442
 H406 H 0.51307 0.18887 0.14561
 C407 C 0.51968 0.29910 0.19808
 C408 C 0.46037 0.16541 0.19592
 C409 C 0.56122 0.21253 0.11077
 C410 C 0.42585 0.25917 0.10103
 C411 C 0.99013 0.73611 0.70350
 H412 H 0.98162 0.75341 0.70372
 C413 C 0.98007 0.71773 0.71845
 H414 H 0.96419 0.72125 0.73056
 C415 C 1.02004 0.71015 0.68626
 H416 H 1.03510 0.70701 0.67311
 C417 C 1.01050 0.69124 0.70081
 H418 H 1.01830 0.67377 0.69851
 N419 N 1.00937 0.73191 0.68734
 C420 C 1.04463 0.79798 0.66217
 H421 H 1.04858 0.79244 0.64344
 C422 C 1.05396 0.81958 0.66981
 H423 H 1.06432 0.83065 0.65646
 C424 C 1.02638 0.79014 0.70196
 H425 H 1.01572 0.77855 0.71446
 C426 C 1.03567 0.81176 0.71054
 H427 H 1.03221 0.81652 0.72966
 Zn428 Zn 1.01900 0.75557 0.66331
 N429 N 1.03083 0.78381 0.67800
 C430 C 0.99341 0.78233 0.62749
 N431 N 0.99118 0.76326 0.64327
 C432 C 0.96927 0.75085 0.64562
 C433 C 0.94816 0.75843 0.63292
 C434 C 0.97281 0.79064 0.61475
 C435 C 1.06818 0.74208 0.65366
 C436 C 1.08873 0.73468 0.63960
 C437 C 1.06208 0.73131 0.60425
 C438 C 1.04203 0.73895 0.61897
 N439 N 1.04543 0.74411 0.64319
 H440 H 1.01095 0.79168 0.62529
 H441 H 0.96790 0.73541 0.65778
 H442 H 0.93058 0.74904 0.63573
 H443 H 0.97471 0.80643 0.60305
 H444 H 1.07033 0.74637 0.67296
 H445 H 1.10665 0.73298 0.64831
 H446 H 1.05914 0.72742 0.58494
 H447 H 1.02378 0.74081 0.61104
 C448 C 1.04978 0.82673 0.69432
 C449 C 0.98971 0.69472 0.71658
 C450 C 1.08583 0.72918 0.61455
 C451 C 0.94972 0.77900 0.61790
 C452 C 0.54708 0.72610 0.34128
 H453 H 0.55830 0.74212 0.34143
 C454 C 0.55622 0.70612 0.32931
 H455 H 0.57439 0.70693 0.32008
 C456 C 0.51075 0.70483 0.35475
 H457 H 0.49357 0.70384 0.36549
 C458 C 0.51896 0.68463 0.34268
 H459 H 0.50793 0.66847 0.34428
 N460 N 0.52485 0.72505 0.35400
 C461 C 0.48504 0.78934 0.36113
 H462 H 0.47628 0.78480 0.37886
 C463 C 0.47526 0.80765 0.34685
 H464 H 0.45914 0.81685 0.35416
 C465 C 0.51759 0.78386 0.33147
 H466 H 0.53398 0.77435 0.32548
 C467 C 0.50890 0.80279 0.31688
 H468 H 0.51859 0.80716 0.29952
 Zn469 Zn 0.51563 0.75140 0.37348
 N470 N 0.50536 0.77728 0.35299
 C471 C 0.55526 0.78163 0.38556
 N472 N 0.54405 0.76054 0.39159
 C473 C 0.55394 0.74561 0.40883
 C474 C 0.57542 0.75216 0.42144
 C475 C 0.57723 0.78842 0.39691
 C476 C 0.46627 0.73751 0.38330
 C477 C 0.44529 0.72969 0.39697
 C478 C 0.46900 0.73269 0.43436
 C479 C 0.48952 0.74079 0.41994
 N480 N 0.48802 0.74243 0.39478
 H481 H 0.54758 0.79305 0.37141
 H482 H 0.54510 0.72861 0.41287
 H483 H 0.58224 0.74029 0.43571
 H484 H 0.58613 0.80480 0.39060
 H485 H 0.46542 0.73922 0.36331
 H486 H 0.42847 0.72513 0.38733
 H487 H 0.47060 0.73094 0.45430
 H488 H 0.50664 0.74543 0.42889
 C489 C 0.48685 0.81452 0.32406
 C490 C 0.54222 0.68497 0.33030
 C491 C 0.44663 0.72677 0.42279
 C492 C 0.58757 0.77388 0.41552
 C493 C 0.36125 -0.03050 0.22744
 C494 C 0.11977 1.02927 0.73667
 C495 C 0.61045 0.48679 0.26913
 C496 C 0.85212 0.52366 0.76576
 C497 C 0.24683 0.35044 -0.00006
 C498 C 0.74741 0.12143 1.01432
 C499 C 0.25393 0.62757 0.50068
 C500 C 0.77422 0.86619 0.50561
 C501 C -0.00108 0.25640 0.36438
 C502 C 0.99183 0.74278 0.12507
 C503 C 0.49143 0.24488 0.62429
 C504 C 0.49749 0.75108 0.83582
 C505 C 0.47958 -0.13330 0.28065
 C506 C 0.45335 -0.13034 0.28111
 C507 C 0.43874 -0.14746 0.29462
 C508 C 0.45001 -0.16535 0.30862
 C509 C 0.47608 -0.16765 0.30896
 C510 C 0.49067 -0.15187 0.29401
 C511 C 0.41280 -0.14667 0.29436
 C512 C 0.40083 -0.12913 0.28103
 C513 C 0.41440 -0.11113 0.26793
 C514 C 0.44105 -0.11115 0.26872
 C515 C 0.45428 -0.09152 0.25807
 C516 C 0.44180 -0.07229 0.24759
 C517 C 0.41578 -0.07232 0.24630
 C518 C 0.40197 -0.09239 0.25526
 C519 C 0.37612 -0.09296 0.25120
 C520 C 0.36409 -0.07335 0.24153
 C521 C 0.37710 -0.05212 0.23543
 C522 C 0.40338 -0.05233 0.23651
 H523 H 0.49197 -0.12170 0.26992
 H524 H 0.43815 -0.17816 0.31863
 H525 H 0.51083 -0.15300 0.29355
 H526 H 0.40156 -0.15976 0.30466
 H527 H 0.38074 -0.12950 0.28246
 H528 H 0.47432 -0.09001 0.25866
 H529 H 0.45265 -0.05720 0.24053
 H530 H 0.36461 -0.10840 0.25519
 H531 H 0.34401 -0.07436 0.23974
 H532 H 0.41429 -0.03714 0.23003
 C533 C 0.94940 0.39312 0.78392
 C534 C 0.92806 0.40353 0.79516
 C535 C 0.91640 0.39096 0.81542
 C536 C 0.92599 0.36944 0.82417
 C537 C 0.94742 0.35971 0.81335
 C538 C 0.95885 0.37155 0.79291
 C539 C 0.89533 0.39998 0.82726
 C540 C 0.88519 0.42119 0.81939
 C541 C 0.89565 0.43434 0.79907
 C542 C 0.91784 0.42580 0.78715
 C543 C 0.92911 0.44000 0.76799
 C544 C 0.91908 0.46176 0.76080
 C545 C 0.89709 0.47002 0.77189
 C546 C 0.88480 0.45603 0.79069
 C547 C 0.86157 0.46392 0.79985
 C548 C 0.85181 0.48537 0.79198
 C549 C 0.86489 0.50066 0.77509
 C550 C 0.88705 0.49198 0.76410
 H551 H 0.95920 0.40117 0.76818
 H552 H 0.91662 0.36013 0.83960
 H553 H 0.97543 0.36436 0.78415
 H554 H 0.88661 0.39057 0.84298
 H555 H 0.86941 0.42711 0.83023
 H556 H 0.94606 0.43497 0.75844
 H557 H 0.92856 0.47215 0.74623
 H558 H 0.84982 0.45353 0.81248
 H559 H 0.83338 0.48964 0.79904
 H560 H 0.89634 0.50217 0.74928
 C561 C 0.00871 1.14351 0.77960
 C562 C 0.03480 1.13956 0.77892
 C563 C 0.05038 1.15768 0.78811
 C564 C 0.04020 1.17829 0.79805
 C565 C 0.01437 1.18178 0.79898
 C566 C -0.00124 1.16424 0.78950
 C567 C 0.07616 1.15509 0.78785
 C568 C 0.08709 1.13493 0.77857
 C569 C 0.07260 1.11629 0.76909
 C570 C 0.04601 1.11836 0.76970
 C571 C 0.03163 1.09900 0.76158
 C572 C 0.04281 1.07827 0.75344
 C573 C 0.06875 1.07607 0.75256
 C574 C 0.08394 1.09536 0.75972
 C575 C 0.11001 1.09303 0.75698
 C576 C 0.12049 1.07197 0.74939
 C577 C 0.10573 1.05201 0.74412
 C578 C 0.07961 1.05470 0.74462
 H579 H -0.00454 1.13099 0.77260
 H580 H 0.05254 1.19138 0.80580
 H581 H -0.02129 1.16653 0.78970
 H582 H 0.08811 1.16880 0.79508
 H583 H 0.10709 1.13432 0.77978
 H584 H 0.01153 1.09909 0.76179
 H585 H 0.03098 1.06374 0.74784
 H586 H 0.12302 1.10719 0.76029
 H587 H 0.14067 1.07102 0.74808
 H588 H 0.06764 1.04047 0.73873
 C589 C 0.58573 0.63330 0.32470
 C590 C 0.57150 0.61679 0.31143
 C591 C 0.54865 0.62444 0.30144
 C592 C 0.53931 0.64699 0.30703
 C593 C 0.55304 0.66254 0.32155
 C594 C 0.57658 0.65577 0.32963
 C595 C 0.53519 0.60942 0.28628
 C596 C 0.54402 0.58694 0.28072
 C597 C 0.56613 0.57821 0.29113
 C598 C 0.57935 0.59300 0.30770
 C599 C 0.59939 0.58333 0.32088
 C600 C 0.60701 0.56029 0.31724
 C601 C 0.59554 0.54624 0.29979
 C602 C 0.57529 0.55496 0.28609
 C603 C 0.56586 0.54042 0.26729
 C604 C 0.57635 0.51824 0.26245
 C605 C 0.59560 0.50901 0.27704
 C606 C 0.60504 0.52369 0.29557
 H607 H 0.60412 0.62949 0.33131
 H608 H 0.52126 0.65239 0.30032
 H609 H 0.58761 0.66760 0.34065
 H610 H 0.51774 0.61517 0.27846
 H611 H 0.53254 0.57633 0.26900
 H612 H 0.60904 0.59287 0.33492
 H613 H 0.62242 0.55357 0.32792
 H614 H 0.55137 0.54630 0.25512
 H615 H 0.56986 0.50856 0.24668
 H616 H 0.62119 0.51837 0.30593
 C617 C 0.57139 0.34141 0.21504
 C618 C 0.55829 0.36131 0.22390
 C619 C 0.53185 0.35976 0.22536
 C620 C 0.51932 0.33936 0.21738
 C621 C 0.53268 0.32010 0.20805
 C622 C 0.55878 0.32133 0.20718
 C623 C 0.51807 0.37865 0.23451
 C624 C 0.52984 0.39915 0.24232
 C625 C 0.55609 0.40174 0.24098
 C626 C 0.57048 0.38266 0.23121
 C627 C 0.59661 0.38568 0.22858
 C628 C 0.60829 0.40646 0.23534
 C629 C 0.59462 0.42500 0.24522
 C630 C 0.56841 0.42296 0.24860
 C631 C 0.55590 0.44216 0.25981
 C632 C 0.56881 0.46269 0.26644
 C633 C 0.59461 0.46518 0.26159
 C634 C 0.60726 0.44564 0.25175
 H635 H 0.59145 0.34064 0.21384
 H636 H 0.49909 0.33848 0.21844
 H637 H 0.56962 0.30690 0.19977
 H638 H 0.49786 0.37762 0.23560
 H639 H 0.51774 0.41293 0.24883
 H640 H 0.60871 0.37250 0.22088
 H641 H 0.62838 0.40801 0.23278
 H642 H 0.53620 0.44164 0.26428
 H643 H 0.55846 0.47626 0.27594
 H644 H 0.62737 0.44667 0.24906
 C645 C 0.09332 0.87934 0.69598
 C646 C 0.07904 0.89618 0.70889
 C647 C 0.05677 0.88843 0.72128
 C648 C 0.04742 0.86533 0.71752
 C649 C 0.06067 0.84962 0.70224
 C650 C 0.08428 0.85651 0.69285
 C651 C 0.04389 0.90401 0.73674
 C652 C 0.05273 0.92711 0.74003
 C653 C 0.07393 0.93592 0.72663
 C654 C 0.08636 0.92042 0.70985
 C655 C 0.10494 0.92981 0.69345
 C656 C 0.11214 0.95329 0.69425
 C657 C 0.10180 0.96816 0.71196
 C658 C 0.08291 0.95982 0.72876
 C659 C 0.07480 0.97545 0.74749
 C660 C 0.08556 0.99817 0.74949
 C661 C 0.10362 1.00679 0.73203
 C662 C 0.11129 0.99113 0.71331
 H663 H 0.11171 0.88325 0.68831
 H664 H 0.02949 0.85999 0.72561
 H665 H 0.09568 0.84432 0.68238
 H666 H 0.02695 0.89825 0.74655
 H667 H 0.04192 0.93815 0.75224
 H668 H 0.11356 0.91957 0.67898
 H669 H 0.12646 0.95972 0.68117
 H670 H 0.06133 0.96999 0.76172
 H671 H 0.08043 1.00867 0.76535
 H672 H 0.12648 0.99587 0.70055
 C673 C 0.97606 0.63419 0.74664
 C674 C 0.94972 0.63255 0.74527
 C675 C 0.93703 0.65258 0.73565
 C676 C 0.95018 0.67298 0.72759
 C677 C 0.97624 0.67407 0.72832
 C678 C 0.98904 0.65458 0.73815
 C679 C 0.91122 0.65209 0.73348
 C680 C 0.89765 0.63170 0.73935
 C681 C 0.90942 0.61083 0.74776
 C682 C 0.93559 0.61162 0.75222
 C683 C 0.94659 0.59150 0.76341
 C684 C 0.93262 0.57105 0.76920
 C685 C 0.90745 0.56945 0.76320
 C686 C 0.89570 0.58926 0.75201
 C687 C 0.87074 0.58658 0.74486
 C688 C 0.85786 0.56549 0.74922
 C689 C 0.86905 0.54570 0.76061
 C690 C 0.89396 0.54814 0.76813
 H691 H 0.98724 0.61975 0.75338
 H692 H 0.94005 0.68768 0.71950
 H693 H 1.00921 0.65496 0.73897
 H694 H 0.90139 0.66755 0.72669
 H695 H 0.87775 0.63305 0.73745
 H696 H 0.96596 0.59116 0.76831
 H697 H 0.94182 0.55611 0.77792
 H698 H 0.86067 0.60022 0.73518
 H699 H 0.83865 0.56454 0.74345
 H700 H 0.90289 0.53378 0.77799
 C701 C 0.44740 0.10851 0.23357
 C702 C 0.43661 0.09378 0.21561
 C703 C 0.43507 0.10310 0.19103
 C704 C 0.44356 0.12602 0.18501
 C705 C 0.45326 0.14069 0.20307
 C706 C 0.45561 0.13163 0.22730
 C707 C 0.42481 0.08967 0.17242
 C708 C 0.41442 0.06764 0.17786
 C709 C 0.41394 0.05812 0.20228
 C710 C 0.42667 0.07050 0.22112
 C711 C 0.42887 0.05913 0.24459
 C712 C 0.41831 0.03674 0.24957
 C713 C 0.40412 0.02536 0.23182
 C714 C 0.40122 0.03642 0.20826
 C715 C 0.38435 0.02616 0.19195
 C716 C 0.37194 0.00518 0.19812
 C717 C 0.37647 -0.00757 0.22040
 C718 C 0.39216 0.00341 0.23758
 H719 H 0.44907 0.10292 0.25270
 H720 H 0.44231 0.13266 0.16604
 H721 H 0.46317 0.14265 0.24157
 H722 H 0.42434 0.09646 0.15346
 H723 H 0.40730 0.05815 0.16234
 H724 H 0.43909 0.06697 0.25938
 H725 H 0.42066 0.02857 0.26774
 H726 H 0.37909 0.03474 0.17481
 H727 H 0.35802 -0.00031 0.18522
 H728 H 0.39453 -0.00488 0.25569
 C729 C 0.28553 0.45526 -0.12534
 C730 C 0.29154 0.43188 -0.11750
 C731 C 0.31050 0.42008 -0.13113
 C732 C 0.32345 0.43164 -0.15084
 C733 C 0.31772 0.45490 -0.15788
 C734 C 0.29839 0.46648 -0.14528
 C735 C 0.31672 0.39684 -0.12497
 C736 C 0.30465 0.38485 -0.10543
 C737 C 0.28595 0.39579 -0.09091
 C738 C 0.27962 0.41984 -0.09666
 C739 C 0.26221 0.43120 -0.08092
 C740 C 0.25187 0.41968 -0.05996
 C741 C 0.25796 0.39627 -0.05414
 C742 C 0.27423 0.38372 -0.07011
 C743 C 0.27803 0.35948 -0.06463
 C744 C 0.26858 0.34905 -0.04274
 C745 C 0.25545 0.36236 -0.02500
 C746 C 0.24826 0.38542 -0.03215
 H747 H 0.27089 0.46529 -0.11660
 H748 H 0.33799 0.42239 -0.16095
 H749 H 0.29350 0.48444 -0.15062
 H750 H 0.33126 0.38781 -0.13531
 H751 H 0.31116 0.36718 -0.10159
 H752 H 0.25679 0.44936 -0.08380
 H753 H 0.23919 0.42934 -0.04801
 H754 H 0.28806 0.34796 -0.07695
 H755 H 0.27217 0.33041 -0.03943
 H756 H 0.23570 0.39524 -0.02025
 C757 C 0.82822 0.96832 0.38280
 C758 C 0.83513 0.94612 0.39323
 C759 C 0.85393 0.93331 0.38049
 C760 C 0.86494 0.94228 0.35832
 C761 C 0.85784 0.96421 0.34819
 C762 C 0.83942 0.97713 0.36072
 C763 C 0.86172 0.91147 0.38981
 C764 C 0.85080 0.90155 0.41117
 C765 C 0.83129 0.91300 0.42411
 C766 C 0.82384 0.93599 0.41548
 C767 C 0.80526 0.94789 0.42930
 C768 C 0.79376 0.93742 0.45024
 C769 C 0.80000 0.91456 0.45817
 C770 C 0.81880 0.90207 0.44523
 C771 C 0.82347 0.87862 0.45321
 C772 C 0.80988 0.86801 0.47282
 C773 C 0.79137 0.88021 0.48634
 C774 C 0.78672 0.90381 0.47838
 H775 H 0.81411 0.97929 0.39110
 H776 H 0.87878 0.93181 0.34865
 H777 H 0.83374 0.99427 0.35356
 H778 H 0.87641 0.90182 0.38038
 H779 H 0.85830 0.88479 0.41711
 H780 H 0.79906 0.96543 0.42438
 H781 H 0.77943 0.94718 0.46006
 H782 H 0.83671 0.86737 0.44401
 H783 H 0.81368 0.84962 0.47644
 H784 H 0.77135 0.91347 0.48650
 C785 C 0.81844 0.07881 1.15739
 C786 C 0.80883 0.06690 1.13684
 C787 C 0.81372 0.04238 1.13507
 C788 C 0.82767 0.03050 1.15330
 C789 C 0.83746 0.04263 1.17364
 C790 C 0.83236 0.06700 1.17520
 C791 C 0.80497 0.02985 1.11491
 C792 C 0.79212 0.04125 1.09602
 C793 C 0.78716 0.06575 1.09666
 C794 C 0.79520 0.07867 1.11771
 C795 C 0.78965 0.10303 1.11881
 C796 C 0.77827 0.11477 1.09940
 C797 C 0.77154 0.10275 1.07827
 C798 C 0.77505 0.07802 1.07673
 C799 C 0.76649 0.06685 1.05512
 C800 C 0.75666 0.08006 1.03531
 C801 C 0.75561 0.10494 1.03603
 C802 C 0.76179 0.11570 1.05843
 H803 H 0.81625 0.09752 1.16007
 H804 H 0.83027 0.01161 1.15165
 H805 H 0.84018 0.07774 1.18950
 H806 H 0.80855 0.01105 1.11344
 H807 H 0.78659 0.03034 1.08090
 H808 H 0.79406 0.11381 1.13436
 H809 H 0.77504 0.13364 1.10083
 H810 H 0.76716 0.04794 1.05289
 H811 H 0.74999 0.07053 1.01960
 H812 H 0.76008 0.13476 1.05989
 C813 C 0.31757 0.58090 0.64700
 C814 C 0.30438 0.57029 0.62760
 C815 C 0.30001 0.54546 0.62932
 C816 C 0.30916 0.53198 0.64936
 C817 C 0.32254 0.54284 0.66813
 C818 C 0.32648 0.56739 0.66673
 C819 C 0.28672 0.53419 0.61093
 C820 C 0.27787 0.54690 0.59063
 C821 C 0.28211 0.57156 0.58778
 C822 C 0.29570 0.58341 0.60655
 C823 C 0.30059 0.60794 0.60341
 C824 C 0.29302 0.62038 0.58256
 C825 C 0.28002 0.60910 0.56407
 C826 C 0.27381 0.58472 0.56652
 C827 C 0.25937 0.57475 0.54759
 C828 C 0.25280 0.58817 0.52661
 C829 C 0.26102 0.61179 0.52323
 C830 C 0.27337 0.62227 0.54303
 H831 H 0.32148 0.59960 0.64760
 H832 H 0.30577 0.51300 0.65041
 H833 H 0.33701 0.57626 0.68078
 H834 H 0.28326 0.51524 0.61214
 H835 H 0.26817 0.53671 0.57715
 H836 H 0.31073 0.61817 0.61650
 H837 H 0.29762 0.63911 0.58081
 H838 H 0.25248 0.55676 0.54859
 H839 H 0.24100 0.57994 0.51320
 H840 H 0.27823 0.64096 0.54184
 C841 C 0.19040 0.58854 0.35325
 C842 C 0.20579 0.57795 0.37123
 C843 C 0.21401 0.55449 0.36716
 C844 C 0.20544 0.54177 0.34676
 C845 C 0.18884 0.55213 0.33007
 C846 C 0.18206 0.57581 0.33316
 C847 C 0.23027 0.54373 0.38369
 C848 C 0.23842 0.55559 0.40443
 C849 C 0.23007 0.57863 0.40978
 C850 C 0.21309 0.58977 0.39319
 C851 C 0.20309 0.61196 0.39951
 C852 C 0.20935 0.62289 0.42131
 C853 C 0.22610 0.61244 0.43747
 C854 C 0.23737 0.59059 0.43172
 C855 C 0.25565 0.58189 0.44804
 C856 C 0.26113 0.59369 0.46988
 C857 C 0.24786 0.61397 0.47691
 C858 C 0.23149 0.62386 0.45956
 H859 H 0.18450 0.60671 0.35396
 H860 H 0.21105 0.52353 0.34438
 H861 H 0.17012 0.58458 0.31996
 H862 H 0.23668 0.52583 0.38069
 H863 H 0.25055 0.54582 0.41650
 H864 H 0.18956 0.62109 0.38849
 H865 H 0.20077 0.63968 0.42562
 H866 H 0.26647 0.56635 0.44416
 H867 H 0.27584 0.58682 0.48134
 H868 H 0.22274 0.64070 0.46321
 C869 C 0.67577 0.08231 0.87047
 C870 C 0.69726 0.07567 0.88349
 C871 C 0.71273 0.05816 0.87290
 C872 C 0.70663 0.04786 0.85011
 C873 C 0.68521 0.05490 0.83713
 C874 C 0.66997 0.07220 0.84805
 C875 C 0.73421 0.05103 0.88513
 C876 C 0.74065 0.06081 0.90768
 C877 C 0.72581 0.07829 0.91899
 C878 C 0.70370 0.08575 0.90667
 C879 C 0.68863 0.10307 0.91794
 C880 C 0.69461 0.11255 0.94046
 C881 C 0.71587 0.10541 0.95278
 C882 C 0.73208 0.08851 0.94229
 C883 C 0.75400 0.08308 0.95546
 C884 C 0.75885 0.09344 0.97836
 C885 C 0.74167 0.10884 0.98963
 C886 C 0.72090 0.11552 0.97559
 H887 H 0.66263 0.09514 0.87708
 H888 H 0.71921 0.03497 0.84227
 H889 H 0.65251 0.07747 0.84003
 H890 H 0.74619 0.03764 0.87722
 H891 H 0.75735 0.05411 0.91596
 H892 H 0.67182 0.10979 0.91001
 H893 H 0.68227 0.12568 0.94838
 H894 H 0.76797 0.07122 0.94838
 H895 H 0.77621 0.08938 0.98734
 H896 H 0.70850 0.12925 0.98196
 C897 C 0.73592 0.96862 0.62828
 C898 C 0.72450 0.94947 0.61606
 C899 C 0.70152 0.94057 0.62616
 C900 C 0.69026 0.95097 0.64688
 C901 C 0.70140 0.97027 0.65833
 C902 C 0.72452 0.97877 0.64913
 C903 C 0.68964 0.92141 0.61549
 C904 C 0.70035 0.91025 0.59532
 C905 C 0.72346 0.91797 0.58480
 C906 C 0.73516 0.93858 0.59452
 C907 C 0.75685 0.94765 0.58218
 C908 C 0.76721 0.93652 0.56161
 C909 C 0.75687 0.91554 0.55294
 C910 C 0.73512 0.90581 0.56471
 C911 C 0.72664 0.88358 0.55681
 C912 C 0.73893 0.87176 0.53784
 C913 C 0.75979 0.88169 0.52483
 C914 C 0.76872 0.90377 0.53316
 H915 H 0.75375 0.97600 0.62236
 H916 H 0.67266 0.94389 0.65428
 H917 H 0.73357 0.99359 0.65778
 H918 H 0.67185 0.91483 0.62291
 H919 H 0.68964 0.89589 0.58795
 H920 H 0.76605 0.96368 0.58773
 H921 H 0.78384 0.94417 0.55271
 H922 H 0.71130 0.87409 0.56582
 H923 H 0.73216 0.85419 0.53405
 H924 H 0.78614 0.91105 0.52570
 C925 C 0.20354 0.40771 0.14960
 C926 C 0.21536 0.41637 0.12744
 C927 C 0.22201 0.44075 0.12598
 C928 C 0.21491 0.45605 0.14516
 C929 C 0.20178 0.44731 0.16630
 C930 C 0.19683 0.42295 0.16856
 C931 C 0.23518 0.44979 0.10518
 C932 C 0.24158 0.43526 0.08553
 C933 C 0.23428 0.41116 0.08555
 C934 C 0.22043 0.40174 0.10662
 C935 C 0.21099 0.37834 0.10572
 C936 C 0.21465 0.36470 0.08493
 C937 C 0.22845 0.37346 0.06448
 C938 C 0.23929 0.39640 0.06475
 C939 C 0.25483 0.40339 0.04421
 C940 C 0.25787 0.38882 0.02366
 C941 C 0.24467 0.36724 0.02226
 C942 C 0.23116 0.35932 0.04362
 H943 H 0.19916 0.38924 0.15295
 H944 H 0.21931 0.47481 0.14351
 H945 H 0.18682 0.41567 0.18471
 H946 H 0.24047 0.46838 0.10398
 H947 H 0.25132 0.44372 0.06997
 H948 H 0.19963 0.37031 0.12039
 H949 H 0.20640 0.34709 0.08482
 H950 H 0.26540 0.41974 0.04380
 H951 H 0.27081 0.39454 0.00900
 H952 H 0.22233 0.34196 0.04385
 C953 C -0.10277 0.31605 0.48406
 C954 C -0.10470 0.30536 0.46061
 C955 C -0.12858 0.30469 0.44974
 C956 C -0.14950 0.31374 0.46221
 C957 C -0.14706 0.32467 0.48501
 C958 C -0.12366 0.32584 0.49586
 C959 C -0.13141 0.29555 0.42616
 C960 C -0.11085 0.28814 0.41246
 C961 C -0.08663 0.28896 0.42217
 C962 C -0.08372 0.29615 0.44719
 C963 C -0.06005 0.29363 0.45791
 C964 C -0.03979 0.28494 0.44437
 C965 C -0.04203 0.27941 0.41939
 C966 C -0.06530 0.28221 0.40778
 C967 C -0.06616 0.27902 0.38195
 C968 C -0.04529 0.27153 0.36866
 C969 C -0.02285 0.26609 0.38051
 C970 C -0.02113 0.27123 0.40589
 H971 H -0.08523 0.31804 0.49321
 H972 H -0.16762 0.31335 0.45364
 H973 H -0.12151 0.33466 0.51335
 H974 H -0.14967 0.29464 0.41795
 H975 H -0.11460 0.28112 0.39446
 H976 H -0.05682 0.29751 0.47706
 H977 H -0.02209 0.28288 0.45346
 H978 H -0.08251 0.28284 0.37135
 H979 H -0.04684 0.26923 0.34884
 H980 H -0.00356 0.26934 0.41517
 C981 C 0.37999 0.82961 0.92388
 C982 C 0.38273 0.80741 0.91254
 C983 C 0.36186 0.79174 0.91331
 C984 C 0.33867 0.79911 0.92298
 C985 C 0.33588 0.82186 0.93259
 C986 C 0.35701 0.83661 0.93370
 C987 C 0.36409 0.76901 0.90394
 C988 C 0.38654 0.76147 0.89356
 C989 C 0.40752 0.77677 0.89138
 C990 C 0.40535 0.80033 0.90034
 C991 C 0.42539 0.81639 0.89578
 C992 C 0.44668 0.80976 0.88263
 C993 C 0.44924 0.78673 0.87420
 C994 C 0.43023 0.76963 0.87941
 C995 C 0.43495 0.74602 0.87271
 C996 C 0.45660 0.74022 0.85944
 C997 C 0.47384 0.75781 0.85110
 C998 C 0.47070 0.78076 0.86037
 H999 H 0.39531 0.84190 0.92571
 H1000 H 0.32261 0.78735 0.92221
 H1001 H 0.35581 0.85382 0.94212
 H1002 H 0.34826 0.75690 0.90453
 H1003 H 0.38652 0.74385 0.88625
 H1004 H 0.42475 0.83466 0.90112
 H1005 H 0.46126 0.82289 0.87889
 H1006 H 0.42256 0.73152 0.87800
 H1007 H 0.45961 0.72178 0.85525
 H1008 H 0.48502 0.79417 0.85692
 C1009 C 1.13274 0.76727 0.03140
 C1010 C 1.10944 0.77852 0.03512
 C1011 C 1.10664 0.80159 0.02468
 C1012 C 1.12647 0.81284 0.01151
 C1013 C 1.14961 0.80172 0.00871
 C1014 C 1.15242 0.77877 0.01851
 C1015 C 1.08425 0.81363 0.02789
 C1016 C 1.06476 0.80375 0.04210
 C1017 C 1.06683 0.78121 0.05371
 C1018 C 1.08919 0.76803 0.04943
 C1019 C 1.09069 0.74496 0.05991
 C1020 C 1.07164 0.73553 0.07502
 C1021 C 1.05036 0.74864 0.08050
 C1022 C 1.04745 0.77153 0.06977
 C1023 C 1.02561 0.78403 0.07630
 C1024 C 1.00796 0.77443 0.09316
 C1025 C 1.01081 0.75178 0.10430
 C1026 C 1.03233 0.73902 0.09722
 H1027 H 1.13669 0.74982 0.03865
 H1028 H 1.12419 0.83076 0.00430
 H1029 H 1.17004 0.76969 0.01637
 H1030 H 1.08191 0.83116 0.01967
 H1031 H 1.04824 0.81437 0.04364
 H1032 H 1.10646 0.73362 0.05689
 H1033 H 1.07387 0.71787 0.08294
 H1034 H 1.02183 0.80162 0.06934
 H1035 H 0.99206 0.78518 0.09822
 H1036 H 1.03598 0.72170 0.10512
 C1037 C 0.64976 0.28538 0.57803
 C1038 C 0.62554 0.29463 0.57482
 C1039 C 0.62321 0.31499 0.55923
 C1040 C 0.64451 0.32629 0.54867
 C1041 C 0.66844 0.31739 0.55288
 C1042 C 0.67074 0.29661 0.56726
 C1043 C 0.59966 0.32409 0.55438
 C1044 C 0.57822 0.31336 0.56454
 C1045 C 0.57951 0.29336 0.58064
 C1046 C 0.60364 0.28428 0.58638
 C1047 C 0.60517 0.26550 0.60396
 C1048 C 0.58394 0.25530 0.61488
 C1049 C 0.56029 0.26312 0.60858
 C1050 C 0.55756 0.28223 0.59145
 C1051 C 0.53296 0.28932 0.58603
 C1052 C 0.51220 0.27741 0.59664
 C1053 C 0.51489 0.25769 0.61276
 C1054 C 0.53936 0.25172 0.61950
 H1055 H 0.65322 0.26929 0.58843
 H1056 H 0.64242 0.34238 0.53760
 H1057 H 0.68889 0.28888 0.57016
 H1058 H 0.59775 0.33962 0.54241
 H1059 H 0.56085 0.32150 0.55971
 H1060 H 0.62263 0.25849 0.61017
 H1061 H 0.58611 0.24088 0.62825
 H1062 H 0.52901 0.30379 0.57343
 H1063 H 0.49373 0.28341 0.59189
 H1064 H 0.54263 0.23817 0.63350
 C1065 C 0.36390 0.16652 0.55610
 C1066 C 0.38314 0.18224 0.54768
 C1067 C 0.38507 0.18763 0.52186
 C1068 C 0.36733 0.17866 0.50554
 C1069 C 0.34824 0.16345 0.51445
 C1070 C 0.34686 0.15731 0.53970
 C1071 C 0.40472 0.20181 0.51251
 C1072 C 0.42281 0.21047 0.52815
 C1073 C 0.42145 0.20591 0.55402
 C1074 C 0.40065 0.19247 0.56401
 C1075 C 0.39763 0.19024 0.59005
 C1076 C 0.41464 0.20023 0.60580
 C1077 C 0.43564 0.21233 0.59633
 C1078 C 0.43975 0.21493 0.57039
 C1079 C 0.46226 0.22607 0.56201
 C1080 C 0.47919 0.23532 0.57874
 C1081 C 0.47403 0.23446 0.60450
 C1082 C 0.45245 0.22200 0.61288
 H1083 H 0.36181 0.16048 0.57513
 H1084 H 0.36862 0.18311 0.48588
 H1085 H 0.33228 0.14542 0.54686
 H1086 H 0.40631 0.20605 0.49283
 H1087 H 0.43725 0.22143 0.51950
 H1088 H 0.38173 0.18156 0.59896
 H1089 H 0.41134 0.19835 0.62567
 H1090 H 0.46767 0.22730 0.54263
 H1091 H 0.49641 0.24275 0.57113
 H1092 H 0.44857 0.22024 0.63268
 C1093 C 0.83391 0.68792 0.10659
 C1094 C 0.85073 0.70350 0.09358
 C1095 C 0.84327 0.71290 0.07030
 C1096 C 0.82033 0.70621 0.06031
 C1097 C 0.80465 0.68979 0.07291
 C1098 C 0.81139 0.68116 0.09630
 C1099 C 0.85900 0.72842 0.05676
 C1100 C 0.88252 0.73415 0.06523
 C1101 C 0.89135 0.72444 0.08770
 C1102 C 0.87489 0.70949 0.10251
 C1103 C 0.88330 0.70070 0.12554
 C1104 C 0.90712 0.70572 0.13354
 C1105 C 0.92362 0.71959 0.11897
 C1106 C 0.91614 0.72909 0.09589
 C1107 C 0.93417 0.74206 0.08157
 C1108 C 0.95815 0.74616 0.09029
 C1109 C 0.96537 0.73807 0.11404
 C1110 C 0.94776 0.72372 0.12747
 H1111 H 0.83774 0.68008 0.12445
 H1112 H 0.81526 0.71286 0.04210
 H1113 H 0.79934 0.66871 0.10654
 H1114 H 0.85323 0.73597 0.03916
 H1115 H 0.89335 0.74636 0.05364
 H1116 H 0.87194 0.68980 0.13801
 H1117 H 0.91273 0.69848 0.15133
 H1118 H 0.93062 0.74887 0.06318
 H1119 H 0.97072 0.75527 0.07749
 H1120 H 0.95302 0.71497 0.14461
 C1121 C 0.61658 0.73635 0.95051
 C1122 C 0.59713 0.72208 0.94123
 C1123 C 0.59676 0.69766 0.94801
 C1124 C 0.61481 0.68824 0.96372
 C1125 C 0.63412 0.70250 0.97232
 C1126 C 0.63486 0.72659 0.96563
 C1127 C 0.57882 0.68253 0.93857
 C1128 C 0.56181 0.69080 0.92154
 C1129 C 0.56166 0.71482 0.91370
 C1130 C 0.57866 0.73096 0.92477
 C1131 C 0.57657 0.75538 0.91903
 C1132 C 0.55943 0.76362 0.90201
 C1133 C 0.54423 0.74787 0.88952
 C1134 C 0.54511 0.72326 0.89512
 C1135 C 0.52960 0.70810 0.88158
 C1136 C 0.51464 0.71695 0.86281
 C1137 C 0.51481 0.74122 0.85615
 C1138 C 0.52839 0.75663 0.87116
 H1139 H 0.61876 0.75488 0.94569
 H1140 H 0.61448 0.66944 0.96839
 H1141 H 0.64977 0.73787 0.97198
 H1142 H 0.57831 0.66390 0.94392
 H1143 H 0.54874 0.67784 0.91509
 H1144 H 0.58771 0.76869 0.92773
 H1145 H 0.55857 0.78251 0.89809
 H1146 H 0.52888 0.68919 0.88461
 H1147 H 0.50274 0.70449 0.85359
 H1148 H 0.52716 0.77561 0.86809
 C1149 C 0.15550 0.22063 0.41151
 C1150 C 0.13076 0.21283 0.41708
 C1151 C 0.12746 0.19347 0.43405
 C1152 C 0.14820 0.18156 0.44351
 C1153 C 0.17262 0.18885 0.43689
 C1154 C 0.17597 0.20881 0.42125
 C1155 C 0.10350 0.18584 0.44124
 C1156 C 0.08256 0.19685 0.43182
 C1157 C 0.08474 0.21559 0.41410
 C1158 C 0.10927 0.22340 0.40629
 C1159 C 0.11156 0.24089 0.38725
 C1160 C 0.09074 0.25041 0.37618
 C1161 C 0.06676 0.24335 0.38390
 C1162 C 0.06327 0.22626 0.40328
 C1163 C 0.03838 0.22032 0.41058
 C1164 C 0.01808 0.23056 0.39870
 C1165 C 0.02152 0.24744 0.37930
 C1166 C 0.04630 0.25308 0.37177
 H1167 H 0.15977 0.23596 0.39989
 H1168 H 0.14520 0.16610 0.45552
 H1169 H 0.19454 0.21539 0.41647
 H1170 H 0.10086 0.17113 0.45434
 H1171 H 0.06483 0.18969 0.43828
 H1172 H 0.12930 0.24710 0.37978
 H1173 H 0.09349 0.26350 0.36131
 H1174 H 0.03388 0.20779 0.42539
 H1175 H -0.00057 0.22500 0.40455
 H1176 H 0.05009 0.26467 0.35586
 C1177 C 0.56214 0.10481 0.66123
 C1178 C 0.54898 0.12236 0.67448
 C1179 C 0.54743 0.11988 0.70073
 C1180 C 0.55945 0.10099 0.71298
 C1181 C 0.57352 0.08467 0.69945
 C1182 C 0.57429 0.08651 0.67357
 C1183 C 0.53454 0.13663 0.71461
 C1184 C 0.52375 0.15624 0.70317
 C1185 C 0.52544 0.15996 0.67719
 C1186 C 0.53799 0.14253 0.66260
 C1187 C 0.53974 0.14613 0.63663
 C1188 C 0.53055 0.16634 0.62532
 C1189 C 0.51891 0.18371 0.63924
 C1190 C 0.51558 0.18075 0.66523
 C1191 C 0.50271 0.19891 0.67797
 C1192 C 0.49447 0.21936 0.66542
 C1193 C 0.49918 0.22273 0.63979
 C1194 C 0.51085 0.20420 0.62702
 H1195 H 0.56394 0.10480 0.64132
 H1196 H 0.55880 0.09960 0.73308
 H1197 H 0.58473 0.07383 0.66277
 H1198 H 0.53314 0.13478 0.73466
 H1199 H 0.51457 0.16848 0.71533
 H1200 H 0.54852 0.13384 0.62428
 H1201 H 0.53281 0.16848 0.60535
 H1202 H 0.49860 0.19782 0.69762
 H1203 H 0.48435 0.23232 0.67602
 H1204 H 0.51422 0.20613 0.60715
 C1205 C 1.08155 0.63319 0.20841
 C1206 C 1.06282 0.63356 0.19029
 C1207 C 1.05684 0.61184 0.17893
 C1208 C 1.06877 0.59075 0.18595
 C1209 C 1.08723 0.59076 0.20390
 C1210 C 1.09348 0.61216 0.21500
 C1211 C 1.03908 0.61123 0.16049
 C1212 C 1.02759 0.63183 0.15239
 C1213 C 1.03323 0.65400 0.16268
 C1214 C 1.05025 0.65472 0.18271
 C1215 C 1.05396 0.67652 0.19456
 C1216 C 1.04222 0.69707 0.18654
 C1217 C 1.02677 0.69694 0.16607
 C1218 C 1.02225 0.67547 0.15369
 C1219 C 1.00771 0.67653 0.13220
 C1220 C 0.99786 0.69785 0.12367
 C1221 C 1.00140 0.71914 0.13641
 C1222 C 1.01629 0.71834 0.15761
 H1223 H 1.08778 0.64889 0.21754
 H1224 H 1.06406 0.57432 0.17699
 H1225 H 1.10758 0.61263 0.22907
 H1226 H 1.03417 0.59464 0.15199
 H1227 H 1.01391 0.62966 0.13828
 H1228 H 1.06556 0.67826 0.21048
 H1229 H 1.04565 0.71337 0.19624
 H1230 H 1.00443 0.66140 0.12084
 H1231 H 0.98792 0.69778 0.10642
 H1232 H 1.02056 0.73449 0.16720
 C1233 C 0.99044 0.88715 0.18957
 C1234 C 0.97957 0.86489 0.19631
 C1235 C 0.95854 0.86474 0.21275
 C1236 C 0.94914 0.88598 0.22209
 C1237 C 0.95946 0.90796 0.21446
 C1238 C 0.98040 0.90825 0.19837
 C1239 C 0.94644 0.84345 0.21925
 C1240 C 0.95362 0.82241 0.20846
 C1241 C 0.97379 0.82173 0.19118
 C1242 C 0.98803 0.84297 0.18638
 C1243 C 1.01004 0.84157 0.17161
 C1244 C 1.01667 0.82067 0.16009
 C1245 C 1.00127 0.80061 0.16220
 C1246 C 0.97988 0.80070 0.17805
 C1247 C 0.96501 0.77993 0.17936
 C1248 C 0.96971 0.76106 0.16367
 C1249 C 0.98932 0.76188 0.14575
 C1250 C 1.00662 0.78085 0.14765
 H1251 H 1.00598 0.88896 0.17660
 H1252 H 0.93330 0.88534 0.23496
 H1253 H 0.98861 0.92489 0.19180
 H1254 H 0.93060 0.84318 0.23215
 H1255 H 0.94297 0.80688 0.21416
 H1256 H 1.02264 0.85641 0.16866
 H1257 H 1.03343 0.82058 0.14843
 H1258 H 0.94885 0.77802 0.19151
 H1259 H 0.95732 0.74613 0.16584
 H1260 H 1.02393 0.78103 0.13693
 C1261 C 0.46356 0.37447 0.71694
 C1262 C 0.45023 0.35991 0.70058
 C1263 C 0.42638 0.36774 0.69324
 C1264 C 0.41654 0.38903 0.70190
 C1265 C 0.42975 0.40311 0.71828
 C1266 C 0.45341 0.39565 0.72562
 C1267 C 0.41224 0.35433 0.67730
 C1268 C 0.42142 0.33352 0.66772
 C1269 C 0.44543 0.32527 0.67354
 C1270 C 0.45974 0.33815 0.69094
 C1271 C 0.48296 0.32880 0.69802
 C1272 C 0.49225 0.30806 0.68784
 C1273 C 0.47909 0.29604 0.66984
 C1274 C 0.45558 0.30457 0.66240
 C1275 C 0.44364 0.29270 0.64317
 C1276 C 0.45449 0.27337 0.63180
 C1277 C 0.47757 0.26415 0.63941
 C1278 C 0.48970 0.27600 0.65861
 H1279 H 0.48190 0.37011 0.72329
 H1280 H 0.39850 0.39479 0.69550
 H1281 H 0.46405 0.40605 0.73838
 H1282 H 0.39378 0.36002 0.67206
 H1283 H 0.40891 0.32413 0.65598
 H1284 H 0.49445 0.33706 0.71157
 H1285 H 0.51022 0.30166 0.69375
 H1286 H 0.42641 0.29860 0.63536
 H1287 H 0.44481 0.26669 0.61604
 H1288 H 0.50801 0.27012 0.66409
 C1289 C 0.41548 0.63081 0.77578
 C1290 C 0.44061 0.63867 0.77365
 C1291 C 0.45915 0.62157 0.76837
 C1292 C 0.45246 0.59770 0.76488
 C1293 C 0.42755 0.59027 0.76781
 C1294 C 0.40920 0.60700 0.77310
 C1295 C 0.48429 0.62824 0.76747
 C1296 C 0.49163 0.65111 0.77337
 C1297 C 0.47391 0.66851 0.77966
 C1298 C 0.44800 0.66260 0.77805
 C1299 C 0.43031 0.68070 0.78144
 C1300 C 0.43740 0.70297 0.78927
 C1301 C 0.46227 0.70794 0.79427
 C1302 C 0.48106 0.69126 0.78859
 C1303 C 0.50604 0.69769 0.79347
 C1304 C 0.51143 0.71809 0.80668
 C1305 C 0.49215 0.73246 0.81587
 C1306 C 0.46817 0.72889 0.80648
 H1307 H 0.40032 0.64238 0.78055
 H1308 H 0.46671 0.58470 0.76094
 H1309 H 0.38982 0.60156 0.77531
 H1310 H 0.49856 0.61538 0.76313
 H1311 H 0.51143 0.65460 0.77298
 H1312 H 0.41068 0.67811 0.77840
 H1313 H 0.42305 0.71599 0.79273
 H1314 H 0.52168 0.68670 0.78870
 H1315 H 0.53059 0.72158 0.81152
 H1316 H 0.45345 0.74134 0.81059
 C1317 C -0.01013 0.12506 0.26987
 C1318 C -0.01992 0.13380 0.29255
 C1319 C -0.03717 0.11910 0.30621
 C1320 C -0.04361 0.09662 0.29789
 C1321 C -0.03387 0.08825 0.27553
 C1322 C -0.01728 0.10269 0.26141
 C1323 C -0.04822 0.12685 0.32813
 C1324 C -0.04326 0.14928 0.33659
 C1325 C -0.02658 0.16489 0.32361
 C1326 C -0.01370 0.15665 0.30198
 C1327 C 0.00522 0.17132 0.29100
 C1328 C 0.01120 0.19332 0.30081
 C1329 C -0.00218 0.20205 0.32117
 C1330 C -0.02181 0.18821 0.33218
 C1331 C -0.03596 0.19818 0.35154
 C1332 C -0.02993 0.22015 0.36072
 C1333 C -0.01001 0.23408 0.35058
 C1334 C 0.00410 0.22435 0.33089
 H1335 H 0.00252 0.13532 0.25799
 H1336 H -0.05701 0.08579 0.30856
 H1337 H -0.00978 0.09663 0.24385
 H1338 H -0.06111 0.11549 0.33881
 H1339 H -0.05228 0.15353 0.35396
 H1340 H 0.01634 0.16589 0.27524
 H1341 H 0.02625 0.20372 0.29216
 H1342 H -0.05199 0.18947 0.36017
 H1343 H -0.04066 0.22551 0.37683
 H1344 H 0.02037 0.23388 0.32350
 C1345 C 0.05998 0.40144 0.32371
 C1346 C 0.05074 0.38174 0.31078
 C1347 C 0.05155 0.38305 0.28448
 C1348 C 0.06243 0.40285 0.27191
 C1349 C 0.07246 0.42173 0.28515
 C1350 C 0.07070 0.42089 0.31109
 C1351 C 0.04186 0.36444 0.27089
 C1352 C 0.03177 0.34428 0.28278
 C1353 C 0.03129 0.34174 0.30890
 C1354 C 0.04111 0.36076 0.32310
 C1355 C 0.04168 0.35794 0.34915
 C1356 C 0.03330 0.33732 0.36098
 C1357 C 0.02372 0.31871 0.34750
 C1358 C 0.02199 0.32060 0.32140
 C1359 C 0.01101 0.30120 0.30915
 C1360 C 0.00317 0.28057 0.32231
 C1361 C 0.00656 0.27831 0.34804
 C1362 C 0.01611 0.29807 0.36031
 H1363 H 0.05944 0.40249 0.34362
 H1364 H 0.06327 0.40350 0.25179
 H1365 H 0.07838 0.43508 0.32187
 H1366 H 0.04227 0.36538 0.25078
 H1367 H 0.02503 0.33064 0.27089
 H1368 H 0.04912 0.37111 0.36114
 H1369 H 0.03452 0.33588 0.38101
 H1370 H 0.00790 0.30153 0.28947
 H1371 H -0.00581 0.26669 0.31219
 H1372 H 0.01807 0.29708 0.38029
 C1373 C 0.59759 0.87458 0.79528
 C1374 C 0.57311 0.86718 0.78950
 C1375 C 0.55720 0.88422 0.77857
 C1376 C 0.56593 0.90735 0.77297
 C1377 C 0.59030 0.91425 0.77866
 C1378 C 0.60592 0.89767 0.78995
 C1379 C 0.53257 0.87819 0.77354
 C1380 C 0.52300 0.85585 0.77987
 C1381 C 0.53795 0.83829 0.79101
 C1382 C 0.56371 0.84373 0.79485
 C1383 C 0.57922 0.82555 0.80389
 C1384 C 0.56959 0.80340 0.81080
 C1385 C 0.54415 0.79852 0.80930
 C1386 C 0.52798 0.81562 0.79890
 C1387 C 0.50241 0.80939 0.79747
 C1388 C 0.49316 0.78818 0.80808
 C1389 C 0.50881 0.77255 0.82097
 C1390 C 0.53469 0.77688 0.81904
 H1391 H 0.61067 0.86312 0.80437
 H1392 H 0.55358 0.92017 0.76455
 H1393 H 0.62489 0.90249 0.79440
 H1394 H 0.52035 0.89108 0.76505
 H1395 H 0.50370 0.85287 0.77563
 H1396 H 0.59905 0.82782 0.80578
 H1397 H 0.58215 0.79020 0.81821
 H1398 H 0.48884 0.82084 0.78915
 H1399 H 0.47331 0.78454 0.80734
 H1400 H 0.54757 0.76395 0.82631
 C1401 C 0.65859 0.53941 0.11575
 C1402 C 0.66264 0.54501 0.14077
 C1403 C 0.67668 0.56572 0.14537
 C1404 C 0.68443 0.58104 0.12576
 C1405 C 0.67940 0.57599 0.10077
 C1406 C 0.66693 0.55439 0.09628
 C1407 C 0.68295 0.57115 0.16959
 C1408 C 0.67522 0.55667 0.18949
 C1409 C 0.66007 0.53645 0.18605
 C1410 C 0.65320 0.53087 0.16131
 C1411 C 0.63619 0.51201 0.15802
 C1412 C 0.62584 0.49940 0.17815
 C1413 C 0.63260 0.50444 0.20230
 C1414 C 0.65053 0.52235 0.20660
 C1415 C 0.65758 0.52576 0.23140
 C1416 C 0.64591 0.51318 0.25108
 C1417 C 0.62699 0.49631 0.24704
 C1418 C 0.62070 0.49217 0.22221
 H1419 H 0.64914 0.52342 0.11048
 H1420 H 0.69563 0.59635 0.13027
 H1421 H 0.66196 0.54936 0.07779
 H1422 H 0.69392 0.58689 0.17324
 H1423 H 0.68056 0.56242 0.20755
 H1424 H 0.62949 0.50725 0.14010
 H1425 H 0.61219 0.48561 0.17473
 H1426 H 0.67192 0.53820 0.23630
 H1427 H 0.65115 0.51735 0.26977
 H1428 H 0.60554 0.48023 0.21805
 C1429 C 0.22856 1.06605 0.60969
 C1430 C 0.20305 1.05992 0.61346
 C1431 C 0.18759 1.06036 0.59240
 C1432 C 0.19741 1.06669 0.56880
 C1433 C 0.22241 1.07359 0.56567
 C1434 C 0.23793 1.07296 0.58621
 C1435 C 0.16221 1.05517 0.59505
 C1436 C 0.15143 1.05069 0.61830
 C1437 C 0.16576 1.05087 0.63996
 C1438 C 0.19217 1.05419 0.63740
 C1439 C 0.20670 1.05161 0.65883
 C1440 C 0.19574 1.04649 0.68203
 C1441 C 0.16987 1.04444 0.68497
 C1442 C 0.15453 1.04729 0.66405
 C1443 C 0.12845 1.04705 0.66813
 C1444 C 0.11813 1.04220 0.69156
 C1445 C 0.13317 1.03708 0.71203
 C1446 C 0.15922 1.03942 0.70870
 H1447 H 0.24156 1.06661 0.62462
 H1448 H 0.18523 1.06752 0.55301
 H1449 H 0.25736 1.07831 0.58414
 H1450 H 0.15041 1.05505 0.57898
 H1451 H 0.13175 1.04660 0.61863
 H1452 H 0.22678 1.05282 0.65820
 H1453 H 0.20766 1.04431 0.69787
 H1454 H 0.11543 1.05086 0.65368
 H1455 H 0.09797 1.04159 0.69365
 H1456 H 0.17133 1.03733 0.72436
 C1457 C 0.20586 0.92985 0.83350
 C1458 C 0.19560 0.95266 0.83567
 C1459 C 0.19272 0.96171 0.85985
 C1460 C 0.19977 0.94836 0.88079
 C1461 C 0.20936 0.92518 0.87873
 C1462 C 0.21246 0.91650 0.85442
 C1463 C 0.18222 0.98396 0.86322
 C1464 C 0.17307 0.99683 0.84328
 C1465 C 0.17425 0.98800 0.81899
 C1466 C 0.18722 0.96639 0.81485
 C1467 C 0.19106 0.95920 0.79011
 C1468 C 0.18112 0.97186 0.77028
 C1469 C 0.16631 0.99169 0.77434
 C1470 C 0.16261 0.99994 0.79875
 C1471 C 0.14595 1.01882 0.80222
 C1472 C 0.13321 1.02873 0.78244
 C1473 C 0.13723 1.02123 0.75785
 C1474 C 0.15424 1.00260 0.75424
 H1475 H 0.20857 0.92149 0.81587
 H1476 H 0.19579 0.95580 0.89874
 H1477 H 0.22095 0.89958 0.85090
 H1478 H 0.18052 0.99132 0.88159
 H1479 H 0.16541 1.01392 0.84747
 H1480 H 0.20188 0.94387 0.78541
 H1481 H 0.18430 0.96552 0.75164
 H1482 H 0.14091 1.02527 0.82031
 H1483 H 0.11915 1.04159 0.78713
 H1484 H 0.15702 0.99563 0.73582
 C1485 C 0.72627 0.43275 0.37645
 C1486 C 0.70139 0.44109 0.37685
 C1487 C 0.68846 0.44123 0.40013
 C1488 C 0.70018 0.43380 0.42188
 C1489 C 0.72461 0.42535 0.42107
 C1490 C 0.73755 0.42487 0.39823
 C1491 C 0.66371 0.44841 0.40165
 C1492 C 0.65106 0.45485 0.38048
 C1493 C 0.66286 0.45470 0.35679
 C1494 C 0.68872 0.44879 0.35502
 C1495 C 0.70102 0.45111 0.33160
 C1496 C 0.68844 0.45878 0.31064
 C1497 C 0.66299 0.46374 0.31196
 C1498 C 0.64971 0.46098 0.33490
 C1499 C 0.62362 0.46414 0.33494
 C1500 C 0.61167 0.47168 0.31364
 C1501 C 0.62508 0.47685 0.29141
 C1502 C 0.65071 0.47154 0.29048
 H1503 H 0.73726 0.43142 0.35956
 H1504 H 0.68988 0.43370 0.43945
 H1505 H 0.75644 0.41823 0.39721
 H1506 H 0.65386 0.44881 0.41944
 H1507 H 0.63212 0.46054 0.38342
 H1508 H 0.72065 0.44779 0.32898
 H1509 H 0.69876 0.46074 0.29317
 H1510 H 0.61178 0.46056 0.35103
 H1511 H 0.59165 0.47418 0.31468
 H1512 H 0.66123 0.47335 0.27315
 C1513 C 0.76254 0.44600 0.65200
 C1514 C 0.78197 0.46321 0.65251
 C1515 C 0.79458 0.46910 0.62973
 C1516 C 0.78882 0.45738 0.60795
 C1517 C 0.77059 0.43955 0.60813
 C1518 C 0.75699 0.43439 0.63008
 C1519 C 0.81337 0.48628 0.62877
 C1520 C 0.82123 0.49677 0.65023
 C1521 C 0.81079 0.49018 0.67368
 C1522 C 0.78995 0.47415 0.67479
 C1523 C 0.77826 0.46930 0.69814
 C1524 C 0.78725 0.47901 0.71976
 C1525 C 0.80851 0.49350 0.71911
 C1526 C 0.82066 0.49907 0.69607
 C1527 C 0.84312 0.51224 0.69643
 C1528 C 0.85256 0.52022 0.71852
 C1529 C 0.83979 0.51627 0.74140
 C1530 C 0.81810 0.50195 0.74143
 H1531 H 0.75182 0.44054 0.66832
 H1532 H 0.79911 0.46162 0.59082
 H1533 H 0.74278 0.42061 0.63053
 H1534 H 0.82247 0.49139 0.61126
 H1535 H 0.83559 0.51014 0.64773
 H1536 H 0.76202 0.45800 0.70038
 H1537 H 0.77775 0.47469 0.73727
 H1538 H 0.85461 0.51578 0.68009
 H1539 H 0.87054 0.52911 0.71748
 H1540 H 0.80894 0.49697 0.75892
 C1541 C 0.25595 -0.07685 0.10721
 C1542 C 0.28091 -0.06898 0.10994
 C1543 C 0.29691 -0.06906 0.08860
 C1544 C 0.28822 -0.07663 0.06581
 C1545 C 0.26395 -0.08557 0.06367
 C1546 C 0.24772 -0.08516 0.08444
 C1547 C 0.32181 -0.06215 0.09009
 C1548 C 0.33178 -0.05653 0.11266
 C1549 C 0.31699 -0.05714 0.13466
 C1550 C 0.29085 -0.06179 0.13310
 C1551 C 0.27573 -0.05888 0.15465
 C1552 C 0.28599 -0.05196 0.17699
 C1553 C 0.31176 -0.04886 0.17905
 C1554 C 0.32757 -0.05250 0.15806
 C1555 C 0.35353 -0.05210 0.16138
 C1556 C 0.36339 -0.04598 0.18389
 C1557 C 0.34799 -0.03951 0.20413
 C1558 C 0.32194 -0.04216 0.20185
 H1559 H 0.24271 -0.07780 0.12258
 H1560 H 0.30078 -0.07626 0.04973
 H1561 H 0.22889 -0.09215 0.08339
 H1562 H 0.33394 -0.06164 0.07369
 H1563 H 0.35112 -0.05106 0.11220
 H1564 H 0.25573 -0.06108 0.15458
 H1565 H 0.27365 -0.04937 0.19289
 H1566 H 0.36677 -0.05691 0.14702
 H1567 H 0.38353 -0.04532 0.18528
 H1568 H 0.30954 -0.03917 0.21755
 C1569 C 0.26829 0.05987 0.32918
 C1570 C 0.28024 0.03756 0.33026
 C1571 C 0.28408 0.02725 0.35413
 C1572 C 0.27750 0.03937 0.37567
 C1573 C 0.26708 0.06190 0.37422
 C1574 C 0.26182 0.07180 0.35091
 C1575 C 0.29513 0.00514 0.35650
 C1576 C 0.30444 -0.00624 0.33584
 C1577 C 0.30338 0.00429 0.31191
 C1578 C 0.28955 0.02563 0.30875
 C1579 C 0.28618 0.03446 0.28432
 C1580 C 0.29728 0.02361 0.26388
 C1581 C 0.31286 0.00410 0.26701
 C1582 C 0.31615 -0.00566 0.29112
 C1583 C 0.33365 -0.02390 0.29389
 C1584 C 0.34728 -0.03210 0.27373
 C1585 C 0.34356 -0.02342 0.24931
 C1586 C 0.32609 -0.00503 0.24639
 H1587 H 0.26455 0.06896 0.31190
 H1588 H 0.28129 0.03159 0.39378
 H1589 H 0.25373 0.08929 0.34949
 H1590 H 0.29719 -0.00322 0.37464
 H1591 H 0.31241 -0.02344 0.33926
 H1592 H 0.27504 0.04982 0.28039
 H1593 H 0.29440 0.03116 0.24551
 H1594 H 0.33864 -0.03117 0.31172
 H1595 H 0.36173 -0.04460 0.27812
 H1596 H 0.32372 0.00297 0.22814
 C1597 C 0.79839 0.57137 0.91552
 C1598 C 0.78915 0.57194 0.89115
 C1599 C 0.76544 0.58221 0.88745
 C1600 C 0.75264 0.59314 0.90719
 C1601 C 0.76303 0.59376 0.93083
 C1602 C 0.78559 0.58218 0.93486
 C1603 C 0.75486 0.58175 0.86404
 C1604 C 0.76738 0.57151 0.84409
 C1605 C 0.79150 0.56197 0.84660
 C1606 C 0.80272 0.56269 0.87045
 C1607 C 0.82754 0.55497 0.87273
 C1608 C 0.84082 0.54633 0.85268
 C1609 C 0.82995 0.54475 0.82959
 C1610 C 0.80513 0.55225 0.82603
 C1611 C 0.79536 0.54992 0.80195
 C1612 C 0.80973 0.54055 0.78245
 C1613 C 0.83425 0.53281 0.78634
 C1614 C 0.84417 0.53585 0.80998
 H1615 H 0.81534 0.56251 0.92045
 H1616 H 0.73497 0.60176 0.90396
 H1617 H 0.79349 0.58148 0.95318
 H1618 H 0.73664 0.58937 0.86109
 H1619 H 0.75788 0.57191 0.82670
 H1620 H 0.83769 0.55606 0.88967
 H1621 H 0.85993 0.54081 0.85532
 H1622 H 0.77669 0.55520 0.79752
 H1623 H 0.80170 0.54001 0.76427
 H1624 H 0.86340 0.53099 0.81312
 C1625 C 0.15157 0.72319 0.58800
 C1626 C 0.14935 0.70353 0.57226
 C1627 C 0.12542 0.69281 0.57048
 C1628 C 0.10478 0.70163 0.58374
 C1629 C 0.10743 0.72087 0.59947
 C1630 C 0.13096 0.73158 0.60138
 C1631 C 0.12219 0.67310 0.55573
 C1632 C 0.14237 0.66307 0.54342
 C1633 C 0.16672 0.67257 0.54516
 C1634 C 0.17008 0.69380 0.55879
 C1635 C 0.19400 0.70455 0.55842
 C1636 C 0.21415 0.69443 0.54603
 C1637 C 0.21147 0.67300 0.53392
 C1638 C 0.18781 0.66161 0.53357
 C1639 C 0.18644 0.63918 0.52253
 C1640 C 0.20748 0.62894 0.51176
 C1641 C 0.23073 0.64076 0.51069
 C1642 C 0.23253 0.66264 0.52264
 H1643 H 0.16905 0.73216 0.59090
 H1644 H 0.08671 0.69299 0.58244
 H1645 H 0.13347 0.74657 0.61331
 H1646 H 0.10387 0.66509 0.55395
 H1647 H 0.13813 0.64803 0.53225
 H1648 H 0.19775 0.72109 0.56727
 H1649 H 0.23215 0.70334 0.54627
 H1650 H 0.16962 0.62858 0.52277
 H1651 H 0.20558 0.61131 0.50445
 H1652 H 0.25050 0.67139 0.52392
 C1653 C 0.62858 0.21310 1.08652
 C1654 C 0.63051 0.19096 1.07477
 C1655 C 0.60885 0.17630 1.07486
 C1656 C 0.58636 0.18379 1.08584
 C1657 C 0.58482 0.20557 1.09777
 C1658 C 0.60616 0.22017 1.09786
 C1659 C 0.60968 0.15407 1.06417
 C1660 C 0.63181 0.14549 1.05427
 C1661 C 0.65410 0.15902 1.05429
 C1662 C 0.65318 0.18260 1.06342
 C1663 C 0.67484 0.19699 1.06060
 C1664 C 0.69675 0.18844 1.04973
 C1665 C 0.69833 0.16499 1.04211
 C1666 C 0.67716 0.14983 1.04498
 C1667 C 0.68011 0.12574 1.03923
 C1668 C 0.70262 0.11742 1.02982
 C1669 C 0.72323 0.13263 1.02502
 C1670 C 0.72100 0.15649 1.03195
 H1671 H 0.64426 0.22505 1.08796
 H1672 H 0.56995 0.17247 1.08518
 H1673 H 0.60575 0.23691 1.10730
 H1674 H 0.59307 0.14298 1.06378
 H1675 H 0.63068 0.12828 1.04605
 H1676 H 0.67525 0.21524 1.06607
 H1677 H 0.71277 0.20024 1.04765
 H1678 H 0.66561 0.11263 1.04256
 H1679 H 0.70397 0.09872 1.02586
 H1680 H 0.73693 0.16837 1.03015
 C1681 C 0.84439 0.22377 0.92383
 C1682 C 0.84618 0.21052 0.94620
 C1683 C 0.87014 0.20833 0.95646
 C1684 C 0.89121 0.21901 0.94474
 C1685 C 0.88973 0.23143 0.92172
 C1686 C 0.86553 0.23383 0.91192
 C1687 C 0.87317 0.19519 0.97838
 C1688 C 0.85327 0.18274 0.98938
 C1689 C 0.82931 0.18326 0.97908
 C1690 C 0.82526 0.19869 0.95825
 C1691 C 0.80051 0.20160 0.95024
 C1692 C 0.78067 0.18890 0.96141
 C1693 C 0.78479 0.17210 0.98024
 C1694 C 0.80927 0.16884 0.98900
 C1695 C 0.81311 0.15017 1.00619
 C1696 C 0.79352 0.13555 1.01452
 C1697 C 0.76870 0.13940 1.00719
 C1698 C 0.76479 0.15791 0.98971
 H1699 H 0.82701 0.22580 0.91439
 H1700 H 0.90862 0.21779 0.95436
 H1701 H 0.86240 0.24218 0.89409
 H1702 H 0.89131 0.19395 0.98678
 H1703 H 0.85713 0.17312 1.00634
 H1704 H 0.79580 0.21390 0.93555
 H1705 H 0.76201 0.19168 0.95464
 H1706 H 0.83141 0.14534 1.01234
 H1707 H 0.79854 0.12054 1.02606
 H1708 H 0.74623 0.16057 0.98266
 C1709 C 0.40903 0.68521 0.46528
 C1710 C 0.38410 0.69109 0.45963
 C1711 C 0.38032 0.71104 0.44379
 C1712 C 0.40076 0.72315 0.43251
 C1713 C 0.42526 0.71607 0.43709
 C1714 C 0.42918 0.69749 0.45412
 C1715 C 0.35618 0.71852 0.43887
 C1716 C 0.33553 0.70638 0.44894
 C1717 C 0.33820 0.68568 0.46379
 C1718 C 0.36292 0.67771 0.46889
 C1719 C 0.36569 0.65610 0.48214
 C1720 C 0.34516 0.64274 0.49026
 C1721 C 0.32100 0.65053 0.48602
 C1722 C 0.31703 0.67224 0.47315
 C1723 C 0.29199 0.67928 0.46985
 C1724 C 0.27198 0.66528 0.47894
 C1725 C 0.27596 0.64398 0.49219
 C1726 C 0.30079 0.63640 0.49449
 H1727 H 0.41366 0.67120 0.47820
 H1728 H 0.39762 0.73792 0.41979
 H1729 H 0.44794 0.69183 0.45814
 H1730 H 0.35318 0.73392 0.42697
 H1731 H 0.31762 0.71332 0.44401
 H1732 H 0.38361 0.64850 0.48589
 H1733 H 0.34826 0.62608 0.50006
 H1734 H 0.28712 0.69554 0.46043
 H1735 H 0.25321 0.67120 0.47544
 H1736 H 0.30459 0.61924 0.50288
 C1737 C 0.64936 0.77196 0.44975
 C1738 C 0.65600 0.79622 0.45085
 C1739 C 0.63972 0.81287 0.43991
 C1740 C 0.61714 0.80552 0.42980
 C1741 C 0.61086 0.78138 0.42828
 C1742 C 0.62741 0.76472 0.43834
 C1743 C 0.64609 0.83686 0.43880
 C1744 C 0.66881 0.84468 0.44743
 C1745 C 0.68561 0.82887 0.45868
 C1746 C 0.67839 0.80456 0.46193
 C1747 C 0.69332 0.78977 0.47685
 C1748 C 0.71455 0.79857 0.48818
 C1749 C 0.72265 0.82193 0.48373
 C1750 C 0.70886 0.83692 0.46791
 C1751 C 0.71872 0.85957 0.46211
 C1752 C 0.74023 0.86772 0.47311
 C1753 C 0.75356 0.85379 0.49027
 C1754 C 0.74400 0.83065 0.49555
 H1755 H 0.66134 0.75814 0.45658
 H1756 H 0.60456 0.81892 0.42295
 H1757 H 0.62382 0.74591 0.43698
 H1758 H 0.63361 0.84973 0.43065
 H1759 H 0.67220 0.86353 0.44606
 H1760 H 0.68828 0.77156 0.48111
 H1761 H 0.72493 0.78684 0.50024
 H1762 H 0.71024 0.87149 0.44894
 H1763 H 0.74544 0.88578 0.46871
 H1764 H 0.75167 0.81982 0.51019
 C1765 C 0.12202 0.27013 -0.07286
 C1766 C 0.12491 0.28988 -0.05730
 C1767 C 0.10368 0.30422 -0.05310
 C1768 C 0.08099 0.29928 -0.06449
 C1769 C 0.07869 0.28019 -0.08045
 C1770 C 0.09927 0.26543 -0.08418
 C1771 C 0.10513 0.32367 -0.03775
 C1772 C 0.12751 0.33004 -0.02729
 C1773 C 0.14961 0.31727 -0.03196
 C1774 C 0.14812 0.29626 -0.04628
 C1775 C 0.16993 0.28260 -0.04924
 C1776 C 0.19257 0.28967 -0.03941
 C1777 C 0.19460 0.31083 -0.02662
 C1778 C 0.17315 0.32495 -0.02285
 C1779 C 0.17637 0.34688 -0.01120
 C1780 C 0.19966 0.35426 -0.00341
 C1781 C 0.22092 0.33994 -0.00594
 C1782 C 0.21812 0.31831 -0.01823
 H1783 H 0.13707 0.25827 -0.07713
 H1784 H 0.06504 0.31055 -0.06111
 H1785 H 0.09802 0.25060 -0.09653
 H1786 H 0.08879 0.33433 -0.03399
 H1787 H 0.12674 0.34510 -0.01539
 H1788 H 0.17013 0.26620 -0.05909
 H1789 H 0.20880 0.27867 -0.04233
 H1790 H 0.16153 0.35941 -0.00882
 H1791 H 0.20101 0.37186 0.00407
 H1792 H 0.23440 0.30763 -0.02202
 C1793 C 0.39445 0.29457 0.05054
 C1794 C 0.36884 0.28923 0.05490
 C1795 C 0.36254 0.27163 0.07320
 C1796 C 0.38119 0.26158 0.08799
 C1797 C 0.40633 0.26819 0.08431
 C1798 C 0.41279 0.28424 0.06505
 C1799 C 0.33771 0.26445 0.07682
 C1800 C 0.31879 0.27467 0.06303
 C1801 C 0.32392 0.29330 0.04566
 C1802 C 0.34930 0.30097 0.04196
 C1803 C 0.35434 0.32098 0.02645
 C1804 C 0.33530 0.33329 0.01523
 C1805 C 0.31058 0.32584 0.01829
 C1806 C 0.30440 0.30530 0.03275
 C1807 C 0.27894 0.29824 0.03410
 C1808 C 0.26042 0.31168 0.02251
 C1809 C 0.26660 0.33256 0.00890
 C1810 C 0.29192 0.33944 0.00746
 H1811 H 0.40104 0.30655 0.03594
 H1812 H 0.37615 0.24865 0.10247
 H1813 H 0.43211 0.28936 0.06161
 H1814 H 0.33279 0.25078 0.09057
 H1815 H 0.30013 0.26828 0.06717
 H1816 H 0.37277 0.32838 0.02351
 H1817 H 0.34005 0.34902 0.00412
 H1818 H 0.27266 0.28249 0.04414
 H1819 H 0.24116 0.30614 0.02510
 H1820 H 0.29721 0.35606 -0.00176
 C1821 C 0.90114 0.82454 0.60281
 C1822 C 0.88460 0.81221 0.58746
 C1823 C 0.89019 0.78835 0.58189
 C1824 C 0.91102 0.77719 0.59235
 C1825 C 0.92711 0.78985 0.60749
 C1826 C 0.92198 0.81352 0.61252
 C1827 C 0.87523 0.77601 0.56556
 C1828 C 0.85538 0.78707 0.55390
 C1829 C 0.84919 0.81083 0.55876
 C1830 C 0.86325 0.82308 0.57684
 C1831 C 0.85546 0.84582 0.58387
 C1832 C 0.83585 0.85698 0.57236
 C1833 C 0.82328 0.84609 0.55328
 C1834 C 0.82948 0.82287 0.54624
 C1835 C 0.81648 0.81331 0.52614
 C1836 C 0.79834 0.82645 0.51366
 C1837 C 0.79162 0.84949 0.52098
 C1838 C 0.80498 0.85888 0.54084
 H1839 H 0.89906 0.84299 0.60705
 H1840 H 0.91519 0.75893 0.58813
 H1841 H 0.93426 0.82361 0.62410
 H1842 H 0.87926 0.75773 0.56130
 H1843 H 0.84488 0.77639 0.54142
 H1844 H 0.86391 0.85544 0.59859
 H1845 H 0.83078 0.87460 0.57820
 H1846 H 0.82085 0.79620 0.51876
 H1847 H 0.79097 0.81892 0.49705
 H1848 H 0.80222 0.87686 0.54638
   
