data_POSCAR
  _audit_creation_date              2014-09-24
  _audit_creation_method            'ToBaCCo'
  _symmetry_space_group_name_H-M    'P1'
  _symmetry_Int_Tables_number       1
  _symmetry_cell_setting            triclinic
  loop_
  _symmetry_equiv_pos_as_xyz
 x,y,z
_cell_length_a 85.7892
_cell_length_b 85.8985
_cell_length_c 86.7012
_cell_angle_alpha 89.821400
_cell_angle_beta 90.030800
_cell_angle_gamma 90.111400
loop_
  _atom_site_label
  _atom_site_type_symbol
  _atom_site_fract_x
  _atom_site_fract_y
  _atom_site_fract_z
C1 C 0.35345 0.34863 0.32861
 C2 C 0.36672 0.34138 0.32250
 C3 C 0.37362 0.32868 0.33015
 C4 C 0.36720 0.32338 0.34412
 C5 C 0.35399 0.33055 0.35040
 C6 C 0.34704 0.34320 0.34261
 C7 C 0.34638 0.36110 0.32084
 C8 C 0.33295 0.36824 0.32685
 C9 C 0.32669 0.36281 0.34087
 C10 C 0.33362 0.35033 0.34877
 C11 C 0.32724 0.34475 0.36263
 C12 C 0.33412 0.33214 0.37045
 C13 C 0.34752 0.32514 0.36425
 H14 H 0.37150 0.34542 0.31163
 H15 H 0.37256 0.31371 0.35018
 H16 H 0.35140 0.36534 0.31015
 H17 H 0.31623 0.36810 0.34548
 H18 H 0.31697 0.35026 0.36739
 H19 H 0.35273 0.31524 0.37006
 C20 C 0.35341 0.84244 -0.16980
 C21 C 0.36651 0.83478 -0.17578
 C22 C 0.37301 0.82169 -0.16823
 C23 C 0.36607 0.81667 -0.15428
 C24 C 0.35309 0.82435 -0.14812
 C25 C 0.34671 0.83726 -0.15590
 C26 C 0.34685 0.85514 -0.17766
 C27 C 0.33358 0.86294 -0.17188
 C28 C 0.32716 0.85767 -0.15776
 C29 C 0.33356 0.84492 -0.14983
 C30 C 0.32687 0.83956 -0.13601
 C31 C 0.33320 0.82669 -0.12815
 C32 C 0.34634 0.81919 -0.13429
 H33 H 0.37107 0.83866 -0.18678
 H34 H 0.37103 0.80713 -0.14776
 H35 H 0.35257 0.85920 -0.18805
 H36 H 0.31669 0.86290 -0.15316
 H37 H 0.31679 0.84547 -0.13129
 H38 H 0.35112 0.80909 -0.12846
 C39 C 0.85565 0.34469 -0.17627
 C40 C 0.86886 0.33787 -0.18293
 C41 C 0.87664 0.32530 -0.17573
 C42 C 0.87078 0.31985 -0.16145
 C43 C 0.85754 0.32656 -0.15469
 C44 C 0.84997 0.33905 -0.16211
 C45 C 0.84810 0.35712 -0.18363
 C46 C 0.83473 0.36414 -0.17715
 C47 C 0.82922 0.35833 -0.16286
 C48 C 0.83666 0.34584 -0.15541
 C49 C 0.83084 0.33990 -0.14144
 C50 C 0.83819 0.32728 -0.13406
 C51 C 0.85160 0.32076 -0.14073
 H52 H 0.87332 0.34287 -0.19352
 H53 H 0.87598 0.30988 -0.15579
 H54 H 0.85314 0.36161 -0.19418
 H55 H 0.81870 0.36295 -0.15775
 H56 H 0.82062 0.34512 -0.13627
 H57 H 0.85722 0.31091 -0.13523
 C58 C 0.85036 0.85129 0.33108
 C59 C 0.86340 0.84427 0.32425
 C60 C 0.87025 0.83100 0.33091
 C61 C 0.86407 0.82492 0.34469
 C62 C 0.85107 0.83182 0.35165
 C63 C 0.84411 0.84499 0.34477
 C64 C 0.84331 0.86431 0.32423
 C65 C 0.82985 0.87119 0.33071
 C66 C 0.82381 0.86470 0.34448
 C67 C 0.83082 0.85175 0.35150
 C68 C 0.82466 0.84541 0.36514
 C69 C 0.83156 0.83231 0.37209
 C70 C 0.84479 0.82561 0.36527
 H71 H 0.86800 0.84892 0.31354
 H72 H 0.86943 0.81483 0.35003
 H73 H 0.84798 0.86850 0.31339
 H74 H 0.81392 0.86996 0.35018
 H75 H 0.81452 0.85071 0.37040
 H76 H 0.85001 0.81534 0.37039
 C77 C 0.65305 0.65600 0.32864
 C78 C 0.63907 0.66233 0.32307
 C79 C 0.63213 0.67517 0.33041
 C80 C 0.63930 0.68155 0.34355
 C81 C 0.65327 0.67535 0.34927
 C82 C 0.66020 0.66256 0.34177
 C83 C 0.66012 0.64334 0.32119
 C84 C 0.67430 0.63722 0.32665
 C85 C 0.68126 0.64379 0.33979
 C86 C 0.67436 0.65641 0.34733
 C87 C 0.68148 0.66303 0.36029
 C88 C 0.67472 0.67583 0.36778
 C89 C 0.66055 0.68188 0.36225
 H90 H 0.63353 0.65722 0.31304
 H91 H 0.63418 0.69159 0.34914
 H92 H 0.65475 0.63844 0.31097
 H93 H 0.69206 0.63900 0.34422
 H94 H 0.69229 0.65817 0.36462
 H95 H 0.65535 0.69186 0.36786
 C96 C 0.65164 0.15538 -0.16912
 C97 C 0.63779 0.16147 -0.17531
 C98 C 0.63092 0.17484 -0.16895
 C99 C 0.63794 0.18199 -0.15613
 C100 C 0.65176 0.17604 -0.14984
 C101 C 0.65868 0.16272 -0.15638
 C102 C 0.65867 0.14224 -0.17568
 C103 C 0.67284 0.13621 -0.16983
 C104 C 0.67964 0.14371 -0.15695
 C105 C 0.67268 0.15681 -0.15024
 C106 C 0.67960 0.16416 -0.13751
 C107 C 0.67277 0.17745 -0.13092
 C108 C 0.65882 0.18328 -0.13716
 H109 H 0.63253 0.15601 -0.18530
 H110 H 0.63261 0.19217 -0.15102
 H111 H 0.65334 0.13726 -0.18586
 H112 H 0.69010 0.13913 -0.15166
 H113 H 0.69047 0.15973 -0.13290
 H114 H 0.65339 0.19342 -0.13205
 C115 C 0.14744 0.65216 -0.16934
 C116 C 0.13364 0.65881 -0.17496
 C117 C 0.12667 0.67143 -0.16735
 C118 C 0.13369 0.67739 -0.15393
 C119 C 0.14747 0.67079 -0.14812
 C120 C 0.15433 0.65807 -0.15583
 C121 C 0.15443 0.63971 -0.17711
 C122 C 0.16833 0.63283 -0.17162
 C123 C 0.17496 0.63880 -0.15790
 C124 C 0.16812 0.65133 -0.15008
 C125 C 0.17504 0.65740 -0.13671
 C126 C 0.16836 0.67013 -0.12899
 C127 C 0.15453 0.67672 -0.13476
 H128 H 0.12846 0.65436 -0.18547
 H129 H 0.12834 0.68706 -0.14794
 H130 H 0.14855 0.63508 -0.18716
 H131 H 0.18588 0.63426 -0.15356
 H132 H 0.18582 0.65240 -0.13248
 H133 H 0.14920 0.68642 -0.12879
 C134 C 0.15283 0.15448 0.33021
 C135 C 0.13926 0.16167 0.32462
 C136 C 0.13317 0.17519 0.33168
 C137 C 0.14106 0.18118 0.34471
 C138 C 0.15453 0.17401 0.35050
 C139 C 0.16043 0.16061 0.34322
 C140 C 0.15895 0.14131 0.32283
 C141 C 0.17262 0.13393 0.32833
 C142 C 0.17992 0.14017 0.34157
 C143 C 0.17401 0.15341 0.34892
 C144 C 0.18165 0.15969 0.36179
 C145 C 0.17588 0.17307 0.36909
 C146 C 0.16224 0.18011 0.36343
 H147 H 0.13397 0.15705 0.31426
 H148 H 0.13649 0.19112 0.35086
 H149 H 0.15263 0.13656 0.31311
 H150 H 0.19074 0.13531 0.34583
 H151 H 0.19206 0.15409 0.36621
 H152 H 0.15783 0.19054 0.36889
 C153 C 0.64179 0.34311 0.66856
 C154 C 0.62837 0.33638 0.67499
 C155 C 0.62172 0.32294 0.66850
 C156 C 0.62858 0.31632 0.65534
 C157 C 0.64199 0.32295 0.64876
 C158 C 0.64867 0.33637 0.65542
 C159 C 0.64856 0.35635 0.67523
 C160 C 0.66217 0.36297 0.66897
 C161 C 0.66895 0.35621 0.65583
 C162 C 0.66229 0.34296 0.64902
 C163 C 0.66909 0.33613 0.63597
 C164 C 0.66249 0.32276 0.62924
 C165 C 0.64891 0.31627 0.63571
 H166 H 0.62328 0.34142 0.68527
 H167 H 0.62343 0.30605 0.65018
 H168 H 0.64340 0.36133 0.68550
 H169 H 0.67936 0.36132 0.65085
 H170 H 0.67948 0.34129 0.63098
 H171 H 0.64390 0.30583 0.63077
 C172 C 0.64575 0.84929 1.17043
 C173 C 0.63229 0.84292 1.17718
 C174 C 0.62507 0.82947 1.17103
 C175 C 0.63165 0.82275 1.15766
 C176 C 0.64504 0.82906 1.15076
 C177 C 0.65214 0.84234 1.15718
 C178 C 0.65310 0.86235 1.17693
 C179 C 0.66679 0.86850 1.17037
 C180 C 0.67295 0.86160 1.15702
 C181 C 0.66574 0.84859 1.15040
 C182 C 0.67203 0.84163 1.13720
 C183 C 0.66499 0.82840 1.13070
 C184 C 0.65146 0.82221 1.13754
 H185 H 0.62802 0.84812 1.18771
 H186 H 0.62615 0.81286 1.15217
 H187 H 0.64837 0.86751 1.18731
 H188 H 0.68336 0.86642 1.15176
 H189 H 0.68262 0.84631 1.13216
 H190 H 0.64588 0.81210 1.13251
 C191 C 0.15152 0.34696 1.17160
 C192 C 0.13848 0.34091 1.17932
 C193 C 0.13048 0.32765 1.17373
 C194 C 0.13594 0.32071 1.15998
 C195 C 0.14905 0.32658 1.15221
 C196 C 0.15687 0.33975 1.15803
 C197 C 0.15936 0.36009 1.17732
 C198 C 0.17259 0.36602 1.16974
 C199 C 0.17789 0.35873 1.15625
 C200 C 0.17012 0.34567 1.15034
 C201 C 0.17549 0.33835 1.13695
 C202 C 0.16784 0.32514 1.13109
 C203 C 0.15460 0.31935 1.13879
 H204 H 0.13433 0.34702 1.18940
 H205 H 0.13055 0.31022 1.15558
 H206 H 0.15534 0.36553 1.18785
 H207 H 0.18800 0.36332 1.15026
 H208 H 0.18584 0.34276 1.13124
 H209 H 0.14855 0.30926 1.13426
 C210 C 0.14410 0.83937 0.67504
 C211 C 0.13093 0.83266 0.68194
 C212 C 0.12317 0.81985 0.67516
 C213 C 0.12899 0.81408 0.66101
 C214 C 0.14221 0.82069 0.65401
 C215 C 0.14980 0.83337 0.66105
 C216 C 0.15168 0.85199 0.68201
 C217 C 0.16502 0.85867 0.67527
 C218 C 0.17065 0.85264 0.66128
 C219 C 0.16317 0.84001 0.65417
 C220 C 0.16893 0.83380 0.64037
 C221 C 0.16157 0.82100 0.63334
 C222 C 0.14815 0.81458 0.64021
 H223 H 0.12649 0.83793 0.69237
 H224 H 0.12376 0.80396 0.65568
 H225 H 0.14713 0.85670 0.69268
 H226 H 0.18104 0.85760 0.65610
 H227 H 0.17914 0.83898 0.63505
 H228 H 0.14251 0.80460 0.63498
 C229 C 0.34932 0.65516 0.66688
 C230 C 0.36271 0.66145 0.67380
 C231 C 0.37006 0.67464 0.66746
 C232 C 0.36399 0.68140 0.65395
 C233 C 0.35062 0.67526 0.64691
 C234 C 0.34322 0.66212 0.65341
 C235 C 0.34177 0.64221 0.67338
 C236 C 0.32814 0.63614 0.66664
 C237 C 0.32220 0.64308 0.65316
 C238 C 0.32962 0.65603 0.64653
 C239 C 0.32355 0.66309 0.63322
 C240 C 0.33083 0.67625 0.62670
 C241 C 0.34442 0.68220 0.63360
 H242 H 0.36720 0.65628 0.68432
 H243 H 0.36971 0.69145 0.64887
 H244 H 0.34630 0.63705 0.68389
 H245 H 0.31181 0.63836 0.64779
 H246 H 0.31315 0.65833 0.62789
 H247 H 0.34997 0.69248 0.62881
 C248 C 0.35385 0.15734 1.16917
 C249 C 0.36685 0.16472 1.17581
 C250 C 0.37371 0.17804 1.16890
 C251 C 0.36729 0.18348 1.15486
 C252 C 0.35431 0.17626 1.14816
 C253 C 0.34749 0.16322 1.15538
 C254 C 0.34689 0.14439 1.17636
 C255 C 0.33346 0.13721 1.17006
 C256 C 0.32737 0.14328 1.15614
 C257 C 0.33424 0.15614 1.14883
 C258 C 0.32795 0.16208 1.13508
 C259 C 0.33470 0.17507 1.12781
 C260 C 0.34795 0.18205 1.13439
 H261 H 0.37101 0.16042 1.18680
 H262 H 0.37260 0.19310 1.14870
 H263 H 0.35162 0.14047 1.18727
 H264 H 0.31756 0.13775 1.15052
 H265 H 0.31780 0.15656 1.13001
 H266 H 0.35306 0.19225 1.12899
 C267 C 0.84907 0.65495 1.16822
 C268 C 0.86239 0.66078 1.17565
 C269 C 0.86992 0.67426 1.17015
 C270 C 0.86406 0.68181 1.15695
 C271 C 0.85074 0.67615 1.14942
 C272 C 0.84317 0.66272 1.15513
 C273 C 0.84144 0.64162 1.17384
 C274 C 0.82773 0.63590 1.16672
 C275 C 0.82206 0.64387 1.15359
 C276 C 0.82963 0.65713 1.14782
 C277 C 0.82376 0.66493 1.13483
 C278 C 0.83118 0.67835 1.12910
 C279 C 0.84473 0.68386 1.13643
 H280 H 0.86695 0.65480 1.18571
 H281 H 0.86966 0.69232 1.15274
 H282 H 0.84588 0.63624 1.18426
 H283 H 0.81202 0.63954 1.14736
 H284 H 0.81342 0.66052 1.12912
 H285 H 0.85040 0.69432 1.13220
 C286 C 0.85469 0.15254 0.67149
 C287 C 0.86826 0.15892 0.67792
 C288 C 0.87560 0.17183 0.67103
 C289 C 0.86929 0.17824 0.65746
 C290 C 0.85574 0.17195 0.65086
 C291 C 0.84838 0.15907 0.65790
 C292 C 0.84722 0.13987 0.67854
 C293 C 0.83348 0.13359 0.67224
 C294 C 0.82732 0.14007 0.65862
 C295 C 0.83465 0.15280 0.65145
 C296 C 0.82836 0.15948 0.63803
 C297 C 0.83560 0.17238 0.63098
 C298 C 0.84933 0.17849 0.63745
 H299 H 0.87292 0.15406 0.68851
 H300 H 0.87497 0.18808 0.65198
 H301 H 0.85215 0.13481 0.68892
 H302 H 0.81663 0.13542 0.65380
 H303 H 0.81785 0.15460 0.63304
 H304 H 0.85485 0.18857 0.63224
 C305 C 0.35123 0.35289 0.67079
 C306 C 0.34525 0.36654 0.67735
 C307 C 0.33207 0.37386 0.67098
 C308 C 0.32498 0.36743 0.65783
 C309 C 0.33082 0.35379 0.65115
 C310 C 0.34399 0.34646 0.65765
 C311 C 0.36417 0.34541 0.67734
 C312 C 0.36995 0.33153 0.67098
 C313 C 0.36274 0.32526 0.65781
 C314 C 0.34982 0.33263 0.65111
 C315 C 0.34249 0.32627 0.63809
 C316 C 0.32932 0.33347 0.63160
 C317 C 0.32360 0.34727 0.63818
 H318 H 0.35064 0.37128 0.68763
 H319 H 0.31492 0.37309 0.65275
 H320 H 0.36952 0.35020 0.68762
 H321 H 0.36724 0.31465 0.65276
 H322 H 0.34683 0.31551 0.63321
 H323 H 0.31355 0.35298 0.63313
 C324 C 0.34670 0.85041 0.17164
 C325 C 0.34013 0.86399 0.17778
 C326 C 0.32654 0.87043 0.17134
 C327 C 0.31961 0.86316 0.15853
 C328 C 0.32603 0.84956 0.15229
 C329 C 0.33962 0.84313 0.15886
 C330 C 0.36009 0.84386 0.17825
 C331 C 0.36653 0.83009 0.17231
 C332 C 0.35945 0.82293 0.15950
 C333 C 0.34605 0.82936 0.15273
 C334 C 0.33887 0.82216 0.14004
 C335 C 0.32526 0.82848 0.13349
 C336 C 0.31898 0.84223 0.13966
 H337 H 0.34543 0.86938 0.18779
 H338 H 0.30924 0.86814 0.15337
 H339 H 0.36532 0.84931 0.18826
 H340 H 0.36443 0.81239 0.15477
 H341 H 0.34368 0.81147 0.13547
 H342 H 0.30861 0.84728 0.13455
 C343 C 0.85051 0.35070 0.17224
 C344 C 0.84449 0.36405 0.17935
 C345 C 0.83150 0.37179 0.17310
 C346 C 0.82464 0.36610 0.15949
 C347 C 0.83052 0.35278 0.15225
 C348 C 0.84350 0.34503 0.15863
 C349 C 0.86327 0.34279 0.17863
 C350 C 0.86911 0.32924 0.17166
 C351 C 0.86213 0.32374 0.15804
 C352 C 0.84938 0.33153 0.15149
 C353 C 0.84232 0.32593 0.13800
 C354 C 0.82934 0.33356 0.13159
 C355 C 0.82354 0.34701 0.13878
 H356 H 0.84971 0.36822 0.18995
 H357 H 0.81474 0.37211 0.15448
 H358 H 0.86847 0.34700 0.18924
 H359 H 0.86669 0.31341 0.15249
 H360 H 0.84672 0.31543 0.13265
 H361 H 0.81363 0.35304 0.13383
 C362 C 0.84669 0.85039 0.67409
 C363 C 0.84060 0.86389 0.68089
 C364 C 0.82741 0.87127 0.67461
 C365 C 0.82043 0.86507 0.66129
 C366 C 0.82636 0.85160 0.65437
 C367 C 0.83953 0.84421 0.66078
 C368 C 0.85966 0.84283 0.68051
 C369 C 0.86556 0.82913 0.67384
 C370 C 0.85842 0.82314 0.66051
 C371 C 0.84547 0.83057 0.65395
 C372 C 0.83824 0.82445 0.64077
 C373 C 0.82505 0.83172 0.63438
 C374 C 0.81923 0.84533 0.64123
 H375 H 0.84594 0.86847 0.69127
 H376 H 0.81038 0.87079 0.65625
 H377 H 0.86496 0.84741 0.69090
 H378 H 0.86302 0.81271 0.65519
 H379 H 0.84266 0.81384 0.63567
 H380 H 0.80916 0.85109 0.63626
 C381 C 0.65238 0.64392 0.66731
 C382 C 0.65987 0.63054 0.67289
 C383 C 0.67373 0.62522 0.66604
 C384 C 0.68000 0.63340 0.65340
 C385 C 0.67263 0.64677 0.64766
 C386 C 0.65877 0.65207 0.65464
 C387 C 0.63869 0.64940 0.67429
 C388 C 0.63126 0.66287 0.66871
 C389 C 0.63767 0.67086 0.65604
 C390 C 0.65138 0.66559 0.64902
 C391 C 0.65790 0.67377 0.63658
 C392 C 0.67175 0.66863 0.62963
 C393 C 0.67900 0.65505 0.63517
 H394 H 0.65508 0.62443 0.68277
 H395 H 0.69059 0.62928 0.64796
 H396 H 0.63375 0.64314 0.68401
 H397 H 0.63217 0.68140 0.65185
 H398 H 0.65213 0.68411 0.63223
 H399 H 0.68978 0.65111 0.62997
 C400 C 0.65802 0.15448 0.17027
 C401 C 0.66467 0.14080 0.17610
 C402 C 0.67781 0.13417 0.16903
 C403 C 0.68416 0.14132 0.15582
 C404 C 0.67761 0.15504 0.14983
 C405 C 0.66449 0.16166 0.15710
 C406 C 0.64509 0.16116 0.17753
 C407 C 0.63850 0.17500 0.17185
 C408 C 0.64490 0.18206 0.15863
 C409 C 0.65790 0.17551 0.15127
 C410 C 0.66453 0.18271 0.13829
 C411 C 0.67771 0.17629 0.13106
 C412 C 0.68411 0.16239 0.13686
 H413 H 0.65957 0.13524 0.18615
 H414 H 0.69440 0.13637 0.15041
 H415 H 0.64009 0.15555 0.18760
 H416 H 0.63998 0.19282 0.15429
 H417 H 0.65938 0.19330 0.13377
 H418 H 0.69438 0.15747 0.13148
 C419 C 0.14875 0.64935 0.17051
 C420 C 0.15510 0.63563 0.17662
 C421 C 0.16854 0.62896 0.17012
 C422 C 0.17554 0.63615 0.15725
 C423 C 0.16931 0.64988 0.15098
 C424 C 0.15589 0.65653 0.15767
 C425 C 0.13554 0.65614 0.17720
 C426 C 0.12935 0.67008 0.17127
 C427 C 0.13646 0.67710 0.15840
 C428 C 0.14969 0.67046 0.15161
 C429 C 0.15690 0.67763 0.13895
 C430 C 0.17031 0.67116 0.13226
 C431 C 0.17639 0.65720 0.13827
 H432 H 0.14978 0.63032 0.18668
 H433 H 0.18581 0.63101 0.15209
 H434 H 0.13026 0.65076 0.18726
 H435 H 0.13166 0.68774 0.15363
 H436 H 0.15202 0.68827 0.13425
 H437 H 0.18683 0.65223 0.13327
 C438 C 0.15825 0.14433 0.66779
 C439 C 0.16549 0.13080 0.67335
 C440 C 0.17921 0.12520 0.66644
 C441 C 0.18560 0.13325 0.65377
 C442 C 0.17847 0.14677 0.64806
 C443 C 0.16475 0.15234 0.65509
 C444 C 0.14470 0.15008 0.67483
 C445 C 0.13752 0.16371 0.66929
 C446 C 0.14403 0.17155 0.65659
 C447 C 0.15759 0.16601 0.64951
 C448 C 0.16421 0.17404 0.63703
 C449 C 0.17793 0.16864 0.63002
 C450 C 0.18494 0.15492 0.63553
 H451 H 0.16063 0.12480 0.68325
 H452 H 0.19608 0.12892 0.64830
 H453 H 0.13968 0.14391 0.68457
 H454 H 0.13872 0.18221 0.65242
 H455 H 0.15862 0.18449 0.63270
 H456 H 0.19561 0.15077 0.63028
 C457 C 0.34548 0.64802 0.33323
 C458 C 0.33816 0.63503 0.32663
 C459 C 0.32429 0.62903 0.33293
 C460 C 0.31787 0.63608 0.34609
 C461 C 0.32507 0.64907 0.35281
 C462 C 0.33889 0.65513 0.34633
 C463 C 0.35916 0.65414 0.32678
 C464 C 0.36638 0.66732 0.33319
 C465 C 0.35974 0.67438 0.34625
 C466 C 0.34605 0.66837 0.35288
 C467 C 0.33935 0.67540 0.36589
 C468 C 0.32560 0.66935 0.37245
 C469 C 0.31856 0.65617 0.36582
 H470 H 0.34308 0.62978 0.31638
 H471 H 0.30730 0.63140 0.35114
 H472 H 0.36403 0.64881 0.31654
 H473 H 0.36531 0.68449 0.35132
 H474 H 0.34489 0.68550 0.37099
 H475 H 0.30781 0.65161 0.37063
 C476 C 0.34095 0.14261 0.83140
 C477 C 0.33364 0.12928 0.82548
 C478 C 0.31970 0.12367 0.83198
 C479 C 0.31316 0.13150 0.84463
 C480 C 0.32033 0.14484 0.85068
 C481 C 0.33427 0.15044 0.84405
 C482 C 0.35468 0.14836 0.82472
 C483 C 0.36186 0.16189 0.83047
 C484 C 0.35520 0.16957 0.84316
 C485 C 0.34147 0.16394 0.84998
 C486 C 0.33471 0.17170 0.86252
 C487 C 0.32077 0.16622 0.86915
 C488 C 0.31370 0.15274 0.86318
 H489 H 0.33864 0.12344 0.81558
 H490 H 0.30250 0.12716 0.84983
 H491 H 0.35961 0.14250 0.81480
 H492 H 0.36075 0.17990 0.84777
 H493 H 0.34012 0.18220 0.86694
 H494 H 0.30306 0.14833 0.86834
 C495 C 0.83618 0.64610 0.83071
 C496 C 0.82923 0.63282 0.82425
 C497 C 0.81564 0.62636 0.83075
 C498 C 0.80913 0.63326 0.84395
 C499 C 0.81594 0.64651 0.85054
 C500 C 0.82950 0.65298 0.84390
 C501 C 0.84956 0.65276 0.82406
 C502 C 0.85629 0.66627 0.83038
 C503 C 0.84963 0.67293 0.84361
 C504 C 0.83631 0.66640 0.85040
 C505 C 0.82960 0.67321 0.86347
 C506 C 0.81607 0.66685 0.87014
 C507 C 0.80933 0.65346 0.86361
 H508 H 0.83422 0.62769 0.81397
 H509 H 0.79878 0.62824 0.84914
 H510 H 0.85454 0.64765 0.81377
 H511 H 0.85488 0.68320 0.84868
 H512 H 0.83472 0.68367 0.86828
 H513 H 0.79898 0.64841 0.86877
 C514 C 0.84966 0.14662 0.33255
 C515 C 0.84322 0.13338 0.32555
 C516 C 0.82935 0.12674 0.33118
 C517 C 0.82202 0.13342 0.34406
 C518 C 0.82832 0.14666 0.35117
 C519 C 0.84219 0.15332 0.34540
 C520 C 0.86333 0.15339 0.32674
 C521 C 0.86967 0.16683 0.33355
 C522 C 0.86219 0.17342 0.34641
 C523 C 0.84850 0.16675 0.35238
 C524 C 0.84092 0.17338 0.36512
 C525 C 0.82704 0.16683 0.37090
 C526 C 0.82087 0.15343 0.36387
 H527 H 0.84883 0.12844 0.31549
 H528 H 0.81142 0.12827 0.34859
 H529 H 0.86886 0.14839 0.31667
 H530 H 0.86707 0.18370 0.35180
 H531 H 0.84564 0.18382 0.37034
 H532 H 0.81030 0.14819 0.36837
 C533 C 0.65799 0.35050 0.32896
 C534 C 0.66443 0.36374 0.32189
 C535 C 0.67788 0.37082 0.32796
 C536 C 0.68477 0.36458 0.34134
 C537 C 0.67848 0.35135 0.34851
 C538 C 0.66503 0.34425 0.34231
 C539 C 0.64475 0.34326 0.32273
 C540 C 0.63844 0.32982 0.32964
 C541 C 0.64548 0.32373 0.34302
 C542 C 0.65872 0.33084 0.34939
 C543 C 0.66588 0.32465 0.36261
 C544 C 0.67934 0.33162 0.36881
 C545 C 0.68550 0.34502 0.36171
 H546 H 0.65917 0.36835 0.31147
 H547 H 0.69502 0.37009 0.34622
 H548 H 0.63954 0.34790 0.31230
 H549 H 0.64059 0.31347 0.34851
 H550 H 0.66116 0.31420 0.36790
 H551 H 0.69576 0.35057 0.36652
 C552 C 0.64666 0.85597 0.83070
 C553 C 0.65335 0.86941 0.82427
 C554 C 0.66631 0.87655 0.83125
 C555 C 0.67248 0.87016 0.84490
 C556 C 0.66593 0.85671 0.85146
 C557 C 0.65297 0.84958 0.84435
 C558 C 0.63393 0.84866 0.82356
 C559 C 0.62746 0.83498 0.82983
 C560 C 0.63373 0.82877 0.84351
 C561 C 0.64643 0.83596 0.85078
 C562 C 0.65286 0.82957 0.86425
 C563 C 0.66585 0.83652 0.87133
 C564 C 0.67229 0.85013 0.86489
 H565 H 0.64844 0.87435 0.81382
 H566 H 0.68262 0.87544 0.85022
 H567 H 0.62930 0.85340 0.81291
 H568 H 0.62869 0.81834 0.84852
 H569 H 0.64799 0.81893 0.86900
 H570 H 0.68223 0.85562 0.87037
 C571 C 0.15081 0.35641 0.83227
 C572 C 0.15754 0.36981 0.82578
 C573 C 0.17037 0.37709 0.83288
 C574 C 0.17635 0.37087 0.84669
 C575 C 0.16976 0.35749 0.85331
 C576 C 0.15693 0.35023 0.84609
 C577 C 0.13822 0.34893 0.82503
 C578 C 0.13176 0.33527 0.83137
 C579 C 0.13784 0.32931 0.84523
 C580 C 0.15037 0.33665 0.85260
 C581 C 0.15662 0.33045 0.86622
 C582 C 0.16949 0.33753 0.87339
 C583 C 0.17596 0.35109 0.86690
 H584 H 0.15279 0.37460 0.81520
 H585 H 0.18641 0.37623 0.85209
 H586 H 0.13371 0.35350 0.81425
 H587 H 0.13278 0.31890 0.85030
 H588 H 0.15175 0.31983 0.87101
 H589 H 0.18582 0.35667 0.87244
 C590 C 0.15205 0.85432 0.32614
 C591 C 0.15833 0.86746 0.31875
 C592 C 0.17160 0.87495 0.32473
 C593 C 0.17854 0.86918 0.33828
 C594 C 0.17242 0.85603 0.34577
 C595 C 0.15912 0.84856 0.33970
 C596 C 0.13889 0.84676 0.32012
 C597 C 0.13273 0.83345 0.32740
 C598 C 0.13983 0.82780 0.34093
 C599 C 0.15297 0.83527 0.34712
 C600 C 0.16015 0.82955 0.36053
 C601 C 0.17347 0.83689 0.36659
 C602 C 0.17950 0.85016 0.35915
 H603 H 0.15283 0.87193 0.30839
 H604 H 0.18891 0.87474 0.34283
 H605 H 0.13362 0.85105 0.30957
 H606 H 0.13505 0.81765 0.34670
 H607 H 0.15555 0.81920 0.36609
 H608 H 0.18966 0.85599 0.36385
 O609 O 0.25804 1.02053 0.27370
 O610 O 0.27929 0.99012 0.25250
 O611 O 0.28002 1.02051 0.25311
 O612 O 0.25752 0.99022 0.27338
 O613 O 0.23971 0.99083 0.25504
 O614 O 0.26224 1.02114 0.23473
 O615 O 0.26146 0.99081 0.23417
 O616 O 0.24018 1.02109 0.25539
 Cu617 Cu 0.27051 1.00528 0.26500
 Cu618 Cu 0.24913 1.00605 0.24298
 C619 C 0.24545 1.02600 0.26818
 C620 C 0.27396 0.98520 0.23973
 C621 C 0.27496 1.02607 0.24048
 C622 C 0.24478 0.98532 0.26770
 O623 O 0.27007 0.48864 0.74617
 O624 O 0.25064 0.51903 0.76894
 O625 O 0.24874 0.48877 0.76745
 O626 O 0.27175 0.51894 0.74741
 O627 O 0.25339 0.52081 0.72968
 O628 O 0.23051 0.49061 0.74960
 O629 O 0.23224 0.52080 0.75124
 O630 O 0.25181 0.49056 0.72835
 Cu631 Cu 0.26214 0.50367 0.75927
 Cu632 Cu 0.24016 0.50591 0.73793
 C633 C 0.26423 0.48433 0.73340
 C634 C 0.23810 0.52511 0.76401
 C635 C 0.23571 0.48446 0.76190
 C636 C 0.26647 0.52507 0.73511
 O637 O 0.74282 -0.01639 0.27427
 O638 O 0.72301 0.01468 0.25241
 O639 O 0.72165 -0.01566 0.25273
 O640 O 0.74358 0.01388 0.27433
 O641 O 0.76226 0.01331 0.25687
 O642 O 0.74014 -0.01624 0.23509
 O643 O 0.74168 0.01409 0.23494
 O644 O 0.76131 -0.01706 0.25661
 Cu645 Cu 0.73089 -0.00084 0.26518
 Cu646 Cu 0.75321 -0.00157 0.24412
 C647 C 0.75547 -0.02206 0.26915
 C648 C 0.72905 0.01982 0.24001
 C649 C 0.72711 -0.02104 0.24023
 C650 C 0.75661 0.01874 0.26929
 O651 O 0.74818 0.47678 0.76702
 O652 O 0.72677 0.50650 0.74508
 O653 O 0.72771 0.47615 0.74490
 O654 O 0.74787 0.50713 0.76663
 O655 O 0.76650 0.50752 0.74911
 O656 O 0.74645 0.47665 0.72751
 O657 O 0.74541 0.50700 0.72757
 O658 O 0.76696 0.47721 0.74966
 Cu659 Cu 0.73576 0.49160 0.75765
 Cu660 Cu 0.75819 0.49213 0.73671
 C661 C 0.76122 0.47187 0.76212
 C662 C 0.73241 0.51191 0.73262
 C663 C 0.73370 0.47106 0.73249
 C664 C 0.76064 0.51266 0.76153
 O665 O 0.25071 0.48364 0.26867
 O666 O 0.23128 0.51439 0.24600
 O667 O 0.22957 0.48408 0.24717
 O668 O 0.25208 0.51388 0.26783
 O669 O 0.27059 0.51259 0.25023
 O670 O 0.24805 0.48259 0.22956
 O671 O 0.24978 0.51289 0.22842
 O672 O 0.26923 0.48231 0.25110
 Cu673 Cu 0.23904 0.49914 0.25916
 Cu674 Cu 0.26126 0.49744 0.23806
 C675 C 0.26332 0.47772 0.26375
 C676 C 0.23726 0.51896 0.23336
 C677 C 0.23496 0.47817 0.23488
 C678 C 0.26516 0.51838 0.26259
 O679 O 0.74557 1.01973 0.72471
 O680 O 0.72308 0.99016 0.74599
 O681 O 0.72401 1.02051 0.74578
 O682 O 0.74488 0.98938 0.72523
 O683 O 0.76282 0.98910 0.74345
 O684 O 0.74191 1.02010 0.76405
 O685 O 0.74105 0.98978 0.76419
 O686 O 0.76353 1.01947 0.74292
 Cu687 Cu 0.73259 1.00499 0.73360
 Cu688 Cu 0.75413 1.00462 0.75547
 C689 C 0.75838 1.02469 0.73016
 C690 C 0.72825 0.98481 0.75867
 C691 C 0.72939 1.02563 0.75846
 C692 C 0.75737 0.98383 0.73088
 O693 O 0.75095 0.51979 0.22535
 O694 O 0.72764 0.48979 0.24546
 O695 O 0.72810 0.52016 0.24515
 O696 O 0.74981 0.48947 0.22508
 O697 O 0.76705 0.48884 0.24395
 O698 O 0.74535 0.51982 0.26402
 O699 O 0.74490 0.48953 0.26433
 O700 O 0.76814 0.51921 0.24427
 Cu701 Cu 0.73740 0.50487 0.23337
 Cu702 Cu 0.75809 0.50432 0.25602
 C703 C 0.76354 0.52465 0.23143
 C704 C 0.73236 0.48449 0.25835
 C705 C 0.73299 0.52528 0.25799
 C706 C 0.76204 0.48378 0.23109
 O707 O 0.24834 -0.02469 0.72880
 O708 O 0.26891 0.00572 0.75060
 O709 O 0.26878 -0.02458 0.75107
 O710 O 0.24808 0.00569 0.72881
 O711 O 0.22930 0.00566 0.74618
 O712 O 0.24984 -0.02460 0.76826
 O713 O 0.25013 0.00572 0.76797
 O714 O 0.22945 -0.02468 0.74605
 Cu715 Cu 0.26040 -0.00948 0.73808
 Cu716 Cu 0.23779 -0.00949 0.75884
 C717 C 0.23539 -0.02993 0.73369
 C718 C 0.26305 0.01096 0.76299
 C719 C 0.26282 -0.02977 0.76349
 C720 C 0.23517 0.01092 0.73376
 O721 O 0.25192 0.27480 0.98542
 O722 O 0.27102 0.25091 1.01511
 O723 O 0.27199 0.25215 0.98508
 O724 O 0.25066 0.27328 1.01538
 O725 O 0.23152 0.25617 1.01391
 O726 O 0.25289 0.23498 0.98383
 O727 O 0.25188 0.23378 1.01382
 O728 O 0.23282 0.25764 0.98393
 Cu729 Cu 0.26332 0.26450 1.00038
 Cu730 Cu 0.24036 0.24392 0.99872
 C731 C 0.23912 0.27031 0.97955
 C732 C 0.26471 0.23831 1.01962
 C733 C 0.26606 0.23994 0.97925
 C734 C 0.23744 0.26832 1.01985
 O735 O 0.24372 0.77484 0.48462
 O736 O 0.26535 0.75261 0.51417
 O737 O 0.26588 0.75418 0.48413
 O738 O 0.24380 0.77379 0.51472
 O739 O 0.22600 0.75525 0.51405
 O740 O 0.24805 0.73568 0.48312
 O741 O 0.24754 0.73410 0.51314
 O742 O 0.22590 0.75632 0.48393
 Cu743 Cu 0.25646 0.76572 0.49948
 Cu744 Cu 0.23508 0.74350 0.49845
 C745 C 0.23111 0.76932 0.47919
 C746 C 0.26006 0.73956 0.51877
 C747 C 0.26076 0.74160 0.47834
 C748 C 0.23123 0.76783 0.51976
 O749 O 0.22878 0.74880 -0.01314
 O750 O 0.25204 0.76792 0.01708
 O751 O 0.25022 0.77019 -0.01288
 O752 O 0.23064 0.74641 0.01679
 O753 O 0.24874 0.72837 0.01441
 O754 O 0.26836 0.75219 -0.01517
 O755 O 0.27013 0.74987 0.01482
 O756 O 0.24689 0.73079 -0.01556
 Cu757 Cu 0.23861 0.76013 0.00222
 Cu758 Cu 0.26035 0.73850 -0.00061
 C759 C 0.23389 0.73658 -0.01961
 C760 C 0.26502 0.76214 0.02120
 C761 C 0.26261 0.76521 -0.01918
 C762 C 0.23636 0.73335 0.02073
 O763 O 0.23300 0.25115 0.48639
 O764 O 0.25584 0.27139 0.51616
 O765 O 0.25366 0.27329 0.48623
 O766 O 0.23528 0.24905 0.51627
 O767 O 0.25405 0.23171 0.51387
 O768 O 0.27240 0.25592 0.48388
 O769 O 0.27457 0.25401 0.51384
 O770 O 0.25172 0.23375 0.48400
 Cu771 Cu 0.24257 0.26297 0.50152
 Cu772 Cu 0.26508 0.24212 0.49865
 C773 C 0.23846 0.23901 0.48005
 C774 C 0.26909 0.26615 0.52015
 C775 C 0.26615 0.26870 0.47984
 C776 C 0.24153 0.23624 0.52023
 O777 O 0.74924 0.77722 0.98457
 O778 O 0.76873 0.75475 1.01513
 O779 O 0.76927 0.75450 0.98503
 O780 O 0.74829 0.77702 1.01461
 O781 O 0.72915 0.75984 1.01403
 O782 O 0.75017 0.73728 0.98480
 O783 O 0.74959 0.73758 1.01480
 O784 O 0.73017 0.75997 0.98402
 Cu785 Cu 0.76081 0.76759 0.99986
 Cu786 Cu 0.73785 0.74695 0.99936
 C787 C 0.73640 0.77244 0.97902
 C788 C 0.76247 0.74238 1.02028
 C789 C 0.76327 0.74202 0.97985
 C790 C 0.73512 0.77223 1.01941
 O791 O 0.73120 0.25025 0.51639
 O792 O 0.75316 0.22929 0.48630
 O793 O 0.75234 0.22864 0.51636
 O794 O 0.73132 0.25029 0.48628
 O795 O 0.74943 0.26855 0.48659
 O796 O 0.77048 0.24685 0.51694
 O797 O 0.77126 0.24753 0.48686
 O798 O 0.74934 0.26847 0.51667
 Cu799 Cu 0.74019 0.23780 0.50127
 Cu800 Cu 0.76194 0.25967 0.50179
 C801 C 0.73659 0.26293 0.52174
 C802 C 0.76598 0.23487 0.48142
 C803 C 0.76493 0.23405 0.52191
 C804 C 0.73676 0.26308 0.48122
 O805 O 0.77761 0.25404 -0.01706
 O806 O 0.75803 0.23140 0.01356
 O807 O 0.75725 0.23160 -0.01649
 O808 O 0.77867 0.25362 0.01307
 O809 O 0.75980 0.27100 0.01376
 O810 O 0.73832 0.24892 -0.01583
 O811 O 0.73915 0.24877 0.01420
 O812 O 0.75868 0.27136 -0.01633
 Cu813 Cu 0.76979 0.24094 -0.00179
 Cu814 Cu 0.74711 0.26176 -0.00097
 C815 C 0.77142 0.26652 -0.02202
 C816 C 0.74523 0.23624 0.01914
 C817 C 0.74414 0.23650 -0.02127
 C818 C 0.77289 0.26602 0.01855
 O819 O 0.76908 0.75592 0.48541
 O820 O 0.74990 0.73199 0.51509
 O821 O 0.74793 0.73424 0.48520
 O822 O 0.77079 0.75394 0.51539
 O823 O 0.75235 0.77166 0.51754
 O824 O 0.72951 0.75196 0.48743
 O825 O 0.73141 0.74965 0.51732
 O826 O 0.75065 0.77363 0.48758
 Cu827 Cu 0.76129 0.74226 0.50006
 Cu828 Cu 0.73914 0.76351 0.50272
 C829 C 0.76312 0.76881 0.48132
 C830 C 0.73737 0.73670 0.52130
 C831 C 0.73483 0.73976 0.48111
 C832 C 0.76544 0.76617 0.52167
 O833 O 1.01506 0.26878 0.25096
 O834 O 0.98467 0.24971 0.27439
 O835 O 1.01498 0.24783 0.27274
 O836 O 0.98481 0.27063 0.25264
 O837 O 0.98274 0.25218 0.23511
 O838 O 1.01287 0.22937 0.25523
 O839 O 0.98253 0.23124 0.25691
 O840 O 1.01299 0.25023 0.23354
 Cu841 Cu 1.00010 0.26108 0.26444
 Cu842 Cu 0.99754 0.23889 0.24347
 C843 C 1.01926 0.26275 0.23826
 C844 C 0.97834 0.23725 0.26962
 C845 C 1.01916 0.23474 0.26737
 C846 C 0.97861 0.26531 0.24043
 O847 O 0.47799 0.24022 0.72996
 O848 O 0.50812 0.21918 0.75189
 O849 O 0.47768 0.22039 0.75272
 O850 O 0.50830 0.23917 0.72931
 O851 O 0.50945 0.25845 0.74602
 O852 O 0.47890 0.23971 0.76936
 O853 O 0.50926 0.23848 0.76858
 O854 O 0.47913 0.25953 0.74664
 Cu855 Cu 0.49290 0.22779 0.73932
 Cu856 Cu 0.49429 0.25096 0.75933
 C857 C 0.47339 0.25348 0.73454
 C858 C 0.51394 0.22528 0.76392
 C859 C 0.47298 0.22690 0.76501
 C860 C 0.51415 0.25202 0.73370
 O861 O -0.00598 0.25872 0.75755
 O862 O 0.02478 0.23690 0.73735
 O863 O -0.00557 0.23716 0.73656
 O864 O 0.02434 0.25904 0.75770
 O865 O 0.02408 0.24133 0.77618
 O866 O -0.00602 0.21935 0.75494
 O867 O 0.02438 0.21913 0.75576
 O868 O -0.00629 0.24088 0.77590
 Cu869 Cu 0.00942 0.24973 0.74544
 Cu870 Cu 0.00903 0.22838 0.76754
 C871 C -0.01143 0.25349 0.77019
 C872 C 0.02987 0.22428 0.74314
 C873 C -0.01099 0.22458 0.74211
 C874 C 0.02936 0.25397 0.77054
 O875 O 0.52159 0.25850 0.26633
 O876 O 0.49160 0.23568 0.24628
 O877 O 0.52189 0.23713 0.24511
 O878 O 0.49123 0.25788 0.26667
 O879 O 0.49037 0.27569 0.24832
 O880 O 0.52072 0.25498 0.22681
 O881 O 0.49040 0.25352 0.22796
 O882 O 0.52075 0.27634 0.24800
 Cu883 Cu 0.50668 0.24552 0.25794
 Cu884 Cu 0.50545 0.26692 0.23594
 C885 C 0.52638 0.27126 0.26062
 C886 C 0.48582 0.24067 0.23373
 C887 C 0.52656 0.24256 0.23225
 C888 C 0.48554 0.27036 0.26113
 O889 O 0.97590 0.73745 0.72844
 O890 O 1.00652 0.71666 0.75022
 O891 O 0.97608 0.71601 0.74975
 O892 O 1.00628 0.73721 0.72818
 O893 O 1.00618 0.75577 0.74571
 O894 O 0.97587 0.73445 0.76740
 O895 O 1.00625 0.73518 0.76778
 O896 O 0.97583 0.75585 0.74613
 Cu897 Cu 0.99120 0.72497 0.73740
 Cu898 Cu 0.99102 0.74715 0.75852
 C899 C 0.97062 0.75023 0.73362
 C900 C 1.01168 0.72245 0.76271
 C901 C 0.97073 0.72159 0.76221
 C902 C 1.01145 0.75008 0.73323
 O903 O 0.51170 0.76551 0.24682
 O904 O 0.48205 0.74612 0.27065
 O905 O 0.51246 0.74513 0.26897
 O906 O 0.48128 0.76567 0.24765
 O907 O 0.48032 0.74633 0.23100
 O908 O 0.51117 0.72591 0.25222
 O909 O 0.48077 0.72683 0.25397
 O910 O 0.51065 0.74631 0.23002
 Cu911 Cu 0.49697 0.75753 0.26020
 Cu912 Cu 0.49561 0.73440 0.24015
 C913 C 0.51634 0.75924 0.23441
 C914 C 0.47623 0.73324 0.26639
 C915 C 0.51724 0.73203 0.26411
 C916 C 0.47545 0.75944 0.23565
 O917 O -0.01443 0.77889 0.24570
 O918 O 0.01608 0.75756 0.22473
 O919 O -0.01429 0.75741 0.22460
 O920 O 0.01594 0.77908 0.24573
 O921 O 0.01598 0.76102 0.26387
 O922 O -0.01426 0.73929 0.24267
 O923 O 0.01613 0.73949 0.24286
 O924 O -0.01437 0.76080 0.26381
 Cu925 Cu 0.00081 0.77004 0.23337
 Cu926 Cu 0.00086 0.74833 0.25512
 C927 C -0.01963 0.77349 0.25836
 C928 C 0.02139 0.74491 0.23025
 C929 C -0.01947 0.74465 0.23000
 C930 C 0.02118 0.77375 0.25839
 O931 O 0.48902 0.76185 0.75329
 O932 O 0.51952 0.73849 0.73462
 O933 O 0.48922 0.73942 0.73329
 O934 O 0.51934 0.76105 0.75455
 O935 O 0.51815 0.74381 0.77342
 O936 O 0.48774 0.72232 0.75226
 O937 O 0.51811 0.72123 0.75345
 O938 O 0.48786 0.74480 0.77233
 Cu939 Cu 0.50442 0.75192 0.74204
 Cu940 Cu 0.50284 0.73131 0.76476
 C941 C 0.48321 0.75733 0.76601
 C942 C 0.52406 0.72587 0.74083
 C943 C 0.48325 0.72722 0.73916
 C944 C 0.52394 0.75612 0.76761
 C945 C 0.38831 0.30444 0.32335
 C946 C 0.40117 0.29697 0.31688
 C947 C 0.41337 0.30561 0.31027
 C948 C 0.41260 0.32199 0.31062
 C949 C 0.39969 0.32946 0.31706
 C950 C 0.38739 0.32077 0.32343
 C951 C 0.42668 0.29710 0.30336
 C952 C 0.43618 0.30332 0.29268
 C953 C 0.44896 0.29462 0.28509
 C954 C 0.45456 0.30009 0.27087
 C955 C 0.46645 0.29225 0.26315
 C956 C 0.47313 0.27876 0.26953
 C957 C 0.46776 0.27341 0.28391
 C958 C 0.45584 0.28127 0.29166
 H959 H 0.37894 0.29743 0.32808
 H960 H 0.40150 0.28436 0.31686
 H961 H 0.42199 0.32912 0.30619
 H962 H 0.39944 0.34206 0.31726
 H963 H 0.42798 0.28499 0.30653
 H964 H 0.43398 0.31499 0.28851
 H965 H 0.44958 0.31041 0.26561
 H966 H 0.47035 0.29674 0.25212
 H967 H 0.47278 0.26314 0.28921
 H968 H 0.45226 0.27695 0.30283
 C969 C 0.38848 0.79772 0.82843
 C970 C 0.40114 0.78985 0.82205
 C971 C 0.41183 0.79759 0.81250
 C972 C 0.40972 0.81359 0.80970
 C973 C 0.39698 0.82148 0.81597
 C974 C 0.38604 0.81372 0.82546
 C975 C 0.42504 0.78856 0.80604
 C976 C 0.43390 0.79337 0.79417
 C977 C 0.44673 0.78400 0.78744
 C978 C 0.45207 0.78781 0.77260
 C979 C 0.46398 0.77925 0.76568
 C980 C 0.47086 0.76665 0.77348
 C981 C 0.46574 0.76299 0.78845
 C982 C 0.45390 0.77162 0.79541
 H983 H 0.38028 0.79092 0.83513
 H984 H 0.40245 0.77753 0.82443
 H985 H 0.41797 0.82023 0.80295
 H986 H 0.39622 0.83386 0.81383
 H987 H 0.42693 0.77711 0.81089
 H988 H 0.43124 0.80427 0.78849
 H989 H 0.44688 0.79737 0.76624
 H990 H 0.46769 0.78240 0.75414
 H991 H 0.47096 0.75348 0.79484
 H992 H 0.45062 0.76860 0.80708
 C993 C -0.10807 0.31858 0.80110
 C994 C -0.09516 0.31157 0.79423
 C995 C -0.08387 0.30400 0.80318
 C996 C -0.08562 0.30385 0.81930
 C997 C -0.09858 0.31077 0.82622
 C998 C -0.11013 0.31828 0.81728
 C999 C -0.07043 0.29671 0.79522
 C1000 C -0.06137 0.28572 0.80161
 C1001 C -0.04838 0.27795 0.79336
 C1002 C -0.04306 0.26356 0.79894
 C1003 C -0.03101 0.25567 0.79148
 C1004 C -0.02395 0.26205 0.77827
 C1005 C -0.02904 0.27660 0.77283
 C1006 C -0.04106 0.28453 0.78033
 H1007 H -0.11671 0.32360 0.79350
 H1008 H -0.09413 0.31187 0.78178
 H1009 H -0.07689 0.29872 0.82673
 H1010 H -0.09905 0.31076 0.83869
 H1011 H -0.06859 0.30000 0.78331
 H1012 H -0.06403 0.28145 0.81305
 H1013 H -0.04837 0.25828 0.80902
 H1014 H -0.02733 0.24451 0.79601
 H1015 H -0.02370 0.28192 0.76279
 H1016 H -0.04437 0.29584 0.77595
 C1017 C -0.11572 0.80696 0.32234
 C1018 C -0.10322 0.79963 0.31507
 C1019 C -0.09109 0.80841 0.30852
 C1020 C -0.09158 0.82476 0.30968
 C1021 C -0.10412 0.83209 0.31694
 C1022 C -0.11634 0.82326 0.32332
 C1023 C -0.07807 0.80004 0.30097
 C1024 C -0.06852 0.80655 0.29051
 C1025 C -0.05587 0.79790 0.28265
 C1026 C -0.05037 0.80344 0.26841
 C1027 C -0.03858 0.79557 0.26053
 C1028 C -0.03194 0.78200 0.26679
 C1029 C -0.03723 0.77661 0.28120
 C1030 C -0.04899 0.78450 0.28908
 H1031 H -0.12504 0.79985 0.32701
 H1032 H -0.10310 0.78704 0.31443
 H1033 H -0.08223 0.83195 0.30527
 H1034 H -0.10414 0.84466 0.31778
 H1035 H -0.07695 0.78776 0.30358
 H1036 H -0.07052 0.81842 0.28681
 H1037 H -0.05534 0.81382 0.26327
 H1038 H -0.03472 0.80007 0.24950
 H1039 H -0.03222 0.76630 0.28643
 H1040 H -0.05246 0.78015 0.30029
 C1041 C 0.60572 0.68728 0.33410
 C1042 C 0.59222 0.69418 0.32819
 C1043 C 0.59019 0.69599 0.31222
 C1044 C 0.60211 0.69096 0.30226
 C1045 C 0.61561 0.68408 0.30817
 C1046 C 0.61758 0.68215 0.32415
 C1047 C 0.57587 0.70369 0.30641
 C1048 C 0.57010 0.70120 0.29224
 C1049 C 0.55602 0.70902 0.28601
 C1050 C 0.54841 0.70225 0.27336
 C1051 C 0.53563 0.70956 0.26651
 C1052 C 0.53020 0.72392 0.27206
 C1053 C 0.53771 0.73066 0.28482
 C1054 C 0.55051 0.72332 0.29171
 H1055 H 0.60683 0.68585 0.34646
 H1056 H 0.58329 0.69805 0.33611
 H1057 H 0.60128 0.69267 0.28992
 H1058 H 0.62469 0.68060 0.30023
 H1059 H 0.56962 0.71111 0.31435
 H1060 H 0.57560 0.69263 0.28492
 H1061 H 0.55245 0.69131 0.26867
 H1062 H 0.53016 0.70405 0.25667
 H1063 H 0.53389 0.74177 0.28930
 H1064 H 0.55629 0.72916 0.30116
 C1065 C 0.61517 0.19773 0.82220
 C1066 C 0.60174 0.20412 0.81568
 C1067 C 0.58941 0.19451 0.81087
 C1068 C 0.59072 0.17830 0.81300
 C1069 C 0.60421 0.17191 0.81950
 C1070 C 0.61658 0.18156 0.82416
 C1071 C 0.57541 0.20196 0.80404
 C1072 C 0.56500 0.19446 0.79518
 C1073 C 0.55154 0.20234 0.78778
 C1074 C 0.54500 0.19575 0.77446
 C1075 C 0.53265 0.20306 0.76683
 C1076 C 0.52648 0.21710 0.77243
 C1077 C 0.53270 0.22345 0.78603
 C1078 C 0.54503 0.21613 0.79367
 H1079 H 0.62457 0.20546 0.82553
 H1080 H 0.60103 0.21663 0.81425
 H1081 H 0.58132 0.17050 0.80995
 H1082 H 0.60486 0.15943 0.82114
 H1083 H 0.57424 0.21439 0.80569
 H1084 H 0.56686 0.18237 0.79232
 H1085 H 0.54966 0.18505 0.76977
 H1086 H 0.52808 0.19781 0.75642
 H1087 H 0.52808 0.23415 0.79075
 H1088 H 0.54930 0.22128 0.80423
 C1089 C 1.11051 0.69472 0.82557
 C1090 C 1.09720 0.70132 0.81892
 C1091 C 1.08535 0.69185 0.81284
 C1092 C 1.08684 0.67557 0.81406
 C1093 C 1.10016 0.66899 0.82066
 C1094 C 1.11221 0.67848 0.82634
 C1095 C 1.07163 0.69939 0.80556
 C1096 C 1.06239 0.69229 0.79522
 C1097 C 1.04913 0.70007 0.78736
 C1098 C 1.04373 0.69399 0.77332
 C1099 C 1.03147 0.70112 0.76537
 C1100 C 1.02427 0.71447 0.77136
 C1101 C 1.02940 0.72035 0.78560
 C1102 C 1.04163 0.71320 0.79356
 H1103 H 1.11964 0.70234 0.82976
 H1104 H 1.09630 0.71388 0.81828
 H1105 H 1.07773 0.66784 0.81009
 H1106 H 1.10099 0.65643 0.82143
 H1107 H 1.06978 0.71156 0.80815
 H1108 H 1.06513 0.68058 0.79155
 H1109 H 1.04918 0.68380 0.76836
 H1110 H 1.02775 0.69626 0.75446
 H1111 H 1.02398 0.73051 0.79063
 H1112 H 1.04501 0.71794 0.80461
 C1113 C 1.11718 0.19877 0.32775
 C1114 C 1.10401 0.20610 0.32168
 C1115 C 1.09278 0.19766 0.31344
 C1116 C 1.09488 0.18153 0.31167
 C1117 C 1.10812 0.17417 0.31761
 C1118 C 1.11961 0.18263 0.32575
 C1119 C 1.07909 0.20617 0.30714
 C1120 C 1.06953 0.20048 0.29624
 C1121 C 1.05633 0.20935 0.28944
 C1122 C 1.05010 0.20431 0.27533
 C1123 C 1.03791 0.21242 0.26826
 C1124 C 1.03163 0.22578 0.27518
 C1125 C 1.03760 0.23065 0.28947
 C1126 C 1.04973 0.22249 0.29659
 H1127 H 1.12573 0.20606 0.33337
 H1128 H 1.10272 0.21854 0.32324
 H1129 H 1.08625 0.17438 0.30598
 H1130 H 1.10887 0.16168 0.31632
 H1131 H 1.07746 0.21795 0.31117
 H1132 H 1.07186 0.18918 0.29132
 H1133 H 1.05482 0.19416 0.26962
 H1134 H 1.03356 0.20833 0.25727
 H1135 H 1.03287 0.24079 0.29519
 H1136 H 1.05371 0.22649 0.30772
 C1137 C 0.59549 0.32487 0.68114
 C1138 C 0.58267 0.31803 0.68845
 C1139 C 0.58181 0.30182 0.69044
 C1140 C 0.59415 0.29256 0.68496
 C1141 C 0.60695 0.29941 0.67761
 C1142 C 0.60780 0.31564 0.67570
 C1143 C 0.56834 0.29520 0.69897
 C1144 C 0.56398 0.28021 0.69819
 C1145 C 0.55088 0.27357 0.70725
 C1146 C 0.54390 0.25968 0.70222
 C1147 C 0.53188 0.25275 0.71070
 C1148 C 0.52662 0.25952 0.72448
 C1149 C 0.53364 0.27338 0.72957
 C1150 C 0.54567 0.28030 0.72110
 H1151 H 0.59575 0.33739 0.67971
 H1152 H 0.57340 0.32544 0.69263
 H1153 H 0.59426 0.28010 0.68670
 H1154 H 0.61642 0.29204 0.67381
 H1155 H 0.56155 0.30322 0.70581
 H1156 H 0.56982 0.27249 0.69025
 H1157 H 0.54779 0.25416 0.69169
 H1158 H 0.52676 0.24204 0.70649
 H1159 H 0.52998 0.27881 0.74022
 H1160 H 0.55106 0.29068 0.72570
 C1161 C 0.60132 0.83185 0.18699
 C1162 C 0.58837 0.82514 0.19421
 C1163 C 0.58533 0.80916 0.19295
 C1164 C 0.59563 0.79996 0.18429
 C1165 C 0.60851 0.80665 0.17694
 C1166 C 0.61171 0.82275 0.17819
 C1167 C 0.57179 0.80256 0.20147
 C1168 C 0.56581 0.78831 0.19898
 C1169 C 0.55277 0.78151 0.20808
 C1170 C 0.54493 0.76842 0.20223
 C1171 C 0.53300 0.76124 0.21067
 C1172 C 0.52864 0.76702 0.22518
 C1173 C 0.53645 0.78012 0.23103
 C1174 C 0.54843 0.78723 0.22267
 H1175 H 0.60273 0.84432 0.18797
 H1176 H 0.58066 0.83254 0.20081
 H1177 H 0.59417 0.78750 0.18345
 H1178 H 0.61636 0.79888 0.17100
 H1179 H 0.56641 0.81005 0.20992
 H1180 H 0.57031 0.78130 0.18967
 H1181 H 0.54809 0.76366 0.19111
 H1182 H 0.52724 0.75114 0.20585
 H1183 H 0.53351 0.78475 0.24226
 H1184 H 0.55444 0.79692 0.22793
 C1185 C 1.11582 0.32339 0.19791
 C1186 C 1.10311 0.31712 0.20586
 C1187 C 1.09156 0.30865 0.19811
 C1188 C 1.09287 0.30682 0.18205
 C1189 C 1.10563 0.31300 0.17406
 C1190 C 1.11743 0.32142 0.18181
 C1191 C 1.07834 0.30225 0.20722
 C1192 C 1.06873 0.29099 0.20220
 C1193 C 1.05589 0.28425 0.21161
 C1194 C 1.04972 0.26974 0.20733
 C1195 C 1.03777 0.26281 0.21590
 C1196 C 1.03166 0.27027 0.22896
 C1197 C 1.03761 0.28493 0.23311
 C1198 C 1.04951 0.29190 0.22450
 H1199 H 1.12467 0.32920 0.20468
 H1200 H 1.10244 0.31872 0.21823
 H1201 H 1.08395 0.30094 0.17545
 H1202 H 1.10575 0.31167 0.16166
 H1203 H 1.07709 0.30656 0.21886
 H1204 H 1.07073 0.28577 0.19105
 H1205 H 1.05428 0.26364 0.19740
 H1206 H 1.03341 0.25154 0.21236
 H1207 H 1.03301 0.29106 0.24301
 H1208 H 1.05346 0.30333 0.22792
 C1209 C 1.10806 0.81368 0.69864
 C1210 C 1.09517 0.80690 0.70585
 C1211 C 1.08378 0.79908 0.69725
 C1212 C 1.08546 0.79839 0.68113
 C1213 C 1.09841 0.80509 0.67388
 C1214 C 1.11001 0.81293 0.68247
 C1215 C 1.07033 0.79214 0.70559
 C1216 C 1.06098 0.78113 0.69967
 C1217 C 1.04805 0.77371 0.70840
 C1218 C 1.04253 0.75916 0.70349
 C1219 C 1.03059 0.75156 0.71147
 C1220 C 1.02381 0.75838 0.72456
 C1221 C 1.02907 0.77311 0.72931
 C1222 C 1.04099 0.78074 0.72129
 H1223 H 1.11677 0.81892 0.70602
 H1224 H 1.09422 0.80759 0.71829
 H1225 H 1.07668 0.79301 0.67395
 H1226 H 1.09882 0.80467 0.66142
 H1227 H 1.06872 0.79571 0.71744
 H1228 H 1.06336 0.77656 0.68831
 H1229 H 1.04763 0.75353 0.69353
 H1230 H 1.02677 0.74025 0.70746
 H1231 H 1.02395 0.77876 0.73924
 H1232 H 1.04446 0.79219 0.72515
 C1233 C 0.38534 0.69782 0.67643
 C1234 C 0.39832 0.70441 0.68362
 C1235 C 0.41013 0.69495 0.68976
 C1236 C 0.40880 0.67868 0.68831
 C1237 C 0.39578 0.67208 0.68112
 C1238 C 0.38391 0.68158 0.67511
 C1239 C 0.42373 0.70258 0.69713
 C1240 C 0.43313 0.69551 0.70734
 C1241 C 0.44629 0.70358 0.71504
 C1242 C 0.45139 0.69817 0.72947
 C1243 C 0.46349 0.70573 0.73726
 C1244 C 0.47083 0.71881 0.73071
 C1245 C 0.46602 0.72396 0.71606
 C1246 C 0.45395 0.71640 0.70827
 H1247 H 0.37630 0.70544 0.67208
 H1248 H 0.39908 0.71696 0.68450
 H1249 H 0.41787 0.67099 0.69243
 H1250 H 0.39513 0.65954 0.68001
 H1251 H 0.42544 0.71482 0.69465
 H1252 H 0.43060 0.68372 0.71101
 H1253 H 0.44582 0.68822 0.73485
 H1254 H 0.46698 0.70142 0.74850
 H1255 H 0.47157 0.73388 0.71060
 H1256 H 0.45078 0.72056 0.69691
 C1257 C 0.38926 0.20189 0.17312
 C1258 C 0.40178 0.20964 0.17995
 C1259 C 0.41209 0.20178 0.18978
 C1260 C 0.40944 0.18589 0.19278
 C1261 C 0.39690 0.17808 0.18595
 C1262 C 0.38653 0.18589 0.17589
 C1263 C 0.42506 0.21083 0.19681
 C1264 C 0.43717 0.20454 0.20437
 C1265 C 0.44970 0.21402 0.21148
 C1266 C 0.45765 0.20801 0.22431
 C1267 C 0.46938 0.21664 0.23150
 C1268 C 0.47358 0.23144 0.22588
 C1269 C 0.46590 0.23732 0.21279
 C1270 C 0.45409 0.22870 0.20564
 H1271 H 0.38141 0.20882 0.16618
 H1272 H 0.40334 0.22194 0.17760
 H1273 H 0.41687 0.17931 0.20045
 H1274 H 0.39581 0.16575 0.18823
 H1275 H 0.42444 0.22337 0.19570
 H1276 H 0.43789 0.19209 0.20598
 H1277 H 0.45461 0.19667 0.22893
 H1278 H 0.47514 0.21172 0.24150
 H1279 H 0.46896 0.24861 0.20809
 H1280 H 0.44862 0.23350 0.19544
 C1281 C -0.11611 0.68144 0.19456
 C1282 C -0.10342 0.68803 0.20229
 C1283 C -0.09072 0.69414 0.19403
 C1284 C -0.09075 0.69303 0.17783
 C1285 C -0.10345 0.68645 0.17010
 C1286 C -0.11633 0.68071 0.17837
 C1287 C -0.07770 0.70138 0.20274
 C1288 C -0.06798 0.71198 0.19660
 C1289 C -0.05546 0.71992 0.20543
 C1290 C -0.04963 0.73412 0.19980
 C1291 C -0.03793 0.74211 0.20774
 C1292 C -0.03171 0.73603 0.22149
 C1293 C -0.03734 0.72169 0.22702
 C1294 C -0.04904 0.71367 0.21906
 H1295 H -0.12591 0.67722 0.20125
 H1296 H -0.10366 0.68862 0.21476
 H1297 H -0.08095 0.69703 0.17105
 H1298 H -0.10315 0.68573 0.15764
 H1299 H -0.07686 0.69858 0.21488
 H1300 H -0.06977 0.71582 0.18483
 H1301 H -0.05425 0.73914 0.18928
 H1302 H -0.03382 0.75310 0.20313
 H1303 H -0.03268 0.71661 0.23749
 H1304 H -0.05281 0.70253 0.22354
 C1305 C -0.10875 0.19507 0.67920
 C1306 C -0.09568 0.20168 0.68622
 C1307 C -0.08394 0.19224 0.69251
 C1308 C -0.08538 0.17595 0.69129
 C1309 C -0.09848 0.16934 0.68428
 C1310 C -0.11034 0.17883 0.67821
 C1311 C -0.07033 0.19987 0.69987
 C1312 C -0.06098 0.19283 0.71015
 C1313 C -0.04782 0.20088 0.71787
 C1314 C -0.04265 0.19538 0.73225
 C1315 C -0.03057 0.20293 0.74008
 C1316 C -0.02333 0.21611 0.73362
 C1317 C -0.02820 0.22135 0.71903
 C1318 C -0.04024 0.21379 0.71120
 H1319 H -0.11776 0.20268 0.67477
 H1320 H -0.09483 0.21425 0.68690
 H1321 H -0.07635 0.16826 0.69549
 H1322 H -0.09924 0.15679 0.68341
 H1323 H -0.06858 0.21208 0.69731
 H1324 H -0.06355 0.18106 0.71387
 H1325 H -0.04817 0.18535 0.73757
 H1326 H -0.02703 0.19855 0.75127
 H1327 H -0.02272 0.23134 0.71363
 H1328 H -0.04344 0.21803 0.69987
 C1329 C 0.32371 0.38062 0.30225
 C1330 C 0.31655 0.39280 0.29425
 C1331 C 0.31075 0.40580 0.30214
 C1332 C 0.31253 0.40649 0.31827
 C1333 C 0.31969 0.39429 0.32628
 C1334 C 0.32535 0.38122 0.31837
 C1335 C 0.30344 0.41851 0.29306
 C1336 C 0.29351 0.42894 0.29902
 C1337 C 0.28607 0.44144 0.28975
 C1338 C 0.27205 0.44795 0.29499
 C1339 C 0.26465 0.45973 0.28658
 C1340 C 0.27119 0.46535 0.27278
 C1341 C 0.28537 0.45903 0.26767
 C1342 C 0.29277 0.44726 0.27608
 H1343 H 0.32780 0.37063 0.29584
 H1344 H 0.31542 0.39200 0.28183
 H1345 H 0.30873 0.41653 0.32475
 H1346 H 0.32107 0.39522 0.33866
 H1347 H 0.30580 0.41870 0.28080
 H1348 H 0.28996 0.42789 0.31096
 H1349 H 0.26672 0.44380 0.30556
 H1350 H 0.25378 0.46440 0.29088
 H1351 H 0.29082 0.46322 0.25718
 H1352 H 0.30384 0.44298 0.27192
 C1353 C 0.32830 -0.12313 0.80368
 C1354 C 0.32145 -0.11084 0.79557
 C1355 C 0.31284 -0.09941 0.80327
 C1356 C 0.31152 -0.10035 0.81941
 C1357 C 0.31828 -0.11268 0.82755
 C1358 C 0.32680 -0.12441 0.81988
 C1359 C 0.30576 -0.08665 0.79404
 C1360 C 0.29390 -0.07782 0.79902
 C1361 C 0.28637 -0.06546 0.78961
 C1362 C 0.27151 -0.06028 0.79395
 C1363 C 0.26389 -0.04870 0.78550
 C1364 C 0.27100 -0.04196 0.77249
 C1365 C 0.28597 -0.04697 0.76822
 C1366 C 0.29363 -0.05852 0.77672
 H1367 H 0.33415 -0.13195 0.79698
 H1368 H 0.32269 -0.11042 0.78314
 H1369 H 0.30557 -0.09144 0.82591
 H1370 H 0.31731 -0.11252 0.83999
 H1371 H 0.31000 -0.08518 0.78238
 H1372 H 0.28879 -0.08021 0.81019
 H1373 H 0.26569 -0.06530 0.80388
 H1374 H 0.25238 -0.04508 0.78913
 H1375 H 0.29183 -0.04188 0.75836
 H1376 H 0.30527 -0.06174 0.77324
 C1377 C 0.82787 0.37827 0.79894
 C1378 C 0.82047 0.39057 0.79138
 C1379 C 0.81198 0.40167 0.79964
 C1380 C 0.81117 0.40028 0.81578
 C1381 C 0.81848 0.38790 0.82340
 C1382 C 0.82707 0.37663 0.81515
 C1383 C 0.80454 0.41460 0.79093
 C1384 C 0.79313 0.42361 0.79658
 C1385 C 0.78542 0.43614 0.78756
 C1386 C 0.77063 0.44122 0.79224
 C1387 C 0.76282 0.45286 0.78403
 C1388 C 0.76967 0.45976 0.77096
 C1389 C 0.78460 0.45491 0.76642
 C1390 C 0.79245 0.44329 0.77466
 H1391 H 0.83367 0.36974 0.79182
 H1392 H 0.82127 0.39131 0.77892
 H1393 H 0.80525 0.40886 0.82272
 H1394 H 0.81795 0.38773 0.83586
 H1395 H 0.80817 0.41614 0.77908
 H1396 H 0.78852 0.42126 0.80796
 H1397 H 0.76500 0.43604 0.80219
 H1398 H 0.75135 0.45637 0.78789
 H1399 H 0.79028 0.46013 0.75652
 H1400 H 0.80406 0.44017 0.77097
 C1401 C 0.83097 -0.10541 0.31409
 C1402 C 0.82362 -0.09291 0.30678
 C1403 C 0.80757 -0.09041 0.30849
 C1404 C 0.79897 -0.10083 0.31771
 C1405 C 0.80631 -0.11327 0.32515
 C1406 C 0.82247 -0.11590 0.32345
 C1407 C 0.80030 -0.07726 0.29997
 C1408 C 0.78602 -0.07166 0.30295
 C1409 C 0.77867 -0.05878 0.29409
 C1410 C 0.76584 -0.05106 0.30055
 C1411 C 0.75831 -0.03911 0.29251
 C1412 C 0.76346 -0.03463 0.27777
 C1413 C 0.77623 -0.04240 0.27123
 C1414 C 0.78370 -0.05440 0.27923
 H1415 H 0.84346 -0.10639 0.31275
 H1416 H 0.83057 -0.08508 0.29976
 H1417 H 0.78648 -0.09979 0.31892
 H1418 H 0.79898 -0.12124 0.33156
 H1419 H 0.80735 -0.07177 0.29116
 H1420 H 0.77946 -0.07624 0.31259
 H1421 H 0.76161 -0.05427 0.31190
 H1422 H 0.74847 -0.03338 0.29785
 H1423 H 0.78036 -0.03934 0.25981
 H1424 H 0.79315 -0.06035 0.27352
 C1425 C 0.30360 0.62268 0.67502
 C1426 C 0.29583 0.61015 0.68190
 C1427 C 0.30418 0.59744 0.68784
 C1428 C 0.32054 0.59739 0.68649
 C1429 C 0.32832 0.60996 0.67963
 C1430 C 0.31993 0.62274 0.67385
 C1431 C 0.29533 0.58440 0.69494
 C1432 C 0.30155 0.57404 0.70478
 C1433 C 0.29242 0.56135 0.71215
 C1434 C 0.29788 0.55485 0.72600
 C1435 C 0.28953 0.54301 0.73343
 C1436 C 0.27555 0.53735 0.72710
 C1437 C 0.27025 0.54361 0.71306
 C1438 C 0.27861 0.55542 0.70562
 H1439 H 0.29682 0.63243 0.67082
 H1440 H 0.28324 0.61046 0.68270
 H1441 H 0.32741 0.58761 0.69042
 H1442 H 0.34089 0.60956 0.67862
 H1443 H 0.28296 0.58394 0.69252
 H1444 H 0.31357 0.57531 0.70834
 H1445 H 0.30856 0.55907 0.73121
 H1446 H 0.29398 0.53838 0.74420
 H1447 H 0.25962 0.53937 0.70777
 H1448 H 0.27429 0.55966 0.69467
 C1449 C 0.31009 1.12137 0.17564
 C1450 C 0.30293 1.10869 0.18284
 C1451 C 0.31149 1.09847 0.19217
 C1452 C 0.32756 1.10121 0.19409
 C1453 C 0.33475 1.11400 0.18698
 C1454 C 0.32619 1.12432 0.17752
 C1455 C 0.30315 1.08508 0.19930
 C1456 C 0.30903 1.07595 0.21047
 C1457 C 0.30023 1.06292 0.21767
 C1458 C 0.30489 1.05754 0.23226
 C1459 C 0.29679 1.04548 0.23961
 C1460 C 0.28385 1.03849 0.23249
 C1461 C 0.27937 1.04361 0.21774
 C1462 C 0.28752 1.05560 0.21035
 H1463 H 0.30268 1.12914 0.16911
 H1464 H 0.29053 1.10695 0.18119
 H1465 H 0.33479 1.09343 0.20076
 H1466 H 0.34721 1.11522 0.18842
 H1467 H 0.29130 1.08316 0.19549
 H1468 H 0.32040 1.07848 0.21523
 H1469 H 0.31472 1.06282 0.23810
 H1470 H 0.30058 1.04177 0.25095
 H1471 H 0.26958 1.03831 0.21186
 H1472 H 0.28388 1.05891 0.19887
 C1473 C 0.80355 0.62072 0.17049
 C1474 C 0.79569 0.60780 0.17648
 C1475 C 0.80367 0.59636 0.18487
 C1476 C 0.81986 0.59796 0.18688
 C1477 C 0.82775 0.61094 0.18099
 C1478 C 0.81977 0.62264 0.17268
 C1479 C 0.79464 0.58297 0.19109
 C1480 C 0.79972 0.57366 0.20249
 C1481 C 0.79032 0.56086 0.20932
 C1482 C 0.79455 0.55518 0.22392
 C1483 C 0.78594 0.54335 0.23102
 C1484 C 0.77288 0.53687 0.22364
 C1485 C 0.76879 0.54229 0.20888
 C1486 C 0.77745 0.55409 0.20174
 H1487 H 0.79659 0.62948 0.16476
 H1488 H 0.78321 0.60690 0.17475
 H1489 H 0.82663 0.58912 0.19270
 H1490 H 0.84026 0.61131 0.18246
 H1491 H 0.78297 0.58142 0.18663
 H1492 H 0.81087 0.57601 0.20783
 H1493 H 0.80447 0.56005 0.22998
 H1494 H 0.78945 0.53941 0.24237
 H1495 H 0.75889 0.53740 0.20282
 H1496 H 0.77408 0.55768 0.19026
 C1497 C 0.82388 1.12022 0.69618
 C1498 C 0.81636 1.10785 0.70358
 C1499 C 0.81015 1.09544 0.69505
 C1500 C 0.81188 1.09553 0.67890
 C1501 C 0.81938 1.10794 0.67149
 C1502 C 0.82545 1.12042 0.68005
 C1503 C 0.80235 1.08255 0.70351
 C1504 C 0.79210 1.07273 0.69701
 C1505 C 0.78389 1.06028 0.70570
 C1506 C 0.76972 1.05458 0.69990
 C1507 C 0.76148 1.04299 0.70780
 C1508 C 0.76729 1.03674 0.72164
 C1509 C 0.78165 1.04220 0.72730
 C1510 C 0.78990 1.05379 0.71940
 H1511 H 0.82831 1.12974 0.70308
 H1512 H 0.81528 1.10805 0.71602
 H1513 H 0.80775 1.08596 0.67192
 H1514 H 0.82069 1.10765 0.65907
 H1515 H 0.80454 1.08179 0.71578
 H1516 H 0.78879 1.07437 0.68507
 H1517 H 0.76490 1.05925 0.68931
 H1518 H 0.75049 1.03900 0.70307
 H1519 H 0.78654 1.03750 0.73785
 H1520 H 0.80104 1.05743 0.72398
 C1521 C 0.69826 0.62416 0.31646
 C1522 C 0.70568 0.61162 0.30939
 C1523 C 0.69707 0.59877 0.30416
 C1524 C 0.68079 0.59869 0.30627
 C1525 C 0.67335 0.61126 0.31336
 C1526 C 0.68202 0.62409 0.31861
 C1527 C 0.70563 0.58557 0.29715
 C1528 C 0.69904 0.57501 0.28782
 C1529 C 0.70791 0.56216 0.28057
 C1530 C 0.70234 0.55574 0.26677
 C1531 C 0.71045 0.54375 0.25946
 C1532 C 0.72426 0.53779 0.26591
 C1533 C 0.72966 0.54397 0.27992
 C1534 C 0.72156 0.55599 0.28721
 H1535 H 0.70524 0.63396 0.32021
 H1536 H 0.71822 0.61198 0.30796
 H1537 H 0.67376 0.58882 0.30284
 H1538 H 0.66086 0.61078 0.31509
 H1539 H 0.71807 0.58510 0.29919
 H1540 H 0.68693 0.57626 0.28455
 H1541 H 0.69178 0.56016 0.26150
 H1542 H 0.70592 0.53919 0.24873
 H1543 H 0.74016 0.53953 0.28527
 H1544 H 0.72593 0.56023 0.29812
 C1545 C 0.69643 1.12094 0.82407
 C1546 C 0.70360 1.10826 0.81698
 C1547 C 0.69482 1.09731 0.80874
 C1548 C 0.67856 1.09913 0.80805
 C1549 C 0.67135 1.11186 0.81507
 C1550 C 0.68013 1.12312 0.82320
 C1551 C 0.70308 1.08408 0.80140
 C1552 C 0.69704 1.07543 0.78997
 C1553 C 0.70554 1.06254 0.78231
 C1554 C 0.70044 1.05756 0.76774
 C1555 C 0.70811 1.04554 0.76002
 C1556 C 0.72107 1.03818 0.76673
 C1557 C 0.72604 1.04296 0.78142
 C1558 C 0.71832 1.05493 0.78918
 H1559 H 0.70395 1.12935 0.82962
 H1560 H 0.71616 1.10714 0.81773
 H1561 H 0.67123 1.09063 0.80241
 H1562 H 0.65877 1.11237 0.81460
 H1563 H 0.71495 1.08203 0.80509
 H1564 H 0.68569 1.07833 0.78536
 H1565 H 0.69055 1.06309 0.76223
 H1566 H 0.70395 1.04210 0.74874
 H1567 H 0.73586 1.03739 0.78700
 H1568 H 0.72233 1.05796 0.80060
 C1569 C 0.17347 0.61866 0.80418
 C1570 C 0.18052 0.60646 0.79620
 C1571 C 0.18979 0.59552 0.80391
 C1572 C 0.19172 0.59695 0.81996
 C1573 C 0.18479 0.60923 0.82797
 C1574 C 0.17547 0.62036 0.82027
 C1575 C 0.19682 0.58272 0.79477
 C1576 C 0.20845 0.57358 0.79982
 C1577 C 0.21562 0.56107 0.79041
 C1578 C 0.23035 0.55543 0.79472
 C1579 C 0.23762 0.54372 0.78620
 C1580 C 0.23030 0.53735 0.77316
 C1581 C 0.21546 0.54279 0.76896
 C1582 C 0.20814 0.55443 0.77753
 H1583 H 0.16701 0.62707 0.79744
 H1584 H 0.17882 0.60569 0.78384
 H1585 H 0.19826 0.58849 0.82654
 H1586 H 0.18623 0.60944 0.84036
 H1587 H 0.19259 0.58137 0.78311
 H1588 H 0.21358 0.57570 0.81100
 H1589 H 0.23633 0.56020 0.80465
 H1590 H 0.24904 0.53975 0.78978
 H1591 H 0.20942 0.53796 0.75909
 H1592 H 0.19656 0.55795 0.77409
 C1593 C 0.17676 1.11849 0.30467
 C1594 C 0.18367 1.10595 0.29706
 C1595 C 0.19301 1.09528 0.30509
 C1596 C 0.19485 1.09711 0.32109
 C1597 C 0.18807 1.10970 0.32871
 C1598 C 0.17902 1.12080 0.32065
 C1599 C 0.20039 1.08239 0.29637
 C1600 C 0.21282 1.07439 0.30150
 C1601 C 0.22073 1.06188 0.29267
 C1602 C 0.23556 1.05702 0.29755
 C1603 C 0.24356 1.04535 0.28967
 C1604 C 0.23690 1.03823 0.27667
 C1605 C 0.22198 1.04292 0.27185
 C1606 C 0.21392 1.05453 0.27980
 H1607 H 0.17034 1.12674 0.29771
 H1608 H 0.18196 1.10479 0.28474
 H1609 H 0.20129 1.08876 0.32790
 H1610 H 0.18953 1.11027 0.34109
 H1611 H 0.19585 1.08013 0.28497
 H1612 H 0.21807 1.07758 0.31238
 H1613 H 0.24105 1.06236 0.30748
 H1614 H 0.25502 1.04198 0.29370
 H1615 H 0.21646 1.03752 0.26198
 H1616 H 0.20235 1.05747 0.27587
 C1617 C 0.66017 0.38900 0.68192
 C1618 C 0.66697 0.40170 0.68941
 C1619 C 0.68318 0.40252 0.69148
 C1620 C 0.69247 0.39023 0.68597
 C1621 C 0.68567 0.37754 0.67846
 C1622 C 0.66944 0.37675 0.67640
 C1623 C 0.68980 0.41597 0.69999
 C1624 C 0.70473 0.42052 0.69881
 C1625 C 0.71148 0.43380 0.70748
 C1626 C 0.72529 0.44063 0.70201
 C1627 C 0.73239 0.45282 0.71003
 C1628 C 0.72588 0.45842 0.72381
 C1629 C 0.71207 0.45159 0.72934
 C1630 C 0.70496 0.43937 0.72131
 H1631 H 0.64764 0.38879 0.68039
 H1632 H 0.65952 0.41094 0.69360
 H1633 H 0.70494 0.39010 0.68779
 H1634 H 0.69307 0.36812 0.67463
 H1635 H 0.68183 0.42266 0.70700
 H1636 H 0.71232 0.41472 0.69071
 H1637 H 0.73064 0.43649 0.69148
 H1638 H 0.74305 0.45777 0.70546
 H1639 H 0.70683 0.45554 0.73999
 H1640 H 0.69461 0.43414 0.72621
 C1641 C 0.69118 -0.11793 0.17895
 C1642 C 0.69883 -0.10533 0.18574
 C1643 C 0.69038 -0.09260 0.19142
 C1644 C 0.67403 -0.09262 0.18988
 C1645 C 0.66637 -0.10527 0.18310
 C1646 C 0.67486 -0.11806 0.17758
 C1647 C 0.69911 -0.07953 0.19854
 C1648 C 0.69272 -0.06928 0.20832
 C1649 C 0.70172 -0.05673 0.21600
 C1650 C 0.69592 -0.05048 0.22978
 C1651 C 0.70411 -0.03884 0.23759
 C1652 C 0.71826 -0.03309 0.23171
 C1653 C 0.72392 -0.03908 0.21773
 C1654 C 0.71572 -0.05072 0.20991
 H1655 H 0.69803 -0.12768 0.17494
 H1656 H 0.71142 -0.10560 0.18670
 H1657 H 0.66709 -0.08284 0.19360
 H1658 H 0.65380 -0.10492 0.18194
 H1659 H 0.71150 -0.07901 0.19629
 H1660 H 0.68066 -0.07064 0.21169
 H1661 H 0.68510 -0.05478 0.23465
 H1662 H 0.69938 -0.03444 0.24829
 H1663 H 0.73470 -0.03477 0.21281
 H1664 H 0.72032 -0.05480 0.19905
 C1665 C 0.19736 0.37991 0.17662
 C1666 C 0.20528 0.39271 0.18273
 C1667 C 0.19706 0.40556 0.18845
 C1668 C 0.18066 0.40550 0.18757
 C1669 C 0.17274 0.39266 0.18151
 C1670 C 0.18100 0.37971 0.17603
 C1671 C 0.20602 0.41878 0.19498
 C1672 C 0.19996 0.42916 0.20483
 C1673 C 0.20913 0.44189 0.21201
 C1674 C 0.20356 0.44853 0.22571
 C1675 C 0.21188 0.46037 0.23306
 C1676 C 0.22595 0.46592 0.22681
 C1677 C 0.23138 0.45954 0.21292
 C1678 C 0.22304 0.44770 0.20554
 H1679 H 0.20404 0.37004 0.17258
 H1680 H 0.21790 0.39248 0.18316
 H1681 H 0.17386 0.41538 0.19130
 H1682 H 0.16013 0.39295 0.18090
 H1683 H 0.21832 0.41930 0.19225
 H1684 H 0.18804 0.42781 0.20865
 H1685 H 0.19282 0.44440 0.23087
 H1686 H 0.20733 0.46508 0.24371
 H1687 H 0.24209 0.46369 0.20772
 H1688 H 0.22747 0.44332 0.19473
 C1689 C 0.17518 -0.12828 0.69908
 C1690 C 0.18241 -0.11578 0.70646
 C1691 C 0.18785 -0.10294 0.69797
 C1692 C 0.18576 -0.10281 0.68185
 C1693 C 0.17851 -0.11535 0.67446
 C1694 C 0.17309 -0.12819 0.68300
 C1695 C 0.19509 -0.08981 0.70645
 C1696 C 0.20467 -0.07933 0.69994
 C1697 C 0.21214 -0.06653 0.70873
 C1698 C 0.22616 -0.06018 0.70325
 C1699 C 0.23369 -0.04826 0.71130
 C1700 C 0.22724 -0.04232 0.72497
 C1701 C 0.21301 -0.04842 0.73028
 C1702 C 0.20550 -0.06035 0.72224
 H1703 H 0.17129 -0.13809 0.70596
 H1704 H 0.18381 -0.11617 0.71887
 H1705 H 0.18932 -0.09295 0.67492
 H1706 H 0.17682 -0.11483 0.66209
 H1707 H 0.19300 -0.08933 0.71875
 H1708 H 0.20799 -0.08060 0.68798
 H1709 H 0.23144 -0.06461 0.69279
 H1710 H 0.24459 -0.04376 0.70684
 H1711 H 0.20765 -0.04398 0.74068
 H1712 H 0.19442 -0.06453 0.72654
 C1713 C 0.33668 0.32143 0.39727
 C1714 C 0.33020 0.31470 0.41048
 C1715 C 0.31404 0.31240 0.41166
 C1716 C 0.30445 0.31708 0.39930
 C1717 C 0.31094 0.32384 0.38609
 C1718 C 0.32714 0.32593 0.38487
 C1719 C 0.30786 0.30418 0.42543
 C1720 C 0.29291 0.30476 0.42992
 C1721 C 0.28671 0.29568 0.44314
 C1722 C 0.27300 0.30072 0.45039
 C1723 C 0.26644 0.29210 0.46246
 C1724 C 0.27338 0.27816 0.46746
 C1725 C 0.28710 0.27311 0.46020
 C1726 C 0.29367 0.28172 0.44814
 H1727 H 0.34919 0.32304 0.39672
 H1728 H 0.33786 0.31114 0.41977
 H1729 H 0.29200 0.31509 0.39950
 H1730 H 0.30333 0.32693 0.37660
 H1731 H 0.31615 0.29765 0.43227
 H1732 H 0.28489 0.31245 0.42403
 H1733 H 0.26733 0.31134 0.44666
 H1734 H 0.25582 0.29629 0.46777
 H1735 H 0.29267 0.26234 0.46367
 H1736 H 0.30392 0.27713 0.44253
 C1737 C 0.33525 0.81584 -0.10133
 C1738 C 0.32849 0.80929 -0.08817
 C1739 C 0.31225 0.80759 -0.08704
 C1740 C 0.30288 0.81271 -0.09939
 C1741 C 0.30966 0.81928 -0.11256
 C1742 C 0.32593 0.82075 -0.11375
 C1743 C 0.30575 0.79951 -0.07332
 C1744 C 0.29081 0.80056 -0.06886
 C1745 C 0.28428 0.79165 -0.05567
 C1746 C 0.27070 0.79709 -0.04848
 C1747 C 0.26379 0.78867 -0.03646
 C1748 C 0.27026 0.77450 -0.03145
 C1749 C 0.28386 0.76904 -0.03864
 C1750 C 0.29077 0.77747 -0.05064
 H1751 H 0.34782 0.81698 -0.10184
 H1752 H 0.33599 0.80541 -0.07888
 H1753 H 0.29037 0.81119 -0.09923
 H1754 H 0.30220 0.82270 -0.12206
 H1755 H 0.31379 0.79268 -0.06648
 H1756 H 0.28306 0.80851 -0.07476
 H1757 H 0.26537 0.80789 -0.05222
 H1758 H 0.25328 0.79317 -0.03121
 H1759 H 0.28906 0.75810 -0.03516
 H1760 H 0.30091 0.77257 -0.05620
 C1761 C 0.84154 0.31594 -0.10751
 C1762 C 0.83541 0.30909 -0.09418
 C1763 C 0.81928 0.30685 -0.09255
 C1764 C 0.80937 0.31156 -0.10465
 C1765 C 0.81551 0.31842 -0.11797
 C1766 C 0.83166 0.32062 -0.11959
 C1767 C 0.81337 0.29887 -0.07850
 C1768 C 0.79863 0.30009 -0.07346
 C1769 C 0.79248 0.29164 -0.05979
 C1770 C 0.77883 0.29713 -0.05277
 C1771 C 0.77215 0.28915 -0.04034
 C1772 C 0.77893 0.27537 -0.03470
 C1773 C 0.79265 0.26988 -0.04167
 C1774 C 0.79932 0.27788 -0.05411
 H1775 H 0.85402 0.31760 -0.10835
 H1776 H 0.84331 0.30549 -0.08510
 H1777 H 0.79694 0.30957 -0.10413
 H1778 H 0.80763 0.32160 -0.12722
 H1779 H 0.82169 0.29215 -0.07189
 H1780 H 0.79072 0.30797 -0.07926
 H1781 H 0.77323 0.30762 -0.05697
 H1782 H 0.76156 0.29368 -0.03528
 H1783 H 0.79808 0.25923 -0.03769
 H1784 H 0.80956 0.27295 -0.05946
 C1785 C 0.83441 0.82014 0.39829
 C1786 C 0.82800 0.81311 0.41140
 C1787 C 0.81181 0.81126 0.41284
 C1788 C 0.80211 0.81654 0.40081
 C1789 C 0.80853 0.82359 0.38772
 C1790 C 0.82474 0.82539 0.38628
 C1791 C 0.80560 0.80299 0.42658
 C1792 C 0.79083 0.80428 0.43149
 C1793 C 0.78446 0.79533 0.44472
 C1794 C 0.77100 0.80082 0.45212
 C1795 C 0.76420 0.79236 0.46417
 C1796 C 0.77066 0.77814 0.46901
 C1797 C 0.78414 0.77264 0.46163
 C1798 C 0.79093 0.78109 0.44959
 H1799 H 0.84694 0.82149 0.39757
 H1800 H 0.83574 0.80906 0.42043
 H1801 H 0.78963 0.81486 0.40119
 H1802 H 0.80081 0.82722 0.37850
 H1803 H 0.81374 0.79592 0.43305
 H1804 H 0.78310 0.81250 0.42593
 H1805 H 0.76569 0.81167 0.44851
 H1806 H 0.75378 0.79689 0.46957
 H1807 H 0.78932 0.76166 0.46499
 H1808 H 0.80097 0.77616 0.44388
 C1809 C 0.66077 0.30969 0.60341
 C1810 C 0.66775 0.30246 0.59075
 C1811 C 0.68401 0.30088 0.58993
 C1812 C 0.69316 0.30649 0.60222
 C1813 C 0.68618 0.31372 0.61486
 C1814 C 0.66991 0.31540 0.61561
 C1815 C 0.69089 0.29279 0.57646
 C1816 C 0.70569 0.29486 0.57187
 C1817 C 0.71283 0.28668 0.55858
 C1818 C 0.72644 0.29293 0.55205
 C1819 C 0.73399 0.28535 0.53995
 C1820 C 0.72816 0.27124 0.53413
 C1821 C 0.71450 0.26496 0.54062
 C1822 C 0.70694 0.27255 0.55275
 H1823 H 0.64821 0.31091 0.60360
 H1824 H 0.66042 0.29816 0.58152
 H1825 H 0.70567 0.30499 0.60234
 H1826 H 0.69350 0.31768 0.62425
 H1827 H 0.68322 0.28540 0.56979
 H1828 H 0.71288 0.30337 0.57771
 H1829 H 0.73130 0.30372 0.55637
 H1830 H 0.74451 0.29050 0.53525
 H1831 H 0.70979 0.25404 0.53649
 H1832 H 0.69676 0.26706 0.55773
 C1833 C 0.67297 0.80461 1.11601
 C1834 C 0.67981 0.79755 1.10320
 C1835 C 0.68587 0.80659 1.09109
 C1836 C 0.68459 0.82290 1.09187
 C1837 C 0.67775 0.82996 1.10469
 C1838 C 0.67194 0.82090 1.11693
 C1839 C 0.69309 0.79853 1.07780
 C1840 C 0.70349 0.80524 1.06831
 C1841 C 0.71113 0.79682 1.05547
 C1842 C 0.72569 0.80205 1.05017
 C1843 C 0.73345 0.79419 1.03835
 C1844 C 0.72672 0.78098 1.03150
 C1845 C 0.71194 0.77601 1.03651
 C1846 C 0.70419 0.78387 1.04831
 H1847 H 0.66874 0.79732 1.12532
 H1848 H 0.68055 0.78497 1.10285
 H1849 H 0.68859 0.83027 1.08254
 H1850 H 0.67682 0.84253 1.10494
 H1851 H 0.69037 0.78630 1.07644
 H1852 H 0.70738 0.81702 1.07053
 H1853 H 0.73121 0.81210 1.05537
 H1854 H 0.74478 0.79836 1.03471
 H1855 H 0.70634 0.76599 1.03134
 H1856 H 0.69273 0.77983 1.05163
 C1857 C 0.17481 0.30095 1.11648
 C1858 C 0.18128 0.29359 1.10364
 C1859 C 0.18715 0.30235 1.09124
 C1860 C 0.18585 0.31868 1.09168
 C1861 C 0.17938 0.32603 1.10451
 C1862 C 0.17396 0.31727 1.11713
 C1863 C 0.19437 0.29408 1.07808
 C1864 C 0.20506 0.30062 1.06878
 C1865 C 0.21294 0.29217 1.05610
 C1866 C 0.22745 0.29763 1.05089
 C1867 C 0.23538 0.28995 1.03908
 C1868 C 0.22891 0.27667 1.03214
 C1869 C 0.21424 0.27137 1.03713
 C1870 C 0.20630 0.27905 1.04894
 H1871 H 0.17083 0.29388 1.12607
 H1872 H 0.18201 0.28100 1.10354
 H1873 H 0.18966 0.32583 1.08210
 H1874 H 0.17853 0.33861 1.10453
 H1875 H 0.19150 0.28188 1.07674
 H1876 H 0.20901 0.31236 1.07108
 H1877 H 0.23276 0.30779 1.05609
 H1878 H 0.24663 0.29438 1.03546
 H1879 H 0.20885 0.26126 1.03191
 H1880 H 0.19492 0.27478 1.05223
 C1881 C 0.15829 0.80923 0.60699
 C1882 C 0.16454 0.80271 0.59359
 C1883 C 0.18072 0.80108 0.59185
 C1884 C 0.19054 0.80579 0.60399
 C1885 C 0.18430 0.81230 0.61737
 C1886 C 0.16812 0.81416 0.61902
 C1887 C 0.18691 0.79392 0.57755
 C1888 C 0.20136 0.79669 0.57226
 C1889 C 0.20804 0.78942 0.55824
 C1890 C 0.22127 0.79629 0.55154
 C1891 C 0.22857 0.78946 0.53887
 C1892 C 0.22287 0.77549 0.53262
 C1893 C 0.20952 0.76865 0.53919
 C1894 C 0.20221 0.77550 0.55190
 H1895 H 0.14578 0.81059 0.60787
 H1896 H 0.15671 0.79904 0.58448
 H1897 H 0.20303 0.80417 0.60339
 H1898 H 0.19215 0.81561 0.62659
 H1899 H 0.17903 0.78669 0.57095
 H1900 H 0.20862 0.80509 0.57818
 H1901 H 0.22608 0.80695 0.55622
 H1902 H 0.23884 0.79504 0.53412
 H1903 H 0.20491 0.75782 0.53472
 H1904 H 0.19231 0.76957 0.55693
 C1905 C 0.33362 0.68960 0.60101
 C1906 C 0.32716 0.69720 0.58824
 C1907 C 0.31098 0.69927 0.58705
 C1908 C 0.30138 0.69381 0.59908
 C1909 C 0.30783 0.68622 0.61183
 C1910 C 0.32401 0.68402 0.61295
 C1911 C 0.30461 0.70771 0.57350
 C1912 C 0.28995 0.70577 0.56845
 C1913 C 0.28318 0.71437 0.55519
 C1914 C 0.26980 0.70830 0.54809
 C1915 C 0.26249 0.71633 0.53609
 C1916 C 0.26834 0.73074 0.53096
 C1917 C 0.28180 0.73682 0.53798
 C1918 C 0.28912 0.72876 0.55001
 H1919 H 0.34612 0.68799 0.60150
 H1920 H 0.33483 0.70141 0.57921
 H1921 H 0.28892 0.69570 0.59891
 H1922 H 0.30016 0.68239 0.62102
 H1923 H 0.31251 0.71524 0.56722
 H1924 H 0.28260 0.69711 0.57390
 H1925 H 0.26491 0.69731 0.55192
 H1926 H 0.25212 0.71132 0.53097
 H1927 H 0.28651 0.74795 0.53438
 H1928 H 0.29913 0.73409 0.55545
 C1929 C 0.33711 0.18678 1.10137
 C1930 C 0.33048 0.19364 1.08830
 C1931 C 0.31427 0.19551 1.08714
 C1932 C 0.30479 0.19038 1.09940
 C1933 C 0.31143 0.18348 1.11245
 C1934 C 0.32766 0.18170 1.11362
 C1935 C 0.30786 0.20370 1.07346
 C1936 C 0.29292 0.20266 1.06898
 C1937 C 0.28636 0.21166 1.05588
 C1938 C 0.27255 0.20642 1.04892
 C1939 C 0.26561 0.21493 1.03701
 C1940 C 0.27229 0.22897 1.03186
 C1941 C 0.28612 0.23422 1.03882
 C1942 C 0.29305 0.22572 1.05074
 H1943 H 0.34965 0.18544 1.10190
 H1944 H 0.33806 0.19758 1.07908
 H1945 H 0.29231 0.19208 1.09926
 H1946 H 0.30388 0.17997 1.12185
 H1947 H 0.31595 0.21057 1.06670
 H1948 H 0.28515 0.19465 1.07481
 H1949 H 0.26707 0.19571 1.05277
 H1950 H 0.25492 0.21059 1.03192
 H1951 H 0.29149 0.24506 1.03523
 H1952 H 0.30338 0.23048 1.05612
 C1953 C 0.83429 0.69242 1.10384
 C1954 C 0.82795 0.70013 1.09107
 C1955 C 0.81178 0.70221 1.08975
 C1956 C 0.80207 0.69677 1.10170
 C1957 C 0.80841 0.68905 1.11443
 C1958 C 0.82457 0.68671 1.11560
 C1959 C 0.80553 0.71057 1.07609
 C1960 C 0.79083 0.70887 1.07105
 C1961 C 0.78427 0.71742 1.05764
 C1962 C 0.77064 0.71169 1.05071
 C1963 C 0.76366 0.71966 1.03845
 C1964 C 0.77014 0.73363 1.03290
 C1965 C 0.78380 0.73937 1.03981
 C1966 C 0.79076 0.73142 1.05209
 H1967 H 0.84679 0.69073 1.10440
 H1968 H 0.83570 0.70435 1.08212
 H1969 H 0.78962 0.69869 1.10146
 H1970 H 0.80066 0.68512 1.12351
 H1971 H 0.81359 0.71784 1.06971
 H1972 H 0.78327 0.70047 1.07661
 H1973 H 0.76532 0.70101 1.05483
 H1974 H 0.75312 0.71494 1.03342
 H1975 H 0.78900 0.75019 1.03590
 H1976 H 0.80096 0.73654 1.05738
 C1977 C 0.83813 0.18486 0.60485
 C1978 C 0.83159 0.19220 0.59197
 C1979 C 0.81542 0.19444 0.59093
 C1980 C 0.80591 0.18936 0.60319
 C1981 C 0.81246 0.18203 0.61606
 C1982 C 0.82863 0.17972 0.61706
 C1983 C 0.80902 0.20269 0.57727
 C1984 C 0.79423 0.20104 0.57249
 C1985 C 0.78753 0.20945 0.55906
 C1986 C 0.77397 0.20350 0.55221
 C1987 C 0.76680 0.21135 0.54000
 C1988 C 0.77298 0.22544 0.53440
 C1989 C 0.78661 0.23140 0.54121
 C1990 C 0.79379 0.22354 0.55344
 H1991 H 0.85063 0.18315 0.60522
 H1992 H 0.83919 0.19609 0.58275
 H1993 H 0.79347 0.19137 0.60313
 H1994 H 0.80488 0.17852 0.62544
 H1995 H 0.81700 0.20983 0.57067
 H1996 H 0.78672 0.19273 0.57826
 H1997 H 0.76883 0.19275 0.55637
 H1998 H 0.75629 0.20644 0.53506
 H1999 H 0.79159 0.24230 0.53725
 H2000 H 0.80396 0.22878 0.55868
 C2001 C 0.69884 0.68521 0.38117
 C2002 C 0.70638 0.69163 0.39394
 C2003 C 0.69791 0.69603 0.40705
 C2004 C 0.68165 0.69371 0.40719
 C2005 C 0.67409 0.68731 0.39439
 C2006 C 0.68262 0.68295 0.38127
 C2007 C 0.70658 0.70251 0.42038
 C2008 C 0.70001 0.71111 0.43150
 C2009 C 0.70902 0.71795 0.44442
 C2010 C 0.70322 0.73128 0.45173
 C2011 C 0.71152 0.73830 0.46373
 C2012 C 0.72577 0.73204 0.46876
 C2013 C 0.73139 0.71844 0.46173
 C2014 C 0.72308 0.71143 0.44974
 H2015 H 0.70570 0.68213 0.37116
 H2016 H 0.71890 0.69322 0.39352
 H2017 H 0.67473 0.69647 0.41723
 H2018 H 0.66161 0.68544 0.39487
 H2019 H 0.71907 0.70076 0.42049
 H2020 H 0.68780 0.71414 0.43071
 H2021 H 0.69233 0.73644 0.44799
 H2022 H 0.70682 0.74872 0.46896
 H2023 H 0.74223 0.71322 0.46546
 H2024 H 0.72766 0.70083 0.44481
 C2025 C 0.68112 0.20169 -0.11710
 C2026 C 0.68816 0.20917 -0.10462
 C2027 C 0.69462 0.20053 -0.09243
 C2028 C 0.69363 0.18417 -0.09287
 C2029 C 0.68660 0.17669 -0.10539
 C2030 C 0.68029 0.18536 -0.11765
 C2031 C 0.70190 0.20907 -0.07942
 C2032 C 0.71235 0.20273 -0.06975
 C2033 C 0.72004 0.21153 -0.05715
 C2034 C 0.73442 0.20622 -0.05152
 C2035 C 0.74220 0.21425 -0.03982
 C2036 C 0.73569 0.22775 -0.03338
 C2037 C 0.72111 0.23289 -0.03875
 C2038 C 0.71333 0.22485 -0.05046
 H2039 H 0.67649 0.20869 -0.12644
 H2040 H 0.68868 0.22177 -0.10455
 H2041 H 0.69795 0.17707 -0.08349
 H2042 H 0.68585 0.16410 -0.10535
 H2043 H 0.69912 0.22130 -0.07840
 H2044 H 0.71624 0.19091 -0.07161
 H2045 H 0.73978 0.19591 -0.05635
 H2046 H 0.75337 0.20993 -0.03590
 H2047 H 0.71570 0.24315 -0.03391
 H2048 H 0.70201 0.22902 -0.05405
 C2049 C 0.18250 0.66681 -0.10381
 C2050 C 0.19016 0.67299 -0.09097
 C2051 C 0.19144 0.68915 -0.08900
 C2052 C 0.18497 0.69905 -0.10029
 C2053 C 0.17729 0.69287 -0.11312
 C2054 C 0.17602 0.67668 -0.11506
 C2055 C 0.20021 0.69515 -0.07549
 C2056 C 0.19854 0.70960 -0.06989
 C2057 C 0.20761 0.71577 -0.05664
 C2058 C 0.20186 0.72881 -0.04876
 C2059 C 0.21026 0.73542 -0.03661
 C2060 C 0.22471 0.72920 -0.03211
 C2061 C 0.23049 0.71614 -0.03996
 C2062 C 0.22208 0.70953 -0.05213
 H2063 H 0.18160 0.65429 -0.10492
 H2064 H 0.19510 0.66509 -0.08253
 H2065 H 0.18615 0.71156 -0.09953
 H2066 H 0.17271 0.70077 -0.12175
 H2067 H 0.20791 0.68706 -0.06969
 H2068 H 0.18979 0.71720 -0.07480
 H2069 H 0.19082 0.73394 -0.05206
 H2070 H 0.20549 0.74550 -0.03085
 H2071 H 0.24166 0.71115 -0.03688
 H2072 H 0.22721 0.69981 -0.05818
 C2073 C 0.20058 0.18104 0.38238
 C2074 C 0.20849 0.18746 0.39493
 C2075 C 0.20029 0.19290 0.40784
 C2076 C 0.18393 0.19147 0.40805
 C2077 C 0.17601 0.18508 0.39546
 C2078 C 0.18425 0.17982 0.38249
 C2079 C 0.20929 0.19962 0.42085
 C2080 C 0.20313 0.20913 0.43147
 C2081 C 0.21237 0.21632 0.44407
 C2082 C 0.20673 0.22994 0.45099
 C2083 C 0.21513 0.23725 0.46273
 C2084 C 0.22936 0.23104 0.46789
 C2085 C 0.23486 0.21721 0.46121
 C2086 C 0.22643 0.20988 0.44949
 H2087 H 0.20724 0.17721 0.37249
 H2088 H 0.22109 0.18833 0.39449
 H2089 H 0.17718 0.19499 0.41796
 H2090 H 0.16345 0.18400 0.39597
 H2091 H 0.22167 0.19727 0.42106
 H2092 H 0.19107 0.21263 0.43048
 H2093 H 0.19586 0.23506 0.44715
 H2094 H 0.21053 0.24785 0.46767
 H2095 H 0.24568 0.21202 0.46506
 H2096 H 0.23092 0.19909 0.44489
 C2097 C 0.33529 0.39982 0.68386
 C2098 C 0.32904 0.41294 0.69106
 C2099 C 0.31285 0.41458 0.69277
 C2100 C 0.30302 0.40268 0.68729
 C2101 C 0.30928 0.38958 0.68008
 C2102 C 0.32547 0.38799 0.67830
 C2103 C 0.30675 0.42841 0.70099
 C2104 C 0.29213 0.43369 0.69930
 C2105 C 0.28575 0.44712 0.70795
 C2106 C 0.29204 0.45206 0.72212
 C2107 C 0.28520 0.46431 0.73024
 C2108 C 0.27185 0.47180 0.72447
 C2109 C 0.26559 0.46688 0.71032
 C2110 C 0.27244 0.45464 0.70219
 H2111 H 0.34781 0.39898 0.68256
 H2112 H 0.33688 0.42187 0.69528
 H2113 H 0.29054 0.40317 0.68888
 H2114 H 0.30144 0.38048 0.67623
 H2115 H 0.31484 0.43468 0.70827
 H2116 H 0.28453 0.42831 0.69089
 H2117 H 0.30197 0.44628 0.72724
 H2118 H 0.29022 0.46772 0.74118
 H2119 H 0.25529 0.47236 0.70557
 H2120 H 0.26727 0.45099 0.69139
 C2121 C 0.30317 0.88563 0.17992
 C2122 C 0.29646 0.89880 0.18656
 C2123 C 0.30581 0.91117 0.19171
 C2124 C 0.32207 0.91023 0.18974
 C2125 C 0.32878 0.89704 0.18309
 C2126 C 0.31942 0.88456 0.17817
 C2127 C 0.29810 0.92486 0.19875
 C2128 C 0.30530 0.93474 0.20838
 C2129 C 0.29725 0.94795 0.21593
 C2130 C 0.30320 0.95371 0.22988
 C2131 C 0.29575 0.96590 0.23755
 C2132 C 0.28222 0.97269 0.23135
 C2133 C 0.27650 0.96721 0.21717
 C2134 C 0.28395 0.95503 0.20951
 H2135 H 0.29565 0.87615 0.17639
 H2136 H 0.28391 0.89925 0.18785
 H2137 H 0.32965 0.91973 0.19305
 H2138 H 0.34131 0.89669 0.18160
 H2139 H 0.28575 0.92620 0.19658
 H2140 H 0.31725 0.93258 0.21174
 H2141 H 0.31352 0.94859 0.23499
 H2142 H 0.30051 0.96989 0.24842
 H2143 H 0.26621 0.97231 0.21199
 H2144 H 0.27932 0.95134 0.19850
 C2145 C 0.83471 0.39717 0.18714
 C2146 C 0.82842 0.41022 0.19444
 C2147 C 0.81222 0.41213 0.19556
 C2148 C 0.80240 0.40047 0.18956
 C2149 C 0.80869 0.38744 0.18226
 C2150 C 0.82491 0.38567 0.18089
 C2151 C 0.80597 0.42609 0.20346
 C2152 C 0.79176 0.43189 0.20052
 C2153 C 0.78506 0.44566 0.20837
 C2154 C 0.77224 0.45310 0.20152
 C2155 C 0.76498 0.46563 0.20877
 C2156 C 0.77031 0.47100 0.22313
 C2157 C 0.78322 0.46366 0.22998
 C2158 C 0.79049 0.45109 0.22272
 H2159 H 0.84726 0.39617 0.18619
 H2160 H 0.83624 0.41895 0.19909
 H2161 H 0.78987 0.40116 0.19074
 H2162 H 0.80084 0.37859 0.17792
 H2163 H 0.81366 0.43207 0.21137
 H2164 H 0.78475 0.42666 0.19152
 H2165 H 0.76774 0.44912 0.19053
 H2166 H 0.75505 0.47099 0.20317
 H2167 H 0.78753 0.46744 0.24110
 H2168 H 0.80005 0.44545 0.22862
 C2169 C 0.83040 0.89718 0.68770
 C2170 C 0.82398 0.91042 0.69456
 C2171 C 0.80776 0.91213 0.69581
 C2172 C 0.79806 0.90008 0.69041
 C2173 C 0.80447 0.88687 0.68355
 C2174 C 0.82070 0.88530 0.68204
 C2175 C 0.80140 0.92627 0.70330
 C2176 C 0.78696 0.93163 0.70063
 C2177 C 0.78019 0.94549 0.70831
 C2178 C 0.76701 0.95251 0.70170
 C2179 C 0.75975 0.96511 0.70888
 C2180 C 0.76548 0.97095 0.72290
 C2181 C 0.77873 0.96399 0.72950
 C2182 C 0.78598 0.95137 0.72233
 H2183 H 0.84295 0.89634 0.68664
 H2184 H 0.83172 0.91945 0.69876
 H2185 H 0.78554 0.90061 0.69171
 H2186 H 0.79672 0.87773 0.67965
 H2187 H 0.80919 0.93271 0.71075
 H2188 H 0.77978 0.92595 0.69205
 H2189 H 0.76222 0.94816 0.69098
 H2190 H 0.74954 0.97016 0.70350
 H2191 H 0.78336 0.96812 0.74037
 H2192 H 0.79582 0.94605 0.72809
 C2193 C 0.69809 0.61117 0.67394
 C2194 C 0.70566 0.59816 0.68008
 C2195 C 0.69715 0.58501 0.68478
 C2196 C 0.68086 0.58497 0.68278
 C2197 C 0.67328 0.59800 0.67666
 C2198 C 0.68180 0.61127 0.67226
 C2199 C 0.70571 0.57162 0.69152
 C2200 C 0.69908 0.56107 0.70091
 C2201 C 0.70781 0.54826 0.70849
 C2202 C 0.70161 0.54161 0.72196
 C2203 C 0.70954 0.52975 0.72971
 C2204 C 0.72382 0.52414 0.72408
 C2205 C 0.72986 0.53052 0.71038
 C2206 C 0.72193 0.54241 0.70262
 H2207 H 0.70496 0.62127 0.67077
 H2208 H 0.71822 0.59848 0.68139
 H2209 H 0.67390 0.57487 0.68570
 H2210 H 0.66075 0.59762 0.67519
 H2211 H 0.71814 0.57115 0.68946
 H2212 H 0.68696 0.56238 0.70410
 H2213 H 0.69069 0.54578 0.72666
 H2214 H 0.70451 0.52505 0.74019
 H2215 H 0.74076 0.52635 0.70566
 H2216 H 0.72684 0.54683 0.69199
 C2217 C 0.68994 0.10772 0.16614
 C2218 C 0.69624 0.09415 0.17257
 C2219 C 0.69756 0.09247 0.18863
 C2220 C 0.69293 0.10487 0.19814
 C2221 C 0.68664 0.11840 0.19173
 C2222 C 0.68494 0.11992 0.17568
 C2223 C 0.70428 0.07794 0.19506
 C2224 C 0.70105 0.07277 0.20933
 C2225 C 0.70804 0.05861 0.21630
 C2226 C 0.70089 0.05204 0.22936
 C2227 C 0.70752 0.03926 0.23688
 C2228 C 0.72153 0.03279 0.23156
 C2229 C 0.72864 0.03925 0.21840
 C2230 C 0.72203 0.05205 0.21088
 H2231 H 0.68872 0.10854 0.15373
 H2232 H 0.69989 0.08486 0.16498
 H2233 H 0.69438 0.10433 0.21052
 H2234 H 0.68328 0.12778 0.19934
 H2235 H 0.71157 0.07111 0.18750
 H2236 H 0.69256 0.07892 0.21623
 H2237 H 0.69018 0.05692 0.23385
 H2238 H 0.70176 0.03459 0.24701
 H2239 H 0.73952 0.03462 0.21407
 H2240 H 0.72820 0.05699 0.20116
 C2241 C 0.16585 0.60250 0.18223
 C2242 C 0.17230 0.58944 0.18944
 C2243 C 0.18847 0.58824 0.19157
 C2244 C 0.19810 0.60047 0.18636
 C2245 C 0.19164 0.61353 0.17913
 C2246 C 0.17544 0.61473 0.17707
 C2247 C 0.19471 0.57451 0.19996
 C2248 C 0.20954 0.56970 0.19886
 C2249 C 0.21592 0.55630 0.20765
 C2250 C 0.22953 0.54910 0.20226
 C2251 C 0.23633 0.53685 0.21048
 C2252 C 0.22972 0.53158 0.22438
 C2253 C 0.21609 0.53877 0.22981
 C2254 C 0.20929 0.55103 0.22158
 H2255 H 0.15333 0.60303 0.18069
 H2256 H 0.16461 0.58025 0.19341
 H2257 H 0.21056 0.60029 0.18823
 H2258 H 0.19929 0.62291 0.17557
 H2259 H 0.18654 0.56789 0.20688
 H2260 H 0.21732 0.57542 0.19082
 H2261 H 0.23496 0.55300 0.19165
 H2262 H 0.24686 0.53160 0.20600
 H2263 H 0.21079 0.53508 0.24055
 H2264 H 0.19910 0.55656 0.22642
 C2265 C 0.20329 0.11065 0.67431
 C2266 C 0.21060 0.09752 0.68053
 C2267 C 0.20181 0.08458 0.68531
 C2268 C 0.18552 0.08486 0.68329
 C2269 C 0.17822 0.09801 0.67711
 C2270 C 0.18701 0.11109 0.67265
 C2271 C 0.21007 0.07106 0.69218
 C2272 C 0.20320 0.06075 0.70167
 C2273 C 0.21160 0.04780 0.70937
 C2274 C 0.20518 0.04135 0.72283
 C2275 C 0.21277 0.02932 0.73067
 C2276 C 0.22694 0.02336 0.72514
 C2277 C 0.23323 0.02954 0.71146
 C2278 C 0.22563 0.04160 0.70362
 H2279 H 0.21037 0.12058 0.67109
 H2280 H 0.22315 0.09758 0.68184
 H2281 H 0.17836 0.07493 0.68627
 H2282 H 0.16568 0.09789 0.67564
 H2283 H 0.22248 0.07028 0.69011
 H2284 H 0.19112 0.06239 0.70484
 H2285 H 0.19433 0.04579 0.72744
 H2286 H 0.20756 0.02478 0.74113
 H2287 H 0.24405 0.02510 0.70682
 H2288 H 0.23071 0.04586 0.69300
 C2289 C 0.30007 0.61549 0.32384
 C2290 C 0.29259 0.60294 0.31677
 C2291 C 0.30118 0.59026 0.31121
 C2292 C 0.31748 0.59023 0.31318
 C2293 C 0.32497 0.60280 0.32024
 C2294 C 0.31635 0.61558 0.32561
 C2295 C 0.29265 0.57723 0.30383
 C2296 C 0.29925 0.56706 0.29411
 C2297 C 0.29042 0.55440 0.28643
 C2298 C 0.29614 0.54826 0.27256
 C2299 C 0.28802 0.53650 0.26484
 C2300 C 0.27403 0.53054 0.27090
 C2301 C 0.26849 0.53642 0.28497
 C2302 C 0.27662 0.54815 0.29270
 H2303 H 0.29313 0.62523 0.32772
 H2304 H 0.28003 0.60323 0.31550
 H2305 H 0.32449 0.58046 0.30956
 H2306 H 0.33750 0.60242 0.32172
 H2307 H 0.28023 0.57662 0.30591
 H2308 H 0.31134 0.56851 0.29085
 H2309 H 0.30682 0.55274 0.26757
 H2310 H 0.29264 0.53216 0.25406
 H2311 H 0.25786 0.53194 0.29006
 H2312 H 0.27212 0.55211 0.30365
 C2313 C 0.29556 0.10961 0.82341
 C2314 C 0.28817 0.09671 0.81687
 C2315 C 0.29684 0.08378 0.81204
 C2316 C 0.31310 0.08383 0.81432
 C2317 C 0.32049 0.09674 0.82085
 C2318 C 0.31182 0.10981 0.82537
 C2319 C 0.28849 0.07048 0.80491
 C2320 C 0.29534 0.06030 0.79537
 C2321 C 0.28683 0.04752 0.78753
 C2322 C 0.29316 0.04130 0.77396
 C2323 C 0.28549 0.02940 0.76605
 C2324 C 0.27133 0.02334 0.77160
 C2325 C 0.26512 0.02932 0.78536
 C2326 C 0.27281 0.04124 0.79328
 H2327 H 0.28857 0.11955 0.82666
 H2328 H 0.27564 0.09694 0.81535
 H2329 H 0.32015 0.07387 0.81131
 H2330 H 0.33300 0.09644 0.82253
 H2331 H 0.27605 0.06977 0.80684
 H2332 H 0.30746 0.06190 0.79230
 H2333 H 0.30401 0.04581 0.76936
 H2334 H 0.29063 0.02501 0.75552
 H2335 H 0.25432 0.02479 0.79002
 H2336 H 0.26780 0.04532 0.80397
 C2337 C 0.79180 0.61184 0.82213
 C2338 C 0.78465 0.59889 0.81543
 C2339 C 0.79360 0.58639 0.81001
 C2340 C 0.80992 0.58699 0.81174
 C2341 C 0.81707 0.59998 0.81841
 C2342 C 0.80809 0.61256 0.82365
 C2343 C 0.78542 0.57292 0.80294
 C2344 C 0.79229 0.56288 0.79327
 C2345 C 0.78393 0.54988 0.78561
 C2346 C 0.79022 0.54371 0.77201
 C2347 C 0.78271 0.53160 0.76426
 C2348 C 0.76873 0.52527 0.77000
 C2349 C 0.76257 0.53122 0.78379
 C2350 C 0.77010 0.54335 0.79155
 H2351 H 0.78457 0.62141 0.82593
 H2352 H 0.77207 0.59871 0.81433
 H2353 H 0.81723 0.57740 0.80823
 H2354 H 0.82962 0.60007 0.81972
 H2355 H 0.77305 0.57191 0.80514
 H2356 H 0.80431 0.56473 0.78997
 H2357 H 0.80092 0.54840 0.76725
 H2358 H 0.78782 0.52725 0.75371
 H2359 H 0.75191 0.52649 0.78860
 H2360 H 0.76513 0.54739 0.80227
 C2361 C 0.83169 0.10071 0.31822
 C2362 C 0.82501 0.08792 0.31076
 C2363 C 0.80884 0.08710 0.30843
 C2364 C 0.79948 0.09954 0.31345
 C2365 C 0.80615 0.11231 0.32091
 C2366 C 0.82231 0.11303 0.32341
 C2367 C 0.80222 0.07346 0.30025
 C2368 C 0.78739 0.06878 0.30200
 C2369 C 0.78036 0.05541 0.29370
 C2370 C 0.76654 0.04892 0.29952
 C2371 C 0.75901 0.03684 0.29175
 C2372 C 0.76508 0.03102 0.27787
 C2373 C 0.77898 0.03742 0.27206
 C2374 C 0.78653 0.04953 0.27984
 H2375 H 0.84417 0.10090 0.32006
 H2376 H 0.83249 0.07857 0.30689
 H2377 H 0.78706 0.09968 0.31134
 H2378 H 0.79868 0.12181 0.32443
 H2379 H 0.81007 0.06678 0.29311
 H2380 H 0.78006 0.07465 0.31029
 H2381 H 0.76147 0.05328 0.31010
 H2382 H 0.74830 0.03220 0.29654
 H2383 H 0.78389 0.03328 0.26132
 H2384 H 0.79690 0.05448 0.27470
 C2385 C 0.70117 0.38574 0.31859
 C2386 C 0.70786 0.39868 0.31140
 C2387 C 0.69850 0.41070 0.30554
 C2388 C 0.68221 0.40959 0.30721
 C2389 C 0.67550 0.39661 0.31441
 C2390 C 0.68492 0.38456 0.32020
 C2391 C 0.70627 0.42433 0.29834
 C2392 C 0.69922 0.43423 0.28858
 C2393 C 0.70751 0.44751 0.28129
 C2394 C 0.70235 0.45314 0.26696
 C2395 C 0.71025 0.46531 0.25955
 C2396 C 0.72342 0.47216 0.26641
 C2397 C 0.72826 0.46686 0.28100
 C2398 C 0.72037 0.45474 0.28839
 H2399 H 0.70873 0.37656 0.32276
 H2400 H 0.72043 0.39927 0.31034
 H2401 H 0.67459 0.41881 0.30329
 H2402 H 0.66296 0.39615 0.31574
 H2403 H 0.71859 0.42573 0.30065
 H2404 H 0.68733 0.43209 0.28500
 H2405 H 0.69236 0.44791 0.26135
 H2406 H 0.70618 0.46919 0.24836
 H2407 H 0.73823 0.47203 0.28671
 H2408 H 0.72432 0.45117 0.29971
 C2409 C 0.67882 0.90295 0.83319
 C2410 C 0.68604 0.91587 0.82641
 C2411 C 0.68816 0.91665 0.81037
 C2412 C 0.68310 0.90409 0.80125
 C2413 C 0.67588 0.89118 0.80803
 C2414 C 0.67366 0.89046 0.82407
 C2415 C 0.69631 0.93035 0.80369
 C2416 C 0.69464 0.93486 0.78895
 C2417 C 0.70314 0.94818 0.78197
 C2418 C 0.69729 0.95481 0.76834
 C2419 C 0.70529 0.96687 0.76092
 C2420 C 0.71942 0.97252 0.76692
 C2421 C 0.72527 0.96595 0.78061
 C2422 C 0.71727 0.95387 0.78803
 H2423 H 0.67718 0.90278 0.84557
 H2424 H 0.68993 0.92532 0.83371
 H2425 H 0.68504 0.90394 0.78893
 H2426 H 0.67237 0.88158 0.80074
 H2427 H 0.70346 0.93718 0.81142
 H2428 H 0.68632 0.92888 0.78167
 H2429 H 0.68651 0.95058 0.76335
 H2430 H 0.70048 0.97165 0.75037
 H2431 H 0.73620 0.96994 0.78546
 H2432 H 0.72246 0.94879 0.79823
 C2433 C 0.18293 0.40345 0.83481
 C2434 C 0.19049 0.41620 0.82809
 C2435 C 0.19302 0.41680 0.81211
 C2436 C 0.18792 0.40427 0.80296
 C2437 C 0.18036 0.39152 0.80969
 C2438 C 0.17783 0.39094 0.82569
 C2439 C 0.20167 0.43025 0.80556
 C2440 C 0.20059 0.43467 0.79074
 C2441 C 0.20956 0.44782 0.78403
 C2442 C 0.20405 0.45485 0.77046
 C2443 C 0.21242 0.46688 0.76340
 C2444 C 0.22660 0.47207 0.76969
 C2445 C 0.23216 0.46503 0.78327
 C2446 C 0.22376 0.45301 0.79035
 H2447 H 0.18103 0.40341 0.84716
 H2448 H 0.19438 0.42564 0.83541
 H2449 H 0.19013 0.40400 0.79069
 H2450 H 0.17688 0.38190 0.80241
 H2451 H 0.20871 0.43702 0.81344
 H2452 H 0.19239 0.42883 0.78322
 H2453 H 0.19322 0.45100 0.76528
 H2454 H 0.20783 0.47201 0.75292
 H2455 H 0.24311 0.46867 0.78834
 H2456 H 0.22868 0.44758 0.80051
 C2457 C 0.17992 0.88883 0.30057
 C2458 C 0.18689 0.90149 0.29309
 C2459 C 0.19261 0.91418 0.30155
 C2460 C 0.19073 0.91419 0.31768
 C2461 C 0.18378 0.90153 0.32516
 C2462 C 0.17844 0.88865 0.31671
 C2463 C 0.20028 0.92717 0.29315
 C2464 C 0.21071 0.93675 0.29971
 C2465 C 0.21905 0.94927 0.29123
 C2466 C 0.23315 0.95487 0.29727
 C2467 C 0.24149 0.96658 0.28967
 C2468 C 0.23583 0.97306 0.27586
 C2469 C 0.22156 0.96766 0.26993
 C2470 C 0.21321 0.95595 0.27755
 H2471 H 0.17601 0.87903 0.29375
 H2472 H 0.18807 0.90124 0.28065
 H2473 H 0.19441 0.92400 0.32458
 H2474 H 0.18246 0.90186 0.33758
 H2475 H 0.19796 0.92811 0.28092
 H2476 H 0.21410 0.93483 0.31159
 H2477 H 0.23784 0.95005 0.30786
 H2478 H 0.25240 0.97052 0.29459
 H2479 H 0.21680 0.97253 0.25940
 H2480 H 0.20214 0.95236 0.27277
 C2481 C 0.39620 0.33184 0.68379
 C2482 C 0.40852 0.32420 0.69114
 C2483 C 0.40827 0.30798 0.69316
 C2484 C 0.39529 0.29953 0.68775
 C2485 C 0.38299 0.30717 0.68036
 C2486 C 0.38329 0.32340 0.67835
 C2487 C 0.42134 0.30048 0.70157
 C2488 C 0.42472 0.28526 0.70056
 C2489 C 0.43752 0.27768 0.70929
 C2490 C 0.44328 0.26336 0.70404
 C2491 C 0.45500 0.25556 0.71215
 C2492 C 0.46117 0.26188 0.72578
 C2493 C 0.45538 0.27618 0.73110
 C2494 C 0.44364 0.28397 0.72301
 H2495 H 0.39681 0.34434 0.68231
 H2496 H 0.41831 0.33100 0.69528
 H2497 H 0.39432 0.28711 0.68953
 H2498 H 0.37304 0.30042 0.67658
 H2499 H 0.42871 0.30800 0.70842
 H2500 H 0.41826 0.27802 0.69260
 H2501 H 0.43868 0.25818 0.69361
 H2502 H 0.45916 0.24454 0.70776
 H2503 H 0.45979 0.28129 0.74165
 H2504 H 0.43920 0.29470 0.72777
 C2505 C 0.39287 0.83241 0.18477
 C2506 C 0.40568 0.82582 0.19230
 C2507 C 0.40642 0.80971 0.19491
 C2508 C 0.39393 0.80030 0.18994
 C2509 C 0.38113 0.80690 0.18238
 C2510 C 0.38043 0.82303 0.17976
 C2511 C 0.42003 0.80329 0.20337
 C2512 C 0.42448 0.78835 0.20244
 C2513 C 0.43794 0.78170 0.21096
 C2514 C 0.44430 0.76764 0.20575
 C2515 C 0.45658 0.76056 0.21365
 C2516 C 0.46277 0.76733 0.22707
 C2517 C 0.45645 0.78144 0.23233
 C2518 C 0.44412 0.78853 0.22440
 H2519 H 0.39271 0.84487 0.18281
 H2520 H 0.41507 0.83335 0.19608
 H2521 H 0.39373 0.78792 0.19220
 H2522 H 0.37157 0.79942 0.17896
 H2523 H 0.42691 0.81139 0.21007
 H2524 H 0.41842 0.78063 0.19462
 H2525 H 0.43971 0.76206 0.19551
 H2526 H 0.46114 0.74968 0.20929
 H2527 H 0.46086 0.78688 0.24270
 H2528 H 0.43928 0.79912 0.22910
 C2529 C 0.88203 0.30433 0.17969
 C2530 C 0.89435 0.29623 0.18652
 C2531 C 0.90720 0.30424 0.19266
 C2532 C 0.90761 0.32060 0.19151
 C2533 C 0.89525 0.32870 0.18471
 C2534 C 0.88231 0.32066 0.17876
 C2535 C 0.91997 0.29506 0.19978
 C2536 C 0.93031 0.30096 0.20982
 C2537 C 0.94274 0.29158 0.21728
 C2538 C 0.94932 0.29699 0.23110
 C2539 C 0.96099 0.28851 0.23859
 C2540 C 0.96641 0.27443 0.23237
 C2541 C 0.96004 0.26914 0.21840
 C2542 C 0.94840 0.27765 0.21088
 H2543 H 0.87215 0.29781 0.17533
 H2544 H 0.89376 0.28365 0.18715
 H2545 H 0.91751 0.32721 0.19558
 H2546 H 0.89592 0.34126 0.18388
 H2547 H 0.92023 0.28274 0.19720
 H2548 H 0.92920 0.31293 0.21348
 H2549 H 0.94531 0.30775 0.23621
 H2550 H 0.96569 0.29294 0.24931
 H2551 H 0.96410 0.25844 0.21321
 H2552 H 0.94409 0.27333 0.19999
 C2553 C 0.89183 0.82926 0.68665
 C2554 C 0.90434 0.82148 0.69353
 C2555 C 0.90435 0.80518 0.69479
 C2556 C 0.89143 0.79680 0.68918
 C2557 C 0.87894 0.80459 0.68228
 C2558 C 0.87898 0.82090 0.68095
 C2559 C 0.91764 0.79749 0.70269
 C2560 C 0.92127 0.78239 0.70093
 C2561 C 0.93422 0.77465 0.70931
 C2562 C 0.94044 0.76081 0.70334
 C2563 C 0.95234 0.75291 0.71113
 C2564 C 0.95821 0.75865 0.72514
 C2565 C 0.95193 0.77246 0.73116
 C2566 C 0.94004 0.78033 0.72340
 H2567 H 0.89226 0.84183 0.68569
 H2568 H 0.91408 0.82823 0.69786
 H2569 H 0.89067 0.78430 0.69041
 H2570 H 0.86904 0.79786 0.67830
 H2571 H 0.92495 0.80479 0.70983
 H2572 H 0.91489 0.77543 0.69268
 H2573 H 0.93607 0.75608 0.69260
 H2574 H 0.95688 0.74227 0.70621
 H2575 H 0.95608 0.77712 0.74201
 H2576 H 0.93523 0.79063 0.72871
 C2577 C 0.62415 0.30567 0.32156
 C2578 C 0.61141 0.29830 0.31469
 C2579 C 0.59899 0.30702 0.30865
 C2580 C 0.59940 0.32334 0.31000
 C2581 C 0.61217 0.33073 0.31687
 C2582 C 0.62471 0.32198 0.32266
 C2583 C 0.58575 0.29860 0.30145
 C2584 C 0.57585 0.30512 0.29132
 C2585 C 0.56296 0.29639 0.28385
 C2586 C 0.55708 0.30175 0.26969
 C2587 C 0.54512 0.29370 0.26216
 C2588 C 0.53871 0.28014 0.26871
 C2589 C 0.54434 0.27499 0.28307
 C2590 C 0.55626 0.28305 0.29060
 H2591 H 0.63370 0.29862 0.32578
 H2592 H 0.61135 0.28571 0.31391
 H2593 H 0.58983 0.33048 0.30601
 H2594 H 0.61213 0.34329 0.31784
 H2595 H 0.58475 0.28631 0.30402
 H2596 H 0.57770 0.31701 0.28760
 H2597 H 0.56191 0.31209 0.26432
 H2598 H 0.54099 0.29801 0.25114
 H2599 H 0.53952 0.26470 0.28854
 H2600 H 0.56001 0.27885 0.30177
 C2601 C 0.60201 0.83540 0.81548
 C2602 C 0.58983 0.82773 0.80792
 C2603 C 0.58973 0.81144 0.80669
 C2604 C 0.60226 0.80296 0.81295
 C2605 C 0.61442 0.81062 0.82052
 C2606 C 0.61442 0.82691 0.82190
 C2607 C 0.57674 0.80379 0.79831
 C2608 C 0.57265 0.78886 0.80055
 C2609 C 0.55988 0.78103 0.79201
 C2610 C 0.55315 0.76757 0.79839
 C2611 C 0.54141 0.75954 0.79054
 C2612 C 0.53620 0.76476 0.77606
 C2613 C 0.54298 0.77819 0.76962
 C2614 C 0.55473 0.78622 0.77746
 H2615 H 0.60165 0.84796 0.81644
 H2616 H 0.58039 0.83455 0.80308
 H2617 H 0.60296 0.79045 0.81174
 H2618 H 0.62402 0.80380 0.82501
 H2619 H 0.57000 0.81097 0.79052
 H2620 H 0.57843 0.78214 0.80944
 H2621 H 0.55700 0.76324 0.80950
 H2622 H 0.53647 0.74920 0.79581
 H2623 H 0.53933 0.78244 0.75841
 H2624 H 0.55994 0.79623 0.77189
 C2625 C 0.10641 0.33517 0.81684
 C2626 C 0.09430 0.32721 0.80946
 C2627 C 0.09439 0.31090 0.80854
 C2628 C 0.10708 0.30270 0.81485
 C2629 C 0.11916 0.31064 0.82224
 C2630 C 0.11892 0.32695 0.82339
 C2631 C 0.08144 0.30292 0.80042
 C2632 C 0.07760 0.28796 0.80291
 C2633 C 0.06494 0.27977 0.79455
 C2634 C 0.05862 0.26615 0.80103
 C2635 C 0.04699 0.25780 0.79332
 C2636 C 0.04150 0.26286 0.77888
 C2637 C 0.04788 0.27644 0.77235
 C2638 C 0.05951 0.28477 0.78004
 H2639 H 0.10589 0.34774 0.81761
 H2640 H 0.08475 0.33382 0.80456
 H2641 H 0.10795 0.29018 0.81385
 H2642 H 0.12885 0.30403 0.82684
 H2643 H 0.07452 0.30989 0.79259
 H2644 H 0.08358 0.28145 0.81183
 H2645 H 0.06269 0.26195 0.81211
 H2646 H 0.04235 0.24736 0.79864
 H2647 H 0.04402 0.28057 0.76117
 H2648 H 0.06442 0.29487 0.77436
 C2649 C 0.11861 0.80897 0.31999
 C2650 C 0.10587 0.80131 0.31339
 C2651 C 0.09331 0.80978 0.30729
 C2652 C 0.09356 0.82614 0.30832
 C2653 C 0.10633 0.83379 0.31489
 C2654 C 0.11903 0.82530 0.32072
 C2655 C 0.08015 0.80111 0.30022
 C2656 C 0.07031 0.80739 0.28989
 C2657 C 0.05760 0.79854 0.28226
 C2658 C 0.05166 0.80415 0.26822
 C2659 C 0.03980 0.79616 0.26052
 C2660 C 0.03352 0.78239 0.26674
 C2661 C 0.03923 0.77691 0.28095
 C2662 C 0.05109 0.78492 0.28867
 H2663 H 0.12827 0.80211 0.32427
 H2664 H 0.10593 0.78871 0.31286
 H2665 H 0.08389 0.83310 0.30430
 H2666 H 0.10618 0.84638 0.31560
 H2667 H 0.07922 0.78886 0.30299
 H2668 H 0.07214 0.81925 0.28606
 H2669 H 0.05634 0.81469 0.26310
 H2670 H 0.03562 0.80074 0.24963
 H2671 H 0.03453 0.76643 0.28614
 H2672 H 0.05493 0.78048 0.29971
 C2673 C 0.60455 0.67456 0.66745
 C2674 C 0.59162 0.68129 0.67455
 C2675 C 0.59083 0.68253 0.69067
 C2676 C 0.60326 0.67669 0.69959
 C2677 C 0.61618 0.66990 0.69247
 C2678 C 0.61705 0.66895 0.67632
 C2679 C 0.57738 0.69086 0.69753
 C2680 C 0.57337 0.69002 0.71247
 C2681 C 0.56042 0.69917 0.71921
 C2682 C 0.55347 0.69396 0.73294
 C2683 C 0.54157 0.70252 0.73991
 C2684 C 0.53643 0.71659 0.73333
 C2685 C 0.54345 0.72187 0.71964
 C2686 C 0.55535 0.71332 0.71269
 H2687 H 0.60483 0.67385 0.65498
 H2688 H 0.58226 0.68572 0.66739
 H2689 H 0.60340 0.67779 0.71200
 H2690 H 0.62577 0.66591 0.69957
 H2691 H 0.57034 0.69776 0.68973
 H2692 H 0.57940 0.68205 0.72007
 H2693 H 0.55727 0.68320 0.73830
 H2694 H 0.53645 0.69816 0.75049
 H2695 H 0.53989 0.73274 0.71436
 H2696 H 0.56076 0.71807 0.70244
 C2697 C 0.62486 0.18299 0.19611
 C2698 C 0.61219 0.18958 0.20378
 C2699 C 0.59948 0.19557 0.19550
 C2700 C 0.59961 0.19459 0.17928
 C2701 C 0.61233 0.18804 0.17159
 C2702 C 0.62507 0.18216 0.17993
 C2703 C 0.58630 0.20236 0.20426
 C2704 C 0.57589 0.21225 0.19813
 C2705 C 0.56314 0.21954 0.20712
 C2706 C 0.55652 0.23337 0.20153
 C2707 C 0.54462 0.24079 0.20965
 C2708 C 0.53897 0.23447 0.22355
 C2709 C 0.54536 0.22045 0.22902
 C2710 C 0.55727 0.21302 0.22087
 H2711 H 0.63458 0.17868 0.20284
 H2712 H 0.61239 0.19010 0.21627
 H2713 H 0.58985 0.19856 0.17244
 H2714 H 0.61206 0.18728 0.15913
 H2715 H 0.58578 0.19973 0.21646
 H2716 H 0.57720 0.21600 0.18629
 H2717 H 0.56070 0.23858 0.19091
 H2718 H 0.53991 0.25153 0.20507
 H2719 H 0.54115 0.21520 0.23960
 H2720 H 0.56164 0.20209 0.22532
 C2721 C 0.10298 0.66851 0.18378
 C2722 C 0.09017 0.67559 0.19083
 C2723 C 0.08973 0.69179 0.19284
 C2724 C 0.10255 0.70077 0.18793
 C2725 C 0.11533 0.69371 0.18088
 C2726 C 0.11568 0.67751 0.17869
 C2727 C 0.07607 0.69881 0.20064
 C2728 C 0.07186 0.71372 0.19869
 C2729 C 0.05849 0.72102 0.20673
 C2730 C 0.05211 0.73472 0.20056
 C2731 C 0.03993 0.74237 0.20807
 C2732 C 0.03393 0.73653 0.22201
 C2733 C 0.04030 0.72280 0.22820
 C2734 C 0.05248 0.71515 0.22070
 H2735 H 0.10287 0.65602 0.18216
 H2736 H 0.08052 0.66838 0.19463
 H2737 H 0.10296 0.71321 0.18981
 H2738 H 0.12511 0.70090 0.17743
 H2739 H 0.06898 0.69118 0.20770
 H2740 H 0.07809 0.72089 0.19046
 H2741 H 0.05660 0.73957 0.18990
 H2742 H 0.03533 0.75295 0.20301
 H2743 H 0.03602 0.71807 0.23900
 H2744 H 0.05737 0.70492 0.22612
 C2745 C 0.11104 0.17596 0.66817
 C2746 C 0.09820 0.18277 0.67536
 C2747 C 0.09742 0.18380 0.69150
 C2748 C 0.10982 0.17777 0.70033
 C2749 C 0.12265 0.17090 0.69312
 C2750 C 0.12346 0.17006 0.67697
 C2751 C 0.08397 0.19198 0.69851
 C2752 C 0.07978 0.19048 0.71335
 C2753 C 0.06667 0.19917 0.72039
 C2754 C 0.05995 0.19338 0.73400
 C2755 C 0.04791 0.20144 0.74130
 C2756 C 0.04238 0.21557 0.73520
 C2757 C 0.04914 0.22142 0.72160
 C2758 C 0.06119 0.21337 0.71430
 H2759 H 0.11129 0.17535 0.65570
 H2760 H 0.08887 0.18737 0.66827
 H2761 H 0.10999 0.17874 0.71275
 H2762 H 0.13219 0.16671 0.70017
 H2763 H 0.07703 0.19920 0.69091
 H2764 H 0.08577 0.18219 0.72064
 H2765 H 0.06403 0.18256 0.73901
 H2766 H 0.04300 0.19663 0.75179
 H2767 H 0.04526 0.23236 0.71669
 H2768 H 0.06639 0.21854 0.70415
 C2769 C 0.39247 0.66394 0.32056
 C2770 C 0.40552 0.67001 0.31299
 C2771 C 0.40715 0.68612 0.31070
 C2772 C 0.39535 0.69607 0.31617
 C2773 C 0.38231 0.68999 0.32377
 C2774 C 0.38066 0.67385 0.32594
 C2775 C 0.42082 0.69192 0.30189
 C2776 C 0.42605 0.70664 0.30261
 C2777 C 0.43938 0.71263 0.29342
 C2778 C 0.44684 0.72631 0.29830
 C2779 C 0.45896 0.73282 0.28967
 C2780 C 0.46387 0.72585 0.27586
 C2781 C 0.45648 0.71211 0.27097
 C2782 C 0.44433 0.70559 0.27961
 H2783 H 0.39160 0.65147 0.32219
 H2784 H 0.41437 0.66208 0.30885
 H2785 H 0.39585 0.70849 0.31422
 H2786 H 0.37325 0.69788 0.32752
 H2787 H 0.42703 0.68353 0.29495
 H2788 H 0.42073 0.71465 0.31064
 H2789 H 0.44321 0.73204 0.30881
 H2790 H 0.46437 0.74344 0.29376
 H2791 H 0.45989 0.70654 0.26031
 H2792 H 0.43860 0.69531 0.27516
 C2793 C 0.38802 0.15817 0.81802
 C2794 C 0.40118 0.16409 0.81051
 C2795 C 0.40279 0.18014 0.80785
 C2796 C 0.39082 0.19017 0.81275
 C2797 C 0.37767 0.18425 0.82027
 C2798 C 0.37610 0.16819 0.82296
 C2799 C 0.41667 0.18585 0.79932
 C2800 C 0.42191 0.20055 0.80015
 C2801 C 0.43545 0.20651 0.79125
 C2802 C 0.44280 0.22021 0.79625
 C2803 C 0.45513 0.22669 0.78787
 C2804 C 0.46035 0.21965 0.77421
 C2805 C 0.45305 0.20590 0.76921
 C2806 C 0.44070 0.19942 0.77759
 H2807 H 0.38720 0.14575 0.82003
 H2808 H 0.41016 0.15610 0.80678
 H2809 H 0.39129 0.20254 0.81044
 H2810 H 0.36852 0.19221 0.82362
 H2811 H 0.42302 0.17740 0.79257
 H2812 H 0.41642 0.20858 0.80804
 H2813 H 0.43892 0.22599 0.80665
 H2814 H 0.46046 0.23731 0.79203
 H2815 H 0.45670 0.20026 0.75866
 H2816 H 0.43508 0.18913 0.77305
 C2817 C 0.87096 0.68987 0.82144
 C2818 C 0.88402 0.69688 0.81476
 C2819 C 0.89652 0.68784 0.80946
 C2820 C 0.89575 0.67154 0.81121
 C2821 C 0.88264 0.66452 0.81787
 C2822 C 0.87012 0.67362 0.82308
 C2823 C 0.91016 0.69594 0.80258
 C2824 C 0.92055 0.68903 0.79329
 C2825 C 0.93367 0.69747 0.78587
 C2826 C 0.94008 0.69140 0.77229
 C2827 C 0.95219 0.69914 0.76469
 C2828 C 0.95827 0.71312 0.77059
 C2829 C 0.95215 0.71901 0.78442
 C2830 C 0.94003 0.71125 0.79203
 H2831 H 0.86143 0.69719 0.82519
 H2832 H 0.88431 0.70944 0.81362
 H2833 H 0.90531 0.66415 0.80776
 H2834 H 0.88242 0.65199 0.81925
 H2835 H 0.91106 0.70833 0.80460
 H2836 H 0.91891 0.67697 0.79010
 H2837 H 0.93552 0.68073 0.76738
 H2838 H 0.95669 0.69424 0.75410
 H2839 H 0.95670 0.72965 0.78937
 H2840 H 0.93582 0.71603 0.80277
 C2841 C 0.89634 0.16487 0.32184
 C2842 C 0.90933 0.17166 0.31479
 C2843 C 0.91025 0.18785 0.31274
 C2844 C 0.89784 0.19716 0.31797
 C2845 C 0.88485 0.19036 0.32504
 C2846 C 0.88389 0.17413 0.32693
 C2847 C 0.92384 0.19438 0.30430
 C2848 C 0.92827 0.20935 0.30506
 C2849 C 0.94147 0.21587 0.29604
 C2850 C 0.94868 0.22958 0.30120
 C2851 C 0.96078 0.23642 0.29274
 C2852 C 0.96585 0.22975 0.27884
 C2853 C 0.95860 0.21605 0.27364
 C2854 C 0.94651 0.20921 0.28209
 H2855 H 0.89601 0.15235 0.32328
 H2856 H 0.91867 0.16421 0.31082
 H2857 H 0.89781 0.20962 0.31619
 H2858 H 0.87530 0.19776 0.32858
 H2859 H 0.93066 0.18631 0.29753
 H2860 H 0.92241 0.21713 0.31293
 H2861 H 0.94493 0.23504 0.31181
 H2862 H 0.96607 0.24701 0.29705
 H2863 H 0.96212 0.21070 0.26290
 H2864 H 0.94093 0.19896 0.27742
 C2865 C 0.30499 0.32563 0.61759
 C2866 C 0.29744 0.31895 0.60496
 C2867 C 0.30601 0.31286 0.59259
 C2868 C 0.32240 0.31387 0.59301
 C2869 C 0.32996 0.32051 0.60569
 C2870 C 0.32133 0.32645 0.61811
 C2871 C 0.29735 0.30597 0.57944
 C2872 C 0.30368 0.29620 0.56915
 C2873 C 0.29471 0.28897 0.55639
 C2874 C 0.30029 0.27515 0.54982
 C2875 C 0.29207 0.26780 0.53796
 C2876 C 0.27809 0.27417 0.53236
 C2877 C 0.27267 0.28819 0.53868
 C2878 C 0.28092 0.29557 0.55049
 H2879 H 0.29804 0.32997 0.62706
 H2880 H 0.28482 0.31842 0.60492
 H2881 H 0.32946 0.30983 0.58352
 H2882 H 0.34256 0.32125 0.60566
 H2883 H 0.28501 0.30849 0.57881
 H2884 H 0.31566 0.29254 0.57054
 H2885 H 0.31096 0.26990 0.55401
 H2886 H 0.29660 0.25704 0.53330
 H2887 H 0.26204 0.29351 0.53448
 H2888 H 0.27650 0.30651 0.55479
 C2889 C 0.30110 0.81932 0.11997
 C2890 C 0.29362 0.81235 0.10746
 C2891 C 0.30222 0.80648 0.09501
 C2892 C 0.31860 0.80781 0.09534
 C2893 C 0.32609 0.81476 0.10791
 C2894 C 0.31742 0.82067 0.12032
 C2895 C 0.29356 0.79966 0.08180
 C2896 C 0.29996 0.79041 0.07108
 C2897 C 0.29091 0.78358 0.05813
 C2898 C 0.29636 0.76992 0.05113
 C2899 C 0.28805 0.76301 0.03906
 C2900 C 0.27413 0.76969 0.03364
 C2901 C 0.26887 0.78357 0.04039
 C2902 C 0.27718 0.79049 0.05244
 H2903 H 0.29410 0.82359 0.12944
 H2904 H 0.28101 0.81154 0.10752
 H2905 H 0.32569 0.80387 0.08582
 H2906 H 0.33867 0.81586 0.10776
 H2907 H 0.28116 0.80189 0.08139
 H2908 H 0.31202 0.78696 0.07215
 H2909 H 0.30699 0.76446 0.05516
 H2910 H 0.29247 0.75236 0.03407
 H2911 H 0.25829 0.78913 0.03637
 H2912 H 0.27288 0.80133 0.05708
 C2913 C 0.80535 0.32655 0.11656
 C2914 C 0.79814 0.32028 0.10352
 C2915 C 0.80705 0.31456 0.09121
 C2916 C 0.82342 0.31566 0.09205
 C2917 C 0.83063 0.32188 0.10512
 C2918 C 0.82168 0.32730 0.11756
 C2919 C 0.79881 0.30774 0.07776
 C2920 C 0.80548 0.29781 0.06783
 C2921 C 0.79699 0.29024 0.05494
 C2922 C 0.80309 0.27646 0.04873
 C2923 C 0.79537 0.26870 0.03682
 C2924 C 0.78137 0.27459 0.03076
 C2925 C 0.77543 0.28859 0.03670
 C2926 C 0.78318 0.29638 0.04860
 H2927 H 0.79815 0.33053 0.12601
 H2928 H 0.78553 0.31969 0.10316
 H2929 H 0.83073 0.31195 0.08261
 H2930 H 0.84323 0.32262 0.10544
 H2931 H 0.78651 0.31028 0.07669
 H2932 H 0.81740 0.29419 0.06971
 H2933 H 0.81378 0.27155 0.05327
 H2934 H 0.80030 0.25798 0.03248
 H2935 H 0.76476 0.29353 0.03216
 H2936 H 0.77836 0.30724 0.05264
 C2937 C 0.80082 0.82408 0.62009
 C2938 C 0.79336 0.81761 0.60730
 C2939 C 0.80202 0.81180 0.59487
 C2940 C 0.81840 0.81285 0.59539
 C2941 C 0.82587 0.81928 0.60822
 C2942 C 0.81716 0.82494 0.62072
 C2943 C 0.79347 0.80512 0.58155
 C2944 C 0.79988 0.79547 0.57120
 C2945 C 0.79098 0.78844 0.55829
 C2946 C 0.79646 0.77458 0.55170
 C2947 C 0.78827 0.76740 0.53972
 C2948 C 0.77443 0.77400 0.53400
 C2949 C 0.76915 0.78807 0.54032
 C2950 C 0.77736 0.79527 0.55226
 H2951 H 0.79380 0.82821 0.62961
 H2952 H 0.78074 0.81704 0.60719
 H2953 H 0.82553 0.80901 0.58586
 H2954 H 0.83847 0.82007 0.60827
 H2955 H 0.78115 0.80768 0.58083
 H2956 H 0.81182 0.79173 0.57266
 H2957 H 0.80700 0.76916 0.55599
 H2958 H 0.79269 0.75660 0.53505
 H2959 H 0.75865 0.79357 0.53604
 H2960 H 0.77306 0.80625 0.55658
 C2961 C 0.31216 0.66781 0.39811
 C2962 C 0.30461 0.67482 0.41055
 C2963 C 0.30312 0.69107 0.41131
 C2964 C 0.30938 0.70019 0.39927
 C2965 C 0.31697 0.69316 0.38683
 C2966 C 0.31834 0.67689 0.38606
 C2967 C 0.29433 0.69788 0.42440
 C2968 C 0.29552 0.71281 0.42876
 C2969 C 0.28651 0.71961 0.44171
 C2970 C 0.29205 0.73329 0.44863
 C2971 C 0.28377 0.74034 0.46059
 C2972 C 0.26966 0.73392 0.46585
 C2973 C 0.26403 0.72026 0.45889
 C2974 C 0.27231 0.71321 0.44691
 H2975 H 0.31316 0.65524 0.39791
 H2976 H 0.29987 0.66750 0.41960
 H2977 H 0.30807 0.71271 0.39910
 H2978 H 0.32136 0.70043 0.37757
 H2979 H 0.28704 0.69002 0.43100
 H2980 H 0.30386 0.72035 0.42310
 H2981 H 0.30286 0.73855 0.44477
 H2982 H 0.28842 0.75088 0.46565
 H2983 H 0.25311 0.71511 0.46257
 H2984 H 0.26734 0.70298 0.44158
 C2985 C 0.29725 0.17695 0.88252
 C2986 C 0.29029 0.18472 0.89484
 C2987 C 0.29933 0.19046 0.90707
 C2988 C 0.31557 0.18809 0.90679
 C2989 C 0.32254 0.18034 0.89442
 C2990 C 0.31345 0.17466 0.88218
 C2991 C 0.29125 0.19829 0.92003
 C2992 C 0.29833 0.20777 0.93014
 C2993 C 0.28993 0.21565 0.94287
 C2994 C 0.29621 0.22937 0.94907
 C2995 C 0.28854 0.23724 0.96094
 C2996 C 0.27445 0.23146 0.96695
 C2997 C 0.26834 0.21753 0.96099
 C2998 C 0.27602 0.20966 0.94915
 H2999 H 0.28995 0.17286 0.87318
 H3000 H 0.27776 0.18631 0.89478
 H3001 H 0.32294 0.19186 0.91619
 H3002 H 0.33503 0.17849 0.89459
 H3003 H 0.27876 0.19666 0.92074
 H3004 H 0.31053 0.21061 0.92867
 H3005 H 0.30699 0.23414 0.94457
 H3006 H 0.29359 0.24791 0.96533
 H3007 H 0.25761 0.21266 0.96549
 H3008 H 0.27109 0.19881 0.94514
 C3009 C 0.79259 0.67626 0.88456
 C3010 C 0.78580 0.68374 0.89715
 C3011 C 0.79507 0.68963 0.90914
 C3012 C 0.81132 0.68749 0.90848
 C3013 C 0.81811 0.68002 0.89586
 C3014 C 0.80883 0.67441 0.88372
 C3015 C 0.78729 0.69759 0.92218
 C3016 C 0.79452 0.70772 0.93156
 C3017 C 0.78644 0.71608 0.94418
 C3018 C 0.79274 0.73017 0.94950
 C3019 C 0.78533 0.73856 0.96118
 C3020 C 0.77148 0.73297 0.96784
 C3021 C 0.76538 0.71866 0.96279
 C3022 C 0.77281 0.71027 0.95116
 H3023 H 0.78514 0.67217 0.87532
 H3024 H 0.77325 0.68513 0.89741
 H3025 H 0.81885 0.69133 0.91773
 H3026 H 0.83063 0.67847 0.89568
 H3027 H 0.77489 0.69566 0.92344
 H3028 H 0.80656 0.71080 0.92942
 H3029 H 0.80333 0.73483 0.94445
 H3030 H 0.79037 0.74951 0.96486
 H3031 H 0.75484 0.71392 0.96783
 H3032 H 0.76789 0.69917 0.94784
 C3033 C 0.80252 0.17547 0.38406
 C3034 C 0.79474 0.18214 0.39654
 C3035 C 0.80305 0.18765 0.40936
 C3036 C 0.81940 0.18610 0.40953
 C3037 C 0.82719 0.17945 0.39701
 C3038 C 0.81883 0.17406 0.38414
 C3039 C 0.79419 0.19454 0.42236
 C3040 C 0.80047 0.20423 0.43277
 C3041 C 0.79139 0.21162 0.44535
 C3042 C 0.79711 0.22541 0.45190
 C3043 C 0.78891 0.23290 0.46364
 C3044 C 0.77481 0.22669 0.46921
 C3045 C 0.76922 0.21270 0.46289
 C3046 C 0.77744 0.20520 0.45113
 H3047 H 0.79576 0.17157 0.37424
 H3048 H 0.78216 0.18311 0.39612
 H3049 H 0.82623 0.18970 0.41938
 H3050 H 0.83974 0.17824 0.39752
 H3051 H 0.78180 0.19217 0.42273
 H3052 H 0.81253 0.20774 0.43159
 H3053 H 0.80789 0.23054 0.44779
 H3054 H 0.79359 0.24362 0.46829
 H3055 H 0.75849 0.20753 0.46703
 H3056 H 0.77290 0.19432 0.44678
 C3057 C 0.70346 0.32365 0.38314
 C3058 C 0.71083 0.31713 0.39600
 C3059 C 0.70207 0.31150 0.40850
 C3060 C 0.68572 0.31285 0.40802
 C3061 C 0.67835 0.31935 0.39513
 C3062 C 0.68713 0.32478 0.38254
 C3063 C 0.71048 0.30458 0.42183
 C3064 C 0.70389 0.29464 0.43187
 C3065 C 0.71252 0.28706 0.44468
 C3066 C 0.70662 0.27312 0.45084
 C3067 C 0.71443 0.26541 0.46274
 C3068 C 0.72831 0.27153 0.46887
 C3069 C 0.73407 0.28567 0.46297
 C3070 C 0.72623 0.29340 0.45104
 H3071 H 0.71054 0.32760 0.37356
 H3072 H 0.72343 0.31632 0.39609
 H3073 H 0.67855 0.30918 0.41761
 H3074 H 0.66577 0.32036 0.39511
 H3075 H 0.72281 0.30709 0.42273
 H3076 H 0.69193 0.29102 0.43014
 H3077 H 0.69601 0.26805 0.44627
 H3078 H 0.70963 0.25457 0.46707
 H3079 H 0.74464 0.29078 0.46755
 H3080 H 0.73089 0.30438 0.44701
 C3081 C 0.66352 0.82329 0.89708
 C3082 C 0.67022 0.81590 0.90983
 C3083 C 0.68646 0.81437 0.91105
 C3084 C 0.69590 0.82035 0.89913
 C3085 C 0.68920 0.82779 0.88640
 C3086 C 0.67295 0.82927 0.88520
 C3087 C 0.69298 0.80582 0.92447
 C3088 C 0.70781 0.80719 0.92919
 C3089 C 0.71449 0.79826 0.94229
 C3090 C 0.72819 0.80377 0.94925
 C3091 C 0.73522 0.79548 0.96126
 C3092 C 0.72873 0.78140 0.96654
 C3093 C 0.71502 0.77585 0.95957
 C3094 C 0.70801 0.78413 0.94753
 H3095 H 0.65096 0.82436 0.89650
 H3096 H 0.66266 0.81132 0.91877
 H3097 H 0.70842 0.81895 0.89930
 H3098 H 0.69673 0.83199 0.87727
 H3099 H 0.68500 0.79852 0.93093
 H3100 H 0.71539 0.81557 0.92363
 H3101 H 0.73351 0.81453 0.94536
 H3102 H 0.74580 0.80007 0.96635
 H3103 H 0.70982 0.76497 0.96328
 H3104 H 0.69776 0.77917 0.94218
 C3105 C 0.16697 0.32440 0.89915
 C3106 C 0.17356 0.31687 0.91188
 C3107 C 0.18978 0.31519 0.91313
 C3108 C 0.19932 0.32124 0.90132
 C3109 C 0.19273 0.32882 0.88862
 C3110 C 0.17648 0.33036 0.88735
 C3111 C 0.19616 0.30630 0.92639
 C3112 C 0.21103 0.30728 0.93108
 C3113 C 0.21757 0.29782 0.94386
 C3114 C 0.23129 0.30292 0.95107
 C3115 C 0.23820 0.29408 0.96276
 C3116 C 0.23158 0.27985 0.96744
 C3117 C 0.21785 0.27470 0.96021
 C3118 C 0.21095 0.28353 0.94850
 H3119 H 0.15441 0.32552 0.89852
 H3120 H 0.16594 0.31224 0.92074
 H3121 H 0.21183 0.31975 0.90151
 H3122 H 0.20032 0.33302 0.87954
 H3123 H 0.18808 0.29899 0.93270
 H3124 H 0.21876 0.31567 0.92573
 H3125 H 0.23672 0.31378 0.94763
 H3126 H 0.24880 0.29836 0.96807
 H3127 H 0.21254 0.26372 0.96344
 H3128 H 0.20069 0.27889 0.94290
 C3129 C 0.19759 0.82958 0.38127
 C3130 C 0.20494 0.82339 0.39430
 C3131 C 0.19615 0.81793 0.40685
 C3132 C 0.17979 0.81919 0.40627
 C3133 C 0.17245 0.82536 0.39322
 C3134 C 0.18126 0.83055 0.38055
 C3135 C 0.20450 0.81120 0.42029
 C3136 C 0.19791 0.80123 0.43031
 C3137 C 0.20653 0.79365 0.44312
 C3138 C 0.20073 0.77961 0.44913
 C3139 C 0.20862 0.77181 0.46092
 C3140 C 0.22248 0.77795 0.46708
 C3141 C 0.22811 0.79222 0.46136
 C3142 C 0.22020 0.80003 0.44954
 H3143 H 0.20470 0.83337 0.37164
 H3144 H 0.21754 0.82266 0.39446
 H3145 H 0.17260 0.81567 0.41591
 H3146 H 0.15986 0.82627 0.39312
 H3147 H 0.21682 0.81378 0.42126
 H3148 H 0.18598 0.79754 0.42851
 H3149 H 0.19015 0.77451 0.44451
 H3150 H 0.20392 0.76088 0.46512
 H3151 H 0.23867 0.79733 0.46597
 H3152 H 0.22477 0.81109 0.44562
 C3153 C 0.67938 0.69394 0.61730
 C3154 C 0.68586 0.70245 0.60514
 C3155 C 0.69192 0.69487 0.59216
 C3156 C 0.69113 0.67850 0.59148
 C3157 C 0.68468 0.66998 0.60369
 C3158 C 0.67873 0.67761 0.61672
 C3159 C 0.69854 0.70450 0.57951
 C3160 C 0.70853 0.69906 0.56893
 C3161 C 0.71551 0.70892 0.55665
 C3162 C 0.72954 0.70414 0.54987
 C3163 C 0.73662 0.71312 0.53837
 C3164 C 0.72973 0.72707 0.53331
 C3165 C 0.71552 0.73172 0.53987
 C3166 C 0.70843 0.72272 0.55136
 H3167 H 0.67502 0.70014 0.62726
 H3168 H 0.68624 0.71503 0.60594
 H3169 H 0.69517 0.67220 0.58149
 H3170 H 0.68406 0.65742 0.60281
 H3171 H 0.69565 0.71675 0.57954
 H3172 H 0.71257 0.68716 0.56971
 H3173 H 0.73516 0.69349 0.55361
 H3174 H 0.74753 0.70917 0.53350
 H3175 H 0.70982 0.74231 0.53609
 H3176 H 0.69733 0.72654 0.55586
 C3177 C 0.68655 0.20057 0.11744
 C3178 C 0.69336 0.20813 0.10484
 C3179 C 0.69884 0.19962 0.09216
 C3180 C 0.69710 0.18331 0.09224
 C3181 C 0.69027 0.17575 0.10486
 C3182 C 0.68493 0.18429 0.11761
 C3183 C 0.70582 0.20826 0.07901
 C3184 C 0.71554 0.20185 0.06870
 C3185 C 0.72277 0.21079 0.05588
 C3186 C 0.73682 0.20545 0.04952
 C3187 C 0.74409 0.21365 0.03755
 C3188 C 0.73739 0.22732 0.03158
 C3189 C 0.72314 0.23247 0.03770
 C3190 C 0.71587 0.22428 0.04966
 H3191 H 0.68272 0.20747 0.12715
 H3192 H 0.69448 0.22069 0.10506
 H3193 H 0.70067 0.17636 0.08250
 H3194 H 0.68891 0.16322 0.10453
 H3195 H 0.70343 0.22061 0.07837
 H3196 H 0.71914 0.18987 0.07014
 H3197 H 0.74229 0.19501 0.05397
 H3198 H 0.75502 0.20931 0.03304
 H3199 H 0.71757 0.24285 0.03324
 H3200 H 0.70477 0.22848 0.05382
 C3201 C 0.17986 0.69544 0.11923
 C3202 C 0.18670 0.70313 0.10675
 C3203 C 0.19197 0.69479 0.09388
 C3204 C 0.19017 0.67848 0.09375
 C3205 C 0.18334 0.67077 0.10629
 C3206 C 0.17803 0.67919 0.11913
 C3207 C 0.19871 0.70367 0.08075
 C3208 C 0.20768 0.69739 0.06973
 C3209 C 0.21456 0.70667 0.05696
 C3210 C 0.22817 0.70127 0.04980
 C3211 C 0.23518 0.70984 0.03794
 C3212 C 0.22865 0.72397 0.03290
 C3213 C 0.21479 0.72917 0.03979
 C3214 C 0.20777 0.72060 0.05163
 H3215 H 0.17606 0.70222 0.12904
 H3216 H 0.18790 0.71568 0.10716
 H3217 H 0.19363 0.67163 0.08390
 H3218 H 0.18185 0.65826 0.10580
 H3219 H 0.19672 0.71611 0.08068
 H3220 H 0.21093 0.68525 0.07047
 H3221 H 0.23353 0.69050 0.05355
 H3222 H 0.24581 0.70546 0.03282
 H3223 H 0.20935 0.73991 0.03606
 H3224 H 0.19697 0.72487 0.05643
 C3225 C 0.18586 0.19381 0.61762
 C3226 C 0.19226 0.20222 0.60535
 C3227 C 0.19802 0.19455 0.59228
 C3228 C 0.19706 0.17818 0.59166
 C3229 C 0.19069 0.16976 0.60398
 C3230 C 0.18499 0.17749 0.61706
 C3231 C 0.20441 0.20409 0.57947
 C3232 C 0.21405 0.19857 0.56861
 C3233 C 0.22068 0.20839 0.55612
 C3234 C 0.23460 0.20370 0.54906
 C3235 C 0.24134 0.21269 0.53737
 C3236 C 0.23423 0.22655 0.53240
 C3237 C 0.22011 0.23110 0.53924
 C3238 C 0.21336 0.22210 0.55092
 H3239 H 0.18171 0.20008 0.62762
 H3240 H 0.19278 0.21480 0.60611
 H3241 H 0.20088 0.17182 0.58162
 H3242 H 0.18990 0.15721 0.60312
 H3243 H 0.20163 0.21638 0.57955
 H3244 H 0.21803 0.18665 0.56929
 H3245 H 0.24039 0.19312 0.55273
 H3246 H 0.25219 0.20881 0.53230
 H3247 H 0.21424 0.24162 0.53554
 H3248 H 0.20232 0.22583 0.55564
   
