data_POSCAR
  _audit_creation_date              2014-09-24
  _audit_creation_method            'ToBaCCo'
  _symmetry_space_group_name_H-M    'P1'
  _symmetry_Int_Tables_number       1
  _symmetry_cell_setting            triclinic
  loop_
  _symmetry_equiv_pos_as_xyz
 x,y,z
_cell_length_a 37.6132
_cell_length_b 38.2057
_cell_length_c 37.7303
_cell_angle_alpha 96.029300
_cell_angle_beta 96.382500
_cell_angle_gamma 96.996100
loop_
  _atom_site_label
  _atom_site_type_symbol
  _atom_site_fract_x
  _atom_site_fract_y
  _atom_site_fract_z
C1 C 0.69774 0.70616 0.98129
 H2 H 0.72365 0.72028 0.99335
 C3 C 0.67132 0.72472 0.96546
 H4 H 0.67745 0.75313 0.96620
 C5 C 0.65915 0.65172 0.96510
 H6 H 0.65482 0.62314 0.96451
 C7 C 0.63212 0.66904 0.94954
 H8 H 0.60688 0.65350 0.93737
 N9 N 0.69115 0.67026 0.98068
 C10 C 0.80013 0.65660 0.99684
 H11 H 0.79559 0.63738 0.97320
 C12 C 0.83546 0.67082 1.01033
 H13 H 0.85733 0.66273 0.99636
 C14 C 0.77767 0.68927 1.04425
 H15 H 0.75494 0.69579 1.05766
 C16 C 0.81289 0.70414 1.05887
 H17 H 0.81620 0.72244 1.08313
 Zn18 Zn 0.72519 0.64071 0.99671
 N19 N 0.77196 0.66574 1.01387
 C20 C 0.73428 0.62646 0.92559
 N21 N 0.72990 0.60995 0.95534
 C22 C 0.73407 0.57520 0.95588
 C23 C 0.74529 0.55635 0.92629
 C24 C 0.74534 0.60865 0.89547
 C25 C 0.67698 0.62414 1.04650
 C26 C 0.66441 0.60888 1.07544
 C27 C 0.71615 0.57728 1.07994
 C28 C 0.72775 0.59327 1.05061
 N29 N 0.70799 0.61602 1.03432
 H30 H 0.73165 0.65439 0.92621
 H31 H 0.73096 0.56270 0.97992
 H32 H 0.75116 0.52957 0.92841
 H33 H 0.75132 0.62348 0.87349
 H34 H 0.66235 0.64347 1.03464
 H35 H 0.64015 0.61693 1.08496
 H36 H 0.73353 0.56060 1.09280
 H37 H 0.75317 0.58832 1.04154
 C38 C 0.84262 0.69454 1.04209
 C39 C 0.63795 0.70599 0.94883
 C40 C 0.68361 0.58463 1.09284
 C41 C 0.75156 0.57316 0.89557
 C42 C 0.72872 0.34480 0.51279
 H43 H 0.75665 0.34546 0.52376
 C44 C 0.70170 0.32430 0.52678
 H45 H 0.70952 0.30824 0.54752
 C46 C 0.68530 0.36508 0.47228
 H47 H 0.67904 0.38153 0.45143
 C48 C 0.65727 0.34545 0.48606
 H49 H 0.62973 0.34632 0.47474
 N50 N 0.72015 0.36509 0.48646
 C51 C 0.82319 0.39386 0.44820
 H52 H 0.82243 0.42211 0.44850
 C53 C 0.85273 0.37902 0.43719
 H54 H 0.87410 0.39603 0.42799
 C55 C 0.79484 0.33739 0.45773
 H56 H 0.77177 0.32112 0.46478
 C57 C 0.82401 0.32139 0.44701
 H58 H 0.82242 0.29282 0.44534
 Zn59 Zn 0.75819 0.39713 0.47496
 N60 N 0.79537 0.37314 0.45886
 C61 C 0.81032 0.42531 0.53325
 N62 N 0.77622 0.42694 0.51800
 C63 C 0.75324 0.44494 0.53586
 C64 C 0.76403 0.46127 0.57102
 C65 C 0.82210 0.44103 0.56815
 C66 C 0.72962 0.40454 0.40553
 C67 C 0.71726 0.42196 0.37687
 C68 C 0.73133 0.47757 0.41564
 C69 C 0.74349 0.45905 0.44357
 N70 N 0.74199 0.42316 0.43814
 H71 H 0.82773 0.40963 0.51948
 H72 H 0.72580 0.44474 0.52360
 H73 H 0.74445 0.47324 0.58552
 H74 H 0.84835 0.43662 0.58032
 H75 H 0.72880 0.37597 0.40204
 H76 H 0.70593 0.40630 0.35169
 H77 H 0.73106 0.50585 0.42133
 H78 H 0.75365 0.47332 0.46969
 C79 C 0.85405 0.34242 0.43752
 C80 C 0.66518 0.32621 0.51516
 C81 C 0.71836 0.45911 0.38144
 C82 C 0.79889 0.45920 0.58787
 C83 C 0.22567 -0.15363 0.01009
 H84 H 0.25359 -0.15398 0.02050
 C85 C 0.19838 -0.17375 0.02408
 H86 H 0.20589 -0.19048 0.04433
 C87 C 0.18259 -0.13117 -0.02897
 H88 H 0.17664 -0.11411 -0.04934
 C89 C 0.15431 -0.15031 -0.01505
 H90 H 0.12685 -0.14842 -0.02583
 N91 N 0.21741 -0.13248 -0.01554
 C92 C 0.31931 -0.10646 -0.05671
 H93 H 0.31914 -0.07813 -0.05633
 C94 C 0.34816 -0.12203 -0.06837
 H95 H 0.36959 -0.10548 -0.07802
 C96 C 0.29026 -0.16239 -0.04642
 H97 H 0.26721 -0.17814 -0.03870
 C98 C 0.31881 -0.17908 -0.05764
 H99 H 0.31679 -0.20767 -0.05901
 Zn100 Zn 0.25604 -0.10134 -0.02725
 N101 N 0.29154 -0.12656 -0.04525
 C102 C 0.31043 -0.07702 0.03011
 N103 N 0.27643 -0.07313 0.01628
 C104 C 0.25536 -0.05413 0.03573
 C105 C 0.26821 -0.03871 0.07086
 C106 C 0.32415 -0.06241 0.06498
 C107 C 0.22856 -0.09114 -0.09630
 C108 C 0.21696 -0.07258 -0.12438
 C109 C 0.22925 -0.01840 -0.08329
 C110 C 0.24104 -0.03803 -0.05614
 N111 N 0.24008 -0.07375 -0.06297
 H112 H 0.32627 -0.09355 0.01517
 H113 H 0.22786 -0.05262 0.02470
 H114 H 0.25021 -0.02557 0.08655
 H115 H 0.35016 -0.06861 0.07579
 H116 H 0.22811 -0.11962 -0.10095
 H117 H 0.20674 -0.08743 -0.15031
 H118 H 0.22847 0.00957 -0.07595
 H119 H 0.25041 -0.02472 -0.02945
 C120 C 0.34895 -0.15867 -0.06768
 C121 C 0.16201 -0.17053 0.01331
 C122 C 0.21743 -0.03540 -0.11855
 C123 C 0.30312 -0.04283 0.08613
 C124 C 0.20122 0.20284 0.47840
 H125 H 0.22715 0.21652 0.49094
 C126 C 0.17511 0.22211 0.46317
 H127 H 0.18151 0.25058 0.46487
 C128 C 0.16217 0.14892 0.46064
 H129 H 0.15750 0.12028 0.45931
 C130 C 0.13544 0.16695 0.44561
 H131 H 0.11007 0.15188 0.43308
 N132 N 0.19424 0.16687 0.47677
 C133 C 0.30295 0.15213 0.49431
 H134 H 0.29874 0.13298 0.47063
 C135 C 0.33816 0.16634 0.50830
 H136 H 0.36025 0.15829 0.49468
 C137 C 0.27978 0.18469 0.54130
 H138 H 0.25682 0.19120 0.55433
 C139 C 0.31486 0.19959 0.55639
 H140 H 0.31784 0.21783 0.58067
 Zn141 Zn 0.22776 0.13662 0.49256
 N142 N 0.27447 0.16126 0.51085
 C143 C 0.23818 0.12420 0.42155
 N144 N 0.23321 0.10677 0.45064
 C145 C 0.23793 0.07208 0.45044
 C146 C 0.25031 0.05432 0.42088
 C147 C 0.25043 0.10749 0.39148
 C148 C 0.17905 0.12074 0.54204
 C149 C 0.16602 0.10586 0.57101
 C150 C 0.21582 0.07167 0.57459
 C151 C 0.22810 0.08745 0.54537
 N152 N 0.20954 0.11139 0.52955
 H153 H 0.23518 0.15208 0.42277
 H154 H 0.23439 0.05883 0.47395
 H155 H 0.25647 0.02753 0.42239
 H156 H 0.25676 0.12312 0.37020
 H157 H 0.16534 0.14087 0.53054
 H158 H 0.14232 0.11476 0.58097
 H159 H 0.23182 0.05368 0.58715
 H160 H 0.25311 0.08142 0.53610
 C161 C 0.34488 0.19012 0.54002
 C162 C 0.14163 0.20403 0.44606
 C163 C 0.18421 0.08085 0.58790
 C164 C 0.25735 0.07216 0.39096
 C165 C 0.20393 0.48757 0.19964
 H166 H 0.21730 0.49824 0.22612
 C167 C 0.22357 0.47217 0.17398
 H168 H 0.25207 0.47186 0.18125
 C169 C 0.15005 0.47371 0.15908
 H170 H 0.12116 0.47360 0.15379
 C171 C 0.16846 0.45860 0.13280
 H172 H 0.15348 0.44727 0.10713
 N173 N 0.16776 0.48773 0.19175
 C174 C 0.14851 0.49988 0.29941
 H175 H 0.12798 0.47704 0.29401
 C176 C 0.16243 0.51192 0.33492
 H177 H 0.15282 0.49766 0.35610
 C178 C 0.18477 0.54670 0.27883
 H179 H 0.19293 0.56037 0.25675
 C180 C 0.19944 0.55983 0.31425
 H181 H 0.21914 0.58331 0.31835
 Zn182 Zn 0.13608 0.50123 0.22483
 N183 N 0.15971 0.51724 0.27209
 C184 C 0.12379 0.43063 0.23272
 N185 N 0.10561 0.45867 0.22739
 C186 C 0.06946 0.45626 0.22852
 C187 C 0.05072 0.42537 0.23791
 C188 C 0.10618 0.39931 0.24190
 C189 C 0.12237 0.55290 0.17926
 C190 C 0.10688 0.58120 0.16662
 C191 C 0.06796 0.57945 0.21323
 C192 C 0.08447 0.55101 0.22520
 N193 N 0.11092 0.53805 0.20789
 H194 H 0.15270 0.43351 0.23232
 H195 H 0.05555 0.47890 0.22447
 H196 H 0.02264 0.42529 0.24171
 H197 H 0.12208 0.37870 0.24886
 H198 H 0.14444 0.54362 0.16668
 H199 H 0.11720 0.59291 0.14425
 H200 H 0.04764 0.58953 0.22802
 H201 H 0.07669 0.53980 0.24881
 C202 C 0.18797 0.54254 0.34311
 C203 C 0.20561 0.45684 0.14004
 C204 C 0.07912 0.59499 0.18334
 C205 C 0.06919 0.39641 0.24530
 C206 C -0.16373 0.00766 0.22313
 H207 H -0.16378 0.01818 0.25089
 C208 C -0.18450 0.02093 0.19610
 H209 H -0.20161 0.04049 0.20389
 C210 C -0.14122 -0.03070 0.18019
 H211 H -0.12381 -0.05046 0.17415
 C212 C -0.16097 -0.01750 0.15212
 H213 H -0.15930 -0.02856 0.12486
 N214 N -0.14198 -0.01702 0.21479
 C215 C -0.10874 -0.05141 0.31799
 H216 H -0.08008 -0.04973 0.31618
 C217 C -0.12237 -0.06234 0.34840
 H218 H -0.10401 -0.07007 0.36943
 C219 C -0.16742 -0.04543 0.29136
 H220 H -0.18497 -0.03979 0.26863
 C221 C -0.18225 -0.05616 0.32143
 H222 H -0.21126 -0.05924 0.32092
 Zn223 Zn -0.10835 -0.02628 0.25236
 N224 N -0.13114 -0.04248 0.29063
 C225 C -0.08088 0.03301 0.30240
 N226 N -0.07901 0.01756 0.26869
 C227 C -0.06121 0.03542 0.24514
 C228 C -0.04505 0.07062 0.25505
 C229 C -0.06538 0.06792 0.31329
 C230 C -0.09959 -0.09490 0.22643
 C231 C -0.08136 -0.12293 0.21524
 C232 C -0.02574 -0.08233 0.22524
 C233 C -0.04504 -0.05513 0.23649
 N234 N -0.08132 -0.06180 0.23648
 H235 H -0.09650 0.01925 0.32026
 H236 H -0.06130 0.02300 0.21800
 H237 H -0.03309 0.08491 0.23511
 H238 H -0.06973 0.08011 0.33938
 H239 H -0.12850 -0.09939 0.22684
 H240 H -0.09667 -0.14878 0.20608
 H241 H 0.00274 -0.07563 0.22374
 H242 H -0.03106 -0.02863 0.24484
 C243 C -0.15949 -0.06373 0.35106
 C244 C -0.18102 0.01079 0.15965
 C245 C -0.04378 -0.11708 0.21486
 C246 C -0.04716 0.08750 0.28961
 C247 C 0.33853 0.50355 0.72411
 H248 H 0.33829 0.51379 0.75191
 C249 C 0.31773 0.51688 0.69715
 H250 H 0.30044 0.53628 0.70482
 C251 C 0.36183 0.46605 0.68094
 H252 H 0.37967 0.44672 0.67480
 C253 C 0.34211 0.47942 0.65297
 H254 H 0.34424 0.46921 0.62557
 N255 N 0.36051 0.47910 0.71564
 C256 C 0.39264 0.44426 0.81890
 H257 H 0.42138 0.44606 0.81754
 C258 C 0.37854 0.43345 0.84914
 H259 H 0.39665 0.42593 0.87051
 C260 C 0.33422 0.44987 0.79131
 H261 H 0.31695 0.45530 0.76828
 C262 C 0.31893 0.43926 0.82117
 H263 H 0.28988 0.43608 0.82023
 Zn264 Zn 0.39382 0.46954 0.75330
 N265 N 0.37058 0.45307 0.79119
 C266 C 0.42077 0.52878 0.80364
 N267 N 0.42301 0.51335 0.77001
 C268 C 0.44067 0.53140 0.74651
 C269 C 0.45609 0.56683 0.75629
 C270 C 0.43557 0.56393 0.81442
 C271 C 0.40235 0.40108 0.72699
 C272 C 0.42041 0.37299 0.71560
 C273 C 0.47625 0.41327 0.72606
 C274 C 0.45712 0.44055 0.73749
 N275 N 0.42081 0.43405 0.73736
 H276 H 0.40524 0.51485 0.82145
 H277 H 0.44085 0.51898 0.71942
 H278 H 0.46781 0.58125 0.73630
 H279 H 0.43083 0.57608 0.84039
 H280 H 0.37342 0.39675 0.72727
 H281 H 0.40494 0.34728 0.70618
 H282 H 0.50477 0.41981 0.72465
 H283 H 0.47122 0.46697 0.74604
 C284 C 0.34133 0.43207 0.85124
 C285 C 0.32128 0.50681 0.66088
 C286 C 0.45801 0.37865 0.71536
 C287 C 0.45344 0.58376 0.79069
 C288 C 0.70488 0.98459 0.70013
 H289 H 0.71827 0.99610 0.72636
 C290 C 0.72474 0.96940 0.67453
 H291 H 0.75342 0.97007 0.68157
 C292 C 0.65082 0.96869 0.66010
 H293 H 0.62183 0.96782 0.65495
 C294 C 0.66941 0.95366 0.63392
 H295 H 0.65445 0.94162 0.60848
 N296 N 0.66855 0.98372 0.69245
 C297 C 0.65136 0.99562 0.79989
 H298 H 0.63278 0.97132 0.79460
 C299 C 0.66498 1.00832 0.83534
 H300 H 0.65690 0.99302 0.85642
 C301 C 0.68268 1.04537 0.77915
 H302 H 0.68871 1.06004 0.75704
 C303 C 0.69675 1.05940 0.81448
 H304 H 0.71335 1.08487 0.81805
 Zn305 Zn 0.63679 0.99747 0.72535
 N306 N 0.66034 1.01406 0.77252
 C307 C 0.62377 0.92657 0.73288
 N308 N 0.60616 0.95511 0.72815
 C309 C 0.57011 0.95334 0.72963
 C310 C 0.55089 0.92260 0.73870
 C311 C 0.60565 0.89535 0.74178
 C312 C 0.62230 1.04802 0.67864
 C313 C 0.60676 1.07618 0.66576
 C314 C 0.56916 1.07597 0.71352
 C315 C 0.58570 1.04764 0.72571
 N316 N 0.61152 1.03401 0.70798
 H317 H 0.65262 0.92892 0.73217
 H318 H 0.55665 0.97633 0.72599
 H319 H 0.52290 0.92295 0.74271
 H320 H 0.62111 0.87429 0.74824
 H321 H 0.64389 1.03820 0.66567
 H322 H 0.61664 1.08731 0.64289
 H323 H 0.54945 1.08669 0.72871
 H324 H 0.57851 1.03712 0.74986
 C325 C 0.68814 1.04079 0.84368
 C326 C 0.70681 0.95316 0.64089
 C327 C 0.57963 1.09066 0.68294
 C328 C 0.56874 0.89309 0.74543
 C329 C 0.01110 0.22750 -0.15514
 H330 H 0.02210 0.25525 -0.15316
 C331 C 0.02644 0.20217 -0.17550
 H332 H 0.04810 0.21125 -0.19029
 C333 C -0.03079 0.18282 -0.13818
 H334 H -0.05265 0.17541 -0.12297
 C335 C -0.01577 0.15644 -0.15784
 H336 H -0.02703 0.12893 -0.15821
 N337 N -0.01648 0.21749 -0.13643
 C338 C -0.05651 0.31692 -0.10545
 H339 H -0.05740 0.31451 -0.07723
 C340 C -0.06656 0.34699 -0.11958
 H341 H -0.07620 0.36715 -0.10217
 C342 C -0.04448 0.29245 -0.16250
 H343 H -0.03663 0.27077 -0.17928
 C344 C -0.05425 0.32218 -0.17780
 H345 H -0.05451 0.32231 -0.20644
 Zn346 Zn -0.02901 0.25322 -0.10344
 N347 N -0.04491 0.29084 -0.12673
 C348 C 0.02862 0.30482 -0.07224
 N349 N 0.01388 0.27057 -0.07223
 C350 C 0.03232 0.24738 -0.05515
 C351 C 0.06759 0.25816 -0.03827
 C352 C 0.06362 0.31659 -0.05596
 C353 C -0.09963 0.22510 -0.09712
 C354 C -0.12879 0.21288 -0.07978
 C355 C -0.08897 0.22206 -0.02383
 C356 C -0.06073 0.23443 -0.04225
 N357 N -0.06645 0.23542 -0.07826
 H358 H 0.01446 0.32255 -0.08719
 H359 H 0.02050 0.21992 -0.05665
 H360 H 0.08263 0.23860 -0.02715
 H361 H 0.07533 0.34312 -0.05937
 H362 H -0.10335 0.22617 -0.12582
 H363 H -0.15454 0.20354 -0.09584
 H364 H -0.08263 0.21976 0.00441
 H365 H -0.03413 0.24285 -0.02776
 C366 C -0.06438 0.35060 -0.15601
 C367 C 0.01469 0.16579 -0.17521
 C368 C -0.12417 0.21170 -0.04227
 C369 C 0.08399 0.29319 -0.03885
 C370 C 0.47030 0.20619 0.20414
 H371 H 0.45909 0.23084 0.20602
 C372 C 0.45764 0.17954 0.22419
 H373 H 0.43618 0.18421 0.24019
 C374 C 0.50978 0.16965 0.17920
 H375 H 0.52977 0.16541 0.16139
 C376 C 0.49782 0.14228 0.19859
 H377 H 0.50828 0.11723 0.19431
 N378 N 0.49474 0.20032 0.18085
 C379 C 0.52269 0.30314 0.14166
 H380 H 0.51302 0.29477 0.11359
 C381 C 0.53442 0.33893 0.15328
 H382 H 0.53336 0.35787 0.13390
 C383 C 0.53351 0.28840 0.20094
 H384 H 0.53226 0.26861 0.21942
 C385 C 0.54573 0.32411 0.21377
 H386 H 0.55311 0.33108 0.24235
 Zn387 Zn 0.50305 0.23182 0.14517
 N388 N 0.52259 0.27867 0.16535
 C389 C 0.43626 0.25567 0.13798
 N390 N 0.45799 0.23663 0.11953
 C391 C 0.44950 0.22599 0.08375
 C392 C 0.41851 0.23534 0.06504
 C393 C 0.40490 0.26511 0.12056
 C394 C 0.56756 0.23304 0.11236
 C395 C 0.59341 0.21859 0.09361
 C396 C 0.55143 0.16506 0.07619
 C397 C 0.52609 0.18083 0.09475
 N398 N 0.53495 0.21372 0.11357
 H399 H 0.44455 0.26595 0.16577
 H400 H 0.46772 0.21208 0.06918
 H401 H 0.41410 0.22860 0.03625
 H402 H 0.38930 0.28204 0.13556
 H403 H 0.57439 0.25912 0.12735
 H404 H 0.61975 0.23393 0.09448
 H405 H 0.54364 0.13828 0.06328
 H406 H 0.49996 0.16591 0.09587
 C407 C 0.54703 0.35002 0.18968
 C408 C 0.47085 0.14659 0.22112
 C409 C 0.58637 0.18344 0.07658
 C410 C 0.39579 0.25558 0.08343
 C411 C 0.98683 0.70566 0.71493
 H412 H 0.99424 0.73225 0.72872
 C413 C 0.97143 0.67853 0.73310
 H414 H 0.96762 0.68507 0.76080
 C415 C 0.98235 0.66571 0.66175
 H416 H 0.98608 0.66105 0.63371
 C417 C 0.96726 0.63796 0.67880
 H418 H 0.95973 0.61192 0.66363
 N419 N 0.99126 0.69889 0.67967
 C420 C 1.05833 0.79494 0.67317
 H421 H 1.07604 0.78070 0.65820
 C422 C 1.06904 0.83070 0.68621
 H423 H 1.09521 0.84327 0.68152
 C424 C 1.00161 0.79689 0.69434
 H425 H 0.97467 0.78395 0.69579
 C426 C 1.01122 0.83273 0.70781
 H427 H 0.99114 0.84643 0.71959
 Zn428 Zn 1.00667 0.73406 0.65065
 N429 N 1.02497 0.77885 0.67715
 C430 C 0.97123 0.76768 0.59789
 N431 N 0.96607 0.74252 0.62032
 C432 C 0.93227 0.72808 0.62508
 C433 C 0.90189 0.73968 0.60762
 C434 C 0.94172 0.77973 0.57964
 C435 C 1.07105 0.70704 0.64463
 C436 C 1.09862 0.69313 0.62841
 C437 C 1.06776 0.69982 0.57043
 C438 C 1.04041 0.71340 0.58788
 N439 N 1.04270 0.71695 0.62439
 H440 H 0.99834 0.77941 0.59531
 H441 H 0.92871 0.70867 0.64369
 H442 H 0.87558 0.72794 0.61246
 H443 H 0.94646 0.80014 0.56220
 H444 H 1.07193 0.70956 0.67356
 H445 H 1.12040 0.68458 0.64522
 H446 H 1.06468 0.69650 0.54144
 H447 H 1.01719 0.72057 0.57216
 C448 C 1.04542 0.85038 0.70375
 C449 C 0.96072 0.64408 0.71477
 C450 C 1.09768 0.68964 0.59079
 C451 C 0.90637 0.76659 0.58516
 C452 C 0.50930 0.72325 0.34482
 H453 H 0.52027 0.75075 0.34469
 C454 C 0.52310 0.69662 0.32463
 H455 H 0.54383 0.70417 0.30809
 C456 C 0.46946 0.68047 0.36720
 H457 H 0.44896 0.67433 0.38437
 C458 C 0.48322 0.65285 0.34807
 H459 H 0.47201 0.62581 0.34999
 N460 N 0.48337 0.71483 0.36599
 C461 C 0.44646 0.81626 0.39530
 H462 H 0.44646 0.81464 0.42375
 C463 C 0.43672 0.84624 0.38078
 H464 H 0.42808 0.86691 0.39841
 C465 C 0.45558 0.78972 0.33806
 H466 H 0.46198 0.76720 0.32136
 C467 C 0.44611 0.81933 0.32232
 H468 H 0.44463 0.81836 0.29344
 Zn469 Zn 0.47247 0.75209 0.39826
 N470 N 0.45665 0.78926 0.37411
 C471 C 0.53168 0.80312 0.42639
 N472 N 0.51617 0.76949 0.42834
 C473 C 0.53419 0.74681 0.44666
 C474 C 0.56971 0.75747 0.46303
 C475 C 0.56690 0.81474 0.44211
 C476 C 0.40211 0.72508 0.40582
 C477 C 0.37307 0.71323 0.42347
 C478 C 0.41279 0.72434 0.47948
 C479 C 0.44102 0.73622 0.46076
 N480 N 0.43530 0.73592 0.42455
 H481 H 0.51786 0.82034 0.41044
 H482 H 0.52176 0.71974 0.44670
 H483 H 0.58427 0.73820 0.47528
 H484 H 0.57917 0.84068 0.43743
 H485 H 0.39837 0.72525 0.37700
 H486 H 0.34723 0.70340 0.40780
 H487 H 0.41884 0.72307 0.50794
 H488 H 0.46759 0.74517 0.47512
 C489 C 0.43802 0.84915 0.34393
 C490 C 0.51186 0.66071 0.32784
 C491 C 0.37797 0.71296 0.46093
 C492 C 0.58676 0.79189 0.46064
 C493 C 0.38524 -0.03505 0.28647
 C494 C 0.36282 -0.04552 0.24969
 C495 C 0.34717 -0.01873 0.23563
 C496 C 0.35569 0.01691 0.26053
 C497 C 0.41266 -0.00341 0.28100
 C498 C 0.39747 0.02395 0.26708
 C499 C 0.35967 -0.01883 0.31007
 C500 C 0.34381 0.00811 0.29694
 H501 H 0.36323 -0.07100 0.23407
 H502 H 0.34349 0.03911 0.24977
 H503 H 0.44138 -0.00364 0.28735
 H504 H 0.35503 -0.02759 0.33586
 C505 C 0.09147 1.06048 0.76226
 C506 C 0.10707 1.06967 0.72835
 C507 C 0.12825 1.04616 0.71499
 C508 C 0.13085 1.01421 0.73698
 C509 C 0.07081 1.02292 0.75185
 C510 C 0.09141 0.99822 0.73917
 C511 C 0.12423 1.05553 0.78834
 C512 C 0.14484 1.03091 0.77597
 H513 H 0.10146 1.09297 0.71563
 H514 H 0.14713 0.99459 0.72572
 H515 H 0.04245 1.01683 0.75475
 H516 H 0.12713 1.06616 0.81653
 C517 C 0.58940 0.55733 0.26322
 C518 C 0.60820 0.57005 0.23223
 C519 C 0.62989 0.54747 0.21799
 C520 C 0.62973 0.51293 0.23628
 C521 C 0.56851 0.52068 0.24793
 C522 C 0.58955 0.49720 0.23361
 C523 C 0.61995 0.54920 0.29011
 C524 C 0.64079 0.52543 0.27678
 H525 H 0.60309 0.59429 0.22105
 H526 H 0.64646 0.49407 0.22463
 H527 H 0.54031 0.51362 0.25089
 H528 H 0.62199 0.55810 0.31868
 C529 C 0.87802 0.46677 0.78807
 C530 C 0.85470 0.45523 0.75192
 C531 C 0.83746 0.48119 0.73799
 C532 C 0.84545 0.51698 0.76245
 C533 C 0.90401 0.49902 0.78149
 C534 C 0.88718 0.52527 0.76720
 C535 C 0.85280 0.48219 0.81249
 C536 C 0.83532 0.50819 0.79947
 H537 H 0.85645 0.43016 0.73616
 H538 H 0.83155 0.53833 0.75208
 H539 H 0.93308 0.50020 0.78683
 H540 H 0.84976 0.47382 0.83876
 C541 C 0.28485 0.37293 -0.03186
 C542 C 0.24894 0.34904 -0.04348
 C543 C 0.23498 0.33218 -0.01684
 C544 C 0.25925 0.34112 0.01963
 C545 C 0.27758 0.39858 -0.00012
 C546 C 0.26315 0.38214 0.02669
 C547 C 0.30968 0.34895 -0.01516
 C548 C 0.29698 0.33241 0.01202
 H549 H 0.23319 0.35023 -0.06915
 H550 H 0.24886 0.32720 0.04127
 H551 H 0.28206 0.42720 0.00012
 H552 H 0.33606 0.34616 -0.02345
 C553 C 0.75564 0.08422 1.05302
 C554 C 0.72208 0.09957 1.06288
 C555 C 0.70853 0.12094 1.03943
 C556 C 0.72953 0.12348 1.00639
 C557 C 0.74393 0.06414 1.01526
 C558 C 0.73064 0.08464 0.99031
 C559 C 0.78188 0.11649 1.04714
 C560 C 0.76911 0.13693 1.02231
 H561 H 0.70983 0.09369 1.08670
 H562 H 0.71781 0.13962 0.98659
 H563 H 0.74623 0.03620 1.00952
 H564 H 0.81034 0.11953 1.05760
 C565 C 0.25719 0.58269 0.55435
 C566 C 0.22328 0.59713 0.56444
 C567 C 0.20859 0.61765 0.54074
 C568 C 0.23052 0.62241 0.50866
 C569 C 0.24642 0.56337 0.51610
 C570 C 0.23279 0.58422 0.49174
 C571 C 0.28284 0.61568 0.54974
 C572 C 0.26973 0.63650 0.52550
 H573 H 0.21313 0.59339 0.58983
 H574 H 0.21892 0.63911 0.48935
 H575 H 0.24953 0.53573 0.50962
 H576 H 0.31131 0.61887 0.56022
 C577 C 0.78670 0.87416 0.46766
 C578 C 0.75097 0.84991 0.45603
 C579 C 0.73766 0.83212 0.48239
 C580 C 0.76247 0.84042 0.51857
 C581 C 0.77958 0.89882 0.50016
 C582 C 0.76588 0.88140 0.52674
 C583 C 0.81231 0.85040 0.48339
 C584 C 0.80007 0.83224 0.50975
 H585 H 0.73479 0.85150 0.43070
 H586 H 0.75296 0.82573 0.54015
 H587 H 0.78340 0.92752 0.50101
 H588 H 0.83947 0.85025 0.47617
 C589 C -0.03409 0.28434 0.37231
 C590 C -0.04750 0.24917 0.34864
 C591 C -0.02233 0.23570 0.32950
 C592 C 0.01455 0.25961 0.33609
 C593 C -0.00065 0.27687 0.39612
 C594 C 0.02472 0.26290 0.37740
 C595 C -0.01915 0.30914 0.34700
 C596 C 0.00610 0.29674 0.32778
 H597 H -0.07291 0.23357 0.35156
 H598 H 0.03509 0.24987 0.32035
 H599 H 0.00160 0.28050 0.42524
 H600 H -0.02719 0.33535 0.34522
 C601 C 1.05412 0.76502 0.08929
 C602 C 1.06414 0.73215 0.10542
 C603 C 1.04024 0.71822 0.12663
 C604 C 1.00724 0.73873 0.12895
 C605 C 1.01618 0.75329 0.06883
 C606 C 0.99117 0.73993 0.08958
 C607 C 1.04830 0.79065 0.12146
 C608 C 1.02347 0.77765 0.14219
 H609 H 1.08827 0.72052 0.10017
 H610 H 0.98733 0.72726 0.14543
 H611 H 1.01033 0.75553 0.04048
 H612 H 1.05858 0.81877 0.12400
 C613 C 0.55610 0.26125 0.58942
 C614 C 0.56580 0.22818 0.60537
 C615 C 0.54165 0.21418 0.62629
 C616 C 0.50868 0.23474 0.62841
 C617 C 0.51830 0.24975 0.56858
 C618 C 0.49302 0.23621 0.58897
 C619 C 0.55006 0.28667 0.62165
 C620 C 0.52494 0.27357 0.64201
 H621 H 0.58993 0.21650 0.60023
 H622 H 0.48852 0.22317 0.64459
 H623 H 0.51278 0.25220 0.54024
 H624 H 0.56051 0.31477 0.62454
 C625 C 0.46128 0.78151 0.86963
 C626 C 0.44865 0.74578 0.84667
 C627 C 0.47444 0.73231 0.82841
 C628 C 0.51103 0.75673 0.83510
 C629 C 0.49457 0.77504 0.89433
 C630 C 0.52053 0.76108 0.87650
 C631 C 0.47635 0.80579 0.84391
 C632 C 0.50220 0.79334 0.82558
 H633 H 0.42330 0.73002 0.84947
 H634 H 0.53205 0.74696 0.82005
 H635 H 0.49633 0.77935 0.92339
 H636 H 0.46828 0.83190 0.84155
 C637 C 0.42623 -0.12034 0.32853
 C638 C 0.43933 -0.11304 0.29440
 C639 C 0.42533 -0.08359 0.27974
 C640 C 0.40127 -0.06669 0.30202
 C641 C 0.37324 -0.09532 0.30674
 C642 C 0.38692 -0.12461 0.32126
 C643 C 0.43656 -0.08647 0.35181
 C644 C 0.42252 -0.05709 0.33733
 H645 H 0.46105 -0.12494 0.28327
 H646 H 0.43457 -0.07313 0.25620
 H647 H 0.34451 -0.09492 0.29966
 H648 H 0.36926 -0.14794 0.32592
 H649 H 0.45590 -0.08266 0.37595
 H650 H 0.42952 -0.03002 0.35036
 C651 C 0.92238 0.38239 0.82835
 C652 C 0.88105 0.37733 0.82166
 C653 C 0.86701 0.40501 0.80853
 C654 C 0.89543 0.43589 0.80303
 C655 C 0.91858 0.44578 0.83977
 C656 C 0.93282 0.41794 0.85291
 C657 C 0.93477 0.39085 0.79214
 C658 C 0.92056 0.41871 0.77893
 H659 H 0.86414 0.35370 0.82673
 H660 H 0.83810 0.40495 0.80247
 H661 H 0.92422 0.47258 0.85366
 H662 H 0.95095 0.42129 0.87785
 H663 H 0.95477 0.37795 0.77903
 H664 H 0.92787 0.42869 0.75445
 C665 C 0.03513 1.13740 0.80802
 C666 C 0.07533 1.14999 0.80588
 C667 C 0.09300 1.12487 0.79022
 C668 C 0.06966 1.08868 0.77860
 C669 C 0.05395 1.07904 0.81284
 C670 C 0.03625 1.10445 0.82831
 C671 C 0.01921 1.12244 0.76928
 C672 C 0.03717 1.09701 0.75393
 H673 H 0.08977 1.17554 0.81781
 H674 H 0.12165 1.12981 0.78793
 H675 H 0.05729 1.05464 0.82445
 H676 H 0.02524 1.10168 0.85341
 H677 H -0.00431 1.13108 0.75517
 H678 H 0.02896 1.08395 0.72679
 C679 C 0.53172 0.63195 0.31092
 C680 C 0.57272 0.64355 0.31350
 C681 C 0.59090 0.61928 0.29723
 C682 C 0.56708 0.58463 0.28036
 C683 C 0.54736 0.57184 0.31123
 C684 C 0.52909 0.59646 0.32730
 C685 C 0.51921 0.62139 0.27057
 C686 C 0.53751 0.59662 0.25465
 H687 H 0.58673 0.66827 0.32810
 H688 H 0.61999 0.62388 0.29740
 H689 H 0.54878 0.54604 0.32052
 H690 H 0.51591 0.59142 0.35073
 H691 H 0.49747 0.63223 0.25587
 H692 H 0.53138 0.58634 0.22641
 C693 C 0.55898 0.38951 0.20203
 C694 C 0.58186 0.40871 0.17652
 C695 C 0.59084 0.44431 0.18648
 C696 C 0.57697 0.45787 0.22151
 C697 C 0.53592 0.44593 0.21457
 C698 C 0.52669 0.41037 0.20457
 C699 C 0.58202 0.39884 0.23894
 C700 C 0.59111 0.43430 0.24899
 H701 H 0.59074 0.39542 0.15287
 H702 H 0.60665 0.46120 0.17091
 H703 H 0.51560 0.46367 0.21580
 H704 H 0.49876 0.39823 0.19809
 H705 H 0.59275 0.37970 0.25497
 H706 H 0.60844 0.44442 0.27357
 C707 C 0.05653 0.89019 0.71487
 C708 C 0.05710 0.91115 0.68220
 C709 C 0.06836 0.94659 0.69055
 C710 C 0.07811 0.95851 0.73089
 C711 C 0.04439 0.94495 0.74791
 C712 C 0.03316 0.90947 0.73962
 C713 C 0.09489 0.89928 0.73520
 C714 C 0.10612 0.93471 0.74342
 H715 H 0.04914 0.89901 0.65468
 H716 H 0.07008 0.96461 0.67020
 H717 H 0.03230 0.96076 0.76767
 H718 H 0.01201 0.89642 0.75282
 H719 H 0.11148 0.87950 0.74343
 H720 H 0.13221 0.94455 0.75844
 C721 C 0.94131 0.61335 0.73115
 C722 C 0.96223 0.58117 0.73077
 C723 C 0.94457 0.55204 0.74218
 C724 C 0.90736 0.55742 0.75374
 C725 C 0.91487 0.59045 0.78179
 C726 C 0.93260 0.61966 0.77021
 C727 C 0.90452 0.59901 0.70919
 C728 C 0.88707 0.56985 0.72063
 H729 H 0.98850 0.58105 0.72143
 H730 H 0.95574 0.52716 0.74151
 H731 H 0.90683 0.59084 0.80857
 H732 H 0.93929 0.64450 0.78765
 H733 H 0.89326 0.61062 0.68612
 H734 H 0.86149 0.55669 0.70659
 C735 C 0.45220 0.11436 0.23577
 C736 C 0.47735 0.08759 0.24735
 C737 C 0.46003 0.05762 0.25759
 C738 C 0.41871 0.05693 0.25610
 C739 C 0.41425 0.09149 0.27898
 C740 C 0.43181 0.12146 0.26860
 C741 C 0.42363 0.09286 0.20687
 C742 C 0.40627 0.06319 0.21738
 H743 H 0.50652 0.09217 0.24855
 H744 H 0.47510 0.03704 0.26634
 H745 H 0.39960 0.09219 0.30222
 H746 H 0.43251 0.14735 0.28370
 H747 H 0.41697 0.10085 0.18042
 H748 H 0.38467 0.04649 0.19988
 C749 C 0.32568 0.41815 -0.11681
 C750 C 0.28873 0.42897 -0.10936
 C751 C 0.27527 0.41434 -0.08139
 C752 C 0.29993 0.39043 -0.06309
 C753 C 0.30660 0.36299 -0.09369
 C754 C 0.31999 0.37745 -0.12152
 C755 C 0.34967 0.42899 -0.08045
 C756 C 0.33632 0.41431 -0.05251
 H757 H 0.27521 0.44810 -0.12317
 H758 H 0.25018 0.42047 -0.07212
 H759 H 0.30113 0.33445 -0.09347
 H760 H 0.32591 0.36127 -0.14501
 H761 H 0.37420 0.44785 -0.07657
 H762 H 0.34974 0.42022 -0.02515
 C763 C 0.82542 0.92167 0.38297
 C764 C 0.84968 0.93247 0.41919
 C765 C 0.83701 0.91711 0.44707
 C766 C 0.80097 0.89261 0.43658
 C767 C 0.77552 0.91624 0.41895
 C768 C 0.78829 0.93155 0.39101
 C769 C 0.82055 0.88098 0.37774
 C770 C 0.80784 0.86584 0.40550
 H771 H 0.87389 0.95174 0.42301
 H772 H 0.85067 0.92289 0.47434
 H773 H 0.75041 0.92171 0.42866
 H774 H 0.77416 0.95057 0.37767
 H775 H 0.82648 0.86529 0.35394
 H776 H 0.80297 0.83722 0.40534
 C777 C 0.80294 0.02938 1.13145
 C778 C 0.80205 0.06717 1.14285
 C779 C 0.78496 0.08517 1.11600
 C780 C 0.77267 0.06278 1.08189
 C781 C 0.80463 0.04773 1.07189
 C782 C 0.82150 0.02968 1.09917
 C783 C 0.76546 0.01450 1.11840
 C784 C 0.74883 0.03281 1.09104
 H785 H 0.81647 0.08187 1.16751
 H786 H 0.78382 0.11355 1.12022
 H787 H 0.81627 0.05182 1.04732
 H788 H 0.84771 0.02108 1.09693
 H789 H 0.75137 -0.00858 1.12787
 H790 H 0.72134 0.02465 1.07823
 C791 C 0.30439 0.52651 0.63158
 C792 C 0.30306 0.56601 0.64410
 C793 C 0.28692 0.58360 0.61889
 C794 C 0.27416 0.56087 0.58254
 C795 C 0.30801 0.54541 0.57217
 C796 C 0.32391 0.52771 0.59774
 C797 C 0.26509 0.51106 0.61732
 C798 C 0.24933 0.52888 0.59165
 H799 H 0.31545 0.57981 0.66994
 H800 H 0.28478 0.61173 0.62393
 H801 H 0.31920 0.54913 0.54731
 H802 H 0.34905 0.51724 0.59458
 H803 H 0.25097 0.48784 0.62646
 H804 H 0.22181 0.52089 0.57889
 C805 C 0.20152 0.55512 0.38265
 C806 C 0.22051 0.52709 0.40095
 C807 C 0.23114 0.53599 0.43676
 C808 C 0.22193 0.57250 0.45168
 C809 C 0.23916 0.59831 0.42776
 C810 C 0.22860 0.58946 0.39189
 C811 C 0.17055 0.56184 0.40495
 C812 C 0.18118 0.57073 0.44078
 H813 H 0.22622 0.50267 0.38659
 H814 H 0.24614 0.51894 0.45205
 H815 H 0.25795 0.62183 0.43798
 H816 H 0.23877 0.60602 0.37270
 H817 H 0.14256 0.56015 0.39338
 H818 H 0.16226 0.57641 0.45967
 C819 C 0.70077 0.05341 0.88138
 C820 C 0.71910 0.02725 0.89948
 C821 C 0.72970 0.03744 0.93712
 C822 C 0.72019 0.07220 0.95011
 C823 C 0.73683 0.09649 0.92731
 C824 C 0.72639 0.08630 0.88960
 C825 C 0.67078 0.05989 0.90184
 C826 C 0.68147 0.07002 0.93948
 H827 H 0.72742 0.00387 0.88546
 H828 H 0.74733 0.02244 0.95227
 H829 H 0.75767 0.11846 0.93716
 H830 H 0.74057 0.09988 0.87052
 H831 H 0.64289 0.05816 0.88987
 H832 H 0.66231 0.07613 0.95798
 C833 C 0.72516 0.93433 0.61172
 C834 C 0.70774 0.89547 0.60146
 C835 C 0.72063 0.87809 0.57338
 C836 C 0.75067 0.90064 0.55799
 C837 C 0.73349 0.93365 0.54860
 C838 C 0.72061 0.95125 0.57656
 C839 C 0.76600 0.93195 0.61861
 C840 C 0.77914 0.91432 0.59052
 H841 H 0.68629 0.88285 0.61472
 H842 H 0.70906 0.85124 0.56259
 H843 H 0.73047 0.94202 0.52196
 H844 H 0.70758 0.97482 0.57370
 H845 H 0.78342 0.94266 0.64310
 H846 H 0.80729 0.91032 0.59143
 C847 C 0.22355 0.43729 0.11102
 C848 C 0.20483 0.39888 0.10063
 C849 C 0.21734 0.38087 0.07271
 C850 C 0.24836 0.40233 0.05763
 C851 C 0.23270 0.43607 0.04805
 C852 C 0.22016 0.45432 0.07585
 C853 C 0.26403 0.43342 0.11829
 C854 C 0.27680 0.41513 0.09038
 H855 H 0.18280 0.38704 0.11367
 H856 H 0.20493 0.35429 0.06185
 H857 H 0.23040 0.44447 0.02140
 H858 H 0.20814 0.47844 0.07287
 H859 H 0.28151 0.44370 0.14287
 H860 H 0.30468 0.41012 0.09152
 C861 C -0.11530 0.32595 0.42231
 C862 C -0.07801 0.34882 0.43149
 C863 C -0.05130 0.33508 0.41542
 C864 C -0.06389 0.29943 0.39186
 C865 C -0.08148 0.27544 0.41719
 C866 C -0.10830 0.28929 0.43324
 C867 C -0.12216 0.32043 0.38121
 C868 C -0.09561 0.30662 0.36535
 H869 H -0.07265 0.37295 0.45025
 H870 H -0.02347 0.34773 0.42011
 H871 H -0.07256 0.25048 0.42314
 H872 H -0.12148 0.27620 0.45335
 H873 H -0.14623 0.32663 0.36576
 H874 H -0.09710 0.30108 0.33637
 C875 C 0.37952 0.82427 0.91764
 C876 C 0.41685 0.84701 0.92685
 C877 C 0.44365 0.83284 0.91137
 C878 C 0.43112 0.79688 0.88835
 C879 C 0.41313 0.77351 0.91395
 C880 C 0.38619 0.78781 0.92939
 C881 C 0.37304 0.81800 0.87653
 C882 C 0.39970 0.80370 0.86128
 H883 H 0.42221 0.87138 0.94526
 H884 H 0.47151 0.84541 0.91619
 H885 H 0.42183 0.74863 0.92048
 H886 H 0.37266 0.77517 0.94957
 H887 H 0.34912 0.82400 0.86067
 H888 H 0.39846 0.79752 0.83238
 C889 C 1.13237 0.81246 0.03304
 C890 C 1.14440 0.81182 0.07336
 C891 C 1.11890 0.79557 0.09102
 C892 C 1.08278 0.78199 0.06747
 C893 C 1.07212 0.81473 0.05050
 C894 C 1.09796 0.83076 0.03277
 C895 C 1.11876 0.77347 0.01825
 C896 C 1.09282 0.75758 0.03612
 H897 H 1.17015 0.82459 0.08754
 H898 H 1.12358 0.79377 0.11965
 H899 H 1.04684 0.82514 0.05326
 H900 H 1.09458 0.85522 0.02137
 H901 H 1.12854 0.75964 -0.00456
 H902 H 1.08047 0.73025 0.02855
 C903 C 0.63542 0.30896 0.53458
 C904 C 0.64704 0.30760 0.57485
 C905 C 0.62117 0.29127 0.59202
 C906 C 0.58514 0.27831 0.56809
 C907 C 0.57503 0.31149 0.55160
 C908 C 0.60124 0.32762 0.53439
 C909 C 0.62150 0.27021 0.51911
 C910 C 0.59521 0.25422 0.53651
 H911 H 0.67265 0.32017 0.58948
 H912 H 0.62548 0.28915 0.62061
 H913 H 0.54981 0.32205 0.55426
 H914 H 0.59827 0.35228 0.52324
 H915 H 0.63135 0.25660 0.49621
 H916 H 0.58263 0.22702 0.52847
 C917 C 0.38417 0.20398 0.55472
 C918 C 0.40363 0.22431 0.52778
 C919 C 0.43935 0.23529 0.53846
 C920 C 0.45305 0.22504 0.57552
 C921 C 0.42774 0.24043 0.60066
 C922 C 0.39193 0.22951 0.59001
 C923 C 0.40666 0.17374 0.56190
 C924 C 0.44240 0.18471 0.57259
 H925 H 0.39002 0.23081 0.50288
 H926 H 0.45526 0.25149 0.52250
 H927 H 0.43702 0.25848 0.62486
 H928 H 0.37176 0.23860 0.60576
 H929 H 0.39524 0.14595 0.55922
 H930 H 0.46139 0.16631 0.57882
 C931 C 0.88205 0.70817 0.05641
 C932 C 0.89025 0.73328 0.09196
 C933 C 0.92613 0.74405 0.10227
 C934 C 0.95108 0.72893 0.07658
 C935 C 0.94037 0.68858 0.07322
 C936 C 0.90454 0.67777 0.06286
 C937 C 0.90118 0.72883 0.02949
 C938 C 0.93697 0.73967 0.03985
 H939 H 0.87033 0.74211 0.10819
 H940 H 0.93568 0.76175 0.12665
 H941 H 0.95937 0.67006 0.07895
 H942 H 0.89307 0.64998 0.05996
 H943 H 0.88729 0.73568 0.00490
 H944 H 0.95269 0.75614 0.02396
 C945 C 0.60781 0.72314 0.92974
 C946 C 0.57306 0.71818 0.94767
 C947 C 0.54434 0.73020 0.93002
 C948 C 0.55259 0.74686 0.89588
 C949 C 0.58523 0.77547 0.90848
 C950 C 0.61408 0.76327 0.92617
 C951 C 0.59665 0.70553 0.89084
 C952 C 0.56778 0.71743 0.87342
 H953 H 0.57105 0.70556 0.97198
 H954 H 0.51790 0.72700 0.93913
 H955 H 0.58570 0.80300 0.90357
 H956 H 0.63882 0.78085 0.93589
 H957 H 0.60981 0.68457 0.87830
 H958 H 0.55622 0.70540 0.84672
 C959 C 0.11166 0.22213 0.42791
 C960 C 0.11854 0.26244 0.42542
 C961 C 0.08980 0.27557 0.40862
 C962 C 0.05666 0.24762 0.39575
 C963 C 0.07104 0.21842 0.37220
 C964 C 0.09981 0.20559 0.38876
 C965 C 0.07716 0.21717 0.44624
 C966 C 0.04856 0.23013 0.42947
 H967 H 0.14363 0.27947 0.43509
 H968 H 0.09072 0.30333 0.40446
 H969 H 0.05903 0.20721 0.34538
 H970 H 0.11243 0.18468 0.37539
 H971 H 0.07522 0.20390 0.47016
 H972 H 0.02228 0.22707 0.43892
 C973 C 0.56595 0.12354 0.66955
 C974 C 0.55495 0.11877 0.62862
 C975 C 0.54611 0.14860 0.61514
 C976 C 0.54856 0.18097 0.64352
 C977 C 0.52429 0.16810 0.67121
 C978 C 0.53331 0.13797 0.68482
 C979 C 0.59604 0.15530 0.67682
 C980 C 0.58703 0.18506 0.66355
 H981 H 0.55320 0.09365 0.61173
 H982 H 0.53699 0.14885 0.58685
 H983 H 0.50196 0.18102 0.67949
 H984 H 0.51792 0.12559 0.70387
 H985 H 0.62208 0.15473 0.69225
 H986 H 0.60539 0.20977 0.66789
 C987 C 1.06522 0.62781 0.17000
 C988 C 1.05441 0.62302 0.12904
 C989 C 1.04533 0.65275 0.11554
 C990 C 1.04739 0.68508 0.14390
 C991 C 1.02309 0.67194 0.17146
 C992 C 1.03234 0.64191 0.18511
 C993 C 1.09504 0.65981 0.17742
 C994 C 1.08580 0.68947 0.16409
 H995 H 1.05301 0.59795 0.11215
 H996 H 1.03632 0.65296 0.08721
 H997 H 1.00059 0.68463 0.17965
 H998 H 1.01701 0.62943 0.20414
 H999 H 1.12107 0.65946 0.19296
 H1000 H 1.10397 0.71432 0.16846
 C1001 C 0.97511 0.85369 0.19780
 C1002 C 1.01659 0.85815 0.20638
 C1003 C 1.03221 0.83240 0.18869
 C1004 C 1.00526 0.80421 0.16403
 C1005 C 0.97894 0.78995 0.18923
 C1006 C 0.96309 0.81585 0.20686
 C1007 C 0.96768 0.85097 0.15678
 C1008 C 0.98318 0.82529 0.13926
 H1009 H 1.03233 0.87766 0.22690
 H1010 H 1.06094 0.83085 0.19370
 H1011 H 0.97433 0.76245 0.19426
 H1012 H 0.94509 0.81013 0.22670
 H1013 H 0.95121 0.86780 0.14259
 H1014 H 0.97979 0.82016 0.11013
 C1015 C 0.47674 0.34940 0.69809
 C1016 C 0.46421 0.31144 0.70651
 C1017 C 0.47996 0.28558 0.68868
 C1018 C 0.50673 0.30002 0.66398
 C1019 C 0.48516 0.32166 0.63939
 C1020 C 0.46974 0.34729 0.65709
 C1021 C 0.51816 0.35343 0.70706
 C1022 C 0.53370 0.32773 0.68920
 H1023 H 0.44596 0.30556 0.72608
 H1024 H 0.47500 0.25798 0.69328
 H1025 H 0.48202 0.31692 0.61025
 H1026 H 0.45360 0.36448 0.64304
 H1027 H 0.53386 0.37264 0.72790
 H1028 H 0.56235 0.32590 0.69439
 C1029 C 0.46179 0.62386 0.79976
 C1030 C 0.42764 0.64118 0.79087
 C1031 C 0.43219 0.67694 0.79922
 C1032 C 0.47051 0.69274 0.81645
 C1033 C 0.47855 0.67201 0.84848
 C1034 C 0.47445 0.63628 0.83982
 C1035 C 0.49060 0.64390 0.78035
 C1036 C 0.49499 0.68001 0.78897
 H1037 H 0.40219 0.62654 0.77779
 H1038 H 0.41069 0.69266 0.79280
 H1039 H 0.48804 0.68452 0.87560
 H1040 H 0.48134 0.61868 0.85954
 H1041 H 0.50677 0.63108 0.76216
 H1042 H 0.51406 0.69758 0.77725
 C1043 C -0.03769 0.12747 0.29908
 C1044 C -0.07133 0.14576 0.29101
 C1045 C -0.06585 0.18146 0.29987
 C1046 C -0.02715 0.19623 0.31681
 C1047 C -0.01930 0.17482 0.34834
 C1048 C -0.02434 0.13915 0.33914
 C1049 C -0.00874 0.14718 0.27956
 C1050 C -0.00338 0.18326 0.28875
 H1051 H -0.09714 0.13181 0.27803
 H1052 H -0.08691 0.19782 0.29401
 H1053 H -0.00924 0.18681 0.37552
 H1054 H -0.01770 0.12106 0.35844
 H1055 H 0.00684 0.13415 0.26090
 H1056 H 0.01595 0.20063 0.27711
 C1057 C 0.05231 0.36723 0.26504
 C1058 C 0.01115 0.35760 0.25621
 C1059 C -0.00339 0.33345 0.27636
 C1060 C 0.02431 0.32070 0.30367
 C1061 C 0.05192 0.30654 0.28058
 C1062 C 0.06650 0.33087 0.26023
 C1063 C 0.05903 0.37886 0.30565
 C1064 C 0.04472 0.35469 0.32569
 H1065 H -0.00501 0.36695 0.23440
 H1066 H -0.03187 0.32287 0.27195
 H1067 H 0.05831 0.27957 0.27862
 H1068 H 0.08477 0.32407 0.24107
 H1069 H 0.07443 0.40400 0.31775
 H1070 H 0.04807 0.35916 0.35484
 C1071 C 0.55113 0.86384 0.76458
 C1072 C 0.51004 0.85461 0.75467
 C1073 C 0.49460 0.83046 0.77427
 C1074 C 0.52140 0.81731 0.80215
 C1075 C 0.54950 0.80297 0.77981
 C1076 C 0.56501 0.82732 0.76002
 C1077 C 0.55688 0.87523 0.80524
 C1078 C 0.54166 0.85105 0.82474
 H1079 H 0.49461 0.86430 0.73259
 H1080 H 0.46606 0.82017 0.76910
 H1081 H 0.55546 0.77585 0.77781
 H1082 H 0.58363 0.82037 0.74129
 H1083 H 0.57232 0.90019 0.81778
 H1084 H 0.54426 0.85533 0.85388
 C1085 C 0.67129 0.57217 0.12520
 C1086 C 0.67686 0.60129 0.15449
 C1087 C 0.66351 0.59197 0.18657
 C1088 C 0.64652 0.55514 0.18395
 C1089 C 0.61899 0.55021 0.15273
 C1090 C 0.63252 0.55926 0.12051
 C1091 C 0.68798 0.54325 0.14054
 C1092 C 0.67440 0.53407 0.17315
 H1093 H 0.69187 0.62723 0.15325
 H1094 H 0.66816 0.61024 0.21122
 H1095 H 0.59125 0.53841 0.15300
 H1096 H 0.61568 0.55431 0.09469
 H1097 H 0.70617 0.52753 0.12779
 H1098 H 0.68379 0.51293 0.18714
 C1099 C 0.17092 1.06830 0.62191
 C1100 C 0.17742 1.09897 0.65260
 C1101 C 0.16435 1.09079 0.68320
 C1102 C 0.14525 1.05250 0.68097
 C1103 C 0.11667 1.04804 0.64787
 C1104 C 0.12995 1.05605 0.61721
 C1105 C 0.18725 1.03756 0.63858
 C1106 C 0.17386 1.02939 0.66953
 H1107 H 0.19220 1.12483 0.65075
 H1108 H 0.16825 1.10970 0.70733
 H1109 H 0.08839 1.03827 0.64831
 H1110 H 0.11293 1.05293 0.59158
 H1111 H 0.20685 1.02276 0.62708
 H1112 H 0.18298 1.00846 0.68402
 C1113 C 0.20079 0.98290 0.85342
 C1114 C 0.20891 1.02185 0.85815
 C1115 C 0.19006 1.03831 0.83075
 C1116 C 0.16685 1.01303 0.80349
 C1117 C 0.19116 0.98932 0.78965
 C1118 C 0.20990 0.97262 0.81721
 C1119 C 0.16154 0.97521 0.85058
 C1120 C 0.14303 0.99151 0.82323
 H1121 H 0.23160 1.03693 0.87580
 H1122 H 0.19661 1.06631 0.82804
 H1123 H 0.19786 0.98725 0.76235
 H1124 H 0.23138 0.95699 0.81176
 H1125 H 0.14718 0.95845 0.86740
 H1126 H 0.11375 0.98773 0.81774
 C1127 C 0.69983 0.47746 0.35214
 C1128 C 0.71179 0.51770 0.35319
 C1129 C 0.69273 0.53311 0.32768
 C1130 C 0.66357 0.50714 0.30306
 C1131 C 0.68433 0.47794 0.28758
 C1132 C 0.70332 0.46250 0.31323
 C1133 C 0.65916 0.47382 0.35424
 C1134 C 0.64035 0.48917 0.32889
 H1135 H 0.73475 0.53252 0.37064
 H1136 H 0.69906 0.56091 0.32413
 H1137 H 0.68588 0.47094 0.25929
 H1138 H 0.72075 0.44286 0.30633
 H1139 H 0.64613 0.46019 0.37418
 H1140 H 0.61126 0.48852 0.32728
 C1141 C 0.80847 0.46801 0.62828
 C1142 C 0.84908 0.47886 0.64076
 C1143 C 0.85782 0.48326 0.67692
 C1144 C 0.82536 0.47736 0.69796
 C1145 C 0.79940 0.50254 0.68408
 C1146 C 0.79067 0.49779 0.64751
 C1147 C 0.79761 0.43518 0.64688
 C1148 C 0.80602 0.44007 0.68304
 H1149 H 0.86915 0.48470 0.62290
 H1150 H 0.88531 0.49190 0.68954
 H1151 H 0.78877 0.52230 0.70121
 H1152 H 0.77341 0.51421 0.63377
 H1153 H 0.78318 0.41039 0.63277
 H1154 H 0.79832 0.41956 0.69964
 C1155 C 0.31478 -0.03366 0.12631
 C1156 C 0.30170 -0.00052 0.14505
 C1157 C 0.31162 0.00500 0.18145
 C1158 C 0.33403 -0.02290 0.19573
 C1159 C 0.31028 -0.05856 0.18259
 C1160 C 0.30057 -0.06422 0.14655
 C1161 C 0.35595 -0.02747 0.13746
 C1162 C 0.36581 -0.02244 0.17347
 H1163 H 0.28641 0.01729 0.13105
 H1164 H 0.30388 0.02697 0.19814
 H1165 H 0.30108 -0.07746 0.20029
 H1166 H 0.28337 -0.08805 0.13359
 H1167 H 0.37588 -0.02480 0.11889
 H1168 H 0.39393 -0.01682 0.18515
 C1169 C 0.27869 0.05584 0.36301
 C1170 C 0.31881 0.05982 0.37793
 C1171 C 0.33982 0.04502 0.35525
 C1172 C 0.31918 0.02697 0.31932
 C1173 C 0.28852 0.00078 0.32946
 C1174 C 0.26746 0.01578 0.35212
 C1175 C 0.27829 0.07118 0.32656
 C1176 C 0.29961 0.05612 0.30377
 H1177 H 0.32993 0.07383 0.40411
 H1178 H 0.36883 0.04651 0.36207
 H1179 H 0.28295 -0.02704 0.31847
 H1180 H 0.24389 0.00074 0.36010
 H1181 H 0.26098 0.09025 0.31811
 H1182 H 0.30041 0.06309 0.27675
 C1183 C 0.77195 0.55602 0.86732
 C1184 C 0.81264 0.56228 0.88010
 C1185 C 0.83298 0.54728 0.85684
 C1186 C 0.81114 0.52683 0.82257
 C1187 C 0.78270 0.50033 0.83571
 C1188 C 0.76227 0.51550 0.85894
 C1189 C 0.76834 0.56915 0.82981
 C1190 C 0.78897 0.55395 0.80644
 H1191 H 0.82457 0.57782 0.90530
 H1192 H 0.86223 0.55012 0.86216
 H1193 H 0.77789 0.47214 0.82615
 H1194 H 0.73995 0.50019 0.86871
 H1195 H 0.74938 0.58677 0.82130
 H1196 H 0.78737 0.55923 0.77870
 C1197 C 0.12701 0.67173 0.57406
 C1198 C 0.16529 0.68646 0.59248
 C1199 C 0.19171 0.66880 0.58055
 C1200 C 0.17809 0.63796 0.55084
 C1201 C 0.14874 0.61446 0.56618
 C1202 C 0.12251 0.63203 0.57843
 C1203 C 0.13011 0.67275 0.53356
 C1204 C 0.15680 0.65494 0.52144
 H1205 H 0.17127 0.70963 0.61252
 H1206 H 0.22005 0.67680 0.59059
 H1207 H 0.14793 0.58596 0.56625
 H1208 H 0.09968 0.61852 0.58913
 H1209 H 0.11371 0.68671 0.51588
 H1210 H 0.16191 0.65326 0.49364
 C1211 C 0.61797 0.16572 1.06403
 C1212 C 0.63693 0.18403 1.03528
 C1213 C 0.66700 0.16994 1.02638
 C1214 C 0.67550 0.13860 1.04695
 C1215 C 0.67782 0.15376 1.08671
 C1216 C 0.64790 0.16721 1.09560
 C1217 C 0.61064 0.12609 1.04847
 C1218 C 0.64061 0.11218 1.03969
 H1219 H 0.62762 0.20636 1.02319
 H1220 H 0.68331 0.18078 1.00715
 H1221 H 0.70143 0.15457 1.10631
 H1222 H 0.64604 0.17866 1.12281
 H1223 H 0.58449 0.10997 1.04349
 H1224 H 0.63946 0.08486 1.02780
 C1225 C 0.84703 0.19444 0.97504
 C1226 C 0.84596 0.15597 0.96889
 C1227 C 0.81835 0.13686 0.98478
 C1228 C 0.79657 0.15942 1.00437
 C1229 C 0.82227 0.18385 1.03024
 C1230 C 0.84992 0.20331 1.01419
 C1231 C 0.81040 0.20130 0.96229
 C1232 C 0.78252 0.18192 0.97854
 H1233 H 0.86400 0.14256 0.95324
 H1234 H 0.81388 0.10800 0.98175
 H1235 H 0.81841 0.19027 1.05817
 H1236 H 0.86685 0.22626 1.02930
 H1237 H 0.80469 0.22194 0.94562
 H1238 H 0.75477 0.18722 0.97484
 C1239 C 0.34786 0.69488 0.47914
 C1240 C 0.30938 0.70261 0.46651
 C1241 C 0.28277 0.68406 0.48168
 C1242 C 0.29701 0.65934 0.50801
 C1243 C 0.31961 0.63603 0.48647
 C1244 C 0.34596 0.65445 0.47164
 C1245 C 0.35113 0.70287 0.52041
 C1246 C 0.32467 0.68426 0.53536
 H1247 H 0.30370 0.72218 0.44855
 H1248 H 0.25471 0.68807 0.47654
 H1249 H 0.31498 0.60719 0.48293
 H1250 H 0.36386 0.64131 0.45562
 H1251 H 0.37033 0.72353 0.53647
 H1252 H 0.32225 0.68866 0.56384
 C1253 C 0.62744 0.80169 0.46951
 C1254 C 0.64587 0.79206 0.43619
 C1255 C 0.68219 0.80090 0.44102
 C1256 C 0.69746 0.81943 0.47874
 C1257 C 0.67609 0.85082 0.48500
 C1258 C 0.63979 0.84164 0.48066
 C1259 C 0.64723 0.78388 0.49945
 C1260 C 0.68399 0.79310 0.50416
 H1261 H 0.63155 0.77807 0.41114
 H1262 H 0.69870 0.79399 0.42018
 H1263 H 0.68858 0.87793 0.49370
 H1264 H 0.62174 0.86094 0.48669
 H1265 H 0.63374 0.76628 0.51602
 H1266 H 0.70152 0.78263 0.52406
 C1267 C 0.12463 0.30302 -0.03004
 C1268 C 0.14404 0.28542 0.00026
 C1269 C 0.18083 0.29421 0.00502
 C1270 C 0.19471 0.31999 -0.02072
 C1271 C 0.17944 0.30111 -0.05830
 C1272 C 0.14307 0.29268 -0.06318
 C1273 C 0.13739 0.34298 -0.01939
 C1274 C 0.17374 0.35175 -0.01504
 H1275 H 0.13024 0.26810 0.01689
 H1276 H 0.19812 0.28368 0.02508
 H1277 H 0.19594 0.29367 -0.07898
 H1278 H 0.12870 0.27854 -0.08814
 H1279 H 0.11969 0.36259 -0.01331
 H1280 H 0.18652 0.37881 -0.00652
 C1281 C 0.36709 0.27381 0.06385
 C1282 C 0.35401 0.25956 0.02423
 C1283 C 0.33009 0.27865 0.00797
 C1284 C 0.32092 0.31021 0.03248
 C1285 C 0.30765 0.29349 0.06488
 C1286 C 0.33180 0.27434 0.08118
 C1287 C 0.38147 0.31312 0.06350
 C1288 C 0.35748 0.33205 0.04758
 H1289 H 0.36024 0.23506 0.01062
 H1290 H 0.31712 0.27072 -0.01936
 H1291 H 0.28172 0.29567 0.07419
 H1292 H 0.32600 0.26028 0.10387
 H1293 H 0.40834 0.32527 0.07540
 H1294 H 0.36385 0.36034 0.04623
 C1295 C 0.87507 0.78236 0.56663
 C1296 C 0.83614 0.77102 0.57489
 C1297 C 0.81041 0.78691 0.55634
 C1298 C 0.82586 0.81273 0.53147
 C1299 C 0.85468 0.83885 0.55610
 C1300 C 0.88014 0.82313 0.57445
 C1301 C 0.87260 0.77445 0.52567
 C1302 C 0.84695 0.78997 0.50740
 H1303 H 0.82881 0.75239 0.59342
 H1304 H 0.78197 0.78094 0.55891
 H1305 H 0.85446 0.86740 0.55957
 H1306 H 0.90155 0.83835 0.59365
 H1307 H 0.88883 0.75691 0.51215
 H1308 H 0.84127 0.78536 0.47831
   
