data_POSCAR
  _audit_creation_date              2014-09-24
  _audit_creation_method            'ToBaCCo'
  _symmetry_space_group_name_H-M    'P1'
  _symmetry_Int_Tables_number       1
  _symmetry_cell_setting            triclinic
  loop_
  _symmetry_equiv_pos_as_xyz
 x,y,z
_cell_length_a 55.8267
_cell_length_b 55.1283
_cell_length_c 56.2428
_cell_angle_alpha 90.059600
_cell_angle_beta 89.955600
_cell_angle_gamma 90.139700
loop_
  _atom_site_label
  _atom_site_type_symbol
  _atom_site_fract_x
  _atom_site_fract_y
  _atom_site_fract_z
O1 O 0.31420 0.34438 0.02176
 O2 O 0.34265 0.30764 -0.02485
 O3 O 0.31378 0.34474 -0.02448
 O4 O 0.34309 0.30730 0.02084
 O5 O 0.31213 0.28218 0.02105
 O6 O 0.28261 0.31992 -0.02450
 O7 O 0.31166 0.28255 -0.02485
 O8 O 0.28306 0.31952 0.02201
 Cu9 Cu 0.33147 0.32861 -0.00169
 Cu10 Cu 0.29411 0.29862 -0.00156
 C11 C 0.29383 0.33824 0.02973
 C12 C 0.33226 0.28864 -0.03237
 C13 C 0.29325 0.33874 -0.03213
 C14 C 0.33288 0.28816 0.02821
 O15 O 0.69220 0.65330 0.02213
 O16 O 0.65488 0.68159 -0.02382
 O17 O 0.69226 0.65319 -0.02347
 O18 O 0.65493 0.68158 0.02240
 O19 O 0.67868 0.71374 0.02252
 O20 O 0.71635 0.68511 -0.02357
 O21 O 0.67869 0.71370 -0.02398
 O22 O 0.71621 0.68528 0.02224
 Cu23 Cu 0.67106 0.66428 -0.00073
 Cu24 Cu 0.69978 0.70283 -0.00074
 C25 C 0.71076 0.66421 0.02957
 C26 C 0.66037 0.70246 -0.03158
 C27 C 0.71096 0.66396 -0.03076
 C28 C 0.66044 0.70242 0.03022
 O29 O 0.64473 0.32524 1.02453
 O30 O 0.68019 0.35437 0.97765
 O31 O 0.64427 0.32415 0.97834
 O32 O 0.68056 0.35537 1.02348
 O33 O 0.70592 0.32460 1.02397
 O34 O 0.66948 0.29327 0.97857
 O35 O 0.70563 0.32366 0.97794
 O36 O 0.66988 0.29431 1.02502
 Cu37 Cu 0.65982 0.34282 1.00093
 Cu38 Cu 0.69022 0.30575 1.00139
 C39 C 0.65127 0.30491 1.03272
 C40 C 0.69910 0.34421 0.97018
 C41 C 0.65066 0.30345 0.97087
 C42 C 0.69950 0.34544 1.03114
 O43 O 0.33668 0.69538 1.02192
 O44 O 0.30290 0.66340 0.97543
 O45 O 0.33651 0.69661 0.97616
 O46 O 0.30319 0.66194 1.02119
 O47 O 0.27535 0.69038 1.02232
 O48 O 0.30891 0.72531 0.97708
 O49 O 0.27508 0.69188 0.97635
 O50 O 0.30907 0.72405 1.02306
 Cu51 Cu 0.32259 0.67647 0.99860
 Cu52 Cu 0.28930 0.71080 0.99983
 C53 C 0.32894 0.71540 1.02989
 C54 C 0.28306 0.67192 0.96841
 C55 C 0.32866 0.71703 0.96938
 C56 C 0.28339 0.66994 1.02893
 O57 O -0.02271 0.33921 0.30635
 O58 O 0.02239 0.30558 0.34039
 O59 O 0.02338 0.33892 0.30722
 O60 O -0.02376 0.30605 0.33970
 O61 O -0.02366 0.27730 0.31226
 O62 O 0.02368 0.31035 0.27959
 O63 O 0.02268 0.27680 0.31297
 O64 O -0.02260 0.31066 0.27869
 Cu65 Cu -0.00019 0.32530 0.32618
 Cu66 Cu 0.00004 0.29086 0.29310
 C67 C -0.02981 0.33097 0.28651
 C68 C 0.02974 0.28527 0.33275
 C69 C 0.03109 0.33053 0.28767
 C70 C -0.03130 0.28588 0.33179
 O71 O 0.02156 0.67403 0.64301
 O72 O -0.02760 0.64478 0.67552
 O73 O -0.02486 0.67673 0.64173
 O74 O 0.01886 0.64228 0.67699
 O75 O 0.01978 0.67172 0.70372
 O76 O -0.02408 0.70622 0.66840
 O77 O -0.02686 0.67415 0.70234
 O78 O 0.02252 0.70360 0.66961
 Cu79 Cu -0.00310 0.65648 0.65663
 Cu80 Cu -0.00208 0.69191 0.68873
 C81 C 0.03032 0.69373 0.65075
 C82 C -0.03552 0.65445 0.69439
 C83 C -0.03184 0.69729 0.64908
 C84 C 0.02671 0.65116 0.69629
 O85 O 1.02372 0.65632 0.31466
 O86 O 0.97762 0.69276 0.34461
 O87 O 0.97713 0.65687 0.31444
 O88 O 1.02365 0.69226 0.34492
 O89 O 1.02428 0.71861 0.31529
 O90 O 0.97757 0.68292 0.28457
 O91 O 0.97806 0.71902 0.31489
 O92 O 1.02439 0.68244 0.28485
 Cu93 Cu 1.00050 0.67183 0.33257
 Cu94 Cu 1.00116 0.70329 0.29678
 C95 C 1.03178 0.66314 0.29467
 C96 C 0.97039 0.71225 0.33508
 C97 C 0.96950 0.66385 0.29437
 C98 C 1.03139 0.71170 0.33561
 O99 O 0.97672 0.31643 0.65269
 O100 O 1.02298 0.34500 0.68987
 O101 O 1.02333 0.31569 0.65353
 O102 O 0.97703 0.34603 0.68896
 O103 O 0.97583 0.31486 0.71367
 O104 O 1.02232 0.28427 0.67791
 O105 O 1.02196 0.31372 0.71447
 O106 O 0.97547 0.28508 0.67715
 Cu107 Cu 1.00010 0.33385 0.66868
 Cu108 Cu 0.99874 0.29619 0.69816
 C109 C 0.96832 0.29591 0.65857
 C110 C 1.02990 0.33448 0.70868
 C111 C 1.03067 0.29489 0.65969
 C112 C 0.96909 0.33593 0.70761
 O113 O 0.32586 -0.02503 0.35823
 O114 O 0.35694 0.02299 0.32519
 O115 O 0.32458 0.02206 0.35831
 O116 O 0.35814 -0.02406 0.32494
 O117 O 0.32973 -0.02491 0.29756
 O118 O 0.29606 0.02138 0.33103
 O119 O 0.32856 0.02234 0.29776
 O120 O 0.29731 -0.02590 0.33099
 Cu121 Cu 0.34425 -0.00095 0.34443
 Cu122 Cu 0.31002 -0.00187 0.31156
 C123 C 0.30635 -0.03355 0.35027
 C124 C 0.34806 0.03077 0.30593
 C125 C 0.30467 0.02951 0.35034
 C126 C 0.34967 -0.03223 0.30561
 O127 O 0.66287 0.02383 0.69701
 O128 O 0.69608 -0.02195 0.66298
 O129 O 0.66356 -0.02287 0.69663
 O130 O 0.69533 0.02470 0.66329
 O131 O 0.72400 0.02518 0.69039
 O132 O 0.69209 -0.02264 0.72388
 O133 O 0.72483 -0.02167 0.69001
 O134 O 0.69132 0.02426 0.72434
 Cu135 Cu 0.67659 0.00089 0.67727
 Cu136 Cu 0.71095 0.00132 0.70992
 C137 C 0.67114 0.03134 0.71668
 C138 C 0.71633 -0.02906 0.67036
 C139 C 0.67213 -0.03038 0.71615
 C140 C 0.71529 0.03253 0.67085
 O141 O 0.34576 0.97518 0.68367
 O142 O 0.30811 1.01976 0.65302
 O143 O 0.34486 1.02199 0.68167
 O144 O 0.30904 0.97315 0.65507
 O145 O 0.28432 0.97389 0.68582
 O146 O 0.32044 1.02301 0.71264
 O147 O 0.28342 1.02075 0.68378
 O148 O 0.32133 0.97593 0.71463
 Cu149 Cu 0.32943 0.99745 0.66528
 Cu150 Cu 0.29992 0.99850 0.70239
 C151 C 0.34013 0.96826 0.70442
 C152 C 0.28917 1.02739 0.66294
 C153 C 0.33897 1.03049 0.70178
 C154 C 0.29041 0.96560 0.66565
 O155 O 0.65318 0.97832 0.30740
 O156 O 0.68207 1.02532 0.34386
 O157 O 0.65287 1.02502 0.30750
 O158 O 0.68212 0.97846 0.34374
 O159 O 0.71328 0.97859 0.31942
 O160 O 0.68370 1.02531 0.28277
 O161 O 0.71311 1.02571 0.31942
 O162 O 0.68414 0.97839 0.28283
 Cu163 Cu 0.66447 1.00181 0.32810
 Cu164 Cu 0.70174 1.00208 0.29865
 C165 C 0.66355 0.97069 0.28878
 C166 C 0.70263 1.03314 0.33809
 C167 C 0.66299 1.03258 0.28874
 C168 C 0.70272 0.97087 0.33793
 C169 C 0.87680 0.78940 0.49462
 C170 C 0.87007 0.80209 0.47426
 C171 C 0.85297 0.82057 0.47578
 C172 C 0.84153 0.82588 0.49764
 C173 C 0.84827 0.81237 0.51793
 C174 C 0.86618 0.79469 0.51646
 C175 C 0.82285 0.84538 0.49928
 C176 C 0.81808 0.85726 0.52110
 C177 C 0.80040 0.87518 0.52259
 C178 C 0.78802 0.88227 0.50224
 C179 C 0.79276 0.87119 0.48045
 C180 C 0.80962 0.85249 0.47901
 H181 H 0.89044 0.77545 0.49348
 H182 H 0.84896 0.83077 0.45987
 H183 H 0.83974 0.81532 0.53495
 H184 H 0.82810 0.85300 0.53700
 H185 H 0.77470 0.89654 0.50334
 H186 H 0.81215 0.84363 0.46203
 C187 C 0.12108 0.21299 0.49913
 C188 C 0.12754 0.20069 0.47841
 C189 C 0.14509 0.18260 0.47920
 C190 C 0.15711 0.17725 0.50068
 C191 C 0.15066 0.19033 0.52133
 C192 C 0.13242 0.20768 0.52059
 C193 C 0.17608 0.15808 0.50163
 C194 C 0.18090 0.14549 0.52299
 C195 C 0.19891 0.12791 0.52390
 C196 C 0.21167 0.12193 0.50340
 C197 C 0.20687 0.13375 0.48203
 C198 C 0.18956 0.15206 0.48117
 H199 H 0.10711 0.22663 0.49858
 H200 H 0.14898 0.17266 0.46306
 H201 H 0.15969 0.18726 0.53806
 H202 H 0.17064 0.14898 0.53895
 H203 H 0.22532 0.10796 0.50406
 H204 H 0.18686 0.16150 0.46454
 C205 C 0.12744 0.77991 0.49620
 C206 C 0.13893 0.78383 0.51788
 C207 C 0.15730 0.80102 0.51962
 C208 C 0.16371 0.81538 0.49983
 C209 C 0.15156 0.81147 0.47810
 C210 C 0.13387 0.79351 0.47627
 C211 C 0.18275 0.83440 0.50193
 C212 C 0.19639 0.84143 0.48194
 C213 C 0.21382 0.85959 0.48386
 C214 C 0.21857 0.87032 0.50585
 C215 C 0.20559 0.86331 0.52593
 C216 C 0.18748 0.84583 0.52395
 H217 H 0.11331 0.76642 0.49489
 H218 H 0.16642 0.80304 0.53648
 H219 H 0.15544 0.82244 0.46263
 H220 H 0.19369 0.83287 0.46483
 H221 H 0.23230 0.88419 0.50732
 H222 H 0.17708 0.84147 0.53963
 C223 C 0.87619 0.21427 0.49546
 C224 C 0.86545 0.20889 0.51723
 C225 C 0.84736 0.19131 0.51849
 C226 C 0.84059 0.17783 0.49814
 C227 C 0.85213 0.18327 0.47633
 C228 C 0.86939 0.20174 0.47496
 C229 C 0.82188 0.15819 0.49976
 C230 C 0.80908 0.15047 0.47939
 C231 C 0.79218 0.13170 0.48088
 C232 C 0.78693 0.12115 0.50281
 C233 C 0.79889 0.12879 0.52326
 C234 C 0.81663 0.14674 0.52172
 H235 H 0.88999 0.22813 0.49449
 H236 H 0.83876 0.18840 0.53548
 H237 H 0.84813 0.17317 0.46033
 H238 H 0.81196 0.15887 0.46226
 H239 H 0.77358 0.10685 0.50395
 H240 H 0.82630 0.15137 0.53774
 C241 C 0.50638 0.88075 0.79115
 C242 C 0.48406 0.87063 0.79632
 C243 C 0.48207 0.85214 0.81326
 C244 C 0.50237 0.84425 0.82615
 C245 C 0.52476 0.85520 0.82096
 C246 C 0.52677 0.87290 0.80319
 C247 C 0.50019 0.82478 0.84478
 C248 C 0.52027 0.81074 0.85141
 C249 C 0.51842 0.79306 0.86917
 C250 C 0.49632 0.78825 0.87979
 C251 C 0.47608 0.80142 0.87317
 C252 C 0.47805 0.81993 0.85619
 H253 H 0.50788 0.89481 0.77774
 H254 H 0.46465 0.84404 0.81608
 H255 H 0.54075 0.85035 0.83065
 H256 H 0.53746 0.81321 0.84288
 H257 H 0.49488 0.77426 0.89328
 H258 H 0.46225 0.83049 0.85226
 C259 C 0.50125 0.12700 0.21560
 C260 C 0.47933 0.13813 0.21096
 C261 C 0.47774 0.15622 0.19364
 C262 C 0.49799 0.16277 0.18002
 C263 C 0.51997 0.15102 0.18469
 C264 C 0.52160 0.13355 0.20266
 C265 C 0.49611 0.18157 0.16098
 C266 C 0.51613 0.19591 0.15471
 C267 C 0.51445 0.21310 0.13653
 C268 C 0.49268 0.21685 0.12496
 C269 C 0.47258 0.20316 0.13116
 C270 C 0.47431 0.18533 0.14877
 H271 H 0.50243 0.11309 0.22918
 H272 H 0.46068 0.16507 0.19095
 H273 H 0.53580 0.15506 0.17429
 H274 H 0.53305 0.19391 0.16388
 H275 H 0.49142 0.23035 0.11099
 H276 H 0.45869 0.17435 0.15258
 C277 C 0.50371 0.12174 0.78630
 C278 C 0.52381 0.12877 0.79934
 C279 C 0.52170 0.14638 0.81719
 C280 C 0.49951 0.15795 0.82154
 C281 C 0.47954 0.15093 0.80765
 C282 C 0.48158 0.13256 0.79059
 C283 C 0.49712 0.17698 0.84051
 C284 C 0.47473 0.18160 0.85143
 C285 C 0.47246 0.19969 0.86876
 C286 C 0.49257 0.21267 0.87620
 C287 C 0.51492 0.20807 0.86609
 C288 C 0.51717 0.19073 0.84801
 H289 H 0.50527 0.10766 0.77289
 H290 H 0.53737 0.15062 0.82771
 H291 H 0.46231 0.15957 0.80988
 H292 H 0.45898 0.17118 0.84681
 H293 H 0.49083 0.22640 0.88994
 H294 H 0.53457 0.18827 0.83990
 C295 C 0.50435 0.87472 0.21273
 C296 C 0.52481 0.86818 0.20002
 C297 C 0.52328 0.85089 0.18183
 C298 C 0.50131 0.83911 0.17679
 C299 C 0.48091 0.84568 0.19023
 C300 C 0.48240 0.86373 0.20770
 C301 C 0.49971 0.82017 0.15768
 C302 C 0.47782 0.81547 0.14584
 C303 C 0.47639 0.79754 0.12824
 C304 C 0.49686 0.78477 0.12154
 C305 C 0.51871 0.78944 0.13265
 C306 C 0.52009 0.80662 0.15094
 H307 H 0.50551 0.88843 0.22654
 H308 H 0.53926 0.84696 0.17167
 H309 H 0.46383 0.83685 0.18740
 H310 H 0.46187 0.82576 0.14993
 H311 H 0.49580 0.77124 0.10753
 H312 H 0.53711 0.80916 0.15979
 C313 C 0.79063 0.50290 0.87970
 C314 C 0.79532 0.48087 0.86845
 C315 C 0.81065 0.48005 0.84879
 C316 C 0.82240 0.50125 0.84076
 C317 C 0.81778 0.52333 0.85275
 C318 C 0.80160 0.52414 0.87173
 C319 C 0.83948 0.50032 0.82025
 C320 C 0.84393 0.52112 0.80627
 C321 C 0.86067 0.52048 0.78777
 C322 C 0.87233 0.49887 0.78216
 C323 C 0.86780 0.47796 0.79538
 C324 C 0.85188 0.47872 0.81461
 H325 H 0.77849 0.50351 0.89477
 H326 H 0.81322 0.46283 0.83992
 H327 H 0.82680 0.53993 0.84771
 H328 H 0.83462 0.53797 0.80963
 H329 H 0.88521 0.49841 0.76771
 H330 H 0.84965 0.46252 0.82521
 C331 C 0.21104 0.50228 0.12045
 C332 C 0.20602 0.48044 0.13193
 C333 C 0.18903 0.47971 0.15025
 C334 C 0.17599 0.50072 0.15665
 C335 C 0.18106 0.52256 0.14436
 C336 C 0.19884 0.52337 0.12677
 C337 C 0.15728 0.49982 0.17590
 C338 C 0.15060 0.52104 0.18840
 C339 C 0.13275 0.52027 0.20590
 C340 C 0.12212 0.49821 0.21202
 C341 C 0.12878 0.47692 0.20034
 C342 C 0.14580 0.47775 0.18203
 H343 H 0.22446 0.50284 0.10647
 H344 H 0.18630 0.46269 0.15941
 H345 H 0.17123 0.53901 0.14808
 H346 H 0.15916 0.53827 0.18484
 H347 H 0.10856 0.49762 0.22585
 H348 H 0.14973 0.46111 0.17263
 C349 C 0.79302 0.50278 0.11868
 C350 C 0.80439 0.52408 0.12596
 C351 C 0.82191 0.52331 0.14373
 C352 C 0.82749 0.50128 0.15535
 C353 C 0.81533 0.48000 0.14802
 C354 C 0.79865 0.48074 0.12946
 C355 C 0.84579 0.50054 0.17491
 C356 C 0.85803 0.47883 0.18048
 C357 C 0.87483 0.47821 0.19896
 C358 C 0.88050 0.49938 0.21137
 C359 C 0.86906 0.52111 0.20581
 C360 C 0.85139 0.52161 0.18818
 H361 H 0.77974 0.50336 0.10462
 H362 H 0.83109 0.53999 0.14818
 H363 H 0.81850 0.46279 0.15665
 H364 H 0.85492 0.46236 0.17049
 H365 H 0.89396 0.49899 0.22527
 H366 H 0.84220 0.53855 0.18506
 C367 C 0.21081 0.50343 0.87891
 C368 C 0.19824 0.52417 0.87224
 C369 C 0.18011 0.52261 0.85510
 C370 C 0.17506 0.50037 0.84353
 C371 C 0.18847 0.47972 0.85019
 C372 C 0.20576 0.48118 0.86815
 C373 C 0.15599 0.49868 0.82476
 C374 C 0.14467 0.47630 0.81953
 C375 C 0.12734 0.47470 0.80161
 C376 C 0.12022 0.49549 0.78944
 C377 C 0.13068 0.51786 0.79468
 C378 C 0.14883 0.51942 0.81179
 H379 H 0.22451 0.50458 0.89255
 H380 H 0.17001 0.53881 0.85114
 H381 H 0.18577 0.46241 0.84154
 H382 H 0.14899 0.46001 0.82929
 H383 H 0.10647 0.49427 0.77586
 H384 H 0.15726 0.53686 0.81466
 C385 C 0.24049 0.42093 0.10520
 C386 C 0.26480 0.42347 0.09845
 C387 C 0.27605 0.40504 0.08477
 C388 C 0.26292 0.38417 0.07791
 C389 C 0.23903 0.38101 0.08580
 C390 C 0.22778 0.39945 0.09951
 C391 C 0.20381 0.39603 0.10697
 C392 C 0.19130 0.37495 0.10110
 C393 C 0.20228 0.35693 0.08768
 C394 C 0.22587 0.35985 0.08004
 C395 C 0.30028 0.40816 0.07795
 C396 C 0.31304 0.42886 0.08452
 C397 C 0.30204 0.44688 0.09790
 C398 C 0.27819 0.44433 0.10481
 C399 C 0.27355 0.36682 0.06156
 C400 C 0.28262 0.35327 0.04733
 C401 C 0.22811 0.44122 0.11617
 C402 C 0.21796 0.45875 0.12408
 H403 H 0.19456 0.40951 0.11752
 H404 H 0.17299 0.37258 0.10702
 H405 H 0.19249 0.34060 0.08317
 H406 H 0.23370 0.34532 0.06970
 H407 H 0.30964 0.39461 0.06760
 H408 H 0.33157 0.43092 0.07919
 H409 H 0.31203 0.46292 0.10297
 H410 H 0.27044 0.45880 0.11529
 C411 C 0.77971 0.58681 0.09603
 C412 C 0.76060 0.59900 0.10748
 C413 C 0.74804 0.61764 0.09534
 C414 C 0.75469 0.62397 0.07188
 C415 C 0.77489 0.61300 0.06111
 C416 C 0.78742 0.59432 0.07321
 C417 C 0.80723 0.58324 0.06191
 C418 C 0.81459 0.59056 0.03933
 C419 C 0.80241 0.60892 0.02754
 C420 C 0.78269 0.62000 0.03816
 C421 C 0.72871 0.62926 0.10693
 C422 C 0.72202 0.62271 0.12993
 C423 C 0.73430 0.60448 0.14181
 C424 C 0.75336 0.59266 0.13078
 C425 C 0.73946 0.63984 0.05797
 C426 C 0.72642 0.65174 0.04556
 C427 C 0.78993 0.56529 0.10685
 C428 C 0.79721 0.54678 0.11562
 H429 H 0.81730 0.56895 0.07045
 H430 H 0.82982 0.58195 0.03095
 H431 H 0.80817 0.61453 0.01000
 H432 H 0.77376 0.63416 0.02827
 H433 H 0.71869 0.64361 0.09840
 H434 H 0.70723 0.63184 0.13857
 H435 H 0.72903 0.59946 0.15967
 H436 H 0.76242 0.57864 0.14076
 C437 C 0.76575 0.42172 0.90080
 C438 C 0.76729 0.42163 0.92593
 C439 C 0.75495 0.40362 0.93920
 C440 C 0.74114 0.38582 0.92723
 C441 C 0.74051 0.38523 0.90209
 C442 C 0.75288 0.40326 0.88881
 C443 C 0.75181 0.40252 0.86369
 C444 C 0.73893 0.38439 0.85201
 C445 C 0.72681 0.36676 0.86501
 C446 C 0.72750 0.36711 0.88978
 C447 C 0.75646 0.40411 0.96434
 C448 C 0.76974 0.42192 0.97602
 C449 C 0.78185 0.43952 0.96304
 C450 C 0.78070 0.43948 0.93829
 C451 C 0.72639 0.36936 0.94103
 C452 C 0.71393 0.35704 0.95368
 C453 C 0.77636 0.44162 0.88764
 C454 C 0.78502 0.45908 0.87805
 H455 H 0.76099 0.41584 0.85287
 H456 H 0.73835 0.38403 0.83278
 H457 H 0.71684 0.35272 0.85585
 H458 H 0.71785 0.35300 0.89916
 H459 H 0.74745 0.39075 0.97526
 H460 H 0.77059 0.42209 0.99523
 H461 H 0.79217 0.45331 0.97218
 H462 H 0.79047 0.45356 0.92901
 C463 C 0.22000 0.58786 0.90296
 C464 C 0.23666 0.60271 0.89071
 C465 C 0.24811 0.62223 0.90275
 C466 C 0.24272 0.62686 0.92691
 C467 C 0.22493 0.61299 0.93870
 C468 C 0.21360 0.59338 0.92671
 C469 C 0.19627 0.57943 0.93902
 C470 C 0.19018 0.58481 0.96247
 C471 C 0.20113 0.60410 0.97414
 C472 C 0.21839 0.61802 0.96252
 C473 C 0.26506 0.63650 0.89032
 C474 C 0.27048 0.63171 0.86658
 C475 C 0.25924 0.61267 0.85477
 C476 C 0.24253 0.59825 0.86662
 C477 C 0.25678 0.64436 0.94029
 C478 C 0.26875 0.65770 0.95245
 C479 C 0.21099 0.56589 0.89179
 C480 C 0.20455 0.54712 0.88278
 H481 H 0.18717 0.56433 0.93061
 H482 H 0.17687 0.57398 0.97162
 H483 H 0.19631 0.60824 0.99235
 H484 H 0.22643 0.63282 0.97236
 H485 H 0.27418 0.65156 0.89876
 H486 H 0.28346 0.64284 0.85730
 H487 H 0.26348 0.60904 0.83632
 H488 H 0.23418 0.58370 0.85667
 C489 C 0.09306 0.22255 0.41798
 C490 C 0.06797 0.22600 0.41929
 C491 C 0.05571 0.23746 0.40025
 C492 C 0.06863 0.24539 0.37998
 C493 C 0.09353 0.24101 0.37823
 C494 C 0.10580 0.22955 0.39730
 C495 C 0.13076 0.22565 0.39530
 C496 C 0.14324 0.23281 0.37501
 C497 C 0.13124 0.24399 0.35636
 C498 C 0.10666 0.24811 0.35787
 C499 C 0.03066 0.24106 0.40216
 C500 C 0.01814 0.23367 0.42234
 C501 C 0.03012 0.22238 0.44091
 C502 C 0.05474 0.21854 0.43950
 C503 C 0.05632 0.25918 0.36173
 C504 C 0.04496 0.27102 0.34773
 C505 C 0.10586 0.21350 0.43860
 C506 C 0.11601 0.20703 0.45641
 H507 H 0.14083 0.21696 0.40933
 H508 H 0.16233 0.22965 0.37375
 H509 H 0.14103 0.24952 0.34064
 H510 H 0.09807 0.25683 0.34291
 H511 H 0.02048 0.24962 0.38814
 H512 H -0.00097 0.23671 0.42356
 H513 H 0.02029 0.21660 0.45651
 H514 H 0.06325 0.20966 0.45441
 C515 C 0.11117 0.74813 0.57523
 C516 C 0.10264 0.76161 0.59492
 C517 C 0.08806 0.75014 0.61231
 C518 C 0.08213 0.72529 0.60987
 C519 C 0.09201 0.71146 0.59107
 C520 C 0.10658 0.72293 0.57367
 C521 C 0.11593 0.70886 0.55477
 C522 C 0.11106 0.68411 0.55316
 C523 C 0.09680 0.67287 0.57018
 C524 C 0.08731 0.68630 0.58894
 C525 C 0.07938 0.76402 0.63164
 C526 C 0.08504 0.78857 0.63376
 C527 C 0.09931 0.79980 0.61673
 C528 C 0.10803 0.78657 0.59746
 C529 C 0.06446 0.71440 0.62549
 C530 C 0.04912 0.70515 0.63753
 C531 C 0.12256 0.76055 0.55553
 C532 C 0.13074 0.77104 0.53859
 H533 H 0.12719 0.71680 0.54116
 H534 H 0.11841 0.67359 0.53862
 H535 H 0.09308 0.65363 0.56886
 H536 H 0.07638 0.67675 0.60180
 H537 H 0.06828 0.75603 0.64535
 H538 H 0.07833 0.79892 0.64870
 H539 H 0.10367 0.81887 0.61846
 H540 H 0.11914 0.79605 0.58470
 C541 C 0.90141 0.77888 0.41256
 C542 C 0.92459 0.78698 0.40610
 C543 C 0.93741 0.77484 0.38779
 C544 C 0.92697 0.75467 0.37609
 C545 C 0.90320 0.74760 0.38148
 C546 C 0.89036 0.75975 0.39978
 C547 C 0.86676 0.75208 0.40515
 C548 C 0.85612 0.73300 0.39274
 C549 C 0.86867 0.72114 0.37483
 C550 C 0.89197 0.72826 0.36921
 C551 C 0.96072 0.78302 0.38187
 C552 C 0.97101 0.80271 0.39363
 C553 C 0.95850 0.81453 0.41159
 C554 C 0.93555 0.80681 0.41785
 C555 C 0.94141 0.73997 0.36018
 C556 C 0.95415 0.72738 0.34807
 C557 C 0.88985 0.78863 0.43364
 C558 C 0.88064 0.79550 0.45183
 H559 H 0.85627 0.76081 0.41887
 H560 H 0.83803 0.72740 0.39703
 H561 H 0.86032 0.70634 0.36523
 H562 H 0.90101 0.71855 0.35509
 H563 H 0.97116 0.77439 0.36804
 H564 H 0.98883 0.80877 0.38885
 H565 H 0.96660 0.82977 0.42072
 H566 H 0.92646 0.81662 0.43186
 C567 C 0.89361 0.24172 0.57627
 C568 C 0.90468 0.22721 0.59385
 C569 C 0.91829 0.23833 0.61225
 C570 C 0.92073 0.26389 0.61296
 C571 C 0.90861 0.27844 0.59610
 C572 C 0.89499 0.26732 0.57771
 C573 C 0.88325 0.28222 0.56091
 C574 C 0.88487 0.30742 0.56227
 C575 C 0.89821 0.31830 0.58023
 C576 C 0.91000 0.30407 0.59699
 C577 C 0.92945 0.22344 0.62946
 C578 C 0.92717 0.19827 0.62855
 C579 C 0.91387 0.18740 0.61056
 C580 C 0.90274 0.20161 0.59334
 C581 C 0.93688 0.27511 0.63000
 C582 C 0.95092 0.28453 0.64345
 C583 C 0.88234 0.23031 0.55584
 C584 C 0.87402 0.22067 0.53843
 H585 H 0.87261 0.27458 0.54667
 H586 H 0.87572 0.31855 0.54931
 H587 H 0.89941 0.33787 0.58120
 H588 H 0.92009 0.31336 0.61068
 H589 H 0.93992 0.23108 0.64383
 H590 H 0.93577 0.18715 0.64188
 H591 H 0.91214 0.16785 0.60994
 H592 H 0.89251 0.19234 0.57974
 C593 C 0.42142 0.11053 0.24621
 C594 C 0.40338 0.09824 0.23324
 C595 C 0.38623 0.08379 0.24544
 C596 C 0.38727 0.08179 0.27049
 C597 C 0.40427 0.09544 0.28356
 C598 C 0.42144 0.10986 0.27136
 C599 C 0.43859 0.12299 0.28473
 C600 C 0.43870 0.12198 0.30949
 C601 C 0.42187 0.10790 0.32143
 C602 C 0.40483 0.09472 0.30870
 C603 C 0.36860 0.07129 0.23212
 C604 C 0.36787 0.07311 0.20742
 C605 C 0.38465 0.08726 0.19547
 C606 C 0.40227 0.09969 0.20815
 C607 C 0.37223 0.06430 0.28268
 C608 C 0.36069 0.04920 0.29309
 C609 C 0.44122 0.12182 0.23372
 C610 C 0.45833 0.12995 0.22336
 H611 H 0.45196 0.13427 0.27621
 H612 H 0.45191 0.13217 0.31946
 H613 H 0.42201 0.10719 0.34067
 H614 H 0.39204 0.08410 0.31878
 H615 H 0.35514 0.06013 0.24066
 H616 H 0.35421 0.06350 0.19750
 H617 H 0.38400 0.08862 0.17629
 H618 H 0.41488 0.11056 0.19811
 C619 C 0.58574 0.09475 0.77959
 C620 C 0.60659 0.10775 0.77295
 C621 C 0.62588 0.09546 0.76164
 C622 C 0.62416 0.07027 0.75705
 C623 C 0.60379 0.05706 0.76478
 C624 C 0.58454 0.06933 0.77609
 C625 C 0.56420 0.05581 0.78330
 C626 C 0.56290 0.03087 0.77942
 C627 C 0.58168 0.01887 0.76829
 C628 C 0.60196 0.03169 0.76109
 C629 C 0.64642 0.10886 0.75489
 C630 C 0.64790 0.13372 0.75922
 C631 C 0.62903 0.14574 0.77024
 C632 C 0.60855 0.13300 0.77703
 C633 C 0.64245 0.05802 0.74315
 C634 C 0.65638 0.04665 0.73116
 C635 C 0.56473 0.10760 0.78812
 C636 C 0.54648 0.11764 0.79398
 H637 H 0.54914 0.06432 0.79206
 H638 H 0.54721 0.02082 0.78504
 H639 H 0.58054 -0.00048 0.76523
 H640 H 0.61615 0.02148 0.75265
 H641 H 0.66153 0.10025 0.74630
 H642 H 0.66376 0.14371 0.75400
 H643 H 0.63027 0.16505 0.77356
 H644 H 0.59435 0.14309 0.78560
 C645 C 0.42727 0.90212 0.76250
 C646 C 0.40424 0.89149 0.76072
 C647 C 0.38549 0.90414 0.74899
 C648 C 0.38989 0.92738 0.73919
 C649 C 0.41293 0.93804 0.74103
 C650 C 0.43168 0.92536 0.75267
 C651 C 0.45457 0.93640 0.75424
 C652 C 0.45879 0.95931 0.74466
 C653 C 0.44044 0.97173 0.73334
 C654 C 0.41776 0.96132 0.73147
 C655 C 0.36263 0.89315 0.74739
 C656 C 0.35839 0.87031 0.75715
 C657 C 0.37671 0.85796 0.76866
 C658 C 0.39942 0.86835 0.77047
 C659 C 0.37092 0.94052 0.72717
 C660 C 0.35618 0.95254 0.71692
 C661 C 0.44651 0.88949 0.77463
 C662 C 0.46321 0.88015 0.78459
 H663 H 0.46945 0.92749 0.76288
 H664 H 0.47639 0.96747 0.74605
 H665 H 0.44379 0.98953 0.72595
 H666 H 0.40411 0.97175 0.72249
 H667 H 0.34783 0.90209 0.73863
 H668 H 0.34078 0.86215 0.75579
 H669 H 0.37331 0.84024 0.77624
 H670 H 0.41312 0.85807 0.77959
 C671 C 0.58704 0.90001 0.22256
 C672 C 0.59384 0.92333 0.21446
 C673 C 0.61224 0.93636 0.22644
 C674 C 0.62360 0.92602 0.24650
 C675 C 0.61799 0.90203 0.25352
 C676 C 0.59967 0.88896 0.24149
 C677 C 0.59410 0.86513 0.24905
 C678 C 0.60636 0.85448 0.26792
 C679 C 0.62426 0.86729 0.27970
 C680 C 0.63005 0.89083 0.27269
 C681 C 0.61855 0.95978 0.21821
 C682 C 0.60711 0.96997 0.19862
 C683 C 0.58902 0.95728 0.18699
 C684 C 0.58235 0.93423 0.19478
 C685 C 0.63925 0.94085 0.26114
 C686 C 0.65105 0.95397 0.27370
 C687 C 0.56576 0.88836 0.21303
 C688 C 0.54741 0.87901 0.20637
 H689 H 0.58037 0.85444 0.24037
 H690 H 0.60194 0.83620 0.27341
 H691 H 0.63373 0.85894 0.29434
 H692 H 0.64416 0.90006 0.28232
 H693 H 0.63249 0.97035 0.22670
 H694 H 0.61222 0.98786 0.19250
 H695 H 0.58013 0.96532 0.17184
 H696 H 0.56826 0.92499 0.18513
 C697 C 0.40930 0.22155 0.89873
 C698 C 0.40243 0.21322 0.92154
 C699 C 0.38393 0.22531 0.93422
 C700 C 0.37244 0.24567 0.92400
 C701 C 0.37813 0.25287 0.90052
 C702 C 0.39660 0.24076 0.88783
 C703 C 0.40229 0.24857 0.86454
 C704 C 0.39003 0.26778 0.85406
 C705 C 0.37198 0.27964 0.86649
 C706 C 0.36604 0.27237 0.88948
 C707 C 0.37766 0.21695 0.95719
 C708 C 0.38925 0.19710 0.96727
 C709 C 0.40739 0.18533 0.95490
 C710 C 0.41401 0.19325 0.93230
 C711 C 0.35665 0.26051 0.93845
 C712 C 0.34477 0.27327 0.95126
 C713 C 0.43085 0.21216 0.88758
 C714 C 0.44948 0.20569 0.87877
 H715 H 0.41615 0.23985 0.85416
 H716 H 0.39456 0.27349 0.83620
 H717 H 0.36251 0.29455 0.85827
 H718 H 0.35183 0.28209 0.89844
 H719 H 0.36369 0.22555 0.96751
 H720 H 0.38419 0.19090 0.98484
 H721 H 0.41638 0.16997 0.96285
 H722 H 0.42816 0.18347 0.92329
 C723 C 0.57615 0.75678 0.89622
 C724 C 0.57238 0.73330 0.90571
 C725 C 0.59090 0.72173 0.91876
 C726 C 0.61309 0.73372 0.92227
 C727 C 0.61722 0.75674 0.91188
 C728 C 0.59869 0.76830 0.89881
 C729 C 0.60311 0.79145 0.88886
 C730 C 0.62525 0.80282 0.89168
 C731 C 0.64338 0.79151 0.90445
 C732 C 0.63950 0.76873 0.91449
 C733 C 0.58658 0.69838 0.92834
 C734 C 0.56460 0.68681 0.92512
 C735 C 0.54649 0.69813 0.91237
 C736 C 0.55023 0.72111 0.90274
 C737 C 0.63096 0.72294 0.93774
 C738 C 0.64492 0.71376 0.95136
 C739 C 0.55632 0.76964 0.88533
 C740 C 0.53930 0.78030 0.87734
 H741 H 0.58957 0.80092 0.87873
 H742 H 0.62836 0.82052 0.88392
 H743 H 0.66054 0.80043 0.90658
 H744 H 0.65413 0.76061 0.92423
 H745 H 0.60012 0.68880 0.93834
 H746 H 0.56161 0.66895 0.93256
 H747 H 0.52944 0.68907 0.90992
 H748 H 0.53561 0.72915 0.89291
 C749 C 0.41506 0.77694 0.09392
 C750 C 0.41657 0.77330 0.06904
 C751 C 0.39734 0.76197 0.05673
 C752 C 0.37667 0.75442 0.06938
 C753 C 0.37471 0.75906 0.09405
 C754 C 0.39399 0.77032 0.10638
 C755 C 0.39180 0.77443 0.13112
 C756 C 0.37109 0.76770 0.14332
 C757 C 0.35221 0.75674 0.13125
 C758 C 0.35392 0.75239 0.10689
 C759 C 0.39949 0.75811 0.03191
 C760 C 0.42004 0.76518 0.01965
 C761 C 0.43877 0.77639 0.03166
 C762 C 0.43717 0.78044 0.05607
 C763 C 0.35815 0.74085 0.05700
 C764 C 0.34400 0.72924 0.04546
 C765 C 0.43592 0.78567 0.10678
 C766 C 0.45399 0.79177 0.11689
 H767 H 0.40601 0.78295 0.14123
 H768 H 0.36968 0.77102 0.16224
 H769 H 0.33616 0.75156 0.14081
 H770 H 0.33879 0.74384 0.09823
 H771 H 0.38536 0.74960 0.02170
 H772 H 0.42142 0.76196 0.00070
 H773 H 0.45466 0.78194 0.02204
 H774 H 0.45222 0.78924 0.06462
 C775 C 0.57113 0.25099 0.10953
 C776 C 0.56607 0.27343 0.09844
 C777 C 0.58388 0.28504 0.08444
 C778 C 0.60665 0.27414 0.08167
 C779 C 0.61215 0.25242 0.09386
 C780 C 0.59430 0.24079 0.10785
 C781 C 0.60003 0.21888 0.11961
 C782 C 0.62283 0.20881 0.11768
 C783 C 0.64031 0.22021 0.10402
 C784 C 0.63511 0.24175 0.09216
 C785 C 0.57829 0.30728 0.07318
 C786 C 0.55573 0.31774 0.07571
 C787 C 0.53830 0.30638 0.08942
 C788 C 0.54329 0.28447 0.10068
 C789 C 0.62370 0.28458 0.06512
 C790 C 0.63687 0.29360 0.05062
 C791 C 0.55189 0.23753 0.12076
 C792 C 0.53517 0.22635 0.12873
 H793 H 0.58703 0.20943 0.13049
 H794 H 0.62695 0.19208 0.12685
 H795 H 0.65799 0.21232 0.10260
 H796 H 0.64927 0.25001 0.08178
 H797 H 0.59127 0.31686 0.06238
 H798 H 0.55177 0.33476 0.06699
 H799 H 0.52080 0.31458 0.09134
 H800 H 0.52917 0.27637 0.11122
 C801 C 0.22051 0.09219 0.58378
 C802 C 0.22924 0.10488 0.60390
 C803 C 0.24159 0.09214 0.62210
 C804 C 0.24513 0.06682 0.62004
 C805 C 0.23520 0.05393 0.60059
 C806 C 0.22282 0.06665 0.58243
 C807 C 0.21337 0.05345 0.56296
 C808 C 0.21617 0.02838 0.56142
 C809 C 0.22838 0.01594 0.57911
 C810 C 0.23775 0.02845 0.59855
 C811 C 0.25048 0.10524 0.64187
 C812 C 0.24722 0.13023 0.64363
 C813 C 0.23515 0.14270 0.62582
 C814 C 0.22625 0.13025 0.60611
 C815 C 0.26032 0.05414 0.63685
 C816 C 0.27340 0.04261 0.64955
 C817 C 0.21129 0.10544 0.56349
 C818 C 0.20490 0.11596 0.54583
 H819 H 0.20368 0.06232 0.54877
 H820 H 0.20884 0.01857 0.54640
 H821 H 0.23064 -0.00350 0.57776
 H822 H 0.24697 0.01791 0.61193
 H823 H 0.25993 0.09628 0.65617
 H824 H 0.25409 0.13998 0.65890
 H825 H 0.23266 0.16211 0.62728
 H826 H 0.21691 0.14068 0.59274
 C827 C 0.75968 0.09980 0.42363
 C828 C 0.75324 0.11209 0.40250
 C829 C 0.74163 0.09926 0.38379
 C830 C 0.73664 0.07420 0.38630
 C831 C 0.74330 0.06186 0.40736
 C832 C 0.75478 0.07470 0.42609
 C833 C 0.76111 0.06196 0.44703
 C834 C 0.75631 0.03727 0.44936
 C835 C 0.74518 0.02469 0.43100
 C836 C 0.73869 0.03673 0.41024
 C837 C 0.73525 0.11194 0.36290
 C838 C 0.74022 0.13661 0.36052
 C839 C 0.75162 0.14913 0.37878
 C840 C 0.75810 0.13710 0.39958
 C841 C 0.72439 0.06092 0.36756
 C842 C 0.71416 0.04854 0.35306
 C843 C 0.77123 0.11273 0.44302
 C844 C 0.78079 0.12219 0.45987
 H845 H 0.76984 0.07090 0.46182
 H846 H 0.76127 0.02784 0.46548
 H847 H 0.74158 0.00549 0.43286
 H848 H 0.73008 0.02609 0.39650
 H849 H 0.72639 0.10293 0.34822
 H850 H 0.73521 0.14605 0.34442
 H851 H 0.75546 0.16828 0.37683
 H852 H 0.76695 0.14758 0.41330
 C853 C 0.77883 0.90916 0.58361
 C854 C 0.77458 0.89652 0.60511
 C855 C 0.76308 0.90845 0.62442
 C856 C 0.75582 0.93291 0.62205
 C857 C 0.76095 0.94584 0.60087
 C858 C 0.77255 0.93395 0.58164
 C859 C 0.77733 0.94720 0.56059
 C860 C 0.77074 0.97147 0.55857
 C861 C 0.75925 0.98306 0.57730
 C862 C 0.75444 0.97052 0.59827
 C863 C 0.75888 0.89543 0.64567
 C864 C 0.76586 0.87127 0.64782
 C865 C 0.77704 0.85958 0.62892
 C866 C 0.78137 0.87197 0.60775
 C867 C 0.74223 0.94472 0.64079
 C868 C 0.73050 0.95582 0.65513
 C869 C 0.78798 0.89641 0.56290
 C870 C 0.79438 0.88639 0.54493
 H871 H 0.78626 0.93900 0.54553
 H872 H 0.77457 0.98133 0.54236
 H873 H 0.75412 1.00191 0.57563
 H874 H 0.74562 0.98043 0.61238
 H875 H 0.75026 0.90380 0.66084
 H876 H 0.76256 0.86157 0.66423
 H877 H 0.78242 0.84081 0.63069
 H878 H 0.79018 0.86216 0.59356
 C879 C 0.24918 0.88761 0.42647
 C880 C 0.23596 0.89751 0.40734
 C881 C 0.24779 0.91177 0.38986
 C882 C 0.27274 0.91596 0.39163
 C883 C 0.28619 0.90474 0.40988
 C884 C 0.27435 0.89053 0.42738
 C885 C 0.28807 0.87982 0.44572
 C886 C 0.31283 0.88300 0.44667
 C887 C 0.32442 0.89688 0.42953
 C888 C 0.31134 0.90770 0.41132
 C889 C 0.23418 0.92184 0.37112
 C890 C 0.20956 0.91785 0.36964
 C891 C 0.19799 0.90387 0.38673
 C892 C 0.21095 0.89380 0.40543
 C893 C 0.28431 0.93319 0.37588
 C894 C 0.29418 0.94814 0.36369
 C895 C 0.23672 0.87633 0.44620
 C896 C 0.22633 0.86809 0.46314
 H897 H 0.27985 0.86879 0.45939
 H898 H 0.32306 0.87463 0.46078
 H899 H 0.34365 0.89928 0.43034
 H900 H 0.32116 0.91826 0.39835
 H901 H 0.24243 0.93276 0.35737
 H902 H 0.19941 0.92563 0.35515
 H903 H 0.17887 0.90081 0.38550
 H904 H 0.20120 0.88297 0.41826
 C905 C 0.09724 0.41152 0.77780
 C906 C 0.07384 0.40470 0.78488
 C907 C 0.06145 0.38620 0.77225
 C908 C 0.07253 0.37470 0.75260
 C909 C 0.09653 0.38032 0.74661
 C910 C 0.10894 0.39879 0.75927
 C911 C 0.13278 0.40442 0.75270
 C912 C 0.14406 0.39211 0.73417
 C913 C 0.13191 0.37405 0.72178
 C914 C 0.10839 0.36817 0.72783
 C915 C 0.03791 0.37994 0.77938
 C916 C 0.02699 0.39156 0.79853
 C917 C 0.03907 0.40973 0.81082
 C918 C 0.06224 0.41632 0.80413
 C919 C 0.05851 0.35893 0.73729
 C920 C 0.04600 0.34705 0.72425
 C921 C 0.10830 0.43307 0.78784
 C922 C 0.11715 0.45171 0.79489
 H923 H 0.14298 0.41827 0.76189
 H924 H 0.16233 0.39660 0.72941
 H925 H 0.14074 0.36454 0.70740
 H926 H 0.09966 0.35394 0.71776
 H927 H 0.02779 0.36594 0.77035
 H928 H 0.00899 0.38652 0.80378
 H929 H 0.03047 0.41876 0.82562
 H930 H 0.07099 0.43048 0.81427
 C931 C 0.10541 0.58087 0.23803
 C932 C 0.10651 0.58341 0.26305
 C933 C 0.09319 0.60200 0.27453
 C934 C 0.07883 0.61792 0.26091
 C935 C 0.07874 0.61618 0.23580
 C936 C 0.09208 0.59760 0.22432
 C937 C 0.09145 0.59601 0.19921
 C938 C 0.07805 0.61234 0.18581
 C939 C 0.06501 0.63050 0.19704
 C940 C 0.06526 0.63247 0.22174
 C941 C 0.09432 0.60398 0.29960
 C942 C 0.10825 0.58808 0.31294
 C943 C 0.12127 0.56990 0.30172
 C944 C 0.12046 0.56749 0.27706
 C945 C 0.06292 0.63489 0.27278
 C946 C 0.04904 0.64823 0.28271
 C947 C 0.11641 0.56004 0.22660
 C948 C 0.12449 0.54218 0.21716
 H949 H 0.10137 0.58224 0.18968
 H950 H 0.07780 0.61090 0.16662
 H951 H 0.05464 0.64314 0.18655
 H952 H 0.05489 0.64693 0.22967
 H953 H 0.08456 0.61787 0.30911
 H954 H 0.10896 0.58988 0.33210
 H955 H 0.13207 0.55760 0.31216
 H956 H 0.13095 0.55313 0.26912
 C957 C 0.90872 0.41679 0.22182
 C958 C 0.89569 0.39585 0.22866
 C959 C 0.90753 0.37660 0.24064
 C960 C 0.93230 0.37840 0.24566
 C961 C 0.94555 0.39885 0.23783
 C962 C 0.93372 0.41808 0.22585
 C963 C 0.94728 0.43847 0.21846
 C964 C 0.97180 0.43987 0.22287
 C965 C 0.98335 0.42114 0.23469
 C966 C 0.97050 0.40078 0.24204
 C967 C 0.89410 0.35601 0.24761
 C968 C 0.86965 0.35443 0.24280
 C969 C 0.85808 0.37324 0.23106
 C970 C 0.87086 0.39378 0.22405
 C971 C 0.94414 0.36001 0.25986
 C972 C 0.95520 0.34594 0.27199
 C973 C 0.89626 0.43777 0.21238
 C974 C 0.88629 0.45588 0.20563
 H975 H 0.93911 0.45350 0.20917
 H976 H 0.98189 0.45560 0.21710
 H977 H 1.00238 0.42238 0.23818
 H978 H 0.98037 0.38663 0.25102
 H979 H 0.90236 0.34093 0.25676
 H980 H 0.85964 0.33853 0.24822
 H981 H 0.83910 0.37191 0.22736
 H982 H 0.86113 0.40792 0.21491
 C983 C 0.88505 0.58096 0.75359
 C984 C 0.89833 0.59817 0.76686
 C985 C 0.91234 0.61589 0.75488
 C986 C 0.91294 0.61624 0.72974
 C987 C 0.89818 0.60026 0.71652
 C988 C 0.88419 0.58253 0.72850
 C989 C 0.86999 0.56634 0.71495
 C990 C 0.86955 0.56772 0.69021
 C991 C 0.88323 0.58509 0.67847
 C992 C 0.89745 0.60120 0.69139
 C993 C 0.92590 0.63260 0.76847
 C994 C 0.92556 0.63186 0.79324
 C995 C 0.91185 0.61451 0.80498
 C996 C 0.89838 0.59778 0.79202
 C997 C 0.93044 0.63117 0.71751
 C998 C 0.94571 0.64241 0.70713
 C999 C 0.87459 0.56020 0.76553
 C1000 C 0.86741 0.54232 0.77555
 H1001 H 0.85901 0.55259 0.72333
 H1002 H 0.85854 0.55525 0.68010
 H1003 H 0.88282 0.58610 0.65926
 H1004 H 0.90773 0.61446 0.68150
 H1005 H 0.93676 0.64647 0.76010
 H1006 H 0.93598 0.64482 0.80338
 H1007 H 0.91164 0.61400 0.82422
 H1008 H 0.88792 0.58467 0.80191
 C1009 C 0.78011 0.58560 0.90617
 C1010 C 0.77757 0.58417 0.93117
 C1011 C 0.76500 0.60261 0.94361
 C1012 C 0.75511 0.62240 0.93094
 C1013 C 0.75895 0.62459 0.90617
 C1014 C 0.77152 0.60612 0.89373
 C1015 C 0.77484 0.60846 0.86890
 C1016 C 0.76603 0.62854 0.85671
 C1017 C 0.75370 0.64660 0.86888
 C1018 C 0.75011 0.64472 0.89334
 C1019 C 0.76217 0.60048 0.96856
 C1020 C 0.77143 0.58065 0.98081
 C1021 C 0.78383 0.56268 0.96865
 C1022 C 0.78692 0.56432 0.94412
 C1023 C 0.73954 0.63926 0.94330
 C1024 C 0.72615 0.65174 0.95478
 C1025 C 0.78930 0.56485 0.89321
 C1026 C 0.79564 0.54671 0.88307
 H1027 H 0.78439 0.59489 0.85873
 H1028 H 0.76878 0.63010 0.83771
 H1029 H 0.74688 0.66215 0.85932
 H1030 H 0.74046 0.65921 0.90209
 H1031 H 0.75282 0.61407 0.97887
 H1032 H 0.76896 0.57922 0.99984
 H1033 H 0.79108 0.54736 0.97827
 H1034 H 0.79674 0.54990 0.93545
 C1035 C 0.23998 0.42179 0.89528
 C1036 C 0.26462 0.42357 0.90095
 C1037 C 0.27583 0.40488 0.91427
 C1038 C 0.26231 0.38455 0.92189
 C1039 C 0.23798 0.38220 0.91520
 C1040 C 0.22678 0.40087 0.90181
 C1041 C 0.20237 0.39826 0.89554
 C1042 C 0.18939 0.37775 0.90226
 C1043 C 0.20033 0.35951 0.91537
 C1044 C 0.22434 0.36163 0.92184
 C1045 C 0.30043 0.40721 0.91997
 C1046 C 0.31357 0.42741 0.91269
 C1047 C 0.30259 0.44569 0.89969
 C1048 C 0.27840 0.44390 0.89385
 C1049 C 0.27308 0.36696 0.93782
 C1050 C 0.28236 0.35322 0.95169
 C1051 C 0.22789 0.44224 0.88438
 C1052 C 0.21783 0.45975 0.87637
 H1053 H 0.19312 0.41194 0.88529
 H1054 H 0.17074 0.37601 0.89727
 H1055 H 0.19017 0.34362 0.92055
 H1056 H 0.23211 0.34696 0.93199
 H1057 H 0.30978 0.39343 0.93000
 H1058 H 0.33237 0.42887 0.91718
 H1059 H 0.31288 0.46135 0.89409
 H1060 H 0.27068 0.45855 0.88363
 C1061 C 0.22114 0.58450 0.09176
 C1062 C 0.22717 0.60619 0.10389
 C1063 C 0.23882 0.62539 0.09151
 C1064 C 0.24437 0.62279 0.06708
 C1065 C 0.23744 0.60148 0.05472
 C1066 C 0.22582 0.58229 0.06710
 C1067 C 0.21943 0.56103 0.05442
 C1068 C 0.22438 0.55877 0.03024
 C1069 C 0.23575 0.57750 0.01815
 C1070 C 0.24218 0.59867 0.03013
 C1071 C 0.24490 0.64678 0.10406
 C1072 C 0.23960 0.64917 0.12817
 C1073 C 0.22823 0.63041 0.14027
 C1074 C 0.22207 0.60910 0.12836
 C1075 C 0.25815 0.64131 0.05471
 C1076 C 0.26996 0.65549 0.04327
 C1077 C 0.21179 0.56377 0.10481
 C1078 C 0.20516 0.54577 0.11513
 H1079 H 0.21052 0.54596 0.06303
 H1080 H 0.21938 0.54238 0.02083
 H1081 H 0.23959 0.57565 -0.00064
 H1082 H 0.25087 0.61276 0.01987
 H1083 H 0.25373 0.66185 0.09536
 H1084 H 0.24433 0.66568 0.13750
 H1085 H 0.22417 0.63236 0.15900
 H1086 H 0.21321 0.59502 0.13850
 C1087 C 0.76660 0.42082 0.10049
 C1088 C 0.77562 0.41226 0.07849
 C1089 C 0.76265 0.39446 0.06547
 C1090 C 0.74072 0.38538 0.07450
 C1091 C 0.73239 0.39295 0.09709
 C1092 C 0.74538 0.41073 0.11014
 C1093 C 0.73654 0.41828 0.13253
 C1094 C 0.71548 0.40848 0.14181
 C1095 C 0.70278 0.39109 0.12904
 C1096 C 0.71103 0.38337 0.10691
 C1097 C 0.77185 0.38641 0.04337
 C1098 C 0.79330 0.39563 0.03443
 C1099 C 0.80595 0.41310 0.04712
 C1100 C 0.79729 0.42139 0.06890
 C1101 C 0.72593 0.36980 0.05972
 C1102 C 0.71351 0.35784 0.04666
 C1103 C 0.77817 0.44122 0.11215
 C1104 C 0.78758 0.45888 0.12072
 H1105 H 0.74586 0.43170 0.14312
 H1106 H 0.70899 0.41440 0.15899
 H1107 H 0.68643 0.38353 0.13633
 H1108 H 0.70060 0.36975 0.09766
 H1109 H 0.76267 0.37284 0.03284
 H1110 H 0.80010 0.38923 0.01752
 H1111 H 0.82257 0.42025 0.04007
 H1112 H 0.80782 0.43492 0.07816
 C1113 C 0.89474 0.75975 0.57390
 C1114 C 0.91055 0.77268 0.58899
 C1115 C 0.92445 0.76000 0.60609
 C1116 C 0.92242 0.73447 0.60800
 C1117 C 0.90565 0.72172 0.59380
 C1118 C 0.89178 0.73440 0.57667
 C1119 C 0.87541 0.72123 0.56242
 C1120 C 0.87274 0.69624 0.56507
 C1121 C 0.88628 0.68383 0.58183
 C1122 C 0.90260 0.69633 0.59606
 C1123 C 0.94039 0.77327 0.62074
 C1124 C 0.94251 0.79837 0.61860
 C1125 C 0.92891 0.81076 0.60188
 C1126 C 0.91311 0.79816 0.58718
 C1127 C 0.93850 0.72120 0.62352
 C1128 C 0.95230 0.71004 0.63581
 C1129 C 0.88312 0.77218 0.55432
 C1130 C 0.87466 0.78246 0.53740
 H1131 H 0.86443 0.73011 0.54920
 H1132 H 0.86008 0.68644 0.55406
 H1133 H 0.88413 0.66442 0.58382
 H1134 H 0.91269 0.68591 0.60889
 H1135 H 0.95129 0.76442 0.63405
 H1136 H 0.95475 0.80824 0.62998
 H1137 H 0.93061 0.83026 0.60029
 H1138 H 0.90286 0.80860 0.57449
 C1139 C 0.90128 0.22449 0.41319
 C1140 C 0.89004 0.24283 0.39959
 C1141 C 0.90269 0.25426 0.38069
 C1142 C 0.92650 0.24725 0.37547
 C1143 C 0.93725 0.22797 0.38819
 C1144 C 0.92464 0.21661 0.40715
 C1145 C 0.93596 0.19774 0.41992
 C1146 C 0.95900 0.19014 0.41400
 C1147 C 0.97126 0.20112 0.39536
 C1148 C 0.96064 0.21990 0.38261
 C1149 C 0.89123 0.27280 0.36761
 C1150 C 0.86788 0.27982 0.37298
 C1151 C 0.85549 0.26865 0.39143
 C1152 C 0.86637 0.25037 0.40466
 C1153 C 0.94061 0.26102 0.35841
 C1154 C 0.95326 0.27270 0.34529
 C1155 C 0.88957 0.21509 0.43440
 C1156 C 0.88018 0.20834 0.45258
 H1157 H 0.92709 0.18859 0.43450
 H1158 H 0.96738 0.17564 0.42391
 H1159 H 0.98915 0.19515 0.39082
 H1160 H 0.97092 0.22790 0.36829
 H1161 H 0.90013 0.28195 0.35305
 H1162 H 0.85935 0.29400 0.36275
 H1163 H 0.83735 0.27416 0.39552
 H1164 H 0.85600 0.24218 0.41881
 C1165 C 0.10559 0.24110 0.57980
 C1166 C 0.10192 0.26649 0.57950
 C1167 C 0.08827 0.27765 0.59782
 C1168 C 0.07830 0.26333 0.61623
 C1169 C 0.08312 0.23816 0.61725
 C1170 C 0.09687 0.22701 0.59899
 C1171 C 0.10127 0.20178 0.60023
 C1172 C 0.09234 0.18794 0.61899
 C1173 C 0.07883 0.19884 0.63681
 C1174 C 0.07419 0.22365 0.63602
 C1175 C 0.08460 0.30304 0.59700
 C1176 C 0.09413 0.31698 0.57862
 C1177 C 0.10743 0.30605 0.56068
 C1178 C 0.11131 0.28109 0.56102
 C1179 C 0.06175 0.27425 0.63303
 C1180 C 0.04738 0.28371 0.64604
 C1181 C 0.11649 0.22927 0.55944
 C1182 C 0.12440 0.21945 0.54198
 H1183 H 0.11175 0.19253 0.58681
 H1184 H 0.09593 0.16867 0.61970
 H1185 H 0.07192 0.18800 0.65132
 H1186 H 0.06366 0.23135 0.65031
 H1187 H 0.07443 0.31238 0.61058
 H1188 H 0.09119 0.33638 0.57830
 H1189 H 0.11479 0.31696 0.54644
 H1190 H 0.12184 0.27341 0.54672
 C1191 C 0.09808 0.77537 0.41541
 C1192 C 0.11024 0.76625 0.39521
 C1193 C 0.09709 0.75489 0.37662
 C1194 C 0.07188 0.75283 0.37836
 C1195 C 0.05960 0.76332 0.39786
 C1196 C 0.07275 0.77461 0.41645
 C1197 C 0.06013 0.78451 0.43602
 C1198 C 0.03523 0.78325 0.43721
 C1199 C 0.02236 0.77215 0.41906
 C1200 C 0.03429 0.76235 0.39953
 C1201 C 0.10963 0.74547 0.35682
 C1202 C 0.13449 0.74731 0.35536
 C1203 C 0.14736 0.75846 0.37351
 C1204 C 0.13546 0.76782 0.39329
 C1205 C 0.05858 0.73840 0.36126
 C1206 C 0.04642 0.72592 0.34843
 C1207 C 0.11151 0.78333 0.43609
 C1208 C 0.12205 0.78868 0.45405
 H1209 H 0.06936 0.79338 0.45056
 H1210 H 0.02587 0.79089 0.45231
 H1211 H 0.00303 0.77109 0.42013
 H1212 H 0.02345 0.75405 0.38579
 H1213 H 0.10034 0.73671 0.34225
 H1214 H 0.14382 0.74006 0.34005
 H1215 H 0.16666 0.75988 0.37228
 H1216 H 0.14618 0.77640 0.40695
 C1217 C 0.58985 0.90285 0.78009
 C1218 C 0.59660 0.92650 0.78732
 C1219 C 0.61572 0.93868 0.77557
 C1220 C 0.62790 0.92718 0.75656
 C1221 C 0.62203 0.90303 0.75022
 C1222 C 0.60298 0.89082 0.76204
 C1223 C 0.59724 0.86680 0.75517
 C1224 C 0.60998 0.85517 0.73716
 C1225 C 0.62857 0.86713 0.72558
 C1226 C 0.63459 0.89081 0.73195
 C1227 C 0.62197 0.96242 0.78297
 C1228 C 0.60973 0.97378 0.80147
 C1229 C 0.59094 0.96194 0.81285
 C1230 C 0.58436 0.93857 0.80591
 C1231 C 0.64497 0.94091 0.74238
 C1232 C 0.65806 0.95334 0.73038
 C1233 C 0.56828 0.89173 0.78972
 C1234 C 0.54970 0.88292 0.79659
 H1235 H 0.58296 0.85674 0.76369
 H1236 H 0.60539 0.83677 0.73216
 H1237 H 0.63840 0.85802 0.71160
 H1238 H 0.64923 0.89937 0.72249
 H1239 H 0.63642 0.97240 0.77463
 H1240 H 0.61476 0.99193 0.80692
 H1241 H 0.58142 0.97089 0.82713
 H1242 H 0.56969 0.93005 0.81535
 C1243 C 0.42485 0.89124 0.24366
 C1244 C 0.42507 0.89141 0.26883
 C1245 C 0.40795 0.90543 0.28150
 C1246 C 0.39074 0.91918 0.26891
 C1247 C 0.38967 0.91788 0.24379
 C1248 C 0.40678 0.90385 0.23112
 C1249 C 0.40561 0.90312 0.20600
 C1250 C 0.38797 0.91585 0.19374
 C1251 C 0.37123 0.92957 0.20613
 C1252 C 0.37199 0.93066 0.23088
 C1253 C 0.40873 0.90563 0.30665
 C1254 C 0.42594 0.89235 0.31894
 C1255 C 0.44270 0.87866 0.30655
 C1256 C 0.44236 0.87814 0.28177
 C1257 C 0.37528 0.93584 0.28169
 C1258 C 0.36320 0.95020 0.29250
 C1259 C 0.44441 0.87998 0.23074
 C1260 C 0.46137 0.87185 0.22015
 H1261 H 0.41819 0.89261 0.19561
 H1262 H 0.38730 0.91506 0.17452
 H1263 H 0.35756 0.93941 0.19653
 H1264 H 0.35855 0.94151 0.23976
 H1265 H 0.39603 0.91596 0.31707
 H1266 H 0.42626 0.89269 0.33818
 H1267 H 0.45602 0.86838 0.31617
 H1268 H 0.45570 0.86715 0.27291
 C1269 C 0.58289 0.09868 0.22259
 C1270 C 0.60287 0.11146 0.23177
 C1271 C 0.62151 0.09864 0.24348
 C1272 C 0.62002 0.07314 0.24590
 C1273 C 0.60072 0.06022 0.23548
 C1274 C 0.58212 0.07303 0.22377
 C1275 C 0.56278 0.05978 0.21388
 C1276 C 0.56182 0.03458 0.21558
 C1277 C 0.57996 0.02205 0.22712
 C1278 C 0.59927 0.03460 0.23692
 C1279 C 0.64110 0.11181 0.25290
 C1280 C 0.64229 0.13697 0.25074
 C1281 C 0.62407 0.14952 0.23929
 C1282 C 0.60451 0.13700 0.22991
 C1283 C 0.63708 0.06023 0.26062
 C1284 C 0.64984 0.04836 0.27335
 C1285 C 0.56210 0.11181 0.21407
 C1286 C 0.54402 0.12208 0.20818
 H1287 H 0.54825 0.06873 0.20469
 H1288 H 0.54688 0.02474 0.20794
 H1289 H 0.57904 0.00249 0.22853
 H1290 H 0.61299 0.02400 0.24560
 H1291 H 0.65570 0.10279 0.26190
 H1292 H 0.65744 0.14678 0.25800
 H1293 H 0.62508 0.16906 0.23767
 H1294 H 0.59078 0.14750 0.22110
 C1295 C 0.42513 0.10229 0.75496
 C1296 C 0.40097 0.10927 0.75827
 C1297 C 0.38230 0.09594 0.74700
 C1298 C 0.38794 0.07575 0.73250
 C1299 C 0.41216 0.06912 0.72874
 C1300 C 0.43079 0.08241 0.74001
 C1301 C 0.45485 0.07529 0.73615
 C1302 C 0.46033 0.05565 0.72154
 C1303 C 0.44211 0.04270 0.71046
 C1304 C 0.41828 0.04923 0.71399
 C1305 C 0.35829 0.10313 0.75070
 C1306 C 0.35285 0.12297 0.76510
 C1307 C 0.37110 0.13600 0.77611
 C1308 C 0.39493 0.12929 0.77281
 C1309 C 0.36905 0.06116 0.72192
 C1310 C 0.35453 0.04783 0.71288
 C1311 C 0.44423 0.11467 0.76763
 C1312 C 0.46086 0.12364 0.77812
 H1313 H 0.46969 0.08482 0.74430
 H1314 H 0.47882 0.05047 0.71878
 H1315 H 0.44646 0.02750 0.69906
 H1316 H 0.40479 0.03854 0.70496
 H1317 H 0.34351 0.09354 0.74248
 H1318 H 0.33437 0.12825 0.76773
 H1319 H 0.36677 0.15139 0.78727
 H1320 H 0.40853 0.13998 0.78170
 C1321 C 0.57667 0.75421 0.10478
 C1322 C 0.59945 0.76542 0.10324
 C1323 C 0.61792 0.75443 0.08958
 C1324 C 0.61346 0.73231 0.07757
 C1325 C 0.59105 0.72050 0.08008
 C1326 C 0.57259 0.73149 0.09372
 C1327 C 0.55021 0.71951 0.09571
 C1328 C 0.54621 0.69728 0.08458
 C1329 C 0.56426 0.68652 0.07125
 C1330 C 0.58645 0.69791 0.06895
 C1331 C 0.64047 0.76608 0.08807
 C1332 C 0.64468 0.78797 0.09979
 C1333 C 0.62662 0.79873 0.11313
 C1334 C 0.60420 0.78769 0.11487
 C1335 C 0.63130 0.72224 0.06158
 C1336 C 0.64517 0.71349 0.04759
 C1337 C 0.55688 0.76675 0.11613
 C1338 C 0.53980 0.77712 0.12436
 H1339 H 0.53562 0.72712 0.10595
 H1340 H 0.52900 0.68835 0.08631
 H1341 H 0.56108 0.66923 0.06265
 H1342 H 0.59993 0.68878 0.05843
 H1343 H 0.65507 0.75836 0.07793
 H1344 H 0.66207 0.79662 0.09851
 H1345 H 0.62999 0.81573 0.12219
 H1346 H 0.59071 0.79669 0.12550
 C1347 C 0.41163 0.22129 0.09522
 C1348 C 0.39136 0.23075 0.10715
 C1349 C 0.37297 0.24241 0.09398
 C1350 C 0.37504 0.24458 0.06900
 C1351 C 0.39456 0.23373 0.05693
 C1352 C 0.41286 0.22197 0.07009
 C1353 C 0.43238 0.21155 0.05769
 C1354 C 0.43385 0.21286 0.03299
 C1355 C 0.41606 0.22454 0.02013
 C1356 C 0.39656 0.23481 0.03185
 C1357 C 0.35306 0.25208 0.10629
 C1358 C 0.35133 0.25024 0.13095
 C1359 C 0.36934 0.23888 0.14384
 C1360 C 0.38920 0.22924 0.13217
 C1361 C 0.35835 0.25952 0.05578
 C1362 C 0.34586 0.27246 0.04382
 C1363 C 0.43228 0.21323 0.10869
 C1364 C 0.45027 0.20788 0.11928
 H1365 H 0.44665 0.20225 0.06693
 H1366 H 0.44890 0.20480 0.02379
 H1367 H 0.41738 0.22567 0.00096
 H1368 H 0.38311 0.24358 0.02102
 H1369 H 0.33861 0.26104 0.09698
 H1370 H 0.33594 0.25767 0.14010
 H1371 H 0.36791 0.23750 0.16299
 H1372 H 0.40274 0.22049 0.14290
 C1373 C 0.57013 0.24574 0.89648
 C1374 C 0.59436 0.23830 0.89549
 C1375 C 0.61188 0.25047 0.90950
 C1376 C 0.60502 0.26996 0.92441
 C1377 C 0.58093 0.27793 0.92475
 C1378 C 0.56344 0.26580 0.91074
 C1379 C 0.53941 0.27397 0.91157
 C1380 C 0.53286 0.29354 0.92583
 C1381 C 0.54996 0.30540 0.93954
 C1382 C 0.57373 0.29777 0.93908
 C1383 C 0.63595 0.24260 0.90837
 C1384 C 0.64255 0.22327 0.89380
 C1385 C 0.62542 0.21136 0.88013
 C1386 C 0.60156 0.21870 0.88091
 C1387 C 0.62237 0.28136 0.94011
 C1388 C 0.63583 0.29121 0.95384
 C1389 C 0.55172 0.23203 0.88410
 C1390 C 0.53546 0.22091 0.87510
 H1391 H 0.52545 0.26539 0.90119
 H1392 H 0.51442 0.29954 0.92624
 H1393 H 0.54480 0.32060 0.95059
 H1394 H 0.58636 0.30763 0.95004
 H1395 H 0.64989 0.25134 0.91867
 H1396 H 0.66106 0.21750 0.89311
 H1397 H 0.63064 0.19636 0.86884
 H1398 H 0.58886 0.20894 0.86993
 C1399 C 0.41297 0.77986 0.90403
 C1400 C 0.39853 0.76250 0.89215
 C1401 C 0.37917 0.75117 0.90432
 C1402 C 0.37429 0.75731 0.92828
 C1403 C 0.38782 0.77571 0.93970
 C1404 C 0.40725 0.78697 0.92756
 C1405 C 0.42081 0.80494 0.93951
 C1406 C 0.41522 0.81176 0.96273
 C1407 C 0.39616 0.80087 0.97454
 C1408 C 0.38263 0.78295 0.96330
 C1409 C 0.36529 0.73356 0.89223
 C1410 C 0.37032 0.72738 0.86871
 C1411 C 0.38920 0.73848 0.85679
 C1412 C 0.40324 0.75582 0.86830
 C1413 C 0.35675 0.74344 0.94179
 C1414 C 0.34325 0.73150 0.95382
 C1415 C 0.43469 0.78890 0.89275
 C1416 C 0.45328 0.79529 0.88368
 H1417 H 0.43575 0.81398 0.93101
 H1418 H 0.42575 0.82558 0.97160
 H1419 H 0.39190 0.80622 0.99258
 H1420 H 0.36802 0.77495 0.97325
 H1421 H 0.35038 0.72448 0.90076
 H1422 H 0.35949 0.71390 0.85970
 H1423 H 0.39302 0.73362 0.83853
 H1424 H 0.41771 0.76399 0.85829
 C1425 C 0.75792 0.90125 0.42384
 C1426 C 0.74293 0.92118 0.42935
 C1427 C 0.73158 0.93427 0.41078
 C1428 C 0.73522 0.92733 0.38679
 C1429 C 0.74986 0.90715 0.38130
 C1430 C 0.76126 0.89407 0.39989
 C1431 C 0.77593 0.87406 0.39399
 C1432 C 0.77924 0.86715 0.37037
 C1433 C 0.76811 0.87995 0.35220
 C1434 C 0.75356 0.89975 0.35750
 C1435 C 0.71685 0.95427 0.41676
 C1436 C 0.71338 0.96107 0.44037
 C1437 C 0.72446 0.94826 0.45852
 C1438 C 0.73908 0.92854 0.45319
 C1439 C 0.72419 0.94143 0.36798
 C1440 C 0.71462 0.95425 0.35350
 C1441 C 0.77048 0.88892 0.44289
 C1442 C 0.78076 0.88000 0.45956
 H1443 H 0.78493 0.86356 0.40755
 H1444 H 0.79052 0.85179 0.36616
 H1445 H 0.77076 0.87451 0.33388
 H1446 H 0.74526 0.90915 0.34278
 H1447 H 0.70784 0.96487 0.40330
 H1448 H 0.70207 0.97642 0.44458
 H1449 H 0.72174 0.95362 0.47684
 H1450 H 0.74725 0.91915 0.46797
 C1451 C 0.22606 0.89452 0.58873
 C1452 C 0.21769 0.91783 0.59518
 C1453 C 0.22897 0.93073 0.61399
 C1454 C 0.24855 0.92022 0.62618
 C1455 C 0.25568 0.89620 0.62094
 C1456 C 0.24441 0.88330 0.60212
 C1457 C 0.25220 0.85949 0.59683
 C1458 C 0.27051 0.84868 0.60986
 C1459 C 0.28149 0.86129 0.62831
 C1460 C 0.27427 0.88482 0.63383
 C1461 C 0.22062 0.95421 0.61986
 C1462 C 0.20155 0.96457 0.60758
 C1463 C 0.19056 0.95198 0.58913
 C1464 C 0.19850 0.92888 0.58289
 C1465 C 0.26294 0.93508 0.64200
 C1466 C 0.27537 0.94842 0.65368
 C1467 C 0.21743 0.88306 0.56711
 C1468 C 0.21141 0.87391 0.54858
 H1469 H 0.24414 0.84895 0.58268
 H1470 H 0.27621 0.83043 0.60563
 H1471 H 0.29569 0.85281 0.63841
 H1472 H 0.28325 0.89392 0.64838
 H1473 H 0.22861 0.96470 0.63407
 H1474 H 0.19534 0.98252 0.61234
 H1475 H 0.17581 0.96015 0.57959
 H1476 H 0.18935 0.91972 0.56848
 C1477 C 0.24302 0.10716 0.42448
 C1478 C 0.26835 0.10633 0.42515
 C1479 C 0.28101 0.09211 0.40824
 C1480 C 0.26825 0.07883 0.39078
 C1481 C 0.24304 0.08089 0.38920
 C1482 C 0.23037 0.09513 0.40611
 C1483 C 0.20514 0.09664 0.40443
 C1484 C 0.19275 0.08446 0.38651
 C1485 C 0.20514 0.07053 0.36997
 C1486 C 0.23000 0.06869 0.37122
 C1487 C 0.30632 0.09122 0.40949
 C1488 C 0.31875 0.10404 0.42694
 C1489 C 0.30635 0.11794 0.44349
 C1490 C 0.28143 0.11913 0.44269
 C1491 C 0.28091 0.06186 0.37557
 C1492 C 0.29162 0.04727 0.36368
 C1493 C 0.22998 0.11826 0.44396
 C1494 C 0.21933 0.12613 0.46093
 H1495 H 0.19476 0.10736 0.41683
 H1496 H 0.17344 0.08584 0.38545
 H1497 H 0.19544 0.06112 0.35607
 H1498 H 0.23888 0.05773 0.35791
 H1499 H 0.31675 0.08073 0.39695
 H1500 H 0.33811 0.10319 0.42762
 H1501 H 0.31609 0.12788 0.45701
 H1502 H 0.27257 0.13028 0.45586
 C1503 C 0.77652 0.09807 0.58582
 C1504 C 0.78304 0.07399 0.59161
 C1505 C 0.77180 0.06200 0.61104
 C1506 C 0.75405 0.07415 0.62455
 C1507 C 0.74841 0.09862 0.61950
 C1508 C 0.75968 0.11062 0.60009
 C1509 C 0.75349 0.13498 0.59519
 C1510 C 0.73668 0.14715 0.60908
 C1511 C 0.72567 0.13541 0.62804
 C1512 C 0.73139 0.11141 0.63326
 C1513 C 0.77843 0.03782 0.61630
 C1514 C 0.79570 0.02585 0.60280
 C1515 C 0.80660 0.03753 0.58376
 C1516 C 0.80042 0.06133 0.57815
 C1517 C 0.74044 0.06082 0.64233
 C1518 C 0.72894 0.04865 0.65604
 C1519 C 0.78572 0.10928 0.56425
 C1520 C 0.79235 0.11831 0.54584
 H1521 H 0.76163 0.14489 0.58067
 H1522 H 0.73218 0.16580 0.60510
 H1523 H 0.71262 0.14495 0.63877
 H1524 H 0.72243 0.10304 0.64823
 H1525 H 0.77044 0.02794 0.63092
 H1526 H 0.80056 0.00736 0.60708
 H1527 H 0.81994 0.02812 0.57328
 H1528 H 0.80947 0.06971 0.56324
 C1529 C 0.89458 0.58195 0.23896
 C1530 C 0.90490 0.60076 0.22519
 C1531 C 0.91829 0.61945 0.23649
 C1532 C 0.92127 0.61920 0.26148
 C1533 C 0.90975 0.60119 0.27535
 C1534 C 0.89636 0.58251 0.26405
 C1535 C 0.88535 0.56446 0.27824
 C1536 C 0.88747 0.56488 0.30292
 C1537 C 0.90056 0.58315 0.31399
 C1538 C 0.91163 0.60113 0.30045
 C1539 C 0.92878 0.63785 0.22235
 C1540 C 0.92607 0.63781 0.19772
 C1541 C 0.91298 0.61953 0.18666
 C1542 C 0.90249 0.60115 0.20015
 C1543 C 0.93761 0.63620 0.27276
 C1544 C 0.95187 0.64937 0.28242
 C1545 C 0.88405 0.56101 0.22726
 C1546 C 0.87652 0.54306 0.21754
 H1547 H 0.87492 0.54993 0.27043
 H1548 H 0.87890 0.55096 0.31351
 H1549 H 0.90215 0.58340 0.33317
 H1550 H 0.92156 0.61501 0.30987
 H1551 H 0.93906 0.65248 0.23018
 H1552 H 0.93416 0.65205 0.18716
 H1553 H 0.91092 0.61958 0.16752
 H1554 H 0.89241 0.58735 0.19077
 C1555 C 0.90345 0.41712 0.77372
 C1556 C 0.92874 0.41820 0.77224
 C1557 C 0.94149 0.39945 0.76042
 C1558 C 0.92885 0.37977 0.75013
 C1559 C 0.90370 0.37799 0.75280
 C1560 C 0.89096 0.39673 0.76468
 C1561 C 0.86578 0.39474 0.76691
 C1562 C 0.85355 0.37478 0.75768
 C1563 C 0.86602 0.35648 0.74602
 C1564 C 0.89083 0.35799 0.74352
 C1565 C 0.96677 0.40114 0.75881
 C1566 C 0.97905 0.42083 0.76850
 C1567 C 0.96657 0.43914 0.78011
 C1568 C 0.94171 0.43794 0.78200
 C1569 C 0.94168 0.36249 0.73542
 C1570 C 0.95345 0.34949 0.72279
 C1571 C 0.89031 0.43789 0.78268
 C1572 C 0.87982 0.45583 0.78905
 H1573 H 0.85535 0.40850 0.77591
 H1574 H 0.83429 0.37350 0.75958
 H1575 H 0.85644 0.34102 0.73887
 H1576 H 0.89980 0.34330 0.73438
 H1577 H 0.97732 0.38729 0.75010
 H1578 H 0.99835 0.42191 0.76698
 H1579 H 0.97621 0.45436 0.78766
 H1580 H 0.93280 0.45260 0.79123
 C1581 C 0.10158 0.57612 0.76035
 C1582 C 0.08466 0.59064 0.77253
 C1583 C 0.07064 0.60771 0.75974
 C1584 C 0.07363 0.61013 0.73486
 C1585 C 0.09148 0.59655 0.72292
 C1586 C 0.10550 0.57950 0.73571
 C1587 C 0.12300 0.56589 0.72335
 C1588 C 0.12659 0.56908 0.69902
 C1589 C 0.11288 0.58576 0.68651
 C1590 C 0.09548 0.59937 0.69822
 C1591 C 0.05361 0.62180 0.77224
 C1592 C 0.05052 0.61913 0.79669
 C1593 C 0.06421 0.60242 0.80919
 C1594 C 0.08110 0.58828 0.79734
 C1595 C 0.05744 0.62542 0.72137
 C1596 C 0.04357 0.63748 0.71001
 C1597 C 0.11335 0.55635 0.77271
 C1598 C 0.12197 0.53918 0.78281
 H1599 H 0.13416 0.55276 0.73235
 H1600 H 0.14009 0.55855 0.68984
 H1601 H 0.11575 0.58818 0.66762
 H1602 H 0.08530 0.61216 0.68775
 H1603 H 0.04259 0.63507 0.76328
 H1604 H 0.03745 0.63008 0.80598
 H1605 H 0.06174 0.60040 0.82818
 H1606 H 0.09139 0.57559 0.80784
 C1607 C 0.09784 0.41428 0.22494
 C1608 C 0.07468 0.40729 0.21727
 C1609 C 0.06243 0.38803 0.22893
 C1610 C 0.07338 0.37592 0.24828
 C1611 C 0.09701 0.38209 0.25516
 C1612 C 0.10928 0.40132 0.24345
 C1613 C 0.13276 0.40736 0.25088
 C1614 C 0.14382 0.39476 0.26930
 C1615 C 0.13182 0.37598 0.28074
 C1616 C 0.10866 0.36965 0.27383
 C1617 C 0.03919 0.38156 0.22109
 C1618 C 0.02839 0.39370 0.20222
 C1619 C 0.04031 0.41261 0.19091
 C1620 C 0.06319 0.41941 0.19827
 C1621 C 0.05964 0.35849 0.26211
 C1622 C 0.04726 0.34505 0.27380
 C1623 C 0.10917 0.43580 0.21502
 C1624 C 0.11825 0.45425 0.20773
 H1625 H 0.14284 0.42179 0.24247
 H1626 H 0.16181 0.39960 0.27474
 H1627 H 0.14049 0.36624 0.29504
 H1628 H 0.10005 0.35486 0.28319
 H1629 H 0.02916 0.36702 0.22937
 H1630 H 0.01060 0.38851 0.19646
 H1631 H 0.03179 0.42206 0.17634
 H1632 H 0.07180 0.43415 0.18886
   
