data_POSCAR
  _audit_creation_date              2014-09-24
  _audit_creation_method            'ToBaCCo'
  _symmetry_space_group_name_H-M    'P1'
  _symmetry_Int_Tables_number       1
  _symmetry_cell_setting            triclinic
  loop_
  _symmetry_equiv_pos_as_xyz
 x,y,z
_cell_length_a 64.2496
_cell_length_b 64.2606
_cell_length_c 64.2591
_cell_angle_alpha 89.993700
_cell_angle_beta 89.990400
_cell_angle_gamma 89.989200
loop_
  _atom_site_label
  _atom_site_type_symbol
  _atom_site_fract_x
  _atom_site_fract_y
  _atom_site_fract_z
C1 C 0.20544 0.19565 0.22569
 C2 C 0.18857 0.19908 0.23913
 C3 C 0.17494 0.21593 0.23592
 C4 C 0.17842 0.22937 0.21898
 C5 C 0.19520 0.22610 0.20539
 C6 C 0.20877 0.20919 0.20875
 C7 C 0.21901 0.17886 0.22894
 C8 C 0.23592 0.17533 0.21546
 C9 C 0.23910 0.18893 0.19858
 C10 C 0.22568 0.20581 0.19516
 C11 C 0.22890 0.21937 0.17834
 C12 C 0.21542 0.23628 0.17484
 C13 C 0.19859 0.23950 0.18849
 H14 H 0.18611 0.18861 0.25212
 H15 H 0.16804 0.24240 0.21629
 H16 H 0.21634 0.16851 0.24199
 H17 H 0.25206 0.18644 0.18808
 H18 H 0.24192 0.21667 0.16795
 H19 H 0.18809 0.25246 0.18602
 C20 C 0.70539 0.69534 0.72549
 C21 C 0.68850 0.69872 0.73892
 C22 C 0.67485 0.71555 0.73573
 C23 C 0.67831 0.72902 0.71881
 C24 C 0.69511 0.72580 0.70522
 C25 C 0.70871 0.70891 0.70857
 C26 C 0.71899 0.67857 0.72874
 C27 C 0.73591 0.67509 0.71527
 C28 C 0.73908 0.68871 0.69841
 C29 C 0.72563 0.70557 0.69500
 C30 C 0.72885 0.71915 0.67820
 C31 C 0.71535 0.73605 0.67471
 C32 C 0.69850 0.73922 0.68834
 H33 H 0.68606 0.68823 0.75189
 H34 H 0.66792 0.74204 0.71613
 H35 H 0.71632 0.66820 0.74177
 H36 H 0.75206 0.68625 0.68791
 H37 H 0.74188 0.71648 0.66782
 H38 H 0.68798 0.75218 0.68587
 C39 C 0.29392 0.80486 0.72600
 C40 C 0.31076 0.80140 0.73947
 C41 C 0.32438 0.78455 0.73629
 C42 C 0.32092 0.77111 0.71935
 C43 C 0.30418 0.77440 0.70573
 C44 C 0.29062 0.79134 0.70905
 C45 C 0.28036 0.82167 0.72924
 C46 C 0.26344 0.82531 0.71571
 C47 C 0.26035 0.81164 0.69880
 C48 C 0.27377 0.79474 0.69543
 C49 C 0.27057 0.78119 0.67861
 C50 C 0.28402 0.76425 0.67514
 C51 C 0.30081 0.76101 0.68882
 H52 H 0.31320 0.81187 0.75247
 H53 H 0.33129 0.75807 0.71667
 H54 H 0.28312 0.83193 0.74234
 H55 H 0.24748 0.81405 0.68817
 H56 H 0.25758 0.78390 0.66819
 H57 H 0.31130 0.74803 0.68638
 C58 C 0.79492 0.30459 0.22581
 C59 C 0.81178 0.30124 0.23927
 C60 C 0.82549 0.28435 0.23623
 C61 C 0.82193 0.27081 0.21931
 C62 C 0.80516 0.27403 0.20570
 C63 C 0.79159 0.29096 0.20895
 C64 C 0.78134 0.32140 0.22897
 C65 C 0.76444 0.32485 0.21547
 C66 C 0.76127 0.31117 0.19867
 C67 C 0.77470 0.29427 0.19534
 C68 C 0.77147 0.28064 0.17860
 C69 C 0.78495 0.26371 0.17518
 C70 C 0.80177 0.26055 0.18886
 H71 H 0.81413 0.31188 0.25215
 H72 H 0.83221 0.25772 0.21659
 H73 H 0.78401 0.33182 0.24196
 H74 H 0.74831 0.31360 0.18815
 H75 H 0.75847 0.28330 0.16820
 H76 H 0.81226 0.24757 0.18645
 C77 C 0.79498 0.69543 0.27375
 C78 C 0.81188 0.69877 0.26033
 C79 C 0.82556 0.71568 0.26340
 C80 C 0.82194 0.72923 0.28030
 C81 C 0.80512 0.72601 0.29386
 C82 C 0.79159 0.70907 0.29058
 C83 C 0.78142 0.67861 0.27057
 C84 C 0.76448 0.67517 0.28402
 C85 C 0.76125 0.68887 0.30080
 C86 C 0.77465 0.70577 0.30414
 C87 C 0.77136 0.71941 0.32087
 C88 C 0.78480 0.73635 0.32431
 C89 C 0.80166 0.73951 0.31068
 H90 H 0.81428 0.68812 0.24747
 H91 H 0.83220 0.74233 0.28304
 H92 H 0.78413 0.66817 0.25760
 H93 H 0.74826 0.68644 0.31128
 H94 H 0.75832 0.71675 0.33123
 H95 H 0.81213 0.75251 0.31311
 C96 C 0.29493 0.19558 -0.22603
 C97 C 0.31185 0.19894 -0.23942
 C98 C 0.32551 0.21587 -0.23634
 C99 C 0.32183 0.22942 -0.21945
 C100 C 0.30500 0.22619 -0.20591
 C101 C 0.29149 0.20923 -0.20921
 C102 C 0.28140 0.17874 -0.22922
 C103 C 0.26445 0.17528 -0.21579
 C104 C 0.26117 0.18899 -0.19902
 C105 C 0.27454 0.20591 -0.19567
 C106 C 0.27121 0.21956 -0.17895
 C107 C 0.28463 0.23652 -0.17550
 C108 C 0.30150 0.23969 -0.18911
 H109 H 0.31429 0.18829 -0.25227
 H110 H 0.33207 0.24254 -0.21670
 H111 H 0.28415 0.16830 -0.24218
 H112 H 0.24816 0.18655 -0.18856
 H113 H 0.25816 0.21689 -0.16860
 H114 H 0.31196 0.25270 -0.18667
 C115 C 0.70529 0.30430 -0.22576
 C116 C 0.68841 0.30092 -0.23918
 C117 C 0.67475 0.28399 -0.23610
 C118 C 0.67839 0.27047 -0.21918
 C119 C 0.69518 0.27372 -0.20561
 C120 C 0.70870 0.29068 -0.20891
 C121 C 0.71883 0.32114 -0.22895
 C122 C 0.73575 0.32462 -0.21550
 C123 C 0.73900 0.31095 -0.19870
 C124 C 0.72562 0.29402 -0.19534
 C125 C 0.72892 0.28040 -0.17860
 C126 C 0.71550 0.26344 -0.17515
 C127 C 0.69865 0.26025 -0.18878
 H128 H 0.68600 0.31155 -0.25205
 H129 H 0.66815 0.25735 -0.21643
 H130 H 0.71611 0.33156 -0.24194
 H131 H 0.75197 0.31340 -0.18821
 H132 H 0.74195 0.28309 -0.16823
 H133 H 0.68820 0.24724 -0.18634
 C134 C 0.20580 0.80491 0.27391
 C135 C 0.18897 0.80144 0.26043
 C136 C 0.17536 0.78457 0.26361
 C137 C 0.17883 0.77113 0.28055
 C138 C 0.19557 0.77443 0.29417
 C139 C 0.20911 0.79137 0.29085
 C140 C 0.21935 0.82172 0.27068
 C141 C 0.23626 0.82536 0.28422
 C142 C 0.23935 0.81168 0.30112
 C143 C 0.22596 0.79477 0.30448
 C144 C 0.22917 0.78121 0.32130
 C145 C 0.21573 0.76427 0.32475
 C146 C 0.19894 0.76103 0.31107
 H147 H 0.18652 0.81191 0.24743
 H148 H 0.16848 0.75809 0.28322
 H149 H 0.21659 0.83199 0.25758
 H150 H 0.25222 0.81408 0.31176
 H151 H 0.24214 0.78393 0.33172
 H152 H 0.18847 0.74803 0.31351
 C153 C 0.44565 0.45550 0.47607
 C154 C 0.44906 0.43864 0.48951
 C155 C 0.46591 0.42500 0.48633
 C156 C 0.47939 0.42847 0.46941
 C157 C 0.47615 0.44525 0.45582
 C158 C 0.45923 0.45883 0.45915
 C159 C 0.42886 0.46908 0.47930
 C160 C 0.42536 0.48598 0.46580
 C161 C 0.43900 0.48916 0.44895
 C162 C 0.45588 0.47573 0.44556
 C163 C 0.46946 0.47895 0.42877
 C164 C 0.48637 0.46548 0.42528
 C165 C 0.48957 0.44864 0.43893
 H166 H 0.43856 0.43619 0.50248
 H167 H 0.49242 0.41809 0.46674
 H168 H 0.41848 0.46641 0.49232
 H169 H 0.43653 0.50211 0.43844
 H170 H 0.46677 0.49197 0.41838
 H171 H 0.50254 0.43814 0.43647
 C172 C -0.05467 -0.04450 0.97581
 C173 C -0.05127 -0.06139 0.98922
 C174 C -0.03445 -0.07505 0.98601
 C175 C -0.02097 -0.07156 0.96909
 C176 C -0.02420 -0.05476 0.95554
 C177 C -0.04111 -0.04116 0.95889
 C178 C -0.07144 -0.03090 0.97908
 C179 C -0.07502 -0.01393 0.96561
 C180 C -0.06132 -0.01081 0.94873
 C181 C -0.04444 -0.02425 0.94533
 C182 C -0.03086 -0.02102 0.92853
 C183 C -0.01395 -0.03450 0.92504
 C184 C -0.01077 -0.05136 0.93866
 H185 H -0.06176 -0.06386 1.00220
 H186 H -0.00796 -0.08195 0.96640
 H187 H -0.08173 -0.03369 0.99217
 H188 H -0.06367 0.00211 0.93814
 H189 H -0.03353 -0.00799 0.91816
 H190 H 0.00219 -0.06187 0.93619
 C191 C 1.05457 0.54440 0.97624
 C192 C 1.05115 0.56125 0.98971
 C193 C 1.03424 0.57493 0.98663
 C194 C 1.02075 0.57135 0.96967
 C195 C 1.02404 0.55459 0.95607
 C196 C 1.04100 0.54107 0.95935
 C197 C 1.07141 0.53086 0.97944
 C198 C 1.07502 0.51392 0.96593
 C199 C 1.06130 0.51081 0.94907
 C200 C 1.04438 0.52420 0.94574
 C201 C 1.03079 0.52097 0.92895
 C202 C 1.01383 0.53439 0.92552
 C203 C 1.01060 0.55119 0.93919
 H204 H 1.06175 0.56362 1.00261
 H205 H 1.00764 0.58160 0.96692
 H206 H 1.08171 0.53363 0.99251
 H207 H 1.06368 0.49793 0.93844
 H208 H 1.03350 0.50798 0.91854
 H209 H 0.99759 0.56165 0.93677
 C210 C 0.55477 0.04408 0.47614
 C211 C 0.55136 0.06092 0.48961
 C212 C 0.53450 0.07456 0.48648
 C213 C 0.52101 0.07110 0.46957
 C214 C 0.52425 0.05435 0.45595
 C215 C 0.54118 0.04078 0.45924
 C216 C 0.57158 0.03051 0.47933
 C217 C 0.57516 0.01359 0.46580
 C218 C 0.56144 0.01050 0.44894
 C219 C 0.54453 0.02392 0.44561
 C220 C 0.53093 0.02072 0.42883
 C221 C 0.51399 0.03418 0.42541
 C222 C 0.51080 0.05098 0.43909
 H223 H 0.56186 0.06336 0.50258
 H224 H 0.50797 0.08148 0.46694
 H225 H 0.58187 0.03327 0.49241
 H226 H 0.56380 -0.00238 0.43830
 H227 H 0.53361 0.00773 0.41841
 H228 H 0.49781 0.06147 0.43668
 C229 C -0.05477 0.04484 0.52427
 C230 C -0.05139 0.06174 0.51087
 C231 C -0.03455 0.07537 0.51407
 C232 C -0.02106 0.07186 0.53096
 C233 C -0.02427 0.05505 0.54452
 C234 C -0.04118 0.04147 0.54117
 C235 C -0.07156 0.03126 0.52102
 C236 C -0.07502 0.01432 0.53447
 C237 C -0.06138 0.01110 0.55130
 C238 C -0.04450 0.02453 0.55471
 C239 C -0.03090 0.02127 0.57148
 C240 C -0.01399 0.03474 0.57498
 C241 C -0.01083 0.05162 0.56137
 H242 H -0.06190 0.06422 0.49792
 H243 H -0.00804 0.08224 0.53365
 H244 H -0.08194 0.03396 0.50801
 H245 H -0.06382 -0.00189 0.56178
 H246 H -0.03356 0.00822 0.58184
 H247 H 0.00214 0.06212 0.56384
 C248 C 0.44529 0.54488 0.02399
 C249 C 0.44869 0.56174 0.01055
 C250 C 0.46562 0.57539 0.01362
 C251 C 0.47913 0.57177 0.03055
 C252 C 0.47586 0.55500 0.04414
 C253 C 0.45890 0.54149 0.04085
 C254 C 0.42845 0.53135 0.02080
 C255 C 0.42495 0.51444 0.03428
 C256 C 0.43861 0.51120 0.05109
 C257 C 0.45554 0.52458 0.05444
 C258 C 0.46915 0.52130 0.07120
 C259 C 0.48611 0.53472 0.07464
 C260 C 0.48932 0.55155 0.06099
 H261 H 0.43806 0.56413 -0.00233
 H262 H 0.49225 0.58201 0.03329
 H263 H 0.41804 0.53406 0.00781
 H264 H 0.43614 0.49824 0.06159
 H265 H 0.46645 0.50829 0.08158
 H266 H 0.50233 0.56200 0.06342
 C267 C 0.55482 -0.04477 0.02461
 C268 C 0.55139 -0.06163 0.01117
 C269 C 0.53452 -0.07523 0.01434
 C270 C 0.52104 -0.07173 0.03125
 C271 C 0.52430 -0.05495 0.04484
 C272 C 0.54124 -0.04141 0.04152
 C273 C 0.57163 -0.03122 0.02139
 C274 C 0.57515 -0.01432 0.03487
 C275 C 0.56151 -0.01112 0.05171
 C276 C 0.54460 -0.02451 0.05510
 C277 C 0.53101 -0.02126 0.07189
 C278 C 0.51407 -0.03471 0.07535
 C279 C 0.51086 -0.05154 0.06171
 H280 H 0.56190 -0.06410 -0.00179
 H281 H 0.50799 -0.08208 0.03392
 H282 H 0.58201 -0.03391 0.00836
 H283 H 0.56399 0.00184 0.06222
 H284 H 0.53370 -0.00825 0.08227
 H285 H 0.49787 -0.06201 0.06416
 C286 C 1.05445 0.45543 0.52390
 C287 C 1.05102 0.43859 0.51042
 C288 C 1.03411 0.42492 0.51351
 C289 C 1.02065 0.42848 0.53049
 C290 C 1.02394 0.44522 0.54411
 C291 C 1.04088 0.45876 0.54081
 C292 C 1.07127 0.46898 0.52069
 C293 C 1.07479 0.48586 0.53420
 C294 C 1.06116 0.48902 0.55106
 C295 C 1.04426 0.47562 0.55443
 C296 C 1.03070 0.47885 0.57124
 C297 C 1.01376 0.46540 0.57470
 C298 C 1.01052 0.44861 0.56101
 H299 H 1.06161 0.43625 0.49750
 H300 H 1.00754 0.41822 0.53325
 H301 H 1.08164 0.46632 0.50766
 H302 H 1.06365 0.50196 0.56159
 H303 H 1.03341 0.49183 0.58165
 H304 H 0.99753 0.43814 0.56346
 C305 C 0.40693 0.00938 0.22274
 H306 H 0.40811 0.02324 0.23224
 C307 C 0.42055 0.00647 0.20606
 H308 H 0.43213 0.01826 0.20280
 C309 C 0.39049 -0.02287 0.21579
 H310 H 0.37897 -0.03442 0.21981
 C311 C 0.40376 -0.02640 0.19895
 H312 H 0.40212 -0.04064 0.19009
 N313 N 0.39214 -0.00509 0.22715
 C314 C 0.34249 0.02764 0.25986
 H315 H 0.34128 0.01819 0.27375
 C316 C 0.32896 0.04439 0.25692
 H317 H 0.31740 0.04774 0.26871
 C318 C 0.35894 0.03441 0.22756
 H319 H 0.37042 0.03031 0.21600
 C320 C 0.34575 0.05132 0.22400
 H321 H 0.34743 0.06012 0.20973
 Zn322 Zn 0.37465 -0.00015 0.25035
 N323 N 0.35725 0.02311 0.24538
 C324 C 0.39046 0.02254 0.28494
 N325 N 0.39208 0.00474 0.27360
 C326 C 0.40681 -0.00978 0.27806
 C327 C 0.42040 -0.00690 0.29476
 C328 C 0.40370 0.02604 0.30181
 C329 C 0.34238 -0.02774 0.24073
 C330 C 0.32877 -0.04445 0.24360
 C331 C 0.34557 -0.05164 0.27646
 C332 C 0.35881 -0.03476 0.27298
 N333 N 0.35715 -0.02335 0.25523
 H334 H 0.37899 0.03413 0.28089
 H335 H 0.40798 -0.02365 0.26858
 H336 H 0.43194 -0.01873 0.29806
 H337 H 0.40208 0.04030 0.31064
 H338 H 0.34120 -0.01822 0.22690
 H339 H 0.31721 -0.04770 0.23179
 H340 H 0.34722 -0.06054 0.29067
 H341 H 0.37031 -0.03077 0.28455
 C342 C 0.33052 0.05654 0.23880
 C343 C 0.41904 -0.01161 0.19385
 C344 C 0.33031 -0.05671 0.26164
 C345 C 0.41892 0.01120 0.30695
 C346 C 0.09311 -0.00952 0.72231
 H347 H 0.09193 -0.02338 0.73179
 C348 C 0.07951 -0.00659 0.70562
 H349 H 0.06793 -0.01838 0.70234
 C350 C 0.10954 0.02276 0.71541
 H351 H 0.12105 0.03431 0.71944
 C352 C 0.09628 0.02630 0.69856
 H353 H 0.09793 0.04056 0.68972
 N354 N 0.10789 0.00496 0.72675
 C355 C 0.15758 -0.02769 0.75947
 H356 H 0.15882 -0.01817 0.77330
 C357 C 0.17114 -0.04443 0.75656
 H358 H 0.18273 -0.04771 0.76834
 C359 C 0.14105 -0.03465 0.72726
 H360 H 0.12953 -0.03061 0.71572
 C361 C 0.15424 -0.05156 0.72374
 H362 H 0.15254 -0.06044 0.70953
 Zn363 Zn 0.12537 0.00001 0.74995
 N364 N 0.14278 -0.02325 0.74501
 C365 C 0.10955 -0.02270 0.78452
 N366 N 0.10792 -0.00489 0.77319
 C367 C 0.09319 0.00963 0.77766
 C368 C 0.07960 0.00673 0.79437
 C369 C 0.09631 -0.02621 0.80139
 C370 C 0.15760 0.02766 0.74033
 C371 C 0.17120 0.04436 0.74322
 C372 C 0.15450 0.05140 0.77617
 C373 C 0.14125 0.03454 0.77266
 N374 N 0.14286 0.02321 0.75485
 H375 H 0.12103 -0.03428 0.78047
 H376 H 0.09203 0.02350 0.76819
 H377 H 0.06806 0.01855 0.79767
 H378 H 0.09793 -0.04047 0.81022
 H379 H 0.15875 0.01819 0.72646
 H380 H 0.18273 0.04766 0.73140
 H381 H 0.15288 0.06023 0.79043
 H382 H 0.12978 0.03049 0.78425
 C383 C 0.16953 -0.05667 0.73852
 C384 C 0.08102 0.01151 0.69344
 C385 C 0.16971 0.05654 0.76132
 C386 C 0.08108 -0.01138 0.80654
 C387 C 0.59302 0.49048 0.22212
 H388 H 0.59186 0.47659 0.23157
 C389 C 0.57944 0.49340 0.20541
 H390 H 0.56791 0.48158 0.20208
 C391 C 0.60937 0.52281 0.21532
 H392 H 0.62083 0.53439 0.21940
 C393 C 0.59614 0.52635 0.19844
 H394 H 0.59776 0.54063 0.18964
 N395 N 0.60775 0.50499 0.22661
 C396 C 0.65742 0.47235 0.25937
 H397 H 0.65858 0.48181 0.27324
 C398 C 0.67101 0.45565 0.25646
 H399 H 0.68255 0.45234 0.26828
 C400 C 0.64104 0.46549 0.22706
 H401 H 0.62957 0.46955 0.21548
 C402 C 0.65429 0.44862 0.22353
 H403 H 0.65267 0.43980 0.20927
 Zn404 Zn 0.62522 0.50004 0.24982
 N405 N 0.64267 0.47681 0.24487
 C406 C 0.60942 0.47726 0.28436
 N407 N 0.60779 0.49509 0.27307
 C408 C 0.59308 0.50961 0.27760
 C409 C 0.57952 0.50669 0.29434
 C410 C 0.59622 0.47372 0.30126
 C411 C 0.65742 0.52770 0.24020
 C412 C 0.67102 0.54439 0.24309
 C413 C 0.65436 0.55143 0.27605
 C414 C 0.64110 0.53457 0.27255
 N415 N 0.64269 0.52325 0.25474
 H416 H 0.62087 0.46567 0.28025
 H417 H 0.59190 0.52350 0.26816
 H418 H 0.56800 0.51852 0.29770
 H419 H 0.59785 0.45945 0.31005
 H420 H 0.65855 0.51823 0.22633
 H421 H 0.68255 0.54769 0.23125
 H422 H 0.65276 0.56025 0.29031
 H423 H 0.62964 0.53052 0.28415
 C424 C 0.66952 0.44347 0.23836
 C425 C 0.58093 0.51152 0.19326
 C426 C 0.66956 0.55656 0.26119
 C427 C 0.58103 0.48857 0.30648
 C428 C 0.90714 0.50934 0.72249
 H429 H 0.90831 0.52322 0.73194
 C430 C 0.92071 0.50642 0.70577
 H431 H 0.93225 0.51824 0.70244
 C432 C 0.89075 0.47704 0.71566
 H433 H 0.87927 0.46547 0.71974
 C434 C 0.90397 0.47350 0.69878
 H435 H 0.90233 0.45924 0.68996
 N436 N 0.89239 0.49485 0.72697
 C437 C 0.84274 0.52760 0.75966
 H438 H 0.84155 0.51816 0.77356
 C439 C 0.82918 0.54432 0.75671
 H440 H 0.81764 0.54768 0.76852
 C441 C 0.85915 0.53436 0.72734
 H442 H 0.87062 0.53025 0.71577
 C443 C 0.84594 0.55124 0.72377
 H444 H 0.84758 0.56003 0.70949
 Zn445 Zn 0.87491 0.49984 0.75017
 N446 N 0.85749 0.52307 0.74517
 C447 C 0.89071 0.52261 0.78470
 N448 N 0.89233 0.50478 0.77341
 C449 C 0.90704 0.49025 0.77794
 C450 C 0.92060 0.49317 0.79467
 C451 C 0.90392 0.52614 0.80159
 C452 C 0.84270 0.47217 0.74058
 C453 C 0.82909 0.45549 0.74348
 C454 C 0.84574 0.44848 0.77645
 C455 C 0.85900 0.46534 0.77293
 N456 N 0.85741 0.47664 0.75511
 H457 H 0.87926 0.53421 0.78059
 H458 H 0.90820 0.47636 0.76851
 H459 H 0.93211 0.48133 0.79803
 H460 H 0.90230 0.54042 0.81038
 H461 H 0.84157 0.48163 0.72669
 H462 H 0.81757 0.45217 0.73164
 H463 H 0.84733 0.43967 0.79072
 H464 H 0.87045 0.46940 0.78453
 C465 C 0.83071 0.55645 0.73858
 C466 C 0.91919 0.48832 0.69360
 C467 C 0.83054 0.44333 0.76160
 C468 C 0.91910 0.51130 0.80681
 C469 C 0.22194 0.40776 0.00933
 H470 H 0.23147 0.40894 0.02315
 C471 C 0.20522 0.42135 0.00648
 H472 H 0.20196 0.43291 0.01830
 C473 C 0.21492 0.39134 -0.02293
 H474 H 0.21893 0.37985 -0.03451
 C475 C 0.19802 0.40457 -0.02638
 H476 H 0.18913 0.40293 -0.04059
 N477 N 0.22634 0.39300 -0.00518
 C478 C 0.25921 0.34327 0.02726
 H479 H 0.27307 0.34213 0.01777
 C480 C 0.25634 0.32965 0.04395
 H481 H 0.26816 0.31811 0.04721
 C482 C 0.22691 0.35964 0.03421
 H483 H 0.21533 0.37113 0.03020
 C484 C 0.22341 0.34637 0.05107
 H485 H 0.20917 0.34798 0.05992
 Zn486 Zn 0.24959 0.37555 -0.00033
 N487 N 0.24470 0.35803 0.02285
 C488 C 0.28414 0.39132 0.02244
 N489 N 0.27280 0.39301 0.00464
 C490 C 0.27726 0.40779 -0.00983
 C491 C 0.29397 0.42137 -0.00689
 C492 C 0.30101 0.40455 0.02599
 C493 C 0.24006 0.34341 -0.02811
 C494 C 0.24300 0.32987 -0.04485
 C495 C 0.27591 0.34666 -0.05183
 C496 C 0.27235 0.35986 -0.03493
 N497 N 0.25454 0.35817 -0.02361
 H498 H 0.28008 0.37981 0.03399
 H499 H 0.26779 0.40900 -0.02369
 H500 H 0.29727 0.43294 -0.01868
 H501 H 0.30984 0.40288 0.04024
 H502 H 0.22619 0.34220 -0.01864
 H503 H 0.23120 0.31831 -0.04818
 H504 H 0.29017 0.34833 -0.06064
 H505 H 0.28391 0.37134 -0.03084
 C506 C 0.23825 0.33113 0.05616
 C507 C 0.19295 0.41982 -0.01156
 C508 C 0.26111 0.33142 -0.05701
 C509 C 0.30615 0.41981 0.01120
 C510 C 0.72286 0.09225 -0.00939
 H511 H 0.73231 0.09105 -0.02328
 C512 C 0.70614 0.07868 -0.00643
 H513 H 0.70281 0.06713 -0.01823
 C514 C 0.71606 0.10867 0.02291
 H515 H 0.72015 0.12016 0.03446
 C516 C 0.69918 0.09546 0.02648
 H517 H 0.69038 0.09712 0.04075
 N518 N 0.72736 0.10700 0.00509
 C519 C 0.76004 0.15665 -0.02767
 H520 H 0.77392 0.15786 -0.01823
 C521 C 0.75707 0.17021 -0.04439
 H522 H 0.76887 0.18177 -0.04774
 C523 C 0.72774 0.14021 -0.03445
 H524 H 0.71619 0.12872 -0.03035
 C525 C 0.72416 0.15341 -0.05134
 H526 H 0.70989 0.15175 -0.06013
 Zn527 Zn 0.75057 0.12447 0.00008
 N528 N 0.74557 0.14189 -0.02316
 C529 C 0.78518 0.10873 -0.02264
 N530 N 0.77381 0.10703 -0.00487
 C531 C 0.77825 0.09224 0.00960
 C532 C 0.79496 0.07866 0.00668
 C533 C 0.80207 0.09551 -0.02617
 C534 C 0.74102 0.15670 0.02773
 C535 C 0.74392 0.17029 0.04443
 C536 C 0.77685 0.15354 0.05148
 C537 C 0.77332 0.14030 0.03461
 N538 N 0.75552 0.14195 0.02328
 H539 H 0.78114 0.12024 -0.03419
 H540 H 0.76875 0.09103 0.02345
 H541 H 0.79825 0.06708 0.01847
 H542 H 0.81093 0.09719 -0.04040
 H543 H 0.72714 0.15787 0.01826
 H544 H 0.73210 0.18184 0.04774
 H545 H 0.79110 0.15191 0.06031
 H546 H 0.78489 0.12881 0.03056
 C547 C 0.73896 0.16866 -0.05654
 C548 C 0.69399 0.08022 0.01168
 C549 C 0.76202 0.16878 0.05662
 C550 C 0.80719 0.08023 -0.01139
 C551 C 0.22232 0.59286 0.49030
 H552 H 0.23180 0.59171 0.47643
 C553 C 0.20561 0.57926 0.49318
 H554 H 0.20232 0.56773 0.48135
 C555 C 0.21543 0.60918 0.52263
 H556 H 0.21947 0.62064 0.53423
 C557 C 0.19856 0.59593 0.52613
 H558 H 0.18972 0.59754 0.54039
 N559 N 0.22677 0.60758 0.50483
 C560 C 0.25962 0.65723 0.47226
 H561 H 0.27348 0.65839 0.48175
 C562 C 0.25674 0.67083 0.45556
 H563 H 0.26857 0.68237 0.45227
 C564 C 0.22731 0.64088 0.46536
 H565 H 0.21571 0.62942 0.46940
 C566 C 0.22381 0.65413 0.44849
 H567 H 0.20956 0.65252 0.43965
 Zn568 Zn 0.24999 0.62505 0.49994
 N569 N 0.24510 0.64250 0.47670
 C570 C 0.28459 0.60922 0.47727
 N571 N 0.27324 0.60761 0.49507
 C572 C 0.27771 0.59289 0.50960
 C573 C 0.29443 0.57932 0.50674
 C574 C 0.30148 0.59599 0.47379
 C575 C 0.24030 0.65723 0.52760
 C576 C 0.24316 0.67083 0.54430
 C577 C 0.27612 0.65418 0.55138
 C578 C 0.27264 0.64092 0.53451
 N579 N 0.25485 0.64252 0.52316
 H580 H 0.28053 0.62067 0.46567
 H581 H 0.26822 0.59174 0.52347
 H582 H 0.29774 0.56780 0.51858
 H583 H 0.31032 0.59760 0.45953
 H584 H 0.22644 0.65837 0.51811
 H585 H 0.23131 0.68236 0.54759
 H586 H 0.29037 0.65258 0.56022
 H587 H 0.28426 0.62947 0.53047
 C588 C 0.23865 0.66935 0.44336
 C589 C 0.19343 0.58073 0.51128
 C590 C 0.26125 0.66938 0.55650
 C591 C 0.30663 0.58080 0.48865
 C592 C 0.72213 0.90750 0.50917
 H593 H 0.73165 0.90869 0.52300
 C594 C 0.70540 0.92108 0.50631
 H595 H 0.70213 0.93264 0.51812
 C596 C 0.71514 0.89107 0.47692
 H597 H 0.71916 0.87958 0.46534
 C598 C 0.69824 0.90429 0.47345
 H599 H 0.68935 0.90264 0.45923
 N600 N 0.72654 0.89274 0.49467
 C601 C 0.75936 0.84302 0.52719
 H602 H 0.77323 0.84187 0.51772
 C603 C 0.75644 0.82942 0.54388
 H604 H 0.76826 0.81787 0.54718
 C605 C 0.72704 0.85940 0.53407
 H606 H 0.71546 0.87089 0.53003
 C607 C 0.72351 0.84614 0.55093
 H608 H 0.70925 0.84776 0.55976
 Zn609 Zn 0.74979 0.87529 0.49956
 N610 N 0.74485 0.85777 0.52274
 C611 C 0.78430 0.89106 0.52238
 N612 N 0.77300 0.89274 0.50456
 C613 C 0.77748 0.90753 0.49010
 C614 C 0.79418 0.92110 0.49306
 C615 C 0.80117 0.90429 0.52595
 C616 C 0.74029 0.84315 0.47177
 C617 C 0.74325 0.82961 0.45504
 C618 C 0.77616 0.84640 0.44809
 C619 C 0.77259 0.85959 0.46499
 N620 N 0.75477 0.85790 0.47629
 H621 H 0.78024 0.87956 0.53392
 H622 H 0.76802 0.90873 0.47622
 H623 H 0.79750 0.93268 0.48127
 H624 H 0.80999 0.90262 0.54021
 H625 H 0.72641 0.84193 0.48123
 H626 H 0.73145 0.81806 0.45169
 H627 H 0.79043 0.84807 0.43929
 H628 H 0.78415 0.87107 0.46909
 C629 C 0.73834 0.83091 0.55606
 C630 C 0.69315 0.91954 0.48827
 C631 C 0.76136 0.83117 0.44289
 C632 C 0.80634 0.91955 0.51117
 C633 C 0.00929 0.22306 0.40727
 H634 H 0.02314 0.23256 0.40846
 C635 C 0.00640 0.20635 0.42086
 H636 H 0.01821 0.20308 0.43243
 C637 C -0.02296 0.21609 0.39082
 H638 H -0.03452 0.22011 0.37931
 C639 C -0.02647 0.19922 0.40407
 H640 H -0.04070 0.19035 0.40241
 N641 N -0.00519 0.22747 0.39249
 C642 C 0.02739 0.26020 0.34277
 H643 H 0.01789 0.27405 0.34154
 C644 C 0.04411 0.25727 0.32919
 H645 H 0.04739 0.26905 0.31760
 C646 C 0.03431 0.22796 0.35926
 H647 H 0.03027 0.21642 0.37078
 C648 C 0.05119 0.22442 0.34604
 H649 H 0.06005 0.21018 0.34772
 Zn650 Zn -0.00030 0.25067 0.37500
 N651 N 0.02295 0.24574 0.35756
 C652 C 0.02232 0.28536 0.39067
 N653 N 0.00458 0.27394 0.39241
 C654 C -0.00988 0.27834 0.40722
 C655 C -0.00698 0.29506 0.42079
 C656 C 0.02582 0.30225 0.40388
 C657 C -0.02785 0.24103 0.34273
 C658 C -0.04454 0.24387 0.32911
 C659 C -0.05187 0.27667 0.34596
 C660 C -0.03500 0.27322 0.35921
 N661 N -0.02352 0.25551 0.35753
 H662 H 0.03387 0.28136 0.37914
 H663 H -0.02370 0.26881 0.40846
 H664 H -0.01875 0.29831 0.43240
 H665 H 0.04003 0.31115 0.40218
 H666 H -0.01827 0.22723 0.34153
 H667 H -0.04774 0.23207 0.31752
 H668 H -0.06082 0.29085 0.34762
 H669 H -0.03106 0.28478 0.37075
 C670 C 0.05632 0.23920 0.33076
 C671 C -0.01166 0.19412 0.41933
 C672 C -0.05687 0.26187 0.33066
 C673 C 0.01105 0.30732 0.41919
 C674 C -0.00959 0.72178 0.09265
 H675 H -0.02341 0.73131 0.09141
 C676 C -0.00669 0.70505 0.07910
 H677 H -0.01848 0.70177 0.06751
 C678 C 0.02263 0.71480 0.10916
 H679 H 0.03419 0.71882 0.12067
 C680 C 0.02613 0.69788 0.09597
 H681 H 0.04035 0.68899 0.09767
 N682 N 0.00488 0.72621 0.10744
 C683 C -0.02758 0.75909 0.15715
 H684 H -0.01803 0.77290 0.15834
 C685 C -0.04428 0.75622 0.17077
 H686 H -0.04750 0.76802 0.18236
 C687 C -0.03466 0.72688 0.14067
 H688 H -0.03069 0.71532 0.12914
 C689 C -0.05153 0.72341 0.15393
 H690 H -0.06045 0.70921 0.15226
 Zn691 Zn -0.00002 0.74948 0.12484
 N692 N -0.02322 0.74461 0.14235
 C693 C -0.02276 0.78404 0.10906
 N694 N -0.00498 0.77267 0.10735
 C695 C 0.00947 0.77710 0.09255
 C696 C 0.00655 0.79382 0.07897
 C697 C -0.02630 0.80093 0.09584
 C698 C 0.02776 0.74003 0.15703
 C699 C 0.04450 0.74299 0.17055
 C700 C 0.05148 0.77585 0.15367
 C701 C 0.03457 0.77227 0.14050
 N702 N 0.02325 0.75447 0.14224
 H703 H -0.03430 0.78002 0.12059
 H704 H 0.02333 0.76760 0.09133
 H705 H 0.01834 0.79710 0.06739
 H706 H -0.04053 0.80979 0.09753
 H707 H 0.01829 0.72616 0.15828
 H708 H 0.04784 0.73122 0.18214
 H709 H 0.06030 0.79010 0.15196
 H710 H 0.03048 0.78380 0.12898
 C711 C -0.05657 0.73820 0.16922
 C712 C 0.01135 0.69278 0.08069
 C713 C 0.05667 0.76109 0.16894
 C714 C -0.01151 0.80605 0.08056
 C715 C 0.49068 0.22218 0.59336
 H716 H 0.47685 0.23171 0.59215
 C717 C 0.49356 0.20546 0.57979
 H718 H 0.48176 0.20219 0.56822
 C719 C 0.52292 0.21519 0.60982
 H720 H 0.53448 0.21921 0.62133
 C721 C 0.52642 0.19830 0.59660
 H722 H 0.54064 0.18942 0.59827
 N723 N 0.50516 0.22659 0.60814
 C724 C 0.47261 0.25943 0.65782
 H725 H 0.48215 0.27325 0.65905
 C726 C 0.45587 0.25655 0.67138
 H727 H 0.45261 0.26834 0.68297
 C728 C 0.46559 0.22722 0.64131
 H729 H 0.46960 0.21567 0.62979
 C730 C 0.44868 0.22374 0.65451
 H731 H 0.43978 0.20954 0.65282
 Zn732 Zn 0.50027 0.24984 0.62558
 N733 N 0.47702 0.24496 0.64302
 C734 C 0.47761 0.28445 0.60978
 N735 N 0.49538 0.27307 0.60811
 C736 C 0.50987 0.27748 0.59333
 C737 C 0.50698 0.29419 0.57974
 C738 C 0.47410 0.30132 0.59653
 C739 C 0.52790 0.24027 0.65784
 C740 C 0.54461 0.24315 0.67143
 C741 C 0.55182 0.27595 0.65453
 C742 C 0.53493 0.27246 0.64131
 N743 N 0.52351 0.25473 0.64303
 H744 H 0.46605 0.28043 0.62129
 H745 H 0.52372 0.26797 0.59214
 H746 H 0.51879 0.29745 0.56817
 H747 H 0.45987 0.31019 0.59819
 H748 H 0.51836 0.22645 0.65907
 H749 H 0.54786 0.23137 0.68303
 H750 H 0.56073 0.29016 0.65283
 H751 H 0.53094 0.28400 0.62978
 C752 C 0.44360 0.23853 0.66979
 C753 C 0.51161 0.19321 0.58134
 C754 C 0.55689 0.26118 0.66983
 C755 C 0.48892 0.30642 0.58127
 C756 C 0.50938 0.72206 0.90732
 H757 H 0.52323 0.73158 0.90850
 C758 C 0.50651 0.70535 0.92091
 H759 H 0.51832 0.70208 0.93246
 C760 C 0.47712 0.71510 0.89090
 H761 H 0.46554 0.71912 0.87941
 C762 C 0.47363 0.69821 0.90412
 H763 H 0.45941 0.68933 0.90247
 N764 N 0.49488 0.72649 0.89256
 C765 C 0.52737 0.75937 0.84287
 H766 H 0.51787 0.77323 0.84173
 C767 C 0.54405 0.75649 0.82925
 H768 H 0.54733 0.76832 0.81771
 C769 C 0.53430 0.72705 0.85922
 H770 H 0.53028 0.71547 0.87070
 C771 C 0.55116 0.72356 0.84594
 H772 H 0.56001 0.70931 0.84755
 Zn773 Zn 0.49976 0.74974 0.87513
 N774 N 0.52295 0.74485 0.85761
 C775 C 0.52252 0.78426 0.89094
 N776 N 0.50472 0.77293 0.89260
 C777 C 0.49024 0.77739 0.90738
 C778 C 0.49317 0.79408 0.92097
 C779 C 0.52608 0.80111 0.90418
 C780 C 0.47199 0.74022 0.84298
 C781 C 0.45525 0.74315 0.82944
 C782 C 0.44825 0.77605 0.84625
 C783 C 0.46516 0.77250 0.85943
 N784 N 0.47649 0.75470 0.85774
 H785 H 0.53408 0.78021 0.87943
 H786 H 0.47637 0.76792 0.90857
 H787 H 0.48138 0.79738 0.93254
 H788 H 0.54033 0.80994 0.90253
 H789 H 0.48147 0.72635 0.84176
 H790 H 0.45192 0.73136 0.81788
 H791 H 0.43942 0.79030 0.84792
 H792 H 0.46924 0.78405 0.87092
 C793 C 0.55626 0.73840 0.83072
 C794 C 0.48845 0.69311 0.91938
 C795 C 0.44307 0.76125 0.83101
 C796 C 0.51128 0.80625 0.91945
 C797 C 0.12448 0.22590 0.27633
 N798 N 0.12852 0.23945 0.26064
 N799 N 0.14451 0.23628 0.24783
 C800 C 0.15712 0.21946 0.25020
 N801 N 0.15303 0.20594 0.26595
 N802 N 0.13703 0.20908 0.27875
 C803 C 0.10683 0.22936 0.29044
 N804 N 0.10251 0.21555 0.30582
 N805 N 0.08649 0.21868 0.31860
 C806 C 0.07415 0.23574 0.31653
 N807 N 0.07854 0.24954 0.30111
 N808 N 0.09455 0.24641 0.28831
 C809 C 0.62437 0.72535 0.77616
 N810 N 0.62839 0.73895 0.76051
 N811 N 0.64439 0.73583 0.74769
 C812 C 0.65702 0.71902 0.75001
 N813 N 0.65294 0.70545 0.76571
 N814 N 0.63694 0.70854 0.77853
 C815 C 0.60673 0.72875 0.79029
 N816 N 0.60243 0.71488 0.80563
 N817 N 0.58642 0.71794 0.81844
 C818 C 0.57407 0.73500 0.81644
 N819 N 0.57843 0.74886 0.80107
 N820 N 0.59443 0.74580 0.78824
 C821 C 0.37482 0.77455 0.77670
 N822 N 0.37077 0.76100 0.76103
 N823 N 0.35477 0.76417 0.74822
 C824 C 0.34218 0.78100 0.75058
 N825 N 0.34628 0.79453 0.76631
 N826 N 0.36229 0.79138 0.77911
 C827 C 0.39248 0.77109 0.79079
 N828 N 0.39684 0.78491 0.80614
 N829 N 0.41289 0.78178 0.81889
 C830 C 0.42520 0.76471 0.81682
 N831 N 0.42078 0.75090 0.80143
 N832 N 0.40475 0.75402 0.78866
 C833 C -0.12496 0.27479 0.27606
 N834 N -0.13795 0.29120 0.27882
 N835 N -0.15394 0.29426 0.26598
 C836 C -0.15760 0.28107 0.24983
 N837 N -0.14450 0.26465 0.24715
 N838 N -0.12853 0.26156 0.26000
 C839 C -0.10732 0.27142 0.29021
 N840 N -0.09470 0.25465 0.28787
 N841 N -0.07871 0.25161 0.30071
 C842 C -0.07468 0.26523 0.31638
 N843 N -0.08735 0.28201 0.31867
 N844 N -0.10336 0.28504 0.30585
 C845 C -0.12476 0.72524 0.22369
 N846 N -0.13773 0.70882 0.22092
 N847 N -0.15376 0.70576 0.23371
 C848 C -0.15749 0.71895 0.24984
 N849 N -0.14441 0.73538 0.25254
 N850 N -0.12840 0.73848 0.23974
 C851 C -0.10710 0.72862 0.20958
 N852 N -0.09450 0.74540 0.21194
 N853 N -0.07848 0.74845 0.19913
 C854 C -0.07440 0.73483 0.18347
 N855 N -0.08705 0.71803 0.18117
 N856 N -0.10308 0.71499 0.19396
 C857 C 0.37526 0.22549 0.72407
 N858 N 0.36232 0.20905 0.72127
 N859 N 0.34627 0.20597 0.73402
 C860 C 0.34248 0.21916 0.75014
 N861 N 0.35553 0.23561 0.75287
 N862 N 0.37157 0.23872 0.74010
 C863 C 0.39296 0.22888 0.71001
 N864 N 0.40553 0.24568 0.71240
 N865 N 0.42158 0.24875 0.69964
 C866 C 0.42572 0.23513 0.68399
 N867 N 0.41310 0.21832 0.68165
 N868 N 0.39703 0.21526 0.69439
 C869 C 0.62510 0.27430 0.72422
 N870 N 0.63804 0.29074 0.72142
 N871 N 0.65406 0.29384 0.73421
 C872 C 0.65781 0.28067 0.75036
 N873 N 0.64476 0.26422 0.75308
 N874 N 0.62876 0.26109 0.74028
 C875 C 0.60744 0.27088 0.71013
 N876 N 0.59487 0.25408 0.71252
 N877 N 0.57885 0.25099 0.69973
 C878 C 0.57473 0.26459 0.68406
 N879 N 0.58735 0.28140 0.68172
 N880 N 0.60339 0.28448 0.69449
 C881 C 0.12493 0.77452 0.22320
 N882 N 0.13744 0.79135 0.22077
 N883 N 0.15345 0.79453 0.23357
 C884 C 0.15757 0.78101 0.24931
 N885 N 0.14499 0.76417 0.25169
 N886 N 0.12900 0.76098 0.23889
 C887 C 0.10727 0.77102 0.20912
 N888 N 0.09502 0.75395 0.21128
 N889 N 0.07899 0.75079 0.19853
 C890 C 0.07454 0.76459 0.18312
 N891 N 0.08683 0.78166 0.18101
 N892 N 0.10288 0.78482 0.19375
 C893 C 0.27625 0.12482 0.22544
 N894 N 0.27866 0.13732 0.20859
 N895 N 0.26588 0.15334 0.20544
 C896 C 0.25018 0.15750 0.21899
 N897 N 0.24782 0.14494 0.23584
 N898 N 0.26060 0.12892 0.23901
 C899 C 0.29032 0.10714 0.22891
 N900 N 0.28820 0.09491 0.24600
 N901 N 0.30096 0.07887 0.24914
 C902 C 0.31633 0.07440 0.23532
 N903 N 0.31840 0.08668 0.21822
 N904 N 0.30566 0.10274 0.21508
 C905 C 0.77633 0.62464 0.72522
 N906 N 0.77871 0.63715 0.70838
 N907 N 0.76591 0.65315 0.70523
 C908 C 0.75020 0.65728 0.71879
 N909 N 0.74786 0.64470 0.73564
 N910 N 0.76067 0.62871 0.73880
 C911 C 0.79043 0.60699 0.72869
 N912 N 0.78833 0.59476 0.74579
 N913 N 0.80112 0.57874 0.74893
 C914 C 0.81649 0.57429 0.73510
 N915 N 0.81854 0.58657 0.71799
 N916 N 0.80577 0.60260 0.71486
 C917 C 0.77608 0.37517 0.77471
 N918 N 0.76044 0.37113 0.76112
 N919 N 0.74765 0.35511 0.76423
 C920 C 0.74999 0.34248 0.78104
 N921 N 0.76569 0.34659 0.79461
 N922 N 0.77847 0.36261 0.79152
 C923 C 0.79018 0.39283 0.77131
 N924 N 0.80551 0.39716 0.78517
 N925 N 0.81830 0.41318 0.78209
 C926 C 0.81629 0.42551 0.76502
 N927 N 0.80093 0.42111 0.75116
 N928 N 0.78812 0.40511 0.75424
 C929 C 0.27590 -0.12494 0.27462
 N930 N 0.25986 -0.12859 0.26140
 N931 N 0.24707 -0.14461 0.26450
 C932 C 0.24979 -0.15768 0.28093
 N933 N 0.26593 -0.15394 0.29412
 N934 N 0.27870 -0.13791 0.29105
 C935 C 0.29000 -0.10727 0.27124
 N936 N 0.30561 -0.10323 0.28487
 N937 N 0.31838 -0.08719 0.28183
 C938 C 0.31607 -0.07455 0.26502
 N939 N 0.30042 -0.07865 0.25139
 N940 N 0.28763 -0.09468 0.25445
 C941 C 0.22381 -0.12498 0.72538
 N942 N 0.23987 -0.12865 0.73858
 N943 N 0.25265 -0.14468 0.73545
 C944 C 0.24991 -0.15773 0.71902
 N945 N 0.23376 -0.15397 0.70585
 N946 N 0.22099 -0.13793 0.70895
 C947 C 0.20974 -0.10730 0.72879
 N948 N 0.19411 -0.10322 0.71520
 N949 N 0.18136 -0.08716 0.71828
 C950 C 0.18373 -0.07455 0.73509
 N951 N 0.19939 -0.07869 0.74869
 N952 N 0.21216 -0.09473 0.74560
 C953 C 0.72401 0.37533 0.22522
 N954 N 0.72165 0.36277 0.20842
 N955 N 0.73446 0.34676 0.20534
 C956 C 0.75016 0.34268 0.21892
 N957 N 0.75247 0.35531 0.23572
 N958 N 0.73965 0.37131 0.23883
 C959 C 0.70989 0.39298 0.22863
 N960 N 0.71195 0.40525 0.24569
 N961 N 0.69914 0.42126 0.24878
 C962 C 0.68377 0.42565 0.23493
 N963 N 0.68175 0.41332 0.21786
 N964 N 0.69455 0.39730 0.21477
 C965 C 0.72408 0.62467 0.27427
 N966 N 0.72170 0.63725 0.29106
 N967 N 0.73450 0.65326 0.29414
 C968 C 0.75021 0.65733 0.28057
 N969 N 0.75255 0.64469 0.26377
 N970 N 0.73974 0.62869 0.26067
 C971 C 0.70996 0.60703 0.27087
 N972 N 0.71202 0.59474 0.25382
 N973 N 0.69920 0.57875 0.25074
 C974 C 0.68383 0.57438 0.26460
 N975 N 0.68182 0.58672 0.28167
 N976 N 0.69462 0.60273 0.28474
 C977 C 0.22414 0.12472 0.77442
 N978 N 0.22171 0.13730 0.79121
 N979 N 0.23449 0.15333 0.79430
 C980 C 0.25021 0.15742 0.78075
 N981 N 0.25259 0.14478 0.76396
 N982 N 0.23981 0.12876 0.76085
 C983 C 0.21004 0.10706 0.77102
 N984 N 0.21214 0.09476 0.75397
 N985 N 0.19934 0.07875 0.75090
 C986 C 0.18396 0.07437 0.76474
 N987 N 0.18192 0.08671 0.78179
 N988 N 0.19469 0.10274 0.78487
 C989 C 0.22521 0.27664 0.12431
 N990 N 0.20840 0.27902 0.13688
 N991 N 0.20532 0.26623 0.15290
 C992 C 0.21889 0.25053 0.15699
 N993 N 0.23570 0.24819 0.14436
 N994 N 0.23881 0.26099 0.12835
 C995 C 0.22860 0.29075 0.10665
 N996 N 0.24565 0.28868 0.09435
 N997 N 0.24872 0.30150 0.07834
 C998 C 0.23485 0.31687 0.07398
 N999 N 0.21780 0.31888 0.08633
 N1000 N 0.21474 0.30608 0.10235
 C1001 C 0.72518 0.77644 0.62421
 N1002 N 0.73878 0.76080 0.62826
 N1003 N 0.73566 0.74799 0.64427
 C1004 C 0.71883 0.75032 0.65687
 N1005 N 0.70525 0.76601 0.65277
 N1006 N 0.70835 0.77881 0.63675
 C1007 C 0.72860 0.79055 0.60656
 N1008 N 0.71474 0.80588 0.60222
 N1009 N 0.71783 0.81867 0.58620
 C1010 C 0.73491 0.81666 0.57388
 N1011 N 0.74876 0.80129 0.57828
 N1012 N 0.74567 0.78848 0.59429
 C1013 C 0.77477 0.77682 0.37469
 N1014 N 0.76121 0.76115 0.37064
 N1015 N 0.76440 0.74833 0.35466
 C1016 C 0.78125 0.75067 0.34208
 N1017 N 0.79478 0.76640 0.34619
 N1018 N 0.79161 0.77921 0.36218
 C1019 C 0.77128 0.79093 0.39234
 N1020 N 0.78510 0.80628 0.39671
 N1021 N 0.78195 0.81904 0.41274
 C1022 C 0.76486 0.81697 0.42503
 N1023 N 0.75104 0.80159 0.42059
 N1024 N 0.75419 0.78881 0.40457
 C1025 C 0.27452 0.27702 -0.12516
 N1026 N 0.26098 0.26133 -0.12921
 N1027 N 0.26419 0.24850 -0.14517
 C1028 C 0.28104 0.25084 -0.15774
 N1029 N 0.29456 0.26659 -0.15364
 N1030 N 0.29137 0.27941 -0.13767
 C1031 C 0.27102 0.29114 -0.10753
 N1032 N 0.28484 0.30650 -0.10317
 N1033 N 0.28168 0.31928 -0.08715
 C1034 C 0.26459 0.31721 -0.07485
 N1035 N 0.25079 0.30182 -0.07928
 N1036 N 0.25394 0.28902 -0.09529
 C1037 C 0.72554 0.22301 -0.12473
 N1038 N 0.73909 0.23870 -0.12879
 N1039 N 0.73590 0.25151 -0.14478
 C1040 C 0.71906 0.24914 -0.15736
 N1041 N 0.70554 0.23340 -0.15324
 N1042 N 0.70871 0.22060 -0.13725
 C1043 C 0.72903 0.20891 -0.10708
 N1044 N 0.71522 0.19355 -0.10271
 N1045 N 0.71837 0.18079 -0.08667
 C1046 C 0.73546 0.18286 -0.07438
 N1047 N 0.74927 0.19826 -0.07882
 N1048 N 0.74611 0.21104 -0.09484
 C1049 C 0.22555 0.72387 0.37524
 N1050 N 0.20875 0.72147 0.36267
 N1051 N 0.20565 0.73428 0.34666
 C1052 C 0.21920 0.75000 0.34259
 N1053 N 0.23600 0.75235 0.35523
 N1054 N 0.23912 0.73954 0.37123
 C1055 C 0.22896 0.70974 0.39289
 N1056 N 0.24600 0.71181 0.40518
 N1057 N 0.24909 0.69899 0.42118
 C1058 C 0.23524 0.68361 0.42554
 N1059 N 0.21819 0.68159 0.41320
 N1060 N 0.21511 0.69439 0.39718
 C1061 C 0.27426 0.72388 0.62464
 N1062 N 0.26066 0.73953 0.62866
 N1063 N 0.26376 0.75234 0.64466
 C1064 C 0.28056 0.74999 0.65730
 N1065 N 0.29413 0.73429 0.65322
 N1066 N 0.29105 0.72149 0.63721
 C1067 C 0.27087 0.70976 0.60699
 N1068 N 0.28474 0.69443 0.60269
 N1069 N 0.28169 0.68163 0.58667
 C1070 C 0.26464 0.68363 0.57432
 N1071 N 0.25077 0.69900 0.57868
 N1072 N 0.25382 0.71182 0.59469
 C1073 C 0.77514 0.22324 0.12477
 N1074 N 0.76155 0.23890 0.12878
 N1075 N 0.76466 0.25172 0.14476
 C1076 C 0.78147 0.24940 0.15739
 N1077 N 0.79504 0.23369 0.15333
 N1078 N 0.79195 0.22087 0.13733
 C1079 C 0.77173 0.20912 0.10712
 N1080 N 0.78559 0.19377 0.10281
 N1081 N 0.78251 0.18099 0.08678
 C1082 C 0.76545 0.18302 0.07445
 N1083 N 0.75160 0.19839 0.07883
 N1084 N 0.75468 0.21120 0.09484
 C1085 C 0.47578 0.37455 0.52677
 N1086 N 0.45896 0.38711 0.52916
 N1087 N 0.45585 0.40311 0.51634
 C1088 C 0.46941 0.40719 0.50062
 N1089 N 0.48622 0.39456 0.49828
 N1090 N 0.48935 0.37857 0.51110
 C1091 C 0.47920 0.35691 0.54090
 N1092 N 0.49624 0.34461 0.53881
 N1093 N 0.49933 0.32860 0.55162
 C1094 C 0.48549 0.32424 0.56702
 N1095 N 0.46844 0.33659 0.56905
 N1096 N 0.46535 0.35261 0.55626
 C1097 C -0.02464 0.87436 0.02629
 N1098 N -0.01106 0.87841 0.01063
 N1099 N -0.01418 0.89445 -0.00214
 C1100 C -0.03097 0.90709 0.00025
 N1101 N -0.04452 0.90299 0.01597
 N1102 N -0.04143 0.88694 0.02873
 C1103 C -0.02123 0.85667 0.04035
 N1104 N -0.03506 0.85233 0.05571
 N1105 N -0.03198 0.83627 0.06845
 C1106 C -0.01494 0.82391 0.06635
 N1107 N -0.00112 0.82831 0.05096
 N1108 N -0.00420 0.84436 0.03820
 C1109 C 0.02450 0.62453 0.02636
 N1110 N 0.04093 0.61157 0.02918
 N1111 N 0.04405 0.59556 0.01638
 C1112 C 0.03090 0.59184 0.00020
 N1113 N 0.01446 0.60491 -0.00253
 N1114 N 0.01131 0.62090 0.01028
 C1115 C 0.02107 0.64219 0.04045
 N1116 N 0.00427 0.65477 0.03804
 N1117 N 0.00118 0.67080 0.05082
 C1118 C 0.01477 0.67492 0.06649
 N1119 N 0.03157 0.66229 0.06885
 N1120 N 0.03466 0.64624 0.05610
 C1121 C 0.52468 0.12500 0.52693
 N1122 N 0.51109 0.12099 0.51127
 N1123 N 0.51421 0.10499 0.49845
 C1124 C 0.53102 0.09236 0.50078
 N1125 N 0.54458 0.09643 0.51649
 N1126 N 0.54149 0.11243 0.52930
 C1127 C 0.52128 0.14266 0.54104
 N1128 N 0.53513 0.14696 0.55639
 N1129 N 0.53206 0.16300 0.56916
 C1130 C 0.51502 0.17536 0.56712
 N1131 N 0.50118 0.17099 0.55173
 N1132 N 0.50425 0.15497 0.53894
 C1133 C -0.02475 0.12592 0.47373
 N1134 N -0.04155 0.11335 0.47134
 N1135 N -0.04464 0.09733 0.48412
 C1136 C -0.03108 0.09322 0.49982
 N1137 N -0.01427 0.10585 0.50217
 N1138 N -0.01116 0.12187 0.48938
 C1139 C -0.02135 0.14358 0.45964
 N1140 N -0.00431 0.15588 0.46174
 N1141 N -0.00123 0.17191 0.44894
 C1142 C -0.01507 0.17628 0.43356
 N1143 N -0.03212 0.16394 0.43152
 N1144 N -0.03520 0.14790 0.44429
 C1145 C 0.47534 0.62497 0.97386
 N1146 N 0.48855 0.62134 0.98992
 N1147 N 0.48540 0.60535 1.00275
 C1148 C 0.46895 0.59231 1.00005
 N1149 N 0.45578 0.59604 0.98389
 N1150 N 0.45889 0.61204 0.97108
 C1151 C 0.47876 0.64262 0.95974
 N1152 N 0.46514 0.64665 0.94411
 N1153 N 0.46822 0.66268 0.93132
 C1154 C 0.48505 0.67528 0.93362
 N1155 N 0.49866 0.67117 0.94927
 N1156 N 0.49558 0.65517 0.96209
 C1157 C 0.52457 0.87435 0.97392
 N1158 N 0.51099 0.87840 0.98958
 N1159 N 0.51415 0.89439 1.00239
 C1160 C 0.53100 0.90697 1.00006
 N1161 N 0.54455 0.90286 0.98434
 N1162 N 0.54141 0.88686 0.97154
 C1163 C 0.52111 0.85671 0.95980
 N1164 N 0.53495 0.85237 0.94445
 N1165 N 0.53183 0.83636 0.93165
 C1166 C 0.51474 0.82406 0.93369
 N1167 N 0.50091 0.82847 0.94908
 N1168 N 0.50404 0.84446 0.96189
 C1169 C 0.02430 0.37542 0.47369
 N1170 N 0.01114 0.37901 0.48980
 N1171 N 0.01431 0.39497 0.50264
 C1172 C 0.03075 0.40803 0.49991
 N1173 N 0.04387 0.40434 0.48370
 N1174 N 0.04073 0.38837 0.47087
 C1175 C 0.02084 0.35780 0.45955
 N1176 N 0.03441 0.35379 0.44387
 N1177 N 0.03130 0.33777 0.43108
 C1178 C 0.01449 0.32515 0.43343
 N1179 N 0.00093 0.32923 0.44914
 N1180 N 0.00404 0.34522 0.46196
 C1181 C 0.37485 0.52637 0.47560
 N1182 N 0.37891 0.51074 0.48921
 N1183 N 0.39492 0.49794 0.48610
 C1184 C 0.40753 0.50025 0.46928
 N1185 N 0.40342 0.51594 0.45569
 N1186 N 0.38740 0.52874 0.45878
 C1187 C 0.35719 0.54048 0.47900
 N1188 N 0.35285 0.55579 0.46512
 N1189 N 0.33681 0.56857 0.46818
 C1190 C 0.32448 0.56657 0.48525
 N1191 N 0.32888 0.55122 0.49913
 N1192 N 0.34491 0.53842 0.49606
 C1193 C 0.87537 0.02581 -0.02463
 N1194 N 0.87899 0.00970 -0.01147
 N1195 N 0.89498 -0.00311 -0.01462
 C1196 C 0.90806 -0.00036 -0.03105
 N1197 N 0.90435 0.01584 -0.04417
 N1198 N 0.88835 0.02864 -0.04104
 C1199 C 0.85772 0.03992 -0.02118
 N1200 N 0.85368 0.05559 -0.03475
 N1201 N 0.83765 0.06836 -0.03165
 C1202 C 0.82503 0.06600 -0.01483
 N1203 N 0.82913 0.05031 -0.00126
 N1204 N 0.84515 0.03751 -0.00438
 C1205 C 0.62572 0.02595 0.02498
 N1206 N 0.61319 0.02836 0.04181
 N1207 N 0.59715 0.01560 0.04493
 C1208 C 0.59300 -0.00009 0.03137
 N1209 N 0.60560 -0.00245 0.01454
 N1210 N 0.62163 0.01031 0.01140
 C1211 C 0.64340 0.04001 0.02153
 N1212 N 0.65565 0.03789 0.00445
 N1213 N 0.67169 0.05066 0.00133
 C1214 C 0.67614 0.06602 0.01516
 N1215 N 0.66384 0.06809 0.03224
 N1216 N 0.64778 0.05535 0.03537
 C1217 C 0.12529 0.52624 0.52439
 N1218 N 0.12123 0.51062 0.51078
 N1219 N 0.10523 0.49781 0.51389
 C1220 C 0.09263 0.50012 0.53073
 N1221 N 0.09674 0.51579 0.54432
 N1222 N 0.11275 0.52859 0.54122
 C1223 C 0.14294 0.54035 0.52098
 N1224 N 0.14727 0.55567 0.53486
 N1225 N 0.16329 0.56846 0.53178
 C1226 C 0.17560 0.56648 0.51470
 N1227 N 0.17121 0.55113 0.50082
 N1228 N 0.15520 0.53831 0.50390
 C1229 C 0.12472 0.47426 -0.02451
 N1230 N 0.11173 0.47145 -0.04090
 N1231 N 0.09569 0.48423 -0.04397
 C1232 C 0.09198 0.50039 -0.03080
 N1233 N 0.10508 0.50312 -0.01439
 N1234 N 0.12110 0.49032 -0.01130
 C1235 C 0.14239 0.46016 -0.02113
 N1236 N 0.15500 0.46253 -0.00436
 N1237 N 0.17102 0.44972 -0.00131
 C1238 C 0.17510 0.43406 -0.01493
 N1239 N 0.16245 0.43175 -0.03172
 N1240 N 0.14641 0.44453 -0.03476
 C1241 C 0.62487 0.97391 0.47532
 N1242 N 0.62125 0.98997 0.48854
 N1243 N 0.60523 1.00276 0.48546
 C1244 C 0.59212 1.00004 0.46906
 N1245 N 0.59583 0.98389 0.45588
 N1246 N 0.61187 0.97111 0.45893
 C1247 C 0.64255 0.95982 0.47869
 N1248 N 0.64658 0.94420 0.46506
 N1249 N 0.66264 0.93144 0.46810
 C1250 C 0.67528 0.93376 0.48489
 N1251 N 0.67119 0.94941 0.49851
 N1252 N 0.65515 0.96220 0.49547
 C1253 C 0.87451 0.97394 0.52452
 N1254 N 0.88704 0.97152 0.54134
 N1255 N 0.90305 0.98431 0.54448
 C1256 C 0.90716 1.00004 0.53095
 N1257 N 0.89456 1.00241 0.51413
 N1258 N 0.87856 0.98962 0.51097
 C1259 C 0.85685 0.95984 0.52105
 N1260 N 0.84460 0.96197 0.50398
 N1261 N 0.82859 0.94918 0.50085
 C1262 C 0.82417 0.93377 0.51465
 N1263 N 0.83648 0.93170 0.53173
 N1264 N 0.85250 0.94447 0.53487
 C1265 C 0.37438 0.47416 0.02444
 N1266 N 0.38693 0.47173 0.04125
 N1267 N 0.40297 0.48449 0.04435
 C1268 C 0.40708 0.50021 0.03081
 N1269 N 0.39446 0.50259 0.01400
 N1270 N 0.37843 0.48982 0.01087
 C1271 C 0.35670 0.46008 0.02101
 N1272 N 0.34443 0.46221 0.00396
 N1273 N 0.32840 0.44943 0.00084
 C1274 C 0.32400 0.43403 0.01466
 N1275 N 0.33632 0.43196 0.03172
 N1276 N 0.35236 0.44472 0.03483
 C1277 C 0.52672 0.47535 0.37475
 N1278 N 0.51108 0.48894 0.37884
 N1279 N 0.49829 0.48581 0.39485
 C1280 C 0.50064 0.46897 0.40745
 N1281 N 0.51633 0.45540 0.40331
 N1282 N 0.52911 0.45852 0.38728
 C1283 C 0.54080 0.47878 0.35707
 N1284 N 0.55612 0.46492 0.35269
 N1285 N 0.56887 0.46803 0.33663
 C1286 C 0.56683 0.48512 0.32434
 N1287 N 0.55147 0.49897 0.32879
 N1288 N 0.53871 0.49587 0.34483
 C1289 C 0.02652 -0.02459 0.87462
 N1290 N 0.01087 -0.01100 0.87866
 N1291 N -0.00197 -0.01415 0.89464
 C1292 C 0.00035 -0.03100 0.90723
 N1293 N 0.01605 -0.04456 0.90313
 N1294 N 0.02888 -0.04143 0.88714
 C1295 C 0.04066 -0.02115 0.85699
 N1296 N 0.05601 -0.03501 0.85266
 N1297 N 0.06882 -0.03190 0.83666
 C1298 C 0.06682 -0.01482 0.82435
 N1299 N 0.05144 -0.00097 0.82874
 N1300 N 0.03861 -0.00407 0.84473
 C1301 C 0.02648 0.02479 0.62538
 N1302 N 0.02884 0.04163 0.61286
 N1303 N 0.01602 0.04477 0.59687
 C1304 C 0.00030 0.03122 0.59278
 N1305 N -0.00202 0.01438 0.60537
 N1306 N 0.01081 0.01122 0.62134
 C1307 C 0.04061 0.02134 0.64301
 N1308 N 0.03854 0.00426 0.65526
 N1309 N 0.05136 0.00114 0.67125
 C1310 C 0.06676 0.01497 0.67563
 N1311 N 0.06878 0.03205 0.66332
 N1312 N 0.05597 0.03517 0.64732
 C1313 C 0.52653 0.52477 0.12508
 N1314 N 0.51086 0.51121 0.12103
 N1315 N 0.49805 0.51436 0.10504
 C1316 C 0.50040 0.53119 0.09244
 N1317 N 0.51612 0.54473 0.09654
 N1318 N 0.52893 0.54159 0.11254
 C1319 C 0.54063 0.52132 0.14273
 N1320 N 0.55597 0.53516 0.14708
 N1321 N 0.56875 0.53205 0.16311
 C1322 C 0.56670 0.51497 0.17542
 N1323 N 0.55133 0.50114 0.17101
 N1324 N 0.53854 0.50425 0.15499
 C1325 C 0.47361 -0.02481 0.12579
 N1326 N 0.47122 -0.04161 0.11323
 N1327 N 0.48404 -0.04473 0.09724
 C1328 C 0.49978 -0.03120 0.09317
 N1329 N 0.50212 -0.01439 0.10579
 N1330 N 0.48929 -0.01125 0.12177
 C1331 C 0.45947 -0.02137 0.14342
 N1332 N 0.46155 -0.00433 0.15571
 N1333 N 0.44872 -0.00123 0.17170
 C1334 C 0.43331 -0.01505 0.17605
 N1335 N 0.43128 -0.03210 0.16371
 N1336 N 0.44409 -0.03520 0.14770
 C1337 C 0.97347 0.47519 0.62529
 N1338 N 0.97105 0.45840 0.61272
 N1339 N 0.98381 0.45531 0.59667
 C1340 C 0.99952 0.46887 0.59255
 N1341 N 1.00189 0.48566 0.60519
 N1342 N 0.98912 0.48877 0.62123
 C1343 C 0.95941 0.47860 0.64298
 N1344 N 0.96153 0.49564 0.65527
 N1345 N 0.94877 0.49873 0.67132
 C1346 C 0.93340 0.48489 0.67574
 N1347 N 0.93133 0.46783 0.66340
 N1348 N 0.94407 0.46475 0.64734
 C1349 C 0.97345 0.52451 0.87503
 N1350 N 0.98911 0.51093 0.87909
 N1351 N 1.00191 0.51407 0.89509
 C1352 C 0.99956 0.53089 0.90770
 N1353 N 0.98384 0.54444 0.90359
 N1354 N 0.97105 0.54132 0.88758
 C1355 C 0.95936 0.52107 0.85737
 N1356 N 0.94402 0.53492 0.85300
 N1357 N 0.93127 0.53182 0.83696
 C1358 C 0.93331 0.51474 0.82466
 N1359 N 0.94868 0.50089 0.82909
 N1360 N 0.96146 0.50400 0.84512
 C1361 C 0.47349 0.02434 0.37501
 N1362 N 0.48916 0.01076 0.37901
 N1363 N 0.50200 0.01389 0.39498
 C1364 C 0.49968 0.03070 0.40761
 N1365 N 0.48395 0.04426 0.40355
 N1366 N 0.47112 0.04115 0.38757
 C1367 C 0.45934 0.02092 0.35739
 N1368 N 0.44398 0.03478 0.35309
 N1369 N 0.43117 0.03169 0.33709
 C1370 C 0.43318 0.01462 0.32476
 N1371 N 0.44857 0.00078 0.32912
 N1372 N 0.46140 0.00387 0.34511
   
