data_POSCAR
  _audit_creation_date              2014-09-24
  _audit_creation_method            'ToBaCCo'
  _symmetry_space_group_name_H-M    'P1'
  _symmetry_Int_Tables_number       1
  _symmetry_cell_setting            triclinic
  loop_
  _symmetry_equiv_pos_as_xyz
 x,y,z
_cell_length_a 50.6131
_cell_length_b 50.6158
_cell_length_c 44.7941
_cell_angle_alpha 90.253100
_cell_angle_beta 89.833400
_cell_angle_gamma 90.820900
loop_
  _atom_site_label
  _atom_site_type_symbol
  _atom_site_fract_x
  _atom_site_fract_y
  _atom_site_fract_z
C1 C 0.37273 0.02275 0.29740
 C2 C 0.35603 0.04548 0.28608
 C3 C 0.34149 0.03906 0.26151
 C4 C 0.34482 0.01048 0.25047
 C5 C 0.35323 -0.00020 0.30256
 C6 C 0.33872 -0.00668 0.27794
 C7 C 0.38949 0.01419 0.27053
 C8 C 0.37476 0.00770 0.24603
 H9 H 0.35620 0.06508 0.29609
 H10 H 0.33279 0.00536 0.23048
 H11 H 0.35301 -0.01208 0.32271
 H12 H 0.41091 0.01308 0.27093
 C13 C 0.12265 -0.01782 0.77218
 C14 C 0.13789 -0.04144 0.76014
 C15 C 0.15284 -0.03561 0.73565
 C16 C 0.15110 -0.00671 0.72535
 C17 C 0.14376 0.00365 0.77791
 C18 C 0.15863 0.00949 0.75329
 C19 C 0.10717 -0.00828 0.74727
 C20 C 0.12295 -0.00211 0.72157
 H21 H 0.13790 -0.06067 0.77085
 H22 H 0.16338 -0.00215 0.70534
 H23 H 0.14500 0.01504 0.79850
 H24 H 0.08599 -0.00511 0.74832
 C25 C 0.62477 0.48275 0.27479
 C26 C 0.63923 0.45899 0.26207
 C27 C 0.65396 0.46471 0.23744
 C28 C 0.65291 0.49371 0.22756
 C29 C 0.64629 0.50379 0.28026
 C30 C 0.66092 0.50955 0.25549
 C31 C 0.60839 0.49344 0.24886
 C32 C 0.62327 0.49926 0.22419
 H33 H 0.63900 0.43965 0.27255
 H34 H 0.66496 0.49822 0.20739
 H35 H 0.64788 0.51512 0.30087
 H36 H 0.58726 0.49678 0.25014
 C37 C 0.87302 0.52243 0.79673
 C38 C 0.85636 0.54518 0.78539
 C39 C 0.84171 0.53873 0.76090
 C40 C 0.84492 0.51011 0.74995
 C41 C 0.85346 0.49956 0.80205
 C42 C 0.83885 0.49305 0.77751
 C43 C 0.88967 0.51373 0.76982
 C44 C 0.87484 0.50722 0.74540
 H45 H 0.85660 0.56480 0.79535
 H46 H 0.83281 0.50497 0.73004
 H47 H 0.85327 0.48773 0.82225
 H48 H 0.91109 0.51257 0.77014
 C49 C 0.28085 0.41538 0.99701
 C50 C 0.27160 0.39781 1.02294
 C51 C 0.25111 0.38123 1.01550
 C52 C 0.24201 0.38350 0.98295
 C53 C 0.28745 0.39633 0.97164
 C54 C 0.26724 0.37968 0.96433
 C55 C 0.25597 0.42975 0.98688
 C56 C 0.23556 0.41294 0.97971
 H57 H 0.27914 0.39971 1.04555
 H58 H 0.22554 0.36980 0.97676
 H59 H 0.30649 0.39607 0.96035
 H60 H 0.25354 0.45095 0.98917
 C61 C 0.76962 0.07527 0.98477
 C62 C 0.76244 0.09432 0.95965
 C63 C 0.74303 0.11149 0.96752
 C64 C 0.73279 0.10809 0.99972
 C65 C 0.77708 0.09309 1.01122
 C66 C 0.75784 0.11025 1.01906
 C67 C 0.74503 0.06218 0.99324
 C68 C 0.72478 0.08035 1.00145
 H69 H 0.77143 0.09393 0.93759
 H70 H 0.71714 0.12224 1.00620
 H71 H 0.79558 0.09164 1.02335
 H72 H 0.74147 0.04105 0.99082
 C73 C 0.27147 0.57600 0.48411
 C74 C 0.26461 0.59531 0.45922
 C75 C 0.24499 0.61226 0.46687
 C76 C 0.23417 0.60856 0.49871
 C77 C 0.27814 0.59333 0.51114
 C78 C 0.25873 0.61030 0.51877
 C79 C 0.24533 0.56204 0.49209
 C80 C 0.22582 0.57924 0.49968
 H81 H 0.27380 0.59507 0.43726
 H82 H 0.21831 0.62252 0.50500
 H83 H 0.29642 0.59183 0.52369
 H84 H 0.24205 0.54086 0.48999
 C85 C 0.78073 0.91566 0.49845
 C86 C 0.77137 0.89817 0.52440
 C87 C 0.75089 0.88160 0.51692
 C88 C 0.74191 0.88379 0.48431
 C89 C 0.78740 0.89655 0.47318
 C90 C 0.76720 0.87990 0.46583
 C91 C 0.75591 0.93004 0.48815
 C92 C 0.73551 0.91323 0.48095
 H93 H 0.77887 0.90010 0.54702
 H94 H 0.72544 0.87009 0.47810
 H95 H 0.80650 0.89621 0.46201
 H96 H 0.75350 0.95125 0.49037
 C97 C -0.00981 0.28376 0.39487
 C98 C 0.01343 0.28654 0.37288
 C99 C 0.01651 0.26498 0.35475
 C100 C -0.00408 0.24265 0.36029
 C101 C -0.03278 0.27790 0.37657
 C102 C -0.02970 0.25538 0.35760
 C103 C -0.00435 0.25822 0.41204
 C104 C -0.00127 0.23665 0.39395
 H105 H 0.02684 0.30350 0.37251
 H106 H -0.00165 0.22512 0.34554
 H107 H -0.05074 0.28943 0.37719
 H108 H -0.00274 0.25733 0.43620
 C109 C 0.01361 0.77240 0.10564
 C110 C -0.01003 0.77378 0.12695
 C111 C -0.01231 0.75266 0.14558
 C112 C 0.00940 0.73189 0.14130
 C113 C 0.03763 0.76888 0.12581
 C114 C 0.03552 0.74774 0.14445
 C115 C 0.01024 0.74594 0.08912
 C116 C 0.00801 0.72473 0.10781
 H117 H -0.02434 0.78959 0.12654
 H118 H 0.00763 0.71469 0.15655
 H119 H 0.05493 0.78185 0.12523
 H120 H 0.00973 0.74413 0.06496
 C121 C 0.51366 0.27269 0.60721
 C122 C 0.48987 0.27403 0.62830
 C123 C 0.48742 0.25285 0.64682
 C124 C 0.50914 0.23207 0.64268
 C125 C 0.53753 0.26907 0.62758
 C126 C 0.53526 0.24788 0.64611
 C127 C 0.51037 0.24628 0.59056
 C128 C 0.50798 0.22501 0.60914
 H129 H 0.47553 0.28980 0.62774
 H130 H 0.50725 0.21483 0.65785
 H131 H 0.55488 0.28198 0.62714
 H132 H 0.50999 0.24455 0.56638
 C133 C 0.49155 0.78326 0.89784
 C134 C 0.51473 0.78602 0.87577
 C135 C 0.51788 0.76438 0.85780
 C136 C 0.49746 0.74195 0.86361
 C137 C 0.46741 0.77711 0.87822
 C138 C 0.47042 0.75549 0.86024
 C139 C 0.49643 0.75914 0.91426
 C140 C 0.49972 0.73647 0.89550
 H141 H 0.52796 0.80311 0.87511
 H142 H 0.49992 0.72436 0.84896
 H143 H 0.44956 0.78878 0.87853
 H144 H 0.49781 0.75833 0.93846
 C145 C -0.22732 0.62289 0.95326
 C146 C -0.20466 0.60605 0.96450
 C147 C -0.21111 0.59148 0.98901
 C148 C -0.23966 0.59493 1.00007
 C149 C -0.25037 0.60352 0.94802
 C150 C -0.25689 0.58898 0.97257
 C151 C -0.23576 0.63963 0.98022
 C152 C -0.24228 0.62488 1.00465
 H153 H -0.18507 0.60616 0.95450
 H154 H -0.24480 0.58288 1.02000
 H155 H -0.26228 0.60340 0.92787
 H156 H -0.23676 0.66106 0.97991
 C157 C -0.26756 0.37219 0.47758
 C158 C -0.29121 0.38719 0.48992
 C159 C -0.28533 0.40202 0.51453
 C160 C -0.25634 0.40041 0.52461
 C161 C -0.24627 0.39349 0.47193
 C162 C -0.24038 0.40823 0.49666
 C163 C -0.25775 0.35662 0.50227
 C164 C -0.25152 0.37228 0.52808
 H165 H -0.31049 0.38720 0.47929
 H166 H -0.25173 0.41259 0.54472
 H167 H -0.23505 0.39497 0.45126
 H168 H -0.25455 0.33545 0.50103
 C169 C 0.23254 -0.12607 -0.02332
 C170 C 0.20869 -0.11112 -0.01143
 C171 C 0.21408 -0.09656 0.01349
 C172 C 0.24283 -0.09835 0.02434
 C173 C 0.25401 -0.10479 -0.02815
 C174 C 0.25942 -0.09031 -0.00308
 C175 C 0.24178 -0.14191 0.00143
 C176 C 0.24751 -0.12653 0.02760
 H177 H 0.18961 -0.11101 -0.02253
 H178 H 0.24703 -0.08638 0.04471
 H179 H 0.26576 -0.10324 -0.04844
 H180 H 0.24526 -0.16302 -0.00009
 C181 C 0.27236 1.12244 0.45219
 C182 C 0.29512 1.10580 0.46356
 C183 C 0.28866 1.09112 0.48798
 C184 C 0.26002 1.09427 0.49884
 C185 C 0.24952 1.10285 0.44674
 C186 C 0.24300 1.08821 0.47121
 C187 C 0.26360 1.13904 0.47912
 C188 C 0.25708 1.12418 0.50348
 H189 H 0.31476 1.10611 0.45369
 H190 H 0.25488 1.08214 0.51870
 H191 H 0.23770 1.10268 0.42651
 H192 H 0.26240 1.16045 0.47886
 C193 C 0.16552 0.53095 0.25264
 C194 C 0.14802 0.52167 0.22662
 C195 C 0.13141 0.50120 0.23399
 C196 C 0.13360 0.49215 0.26656
 C197 C 0.14641 0.53761 0.27791
 C198 C 0.12974 0.51741 0.28515
 C199 C 0.17986 0.50609 0.26286
 C200 C 0.16303 0.48570 0.26995
 H201 H 0.14997 0.52918 0.20403
 H202 H 0.11988 0.47569 0.27269
 H203 H 0.14608 0.55669 0.28914
 H204 H 0.20107 0.50365 0.26064
 C205 C -0.17445 1.01999 0.26482
 C206 C -0.15544 1.01279 0.28999
 C207 C -0.13841 0.99324 0.28220
 C208 C -0.14189 0.98289 0.25002
 C209 C -0.15660 1.02723 0.23837
 C210 C -0.13957 1.00786 0.23060
 C211 C -0.18771 0.99545 0.25642
 C212 C -0.16967 0.97505 0.24829
 H213 H -0.15580 1.02183 0.31204
 H214 H -0.12783 0.96713 0.24362
 H215 H -0.15799 1.04567 0.22613
 H216 H -0.20886 0.99204 0.25881
 C217 C 0.32568 0.52081 -0.23437
 C218 C 0.34465 0.51373 -0.20920
 C219 C 0.36184 0.49434 -0.21686
 C220 C 0.35871 0.48392 -0.24897
 C221 C 0.34339 0.52796 -0.26090
 C222 C 0.36060 0.50875 -0.26853
 C223 C 0.31201 0.49470 -0.24315
 C224 C 0.32945 0.47541 -0.25074
 H225 H 0.34409 0.52272 -0.18713
 H226 H 0.37286 0.46824 -0.25524
 H227 H 0.34186 0.54633 -0.27324
 H228 H 0.29080 0.49131 -0.24176
 C229 C 0.66578 0.03057 -0.24652
 C230 C 0.64841 0.02129 -0.27265
 C231 C 0.63174 0.00085 -0.26538
 C232 C 0.63373 -0.00818 -0.23279
 C233 C 0.64653 0.03726 -0.22140
 C234 C 0.62979 0.01710 -0.21426
 C235 C 0.68003 0.00571 -0.23617
 C236 C 0.66314 -0.01466 -0.22918
 H237 H 0.65045 0.02884 -0.29523
 H238 H 0.61996 -0.02462 -0.22675
 H239 H 0.64614 0.05636 -0.21020
 H240 H 0.70125 0.00325 -0.23823
 C241 C 0.03275 0.24119 0.85231
 C242 C 0.03569 0.26428 0.87451
 C243 C 0.01412 0.26749 0.89254
 C244 C -0.00843 0.24721 0.88665
 C245 C 0.02652 0.21702 0.87180
 C246 C 0.00496 0.22009 0.88983
 C247 C 0.00862 0.24625 0.83596
 C248 C -0.01398 0.24960 0.85478
 H249 H 0.05284 0.27744 0.87519
 H250 H -0.02597 0.24972 0.90135
 H251 H 0.03808 0.19909 0.87135
 H252 H 0.00774 0.24770 0.81178
 C253 C 0.52252 0.26381 0.14387
 C254 C 0.52372 0.24013 0.12255
 C255 C 0.50252 0.23791 0.10398
 C256 C 0.48186 0.25972 0.10831
 C257 C 0.51902 0.28782 0.12372
 C258 C 0.49781 0.28578 0.10514
 C259 C 0.49609 0.26056 0.16046
 C260 C 0.47480 0.25839 0.14183
 H261 H 0.53943 0.22573 0.12297
 H262 H 0.46461 0.25801 0.09311
 H263 H 0.53203 0.30508 0.12431
 H264 H 0.49437 0.26003 0.18463
 C265 C 0.02247 0.76359 0.64363
 C266 C 0.02372 0.73981 0.62246
 C267 C 0.00251 0.73743 0.60394
 C268 C -0.01821 0.75920 0.60816
 C269 C 0.01888 0.78749 0.62333
 C270 C -0.00235 0.78528 0.60479
 C271 C -0.00392 0.76034 0.66028
 C272 C -0.02523 0.75802 0.64170
 H273 H 0.03950 0.72547 0.62293
 H274 H -0.03548 0.75736 0.59299
 H275 H 0.03185 0.80478 0.62378
 H276 H -0.00561 0.75995 0.68445
 C277 C 0.53441 0.74141 0.35376
 C278 C 0.53719 0.76458 0.37579
 C279 C 0.51563 0.76780 0.39377
 C280 C 0.49316 0.74747 0.38814
 C281 C 0.52803 0.71730 0.37317
 C282 C 0.50650 0.72039 0.39116
 C283 C 0.50892 0.74672 0.33654
 C284 C 0.48734 0.74995 0.35447
 H285 H 0.55427 0.77782 0.37638
 H286 H 0.47560 0.75001 0.40277
 H287 H 0.53957 0.69936 0.37276
 H288 H 0.50806 0.74809 0.31236
 B289 B -0.02019 0.01320 1.02928
 B290 B -0.03184 0.00567 0.99551
 B291 B -0.00963 0.03012 0.99955
 B292 B 0.01199 0.02180 1.02645
 B293 B 0.00256 -0.00892 1.03879
 B294 B -0.02504 -0.01869 1.01957
 B295 B 0.01519 -0.01286 0.97982
 B296 B 0.02690 -0.00534 1.01356
 B297 B 0.00465 -0.02968 1.00945
 B298 B -0.01692 -0.02139 0.98265
 B299 B -0.00750 0.00927 0.97025
 B300 B 0.02016 0.01903 0.98946
 B301 B 0.48155 0.51392 0.53140
 B302 B 0.47008 0.50644 0.49754
 B303 B 0.49235 0.53082 0.50177
 B304 B 0.51377 0.52241 0.52884
 B305 B 0.50416 0.49171 0.54109
 B306 B 0.47665 0.48205 0.52164
 B307 B 0.51714 0.48776 0.48222
 B308 B 0.52867 0.49522 0.51605
 B309 B 0.50636 0.47096 0.51175
 B310 B 0.48498 0.47933 0.48479
 B311 B 0.49459 0.50997 0.47247
 B312 B 0.52216 0.51963 0.49191
 B313 B 0.51665 0.97163 0.54512
 B314 B 0.53110 0.97907 0.51270
 B315 B 0.50581 0.95760 0.51360
 B316 B 0.48391 0.96744 0.53977
 B317 B 0.49641 0.99615 0.55497
 B318 B 0.52609 1.00306 0.53813
 B319 B 0.48793 1.00437 0.49573
 B320 B 0.47340 0.99693 0.52806
 B321 B 0.49874 1.01836 0.52717
 B322 B 0.52058 1.00851 0.50105
 B323 B 0.50807 0.97990 0.48583
 B324 B 0.47843 0.97294 0.50263
 B325 B 0.01665 0.47102 1.04454
 B326 B 0.03107 0.47839 1.01209
 B327 B 0.00572 0.45700 1.01306
 B328 B -0.01611 0.46694 1.03926
 B329 B -0.00351 0.49562 1.05440
 B330 B 0.02617 0.50243 1.03749
 B331 B -0.01205 0.50382 0.99517
 B332 B -0.02656 0.49645 1.02754
 B333 B -0.00116 0.51780 1.02657
 B334 B 0.02062 0.50786 1.00042
 B335 B 0.00800 0.47927 0.98526
 B336 B -0.02164 0.47242 1.00212
 B337 B 0.00036 0.52152 0.47782
 B338 B 0.01638 0.51728 0.50983
 B339 B -0.00802 0.53899 0.50792
 B340 B -0.03176 0.52695 0.48506
 B341 B -0.02138 0.49667 0.47299
 B342 B 0.00887 0.49094 0.48835
 B343 B -0.02677 0.49489 0.53354
 B344 B -0.04278 0.49920 0.50154
 B345 B -0.01839 0.47747 0.50337
 B346 B 0.00536 0.48951 0.52627
 B347 B -0.00502 0.51982 0.53838
 B348 B -0.03529 0.52554 0.52304
 B349 B 0.50059 0.02181 -0.02164
 B350 B 0.51686 0.01789 0.01028
 B351 B 0.49229 0.03941 0.00839
 B352 B 0.46848 0.02705 -0.01417
 B353 B 0.47899 -0.00323 -0.02609
 B354 B 0.50940 -0.00864 -0.01093
 B355 B 0.47402 -0.00465 0.03453
 B356 B 0.45777 -0.00066 0.00263
 B357 B 0.48233 -0.02220 0.00443
 B358 B 0.50614 -0.00985 0.02704
 B359 B 0.49563 0.02046 0.03899
 B360 B 0.46522 0.02587 0.02385
 B361 B 0.49327 0.49309 -0.03284
 B362 B 0.47867 0.50109 -0.00074
 B363 B 0.50160 0.47781 -0.00151
 B364 B 0.52522 0.48636 -0.02647
 B365 B 0.51622 0.51611 -0.04113
 B366 B 0.48689 0.52496 -0.02512
 B367 B 0.52378 0.52264 0.01877
 B368 B 0.53842 0.51471 -0.01333
 B369 B 0.51538 0.53798 -0.01264
 B370 B 0.49183 0.52937 0.01236
 B371 B 0.50082 0.49961 0.02697
 B372 B 0.53011 0.49072 0.01100
 B373 B -0.00678 0.99213 0.46610
 B374 B -0.02116 1.00015 0.49833
 B375 B 0.00166 0.97676 0.49734
 B376 B 0.02518 0.98524 0.47222
 B377 B 0.01623 1.01505 0.45769
 B378 B -0.01297 1.02401 0.47393
 B379 B 0.02416 1.02147 0.51753
 B380 B 0.03858 1.01352 0.48531
 B381 B 0.01565 1.03689 0.48622
 B382 B -0.00779 1.02835 0.51138
 B383 B 0.00115 0.99854 0.52587
 B384 B 0.03031 0.98953 0.50966
 B385 B 0.76397 0.23055 0.21973
 B386 B 0.75648 0.21885 0.25345
 B387 B 0.78084 0.24117 0.24951
 B388 B 0.77243 0.26276 0.22265
 B389 B 0.74175 0.25321 0.21022
 B390 B 0.73209 0.22556 0.22936
 B391 B 0.73774 0.26578 0.26921
 B392 B 0.74521 0.27755 0.23552
 B393 B 0.72097 0.25519 0.23953
 B394 B 0.72934 0.23364 0.26629
 B395 B 0.75996 0.24319 0.27878
 B396 B 0.76961 0.27090 0.25966
 B397 B 0.72126 0.76653 0.70587
 B398 B 0.72873 0.78093 0.73835
 B399 B 0.70736 0.75556 0.73735
 B400 B 0.71723 0.73377 0.71105
 B401 B 0.74585 0.74641 0.69588
 B402 B 0.75269 0.77608 0.71287
 B403 B 0.75425 0.73782 0.75506
 B404 B 0.74679 0.72334 0.72267
 B405 B 0.76813 0.74875 0.72366
 B406 B 0.75825 0.77049 0.74991
 B407 B 0.72971 0.75783 0.76510
 B408 B 0.72284 0.72820 0.74816
 B409 B 0.27072 0.25109 0.77051
 B410 B 0.26669 0.26667 0.73820
 B411 B 0.28830 0.24222 0.74069
 B412 B 0.27606 0.21885 0.76383
 B413 B 0.24577 0.22950 0.77548
 B414 B 0.24022 0.25956 0.75959
 B415 B 0.24427 0.22326 0.71501
 B416 B 0.24837 0.20769 0.74730
 B417 B 0.22673 0.23212 0.74490
 B418 B 0.23896 0.25551 0.72171
 B419 B 0.26929 0.24485 0.71002
 B420 B 0.27484 0.21479 0.72590
 B421 B 0.24272 0.74359 0.28285
 B422 B 0.25058 0.72901 0.25068
 B423 B 0.22721 0.75184 0.25163
 B424 B 0.23581 0.77551 0.27656
 B425 B 0.26569 0.76665 0.29102
 B426 B 0.27457 0.73735 0.27493
 B427 B 0.27182 0.77420 0.23110
 B428 B 0.26402 0.78882 0.26326
 B429 B 0.28738 0.76588 0.26240
 B430 B 0.27873 0.74229 0.23742
 B431 B 0.24884 0.75114 0.22301
 B432 B 0.23992 0.78040 0.23907
 B433 B 0.26382 0.73079 0.71952
 B434 B 0.25628 0.71935 0.75334
 B435 B 0.28076 0.74152 0.74922
 B436 B 0.27246 0.76298 0.72216
 B437 B 0.24172 0.75350 0.70982
 B438 B 0.23193 0.72603 0.72920
 B439 B 0.23779 0.76649 0.76870
 B440 B 0.24532 0.77800 0.73491
 B441 B 0.22096 0.75578 0.73911
 B442 B 0.22923 0.73437 0.76606
 B443 B 0.25989 0.74385 0.77846
 B444 B 0.26968 0.77138 0.75910
 B445 B 0.22114 0.26672 0.20497
 B446 B 0.22846 0.28119 0.23746
 B447 B 0.20709 0.25581 0.23641
 B448 B 0.21709 0.23397 0.21023
 B449 B 0.24577 0.24659 0.19518
 B450 B 0.25253 0.27629 0.21212
 B451 B 0.25392 0.23812 0.25443
 B452 B 0.24660 0.22357 0.22204
 B453 B 0.26793 0.24900 0.22307
 B454 B 0.25793 0.27079 0.24921
 B455 B 0.22933 0.25815 0.26428
 B456 B 0.22254 0.22848 0.24738
 B457 B 0.77235 0.75110 0.27246
 B458 B 0.76822 0.76703 0.24039
 B459 B 0.78994 0.74266 0.24249
 B460 B 0.77784 0.71897 0.26530
 B461 B 0.74751 0.72935 0.27716
 B462 B 0.74180 0.75956 0.26171
 B463 B 0.74595 0.72379 0.21661
 B464 B 0.75017 0.70788 0.24867
 B465 B 0.72842 0.73224 0.24665
 B466 B 0.74052 0.75594 0.22378
 B467 B 0.77088 0.74556 0.21189
 B468 B 0.77657 0.71534 0.22732
 B469 B 0.74256 0.24345 0.78410
 B470 B 0.75049 0.22876 0.75201
 B471 B 0.72714 0.25162 0.75279
 B472 B 0.73570 0.27536 0.77766
 B473 B 0.76554 0.26650 0.79225
 B474 B 0.77442 0.23715 0.77630
 B475 B 0.77182 0.27387 0.73232
 B476 B 0.76396 0.28860 0.76440
 B477 B 0.78730 0.26563 0.76370
 B478 B 0.77868 0.24197 0.73879
 B479 B 0.74884 0.25081 0.72424
 B480 B 0.73991 0.28013 0.74016
 C481 C 0.38824 1.02945 0.32396
 C482 C 0.40087 1.03396 0.34617
 C483 C 0.41595 1.03764 0.37297
 C484 C 0.40331 1.03622 0.40079
 C485 C 0.41828 1.03509 0.42689
 C486 C 0.44592 1.03541 0.42519
 C487 C 0.45853 1.03823 0.39750
 C488 C 0.44356 1.03937 0.37140
 C489 C 0.46103 1.02802 0.45076
 C490 C 0.47331 1.01924 0.47130
 H491 H 0.38197 1.03461 0.40220
 H492 H 0.40837 1.03243 0.44817
 H493 H 0.47990 1.03801 0.39593
 H494 H 0.45351 1.04020 0.34997
 C495 C -0.11138 0.52914 0.82322
 C496 C -0.09873 0.53366 0.84541
 C497 C -0.08367 0.53732 0.87223
 C498 C -0.09638 0.53608 0.90002
 C499 C -0.08147 0.53489 0.92617
 C500 C -0.05383 0.53499 0.92454
 C501 C -0.04114 0.53765 0.89686
 C502 C -0.05606 0.53883 0.87072
 C503 C -0.03883 0.52754 0.95016
 C504 C -0.02663 0.51872 0.97073
 H505 H -0.11773 0.53463 0.90138
 H506 H -0.09145 0.53236 0.94743
 H507 H -0.01978 0.53726 0.89535
 H508 H -0.04606 0.53952 0.84931
 C509 C 0.10742 -0.02420 0.79903
 C510 C 0.09609 -0.02905 0.82204
 C511 C 0.08348 -0.03372 0.85025
 C512 C 0.09820 -0.03110 0.87656
 C513 C 0.08549 -0.03203 0.90426
 C514 C 0.05806 -0.03571 0.90564
 C515 C 0.04352 -0.03955 0.87937
 C516 C 0.05622 -0.03857 0.85167
 C517 C 0.04434 -0.03096 0.93310
 C518 C 0.03206 -0.02455 0.95487
 H519 H 0.11929 -0.02718 0.87563
 H520 H 0.09682 -0.02857 0.92443
 H521 H 0.02222 -0.04193 0.88024
 H522 H 0.04468 -0.04046 0.83143
 C523 C 0.60977 0.47643 0.30180
 C524 C 0.59854 0.47160 0.32487
 C525 C 0.58597 0.46691 0.35310
 C526 C 0.55882 0.46146 0.35448
 C527 C 0.54606 0.46044 0.38215
 C528 C 0.56045 0.46483 0.40842
 C529 C 0.58780 0.46910 0.40709
 C530 C 0.60057 0.47008 0.37943
 C531 C 0.54655 0.46958 0.43576
 C532 C 0.53414 0.47602 0.45741
 H533 H 0.54737 0.45914 0.33421
 H534 H 0.52481 0.45760 0.38296
 H535 H 0.59900 0.47300 0.42726
 H536 H 0.62158 0.47446 0.37852
 C537 C 0.61227 0.51089 0.19780
 C538 C 0.60290 0.52021 0.17558
 C539 C 0.59125 0.53019 0.14872
 C540 C 0.56469 0.53762 0.14871
 C541 C 0.55206 0.54315 0.12178
 C542 C 0.56597 0.54135 0.09477
 C543 C 0.59291 0.53535 0.09496
 C544 C 0.60554 0.52982 0.12189
 C545 C 0.55157 0.53975 0.06723
 C546 C 0.53924 0.53481 0.04491
 H547 H 0.55341 0.53778 0.16930
 H548 H 0.53109 0.54717 0.12186
 H549 H 0.60371 0.53332 0.07418
 H550 H 0.62603 0.52391 0.12161
 C551 C 0.11266 1.00895 0.69653
 C552 C 0.10340 1.01834 0.67428
 C553 C 0.09185 1.02840 0.64740
 C554 C 0.06541 1.03621 0.64740
 C555 C 0.05283 1.04184 0.62046
 C556 C 0.06668 1.03978 0.59344
 C557 C 0.09352 1.03338 0.59361
 C558 C 0.10610 1.02774 0.62055
 C559 C 0.05224 1.03832 0.56591
 C560 C 0.03981 1.03351 0.54362
 H561 H 0.05415 1.03659 0.66800
 H562 H 0.03193 1.04617 0.62056
 H563 H 0.10427 1.03114 0.57282
 H564 H 0.12650 1.02154 0.62027
 C565 C -0.11361 0.49806 0.71791
 C566 C -0.10366 0.49087 0.69485
 C567 C -0.09132 0.48340 0.66717
 C568 C -0.10599 0.48305 0.64070
 C569 C -0.09325 0.47951 0.61326
 C570 C -0.06582 0.47624 0.61221
 C571 C -0.05135 0.47539 0.63879
 C572 C -0.06408 0.47892 0.66623
 C573 C -0.05213 0.47867 0.58420
 C574 C -0.04072 0.48367 0.56125
 H575 H -0.12703 0.48669 0.64116
 H576 H -0.10456 0.48071 0.59283
 H577 H -0.03006 0.47339 0.63821
 H578 H -0.05252 0.47934 0.68655
 C579 C 0.38643 -0.00137 0.21856
 C580 C 0.39645 -0.00850 0.19552
 C581 C 0.40882 -0.01590 0.16783
 C582 C 0.43584 -0.02152 0.16714
 C583 C 0.44874 -0.02504 0.13978
 C584 C 0.43463 -0.02303 0.11305
 C585 C 0.40737 -0.01858 0.11382
 C586 C 0.39448 -0.01506 0.14116
 C587 C 0.44865 -0.02069 0.08524
 C588 C 0.46021 -0.01577 0.06237
 H589 H 0.44715 -0.02201 0.18762
 H590 H 0.46990 -0.02795 0.13943
 H591 H 0.39637 -0.01643 0.09328
 H592 H 0.37362 -0.01053 0.14144
 C593 C 0.30335 0.43268 0.00410
 C594 C 0.32315 0.44560 0.00820
 C595 C 0.34794 0.45942 0.01109
 C596 C 0.36590 0.45186 0.03309
 C597 C 0.39169 0.46211 0.03280
 C598 C 0.39952 0.47989 0.01050
 C599 C 0.38132 0.48810 -0.01090
 C600 C 0.35555 0.47787 -0.01061
 C601 C 0.42670 0.48792 0.00791
 C602 C 0.44956 0.49402 0.00472
 H603 H 0.36032 0.43727 0.04966
 H604 H 0.40574 0.45546 0.04926
 H605 H 0.38731 0.50163 -0.02842
 H606 H 0.34193 0.48348 -0.02801
 C607 C -0.19675 0.93294 0.50554
 C608 C -0.17691 0.94579 0.50957
 C609 C -0.15202 0.95947 0.51227
 C610 C -0.13365 0.95124 0.53350
 C611 C -0.10780 0.96128 0.53278
 C612 C -0.10030 0.97950 0.51080
 C613 C -0.11889 0.98840 0.49022
 C614 C -0.14474 0.97838 0.49094
 C615 C -0.07311 0.98732 0.50767
 C616 C -0.05025 0.99325 0.50410
 H617 H -0.13899 0.93629 0.54975
 H618 H -0.09344 0.95411 0.54860
 H619 H -0.11317 1.00229 0.47295
 H620 H -0.15868 0.98451 0.47411
 C621 C -0.20869 0.05772 0.97724
 C622 C -0.18890 0.04538 0.97309
 C623 C -0.16361 0.03323 0.97071
 C624 C -0.15635 0.01437 0.99181
 C625 C -0.12994 0.00715 0.99435
 C626 C -0.11078 0.01883 0.97586
 C627 C -0.11821 0.03672 0.95378
 C628 C -0.14463 0.04394 0.95123
 C629 C -0.08339 0.01430 0.98146
 C630 C -0.06056 0.01073 0.98718
 H631 H -0.17079 0.00642 1.00739
 H632 H -0.12429 -0.00657 1.01163
 H633 H -0.10346 0.04598 0.93954
 H634 H -0.14998 0.05896 0.93528
 C635 C 0.29339 0.55868 0.47682
 C636 C 0.31330 0.54648 0.47294
 C637 C 0.33866 0.53442 0.47093
 C638 C 0.34559 0.51529 0.49187
 C639 C 0.37196 0.50804 0.49482
 C640 C 0.39140 0.51997 0.47691
 C641 C 0.38432 0.53816 0.45500
 C642 C 0.35795 0.54541 0.45204
 C643 C 0.41870 0.51531 0.48292
 C644 C 0.44145 0.51163 0.48893
 H645 H 0.33091 0.50711 0.50700
 H646 H 0.37733 0.49408 0.51197
 H647 H 0.39930 0.54760 0.44121
 H648 H 0.35284 0.56063 0.43622
 C649 C 0.19883 0.57082 0.50384
 C650 C 0.17610 0.56392 0.50652
 C651 C 0.14889 0.55571 0.50873
 C652 C 0.13744 0.54091 0.48554
 C653 C 0.11085 0.53334 0.48714
 C654 C 0.09559 0.54055 0.51192
 C655 C 0.10702 0.55530 0.53518
 C656 C 0.13367 0.56289 0.53358
 C657 C 0.06819 0.53296 0.51298
 C658 C 0.04530 0.52627 0.51260
 H659 H 0.14902 0.53535 0.46619
 H660 H 0.10215 0.52196 0.46902
 H661 H 0.09533 0.56102 0.55438
 H662 H 0.14235 0.57442 0.55157
 C663 C 0.69909 0.07253 0.00478
 C664 C 0.67631 0.06569 0.00709
 C665 C 0.64908 0.05750 0.00901
 C666 C 0.63760 0.04328 -0.01462
 C667 C 0.61105 0.03553 -0.01314
 C668 C 0.59587 0.04198 0.01197
 C669 C 0.60731 0.05619 0.03564
 C670 C 0.63392 0.06394 0.03416
 C671 C 0.56855 0.03408 0.01304
 C672 C 0.54572 0.02714 0.01276
 H673 H 0.64915 0.03827 -0.03420
 H674 H 0.60235 0.02457 -0.03157
 H675 H 0.59568 0.06130 0.05511
 H676 H 0.64262 0.07500 0.05251
 C677 C 0.70872 0.92224 0.47971
 C678 C 0.68620 0.92955 0.48036
 C679 C 0.65935 0.93811 0.48286
 C680 C 0.63874 0.91941 0.48460
 C681 C 0.61285 0.92762 0.48964
 C682 C 0.60754 0.95455 0.49302
 C683 C 0.62808 0.97327 0.49082
 C684 C 0.65396 0.96506 0.48577
 C685 C 0.58117 0.96293 0.49959
 C686 C 0.55915 0.97002 0.50533
 H687 H 0.64275 0.89850 0.48264
 H688 H 0.59707 0.91300 0.49137
 H689 H 0.62415 0.99414 0.49347
 H690 H 0.66981 0.97965 0.48473
 C691 C 0.20875 0.42191 0.97861
 C692 C 0.18622 0.42917 0.97935
 C693 C 0.15935 0.43765 0.98196
 C694 C 0.13877 0.41890 0.98354
 C695 C 0.11286 0.42702 0.98866
 C696 C 0.10750 0.45392 0.99226
 C697 C 0.12801 0.47270 0.99022
 C698 C 0.15391 0.46457 0.98510
 C699 C 0.08112 0.46222 0.99889
 C700 C 0.05909 0.46928 1.00467
 H701 H 0.14282 0.39801 0.98141
 H702 H 0.09711 0.41236 0.99026
 H703 H 0.12404 0.49354 0.99305
 H704 H 0.16972 0.47920 0.98418
 C705 C -0.01322 0.30707 0.41433
 C706 C -0.01609 0.32639 0.42992
 C707 C -0.01938 0.34990 0.44792
 C708 C -0.04189 0.36543 0.44452
 C709 C -0.04403 0.38943 0.46000
 C710 C -0.02372 0.39804 0.47908
 C711 C -0.00156 0.38214 0.48313
 C712 C 0.00058 0.35814 0.46765
 C713 C -0.02383 0.42458 0.49105
 C714 C -0.02256 0.44750 0.49864
 H715 H -0.05742 0.35938 0.42925
 H716 H -0.06106 0.40171 0.45626
 H717 H 0.01450 0.38873 0.49740
 H718 H 0.01814 0.34642 0.47039
 C719 C 0.48806 -0.19332 -0.08289
 C720 C 0.48513 -0.17389 -0.06748
 C721 C 0.48181 -0.15025 -0.04971
 C722 C 0.50183 -0.14173 -0.03020
 C723 C 0.49964 -0.11761 -0.01497
 C724 C 0.47737 -0.10186 -0.01906
 C725 C 0.45701 -0.11074 -0.03792
 C726 C 0.45920 -0.13486 -0.05314
 C727 C 0.47718 -0.07522 -0.00736
 C728 C 0.47833 -0.05224 -0.00000
 H729 H 0.51946 -0.15334 -0.02743
 H730 H 0.51573 -0.11081 -0.00087
 H731 H 0.43990 -0.09859 -0.04169
 H732 H 0.44363 -0.14112 -0.06825
 C733 C 0.01589 -0.20425 1.08631
 C734 C 0.01738 -0.18421 1.07183
 C735 C 0.01854 -0.15943 1.05605
 C736 C -0.00185 -0.15266 1.03655
 C737 C -0.00245 -0.12736 1.02409
 C738 C 0.01733 -0.10868 1.03104
 C739 C 0.03818 -0.11571 1.04980
 C740 C 0.03878 -0.14102 1.06226
 C741 C 0.01461 -0.08167 1.02162
 C742 C 0.01113 -0.05886 1.01519
 H743 H -0.01774 -0.16660 1.03179
 H744 H -0.01883 -0.12207 1.00990
 H745 H 0.05342 -0.10137 1.05562
 H746 H 0.05452 -0.14593 1.07752
 C747 C 0.51613 0.29609 0.58800
 C748 C 0.51782 0.31617 0.57362
 C749 C 0.51923 0.34099 0.55796
 C750 C 0.49902 0.34796 0.53832
 C751 C 0.49865 0.37331 0.52597
 C752 C 0.51850 0.39184 0.53318
 C753 C 0.53917 0.38462 0.55209
 C754 C 0.53954 0.35926 0.56443
 C755 C 0.51600 0.41891 0.52386
 C756 C 0.51267 0.44175 0.51748
 H757 H 0.48308 0.33413 0.53336
 H758 H 0.48240 0.37875 0.51166
 H759 H 0.55446 0.39885 0.55810
 H760 H 0.55514 0.35420 0.57980
 C761 C 0.50477 1.19830 0.59789
 C762 C 0.50229 1.17615 0.58793
 C763 C 0.49974 1.14979 0.57559
 C764 C 0.47928 1.13275 0.58498
 C765 C 0.47735 1.10698 0.57348
 C766 C 0.49584 1.09809 0.55246
 C767 C 0.51608 1.11524 0.54282
 C768 C 0.51800 1.14098 0.55429
 C769 C 0.49524 1.07094 0.54233
 C770 C 0.49588 1.04799 0.53477
 H771 H 0.46502 1.13928 0.60141
 H772 H 0.46173 1.09387 0.58132
 H773 H 0.53063 1.10858 0.52678
 H774 H 0.53391 1.15390 0.54682
 C775 C 0.00485 0.69797 1.09668
 C776 C 0.00242 0.67578 1.08682
 C777 C -0.00006 0.64937 1.07460
 C778 C 0.01858 0.64031 1.05387
 C779 C 0.01669 0.61453 1.04249
 C780 C -0.00390 0.59759 1.05167
 C781 C -0.02275 0.60672 1.07214
 C782 C -0.02085 0.63253 1.08353
 C783 C -0.00452 0.57041 1.04163
 C784 C -0.00393 0.54745 1.03413
 H785 H 0.03474 0.65308 1.04675
 H786 H 0.03152 0.60769 1.02690
 H787 H -0.03865 0.59378 1.07961
 H788 H -0.03541 0.63925 1.09953
 C789 C 0.50506 0.71212 -0.09292
 C790 C 0.50960 0.69097 -0.08171
 C791 C 0.51454 0.66592 -0.06751
 C792 C 0.50552 0.66131 -0.03833
 C793 C 0.50901 0.63663 -0.02497
 C794 C 0.52167 0.61637 -0.04063
 C795 C 0.53120 0.62114 -0.06959
 C796 C 0.52769 0.64583 -0.08296
 C797 C 0.52213 0.58995 -0.02854
 C798 C 0.52070 0.56735 -0.01999
 H799 H 0.49529 0.67663 -0.02612
 H800 H 0.50121 0.63313 -0.00277
 H801 H 0.54068 0.60555 -0.08214
 H802 H 0.53474 0.64907 -0.10553
 C803 C 0.00458 1.21089 0.40598
 C804 C 0.00928 1.18976 0.41714
 C805 C 0.01443 1.16474 0.43132
 C806 C 0.00581 1.16021 0.46067
 C807 C 0.00947 1.13555 0.47402
 C808 C 0.02189 1.11524 0.45818
 C809 C 0.03103 1.11995 0.42906
 C810 C 0.02735 1.14461 0.41569
 C811 C 0.02243 1.08884 0.47030
 C812 C 0.02103 1.06625 0.47886
 H813 H -0.00424 1.17556 0.47301
 H814 H 0.00196 1.13210 0.49636
 H815 H 0.04031 1.10433 0.41638
 H816 H 0.03409 1.14780 0.39300
 C817 C 0.77942 0.63842 0.92677
 C818 C 0.78398 0.65104 0.90460
 C819 C 0.78770 0.66608 0.87780
 C820 C 0.78640 0.65338 0.84998
 C821 C 0.78528 0.66831 0.82387
 C822 C 0.78550 0.69595 0.82555
 C823 C 0.78821 0.70862 0.85325
 C824 C 0.78933 0.69369 0.87937
 C825 C 0.77806 0.71099 0.79996
 C826 C 0.76922 0.72321 0.77943
 H827 H 0.78486 0.63204 0.84858
 H828 H 0.78270 0.65835 0.80258
 H829 H 0.78791 0.72998 0.85481
 H830 H 0.79007 0.70368 0.90080
 C831 C 0.27908 0.13809 0.42579
 C832 C 0.28360 0.15083 0.40370
 C833 C 0.28729 0.16604 0.37701
 C834 C 0.28613 0.15348 0.34911
 C835 C 0.28497 0.16853 0.32309
 C836 C 0.28502 0.19615 0.32495
 C837 C 0.28758 0.20870 0.35274
 C838 C 0.28874 0.19365 0.37876
 C839 C 0.27760 0.21128 0.29942
 C840 C 0.26880 0.22354 0.27889
 H841 H 0.28472 0.13213 0.34756
 H842 H 0.28251 0.15866 0.30173
 H843 H 0.28716 0.23005 0.35444
 H844 H 0.28937 0.20353 0.40026
 C845 C 0.72602 0.35709 0.45061
 C846 C 0.72116 0.34589 0.42750
 C847 C 0.71649 0.33344 0.39916
 C848 C 0.71161 0.30620 0.39748
 C849 C 0.71069 0.29365 0.36967
 C850 C 0.71461 0.30833 0.34355
 C851 C 0.71831 0.33575 0.34518
 C852 C 0.71919 0.34831 0.37299
 C853 C 0.71946 0.29475 0.31601
 C854 C 0.72595 0.28257 0.29419
 H855 H 0.70967 0.29455 0.41762
 H856 H 0.70830 0.27236 0.36861
 H857 H 0.72183 0.34718 0.32513
 H858 H 0.72313 0.36939 0.37413
 C859 C 0.22655 0.85905 0.94943
 C860 C 0.22189 0.84792 0.92624
 C861 C 0.21732 0.83542 0.89791
 C862 C 0.22091 0.84999 0.87165
 C863 C 0.21988 0.83726 0.84395
 C864 C 0.21515 0.80998 0.84250
 C865 C 0.21037 0.79564 0.86870
 C866 C 0.21143 0.80836 0.89640
 C867 C 0.21979 0.79603 0.81516
 C868 C 0.22614 0.78356 0.79350
 H869 H 0.22561 0.87092 0.87266
 H870 H 0.22408 0.84841 0.82385
 H871 H 0.20716 0.77443 0.86779
 H872 H 0.20877 0.79693 0.91662
 C873 C 0.25863 0.86291 0.05244
 C874 C 0.26810 0.85346 0.07454
 C875 C 0.27828 0.84175 0.10126
 C876 C 0.27823 0.85604 0.12812
 C877 C 0.28398 0.84339 0.15496
 C878 C 0.28988 0.81642 0.15503
 C879 C 0.29135 0.80251 0.12798
 C880 C 0.28560 0.81516 0.10113
 C881 C 0.28851 0.80203 0.18256
 C882 C 0.28376 0.78969 0.20489
 H883 H 0.27241 0.87656 0.12850
 H884 H 0.28220 0.85419 0.17579
 H885 H 0.29529 0.78152 0.12781
 H886 H 0.28552 0.80388 0.08052
 C887 C 0.75954 0.36187 0.55305
 C888 C 0.76892 0.35253 0.57526
 C889 C 0.77896 0.34093 0.60212
 C890 C 0.77874 0.35532 0.62891
 C891 C 0.78432 0.34277 0.65586
 C892 C 0.79021 0.31580 0.65611
 C893 C 0.79184 0.30179 0.62914
 C894 C 0.78627 0.31434 0.60219
 C895 C 0.78870 0.30152 0.68372
 C896 C 0.78386 0.28927 0.70608
 H897 H 0.77292 0.37584 0.62914
 H898 H 0.78242 0.35365 0.67662
 H899 H 0.79578 0.28080 0.62911
 H900 H 0.78630 0.30298 0.58163
 C901 C 0.24786 0.13568 0.53097
 C902 C 0.24062 0.14560 0.55403
 C903 C 0.23309 0.15791 0.58171
 C904 C 0.22802 0.18504 0.58257
 C905 C 0.22443 0.19784 0.60998
 C906 C 0.22582 0.18353 0.63661
 C907 C 0.22968 0.15618 0.63566
 C908 C 0.23328 0.14338 0.60825
 C909 C 0.22819 0.19740 0.66454
 C910 C 0.23313 0.20902 0.68740
 H911 H 0.22802 0.19650 0.56219
 H912 H 0.22197 0.21906 0.61048
 H913 H 0.23130 0.14501 0.65613
 H914 H 0.23737 0.12243 0.60785
 C915 C 0.74874 0.63652 0.03217
 C916 C 0.74169 0.64654 0.05525
 C917 C 0.73437 0.65894 0.08295
 C918 C 0.72983 0.68617 0.08389
 C919 C 0.72639 0.69896 0.11132
 C920 C 0.72740 0.68455 0.13791
 C921 C 0.73075 0.65713 0.13689
 C922 C 0.73419 0.64433 0.10945
 C923 C 0.72985 0.69830 0.16591
 C924 C 0.73483 0.70977 0.18886
 H925 H 0.73011 0.69767 0.06354
 H926 H 0.72433 0.72023 0.11188
 H927 H 0.73207 0.64588 0.15733
 H928 H 0.73788 0.62330 0.10900
 C929 C 0.18284 0.55346 0.24563
 C930 C 0.19574 0.57326 0.24160
 C931 C 0.20950 0.59809 0.23878
 C932 C 0.20209 0.61592 0.21660
 C933 C 0.21222 0.64174 0.21692
 C934 C 0.22974 0.64976 0.23946
 C935 C 0.23781 0.63169 0.26106
 C936 C 0.22769 0.60588 0.26073
 C937 C 0.23763 0.67697 0.24205
 C938 C 0.24362 0.69987 0.24523
 H939 H 0.18769 0.61019 0.19984
 H940 H 0.20568 0.65569 0.20031
 H941 H 0.25114 0.63782 0.27875
 H942 H 0.23319 0.59237 0.27827
 C943 C 0.68314 0.05306 0.74659
 C944 C 0.69605 0.07288 0.74266
 C945 C 0.70978 0.09773 0.73997
 C946 C 0.72764 0.10564 0.76221
 C947 C 0.73766 0.13148 0.76263
 C948 C 0.72982 0.14947 0.74083
 C949 C 0.71265 0.14134 0.71801
 C950 C 0.70261 0.11547 0.71760
 C951 C 0.73761 0.17671 0.74344
 C952 C 0.74355 0.19962 0.74662
 H953 H 0.73294 0.09219 0.77989
 H954 H 0.75073 0.13770 0.78054
 H955 H 0.70629 0.15521 0.70124
 H956 H 0.68846 0.10966 0.70061
 C957 C 0.80815 0.04183 0.27225
 C958 C 0.79594 0.06172 0.27628
 C959 C 0.78393 0.08709 0.27853
 C960 C 0.76505 0.09433 0.25742
 C961 C 0.75793 0.12075 0.25476
 C962 C 0.76975 0.13996 0.27315
 C963 C 0.78768 0.13257 0.29521
 C964 C 0.79479 0.10613 0.29788
 C965 C 0.76524 0.16734 0.26749
 C966 C 0.76164 0.19016 0.26175
 H967 H 0.75698 0.07984 0.24194
 H968 H 0.74418 0.12637 0.23749
 H969 H 0.79703 0.14736 0.30938
 H970 H 0.80983 0.10080 0.31384
 C971 C 0.30813 0.54255 0.77295
 C972 C 0.29580 0.56237 0.77691
 C973 C 0.28368 0.58770 0.77906
 C974 C 0.26492 0.59486 0.75778
 C975 C 0.25773 0.62126 0.75503
 C976 C 0.26936 0.64051 0.77350
 C977 C 0.28715 0.63319 0.79574
 C978 C 0.29433 0.60678 0.79849
 C979 C 0.26486 0.66788 0.76773
 C980 C 0.26132 0.69068 0.76186
 H981 H 0.25701 0.58034 0.74223
 H982 H 0.24409 0.62682 0.73763
 H983 H 0.29637 0.64802 0.80997
 H984 H 0.30928 0.60150 0.81459
 C985 C 0.32131 0.44850 0.74390
 C986 C 0.31473 0.42579 0.74012
 C987 C 0.30700 0.39856 0.73652
 C988 C 0.28060 0.39181 0.73057
 C989 C 0.27281 0.36525 0.72887
 C990 C 0.29140 0.34539 0.73309
 C991 C 0.31788 0.35213 0.73860
 C992 C 0.32567 0.37869 0.74030
 C993 C 0.28306 0.31818 0.73346
 C994 C 0.27593 0.29545 0.73479
 H995 H 0.26600 0.40704 0.72777
 H996 H 0.25225 0.36020 0.72480
 H997 H 0.33235 0.33689 0.74210
 H998 H 0.34611 0.38373 0.74506
 C999 C 0.82236 0.94940 0.24499
 C1000 C 0.81542 0.92664 0.24270
 C1001 C 0.80717 0.89943 0.24081
 C1002 C 0.81410 0.88402 0.21600
 C1003 C 0.80639 0.85739 0.21462
 C1004 C 0.79175 0.84618 0.23806
 C1005 C 0.78480 0.86161 0.26280
 C1006 C 0.79250 0.88818 0.26418
 C1007 C 0.78401 0.81881 0.23716
 C1008 C 0.77724 0.79594 0.23762
 H1009 H 0.82552 0.89255 0.19786
 H1010 H 0.81190 0.84557 0.19544
 H1011 H 0.77352 0.85307 0.28106
 H1012 H 0.78712 0.89991 0.28350
 C1013 C 0.67207 0.95853 0.77201
 C1014 C 0.67931 0.93599 0.77132
 C1015 C 0.68781 0.90912 0.76875
 C1016 C 0.66905 0.88856 0.76670
 C1017 C 0.67722 0.86266 0.76157
 C1018 C 0.70415 0.85729 0.75841
 C1019 C 0.72292 0.87777 0.76092
 C1020 C 0.71476 0.90366 0.76606
 C1021 C 0.71251 0.83093 0.75172
 C1022 C 0.71960 0.80892 0.74587
 H1023 H 0.64815 0.89263 0.76848
 H1024 H 0.66256 0.84694 0.75959
 H1025 H 0.74379 0.87379 0.75844
 H1026 H 0.72939 0.91946 0.76734
 C1027 C 0.17199 0.45889 0.27105
 C1028 C 0.17922 0.43635 0.27029
 C1029 C 0.18768 0.40947 0.26766
 C1030 C 0.21461 0.40398 0.26481
 C1031 C 0.22273 0.37808 0.25966
 C1032 C 0.20393 0.35761 0.25730
 C1033 C 0.17702 0.36302 0.26061
 C1034 C 0.16890 0.38893 0.26575
 C1035 C 0.21224 0.33123 0.25066
 C1036 C 0.21931 0.30920 0.24486
 H1037 H 0.22927 0.41977 0.26598
 H1038 H 0.24359 0.37408 0.25707
 H1039 H 0.16234 0.34730 0.25875
 H1040 H 0.14801 0.39302 0.26766
 C1041 C 0.05608 0.23764 0.83298
 C1042 C 0.07544 0.23468 0.81749
 C1043 C 0.09899 0.23133 0.79962
 C1044 C 0.10725 0.25121 0.77984
 C1045 C 0.13129 0.24904 0.76450
 C1046 C 0.14721 0.22692 0.76872
 C1047 C 0.13859 0.20668 0.78784
 C1048 C 0.11454 0.20886 0.80319
 C1049 C 0.17379 0.22680 0.75691
 C1050 C 0.19673 0.22804 0.74945
 H1051 H 0.09551 0.26874 0.77697
 H1052 H 0.13790 0.26504 0.75020
 H1053 H 0.15088 0.18969 0.79172
 H1054 H 0.10848 0.19340 0.81850
 C1055 C 0.55774 0.73782 0.33447
 C1056 C 0.57710 0.73482 0.31900
 C1057 C 0.60065 0.73139 0.30116
 C1058 C 0.60887 0.75115 0.28120
 C1059 C 0.63292 0.74893 0.26589
 C1060 C 0.64890 0.72689 0.27034
 C1061 C 0.64031 0.70676 0.28963
 C1062 C 0.61626 0.70899 0.30494
 C1063 C 0.67549 0.72677 0.25857
 C1064 C 0.69844 0.72804 0.25117
 H1065 H 0.59708 0.76863 0.27816
 H1066 H 0.63950 0.76484 0.25145
 H1067 H 0.65265 0.68984 0.29368
 H1068 H 0.61022 0.69363 0.32040
 C1069 C 0.54596 0.26602 0.16311
 C1070 C 0.56609 0.26749 0.17750
 C1071 C 0.59096 0.26864 0.19315
 C1072 C 0.59792 0.24816 0.21242
 C1073 C 0.62328 0.24760 0.22477
 C1074 C 0.64184 0.26752 0.21795
 C1075 C 0.63463 0.28843 0.19941
 C1076 C 0.60925 0.28899 0.18705
 C1077 C 0.66890 0.26491 0.22733
 C1078 C 0.69174 0.26153 0.23375
 H1079 H 0.58407 0.23218 0.21709
 H1080 H 0.62871 0.23117 0.23880
 H1081 H 0.64887 0.30379 0.19369
 H1082 H 0.60421 0.30481 0.17197
 C1083 C 0.04593 0.76599 0.66283
 C1084 C 0.06606 0.76761 0.67718
 C1085 C 0.09094 0.76896 0.69279
 C1086 C 0.10926 0.78920 0.68629
 C1087 C 0.13465 0.78877 0.69862
 C1088 C 0.14185 0.76812 0.71754
 C1089 C 0.12327 0.74833 0.72475
 C1090 C 0.09790 0.74875 0.71242
 C1091 C 0.16892 0.76558 0.72688
 C1092 C 0.19176 0.76220 0.73331
 H1093 H 0.10422 0.80480 0.67093
 H1094 H 0.14891 0.80402 0.69260
 H1095 H 0.12869 0.73210 0.73907
 H1096 H 0.08403 0.73287 0.71741
 C1097 C 0.94806 0.75487 0.65294
 C1098 C 0.92591 0.75245 0.66289
 C1099 C 0.89954 0.74995 0.67520
 C1100 C 0.89056 0.76857 0.69602
 C1101 C 0.86483 0.76667 0.70748
 C1102 C 0.84784 0.74609 0.69829
 C1103 C 0.85689 0.72727 0.67773
 C1104 C 0.88266 0.72918 0.66625
 C1105 C 0.82070 0.74545 0.70843
 C1106 C 0.79776 0.74602 0.71600
 H1107 H 0.90336 0.78472 0.70315
 H1108 H 0.85805 0.78148 0.72315
 H1109 H 0.84392 0.71138 0.67025
 H1110 H 0.88931 0.71464 0.65019
 C1111 C 0.44807 0.25524 0.15302
 C1112 C 0.42590 0.25281 0.16291
 C1113 C 0.39949 0.25029 0.17514
 C1114 C 0.39039 0.26900 0.19577
 C1115 C 0.36463 0.26708 0.20715
 C1116 C 0.34774 0.24639 0.19807
 C1117 C 0.35692 0.22747 0.17770
 C1118 C 0.38272 0.22940 0.16630
 C1119 C 0.32056 0.24572 0.20810
 C1120 C 0.29760 0.24627 0.21558
 H1121 H 0.40310 0.28525 0.20282
 H1122 H 0.35774 0.28197 0.22267
 H1123 H 0.34403 0.21149 0.17030
 H1124 H 0.38947 0.21478 0.15038
 C1125 C 0.46162 0.75568 0.34226
 C1126 C 0.44048 0.76027 0.33102
 C1127 C 0.41544 0.76527 0.31681
 C1128 C 0.41071 0.75605 0.28770
 C1129 C 0.38601 0.75957 0.27437
 C1130 C 0.36586 0.77245 0.28998
 C1131 C 0.37077 0.78218 0.31884
 C1132 C 0.39548 0.77865 0.33219
 C1133 C 0.33940 0.77285 0.27800
 C1134 C 0.31677 0.77133 0.26956
 H1135 H 0.42594 0.74564 0.27556
 H1136 H 0.38240 0.75159 0.25225
 H1137 H 0.35527 0.79183 0.33135
 H1138 H 0.39883 0.78586 0.35469
 C1139 C 0.96166 0.25508 0.84329
 C1140 C 0.94049 0.25973 0.83215
 C1141 C 0.91542 0.26480 0.81804
 C1142 C 0.89537 0.27783 0.83368
 C1143 C 0.87064 0.28141 0.82041
 C1144 C 0.86579 0.27207 0.79137
 C1145 C 0.88601 0.25955 0.77552
 C1146 C 0.91074 0.25598 0.78877
 C1147 C 0.83932 0.27252 0.77938
 C1148 C 0.81669 0.27105 0.77093
 H1149 H 0.89867 0.28472 0.85631
 H1150 H 0.85508 0.29078 0.83309
 H1151 H 0.88245 0.25188 0.75325
 H1152 H 0.92603 0.24585 0.77643
 C1153 C 0.61664 0.98666 0.71242
 C1154 C 0.60433 0.97537 0.69312
 C1155 C 0.58971 0.96337 0.66904
 C1156 C 0.60231 0.95861 0.64169
 C1157 C 0.58736 0.95210 0.61645
 C1158 C 0.55977 0.95025 0.61853
 C1159 C 0.54736 0.95326 0.64632
 C1160 C 0.56231 0.95978 0.67156
 C1161 C 0.54427 0.95222 0.59187
 C1162 C 0.53160 0.95795 0.57023
 H1163 H 0.62347 0.96157 0.63945
 H1164 H 0.59711 0.95049 0.59496
 H1165 H 0.52600 0.95253 0.64805
 H1166 H 0.55235 0.96366 0.69253
 C1167 C 0.11635 0.48690 1.21185
 C1168 C 0.10409 0.47550 1.19260
 C1169 C 0.08954 0.46334 1.16855
 C1170 C 0.06215 0.45966 1.17103
 C1171 C 0.04725 0.45297 1.14580
 C1172 C 0.05972 0.44989 1.11805
 C1173 C 0.08730 0.45183 1.11602
 C1174 C 0.10219 0.45851 1.14125
 C1175 C 0.04425 0.45171 1.09135
 C1176 C 0.03159 0.45736 1.06967
 H1177 H 0.05214 0.46359 1.19197
 H1178 H 0.02590 0.45217 1.14750
 H1179 H 0.09709 0.45017 1.09455
 H1180 H 0.12334 0.46154 1.13902
 C1181 C -0.12300 0.01057 1.20466
 C1182 C -0.11010 0.01432 1.18242
 C1183 C -0.09551 0.01962 1.15550
 C1184 C -0.06868 0.02662 1.15685
 C1185 C -0.05438 0.03086 1.13052
 C1186 C -0.06692 0.02827 1.10279
 C1187 C -0.09393 0.02200 1.10149
 C1188 C -0.10823 0.01777 1.12781
 C1189 C -0.05129 0.02744 1.07605
 C1190 C -0.03774 0.02362 1.05442
 H1191 H -0.05871 0.02821 1.17817
 H1192 H -0.03338 0.03515 1.13174
 H1193 H -0.10368 0.01940 1.08014
 H1194 H -0.12901 0.01247 1.12656
 C1195 C 0.37732 0.51161 0.70567
 C1196 C 0.39038 0.51542 0.68357
 C1197 C 0.40521 0.52074 0.65682
 C1198 C 0.43206 0.52758 0.65847
 C1199 C 0.44661 0.53175 0.63230
 C1200 C 0.43430 0.52925 0.60444
 C1201 C 0.40727 0.52316 0.60283
 C1202 C 0.39272 0.51900 0.62899
 C1203 C 0.45016 0.52832 0.57787
 C1204 C 0.46387 0.52441 0.55639
 H1205 H 0.44186 0.52908 0.67990
 H1206 H 0.46763 0.53591 0.63376
 H1207 H 0.39769 0.52064 0.58138
 H1208 H 0.37192 0.51382 0.62750
 C1209 C 0.38042 0.48416 -0.19573
 C1210 C 0.39553 0.47694 -0.17684
 C1211 C 0.41318 0.47033 -0.15303
 C1212 C 0.44055 0.47183 -0.15753
 C1213 C 0.45764 0.47057 -0.13313
 C1214 C 0.44740 0.46780 -0.10421
 C1215 C 0.42010 0.46488 -0.09990
 C1216 C 0.40301 0.46611 -0.12428
 C1217 C 0.46415 0.47297 -0.07899
 C1218 C 0.47754 0.48003 -0.05822
 H1219 H 0.44859 0.47544 -0.17961
 H1220 H 0.47869 0.47335 -0.13664
 H1221 H 0.41194 0.46326 -0.07757
 H1222 H 0.38186 0.46527 -0.12052
 C1223 C -0.11976 0.98297 0.30319
 C1224 C -0.10461 0.97574 0.32204
 C1225 C -0.08696 0.96919 0.34588
 C1226 C -0.05959 0.97085 0.34143
 C1227 C -0.04252 0.96970 0.36586
 C1228 C -0.05279 0.96688 0.39477
 C1229 C -0.08008 0.96381 0.39903
 C1230 C -0.09714 0.96493 0.37461
 C1231 C -0.03608 0.97209 0.42002
 C1232 C -0.02267 0.97914 0.44079
 H1233 H -0.05153 0.97450 0.31937
 H1234 H -0.02148 0.97259 0.36240
 H1235 H -0.08826 0.96215 0.42135
 H1236 H -0.11829 0.96398 0.37834
 C1237 C 0.11045 0.52036 0.30851
 C1238 C 0.09503 0.52426 0.32851
 C1239 C 0.07740 0.52968 0.35291
 C1240 C 0.05022 0.52485 0.34998
 C1241 C 0.03342 0.52873 0.37440
 C1242 C 0.04374 0.53759 0.40172
 C1243 C 0.07080 0.54321 0.40435
 C1244 C 0.08759 0.53933 0.37996
 C1245 C 0.02757 0.53639 0.42805
 C1246 C 0.01478 0.53228 0.45026
 H1247 H 0.04216 0.51742 0.32915
 H1248 H 0.01260 0.52380 0.37232
 H1249 H 0.07905 0.54955 0.42554
 H1250 H 0.10859 0.54316 0.38242
 C1251 C 0.61036 0.02011 -0.19106
 C1252 C 0.59484 0.02408 -0.17119
 C1253 C 0.57712 0.02961 -0.14691
 C1254 C 0.55008 0.02389 -0.14955
 C1255 C 0.53325 0.02784 -0.12518
 C1256 C 0.54340 0.03766 -0.09818
 C1257 C 0.57030 0.04416 -0.09586
 C1258 C 0.58712 0.04021 -0.12022
 C1259 C 0.52737 0.03654 -0.07173
 C1260 C 0.51475 0.03248 -0.04940
 H1261 H 0.54216 0.01571 -0.17010
 H1262 H 0.51258 0.02222 -0.12699
 H1263 H 0.57844 0.05125 -0.07491
 H1264 H 0.60801 0.04473 -0.11797
 C1265 C 0.71831 0.57483 -0.02578
 C1266 C 0.69687 0.56425 -0.02499
 C1267 C 0.67066 0.55300 -0.02454
 C1268 C 0.65459 0.55498 -0.04983
 C1269 C 0.62833 0.54611 -0.04878
 C1270 C 0.61808 0.53522 -0.02244
 C1271 C 0.63427 0.53280 0.00269
 C1272 C 0.66053 0.54170 0.00166
 C1273 C 0.59066 0.52770 -0.02063
 C1274 C 0.56765 0.52180 -0.01824
 H1275 H 0.66219 0.56389 -0.07012
 H1276 H 0.61591 0.54818 -0.06827
 H1277 H 0.62646 0.52449 0.02320
 H1278 H 0.67273 0.54028 0.02140
 C1279 C 0.21830 1.07388 0.47268
 C1280 C 0.19693 1.06315 0.47338
 C1281 C 0.17077 1.05176 0.47378
 C1282 C 0.15468 1.05375 0.44850
 C1283 C 0.12844 1.04481 0.44955
 C1284 C 0.11824 1.03385 0.47587
 C1285 C 0.13446 1.03139 0.50097
 C1286 C 0.16070 1.04036 0.49994
 C1287 C 0.09083 1.02635 0.47773
 C1288 C 0.06781 1.02050 0.48022
 H1289 H 0.16224 1.06275 0.42824
 H1290 H 0.11600 1.04692 0.43008
 H1291 H 0.12669 1.02303 0.52147
 H1292 H 0.17292 1.03893 0.51967
 C1293 C 0.19466 -0.07905 1.02551
 C1294 C 0.17661 -0.06518 1.03267
 C1295 C 0.15335 -0.04993 1.03769
 C1296 C 0.15027 -0.02612 1.02234
 C1297 C 0.12543 -0.01454 1.02078
 C1298 C 0.10365 -0.02677 1.03456
 C1299 C 0.10701 -0.04977 1.05131
 C1300 C 0.13185 -0.06136 1.05285
 C1301 C 0.07749 -0.01785 1.02836
 C1302 C 0.05536 -0.01160 1.02216
 H1303 H 0.16665 -0.01744 1.01002
 H1304 H 0.12293 0.00309 1.00750
 H1305 H 0.09020 -0.05952 1.06175
 H1306 H 0.13389 -0.08005 1.06425
 C1307 C 0.69553 0.41976 0.52670
 C1308 C 0.67772 0.43386 0.53406
 C1309 C 0.65469 0.44940 0.53937
 C1310 C 0.65176 0.47325 0.52406
 C1311 C 0.62706 0.48515 0.52282
 C1312 C 0.60527 0.47320 0.53688
 C1313 C 0.60851 0.45015 0.55359
 C1314 C 0.63321 0.43825 0.55481
 C1315 C 0.57916 0.48238 0.53090
 C1316 C 0.55707 0.48881 0.52477
 H1317 H 0.66812 0.48172 0.51152
 H1318 H 0.62465 0.50280 0.50956
 H1319 H 0.59168 0.44060 0.56422
 H1320 H 0.63513 0.41952 0.56618
 C1321 C -0.21715 0.42478 0.49763
 C1322 C -0.19687 0.43742 0.49764
 C1323 C -0.17186 0.45105 0.49692
 C1324 C -0.16197 0.46335 0.52270
 C1325 C -0.13652 0.47439 0.52258
 C1326 C -0.12095 0.47307 0.49673
 C1327 C -0.13104 0.46124 0.47080
 C1328 C -0.15648 0.45024 0.47090
 C1329 C -0.09416 0.48258 0.49735
 C1330 C -0.07157 0.49008 0.49854
 H1331 H -0.17366 0.46385 0.54299
 H1332 H -0.12878 0.48344 0.54276
 H1333 H -0.11905 0.46002 0.45077
 H1334 H -0.16392 0.44055 0.45094
 C1335 C 0.28284 -0.07410 -0.00109
 C1336 C 0.30327 -0.06176 -0.00000
 C1337 C 0.32844 -0.04846 0.00076
 C1338 C 0.34435 -0.05041 0.02614
 C1339 C 0.36996 -0.03981 0.02588
 C1340 C 0.37970 -0.02727 0.00023
 C1341 C 0.36365 -0.02487 -0.02497
 C1342 C 0.33802 -0.03550 -0.02472
 C1343 C 0.40645 -0.01765 -0.00030
 C1344 C 0.42901 -0.01000 0.00015
 H1345 H 0.33719 -0.06065 0.04583
 H1346 H 0.38232 -0.04183 0.04542
 H1347 H 0.37109 -0.01524 -0.04492
 H1348 H 0.32592 -0.03415 -0.04456
 C1349 C 0.30808 1.07538 0.50272
 C1350 C 0.32577 1.06293 0.51341
 C1351 C 0.34836 1.04893 0.52397
 C1352 C 0.36799 1.06246 0.54019
 C1353 C 0.39219 1.05047 0.54568
 C1354 C 0.39681 1.02490 0.53499
 C1355 C 0.37677 1.01095 0.51990
 C1356 C 0.35259 1.02295 0.51440
 C1357 C 0.42302 1.01448 0.53563
 C1358 C 0.44519 1.00635 0.53389
 H1359 H 0.36508 1.08271 0.54727
 H1360 H 0.40771 1.06157 0.55694
 H1361 H 0.38031 0.99133 0.51113
 H1362 H 0.33771 1.01247 0.50143
 C1363 C -0.19174 0.57560 1.00363
 C1364 C -0.17407 0.56303 1.01418
 C1365 C -0.15147 0.54891 1.02452
 C1366 C -0.13168 0.56233 1.04059
 C1367 C -0.10748 0.55024 1.04581
 C1368 C -0.10303 0.52468 1.03498
 C1369 C -0.12322 0.51084 1.02004
 C1370 C -0.14741 0.52294 1.01481
 C1371 C -0.07685 0.51417 1.03537
 C1372 C -0.05472 0.50596 1.03346
 H1373 H -0.13447 0.58257 1.04777
 H1374 H -0.09184 0.56125 1.05697
 H1375 H -0.11982 0.49123 1.01117
 H1376 H -0.16241 0.51254 1.00194
 C1377 C -0.00051 0.71475 0.58447
 C1378 C -0.00156 0.69489 0.56942
 C1379 C -0.00162 0.67030 0.55294
 C1380 C 0.02225 0.65725 0.54777
 C1381 C 0.02219 0.63200 0.53486
 C1382 C -0.00174 0.61964 0.52694
 C1383 C -0.02555 0.63301 0.53130
 C1384 C -0.02549 0.65825 0.54425
 C1385 C -0.00227 0.59232 0.51756
 C1386 C -0.00379 0.56904 0.51171
 H1387 H 0.04083 0.66623 0.55462
 H1388 H 0.04070 0.62177 0.53198
 H1389 H -0.04421 0.62354 0.52563
 H1390 H -0.04409 0.66798 0.54835
 C1391 C 0.49943 0.21528 0.08444
 C1392 C 0.49834 0.19545 0.06934
 C1393 C 0.49827 0.17087 0.05283
 C1394 C 0.47438 0.15864 0.04453
 C1395 C 0.47435 0.13338 0.03162
 C1396 C 0.49820 0.12017 0.02692
 C1397 C 0.52214 0.13272 0.03444
 C1398 C 0.52217 0.15799 0.04732
 C1399 C 0.49775 0.09282 0.01765
 C1400 C 0.49634 0.06951 0.01193
 H1401 H 0.45576 0.16823 0.04890
 H1402 H 0.45568 0.12377 0.02626
 H1403 H 0.54069 0.12262 0.03131
 H1404 H 0.54077 0.16711 0.05388
 C1405 C -0.00383 0.19915 0.90962
 C1406 C -0.00963 0.18053 0.92531
 C1407 C -0.01491 0.15719 0.94305
 C1408 C 0.00004 0.15245 0.96875
 C1409 C -0.00217 0.12814 0.98350
 C1410 C -0.01937 0.10837 0.97271
 C1411 C -0.03503 0.11346 0.94765
 C1412 C -0.03281 0.13777 0.93289
 C1413 C -0.01827 0.08191 0.98468
 C1414 C -0.01573 0.05934 0.99283
 H1415 H 0.01419 0.16711 0.97667
 H1416 H 0.01035 0.12438 1.00254
 H1417 H -0.04812 0.09825 0.93877
 H1418 H -0.04426 0.14099 0.91287
 C1419 C 0.49779 0.69950 0.41105
 C1420 C 0.49206 0.68094 0.42685
 C1421 C 0.48689 0.65768 0.44474
 C1422 C 0.50199 0.65304 0.47035
 C1423 C 0.49987 0.62879 0.48524
 C1424 C 0.48259 0.60898 0.47467
 C1425 C 0.46678 0.61398 0.44971
 C1426 C 0.46892 0.63822 0.43481
 C1427 C 0.48376 0.58257 0.48676
 C1428 C 0.48632 0.56003 0.49499
 H1429 H 0.51619 0.66773 0.47809
 H1430 H 0.51250 0.62510 0.50420
 H1431 H 0.45364 0.59873 0.44101
 H1432 H 0.45734 0.64137 0.41487
 C1433 C 0.51375 0.78987 0.41431
 C1434 C 0.51297 0.80888 0.43076
 C1435 C 0.51263 0.83223 0.44952
 C1436 C 0.53609 0.84658 0.45479
 C1437 C 0.53559 0.87034 0.47097
 C1438 C 0.51162 0.87991 0.48209
 C1439 C 0.48824 0.86527 0.47737
 C1440 C 0.48875 0.84152 0.46117
 C1441 C 0.51055 0.90586 0.49563
 C1442 C 0.50903 0.92819 0.50514
 H1443 H 0.55468 0.83974 0.44578
 H1444 H 0.55375 0.88158 0.47411
 H1445 H 0.46952 0.87257 0.48550
 H1446 H 0.47044 0.83075 0.45714
 C1447 C 0.01232 0.28946 0.91324
 C1448 C 0.01166 0.30840 0.92980
 C1449 C 0.01154 0.33169 0.94867
 C1450 C -0.01226 0.34119 0.96032
 C1451 C -0.01255 0.36491 0.97660
 C1452 C 0.01096 0.37930 0.98142
 C1453 C 0.03485 0.36951 0.97031
 C1454 C 0.03513 0.34579 0.95404
 C1455 C 0.01013 0.40524 0.99503
 C1456 C 0.00878 0.42756 1.00458
 H1457 H -0.03067 0.33062 0.95621
 H1458 H -0.03120 0.37238 0.98473
 H1459 H 0.05312 0.38055 0.97352
 H1460 H 0.05366 0.33878 0.94504
 C1461 C 0.49145 0.30705 0.08507
 C1462 C 0.48797 0.32603 0.06934
 C1463 C 0.48576 0.34980 0.05184
 C1464 C 0.46803 0.36949 0.06043
 C1465 C 0.46881 0.39420 0.04645
 C1466 C 0.48734 0.39941 0.02381
 C1467 C 0.50440 0.37941 0.01449
 C1468 C 0.50361 0.35470 0.02845
 C1469 C 0.49093 0.42598 0.01276
 C1470 C 0.49497 0.44856 0.00518
 H1471 H 0.45437 0.36612 0.07873
 H1472 H 0.45571 0.40958 0.05412
 H1473 H 0.51903 0.38325 -0.00272
 H1474 H 0.51766 0.33981 0.02184
 C1475 C -0.00877 0.80641 0.58457
 C1476 C -0.01228 0.82529 0.56871
 C1477 C -0.01451 0.84897 0.55105
 C1478 C -0.03221 0.86871 0.55954
 C1479 C -0.03140 0.89337 0.54545
 C1480 C -0.01286 0.89846 0.52278
 C1481 C 0.00416 0.87840 0.51354
 C1482 C 0.00334 0.85374 0.52761
 C1483 C -0.00919 0.92500 0.51167
 C1484 C -0.00507 0.94755 0.50405
 H1485 H -0.04586 0.86544 0.57787
 H1486 H -0.04446 0.90879 0.55305
 H1487 H 0.01880 0.88216 0.49632
 H1488 H 0.01737 0.83881 0.52108
 C1489 C 0.23683 0.36615 0.03759
 C1490 C 0.22544 0.35389 0.05683
 C1491 C 0.21332 0.33937 0.08087
 C1492 C 0.20845 0.35207 0.10815
 C1493 C 0.20183 0.33721 0.13338
 C1494 C 0.19996 0.30962 0.13138
 C1495 C 0.20307 0.29711 0.10365
 C1496 C 0.20972 0.31196 0.07841
 C1497 C 0.20182 0.29422 0.15810
 C1498 C 0.20748 0.28161 0.17980
 H1499 H 0.21143 0.37323 0.11035
 H1500 H 0.20013 0.34705 0.15483
 H1501 H 0.20233 0.27575 0.10197
 H1502 H 0.21368 0.30192 0.05749
 C1503 C 0.73659 0.86649 0.53897
 C1504 C 0.72520 0.85419 0.55817
 C1505 C 0.71309 0.83960 0.58216
 C1506 C 0.70830 0.85220 0.60952
 C1507 C 0.70172 0.83725 0.63470
 C1508 C 0.69982 0.80967 0.63257
 C1509 C 0.70284 0.79726 0.60476
 C1510 C 0.70945 0.81221 0.57958
 C1511 C 0.70176 0.79417 0.65920
 C1512 C 0.70750 0.78149 0.68082
 H1513 H 0.71131 0.87335 0.61182
 H1514 H 0.70009 0.84701 0.65620
 H1515 H 0.70208 0.77591 0.60299
 H1516 H 0.71335 0.80224 0.55860
 C1517 C 0.26130 0.62690 0.54474
 C1518 C 0.26497 0.63987 0.56697
 C1519 C 0.27021 0.65460 0.59383
 C1520 C 0.27747 0.68136 0.59233
 C1521 C 0.28169 0.69582 0.61859
 C1522 C 0.27884 0.68351 0.64639
 C1523 C 0.27230 0.65657 0.64785
 C1524 C 0.26809 0.64211 0.62160
 C1525 C 0.27803 0.69934 0.67300
 C1526 C 0.27423 0.71306 0.69452
 H1527 H 0.27928 0.69116 0.57095
 H1528 H 0.28620 0.71677 0.61724
 H1529 H 0.26950 0.64700 0.66925
 H1530 H 0.26259 0.62139 0.62297
 C1531 C 0.76083 0.12696 0.04489
 C1532 C 0.76477 0.13999 0.06702
 C1533 C 0.77025 0.15474 0.09381
 C1534 C 0.76884 0.14214 0.12157
 C1535 C 0.77316 0.15661 0.14779
 C1536 C 0.77910 0.18368 0.14631
 C1537 C 0.78128 0.19611 0.11850
 C1538 C 0.77694 0.18164 0.09227
 C1539 C 0.77830 0.19942 0.17298
 C1540 C 0.77446 0.21303 0.19459
 H1541 H 0.76378 0.12131 0.12297
 H1542 H 0.77088 0.14693 0.16920
 H1543 H 0.78531 0.21715 0.11715
 H1544 H 0.77819 0.19153 0.07090
 C1545 C 0.73289 0.13028 0.94664
 C1546 C 0.72576 0.14555 0.92788
 C1547 C 0.71933 0.16334 0.90416
 C1548 C 0.71486 0.15330 0.87539
 C1549 C 0.71385 0.17044 0.85106
 C1550 C 0.71723 0.19769 0.85546
 C1551 C 0.72026 0.20784 0.88442
 C1552 C 0.72130 0.19069 0.90875
 C1553 C 0.72251 0.21441 0.83029
 C1554 C 0.72959 0.22777 0.80953
 H1555 H 0.71367 0.13216 0.87154
 H1556 H 0.71202 0.16235 0.82871
 H1557 H 0.72338 0.22884 0.88800
 H1558 H 0.72512 0.19863 0.93085
 C1559 C 0.23475 0.63086 0.44582
 C1560 C 0.22747 0.64597 0.42697
 C1561 C 0.22078 0.66359 0.40318
 C1562 C 0.21637 0.65339 0.37446
 C1563 C 0.21502 0.67043 0.35008
 C1564 C 0.21799 0.69774 0.35436
 C1565 C 0.22096 0.70802 0.38327
 C1566 C 0.22234 0.69096 0.40766
 C1567 C 0.22298 0.71445 0.32911
 C1568 C 0.22988 0.72784 0.30830
 H1569 H 0.21548 0.63223 0.37070
 H1570 H 0.21325 0.66225 0.32776
 H1571 H 0.22378 0.72907 0.38676
 H1572 H 0.22609 0.69903 0.42972
 C1573 C 0.77017 0.86067 0.44238
 C1574 C 0.77414 0.84533 0.42230
 C1575 C 0.77969 0.82782 0.39781
 C1576 C 0.77490 0.80062 0.40050
 C1577 C 0.77895 0.78394 0.37601
 C1578 C 0.78795 0.79439 0.34883
 C1579 C 0.79351 0.82147 0.34644
 C1580 C 0.78946 0.83815 0.37092
 C1581 C 0.78694 0.77831 0.32239
 C1582 C 0.78297 0.76557 0.30010
 H1583 H 0.76738 0.79245 0.42122
 H1584 H 0.77406 0.76310 0.37790
 H1585 H 0.79995 0.82983 0.32536
 H1586 H 0.79326 0.85917 0.36864
 C1587 C 0.27008 0.36058 0.94072
 C1588 C 0.27388 0.34533 0.92051
 C1589 C 0.27916 0.32793 0.89584
 C1590 C 0.28794 0.33846 0.86862
 C1591 C 0.29169 0.32186 0.84401
 C1592 C 0.28684 0.29466 0.84659
 C1593 C 0.27884 0.28404 0.87407
 C1594 C 0.27508 0.30064 0.89869
 C1595 C 0.28556 0.27855 0.82019
 C1596 C 0.28142 0.26574 0.79798
 H1597 H 0.29119 0.35955 0.86622
 H1598 H 0.29733 0.33035 0.82271
 H1599 H 0.27450 0.26310 0.87612
 H1600 H 0.26832 0.29232 0.91966
 C1601 C 0.82452 0.46835 0.77596
 C1602 C 0.81379 0.44698 0.77528
 C1603 C 0.80239 0.42083 0.77498
 C1604 C 0.80432 0.40490 0.80038
 C1605 C 0.79535 0.37867 0.79948
 C1606 C 0.78443 0.36830 0.77317
 C1607 C 0.78205 0.38435 0.74794
 C1608 C 0.79105 0.41058 0.74883
 C1609 C 0.77688 0.34089 0.77149
 C1610 C 0.77100 0.31786 0.76919
 H1611 H 0.81326 0.41260 0.82063
 H1612 H 0.79740 0.36636 0.81904
 H1613 H 0.77372 0.37645 0.72747
 H1614 H 0.78967 0.42267 0.72901
 C1615 C 0.32446 0.96858 0.27621
 C1616 C 0.31378 0.94719 0.27535
 C1617 C 0.30243 0.92102 0.27481
 C1618 C 0.29115 0.91093 0.24854
 C1619 C 0.28217 0.88470 0.24742
 C1620 C 0.28449 0.86849 0.27252
 C1621 C 0.29535 0.87871 0.29894
 C1622 C 0.30430 0.90494 0.30007
 C1623 C 0.27694 0.84109 0.27062
 C1624 C 0.27105 0.81807 0.26817
 H1625 H 0.28981 0.92314 0.22881
 H1626 H 0.27389 0.87692 0.22685
 H1627 H 0.29735 0.86628 0.31841
 H1628 H 0.31319 0.91251 0.32042
 C1629 C 0.17063 0.94521 0.72363
 C1630 C 0.18472 0.92734 0.71642
 C1631 C 0.20019 0.90425 0.71128
 C1632 C 0.18908 0.88281 0.69567
 C1633 C 0.20084 0.85805 0.69702
 C1634 C 0.22372 0.85470 0.71402
 C1635 C 0.23565 0.87643 0.72827
 C1636 C 0.22388 0.90120 0.72691
 C1637 C 0.23274 0.82855 0.72007
 C1638 C 0.23904 0.80643 0.72621
 H1639 H 0.17047 0.88482 0.68406
 H1640 H 0.19131 0.84126 0.68624
 H1641 H 0.25317 0.87394 0.74177
 H1642 H 0.23233 0.91752 0.73958
 C1643 C 0.67134 0.44531 0.22512
 C1644 C 0.68513 0.42727 0.21770
 C1645 C 0.70031 0.40401 0.21238
 C1646 C 0.68869 0.38253 0.19729
 C1647 C 0.70030 0.35770 0.19857
 C1648 C 0.72350 0.35430 0.21498
 C1649 C 0.73590 0.37605 0.22868
 C1650 C 0.72430 0.40090 0.22740
 C1651 C 0.73250 0.32813 0.22095
 C1652 C 0.73882 0.30600 0.22701
 H1653 H 0.66986 0.38461 0.18616
 H1654 H 0.69041 0.34090 0.18820
 H1655 H 0.75368 0.37352 0.24171
 H1656 H 0.73314 0.41725 0.23966
 C1657 C 0.67731 0.53288 0.25435
 C1658 C 0.68977 0.55326 0.25409
 C1659 C 0.70316 0.57840 0.25441
 C1660 C 0.70299 0.59375 0.28051
 C1661 C 0.71367 0.61933 0.28027
 C1662 C 0.72453 0.62959 0.25393
 C1663 C 0.72521 0.61406 0.22799
 C1664 C 0.71449 0.58847 0.22821
 C1665 C 0.73377 0.65645 0.25306
 C1666 C 0.74112 0.67908 0.25172
 H1667 H 0.69403 0.58618 0.30080
 H1668 H 0.71296 0.63127 0.30038
 H1669 H 0.73351 0.62192 0.20750
 H1670 H 0.71449 0.57682 0.20786
 C1671 C 0.17492 0.03290 0.75230
 C1672 C 0.18734 0.05331 0.75223
 C1673 C 0.20070 0.07846 0.75283
 C1674 C 0.19968 0.09402 0.77873
 C1675 C 0.21047 0.11955 0.77870
 C1676 C 0.22230 0.12955 0.75276
 C1677 C 0.22381 0.11382 0.72703
 C1678 C 0.21299 0.08828 0.72704
 C1679 C 0.23169 0.15637 0.75201
 C1680 C 0.23917 0.17896 0.75063
 H1681 H 0.19000 0.08664 0.79869
 H1682 H 0.20911 0.13166 0.79864
 H1683 H 0.23286 0.12148 0.70684
 H1684 H 0.21366 0.07645 0.70684
 C1685 C 0.32570 0.05847 0.24681
 C1686 C 0.31320 0.07615 0.23618
 C1687 C 0.29914 0.09873 0.22572
 C1688 C 0.27311 0.10281 0.23520
 C1689 C 0.26103 0.12697 0.22980
 C1690 C 0.27493 0.14712 0.21492
 C1691 C 0.30055 0.14266 0.20433
 C1692 C 0.31263 0.11848 0.20971
 C1693 C 0.26440 0.17329 0.21437
 C1694 C 0.25615 0.19541 0.21617
 H1695 H 0.26266 0.08784 0.24801
 H1696 H 0.24137 0.13039 0.23850
 H1697 H 0.31162 0.15826 0.19322
 H1698 H 0.33291 0.11568 0.20271
 C1699 C 0.82588 0.55813 0.74627
 C1700 C 0.81334 0.57582 0.73572
 C1701 C 0.79924 0.59843 0.72539
 C1702 C 0.77323 0.60246 0.73494
 C1703 C 0.76114 0.62665 0.72974
 C1704 C 0.77504 0.64689 0.71499
 C1705 C 0.80064 0.64248 0.70431
 C1706 C 0.81272 0.61827 0.70950
 C1707 C 0.76451 0.67306 0.71467
 C1708 C 0.75630 0.69519 0.71664
 H1709 H 0.76279 0.58742 0.74767
 H1710 H 0.74150 0.63003 0.73850
 H1711 H 0.81169 0.65815 0.69331
 H1712 H 0.83299 0.61551 0.70245
 C1713 C 0.96518 0.74979 0.16528
 C1714 C 0.94547 0.74885 0.18054
 C1715 C 0.92103 0.74891 0.19725
 C1716 C 0.90796 0.77279 0.20224
 C1717 C 0.88280 0.77281 0.21533
 C1718 C 0.87056 0.74894 0.22360
 C1719 C 0.88395 0.72512 0.21943
 C1720 C 0.90910 0.72510 0.20630
 C1721 C 0.84327 0.74842 0.23302
 C1722 C 0.81999 0.74691 0.23884
 H1723 H 0.91685 0.79132 0.19511
 H1724 H 0.87254 0.79132 0.21804
 H1725 H 0.87456 0.70649 0.22535
 H1726 H 0.91885 0.70649 0.20233
 C1727 C 0.46462 0.24982 0.66608
 C1728 C 0.44466 0.24875 0.68092
 C1729 C 0.41995 0.24863 0.69713
 C1730 C 0.40694 0.27250 0.70246
 C1731 C 0.38158 0.27240 0.71507
 C1732 C 0.36908 0.24843 0.72248
 C1733 C 0.38240 0.22462 0.71796
 C1734 C 0.40775 0.22471 0.70532
 C1735 C 0.34169 0.24788 0.73153
 C1736 C 0.31837 0.24637 0.73714
 H1737 H 0.41605 0.29112 0.69599
 H1738 H 0.37140 0.29091 0.71808
 H1739 H 0.37283 0.20593 0.72324
 H1740 H 0.41745 0.20613 0.70108
 C1741 C 0.44951 0.74680 0.84030
 C1742 C 0.43092 0.74110 0.82447
 C1743 C 0.40763 0.73595 0.80656
 C1744 C 0.38814 0.71803 0.81646
 C1745 C 0.36389 0.71591 0.80152
 C1746 C 0.35890 0.73168 0.77654
 C1747 C 0.37874 0.74891 0.76602
 C1748 C 0.40300 0.75102 0.78094
 C1749 C 0.33250 0.73284 0.76439
 C1750 C 0.30996 0.73541 0.75608
 H1751 H 0.39127 0.70648 0.83641
 H1752 H 0.34863 0.70280 0.81020
 H1753 H 0.37507 0.76152 0.74704
 H1754 H 0.41771 0.76519 0.77321
 C1755 C 0.95033 0.24710 0.33900
 C1756 C 0.93164 0.24126 0.32338
 C1757 C 0.90820 0.23600 0.30575
 C1758 C 0.90336 0.25091 0.28006
 C1759 C 0.87897 0.24873 0.26542
 C1760 C 0.85920 0.23159 0.27631
 C1761 C 0.86439 0.21598 0.30136
 C1762 C 0.88878 0.21817 0.31602
 C1763 C 0.83270 0.23268 0.26440
 C1764 C 0.81010 0.23517 0.25626
 H1765 H 0.91802 0.26500 0.27205
 H1766 H 0.87515 0.26121 0.24637
 H1767 H 0.84919 0.20295 0.31032
 H1768 H 0.89207 0.20676 0.33603
 C1769 C 0.03868 0.26297 0.33436
 C1770 C 0.05780 0.26218 0.31810
 C1771 C 0.08128 0.26191 0.29958
 C1772 C 0.09538 0.28548 0.29411
 C1773 C 0.11925 0.28509 0.27817
 C1774 C 0.12921 0.26112 0.26749
 C1775 C 0.11484 0.23762 0.27241
 C1776 C 0.09097 0.23801 0.28837
 C1777 C 0.15524 0.26023 0.25413
 C1778 C 0.17762 0.25886 0.24476
 H1779 H 0.08823 0.30408 0.30278
 H1780 H 0.13027 0.30336 0.27487
 H1781 H 0.12244 0.21891 0.26461
 H1782 H 0.08042 0.21962 0.29255
 C1783 C 0.53986 0.76245 0.83715
 C1784 C 0.55882 0.76171 0.82065
 C1785 C 0.58211 0.76151 0.80183
 C1786 C 0.59619 0.78509 0.79635
 C1787 C 0.61990 0.78475 0.78010
 C1788 C 0.62971 0.76082 0.76912
 C1789 C 0.61535 0.73732 0.77405
 C1790 C 0.59165 0.73766 0.79031
 C1791 C 0.65563 0.75996 0.75549
 C1792 C 0.67793 0.75860 0.74590
 H1793 H 0.58916 0.80366 0.80525
 H1794 H 0.63092 0.80302 0.77680
 H1795 H 0.62284 0.71864 0.76602
 H1796 H 0.58110 0.71927 0.79449
 C1797 C 0.55641 0.24138 0.66631
 C1798 C 0.57532 0.23781 0.68212
 C1799 C 0.59906 0.23551 0.69968
 C1800 C 0.60395 0.25330 0.72319
 C1801 C 0.62868 0.25409 0.73715
 C1802 C 0.64870 0.23710 0.72772
 C1803 C 0.64350 0.21862 0.70499
 C1804 C 0.61877 0.21784 0.69100
 C1805 C 0.67530 0.24076 0.73870
 C1806 C 0.69789 0.24488 0.74621
 H1807 H 0.58904 0.26731 0.72986
 H1808 H 0.63252 0.26868 0.75442
 H1809 H 0.65889 0.20559 0.69723
 H1810 H 0.61541 0.20424 0.67261
 C1811 C 0.05671 0.74142 0.16465
 C1812 C 0.07561 0.73794 0.18051
 C1813 C 0.09930 0.73571 0.19818
 C1814 C 0.10414 0.75361 0.22158
 C1815 C 0.12881 0.75441 0.23566
 C1816 C 0.14882 0.73730 0.22645
 C1817 C 0.14365 0.71871 0.20383
 C1818 C 0.11898 0.71793 0.18973
 C1819 C 0.17538 0.74097 0.23753
 C1820 C 0.19796 0.74509 0.24508
 H1821 H 0.08925 0.76770 0.22808
 H1822 H 0.13263 0.76909 0.25284
 H1823 H 0.15904 0.70559 0.19625
 H1824 H 0.11565 0.70423 0.17143
   
