data_POSCAR
  _audit_creation_date              2014-09-24
  _audit_creation_method            'ToBaCCo'
  _symmetry_space_group_name_H-M    'P1'
  _symmetry_Int_Tables_number       1
  _symmetry_cell_setting            triclinic
  loop_
  _symmetry_equiv_pos_as_xyz
 x,y,z
_cell_length_a 50.1962
_cell_length_b 50.1957
_cell_length_c 50.1964
_cell_angle_alpha 88.855300
_cell_angle_beta 88.854600
_cell_angle_gamma 88.854800
loop_
  _atom_site_label
  _atom_site_type_symbol
  _atom_site_fract_x
  _atom_site_fract_y
  _atom_site_fract_z
C1 C 0.75562 0.61788 0.99914
 C2 C 0.74938 0.37815 0.50348
 C3 C 0.24940 -0.12190 0.00349
 C4 C 0.25564 0.11789 0.49912
 C5 C 0.11789 0.49911 0.25566
 C6 C -0.12185 0.00349 0.24935
 C7 C 0.37812 0.50347 0.74939
 C8 C 0.61790 0.99911 0.75560
 C9 C 0.00346 0.24943 -0.12190
 C10 C 0.49910 0.25561 0.11786
 C11 C 0.99912 0.75568 0.61790
 C12 C 0.50348 0.74937 0.37814
 C13 C 0.41976 -0.02557 0.27681
 H14 H 0.42084 -0.00637 0.28609
 C15 C 0.43386 -0.04752 0.28738
 H16 H 0.44598 -0.04521 0.30477
 C17 C 0.40140 -0.05257 0.24383
 H18 H 0.38809 -0.05475 0.22742
 C19 C 0.41516 -0.07495 0.25373
 H20 H 0.41258 -0.09414 0.24472
 N21 N 0.40378 -0.02850 0.25551
 C22 C 0.38707 0.05000 0.22017
 H23 H 0.36565 0.04844 0.21921
 C24 C 0.39947 0.07280 0.21024
 H25 H 0.38759 0.08887 0.20152
 C26 C 0.42871 0.03091 0.23272
 H27 H 0.43995 0.01446 0.24140
 C28 C 0.44197 0.05350 0.22297
 H29 H 0.46345 0.05446 0.22418
 Zn30 Zn 0.38171 0.00060 0.24452
 N31 N 0.40168 0.02978 0.23141
 C32 C 0.36336 0.03658 0.28354
 N33 N 0.36104 0.01133 0.27460
 C34 C 0.34578 -0.00683 0.28804
 C35 C 0.33197 0.00029 0.31143
 C36 C 0.34990 0.04448 0.30670
 C37 C 0.37308 -0.01496 0.19290
 C38 C 0.35910 -0.02328 0.17096
 C39 C 0.31830 -0.02026 0.19724
 C40 C 0.33310 -0.01192 0.21879
 N41 N 0.36005 -0.00986 0.21633
 H42 H 0.37613 0.05054 0.27315
 H43 H 0.34473 -0.02694 0.28084
 H44 H 0.32007 -0.01429 0.32220
 H45 H 0.35212 0.06456 0.31377
 H46 H 0.39447 -0.01287 0.19146
 H47 H 0.36974 -0.02774 0.15254
 H48 H 0.29692 -0.02234 0.19939
 H49 H 0.32309 -0.00733 0.23744
 C50 C 0.42712 0.07466 0.21177
 C51 C 0.43128 -0.07249 0.27588
 C52 C 0.33151 -0.02614 0.17318
 C53 C 0.33419 0.02619 0.32084
 C54 C 0.08517 1.02361 0.78250
 H55 H 0.08330 1.00435 0.79236
 C56 C 0.07158 1.04587 0.79275
 H57 H 0.05908 1.04376 0.81048
 C58 C 0.10492 1.05033 0.74827
 H59 H 0.11855 1.05225 0.73148
 C60 C 0.09170 1.07302 0.75783
 H61 H 0.09501 1.09220 0.74818
 N62 N 0.10157 1.02624 0.76072
 C63 C 0.11589 0.94732 0.72793
 H64 H 0.13743 0.94774 0.72700
 C65 C 0.10267 0.92552 0.71819
 H66 H 0.11404 0.90907 0.70972
 C67 C 0.07475 0.96852 0.73966
 H68 H 0.06403 0.98550 0.74775
 C69 C 0.06068 0.94701 0.73005
 H70 H 0.03910 0.94737 0.73083
 Zn71 Zn 0.12277 0.99655 0.74999
 N72 N 0.10189 0.96815 0.73855
 C73 C 0.14025 0.96009 0.78980
 N74 N 0.14317 0.98522 0.77962
 C75 C 0.15906 1.00299 0.79147
 C76 C 0.17299 0.99558 0.81443
 C77 C 0.15380 0.95190 0.81261
 C78 C 0.13176 1.01215 0.69755
 C79 C 0.14592 1.02011 0.67470
 C80 C 0.18674 1.01547 0.69927
 C81 C 0.17177 1.00751 0.72176
 N82 N 0.14473 1.00645 0.72056
 H83 H 0.12699 0.94647 0.78066
 H84 H 0.16059 1.02302 0.78330
 H85 H 0.18544 1.00985 0.82390
 H86 H 0.15114 0.93193 0.82068
 H87 H 0.11029 1.01084 0.69712
 H88 H 0.13534 1.02509 0.65661
 H89 H 0.20820 1.01678 0.70039
 H90 H 0.18171 1.00243 0.74011
 C91 C 0.07485 0.92533 0.71924
 C92 C 0.07513 1.07084 0.78043
 C93 C 0.17361 1.02198 0.67561
 C94 C 0.17022 0.96980 0.82509
 C95 C 0.58509 0.52354 0.28248
 H96 H 0.58323 0.50429 0.29234
 C97 C 0.57151 0.54580 0.29274
 H98 H 0.55902 0.54369 0.31047
 C99 C 0.60483 0.55027 0.24824
 H100 H 0.61846 0.55219 0.23145
 C101 C 0.59161 0.57296 0.25781
 H102 H 0.59492 0.59214 0.24815
 N103 N 0.60148 0.52618 0.26070
 C104 C 0.61583 0.44726 0.22790
 H105 H 0.63737 0.44769 0.22698
 C106 C 0.60262 0.42545 0.21816
 H107 H 0.61399 0.40901 0.20969
 C108 C 0.57469 0.46845 0.23963
 H109 H 0.56396 0.48543 0.24772
 C110 C 0.56062 0.44693 0.23002
 H111 H 0.53904 0.44729 0.23080
 Zn112 Zn 0.62269 0.49649 0.24996
 N113 N 0.60182 0.46809 0.23853
 C114 C 0.64019 0.46004 0.28978
 N115 N 0.64310 0.48517 0.27959
 C116 C 0.65899 0.50294 0.29145
 C117 C 0.67292 0.49555 0.31439
 C118 C 0.65374 0.45186 0.31259
 C119 C 0.63169 0.51210 0.19752
 C120 C 0.64585 0.52007 0.17468
 C121 C 0.68667 0.51543 0.19925
 C122 C 0.67169 0.50747 0.22174
 N123 N 0.64465 0.50640 0.22054
 H124 H 0.62692 0.44642 0.28064
 H125 H 0.66051 0.52297 0.28327
 H126 H 0.68536 0.50982 0.32387
 H127 H 0.65109 0.43189 0.32066
 H128 H 0.61021 0.51078 0.19709
 H129 H 0.63527 0.52505 0.15658
 H130 H 0.70813 0.51675 0.20038
 H131 H 0.68163 0.50238 0.24009
 C132 C 0.57479 0.42526 0.21921
 C133 C 0.57505 0.57077 0.28042
 C134 C 0.67354 0.52195 0.17559
 C135 C 0.67015 0.46977 0.32506
 C136 C 0.91973 0.47448 0.77679
 H137 H 0.92082 0.49368 0.78608
 C138 C 0.93383 0.45253 0.78736
 H139 H 0.94595 0.45484 0.80475
 C140 C 0.90137 0.44750 0.74380
 H141 H 0.88807 0.44533 0.72739
 C142 C 0.91514 0.42512 0.75369
 H143 H 0.91256 0.40593 0.74468
 N144 N 0.90375 0.47157 0.75548
 C145 C 0.88705 0.55007 0.72017
 H146 H 0.86562 0.54851 0.71921
 C147 C 0.89945 0.57288 0.71025
 H148 H 0.88757 0.58895 0.70154
 C149 C 0.92868 0.53098 0.73272
 H150 H 0.93993 0.51452 0.74139
 C151 C 0.94194 0.55357 0.72297
 H152 H 0.96342 0.55453 0.72418
 Zn153 Zn 0.88168 0.50067 0.74451
 N154 N 0.90166 0.52985 0.73141
 C155 C 0.86333 0.53664 0.78354
 N156 N 0.86102 0.51139 0.77459
 C157 C 0.84576 0.49323 0.78803
 C158 C 0.83194 0.50033 0.81141
 C159 C 0.84988 0.54453 0.80670
 C160 C 0.87305 0.48513 0.69288
 C161 C 0.85908 0.47681 0.67093
 C162 C 0.81828 0.47981 0.69722
 C163 C 0.83307 0.48815 0.71877
 N164 N 0.86002 0.49021 0.71631
 H165 H 0.87610 0.55060 0.77315
 H166 H 0.84471 0.47312 0.78081
 H167 H 0.82005 0.48575 0.82218
 H168 H 0.85210 0.56461 0.81377
 H169 H 0.89445 0.48721 0.69144
 H170 H 0.86972 0.47235 0.65252
 H171 H 0.79690 0.47773 0.69937
 H172 H 0.82306 0.49273 0.73742
 C173 C 0.92710 0.57474 0.71178
 C174 C 0.93125 0.42757 0.77585
 C175 C 0.83149 0.47394 0.67316
 C176 C 0.83416 0.52623 0.82083
 C177 C 0.27679 0.41975 -0.02555
 H178 H 0.28608 0.42084 -0.00635
 C179 C 0.28736 0.43385 -0.04750
 H180 H 0.30475 0.44597 -0.04519
 C181 C 0.24380 0.40140 -0.05254
 H182 H 0.22739 0.38810 -0.05471
 C183 C 0.25370 0.41517 -0.07492
 H184 H 0.24468 0.41259 -0.09411
 N185 N 0.25548 0.40378 -0.02847
 C186 C 0.22016 0.38707 0.05003
 H187 H 0.21919 0.36565 0.04846
 C188 C 0.21024 0.39947 0.07284
 H189 H 0.20152 0.38759 0.08890
 C190 C 0.23271 0.42871 0.03095
 H191 H 0.24139 0.43995 0.01449
 C192 C 0.22297 0.44197 0.05353
 H193 H 0.22418 0.46344 0.05449
 Zn194 Zn 0.24450 0.38171 0.00063
 N195 N 0.23140 0.40168 0.02981
 C196 C 0.28352 0.36335 0.03660
 N197 N 0.27457 0.36104 0.01135
 C198 C 0.28801 0.34578 -0.00681
 C199 C 0.31140 0.33195 0.00030
 C200 C 0.30668 0.34989 0.04449
 C201 C 0.19288 0.37309 -0.01492
 C202 C 0.17092 0.35911 -0.02324
 C203 C 0.19720 0.31831 -0.02023
 C204 C 0.21876 0.33310 -0.01189
 N205 N 0.21630 0.36005 -0.00984
 H206 H 0.27314 0.37612 0.05056
 H207 H 0.28080 0.34473 -0.02692
 H208 H 0.32217 0.32006 -0.01428
 H209 H 0.31375 0.35211 0.06457
 H210 H 0.19143 0.39448 -0.01283
 H211 H 0.15251 0.36976 -0.02770
 H212 H 0.19935 0.29694 -0.02232
 H213 H 0.23741 0.32309 -0.00731
 C214 C 0.21177 0.42712 0.07470
 C215 C 0.27585 0.43128 -0.07246
 C216 C 0.17315 0.33153 -0.02611
 C217 C 0.32081 0.33417 0.02619
 C218 C 0.78249 0.08514 1.02354
 H219 H 0.79235 0.08327 1.00428
 C220 C 0.79275 0.07156 1.04580
 H221 H 0.81049 0.05907 1.04368
 C222 C 0.74825 0.10487 1.05026
 H223 H 0.73145 0.11850 1.05218
 C224 C 0.75782 0.09166 1.07295
 H225 H 0.74817 0.09497 1.09213
 N226 N 0.76070 0.10153 1.02617
 C227 C 0.72790 0.11586 0.94725
 H228 H 0.72697 0.13740 0.94768
 C229 C 0.71817 0.10264 0.92545
 H230 H 0.70969 0.11402 0.90900
 C231 C 0.73964 0.07472 0.96845
 H232 H 0.74773 0.06399 0.98542
 C233 C 0.73004 0.06065 0.94693
 H234 H 0.73082 0.03907 0.94729
 Zn235 Zn 0.74996 0.12273 0.99648
 N236 N 0.73853 0.10186 0.96808
 C237 C 0.78977 0.14023 0.96003
 N238 N 0.77959 0.14314 0.98515
 C239 C 0.79144 0.15904 1.00293
 C240 C 0.81439 0.17297 0.99553
 C241 C 0.81258 0.15378 0.95184
 C242 C 0.69752 0.13172 1.01209
 C243 C 0.67467 0.14587 1.02006
 C244 C 0.69924 0.18670 1.01542
 C245 C 0.72173 0.17172 1.00746
 N246 N 0.72053 0.14469 1.00639
 H247 H 0.78063 0.12697 0.94641
 H248 H 0.78327 0.16056 1.02296
 H249 H 0.82386 0.18541 1.00980
 H250 H 0.82065 0.15114 0.93187
 H251 H 0.69710 0.11024 1.01078
 H252 H 0.65658 0.13529 1.02504
 H253 H 0.70036 0.20816 1.01673
 H254 H 0.74008 0.18167 1.00237
 C255 C 0.71922 0.07482 0.92526
 C256 C 0.78043 0.07510 1.07077
 C257 C 0.67558 0.17356 1.02194
 C258 C 0.82505 0.17021 0.96975
 C259 C 0.28247 0.58515 0.52359
 H260 H 0.29233 0.58328 0.50433
 C261 C 0.29273 0.57156 0.54585
 H262 H 0.31046 0.55907 0.54373
 C263 C 0.24824 0.60489 0.55031
 H264 H 0.23144 0.61852 0.55223
 C265 C 0.25780 0.59167 0.57300
 H266 H 0.24815 0.59498 0.59218
 N267 N 0.26069 0.60154 0.52622
 C268 C 0.22789 0.61588 0.44730
 H269 H 0.22696 0.63742 0.44773
 C270 C 0.21816 0.60266 0.42550
 H271 H 0.20968 0.61404 0.40905
 C272 C 0.23963 0.57474 0.46850
 H273 H 0.24771 0.56401 0.48547
 C274 C 0.23002 0.56067 0.44698
 H275 H 0.23080 0.53909 0.44734
 Zn276 Zn 0.24995 0.62275 0.49653
 N277 N 0.23852 0.60188 0.46813
 C278 C 0.28977 0.64024 0.46008
 N279 N 0.27958 0.64315 0.48521
 C280 C 0.29144 0.65904 0.50298
 C281 C 0.31440 0.67297 0.49559
 C282 C 0.31258 0.65379 0.45190
 C283 C 0.19751 0.63175 0.51215
 C284 C 0.17467 0.64591 0.52011
 C285 C 0.19924 0.68673 0.51547
 C286 C 0.22173 0.67175 0.50751
 N287 N 0.22053 0.64471 0.50644
 H288 H 0.28062 0.62698 0.44646
 H289 H 0.28327 0.66056 0.52302
 H290 H 0.32388 0.68540 0.50987
 H291 H 0.32065 0.65114 0.43193
 H292 H 0.19709 0.61027 0.51083
 H293 H 0.15658 0.63533 0.52509
 H294 H 0.20037 0.70819 0.51678
 H295 H 0.24008 0.68169 0.50242
 C296 C 0.21921 0.57484 0.42531
 C297 C 0.28040 0.57510 0.57082
 C298 C 0.17558 0.67360 0.52199
 C299 C 0.32506 0.67020 0.46981
 C300 C 0.77681 0.91977 0.47439
 H301 H 0.78609 0.92086 0.49360
 C302 C 0.78738 0.93387 0.45244
 H303 H 0.80476 0.94599 0.45476
 C304 C 0.74383 0.90139 0.44741
 H305 H 0.72743 0.88809 0.44523
 C306 C 0.75373 0.91516 0.42502
 H307 H 0.74472 0.91258 0.40583
 N308 N 0.75551 0.90378 0.47148
 C309 C 0.72017 0.88708 0.54997
 H310 H 0.71921 0.86566 0.54841
 C311 C 0.71025 0.89948 0.57278
 H312 H 0.70153 0.88760 0.58884
 C313 C 0.73272 0.92872 0.53088
 H314 H 0.74140 0.93997 0.51443
 C315 C 0.72297 0.94198 0.55347
 H316 H 0.72418 0.96346 0.55443
 Zn317 Zn 0.74453 0.88171 0.50058
 N318 N 0.73142 0.90169 0.52975
 C319 C 0.78355 0.86338 0.53656
 N320 N 0.77461 0.86106 0.51131
 C321 C 0.78805 0.84579 0.49316
 C322 C 0.81144 0.83198 0.50027
 C323 C 0.80671 0.84993 0.54446
 C324 C 0.69291 0.87307 0.48502
 C325 C 0.67096 0.85909 0.47671
 C326 C 0.69725 0.81830 0.47974
 C327 C 0.71880 0.83310 0.48807
 N328 N 0.71634 0.86005 0.49012
 H329 H 0.77316 0.87615 0.55051
 H330 H 0.78085 0.84474 0.47304
 H331 H 0.82221 0.82008 0.48570
 H332 H 0.81378 0.85216 0.56454
 H333 H 0.69146 0.89447 0.48710
 H334 H 0.65254 0.86973 0.47224
 H335 H 0.69940 0.79692 0.47766
 H336 H 0.73745 0.82309 0.49266
 C337 C 0.71178 0.92713 0.57464
 C338 C 0.77588 0.93128 0.42748
 C339 C 0.67319 0.83151 0.47385
 C340 C 0.82085 0.83421 0.52617
 C341 C -0.02557 0.27679 0.41977
 H342 H -0.00636 0.28608 0.42086
 C343 C -0.04752 0.28737 0.43387
 H344 H -0.04520 0.30476 0.44600
 C345 C -0.05256 0.24381 0.40141
 H346 H -0.05473 0.22741 0.38811
 C347 C -0.07494 0.25372 0.41517
 H348 H -0.09413 0.24471 0.41259
 N349 N -0.02849 0.25549 0.40380
 C350 C 0.05001 0.22016 0.38709
 H351 H 0.04845 0.21920 0.36567
 C352 C 0.07282 0.21024 0.39949
 H353 H 0.08888 0.20152 0.38761
 C354 C 0.03092 0.23271 0.42873
 H355 H 0.01447 0.24138 0.43997
 C356 C 0.05351 0.22296 0.44199
 H357 H 0.05447 0.22417 0.46346
 Zn358 Zn 0.00062 0.24451 0.38173
 N359 N 0.02979 0.23140 0.40170
 C360 C 0.03660 0.28353 0.36338
 N361 N 0.01134 0.27459 0.36107
 C362 C -0.00681 0.28803 0.34580
 C363 C 0.00030 0.31142 0.33199
 C364 C 0.04450 0.30669 0.34993
 C365 C -0.01494 0.19289 0.37309
 C366 C -0.02326 0.17095 0.35910
 C367 C -0.02024 0.19724 0.31831
 C368 C -0.01190 0.21879 0.33311
 N369 N -0.00985 0.21632 0.36006
 H370 H 0.05055 0.27314 0.37616
 H371 H -0.02692 0.28083 0.34475
 H372 H -0.01427 0.32219 0.32009
 H373 H 0.06457 0.31376 0.35215
 H374 H -0.01286 0.19145 0.39448
 H375 H -0.02773 0.15253 0.36974
 H376 H -0.02231 0.19938 0.29694
 H377 H -0.00731 0.23744 0.32310
 C378 C 0.07468 0.21176 0.42714
 C379 C -0.07248 0.27587 0.43129
 C380 C -0.02612 0.17318 0.33152
 C381 C 0.02620 0.32083 0.33421
 C382 C 1.02358 0.78246 0.08513
 H383 H 1.00432 0.79232 0.08326
 C384 C 1.04584 0.79271 0.07155
 H385 H 1.04373 0.81044 0.05905
 C386 C 1.05030 0.74823 0.10487
 H387 H 1.05222 0.73143 0.11851
 C388 C 1.07299 0.75779 0.09166
 H389 H 1.09217 0.74813 0.09497
 N390 N 1.02621 0.76068 0.10153
 C391 C 0.94729 0.72789 0.11587
 H392 H 0.94772 0.72697 0.13741
 C393 C 0.92548 0.71816 0.10266
 H394 H 0.90903 0.70969 0.11404
 C395 C 0.96848 0.73962 0.07473
 H396 H 0.98546 0.74770 0.06400
 C397 C 0.94696 0.73001 0.06066
 H398 H 0.94732 0.73079 0.03908
 Zn399 Zn 0.99652 0.74995 0.12274
 N400 N 0.96812 0.73851 0.10186
 C401 C 0.96007 0.78977 0.14023
 N402 N 0.98520 0.77958 0.14314
 C403 C 1.00297 0.79144 0.15902
 C404 C 0.99558 0.81439 0.17295
 C405 C 0.95189 0.81258 0.15377
 C406 C 1.01213 0.69751 0.13173
 C407 C 1.02009 0.67466 0.14589
 C408 C 1.01546 0.69924 0.18672
 C409 C 1.00749 0.72173 0.17173
 N410 N 1.00643 0.72053 0.14470
 H411 H 0.94645 0.78062 0.12696
 H412 H 1.02300 0.78326 0.16055
 H413 H 1.00986 0.82387 0.18539
 H414 H 0.93192 0.82066 0.15112
 H415 H 1.01081 0.69708 0.11026
 H416 H 1.02507 0.65657 0.13532
 H417 H 1.01677 0.70037 0.20818
 H418 H 1.00241 0.74008 0.18168
 C419 C 0.92529 0.71920 0.07484
 C420 C 1.07081 0.78039 0.07509
 C421 C 1.02197 0.67558 0.17359
 C422 C 0.96980 0.82506 0.17018
 C423 C 0.52357 0.28249 0.58513
 H424 H 0.50432 0.29235 0.58326
 C425 C 0.54583 0.29275 0.57155
 H426 H 0.54372 0.31048 0.55905
 C427 C 0.55030 0.24825 0.60487
 H428 H 0.55222 0.23146 0.61850
 C429 C 0.57299 0.25782 0.59165
 H430 H 0.59217 0.24817 0.59497
 N431 N 0.52621 0.26070 0.60152
 C432 C 0.44729 0.22790 0.61585
 H433 H 0.44772 0.22697 0.63739
 C434 C 0.42549 0.21817 0.60263
 H435 H 0.40904 0.20969 0.61401
 C436 C 0.46849 0.23964 0.57472
 H437 H 0.48546 0.24773 0.56399
 C438 C 0.44697 0.23004 0.56065
 H439 H 0.44733 0.23082 0.53906
 Zn440 Zn 0.49652 0.24996 0.62273
 N441 N 0.46812 0.23853 0.60185
 C442 C 0.46006 0.28978 0.64023
 N443 N 0.48519 0.27959 0.64314
 C444 C 0.50296 0.29145 0.65903
 C445 C 0.49556 0.31440 0.67296
 C446 C 0.45188 0.31258 0.65377
 C447 C 0.51213 0.19752 0.63171
 C448 C 0.52010 0.17467 0.64587
 C449 C 0.51545 0.19924 0.68670
 C450 C 0.50749 0.22173 0.67172
 N451 N 0.50643 0.22054 0.64468
 H452 H 0.44644 0.28063 0.62696
 H453 H 0.52299 0.28327 0.66055
 H454 H 0.50984 0.32388 0.68540
 H455 H 0.43190 0.32065 0.65113
 H456 H 0.51082 0.19710 0.61024
 H457 H 0.52508 0.15658 0.63529
 H458 H 0.51677 0.20036 0.70816
 H459 H 0.50241 0.24008 0.68167
 C460 C 0.42530 0.21922 0.57481
 C461 C 0.57080 0.28043 0.57509
 C462 C 0.52197 0.17558 0.67356
 C463 C 0.46978 0.32506 0.67019
 C464 C 0.47445 0.77679 0.91973
 H465 H 0.49365 0.78608 0.92082
 C466 C 0.45250 0.78736 0.93383
 H467 H 0.45481 0.80475 0.94595
 C468 C 0.44746 0.74381 0.90136
 H469 H 0.44529 0.72740 0.88806
 C470 C 0.42508 0.75371 0.91513
 H471 H 0.40589 0.74469 0.91255
 N472 N 0.47153 0.75549 0.90375
 C473 C 0.55003 0.72016 0.88706
 H474 H 0.54847 0.71920 0.86563
 C475 C 0.57284 0.71024 0.89946
 H476 H 0.58890 0.70152 0.88758
 C477 C 0.53094 0.73272 0.92869
 H478 H 0.51448 0.74139 0.93993
 C479 C 0.55352 0.72297 0.94195
 H480 H 0.55447 0.72418 0.96343
 Zn481 Zn 0.50064 0.74451 0.88168
 N482 N 0.52981 0.73140 0.90166
 C483 C 0.53661 0.78353 0.86333
 N484 N 0.51136 0.77458 0.86101
 C485 C 0.49320 0.78803 0.84575
 C486 C 0.50032 0.81141 0.83193
 C487 C 0.54451 0.80669 0.84987
 C488 C 0.48508 0.69289 0.87305
 C489 C 0.47676 0.67094 0.85908
 C490 C 0.47978 0.69722 0.81828
 C491 C 0.48812 0.71877 0.83307
 N492 N 0.49017 0.71631 0.86002
 H493 H 0.55057 0.77314 0.87610
 H494 H 0.47309 0.78082 0.84470
 H495 H 0.48574 0.82218 0.82004
 H496 H 0.56459 0.81376 0.85209
 H497 H 0.48716 0.69144 0.89445
 H498 H 0.47230 0.65252 0.86972
 H499 H 0.47771 0.69936 0.79690
 H500 H 0.49271 0.73742 0.82306
 C501 C 0.57469 0.71177 0.92711
 C502 C 0.42754 0.77586 0.93125
 C503 C 0.47390 0.67316 0.83149
 C504 C 0.52621 0.82082 0.83415
 C505 C 0.47878 -0.18404 0.33486
 C506 C 0.49460 -0.15935 0.34190
 C507 C 0.48586 -0.13650 0.32951
 C508 C 0.46215 -0.14056 0.31130
 C509 C 0.44090 -0.15385 0.32920
 C510 C 0.44964 -0.17668 0.34157
 C511 C 0.48030 -0.18517 0.30433
 C512 C 0.47154 -0.16229 0.29193
 C513 C 0.48795 -0.20846 0.34869
 C514 C 0.49512 -0.22795 0.36126
 C515 C 0.45233 -0.11596 0.29823
 C516 C 0.44331 -0.09594 0.28789
 H517 H 0.51126 -0.15981 0.35539
 H518 H 0.49501 -0.11738 0.33239
 H519 H 0.42073 -0.14602 0.33191
 H520 H 0.43694 -0.18840 0.35486
 H521 H 0.48761 -0.20238 0.29343
 H522 H 0.47136 -0.15989 0.27039
 C523 C 0.97876 0.31601 0.83482
 C524 C 0.99455 0.34071 0.84190
 C525 C 0.98580 0.36356 0.82951
 C526 C 0.96212 0.35949 0.81127
 C527 C 0.94086 0.34618 0.82913
 C528 C 0.94960 0.32335 0.84150
 C529 C 0.98032 0.31490 0.80429
 C530 C 0.97156 0.33779 0.79189
 C531 C 0.98793 0.29160 0.84865
 C532 C 0.99510 0.27211 0.86122
 C533 C 0.95230 0.38409 0.79819
 C534 C 0.94328 0.40411 0.78786
 H535 H 1.01119 0.34026 0.85541
 H536 H 0.99493 0.38269 0.83241
 H537 H 0.92068 0.35399 0.83182
 H538 H 0.93690 0.31162 0.85476
 H539 H 0.98766 0.29770 0.79339
 H540 H 0.97140 0.34019 0.77035
 C541 C 0.02884 1.18294 0.83671
 C542 C 0.01201 1.15864 0.84434
 C543 C 0.02060 1.13572 0.83254
 C544 C 0.04518 1.13934 0.81427
 C545 C 0.06608 1.15177 0.83188
 C546 C 0.05750 1.17467 0.84366
 C547 C 0.02862 1.18453 0.80614
 C548 C 0.03722 1.16158 0.79433
 C549 C 0.01974 1.20740 0.84989
 C550 C 0.01239 1.22686 0.86191
 C551 C 0.05477 1.11465 0.80182
 C552 C 0.06352 1.09450 0.79195
 H553 H -0.00519 1.15938 0.85779
 H554 H 0.01077 1.11684 0.83589
 H555 H 0.08591 1.14333 0.83482
 H556 H 0.06998 1.18584 0.85668
 H557 H 0.02227 1.20208 0.79480
 H558 H 0.03823 1.15947 0.77285
 C559 C 0.52883 0.68288 0.33673
 C560 C 0.52862 0.68448 0.30617
 C561 C 0.53721 0.66153 0.29435
 C562 C 0.54514 0.63928 0.31429
 C563 C 0.52055 0.63567 0.33255
 C564 C 0.51197 0.65859 0.34435
 C565 C 0.55748 0.67458 0.34369
 C566 C 0.56604 0.65169 0.33190
 C567 C 0.51974 0.70734 0.34992
 C568 C 0.51240 0.72680 0.36194
 C569 C 0.55472 0.61459 0.30183
 C570 C 0.56345 0.59444 0.29195
 H571 H 0.52228 0.70204 0.29483
 H572 H 0.53822 0.65943 0.27287
 H573 H 0.51071 0.61679 0.33588
 H574 H 0.49477 0.65934 0.35779
 H575 H 0.56996 0.68574 0.35672
 H576 H 0.58587 0.64323 0.33485
 C577 C 0.52354 0.31930 0.16150
 C578 C 0.55279 0.32529 0.15483
 C579 C 0.56192 0.34699 0.16734
 C580 C 0.54093 0.36065 0.18536
 C581 C 0.53117 0.33858 0.20459
 C582 C 0.52201 0.31680 0.19203
 C583 C 0.50815 0.34521 0.15465
 C584 C 0.51730 0.36696 0.16720
 C585 C 0.51409 0.29606 0.14748
 C586 C 0.50701 0.27743 0.13477
 C587 C 0.55136 0.38404 0.19843
 C588 C 0.56128 0.40305 0.20834
 H589 H 0.56527 0.31348 0.14145
 H590 H 0.58222 0.35376 0.16467
 H591 H 0.53139 0.33995 0.22614
 H592 H 0.51438 0.29951 0.20281
 H593 H 0.49148 0.34635 0.14119
 H594 H 0.50848 0.38672 0.16449
 C595 C 0.02356 0.81938 0.66155
 C596 C 0.02149 0.81713 0.69207
 C597 C 0.03066 0.83891 0.70463
 C598 C 0.04097 0.86073 0.68539
 C599 C 0.01771 0.86713 0.66679
 C600 C 0.00856 0.84539 0.65424
 C601 C 0.05298 0.82501 0.65532
 C602 C 0.06211 0.84671 0.66784
 C603 C 0.01411 0.79613 0.64752
 C604 C 0.00703 0.77750 0.63481
 C605 C 0.05140 0.88412 0.69847
 C606 C 0.06132 0.90313 0.70837
 H607 H 0.01351 0.80000 0.70284
 H608 H 0.03053 0.84044 0.72617
 H609 H 0.00914 0.88697 0.66378
 H610 H -0.00787 0.84660 0.64049
 H611 H 0.06556 0.81297 0.64224
 H612 H 0.08253 0.85325 0.66546
 C613 C 0.97490 0.68793 0.65886
 C614 C 0.94614 0.68133 0.65209
 C615 C 0.93762 0.65812 0.66349
 C616 C 0.95867 0.64371 0.68057
 C617 C 0.96693 0.66436 0.70087
 C618 C 0.97548 0.68765 0.68943
 C619 C 0.99157 0.66338 0.65054
 C620 C 0.98304 0.64013 0.66196
 C621 C 0.98383 0.71276 0.64601
 C622 C 0.99083 0.73260 0.63410
 C623 C 0.94897 0.61871 0.69248
 C624 C 0.93975 0.59841 0.70159
 H625 H 0.93354 0.69382 0.63946
 H626 H 0.91772 0.65073 0.66061
 H627 H 0.96617 0.66098 0.72230
 H628 H 0.98203 0.70423 0.70105
 H629 H 1.00864 0.66420 0.63692
 H630 H 0.99277 0.62104 0.65813
 C631 C 0.47490 0.18785 0.15882
 C632 C 0.44618 0.18119 0.15197
 C633 C 0.43767 0.15798 0.16337
 C634 C 0.45868 0.14363 0.18054
 C635 C 0.46684 0.16433 0.20084
 C636 C 0.47539 0.18761 0.18940
 C637 C 0.49164 0.16331 0.15058
 C638 C 0.48311 0.14006 0.16200
 C639 C 0.48382 0.21268 0.14596
 C640 C 0.49082 0.23252 0.13405
 C641 C 0.44899 0.11863 0.19246
 C642 C 0.43977 0.09833 0.20157
 H643 H 0.43360 0.19364 0.13929
 H644 H 0.41778 0.15056 0.16045
 H645 H 0.46603 0.16097 0.22227
 H646 H 0.48188 0.20422 0.20101
 H647 H 0.50874 0.16414 0.13701
 H648 H 0.49289 0.12098 0.15823
 C649 C 0.33484 0.47877 -0.18402
 C650 C 0.34189 0.49459 -0.15933
 C651 C 0.32950 0.48584 -0.13648
 C652 C 0.31128 0.46214 -0.14054
 C653 C 0.32917 0.44089 -0.15384
 C654 C 0.34153 0.44962 -0.17666
 C655 C 0.30431 0.48030 -0.18514
 C656 C 0.29190 0.47155 -0.16226
 C657 C 0.34866 0.48794 -0.20843
 C658 C 0.36124 0.49511 -0.22793
 C659 C 0.29821 0.45233 -0.11594
 C660 C 0.28787 0.44330 -0.09592
 H661 H 0.35538 0.51123 -0.15978
 H662 H 0.33238 0.49499 -0.11735
 H663 H 0.33187 0.42072 -0.14601
 H664 H 0.35482 0.43693 -0.18839
 H665 H 0.29341 0.48762 -0.20235
 H666 H 0.27037 0.47137 -0.15986
 C667 C 0.83486 0.97879 0.31593
 C668 C 0.80433 0.98033 0.31481
 C669 C 0.79193 0.97157 0.33769
 C670 C 0.81130 0.96215 0.35941
 C671 C 0.82953 0.98585 0.36348
 C672 C 0.84192 0.99459 0.34062
 C673 C 0.84155 0.94963 0.32328
 C674 C 0.82918 0.94090 0.34610
 C675 C 0.84869 0.98796 0.29152
 C676 C 0.86126 0.99513 0.27203
 C677 C 0.79823 0.95233 0.38401
 C678 C 0.78789 0.94331 0.40403
 H679 H 0.79343 0.98766 0.29760
 H680 H 0.77039 0.97140 0.34009
 H681 H 0.83242 0.99498 0.38260
 H682 H 0.85542 1.01124 0.34018
 H683 H 0.85483 0.93694 0.31155
 H684 H 0.83188 0.92072 0.35392
 C685 C 0.83675 0.02886 1.18287
 C686 C 0.84371 0.05751 1.17457
 C687 C 0.83192 0.06608 1.15168
 C688 C 0.81430 0.04518 1.13926
 C689 C 0.79436 0.03724 1.16151
 C690 C 0.80618 0.02865 1.18446
 C691 C 0.84436 0.01200 1.15857
 C692 C 0.83256 0.02059 1.13565
 C693 C 0.84993 0.01976 1.20732
 C694 C 0.86196 0.01241 1.22678
 C695 C 0.80184 0.05476 1.11457
 C696 C 0.79196 0.06350 1.09443
 H697 H 0.85674 0.06999 1.18573
 H698 H 0.83487 0.08591 1.14322
 H699 H 0.77288 0.03826 1.15942
 H700 H 0.79484 0.02231 1.20202
 H701 H 0.85780 -0.00520 1.15931
 H702 H 0.83589 0.01075 1.11677
 C703 C 0.33671 0.52884 0.68291
 C704 C 0.30614 0.52863 0.68451
 C705 C 0.29433 0.53723 0.66156
 C706 C 0.31426 0.54517 0.63931
 C707 C 0.33252 0.52058 0.63569
 C708 C 0.34432 0.51199 0.65861
 C709 C 0.34367 0.55749 0.67462
 C710 C 0.33188 0.56607 0.65173
 C711 C 0.34989 0.51974 0.70737
 C712 C 0.36192 0.51239 0.72683
 C713 C 0.30181 0.55476 0.61462
 C714 C 0.29193 0.56350 0.59448
 H715 H 0.29480 0.52229 0.70207
 H716 H 0.27285 0.53824 0.65946
 H717 H 0.33586 0.51074 0.61681
 H718 H 0.35777 0.49479 0.65936
 H719 H 0.35670 0.56997 0.68578
 H720 H 0.33483 0.58590 0.64328
 C721 C 0.16153 0.52356 0.31934
 C722 C 0.15487 0.55282 0.32531
 C723 C 0.16738 0.56195 0.34701
 C724 C 0.18537 0.54097 0.36070
 C725 C 0.20461 0.53118 0.33864
 C726 C 0.19206 0.52201 0.31687
 C727 C 0.15465 0.50819 0.34526
 C728 C 0.16719 0.51735 0.36701
 C729 C 0.14751 0.51410 0.29610
 C730 C 0.13480 0.50702 0.27747
 C731 C 0.19844 0.55140 0.38409
 C732 C 0.20834 0.56132 0.40310
 H733 H 0.14150 0.56530 0.31349
 H734 H 0.16472 0.58227 0.35377
 H735 H 0.22616 0.53138 0.34003
 H736 H 0.20284 0.51436 0.29959
 H737 H 0.14118 0.49153 0.34641
 H738 H 0.16447 0.50854 0.38678
 C739 C 0.66154 0.02355 0.81929
 C740 C 0.65489 0.05281 0.82525
 C741 C 0.66741 0.06194 0.84695
 C742 C 0.68539 0.04095 0.86065
 C743 C 0.70463 0.03115 0.83860
 C744 C 0.69207 0.02198 0.81682
 C745 C 0.65466 0.00818 0.84521
 C746 C 0.66720 0.01734 0.86696
 C747 C 0.64752 0.01409 0.79605
 C748 C 0.63481 0.00702 0.77742
 C749 C 0.69846 0.05138 0.88404
 C750 C 0.70836 0.06130 0.90305
 H751 H 0.64154 0.06530 0.81342
 H752 H 0.66475 0.08226 0.85371
 H753 H 0.72618 0.03134 0.83998
 H754 H 0.70285 0.01433 0.79954
 H755 H 0.64118 -0.00847 0.84635
 H756 H 0.66447 0.00854 0.88673
 C757 C 0.65886 0.97491 0.68784
 C758 C 0.65201 0.94619 0.68118
 C759 C 0.66341 0.93767 0.65797
 C760 C 0.68057 0.95870 0.64361
 C761 C 0.70087 0.96686 0.66430
 C762 C 0.68943 0.97540 0.68759
 C763 C 0.65060 0.99165 0.66330
 C764 C 0.66202 0.98312 0.64005
 C765 C 0.64600 0.98383 0.71267
 C766 C 0.63409 0.99082 0.73251
 C767 C 0.69248 0.94900 0.61861
 C768 C 0.70159 0.93978 0.59831
 H769 H 0.63934 0.93360 0.69364
 H770 H 0.66048 0.91779 0.65055
 H771 H 0.72230 0.96605 0.66094
 H772 H 0.70105 0.98190 0.70419
 H773 H 0.63703 1.00874 0.66414
 H774 H 0.65824 0.99290 0.62097
 C775 C 0.15885 0.47491 0.18790
 C776 C 0.18943 0.47539 0.18765
 C777 C 0.20086 0.46685 0.16437
 C778 C 0.18056 0.45869 0.14367
 C779 C 0.16202 0.48311 0.14011
 C780 C 0.15060 0.49164 0.16336
 C781 C 0.15200 0.44618 0.18124
 C782 C 0.16340 0.43767 0.15803
 C783 C 0.14599 0.48383 0.21273
 C784 C 0.13408 0.49082 0.23257
 C785 C 0.19247 0.44899 0.11867
 C786 C 0.20158 0.43977 0.09837
 H787 H 0.20104 0.48188 0.20425
 H788 H 0.22229 0.46603 0.16101
 H789 H 0.15825 0.49289 0.12103
 H790 H 0.13704 0.50874 0.16419
 H791 H 0.13932 0.43360 0.19370
 H792 H 0.16047 0.41779 0.15061
 C793 C -0.18403 0.33487 0.47878
 C794 C -0.18516 0.30434 0.48031
 C795 C -0.16228 0.29193 0.47156
 C796 C -0.14055 0.31130 0.46215
 C797 C -0.13649 0.32953 0.48585
 C798 C -0.15934 0.34191 0.49460
 C799 C -0.17667 0.34156 0.44963
 C800 C -0.15385 0.32919 0.44090
 C801 C -0.20844 0.34870 0.48795
 C802 C -0.22794 0.36127 0.49512
 C803 C -0.11595 0.29823 0.45234
 C804 C -0.09594 0.28789 0.44332
 H805 H -0.20237 0.29344 0.48763
 H806 H -0.15988 0.27039 0.47139
 H807 H -0.11736 0.33241 0.49499
 H808 H -0.15979 0.35541 0.51124
 H809 H -0.18840 0.35484 0.43694
 H810 H -0.14603 0.33189 0.42073
 C811 C 0.31598 0.83482 0.97877
 C812 C 0.34067 0.84186 0.99459
 C813 C 0.36353 0.82948 0.98584
 C814 C 0.35946 0.81127 0.96213
 C815 C 0.34617 0.82917 0.94089
 C816 C 0.32334 0.84153 0.94963
 C817 C 0.31486 0.80429 0.98029
 C818 C 0.33774 0.79189 0.97153
 C819 C 0.29157 0.84865 0.98795
 C820 C 0.27208 0.86122 0.99512
 C821 C 0.38406 0.79820 0.95231
 C822 C 0.40408 0.78787 0.94328
 H823 H 0.34022 0.85535 1.01125
 H824 H 0.38265 0.83236 0.99499
 H825 H 0.35399 0.83188 0.92072
 H826 H 0.31162 0.85482 0.93694
 H827 H 0.29765 0.79339 0.98760
 H828 H 0.34014 0.77035 0.97134
 C829 C 1.18291 0.83669 0.02885
 C830 C 1.18451 0.80613 0.02864
 C831 C 1.16156 0.79431 0.03723
 C832 C 1.13931 0.81425 0.04517
 C833 C 1.13570 0.83250 0.02057
 C834 C 1.15862 0.84430 0.01199
 C835 C 1.17461 0.84366 0.05749
 C836 C 1.15172 0.83187 0.06606
 C837 C 1.20737 0.84988 0.01975
 C838 C 1.22683 0.86190 0.01241
 C839 C 1.11462 0.80179 0.05475
 C840 C 1.09447 0.79192 0.06349
 H841 H 1.20207 0.79478 0.02231
 H842 H 1.15946 0.77283 0.03825
 H843 H 1.11682 0.83583 0.01073
 H844 H 1.15937 0.85775 -0.00522
 H845 H 1.18577 0.85669 0.06998
 H846 H 1.14327 0.83482 0.08589
 C847 C 0.68290 0.33674 0.52885
 C848 C 0.68450 0.30618 0.52864
 C849 C 0.66155 0.29436 0.53723
 C850 C 0.63930 0.31429 0.54517
 C851 C 0.63568 0.33255 0.52057
 C852 C 0.65860 0.34435 0.51199
 C853 C 0.67461 0.34370 0.55749
 C854 C 0.65171 0.33192 0.56607
 C855 C 0.70736 0.34993 0.51975
 C856 C 0.72682 0.36195 0.51240
 C857 C 0.61461 0.30183 0.55475
 C858 C 0.59447 0.29195 0.56349
 H859 H 0.70206 0.29483 0.52230
 H860 H 0.65946 0.27288 0.53825
 H861 H 0.61681 0.33588 0.51074
 H862 H 0.65935 0.35780 0.49479
 H863 H 0.68576 0.35673 0.56998
 H864 H 0.64326 0.33486 0.58589
 C865 C 0.31933 0.16153 0.52355
 C866 C 0.34525 0.15464 0.50819
 C867 C 0.36700 0.16718 0.51734
 C868 C 0.36069 0.18538 0.54094
 C869 C 0.34699 0.16741 0.56194
 C870 C 0.32529 0.15489 0.55281
 C871 C 0.31686 0.19206 0.52197
 C872 C 0.33864 0.20462 0.53114
 C873 C 0.29609 0.14751 0.51410
 C874 C 0.27746 0.13480 0.50702
 C875 C 0.38408 0.19845 0.55137
 C876 C 0.40309 0.20835 0.56129
 H877 H 0.34640 0.14116 0.49154
 H878 H 0.38677 0.16445 0.50854
 H879 H 0.35374 0.16476 0.58226
 H880 H 0.31346 0.14154 0.56530
 H881 H 0.29959 0.20284 0.51432
 H882 H 0.34003 0.22617 0.53133
 C883 C 0.81932 0.66152 0.02358
 C884 C 0.84523 0.65466 0.00819
 C885 C 0.86698 0.66720 0.01734
 C886 C 0.86068 0.68536 0.04098
 C887 C 0.84700 0.66735 0.06196
 C888 C 0.82530 0.65484 0.05283
 C889 C 0.81683 0.69204 0.02205
 C890 C 0.83861 0.70460 0.03121
 C891 C 0.79607 0.64750 0.01413
 C892 C 0.77744 0.63478 0.00705
 C893 C 0.88407 0.69843 0.05141
 C894 C 0.90308 0.70833 0.06132
 H895 H 0.84637 0.64120 -0.00847
 H896 H 0.88675 0.66449 0.00853
 H897 H 0.85377 0.66468 0.08227
 H898 H 0.81349 0.64146 0.06531
 H899 H 0.79954 0.70282 0.01442
 H900 H 0.83999 0.72615 0.03143
 C901 C 0.68787 0.65884 0.97493
 C902 C 0.66333 0.65060 0.99166
 C903 C 0.64008 0.66202 0.98312
 C904 C 0.64365 0.68056 0.95870
 C905 C 0.65801 0.66339 0.93768
 C906 C 0.68122 0.65199 0.94620
 C907 C 0.68763 0.68942 0.97541
 C908 C 0.66435 0.70086 0.96686
 C909 C 0.71270 0.64599 0.98385
 C910 C 0.73254 0.63407 0.99085
 C911 C 0.61866 0.69247 0.94899
 C912 C 0.59836 0.70158 0.93976
 H913 H 0.66416 0.63703 1.00876
 H914 H 0.62100 0.65825 0.99289
 H915 H 0.65060 0.66046 0.91780
 H916 H 0.69368 0.63932 0.93362
 H917 H 0.70423 0.70104 0.98191
 H918 H 0.66099 0.72229 0.96604
 C919 C 0.18788 0.15884 0.47492
 C920 C 0.16334 0.15059 0.49165
 C921 C 0.14009 0.16201 0.48313
 C922 C 0.14365 0.18055 0.45870
 C923 C 0.15801 0.16339 0.43768
 C924 C 0.18122 0.15199 0.44619
 C925 C 0.18763 0.18942 0.47541
 C926 C 0.16434 0.20085 0.46686
 C927 C 0.21271 0.14599 0.48384
 C928 C 0.23255 0.13408 0.49083
 C929 C 0.11865 0.19246 0.44901
 C930 C 0.09835 0.20157 0.43979
 H931 H 0.16417 0.13702 0.50875
 H932 H 0.12101 0.15823 0.49290
 H933 H 0.15059 0.16046 0.41780
 H934 H 0.19368 0.13932 0.43361
 H935 H 0.20423 0.20104 0.48190
 H936 H 0.16098 0.22228 0.46605
 C937 C 0.57545 0.06551 0.72950
 C938 C 0.58321 0.09096 0.74369
 C939 C 0.57139 0.11354 0.73354
 C940 C 0.55300 0.10844 0.71021
 C941 C 0.53305 0.08785 0.72099
 C942 C 0.54488 0.06524 0.73116
 C943 C 0.58226 0.07085 0.69997
 C944 C 0.57048 0.09337 0.68985
 C945 C 0.58878 0.04137 0.73991
 C946 C 0.60115 0.02194 0.74750
 C947 C 0.54079 0.13270 0.69870
 C948 C 0.53173 0.15245 0.68795
 H949 H 0.59672 0.09121 0.76031
 H950 H 0.57478 0.13313 0.74146
 H951 H 0.51157 0.09080 0.72071
 H952 H 0.53356 0.04880 0.73958
 H953 H 0.59519 0.05801 0.68803
 H954 H 0.57333 0.09983 0.66923
 C955 C 1.07544 0.56552 0.22954
 C956 C 1.04487 0.56524 0.23119
 C957 C 1.03304 0.58785 0.22102
 C958 C 1.05300 0.60844 0.21025
 C959 C 1.07048 0.59338 0.18989
 C960 C 1.08227 0.57086 0.20002
 C961 C 1.08319 0.59097 0.24374
 C962 C 1.07138 0.61354 0.23359
 C963 C 1.08877 0.54138 0.23996
 C964 C 1.10114 0.52195 0.24756
 C965 C 1.04079 0.63270 0.19874
 C966 C 1.03173 0.65245 0.18798
 H967 H 1.03355 0.54879 0.23961
 H968 H 1.01157 0.59080 0.22073
 H969 H 1.07334 0.59983 0.16928
 H970 H 1.09521 0.55802 0.18808
 H971 H 1.09669 0.59121 0.26036
 H972 H 1.07476 0.63313 0.24150
 C973 C 0.92006 0.93718 0.22306
 C974 C 0.91207 0.93145 0.19443
 C975 C 0.92346 0.90879 0.18459
 C976 C 0.94177 0.89401 0.20430
 C977 C 0.92436 0.88925 0.22936
 C978 C 0.91295 0.91194 0.23922
 C979 C 0.95066 0.93748 0.22221
 C980 C 0.96210 0.91473 0.21233
 C981 C 0.90706 0.96140 0.23329
 C982 C 0.89482 0.98079 0.24095
 C983 C 0.95340 0.86948 0.19326
 C984 C 0.96159 0.84920 0.18324
 H985 H 0.89865 0.94412 0.18286
 H986 H 0.91979 0.90207 0.16459
 H987 H 0.92134 0.86977 0.23860
 H988 H 0.90015 0.91191 0.25691
 H989 H 0.96227 0.95404 0.22881
 H990 H 0.98353 0.91178 0.21045
 C991 C 0.42002 0.43716 0.72309
 C992 C 0.41203 0.43143 0.69446
 C993 C 0.42342 0.40878 0.68462
 C994 C 0.44174 0.39400 0.70432
 C995 C 0.42434 0.38923 0.72939
 C996 C 0.41293 0.41192 0.73925
 C997 C 0.45062 0.43747 0.72223
 C998 C 0.46207 0.41472 0.71235
 C999 C 0.40702 0.46138 0.73333
 C1000 C 0.39479 0.48077 0.74099
 C1001 C 0.45337 0.36946 0.69327
 C1002 C 0.46157 0.34920 0.68325
 H1003 H 0.39861 0.44410 0.68289
 H1004 H 0.41975 0.40205 0.66461
 H1005 H 0.42133 0.36975 0.73863
 H1006 H 0.40013 0.41188 0.75695
 H1007 H 0.46224 0.45403 0.72883
 H1008 H 0.48350 0.41178 0.71046
 C1009 C 0.42000 0.56744 0.77585
 C1010 C 0.41238 0.57243 0.80509
 C1011 C 0.42415 0.59409 0.81523
 C1012 C 0.44242 0.60871 0.79517
 C1013 C 0.42481 0.61534 0.77119
 C1014 C 0.41302 0.59363 0.76102
 C1015 C 0.45057 0.56558 0.77512
 C1016 C 0.46238 0.58732 0.78530
 C1017 C 0.40674 0.54421 0.76538
 C1018 C 0.39454 0.52550 0.75768
 C1019 C 0.45466 0.63203 0.80665
 C1020 C 0.46386 0.65098 0.81731
 H1021 H 0.39893 0.56000 0.81685
 H1022 H 0.42076 0.60021 0.83567
 H1023 H 0.42193 0.63530 0.76287
 H1024 H 0.40002 0.59500 0.74399
 H1025 H 0.46191 0.54875 0.76728
 H1026 H 0.48386 0.58911 0.78618
 C1027 C -0.07999 0.06746 0.27583
 C1028 C -0.08762 0.07245 0.30507
 C1029 C -0.07586 0.09410 0.31522
 C1030 C -0.05758 0.10873 0.29517
 C1031 C -0.07518 0.11537 0.27118
 C1032 C -0.08696 0.09366 0.26100
 C1033 C -0.04942 0.06561 0.27511
 C1034 C -0.03761 0.08735 0.28530
 C1035 C -0.09324 0.04424 0.26535
 C1036 C -0.10544 0.02552 0.25765
 C1037 C -0.04535 0.13205 0.30666
 C1038 C -0.03616 0.15100 0.31733
 H1039 H -0.10107 0.06002 0.31682
 H1040 H -0.07925 0.10022 0.33566
 H1041 H -0.07806 0.13533 0.26287
 H1042 H -0.09995 0.09502 0.24397
 H1043 H -0.03806 0.04878 0.26728
 H1044 H -0.01613 0.08914 0.28619
 C1045 C 0.07621 0.43349 0.28267
 C1046 C 0.08442 0.42571 0.31109
 C1047 C 0.07286 0.40309 0.32066
 C1048 C 0.05418 0.39039 0.30091
 C1049 C 0.07127 0.38617 0.27560
 C1050 C 0.08285 0.40882 0.26601
 C1051 C 0.04562 0.43531 0.28385
 C1052 C 0.03401 0.41260 0.29346
 C1053 C 0.08934 0.45760 0.27261
 C1054 C 0.10152 0.47677 0.26477
 C1055 C 0.04240 0.36582 0.31163
 C1056 C 0.03420 0.34536 0.32139
 H1057 H 0.09810 0.43702 0.32272
 H1058 H 0.07665 0.39503 0.34049
 H1059 H 0.07398 0.36709 0.26600
 H1060 H 0.09548 0.40914 0.24820
 H1061 H 0.03413 0.45283 0.27768
 H1062 H 0.01257 0.41065 0.29552
 C1063 C 0.57621 0.93348 0.78261
 C1064 C 0.58286 0.90882 0.76596
 C1065 C 0.57128 0.88617 0.77555
 C1066 C 0.55419 0.89039 0.80085
 C1067 C 0.53402 0.91259 0.79340
 C1068 C 0.54563 0.93530 0.78379
 C1069 C 0.58443 0.92570 0.81103
 C1070 C 0.57287 0.90309 0.82061
 C1071 C 0.58935 0.95759 0.77255
 C1072 C 0.60153 0.97676 0.76471
 C1073 C 0.54241 0.86581 0.81158
 C1074 C 0.53421 0.84535 0.82134
 H1075 H 0.59549 0.90914 0.74814
 H1076 H 0.57399 0.86708 0.76595
 H1077 H 0.51258 0.91064 0.79546
 H1078 H 0.53414 0.95282 0.77761
 H1079 H 0.59810 0.93702 0.82266
 H1080 H 0.57665 0.89503 0.84044
 C1081 C 0.72950 0.57543 0.06554
 C1082 C 0.69998 0.58225 0.07088
 C1083 C 0.68985 0.57047 0.09340
 C1084 C 0.71020 0.55298 0.10846
 C1085 C 0.73354 0.57136 0.11356
 C1086 C 0.74370 0.58317 0.09099
 C1087 C 0.73115 0.54486 0.06526
 C1088 C 0.72098 0.53303 0.08787
 C1089 C 0.73993 0.58876 0.04140
 C1090 C 0.74752 0.60113 0.02197
 C1091 C 0.69869 0.54077 0.13272
 C1092 C 0.68793 0.53171 0.15246
 H1093 H 0.68804 0.59519 0.05804
 H1094 H 0.66923 0.57333 0.09985
 H1095 H 0.74146 0.57474 0.13316
 H1096 H 0.76032 0.59668 0.09124
 H1097 H 0.73957 0.53354 0.04881
 H1098 H 0.72069 0.51155 0.09081
 C1099 C 0.22954 1.07545 0.56553
 C1100 C 0.23120 1.04487 0.56526
 C1101 C 0.22104 1.03305 0.58788
 C1102 C 0.21026 1.05300 0.60846
 C1103 C 0.18990 1.07048 0.59339
 C1104 C 0.20002 1.08226 0.57087
 C1105 C 0.24374 1.08321 0.59098
 C1106 C 0.23359 1.07140 0.61356
 C1107 C 0.23996 1.08877 0.54139
 C1108 C 0.24755 1.10114 0.52195
 C1109 C 0.19876 1.04080 0.63273
 C1110 C 0.18800 1.03174 0.65248
 H1111 H 0.23963 1.03355 0.54882
 H1112 H 0.22076 1.01157 0.59083
 H1113 H 0.16928 1.07333 0.59985
 H1114 H 0.18807 1.09519 0.55803
 H1115 H 0.26035 1.09672 0.59122
 H1116 H 0.24151 1.07479 0.63315
 C1117 C 0.22310 0.92002 0.93719
 C1118 C 0.19448 0.91202 0.93145
 C1119 C 0.18463 0.92342 0.90880
 C1120 C 0.20434 0.94175 0.89403
 C1121 C 0.22941 0.92436 0.88926
 C1122 C 0.23927 0.91294 0.91195
 C1123 C 0.22224 0.95062 0.93751
 C1124 C 0.21235 0.96207 0.91476
 C1125 C 0.23334 0.90701 0.96141
 C1126 C 0.24100 0.89478 0.98079
 C1127 C 0.19329 0.95339 0.86950
 C1128 C 0.18328 0.96159 0.84923
 H1129 H 0.18291 0.89860 0.94411
 H1130 H 0.16464 0.91975 0.90207
 H1131 H 0.23866 0.92135 0.86978
 H1132 H 0.25697 0.90014 0.91191
 H1133 H 0.22883 0.96223 0.95407
 H1134 H 0.21047 0.98351 0.91182
 C1135 C 0.72307 0.42004 0.43717
 C1136 C 0.73923 0.41294 0.41192
 C1137 C 0.72937 0.42435 0.38923
 C1138 C 0.70430 0.44174 0.39400
 C1139 C 0.71232 0.46208 0.41472
 C1140 C 0.72221 0.45064 0.43747
 C1141 C 0.69445 0.41204 0.43144
 C1142 C 0.68460 0.42342 0.40879
 C1143 C 0.73332 0.40705 0.46139
 C1144 C 0.74098 0.39482 0.48078
 C1145 C 0.69324 0.45337 0.36947
 C1146 C 0.68322 0.46156 0.34920
 H1147 H 0.75693 0.40015 0.41189
 H1148 H 0.73861 0.42133 0.36976
 H1149 H 0.71043 0.48351 0.41177
 H1150 H 0.72880 0.46226 0.45402
 H1151 H 0.68288 0.39862 0.44412
 H1152 H 0.66460 0.41975 0.40206
 C1153 C 0.77584 0.42003 0.56744
 C1154 C 0.77512 0.45061 0.56559
 C1155 C 0.78529 0.46242 0.58732
 C1156 C 0.79516 0.44246 0.60871
 C1157 C 0.81523 0.42418 0.59409
 C1158 C 0.80509 0.41242 0.57244
 C1159 C 0.76101 0.41306 0.59364
 C1160 C 0.77118 0.42485 0.61535
 C1161 C 0.76537 0.40677 0.54422
 C1162 C 0.75767 0.39457 0.52551
 C1163 C 0.80665 0.45470 0.63203
 C1164 C 0.81731 0.46390 0.65099
 H1165 H 0.76728 0.46195 0.54875
 H1166 H 0.78618 0.48390 0.58912
 H1167 H 0.83566 0.42080 0.60021
 H1168 H 0.81684 0.39896 0.56001
 H1169 H 0.74398 0.40007 0.59500
 H1170 H 0.76287 0.42197 0.63530
 C1171 C 0.27586 -0.08004 0.06746
 C1172 C 0.26103 -0.08701 0.09366
 C1173 C 0.27119 -0.07521 0.11536
 C1174 C 0.29518 -0.05762 0.10873
 C1175 C 0.28533 -0.03766 0.08734
 C1176 C 0.27515 -0.04946 0.06561
 C1177 C 0.30510 -0.08767 0.07246
 C1178 C 0.31524 -0.07590 0.09412
 C1179 C 0.26539 -0.09329 0.04423
 C1180 C 0.25769 -0.10549 0.02552
 C1181 C 0.30667 -0.04539 0.13205
 C1182 C 0.31733 -0.03619 0.15101
 H1183 H 0.24399 -0.09999 0.09502
 H1184 H 0.26287 -0.07809 0.13532
 H1185 H 0.28622 -0.01618 0.08914
 H1186 H 0.26732 -0.03811 0.04877
 H1187 H 0.31685 -0.10112 0.06004
 H1188 H 0.33568 -0.07929 0.10024
 C1189 C 0.28265 0.07620 0.43350
 C1190 C 0.31107 0.08441 0.42572
 C1191 C 0.32064 0.07284 0.40310
 C1192 C 0.30089 0.05416 0.39040
 C1193 C 0.27558 0.07126 0.38618
 C1194 C 0.26600 0.08284 0.40883
 C1195 C 0.28383 0.04561 0.43532
 C1196 C 0.29344 0.03400 0.41260
 C1197 C 0.27259 0.08933 0.45760
 C1198 C 0.26475 0.10151 0.47678
 C1199 C 0.31161 0.04238 0.36583
 C1200 C 0.32137 0.03418 0.34537
 H1201 H 0.32270 0.09808 0.43703
 H1202 H 0.34048 0.07663 0.39504
 H1203 H 0.26598 0.07397 0.36710
 H1204 H 0.24818 0.09547 0.40915
 H1205 H 0.27765 0.03412 0.45284
 H1206 H 0.29549 0.01255 0.41066
 C1207 C 0.78263 0.57620 0.93351
 C1208 C 0.78384 0.54562 0.93533
 C1209 C 0.79345 0.53401 0.91262
 C1210 C 0.80087 0.55418 0.89040
 C1211 C 0.82061 0.57288 0.90309
 C1212 C 0.81104 0.58444 0.92571
 C1213 C 0.76596 0.58283 0.90885
 C1214 C 0.77554 0.57126 0.88620
 C1215 C 0.77258 0.58933 0.95762
 C1216 C 0.76474 0.60150 0.97680
 C1217 C 0.81159 0.54241 0.86583
 C1218 C 0.82135 0.53422 0.84537
 H1219 H 0.77768 0.53412 0.95286
 H1220 H 0.79552 0.51257 0.91067
 H1221 H 0.84044 0.57668 0.89503
 H1222 H 0.82266 0.59813 0.93702
 H1223 H 0.74813 0.59545 0.90918
 H1224 H 0.76593 0.57395 0.86712
 C1225 C 0.06553 0.72956 0.57547
 C1226 C 0.07070 0.69997 0.58205
 C1227 C 0.09322 0.68984 0.57026
 C1228 C 0.10845 0.71026 0.55302
 C1229 C 0.11359 0.73341 0.57164
 C1230 C 0.09101 0.74356 0.58344
 C1231 C 0.06537 0.73148 0.54490
 C1232 C 0.08799 0.72131 0.53307
 C1233 C 0.04139 0.73999 0.58879
 C1234 C 0.02196 0.74758 0.60116
 C1235 C 0.13271 0.69875 0.54081
 C1236 C 0.15246 0.68799 0.53175
 H1237 H 0.05776 0.68798 0.59483
 H1238 H 0.09957 0.66917 0.57296
 H1239 H 0.13320 0.74120 0.57516
 H1240 H 0.09128 0.76006 0.59710
 H1241 H 0.04901 0.74009 0.53358
 H1242 H 0.09102 0.72120 0.51160
 C1243 C 0.56551 0.22950 1.07541
 C1244 C 0.57085 0.19998 1.08223
 C1245 C 0.59338 0.18986 1.07045
 C1246 C 0.60843 0.21021 1.05296
 C1247 C 0.61353 0.23356 1.07135
 C1248 C 0.59096 0.24371 1.08316
 C1249 C 0.56523 0.23115 1.04484
 C1250 C 0.58785 0.22098 1.03301
 C1251 C 0.54137 0.23992 1.08874
 C1252 C 0.52194 0.24751 1.10111
 C1253 C 0.63270 0.19871 1.04076
 C1254 C 0.65245 0.18795 1.03169
 H1255 H 0.55802 0.18804 1.09517
 H1256 H 0.59983 0.16924 1.07331
 H1257 H 0.63312 0.24147 1.07472
 H1258 H 0.59120 0.26033 1.09666
 H1259 H 0.54879 0.23957 1.03351
 H1260 H 0.59079 0.22069 1.01153
 C1261 C 0.93715 0.22312 0.92000
 C1262 C 0.93143 0.19448 0.91202
 C1263 C 0.90878 0.18463 0.92341
 C1264 C 0.89399 0.20435 0.94171
 C1265 C 0.88921 0.22940 0.92429
 C1266 C 0.91190 0.23927 0.91288
 C1267 C 0.93745 0.22229 0.95060
 C1268 C 0.91470 0.21240 0.96204
 C1269 C 0.96137 0.23336 0.90700
 C1270 C 0.98076 0.24103 0.89477
 C1271 C 0.86945 0.19330 0.95334
 C1272 C 0.84919 0.18327 0.96154
 H1273 H 0.94412 0.18291 0.89862
 H1274 H 0.90207 0.16463 0.91975
 H1275 H 0.86974 0.23863 0.92126
 H1276 H 0.91187 0.25695 0.90007
 H1277 H 0.95399 0.22890 0.96222
 H1278 H 0.91174 0.21053 0.98347
 C1279 C 0.43718 0.72308 0.42006
 C1280 C 0.41193 0.73925 0.41297
 C1281 C 0.38924 0.72939 0.42438
 C1282 C 0.39401 0.70432 0.44177
 C1283 C 0.41474 0.71233 0.46210
 C1284 C 0.43749 0.72222 0.45065
 C1285 C 0.43143 0.69446 0.41205
 C1286 C 0.40878 0.68461 0.42345
 C1287 C 0.46140 0.73332 0.40705
 C1288 C 0.48078 0.74098 0.39482
 C1289 C 0.36947 0.69328 0.45340
 C1290 C 0.34920 0.68326 0.46160
 H1291 H 0.41190 0.75695 0.40017
 H1292 H 0.36977 0.73864 0.42137
 H1293 H 0.41179 0.71045 0.48353
 H1294 H 0.45405 0.72880 0.46227
 H1295 H 0.44410 0.68289 0.39863
 H1296 H 0.40205 0.66462 0.41978
 C1297 C 0.56746 0.77583 0.42000
 C1298 C 0.59365 0.76100 0.41302
 C1299 C 0.61536 0.77117 0.42481
 C1300 C 0.60874 0.79516 0.44240
 C1301 C 0.58735 0.78530 0.46237
 C1302 C 0.56561 0.77512 0.45057
 C1303 C 0.57246 0.80507 0.41237
 C1304 C 0.59412 0.81522 0.42412
 C1305 C 0.54423 0.76536 0.40675
 C1306 C 0.52551 0.75766 0.39456
 C1307 C 0.63206 0.80665 0.45463
 C1308 C 0.65102 0.81732 0.46382
 H1309 H 0.59501 0.74396 0.40004
 H1310 H 0.63532 0.76285 0.42192
 H1311 H 0.58915 0.78620 0.48385
 H1312 H 0.54878 0.76729 0.46192
 H1313 H 0.56003 0.81682 0.39891
 H1314 H 0.60023 0.83566 0.42073
 C1315 C 0.06742 0.27589 -0.08002
 C1316 C 0.09362 0.26107 -0.08701
 C1317 C 0.11533 0.27123 -0.07521
 C1318 C 0.10869 0.29521 -0.05760
 C1319 C 0.08731 0.28533 -0.03763
 C1320 C 0.06558 0.27515 -0.04944
 C1321 C 0.07241 0.30514 -0.08762
 C1322 C 0.09407 0.31528 -0.07585
 C1323 C 0.04420 0.26542 -0.09328
 C1324 C 0.02549 0.25772 -0.10548
 C1325 C 0.13202 0.30669 -0.04536
 C1326 C 0.15097 0.31735 -0.03616
 H1327 H 0.09499 0.24405 -0.10001
 H1328 H 0.13529 0.26293 -0.07810
 H1329 H 0.08911 0.28620 -0.01615
 H1330 H 0.04874 0.26730 -0.03810
 H1331 H 0.05998 0.31689 -0.10107
 H1332 H 0.10018 0.33572 -0.07923
 C1333 C 0.43348 0.28262 0.07618
 C1334 C 0.40882 0.26595 0.08279
 C1335 C 0.38617 0.27553 0.07122
 C1336 C 0.39038 0.30086 0.05415
 C1337 C 0.41259 0.29345 0.03399
 C1338 C 0.43531 0.28384 0.04559
 C1339 C 0.42568 0.31103 0.08442
 C1340 C 0.40306 0.32060 0.07286
 C1341 C 0.45759 0.27256 0.08931
 C1342 C 0.47676 0.26472 0.10148
 C1343 C 0.36580 0.31159 0.04238
 C1344 C 0.34534 0.32135 0.03418
 H1345 H 0.40915 0.24812 0.09540
 H1346 H 0.36709 0.26592 0.07391
 H1347 H 0.41065 0.29553 0.01254
 H1348 H 0.45283 0.27768 0.03410
 H1349 H 0.43698 0.32265 0.09811
 H1350 H 0.39499 0.34043 0.07667
 C1351 C 0.93350 0.78269 0.57620
 C1352 C 0.90877 0.76624 0.58313
 C1353 C 0.88612 0.77582 0.57155
 C1354 C 0.89041 0.80092 0.55416
 C1355 C 0.91249 0.79314 0.53399
 C1356 C 0.93521 0.78353 0.54561
 C1357 C 0.92592 0.81124 0.58413
 C1358 C 0.90330 0.82081 0.57257
 C1359 C 0.95761 0.77264 0.58934
 C1360 C 0.97678 0.76480 0.60152
 C1361 C 0.86584 0.81164 0.54238
 C1362 C 0.84538 0.82140 0.53417
 H1363 H 0.90905 0.74856 0.59595
 H1364 H 0.86700 0.76635 0.57444
 H1365 H 0.91047 0.79498 0.51254
 H1366 H 0.95265 0.77714 0.53411
 H1367 H 0.93735 0.82296 0.59763
 H1368 H 0.89537 0.84073 0.57616
   
