data_POSCAR
  _audit_creation_date              2014-09-24
  _audit_creation_method            'ToBaCCo'
  _symmetry_space_group_name_H-M    'P1'
  _symmetry_Int_Tables_number       1
  _symmetry_cell_setting            triclinic
  loop_
  _symmetry_equiv_pos_as_xyz
 x,y,z
_cell_length_a 45.2189
_cell_length_b 43.3218
_cell_length_c 45.0292
_cell_angle_alpha 90.075200
_cell_angle_beta 89.937300
_cell_angle_gamma 89.621900
loop_
  _atom_site_label
  _atom_site_type_symbol
  _atom_site_fract_x
  _atom_site_fract_y
  _atom_site_fract_z
C1 C 0.31217 0.31005 -0.01108
 C2 C 0.31237 0.30855 0.01912
 C3 C 0.29142 0.32683 0.03774
 C4 C 0.33464 0.28966 0.03505
 C5 C 0.33255 0.29106 -0.02971
 C6 C 0.29184 0.33114 -0.02728
 C7 C 0.30244 0.34633 0.05997
 C8 C 0.28327 0.36473 0.07681
 C9 C 0.25259 0.36397 0.07186
 C10 C 0.24151 0.34411 0.04985
 C11 C 0.26071 0.32547 0.03317
 C12 C 0.36443 0.29849 0.03552
 C13 C 0.38512 0.28118 0.05160
 C14 C 0.37637 0.25447 0.06679
 C15 C 0.34667 0.24532 0.06571
 C16 C 0.32585 0.26310 0.05035
 C17 C 0.33400 0.25891 -0.02680
 C18 C 0.35242 0.24135 -0.04527
 C19 C 0.36948 0.25529 -0.06797
 C20 C 0.36750 0.28784 -0.07066
 C21 C 0.34942 0.30529 -0.05182
 C22 C 0.27331 0.31918 -0.04937
 C23 C 0.25464 0.33873 -0.06542
 C24 C 0.25417 0.37054 -0.05961
 C25 C 0.27282 0.38262 -0.03766
 C26 C 0.29168 0.36307 -0.02171
 H27 H 0.32602 0.34785 0.06386
 H28 H 0.29257 0.38008 0.09328
 H29 H 0.21795 0.34280 0.04576
 H30 H 0.25165 0.31019 0.01650
 H31 H 0.37147 0.31905 0.02390
 H32 H 0.40794 0.28861 0.05223
 H33 H 0.30290 0.25609 0.05020
 H34 H 0.32030 0.24723 -0.01067
 H35 H 0.35184 0.21658 -0.04252
 H36 H 0.38070 0.30057 -0.08638
 H37 H 0.34868 0.33014 -0.05444
 H38 H 0.27332 0.29467 -0.05416
 H39 H 0.24058 0.32905 -0.08247
 H40 H 0.27355 0.40719 -0.03349
 H41 H 0.30641 0.37284 -0.00530
 H42 H 0.33947 0.22493 0.07752
 C43 C 0.68785 0.69068 -0.01931
 C44 C 0.68788 0.69150 0.01098
 C45 C 0.70864 0.67243 0.02900
 C46 C 0.66591 0.71026 0.02784
 C47 C 0.66860 0.71162 -0.03713
 C48 C 0.70621 0.66813 -0.03627
 C49 C 0.69744 0.65374 0.05176
 C50 C 0.71640 0.63563 0.06896
 C51 C 0.74706 0.63586 0.06385
 C52 C 0.75833 0.65451 0.04100
 C53 C 0.73931 0.67289 0.02393
 C54 C 0.63549 0.70726 0.02232
 C55 C 0.61498 0.72423 0.03889
 C56 C 0.62451 0.74382 0.06170
 C57 C 0.65482 0.74670 0.06746
 C58 C 0.67540 0.73001 0.05062
 C59 C 0.66892 0.74373 -0.03277
 C60 C 0.65051 0.76298 -0.04958
 C61 C 0.63184 0.75054 -0.07143
 C62 C 0.63180 0.71842 -0.07590
 C63 C 0.65002 0.69920 -0.05897
 C64 C 0.72308 0.67822 -0.06055
 C65 C 0.73981 0.65721 -0.07717
 C66 C 0.74023 0.62585 -0.06953
 C67 C 0.72328 0.61564 -0.04541
 C68 C 0.70596 0.63651 -0.02926
 H69 H 0.67387 0.65290 0.05600
 H70 H 0.70699 0.62113 0.08604
 H71 H 0.78188 0.65527 0.03672
 H72 H 0.74850 0.68750 0.00679
 H73 H 0.62763 0.69151 0.00544
 H74 H 0.59160 0.72158 0.03438
 H75 H 0.69875 0.73246 0.05535
 H76 H 0.68346 0.75386 -0.01639
 H77 H 0.65120 0.78766 -0.04582
 H78 H 0.61733 0.70805 -0.09219
 H79 H 0.64938 0.67450 -0.06267
 H80 H 0.72333 0.70241 -0.06659
 H81 H 0.75273 0.66547 -0.09577
 H82 H 0.72292 0.59141 -0.03954
 H83 H 0.69229 0.62796 -0.01136
 H84 H 0.66255 0.76193 0.08482
 C85 C 0.68275 0.31553 1.01837
 C86 C 0.67975 0.31617 0.98830
 C87 C 0.69915 0.33586 0.96989
 C88 C 0.65640 0.29880 0.97238
 C89 C 0.66494 0.29496 1.03793
 C90 C 0.70248 0.33787 1.03329
 C91 C 0.68708 0.36070 0.95404
 C92 C 0.70528 0.37965 0.93697
 C93 C 0.73588 0.37386 0.93516
 C94 C 0.74780 0.34872 0.95099
 C95 C 0.72960 0.32987 0.96815
 C96 C 0.62651 0.30162 0.98065
 C97 C 0.60482 0.28496 0.96559
 C98 C 0.61262 0.26582 0.94167
 C99 C 0.64234 0.26332 0.93307
 C100 C 0.66407 0.27977 0.94827
 C101 C 0.66037 0.26374 1.03086
 C102 C 0.64200 0.24543 1.04848
 C103 C 0.62879 0.25751 1.07440
 C104 C 0.63487 0.28827 1.08224
 C105 C 0.65239 0.30677 1.06416
 C106 C 0.73031 0.32864 1.04365
 C107 C 0.74811 0.34945 1.05912
 C108 C 0.73781 0.37956 1.06572
 C109 C 0.70994 0.38867 1.05452
 C110 C 0.69272 0.36817 1.03815
 H111 H 0.66361 0.36569 0.95529
 H112 H 0.69531 0.39909 0.92585
 H113 H 0.77119 0.34335 0.94974
 H114 H 0.73920 0.31049 0.97996
 H115 H 0.62003 0.31669 0.99876
 H116 H 0.58190 0.28728 0.97230
 H117 H 0.68695 0.27741 0.94145
 H118 H 0.67059 0.25360 1.01138
 H119 H 0.63792 0.22203 1.04130
 H120 H 0.62601 0.29830 1.10241
 H121 H 0.65572 0.33055 1.07064
 H122 H 0.73810 0.30525 1.03996
 H123 H 0.76922 0.34122 1.06735
 H124 H 0.70148 0.41185 1.05774
 H125 H 0.67134 0.37565 1.02992
 H126 H 0.64873 0.24847 0.91477
 C127 C 0.32278 0.67799 1.01560
 C128 C 0.32303 0.67941 0.98540
 C129 C 0.30354 0.65939 0.96750
 C130 C 0.34359 0.69978 0.96860
 C131 C 0.34340 0.69644 1.03372
 C132 C 0.30258 0.65728 1.03229
 C133 C 0.30929 0.62762 0.96505
 C134 C 0.29137 0.60913 0.94717
 C135 C 0.26714 0.62210 0.93210
 C136 C 0.26116 0.65379 0.93500
 C137 C 0.27956 0.67241 0.95218
 C138 C 0.36028 0.68747 0.94508
 C139 C 0.37920 0.70617 0.92859
 C140 C 0.38242 0.73773 0.93541
 C141 C 0.36561 0.74999 0.95909
 C142 C 0.34599 0.73141 0.97499
 C143 C 0.33281 0.72212 1.04941
 C144 C 0.35195 0.73965 1.06679
 C145 C 0.38191 0.73094 1.07010
 C146 C 0.39219 0.70470 1.05441
 C147 C 0.37320 0.68793 1.03610
 C148 C 0.27184 0.65866 1.02832
 C149 C 0.25317 0.63980 1.04503
 C150 C 0.26465 0.61963 1.06690
 C151 C 0.29566 0.61844 1.07056
 C152 C 0.31424 0.63696 1.05350
 H153 H 0.32786 0.61734 0.97665
 H154 H 0.29623 0.58470 0.94523
 H155 H 0.24265 0.66420 0.92341
 H156 H 0.27498 0.69693 0.95381
 H157 H 0.35864 0.66326 0.93935
 H158 H 0.39101 0.69577 0.91019
 H159 H 0.33250 0.74192 0.99212
 H160 H 0.30972 0.72877 1.04790
 H161 H 0.34281 0.75922 1.07871
 H162 H 0.41514 0.69754 1.05534
 H163 H 0.38161 0.66808 1.02404
 H164 H 0.26219 0.67486 1.01277
 H165 H 0.22959 0.64227 1.04166
 H166 H 0.30603 0.60263 1.08597
 H167 H 0.33791 0.63531 1.05685
 H168 H 0.36741 0.77392 0.96557
 C169 C -0.02077 0.31572 0.31557
 C170 C 0.00939 0.31582 0.31349
 C171 C 0.02905 0.29575 0.33193
 C172 C 0.02453 0.33796 0.29361
 C173 C -0.03927 0.33572 0.29602
 C174 C -0.03702 0.29584 0.33698
 C175 C 0.05344 0.30889 0.34629
 C176 C 0.07168 0.29111 0.36451
 C177 C 0.06577 0.25968 0.36962
 C178 C 0.04168 0.24631 0.35454
 C179 C 0.02400 0.26397 0.33539
 C180 C 0.02401 0.36967 0.29995
 C181 C 0.03951 0.39027 0.28197
 C182 C 0.05529 0.37948 0.25713
 C183 C 0.05535 0.34780 0.25052
 C184 C 0.04042 0.32712 0.26891
 C185 C -0.03683 0.33407 0.26503
 C186 C -0.05430 0.35295 0.24694
 C187 C -0.07535 0.37354 0.25931
 C188 C -0.07794 0.37453 0.29059
 C189 C -0.06012 0.35590 0.30860
 C190 C -0.06104 0.27837 0.32697
 C191 C -0.07602 0.25869 0.34624
 C192 C -0.06692 0.25529 0.37602
 C193 C -0.04336 0.27375 0.38619
 C194 C -0.02916 0.29432 0.36710
 H195 H 0.05826 0.33319 0.34374
 H196 H 0.09047 0.30226 0.37464
 H197 H 0.03597 0.22236 0.35770
 H198 H 0.00592 0.25295 0.32385
 H199 H 0.01201 0.37831 0.31910
 H200 H 0.03914 0.41463 0.28738
 H201 H 0.04114 0.30267 0.26388
 H202 H -0.02156 0.31791 0.25478
 H203 H -0.05193 0.35042 0.22316
 H204 H -0.09287 0.39042 0.30159
 H205 H -0.06237 0.35749 0.33251
 H206 H -0.06783 0.27942 0.30393
 H207 H -0.09378 0.24496 0.33719
 H208 H -0.03638 0.27323 0.40916
 H209 H -0.01162 0.30865 0.37574
 H210 H 0.06761 0.33902 0.23160
 C211 C -0.01441 0.67975 0.68345
 C212 C 0.01568 0.68180 0.68501
 C213 C 0.03339 0.70293 0.66595
 C214 C 0.03310 0.66138 0.70481
 C215 C -0.03144 0.65830 0.70285
 C216 C -0.03214 0.69883 0.66240
 C217 C 0.05802 0.69108 0.65070
 C218 C 0.07471 0.70985 0.63215
 C219 C 0.06693 0.74102 0.62760
 C220 C 0.04252 0.75309 0.64344
 C221 C 0.02638 0.73442 0.66291
 C222 C 0.03551 0.62965 0.69896
 C223 C 0.05414 0.61111 0.71625
 C224 C 0.07012 0.62403 0.73988
 C225 C 0.06707 0.65564 0.74610
 C226 C 0.04906 0.67427 0.72837
 C227 C -0.02754 0.65773 0.73374
 C228 C -0.04426 0.63797 0.75154
 C229 C -0.06643 0.61892 0.73916
 C230 C -0.07043 0.62035 0.70801
 C231 C -0.05309 0.63944 0.69026
 C232 C -0.05656 0.71561 0.67303
 C233 C -0.07281 0.73471 0.65411
 C234 C -0.06462 0.73819 0.62405
 C235 C -0.04067 0.72032 0.61328
 C236 C -0.02514 0.70034 0.63206
 H237 H 0.06429 0.66702 0.65289
 H238 H 0.09382 0.69970 0.62137
 H239 H 0.03542 0.77678 0.64068
 H240 H 0.00801 0.74443 0.67509
 H241 H 0.02356 0.61948 0.68059
 H242 H 0.05610 0.58673 0.71122
 H243 H 0.04758 0.69879 0.73294
 H244 H -0.01171 0.67282 0.74426
 H245 H -0.03919 0.63795 0.77493
 H246 H -0.08758 0.60752 0.69696
 H247 H -0.05693 0.63980 0.66652
 H248 H -0.06267 0.71449 0.69627
 H249 H -0.09084 0.74799 0.66361
 H250 H -0.03431 0.72090 0.59012
 H251 H -0.00722 0.68653 0.62303
 H252 H 0.07931 0.66604 0.76415
 C253 C 1.01476 0.68853 0.31391
 C254 C 0.98478 0.68686 0.31624
 C255 C 0.96746 0.70382 0.33933
 C256 C 0.96792 0.66581 0.29671
 C257 C 1.03113 0.66721 0.29390
 C258 C 1.03284 0.70887 0.33328
 C259 C 0.97575 0.70299 0.36941
 C260 C 0.95911 0.71882 0.39078
 C261 C 0.93318 0.73471 0.38273
 C262 C 0.92430 0.73473 0.35288
 C263 C 0.94137 0.71956 0.33136
 C264 C 0.95377 0.64012 0.30892
 C265 C 0.93786 0.62006 0.29077
 C266 C 0.93554 0.62557 0.26011
 C267 C 0.94993 0.65129 0.24793
 C268 C 0.96591 0.67132 0.26610
 C269 C 1.04037 0.67689 0.26575
 C270 C 1.05688 0.65701 0.24752
 C271 C 1.06570 0.62753 0.25772
 C272 C 1.05558 0.61791 0.28589
 C273 C 1.03810 0.63733 0.30347
 C274 C 1.02682 0.74055 0.33591
 C275 C 1.04276 0.75878 0.35593
 C276 C 1.06548 0.74586 0.37373
 C277 C 1.07181 0.71414 0.36994
 C278 C 1.05584 0.69607 0.35011
 H279 H 0.99500 0.68995 0.37644
 H280 H 0.96613 0.71810 0.41376
 H281 H 0.90439 0.74686 0.34616
 H282 H 0.93426 0.72017 0.30841
 H283 H 0.95534 0.63546 0.33250
 H284 H 0.92790 0.60005 0.30078
 H285 H 0.97648 0.69127 0.25639
 H286 H 1.03497 0.69990 0.25801
 H287 H 1.06413 0.66554 0.22615
 H288 H 1.06045 0.59504 0.29427
 H289 H 1.03057 0.62932 0.32496
 H290 H 1.00952 0.75111 0.32267
 H291 H 1.03745 0.78311 0.35665
 H292 H 1.08803 0.70234 0.38326
 H293 H 1.06089 0.67167 0.34887
 H294 H 0.94830 0.65623 0.22441
 C295 C 1.01982 0.31699 0.68102
 C296 C 0.98974 0.31609 0.67987
 C297 C 0.97381 0.29650 0.65823
 C298 C 0.97095 0.33483 0.69996
 C299 C 1.03581 0.33702 0.70250
 C300 C 1.03835 0.29759 0.66104
 C301 C 0.97658 0.30130 0.62752
 C302 C 0.96070 0.28302 0.60754
 C303 C 0.94203 0.25971 0.61810
 C304 C 0.93954 0.25479 0.64876
 C305 C 0.95509 0.27324 0.66869
 C306 C 0.95186 0.35701 0.68784
 C307 C 0.93450 0.37558 0.70627
 C308 C 0.93546 0.37205 0.73730
 C309 C 0.95434 0.34928 0.74933
 C310 C 0.97195 0.33085 0.73083
 C311 C 1.05816 0.32410 0.72027
 C312 C 1.07343 0.34230 0.74065
 C313 C 1.06643 0.37374 0.74391
 C314 C 1.04433 0.38684 0.72593
 C315 C 1.02950 0.36875 0.70504
 C316 C 1.03493 0.26549 0.65983
 C317 C 1.05232 0.24767 0.64065
 C318 C 1.07422 0.26139 0.62265
 C319 C 1.07776 0.29372 0.62455
 C320 C 1.06006 0.31148 0.64348
 H321 H 0.99081 0.31932 0.61912
 H322 H 0.96315 0.28695 0.58395
 H323 H 0.92513 0.23698 0.65727
 H324 H 0.95267 0.26931 0.69232
 H325 H 0.95092 0.36040 0.66402
 H326 H 0.92098 0.39302 0.69594
 H327 H 0.98632 0.31349 0.74051
 H328 H 1.06361 0.29978 0.71854
 H329 H 1.09047 0.33173 0.75421
 H330 H 1.03901 0.41119 0.72762
 H331 H 1.01313 0.37953 0.69085
 H332 H 1.01888 0.25416 0.67389
 H333 H 1.04918 0.22294 0.64085
 H334 H 1.09335 0.30587 0.61069
 H335 H 1.06302 0.33627 0.64411
 H336 H 0.95525 0.34543 0.77306
 C337 C 0.31510 -0.01967 0.31584
 C338 C 0.31565 0.01166 0.31326
 C339 C 0.33654 0.02778 0.29315
 C340 C 0.29564 0.03156 0.33125
 C341 C 0.29673 -0.03479 0.33884
 C342 C 0.33343 -0.04019 0.29673
 C343 C 0.36714 0.02190 0.29433
 C344 C 0.38650 0.03789 0.27573
 C345 C 0.37556 0.06030 0.25608
 C346 C 0.34512 0.06653 0.25523
 C347 C 0.32576 0.05036 0.27356
 C348 C 0.30758 0.05460 0.34944
 C349 C 0.28913 0.07283 0.36719
 C350 C 0.25835 0.06843 0.36694
 C351 C 0.24641 0.04558 0.34838
 C352 C 0.26488 0.02749 0.33049
 C353 C 0.27455 -0.05557 0.33049
 C354 C 0.25667 -0.06923 0.35206
 C355 C 0.26104 -0.06246 0.38218
 C356 C 0.28350 -0.04214 0.39059
 C357 C 0.30126 -0.02836 0.36906
 C358 C 0.33325 -0.03718 0.26576
 C359 C 0.35192 -0.05540 0.24823
 C360 C 0.37088 -0.07772 0.26114
 C361 C 0.36994 -0.08132 0.29230
 C362 C 0.35151 -0.06277 0.30978
 H363 H 0.37604 0.00524 0.30990
 H364 H 0.41000 0.03339 0.27732
 H365 H 0.33637 0.08397 0.24036
 H366 H 0.30230 0.05547 0.27250
 H367 H 0.33126 0.05806 0.35031
 H368 H 0.29903 0.08994 0.38155
 H369 H 0.25522 0.01019 0.31616
 H370 H 0.27091 -0.06088 0.30727
 H371 H 0.23966 -0.08527 0.34535
 H372 H 0.28730 -0.03705 0.41383
 H373 H 0.31854 -0.01269 0.37589
 H374 H 0.31881 -0.02049 0.25514
 H375 H 0.35085 -0.05236 0.22441
 H376 H 0.38440 -0.09731 0.30372
 H377 H 0.35199 -0.06547 0.33368
 H378 H 0.22276 0.04191 0.34751
 C379 C 0.68392 -0.00989 0.68519
 C380 C 0.68445 0.02168 0.68612
 C381 C 0.66406 0.04010 0.70539
 C382 C 0.70571 0.03967 0.66800
 C383 C 0.70356 -0.02805 0.66491
 C384 C 0.66344 -0.02798 0.70421
 C385 C 0.63337 0.03497 0.70559
 C386 C 0.61503 0.05129 0.72519
 C387 C 0.62688 0.07397 0.74392
 C388 C 0.65718 0.08038 0.74254
 C389 C 0.67565 0.06342 0.72363
 C390 C 0.69500 0.06222 0.64838
 C391 C 0.71447 0.07883 0.63053
 C392 C 0.74511 0.07336 0.63210
 C393 C 0.75583 0.05107 0.65214
 C394 C 0.73632 0.03457 0.67013
 C395 C 0.72028 -0.05274 0.67633
 C396 C 0.73949 -0.06949 0.65799
 C397 C 0.74266 -0.06164 0.62791
 C398 C 0.72547 -0.03742 0.61625
 C399 C 0.70568 -0.02116 0.63446
 C400 C 0.66269 -0.02414 0.73514
 C401 C 0.64144 -0.03932 0.75227
 C402 C 0.62068 -0.05931 0.73895
 C403 C 0.62287 -0.06418 0.70796
 C404 C 0.64389 -0.04873 0.69093
 H405 H 0.62367 0.01801 0.69093
 H406 H 0.59158 0.04640 0.72563
 H407 H 0.66667 0.09791 0.75675
 H408 H 0.69914 0.06813 0.72363
 H409 H 0.67145 0.06652 0.64648
 H410 H 0.70544 0.09549 0.61504
 H411 H 0.74504 0.01764 0.68553
 H412 H 0.71882 -0.05874 0.69963
 H413 H 0.75243 -0.08816 0.66745
 H414 H 0.72708 -0.03136 0.59299
 H415 H 0.69225 -0.00299 0.62482
 H416 H 0.67821 -0.00887 0.74595
 H417 H 0.64196 -0.03564 0.77600
 H418 H 0.60741 -0.07875 0.69630
 H419 H 0.64419 -0.05216 0.66710
 H420 H 0.77934 0.04659 0.65405
 C421 C 0.31929 1.01732 0.68069
 C422 C 0.31709 0.98597 0.68248
 C423 C 0.33477 0.96747 0.70393
 C424 C 0.29789 0.96830 0.66215
 C425 C 0.30025 1.03602 0.66032
 C426 C 0.34174 1.03427 0.69834
 C427 C 0.35255 0.94311 0.69353
 C428 C 0.36989 0.92593 0.71318
 C429 C 0.36964 0.93259 0.74375
 C430 C 0.35153 0.95682 0.75418
 C431 C 0.33410 0.97397 0.73448
 C432 C 0.30344 0.96794 0.63150
 C433 C 0.28522 0.95109 0.61251
 C434 C 0.26102 0.93478 0.62393
 C435 C 0.25552 0.93515 0.65459
 C436 C 0.27413 0.95142 0.67364
 C437 C 0.26955 1.03156 0.65876
 C438 C 0.25226 1.04844 0.63874
 C439 C 0.26496 1.07138 0.62068
 C440 C 0.29559 1.07660 0.62328
 C441 C 0.31299 1.05899 0.64259
 C442 C 0.33302 1.05893 0.71668
 C443 C 0.35392 1.07461 0.73374
 C444 C 0.38382 1.06588 0.73257
 C445 C 0.39264 1.04149 0.71403
 C446 C 0.37182 1.02605 0.69674
 H447 H 0.35347 0.93777 0.67004
 H448 H 0.38396 0.90783 0.70429
 H449 H 0.35065 0.96232 0.77763
 H450 H 0.32016 0.99237 0.74303
 H451 H 0.32188 0.98065 0.62239
 H452 H 0.28970 0.95118 0.58888
 H453 H 0.26972 0.95137 0.69729
 H454 H 0.25885 1.01488 0.67296
 H455 H 0.22899 1.04311 0.63749
 H456 H 0.30630 1.09448 0.61054
 H457 H 0.33653 1.06329 0.64360
 H458 H 0.30996 1.06570 0.71810
 H459 H 0.34670 1.09319 0.74817
 H460 H 0.41569 1.03463 0.71277
 H461 H 0.37913 1.00756 0.68222
 H462 H 0.23707 0.92251 0.66378
 C463 C 0.68709 1.01271 0.31667
 C464 C 0.68577 0.98135 0.31729
 C465 C 0.66516 0.96405 0.29786
 C466 C 0.70249 0.96320 0.33955
 C467 C 0.70678 1.03042 0.33688
 C468 C 0.66631 1.03071 0.29806
 C469 C 0.64340 0.94545 0.31072
 C470 C 0.62310 0.92992 0.29290
 C471 C 0.62429 0.93246 0.26181
 C472 C 0.64629 0.95092 0.24891
 C473 C 0.66667 0.96645 0.26680
 C474 C 0.69675 0.96709 0.36997
 C475 C 0.71321 0.95070 0.39095
 C476 C 0.73565 0.93033 0.38179
 C477 C 0.74101 0.92591 0.35140
 C478 C 0.72431 0.94208 0.33035
 C479 C 0.73713 1.02377 0.33892
 C480 C 0.75480 1.03889 0.35981
 C481 C 0.74267 1.06155 0.37900
 C482 C 0.71235 1.06893 0.37568
 C483 C 0.69477 1.05360 0.35502
 C484 C 0.67635 1.04534 0.27225
 C485 C 0.65662 1.06211 0.25457
 C486 C 0.62684 1.06522 0.26302
 C487 C 0.61691 1.05074 0.28901
 C488 C 0.63647 1.03331 0.30626
 H489 H 0.64172 0.94347 0.33464
 H490 H 0.60606 0.91648 0.30355
 H491 H 0.64799 0.95303 0.22502
 H492 H 0.68361 0.98033 0.25644
 H493 H 0.67971 0.98303 0.37737
 H494 H 0.70878 0.95423 0.41436
 H495 H 0.72878 0.93867 0.30694
 H496 H 0.74711 1.00658 0.32451
 H497 H 0.77806 1.03304 0.36019
 H498 H 0.70151 1.08556 0.39000
 H499 H 0.67142 1.05917 0.35400
 H500 H 0.69935 1.04347 0.26571
 H501 H 0.66469 1.07325 0.23465
 H502 H 0.59399 1.05277 0.29580
 H503 H 0.62848 1.02210 0.32617
 H504 H 0.75801 0.90995 0.34400
 O505 O 0.87527 0.83321 0.47453
 O506 O 0.83655 0.87960 0.53138
 O507 O 0.87815 0.83732 0.53128
 O508 O 0.83348 0.87581 0.47384
 O509 O 0.79894 0.84046 0.47900
 O510 O 0.84420 0.80110 0.53541
 O511 O 0.80343 0.84277 0.53649
 O512 O 0.84060 0.79772 0.47766
 Cu513 Cu 0.85918 0.86020 0.50218
 Cu514 Cu 0.81835 0.81686 0.50728
 C515 C 0.86482 0.80729 0.46682
 C516 C 0.81361 0.86890 0.54394
 C517 C 0.86882 0.81259 0.54300
 C518 C 0.80826 0.86513 0.46713
 O519 O 0.12671 0.16598 0.46650
 O520 O 0.17003 0.12637 0.52483
 O521 O 0.12835 0.16763 0.52477
 O522 O 0.16849 0.12466 0.46656
 O523 O 0.20068 0.16259 0.46336
 O524 O 0.16292 0.20335 0.52417
 O525 O 0.20465 0.16189 0.52091
 O526 O 0.15911 0.20392 0.46670
 Cu527 Cu 0.14502 0.14242 0.49585
 Cu528 Cu 0.18520 0.18661 0.49362
 C529 C 0.13555 0.19188 0.45684
 C530 C 0.19481 0.13738 0.53265
 C531 C 0.13911 0.19257 0.53481
 C532 C 0.19110 0.13666 0.45457
 O533 O 0.12172 0.83875 0.53128
 O534 O 0.16386 0.88158 0.47445
 O535 O 0.12079 0.84075 0.47279
 O536 O 0.16296 0.87965 0.53189
 O537 O 0.19652 0.84237 0.53019
 O538 O 0.15468 0.80392 0.47117
 O539 O 0.19722 0.84416 0.47347
 O540 O 0.15486 0.80116 0.52878
 Cu541 Cu 0.13876 0.86383 0.50248
 Cu542 Cu 0.17899 0.81901 0.50068
 C543 C 0.13147 0.81269 0.53990
 C544 C 0.18831 0.87056 0.46511
 C545 C 0.13055 0.81557 0.46197
 C546 C 0.18710 0.86776 0.54083
 O547 O 0.88106 0.15982 0.52925
 O548 O 0.83812 0.11563 0.47418
 O549 O 0.88099 0.15649 0.47185
 O550 O 0.83895 0.11978 0.53215
 O551 O 0.80691 0.15841 0.53120
 O552 O 0.84655 0.19267 0.46808
 O553 O 0.80435 0.15261 0.47373
 O554 O 0.84903 0.19831 0.52549
 Cu555 Cu 0.86305 0.13403 0.50184
 Cu556 Cu 0.82337 0.17923 0.49933
 C557 C 0.87241 0.18673 0.53659
 C558 C 0.81358 0.12640 0.46495
 C559 C 0.87093 0.18083 0.45975
 C560 C 0.81612 0.13326 0.54247
 O561 O 0.46869 0.88135 0.83682
 O562 O 0.53070 0.84319 0.87555
 O563 O 0.52608 0.88516 0.83406
 O564 O 0.47272 0.83923 0.87748
 O565 O 0.47602 0.80194 0.84412
 O566 O 0.52573 0.84949 0.79905
 O567 O 0.53299 0.80804 0.84011
 O568 O 0.46872 0.84388 0.80356
 Cu569 Cu 0.49954 0.86583 0.85953
 Cu570 Cu 0.50103 0.82219 0.81829
 C571 C 0.45784 0.86884 0.81378
 C572 C 0.54271 0.81934 0.86420
 C573 C 0.53463 0.87530 0.80884
 C574 C 0.46531 0.81271 0.86808
 O575 O 0.53227 0.16191 0.12817
 O576 O 0.47359 0.11860 0.16625
 O577 O 0.47414 0.16175 0.12577
 O578 O 0.53127 0.12057 0.16936
 O579 O 0.52753 0.15621 0.20426
 O580 O 0.47270 0.19836 0.15988
 O581 O 0.47010 0.15548 0.19997
 O582 O 0.52968 0.19792 0.16288
 Cu583 Cu 0.50297 0.13706 0.14387
 Cu584 Cu 0.49973 0.18054 0.18525
 C585 C 0.54121 0.18713 0.13929
 C586 C 0.46168 0.12977 0.18949
 C587 C 0.46383 0.18726 0.13541
 C588 C 0.53920 0.13157 0.19427
 O589 O 0.52912 0.12624 0.83870
 O590 O 0.46489 0.16344 0.87426
 O591 O 0.47251 0.12273 0.83212
 O592 O 0.52189 0.16832 0.88022
 O593 O 0.52280 0.20515 0.84642
 O594 O 0.47372 0.15989 0.79865
 O595 O 0.46603 0.20057 0.84081
 O596 O 0.53075 0.16356 0.80543
 Cu597 Cu 0.49705 0.14151 0.85975
 Cu598 Cu 0.49841 0.18597 0.81944
 C599 C 0.54071 0.13830 0.81583
 C600 C 0.45457 0.18847 0.86377
 C601 C 0.46492 0.13352 0.80701
 C602 C 0.53055 0.19470 0.87157
 O603 O 0.46966 0.82944 0.12879
 O604 O 0.52677 0.87490 0.16766
 O605 O 0.52675 0.83335 0.12493
 O606 O 0.46903 0.87150 0.16936
 O607 O 0.47219 0.83437 0.20273
 O608 O 0.53178 0.79751 0.15940
 O609 O 0.52984 0.83847 0.20173
 O610 O 0.47533 0.79214 0.16177
 Cu611 Cu 0.49787 0.85612 0.14434
 Cu612 Cu 0.50279 0.81213 0.18497
 C613 C 0.46312 0.80283 0.13858
 C614 C 0.53785 0.86440 0.19158
 C615 C 0.53873 0.80863 0.13428
 C616 C 0.46020 0.85908 0.19324
 O617 O 0.87399 0.52618 0.83461
 O618 O 0.83415 0.46538 0.87545
 O619 O 0.87563 0.46582 0.83493
 O620 O 0.83299 0.52509 0.87540
 O621 O 0.79998 0.52578 0.83928
 O622 O 0.84055 0.46384 0.80097
 O623 O 0.79950 0.46570 0.84098
 O624 O 0.84094 0.52335 0.79864
 Cu625 Cu 0.85771 0.49569 0.85859
 Cu626 Cu 0.81678 0.49464 0.81649
 C627 C 0.86438 0.53477 0.80940
 C628 C 0.80976 0.45548 0.86531
 C629 C 0.86521 0.45452 0.81111
 C630 C 0.80929 0.53564 0.86412
 O631 O 0.16180 0.46923 0.12349
 O632 O 0.12438 0.53345 0.16334
 O633 O 0.16560 0.52964 0.12280
 O634 O 0.11939 0.47342 0.16256
 O635 O 0.15237 0.47133 0.19867
 O636 O 0.19906 0.52649 0.15828
 O637 O 0.15788 0.53002 0.19884
 O638 O 0.19459 0.46628 0.15964
 Cu639 Cu 0.13954 0.50176 0.13937
 Cu640 Cu 0.17950 0.49826 0.18224
 C641 C 0.18443 0.45654 0.13513
 C642 C 0.13462 0.54224 0.18825
 C643 C 0.19019 0.53777 0.13379
 C644 C 0.12780 0.46318 0.18760
 O645 O 0.87231 0.47074 0.16421
 O646 O 0.83651 0.53335 0.12166
 O647 O 0.87632 0.53077 0.16361
 O648 O 0.83236 0.47295 0.12294
 O649 O 0.79688 0.47779 0.15637
 O650 O 0.84131 0.53373 0.19768
 O651 O 0.80213 0.53738 0.15632
 O652 O 0.83700 0.47395 0.19795
 Cu653 Cu 0.85788 0.50163 0.13962
 Cu654 Cu 0.81581 0.50594 0.18047
 C655 C 0.86072 0.46160 0.18833
 C656 C 0.81339 0.54633 0.13199
 C657 C 0.86624 0.54208 0.18767
 C658 C 0.80703 0.46564 0.13278
 O659 O 0.12361 0.47231 0.83848
 O660 O 0.16920 0.53072 0.87620
 O661 O 0.12862 0.53205 0.83567
 O662 O 0.16447 0.47087 0.87967
 O663 O 0.19876 0.46558 0.84506
 O664 O 0.16220 0.52566 0.80055
 O665 O 0.20341 0.52514 0.84158
 O666 O 0.15860 0.46597 0.80475
 Cu667 Cu 0.14303 0.50198 0.86101
 Cu668 Cu 0.18421 0.49524 0.81948
 C669 C 0.13349 0.45900 0.81530
 C670 C 0.19413 0.53789 0.86527
 C671 C 0.13917 0.53911 0.81047
 C672 C 0.18771 0.45775 0.86982
 C673 C 0.20726 0.39771 0.07690
 C674 C 0.23229 0.38381 0.08961
 C675 C 0.23791 0.39023 0.11981
 C676 C 0.22148 0.41299 0.13504
 C677 C 0.19899 0.42990 0.12048
 C678 C 0.19106 0.42022 0.09191
 C679 C 0.18614 0.43850 0.06425
 C680 C 0.20378 0.41379 0.04782
 H681 H 0.25587 0.37875 0.13131
 H682 H 0.22745 0.41838 0.15774
 H683 H 0.19730 0.46130 0.06482
 H684 H 0.16244 0.43923 0.05775
 H685 H 0.22513 0.42223 0.03874
 H686 H 0.19017 0.40022 0.03202
 C687 C 0.79184 0.60173 0.07057
 C688 C 0.76713 0.61695 0.08258
 C689 C 0.76150 0.61277 0.11314
 C690 C 0.77748 0.59072 0.12962
 C691 C 0.79955 0.57241 0.11597
 C692 C 0.80765 0.57997 0.08685
 C693 C 0.81205 0.55970 0.06034
 C694 C 0.79479 0.58357 0.04253
 H695 H 0.74379 0.62539 0.12400
 H696 H 0.77147 0.58697 0.15261
 H697 H 0.80046 0.53724 0.06241
 H698 H 0.83569 0.55801 0.05374
 H699 H 0.77321 0.57497 0.03420
 H700 H 0.80854 0.59564 0.02575
 C701 C 0.74864 0.40100 0.88727
 C702 C 0.75557 0.39337 0.91674
 C703 C 0.78366 0.40240 0.92729
 C704 C 0.80210 0.42158 0.91014
 C705 C 0.79304 0.43189 0.88186
 C706 C 0.76704 0.41935 0.87028
 C707 C 0.74193 0.43399 0.85405
 C708 C 0.72155 0.41432 0.87295
 H709 H 0.79075 0.39600 0.94941
 H710 H 0.82266 0.42953 0.91969
 H711 H 0.74173 0.42750 0.83017
 H712 H 0.73981 0.45914 0.85867
 H713 H 0.70922 0.39686 0.85986
 H714 H 0.70788 0.42878 0.88810
 C715 C 0.21767 0.60252 0.91654
 C716 C 0.24836 0.60289 0.91286
 C717 C 0.26065 0.58476 0.88991
 C718 C 0.24277 0.56450 0.87339
 C719 C 0.21240 0.56150 0.88001
 C720 C 0.20018 0.58204 0.90079
 C721 C 0.18074 0.57621 0.92699
 C722 C 0.19987 0.59873 0.94421
 H723 H 0.28417 0.58547 0.88546
 H724 H 0.25306 0.54998 0.85668
 H725 H 0.18248 0.55208 0.93525
 H726 H 0.15781 0.58481 0.92340
 H727 H 0.21266 0.58771 0.96248
 H728 H 0.18798 0.62033 0.95044
 C729 C 0.10322 0.25646 0.41102
 C730 C 0.08492 0.24146 0.39042
 C731 C 0.08639 0.20876 0.38999
 C732 C 0.10285 0.19238 0.41153
 C733 C 0.11884 0.20823 0.43355
 C734 C 0.11997 0.24033 0.43167
 C735 C 0.11453 0.26377 0.45538
 C736 C 0.09607 0.28145 0.43288
 H737 H 0.07451 0.19556 0.37355
 H738 H 0.10274 0.16739 0.41119
 H739 H 0.13512 0.27596 0.46181
 H740 H 0.10138 0.25454 0.47423
 H741 H 0.10602 0.30393 0.42666
 H742 H 0.07215 0.28244 0.43859
 C743 C 0.10296 0.74631 0.58523
 C744 C 0.08457 0.76029 0.60657
 C745 C 0.08462 0.79299 0.60761
 C746 C 0.09985 0.81034 0.58599
 C747 C 0.11598 0.79545 0.56328
 C748 C 0.11848 0.76338 0.56448
 C749 C 0.11346 0.74026 0.54046
 C750 C 0.09632 0.72155 0.56308
 H751 H 0.07257 0.80543 0.62462
 H752 H 0.09870 0.83530 0.58682
 H753 H 0.13438 0.72889 0.53325
 H754 H 0.09947 0.74944 0.52214
 H755 H 0.10735 0.69928 0.56860
 H756 H 0.07232 0.71990 0.55800
 C757 C 0.92913 0.76993 0.42660
 C758 C 0.91547 0.75100 0.40560
 C759 C 0.88448 0.74771 0.40746
 C760 C 0.86781 0.76543 0.42792
 C761 C 0.88176 0.78741 0.44622
 C762 C 0.91270 0.78793 0.44611
 C763 C 0.93370 0.81426 0.44383
 C764 C 0.95177 0.79446 0.42247
 H765 H 0.87311 0.73210 0.39262
 H766 H 0.84399 0.76303 0.42835
 H767 H 0.94524 0.81875 0.46517
 H768 H 0.92363 0.83493 0.43314
 H769 H 0.97367 0.78751 0.43155
 H770 H 0.95221 0.80364 0.39942
 C771 C 0.90080 0.25383 0.58174
 C772 C 0.92434 0.24083 0.59760
 C773 C 0.92799 0.20852 0.59645
 C774 C 0.91086 0.19060 0.57687
 C775 C 0.88927 0.20462 0.55863
 C776 C 0.88359 0.23612 0.56289
 C777 C 0.88071 0.26155 0.54076
 C778 C 0.89970 0.28097 0.56134
 H779 H 0.94481 0.19734 0.60984
 H780 H 0.91503 0.16600 0.57551
 H781 H 0.85758 0.27016 0.53894
 H782 H 0.89166 0.25597 0.51926
 H783 H 0.88750 0.30082 0.57127
 H784 H 0.92156 0.28666 0.55156
 C785 C 0.41128 0.06520 0.21372
 C786 C 0.39571 0.07848 0.23742
 C787 C 0.39837 0.11054 0.24180
 C788 C 0.41928 0.12760 0.22557
 C789 C 0.43749 0.11299 0.20422
 C790 C 0.43149 0.08212 0.19738
 C791 C 0.45179 0.05506 0.19380
 C792 C 0.42960 0.03647 0.21173
 H793 H 0.38548 0.12203 0.25888
 H794 H 0.42196 0.15187 0.23059
 H795 H 0.47329 0.05830 0.20535
 H796 H 0.45351 0.04744 0.17028
 H797 H 0.43850 0.02879 0.23350
 H798 H 0.41858 0.01820 0.19848
 C799 C 0.60650 0.12279 0.76580
 C800 C 0.60785 0.09054 0.76534
 C801 C 0.59043 0.07441 0.78604
 C802 C 0.56981 0.09026 0.80403
 C803 C 0.56568 0.12244 0.80105
 C804 C 0.58559 0.13833 0.78287
 C805 C 0.58047 0.16207 0.75940
 C806 C 0.60345 0.14508 0.74074
 H807 H 0.59185 0.04948 0.78734
 H808 H 0.55566 0.07703 0.81859
 H809 H 0.58773 0.18539 0.76654
 H810 H 0.55783 0.16107 0.74984
 H811 H 0.62397 0.15859 0.73722
 H812 H 0.59415 0.13429 0.72040
 C813 C 0.40147 0.92846 0.78936
 C814 C 0.38837 0.91453 0.76460
 C815 C 0.39454 0.88291 0.75981
 C816 C 0.41628 0.86749 0.77669
 C817 C 0.43219 0.88328 0.79887
 C818 C 0.42282 0.91324 0.80608
 C819 C 0.44036 0.94200 0.81025
 C820 C 0.41696 0.95867 0.79196
 H821 H 0.38368 0.87042 0.74213
 H822 H 0.42161 0.84372 0.77133
 H823 H 0.46233 0.94083 0.79916
 H824 H 0.44080 0.94954 0.83384
 H825 H 0.42533 0.96720 0.77025
 H826 H 0.40395 0.97578 0.80505
 C827 C 0.59322 0.88617 0.25013
 C828 C 0.60265 0.91582 0.24307
 C829 C 0.58995 0.92898 0.21713
 C830 C 0.56885 0.91247 0.19994
 C831 C 0.56005 0.88230 0.20817
 C832 C 0.57332 0.87038 0.23357
 C833 C 0.57506 0.84227 0.25247
 C834 C 0.59771 0.86007 0.27125
 H835 H 0.59587 0.95210 0.21036
 H836 H 0.55941 0.92338 0.18049
 H837 H 0.58475 0.82223 0.24039
 H838 H 0.55395 0.83773 0.26431
 H839 H 0.62046 0.85028 0.26996
 H840 H 0.58962 0.86539 0.29400
 C841 C 0.39515 0.20729 0.92043
 C842 C 0.38688 0.23791 0.91342
 C843 C 0.39757 0.24924 0.88576
 C844 C 0.41824 0.23240 0.86869
 C845 C 0.42923 0.20378 0.87860
 C846 C 0.41589 0.19098 0.90370
 C847 C 0.42963 0.17640 0.93031
 C848 C 0.40719 0.19415 0.94879
 H849 H 0.39033 0.27112 0.87679
 H850 H 0.42669 0.24266 0.84850
 H851 H 0.45278 0.18400 0.93404
 H852 H 0.42624 0.15102 0.93079
 H853 H 0.41730 0.21200 0.96329
 H854 H 0.39116 0.17877 0.96012
 C855 C 0.59898 0.79720 0.92270
 C856 C 0.61258 0.77098 0.91043
 C857 C 0.60664 0.76442 0.88031
 C858 C 0.58478 0.78106 0.86473
 C859 C 0.56841 0.80471 0.87888
 C860 C 0.57742 0.81363 0.90734
 C861 C 0.55960 0.81902 0.93482
 C862 C 0.58324 0.80107 0.95163
 H863 H 0.61786 0.74554 0.86915
 H864 H 0.57972 0.77432 0.84214
 H865 H 0.53786 0.80717 0.93421
 H866 H 0.55863 0.84385 0.94101
 H867 H 0.57524 0.77881 0.96082
 H868 H 0.59589 0.81559 0.96746
 C869 C 0.39525 0.77912 0.09560
 C870 C 0.40074 0.74782 0.08913
 C871 C 0.42548 0.73401 0.10331
 C872 C 0.44508 0.75174 0.12048
 C873 C 0.44115 0.78388 0.12310
 C874 C 0.41518 0.79672 0.11167
 C875 C 0.41049 0.82451 0.09275
 C876 C 0.38863 0.80539 0.07505
 H877 H 0.42990 0.70953 0.10134
 H878 H 0.46418 0.74056 0.13034
 H879 H 0.43052 0.83086 0.07984
 H880 H 0.39987 0.84377 0.10523
 H881 H 0.39594 0.80071 0.05187
 H882 H 0.36545 0.81378 0.07728
 C883 C 0.58839 0.25281 0.11270
 C884 C 0.60867 0.23860 0.09330
 C885 C 0.60910 0.20591 0.09291
 C886 C 0.58748 0.18889 0.10829
 C887 C 0.56543 0.20408 0.12502
 C888 C 0.56760 0.23600 0.12838
 C889 C 0.54432 0.26023 0.12461
 C890 C 0.56700 0.27867 0.10733
 H891 H 0.62542 0.19329 0.08012
 H892 H 0.58757 0.16396 0.10646
 H893 H 0.53804 0.27111 0.14610
 H894 H 0.52544 0.25231 0.11080
 H895 H 0.57354 0.30026 0.11887
 H896 H 0.56137 0.28142 0.08344
 C897 C 0.25977 0.10664 0.57625
 C898 C 0.24662 0.09020 0.59964
 C899 C 0.21552 0.09316 0.60260
 C900 C 0.19853 0.10854 0.58086
 C901 C 0.21221 0.12218 0.55610
 C902 C 0.24306 0.12253 0.55533
 C903 C 0.26335 0.11369 0.53056
 C904 C 0.28162 0.09619 0.55336
 H905 H 0.20393 0.08315 0.62120
 H906 H 0.17470 0.10939 0.58321
 H907 H 0.27498 0.13400 0.52118
 H908 H 0.25264 0.09846 0.51390
 H909 H 0.30385 0.10638 0.55683
 H910 H 0.28149 0.07075 0.55001
 C911 C 0.75022 0.10370 0.41495
 C912 C 0.75984 0.07611 0.40141
 C913 C 0.78668 0.06325 0.41242
 C914 C 0.80391 0.07904 0.43363
 C915 C 0.79509 0.10825 0.44435
 C916 C 0.76735 0.11927 0.43558
 C917 C 0.75879 0.15019 0.42378
 C918 C 0.74008 0.13333 0.40108
 H919 H 0.79466 0.04097 0.40501
 H920 H 0.82456 0.06876 0.44089
 H921 H 0.77775 0.16271 0.41379
 H922 H 0.74546 0.16373 0.44002
 H923 H 0.74814 0.13606 0.37789
 H924 H 0.71600 0.13752 0.40422
 C925 C 0.76557 0.88891 0.61009
 C926 C 0.76381 0.92113 0.60889
 C927 C 0.78297 0.93636 0.58902
 C928 C 0.80056 0.91935 0.56879
 C929 C 0.79873 0.88686 0.56757
 C930 C 0.78223 0.87224 0.58972
 C931 C 0.75980 0.84718 0.58791
 C932 C 0.74155 0.86546 0.61033
 H933 H 0.78349 0.96134 0.58834
 H934 H 0.81400 0.93171 0.55289
 H935 H 0.76835 0.82496 0.59688
 H936 H 0.74918 0.84568 0.56570
 H937 H 0.73965 0.85379 0.63221
 H938 H 0.72040 0.87452 0.60112
 C939 C 0.21502 0.93268 0.41262
 C940 C 0.24336 0.92220 0.40509
 C941 C 0.25509 0.89697 0.42084
 C942 C 0.23726 0.88041 0.44076
 C943 C 0.20743 0.88899 0.44548
 C944 C 0.19748 0.91652 0.43251
 C945 C 0.17006 0.92313 0.41515
 C946 C 0.18931 0.94088 0.39341
 H947 H 0.27752 0.88917 0.41664
 H948 H 0.24658 0.86032 0.45166
 H949 H 0.15435 0.93817 0.42760
 H950 H 0.16021 0.90195 0.40543
 H951 H 0.18472 0.96612 0.39343
 H952 H 0.19054 0.93002 0.37106
 C953 C 0.11355 0.39041 0.76777
 C954 C 0.08279 0.39279 0.76556
 C955 C 0.06830 0.41415 0.78439
 C956 C 0.08474 0.43476 0.80209
 C957 C 0.11591 0.43489 0.80060
 C958 C 0.12969 0.41117 0.78448
 C959 C 0.15421 0.41192 0.76225
 C960 C 0.13650 0.38903 0.74396
 H961 H 0.04439 0.41576 0.78449
 H962 H 0.07308 0.45190 0.81525
 H963 H 0.17508 0.40196 0.77121
 H964 H 0.15645 0.43480 0.75134
 H965 H 0.14713 0.36587 0.74247
 H966 H 0.12851 0.39863 0.72250
 C967 C 0.08635 0.61088 0.20948
 C968 C 0.08492 0.60861 0.24062
 C969 C 0.10436 0.58702 0.25411
 C970 C 0.12160 0.56661 0.23691
 C971 C 0.11940 0.56643 0.20572
 C972 C 0.10267 0.58995 0.19252
 C973 C 0.07980 0.58860 0.16877
 C974 C 0.06187 0.61148 0.18716
 H975 H 0.10639 0.58559 0.27801
 H976 H 0.13534 0.54975 0.24819
 H977 H 0.06929 0.56553 0.16701
 H978 H 0.08785 0.59842 0.14748
 H979 H 0.04094 0.60172 0.19599
 H980 H 0.05956 0.63442 0.17635
 C981 C 0.91501 0.39916 0.21135
 C982 C 0.90669 0.39239 0.24075
 C983 C 0.87940 0.40528 0.25051
 C984 C 0.86369 0.42672 0.23296
 C985 C 0.87479 0.43621 0.20522
 C986 C 0.89967 0.42059 0.19426
 C987 C 0.92721 0.43296 0.18065
 C988 C 0.94414 0.40963 0.19929
 H989 H 0.86999 0.39929 0.27179
 H990 H 0.84360 0.43690 0.24182
 H991 H 0.93154 0.45730 0.18710
 H992 H 0.92844 0.42812 0.15643
 H993 H 0.95832 0.42042 0.21654
 H994 H 0.95524 0.39154 0.18566
 C995 C 0.89596 0.57796 0.74419
 C996 C 0.91525 0.59966 0.75708
 C997 C 0.91424 0.60183 0.78864
 C998 C 0.89737 0.58118 0.80579
 C999 C 0.88042 0.55814 0.79212
 C1000 C 0.87889 0.55812 0.76121
 C1001 C 0.88313 0.53169 0.74042
 C1002 C 0.90202 0.55302 0.72180
 H1003 H 0.92640 0.61908 0.80073
 H1004 H 0.89803 0.58291 0.82978
 H1005 H 0.86215 0.52503 0.72937
 H1006 H 0.89580 0.51226 0.75049
 H1007 H 0.89192 0.55799 0.69981
 H1008 H 0.92574 0.54607 0.72108
 C1009 C 0.77776 0.58343 0.92639
 C1010 C 0.75795 0.60376 0.91302
 C1011 C 0.75560 0.60178 0.88171
 C1012 C 0.77229 0.57956 0.86548
 C1013 C 0.79225 0.55936 0.88015
 C1014 C 0.79432 0.56278 0.91080
 C1015 C 0.80852 0.54978 0.93790
 C1016 C 0.78990 0.57343 0.95558
 H1017 H 0.74050 0.61688 0.86990
 H1018 H 0.76963 0.57830 0.84162
 H1019 H 0.83267 0.55433 0.93861
 H1020 H 0.80202 0.52545 0.94195
 H1021 H 0.80327 0.59174 0.96632
 H1022 H 0.77285 0.56265 0.96995
 C1023 C 0.21202 0.40813 0.93436
 C1024 C 0.23536 0.39089 0.92215
 C1025 C 0.23916 0.39184 0.89111
 C1026 C 0.22286 0.41288 0.87375
 C1027 C 0.20197 0.43292 0.88705
 C1028 C 0.19553 0.42840 0.91714
 C1029 C 0.19226 0.45105 0.94192
 C1030 C 0.21038 0.42886 0.96086
 H1031 H 0.25592 0.37761 0.88053
 H1032 H 0.22753 0.41435 0.85021
 H1033 H 0.16892 0.45335 0.94944
 H1034 H 0.20367 0.47322 0.93737
 H1035 H 0.19742 0.41847 0.97923
 H1036 H 0.23208 0.43856 0.96742
 C1037 C 0.21636 0.59518 0.07616
 C1038 C 0.24551 0.60173 0.08495
 C1039 C 0.25432 0.59012 0.11309
 C1040 C 0.23600 0.57020 0.12946
 C1041 C 0.20838 0.56096 0.11824
 C1042 C 0.19848 0.57523 0.09221
 C1043 C 0.18555 0.56137 0.06486
 C1044 C 0.20505 0.58308 0.04719
 H1045 H 0.27535 0.59615 0.12281
 H1046 H 0.24405 0.56114 0.15037
 H1047 H 0.16157 0.56670 0.06266
 H1048 H 0.19164 0.53663 0.06203
 H1049 H 0.19218 0.60073 0.03470
 H1050 H 0.22244 0.57096 0.03405
 C1051 C 0.78544 0.39647 0.08640
 C1052 C 0.75456 0.39955 0.08394
 C1053 C 0.74100 0.42283 0.10159
 C1054 C 0.75806 0.44363 0.11827
 C1055 C 0.78915 0.44248 0.11712
 C1056 C 0.80224 0.41766 0.10212
 C1057 C 0.82662 0.41706 0.07983
 C1058 C 0.80836 0.39386 0.06253
 H1059 H 0.71720 0.42511 0.10285
 H1060 H 0.74690 0.46152 0.13092
 H1061 H 0.84734 0.40702 0.08907
 H1062 H 0.82923 0.43947 0.06813
 H1063 H 0.81868 0.37051 0.06174
 H1064 H 0.80043 0.40277 0.04078
 C1065 C 0.89081 0.76835 0.61165
 C1066 C 0.92015 0.75938 0.60558
 C1067 C 0.93376 0.77332 0.58059
 C1068 C 0.91742 0.79230 0.56111
 C1069 C 0.88693 0.79698 0.56551
 C1070 C 0.87455 0.78610 0.59185
 C1071 C 0.84678 0.76869 0.59734
 C1072 C 0.86444 0.74910 0.61906
 H1073 H 0.95695 0.76959 0.57575
 H1074 H 0.92820 0.80159 0.54160
 H1075 H 0.83923 0.75556 0.57755
 H1076 H 0.82956 0.78320 0.60827
 H1077 H 0.86708 0.72466 0.61186
 H1078 H 0.85719 0.75225 0.64247
 C1079 C 0.88981 0.22422 0.38974
 C1080 C 0.91906 0.23370 0.39486
 C1081 C 0.93378 0.22002 0.41941
 C1082 C 0.91853 0.20089 0.43948
 C1083 C 0.88803 0.19579 0.43614
 C1084 C 0.87459 0.20636 0.41015
 C1085 C 0.84622 0.22331 0.40543
 C1086 C 0.86272 0.24300 0.38303
 H1087 H 0.95698 0.22418 0.42351
 H1088 H 0.93011 0.19197 0.45872
 H1089 H 0.83889 0.23650 0.42535
 H1090 H 0.82908 0.20846 0.39513
 H1091 H 0.86490 0.26753 0.38998
 H1092 H 0.85489 0.23956 0.35988
 C1093 C 0.08313 0.21363 0.59410
 C1094 C 0.09210 0.24312 0.60349
 C1095 C 0.11997 0.25327 0.59293
 C1096 C 0.13577 0.23635 0.57137
 C1097 C 0.12424 0.20886 0.55951
 C1098 C 0.09866 0.19712 0.57263
 C1099 C 0.07116 0.18531 0.55851
 C1100 C 0.05403 0.20333 0.58188
 H1101 H 0.12983 0.27435 0.60093
 H1102 H 0.15645 0.24553 0.56318
 H1103 H 0.06904 0.15989 0.56092
 H1104 H 0.06788 0.19426 0.53560
 H1105 H 0.04191 0.18817 0.59756
 H1106 H 0.04076 0.22272 0.57256
 C1107 C 0.10839 0.75435 0.40706
 C1108 C 0.08110 0.76374 0.39505
 C1109 C 0.07012 0.79243 0.40648
 C1110 C 0.08601 0.80961 0.42811
 C1111 C 0.11363 0.79910 0.43893
 C1112 C 0.12371 0.77132 0.42725
 C1113 C 0.14975 0.75033 0.42780
 C1114 C 0.13291 0.73093 0.40493
 H1115 H 0.04879 0.80145 0.39991
 H1116 H 0.07649 0.83094 0.43644
 H1117 H 0.15251 0.73879 0.44966
 H1118 H 0.16990 0.76140 0.41865
 H1119 H 0.12678 0.70796 0.41390
 H1120 H 0.14350 0.73065 0.38264
 C1121 C 0.58268 0.90058 0.74462
 C1122 C 0.59790 0.92637 0.75571
 C1123 C 0.58830 0.93774 0.78376
 C1124 C 0.56697 0.92188 0.80071
 C1125 C 0.55475 0.89404 0.79038
 C1126 C 0.56198 0.88486 0.76150
 C1127 C 0.57177 0.85411 0.75014
 C1128 C 0.59452 0.87112 0.73168
 H1129 H 0.59702 0.95884 0.79297
 H1130 H 0.56097 0.93085 0.82236
 H1131 H 0.55443 0.84281 0.73653
 H1132 H 0.58175 0.83936 0.76773
 H1133 H 0.59028 0.86928 0.70743
 H1134 H 0.61771 0.86626 0.73851
 C1135 C 0.39881 0.91440 0.21478
 C1136 C 0.39034 0.90440 0.24323
 C1137 C 0.40246 0.87579 0.25284
 C1138 C 0.42450 0.86043 0.23622
 C1139 C 0.43527 0.87322 0.20963
 C1140 C 0.42072 0.89935 0.19861
 C1141 C 0.43317 0.92880 0.18709
 C1142 C 0.40931 0.94541 0.20478
 H1143 H 0.39535 0.86508 0.27328
 H1144 H 0.43388 0.83920 0.24486
 H1145 H 0.43030 0.93107 0.16267
 H1146 H 0.45590 0.93329 0.19538
 H1147 H 0.39289 0.95742 0.19043
 H1148 H 0.41817 0.95956 0.22334
 C1149 C 0.60392 0.07989 0.21448
 C1150 C 0.60641 0.08424 0.24514
 C1151 C 0.58896 0.10755 0.25837
 C1152 C 0.56759 0.12365 0.24164
 C1153 C 0.56281 0.11626 0.21150
 C1154 C 0.58242 0.09529 0.19811
 C1155 C 0.57645 0.06756 0.17938
 C1156 C 0.60007 0.05074 0.19727
 H1157 H 0.59120 0.11262 0.28182
 H1158 H 0.55390 0.14075 0.25269
 H1159 H 0.58283 0.07121 0.15581
 H1160 H 0.55385 0.05823 0.18283
 H1161 H 0.62006 0.04479 0.18400
 H1162 H 0.59120 0.03161 0.21104
 C1163 C 0.41482 0.11205 0.74330
 C1164 C 0.40604 0.08210 0.75047
 C1165 C 0.42062 0.06718 0.77413
 C1166 C 0.44036 0.08362 0.79241
 C1167 C 0.44624 0.11508 0.78693
 C1168 C 0.43456 0.12803 0.76096
 C1169 C 0.41890 0.15802 0.75607
 C1170 C 0.39718 0.14046 0.73668
 H1171 H 0.41561 0.04338 0.77935
 H1172 H 0.45015 0.07203 0.81132
 H1173 H 0.43263 0.17461 0.74337
 H1174 H 0.40879 0.16740 0.77675
 H1175 H 0.39843 0.14698 0.71285
 H1176 H 0.37450 0.13993 0.74617
 C1177 C 0.59736 0.75183 0.10933
 C1178 C 0.60249 0.76033 0.07985
 C1179 C 0.58357 0.78259 0.06709
 C1180 C 0.56272 0.79849 0.08474
 C1181 C 0.56001 0.79188 0.11532
 C1182 C 0.57647 0.76707 0.12656
 C1183 C 0.59511 0.76496 0.15380
 C1184 C 0.61811 0.74830 0.13490
 H1185 H 0.58568 0.78843 0.04380
 H1186 H 0.54917 0.81626 0.07459
 H1187 H 0.58502 0.74994 0.17099
 H1188 H 0.60247 0.78794 0.16185
 H1189 H 0.62130 0.72373 0.14128
 H1190 H 0.63880 0.76171 0.13221
 C1191 C 0.40113 0.20515 0.08221
 C1192 C 0.39766 0.23712 0.08523
 C1193 C 0.41399 0.25205 0.10757
 C1194 C 0.43511 0.23567 0.12433
 C1195 C 0.44080 0.20412 0.11868
 C1196 C 0.42244 0.18910 0.09830
 C1197 C 0.43012 0.16894 0.07248
 C1198 C 0.40673 0.18645 0.05490
 H1199 H 0.41087 0.27651 0.11161
 H1200 H 0.44783 0.24803 0.14082
 H1201 H 0.42426 0.14442 0.07650
 H1202 H 0.45299 0.17276 0.06422
 H1203 H 0.38740 0.17203 0.04888
 H1204 H 0.41600 0.20037 0.03640
 C1205 C 0.58033 0.25900 0.89734
 C1206 C 0.58957 0.24909 0.92534
 C1207 C 0.57542 0.22326 0.93777
 C1208 C 0.55552 0.20566 0.92064
 C1209 C 0.54924 0.21394 0.89096
 C1210 C 0.56057 0.24196 0.88067
 C1211 C 0.57583 0.24967 0.85224
 C1212 C 0.59753 0.26842 0.87057
 H1213 H 0.58094 0.21577 0.96003
 H1214 H 0.54607 0.18504 0.93021
 H1215 H 0.56176 0.26413 0.83748
 H1216 H 0.58606 0.22911 0.84144
 H1217 H 0.59590 0.29365 0.86637
 H1218 H 0.62034 0.25873 0.87016
 C1219 C 0.42465 0.74427 0.89927
 C1220 C 0.40254 0.75753 0.91723
 C1221 C 0.39950 0.79009 0.91598
 C1222 C 0.41997 0.80822 0.90015
 C1223 C 0.44350 0.79429 0.88451
 C1224 C 0.44430 0.76211 0.88309
 C1225 C 0.46955 0.74069 0.88906
 C1226 C 0.44814 0.72117 0.90688
 H1227 H 0.38173 0.80190 0.92745
 H1228 H 0.41751 0.83311 0.90035
 H1229 H 0.48711 0.75145 0.90284
 H1230 H 0.47753 0.72909 0.86850
 H1231 H 0.45318 0.72062 0.93104
 H1232 H 0.44405 0.69826 0.89658
 C1233 C 0.78252 0.92344 0.41022
 C1234 C 0.75358 0.91423 0.40421
 C1235 C 0.74125 0.89105 0.42217
 C1236 C 0.75894 0.87502 0.44286
 C1237 C 0.78915 0.88230 0.44628
 C1238 C 0.79981 0.90796 0.43085
 C1239 C 0.82713 0.91157 0.41258
 C1240 C 0.80813 0.92856 0.38993
 H1241 H 0.71834 0.88453 0.41934
 H1242 H 0.74915 0.85651 0.45558
 H1243 H 0.83597 0.88913 0.40432
 H1244 H 0.84362 0.92668 0.42357
 H1245 H 0.80612 0.91595 0.36853
 H1246 H 0.81369 0.95342 0.38791
 C1247 C 0.25270 0.89595 0.58374
 C1248 C 0.24153 0.91736 0.60392
 C1249 C 0.21043 0.92159 0.60395
 C1250 C 0.19229 0.90534 0.58354
 C1251 C 0.20480 0.88388 0.56326
 C1252 C 0.23528 0.87975 0.56490
 C1253 C 0.26079 0.86409 0.55019
 C1254 C 0.28057 0.88227 0.57180
 H1255 H 0.20028 0.93795 0.61911
 H1256 H 0.16867 0.90963 0.58360
 H1257 H 0.26334 0.87125 0.52663
 H1258 H 0.26099 0.83878 0.55416
 H1259 H 0.29464 0.89967 0.56057
 H1260 H 0.29205 0.86750 0.58839
 C1261 C 0.21366 0.07488 0.39952
 C1262 C 0.23874 0.08750 0.38602
 C1263 C 0.24488 0.11882 0.39183
 C1264 C 0.22871 0.13527 0.41345
 C1265 C 0.20602 0.12077 0.42970
 C1266 C 0.19772 0.09109 0.42083
 C1267 C 0.19267 0.06274 0.43893
 C1268 C 0.21010 0.04498 0.41552
 H1269 H 0.26295 0.13026 0.38065
 H1270 H 0.23491 0.15883 0.41834
 H1271 H 0.16893 0.05632 0.43971
 H1272 H 0.20392 0.06362 0.46087
 H1273 H 0.19636 0.02839 0.40280
 H1274 H 0.23145 0.03550 0.42384
 C1275 C 0.79110 0.07643 0.60091
 C1276 C 0.76578 0.09062 0.61273
 C1277 C 0.76034 0.12165 0.60474
 C1278 C 0.77742 0.13608 0.58264
 C1279 C 0.80039 0.11983 0.56809
 C1280 C 0.80796 0.09064 0.57915
 C1281 C 0.81325 0.06091 0.56312
 C1282 C 0.79481 0.04534 0.58699
 H1283 H 0.74209 0.13437 0.61454
 H1284 H 0.77170 0.15938 0.57601
 H1285 H 0.83692 0.05385 0.56361
 H1286 H 0.80278 0.06045 0.54079
 H1287 H 0.80789 0.02937 0.60122
 H1288 H 0.77364 0.03583 0.57855
 C1289 C 0.88805 0.59877 0.24736
 C1290 C 0.91763 0.60532 0.24075
 C1291 C 0.92869 0.59461 0.21321
 C1292 C 0.91177 0.57471 0.19519
 C1293 C 0.88324 0.56551 0.20415
 C1294 C 0.87132 0.57976 0.22940
 C1295 C 0.85428 0.56707 0.25491
 C1296 C 0.87285 0.58763 0.27483
 H1297 H 0.95092 0.60038 0.20630
 H1298 H 0.92154 0.56554 0.17504
 H1299 H 0.85845 0.54200 0.25839
 H1300 H 0.83059 0.57403 0.25419
 H1301 H 0.88732 0.57385 0.28973
 H1302 H 0.85976 0.60618 0.28588
 C1303 C 0.88708 0.39826 0.75084
 C1304 C 0.91682 0.39149 0.75726
 C1305 C 0.92771 0.40182 0.78496
 C1306 C 0.91050 0.42118 0.80344
 C1307 C 0.88183 0.43045 0.79482
 C1308 C 0.87004 0.41675 0.76935
 C1309 C 0.85284 0.43034 0.74434
 C1310 C 0.87183 0.41071 0.72379
 H1311 H 0.95015 0.39647 0.79165
 H1312 H 0.92029 0.43018 0.82358
 H1313 H 0.85656 0.45555 0.74172
 H1314 H 0.82928 0.42321 0.74478
 H1315 H 0.88614 0.42537 0.70964
 H1316 H 0.85908 0.39271 0.71183
 C1317 C 0.08982 0.60606 0.78874
 C1318 C 0.09048 0.60488 0.75773
 C1319 C 0.11146 0.58515 0.74422
 C1320 C 0.12865 0.56475 0.76153
 C1321 C 0.12461 0.56325 0.79257
 C1322 C 0.10614 0.58546 0.80572
 C1323 C 0.08192 0.58226 0.82805
 C1324 C 0.06407 0.60495 0.80944
 H1325 H 0.11374 0.58465 0.72028
 H1326 H 0.14359 0.54885 0.75043
 H1327 H 0.08825 0.59167 0.85011
 H1328 H 0.07233 0.55869 0.82843
 H1329 H 0.06021 0.62744 0.82075
 H1330 H 0.04415 0.59456 0.79908
 C1331 C 0.09267 0.42129 0.25143
 C1332 C 0.07255 0.40103 0.23878
 C1333 C 0.07034 0.40182 0.20738
 C1334 C 0.08795 0.42241 0.19036
 C1335 C 0.10875 0.44198 0.20433
 C1336 C 0.11010 0.44023 0.23513
 C1337 C 0.12566 0.45264 0.26167
 C1338 C 0.10605 0.43091 0.28015
 H1339 H 0.05500 0.38676 0.19607
 H1340 H 0.08567 0.42256 0.16643
 H1341 H 0.12077 0.47754 0.26535
 H1342 H 0.14948 0.44615 0.26195
 H1343 H 0.09000 0.44329 0.29468
 H1344 H 0.11857 0.41181 0.29091
   
