data_POSCAR
  _audit_creation_date              2014-09-24
  _audit_creation_method            'ToBaCCo'
  _symmetry_space_group_name_H-M    'P1'
  _symmetry_Int_Tables_number       1
  _symmetry_cell_setting            triclinic
  loop_
  _symmetry_equiv_pos_as_xyz
 x,y,z
_cell_length_a 37.9810
_cell_length_b 38.1877
_cell_length_c 37.7507
_cell_angle_alpha 90.282600
_cell_angle_beta 89.892100
_cell_angle_gamma 89.798900
loop_
  _atom_site_label
  _atom_site_type_symbol
  _atom_site_fract_x
  _atom_site_fract_y
  _atom_site_fract_z
C1 C 0.23808 0.99905 -0.02636
 C2 C 0.25219 0.98884 0.00498
 C3 C 0.24474 0.95451 0.02116
 C4 C 0.27116 1.01427 0.02796
 C5 C 0.23676 1.03684 -0.03563
 C6 C 0.22627 0.97393 -0.05419
 C7 C 0.21116 0.94915 0.03567
 C8 C 0.20708 0.92734 0.06501
 C9 C 0.23624 0.90961 0.07906
 C10 C 0.26872 0.91122 0.06153
 C11 C 0.27308 0.93396 0.03295
 C12 C 0.25944 1.02095 0.06259
 C13 C 0.27536 1.04681 0.08318
 C14 C 0.30339 1.06687 0.06960
 C15 C 0.31632 1.05855 0.03543
 C16 C 0.30038 1.03252 0.01498
 C17 C 0.25314 1.04858 -0.06659
 C18 C 0.25190 1.08391 -0.07556
 C19 C 0.23413 1.10826 -0.05384
 C20 C 0.21768 1.09648 -0.02274
 C21 C 0.21886 1.06099 -0.01382
 C22 C 0.24794 0.94580 -0.06468
 C23 C 0.24186 0.92833 -0.09683
 C24 C 0.21441 0.93905 -0.11927
 C25 C 0.19127 0.96544 -0.10751
 C26 C 0.19706 0.98255 -0.07528
 H27 H 0.18918 0.96534 0.02748
 H28 H 0.18186 0.92645 0.07841
 H29 H 0.29153 0.89790 0.07225
 H30 H 0.29929 0.93828 0.02252
 H31 H 0.23710 1.00703 0.07336
 H32 H 0.26474 1.05173 0.10941
 H33 H 0.31033 1.02711 -0.01140
 H34 H 0.26705 1.03037 -0.08373
 H35 H 0.26475 1.09210 -0.09976
 H36 H 0.20365 1.11439 -0.00545
 H37 H 0.20572 1.05228 0.01002
 H38 H 0.27102 0.93899 -0.04938
 H39 H 0.25991 0.90784 -0.10510
 H40 H 0.16924 0.97367 -0.12363
 H41 H 0.17987 1.00405 -0.06780
 H42 H 0.33824 1.07231 0.02377
 C43 C 0.71841 0.50615 0.51509
 C44 C 0.71095 0.50078 0.48012
 C45 C 0.70056 0.53006 0.45614
 C46 C 0.71134 0.46473 0.46548
 C47 C 0.73089 0.47685 0.53763
 C48 C 0.71813 0.54168 0.53129
 C49 C 0.67164 0.55162 0.46452
 C50 C 0.66510 0.58218 0.44524
 C51 C 0.68706 0.59166 0.41676
 C52 C 0.71441 0.56878 0.40684
 C53 C 0.72116 0.53838 0.42637
 C54 C 0.68404 0.44164 0.47412
 C55 C 0.68544 0.40668 0.46306
 C56 C 0.71404 0.39441 0.44279
 C57 C 0.74118 0.41766 0.43393
 C58 C 0.74012 0.45242 0.44566
 C59 C 0.76551 0.46452 0.53378
 C60 C 0.77749 0.43636 0.55399
 C61 C 0.75525 0.42049 0.57895
 C62 C 0.72080 0.43324 0.58328
 C63 C 0.70850 0.46083 0.56231
 C64 C 0.73755 0.56896 0.51598
 C65 C 0.73478 0.60297 0.52933
 C66 C 0.71372 0.60999 0.55913
 C67 C 0.69608 0.58251 0.57583
 C68 C 0.69793 0.54865 0.56178
 H69 H 0.65499 0.54551 0.48696
 H70 H 0.64324 0.59868 0.45320
 H71 H 0.73168 0.57525 0.38499
 H72 H 0.74366 0.52248 0.41917
 H73 H 0.66190 0.45063 0.48989
 H74 H 0.66390 0.38950 0.46991
 H75 H 0.76217 0.46935 0.43997
 H76 H 0.78309 0.47647 0.51475
 H77 H 0.80419 0.42704 0.55018
 H78 H 0.70304 0.42102 0.60195
 H79 H 0.68135 0.46913 0.56489
 H80 H 0.75424 0.56407 0.49319
 H81 H 0.74926 0.62376 0.51651
 H82 H 0.67988 0.58747 0.59898
 H83 H 0.68271 0.52830 0.57425
 H84 H 0.76359 0.40874 0.41851
 C85 C 0.78063 1.02269 1.00508
 C86 C 0.79015 0.98899 1.00003
 C87 C 0.79980 0.96579 1.02997
 C88 C 0.79064 0.97259 0.96451
 C89 C 0.76605 1.04523 0.97683
 C90 C 0.79077 1.04215 1.03732
 C91 C 0.83132 0.94653 1.02878
 C92 C 0.83651 0.91823 1.05144
 C93 C 0.81026 0.90862 1.07577
 C94 C 0.78013 0.92980 1.07918
 C95 C 0.77481 0.95805 1.05625
 C96 C 0.82232 0.97201 0.94537
 C97 C 0.82712 0.94815 0.91766
 C98 C 0.79997 0.92516 0.90817
 C99 C 0.76715 0.92801 0.92512
 C100 C 0.76268 0.95125 0.95359
 C101 C 0.73309 1.06097 0.98270
 C102 C 0.72390 1.09172 0.96516
 C103 C 0.74715 1.10670 0.94072
 C104 C 0.77844 1.08897 0.93193
 C105 C 0.78816 1.05869 0.95034
 C106 C 0.76536 1.05159 1.06261
 C107 C 0.77093 1.08048 1.08481
 C108 C 0.80153 1.10093 1.08118
 C109 C 0.82841 1.08887 1.05836
 C110 C 0.82306 1.05967 1.03680
 H111 H 0.85124 0.95222 1.00914
 H112 H 0.86047 0.90299 1.04882
 H113 H 0.75955 0.92301 1.09779
 H114 H 0.75009 0.97223 1.05735
 H115 H 0.84428 0.98804 0.95375
 H116 H 0.85255 0.94653 0.90472
 H117 H 0.73828 0.95104 0.96848
 H118 H 0.71576 1.05117 1.00315
 H119 H 0.69940 1.10472 0.97196
 H120 H 0.79673 1.10017 0.91311
 H121 H 0.81411 1.04766 0.94607
 H122 H 0.74014 1.03848 1.06317
 H123 H 0.74995 1.08843 1.10262
 H124 H 0.85306 1.10268 1.05568
 H125 H 0.84288 1.05277 1.01727
 H126 H 0.74594 0.91037 0.91821
 C127 C 0.24198 0.50012 0.49529
 C128 C 0.24690 0.46493 0.49329
 C129 C 0.25962 0.44364 0.52314
 C130 C 0.23723 0.44355 0.46193
 C131 C 0.23227 0.52035 0.46348
 C132 C 0.24648 0.52038 0.52882
 C133 C 0.29213 0.42651 0.51959
 C134 C 0.30080 0.39880 0.54175
 C135 C 0.27701 0.38775 0.56786
 C136 C 0.24570 0.40677 0.57333
 C137 C 0.23688 0.43445 0.55084
 C138 C 0.26256 0.43451 0.43630
 C139 C 0.25770 0.40490 0.41469
 C140 C 0.22766 0.38390 0.41887
 C141 C 0.20093 0.39515 0.44211
 C142 C 0.20577 0.42457 0.46350
 C143 C 0.20069 0.51401 0.44544
 C144 C 0.19282 0.53244 0.41464
 C145 C 0.21615 0.55795 0.40179
 C146 C 0.24684 0.56548 0.42093
 C147 C 0.25488 0.54673 0.45150
 C148 C 0.22030 0.54455 0.53911
 C149 C 0.22356 0.56380 0.57052
 C150 C 0.25283 0.55892 0.59251
 C151 C 0.27953 0.53552 0.58181
 C152 C 0.27663 0.51683 0.55002
 H153 H 0.30992 0.43329 0.49826
 H154 H 0.32554 0.38526 0.53753
 H155 H 0.22707 0.39882 0.59347
 H156 H 0.21144 0.44711 0.55351
 H157 H 0.28726 0.44855 0.43509
 H158 H 0.27860 0.39689 0.39682
 H159 H 0.18611 0.43089 0.48340
 H160 H 0.18224 0.49475 0.45512
 H161 H 0.16846 0.52671 0.40102
 H162 H 0.26510 0.58517 0.41171
 H163 H 0.27911 0.55231 0.46550
 H164 H 0.19703 0.54820 0.52299
 H165 H 0.20279 0.58188 0.57806
 H166 H 0.30292 0.53201 0.59775
 H167 H 0.29804 0.49980 0.54197
 H168 H 0.17707 0.38006 0.44531
 C169 C 1.00918 0.24195 0.00103
 C170 C 1.01855 0.23567 0.03510
 C171 C 0.99196 0.23296 0.06402
 C172 C 1.05615 0.23139 0.04599
 C173 C 1.03300 0.23605 -0.02957
 C174 C 0.97461 0.25624 -0.00943
 C175 C 0.96891 0.26051 0.07315
 C176 C 0.94747 0.25805 0.10341
 C177 C 0.94958 0.22851 0.12537
 C178 C 0.97185 0.20071 0.11551
 C179 C 0.99265 0.20289 0.08520
 C180 C 1.06802 0.25024 0.07563
 C181 C 1.10293 0.24786 0.08665
 C182 C 1.12743 0.22757 0.06752
 C183 C 1.11558 0.20827 0.03798
 C184 C 1.08005 0.20924 0.02812
 C185 C 1.02439 0.20947 -0.05364
 C186 C 1.04242 0.20606 -0.08554
 C187 C 1.07013 0.22895 -0.09412
 C188 C 1.08000 0.25457 -0.06901
 C189 C 1.06111 0.25854 -0.03724
 C190 C 0.94745 0.23382 -0.02027
 C191 C 0.92292 0.24510 -0.04554
 C192 C 0.92621 0.27848 -0.06094
 C193 C 0.95033 0.30223 -0.04598
 C194 C 0.97409 0.29121 -0.02033
 H195 H 0.96851 0.28440 0.05786
 H196 H 0.93051 0.27983 0.11055
 H197 H 0.97355 0.17732 0.13152
 H198 H 1.01020 0.18135 0.07873
 H199 H 1.05021 0.26719 0.09027
 H200 H 1.11090 0.26289 0.10968
 H201 H 1.07146 0.19260 0.00658
 H202 H 1.00294 0.19170 -0.04809
 H203 H 1.03438 0.18520 -0.10314
 H204 H 1.10132 0.27252 -0.07451
 H205 H 1.06785 0.27949 -0.01908
 H206 H 0.94756 0.20665 -0.01220
 H207 H 0.90410 0.22637 -0.05575
 H208 H 0.95248 0.32883 -0.05542
 H209 H 0.99479 0.30892 -0.01209
 H210 H 1.13321 0.19129 0.02324
 C211 C 0.49101 0.75862 0.47075
 C212 C 0.48649 0.76300 0.50608
 C213 C 0.51456 0.77852 0.52837
 C214 C 0.45370 0.75177 0.52420
 C215 C 0.46512 0.74037 0.44789
 C216 C 0.52040 0.77502 0.45160
 C217 C 0.54044 0.75663 0.54286
 C218 C 0.56418 0.76965 0.56791
 C219 C 0.56190 0.80461 0.57943
 C220 C 0.53704 0.82695 0.56358
 C221 C 0.51382 0.81407 0.53789
 C222 C 0.44094 0.71741 0.52071
 C223 C 0.40840 0.70825 0.53528
 C224 C 0.38873 0.73301 0.55462
 C225 C 0.40237 0.76670 0.55971
 C226 C 0.43435 0.77610 0.54438
 C227 C 0.43265 0.75585 0.43954
 C228 C 0.41065 0.74038 0.41416
 C229 C 0.42091 0.70934 0.39665
 C230 C 0.45263 0.69302 0.40665
 C231 C 0.47461 0.70857 0.43176
 C232 C 0.51441 0.80717 0.43494
 C233 C 0.53726 0.81877 0.40858
 C234 C 0.56634 0.79819 0.39841
 C235 C 0.57409 0.76762 0.41756
 C236 C 0.55103 0.75592 0.44386
 H237 H 0.54140 0.72915 0.53568
 H238 H 0.58311 0.75190 0.57965
 H239 H 0.53511 0.85418 0.57149
 H240 H 0.49448 0.83153 0.52642
 H241 H 0.45592 0.69782 0.50629
 H242 H 0.39887 0.68179 0.53174
 H243 H 0.44339 0.80271 0.54767
 H244 H 0.42500 0.78049 0.45170
 H245 H 0.38628 0.75343 0.40723
 H246 H 0.46107 0.66864 0.39460
 H247 H 0.49944 0.69608 0.43813
 H248 H 0.49073 0.82207 0.44066
 H249 H 0.53107 0.84291 0.39502
 H250 H 0.59656 0.75147 0.41050
 H251 H 0.55582 0.73091 0.45640
 H252 H 0.38776 0.78617 0.57472
 C253 C 0.00373 0.75221 -0.00325
 C254 C -0.03057 0.74237 -0.00810
 C255 C -0.05080 0.72827 0.02261
 C256 C -0.04905 0.74607 -0.04307
 C257 C 0.02773 0.76260 -0.03241
 C258 C 0.01945 0.75618 0.03264
 C259 C -0.03661 0.70130 0.04342
 C260 C -0.05244 0.69199 0.07543
 C261 C -0.08353 0.70879 0.08698
 C262 C -0.09928 0.73368 0.06446
 C263 C -0.08292 0.74353 0.03279
 C264 C -0.07496 0.72184 -0.05366
 C265 C -0.09128 0.72457 -0.08690
 C266 C -0.08039 0.75023 -0.11109
 C267 C -0.05575 0.77531 -0.09985
 C268 C -0.04177 0.77423 -0.06579
 C269 C 0.04488 0.79492 -0.02981
 C270 C 0.07222 0.80321 -0.05268
 C271 C 0.08320 0.77938 -0.07910
 C272 C 0.06401 0.74813 -0.08361
 C273 C 0.03674 0.73956 -0.06009
 C274 C 0.00490 0.77990 0.05712
 C275 C 0.02303 0.78839 0.08815
 C276 C 0.05624 0.77345 0.09520
 C277 C 0.07029 0.74908 0.07101
 C278 C 0.05213 0.74058 0.04004
 H279 H -0.01234 0.68843 0.03555
 H280 H -0.03984 0.67191 0.09106
 H281 H -0.12340 0.74694 0.07210
 H282 H -0.09452 0.76418 0.01704
 H283 H -0.08222 0.70043 -0.03647
 H284 H -0.11067 0.70520 -0.09449
 H285 H -0.02496 0.79552 -0.05755
 H286 H 0.03782 0.81339 -0.00908
 H287 H 0.08482 0.82828 -0.04900
 H288 H 0.07137 0.72935 -0.10393
 H289 H 0.02379 0.71445 -0.06248
 H290 H -0.01978 0.79298 0.05144
 H291 H 0.01130 0.80741 0.10591
 H292 H 0.09568 0.73699 0.07572
 H293 H 0.06406 0.72260 0.02122
 H294 H -0.04826 0.79681 -0.11684
 C295 C 0.49415 0.24417 0.51735
 C296 C 0.52675 0.25601 0.50841
 C297 C 0.53886 0.25676 0.47126
 C298 C 0.55088 0.27077 0.53520
 C299 C 0.48040 0.24589 0.55440
 C300 C 0.46929 0.23051 0.49034
 C301 C 0.55206 0.22652 0.45469
 C302 C 0.56368 0.22788 0.41952
 C303 C 0.56109 0.25918 0.40032
 C304 C 0.54765 0.28932 0.41697
 C305 C 0.53726 0.28826 0.45241
 C306 C 0.58150 0.25247 0.54471
 C307 C 0.60119 0.26322 0.57408
 C308 C 0.59066 0.29259 0.59406
 C309 C 0.56158 0.31245 0.58246
 C310 C 0.54183 0.30155 0.55336
 C311 C 0.44706 0.26075 0.56061
 C312 C 0.43316 0.26246 0.59480
 C313 C 0.45258 0.24999 0.62369
 C314 C 0.48587 0.23491 0.61770
 C315 C 0.49936 0.23225 0.58323
 C316 C 0.45699 0.25185 0.46277
 C317 C 0.43022 0.24013 0.44037
 C318 C 0.41445 0.20746 0.44602
 C319 C 0.42711 0.18590 0.47322
 C320 C 0.45437 0.19731 0.49510
 H321 H 0.55374 0.20213 0.46911
 H322 H 0.57445 0.20450 0.40721
 H323 H 0.54623 0.31394 0.40290
 H324 H 0.52741 0.31187 0.46507
 H325 H 0.58893 0.22875 0.53069
 H326 H 0.62364 0.24763 0.58212
 H327 H 0.51859 0.31627 0.54588
 H328 H 0.43174 0.27121 0.53890
 H329 H 0.40737 0.27406 0.59874
 H330 H 0.50103 0.22442 0.63948
 H331 H 0.52448 0.21940 0.57910
 H332 H 0.46684 0.27818 0.45959
 H333 H 0.42057 0.25737 0.41983
 H334 H 0.41559 0.16045 0.47795
 H335 H 0.46313 0.18069 0.51655
 H336 H 0.55321 0.33585 0.59635
 C337 C 1.00107 0.01261 0.23788
 C338 C 1.00424 -0.02055 0.25068
 C339 C 0.97355 -0.04240 0.26134
 C340 C 1.03926 -0.03740 0.25573
 C341 C 1.03223 0.03229 0.22473
 C342 C 0.96649 0.03030 0.23607
 C343 C 0.97436 -0.05864 0.29456
 C344 C 0.95243 -0.08689 0.30195
 C345 C 0.92841 -0.09940 0.27646
 C346 C 0.92512 -0.08080 0.24447
 C347 C 0.94800 -0.05302 0.23667
 C348 C 1.06521 -0.02144 0.27661
 C349 C 1.09668 -0.03897 0.28397
 C350 C 1.10258 -0.07332 0.27124
 C351 C 1.07640 -0.08913 0.25029
 C352 C 1.04523 -0.07132 0.24254
 C353 C 1.05296 0.01846 0.19724
 C354 C 1.08447 0.03461 0.18754
 C355 C 1.09614 0.06502 0.20522
 C356 C 1.07426 0.07999 0.23135
 C357 C 1.04251 0.06384 0.24092
 C358 C 0.94861 0.03206 0.20372
 C359 C 0.91558 0.04810 0.20186
 C360 C 0.90046 0.06363 0.23213
 C361 C 0.91898 0.06295 0.26425
 C362 C 0.95163 0.04593 0.26633
 H363 H 0.99372 -0.05084 0.31409
 H364 H 0.95504 -0.09913 0.32756
 H365 H 0.90678 -0.08937 0.22429
 H366 H 0.94734 -0.04159 0.21052
 H367 H 1.06074 0.00428 0.28801
 H368 H 1.11568 -0.02568 0.30045
 H369 H 1.02541 -0.08428 0.22664
 H370 H 1.04519 -0.00550 0.18395
 H371 H 1.09989 0.02263 0.16664
 H372 H 1.08231 0.10347 0.24531
 H373 H 1.02679 0.07510 0.26209
 H374 H 0.96002 0.02047 0.18007
 H375 H 0.90204 0.04877 0.17664
 H376 H 0.90781 0.07485 0.28784
 H377 H 0.96540 0.04506 0.29140
 H378 H 1.07988 -0.11538 0.23982
 C379 C 0.49809 0.53347 0.75548
 C380 C 0.50119 0.49812 0.75686
 C381 C 0.53556 0.48039 0.76249
 C382 C 0.46995 0.47579 0.75101
 C383 C 0.46576 0.55114 0.74332
 C384 C 0.52718 0.55800 0.76244
 C385 C 0.54546 0.45283 0.73974
 C386 C 0.57896 0.43797 0.74199
 C387 C 0.60333 0.45096 0.76649
 C388 C 0.59308 0.47732 0.79040
 C389 C 0.55913 0.49135 0.78897
 C390 C 0.45186 0.47649 0.71866
 C391 C 0.41985 0.45914 0.71510
 C392 C 0.40614 0.43981 0.74345
 C393 C 0.42561 0.43682 0.77482
 C394 C 0.45725 0.45497 0.77869
 C395 C 0.44005 0.56241 0.76756
 C396 C 0.41541 0.58785 0.75757
 C397 C 0.41673 0.60231 0.72345
 C398 C 0.44039 0.58842 0.69843
 C399 C 0.46491 0.56328 0.70841
 C400 C 0.52450 0.58005 0.79207
 C401 C 0.54461 0.61035 0.79415
 C402 C 0.56767 0.61913 0.76652
 C403 C 0.57282 0.59541 0.73842
 C404 C 0.55238 0.56502 0.73621
 H405 H 0.52766 0.44357 0.71938
 H406 H 0.58634 0.41732 0.72360
 H407 H 0.61127 0.48692 0.81022
 H408 H 0.55160 0.51118 0.80812
 H409 H 0.46206 0.49123 0.69651
 H410 H 0.40579 0.46090 0.69025
 H411 H 0.47124 0.45377 0.80364
 H412 H 0.44076 0.55353 0.79475
 H413 H 0.39726 0.59815 0.77721
 H414 H 0.44137 0.59845 0.67168
 H415 H 0.48479 0.55496 0.68951
 H416 H 0.50507 0.57501 0.81245
 H417 H 0.54082 0.62774 0.81658
 H418 H 0.59062 0.60164 0.71693
 H419 H 0.55432 0.54845 0.71292
 H420 H 0.41562 0.42165 0.79681
 C421 C 1.01988 1.01168 0.76247
 C422 C 0.98610 1.01157 0.77459
 C423 C 0.96451 0.97935 0.77286
 C424 C 0.96769 1.04319 0.78815
 C425 C 1.04428 1.04025 0.77181
 C426 C 1.03610 0.97961 0.74612
 C427 C 0.93336 0.97927 0.75298
 C428 C 0.91637 0.94779 0.74562
 C429 C 0.93075 0.91615 0.75756
 C430 C 0.96024 0.91649 0.77985
 C431 C 0.97652 0.94809 0.78822
 C432 C 0.96172 1.07201 0.76598
 C433 C 0.93426 1.09561 0.77350
 C434 C 0.91198 1.09016 0.80285
 C435 C 0.92100 1.06358 0.82703
 C436 C 0.94851 1.04046 0.81971
 C437 C 1.05414 1.04480 0.80735
 C438 C 1.08472 1.06321 0.81580
 C439 C 1.10533 1.07794 0.78884
 C440 C 1.09376 1.07590 0.75361
 C441 C 1.06373 1.05664 0.74508
 C442 C 1.06737 0.96591 0.76028
 C443 C 1.07881 0.93238 0.75098
 C444 C 1.05857 0.91114 0.72829
 C445 C 1.02892 0.92596 0.71171
 C446 C 1.01862 0.96036 0.71959
 H447 H 0.92339 1.00326 0.74147
 H448 H 0.89328 0.94793 0.72881
 H449 H 0.97113 0.89231 0.79002
 H450 H 0.99997 0.94792 0.80450
 H451 H 0.97608 1.07444 0.74131
 H452 H 0.92867 1.11618 0.75466
 H453 H 0.95293 1.01855 0.83731
 H454 H 1.03980 1.03169 0.82824
 H455 H 1.09284 1.06496 0.84323
 H456 H 1.10922 1.08723 0.73245
 H457 H 1.05680 1.05282 0.71751
 H458 H 1.08196 0.98021 0.78023
 H459 H 1.10230 0.92229 0.76366
 H460 H 1.01344 0.91111 0.69292
 H461 H 0.99534 0.97095 0.70700
 H462 H 0.90602 1.05929 0.85097
 C463 C 0.51172 0.50103 0.25507
 C464 C 0.47718 0.49163 0.25280
 C465 C 0.46386 0.45666 0.26402
 C466 C 0.44981 0.51642 0.24025
 C467 C 0.52402 0.53766 0.24864
 C468 C 0.53991 0.47560 0.26461
 C469 C 0.43945 0.43879 0.24264
 C470 C 0.42286 0.40850 0.25471
 C471 C 0.43043 0.39508 0.28837
 C472 C 0.45529 0.41256 0.30965
 C473 C 0.47160 0.44318 0.29771
 C474 C 0.44337 0.52040 0.20388
 C475 C 0.41357 0.53878 0.19231
 C476 C 0.39059 0.55438 0.21700
 C477 C 0.39792 0.55163 0.25326
 C478 C 0.42675 0.53199 0.26481
 C479 C 0.50937 0.56614 0.26730
 C480 C 0.52412 0.59956 0.26465
 C481 C 0.55470 0.60498 0.24440
 C482 C 0.56964 0.57658 0.22606
 C483 C 0.55424 0.54338 0.22782
 C484 C 0.56308 0.48417 0.29218
 C485 C 0.59400 0.46507 0.29717
 C486 C 0.60266 0.43695 0.27455
 C487 C 0.57838 0.42687 0.24836
 C488 C 0.54726 0.44618 0.24329
 H489 H 0.43268 0.44862 0.21668
 H490 H 0.40398 0.39558 0.23764
 H491 H 0.46146 0.40325 0.33594
 H492 H 0.48931 0.45700 0.31531
 H493 H 0.46047 0.50785 0.18461
 H494 H 0.40833 0.54069 0.16420
 H495 H 0.43086 0.52847 0.29296
 H496 H 0.48755 0.56237 0.28526
 H497 H 0.51249 0.62083 0.27976
 H498 H 0.59327 0.58006 0.21039
 H499 H 0.56660 0.52181 0.21376
 H500 H 0.55789 0.50669 0.30898
 H501 H 0.61148 0.47303 0.31828
 H502 H 0.58427 0.40517 0.23073
 H503 H 0.52996 0.43938 0.22157
 H504 H 0.38039 0.56333 0.27269
 O505 O 0.29504 0.13760 0.18659
 O506 O 0.31714 0.11760 0.24501
 O507 O 0.18996 0.17063 0.21741
 O508 O 0.16590 0.21201 0.25136
 O509 O 0.25792 0.23111 0.14776
 O510 O 0.30304 0.27505 0.16195
 O511 O 0.24645 0.25018 0.34328
 O512 O 0.20703 0.20221 0.33085
 O513 O 0.34847 0.20922 0.32364
 O514 O 0.37095 0.17498 0.27766
 O515 O 0.32067 0.30622 0.27909
 O516 O 0.28095 0.32297 0.22796
 O517 O 0.26003 0.29914 0.31207
 O518 O 0.23718 0.32021 0.25774
 O519 O 0.36022 0.26268 0.28970
 O520 O 0.38292 0.22639 0.24144
 O521 O 0.29500 0.20146 0.34986
 O522 O 0.24859 0.16393 0.34144
 O523 O 0.31081 0.18675 0.15676
 O524 O 0.34327 0.23817 0.16516
 O525 O 0.20475 0.22658 0.17533
 O526 O 0.18030 0.25991 0.22547
 O527 O 0.23357 0.12961 0.21808
 O528 O 0.26846 0.11131 0.26726
 Zr529 Zr 0.27820 0.15643 0.23657
 O530 O 0.29785 0.17981 0.28294
 Zr531 Zr 0.21665 0.21789 0.22898
 O532 O 0.23425 0.24417 0.27487
 Zr533 Zr 0.29439 0.22790 0.18978
 O534 O 0.31545 0.25396 0.23418
 Zr535 Zr 0.25804 0.20808 0.30907
 O536 O 0.23695 0.18093 0.26496
 Zr537 Zr 0.33575 0.21744 0.27019
 O538 O 0.31910 0.19130 0.22344
 Zr539 Zr 0.27484 0.27949 0.26194
 O540 O 0.25395 0.25630 0.21522
 O541 O 0.25574 0.19116 0.20121
 O542 O 0.29694 0.24484 0.29816
 C543 C 0.30780 0.15346 0.15951
 C544 C 0.20141 0.13908 0.21346
 C545 C 0.22405 0.23019 0.14763
 C546 C 0.24878 0.28358 0.33994
 C547 C 0.32879 0.20287 0.35054
 C548 C 0.35091 0.29497 0.28951
 H549 H 0.30809 0.16135 0.29808
 H550 H 0.33394 0.27028 0.22610
 H551 H 0.24682 0.17853 0.18012
 H552 H 0.21410 0.25607 0.28642
 H553 H 0.19431 0.18533 0.31556
 H554 H 0.16703 0.22058 0.27609
 H555 H 0.40269 0.22680 0.25857
 H556 H 0.36108 0.22442 0.17827
 H557 H 0.26245 0.14422 0.33160
 H558 H 0.24636 0.11582 0.28051
 H559 H 0.30463 0.32125 0.21711
 H560 H 0.28158 0.28957 0.16500
 H561 H 0.33826 0.12459 0.23145
 H562 H 0.37527 0.16449 0.25403
 H563 H 0.19235 0.27915 0.21286
 H564 H 0.21391 0.31011 0.26338
 O565 O 0.78122 0.82908 0.18832
 O566 O 0.73802 0.85710 0.22532
 O567 O 0.84231 0.77489 0.26904
 O568 O 0.83759 0.72921 0.30414
 O569 O 0.80842 0.72350 0.16822
 O570 O 0.75387 0.69685 0.15187
 O571 O 0.71059 0.72104 0.33901
 O572 O 0.76182 0.75542 0.35315
 O573 O 0.65070 0.78551 0.27070
 O574 O 0.66039 0.81350 0.21637
 O575 O 0.67255 0.67766 0.24671
 O576 O 0.72308 0.64755 0.21982
 O577 O 0.70994 0.67268 0.30364
 O578 O 0.75382 0.64479 0.26308
 O579 O 0.64520 0.72949 0.23550
 O580 O 0.66191 0.76656 0.18137
 O581 O 0.68028 0.77732 0.32244
 O582 O 0.72985 0.80588 0.33999
 O583 O 0.77813 0.78123 0.15229
 O584 O 0.72739 0.74425 0.13897
 O585 O 0.84016 0.72000 0.21919
 O586 O 0.82538 0.68613 0.27394
 O587 O 0.81729 0.82515 0.24879
 O588 O 0.76479 0.85473 0.27208
 Zr589 Zr 0.76494 0.81032 0.23830
 O590 O 0.71904 0.79565 0.26562
 Zr591 Zr 0.80456 0.73556 0.25964
 O592 O 0.76028 0.71806 0.28828
 Zr593 Zr 0.75885 0.74131 0.18503
 O594 O 0.71264 0.72358 0.21020
 Zr595 Zr 0.73096 0.76103 0.30689
 O596 O 0.77790 0.77888 0.28244
 Zr597 Zr 0.68590 0.76668 0.23210
 O598 O 0.73008 0.78503 0.20334
 Zr599 Zr 0.72581 0.69183 0.25365
 O600 O 0.77210 0.70609 0.22565
 O601 O 0.79356 0.76858 0.21763
 O602 O 0.69665 0.73344 0.27445
 C603 C 0.78505 0.81362 0.15823
 C604 C 0.84273 0.80801 0.26289
 C605 C 0.83673 0.71680 0.18539
 C606 C 0.70487 0.68831 0.33345
 C607 C 0.65308 0.78664 0.30462
 C608 C 0.64494 0.69627 0.24081
 H609 H 0.70751 0.81708 0.27490
 H610 H 0.69753 0.71121 0.19292
 H611 H 0.81527 0.77666 0.20571
 H612 H 0.76818 0.70311 0.30807
 H613 H 0.78369 0.76891 0.34925
 H614 H 0.82217 0.73043 0.32523
 H615 H 0.63613 0.76378 0.18437
 H616 H 0.71523 0.76721 0.13975
 H617 H 0.75132 0.81936 0.33461
 H618 H 0.77909 0.84883 0.29311
 H619 H 0.71181 0.65496 0.19748
 H620 H 0.76177 0.67650 0.16597
 H621 H 0.72278 0.85166 0.20477
 H622 H 0.67081 0.83293 0.23018
 H623 H 0.81962 0.66964 0.25449
 H624 H 0.76734 0.64793 0.28523
 O625 O 0.74262 0.19260 0.83357
 O626 O 0.69716 0.18384 0.78809
 O627 O 0.83620 0.20212 0.77432
 O628 O 0.85195 0.23190 0.72509
 O629 O 0.81571 0.27559 0.85442
 O630 O 0.77943 0.32436 0.86168
 O631 O 0.76124 0.29896 0.66831
 O632 O 0.78193 0.24000 0.66610
 O633 O 0.66531 0.29182 0.72860
 O634 O 0.65127 0.25868 0.77727
 O635 O 0.73380 0.36971 0.75541
 O636 O 0.79090 0.37338 0.78381
 O637 O 0.76935 0.34840 0.70109
 O638 O 0.82056 0.35597 0.74354
 O639 O 0.68271 0.34068 0.76623
 O640 O 0.67011 0.30410 0.81846
 O641 O 0.69985 0.27433 0.68239
 O642 O 0.72614 0.22022 0.67572
 O643 O 0.75546 0.24041 0.86730
 O644 O 0.73153 0.30035 0.86939
 O645 O 0.85226 0.26395 0.80788
 O646 O 0.86368 0.28192 0.74773
 O647 O 0.78523 0.17313 0.78589
 O648 O 0.73208 0.16750 0.74931
 Zr649 Zr 0.74513 0.21105 0.78149
 O650 O 0.71600 0.24265 0.74643
 Zr651 Zr 0.81877 0.25375 0.76444
 O652 O 0.79320 0.28627 0.72738
 Zr653 Zr 0.76626 0.28035 0.83026
 O654 O 0.73984 0.31497 0.79640
 Zr655 Zr 0.74880 0.26099 0.70609
 O656 O 0.77764 0.22607 0.73909
 Zr657 Zr 0.69817 0.28812 0.77247
 O658 O 0.72253 0.25388 0.80908
 Zr659 Zr 0.77237 0.33021 0.75397
 O660 O 0.80063 0.29920 0.79060
 O661 O 0.78714 0.23648 0.80565
 O662 O 0.72943 0.30587 0.73083
 C663 C 0.74691 0.20803 0.86343
 C664 C 0.81895 0.17459 0.78319
 C665 C 0.84630 0.27199 0.84050
 C666 C 0.76680 0.33193 0.67139
 C667 C 0.67083 0.28637 0.69553
 C668 C 0.70043 0.36868 0.76067
 H669 H 0.69603 0.22928 0.73645
 H670 H 0.73141 0.33507 0.81075
 H671 H 0.80015 0.22230 0.82320
 H672 H 0.81019 0.29268 0.70865
 H673 H 0.79138 0.21754 0.67510
 H674 H 0.84163 0.23841 0.70201
 H675 H 0.64682 0.31316 0.81087
 H676 H 0.70991 0.28598 0.86843
 H677 H 0.72987 0.19844 0.68918
 H678 H 0.75174 0.16398 0.73237
 H679 H 0.77602 0.37523 0.80528
 H680 H 0.79711 0.33773 0.84806
 H681 H 0.68432 0.19544 0.80775
 H682 H 0.65348 0.24489 0.79926
 H683 H 0.86210 0.30534 0.75898
 H684 H 0.83059 0.34604 0.72145
 O685 O 0.21334 0.85336 0.75013
 O686 O 0.23842 0.85194 0.68980
 O687 O 0.13055 0.77814 0.74070
 O688 O 0.12474 0.72057 0.73209
 O689 O 0.20542 0.77847 0.82963
 O690 O 0.26458 0.75461 0.83533
 O691 O 0.22794 0.67540 0.66363
 O692 O 0.17228 0.70462 0.65466
 O693 O 0.30440 0.75232 0.65985
 O694 O 0.31271 0.81033 0.69042
 O695 O 0.30268 0.68041 0.74130
 O696 O 0.26815 0.67756 0.79942
 O697 O 0.24977 0.65392 0.71527
 O698 O 0.22609 0.65398 0.77588
 O699 O 0.32831 0.72722 0.71471
 O700 O 0.33379 0.78870 0.73454
 O701 O 0.25716 0.72461 0.63574
 O702 O 0.19716 0.75036 0.62781
 O703 O 0.23605 0.83074 0.80097
 O704 O 0.28943 0.79862 0.81172
 O705 O 0.15589 0.75568 0.80471
 O706 O 0.15099 0.69683 0.77642
 O707 O 0.15907 0.82586 0.71889
 O708 O 0.19262 0.83087 0.66634
 Zr709 Zr 0.21154 0.81028 0.71457
 O710 O 0.24324 0.77721 0.68314
 Zr711 Zr 0.17169 0.74238 0.75246
 O712 O 0.20253 0.70623 0.72316
 Zr713 Zr 0.24318 0.77747 0.78920
 O714 O 0.27711 0.74343 0.76147
 Zr715 Zr 0.21808 0.72874 0.67503
 O716 O 0.18407 0.76363 0.70248
 Zr717 Zr 0.28877 0.76509 0.71177
 O718 O 0.25890 0.80139 0.74167
 Zr719 Zr 0.25016 0.69681 0.75012
 O720 O 0.21729 0.72946 0.78154
 O721 O 0.19665 0.78949 0.76290
 O722 O 0.26460 0.71734 0.70138
 C723 C 0.22318 0.85596 0.78273
 C724 C 0.13128 0.80965 0.72863
 C725 C 0.17280 0.76986 0.83057
 C726 C 0.24124 0.65075 0.68253
 C727 C 0.28914 0.73533 0.63484
 C728 C 0.32868 0.69564 0.72595
 H729 H 0.24889 0.78898 0.66060
 H730 H 0.29859 0.73909 0.77553
 H731 H 0.18101 0.80575 0.77604
 H732 H 0.18918 0.68443 0.71895
 H733 H 0.15221 0.72006 0.66102
 H734 H 0.13160 0.70309 0.71392
 H735 H 0.33844 0.77710 0.75743
 H736 H 0.30008 0.81374 0.79340
 H737 H 0.21296 0.76925 0.61975
 H738 H 0.17851 0.81207 0.65522
 H739 H 0.29030 0.68977 0.80534
 H740 H 0.25189 0.73233 0.83904
 H741 H 0.26058 0.85536 0.70311
 H742 H 0.30006 0.81650 0.66842
 H743 H 0.16644 0.69118 0.79671
 H744 H 0.20352 0.64930 0.76377
 O745 O 0.25789 0.31869 0.68463
 O746 O 0.20044 0.32865 0.71397
 O747 O 0.32968 0.32976 0.76907
 O748 O 0.33723 0.30671 0.82336
 O749 O 0.33884 0.24273 0.69823
 O750 O 0.30859 0.18847 0.69220
 O751 O 0.23355 0.23852 0.86444
 O752 O 0.25529 0.29665 0.86560
 O753 O 0.16094 0.23204 0.78246
 O754 O 0.15982 0.25387 0.72480
 O755 O 0.23661 0.15870 0.79403
 O756 O 0.29993 0.15333 0.77318
 O757 O 0.26173 0.18947 0.84464
 O758 O 0.32006 0.17920 0.81594
 O759 O 0.18964 0.17948 0.76311
 O760 O 0.19092 0.20227 0.70181
 O761 O 0.18149 0.25922 0.83214
 O762 O 0.20975 0.31934 0.83598
 O763 O 0.28462 0.26872 0.66507
 O764 O 0.26406 0.20824 0.66583
 O765 O 0.36070 0.27001 0.74725
 O766 O 0.35785 0.25450 0.81007
 O767 O 0.28129 0.35106 0.74072
 O768 O 0.22072 0.35419 0.75755
 Zr769 Zr 0.24645 0.30875 0.73827
 O770 O 0.21156 0.28028 0.77027
 Zr771 Zr 0.31645 0.27744 0.78059
 O772 O 0.28430 0.24817 0.81509
 Zr773 Zr 0.28522 0.23586 0.70952
 O774 O 0.25242 0.20422 0.74074
 Zr775 Zr 0.23438 0.27180 0.82013
 O776 O 0.26818 0.30374 0.78940
 Zr777 Zr 0.20440 0.23025 0.74852
 O778 O 0.23555 0.26035 0.71368
 Zr779 Zr 0.27411 0.19919 0.79156
 O780 O 0.30935 0.22708 0.75887
 O781 O 0.29525 0.28507 0.73067
 O782 O 0.22529 0.22257 0.79875
 C783 C 0.27321 0.30010 0.66066
 C784 C 0.31256 0.35416 0.75312
 C785 C 0.36409 0.25606 0.71631
 C786 C 0.24510 0.20711 0.86836
 C787 C 0.15749 0.24312 0.81444
 C788 C 0.20507 0.15623 0.78199
 H789 H 0.18878 0.29279 0.77195
 H790 H 0.24878 0.18130 0.72903
 H791 H 0.31122 0.29888 0.71549
 H792 H 0.29582 0.24593 0.83844
 H793 H 0.26997 0.31627 0.85705
 H794 H 0.32516 0.29872 0.84509
 H795 H 0.16673 0.19307 0.70495
 H796 H 0.24134 0.21962 0.66005
 H797 H 0.18804 0.32246 0.82192
 H798 H 0.22901 0.35772 0.78214
 H799 H 0.28599 0.14354 0.75339
 H800 H 0.32242 0.17951 0.71244
 H801 H 0.19501 0.31306 0.69373
 H802 H 0.16721 0.26171 0.70099
 H803 H 0.36265 0.23126 0.79935
 H804 H 0.32596 0.19487 0.83600
 O805 O 0.71509 0.69474 0.66942
 O806 O 0.75537 0.66691 0.70901
 O807 O 0.64820 0.74836 0.74924
 O808 O 0.65261 0.79149 0.78747
 O809 O 0.68225 0.79869 0.65146
 O810 O 0.73686 0.82915 0.63775
 O811 O 0.77879 0.80283 0.82336
 O812 O 0.72724 0.76707 0.83649
 O813 O 0.84228 0.74732 0.75625
 O814 O 0.82935 0.70972 0.70212
 O815 O 0.81702 0.84632 0.73354
 O816 O 0.76633 0.87633 0.70449
 O817 O 0.77896 0.85114 0.78820
 O818 O 0.73569 0.87918 0.74855
 O819 O 0.84526 0.79593 0.71775
 O820 O 0.83147 0.75726 0.66645
 O821 O 0.81058 0.74965 0.80748
 O822 O 0.76132 0.71704 0.82230
 O823 O 0.71865 0.74285 0.63429
 O824 O 0.76374 0.78341 0.62221
 O825 O 0.65095 0.80345 0.70272
 O826 O 0.66417 0.83621 0.75836
 O827 O 0.67497 0.69812 0.73070
 O828 O 0.72656 0.66833 0.75309
 Zr829 Zr 0.72740 0.71349 0.72082
 O830 O 0.77275 0.72842 0.74927
 Zr831 Zr 0.68608 0.78741 0.74284
 O832 O 0.72951 0.80531 0.77235
 Zr833 Zr 0.73263 0.78334 0.66870
 O834 O 0.77836 0.80098 0.69453
 Zr835 Zr 0.75925 0.76262 0.79074
 O836 O 0.71309 0.74435 0.76524
 Zr837 Zr 0.80546 0.75816 0.71623
 O838 O 0.76199 0.74000 0.68666
 Zr839 Zr 0.76369 0.83222 0.73816
 O840 O 0.71800 0.81785 0.70968
 O841 O 0.69821 0.75474 0.70025
 O842 O 0.79285 0.79095 0.75856
 C843 C 0.71402 0.71002 0.63911
 C844 C 0.64865 0.71524 0.74349
 C845 C 0.65408 0.80591 0.66889
 C846 C 0.78449 0.83545 0.81765
 C847 C 0.83963 0.74655 0.79021
 C848 C 0.84484 0.82850 0.72607
 H849 H 0.78486 0.70749 0.75868
 H850 H 0.79355 0.81359 0.67757
 H851 H 0.67724 0.74606 0.68742
 H852 H 0.72113 0.82012 0.79224
 H853 H 0.70596 0.75281 0.83206
 H854 H 0.66801 0.79204 0.80854
 H855 H 0.85727 0.75668 0.67053
 H856 H 0.78050 0.76365 0.62440
 H857 H 0.73970 0.70367 0.81721
 H858 H 0.71315 0.67435 0.77478
 H859 H 0.77992 0.86955 0.68316
 H860 H 0.72621 0.84844 0.65178
 H861 H 0.77361 0.67319 0.69143
 H862 H 0.82889 0.69414 0.72296
 H863 H 0.66996 0.85323 0.73954
 H864 H 0.72131 0.87545 0.77008
 O865 O 0.21684 0.64098 0.27265
 O866 O 0.17873 0.64519 0.22891
 O867 O 0.31484 0.66844 0.21823
 O868 O 0.33121 0.71843 0.18510
 O869 O 0.30055 0.70787 0.32242
 O870 O 0.26583 0.74249 0.35228
 O871 O 0.23624 0.80126 0.16311
 O872 O 0.25738 0.75296 0.13458
 O873 O 0.14580 0.77035 0.21787
 O874 O 0.13332 0.72451 0.25616
 O875 O 0.22140 0.83338 0.27093
 O876 O 0.27447 0.82513 0.29667
 O877 O 0.25128 0.83262 0.21215
 O878 O 0.30740 0.81858 0.24977
 O879 O 0.16834 0.80636 0.26621
 O880 O 0.15565 0.75592 0.30647
 O881 O 0.17748 0.76630 0.16669
 O882 O 0.21673 0.71725 0.13934
 O883 O 0.23804 0.66882 0.32152
 O884 O 0.21427 0.72588 0.34671
 O885 O 0.33392 0.70457 0.27235
 O886 O 0.34557 0.75075 0.22837
 O887 O 0.26303 0.63877 0.21660
 O888 O 0.20672 0.65373 0.18360
 Zr889 Zr 0.22446 0.67640 0.23160
 O890 O 0.19551 0.72001 0.21395
 Zr891 Zr 0.29971 0.71964 0.23135
 O892 O 0.27471 0.76440 0.21049
 Zr893 Zr 0.24974 0.72006 0.30370
 O894 O 0.22467 0.76655 0.28737
 Zr895 Zr 0.22880 0.75056 0.18258
 O896 O 0.25742 0.70537 0.19819
 Zr897 Zr 0.18098 0.75311 0.25640
 O898 O 0.20460 0.70621 0.27467
 Zr899 Zr 0.25685 0.79532 0.25290
 O900 O 0.28427 0.75188 0.27405
 O901 O 0.26785 0.68819 0.26286
 O902 O 0.21219 0.78339 0.22346
 C903 C 0.22376 0.64248 0.30578
 C904 C 0.29674 0.64063 0.21327
 C905 C 0.32978 0.70250 0.30605
 C906 C 0.24338 0.83001 0.17912
 C907 C 0.14902 0.77299 0.18420
 C908 C 0.18768 0.83336 0.27211
 H909 H 0.17461 0.71156 0.20091
 H910 H 0.21781 0.78061 0.30839
 H911 H 0.27994 0.66726 0.27243
 H912 H 0.29122 0.77728 0.19509
 H913 H 0.28252 0.75071 0.14089
 H914 H 0.31680 0.70744 0.16628
 H915 H 0.13306 0.76860 0.30328
 H916 H 0.19316 0.71183 0.34095
 H917 H 0.19232 0.70885 0.14262
 H918 H 0.22619 0.65569 0.16626
 H919 H 0.28799 0.80890 0.31185
 H920 H 0.26684 0.76804 0.34840
 H921 H 0.15898 0.66041 0.23650
 H922 H 0.13695 0.70421 0.27198
 H923 H 0.34678 0.76435 0.25073
 H924 H 0.31284 0.82318 0.22459
 O925 O 0.74998 0.31489 0.33853
 O926 O 0.80726 0.32496 0.31187
 O927 O 0.68028 0.32388 0.25118
 O928 O 0.67529 0.29944 0.19724
 O929 O 0.66981 0.23895 0.32333
 O930 O 0.70018 0.18464 0.33160
 O931 O 0.78455 0.22868 0.16339
 O932 O 0.75862 0.28612 0.15762
 O933 O 0.85081 0.22603 0.24523
 O934 O 0.84974 0.24706 0.30351
 O935 O 0.77292 0.15070 0.23497
 O936 O 0.70920 0.14844 0.25012
 O937 O 0.75510 0.18011 0.18143
 O938 O 0.69265 0.17420 0.20536
 O939 O 0.82113 0.17256 0.26302
 O940 O 0.81780 0.19625 0.32490
 O941 O 0.83229 0.25451 0.19568
 O942 O 0.80186 0.31223 0.18880
 O943 O 0.72285 0.26558 0.35828
 O944 O 0.74384 0.20513 0.35895
 O945 O 0.64994 0.26679 0.27395
 O946 O 0.65493 0.24657 0.21125
 O947 O 0.72751 0.34572 0.28098
 O948 O 0.78999 0.34784 0.26586
 Zr949 Zr 0.76315 0.30356 0.28553
 O950 O 0.79940 0.27389 0.25566
 Zr951 Zr 0.69485 0.27140 0.24124
 O952 O 0.72843 0.24132 0.20818
 Zr953 Zr 0.72384 0.23151 0.31414
 O954 O 0.75749 0.19883 0.28432
 Zr955 Zr 0.77840 0.26464 0.20514
 O956 O 0.74328 0.29749 0.23380
 Zr957 Zr 0.80604 0.22396 0.27779
 O958 O 0.77362 0.25550 0.31094
 Zr959 Zr 0.73747 0.19286 0.23278
 O960 O 0.70124 0.22162 0.26415
 O961 O 0.71441 0.28017 0.29177
 O962 O 0.78665 0.21571 0.22721
 C963 C 0.73388 0.29715 0.36238
 C964 C 0.69659 0.34866 0.26740
 C965 C 0.64553 0.25364 0.30497
 C966 C 0.77480 0.19672 0.15959
 C967 C 0.85577 0.23838 0.21398
 C968 C 0.80471 0.14822 0.24623
 H969 H 0.82213 0.28641 0.25474
 H970 H 0.76050 0.17613 0.29647
 H971 H 0.69812 0.29458 0.30625
 H972 H 0.71823 0.23846 0.18427
 H973 H 0.74307 0.30586 0.16456
 H974 H 0.68735 0.29015 0.17593
 H975 H 0.84176 0.18618 0.32224
 H976 H 0.76655 0.21636 0.36486
 H977 H 0.82103 0.31789 0.20553
 H978 H 0.78028 0.35252 0.24202
 H979 H 0.72009 0.14036 0.27242
 H980 H 0.68565 0.17599 0.31167
 H981 H 0.81382 0.30829 0.33072
 H982 H 0.84113 0.25593 0.32663
 H983 H 0.64898 0.22455 0.22359
 H984 H 0.69056 0.18736 0.18295
 C985 C 0.31584 0.09422 0.08870
 C986 C 0.34109 0.11808 0.07771
 C987 C 0.34228 0.14299 0.10362
 C988 C 0.31836 0.13240 0.12877
 O989 O 0.30248 0.10295 0.12001
 H990 H 0.35593 0.11867 0.05328
 H991 H 0.35791 0.16663 0.10370
 C992 C 0.70989 0.64600 0.57248
 C993 C 0.70735 0.67496 0.55099
 C994 C 0.70643 0.70281 0.57351
 C995 C 0.70859 0.68877 0.60708
 O996 O 0.71046 0.65420 0.60659
 H997 H 0.70689 0.67565 0.52233
 H998 H 0.70577 0.73020 0.56628
 C999 C 0.81232 0.87463 0.09435
 C1000 C 0.82947 0.84548 0.08084
 C1001 C 0.82129 0.81884 0.10309
 C1002 C 0.80005 0.83361 0.12877
 O1003 O 0.79440 0.86744 0.12360
 H1004 H 0.84482 0.84342 0.05674
 H1005 H 0.82960 0.79178 0.10083
 C1006 C 0.28352 0.35512 0.58754
 C1007 C 0.30370 0.32744 0.57517
 C1008 C 0.30154 0.30245 0.60060
 C1009 C 0.28024 0.31671 0.62655
 O1010 O 0.26917 0.34858 0.61872
 H1011 H 0.31792 0.32542 0.55038
 H1012 H 0.31445 0.27714 0.60056
 C1013 C 0.74082 0.14244 0.92753
 C1014 C 0.72865 0.16984 0.94828
 C1015 C 0.72997 0.19866 0.92715
 C1016 C 0.74236 0.18652 0.89505
 O1017 O 0.74918 0.15252 0.89520
 H1018 H 0.72082 0.16904 0.97584
 H1019 H 0.72250 0.22520 0.93410
 C1020 C 0.20945 0.57591 0.36797
 C1021 C 0.18857 0.56275 0.34116
 C1022 C 0.19148 0.58606 0.31428
 C1023 C 0.21377 0.61178 0.32664
 O1024 O 0.22480 0.60576 0.35920
 H1025 H 0.17377 0.53861 0.34071
 H1026 H 0.17889 0.58449 0.28862
 C1027 C 0.21118 0.92383 0.84465
 C1028 C 0.19458 0.93976 0.81636
 C1029 C 0.19827 0.91708 0.78856
 C1030 C 0.21685 0.88903 0.80183
 O1031 O 0.22478 0.89308 0.83575
 H1032 H 0.18141 0.96492 0.81589
 H1033 H 0.18777 0.92013 0.76212
 C1034 C 0.71531 0.35795 0.42955
 C1035 C 0.69834 0.32974 0.44464
 C1036 C 0.70474 0.30217 0.42237
 C1037 C 0.72508 0.31564 0.39541
 O1038 O 0.73161 0.34934 0.39980
 H1039 H 0.68262 0.32939 0.46856
 H1040 H 0.69453 0.27585 0.42467
 C1041 C 0.16253 0.22625 0.07912
 C1042 C 0.19114 0.21352 0.06017
 C1043 C 0.21922 0.21625 0.08259
 C1044 C 0.20562 0.22992 0.11359
 O1045 O 0.17151 0.23618 0.11146
 H1046 H 0.19171 0.20323 0.03345
 H1047 H 0.24586 0.20725 0.07771
 C1048 C 0.58370 0.81655 0.60963
 C1049 C 0.57306 0.84106 0.63454
 C1050 C 0.59840 0.84066 0.66010
 C1051 C 0.62286 0.81640 0.64865
 O1052 O 0.61400 0.80158 0.61820
 H1053 H 0.54888 0.85613 0.63498
 H1054 H 0.59880 0.85578 0.68442
 C1055 C 0.11365 0.78580 0.90071
 C1056 C 0.13852 0.81114 0.90870
 C1057 C 0.16426 0.80724 0.88412
 C1058 C 0.15338 0.78023 0.86254
 O1059 O 0.12274 0.76702 0.87241
 H1060 H 0.13891 0.82973 0.93038
 H1061 H 0.18792 0.82279 0.88172
 C1062 C 0.57498 0.26107 0.36396
 C1063 C 0.56039 0.28049 0.33692
 C1064 C 0.58396 0.27826 0.30965
 C1065 C 0.61121 0.25793 0.32232
 O1066 O 0.60572 0.24737 0.35514
 H1067 H 0.53614 0.29546 0.33751
 H1068 H 0.58247 0.29155 0.28443
 C1069 C 0.90183 0.70237 0.12068
 C1070 C 0.91767 0.68377 0.14787
 C1071 C 0.89544 0.68682 0.17621
 C1072 C 0.86746 0.70638 0.16419
 O1073 O 0.87125 0.71588 0.13077
 H1074 H 0.94292 0.67060 0.14790
 H1075 H 0.89916 0.67612 0.20243
 C1076 C 0.43715 0.25232 0.65955
 C1077 C 0.45570 0.25673 0.69069
 C1078 C 0.43069 0.25934 0.71670
 C1079 C 0.39893 0.25585 0.69944
 O1080 O 0.40278 0.25175 0.66490
 H1081 H 0.48393 0.25860 0.69394
 H1082 H 0.43504 0.26304 0.74479
 C1083 C 0.90879 0.28631 0.90719
 C1084 C 0.91900 0.31239 0.88390
 C1085 C 0.89816 0.30851 0.85497
 C1086 C 0.87639 0.28095 0.86271
 O1087 O 0.88252 0.26735 0.89429
 H1088 H 0.94003 0.33121 0.88664
 H1089 H 0.89800 0.32459 0.83143
 C1090 C 0.39996 0.69589 0.36631
 C1091 C 0.41241 0.67251 0.34104
 C1092 C 0.38713 0.67117 0.31556
 C1093 C 0.36091 0.69342 0.32716
 O1094 O 0.36851 0.70850 0.35785
 H1095 H 0.43768 0.65938 0.34003
 H1096 H 0.38806 0.65648 0.29098
 C1097 C 0.13178 0.07973 0.19817
 C1098 C 0.15813 0.06223 0.17982
 C1099 C 0.18716 0.08273 0.18260
 C1100 C 0.17674 0.11149 0.20213
 O1101 O 0.14315 0.10986 0.21173
 H1102 H 0.15710 0.03683 0.16711
 H1103 H 0.21316 0.07707 0.17219
 C1104 C 0.58327 0.65439 0.76532
 C1105 C 0.56709 0.68392 0.77906
 C1106 C 0.58903 0.71081 0.77141
 C1107 C 0.61703 0.69578 0.75363
 O1108 O 0.61360 0.66152 0.74965
 H1109 H 0.54204 0.68575 0.79265
 H1110 H 0.58540 0.73808 0.77855
 C1111 C 0.88000 0.10878 0.80616
 C1112 C 0.85256 0.09936 0.82844
 C1113 C 0.82586 0.12183 0.82111
 C1114 C 0.83870 0.14378 0.79536
 O1115 O 0.87153 0.13611 0.78616
 H1116 H 0.85121 0.07803 0.84710
 H1117 H 0.80028 0.12277 0.83381
 C1118 C 0.35825 0.57251 0.20560
 C1119 C 0.33376 0.55893 0.18236
 C1120 C 0.30649 0.58244 0.18243
 C1121 C 0.31683 0.60874 0.20521
 O1122 O 0.34803 0.60270 0.21943
 H1123 H 0.33516 0.53432 0.16807
 H1124 H 0.28225 0.58083 0.16752
 C1125 C 0.06815 0.87584 0.72361
 C1126 C 0.04765 0.84938 0.70922
 C1127 C 0.06771 0.81957 0.71144
 C1128 C 0.09891 0.83025 0.72642
 O1129 O 0.09917 0.86401 0.73381
 H1130 H 0.02125 0.85124 0.69871
 H1131 H 0.06110 0.79370 0.70176
 C1132 C 0.63760 0.41957 0.27723
 C1133 C 0.66691 0.43486 0.29242
 C1134 C 0.69305 0.41063 0.28963
 C1135 C 0.67809 0.38226 0.27282
 O1136 O 0.64444 0.38758 0.26507
 H1137 H 0.66921 0.46069 0.30405
 H1138 H 0.71975 0.41311 0.29929
 C1139 C 0.90964 0.86919 0.28190
 C1140 C 0.91778 0.84443 0.30740
 C1141 C 0.89483 0.81765 0.30225
 C1142 C 0.87383 0.82791 0.27449
 O1143 O 0.88273 0.85905 0.26191
 H1144 H 0.93858 0.84492 0.32692
 H1145 H 0.89298 0.79384 0.31756
 C1146 C 0.37134 0.42335 0.74061
 C1147 C 0.34349 0.43714 0.72179
 C1148 C 0.31696 0.41362 0.72552
 C1149 C 0.33069 0.38721 0.74621
 O1150 O 0.36364 0.39310 0.75558
 H1151 H 0.34269 0.46134 0.70700
 H1152 H 0.29111 0.41495 0.71359
 C1153 C 0.08724 0.22673 0.87281
 C1154 C 0.07578 0.20689 0.84423
 C1155 C 0.09976 0.21212 0.81815
 C1156 C 0.12434 0.23451 0.83242
 O1157 O 0.11685 0.24361 0.86548
 H1158 H 0.05266 0.19060 0.84199
 H1159 H 0.09996 0.20004 0.79214
 C1160 C 0.58607 0.80589 0.36560
 C1161 C 0.57305 0.82523 0.33760
 C1162 C 0.59678 0.82088 0.31085
 C1163 C 0.62260 0.79952 0.32457
 O1164 O 0.61625 0.79034 0.35764
 H1165 H 0.54831 0.83923 0.33600
 H1166 H 0.59515 0.83139 0.28432
 C1167 C 0.90661 0.75081 0.85409
 C1168 C 0.92507 0.76387 0.82547
 C1169 C 0.90331 0.76020 0.79724
 C1170 C 0.87268 0.74615 0.81053
 O1171 O 0.87466 0.73995 0.84503
 H1172 H 0.95143 0.77454 0.82502
 H1173 H 0.90833 0.76885 0.77051
 C1174 C 0.38336 0.19725 0.42510
 C1175 C 0.35588 0.17733 0.43786
 C1176 C 0.33148 0.17699 0.41149
 C1177 C 0.34606 0.19637 0.38453
 O1178 O 0.37745 0.20883 0.39267
 H1179 H 0.35336 0.16549 0.46372
 H1180 H 0.30611 0.16419 0.41181
 C1181 C 0.07665 0.78302 0.12727
 C1182 C 0.06421 0.80322 0.15516
 C1183 C 0.09052 0.80328 0.17958
 C1184 C 0.11723 0.78349 0.16483
 O1185 O 0.10899 0.77119 0.13314
 H1186 H 0.03870 0.81552 0.15820
 H1187 H 0.08996 0.81548 0.20553
 C1188 C 0.60813 0.30062 0.62823
 C1189 C 0.59407 0.32253 0.65391
 C1190 C 0.61596 0.31989 0.68207
 C1191 C 0.64195 0.29667 0.67181
 O1192 O 0.63742 0.28487 0.63910
 H1193 H 0.57006 0.33777 0.65307
 H1194 H 0.61316 0.33315 0.70735
 C1195 C 0.93020 0.22702 0.15938
 C1196 C 0.94287 0.21036 0.18916
 C1197 C 0.91710 0.21372 0.21396
 C1198 C 0.89047 0.23217 0.19764
 O1199 O 0.89836 0.24048 0.16448
 H1200 H 0.96789 0.19712 0.19237
 H1201 H 0.91727 0.20312 0.24050
 C1202 C 0.35420 0.72433 0.57002
 C1203 C 0.33106 0.69962 0.55699
 C1204 C 0.30248 0.70122 0.57894
 C1205 C 0.31054 0.72661 0.60371
 O1206 O 0.34177 0.74062 0.59835
 H1207 H 0.33445 0.68273 0.53413
 H1208 H 0.27906 0.68521 0.57763
 C1209 C 0.23236 0.14524 0.93478
 C1210 C 0.21489 0.17251 0.95165
 C1211 C 0.21844 0.20071 0.92968
 C1212 C 0.23781 0.18844 0.90129
 O1213 O 0.24619 0.15511 0.90441
 H1214 H 0.20031 0.17186 0.97623
 H1215 H 0.20714 0.22655 0.93324
 C1216 C 0.68325 0.62620 0.39903
 C1217 C 0.66707 0.65511 0.41421
 C1218 C 0.67269 0.68198 0.39132
 C1219 C 0.69160 0.66768 0.36359
 O1220 O 0.69818 0.63386 0.36816
 H1221 H 0.65405 0.65696 0.43965
 H1222 H 0.66446 0.70896 0.39467
 C1223 C 0.80364 0.13376 0.09809
 C1224 C 0.82856 0.15927 0.09104
 C1225 C 0.81945 0.18719 0.11163
 C1226 C 0.78992 0.17682 0.12995
 O1227 O 0.78026 0.14454 0.12189
 H1228 H 0.85051 0.15834 0.07280
 H1229 H 0.83351 0.21170 0.11407
 C1230 C 0.25520 0.57794 0.62662
 C1231 C 0.27240 0.56538 0.65614
 C1232 C 0.26826 0.59060 0.68138
 C1233 C 0.24891 0.61681 0.66548
 O1234 O 0.24084 0.60919 0.63222
 H1235 H 0.28620 0.54072 0.65901
 H1236 H 0.27887 0.59034 0.70797
 C1237 C 0.80711 0.89569 0.88386
 C1238 C 0.83695 0.87500 0.88555
 C1239 C 0.83186 0.84897 0.86134
 C1240 C 0.79957 0.85607 0.84647
 O1241 O 0.78431 0.88427 0.86007
 H1242 H 0.85924 0.87800 0.90312
 H1243 H 0.84964 0.82763 0.85492
 C1244 C 0.22598 0.34852 0.40264
 C1245 C 0.20878 0.32059 0.41802
 C1246 C 0.21573 0.29257 0.39682
 C1247 C 0.23652 0.30527 0.36987
 O1248 O 0.24300 0.33922 0.37333
 H1249 H 0.19375 0.32036 0.44240
 H1250 H 0.20654 0.26602 0.40042
 C1251 C 0.23469 0.89557 0.11519
 C1252 C 0.22795 0.91610 0.14459
 C1253 C 0.23192 0.89441 0.17283
 C1254 C 0.24047 0.86224 0.15843
 O1255 O 0.24237 0.86284 0.12341
 H1256 H 0.22152 0.94373 0.14525
 H1257 H 0.22808 0.90094 0.20051
 C1258 C 0.76724 0.38944 0.59885
 C1259 C 0.78828 0.36346 0.58451
 C1260 C 0.79085 0.33860 0.61006
 C1261 C 0.77172 0.35145 0.63834
 O1262 O 0.75709 0.38224 0.63166
 H1263 H 0.79939 0.36223 0.55811
 H1264 H 0.80485 0.31391 0.60832
 C1265 C 0.13972 0.09383 0.79673
 C1266 C 0.16235 0.08311 0.82319
 C1267 C 0.19123 0.10403 0.82009
 C1268 C 0.18390 0.12592 0.79209
 O1269 O 0.15278 0.11974 0.77786
 H1270 H 0.15836 0.06243 0.84227
 H1271 H 0.21423 0.10419 0.83698
 C1272 C 0.57158 0.63986 0.24319
 C1273 C 0.55352 0.67125 0.24496
 C1274 C 0.57868 0.69653 0.24341
 C1275 C 0.61033 0.67882 0.24112
 O1276 O 0.60614 0.64438 0.24087
 H1277 H 0.52537 0.67523 0.24697
 H1278 H 0.57452 0.72457 0.24452
 C1279 C 0.13359 0.90798 0.27901
 C1280 C 0.16287 0.92126 0.29627
 C1281 C 0.18678 0.89464 0.29661
 C1282 C 0.17042 0.86693 0.28005
 O1283 O 0.13830 0.87485 0.26930
 H1284 H 0.16715 0.94737 0.30652
 H1285 H 0.21324 0.89546 0.30720
 C1286 C 0.63941 0.43712 0.76649
 C1287 C 0.66927 0.45706 0.77116
 C1288 C 0.69665 0.43409 0.76800
 C1289 C 0.68127 0.40193 0.76204
 O1290 O 0.64659 0.40369 0.76095
 H1291 H 0.67083 0.48497 0.77597
 H1292 H 0.72440 0.43985 0.77073
 C1293 C 0.86532 0.08012 0.23018
 C1294 C 0.83812 0.06753 0.20964
 C1295 C 0.81118 0.09063 0.21441
 C1296 C 0.82392 0.11579 0.23737
 O1297 O 0.85681 0.10945 0.24711
 H1298 H 0.83808 0.04441 0.19294
 H1299 H 0.78569 0.08993 0.20165
 C1300 C 0.39718 0.63465 0.71537
 C1301 C 0.40959 0.66004 0.69266
 C1302 C 0.38591 0.68656 0.69469
 C1303 C 0.36069 0.67548 0.71841
 O1304 O 0.36741 0.64397 0.73118
 H1305 H 0.43357 0.65975 0.67714
 H1306 H 0.38664 0.71095 0.68021
 C1307 C 0.91572 0.88301 0.74535
 C1308 C 0.93515 0.85378 0.73612
 C1309 C 0.91101 0.82969 0.72549
 C1310 C 0.87877 0.84605 0.72944
 O1311 O 0.88157 0.87849 0.74117
 H1312 H 0.96346 0.85059 0.73683
 H1313 H 0.91618 0.80311 0.71681
 C1314 C 0.41231 0.36292 0.30061
 C1315 C 0.42427 0.34128 0.32729
 C1316 C 0.40183 0.31351 0.32750
 C1317 C 0.37747 0.32037 0.30139
 O1318 O 0.38379 0.35021 0.28491
 H1319 H 0.44747 0.34436 0.34356
 H1320 H 0.40357 0.29046 0.34400
   
