data_POSCAR
  _audit_creation_date              2014-09-24
  _audit_creation_method            'ToBaCCo'
  _symmetry_space_group_name_H-M    'P1'
  _symmetry_Int_Tables_number       1
  _symmetry_cell_setting            triclinic
  loop_
  _symmetry_equiv_pos_as_xyz
 x,y,z
_cell_length_a 55.6355
_cell_length_b 55.9623
_cell_length_c 55.9370
_cell_angle_alpha 90.892800
_cell_angle_beta 91.035500
_cell_angle_gamma 90.559700
loop_
  _atom_site_label
  _atom_site_type_symbol
  _atom_site_fract_x
  _atom_site_fract_y
  _atom_site_fract_z
C1 C 0.32950 0.45149 0.91046
 C2 C 0.31194 0.45284 0.89228
 C3 C 0.29210 0.43709 0.89166
 C4 C 0.28968 0.42018 0.90979
 C5 C 0.30709 0.41865 0.92809
 C6 C 0.32705 0.43436 0.92849
 C7 C 0.34974 0.46663 0.91052
 C8 C 0.36763 0.46503 0.92858
 C9 C 0.36469 0.44816 0.94678
 C10 C 0.34477 0.43266 0.94667
 C11 C 0.34267 0.41503 0.96408
 C12 C 0.32312 0.39888 0.96342
 C13 C 0.30520 0.40115 0.94559
 H14 H 0.31405 0.46581 0.87825
 H15 H 0.27442 0.40803 0.90966
 H16 H 0.35135 0.47951 0.89641
 H17 H 0.37827 0.44653 0.96080
 H18 H 0.35656 0.41371 0.97778
 H19 H 0.29004 0.38882 0.94491
 C20 C 0.43301 0.83602 0.41913
 C21 C 0.43571 0.85233 0.43818
 C22 C 0.42136 0.85068 0.45858
 C23 C 0.40447 0.83175 0.45985
 C24 C 0.40212 0.81475 0.44111
 C25 C 0.41631 0.81704 0.42062
 C26 C 0.44675 0.83856 0.39854
 C27 C 0.44408 0.82225 0.37933
 C28 C 0.42770 0.80308 0.38109
 C29 C 0.41383 0.80036 0.40157
 C30 C 0.39748 0.78127 0.40320
 C31 C 0.38331 0.77865 0.42359
 C32 C 0.38575 0.79556 0.44245
 H33 H 0.44870 0.86680 0.43671
 H34 H 0.39340 0.82986 0.47544
 H35 H 0.45955 0.85319 0.39767
 H36 H 0.42563 0.79029 0.36642
 H37 H 0.39586 0.76858 0.38846
 H38 H 0.37483 0.79384 0.45818
 C39 C 0.94923 0.90960 0.82759
 C40 C 0.95029 0.89049 0.81109
 C41 C 0.93257 0.88739 0.79292
 C42 C 0.91387 0.90419 0.79133
 C43 C 0.91280 0.92356 0.80749
 C44 C 0.93050 0.92627 0.82571
 C45 C 0.96645 0.91205 0.84615
 C46 C 0.96538 0.93112 0.86292
 C47 C 0.94687 0.94798 0.86042
 C48 C 0.92935 0.94555 0.84216
 C49 C 0.91045 0.96191 0.84037
 C50 C 0.89259 0.95921 0.82235
 C51 C 0.89407 0.94009 0.80588
 H52 H 0.96475 0.87773 0.81276
 H53 H 0.90006 0.90250 0.77753
 H54 H 0.98058 0.89895 0.84733
 H55 H 0.94564 0.96278 0.87308
 H56 H 0.90974 0.97666 0.85308
 H57 H 0.88035 0.93780 0.79199
 C58 C 0.45305 -0.08919 0.31541
 C59 C 0.46012 -0.10062 0.29426
 C60 C 0.44493 -0.10123 0.27388
 C61 C 0.42238 -0.09002 0.27482
 C62 C 0.41489 -0.07866 0.29596
 C63 C 0.43035 -0.07820 0.31628
 C64 C 0.46819 -0.08886 0.33581
 C65 C 0.46101 -0.07735 0.35700
 C66 C 0.43846 -0.06633 0.35764
 C67 C 0.42301 -0.06694 0.33758
 C68 C 0.40024 -0.05660 0.33865
 C69 C 0.38441 -0.05737 0.31873
 C70 C 0.39203 -0.06821 0.29732
 H71 H 0.47740 -0.10940 0.29377
 H72 H 0.41025 -0.09079 0.25947
 H73 H 0.48560 -0.09731 0.33507
 H74 H 0.43272 -0.05760 0.37398
 H75 H 0.39507 -0.04786 0.35513
 H76 H 0.38005 -0.06876 0.28181
 C77 C 0.82045 0.30150 0.31735
 C78 C 0.81257 0.28652 0.33561
 C79 C 0.79202 0.29238 0.34876
 C80 C 0.77982 0.31353 0.34427
 C81 C 0.78680 0.32805 0.32551
 C82 C 0.80720 0.32220 0.31204
 C83 C 0.84031 0.29544 0.30330
 C84 C 0.84652 0.30953 0.28370
 C85 C 0.83336 0.33025 0.27881
 C86 C 0.81362 0.33648 0.29259
 C87 C 0.79931 0.35595 0.28630
 C88 C 0.77828 0.36073 0.29881
 C89 C 0.77257 0.34732 0.31888
 H90 H 0.82185 0.26996 0.33909
 H91 H 0.76372 0.31764 0.35413
 H92 H 0.85025 0.27929 0.30694
 H93 H 0.83815 0.34136 0.26390
 H94 H 0.80373 0.36650 0.27085
 H95 H 0.75660 0.35141 0.32893
 C96 C -0.19515 0.83785 0.82357
 C97 C -0.19694 0.85662 0.80735
 C98 C -0.17989 0.85953 0.78929
 C99 C -0.16130 0.84262 0.78725
 C100 C -0.15951 0.82356 0.80320
 C101 C -0.17640 0.82126 0.82152
 C102 C -0.21144 0.83591 0.84228
 C103 C -0.20907 0.81773 0.85926
 C104 C -0.19069 0.80091 0.85673
 C105 C -0.17431 0.80259 0.83806
 C106 C -0.15547 0.78629 0.83611
 C107 C -0.13841 0.78852 0.81801
 C108 C -0.14071 0.80710 0.80149
 H109 H -0.21134 0.86939 0.80931
 H110 H -0.14801 0.84415 0.77348
 H111 H -0.22561 0.84892 0.84372
 H112 H -0.18870 0.78682 0.86969
 H113 H -0.15412 0.77203 0.84890
 H114 H -0.12755 0.80907 0.78758
 C115 C 0.90286 0.31517 0.44638
 C116 C 0.90432 0.33338 0.46404
 C117 C 0.91966 0.35339 0.46116
 C118 C 0.93309 0.35503 0.44016
 C119 C 0.93110 0.33756 0.42213
 C120 C 0.91621 0.31740 0.42532
 C121 C 0.88824 0.29479 0.44928
 C122 C 0.88692 0.27663 0.43148
 C123 C 0.90023 0.27925 0.41058
 C124 C 0.91463 0.29952 0.40734
 C125 C 0.92737 0.30224 0.38620
 C126 C 0.94183 0.32253 0.38272
 C127 C 0.94378 0.34007 0.40088
 H128 H 0.89393 0.33156 0.48010
 H129 H 0.94478 0.37034 0.43743
 H130 H 0.87782 0.29311 0.46537
 H131 H 0.89918 0.26580 0.39650
 H132 H 0.92592 0.28848 0.37237
 H133 H 0.95511 0.35568 0.39866
 C134 C 0.42820 0.44341 0.83933
 C135 C 0.44567 0.44529 0.85772
 C136 C 0.46387 0.42814 0.85990
 C137 C 0.46474 0.40923 0.84307
 C138 C 0.44746 0.40717 0.82455
 C139 C 0.42908 0.42426 0.82270
 C140 C 0.40963 0.46014 0.83760
 C141 C 0.39182 0.45793 0.81944
 C142 C 0.39305 0.43893 0.80278
 C143 C 0.41143 0.42203 0.80435
 C144 C 0.41217 0.40269 0.78811
 C145 C 0.43034 0.38545 0.78999
 C146 C 0.44804 0.38801 0.80812
 H147 H 0.44477 0.45987 0.87066
 H148 H 0.47875 0.39601 0.84431
 H149 H 0.40910 0.47475 0.85048
 H150 H 0.37937 0.43700 0.78880
 H151 H 0.39852 0.40113 0.77412
 H152 H 0.46205 0.37477 0.80979
 C153 C 0.84516 0.93105 0.94821
 C154 C 0.84337 0.91273 0.96498
 C155 C 0.82405 0.89618 0.96383
 C156 C 0.80618 0.89878 0.94591
 C157 C 0.80789 0.91685 0.92896
 C158 C 0.82750 0.93298 0.93001
 C159 C 0.86466 0.94714 0.94908
 C160 C 0.86718 0.96488 0.93164
 C161 C 0.84938 0.96657 0.91349
 C162 C 0.82961 0.95084 0.91266
 C163 C 0.81215 0.95240 0.89439
 C164 C 0.79270 0.93621 0.89304
 C165 C 0.79055 0.91863 0.91059
 H166 H 0.85728 0.91143 0.97865
 H167 H 0.79113 0.88632 0.94468
 H168 H 0.87821 0.94541 0.96312
 H169 H 0.85063 0.98006 0.89992
 H170 H 0.81404 0.96594 0.88087
 H171 H 0.77558 0.90613 0.90994
 C172 C 0.31483 0.83962 0.29428
 C173 C 0.29958 0.85887 0.28975
 C174 C 0.27880 0.86227 0.30330
 C175 C 0.27448 0.84722 0.32270
 C176 C 0.28995 0.82843 0.32784
 C177 C 0.31002 0.82428 0.31336
 C178 C 0.33405 0.83475 0.27923
 C179 C 0.34833 0.81446 0.28270
 C180 C 0.34401 0.79967 0.30225
 C181 C 0.32473 0.80432 0.31746
 C182 C 0.31896 0.78858 0.33579
 C183 C 0.29864 0.79256 0.34989
 C184 C 0.28474 0.81288 0.34638
 H185 H 0.30322 0.87038 0.27479
 H186 H 0.25909 0.84990 0.33395
 H187 H 0.33754 0.84655 0.26449
 H188 H 0.35495 0.78398 0.30497
 H189 H 0.32979 0.77283 0.33856
 H190 H 0.26888 0.81567 0.35703
 C191 C 0.82956 0.41812 0.44006
 C192 C 0.82911 0.39642 0.45209
 C193 C 0.81075 0.37936 0.44759
 C194 C 0.79190 0.38499 0.43141
 C195 C 0.79192 0.40701 0.41929
 C196 C 0.81111 0.42338 0.42347
 C197 C 0.84859 0.43443 0.44410
 C198 C 0.85006 0.45569 0.43108
 C199 C 0.83146 0.46085 0.41459
 C200 C 0.81199 0.44502 0.41095
 C201 C 0.79356 0.45053 0.39471
 C202 C 0.77414 0.43477 0.39043
 C203 C 0.77344 0.41288 0.40278
 H204 H 0.84335 0.39292 0.46495
 H205 H 0.77753 0.37212 0.42796
 H206 H 0.86273 0.43005 0.45685
 H207 H 0.83175 0.47727 0.40464
 H208 H 0.79443 0.46728 0.38528
 H209 H 0.75881 0.40031 0.39946
 C210 C 0.95201 0.84044 -0.07208
 C211 C 0.95408 0.86016 -0.05631
 C212 C 0.93802 0.86300 -0.03739
 C213 C 0.92020 0.84550 -0.03394
 C214 C 0.91796 0.82573 -0.04951
 C215 C 0.93385 0.82317 -0.06872
 C216 C 0.96746 0.83813 -0.09148
 C217 C 0.96507 0.81875 -0.10788
 C218 C 0.94702 0.80138 -0.10407
 C219 C 0.93132 0.80356 -0.08474
 C220 C 0.91271 0.78679 -0.08151
 C221 C 0.89653 0.78951 -0.06254
 C222 C 0.89960 0.80886 -0.04648
 H223 H 0.96783 0.87364 -0.05914
 H224 H 0.90787 0.84724 -0.01928
 H225 H 0.98115 0.85171 -0.09362
 H226 H 0.94478 0.78638 -0.11644
 H227 H 0.91071 0.77196 -0.09405
 H228 H 0.88724 0.81120 -0.03187
 C229 C 0.33621 0.31962 0.80135
 C230 C 0.33470 0.33913 0.78595
 C231 C 0.31650 0.35628 0.78860
 C232 C 0.29942 0.35327 0.80653
 C233 C 0.30073 0.33387 0.82208
 C234 C 0.31921 0.31702 0.81955
 C235 C 0.35487 0.30303 0.79929
 C236 C 0.35697 0.28405 0.81537
 C237 C 0.33970 0.28143 0.83324
 C238 C 0.32098 0.29784 0.83552
 C239 C 0.30442 0.29575 0.85401
 C240 C 0.28616 0.31266 0.85692
 C241 C 0.28428 0.33153 0.84062
 H242 H 0.34793 0.34097 0.77213
 H243 H 0.28540 0.36639 0.80880
 H244 H 0.36816 0.30530 0.78554
 H245 H 0.34084 0.26681 0.84563
 H246 H 0.30610 0.28121 0.86649
 H247 H 0.27050 0.34487 0.84256
 C248 C 0.17613 0.53952 0.58632
 C249 C 0.15618 0.52392 0.58635
 C250 C 0.13778 0.52574 0.56886
 C251 C 0.13974 0.54315 0.55112
 C252 C 0.15940 0.55895 0.55099
 C253 C 0.17773 0.55705 0.56856
 C254 C 0.19409 0.53853 0.60424
 C255 C 0.21346 0.55496 0.60470
 C256 C 0.21522 0.57179 0.58652
 C257 C 0.19738 0.57312 0.56872
 C258 C 0.19843 0.59108 0.55173
 C259 C 0.17985 0.59370 0.53476
 C260 C 0.16056 0.57723 0.53414
 H261 H 0.15498 0.51061 0.60013
 H262 H 0.12556 0.54489 0.53772
 H263 H 0.19255 0.52548 0.61826
 H264 H 0.23013 0.58435 0.58643
 H265 H 0.21340 0.60366 0.55234
 H266 H 0.14612 0.57887 0.52107
 C267 C 0.57836 0.70127 0.08607
 C268 C 0.59464 0.72025 0.08375
 C269 C 0.61076 0.72059 0.06475
 C270 C 0.60992 0.70190 0.04757
 C271 C 0.59354 0.68282 0.04958
 C272 C 0.57773 0.68249 0.06900
 C273 C 0.56306 0.70059 0.10558
 C274 C 0.54712 0.68132 0.10852
 C275 C 0.54627 0.66274 0.09131
 C276 C 0.56148 0.66326 0.07157
 C277 C 0.56096 0.64464 0.05458
 C278 C 0.57675 0.64464 0.03525
 C279 C 0.59303 0.66384 0.03282
 H280 H 0.59493 0.73445 0.09710
 H281 H 0.62237 0.70190 0.03288
 H282 H 0.56383 0.71504 0.11872
 H283 H 0.53397 0.64781 0.09319
 H284 H 0.54852 0.62983 0.05673
 H285 H 0.60525 0.66409 0.01797
 C286 C 0.70096 0.16546 0.67959
 C287 C 0.71745 0.16871 0.66110
 C288 C 0.71496 0.18791 0.64514
 C289 C 0.69622 0.20407 0.64824
 C290 C 0.67970 0.20107 0.66649
 C291 C 0.68191 0.18167 0.68216
 C292 C 0.70280 0.14592 0.69508
 C293 C 0.68561 0.14208 0.71295
 C294 C 0.66674 0.15868 0.71529
 C295 C 0.66477 0.17829 0.70005
 C296 C 0.64552 0.19427 0.70200
 C297 C 0.64311 0.21342 0.68613
 C298 C 0.66057 0.21688 0.66872
 H299 H 0.73165 0.15586 0.65881
 H300 H 0.69417 0.21884 0.63607
 H301 H 0.71739 0.13342 0.69283
 H302 H 0.65327 0.15654 0.72880
 H303 H 0.63206 0.19141 0.71547
 H304 H 0.65923 0.23167 0.65657
 C305 C 1.07235 0.06942 0.16630
 C306 C 1.09616 0.06163 0.16625
 C307 C 1.11160 0.06616 0.18601
 C308 C 1.10252 0.07738 0.20653
 C309 C 1.07862 0.08528 0.20685
 C310 C 1.06364 0.08175 0.18642
 C311 C 1.05736 0.06558 0.14620
 C312 C 1.03407 0.07515 0.14520
 C313 C 1.02565 0.08800 0.16523
 C314 C 1.04014 0.09095 0.18593
 C315 C 1.03171 0.10346 0.20595
 C316 C 1.04635 0.10676 0.22650
 C317 C 1.06975 0.09745 0.22688
 H318 H 1.10264 0.05221 0.15062
 H319 H 1.11425 0.08061 0.22196
 H320 H 1.06432 0.05592 0.13090
 H321 H 1.00773 0.09536 0.16508
 H322 H 1.01382 0.11099 0.20541
 H323 H 1.08151 0.10061 0.24227
 C324 C 0.06476 0.16154 1.07825
 C325 C 0.06290 0.14399 1.06024
 C326 C 0.07831 0.14419 1.04053
 C327 C 0.09543 0.16285 1.03886
 C328 C 0.09707 0.18092 1.05656
 C329 C 0.08178 0.18017 1.07637
 C330 C 0.04993 0.16059 1.09823
 C331 C 0.05188 0.17817 1.11639
 C332 C 0.06860 0.19692 1.11419
 C333 C 0.08353 0.19803 1.09437
 C334 C 0.10026 0.21669 1.09240
 C335 C 0.11556 0.21767 1.07274
 C336 C 0.11386 0.19968 1.05489
 H337 H 0.04968 0.12977 1.06198
 H338 H 0.10730 0.16365 1.02378
 H339 H 0.03689 0.14620 1.09948
 H340 H 0.07016 0.21065 1.12804
 H341 H 0.10125 0.23033 1.10630
 H342 H 0.12573 0.20016 1.03974
 C343 C 0.16797 0.68155 0.69967
 C344 C 0.14920 0.69794 0.70240
 C345 C 0.14681 0.71739 0.68693
 C346 C 0.16395 0.72077 0.66913
 C347 C 0.18269 0.70456 0.66615
 C348 C 0.18475 0.68481 0.68140
 C349 C 0.16974 0.66159 0.71444
 C350 C 0.18786 0.64446 0.71106
 C351 C 0.20475 0.64808 0.69297
 C352 C 0.20326 0.66810 0.67806
 C353 C 0.21950 0.67134 0.65936
 C354 C 0.21729 0.69095 0.64390
 C355 C 0.19895 0.70748 0.64760
 H356 H 0.13602 0.69513 0.71615
 H357 H 0.16264 0.73577 0.65723
 H358 H 0.15672 0.65942 0.72839
 H359 H 0.21872 0.63503 0.69012
 H360 H 0.23329 0.65814 0.65651
 H361 H 0.19708 0.72253 0.63574
 C362 C 1.21453 0.19029 0.18493
 C363 C 1.23219 0.17596 0.19531
 C364 C 1.22715 0.16255 0.21574
 C365 C 1.20498 0.16563 0.22699
 C366 C 1.18798 0.18164 0.21786
 C367 C 1.19229 0.19324 0.19620
 C368 C 1.21820 0.20020 0.16252
 C369 C 1.19942 0.21162 0.15053
 C370 C 1.17753 0.21565 0.16215
 C371 C 1.17408 0.20707 0.18539
 C372 C 1.15269 0.21141 0.19781
 C373 C 1.14934 0.20170 0.22062
 C374 C 1.16660 0.18589 0.22984
 H375 H 1.24887 0.17350 0.18595
 H376 H 1.20104 0.15574 0.24300
 H377 H 1.23495 0.19703 0.15340
 H378 H 1.16313 0.22481 0.15288
 H379 H 1.13903 0.22276 0.19008
 H380 H 1.16360 0.17696 0.24657
 C381 C 0.65924 1.06070 0.55304
 C382 C 0.63970 1.04471 0.55284
 C383 C 0.63780 1.02705 0.57033
 C384 C 0.65604 1.02528 0.58801
 C385 C 0.67585 1.04107 0.58832
 C386 C 0.67746 1.05875 0.57071
 C387 C 0.66045 1.07912 0.53633
 C388 C 0.67973 1.09571 0.53711
 C389 C 0.69824 1.09289 0.55420
 C390 C 0.69707 1.07485 0.57108
 C391 C 0.71483 1.07345 0.58893
 C392 C 0.71303 1.05654 0.60702
 C393 C 0.69372 1.04004 0.60636
 H394 H 0.62561 1.04642 0.53934
 H395 H 0.65488 1.01178 0.60160
 H396 H 0.64605 1.08062 0.52320
 H397 H 0.71332 1.10533 0.55504
 H398 H 0.72974 1.08601 0.58893
 H399 H 0.69218 1.02688 0.62029
 C400 C 0.53827 0.59132 0.18211
 C401 C 0.52437 0.58766 0.16119
 C402 C 0.53374 0.57501 0.14164
 C403 C 0.55714 0.56596 0.14317
 C404 C 0.57141 0.57001 0.16375
 C405 C 0.56191 0.58248 0.18343
 C406 C 0.52924 0.60445 0.20139
 C407 C 0.54342 0.60873 0.22204
 C408 C 0.56680 0.59947 0.22350
 C409 C 0.57627 0.58665 0.20418
 C410 C 0.60020 0.57888 0.20481
 C411 C 0.61000 0.56733 0.18483
 C412 C 0.59529 0.56245 0.16459
 H413 H 0.50629 0.59464 0.16016
 H414 H 0.56455 0.55649 0.12798
 H415 H 0.51134 0.61188 0.20012
 H416 H 0.57813 0.60334 0.23906
 H417 H 0.61144 0.58254 0.22051
 H418 H 0.60239 0.55290 0.14933
 C419 C 0.67782 0.70329 0.18109
 C420 C 0.65362 0.70613 0.18800
 C421 C 0.64605 0.69803 0.21046
 C422 C 0.66286 0.68765 0.22609
 C423 C 0.68671 0.68467 0.21958
 C424 C 0.69445 0.69302 0.19733
 C425 C 0.68542 0.70855 0.15771
 C426 C 0.70931 0.70397 0.15102
 C427 C 0.72585 0.69563 0.16793
 C428 C 0.71852 0.68952 0.19073
 C429 C 0.73433 0.67746 0.20596
 C430 C 0.72604 0.66750 0.22712
 C431 C 0.70245 0.67167 0.23421
 H432 H 0.64056 0.71349 0.17561
 H433 H 0.65720 0.68125 0.24331
 H434 H 0.67255 0.71463 0.14442
 H435 H 0.74406 0.69176 0.16251
 H436 H 0.75241 0.67367 0.20013
 H437 H 0.69602 0.66370 0.25048
 C438 C 0.18877 0.05533 1.08994
 C439 C 0.16970 0.03875 1.08759
 C440 C 0.15097 0.04211 1.07069
 C441 C 0.15175 0.06239 1.05615
 C442 C 0.17029 0.07940 1.05883
 C443 C 0.18903 0.07582 1.07562
 C444 C 0.20736 0.05182 1.10671
 C445 C 0.22648 0.06840 1.10954
 C446 C 0.22659 0.08890 1.09499
 C447 C 0.20784 0.09283 1.07825
 C448 C 0.20721 0.11373 1.06446
 C449 C 0.18799 0.11778 1.04826
 C450 C 0.16995 0.10019 1.04525
 H451 H 0.16977 0.02323 1.09888
 H452 H 0.13746 0.06547 1.04314
 H453 H 0.20679 0.03603 1.11767
 H454 H 0.24082 0.10214 1.09690
 H455 H 0.22131 0.12711 1.06677
 H456 H 0.15540 0.10264 1.03244
 C457 C 0.58368 0.16858 0.54802
 C458 C 0.60174 0.18559 0.54423
 C459 C 0.60442 0.20574 0.55933
 C460 C 0.58831 0.20891 0.57835
 C461 C 0.56995 0.19199 0.58236
 C462 C 0.56768 0.17178 0.56705
 C463 C 0.58182 0.14807 0.53338
 C464 C 0.56419 0.13054 0.53752
 C465 C 0.54789 0.13413 0.55608
 C466 C 0.54964 0.15451 0.57096
 C467 C 0.53402 0.15743 0.59009
 C468 C 0.53630 0.17719 0.60590
 C469 C 0.55422 0.19457 0.60171
 H470 H 0.61408 0.18284 0.52968
 H471 H 0.59012 0.22424 0.59029
 H472 H 0.59429 0.14577 0.51890
 H473 H 0.53425 0.12068 0.55942
 H474 H 0.52032 0.14393 0.59268
 H475 H 0.55622 0.20986 0.61374
 C476 C 0.06907 0.54722 0.66539
 C477 C 0.08824 0.53115 0.66655
 C478 C 0.10666 0.53418 0.68391
 C479 C 0.10538 0.55322 0.70054
 C480 C 0.08638 0.56950 0.69953
 C481 C 0.06816 0.56652 0.68186
 C482 C 0.05117 0.54467 0.64755
 C483 C 0.03249 0.56130 0.64564
 C484 C 0.03149 0.58031 0.66238
 C485 C 0.04926 0.58307 0.68038
 C486 C 0.04879 0.60253 0.69649
 C487 C 0.06710 0.60590 0.71392
 C488 C 0.08570 0.58908 0.71549
 H489 H 0.08881 0.51647 0.65375
 H490 H 0.11955 0.55578 0.71392
 H491 H 0.05220 0.53003 0.63469
 H492 H 0.01717 0.59321 0.66131
 H493 H 0.03443 0.61541 0.69504
 H494 H 0.09987 0.59123 0.72888
 C495 C 0.67150 0.57767 0.05568
 C496 C 0.65307 0.56054 0.05331
 C497 C 0.65201 0.54105 0.06874
 C498 C 0.67020 0.53841 0.08629
 C499 C 0.68901 0.55531 0.08864
 C500 C 0.68959 0.57513 0.07339
 C501 C 0.67166 0.59758 0.04089
 C502 C 0.68948 0.61541 0.04364
 C503 C 0.70785 0.61261 0.06106
 C504 C 0.70803 0.59256 0.07603
 C505 C 0.72594 0.58986 0.09391
 C506 C 0.72551 0.57004 0.10925
 C507 C 0.70696 0.55290 0.10633
 H508 H 0.63906 0.56282 0.03983
 H509 H 0.66976 0.52334 0.09819
 H510 H 0.65767 0.59914 0.02732
 H511 H 0.72171 0.62625 0.06330
 H512 H 0.73986 0.60340 0.09604
 H513 H 0.70628 0.53769 0.11807
 C514 C 0.04751 0.66001 0.56939
 C515 C 0.03259 0.66287 0.58912
 C516 C 0.03564 0.68244 0.60511
 C517 C 0.05361 0.69962 0.60054
 C518 C 0.06865 0.69710 0.58066
 C519 C 0.06560 0.67713 0.56512
 C520 C 0.04505 0.63982 0.55427
 C521 C 0.06067 0.63629 0.53510
 C522 C 0.07832 0.65374 0.53063
 C523 C 0.08092 0.67402 0.54554
 C524 C 0.09913 0.69085 0.54150
 C525 C 0.10262 0.71069 0.55689
 C526 C 0.08711 0.71381 0.57639
 H527 H 0.01888 0.64947 0.59204
 H528 H 0.05621 0.71473 0.61271
 H529 H 0.03140 0.62646 0.55790
 H530 H 0.09029 0.65153 0.51574
 H531 H 0.11100 0.68815 0.52655
 H532 H 0.08954 0.72889 0.58855
 C533 C 0.54984 1.08052 0.67864
 C534 C 0.53281 1.07768 0.65996
 C535 C 0.53437 1.05855 0.64330
 C536 C 0.55306 1.04196 0.64610
 C537 C 0.57034 1.04474 0.66451
 C538 C 0.56874 1.06407 0.68086
 C539 C 0.54862 1.09994 0.69476
 C540 C 0.56619 1.10336 0.71293
 C541 C 0.58485 1.08667 0.71514
 C542 C 0.58629 1.06716 0.69918
 C543 C 0.60541 1.05107 0.70085
 C544 C 0.60744 1.03206 0.68428
 C545 C 0.58958 1.02882 0.66637
 H546 H 0.51858 1.09063 0.65850
 H547 H 0.55467 1.02715 0.63351
 H548 H 0.53425 1.11275 0.69280
 H549 H 0.59847 1.08885 0.72908
 H550 H 0.61910 1.05376 0.71469
 H551 H 0.59069 1.01414 0.65362
 C552 C 0.41793 0.32319 0.95163
 C553 C 0.42046 0.34317 0.96693
 C554 C 0.43855 0.36050 0.96328
 C555 C 0.45446 0.35708 0.94423
 C556 C 0.45183 0.33736 0.92854
 C557 C 0.43352 0.32033 0.93225
 C558 C 0.39959 0.30635 0.95512
 C559 C 0.39630 0.28675 0.93936
 C560 C 0.41202 0.28394 0.92005
 C561 C 0.43051 0.30066 0.91634
 C562 C 0.44559 0.29843 0.89657
 C563 C 0.46355 0.31564 0.89239
 C564 C 0.46681 0.33483 0.90879
 H565 H 0.40817 0.34501 0.98159
 H566 H 0.46848 0.37019 0.94104
 H567 H 0.38749 0.30882 0.96992
 H568 H 0.40975 0.26906 0.90762
 H569 H 0.44292 0.28358 0.88409
 H570 H 0.48071 0.34812 0.90614
 C571 C 0.91993 0.43422 0.34048
 C572 C 0.93572 0.43588 0.36022
 C573 C 0.95735 0.42307 0.36073
 C574 C 0.96333 0.40904 0.34055
 C575 C 0.94798 0.40790 0.32030
 C576 C 0.92610 0.42039 0.32032
 C577 C 0.89788 0.44596 0.34087
 C578 C 0.88153 0.44399 0.32145
 C579 C 0.88807 0.43079 0.30099
 C580 C 0.91029 0.41895 0.30029
 C581 C 0.91678 0.40533 0.28013
 C582 C 0.93870 0.39289 0.27989
 C583 C 0.95409 0.39426 0.30011
 H584 H 0.93067 0.44666 0.37558
 H585 H 0.98004 0.39932 0.34023
 H586 H 0.89358 0.45665 0.35648
 H587 H 0.87572 0.42940 0.28582
 H588 H 0.90445 0.40404 0.26498
 H589 H 0.97086 0.38456 0.30020
 C590 C 0.31316 0.94483 0.41023
 C591 C 0.29472 0.95097 0.39427
 C592 C 0.27529 0.93539 0.38946
 C593 C 0.27458 0.91302 0.40093
 C594 C 0.29311 0.90648 0.41710
 C595 C 0.31233 0.92269 0.42185
 C596 C 0.33256 0.96059 0.41449
 C597 C 0.35122 0.95484 0.43069
 C598 C 0.34988 0.93297 0.44276
 C599 C 0.33086 0.91675 0.43810
 C600 C 0.33046 0.89451 0.44919
 C601 C 0.31201 0.87766 0.44411
 C602 C 0.29309 0.88399 0.42832
 H603 H 0.29554 0.96810 0.38551
 H604 H 0.25994 0.90058 0.39711
 H605 H 0.33276 0.97741 0.40523
 H606 H 0.36408 0.92812 0.45526
 H607 H 0.34476 0.89042 0.46179
 H608 H 0.27867 0.87129 0.42443
 O609 O 0.18385 0.51047 0.73082
 O610 O 0.18041 0.49664 0.77091
 O611 O 0.23530 0.56641 0.73544
 O612 O 0.27267 0.57102 0.75148
 O613 O 0.24020 0.51305 0.68180
 O614 O 0.25511 0.47312 0.68027
 O615 O 0.30004 0.50463 0.80082
 O616 O 0.27885 0.54128 0.80440
 O617 O 0.24606 0.45089 0.79907
 O618 O 0.21079 0.44262 0.77576
 O619 O 0.30104 0.45037 0.74719
 O620 O 0.30835 0.47321 0.71086
 O621 O 0.31756 0.48614 0.76920
 O622 O 0.32163 0.50288 0.72761
 O623 O 0.26839 0.43319 0.76407
 O624 O 0.22582 0.43015 0.74516
 O625 O 0.26415 0.48362 0.81638
 O626 O 0.24620 0.52065 0.82030
 O627 O 0.20156 0.49260 0.69890
 O628 O 0.22459 0.45641 0.69444
 O629 O 0.25724 0.54646 0.69897
 O630 O 0.29366 0.55250 0.72379
 O631 O 0.20208 0.54912 0.75120
 O632 O 0.19480 0.52609 0.78836
 Zr633 Zr 0.21140 0.51315 0.75702
 O634 O 0.23172 0.49190 0.78046
 Zr635 Zr 0.26051 0.53848 0.73555
 O636 O 0.28301 0.51872 0.75852
 Zr637 Zr 0.23775 0.48882 0.70984
 O638 O 0.25965 0.46698 0.73114
 Zr639 Zr 0.26432 0.50927 0.78927
 O640 O 0.24274 0.53210 0.76799
 Zr641 Zr 0.24187 0.46002 0.76309
 O642 O 0.21871 0.47986 0.74062
 Zr643 Zr 0.29098 0.48591 0.74185
 O644 O 0.27051 0.50669 0.71781
 O645 O 0.22861 0.52123 0.72557
 O646 O 0.27395 0.47702 0.77332
 C647 C 0.18343 0.50188 0.70939
 C648 C 0.21342 0.56703 0.74241
 C649 C 0.24847 0.53449 0.68100
 C650 C 0.31781 0.49425 0.79082
 C651 C 0.25602 0.46206 0.81687
 C652 C 0.29019 0.43272 0.75680
 H653 H 0.22235 0.48885 0.79498
 H654 H 0.26333 0.45216 0.72215
 H655 H 0.21859 0.53102 0.71479
 H656 H 0.29766 0.52809 0.76279
 H657 H 0.26782 0.55428 0.79983
 H658 H 0.28369 0.56690 0.76482
 H659 H 0.23732 0.42405 0.73331
 H660 H 0.21262 0.44999 0.70561
 H661 H 0.23482 0.53308 0.81521
 H662 H 0.20267 0.54148 0.79287
 H663 H 0.29837 0.46004 0.70390
 H664 H 0.27106 0.48102 0.67935
 H665 H 0.17912 0.48061 0.76323
 H666 H 0.20225 0.45429 0.78588
 H667 H 0.29991 0.54094 0.71191
 H668 H 0.32649 0.51619 0.73855
 O669 O 0.27101 0.07306 0.23519
 O670 O 0.30758 0.05566 0.24825
 O671 O 0.24510 0.02029 0.18338
 O672 O 0.24036 -0.02011 0.18429
 O673 O 0.19551 0.04888 0.23176
 O674 O 0.18855 0.04503 0.27360
 O675 O 0.26789 -0.05727 0.26177
 O676 O 0.27988 -0.04983 0.22058
 O677 O 0.29580 -0.00455 0.30424
 O678 O 0.29335 0.03929 0.30621
 O679 O 0.22408 -0.02744 0.30602
 O680 O 0.18675 -0.01331 0.28348
 O681 O 0.22876 -0.05406 0.27250
 O682 O 0.19157 -0.03678 0.25551
 O683 O 0.25637 -0.00620 0.32042
 O684 O 0.25864 0.04076 0.31910
 O685 O 0.30345 -0.03102 0.27408
 O686 O 0.31128 -0.02719 0.23277
 O687 O 0.23278 0.07714 0.24850
 O688 O 0.21714 0.06622 0.28655
 O689 O 0.20363 0.02285 0.20128
 O690 O 0.20421 -0.02073 0.20238
 O691 O 0.27522 0.04449 0.19799
 O692 O 0.31149 0.03126 0.21979
 Zr693 Zr 0.27729 0.03628 0.23488
 O694 O 0.28686 0.01082 0.26054
 Zr695 Zr 0.23254 0.00263 0.21366
 O696 O 0.24018 -0.02476 0.23797
 Zr697 Zr 0.22264 0.04202 0.25784
 O698 O 0.22967 0.01629 0.28427
 Zr699 Zr 0.27684 -0.02351 0.24788
 O700 O 0.26984 0.00184 0.22079
 Zr701 Zr 0.26676 0.01566 0.29174
 O702 O 0.25954 0.04328 0.26725
 Zr703 Zr 0.22173 -0.01775 0.26982
 O704 O 0.21196 0.00809 0.24449
 O705 O 0.24089 0.03688 0.22627
 O706 O 0.25808 -0.01836 0.27916
 C707 C 0.25259 0.08560 0.24037
 C708 C 0.26103 0.03681 0.18102
 C709 C 0.19136 0.03963 0.21082
 C710 C 0.24836 -0.06562 0.27058
 C711 C 0.30761 -0.02188 0.29501
 C712 C 0.23991 -0.02234 0.32236
 H713 H 0.30433 0.01226 0.26384
 H714 H 0.22040 0.01966 0.29881
 H715 H 0.23654 0.04961 0.21497
 H716 H 0.23573 -0.04051 0.23084
 H717 H 0.28019 -0.04124 0.20524
 H718 H 0.24284 -0.03634 0.19056
 H719 H 0.24459 0.03471 0.32785
 H720 H 0.23322 0.06978 0.29367
 H721 H 0.32022 -0.01211 0.23602
 H722 H 0.30977 0.01797 0.20797
 H723 H 0.18807 -0.00366 0.29842
 H724 H 0.17970 0.03006 0.26947
 H725 H 0.30316 0.06197 0.26418
 H726 H 0.30802 0.03714 0.29671
 H727 H 0.19032 -0.01726 0.21264
 H728 H 0.19720 -0.04699 0.24218
 O729 O 0.49590 0.80799 0.28970
 O730 O 0.53819 0.80169 0.28172
 O731 O 0.46675 0.81611 0.21833
 O732 O 0.46970 0.79464 0.18343
 O733 O 0.43093 0.77229 0.26658
 O734 O 0.43737 0.73151 0.28006
 O735 O 0.52392 0.72815 0.18476
 O736 O 0.52346 0.77112 0.17663
 O737 O 0.55445 0.72194 0.25178
 O738 O 0.54877 0.74588 0.29121
 O739 O 0.49576 0.68666 0.23648
 O740 O 0.45047 0.69696 0.23615
 O741 O 0.49404 0.70264 0.19558
 O742 O 0.45169 0.70856 0.20174
 O743 O 0.52149 0.69713 0.26700
 O744 O 0.52242 0.72326 0.30194
 O745 O 0.55709 0.73769 0.21467
 O746 O 0.55506 0.77633 0.20349
 O747 O 0.46525 0.78273 0.29914
 O748 O 0.46302 0.74117 0.30639
 O749 O 0.43274 0.78631 0.22864
 O750 O 0.44210 0.76678 0.19086
 O751 O 0.49419 0.82628 0.24756
 O752 O 0.53714 0.81734 0.24779
 Zr753 Zr 0.50942 0.79352 0.25768
 O754 O 0.53147 0.76500 0.24684
 Zr755 Zr 0.46752 0.77847 0.21726
 O756 O 0.48729 0.74896 0.20502
 Zr757 Zr 0.46487 0.75633 0.27209
 O758 O 0.48515 0.72628 0.26259
 Zr759 Zr 0.52414 0.75567 0.21092
 O760 O 0.50452 0.78664 0.22071
 Zr761 Zr 0.52202 0.73448 0.26599
 O762 O 0.50170 0.76354 0.27870
 Zr763 Zr 0.47965 0.71893 0.22599
 O764 O 0.45734 0.74767 0.23600
 O765 O 0.47285 0.78682 0.25327
 O766 O 0.51634 0.72518 0.23018
 C767 C 0.47869 0.80118 0.30313
 C768 C 0.47746 0.83138 0.23238
 C769 C 0.42186 0.78301 0.24839
 C770 C 0.51117 0.70897 0.18197
 C771 C 0.56498 0.72461 0.23169
 C772 C 0.51146 0.68175 0.25278
 H773 H 0.54863 0.76938 0.24913
 H774 H 0.48050 0.71268 0.27265
 H775 H 0.46294 0.80020 0.25908
 H776 H 0.48350 0.74605 0.18788
 H777 H 0.51996 0.78832 0.17896
 H778 H 0.47879 0.78373 0.17295
 H779 H 0.50694 0.71499 0.30469
 H780 H 0.47902 0.74371 0.31409
 H781 H 0.55253 0.79219 0.21094
 H782 H 0.53384 0.82182 0.23100
 H783 H 0.45464 0.68977 0.25171
 H784 H 0.42926 0.72716 0.26468
 H785 H 0.53701 0.79016 0.29490
 H786 H 0.56243 0.75267 0.28240
 H787 H 0.43249 0.75385 0.19804
 H788 H 0.45302 0.71874 0.18752
 O789 O 0.02033 0.68246 0.73846
 O790 O -0.01932 0.67855 0.75391
 O791 O 0.01393 0.73239 0.68321
 O792 O -0.00154 0.76909 0.67895
 O793 O 0.07014 0.73992 0.73478
 O794 O 0.07475 0.75387 0.77238
 O795 O -0.04957 0.79625 0.74699
 O796 O -0.05518 0.77475 0.71115
 O797 O -0.04575 0.74432 0.80084
 O798 O -0.02148 0.70967 0.80824
 O799 O 0.00611 0.80027 0.79964
 O800 O 0.04131 0.80692 0.77833
 O801 O -0.01738 0.81493 0.76499
 O802 O 0.02322 0.81990 0.74575
 O803 O -0.01052 0.76781 0.81720
 O804 O 0.00914 0.72654 0.82004
 O805 O -0.06433 0.76104 0.76872
 O806 O -0.06806 0.74141 0.72763
 O807 O 0.05307 0.70127 0.75532
 O808 O 0.05743 0.72541 0.79267
 O809 O 0.05154 0.75557 0.70205
 O810 O 0.02656 0.79120 0.69718
 O811 O -0.00227 0.69964 0.70074
 O812 O -0.03789 0.69250 0.72430
 Zr813 Zr -0.00587 0.70934 0.73704
 O814 O -0.02865 0.72925 0.75928
 Zr815 Zr 0.01512 0.75813 0.71119
 O816 O -0.00753 0.78016 0.73160
 Zr817 Zr 0.04259 0.73715 0.75981
 O818 O 0.02193 0.75911 0.78233
 Zr819 Zr -0.03810 0.76094 0.74199
 O820 O -0.01722 0.73985 0.71857
 Zr821 Zr -0.00991 0.74070 0.79046
 O822 O 0.01187 0.71774 0.76975
 Zr823 Zr 0.01030 0.78947 0.76392
 O824 O 0.03397 0.76927 0.74250
 O825 O 0.02556 0.72694 0.72791
 O826 O -0.02090 0.77175 0.77373
 C827 C 0.04216 0.68275 0.74635
 C828 C 0.00624 0.71063 0.68266
 C829 C 0.07011 0.74772 0.71330
 C830 C -0.03930 0.81439 0.75731
 C831 C -0.06399 0.75368 0.79036
 C832 C -0.00325 0.78971 0.81748
 H833 H -0.04288 0.71945 0.76314
 H834 H 0.03139 0.76369 0.79683
 H835 H 0.03595 0.71705 0.71764
 H836 H -0.01223 0.79431 0.72233
 H837 H -0.04915 0.76548 0.69731
 H838 H -0.01456 0.78015 0.68330
 H839 H 0.02123 0.73856 0.82557
 H840 H 0.04722 0.71199 0.79799
 H841 H -0.07280 0.72916 0.73923
 H842 H -0.04542 0.70361 0.71286
 H843 H 0.05511 0.80116 0.76897
 H844 H 0.07016 0.76698 0.78338
 H845 H -0.01114 0.67791 0.76975
 H846 H -0.03282 0.70098 0.79732
 H847 H 0.03913 0.79774 0.70827
 H848 H 0.01106 0.82451 0.73360
 O849 O 0.02800 0.07182 0.01164
 O850 O -0.01136 0.07517 -0.00700
 O851 O 0.01871 0.02457 0.06778
 O852 O 0.00426 -0.01260 0.07297
 O853 O 0.07628 0.01642 0.01978
 O854 O 0.07931 -0.00207 -0.01941
 O855 O -0.04354 -0.04233 0.00430
 O856 O -0.04898 -0.01936 0.03906
 O857 O -0.03928 0.00800 -0.05144
 O858 O -0.01408 0.04241 -0.05909
 O859 O 0.01206 -0.04774 -0.04628
 O860 O 0.04742 -0.05442 -0.02122
 O861 O -0.01128 -0.06151 -0.01107
 O862 O 0.03025 -0.06479 0.00856
 O863 O -0.00459 -0.01619 -0.06539
 O864 O 0.01580 0.02484 -0.06951
 O865 O -0.05782 -0.00833 -0.01957
 O866 O -0.06190 0.01263 0.02040
 O867 O 0.06017 0.05307 -0.00454
 O868 O 0.06657 0.02746 -0.03857
 O869 O 0.05738 0.00132 0.05210
 O870 O 0.03238 -0.03438 0.05708
 O871 O 0.00232 0.05618 0.04840
 O872 O -0.03067 0.06336 0.02207
 Zr873 Zr 0.00093 0.04530 0.01224
 O874 O -0.02207 0.02431 -0.00993
 Zr875 Zr 0.02109 -0.00222 0.04109
 O876 O -0.00148 -0.02534 0.02051
 Zr877 Zr 0.04923 0.01699 -0.00704
 O878 O 0.02836 -0.00569 -0.02980
 Zr879 Zr -0.03180 -0.00681 0.00819
 O880 O -0.01091 0.01546 0.03148
 Zr881 Zr -0.00332 0.01194 -0.03987
 O882 O 0.01886 0.03568 -0.01927
 Zr883 Zr 0.01647 -0.03553 -0.01075
 O884 O 0.04010 -0.01440 0.01113
 O885 O 0.03202 0.02840 0.02372
 O886 O -0.01461 -0.01865 -0.02245
 C887 C 0.04967 0.07157 0.00405
 C888 C 0.01019 0.04585 0.06729
 C889 C 0.07605 0.00929 0.04151
 C890 C -0.03326 -0.06085 -0.00441
 C891 C -0.05755 -0.00136 -0.04132
 C892 C 0.00242 -0.03798 -0.06468
 H893 H -0.03619 0.03382 -0.01468
 H894 H 0.03786 -0.01045 -0.04382
 H895 H 0.04216 0.03885 0.03426
 H896 H -0.00624 -0.03924 0.03011
 H897 H -0.04307 -0.00924 0.05266
 H898 H -0.00896 -0.02378 0.06839
 H899 H 0.02761 0.01261 -0.07421
 H900 H 0.05523 0.03796 -0.04716
 H901 H -0.06646 0.02440 0.00816
 H902 H -0.03989 0.05216 0.03202
 H903 H 0.05578 -0.04462 -0.03312
 H904 H 0.07992 -0.01708 -0.01028
 H905 H -0.00214 0.07556 -0.02196
 H906 H -0.02539 0.05137 -0.04896
 H907 H 0.04493 -0.04123 0.04676
 H908 H 0.01865 -0.06884 0.02110
 O909 O 0.05942 0.50159 0.52320
 O910 O 0.06239 0.48422 0.48377
 O911 O 0.01089 0.55831 0.51456
 O912 O -0.02653 0.56315 0.49949
 O913 O 0.00351 0.51006 0.57148
 O914 O -0.01442 0.47071 0.57445
 O915 O -0.05618 0.49524 0.45225
 O916 O -0.03313 0.52952 0.44665
 O917 O -0.00399 0.43937 0.45620
 O918 O 0.02992 0.43133 0.48172
 O919 O -0.06058 0.44369 0.50816
 O920 O -0.06763 0.46882 0.54237
 O921 O -0.07495 0.47890 0.48398
 O922 O -0.07814 0.49868 0.52539
 O923 O -0.02891 0.42517 0.49095
 O924 O 0.01264 0.42103 0.51120
 O925 O -0.02121 0.47104 0.43778
 O926 O -0.00123 0.51107 0.43385
 O927 O 0.04068 0.48633 0.55555
 O928 O 0.01546 0.45177 0.56162
 O929 O -0.01183 0.54240 0.55251
 O930 O -0.04820 0.54707 0.52778
 O931 O 0.04327 0.53894 0.49954
 O932 O 0.04950 0.51378 0.46510
 Zr933 Zr 0.03228 0.50293 0.49657
 O934 O 0.01130 0.48073 0.47366
 Zr935 Zr -0.01573 0.53139 0.51649
 O936 O -0.03886 0.51073 0.49399
 Zr937 Zr 0.00432 0.48333 0.54454
 O938 O -0.01835 0.46054 0.52367
 Zr939 Zr -0.02029 0.49864 0.46384
 O940 O 0.00200 0.52203 0.48470
 Zr941 Zr -0.00074 0.45066 0.49217
 O942 O 0.02306 0.47130 0.51432
 Zr943 Zr -0.04871 0.47936 0.51175
 O944 O -0.02754 0.50130 0.53534
 O945 O 0.01531 0.51411 0.52744
 O946 O -0.03185 0.46781 0.48076
 C947 C 0.05932 0.49436 0.54490
 C948 C 0.03267 0.55778 0.50724
 C949 C -0.00360 0.53185 0.57114
 C950 C -0.07465 0.48633 0.46235
 C951 C -0.01333 0.44954 0.43789
 C952 C -0.05060 0.42549 0.49845
 H953 H 0.02094 0.47610 0.45970
 H954 H -0.02290 0.44651 0.53315
 H955 H 0.02586 0.52450 0.53765
 H956 H -0.05297 0.52030 0.48928
 H957 H -0.02326 0.54316 0.45284
 H958 H -0.03824 0.55857 0.48669
 H959 H 0.00047 0.41626 0.52294
 H960 H 0.02625 0.44348 0.55039
 H961 H 0.01156 0.49954 0.43008
 H962 H 0.03823 0.52457 0.45678
 H963 H -0.05720 0.45774 0.55131
 H964 H -0.02953 0.47988 0.57521
 H965 H 0.06309 0.46904 0.49262
 H966 H 0.03910 0.44161 0.47085
 H967 H -0.05474 0.53675 0.54037
 H968 H -0.08270 0.51089 0.51359
 O969 O 0.44529 -0.00732 0.45225
 O970 O 0.47083 0.02633 0.44549
 O971 O 0.49956 -0.06360 0.45413
 O972 O 0.53045 -0.07370 0.47750
 O973 O 0.44200 -0.06081 0.50753
 O974 O 0.43636 -0.03600 0.54214
 O975 O 0.56126 -0.00093 0.52249
 O976 O 0.56472 -0.02147 0.48446
 O977 O 0.51456 0.05320 0.51537
 O978 O 0.47246 0.05667 0.49661
 O979 O 0.50721 0.00645 0.56960
 O980 O 0.48826 -0.03472 0.57288
 O981 O 0.54259 -0.01639 0.55471
 O982 O 0.51770 -0.05203 0.56120
 O983 O 0.49118 0.03860 0.55099
 O984 O 0.45626 0.04630 0.52672
 O985 O 0.54663 0.03402 0.49962
 O986 O 0.55249 0.01002 0.46417
 O987 O 0.42638 -0.02355 0.48402
 O988 O 0.42385 -0.00571 0.52377
 O989 O 0.47388 -0.07957 0.49083
 O990 O 0.51393 -0.08245 0.51112
 O991 O 0.48251 -0.03165 0.43593
 O992 O 0.50037 0.00761 0.43301
 Zr993 Zr 0.48171 -0.00513 0.46291
 O994 O 0.50427 0.01757 0.48374
 Zr995 Zr 0.50143 -0.05346 0.49059
 O996 O 0.52502 -0.03284 0.51274
 Zr997 Zr 0.45354 -0.02493 0.51073
 O998 O 0.47487 -0.00298 0.53375
 Zr999 Zr 0.53468 -0.00138 0.49526
 O1000 O 0.51355 -0.02336 0.47186
 Zr1001 Zr 0.48674 0.02724 0.51529
 O1002 O 0.46289 0.00676 0.49310
 Zr1003 Zr 0.50661 -0.02094 0.54317
 O1004 O 0.48383 -0.04408 0.52237
 O1005 O 0.47047 -0.03597 0.47973
 O1006 O 0.51791 0.01001 0.52635
 C1007 C 0.42659 -0.01555 0.46261
 C1008 C 0.49080 -0.05299 0.43575
 C1009 C 0.45221 -0.07924 0.49843
 C1010 C 0.56098 -0.00748 0.54439
 C1011 C 0.53643 0.05256 0.50836
 C1012 C 0.50021 0.02827 0.56932
 H1013 H 0.50862 0.03171 0.47433
 H1014 H 0.46549 0.00150 0.54794
 H1015 H 0.46000 -0.04602 0.46912
 H1016 H 0.53941 -0.04219 0.51702
 H1017 H 0.55912 -0.03199 0.47104
 H1018 H 0.54539 -0.06687 0.48473
 H1019 H 0.44742 0.03591 0.53777
 H1020 H 0.42305 0.00927 0.51461
 H1021 H 0.54235 0.02209 0.45628
 H1022 H 0.51553 -0.00145 0.43224
 H1023 H 0.47525 -0.02353 0.57695
 H1024 H 0.44768 -0.04678 0.55039
 H1025 H 0.46030 0.03495 0.45671
 H1026 H 0.48406 0.06131 0.48427
 H1027 H 0.50318 -0.08387 0.52495
 H1028 H 0.53003 -0.05987 0.55137
 O1029 O 0.57715 0.51354 0.01731
 O1030 O 0.58069 0.49473 -0.02166
 O1031 O 0.52905 0.56946 0.00705
 O1032 O 0.48997 0.57247 -0.01219
 O1033 O 0.51830 0.52311 0.06405
 O1034 O 0.50380 0.48599 0.06951
 O1035 O 0.46270 0.50532 -0.05585
 O1036 O 0.48869 0.53948 -0.06337
 O1037 O 0.51288 0.44898 -0.04894
 O1038 O 0.54856 0.44278 -0.02349
 O1039 O 0.45733 0.45537 0.00087
 O1040 O 0.45120 0.47914 0.03487
 O1041 O 0.44355 0.48950 -0.02408
 O1042 O 0.43874 0.51060 0.01550
 O1043 O 0.48977 0.43579 -0.01361
 O1044 O 0.53101 0.43275 0.00620
 O1045 O 0.49720 0.48053 -0.06882
 O1046 O 0.51814 0.52101 -0.07340
 O1047 O 0.55733 0.49972 0.04965
 O1048 O 0.53239 0.46402 0.05456
 O1049 O 0.50317 0.55468 0.04364
 O1050 O 0.47032 0.56128 0.01705
 O1051 O 0.56171 0.55022 -0.00753
 O1052 O 0.56849 0.52425 -0.04133
 Zr1053 Zr 0.55055 0.51415 -0.01001
 O1054 O 0.52991 0.49129 -0.03285
 Zr1055 Zr 0.50198 0.54300 0.00781
 O1056 O 0.47926 0.52180 -0.01434
 Zr1057 Zr 0.52133 0.49589 0.03785
 O1058 O 0.49908 0.47255 0.01721
 Zr1059 Zr 0.49852 0.50896 -0.04373
 O1060 O 0.52053 0.53283 -0.02313
 Zr1061 Zr 0.51749 0.46179 -0.01360
 O1062 O 0.54081 0.48312 0.00845
 Zr1063 Zr 0.46905 0.49100 0.00411
 O1064 O 0.48962 0.51359 0.02736
 O1065 O 0.53277 0.52614 0.02018
 O1066 O 0.48669 0.47867 -0.02607
 C1067 C 0.57635 0.50712 0.03926
 C1068 C 0.55097 0.56897 0.00022
 C1069 C 0.51033 0.54457 0.06290
 C1070 C 0.44418 0.49635 -0.04586
 C1071 C 0.50357 0.45859 -0.06758
 C1072 C 0.46775 0.43660 -0.00712
 H1073 H 0.53958 0.48625 -0.04665
 H1074 H 0.49413 0.45883 0.02697
 H1075 H 0.54278 0.53673 0.03072
 H1076 H 0.46529 0.53134 -0.01945
 H1077 H 0.47662 0.54823 -0.05397
 H1078 H 0.49953 0.57269 -0.02695
 H1079 H 0.51956 0.42931 0.01905
 H1080 H 0.54511 0.45702 0.04457
 H1081 H 0.53005 0.50868 -0.07757
 H1082 H 0.55728 0.53460 -0.05028
 H1083 H 0.45710 0.48932 0.04842
 H1084 H 0.49079 0.47458 0.06486
 H1085 H 0.58078 0.47965 -0.01264
 H1086 H 0.55665 0.45197 -0.03604
 H1087 H 0.46101 0.55029 0.02713
 H1088 H 0.43481 0.52264 0.00332
 O1089 O 0.79838 0.28419 0.49081
 O1090 O 0.80124 0.26881 0.53225
 O1091 O 0.80174 0.22017 0.44917
 O1092 O 0.78197 0.18367 0.45009
 O1093 O 0.74998 0.27099 0.43295
 O1094 O 0.70993 0.28039 0.45179
 O1095 O 0.72798 0.17149 0.51497
 O1096 O 0.76982 0.16518 0.50128
 O1097 O 0.73421 0.23076 0.56099
 O1098 O 0.75145 0.27383 0.55414
 O1099 O 0.68096 0.22486 0.50818
 O1100 O 0.68140 0.23595 0.46287
 O1101 O 0.69710 0.18613 0.49257
 O1102 O 0.69170 0.20212 0.45438
 O1103 O 0.69741 0.24817 0.53793
 O1104 O 0.71836 0.28332 0.54084
 O1105 O 0.74973 0.19486 0.55004
 O1106 O 0.78327 0.18322 0.53500
 O1107 O 0.76680 0.29811 0.46886
 O1108 O 0.72638 0.30355 0.47771
 O1109 O 0.76427 0.23380 0.42485
 O1110 O 0.74881 0.19546 0.42949
 O1111 O 0.81716 0.24351 0.47957
 O1112 O 0.81801 0.23736 0.52161
 Zr1113 Zr 0.78797 0.24965 0.50182
 O1114 O 0.76592 0.23221 0.52633
 Zr1115 Zr 0.76490 0.21660 0.45730
 O1116 O 0.74027 0.19933 0.47932
 Zr1117 Zr 0.74158 0.26988 0.47013
 O1118 O 0.71742 0.25507 0.49484
 Zr1119 Zr 0.75551 0.19791 0.51366
 O1120 O 0.78128 0.21369 0.49119
 Zr1121 Zr 0.73367 0.25095 0.52890
 O1122 O 0.75644 0.26973 0.50531
 Zr1123 Zr 0.70907 0.22007 0.48353
 O1124 O 0.73209 0.23529 0.45799
 O1125 O 0.77352 0.25152 0.46752
 O1126 O 0.72356 0.21649 0.51794
 C1127 C 0.78803 0.30023 0.47804
 C1128 C 0.81894 0.23210 0.45966
 C1129 C 0.75842 0.25483 0.41867
 C1130 C 0.70681 0.16993 0.50524
 C1131 C 0.74168 0.20951 0.56561
 C1132 C 0.67981 0.23648 0.52817
 H1133 H 0.77472 0.23147 0.54181
 H1134 H 0.70290 0.26505 0.49584
 H1135 H 0.78442 0.25953 0.45633
 H1136 H 0.73663 0.18322 0.47263
 H1137 H 0.78575 0.16883 0.49450
 H1138 H 0.77152 0.17066 0.45589
 H1139 H 0.71255 0.29164 0.52642
 H1140 H 0.73150 0.30784 0.49428
 H1141 H 0.79619 0.19544 0.53612
 H1142 H 0.82067 0.22062 0.51639
 H1143 H 0.67389 0.24856 0.47273
 H1144 H 0.70602 0.26763 0.43986
 H1145 H 0.79130 0.28329 0.53389
 H1146 H 0.76306 0.26411 0.56328
 H1147 H 0.73305 0.20266 0.42567
 H1148 H 0.70259 0.18935 0.44894
 O1149 O 0.68453 0.74939 0.01888
 O1150 O 0.68361 0.76389 -0.02172
 O1151 O 0.73418 0.69217 0.01747
 O1152 O 0.77243 0.68638 0.00775
 O1153 O 0.73658 0.74627 0.07189
 O1154 O 0.75613 0.78494 0.07398
 O1155 O 0.80201 0.74996 -0.04429
 O1156 O 0.78047 0.71497 -0.04840
 O1157 O 0.75066 0.80547 -0.04649
 O1158 O 0.71531 0.81536 -0.02456
 O1159 O 0.80497 0.80587 0.00854
 O1160 O 0.81184 0.78576 0.04377
 O1161 O 0.82017 0.76811 -0.01198
 O1162 O 0.82058 0.75201 0.03185
 O1163 O 0.77352 0.82321 -0.01082
 O1164 O 0.73131 0.82863 0.00538
 O1165 O 0.76702 0.77190 -0.06258
 O1166 O 0.74697 0.73365 -0.06499
 O1167 O 0.70178 0.76850 0.05123
 O1168 O 0.72773 0.80383 0.05665
 O1169 O 0.75150 0.71189 0.05600
 O1170 O 0.79199 0.70667 0.03568
 O1171 O 0.70153 0.70973 0.00024
 O1172 O 0.69555 0.72828 -0.03534
 Zr1173 Zr 0.71251 0.74544 -0.00546
 O1174 O 0.73424 0.76561 -0.02816
 Zr1175 Zr 0.75980 0.71976 0.02018
 O1176 O 0.78354 0.73795 -0.00236
 Zr1177 Zr 0.73861 0.77018 0.04323
 O1178 O 0.76223 0.79064 0.02261
 Zr1179 Zr 0.76607 0.74707 -0.03452
 O1180 O 0.74333 0.72554 -0.01363
 Zr1181 Zr 0.74561 0.79740 -0.01054
 O1182 O 0.72098 0.77879 0.01096
 Zr1183 Zr 0.79292 0.77080 0.01395
 O1184 O 0.77089 0.75157 0.03780
 O1185 O 0.72835 0.73789 0.02722
 O1186 O 0.77706 0.77940 -0.01875
 C1187 C 0.68377 0.75887 0.03988
 C1188 C 0.71234 0.69184 0.00975
 C1189 C 0.74175 0.72399 0.07299
 C1190 C 0.82033 0.75928 -0.03338
 C1191 C 0.75977 0.79362 -0.06384
 C1192 C 0.79513 0.82340 -0.00226
 H1193 H 0.72535 0.76874 -0.04324
 H1194 H 0.76662 0.80552 0.03145
 H1195 H 0.71707 0.72854 0.03689
 H1196 H 0.79779 0.72801 -0.00541
 H1197 H 0.77049 0.70178 -0.04223
 H1198 H 0.78303 0.68960 -0.00585
 H1199 H 0.74260 0.83419 0.01821
 H1200 H 0.71613 0.81021 0.04481
 H1201 H 0.73713 0.71999 -0.05962
 H1202 H 0.70147 0.73601 -0.04992
 H1203 H 0.79985 0.79412 0.05360
 H1204 H 0.77076 0.77536 0.07675
 H1205 H 0.68233 0.77945 -0.01319
 H1206 H 0.70708 0.80430 -0.03606
 H1207 H 0.79543 0.71640 0.05030
 H1208 H 0.82696 0.73997 0.02055
 O1209 O 1.05751 0.22447 0.26468
 O1210 O 1.04618 0.24203 0.30201
 O1211 O 0.99642 0.18128 0.24562
 O1212 O 0.95601 0.18766 0.24356
 O1213 O 1.02700 0.22394 0.19299
 O1214 O 1.02765 0.26559 0.18452
 O1215 O 0.93094 0.26815 0.27203
 O1216 O 0.93552 0.22807 0.28514
 O1217 O 0.99312 0.30543 0.29419
 O1218 O 1.03600 0.30086 0.28804
 O1219 O 0.96402 0.30929 0.22469
 O1220 O 0.97030 0.28432 0.18734
 O1221 O 0.93282 0.27964 0.23327
 O1222 O 0.94433 0.25999 0.19489
 O1223 O 0.99009 0.32086 0.25452
 O1224 O 1.03626 0.31257 0.25303
 O1225 O 0.96253 0.28005 0.30342
 O1226 O 0.96246 0.23783 0.31333
 O1227 O 1.06031 0.23716 0.22633
 O1228 O 1.05283 0.27658 0.21102
 O1229 O 0.99734 0.19776 0.20298
 O1230 O 0.95471 0.20490 0.20728
 O1231 O 1.02354 0.19308 0.27454
 O1232 O 1.01852 0.21815 0.30979
 Zr1233 Zr 1.02190 0.23067 0.27452
 O1234 O 1.00092 0.25973 0.28525
 Zr1235 Zr 0.98180 0.21338 0.23323
 O1236 O 0.95858 0.24147 0.24237
 Zr1237 Zr 1.02579 0.25138 0.21922
 O1238 O 1.00436 0.28129 0.22740
 Zr1239 Zr 0.96440 0.25172 0.27834
 O1240 O 0.98533 0.22130 0.27009
 Zr1241 Zr 1.00827 0.28948 0.26398
 O1242 O 1.03174 0.26126 0.25537
 Zr1243 Zr 0.96791 0.27190 0.22280
 O1244 O 0.98941 0.24298 0.21170
 O1245 O 1.01811 0.22112 0.23866
 O1246 O 0.97191 0.28185 0.25861
 C1247 C 1.06922 0.22790 0.24543
 C1248 C 1.01288 0.17706 0.26136
 C1249 C 1.01451 0.20466 0.18965
 C1250 C 0.92195 0.27779 0.25321
 C1251 C 0.97526 0.29913 0.30688
 C1252 C 0.97301 0.32493 0.23944
 H1253 H 1.00438 0.26317 0.30236
 H1254 H 1.00883 0.29503 0.21748
 H1255 H 1.02867 0.20782 0.23389
 H1256 H 0.94168 0.23644 0.23942
 H1257 H 0.94211 0.21171 0.28456
 H1258 H 0.94106 0.19627 0.24732
 H1259 H 1.03041 0.32166 0.23909
 H1260 H 1.05946 0.28268 0.22650
 H1261 H 0.97752 0.24220 0.32204
 H1262 H 1.00280 0.20976 0.31040
 H1263 H 0.98309 0.29670 0.18701
 H1264 H 1.01138 0.26363 0.17726
 H1265 H 1.05489 0.25611 0.29589
 H1266 H 1.03441 0.29143 0.30274
 H1267 H 0.95787 0.21486 0.19319
 H1268 H 0.93286 0.24845 0.20173
 O1269 O 0.73487 1.06663 0.73728
 O1270 O 0.77440 1.07057 0.75517
 O1271 O 0.74151 1.01391 0.68343
 O1272 O 0.75546 0.97663 0.67994
 O1273 O 0.68471 1.01009 0.73250
 O1274 O 0.68158 0.99582 0.77258
 O1275 O 0.80288 0.95166 0.74789
 O1276 O 0.80846 0.97382 0.71238
 O1277 O 0.80070 1.00554 0.80276
 O1278 O 0.77791 1.04105 0.80901
 O1279 O 0.74763 0.95086 0.80019
 O1280 O 0.71261 0.94215 0.77631
 O1281 O 0.77068 0.93412 0.76526
 O1282 O 0.72835 0.93024 0.74605
 O1283 O 0.76449 0.98391 0.81805
 O1284 O 0.74642 1.02606 0.81970
 O1285 O 0.81851 0.98676 0.77149
 O1286 O 0.82464 1.00525 0.73537
 O1287 O 0.70224 1.04893 0.75379
 O1288 O 0.69605 1.02635 0.79008
 O1289 O 0.70302 0.99284 0.70059
 O1290 O 0.72739 0.95632 0.69701
 O1291 O 0.75715 1.04774 0.70102
 O1292 O 0.79310 1.05639 0.72684
 Zr1293 Zr 0.76093 1.03943 0.73750
 O1294 O 0.78360 1.01976 0.76033
 Zr1295 Zr 0.73932 0.98967 0.71142
 O1296 O 0.76149 0.96798 0.73262
 Zr1297 Zr 0.71221 1.01301 0.75874
 O1298 O 0.73268 0.99176 0.78210
 Zr1299 Zr 0.79238 0.98720 0.74381
 O1300 O 0.77197 1.00803 0.71961
 Zr1301 Zr 0.76494 1.00984 0.79105
 O1302 O 0.74323 1.03234 0.76969
 Zr1303 Zr 0.74354 0.96034 0.76432
 O1304 O 0.72018 0.98009 0.74197
 O1305 O 0.72934 1.02170 0.72741
 O1306 O 0.77518 0.97778 0.77504
 C1307 C 0.71313 1.06695 0.74468
 C1308 C 0.74892 1.03565 0.68289
 C1309 C 0.68460 1.00159 0.71103
 C1310 C 0.79236 0.93389 0.75760
 C1311 C 0.81854 0.99500 0.79306
 C1312 C 0.75696 0.96212 0.81824
 H1313 H 0.79829 1.02919 0.76435
 H1314 H 0.72314 0.98820 0.79637
 H1315 H 0.71913 1.03133 0.71667
 H1316 H 0.76566 0.95339 0.72348
 H1317 H 0.80466 0.98516 0.69947
 H1318 H 0.76976 0.96754 0.68500
 H1319 H 0.73385 1.01474 0.82488
 H1320 H 0.70724 1.03855 0.79704
 H1321 H 0.82032 1.01738 0.72346
 H1322 H 0.79848 1.04816 0.71213
 H1323 H 0.70391 0.95337 0.78681
 H1324 H 0.68049 0.97988 0.76467
 H1325 H 0.76570 1.07198 0.77041
 H1326 H 0.78858 1.04946 0.79790
 H1327 H 0.71412 0.95073 0.70714
 H1328 H 0.74007 0.92458 0.73418
 O1329 O 0.69231 0.54954 0.23362
 O1330 O 0.68408 0.54311 0.27499
 O1331 O 0.76757 0.57627 0.24320
 O1332 O 0.80376 0.56159 0.24903
 O1333 O 0.74348 0.52416 0.18576
 O1334 O 0.73966 0.48120 0.18705
 O1335 O 0.79317 0.49775 0.30683
 O1336 O 0.79045 0.53963 0.30900
 O1337 O 0.72300 0.47085 0.30617
 O1338 O 0.68504 0.48500 0.28403
 O1339 O 0.76785 0.44487 0.26086
 O1340 O 0.78380 0.45354 0.22306
 O1341 O 0.80214 0.47249 0.27605
 O1342 O 0.80912 0.47987 0.23148
 O1343 O 0.72834 0.44604 0.27070
 O1344 O 0.69077 0.46270 0.25535
 O1345 O 0.75374 0.49335 0.32203
 O1346 O 0.75288 0.54017 0.32235
 O1347 O 0.70175 0.52451 0.20275
 O1348 O 0.70454 0.48119 0.20133
 O1349 O 0.77190 0.54949 0.20175
 O1350 O 0.80901 0.53434 0.22481
 O1351 O 0.72818 0.57819 0.25342
 O1352 O 0.71104 0.56504 0.28963
 Zr1353 Zr 0.71880 0.54231 0.26031
 O1354 O 0.72644 0.51605 0.28605
 Zr1355 Zr 0.77416 0.53975 0.23835
 O1356 O 0.78435 0.51392 0.26351
 Zr1357 Zr 0.73113 0.50514 0.21519
 O1358 O 0.73945 0.47740 0.23869
 Zr1359 Zr 0.76340 0.51670 0.29435
 O1360 O 0.75548 0.54466 0.27059
 Zr1361 Zr 0.72022 0.48224 0.27043
 O1362 O 0.70973 0.50844 0.24571
 Zr1363 Zr 0.77591 0.47975 0.24931
 O1364 O 0.76821 0.50564 0.22291
 O1365 O 0.73793 0.53937 0.22896
 O1366 O 0.75646 0.48278 0.28041
 C1367 C 0.68892 0.54081 0.21234
 C1368 C 0.74846 0.58785 0.24816
 C1369 C 0.75863 0.54145 0.18419
 C1370 C 0.80567 0.48111 0.29729
 C1371 C 0.73815 0.47628 0.32307
 C1372 C 0.74829 0.43520 0.26819
 H1373 H 0.71671 0.51852 0.30046
 H1374 H 0.73561 0.46189 0.23073
 H1375 H 0.73339 0.55257 0.21827
 H1376 H 0.80168 0.51601 0.26731
 H1377 H 0.78829 0.55535 0.30141
 H1378 H 0.80724 0.55794 0.26597
 H1379 H 0.69654 0.45426 0.24092
 H1380 H 0.69027 0.48304 0.21150
 H1381 H 0.73942 0.53269 0.33092
 H1382 H 0.72660 0.56853 0.29787
 H1383 H 0.76993 0.45276 0.21179
 H1384 H 0.75732 0.48203 0.18524
 H1385 H 0.67604 0.52796 0.26996
 H1386 H 0.68606 0.49312 0.29986
 H1387 H 0.80719 0.52378 0.21051
 H1388 H 0.82004 0.49102 0.24039
 O1389 O 0.56635 0.23637 0.73274
 O1390 O 0.56930 0.25304 0.77251
 O1391 O 0.51725 0.17879 0.73811
 O1392 O 0.47980 0.17342 0.75219
 O1393 O 0.51100 0.22789 0.68191
 O1394 O 0.49270 0.26664 0.67883
 O1395 O 0.45044 0.24130 0.79913
 O1396 O 0.47333 0.20593 0.80446
 O1397 O 0.50235 0.29702 0.79746
 O1398 O 0.53767 0.30497 0.77408
 O1399 O 0.44680 0.29243 0.74459
 O1400 O 0.44005 0.26796 0.70859
 O1401 O 0.43184 0.25694 0.76645
 O1402 O 0.42873 0.23779 0.72491
 O1403 O 0.47908 0.31155 0.76189
 O1404 O 0.52072 0.31597 0.74392
 O1405 O 0.48562 0.26489 0.81548
 O1406 O 0.50500 0.22896 0.82084
 O1407 O 0.54774 0.25209 0.70005
 O1408 O 0.52255 0.28617 0.69313
 O1409 O 0.49508 0.19528 0.69991
 O1410 O 0.45838 0.18946 0.72359
 O1411 O 0.55006 0.19830 0.75396
 O1412 O 0.55673 0.22371 0.79024
 Zr1413 Zr 0.53914 0.23409 0.75823
 O1414 O 0.51816 0.25577 0.78053
 Zr1415 Zr 0.49096 0.20551 0.73608
 O1416 O 0.46783 0.22568 0.75787
 Zr1417 Zr 0.51138 0.25416 0.70935
 O1418 O 0.48892 0.27645 0.72956
 Zr1419 Zr 0.48631 0.23768 0.78893
 O1420 O 0.50864 0.21455 0.76886
 Zr1421 Zr 0.50665 0.28599 0.76182
 O1422 O 0.53026 0.26584 0.74041
 Zr1423 Zr 0.45838 0.25708 0.74000
 O1424 O 0.47940 0.23560 0.71705
 O1425 O 0.52209 0.22333 0.72654
 O1426 O 0.47530 0.26846 0.77170
 C1427 C 0.56628 0.24411 0.71125
 C1428 C 0.53924 0.17949 0.74556
 C1429 C 0.50370 0.20603 0.68172
 C1430 C 0.43210 0.25004 0.78826
 C1431 C 0.49306 0.28672 0.81548
 C1432 C 0.45712 0.31080 0.75440
 H1433 H 0.52752 0.26007 0.79521
 H1434 H 0.48453 0.29060 0.72015
 H1435 H 0.53260 0.21334 0.71650
 H1436 H 0.45361 0.21593 0.76193
 H1437 H 0.48494 0.19321 0.80058
 H1438 H 0.46926 0.17791 0.76553
 H1439 H 0.50902 0.32051 0.73131
 H1440 H 0.53361 0.29436 0.70472
 H1441 H 0.51698 0.21685 0.81645
 H1442 H 0.54920 0.20856 0.79531
 H1443 H 0.45015 0.28022 0.70098
 H1444 H 0.47743 0.25743 0.67764
 H1445 H 0.56989 0.26851 0.76418
 H1446 H 0.54580 0.29502 0.78618
 H1447 H 0.45203 0.19964 0.71067
 H1448 H 0.42438 0.22498 0.73607
 O1449 O 0.22692 0.67115 0.51271
 O1450 O 0.26935 0.66502 0.50012
 O1451 O 0.23545 0.73263 0.55899
 O1452 O 0.25006 0.77085 0.55494
 O1453 O 0.17918 0.72743 0.50577
 O1454 O 0.17953 0.73716 0.46247
 O1455 O 0.29897 0.78196 0.48606
 O1456 O 0.30198 0.76931 0.52696
 O1457 O 0.29806 0.72143 0.44364
 O1458 O 0.27577 0.67970 0.45007
 O1459 O 0.25549 0.76958 0.43155
 O1460 O 0.21036 0.77882 0.44726
 O1461 O 0.26691 0.79681 0.46548
 O1462 O 0.22621 0.80291 0.47236
 O1463 O 0.25955 0.73044 0.42169
 O1464 O 0.24956 0.69112 0.42750
 O1465 O 0.31531 0.74375 0.47376
 O1466 O 0.31734 0.73391 0.51748
 O1467 O 0.19579 0.68610 0.49079
 O1468 O 0.18931 0.70247 0.45319
 O1469 O 0.19696 0.74977 0.53558
 O1470 O 0.21986 0.78596 0.53369
 O1471 O 0.25068 0.69642 0.54841
 O1472 O 0.28325 0.68225 0.53025
 Zr1473 Zr 0.25425 0.69777 0.51145
 O1474 O 0.27944 0.71260 0.48814
 Zr1475 Zr 0.23341 0.75145 0.52625
 O1476 O 0.25646 0.76858 0.50202
 Zr1477 Zr 0.20740 0.72033 0.48193
 O1478 O 0.23034 0.73437 0.45598
 Zr1479 Zr 0.28765 0.74822 0.49831
 O1480 O 0.26549 0.73203 0.52389
 Zr1481 Zr 0.26245 0.71478 0.45472
 O1482 O 0.23772 0.69838 0.47745
 Zr1483 Zr 0.24143 0.76885 0.46700
 O1484 O 0.21667 0.75547 0.49235
 O1485 O 0.22290 0.71710 0.51585
 O1486 O 0.27274 0.74956 0.46415
 C1487 C 0.20579 0.66960 0.50291
 C1488 C 0.24332 0.71160 0.56392
 C1489 C 0.17865 0.73927 0.52565
 C1490 C 0.28865 0.79819 0.47351
 C1491 C 0.31563 0.73364 0.45306
 C1492 C 0.26098 0.75253 0.41680
 H1493 H 0.29396 0.70262 0.48736
 H1494 H 0.22169 0.73442 0.44037
 H1495 H 0.21231 0.70933 0.52752
 H1496 H 0.26018 0.78495 0.50798
 H1497 H 0.29587 0.76235 0.54188
 H1498 H 0.26132 0.78258 0.54809
 H1499 H 0.23248 0.69509 0.42459
 H1500 H 0.20025 0.68986 0.44747
 H1501 H 0.32298 0.71953 0.50884
 H1502 H 0.29479 0.69546 0.53382
 H1503 H 0.21230 0.77329 0.43052
 H1504 H 0.17773 0.75337 0.46953
 H1505 H 0.25945 0.65901 0.48638
 H1506 H 0.29330 0.68006 0.45340
 H1507 H 0.20857 0.78981 0.52045
 H1508 H 0.22933 0.80729 0.48934
 O1509 O 0.30191 0.24783 0.95887
 O1510 O 0.27723 0.21326 0.95473
 O1511 O 0.24902 0.30391 0.95223
 O1512 O 0.21567 0.31588 0.97342
 O1513 O 0.30441 0.30775 1.00900
 O1514 O 0.30958 0.28747 1.04606
 O1515 O 0.18473 0.25088 1.02242
 O1516 O 0.18230 0.26420 0.97914
 O1517 O 0.23259 0.19476 1.02138
 O1518 O 0.27652 0.19177 1.01183
 O1519 O 0.23722 0.25270 1.07390
 O1520 O 0.25496 0.29257 1.07383
 O1521 O 0.20251 0.27117 1.05372
 O1522 O 0.22835 0.30944 1.05526
 O1523 O 0.24168 0.21592 1.05706
 O1524 O 0.28403 0.20814 1.04766
 O1525 O 0.19957 0.21315 1.00603
 O1526 O 0.19475 0.23243 0.96586
 O1527 O 0.32028 0.26771 0.99007
 O1528 O 0.32189 0.25526 1.03175
 O1529 O 0.27310 0.32491 0.98911
 O1530 O 0.23208 0.33072 1.00379
 O1531 O 0.26477 0.26920 0.93795
 O1532 O 0.24702 0.22919 0.93924
 Zr1533 Zr 0.26548 0.24665 0.96801
 O1534 O 0.24219 0.22712 0.98987
 Zr1535 Zr 0.24560 0.29866 0.98898
 O1536 O 0.22097 0.28160 1.01131
 Zr1537 Zr 0.29263 0.27265 1.01505
 O1538 O 0.27017 0.25494 1.03930
 Zr1539 Zr 0.21164 0.24772 0.99675
 O1540 O 0.23378 0.26625 0.97280
 Zr1541 Zr 0.25813 0.22246 1.02391
 O1542 O 0.28307 0.23876 1.00075
 Zr1543 Zr 0.23865 0.27479 1.04397
 O1544 O 0.26258 0.29403 1.02246
 O1545 O 0.27658 0.27956 0.98206
 O1546 O 0.22737 0.24192 1.02977
 C1547 C 0.32043 0.25730 0.96940
 C1548 C 0.25705 0.29065 0.93531
 C1549 C 0.29450 0.32530 0.99822
 C1550 C 0.18465 0.26015 1.04356
 C1551 C 0.21025 0.19515 1.01544
 C1552 C 0.23473 0.22995 1.07399
 H1553 H 0.23820 0.21171 0.98180
 H1554 H 0.27873 0.25231 1.05467
 H1555 H 0.28728 0.28824 0.97115
 H1556 H 0.20671 0.29174 1.01348
 H1557 H 0.17751 0.27817 0.98894
 H1558 H 0.20546 0.30305 0.96611
 H1559 H 0.29948 0.21606 1.04412
 H1560 H 0.32417 0.23998 1.02295
 H1561 H 0.20335 0.21755 0.96185
 H1562 H 0.23193 0.23808 0.93656
 H1563 H 0.26973 0.28380 1.07810
 H1564 H 0.29856 0.29973 1.05236
 H1565 H 0.28793 0.20660 0.96723
 H1566 H 0.26807 0.18603 0.99708
 H1567 H 0.24149 0.33411 1.01867
 H1568 H 0.21304 0.31330 1.04699
 C1569 C 0.31558 0.37791 0.77356
 C1570 C 0.33363 0.38545 0.75866
 C1571 C 0.32616 0.40676 0.74996
 C1572 C 0.30408 0.41072 0.76001
 O1573 O 0.29762 0.39331 0.77435
 H1574 H 0.35061 0.37704 0.75506
 H1575 H 0.33591 0.41833 0.73811
 C1576 C 0.26254 -0.11986 0.29703
 C1577 C 0.23936 -0.11777 0.30541
 C1578 C 0.23039 -0.09798 0.29494
 C1579 C 0.24869 -0.08930 0.28112
 O1580 O 0.26812 -0.10256 0.28219
 H1581 H 0.22983 -0.12912 0.31757
 H1582 H 0.21298 -0.09012 0.29797
 C1583 C 0.81862 0.87954 0.77436
 C1584 C 0.83534 0.88618 0.75755
 C1585 C 0.82742 0.90730 0.74871
 C1586 C 0.80638 0.91197 0.76044
 O1587 O 0.80099 0.89527 0.77594
 H1588 H 0.85177 0.87738 0.75263
 H1589 H 0.83616 0.91821 0.73556
 C1590 C 0.45207 0.88423 0.25283
 C1591 C 0.44074 0.88363 0.23061
 C1592 C 0.45058 0.86475 0.21860
 C1593 C 0.46735 0.85543 0.23424
 O1594 O 0.46832 0.86728 0.25483
 H1595 H 0.42612 0.89460 0.22432
 H1596 H 0.44492 0.85755 0.20132
 C1597 C -0.06632 0.86751 0.77717
 C1598 C -0.08374 0.86065 0.76031
 C1599 C -0.07570 0.83995 0.75025
 C1600 C -0.05390 0.83576 0.76136
 O1601 O -0.04819 0.85230 0.77766
 H1602 H -0.10070 0.86902 0.75612
 H1603 H -0.08482 0.82901 0.73672
 C1604 C -0.06051 -0.11525 -0.02199
 C1605 C -0.07869 -0.10697 -0.00757
 C1606 C -0.07053 -0.08567 0.00161
 C1607 C -0.04799 -0.08255 -0.00773
 O1608 O -0.04189 -0.10036 -0.02208
 H1609 H -0.09622 -0.11484 -0.00477
 H1610 H -0.08014 -0.07352 0.01316
 C1611 C -0.07804 0.37195 0.47835
 C1612 C -0.09273 0.37593 0.49773
 C1613 C -0.08445 0.39679 0.50816
 C1614 C -0.06509 0.40364 0.49476
 O1615 O -0.06126 0.38876 0.47679
 H1616 H -0.10815 0.36559 0.50318
 H1617 H -0.09170 0.40595 0.52357
 C1618 C 0.42410 -0.13170 0.47669
 C1619 C 0.40898 -0.12776 0.49575
 C1620 C 0.41770 -0.10754 0.50709
 C1621 C 0.43772 -0.10102 0.49450
 O1622 O 0.44155 -0.11550 0.47620
 H1623 H 0.39289 -0.13756 0.50032
 H1624 H 0.41013 -0.09840 0.52235
 C1625 C 0.44053 0.38136 -0.02232
 C1626 C 0.42416 0.38878 -0.00538
 C1627 C 0.43239 0.41046 0.00279
 C1628 C 0.45327 0.41461 -0.00937
 O1629 O 0.45825 0.39713 -0.02458
 H1630 H 0.40769 0.38016 -0.00004
 H1631 H 0.42402 0.42202 0.01583
 C1632 C 0.81183 0.35570 0.45959
 C1633 C 0.83226 0.34679 0.47071
 C1634 C 0.82580 0.32516 0.47935
 C1635 C 0.80197 0.32209 0.47290
 O1636 O 0.79340 0.34048 0.46073
 H1637 H 0.85005 0.35469 0.47209
 H1638 H 0.83727 0.31285 0.48886
 C1639 C 0.82255 0.87675 -0.02052
 C1640 C 0.83968 0.87047 -0.00348
 C1641 C 0.83142 0.84974 0.00604
 C1642 C 0.80983 0.84497 -0.00558
 O1643 O 0.80441 0.86122 -0.02160
 H1644 H 0.85654 0.87926 0.00117
 H1645 H 0.84028 0.83914 0.01954
 C1646 C 0.78098 0.27498 0.36462
 C1647 C 0.77710 0.25147 0.35804
 C1648 C 0.76576 0.24167 0.37679
 C1649 C 0.76359 0.25990 0.39359
 O1650 O 0.77266 0.28035 0.38612
 H1651 H 0.78207 0.24258 0.34156
 H1652 H 0.76089 0.22303 0.37866
 C1653 C 0.77533 0.81681 -0.11956
 C1654 C 0.75912 0.83422 -0.11299
 C1655 C 0.75066 0.82736 -0.09148
 C1656 C 0.76214 0.80626 -0.08648
 O1657 O 0.77709 0.79979 -0.10341
 H1658 H 0.75452 0.85049 -0.12210
 H1659 H 0.73807 0.83693 -0.08043
 C1660 C 0.27480 0.43796 0.87132
 C1661 C 0.25821 0.42030 0.86498
 C1662 C 0.24815 0.42743 0.84391
 C1663 C 0.25921 0.44891 0.83908
 O1664 O 0.27532 0.45532 0.85558
 H1665 H 0.25455 0.40367 0.87388
 H1666 H 0.23496 0.41776 0.83297
 C1667 C 0.25674 -0.05704 0.37168
 C1668 C 0.23522 -0.06863 0.36636
 C1669 C 0.22501 -0.05610 0.34805
 C1670 C 0.24093 -0.03769 0.34358
 O1671 O 0.26010 -0.03829 0.35786
 H1672 H 0.22803 -0.08462 0.37428
 H1673 H 0.20854 -0.06056 0.33833
 C1674 C -0.01815 -0.06664 -0.11768
 C1675 C -0.00095 -0.08323 -0.11116
 C1676 C 0.00949 -0.07442 -0.09057
 C1677 C -0.00171 -0.05302 -0.08614
 O1678 O -0.01842 -0.04827 -0.10242
 H1679 H 0.00311 -0.10018 -0.11961
 H1680 H 0.02329 -0.08281 -0.07981
 C1681 C -0.02787 0.42449 0.38142
 C1682 C -0.00845 0.41003 0.38671
 C1683 C -0.00054 0.41719 0.40897
 C1684 C -0.01531 0.43573 0.41542
 O1685 O -0.03184 0.44013 0.39891
 H1686 H -0.00115 0.39560 0.37612
 H1687 H 0.01433 0.40996 0.41917
 C1688 C 0.47655 -0.07653 0.37877
 C1689 C 0.49474 -0.09230 0.38429
 C1690 C 0.50272 -0.08572 0.40671
 C1691 C 0.48911 -0.06623 0.41295
 O1692 O 0.47328 -0.06068 0.39613
 H1693 H 0.50114 -0.10709 0.37361
 H1694 H 0.51674 -0.09407 0.41722
 C1695 C 0.48127 0.42986 -0.11970
 C1696 C 0.49594 0.41164 -0.11186
 C1697 C 0.50710 0.42030 -0.09158
 C1698 C 0.49861 0.44318 -0.08860
 O1699 O 0.48294 0.44899 -0.10553
 H1700 H 0.49764 0.39380 -0.11928
 H1701 H 0.51933 0.41082 -0.07993
 C1702 C 0.45848 0.82449 0.35746
 C1703 C 0.47301 0.84368 0.35163
 C1704 C 0.48290 0.83761 0.33025
 C1705 C 0.47355 0.81530 0.32463
 O1706 O 0.45875 0.80741 0.34095
 H1707 H 0.47593 0.86020 0.36151
 H1708 H 0.49520 0.84822 0.31992
 C1709 C -0.02019 0.81689 0.87187
 C1710 C -0.00338 0.83381 0.86497
 C1711 C 0.00547 0.82550 0.84396
 C1712 C -0.00620 0.80405 0.83949
 O1713 O -0.02176 0.79874 0.85629
 H1714 H 0.00160 0.85063 0.87351
 H1715 H 0.01860 0.83425 0.83294
 C1716 C 0.36695 0.80808 0.26527
 C1717 C 0.36648 0.81482 0.24161
 C1718 C 0.38665 0.80551 0.23202
 C1719 C 0.39796 0.79368 0.25043
 O1720 O 0.38602 0.79508 0.27064
 H1721 H 0.35304 0.82522 0.23234
 H1722 H 0.39267 0.80751 0.21386
 C1723 C -0.11759 0.77224 0.81663
 C1724 C -0.11015 0.75692 0.83443
 C1725 C -0.08936 0.74717 0.82652
 C1726 C -0.08568 0.75710 0.80449
 O1727 O -0.10268 0.77230 0.79846
 H1728 H -0.11817 0.75383 0.85158
 H1729 H -0.07785 0.73489 0.83601
 C1730 C 0.87047 0.25586 0.43432
 C1731 C 0.86735 0.23676 0.41843
 C1732 C 0.84823 0.22398 0.42661
 C1733 C 0.84135 0.23598 0.44698
 O1734 O 0.85477 0.25514 0.45168
 H1735 H 0.87696 0.23297 0.40221
 H1736 H 0.83961 0.20856 0.41812
 C1737 C 0.87550 0.77335 -0.05974
 C1738 C 0.86816 0.75558 -0.07578
 C1739 C 0.84683 0.74729 -0.06745
 C1740 C 0.84274 0.76041 -0.04688
 O1741 O 0.86005 0.77618 -0.04215
 H1742 H 0.87661 0.74987 -0.09213
 H1743 H 0.83524 0.73381 -0.07579
 C1744 C -0.11246 -0.01997 -0.06756
 C1745 C -0.10600 -0.00365 -0.08480
 C1746 C -0.08449 0.00583 -0.07714
 C1747 C -0.07954 -0.00505 -0.05573
 O1748 O -0.09632 -0.02063 -0.04991
 H1749 H -0.11522 0.00059 -0.10133
 H1750 H -0.07360 0.01889 -0.08618
 C1751 C -0.12979 0.47090 0.43435
 C1752 C -0.12384 0.49000 0.42001
 C1753 C -0.10233 0.49843 0.42877
 C1754 C -0.09688 0.48426 0.44797
 O1755 O -0.11335 0.46756 0.45138
 H1756 H -0.13329 0.49662 0.40445
 H1757 H -0.09175 0.51303 0.42186
 C1758 C 0.37123 -0.02988 0.43457
 C1759 C 0.37694 -0.01005 0.42112
 C1760 C 0.39845 -0.00183 0.43009
 C1761 C 0.40413 -0.01683 0.44856
 O1762 O 0.38782 -0.03384 0.45130
 H1763 H 0.36737 -0.00280 0.40593
 H1764 H 0.40892 0.01311 0.42375
 C1765 C 0.38858 0.47930 -0.07139
 C1766 C 0.39560 0.49471 -0.08922
 C1767 C 0.41760 0.50344 -0.08203
 C1768 C 0.42220 0.49305 -0.06030
 O1769 O 0.40479 0.47850 -0.05386
 H1770 H 0.38638 0.49883 -0.10577
 H1771 H 0.42896 0.51574 -0.09153
 C1772 C 0.37139 0.47473 0.81795
 C1773 C 0.36476 0.49067 0.83574
 C1774 C 0.34404 0.50079 0.82761
 C1775 C 0.33960 0.49048 0.80543
 O1776 O 0.35607 0.47467 0.79955
 H1777 H 0.37332 0.49396 0.85297
 H1778 H 0.33311 0.51363 0.83702
 C1779 C 0.36013 -0.04660 0.32015
 C1780 C 0.34953 -0.03896 0.34111
 C1781 C 0.32834 -0.02908 0.33430
 C1782 C 0.32723 -0.03158 0.30977
 O1783 O 0.34638 -0.04232 0.30107
 H1784 H 0.35627 -0.04016 0.35930
 H1785 H 0.31526 -0.02085 0.34582
 C1786 C 0.12786 0.51832 0.68446
 C1787 C 0.13459 0.50283 0.66630
 C1788 C 0.15619 0.49383 0.67352
 C1789 C 0.16096 0.50431 0.69556
 O1790 O 0.14391 0.51914 0.70219
 H1791 H 0.12551 0.49920 0.64937
 H1792 H 0.16744 0.48167 0.66360
 C1793 C 0.13720 0.05931 0.18513
 C1794 C 0.14947 0.05487 0.16427
 C1795 C 0.17169 0.04781 0.17139
 C1796 C 0.17156 0.04870 0.19602
 O1797 O 0.15074 0.05582 0.20450
 H1798 H 0.14306 0.05630 0.14598
 H1799 H 0.18618 0.04219 0.16000
 C1800 C 0.62049 0.69814 0.21770
 C1801 C 0.61044 0.67972 0.23047
 C1802 C 0.58853 0.68748 0.23709
 C1803 C 0.58646 0.71000 0.22776
 O1804 O 0.60574 0.71659 0.21567
 H1805 H 0.61847 0.66281 0.23500
 H1806 H 0.57556 0.67792 0.24762
 C1807 C 0.12564 0.73317 0.68869
 C1808 C 0.11852 0.74959 0.67176
 C1809 C 0.09699 0.75798 0.67923
 C1810 C 0.09260 0.74626 0.70019
 O1811 O 0.10985 0.73124 0.70598
 H1812 H 0.12721 0.75426 0.65532
 H1813 H 0.08548 0.77053 0.67011
 C1814 C 0.62491 0.22240 0.55533
 C1815 C 0.63103 0.24211 0.56945
 C1816 C 0.65204 0.25060 0.56050
 C1817 C 0.65719 0.23566 0.54147
 O1818 O 0.64080 0.21860 0.53830
 H1819 H 0.62191 0.24913 0.58491
 H1820 H 0.66274 0.26549 0.56747
 C1821 C 0.62959 0.73939 0.06339
 C1822 C 0.63472 0.75692 0.08056
 C1823 C 0.65538 0.76778 0.07340
 C1824 C 0.66112 0.75628 0.05238
 O1825 O 0.64559 0.73920 0.04629
 H1826 H 0.62546 0.76071 0.09698
 H1827 H 0.66561 0.78160 0.08290
 C1828 C 0.13125 0.02620 0.06835
 C1829 C 0.12575 0.00771 0.08361
 C1830 C 0.10426 -0.00145 0.07540
 C1831 C 0.09846 0.01171 0.05556
 O1832 O 0.11465 0.02841 0.05128
 H1833 H 0.13548 0.00203 0.09940
 H1834 H 0.09391 -0.01577 0.08312
 C1835 C 0.11582 0.51052 0.56915
 C1836 C 0.10835 0.49666 0.58795
 C1837 C 0.08620 0.48795 0.58116
 C1838 C 0.08190 0.49696 0.55871
 O1839 O 0.09974 0.51059 0.55146
 H1840 H 0.11736 0.49394 0.60495
 H1841 H 0.07433 0.47696 0.59158
 C1842 C 0.61616 0.01133 0.57012
 C1843 C 0.60858 -0.00252 0.58887
 C1844 C 0.58699 -0.01212 0.58151
 C1845 C 0.58306 -0.00359 0.55880
 O1846 O 0.60063 0.01062 0.55190
 H1847 H 0.61715 -0.00471 0.60618
 H1848 H 0.57523 -0.02344 0.59170
 C1849 C 0.63112 0.52445 0.06670
 C1850 C 0.62361 0.50902 0.08420
 C1851 C 0.60225 0.49966 0.07588
 C1852 C 0.59843 0.50987 0.05388
 O1853 O 0.61583 0.52486 0.04831
 H1854 H 0.63194 0.50582 0.10146
 H1855 H 0.59048 0.48749 0.08507
 C1856 C 0.02012 0.07196 0.12414
 C1857 C -0.00057 0.08428 0.11816
 C1858 C -0.00697 0.07634 0.09571
 C1859 C 0.00988 0.05945 0.08988
 O1860 O 0.02630 0.05683 0.10692
 H1861 H -0.00955 0.09803 0.12832
 H1862 H -0.02213 0.08206 0.08493
 C1863 C 0.01511 0.55913 0.62528
 C1864 C -0.00093 0.57649 0.61814
 C1865 C -0.01099 0.56809 0.59720
 C1866 C -0.00056 0.54620 0.59318
 O1867 O 0.01522 0.54074 0.61010
 H1868 H -0.00417 0.59373 0.62639
 H1869 H -0.02371 0.57722 0.58577
 C1870 C 0.51838 0.05612 0.62355
 C1871 C 0.50086 0.07233 0.61691
 C1872 C 0.49129 0.06368 0.59588
 C1873 C 0.50329 0.04274 0.59130
 O1874 O 0.51964 0.03810 0.60795
 H1875 H 0.49602 0.08894 0.62559
 H1876 H 0.47755 0.07190 0.58491
 C1877 C 0.51982 0.57182 0.11911
 C1878 C 0.50241 0.58723 0.11083
 C1879 C 0.49619 0.57885 0.08853
 C1880 C 0.51005 0.55885 0.08505
 O1881 O 0.52442 0.55458 0.10347
 H1882 H 0.49576 0.60319 0.11952
 H1883 H 0.48339 0.58658 0.07615
 C1884 C 0.23072 0.55535 0.62511
 C1885 C 0.24675 0.57374 0.63095
 C1886 C 0.25655 0.56794 0.65258
 C1887 C 0.24593 0.54648 0.65816
 O1888 O 0.23036 0.53884 0.64165
 H1889 H 0.25011 0.59005 0.62142
 H1890 H 0.26915 0.57850 0.66338
 C1891 C 0.24419 0.06444 0.12747
 C1892 C 0.26420 0.07865 0.13277
 C1893 C 0.27458 0.06907 0.15278
 C1894 C 0.26038 0.04964 0.15820
 O1895 O 0.24215 0.04680 0.14288
 H1896 H 0.27020 0.09460 0.12390
 H1897 H 0.28979 0.07622 0.16298
 C1898 C 0.73067 0.19073 0.62425
 C1899 C 0.75157 0.17824 0.62049
 C1900 C 0.75881 0.18463 0.59840
 C1901 C 0.74202 0.20072 0.59027
 O1902 O 0.72494 0.20456 0.60592
 H1903 H 0.76031 0.16555 0.63205
 H1904 H 0.77419 0.17784 0.58896
 C1905 C 0.71652 0.70237 0.12582
 C1906 C 0.72130 0.68069 0.11495
 C1907 C 0.73217 0.68605 0.09415
 C1908 C 0.73344 0.71067 0.09383
 O1909 O 0.72394 0.72073 0.11310
 H1910 H 0.71797 0.66303 0.12189
 H1911 H 0.73820 0.67351 0.08065
 C1912 C 0.53181 0.68124 0.12983
 C1913 C 0.51618 0.66321 0.13638
 C1914 C 0.50617 0.67114 0.15710
 C1915 C 0.51649 0.69330 0.16160
 O1916 O 0.53199 0.69939 0.14522
 H1917 H 0.51247 0.64630 0.12739
 H1918 H 0.49302 0.66188 0.16767
 C1919 C 0.02084 0.68444 0.62703
 C1920 C 0.00462 0.66727 0.63449
 C1921 C -0.00344 0.67528 0.65593
 C1922 C 0.00818 0.69679 0.66016
 O1923 O 0.02294 0.70245 0.64272
 H1924 H -0.00041 0.65046 0.62595
 H1925 H -0.01591 0.66621 0.66743
 C1926 C 0.53478 0.62563 0.24035
 C1927 C 0.54340 0.62765 0.26361
 C1928 C 0.53391 0.64831 0.27237
 C1929 C 0.52013 0.65721 0.25386
 O1930 O 0.52052 0.64343 0.23455
 H1931 H 0.55612 0.61625 0.27267
 H1932 H 0.53792 0.65674 0.28955
 C1933 C 0.06695 0.62763 0.72952
 C1934 C 0.08567 0.63553 0.74435
 C1935 C 0.07856 0.65706 0.75337
 C1936 C 0.05602 0.66069 0.74357
 O1937 O 0.04897 0.64296 0.72913
 H1938 H 0.10287 0.62724 0.74760
 H1939 H 0.08885 0.66900 0.76512
 C1940 C 0.07642 0.12546 0.02351
 C1941 C 0.09224 0.12057 0.00523
 C1942 C 0.08413 0.09964 -0.00513
 C1943 C 0.06378 0.09365 0.00720
 O1944 O 0.05914 0.10913 0.02443
 H1945 H 0.10831 0.13028 0.00051
 H1946 H 0.09228 0.08973 -0.01957
 C1947 C 0.05903 0.61381 0.52071
 C1948 C 0.07668 0.60528 0.50579
 C1949 C 0.06878 0.58330 0.49814
 C1950 C 0.04688 0.58003 0.50878
 O1951 O 0.04093 0.59842 0.52249
 H1952 H 0.09377 0.61347 0.50167
 H1953 H 0.07817 0.57086 0.48671
 C1954 C 0.56311 0.10799 0.52336
 C1955 C 0.58144 0.09918 0.50946
 C1956 C 0.57360 0.07731 0.50147
 C1957 C 0.55108 0.07440 0.51097
 O1958 O 0.54470 0.09289 0.52427
 H1959 H 0.59883 0.10716 0.50620
 H1960 H 0.58335 0.06473 0.49051
 C1961 C 0.57615 0.62396 0.01841
 C1962 C 0.59414 0.61743 0.00294
 C1963 C 0.58690 0.59591 -0.00677
 C1964 C 0.56495 0.59117 0.00324
 O1965 O 0.55846 0.60805 0.01843
 H1966 H 0.61094 0.62659 -0.00020
 H1967 H 0.59670 0.58476 -0.01913
 C1968 C 0.68059 0.11561 0.52219
 C1969 C 0.66316 0.12205 0.50557
 C1970 C 0.67089 0.14328 0.49679
 C1971 C 0.69244 0.14819 0.50852
 O1972 O 0.69838 0.13152 0.52379
 H1973 H 0.64653 0.11296 0.50065
 H1974 H 0.66176 0.15406 0.48362
 C1975 C 0.68854 0.63719 0.02877
 C1976 C 0.66863 0.64470 0.01580
 C1977 C 0.67514 0.66592 0.00608
 C1978 C 0.69852 0.66984 0.01372
 O1979 O 0.70666 0.65258 0.02754
 H1980 H 0.65109 0.63634 0.01425
 H1981 H 0.66395 0.67751 -0.00459
 C1982 C 0.18866 0.62238 0.72569
 C1983 C 0.17039 0.61470 0.74029
 C1984 C 0.17765 0.59330 0.74894
 C1985 C 0.19983 0.58932 0.73919
 O1986 O 0.20658 0.60686 0.72501
 H1987 H 0.15335 0.62306 0.74376
 H1988 H 0.16767 0.58168 0.76054
 C1989 C 0.24289 0.14469 0.22336
 C1990 C 0.26693 0.14328 0.21756
 C1991 C 0.27418 0.12155 0.22516
 C1992 C 0.25412 0.11111 0.23486
 O1993 O 0.23522 0.12523 0.23421
 H1994 H 0.27784 0.15616 0.20831
 H1995 H 0.29164 0.11364 0.22254
 C1996 C 0.68712 1.12167 0.72758
 C1997 C 0.67025 1.11483 0.74421
 C1998 C 0.67809 1.09371 0.75307
 C1999 C 0.69925 1.08908 0.74161
 O2000 O 0.70480 1.10591 0.72614
 H2001 H 0.65374 1.12351 0.74909
 H2002 H 0.66920 1.08275 0.76609
 C2003 C 0.74029 0.64889 0.23876
 C2004 C 0.76501 0.64948 0.24118
 C2005 C 0.77132 0.62673 0.24660
 C2006 C 0.74999 0.61397 0.24700
 O2007 O 0.73113 0.62738 0.24242
 H2008 H 0.77703 0.66431 0.23776
 H2009 H 0.78938 0.61993 0.24860
 C2010 C 0.56526 0.12495 0.72868
 C2011 C 0.58363 0.13312 0.74381
 C2012 C 0.57594 0.15439 0.75291
 C2013 C 0.55344 0.15763 0.74288
 O2014 O 0.54694 0.13989 0.72819
 H2015 H 0.60100 0.12522 0.74717
 H2016 H 0.58586 0.16646 0.76484
 C2017 C 1.03800 0.12253 0.24605
 C2018 C 1.04801 0.12437 0.26882
 C2019 C 1.03802 0.14423 0.27889
 C2020 C 1.02250 0.15283 0.26163
 O2021 O 1.02237 0.13963 0.24188
 H2022 H 1.06196 0.11351 0.27667
 H2023 H 1.04282 0.15245 0.29597
 C2024 C 0.18045 0.61474 0.51916
 C2025 C 0.16252 0.62139 0.50324
 C2026 C 0.16987 0.64284 0.49467
 C2027 C 0.19168 0.64766 0.50593
 O2028 O 0.19814 0.63070 0.52069
 H2029 H 0.14578 0.61224 0.49879
 H2030 H 0.16027 0.65387 0.48204
 C2031 C 0.18640 0.14053 1.03492
 C2032 C 0.16566 0.14923 1.02427
 C2033 C 0.17193 0.17071 1.01495
 C2034 C 0.19600 0.17361 1.02049
 O2035 O 0.20480 0.15546 1.03272
 H2036 H 0.14785 0.14135 1.02389
 H2037 H 0.16023 0.18303 1.00576
 C2038 C 0.23297 0.69381 0.62295
 C2039 C 0.25407 0.68159 0.61934
 C2040 C 0.26121 0.68777 0.59714
 C2041 C 0.24418 0.70351 0.58882
 O2042 O 0.22703 0.70729 0.60444
 H2043 H 0.26298 0.66919 0.63110
 H2044 H 0.27662 0.68101 0.58774
 C2045 C 0.20204 0.21564 1.12481
 C2046 C 0.18631 0.20624 1.10774
 C2047 C 0.19758 0.20900 1.08656
 C2048 C 0.21925 0.22001 1.09228
 O2049 O 0.22204 0.22420 1.11548
 H2050 H 0.16916 0.19752 1.11054
 H2051 H 0.19054 0.20429 1.06892
 C2052 C 0.74330 0.56718 0.12923
 C2053 C 0.76274 0.58202 0.13476
 C2054 C 0.77233 0.57361 0.15571
 C2055 C 0.75822 0.55419 0.16132
 O2056 O 0.74075 0.55033 0.14534
 H2057 H 0.76880 0.59759 0.12529
 H2058 H 0.78710 0.58135 0.16615
 C2059 C 0.73030 1.05695 0.62743
 C2060 C 0.74590 1.07562 0.63352
 C2061 C 0.75598 1.06969 0.65496
 C2062 C 0.74595 1.04787 0.66022
 O2063 O 0.73044 1.04013 0.64368
 H2064 H 0.74878 1.09220 0.62429
 H2065 H 0.76837 1.08037 0.66588
 C2066 C 0.52073 0.17916 0.62727
 C2067 C 0.50492 0.16158 0.63467
 C2068 C 0.49588 0.16979 0.65564
 C2069 C 0.50657 0.19179 0.65963
 O2070 O 0.52168 0.19757 0.64253
 H2071 H 0.50084 0.14437 0.62648
 H2072 H 0.48345 0.16052 0.66703
 C2073 C 1.03655 0.17768 0.13769
 C2074 C 1.02142 0.15917 0.14411
 C2075 C 1.01097 0.16679 0.16470
 C2076 C 1.02055 0.18925 0.16929
 O2077 O 1.03605 0.19582 0.15307
 H2078 H 1.01837 0.14212 0.13516
 H2079 H 0.99804 0.15711 0.17517
 C2080 C 0.62172 0.22893 0.68713
 C2081 C 0.61444 0.24451 0.66947
 C2082 C 0.59288 0.25309 0.67663
 C2083 C 0.58867 0.24229 0.69811
 O2084 O 0.60602 0.22765 0.70452
 H2085 H 0.62304 0.24847 0.65280
 H2086 H 0.58124 0.26513 0.66699
 C2087 C 1.12839 0.20832 0.23534
 C2088 C 1.12812 0.20622 0.25994
 C2089 C 1.10612 0.21363 0.26664
 C2090 C 1.09441 0.21999 0.24581
 O2091 O 1.10790 0.21698 0.22668
 H2092 H 1.14231 0.20022 0.27180
 H2093 H 1.09934 0.21426 0.28465
 C2094 C 0.12341 0.72697 0.55280
 C2095 C 0.13014 0.74645 0.56700
 C2096 C 0.15137 0.75440 0.55802
 C2097 C 0.15600 0.73941 0.53890
 O2098 O 0.13912 0.72283 0.53570
 H2099 H 0.12130 0.75363 0.58255
 H2100 H 0.16257 0.76888 0.56507
 C2101 C 0.13390 0.23687 1.07087
 C2102 C 0.14005 0.25360 1.08851
 C2103 C 0.15927 0.26585 1.07995
 C2104 C 0.16328 0.25588 1.05773
 O2105 O 0.14802 0.23838 1.05223
 H2106 H 0.13242 0.25598 1.10600
 H2107 H 0.16985 0.27952 1.08927
 C2108 C 0.63564 0.56064 0.18494
 C2109 C 0.64877 0.55667 0.16454
 C2110 C 0.67073 0.54963 0.17242
 C2111 C 0.66959 0.55003 0.19702
 O2112 O 0.64838 0.55687 0.20478
 H2113 H 0.64307 0.55842 0.14606
 H2114 H 0.68572 0.54434 0.16153
 C2115 C 0.62889 1.01656 0.68539
 C2116 C 0.63611 1.00093 0.66755
 C2117 C 0.65780 0.99248 0.67513
 C2118 C 0.66216 1.00339 0.69705
 O2119 O 0.64475 1.01797 0.70328
 H2120 H 0.62730 0.99684 0.65058
 H2121 H 0.66940 0.98040 0.66552
 C2122 C 0.85778 0.45580 0.32261
 C2123 C 0.84764 0.46436 0.34344
 C2124 C 0.82674 0.47470 0.33654
 C2125 C 0.82534 0.47156 0.31209
 O2126 O 0.84403 0.45995 0.30351
 H2127 H 0.85447 0.46330 0.36162
 H2128 H 0.81400 0.48358 0.34797
 C2129 C 0.87192 0.97571 0.82077
 C2130 C 0.86491 0.99142 0.83860
 C2131 C 0.84419 1.00141 0.83028
 C2132 C 0.84014 0.99122 0.80796
 O2133 O 0.85683 0.97563 0.80219
 H2134 H 0.87322 0.99465 0.85596
 H2135 H 0.83302 1.01409 0.83962
 C2136 C 0.37788 0.26786 0.81393
 C2137 C 0.38515 0.25229 0.83157
 C2138 C 0.40617 0.24286 0.82387
 C2139 C 0.41015 0.25317 0.80208
 O2140 O 0.39311 0.26834 0.79601
 H2141 H 0.37688 0.24886 0.84854
 H2142 H 0.41761 0.23050 0.83334
 C2143 C 0.86576 0.30212 0.26731
 C2144 C 0.86573 0.30731 0.24325
 C2145 C 0.88650 0.29824 0.23483
 C2146 C 0.89777 0.28807 0.25426
 O2147 O 0.88518 0.29024 0.27407
 H2148 H 0.85219 0.31662 0.23299
 H2149 H 0.89291 0.29928 0.21671
 C2150 C 0.36538 0.75891 0.42527
 C2151 C 0.35941 0.74232 0.40744
 C2152 C 0.34061 0.72935 0.41603
 C2153 C 0.33664 0.73877 0.43848
 O2154 O 0.35154 0.75662 0.44407
 H2155 H 0.36694 0.74038 0.38985
 H2156 H 0.33029 0.71555 0.40661
 C2157 C 0.37552 0.27040 0.94275
 C2158 C 0.36851 0.25177 0.92756
 C2159 C 0.34725 0.24357 0.93619
 C2160 C 0.34292 0.25760 0.95609
 O2161 O 0.35998 0.27380 0.96012
 H2162 H 0.37713 0.24539 0.91155
 H2163 H 0.33583 0.22962 0.92843
 C2164 C 0.75558 0.44166 0.37232
 C2165 C 0.73479 0.42906 0.36629
 C2166 C 0.72446 0.44123 0.34779
 C2167 C 0.73953 0.46048 0.34395
 O2168 O 0.75833 0.46070 0.35875
 H2169 H 0.72823 0.41262 0.37383
 H2170 H 0.70847 0.43607 0.33759
 C2171 C 0.77554 0.93736 0.87257
 C2172 C 0.75913 0.91968 0.86579
 C2173 C 0.74917 0.92710 0.84479
 C2174 C 0.76008 0.94877 0.84038
 O2175 O 0.77603 0.95502 0.85712
 H2176 H 0.75553 0.90286 0.87435
 H2177 H 0.73616 0.91749 0.83359
 C2178 C 0.28989 0.77411 0.36605
 C2179 C 0.29182 0.75004 0.36117
 C2180 C 0.27985 0.73918 0.37887
 C2181 C 0.27150 0.75738 0.39343
 O2182 O 0.27750 0.77875 0.38563
 H2183 H 0.30050 0.74142 0.34622
 H2184 H 0.27808 0.72009 0.38131
 C2185 C 0.27028 0.31116 0.87790
 C2186 C 0.25170 0.32663 0.88290
 C2187 C 0.24383 0.32035 0.90481
 C2188 C 0.25789 0.30141 0.91157
 O2189 O 0.27390 0.29572 0.89532
 H2190 H 0.24498 0.34124 0.87238
 H2191 H 0.22986 0.32894 0.91496
 C2192 C 0.47799 0.31394 0.87034
 C2193 C 0.49294 0.33178 0.86207
 C2194 C 0.50099 0.32359 0.84068
 C2195 C 0.49053 0.30134 0.83736
 O2196 O 0.47654 0.29541 0.85525
 H2197 H 0.49703 0.34908 0.87005
 H2198 H 0.51268 0.33297 0.82865
 C2199 C 0.95509 0.32453 0.36019
 C2200 C 0.96947 0.34352 0.35354
 C2201 C 0.97880 0.33681 0.33211
 C2202 C 0.96930 0.31437 0.32732
 O2203 O 0.95494 0.30697 0.34417
 H2204 H 0.97311 0.36009 0.36313
 H2205 H 0.99126 0.34687 0.32144
 C2206 C 0.43083 0.36428 0.77374
 C2207 C 0.41205 0.35632 0.75904
 C2208 C 0.41969 0.33539 0.74909
 C2209 C 0.44255 0.33219 0.75829
 O2210 O 0.44931 0.34959 0.77323
 H2211 H 0.39453 0.36415 0.75651
 H2212 H 0.40955 0.32353 0.73713
 C2213 C 0.94524 0.37701 0.25954
 C2214 C 0.93339 0.37522 0.23761
 C2215 C 0.94361 0.35633 0.22599
 C2216 C 0.96110 0.34815 0.24150
 O2217 O 0.96213 0.36068 0.26172
 H2218 H 0.91841 0.38562 0.23115
 H2219 H 0.93800 0.34856 0.20893
 C2220 C 0.31304 0.85351 0.45513
 C2221 C 0.33366 0.84386 0.46514
 C2222 C 0.32707 0.82212 0.47344
 C2223 C 0.30296 0.81972 0.46789
 O2224 O 0.29434 0.83865 0.45660
 H2225 H 0.35161 0.85144 0.46609
 H2226 H 0.33857 0.80939 0.48231
 C2227 C 0.32158 0.37871 0.98018
 C2228 C 0.33932 0.37201 0.99633
 C2229 C 0.33117 0.35128 1.00595
 C2230 C 0.30910 0.34693 0.99509
 O2231 O 0.30325 0.36346 0.97953
 H2232 H 0.35653 0.38050 1.00012
 H2233 H 0.34050 0.34029 1.01880
 C2234 C 0.76159 0.37890 0.29017
 C2235 C 0.73696 0.37755 0.29239
 C2236 C 0.72856 0.39809 0.28297
 C2237 C 0.74869 0.41037 0.27567
 O2238 O 0.76879 0.39872 0.27986
 H2239 H 0.72642 0.36342 0.30021
 H2240 H 0.71006 0.40390 0.28237
   
