data_POSCAR
  _audit_creation_date              2014-09-24
  _audit_creation_method            'ToBaCCo'
  _symmetry_space_group_name_H-M    'P1'
  _symmetry_Int_Tables_number       1
  _symmetry_cell_setting            triclinic
  loop_
  _symmetry_equiv_pos_as_xyz
 x,y,z
_cell_length_a 68.0448
_cell_length_b 67.9275
_cell_length_c 67.9273
_cell_angle_alpha 90.034100
_cell_angle_beta 90.076100
_cell_angle_gamma 89.988600
loop_
  _atom_site_label
  _atom_site_type_symbol
  _atom_site_fract_x
  _atom_site_fract_y
  _atom_site_fract_z
C1 C 0.30714 0.44372 0.91876
 C2 C 0.32418 0.45199 0.92689
 C3 C 0.33255 0.44381 0.94389
 C4 C 0.32381 0.42737 0.95277
 C5 C 0.30677 0.41911 0.94464
 C6 C 0.29843 0.42730 0.92765
 H7 H 0.33106 0.46452 0.91980
 H8 H 0.33042 0.42079 0.96574
 H9 H 0.28544 0.42069 0.92116
 C10 C 0.44490 0.83070 0.44513
 C11 C 0.45303 0.82269 0.42794
 C12 C 0.44452 0.80604 0.41922
 C13 C 0.42791 0.79735 0.42774
 C14 C 0.41975 0.80533 0.44491
 C15 C 0.42827 0.82198 0.45362
 H16 H 0.46571 0.82958 0.42114
 H17 H 0.42112 0.78466 0.42081
 H18 H 0.42172 0.82833 0.46673
 C19 C 0.94242 0.91877 0.80728
 C20 C 0.95102 0.92705 0.82412
 C21 C 0.94275 0.94388 0.83275
 C22 C 0.92589 0.95242 0.82448
 C23 C 0.91730 0.94414 0.80765
 C24 C 0.92558 0.92733 0.79905
 H25 H 0.96389 0.92022 0.83063
 H26 H 0.91927 0.96527 0.83128
 H27 H 0.91876 0.92074 0.78620
 C28 C 0.44467 -0.08080 0.30492
 C29 C 0.45350 -0.07207 0.32139
 C30 C 0.44522 -0.05519 0.32982
 C31 C 0.42813 -0.04698 0.32173
 C32 C 0.41929 -0.05571 0.30526
 C33 C 0.42759 -0.07259 0.29683
 H34 H 0.46651 -0.07865 0.32788
 H35 H 0.42150 -0.03413 0.32849
 H36 H 0.42056 -0.07956 0.28430
 C37 C 0.80583 0.30536 0.33003
 C38 C 0.82282 0.29702 0.32191
 C39 C 0.83169 0.30570 0.30547
 C40 C 0.82352 0.32268 0.29710
 C41 C 0.80653 0.33103 0.30520
 C42 C 0.79767 0.32234 0.32165
 H43 H 0.82934 0.28408 0.32860
 H44 H 0.83058 0.32959 0.28457
 H45 H 0.78472 0.32900 0.32815
 C46 C -0.19376 0.83337 0.80667
 C47 C -0.17671 0.82508 0.79857
 C48 C -0.16844 0.80816 0.80696
 C49 C -0.17725 0.79946 0.82344
 C50 C -0.19430 0.80770 0.83158
 C51 C -0.20256 0.82465 0.82317
 H52 H -0.16970 0.83194 0.78599
 H53 H -0.17064 0.78652 0.83008
 H54 H -0.21560 0.83121 0.82963
 C55 C 0.94593 0.32866 0.44550
 C56 C 0.92933 0.31992 0.45397
 C57 C 0.92092 0.30319 0.44532
 C58 C 0.92917 0.29515 0.42823
 C59 C 0.94577 0.30388 0.41973
 C60 C 0.95417 0.32061 0.42840
 H61 H 0.92272 0.32637 0.46698
 H62 H 0.92244 0.28243 0.42132
 H63 H 0.96680 0.32759 0.42162
 C64 C 0.44312 0.44292 0.83289
 C65 C 0.42629 0.45145 0.82455
 C66 C 0.41775 0.44313 0.80771
 C67 C 0.42607 0.42630 0.79917
 C68 C 0.44289 0.41776 0.80748
 C69 C 0.45142 0.42608 0.82432
 H70 H 0.41965 0.46430 0.83130
 H71 H 0.41929 0.41968 0.78631
 H72 H 0.46427 0.41926 0.83090
 C73 C 0.80541 0.92051 0.94460
 C74 C 0.82247 0.92876 0.95270
 C75 C 0.83123 0.94514 0.94378
 C76 C 0.82288 0.95331 0.92678
 C77 C 0.80583 0.94507 0.91867
 C78 C 0.79708 0.92869 0.92760
 H79 H 0.82913 0.92221 0.96565
 H80 H 0.82985 0.96578 0.91968
 H81 H 0.78408 0.92208 0.92112
 C82 C 0.30664 0.83149 0.30532
 C83 C 0.32364 0.82302 0.29729
 C84 C 0.33174 0.80606 0.30579
 C85 C 0.32280 0.79752 0.32227
 C86 C 0.30582 0.80596 0.33031
 C87 C 0.29773 0.82292 0.32182
 H88 H 0.33077 0.82978 0.28471
 H89 H 0.32926 0.78459 0.32905
 H90 H 0.28476 0.82960 0.32827
 C91 C 0.80538 0.42010 0.44538
 C92 C 0.82205 0.42878 0.45385
 C93 C 0.83051 0.44549 0.44520
 C94 C 0.82222 0.45353 0.42809
 C95 C 0.80555 0.44485 0.41961
 C96 C 0.79713 0.42816 0.42828
 H97 H 0.82863 0.42230 0.46689
 H98 H 0.82892 0.46624 0.42115
 H99 H 0.78444 0.42123 0.42153
 C100 C 0.94411 0.83253 -0.05575
 C101 C 0.92760 0.82368 -0.04715
 C102 C 0.91946 0.80667 -0.05552
 C103 C 0.92786 0.79847 -0.07247
 C104 C 0.94434 0.80729 -0.08109
 C105 C 0.95249 0.82429 -0.07271
 H106 H 0.92086 0.83019 -0.03422
 H107 H 0.92135 0.78551 -0.07915
 H108 H 0.96506 0.83126 -0.07960
 C109 C 0.30617 0.33101 0.80549
 C110 C 0.29730 0.32236 0.82195
 C111 C 0.30542 0.30537 0.83035
 C112 C 0.32239 0.29699 0.82224
 C113 C 0.33129 0.30562 0.80578
 C114 C 0.32315 0.32262 0.79739
 H115 H 0.28436 0.32905 0.82843
 H116 H 0.32888 0.28404 0.82895
 H117 H 0.33021 0.32950 0.78485
 C118 C 0.16874 0.55593 0.55519
 C119 C 0.17735 0.54709 0.57172
 C120 C 0.19430 0.55525 0.58014
 C121 C 0.20267 0.57222 0.57200
 C122 C 0.19408 0.58108 0.55547
 C123 C 0.17713 0.57291 0.54705
 H124 H 0.17066 0.53415 0.57824
 H125 H 0.21558 0.57875 0.57873
 H126 H 0.17028 0.57995 0.53447
 C127 C 0.58062 0.69521 0.05422
 C128 C 0.57224 0.70390 0.07094
 C129 C 0.55517 0.69591 0.07923
 C130 C 0.54645 0.67925 0.07076
 C131 C 0.55481 0.67055 0.05405
 C132 C 0.57187 0.67855 0.04576
 H133 H 0.57921 0.71658 0.07771
 H134 H 0.53346 0.67283 0.07740
 H135 H 0.57855 0.67160 0.03305
 C136 C 0.69497 0.19512 0.66936
 C137 C 0.67834 0.20358 0.67807
 C138 C 0.67035 0.19533 0.69518
 C139 C 0.67905 0.17865 0.70362
 C140 C 0.69570 0.17016 0.69493
 C141 C 0.70367 0.17844 0.67781
 H142 H 0.67139 0.21627 0.67132
 H143 H 0.67260 0.17207 0.71666
 H144 H 0.71635 0.17172 0.67083
 C145 C 1.07872 0.05262 0.19602
 C146 C 1.07024 0.06946 0.20435
 C147 C 1.05350 0.07789 0.19580
 C148 C 1.04518 0.06942 0.17892
 C149 C 1.05364 0.05256 0.17055
 C150 C 1.07040 0.04415 0.17914
 H151 H 1.07692 0.07625 0.21718
 H152 H 1.03244 0.07621 0.17210
 H153 H 1.07723 0.03134 0.17248
 C154 C 0.05447 0.17116 1.05452
 C155 C 0.07153 0.17925 1.04631
 C156 C 0.08018 0.19592 1.05484
 C157 C 0.07173 0.20454 1.07155
 C158 C 0.05465 0.19646 1.07978
 C159 C 0.04602 0.17978 1.07122
 H160 H 0.07829 0.17235 1.03361
 H161 H 0.07867 0.21723 1.07834
 H162 H 0.03303 0.17325 1.07777
 C163 C 0.16982 0.69570 0.69539
 C164 C 0.17856 0.67912 0.70400
 C165 C 0.19519 0.67058 0.69537
 C166 C 0.20313 0.67866 0.67816
 C167 C 0.19441 0.69523 0.66953
 C168 C 0.17777 0.70377 0.67818
 H169 H 0.17219 0.67265 0.71711
 H170 H 0.21579 0.67183 0.67128
 H171 H 0.17081 0.71639 0.67131
 C172 C 1.19635 0.17022 0.19571
 C173 C 1.20429 0.17842 0.17856
 C174 C 1.19563 0.19512 0.17012
 C175 C 1.17907 0.20366 0.17888
 C176 C 1.17112 0.19546 0.19604
 C177 C 1.17979 0.17876 0.20446
 H178 H 1.21687 0.17157 0.17156
 H179 H 1.17213 0.21635 0.17213
 H180 H 1.17339 0.17217 0.21750
 C181 C 0.66761 1.05699 0.55505
 C182 C 0.67602 1.07397 0.54687
 C183 C 0.69306 1.08210 0.55520
 C184 C 0.70171 1.07319 0.57169
 C185 C 0.69333 1.05623 0.57987
 C186 C 0.67631 1.04812 0.57154
 H187 H 0.66913 1.08101 0.53429
 H188 H 0.71470 1.07961 0.57838
 H189 H 0.66968 1.03517 0.57810
 C190 C 0.55365 0.55289 0.17162
 C191 C 0.54508 0.56968 0.18000
 C192 C 0.55341 0.57824 0.19682
 C193 C 0.57026 0.56997 0.20531
 C194 C 0.57885 0.55319 0.19695
 C195 C 0.57051 0.54463 0.18013
 H196 H 0.53228 0.57632 0.17318
 H197 H 0.57695 0.57684 0.21809
 H198 H 0.57738 0.53189 0.17341
 C199 C 0.67087 0.69588 0.19531
 C200 C 0.67880 0.70411 0.17815
 C201 C 0.69546 0.69567 0.16944
 C202 C 0.70421 0.67905 0.17794
 C203 C 0.69629 0.67082 0.19509
 C204 C 0.67964 0.67926 0.20378
 H205 H 0.67180 0.71675 0.17138
 H206 H 0.71688 0.67229 0.17100
 H207 H 0.67327 0.67266 0.21684
 C208 C 0.16999 0.05434 1.05371
 C209 C 0.17851 0.04549 1.07030
 C210 C 0.19519 0.05385 1.07905
 C211 C 0.20342 0.07102 1.07117
 C212 C 0.19494 0.07989 1.05459
 C213 C 0.17825 0.07153 1.04585
 H214 H 0.17195 0.03240 1.07666
 H215 H 0.21612 0.07770 1.07816
 H216 H 0.17150 0.07863 1.03323
 C217 C 0.58116 0.19446 0.55508
 C218 C 0.57285 0.17742 0.54695
 C219 C 0.55585 0.16930 0.55525
 C220 C 0.54713 0.17825 0.57163
 C221 C 0.55543 0.19529 0.57976
 C222 C 0.57243 0.20340 0.57147
 H223 H 0.57981 0.17029 0.53449
 H224 H 0.53418 0.17175 0.57828
 H225 H 0.57907 0.21638 0.57799
 C226 C 0.07977 0.55521 0.69524
 C227 C 0.07102 0.57185 0.70372
 C228 C 0.05440 0.58034 0.69498
 C229 C 0.04648 0.57214 0.67778
 C230 C 0.05521 0.55550 0.66928
 C231 C 0.07184 0.54702 0.67804
 H232 H 0.07737 0.57841 0.71683
 H233 H 0.03383 0.57891 0.67081
 H234 H 0.07880 0.53436 0.67127
 C235 C 0.67056 0.55502 0.05406
 C236 C 0.67915 0.54636 0.07069
 C237 C 0.69576 0.55492 0.07938
 C238 C 0.70383 0.57212 0.07138
 C239 C 0.69526 0.58079 0.05474
 C240 C 0.67864 0.57221 0.04607
 H241 H 0.67267 0.53327 0.07711
 H242 H 0.71648 0.57895 0.07831
 H243 H 0.67179 0.57911 0.03341
 C244 C 0.05548 0.69467 0.58039
 C245 C 0.07245 0.70279 0.57202
 C246 C 0.08110 0.69387 0.55556
 C247 C 0.07273 0.67685 0.54745
 C248 C 0.05576 0.66871 0.55580
 C249 C 0.04713 0.67765 0.57225
 H250 H 0.07911 0.71577 0.57851
 H251 H 0.07960 0.66976 0.53490
 H252 H 0.03419 0.67117 0.57893
 C253 C 0.55442 1.05536 0.66877
 C254 C 0.54576 1.07206 0.67726
 C255 C 0.55379 1.08033 0.69440
 C256 C 0.57046 1.07182 0.70307
 C257 C 0.57912 1.05513 0.69460
 C258 C 0.57108 1.04689 0.67749
 H259 H 0.53305 1.07883 0.67033
 H260 H 0.57694 1.07838 0.71612
 H261 H 0.57803 1.03417 0.67077
 C262 C 0.44418 0.33060 0.94453
 C263 C 0.45247 0.32250 0.92748
 C264 C 0.44435 0.30551 0.91907
 C265 C 0.42796 0.29658 0.92775
 C266 C 0.41966 0.30466 0.94480
 C267 C 0.42779 0.32165 0.95320
 H268 H 0.46496 0.32961 0.92057
 H269 H 0.42145 0.28363 0.92104
 H270 H 0.42114 0.32811 0.96619
 C271 C 0.94484 0.44377 0.33088
 C272 C 0.92784 0.45213 0.32273
 C273 C 0.91898 0.44350 0.30622
 C274 C 0.92715 0.42655 0.29780
 C275 C 0.94414 0.41817 0.30591
 C276 C 0.95300 0.42680 0.32243
 H277 H 0.92128 0.46506 0.32942
 H278 H 0.92010 0.41968 0.28522
 H279 H 0.96597 0.42008 0.32889
 C280 C 0.30444 0.94546 0.41992
 C281 C 0.29590 0.92889 0.42869
 C282 C 0.30406 0.92092 0.44587
 C283 C 0.32075 0.92957 0.45432
 C284 C 0.32931 0.94615 0.44557
 C285 C 0.32113 0.95411 0.42839
 H286 H 0.28321 0.92196 0.42193
 H287 H 0.32731 0.92316 0.46739
 H288 H 0.32798 0.96671 0.42140
 O289 O 0.19760 0.52576 0.74917
 O290 O 0.20400 0.52303 0.78282
 O291 O 0.24894 0.55274 0.72537
 O292 O 0.28135 0.54697 0.72468
 O293 O 0.22452 0.50125 0.69781
 O294 O 0.22599 0.46691 0.70499
 O295 O 0.30127 0.49914 0.77610
 O296 O 0.29584 0.53272 0.77217
 O297 O 0.25176 0.47471 0.80159
 O298 O 0.21628 0.47605 0.79499
 O299 O 0.27536 0.44883 0.75159
 O300 O 0.27427 0.45557 0.71640
 O301 O 0.30125 0.47544 0.75243
 O302 O 0.29409 0.47763 0.71581
 O303 O 0.25179 0.44861 0.77521
 O304 O 0.21552 0.45597 0.77309
 O305 O 0.27563 0.49807 0.80147
 O306 O 0.26903 0.53373 0.79528
 O307 O 0.19736 0.50171 0.72580
 O308 O 0.20469 0.46673 0.72737
 O309 O 0.24814 0.52490 0.69767
 O310 O 0.28372 0.52178 0.70558
 O311 O 0.22499 0.55264 0.74867
 O312 O 0.22952 0.54488 0.78416
 Zr313 Zr 0.22615 0.52419 0.76097
 O314 O 0.24332 0.50656 0.77981
 Zr315 Zr 0.26045 0.52400 0.72613
 O316 O 0.27935 0.50695 0.74380
 Zr317 Zr 0.22586 0.48948 0.72643
 O318 O 0.24346 0.47056 0.74357
 Zr319 Zr 0.27312 0.51149 0.77370
 O320 O 0.25604 0.53071 0.75610
 Zr321 Zr 0.23879 0.47666 0.77351
 O322 O 0.21964 0.49420 0.75635
 Zr323 Zr 0.27333 0.47701 0.73899
 O324 O 0.25571 0.49406 0.71970
 O325 O 0.23080 0.51923 0.73115
 O326 O 0.26857 0.48156 0.76886
 C327 C 0.18907 0.51571 0.73554
 C328 C 0.23503 0.56111 0.73506
 C329 C 0.23433 0.51501 0.68932
 C330 C 0.30945 0.48493 0.76665
 C331 C 0.26610 0.48399 0.80971
 C332 C 0.26594 0.44049 0.76568
 H333 H 0.24027 0.50976 0.79368
 H334 H 0.24034 0.45674 0.74027
 H335 H 0.22240 0.52765 0.72276
 H336 H 0.29318 0.51029 0.74087
 H337 H 0.28959 0.54522 0.76803
 H338 H 0.29151 0.54403 0.73467
 H339 H 0.21783 0.44682 0.76200
 H340 H 0.19804 0.46781 0.74028
 H341 H 0.28027 0.53312 0.80456
 H342 H 0.21908 0.55502 0.78296
 H343 H 0.26186 0.44801 0.71697
 H344 H 0.23915 0.46721 0.69880
 H345 H 0.19850 0.50955 0.78250
 H346 H 0.21742 0.48817 0.80298
 H347 H 0.28136 0.50969 0.69778
 H348 H 0.30346 0.48844 0.71850
 O349 O 0.24867 0.05141 0.22394
 O350 O 0.28223 0.04514 0.22651
 O351 O 0.22494 -0.00020 0.19697
 O352 O 0.22452 -0.03268 0.20278
 O353 O 0.19746 0.02418 0.24842
 O354 O 0.20468 0.02284 0.28273
 O355 O 0.27600 -0.05222 0.25063
 O356 O 0.27202 -0.04690 0.21709
 O357 O 0.30126 -0.00232 0.27496
 O358 O 0.29444 0.03317 0.27354
 O359 O 0.25152 -0.02619 0.30098
 O360 O 0.21637 -0.02541 0.29419
 O361 O 0.25243 -0.05229 0.27435
 O362 O 0.21589 -0.04537 0.27224
 O363 O 0.27494 -0.00239 0.30111
 O364 O 0.27269 0.03382 0.29364
 O365 O 0.30124 -0.02632 0.25166
 O366 O 0.29490 -0.01989 0.21599
 O367 O 0.22537 0.05158 0.24798
 O368 O 0.22689 0.04428 0.28293
 O369 O 0.19736 0.00043 0.22484
 O370 O 0.20547 -0.03512 0.22797
 O371 O 0.24811 0.02391 0.19704
 O372 O 0.28357 0.01952 0.20474
 Zr373 Zr 0.26048 0.02286 0.22546
 O374 O 0.27941 0.00584 0.24313
 Zr375 Zr 0.22586 -0.01169 0.22572
 O376 O 0.24364 -0.03046 0.24282
 Zr377 Zr 0.22606 0.02303 0.26018
 O378 O 0.24330 0.00558 0.27913
 Zr379 Zr 0.27346 -0.02406 0.23826
 O380 O 0.25574 -0.00713 0.21901
 Zr381 Zr 0.27315 0.01045 0.27301
 O382 O 0.25589 0.02945 0.25543
 Zr383 Zr 0.23890 -0.02439 0.27276
 O384 O 0.21950 -0.00692 0.25567
 O385 O 0.23073 0.01806 0.23044
 O386 O 0.26868 -0.01945 0.26820
 C387 C 0.23510 0.05992 0.23403
 C388 C 0.23455 0.01377 0.18858
 C389 C 0.18898 0.01423 0.23472
 C390 C 0.26661 -0.06045 0.26482
 C391 C 0.30945 -0.01663 0.26569
 C392 C 0.26551 -0.01656 0.30930
 H393 H 0.29323 0.00899 0.23991
 H394 H 0.24002 0.00874 0.29294
 H395 H 0.22230 0.02643 0.22202
 H396 H 0.24077 -0.04434 0.23951
 H397 H 0.26780 -0.04072 0.20459
 H398 H 0.23450 -0.04282 0.20578
 H399 H 0.26160 0.03152 0.30274
 H400 H 0.23974 0.05101 0.28188
 H401 H 0.30425 -0.03107 0.21663
 H402 H 0.28230 0.02994 0.19458
 H403 H 0.21689 -0.01296 0.30172
 H404 H 0.19859 0.00960 0.28248
 H405 H 0.28198 0.05065 0.24000
 H406 H 0.30248 0.03197 0.26148
 H407 H 0.19775 -0.03282 0.24010
 H408 H 0.21852 -0.05469 0.26137
 O409 O 0.55275 0.72428 0.24898
 O410 O 0.54644 0.72701 0.28262
 O411 O 0.50126 0.69725 0.22523
 O412 O 0.46890 0.70309 0.22436
 O413 O 0.52572 0.74877 0.19765
 O414 O 0.52424 0.78310 0.20485
 O415 O 0.44910 0.75089 0.27585
 O416 O 0.45456 0.71733 0.27200
 O417 O 0.49872 0.77537 0.30143
 O418 O 0.53415 0.77401 0.29486
 O419 O 0.47503 0.80121 0.25140
 O420 O 0.47601 0.79445 0.21623
 O421 O 0.44908 0.77456 0.25217
 O422 O 0.45619 0.77240 0.21561
 O423 O 0.49868 0.80144 0.27501
 O424 O 0.53492 0.79402 0.27296
 O425 O 0.47481 0.75205 0.30130
 O426 O 0.48141 0.71636 0.29510
 O427 O 0.55292 0.74836 0.22567
 O428 O 0.54558 0.78330 0.22720
 O429 O 0.50213 0.72509 0.19746
 O430 O 0.46653 0.72826 0.20537
 O431 O 0.52529 0.69736 0.24851
 O432 O 0.52092 0.70518 0.28398
 Zr433 Zr 0.52422 0.72584 0.26078
 O434 O 0.50709 0.74349 0.27963
 Zr435 Zr 0.48984 0.72602 0.22591
 O436 O 0.47099 0.74308 0.24360
 Zr437 Zr 0.52442 0.76054 0.22626
 O438 O 0.50688 0.77946 0.24341
 Zr439 Zr 0.47727 0.73858 0.27352
 O440 O 0.49431 0.71935 0.25589
 Zr441 Zr 0.51161 0.77338 0.27336
 O442 O 0.53072 0.75583 0.25619
 Zr443 Zr 0.47700 0.77301 0.23881
 O444 O 0.49456 0.75596 0.21951
 O445 O 0.51951 0.73078 0.23096
 O446 O 0.48181 0.76850 0.26869
 C447 C 0.56124 0.73437 0.23539
 C448 C 0.51516 0.68886 0.23495
 C449 C 0.51590 0.73501 0.18913
 C450 C 0.44089 0.76506 0.26635
 C451 C 0.48438 0.76612 0.30956
 C452 C 0.48453 0.80957 0.26546
 H453 H 0.51017 0.74029 0.29350
 H454 H 0.51000 0.79328 0.24012
 H455 H 0.52789 0.72234 0.22257
 H456 H 0.45716 0.73973 0.24066
 H457 H 0.46081 0.70483 0.26784
 H458 H 0.45887 0.70592 0.23448
 H459 H 0.53260 0.80316 0.26187
 H460 H 0.55226 0.78224 0.24011
 H461 H 0.47020 0.71700 0.30439
 H462 H 0.53136 0.69505 0.28278
 H463 H 0.48843 0.80198 0.21679
 H464 H 0.51107 0.78278 0.19863
 H465 H 0.55192 0.74050 0.28232
 H466 H 0.53305 0.76187 0.30281
 H467 H 0.46891 0.74030 0.19753
 H468 H 0.44688 0.76154 0.21823
 O469 O 0.00062 0.69835 0.72435
 O470 O -0.03297 0.70476 0.72701
 O471 O 0.02446 0.74975 0.69737
 O472 O 0.02498 0.78225 0.70308
 O473 O 0.05194 0.72540 0.74882
 O474 O 0.04478 0.72689 0.78318
 O475 O -0.02621 0.80219 0.75096
 O476 O -0.02235 0.79672 0.71736
 O477 O -0.05165 0.75259 0.77543
 O478 O -0.04507 0.71702 0.77400
 O479 O -0.00174 0.77626 0.80126
 O480 O 0.03342 0.77517 0.79451
 O481 O -0.00256 0.80219 0.77466
 O482 O 0.03396 0.79508 0.77250
 O483 O -0.02530 0.75260 0.80148
 O484 O -0.02321 0.71628 0.79409
 O485 O -0.05155 0.77652 0.75209
 O486 O -0.04544 0.76986 0.71640
 O487 O 0.02398 0.69816 0.74839
 O488 O 0.02248 0.70550 0.78335
 O489 O 0.05207 0.74908 0.72520
 O490 O 0.04414 0.78469 0.72828
 O491 O 0.00120 0.72573 0.69746
 O492 O -0.03426 0.73033 0.70515
 Zr493 Zr -0.01114 0.72695 0.72588
 O494 O -0.02994 0.74413 0.74352
 Zr495 Zr 0.02364 0.76135 0.72608
 O496 O 0.00601 0.78026 0.74315
 Zr497 Zr 0.02338 0.72671 0.76060
 O498 O 0.00626 0.74431 0.77953
 Zr499 Zr -0.02385 0.77398 0.73861
 O500 O -0.00628 0.75690 0.71938
 Zr501 Zr -0.02363 0.73959 0.77342
 O502 O -0.00650 0.72044 0.75587
 Zr503 Zr 0.01083 0.77423 0.77308
 O504 O 0.03008 0.75662 0.75602
 O505 O 0.01863 0.73164 0.73086
 O506 O -0.01899 0.76943 0.76854
 C507 C 0.01424 0.68983 0.73440
 C508 C 0.01482 0.73576 0.68900
 C509 C 0.06041 0.73525 0.73508
 C510 C -0.01676 0.81039 0.76517
 C511 C -0.05975 0.76698 0.76619
 C512 C -0.01579 0.76679 0.80960
 H513 H -0.04379 0.74106 0.74032
 H514 H 0.00957 0.74119 0.79335
 H515 H 0.02702 0.72322 0.72246
 H516 H 0.00893 0.79411 0.73981
 H517 H -0.01824 0.79045 0.70486
 H518 H 0.01508 0.79247 0.70608
 H519 H -0.01212 0.71860 0.80323
 H520 H 0.00958 0.69885 0.78229
 H521 H -0.05471 0.78111 0.71703
 H522 H -0.03306 0.71987 0.69502
 H523 H 0.03280 0.76278 0.80212
 H524 H 0.05097 0.74008 0.78287
 H525 H -0.03268 0.69928 0.74050
 H526 H -0.05312 0.71823 0.76192
 H527 H 0.05192 0.78237 0.74039
 H528 H 0.03130 0.80442 0.76165
 O529 O 0.00162 0.05271 0.02555
 O530 O -0.03196 0.04646 0.02296
 O531 O 0.02532 0.00101 0.05234
 O532 O 0.02601 -0.03140 0.04638
 O533 O 0.05274 0.02561 0.00086
 O534 O 0.04545 0.02424 -0.03345
 O535 O -0.02564 -0.05094 -0.00130
 O536 O -0.02164 -0.04560 0.03225
 O537 O -0.05108 -0.00100 -0.02548
 O538 O -0.04426 0.03448 -0.02406
 O539 O -0.00148 -0.02500 -0.05159
 O540 O 0.03373 -0.02401 -0.04506
 O541 O -0.00207 -0.05099 -0.02502
 O542 O 0.03447 -0.04389 -0.02303
 O543 O -0.02495 -0.00124 -0.05164
 O544 O -0.02255 0.03508 -0.04425
 O545 O -0.05094 -0.02508 -0.00229
 O546 O -0.04458 -0.01863 0.03340
 O547 O 0.02483 0.05294 0.00143
 O548 O 0.02317 0.04566 -0.03356
 O549 O 0.05291 0.00188 0.02443
 O550 O 0.04489 -0.03374 0.02115
 O551 O 0.00216 0.02514 0.05238
 O552 O -0.03330 0.02082 0.04467
 Zr553 Zr -0.01022 0.02416 0.02395
 O554 O -0.02916 0.00713 0.00629
 Zr555 Zr 0.02446 -0.01035 0.02353
 O556 O 0.00667 -0.02913 0.00645
 Zr557 Zr 0.02412 0.02440 -0.01086
 O558 O 0.00686 0.00693 -0.02980
 Zr559 Zr -0.02315 -0.02277 0.01109
 O560 O -0.00541 -0.00583 0.03033
 Zr561 Zr -0.02298 0.01175 -0.02360
 O562 O -0.00571 0.03077 -0.00602
 Zr563 Zr 0.01135 -0.02304 -0.02348
 O564 O 0.03075 -0.00555 -0.00641
 O565 O 0.01952 0.01940 0.01889
 O566 O -0.01844 -0.01814 -0.01883
 C567 C 0.01516 0.06124 0.01546
 C568 C 0.01570 0.01494 0.06081
 C569 C 0.06125 0.01570 0.01455
 C570 C -0.01623 -0.05917 -0.01549
 C571 C -0.05921 -0.01538 -0.01626
 C572 C -0.01559 -0.01549 -0.05982
 H573 H -0.04297 0.01026 0.00955
 H574 H 0.01009 0.01007 -0.04363
 H575 H 0.02795 0.02776 0.02734
 H576 H 0.00958 -0.04300 0.00975
 H577 H -0.01741 -0.03940 0.04476
 H578 H 0.01588 -0.04144 0.04352
 H579 H -0.01158 0.03266 -0.05349
 H580 H 0.01029 0.05235 -0.03247
 H581 H -0.05391 -0.02982 0.03274
 H582 H -0.03202 0.03122 0.05486
 H583 H 0.03313 -0.01157 -0.05259
 H584 H 0.05151 0.01099 -0.03327
 H585 H -0.03170 0.05201 0.00949
 H586 H -0.05223 0.03332 -0.01195
 H587 H 0.05267 -0.03134 0.00909
 H588 H 0.03189 -0.05325 -0.01218
 O589 O -0.02562 0.44725 0.49867
 O590 O -0.02296 0.45369 0.53231
 O591 O -0.05262 0.49870 0.47476
 O592 O -0.04687 0.53116 0.47404
 O593 O -0.00125 0.47419 0.44733
 O594 O 0.03305 0.47575 0.45452
 O595 O 0.00086 0.55114 0.52553
 O596 O -0.03264 0.54568 0.52160
 O597 O 0.02526 0.50145 0.55114
 O598 O 0.02399 0.46596 0.54451
 O599 O 0.05110 0.52517 0.50115
 O600 O 0.04440 0.52409 0.46597
 O601 O 0.02448 0.55113 0.50186
 O602 O 0.02233 0.54390 0.46527
 O603 O 0.05133 0.50156 0.52479
 O604 O 0.04401 0.46522 0.52266
 O605 O 0.00196 0.52540 0.55097
 O606 O -0.03364 0.51882 0.54469
 O607 O -0.00159 0.44702 0.47537
 O608 O 0.03330 0.45442 0.47691
 O609 O -0.02486 0.49785 0.44712
 O610 O -0.02172 0.53352 0.45499
 O611 O -0.05251 0.47468 0.49805
 O612 O -0.04478 0.47926 0.53356
 Zr613 Zr -0.02411 0.47586 0.51043
 O614 O -0.00651 0.49307 0.52928
 Zr615 Zr -0.02394 0.51022 0.47556
 O616 O -0.00692 0.52915 0.49325
 Zr617 Zr 0.01055 0.47559 0.47594
 O618 O 0.02942 0.49321 0.49311
 Zr619 Zr -0.01144 0.52292 0.52316
 O620 O -0.03062 0.50581 0.50552
 Zr621 Zr 0.02334 0.48853 0.52304
 O622 O 0.00583 0.46935 0.50587
 Zr623 Zr 0.02297 0.52313 0.48850
 O624 O 0.00595 0.50549 0.46918
 O625 O -0.01915 0.48052 0.48062
 O626 O 0.01845 0.51837 0.51837
 C627 C -0.01554 0.43870 0.48510
 C628 C -0.06098 0.48475 0.48443
 C629 C -0.01500 0.48400 0.43881
 C630 C 0.01499 0.55935 0.51604
 C631 C 0.01599 0.51581 0.55926
 C632 C 0.05943 0.51573 0.51526
 H633 H -0.00970 0.48999 0.54315
 H634 H 0.04322 0.49009 0.48984
 H635 H -0.02756 0.47208 0.47223
 H636 H -0.01027 0.54300 0.49030
 H637 H -0.04511 0.53942 0.51742
 H638 H -0.04396 0.54132 0.48405
 H639 H 0.05316 0.46757 0.51161
 H640 H 0.03226 0.44777 0.48983
 H641 H -0.03302 0.53007 0.55398
 H642 H -0.05490 0.46880 0.53234
 H643 H 0.05190 0.51163 0.46651
 H644 H 0.03270 0.48892 0.44830
 H645 H -0.00950 0.44818 0.53203
 H646 H 0.01187 0.46706 0.55246
 H647 H -0.00969 0.53112 0.44718
 H648 H 0.01151 0.55326 0.46790
 O649 O 0.44772 -0.00129 0.47448
 O650 O 0.45401 0.03233 0.47705
 O651 O 0.49921 -0.02512 0.44759
 O652 O 0.53161 -0.02582 0.45347
 O653 O 0.47473 -0.05256 0.49903
 O654 O 0.47631 -0.04532 0.53339
 O655 O 0.55128 0.02592 0.50102
 O656 O 0.54586 0.02183 0.46752
 O657 O 0.50162 0.05140 0.52534
 O658 O 0.46612 0.04462 0.52395
 O659 O 0.52542 0.00162 0.55151
 O660 O 0.52460 -0.03351 0.54496
 O661 O 0.55138 0.00240 0.52485
 O662 O 0.54429 -0.03431 0.52279
 O663 O 0.50171 0.02514 0.55156
 O664 O 0.46556 0.02295 0.54421
 O665 O 0.52549 0.05124 0.50200
 O666 O 0.51894 0.04482 0.46636
 O667 O 0.44753 -0.02456 0.49860
 O668 O 0.45493 -0.02297 0.53358
 O669 O 0.49839 -0.05275 0.47544
 O670 O 0.53396 -0.04480 0.47873
 O671 O 0.47515 -0.00189 0.44761
 O672 O 0.47953 0.03362 0.45525
 Zr673 Zr 0.47624 0.01051 0.47601
 O674 O 0.49332 0.02946 0.49360
 Zr675 Zr 0.51065 -0.02428 0.47636
 O676 O 0.52948 -0.00647 0.49338
 Zr677 Zr 0.47606 -0.02392 0.51081
 O678 O 0.49358 -0.00663 0.52970
 Zr679 Zr 0.52313 0.02339 0.48871
 O680 O 0.50614 0.00565 0.46954
 Zr681 Zr 0.48879 0.02328 0.52350
 O682 O 0.46972 0.00598 0.50600
 Zr683 Zr 0.52349 -0.01113 0.52334
 O684 O 0.50595 -0.03057 0.50633
 O685 O 0.48098 -0.01928 0.48106
 O686 O 0.51861 0.01871 0.51867
 C687 C 0.43921 -0.01485 0.48459
 C688 C 0.48526 -0.01547 0.43917
 C689 C 0.48456 -0.06107 0.48528
 C690 C 0.55952 0.01656 0.51525
 C691 C 0.51590 0.05953 0.51602
 C692 C 0.51588 0.01570 0.55977
 H693 H 0.49020 0.04331 0.49034
 H694 H 0.49047 -0.00988 0.54353
 H695 H 0.47259 -0.02770 0.47264
 H696 H 0.54332 -0.00939 0.49007
 H697 H 0.53964 0.01758 0.45503
 H698 H 0.54171 -0.01578 0.45638
 H699 H 0.46782 0.01181 0.55329
 H700 H 0.44824 -0.01007 0.53250
 H701 H 0.53013 0.05416 0.46695
 H702 H 0.46909 0.03236 0.44511
 H703 H 0.51204 -0.03318 0.55225
 H704 H 0.48948 -0.05151 0.53305
 H705 H 0.44853 0.03208 0.49054
 H706 H 0.46735 0.05269 0.51190
 H707 H 0.53158 -0.05258 0.49081
 H708 H 0.55370 -0.03161 0.51203
 O709 O 0.50138 0.55220 0.02555
 O710 O 0.46780 0.54589 0.02294
 O711 O 0.52513 0.50064 0.05254
 O712 O 0.52589 0.46821 0.04670
 O713 O 0.55252 0.52508 0.00096
 O714 O 0.54524 0.52356 -0.03335
 O715 O 0.47434 0.44837 -0.00090
 O716 O 0.47828 0.45389 0.03264
 O717 O 0.44878 0.49813 -0.02533
 O718 O 0.45548 0.53365 -0.02401
 O719 O 0.49844 0.47420 -0.05130
 O720 O 0.53366 0.47529 -0.04474
 O721 O 0.49790 0.44830 -0.02462
 O722 O 0.53440 0.45546 -0.02268
 O723 O 0.47495 0.49794 -0.05146
 O724 O 0.47722 0.53427 -0.04416
 O725 O 0.44897 0.47414 -0.00206
 O726 O 0.45526 0.48080 0.03362
 O727 O 0.52458 0.55236 0.00141
 O728 O 0.52294 0.54496 -0.03353
 O729 O 0.55274 0.50147 0.02464
 O730 O 0.54480 0.46582 0.02150
 O731 O 0.50193 0.52472 0.05248
 O732 O 0.46648 0.52034 0.04477
 Zr733 Zr 0.48957 0.52363 0.02404
 O734 O 0.47066 0.50648 0.00645
 Zr735 Zr 0.52432 0.48918 0.02378
 O736 O 0.50657 0.47030 0.00676
 Zr737 Zr 0.52392 0.52379 -0.01075
 O738 O 0.50669 0.50621 -0.02963
 Zr739 Zr 0.47673 0.47661 0.01136
 O740 O 0.49443 0.49367 0.03054
 Zr741 Zr 0.47684 0.51100 -0.02345
 O742 O 0.49408 0.53012 -0.00595
 Zr743 Zr 0.51125 0.47628 -0.02319
 O744 O 0.53061 0.49387 -0.00618
 O745 O 0.51932 0.51889 0.01902
 O746 O 0.48145 0.48114 -0.01857
 C747 C 0.51492 0.56070 0.01542
 C748 C 0.51547 0.51458 0.06095
 C749 C 0.56105 0.51526 0.01471
 C750 C 0.48378 0.44011 -0.01506
 C751 C 0.44070 0.48376 -0.01609
 C752 C 0.48433 0.48368 -0.05959
 H753 H 0.45684 0.50958 0.00968
 H754 H 0.50992 0.50932 -0.04347
 H755 H 0.52773 0.52730 0.02743
 H756 H 0.50951 0.45644 0.01011
 H757 H 0.48248 0.46016 0.04512
 H758 H 0.51578 0.45815 0.04388
 H759 H 0.48821 0.53187 -0.05338
 H760 H 0.51005 0.55163 -0.03247
 H761 H 0.44596 0.46957 0.03300
 H762 H 0.46773 0.53079 0.05490
 H763 H 0.53300 0.48768 -0.05235
 H764 H 0.55135 0.51034 -0.03310
 H765 H 0.46805 0.55138 0.00945
 H766 H 0.44751 0.53251 -0.01189
 H767 H 0.55257 0.46819 0.00942
 H768 H 0.53187 0.44618 -0.01175
 O769 O 0.75162 0.27527 0.44738
 O770 O 0.71800 0.27280 0.45364
 O771 O 0.77555 0.30198 0.49893
 O772 O 0.77604 0.29614 0.53142
 O773 O 0.80269 0.25032 0.47450
 O774 O 0.79524 0.21605 0.47584
 O775 O 0.72446 0.24873 0.55106
 O776 O 0.72852 0.28222 0.54566
 O777 O 0.69880 0.22458 0.50111
 O778 O 0.70556 0.22592 0.46562
 O779 O 0.74831 0.19821 0.52507
 O780 O 0.78361 0.20460 0.52403
 O781 O 0.74793 0.22488 0.55109
 O782 O 0.78440 0.22655 0.54398
 O783 O 0.72485 0.19825 0.50128
 O784 O 0.72718 0.20561 0.46500
 O785 O 0.69907 0.24778 0.52520
 O786 O 0.70553 0.28342 0.51873
 O787 O 0.77478 0.25106 0.44716
 O788 O 0.77295 0.21608 0.45438
 O789 O 0.80296 0.27392 0.49823
 O790 O 0.79499 0.27083 0.53378
 O791 O 0.75229 0.30209 0.47488
 O792 O 0.71681 0.29461 0.47926
 Zr793 Zr 0.73980 0.27374 0.47591
 O794 O 0.72082 0.25621 0.49297
 Zr795 Zr 0.77452 0.27322 0.51041
 O796 O 0.75672 0.25624 0.52919
 Zr797 Zr 0.77402 0.23877 0.47567
 O798 O 0.75671 0.21993 0.49314
 Zr799 Zr 0.72690 0.26102 0.52286
 O800 O 0.74466 0.28016 0.50589
 Zr801 Zr 0.72689 0.22629 0.48834
 O802 O 0.74420 0.24374 0.46930
 Zr803 Zr 0.76126 0.22626 0.52311
 O804 O 0.78069 0.24323 0.50562
 O805 O 0.76952 0.26854 0.48068
 O806 O 0.73149 0.23106 0.51823
 C807 C 0.76516 0.26515 0.43886
 C808 C 0.76593 0.31046 0.48499
 C809 C 0.81126 0.26398 0.48442
 C810 C 0.73386 0.23452 0.55930
 C811 C 0.69073 0.23385 0.51549
 C812 C 0.73419 0.19003 0.51552
 H813 H 0.70701 0.25954 0.48984
 H814 H 0.75988 0.20609 0.48999
 H815 H 0.77799 0.27692 0.47232
 H816 H 0.75967 0.25953 0.54307
 H817 H 0.73279 0.29469 0.53945
 H818 H 0.76609 0.29320 0.54158
 H819 H 0.73817 0.19638 0.46735
 H820 H 0.76007 0.21725 0.44769
 H821 H 0.69622 0.28283 0.52993
 H822 H 0.71810 0.30474 0.46882
 H823 H 0.78286 0.19697 0.51165
 H824 H 0.80131 0.21620 0.48909
 H825 H 0.71827 0.25935 0.44803
 H826 H 0.69764 0.23808 0.46679
 H827 H 0.80265 0.25866 0.53146
 H828 H 0.78197 0.23753 0.55323
 O829 O 0.80226 0.75195 -0.02594
 O830 O 0.79597 0.71824 -0.02344
 O831 O 0.75088 0.77583 -0.05285
 O832 O 0.71840 0.77606 -0.04721
 O833 O 0.77506 0.80312 -0.00127
 O834 O 0.77365 0.79579 0.03304
 O835 O 0.69869 0.72462 0.00042
 O836 O 0.70415 0.72856 -0.03310
 O837 O 0.74850 0.69912 0.02481
 O838 O 0.78387 0.70587 0.02356
 O839 O 0.72459 0.74891 0.05092
 O840 O 0.72551 0.78416 0.04431
 O841 O 0.69862 0.74822 0.02419
 O842 O 0.70564 0.78476 0.02232
 O843 O 0.74833 0.72542 0.05105
 O844 O 0.78457 0.72771 0.04366
 O845 O 0.72453 0.69923 0.00151
 O846 O 0.73105 0.70557 -0.03413
 O847 O 0.80237 0.77524 -0.00180
 O848 O 0.79508 0.77352 0.03315
 O849 O 0.75139 0.80328 -0.02491
 O850 O 0.71590 0.79520 -0.02194
 O851 O 0.77494 0.75260 -0.05285
 O852 O 0.77044 0.71701 -0.04535
 Zr853 Zr 0.77376 0.74006 -0.02449
 O854 O 0.75671 0.72108 -0.00693
 Zr855 Zr 0.73928 0.77475 -0.02417
 O856 O 0.72051 0.75694 -0.00718
 Zr857 Zr 0.77388 0.77445 0.01039
 O858 O 0.75642 0.75716 0.02923
 Zr859 Zr 0.72687 0.72707 -0.01183
 O860 O 0.74383 0.74482 -0.03099
 Zr861 Zr 0.76125 0.72727 0.02300
 O862 O 0.78028 0.74457 0.00553
 Zr863 Zr 0.72652 0.76165 0.02278
 O864 O 0.74400 0.78108 0.00580
 O865 O 0.76895 0.76983 -0.01937
 O866 O 0.73142 0.73180 0.01813
 C867 C 0.81071 0.76558 -0.01583
 C868 C 0.76490 0.76628 -0.06124
 C869 C 0.76518 0.81163 -0.01498
 C870 C 0.69044 0.73407 0.01458
 C871 C 0.73419 0.69096 0.01551
 C872 C 0.73415 0.73487 0.05922
 H873 H 0.75985 0.70724 -0.01019
 H874 H 0.75954 0.76042 0.04306
 H875 H 0.77732 0.77831 -0.02772
 H876 H 0.70666 0.75985 -0.01053
 H877 H 0.71037 0.73280 -0.04556
 H878 H 0.70820 0.76617 -0.04419
 H879 H 0.78220 0.73874 0.05287
 H880 H 0.80182 0.76065 0.03202
 H881 H 0.71986 0.69624 -0.03354
 H882 H 0.78087 0.71830 -0.05546
 H883 H 0.73790 0.78356 0.05192
 H884 H 0.76045 0.80193 0.03276
 H885 H 0.80153 0.71854 -0.00997
 H886 H 0.78282 0.69799 0.01136
 H887 H 0.71817 0.80293 -0.00978
 H888 H 0.69640 0.78222 0.01136
 O889 O 1.00154 0.19703 0.22398
 O890 O 0.96798 0.20339 0.22650
 O891 O 1.02539 0.24868 0.19730
 O892 O 1.02600 0.28110 0.20323
 O893 O 1.05277 0.22406 0.24879
 O894 O 1.04548 0.22531 0.28309
 O895 O 0.97456 0.30074 0.25089
 O896 O 0.97851 0.29541 0.21734
 O897 O 0.94904 0.25094 0.27504
 O898 O 0.95568 0.21543 0.27355
 O899 O 0.99886 0.27456 0.30125
 O900 O 1.03398 0.27362 0.29464
 O901 O 0.99811 0.30067 0.27469
 O902 O 1.03464 0.29355 0.27270
 O903 O 0.97532 0.25087 0.30126
 O904 O 0.97746 0.21461 0.29369
 O905 O 0.94921 0.27497 0.25181
 O906 O 0.95549 0.26852 0.21615
 O907 O 1.02480 0.19674 0.24811
 O908 O 1.02320 0.20395 0.28309
 O909 O 1.05295 0.24786 0.22529
 O910 O 1.04497 0.28342 0.22848
 O911 O 1.00217 0.22462 0.19718
 O912 O 0.96670 0.22906 0.20481
 Zr913 Zr 0.98978 0.22562 0.22558
 O914 O 0.97090 0.24269 0.24324
 Zr915 Zr 1.02451 0.26006 0.22609
 O916 O 1.00680 0.27886 0.24317
 Zr917 Zr 1.02415 0.22526 0.26043
 O918 O 1.00696 0.24275 0.27937
 Zr919 Zr 0.97697 0.27257 0.23848
 O920 O 0.99463 0.25561 0.21924
 Zr921 Zr 0.97709 0.23803 0.27314
 O922 O 0.99430 0.21897 0.25556
 Zr923 Zr 1.01151 0.27271 0.27310
 O924 O 1.03084 0.25519 0.25603
 O925 O 1.01954 0.23031 0.23069
 O926 O 0.98170 0.26791 0.26842
 C927 C 1.01508 0.18846 0.23408
 C928 C 1.01575 0.23477 0.18881
 C929 C 1.06129 0.23403 0.23517
 C930 C 0.98398 0.30892 0.26514
 C931 C 0.94094 0.26532 0.26579
 C932 C 0.98481 0.26501 0.30951
 H933 H 0.95707 0.23961 0.23996
 H934 H 1.01022 0.23956 0.29319
 H935 H 1.02796 0.22194 0.22227
 H936 H 1.00973 0.29273 0.23990
 H937 H 0.98269 0.28921 0.20483
 H938 H 1.01599 0.29122 0.20616
 H939 H 0.98852 0.21688 0.30288
 H940 H 1.01031 0.19728 0.28196
 H941 H 0.94621 0.27976 0.21678
 H942 H 0.96796 0.21867 0.19461
 H943 H 1.03343 0.26114 0.30212
 H944 H 1.05163 0.23852 0.28291
 H945 H 0.96819 0.19787 0.23998
 H946 H 0.94771 0.21663 0.26142
 H947 H 1.05271 0.28106 0.24061
 H948 H 1.03202 0.30295 0.26189
 O949 O 0.69712 1.02609 0.74821
 O950 O 0.70340 1.02358 0.78187
 O951 O 0.74860 1.05298 0.72447
 O952 O 0.78100 1.04715 0.72386
 O953 O 0.72415 1.00143 0.69707
 O954 O 0.72573 0.96708 0.70436
 O955 O 0.80068 0.99967 0.77565
 O956 O 0.79526 1.03321 0.77153
 O957 O 0.75103 0.97538 0.80109
 O958 O 0.71555 0.97667 0.79425
 O959 O 0.77494 0.94921 0.75140
 O960 O 0.77395 0.95565 0.71618
 O961 O 0.80078 0.97586 0.75209
 O962 O 0.79368 0.97782 0.71540
 O963 O 0.75128 0.94914 0.77493
 O964 O 0.71501 0.95638 0.77254
 O965 O 0.77493 0.99872 0.80093
 O966 O 0.76836 1.03435 0.79450
 O967 O 0.69695 1.00190 0.72498
 O968 O 0.70433 0.96694 0.72668
 O969 O 0.74779 1.02506 0.69690
 O970 O 0.78337 1.02186 0.70491
 O971 O 0.72453 1.05299 0.74765
 O972 O 0.72892 1.04541 0.78320
 Zr973 Zr 0.72563 1.02461 0.76011
 O974 O 0.74272 1.00707 0.77910
 Zr975 Zr 0.76006 1.02423 0.72538
 O976 O 0.77889 1.00727 0.74322
 Zr977 Zr 0.72547 0.98972 0.72572
 O978 O 0.74300 0.97088 0.74304
 Zr979 Zr 0.77254 1.01198 0.77308
 O980 O 0.75554 1.03110 0.75530
 Zr981 Zr 0.73821 0.97714 0.77294
 O982 O 0.71914 0.99459 0.75560
 Zr983 Zr 0.77289 0.97730 0.73856
 O984 O 0.75535 0.99425 0.71910
 O985 O 0.73039 1.01949 0.73033
 O986 O 0.76802 0.98203 0.76838
 C987 C 0.68863 1.01595 0.73463
 C988 C 0.73465 1.06141 0.73407
 C989 C 0.73397 1.01518 0.68856
 C990 C 0.80892 0.98544 0.76629
 C991 C 0.76535 0.98470 0.80922
 C992 C 0.76550 0.94098 0.76555
 H993 H 0.73961 1.01035 0.79294
 H994 H 0.73991 0.95704 0.73982
 H995 H 0.72200 1.02788 0.72189
 H996 H 0.79273 1.01060 0.74032
 H997 H 0.78903 1.04568 0.76728
 H998 H 0.79110 1.04429 0.73392
 H999 H 0.71740 0.94716 0.76153
 H1000 H 0.69768 0.96803 0.73958
 H1001 H 0.77955 1.03378 0.80384
 H1002 H 0.71849 1.05555 0.78190
 H1003 H 0.76148 0.94819 0.71666
 H1004 H 0.73891 0.96739 0.69822
 H1005 H 0.69791 1.01009 0.78162
 H1006 H 0.71672 0.98878 0.80226
 H1007 H 0.78099 1.00977 0.69712
 H1008 H 0.80306 0.98862 0.71808
 O1009 O 0.74936 0.55257 0.22440
 O1010 O 0.78292 0.54620 0.22708
 O1011 O 0.72549 0.50114 0.19737
 O1012 O 0.72495 0.46865 0.20309
 O1013 O 0.69805 0.52546 0.24889
 O1014 O 0.70531 0.52411 0.28320
 O1015 O 0.77622 0.44876 0.25089
 O1016 O 0.77235 0.45424 0.21736
 O1017 O 0.80174 0.49847 0.27543
 O1018 O 0.79509 0.53402 0.27406
 O1019 O 0.75194 0.47473 0.30130
 O1020 O 0.71675 0.47579 0.29455
 O1021 O 0.75264 0.44875 0.27460
 O1022 O 0.71615 0.45588 0.27255
 O1023 O 0.77545 0.49844 0.30153
 O1024 O 0.77332 0.53471 0.29416
 O1025 O 0.80160 0.47451 0.25209
 O1026 O 0.79539 0.48112 0.21642
 O1027 O 0.72602 0.55279 0.24840
 O1028 O 0.72761 0.54548 0.28337
 O1029 O 0.69790 0.50178 0.22525
 O1030 O 0.70587 0.46622 0.22824
 O1031 O 0.74877 0.52514 0.19749
 O1032 O 0.78421 0.52062 0.20524
 Zr1033 Zr 0.76110 0.52399 0.22593
 O1034 O 0.77995 0.50684 0.24357
 Zr1035 Zr 0.72634 0.48958 0.22609
 O1036 O 0.74402 0.47070 0.24317
 Zr1037 Zr 0.72666 0.52424 0.26063
 O1038 O 0.74382 0.50667 0.27955
 Zr1039 Zr 0.77386 0.47699 0.23863
 O1040 O 0.75625 0.49404 0.21940
 Zr1041 Zr 0.77370 0.51140 0.27347
 O1042 O 0.75653 0.53053 0.25592
 Zr1043 Zr 0.73928 0.47673 0.27311
 O1044 O 0.71998 0.49432 0.25604
 O1045 O 0.73133 0.51930 0.23088
 O1046 O 0.76909 0.48154 0.26857
 C1047 C 0.73577 0.56111 0.23444
 C1048 C 0.73517 0.51508 0.18900
 C1049 C 0.68953 0.51555 0.23518
 C1050 C 0.76677 0.44053 0.26504
 C1051 C 0.80985 0.48410 0.26616
 C1052 C 0.76598 0.48424 0.30965
 H1053 H 0.79378 0.50993 0.24038
 H1054 H 0.74055 0.50980 0.29338
 H1055 H 0.72292 0.52770 0.22247
 H1056 H 0.74108 0.45685 0.23981
 H1057 H 0.76819 0.46050 0.20487
 H1058 H 0.73489 0.45847 0.20607
 H1059 H 0.76222 0.53243 0.30326
 H1060 H 0.74050 0.55215 0.28231
 H1061 H 0.80467 0.46988 0.21705
 H1062 H 0.78300 0.53107 0.19511
 H1063 H 0.71741 0.48817 0.30218
 H1064 H 0.69921 0.51089 0.28297
 H1065 H 0.78265 0.55170 0.24058
 H1066 H 0.80312 0.53282 0.26199
 H1067 H 0.69815 0.46849 0.24038
 H1068 H 0.71872 0.44659 0.26164
 O1069 O 0.55230 0.22410 0.74864
 O1070 O 0.54597 0.22656 0.78230
 O1071 O 0.50084 0.19734 0.72460
 O1072 O 0.46843 0.20315 0.72406
 O1073 O 0.52524 0.24895 0.69745
 O1074 O 0.52387 0.28323 0.70485
 O1075 O 0.44873 0.25072 0.77573
 O1076 O 0.45412 0.21717 0.77168
 O1077 O 0.49851 0.27489 0.80142
 O1078 O 0.53390 0.27359 0.79474
 O1079 O 0.47462 0.30110 0.75169
 O1080 O 0.47571 0.29463 0.71638
 O1081 O 0.44871 0.27449 0.75215
 O1082 O 0.45582 0.27264 0.71561
 O1083 O 0.49828 0.30114 0.77528
 O1084 O 0.53459 0.29377 0.77296
 O1085 O 0.47449 0.25168 0.80116
 O1086 O 0.48099 0.21602 0.79475
 O1087 O 0.55251 0.24830 0.72544
 O1088 O 0.54522 0.28327 0.72722
 O1089 O 0.50157 0.22535 0.69715
 O1090 O 0.46603 0.22844 0.70511
 O1091 O 0.52487 0.19724 0.74788
 O1092 O 0.52040 0.20477 0.78345
 Zr1093 Zr 0.52378 0.22561 0.76043
 O1094 O 0.50671 0.24319 0.77940
 Zr1095 Zr 0.48937 0.22608 0.72562
 O1096 O 0.47057 0.24308 0.74342
 Zr1097 Zr 0.52402 0.26055 0.72614
 O1098 O 0.50652 0.27941 0.74342
 Zr1099 Zr 0.47688 0.23837 0.77330
 O1100 O 0.49385 0.21920 0.75554
 Zr1101 Zr 0.51129 0.27311 0.77330
 O1102 O 0.53034 0.25562 0.75602
 Zr1103 Zr 0.47663 0.27303 0.73881
 O1104 O 0.49414 0.25605 0.71939
 O1105 O 0.51905 0.23078 0.73065
 O1106 O 0.48147 0.26831 0.76865
 C1107 C 0.56081 0.23424 0.73510
 C1108 C 0.51478 0.18887 0.73421
 C1109 C 0.51537 0.23528 0.68886
 C1110 C 0.44052 0.26493 0.76629
 C1111 C 0.48415 0.26565 0.80950
 C1112 C 0.48408 0.30932 0.76586
 H1113 H 0.50981 0.23990 0.79324
 H1114 H 0.50965 0.29325 0.74022
 H1115 H 0.52742 0.22240 0.72219
 H1116 H 0.45673 0.23977 0.74046
 H1117 H 0.46033 0.20469 0.76744
 H1118 H 0.45832 0.20605 0.73408
 H1119 H 0.53215 0.30308 0.76204
 H1120 H 0.55189 0.28212 0.74013
 H1121 H 0.46979 0.21663 0.80405
 H1122 H 0.53081 0.19461 0.78216
 H1123 H 0.48806 0.30226 0.71712
 H1124 H 0.51066 0.28305 0.69874
 H1125 H 0.55152 0.24002 0.78208
 H1126 H 0.53282 0.26139 0.80261
 H1127 H 0.46838 0.24057 0.69738
 H1128 H 0.44653 0.26173 0.71812
 O1129 O 0.27527 0.80260 0.49896
 O1130 O 0.27264 0.79618 0.53259
 O1131 O 0.30229 0.75114 0.47509
 O1132 O 0.29655 0.71864 0.47451
 O1133 O 0.25100 0.77559 0.44750
 O1134 O 0.21668 0.77402 0.45455
 O1135 O 0.24874 0.69877 0.52572
 O1136 O 0.28223 0.70421 0.52194
 O1137 O 0.22437 0.74857 0.55125
 O1138 O 0.22568 0.78407 0.54454
 O1139 O 0.19853 0.72470 0.50125
 O1140 O 0.20524 0.72581 0.46602
 O1141 O 0.22517 0.69875 0.50194
 O1142 O 0.22724 0.70593 0.46541
 O1143 O 0.19832 0.74838 0.52485
 O1144 O 0.20562 0.78471 0.52267
 O1145 O 0.24761 0.72457 0.55118
 O1146 O 0.28323 0.73110 0.54502
 O1147 O 0.25127 0.80281 0.47556
 O1148 O 0.21640 0.79542 0.47690
 O1149 O 0.27457 0.75188 0.44740
 O1150 O 0.27143 0.71626 0.45528
 O1151 O 0.30216 0.77520 0.49837
 O1152 O 0.29445 0.77060 0.53387
 Zr1153 Zr 0.27377 0.77400 0.51069
 O1154 O 0.25613 0.75686 0.52949
 Zr1155 Zr 0.27361 0.73959 0.47584
 O1156 O 0.25655 0.72071 0.49348
 Zr1157 Zr 0.23914 0.77423 0.47607
 O1158 O 0.22023 0.75668 0.49319
 Zr1159 Zr 0.26104 0.72699 0.52341
 O1160 O 0.28027 0.74404 0.50583
 Zr1161 Zr 0.22630 0.76141 0.52314
 O1162 O 0.24384 0.78053 0.50600
 Zr1163 Zr 0.22666 0.72674 0.48863
 O1164 O 0.24373 0.74432 0.46936
 O1165 O 0.26883 0.76930 0.48086
 O1166 O 0.23117 0.73155 0.51851
 C1167 C 0.26520 0.81113 0.48536
 C1168 C 0.31063 0.76513 0.48476
 C1169 C 0.26475 0.76574 0.43904
 C1170 C 0.23464 0.69054 0.51615
 C1171 C 0.23361 0.73422 0.55941
 C1172 C 0.19022 0.73417 0.51534
 H1173 H 0.25932 0.75995 0.54336
 H1174 H 0.20643 0.75980 0.48988
 H1175 H 0.27724 0.77773 0.47250
 H1176 H 0.25989 0.70686 0.49054
 H1177 H 0.29471 0.71045 0.51780
 H1178 H 0.29354 0.70844 0.48442
 H1179 H 0.19646 0.78232 0.51161
 H1180 H 0.21737 0.80205 0.48985
 H1181 H 0.28259 0.71987 0.55432
 H1182 H 0.30457 0.78105 0.53268
 H1183 H 0.19768 0.73823 0.46662
 H1184 H 0.21702 0.76082 0.44836
 H1185 H 0.25919 0.80171 0.53226
 H1186 H 0.23774 0.78292 0.55259
 H1187 H 0.25938 0.71861 0.44745
 H1188 H 0.23814 0.69665 0.46800
 O1189 O 0.27591 0.30194 0.99906
 O1190 O 0.27320 0.29560 1.03272
 O1191 O 0.30241 0.25033 0.97516
 O1192 O 0.29643 0.21788 0.97453
 O1193 O 0.25115 0.27512 0.94773
 O1194 O 0.21686 0.27387 0.95495
 O1195 O 0.24875 0.19830 1.02589
 O1196 O 0.28222 0.20353 1.02202
 O1197 O 0.22478 0.24827 1.05157
 O1198 O 0.22629 0.28374 1.04490
 O1199 O 0.19854 0.22468 1.00161
 O1200 O 0.20515 0.22563 0.96643
 O1201 O 0.22505 0.19845 1.00225
 O1202 O 0.22702 0.20567 0.96570
 O1203 O 0.19858 0.24837 1.02520
 O1204 O 0.20618 0.28457 1.02312
 O1205 O 0.24789 0.22413 1.05139
 O1206 O 0.28350 0.23041 1.04508
 O1207 O 0.25184 0.30234 0.97573
 O1208 O 0.21687 0.29526 0.97733
 O1209 O 0.27459 0.25129 0.94753
 O1210 O 0.27123 0.21569 0.95540
 O1211 O 0.30252 0.27432 0.99851
 O1212 O 0.29486 0.26989 1.03399
 Zr1213 Zr 0.27416 0.27339 1.01085
 O1214 O 0.25649 0.25634 1.02970
 Zr1215 Zr 0.27365 0.23899 0.97598
 O1216 O 0.25653 0.22022 0.99367
 Zr1217 Zr 0.23943 0.27388 0.97635
 O1218 O 0.22047 0.25644 0.99353
 Zr1219 Zr 0.26118 0.22645 1.02357
 O1220 O 0.28045 0.24339 1.00594
 Zr1221 Zr 0.22667 0.26112 1.02346
 O1222 O 0.24427 0.28014 1.00627
 Zr1223 Zr 0.22667 0.22645 0.98894
 O1224 O 0.24377 0.24393 0.96961
 O1225 O 0.26910 0.26873 0.98103
 O1226 O 0.23131 0.23121 1.01882
 C1227 C 0.26591 0.31054 0.98545
 C1228 C 0.31088 0.26422 0.98487
 C1229 C 0.26480 0.26519 0.93921
 C1230 C 0.23457 0.19015 1.01638
 C1231 C 0.23400 0.23388 1.05970
 C1232 C 0.19032 0.23427 1.01568
 H1233 H 0.25976 0.25941 1.04356
 H1234 H 0.20669 0.25967 0.99026
 H1235 H 0.27755 0.27707 0.97263
 H1236 H 0.25976 0.20634 0.99070
 H1237 H 0.29472 0.20969 1.01780
 H1238 H 0.29340 0.20769 0.98444
 H1239 H 0.19706 0.28237 1.01198
 H1240 H 0.21803 0.30194 0.99023
 H1241 H 0.28282 0.21918 1.05439
 H1242 H 0.30503 0.28030 1.03279
 H1243 H 0.19776 0.23816 0.96696
 H1244 H 0.21707 0.26069 0.94874
 H1245 H 0.25981 0.30129 1.03235
 H1246 H 0.23842 0.28256 1.05284
 H1247 H 0.25916 0.21813 0.94763
 H1248 H 0.23786 0.19629 0.96825
 C1249 C 0.28495 0.38304 0.78419
 C1250 C 0.26903 0.39215 0.79350
 C1251 C 0.26260 0.41067 0.78726
 C1252 C 0.29845 0.34909 0.79759
 C1253 C 0.28787 0.41094 0.76214
 C1254 C 0.29427 0.39242 0.76842
 C1255 C 0.29218 0.36445 0.79130
 C1256 C 0.27204 0.42037 0.77159
 H1257 H 0.26176 0.38504 0.80577
 H1258 H 0.25041 0.41748 0.79492
 H1259 H 0.29552 0.41798 0.75008
 H1260 H 0.30666 0.38553 0.76115
 C1261 C 0.28581 -0.11765 0.28392
 C1262 C 0.26968 -0.10863 0.29294
 C1263 C 0.26320 -0.09019 0.28651
 C1264 C 0.29935 -0.15145 0.29770
 C1265 C 0.28885 -0.08984 0.26177
 C1266 C 0.29530 -0.10828 0.26825
 C1267 C 0.29307 -0.13616 0.29124
 C1268 C 0.27279 -0.08049 0.27093
 H1269 H 0.26228 -0.11573 0.30514
 H1270 H 0.25083 -0.08345 0.29393
 H1271 H 0.29663 -0.08280 0.24980
 H1272 H 0.30786 -0.11510 0.26121
 C1273 C 0.78493 0.88398 0.78508
 C1274 C 0.79423 0.89318 0.76920
 C1275 C 0.78768 0.91154 0.76256
 C1276 C 0.79874 0.85035 0.79906
 C1277 C 0.76229 0.91144 0.78756
 C1278 C 0.76887 0.89309 0.79416
 C1279 C 0.79232 0.86557 0.79255
 C1280 C 0.77171 0.92098 0.77177
 H1281 H 0.80672 0.88629 0.76211
 H1282 H 0.79533 0.91844 0.75043
 H1283 H 0.75000 0.91827 0.79505
 H1284 H 0.76161 0.88613 0.80651
 C1285 C 0.46589 0.86717 0.28372
 C1286 C 0.45648 0.85778 0.26799
 C1287 C 0.46276 0.83919 0.26179
 C1288 C 0.45247 0.90116 0.29705
 C1289 C 0.48808 0.83945 0.28694
 C1290 C 0.48177 0.85804 0.29309
 C1291 C 0.45873 0.88579 0.29080
 C1292 C 0.47855 0.82973 0.27130
 H1293 H 0.44411 0.86470 0.26069
 H1294 H 0.45504 0.83214 0.24975
 H1295 H 0.50024 0.83261 0.29462
 H1296 H 0.48910 0.86516 0.30535
 C1297 C -0.03599 0.86739 0.78480
 C1298 C -0.01972 0.85840 0.79362
 C1299 C -0.01319 0.84005 0.78697
 C1300 C -0.04969 0.90093 0.79903
 C1301 C -0.03908 0.83974 0.76241
 C1302 C -0.04557 0.85809 0.76910
 C1303 C -0.04332 0.88576 0.79238
 C1304 C -0.02290 0.83040 0.77138
 H1305 H -0.01224 0.86544 0.80583
 H1306 H -0.00074 0.83331 0.79426
 H1307 H -0.04695 0.83274 0.75044
 H1308 H -0.05823 0.86490 0.76221
 C1309 C -0.03519 -0.11648 -0.03453
 C1310 C -0.04467 -0.10714 -0.01882
 C1311 C -0.03829 -0.08866 -0.01236
 C1312 C -0.04861 -0.15037 -0.04822
 C1313 C -0.01275 -0.08890 -0.03722
 C1314 C -0.01916 -0.10738 -0.04363
 C1315 C -0.04237 -0.13503 -0.04182
 C1316 C -0.02233 -0.07924 -0.02158
 H1317 H -0.05715 -0.11403 -0.01172
 H1318 H -0.04606 -0.08166 -0.00035
 H1319 H -0.00046 -0.08209 -0.04470
 H1320 H -0.01177 -0.11444 -0.05586
 C1321 C -0.03296 0.38051 0.46738
 C1322 C -0.01691 0.38965 0.45836
 C1323 C -0.01090 0.40836 0.46447
 C1324 C -0.04624 0.34659 0.45363
 C1325 C -0.03679 0.40870 0.48895
 C1326 C -0.04276 0.38998 0.48281
 C1327 C -0.04001 0.36190 0.46010
 C1328 C -0.02092 0.41823 0.47969
 H1329 H -0.00926 0.38248 0.44635
 H1330 H 0.00135 0.41524 0.45698
 H1331 H -0.04487 0.41584 0.50068
 H1332 H -0.05526 0.38306 0.48984
 C1333 C 0.46633 -0.11888 0.46706
 C1334 C 0.45682 -0.10950 0.48273
 C1335 C 0.46309 -0.09094 0.48906
 C1336 C 0.45251 -0.15246 0.45297
 C1337 C 0.48871 -0.09125 0.46430
 C1338 C 0.48241 -0.10981 0.45801
 C1339 C 0.45897 -0.13731 0.45960
 C1340 C 0.47896 -0.08146 0.47975
 H1341 H 0.44431 -0.11637 0.48980
 H1342 H 0.45521 -0.08385 0.50096
 H1343 H 0.50095 -0.08442 0.45676
 H1344 H 0.48984 -0.11691 0.44582
 C1345 C 0.46507 0.38266 -0.03388
 C1346 C 0.48114 0.39175 -0.04293
 C1347 C 0.48746 0.41027 -0.03659
 C1348 C 0.45182 0.34868 -0.04750
 C1349 C 0.46176 0.41059 -0.01189
 C1350 C 0.45548 0.39205 -0.01828
 C1351 C 0.45798 0.36405 -0.04112
 C1352 C 0.47775 0.42000 -0.02107
 H1353 H 0.48862 0.38463 -0.05507
 H1354 H 0.49977 0.41707 -0.04403
 H1355 H 0.45390 0.41764 0.00004
 H1356 H 0.44297 0.38517 -0.01122
 C1357 C 0.78390 0.36846 0.46731
 C1358 C 0.76794 0.35934 0.45807
 C1359 C 0.76174 0.34070 0.46416
 C1360 C 0.79747 0.40224 0.45356
 C1361 C 0.78726 0.34039 0.48911
 C1362 C 0.79342 0.35905 0.48296
 C1363 C 0.79113 0.38700 0.46005
 C1364 C 0.77149 0.33088 0.47961
 H1365 H 0.76051 0.36647 0.44589
 H1366 H 0.74957 0.33384 0.45649
 H1367 H 0.79513 0.33328 0.50100
 H1368 H 0.80585 0.36595 0.49018
 C1369 C 0.78319 0.86951 -0.03287
 C1370 C 0.76718 0.86041 -0.04205
 C1371 C 0.76092 0.84183 -0.03585
 C1372 C 0.79718 0.90292 -0.04700
 C1373 C 0.78644 0.84158 -0.01091
 C1374 C 0.79267 0.86017 -0.01715
 C1375 C 0.79061 0.88787 -0.04033
 C1376 C 0.77066 0.83205 -0.02038
 H1377 H 0.75979 0.86749 -0.05428
 H1378 H 0.74874 0.83496 -0.04349
 H1379 H 0.79430 0.83450 0.00101
 H1380 H 0.80513 0.86706 -0.00999
 C1381 C 0.78334 0.28324 0.38110
 C1382 C 0.76771 0.29281 0.39043
 C1383 C 0.76140 0.28658 0.40898
 C1384 C 0.79747 0.29717 0.34766
 C1385 C 0.78610 0.26086 0.40874
 C1386 C 0.79238 0.26713 0.39019
 C1387 C 0.79082 0.29063 0.36273
 C1388 C 0.77070 0.27068 0.41849
 H1389 H 0.76066 0.30535 0.38354
 H1390 H 0.74953 0.29451 0.41603
 H1391 H 0.79362 0.24860 0.41561
 H1392 H 0.80455 0.25966 0.38312
 C1393 C 0.78343 0.78534 -0.11862
 C1394 C 0.79269 0.76935 -0.10955
 C1395 C 0.78629 0.76274 -0.09115
 C1396 C 0.79774 0.79981 -0.15179
 C1397 C 0.76098 0.78786 -0.09103
 C1398 C 0.76743 0.79444 -0.10943
 C1399 C 0.79101 0.79306 -0.13683
 C1400 C 0.77051 0.77209 -0.08153
 H1401 H 0.80513 0.76223 -0.11650
 H1402 H 0.79400 0.75059 -0.08430
 H1403 H 0.74884 0.79545 -0.08407
 H1404 H 0.76019 0.80688 -0.11630
 C1405 C 0.28545 0.46488 0.86685
 C1406 C 0.26946 0.45564 0.85775
 C1407 C 0.26293 0.46205 0.83931
 C1408 C 0.29917 0.45145 0.90072
 C1409 C 0.28828 0.48713 0.83912
 C1410 C 0.29477 0.48069 0.85755
 C1411 C 0.29277 0.45769 0.88539
 C1412 C 0.27234 0.47780 0.82970
 H1413 H 0.26219 0.44334 0.86480
 H1414 H 0.25067 0.45449 0.83249
 H1415 H 0.29592 0.49925 0.83216
 H1416 H 0.30721 0.48789 0.86444
 C1417 C 0.28371 -0.03444 0.36722
 C1418 C 0.29292 -0.01855 0.35795
 C1419 C 0.28680 -0.01252 0.33925
 C1420 C 0.29679 -0.04713 0.40161
 C1421 C 0.26205 -0.03819 0.33909
 C1422 C 0.26820 -0.04418 0.35780
 C1423 C 0.29067 -0.04121 0.38604
 C1424 C 0.27137 -0.02236 0.32952
 H1425 H 0.30499 -0.01096 0.36508
 H1426 H 0.29435 -0.00032 0.33233
 H1427 H 0.25016 -0.04613 0.33205
 H1428 H 0.26102 -0.05656 0.36482
 C1429 C -0.03524 -0.03481 -0.11682
 C1430 C -0.01940 -0.04422 -0.10763
 C1431 C -0.01271 -0.03769 -0.08928
 C1432 C -0.04946 -0.04863 -0.15034
 C1433 C -0.03755 -0.01209 -0.08938
 C1434 C -0.04420 -0.01866 -0.10773
 C1435 C -0.04281 -0.04221 -0.13518
 C1436 C -0.02182 -0.02164 -0.07984
 H1437 H -0.01240 -0.05679 -0.11452
 H1438 H -0.00062 -0.04543 -0.08237
 H1439 H -0.04495 0.00026 -0.08255
 H1440 H -0.05651 -0.01131 -0.11468
 C1441 C -0.03310 0.46556 0.38105
 C1442 C -0.04224 0.48164 0.39009
 C1443 C -0.03598 0.48802 0.40864
 C1444 C -0.04723 0.45149 0.34761
 C1445 C -0.01108 0.46249 0.40897
 C1446 C -0.01738 0.45614 0.39042
 C1447 C -0.04056 0.45807 0.36269
 C1448 C -0.02049 0.47835 0.41843
 H1449 H -0.05447 0.48900 0.38299
 H1450 H -0.04359 0.50025 0.41546
 H1451 H 0.00085 0.45467 0.41606
 H1452 H -0.01025 0.44363 0.38357
 C1453 C 0.46751 -0.03328 0.38113
 C1454 C 0.45830 -0.01732 0.39031
 C1455 C 0.46444 -0.01116 0.40895
 C1456 C 0.45352 -0.04705 0.34753
 C1457 C 0.48937 -0.03667 0.40914
 C1458 C 0.48318 -0.04280 0.39048
 C1459 C 0.46012 -0.04058 0.36267
 C1460 C 0.47989 -0.02093 0.41872
 H1461 H 0.44610 -0.00990 0.38322
 H1462 H 0.45679 0.00099 0.41587
 H1463 H 0.50127 -0.04455 0.41621
 H1464 H 0.49036 -0.05523 0.38353
 C1465 C 0.46492 0.46428 -0.11663
 C1466 C 0.45589 0.48042 -0.10757
 C1467 C 0.46246 0.48700 -0.08921
 C1468 C 0.45084 0.45043 -0.15019
 C1469 C 0.48735 0.46145 -0.08901
 C1470 C 0.48074 0.45491 -0.10738
 C1471 C 0.45742 0.45687 -0.13501
 C1472 C 0.47817 0.47749 -0.07961
 H1473 H 0.44358 0.48774 -0.11457
 H1474 H 0.45501 0.49934 -0.08241
 H1475 H 0.49943 0.45374 -0.08205
 H1476 H 0.48779 0.44235 -0.11424
 C1477 C 0.46548 0.78520 0.36687
 C1478 C 0.48146 0.79437 0.35773
 C1479 C 0.48782 0.78799 0.33923
 C1480 C 0.45223 0.79845 0.40100
 C1481 C 0.46231 0.76308 0.33902
 C1482 C 0.45599 0.76949 0.35752
 C1483 C 0.45842 0.79231 0.38554
 C1484 C 0.47825 0.77233 0.32958
 H1485 H 0.48887 0.80659 0.36481
 H1486 H 0.50008 0.79549 0.33240
 H1487 H 0.45455 0.75103 0.33204
 H1488 H 0.44356 0.76233 0.36444
 C1489 C -0.03432 0.78588 0.86700
 C1490 C -0.04361 0.76991 0.85789
 C1491 C -0.03736 0.76344 0.83939
 C1492 C -0.04776 0.79948 0.90089
 C1493 C -0.01227 0.78879 0.83914
 C1494 C -0.01857 0.79522 0.85765
 C1495 C -0.04146 0.79316 0.88555
 C1496 C -0.02170 0.77291 0.82971
 H1497 H -0.05587 0.76262 0.86498
 H1498 H -0.04499 0.75122 0.83257
 H1499 H -0.00022 0.79646 0.83212
 H1500 H -0.01132 0.80765 0.86453
 C1501 C 0.38363 0.78419 0.28503
 C1502 C 0.39299 0.76863 0.29475
 C1503 C 0.41145 0.76213 0.28848
 C1504 C 0.34977 0.79800 0.29821
 C1505 C 0.41115 0.78663 0.26253
 C1506 C 0.39269 0.79308 0.26884
 C1507 C 0.36510 0.79154 0.29209
 C1508 C 0.42084 0.77116 0.27237
 H1509 H 0.38613 0.76169 0.30735
 H1510 H 0.41848 0.75025 0.29644
 H1511 H 0.41792 0.79395 0.25012
 H1512 H 0.38561 0.80519 0.26125
 C1513 C -0.11664 0.78651 0.78565
 C1514 C -0.10757 0.77042 0.79477
 C1515 C -0.08922 0.76383 0.78825
 C1516 C -0.15041 0.80023 0.79921
 C1517 C -0.08905 0.78931 0.76327
 C1518 C -0.10739 0.79586 0.76983
 C1519 C -0.13511 0.79384 0.79293
 C1520 C -0.07966 0.77328 0.77249
 H1521 H -0.11457 0.76311 0.80708
 H1522 H -0.08243 0.75151 0.79573
 H1523 H -0.08213 0.79699 0.75116
 H1524 H -0.11425 0.80837 0.76270
 C1525 C 0.86934 0.28137 0.46678
 C1526 C 0.86027 0.29056 0.48280
 C1527 C 0.84160 0.28455 0.48890
 C1528 C 0.90310 0.29503 0.45326
 C1529 C 0.84117 0.25980 0.46317
 C1530 C 0.85985 0.26585 0.45711
 C1531 C 0.88787 0.28858 0.45960
 C1532 C 0.83170 0.26926 0.47899
 H1533 H 0.86746 0.30264 0.49034
 H1534 H 0.83477 0.29218 0.50111
 H1535 H 0.83400 0.24801 0.45519
 H1536 H 0.86671 0.25868 0.44463
 C1537 C 0.86838 0.78403 -0.03370
 C1538 C 0.85908 0.76844 -0.04342
 C1539 C 0.84056 0.76203 -0.03727
 C1540 C 0.90181 0.79830 -0.04742
 C1541 C 0.84077 0.78656 -0.01133
 C1542 C 0.85929 0.79294 -0.01752
 C1543 C 0.88674 0.79161 -0.04098
 C1544 C 0.83105 0.77120 -0.02130
 H1545 H 0.86597 0.76150 -0.05601
 H1546 H 0.83352 0.75020 -0.04531
 H1547 H 0.83391 0.79398 0.00099
 H1548 H 0.86634 0.80507 -0.00993
 C1549 C -0.11657 -0.03394 -0.03521
 C1550 C -0.10740 -0.01795 -0.04434
 C1551 C -0.08888 -0.01169 -0.03799
 C1552 C -0.15063 -0.04713 -0.04855
 C1553 C -0.08873 -0.03733 -0.01317
 C1554 C -0.10726 -0.04355 -0.01956
 C1555 C -0.13521 -0.04096 -0.04235
 C1556 C -0.07925 -0.02139 -0.02240
 H1557 H -0.11446 -0.01046 -0.05653
 H1558 H -0.08201 0.00058 -0.04547
 H1559 H -0.08176 -0.04517 -0.00117
 H1560 H -0.11420 -0.05600 -0.01243
 C1561 C -0.11891 0.46697 0.46649
 C1562 C -0.10965 0.45756 0.48229
 C1563 C -0.09103 0.46368 0.48850
 C1564 C -0.15261 0.45320 0.45276
 C1565 C -0.09105 0.48898 0.46333
 C1566 C -0.10967 0.48281 0.45716
 C1567 C -0.13740 0.45969 0.45919
 C1568 C -0.08138 0.47932 0.47893
 H1569 H -0.11665 0.44523 0.48957
 H1570 H -0.08405 0.45589 0.50052
 H1571 H -0.08407 0.50103 0.45560
 H1572 H -0.11668 0.49015 0.44486
 C1573 C 0.38109 -0.03232 0.46699
 C1574 C 0.39048 -0.01671 0.45743
 C1575 C 0.40918 -0.01067 0.46347
 C1576 C 0.34721 -0.04581 0.45351
 C1577 C 0.40900 -0.03564 0.48896
 C1578 C 0.39030 -0.04164 0.48288
 C1579 C 0.36250 -0.03946 0.45984
 C1580 C 0.41878 -0.02022 0.47917
 H1581 H 0.38350 -0.00944 0.44506
 H1582 H 0.41624 0.00122 0.45557
 H1583 H 0.41594 -0.04335 0.50107
 H1584 H 0.38319 -0.05380 0.49034
 C1585 C 0.38355 0.46470 -0.03527
 C1586 C 0.39286 0.45523 -0.01953
 C1587 C 0.41130 0.46162 -0.01306
 C1588 C 0.34967 0.45121 -0.04878
 C1589 C 0.41109 0.48717 -0.03796
 C1590 C 0.39265 0.48074 -0.04440
 C1591 C 0.36501 0.45751 -0.04250
 C1592 C 0.42071 0.47760 -0.02229
 H1593 H 0.38597 0.44274 -0.01241
 H1594 H 0.41827 0.45386 -0.00101
 H1595 H 0.41790 0.49947 -0.04545
 H1596 H 0.38560 0.48814 -0.05665
 C1597 C 0.36638 0.46540 0.78598
 C1598 C 0.35737 0.45649 0.76974
 C1599 C 0.33904 0.46310 0.76319
 C1600 C 0.39991 0.45129 0.79976
 C1601 C 0.33879 0.48780 0.78896
 C1602 C 0.35713 0.48115 0.79548
 C1603 C 0.38474 0.45788 0.79335
 C1604 C 0.32943 0.47874 0.77282
 H1605 H 0.36437 0.44424 0.76232
 H1606 H 0.33227 0.45573 0.75076
 H1607 H 0.33183 0.49981 0.79678
 H1608 H 0.36395 0.48811 0.80812
 C1609 C 0.36694 -0.03497 0.28448
 C1610 C 0.35762 -0.04462 0.26885
 C1611 C 0.33905 -0.03848 0.26253
 C1612 C 0.40110 -0.04801 0.29767
 C1613 C 0.33914 -0.01284 0.28738
 C1614 C 0.35772 -0.01901 0.29366
 C1615 C 0.38564 -0.04189 0.29155
 C1616 C 0.32952 -0.02258 0.27180
 H1617 H 0.36461 -0.05704 0.26169
 H1618 H 0.33208 -0.04636 0.25054
 H1619 H 0.33224 -0.00059 0.29489
 H1620 H 0.36478 -0.01149 0.30583
 C1621 C 0.13120 0.53362 0.71749
 C1622 C 0.14028 0.51749 0.70847
 C1623 C 0.15887 0.51130 0.71469
 C1624 C 0.09755 0.54724 0.70351
 C1625 C 0.15921 0.53715 0.73931
 C1626 C 0.14061 0.54330 0.73305
 C1627 C 0.11274 0.54086 0.71009
 C1628 C 0.16869 0.52122 0.73004
 H1629 H 0.13315 0.50993 0.69636
 H1630 H 0.16570 0.49901 0.70719
 H1631 H 0.16632 0.54516 0.75113
 H1632 H 0.13375 0.55585 0.74009
 C1633 C 0.13071 0.03153 0.21740
 C1634 C 0.13998 0.01573 0.20800
 C1635 C 0.15873 0.00976 0.21396
 C1636 C 0.09670 0.04479 0.20400
 C1637 C 0.15885 0.03518 0.23902
 C1638 C 0.14010 0.04112 0.23303
 C1639 C 0.11205 0.03857 0.21031
 C1640 C 0.16851 0.01957 0.22939
 H1641 H 0.13287 0.00826 0.19583
 H1642 H 0.16570 -0.00229 0.20619
 H1643 H 0.16592 0.04309 0.25093
 H1644 H 0.13308 0.05342 0.24035
 C1645 C 0.61925 0.71698 0.21746
 C1646 C 0.61013 0.73318 0.20862
 C1647 C 0.59149 0.73918 0.21481
 C1648 C 0.65302 0.70373 0.20351
 C1649 C 0.59117 0.71298 0.23903
 C1650 C 0.60982 0.70701 0.23280
 C1651 C 0.63778 0.70995 0.21008
 C1652 C 0.58165 0.72899 0.22993
 H1653 H 0.61728 0.74095 0.19668
 H1654 H 0.58464 0.75155 0.20745
 H1655 H 0.58405 0.70477 0.25067
 H1656 H 0.61672 0.69440 0.23969
 C1657 C 0.11832 0.71734 0.71730
 C1658 C 0.10916 0.73331 0.70808
 C1659 C 0.09055 0.73950 0.71421
 C1660 C 0.15201 0.70370 0.70354
 C1661 C 0.09035 0.71396 0.73912
 C1662 C 0.10896 0.70781 0.73295
 C1663 C 0.13681 0.71009 0.71002
 C1664 C 0.08079 0.72973 0.72965
 H1665 H 0.11625 0.74075 0.69590
 H1666 H 0.08367 0.75167 0.70656
 H1667 H 0.08329 0.70608 0.75102
 H1668 H 0.11589 0.69537 0.74015
 C1669 C 0.63332 0.21528 0.53408
 C1670 C 0.64243 0.20606 0.51809
 C1671 C 0.66097 0.21229 0.51182
 C1672 C 0.59928 0.20210 0.54732
 C1673 C 0.66125 0.23717 0.53743
 C1674 C 0.64271 0.23090 0.54366
 C1675 C 0.61468 0.20824 0.54112
 C1676 C 0.67068 0.22784 0.52150
 H1677 H 0.63531 0.19390 0.51062
 H1678 H 0.66779 0.20474 0.49955
 H1679 H 0.66829 0.24914 0.54527
 H1680 H 0.63581 0.23809 0.55611
 C1681 C 0.63292 0.71564 0.03308
 C1682 C 0.64235 0.70589 0.01759
 C1683 C 0.66092 0.71206 0.01132
 C1684 C 0.59879 0.70270 0.04641
 C1685 C 0.66059 0.73793 0.03593
 C1686 C 0.64203 0.73173 0.04215
 C1687 C 0.61424 0.70871 0.04017
 C1688 C 0.67034 0.72809 0.02052
 H1689 H 0.63546 0.69337 0.01052
 H1690 H 0.66800 0.70410 -0.00053
 H1691 H 0.66738 0.75029 0.04338
 H1692 H 0.63488 0.73934 0.05421
 C1693 C 0.11929 0.03340 0.03221
 C1694 C 0.11016 0.01742 0.04140
 C1695 C 0.09150 0.01130 0.03532
 C1696 C 0.15307 0.04690 0.04597
 C1697 C 0.09120 0.03693 0.01049
 C1698 C 0.10986 0.04301 0.01662
 C1699 C 0.13782 0.04058 0.03947
 C1700 C 0.08167 0.02115 0.01994
 H1701 H 0.11730 0.00992 0.05354
 H1702 H 0.08463 -0.00088 0.04295
 H1703 H 0.08409 0.04487 -0.00136
 H1704 H 0.11678 0.05545 0.00945
 C1705 C 0.11680 0.53470 0.53382
 C1706 C 0.10772 0.51875 0.54312
 C1707 C 0.08922 0.51233 0.53687
 C1708 C 0.15071 0.54819 0.54727
 C1709 C 0.08893 0.53768 0.51175
 C1710 C 0.10743 0.54406 0.51805
 C1711 C 0.13537 0.54192 0.54096
 C1712 C 0.07951 0.52182 0.52119
 H1713 H 0.11482 0.51144 0.55540
 H1714 H 0.08242 0.50012 0.54451
 H1715 H 0.08190 0.54537 0.49969
 H1716 H 0.11431 0.55648 0.51079
 C1717 C 0.61669 0.03595 0.53410
 C1718 C 0.60733 0.04522 0.51827
 C1719 C 0.58891 0.03870 0.51189
 C1720 C 0.65053 0.04963 0.54759
 C1721 C 0.58923 0.01340 0.53704
 C1722 C 0.60766 0.01996 0.54338
 C1723 C 0.63521 0.04329 0.54127
 C1724 C 0.57955 0.02278 0.52129
 H1725 H 0.61416 0.05766 0.51102
 H1726 H 0.58189 0.04633 0.49978
 H1727 H 0.58247 0.00115 0.54466
 H1728 H 0.61475 0.01271 0.55570
 C1729 C 0.61903 0.53321 0.03228
 C1730 C 0.60992 0.51730 0.04161
 C1731 C 0.59128 0.51109 0.03556
 C1732 C 0.65275 0.54695 0.04594
 C1733 C 0.59098 0.53649 0.01049
 C1734 C 0.60962 0.54266 0.01659
 C1735 C 0.63754 0.54051 0.03950
 C1736 C 0.58146 0.52078 0.02007
 H1737 H 0.61705 0.50993 0.05383
 H1738 H 0.58441 0.49898 0.04329
 H1739 H 0.58387 0.54430 -0.00145
 H1740 H 0.61652 0.55504 0.00931
 C1741 C 0.03309 0.03190 0.11925
 C1742 C 0.01739 0.04144 0.10997
 C1743 C 0.01140 0.03561 0.09116
 C1744 C 0.04632 0.04511 0.15342
 C1745 C 0.03660 0.01037 0.09099
 C1746 C 0.04256 0.01625 0.10981
 C1747 C 0.04012 0.03887 0.13799
 C1748 C 0.02109 0.02014 0.08133
 H1749 H 0.01001 0.05363 0.11713
 H1750 H -0.00057 0.04348 0.08420
 H1751 H 0.04441 -0.00155 0.08388
 H1752 H 0.05479 0.00882 0.11684
 C1753 C 0.03471 0.53459 0.61676
 C1754 C 0.01907 0.54411 0.60736
 C1755 C 0.01278 0.53784 0.58879
 C1756 C 0.04774 0.54779 0.65100
 C1757 C 0.03769 0.51231 0.58901
 C1758 C 0.04394 0.51863 0.60759
 C1759 C 0.04170 0.54162 0.63549
 C1760 C 0.02209 0.52192 0.57932
 H1761 H 0.01187 0.55654 0.61430
 H1762 H 0.00078 0.54562 0.58177
 H1763 H 0.04523 0.50006 0.58217
 H1764 H 0.05612 0.51119 0.61471
 C1765 C 0.53426 0.03448 0.61738
 C1766 C 0.51828 0.04359 0.60815
 C1767 C 0.51208 0.03727 0.58957
 C1768 C 0.54728 0.04797 0.65153
 C1769 C 0.53773 0.01249 0.58947
 C1770 C 0.54389 0.01885 0.60806
 C1771 C 0.54121 0.04166 0.63608
 C1772 C 0.52182 0.02172 0.57992
 H1773 H 0.51077 0.05575 0.61521
 H1774 H 0.49983 0.04475 0.58267
 H1775 H 0.54560 0.00053 0.58248
 H1776 H 0.55633 0.01174 0.61505
 C1777 C 0.53276 0.53169 0.11939
 C1778 C 0.51709 0.54122 0.11005
 C1779 C 0.51114 0.53535 0.09124
 C1780 C 0.54592 0.54495 0.15356
 C1781 C 0.53631 0.51008 0.09119
 C1782 C 0.54223 0.51600 0.11001
 C1783 C 0.53975 0.53868 0.13813
 C1784 C 0.52083 0.51984 0.08147
 H1785 H 0.50970 0.55344 0.11715
 H1786 H 0.49919 0.54321 0.08423
 H1787 H 0.54412 0.49813 0.08413
 H1788 H 0.55443 0.50857 0.11708
 C1789 C 0.21623 0.53292 0.63142
 C1790 C 0.20673 0.51726 0.64080
 C1791 C 0.21296 0.51103 0.65940
 C1792 C 0.20239 0.54692 0.59785
 C1793 C 0.23852 0.53589 0.65913
 C1794 C 0.23226 0.54207 0.64053
 C1795 C 0.20887 0.54031 0.61299
 C1796 C 0.22877 0.52045 0.66892
 H1797 H 0.19425 0.51012 0.63390
 H1798 H 0.20509 0.49914 0.66649
 H1799 H 0.25072 0.54350 0.66599
 H1800 H 0.23967 0.55426 0.63342
 C1801 C 0.21673 0.03155 0.13053
 C1802 C 0.20721 0.01588 0.13987
 C1803 C 0.21334 0.00969 0.15853
 C1804 C 0.20314 0.04551 0.09683
 C1805 C 0.23883 0.03463 0.15838
 C1806 C 0.23267 0.04077 0.13973
 C1807 C 0.20949 0.03891 0.11203
 C1808 C 0.22907 0.01917 0.16813
 H1809 H 0.19480 0.00869 0.13291
 H1810 H 0.20547 -0.00222 0.16559
 H1811 H 0.25097 0.04228 0.16530
 H1812 H 0.24010 0.05297 0.13266
 C1813 C 0.71543 0.21611 0.61694
 C1814 C 0.70586 0.23173 0.60753
 C1815 C 0.71204 0.23796 0.58892
 C1816 C 0.70246 0.20289 0.65114
 C1817 C 0.73755 0.21304 0.58916
 C1818 C 0.73134 0.20686 0.60776
 C1819 C 0.70849 0.20909 0.63566
 C1820 C 0.72789 0.22860 0.57944
 H1821 H 0.69347 0.23895 0.61448
 H1822 H 0.70421 0.24993 0.58188
 H1823 H 0.74977 0.20546 0.58232
 H1824 H 0.73881 0.19470 0.61489
 C1825 C 0.71583 0.71652 0.11692
 C1826 C 0.73167 0.70719 0.10769
 C1827 C 0.73785 0.71335 0.08906
 C1828 C 0.70290 0.70339 0.15119
 C1829 C 0.71245 0.73839 0.08892
 C1830 C 0.70631 0.73219 0.10755
 C1831 C 0.70892 0.70954 0.13568
 C1832 C 0.72823 0.72895 0.07938
 H1833 H 0.73910 0.69499 0.11478
 H1834 H 0.74999 0.70571 0.08216
 H1835 H 0.70467 0.75040 0.08191
 H1836 H 0.69399 0.73947 0.11454
 C1837 C 0.53375 0.71754 0.13101
 C1838 C 0.51792 0.70813 0.14017
 C1839 C 0.51177 0.71414 0.15886
 C1840 C 0.54730 0.70402 0.09714
 C1841 C 0.53704 0.73929 0.15913
 C1842 C 0.54316 0.73325 0.14044
 C1843 C 0.54096 0.71041 0.11243
 C1844 C 0.52141 0.72964 0.16869
 H1845 H 0.51058 0.69591 0.13303
 H1846 H 0.49971 0.70636 0.16576
 H1847 H 0.54482 0.75125 0.16624
 H1848 H 0.55548 0.74059 0.13351
 C1849 C 0.03318 0.71740 0.63133
 C1850 C 0.01730 0.70811 0.64051
 C1851 C 0.01092 0.71446 0.65902
 C1852 C 0.04728 0.70313 0.59799
 C1853 C 0.03605 0.73975 0.65903
 C1854 C 0.04240 0.73336 0.64053
 C1855 C 0.04068 0.70985 0.61302
 C1856 C 0.02040 0.73019 0.66864
 H1857 H 0.01010 0.69569 0.63356
 H1858 H -0.00114 0.70673 0.66595
 H1859 H 0.04372 0.75187 0.66599
 H1860 H 0.05475 0.74061 0.63358
 C1861 C 0.53220 0.63041 0.21777
 C1862 C 0.54177 0.63979 0.23341
 C1863 C 0.53592 0.65860 0.23935
 C1864 C 0.54545 0.59627 0.20458
 C1865 C 0.51060 0.65857 0.21420
 C1866 C 0.51649 0.63975 0.20830
 C1867 C 0.53919 0.61168 0.21077
 C1868 C 0.52040 0.66833 0.22965
 H1869 H 0.55400 0.63271 0.24079
 H1870 H 0.54381 0.66565 0.25127
 H1871 H 0.49863 0.66560 0.20638
 H1872 H 0.50904 0.63265 0.19611
 C1873 C 0.03223 0.63185 0.71657
 C1874 C 0.04121 0.64095 0.73272
 C1875 C 0.03500 0.65958 0.73888
 C1876 C 0.04617 0.59815 0.70297
 C1877 C 0.01048 0.65990 0.71296
 C1878 C 0.01673 0.64127 0.70683
 C1879 C 0.03961 0.61336 0.70935
 C1880 C 0.01971 0.66941 0.72891
 H1881 H 0.05327 0.63382 0.74032
 H1882 H 0.04247 0.66643 0.75119
 H1883 H -0.00129 0.66702 0.70491
 H1884 H 0.00972 0.63438 0.69426
 C1885 C 0.03278 0.11939 0.03308
 C1886 C 0.01727 0.10996 0.04274
 C1887 C 0.01117 0.09126 0.03670
 C1888 C 0.04639 0.15327 0.04656
 C1889 C 0.03588 0.09150 0.01102
 C1890 C 0.04194 0.11021 0.01710
 C1891 C 0.03998 0.13798 0.04022
 C1892 C 0.02057 0.08168 0.02090
 H1893 H 0.01012 0.11691 0.05518
 H1894 H -0.00063 0.08416 0.04467
 H1895 H 0.04347 0.08460 -0.00117
 H1896 H 0.05402 0.11735 0.00956
 C1897 C 0.03406 0.61671 0.53483
 C1898 C 0.01847 0.60738 0.54446
 C1899 C 0.01199 0.58889 0.53814
 C1900 C 0.04779 0.65064 0.54813
 C1901 C 0.03658 0.58911 0.51234
 C1902 C 0.04301 0.60760 0.51869
 C1903 C 0.04138 0.63529 0.54195
 C1904 C 0.02107 0.57944 0.52208
 H1905 H 0.01149 0.61428 0.55702
 H1906 H 0.00008 0.58188 0.54603
 H1907 H 0.04395 0.58229 0.49997
 H1908 H 0.05514 0.61466 0.51117
 C1909 C 0.53464 0.11704 0.53456
 C1910 C 0.51877 0.10789 0.54390
 C1911 C 0.51245 0.08931 0.53769
 C1912 C 0.54802 0.15115 0.54765
 C1913 C 0.53777 0.08909 0.51261
 C1914 C 0.54405 0.10766 0.51885
 C1915 C 0.54175 0.13571 0.54156
 C1916 C 0.52196 0.07962 0.52204
 H1917 H 0.51144 0.11500 0.55614
 H1918 H 0.50028 0.08246 0.54533
 H1919 H 0.54547 0.08207 0.50056
 H1920 H 0.55640 0.11459 0.51157
 C1921 C 0.53274 0.61885 0.03283
 C1922 C 0.54170 0.60967 0.01674
 C1923 C 0.53556 0.59097 0.01072
 C1924 C 0.54660 0.65268 0.04617
 C1925 C 0.51115 0.59073 0.03669
 C1926 C 0.51733 0.60944 0.04267
 C1927 C 0.54007 0.63742 0.03990
 C1928 C 0.52036 0.58116 0.02079
 H1929 H 0.55370 0.61680 0.00907
 H1930 H 0.54301 0.58407 -0.00155
 H1931 H 0.49944 0.58363 0.04480
 H1932 H 0.51035 0.61639 0.05520
 C1933 C 0.71465 0.13289 0.53443
 C1934 C 0.73045 0.14205 0.54394
 C1935 C 0.73708 0.16046 0.53757
 C1936 C 0.70067 0.09914 0.54787
 C1937 C 0.71225 0.16050 0.51195
 C1938 C 0.70566 0.14209 0.51835
 C1939 C 0.70719 0.11441 0.54161
 C1940 C 0.72796 0.17000 0.52158
 H1941 H 0.73748 0.13508 0.55645
 H1942 H 0.74916 0.16733 0.54538
 H1943 H 0.70483 0.16739 0.49964
 H1944 H 0.69337 0.13517 0.51092
 C1945 C 0.71579 0.63336 0.03415
 C1946 C 0.73174 0.64257 0.04335
 C1947 C 0.73793 0.66118 0.03712
 C1948 C 0.70284 0.59907 0.04721
 C1949 C 0.71231 0.66134 0.01228
 C1950 C 0.70616 0.64274 0.01855
 C1951 C 0.70889 0.61460 0.04114
 C1952 C 0.72821 0.67085 0.02157
 H1953 H 0.73926 0.63547 0.05550
 H1954 H 0.75017 0.66805 0.04465
 H1955 H 0.70445 0.66835 0.00031
 H1956 H 0.69375 0.63577 0.01137
 C1957 C 0.21721 0.61913 0.71723
 C1958 C 0.20785 0.60985 0.73303
 C1959 C 0.21399 0.59122 0.73921
 C1960 C 0.20338 0.65280 0.70348
 C1961 C 0.23922 0.59123 0.71403
 C1962 C 0.23303 0.60988 0.70789
 C1963 C 0.20990 0.63761 0.70993
 C1964 C 0.22960 0.58155 0.72961
 H1965 H 0.19554 0.61686 0.74032
 H1966 H 0.20623 0.58422 0.75122
 H1967 H 0.25125 0.58425 0.70628
 H1968 H 0.24034 0.61690 0.69559
 C1969 C 0.21780 0.11825 0.21680
 C1970 C 0.20855 0.10902 0.23269
 C1971 C 0.21449 0.09024 0.23863
 C1972 C 0.20437 0.15226 0.20355
 C1973 C 0.23925 0.09002 0.21299
 C1974 C 0.23327 0.10880 0.20708
 C1975 C 0.21070 0.13692 0.20978
 C1976 C 0.22977 0.08040 0.22869
 H1977 H 0.19650 0.11619 0.24026
 H1978 H 0.20685 0.08330 0.25076
 H1979 H 0.25103 0.08290 0.20498
 H1980 H 0.24047 0.11579 0.19470
 C1981 C 0.71709 1.11947 0.71612
 C1982 C 0.70771 1.11028 0.73195
 C1983 C 0.71376 1.09162 0.73815
 C1984 C 0.70340 1.15324 0.70245
 C1985 C 0.73892 1.09144 0.71291
 C1986 C 0.73282 1.11010 0.70674
 C1987 C 0.70987 1.13800 0.70884
 C1988 C 0.72929 1.08184 0.72854
 H1989 H 0.69546 1.11737 0.73927
 H1990 H 0.70599 1.08470 0.75021
 H1991 H 0.75089 1.08437 0.70515
 H1992 H 0.74014 1.11706 0.69441
 C1993 C 0.71815 0.61920 0.21668
 C1994 C 0.73373 0.60977 0.20710
 C1995 C 0.73983 0.59109 0.21321
 C1996 C 0.70446 0.65298 0.20306
 C1997 C 0.71502 0.59138 0.23879
 C1998 C 0.70895 0.61006 0.23265
 C1999 C 0.71092 0.63774 0.20945
 C2000 C 0.73038 0.58155 0.22898
 H2001 H 0.74090 0.61669 0.19467
 H2002 H 0.75168 0.58398 0.20530
 H2003 H 0.70739 0.58450 0.25095
 H2004 H 0.69682 0.61720 0.24011
 C2005 C 0.53243 0.13094 0.71587
 C2006 C 0.51662 0.14030 0.70660
 C2007 C 0.51049 0.15892 0.71290
 C2008 C 0.54610 0.09723 0.70198
 C2009 C 0.53578 0.15870 0.73807
 C2010 C 0.54186 0.14008 0.73174
 C2011 C 0.53965 0.11244 0.70847
 C2012 C 0.52017 0.16847 0.72857
 H2013 H 0.50926 0.13338 0.69425
 H2014 H 0.49846 0.16599 0.70521
 H2015 H 0.54359 0.16558 0.75015
 H2016 H 0.55417 0.13299 0.73898
 C2017 C 1.03235 0.13011 0.21671
 C2018 C 1.04154 0.13928 0.23271
 C2019 C 1.03562 0.15807 0.23868
 C2020 C 1.04562 0.09596 0.20356
 C2021 C 1.01100 0.15843 0.21285
 C2022 C 1.01696 0.13964 0.20692
 C2023 C 1.03937 0.11138 0.20974
 C2024 C 1.02041 0.16798 0.22867
 H2025 H 1.05353 0.13206 0.24035
 H2026 H 1.04321 0.16495 0.25089
 H2027 H 0.99927 0.16560 0.20479
 H2028 H 1.00979 0.13270 0.19446
 C2029 C 0.21570 0.63310 0.53467
 C2030 C 0.20675 0.64223 0.51853
 C2031 C 0.21313 0.66075 0.51228
 C2032 C 0.20203 0.59915 0.54783
 C2033 C 0.23769 0.66098 0.53817
 C2034 C 0.23126 0.64245 0.54439
 C2035 C 0.20843 0.61451 0.54170
 C2036 C 0.22860 0.67043 0.52211
 H2037 H 0.19464 0.63515 0.51095
 H2038 H 0.20576 0.66758 0.49990
 H2039 H 0.24957 0.66800 0.54613
 H2040 H 0.23825 0.63554 0.55696
 C2041 C 0.21595 0.13246 1.03450
 C2042 C 0.23154 0.14178 1.04420
 C2043 C 0.23782 0.16041 1.03814
 C2044 C 0.20269 0.09817 1.04723
 C2045 C 0.21303 0.16038 1.01247
 C2046 C 0.20678 0.14175 1.01857
 C2047 C 0.20889 0.11370 1.04131
 C2048 C 0.22855 0.17001 1.02226
 H2049 H 0.23868 0.13475 1.05660
 H2050 H 0.24976 0.16738 1.04606
 H2051 H 0.20552 0.16731 1.00023
 H2052 H 0.19466 0.13470 1.01100
 C2053 C 0.21491 0.71576 0.61694
 C2054 C 0.20571 0.73170 0.60771
 C2055 C 0.21195 0.73790 0.58912
 C2056 C 0.20189 0.70281 0.65124
 C2057 C 0.23678 0.71230 0.58901
 C2058 C 0.23050 0.70614 0.60760
 C2059 C 0.20793 0.70886 0.63570
 C2060 C 0.22751 0.72820 0.57948
 H2061 H 0.19357 0.73921 0.61478
 H2062 H 0.20444 0.75015 0.58222
 H2063 H 0.24875 0.70444 0.58204
 H2064 H 0.23767 0.69373 0.61459
 C2065 C 0.21577 0.21567 1.11744
 C2066 C 0.20649 0.23157 1.10822
 C2067 C 0.21257 0.23769 1.08955
 C2068 C 0.20301 0.20275 1.15182
 C2069 C 0.23739 0.21208 1.08934
 C2070 C 0.23128 0.20600 1.10800
 C2071 C 0.20895 0.20881 1.13625
 C2072 C 0.22803 0.22794 1.07982
 H2073 H 0.19441 0.23911 1.11537
 H2074 H 0.20500 0.24991 1.08267
 H2075 H 0.24930 0.20420 1.08230
 H2076 H 0.23851 0.19362 1.11498
 C2077 C 0.71740 0.53292 0.13096
 C2078 C 0.73323 0.54225 0.14025
 C2079 C 0.73937 0.53610 0.15890
 C2080 C 0.70379 0.54675 0.09721
 C2081 C 0.71410 0.51095 0.15887
 C2082 C 0.70799 0.51714 0.14021
 C2083 C 0.71017 0.54024 0.11243
 C2084 C 0.72971 0.52052 0.16857
 H2085 H 0.74057 0.55453 0.13324
 H2086 H 0.75142 0.54383 0.16589
 H2087 H 0.70630 0.49895 0.16586
 H2088 H 0.69567 0.50986 0.13318
 C2089 C 0.71559 1.03347 0.63085
 C2090 C 0.73176 1.04245 0.63988
 C2091 C 0.73813 1.03611 0.65839
 C2092 C 0.70154 1.04779 0.59748
 C2093 C 0.71240 1.01143 0.65873
 C2094 C 0.70606 1.01781 0.64021
 C2095 C 0.70812 1.04105 0.61253
 C2096 C 0.72835 1.02069 0.66818
 H2097 H 0.73920 1.05463 0.63279
 H2098 H 0.75043 1.04360 0.66520
 H2099 H 0.70450 0.99956 0.66583
 H2100 H 0.69348 1.01081 0.63338
 C2101 C 0.53332 0.21767 0.63088
 C2102 C 0.54282 0.23330 0.64033
 C2103 C 0.53663 0.23945 0.65896
 C2104 C 0.54725 0.20367 0.59738
 C2105 C 0.51108 0.21457 0.65854
 C2106 C 0.51731 0.20847 0.63991
 C2107 C 0.54071 0.21029 0.61247
 C2108 C 0.52085 0.22996 0.66842
 H2109 H 0.55529 0.24047 0.63349
 H2110 H 0.54450 0.25132 0.66612
 H2111 H 0.49891 0.20692 0.66536
 H2112 H 0.50991 0.19629 0.63274
 C2113 C 1.03354 0.21753 0.13062
 C2114 C 1.04287 0.23329 0.14004
 C2115 C 1.03675 0.23927 0.15875
 C2116 C 1.04715 0.20407 0.09674
 C2117 C 1.01165 0.21395 0.15851
 C2118 C 1.01780 0.20801 0.13980
 C2119 C 1.04078 0.21043 0.11203
 C2120 C 1.02122 0.22950 0.16834
 H2121 H 1.05512 0.24072 0.13308
 H2122 H 1.04448 0.25127 0.16586
 H2123 H 0.99967 0.20607 0.16542
 H2124 H 1.01052 0.19574 0.13266
 C2125 C 0.61877 0.21665 0.71721
 C2126 C 0.60965 0.23278 0.70823
 C2127 C 0.59101 0.23885 0.71439
 C2128 C 0.65251 0.20324 0.70336
 C2129 C 0.59072 0.21287 0.73885
 C2130 C 0.60936 0.20684 0.73265
 C2131 C 0.63729 0.20953 0.70987
 C2132 C 0.58120 0.22881 0.72962
 H2133 H 0.61677 0.24043 0.69621
 H2134 H 0.58415 0.25115 0.70693
 H2135 H 0.58362 0.20478 0.75059
 H2136 H 0.61627 0.19428 0.73965
 C2137 C 1.11947 0.21671 0.21786
 C2138 C 1.11032 0.23271 0.20870
 C2139 C 1.09160 0.23869 0.21467
 C2140 C 1.15330 0.20337 0.20420
 C2141 C 1.09130 0.21288 0.23931
 C2142 C 1.11002 0.20694 0.23330
 C2143 C 1.13804 0.20964 0.21066
 C2144 C 1.08174 0.22868 0.22989
 H2145 H 1.11748 0.24032 0.19667
 H2146 H 1.08471 0.25089 0.20707
 H2147 H 1.08416 0.20483 0.25105
 H2148 H 1.11696 0.19447 0.24043
 C2149 C 0.13297 0.71511 0.53409
 C2150 C 0.14203 0.73115 0.54328
 C2151 C 0.16048 0.73761 0.53695
 C2152 C 0.09913 0.70161 0.54764
 C2153 C 0.16077 0.71209 0.51199
 C2154 C 0.14231 0.70567 0.51836
 C2155 C 0.11444 0.70787 0.54129
 C2156 C 0.17016 0.72805 0.52131
 H2157 H 0.13496 0.73852 0.55552
 H2158 H 0.16726 0.74989 0.54451
 H2159 H 0.16778 0.70434 0.49996
 H2160 H 0.13546 0.69318 0.51118
 C2161 C 0.13259 0.21631 1.03396
 C2162 C 0.14191 0.23213 1.04328
 C2163 C 0.16054 0.23819 1.03713
 C2164 C 0.09838 0.20344 1.04714
 C2165 C 0.16051 0.21273 1.01211
 C2166 C 0.14187 0.20670 1.01830
 C2167 C 0.11386 0.20945 1.04097
 C2168 C 0.17014 0.22847 1.02155
 H2169 H 0.13488 0.23962 1.05547
 H2170 H 0.16751 0.25033 1.04477
 H2171 H 0.16746 0.20487 1.00011
 H2172 H 0.13481 0.19438 1.01103
 C2173 C 0.63113 0.53261 0.21808
 C2174 C 0.64062 0.54238 0.23354
 C2175 C 0.65943 0.53655 0.23945
 C2176 C 0.59693 0.54555 0.20485
 C2177 C 0.65918 0.51088 0.21464
 C2178 C 0.64037 0.51674 0.20878
 C2179 C 0.61238 0.53948 0.21110
 C2180 C 0.66905 0.52086 0.22991
 H2181 H 0.63362 0.55474 0.24079
 H2182 H 0.66657 0.54459 0.25122
 H2183 H 0.66611 0.49876 0.20696
 H2184 H 0.63318 0.50912 0.19674
 C2185 C 0.63068 1.03364 0.71664
 C2186 C 0.63986 1.01763 0.70750
 C2187 C 0.65849 1.01152 0.71370
 C2188 C 0.59695 1.04718 0.70279
 C2189 C 0.65866 1.03720 0.73849
 C2190 C 0.64003 1.04328 0.73226
 C2191 C 0.61218 1.04083 0.70930
 C2192 C 0.66824 1.02139 0.72912
 H2193 H 0.63278 1.01011 0.69534
 H2194 H 0.66540 0.99932 0.70612
 H2195 H 0.66570 1.04517 0.75037
 H2196 H 0.63308 1.05574 0.73939
 C2197 C 0.86701 0.46500 0.28519
 C2198 C 0.85790 0.48098 0.29444
 C2199 C 0.83944 0.48743 0.28807
 C2200 C 0.90092 0.45143 0.29855
 C2201 C 0.83926 0.46201 0.26299
 C2202 C 0.85771 0.45561 0.26940
 C2203 C 0.88557 0.45778 0.29235
 C2204 C 0.82983 0.47793 0.27233
 H2205 H 0.86494 0.48830 0.30674
 H2206 H 0.83261 0.49967 0.29564
 H2207 H 0.83231 0.45432 0.25087
 H2208 H 0.86461 0.44318 0.26218
 C2209 C 0.86587 0.96622 0.78588
 C2210 C 0.85690 0.95714 0.76971
 C2211 C 0.83856 0.96364 0.76307
 C2212 C 0.89943 0.95229 0.79975
 C2213 C 0.83821 0.98855 0.78864
 C2214 C 0.85655 0.98201 0.79525
 C2215 C 0.88425 0.95881 0.79332
 C2216 C 0.82890 0.97933 0.77256
 H2217 H 0.86395 0.94485 0.76239
 H2218 H 0.83184 0.95616 0.75069
 H2219 H 0.83120 1.00061 0.79635
 H2220 H 0.86334 0.98910 0.80783
 C2221 C 0.38323 0.28394 0.78496
 C2222 C 0.39257 0.26832 0.79462
 C2223 C 0.41105 0.26187 0.78834
 C2224 C 0.34933 0.29765 0.79815
 C2225 C 0.41079 0.28653 0.76255
 C2226 C 0.39232 0.29294 0.76886
 C2227 C 0.36467 0.29123 0.79202
 C2228 C 0.42046 0.27100 0.77231
 H2229 H 0.38568 0.26131 0.80716
 H2230 H 0.41806 0.24994 0.79625
 H2231 H 0.41759 0.29393 0.75020
 H2232 H 0.38525 0.30509 0.76132
 C2233 C 0.88370 0.28430 0.28460
 C2234 C 0.89281 0.26830 0.29383
 C2235 C 0.91129 0.26190 0.28753
 C2236 C 0.84976 0.29781 0.29784
 C2237 C 0.91151 0.28738 0.26256
 C2238 C 0.89303 0.29374 0.26889
 C2239 C 0.86512 0.29148 0.29169
 C2240 C 0.92093 0.27145 0.27189
 H2241 H 0.88574 0.26093 0.30606
 H2242 H 0.91812 0.24963 0.29509
 H2243 H 0.91849 0.29512 0.25051
 H2244 H 0.88614 0.30619 0.26169
 C2245 C 0.36842 0.78319 0.46673
 C2246 C 0.35920 0.76730 0.45741
 C2247 C 0.34064 0.76103 0.46362
 C2248 C 0.40199 0.79711 0.45296
 C2249 C 0.34063 0.78632 0.48882
 C2250 C 0.35918 0.79254 0.48257
 C2251 C 0.38684 0.79056 0.45941
 C2252 C 0.33100 0.77064 0.47925
 H2253 H 0.36619 0.75999 0.44508
 H2254 H 0.33369 0.74895 0.45588
 H2255 H 0.33366 0.79408 0.50087
 H2256 H 0.36615 0.80491 0.48986
 C2257 C 0.36868 0.28206 0.96686
 C2258 C 0.35963 0.29120 0.98292
 C2259 C 0.34108 0.28501 0.98917
 C2260 C 0.40207 0.29623 0.95295
 C2261 C 0.34075 0.26016 0.96354
 C2262 C 0.35931 0.26639 0.95732
 C2263 C 0.38702 0.28953 0.95947
 C2264 C 0.33128 0.26958 0.97938
 H2265 H 0.36674 0.30339 0.99036
 H2266 H 0.33426 0.29261 1.00140
 H2267 H 0.33364 0.24828 0.95563
 H2268 H 0.36616 0.25927 0.94481
 C2269 C 0.78446 0.46560 0.36726
 C2270 C 0.76880 0.45610 0.35786
 C2271 C 0.76254 0.46236 0.33927
 C2272 C 0.79776 0.45242 0.40142
 C2273 C 0.78749 0.48783 0.33953
 C2274 C 0.79371 0.48154 0.35811
 C2275 C 0.79153 0.45854 0.38596
 C2276 C 0.77191 0.47823 0.32980
 H2277 H 0.76159 0.44369 0.36479
 H2278 H 0.75055 0.45458 0.33222
 H2279 H 0.79508 0.50005 0.33269
 H2280 H 0.80590 0.48895 0.36523
 C2281 C 0.78436 0.96598 0.86659
 C2282 C 0.76843 0.95668 0.85745
 C2283 C 0.76201 0.96296 0.83893
 C2284 C 0.79792 0.95273 0.90058
 C2285 C 0.78734 0.98806 0.83874
 C2286 C 0.79372 0.98174 0.85725
 C2287 C 0.79158 0.95890 0.88520
 C2288 C 0.77148 0.97865 0.82928
 H2289 H 0.76113 0.94441 0.86453
 H2290 H 0.74980 0.95534 0.83209
 H2291 H 0.79502 1.00014 0.83175
 H2292 H 0.80612 0.98899 0.86417
 C2293 C 0.28308 0.78398 0.38135
 C2294 C 0.26743 0.79355 0.39067
 C2295 C 0.26106 0.78727 0.40919
 C2296 C 0.29736 0.79787 0.34795
 C2297 C 0.28573 0.76152 0.40894
 C2298 C 0.29206 0.76783 0.39043
 C2299 C 0.29063 0.79138 0.36301
 C2300 C 0.27031 0.77133 0.41869
 H2301 H 0.26042 0.80612 0.38380
 H2302 H 0.24919 0.79520 0.41625
 H2303 H 0.29321 0.74922 0.41578
 H2304 H 0.30423 0.76036 0.38337
 C2305 C 0.28288 0.28332 0.88142
 C2306 C 0.26728 0.29291 0.89079
 C2307 C 0.26098 0.28667 0.90935
 C2308 C 0.29703 0.29722 0.84798
 C2309 C 0.28565 0.26090 0.90904
 C2310 C 0.29190 0.26718 0.89048
 C2311 C 0.29036 0.29071 0.86306
 C2312 C 0.27028 0.27074 0.91883
 H2313 H 0.26024 0.30547 0.88394
 H2314 H 0.24914 0.29461 0.91644
 H2315 H 0.29316 0.24862 0.91587
 H2316 H 0.30404 0.25970 0.88338
 C2317 C 0.46543 0.28452 0.86689
 C2318 C 0.48145 0.29365 0.85779
 C2319 C 0.48776 0.28732 0.83926
 C2320 C 0.45214 0.29786 0.90094
 C2321 C 0.46214 0.26252 0.83898
 C2322 C 0.45587 0.26889 0.85750
 C2323 C 0.45836 0.29166 0.88553
 C2324 C 0.47810 0.27174 0.82956
 H2325 H 0.48891 0.30582 0.86490
 H2326 H 0.50005 0.29480 0.83245
 H2327 H 0.45432 0.25054 0.83195
 H2328 H 0.44340 0.26177 0.86440
 C2329 C 0.96658 0.28330 0.36726
 C2330 C 0.98228 0.29277 0.35796
 C2331 C 0.98845 0.28663 0.33931
 C2332 C 0.95348 0.29634 0.40151
 C2333 C 0.96332 0.26133 0.33932
 C2334 C 0.95719 0.26751 0.35796
 C2335 C 0.95962 0.29027 0.38601
 C2336 C 0.97895 0.27091 0.32969
 H2337 H 0.98961 0.30507 0.36500
 H2338 H 1.00048 0.29437 0.33235
 H2339 H 0.95563 0.24922 0.33236
 H2340 H 0.94497 0.26013 0.36501
 C2341 C 0.46469 0.36633 0.78530
 C2342 C 0.45546 0.35717 0.76932
 C2343 C 0.46201 0.33881 0.76272
 C2344 C 0.45083 0.39990 0.79931
 C2345 C 0.48727 0.33884 0.78793
 C2346 C 0.48068 0.35720 0.79450
 C2347 C 0.45727 0.38472 0.79277
 C2348 C 0.47790 0.32933 0.77205
 H2349 H 0.44302 0.36409 0.76215
 H2350 H 0.45441 0.33193 0.75051
 H2351 H 0.49949 0.33198 0.79551
 H2352 H 0.48789 0.36413 0.80693
 C2353 C 0.96520 0.36625 0.28422
 C2354 C 0.98126 0.35711 0.29328
 C2355 C 0.98761 0.33863 0.28686
 C2356 C 0.95186 0.40014 0.29793
 C2357 C 0.96196 0.33845 0.26205
 C2358 C 0.95564 0.35694 0.26852
 C2359 C 0.95807 0.38480 0.29152
 C2360 C 0.97794 0.32899 0.27124
 H2361 H 0.98872 0.36417 0.30550
 H2362 H 0.99992 0.33179 0.29431
 H2363 H 0.95412 0.33146 0.25005
 H2364 H 0.94314 0.36385 0.26145
 C2365 C 0.28266 0.86930 0.46781
 C2366 C 0.26665 0.86015 0.45867
 C2367 C 0.26062 0.84145 0.46472
 C2368 C 0.29611 0.90310 0.45406
 C2369 C 0.28638 0.84115 0.48941
 C2370 C 0.29238 0.85986 0.48331
 C2371 C 0.28979 0.88786 0.46055
 C2372 C 0.27057 0.83160 0.48001
 H2373 H 0.25908 0.86731 0.44659
 H2374 H 0.24841 0.83456 0.45714
 H2375 H 0.29441 0.83402 0.50120
 H2376 H 0.30485 0.86679 0.49044
 C2377 C 0.28439 0.36819 0.96724
 C2378 C 0.26819 0.35924 0.95823
 C2379 C 0.26180 0.34074 0.96453
 C2380 C 0.29851 0.40152 0.95304
 C2381 C 0.28757 0.34025 0.98920
 C2382 C 0.29393 0.35876 0.98287
 C2383 C 0.29190 0.38649 0.95972
 C2384 C 0.27158 0.33088 0.97992
 H2385 H 0.26075 0.36639 0.94607
 H2386 H 0.24947 0.33399 0.95702
 H2387 H 0.29547 0.33311 1.00107
 H2388 H 0.30653 0.36553 0.98990
 C2389 C 0.78549 0.38308 0.28379
 C2390 C 0.79503 0.39244 0.26815
 C2391 C 0.78874 0.41098 0.26179
 C2392 C 0.79881 0.34911 0.29731
 C2393 C 0.76314 0.41073 0.28659
 C2394 C 0.76947 0.39220 0.29291
 C2395 C 0.79261 0.36448 0.29099
 C2396 C 0.77279 0.42042 0.27104
 H2397 H 0.80750 0.38554 0.26104
 H2398 H 0.79656 0.41801 0.24984
 H2399 H 0.75086 0.41755 0.29408
 H2400 H 0.76203 0.38510 0.30508
   
