data_POSCAR
  _audit_creation_date              2014-09-24
  _audit_creation_method            'ToBaCCo'
  _symmetry_space_group_name_H-M    'P1'
  _symmetry_Int_Tables_number       1
  _symmetry_cell_setting            triclinic
  loop_
  _symmetry_equiv_pos_as_xyz
 x,y,z
_cell_length_a 73.6022
_cell_length_b 74.3814
_cell_length_c 69.8962
_cell_angle_alpha 90.111100
_cell_angle_beta 89.810000
_cell_angle_gamma 91.130700
loop_
  _atom_site_label
  _atom_site_type_symbol
  _atom_site_fract_x
  _atom_site_fract_y
  _atom_site_fract_z
C1 C 0.38823 0.02075 0.27414
 H2 H 0.38659 0.02898 0.26153
 C3 C 0.39895 0.02703 0.28930
 H4 H 0.40566 0.04008 0.28830
 C5 C 0.38147 -0.00631 0.29079
 H6 H 0.37444 -0.01917 0.29146
 C7 C 0.39226 -0.00069 0.30612
 H8 H 0.39346 -0.00931 0.31850
 N9 N 0.37985 0.00431 0.27509
 C10 C 0.37283 -0.01412 0.21643
 H11 H 0.35819 -0.01544 0.21562
 C12 C 0.38348 -0.01841 0.20058
 H13 H 0.37677 -0.02250 0.18748
 C14 C 0.39911 -0.00683 0.23453
 H15 H 0.40516 -0.00260 0.24790
 C16 C 0.41030 -0.01132 0.21915
 H17 H 0.42489 -0.01052 0.22098
 Zn18 Zn 0.36553 -0.00317 0.25400
 N19 N 0.38073 -0.00811 0.23284
 C20 C 0.34888 0.02312 0.23066
 N21 N 0.34943 0.01564 0.24839
 C22 C 0.33953 0.02237 0.26311
 C23 C 0.32885 0.03746 0.26042
 C24 C 0.33815 0.03803 0.22725
 C25 C 0.36284 -0.03966 0.26119
 C26 C 0.35459 -0.05646 0.26396
 C27 C 0.32538 -0.04227 0.26374
 C28 C 0.33430 -0.02570 0.26089
 N29 N 0.35269 -0.02474 0.25964
 H30 H 0.35706 0.01787 0.21919
 H31 H 0.34046 0.01635 0.27714
 H32 H 0.32177 0.04303 0.27259
 H33 H 0.33792 0.04368 0.21301
 H34 H 0.37749 -0.03849 0.26017
 H35 H 0.36357 -0.06760 0.26595
 H36 H 0.31071 -0.04224 0.26364
 H37 H 0.32645 -0.01368 0.25922
 C38 C 0.40253 -0.01707 0.20177
 C39 C 0.40118 0.01615 0.30545
 C40 C 0.33539 -0.05834 0.26498
 C41 C 0.32824 0.04568 0.24233
 C42 C 0.10730 0.01759 0.72522
 H43 H 0.10760 0.02634 0.73760
 C44 C 0.09664 0.02190 0.70941
 H45 H 0.08862 0.03395 0.70967
 C46 C 0.11748 -0.00876 0.70972
 H47 H 0.12582 -0.02052 0.70969
 C48 C 0.10685 -0.00511 0.69378
 H49 H 0.10710 -0.01416 0.68163
 N50 N 0.11732 0.00239 0.72515
 C51 C 0.12509 -0.01662 0.78322
 H52 H 0.13974 -0.01751 0.78333
 C53 C 0.11500 -0.02245 0.79902
 H54 H 0.12206 -0.02746 0.81143
 C55 C 0.09822 -0.00874 0.76691
 H56 H 0.09175 -0.00361 0.75425
 C57 C 0.08758 -0.01442 0.78244
 H58 H 0.07294 -0.01356 0.78159
 Zn59 Zn 0.13162 -0.00289 0.74683
 N60 N 0.11664 -0.00972 0.76769
 C61 C 0.14590 0.02433 0.77130
 N62 N 0.14569 0.01782 0.75311
 C63 C 0.15477 0.02647 0.73877
 C64 C 0.16427 0.04255 0.74240
 C65 C 0.15546 0.04019 0.77563
 C66 C 0.13823 -0.03891 0.74026
 C67 C 0.14831 -0.05450 0.73895
 C68 C 0.17583 -0.03630 0.74067
 C69 C 0.16516 -0.02097 0.74195
 N70 N 0.14672 -0.02260 0.74190
 H71 H 0.13848 0.01740 0.78250
 H72 H 0.15421 0.02110 0.72439
 H73 H 0.17076 0.04955 0.73058
 H74 H 0.15555 0.04498 0.79026
 H75 H 0.12354 -0.03981 0.74053
 H76 H 0.14127 -0.06738 0.73786
 H77 H 0.19048 -0.03488 0.74141
 H78 H 0.17161 -0.00789 0.74363
 C79 C 0.09599 -0.02133 0.79881
 C80 C 0.09620 0.01033 0.69354
 C81 C 0.16736 -0.05336 0.73955
 C82 C 0.16458 0.04974 0.76103
 C83 C 0.61056 0.52395 0.22975
 H84 H 0.61225 0.53279 0.24195
 C85 C 0.59869 0.52850 0.21501
 H86 H 0.59115 0.54083 0.21593
 C87 C 0.61844 0.49716 0.21358
 H88 H 0.62636 0.48513 0.21283
 C89 C 0.60657 0.50103 0.19873
 H90 H 0.60546 0.49189 0.18669
 N91 N 0.62002 0.50842 0.22885
 C92 C 0.63239 0.48912 0.28580
 H93 H 0.64682 0.48714 0.28407
 C94 C 0.62381 0.48428 0.30287
 H95 H 0.63176 0.47848 0.31422
 C96 C 0.60454 0.49886 0.27285
 H97 H 0.59710 0.50450 0.26108
 C98 C 0.59540 0.49425 0.28976
 H99 H 0.58100 0.49676 0.29098
 Zn100 Zn 0.63600 0.50281 0.24905
 N101 N 0.62278 0.49656 0.27136
 C102 C 0.65273 0.52985 0.27194
 N103 N 0.65115 0.52314 0.25389
 C104 C 0.65966 0.53128 0.23885
 C105 C 0.67004 0.54700 0.24162
 C106 C 0.66314 0.54538 0.27539
 C107 C 0.64109 0.46654 0.24192
 C108 C 0.65067 0.45070 0.23982
 C109 C 0.67866 0.46825 0.23933
 C110 C 0.66850 0.48383 0.24140
 N111 N 0.65007 0.48266 0.24283
 H112 H 0.64576 0.52332 0.28370
 H113 H 0.65801 0.52577 0.22461
 H114 H 0.67614 0.55359 0.22932
 H115 H 0.66430 0.55035 0.28990
 H116 H 0.62645 0.46600 0.24341
 H117 H 0.64325 0.43799 0.23933
 H118 H 0.69334 0.46933 0.23894
 H119 H 0.67538 0.49675 0.24255
 C120 C 0.60512 0.48710 0.30515
 C121 C 0.59646 0.51682 0.19938
 C122 C 0.66973 0.45138 0.23893
 C123 C 0.67177 0.55436 0.26009
 C124 C 0.88181 0.51547 0.76707
 H125 H 0.88162 0.52494 0.75535
 C126 C 0.89191 0.51948 0.78349
 H127 H 0.89972 0.53195 0.78379
 C128 C 0.87211 0.48758 0.78015
 H129 H 0.86398 0.47540 0.77911
 C130 C 0.88227 0.49085 0.79664
 H131 H 0.88131 0.48103 0.80801
 N132 N 0.87229 0.49968 0.76564
 C133 C 0.86702 0.48749 0.70502
 H134 H 0.85237 0.48694 0.70372
 C135 C 0.87792 0.48331 0.68932
 H136 H 0.87155 0.47988 0.67582
 C137 C 0.89304 0.49250 0.72434
 H138 H 0.89886 0.49569 0.73814
 C139 C 0.90447 0.48851 0.70897
 H140 H 0.91904 0.48874 0.71108
 Zn141 Zn 0.85881 0.49537 0.74300
 N142 N 0.87469 0.49194 0.72209
 C143 C 0.84735 0.52680 0.72399
 N144 N 0.84419 0.51560 0.73903
 C145 C 0.83147 0.51936 0.75251
 C146 C 0.82115 0.53481 0.75106
 C147 C 0.83763 0.54266 0.72223
 C148 C 0.85358 0.45846 0.74697
 C149 C 0.84417 0.44206 0.74815
 C150 C 0.81599 0.45788 0.74497
 C151 C 0.82598 0.47403 0.74388
 N152 N 0.84443 0.47405 0.74514
 H153 H 0.85788 0.52381 0.71372
 H154 H 0.82948 0.51038 0.76453
 H155 H 0.81090 0.53728 0.76184
 H156 H 0.84100 0.55174 0.71061
 H157 H 0.86827 0.45881 0.74754
 H158 H 0.85175 0.42986 0.74996
 H159 H 0.80134 0.45808 0.74369
 H160 H 0.81894 0.48645 0.74171
 C161 C 0.89691 0.48369 0.69122
 C162 C 0.89252 0.50700 0.79864
 C163 C 0.82511 0.44160 0.74709
 C164 C 0.82439 0.54697 0.73598
 C165 C 0.22128 0.40999 0.98345
 H166 H 0.23333 0.41066 0.97456
 C167 C 0.20582 0.41948 0.97824
 H168 H 0.20604 0.42744 0.96528
 C169 C 0.20608 0.39821 1.01075
 H170 H 0.20598 0.38963 1.02317
 C171 C 0.19043 0.40743 1.00611
 H172 H 0.17869 0.40617 1.01542
 N173 N 0.22115 0.39969 0.99954
 C174 C 0.27736 0.39181 1.01599
 H175 H 0.27657 0.37741 1.01808
 C176 C 0.29362 0.40113 1.01939
 H177 H 0.30526 0.39377 1.02429
 C178 C 0.26285 0.41881 1.00751
 H179 H 0.25077 0.42562 1.00300
 C180 C 0.27894 0.42871 1.01067
 H181 H 0.27918 0.44308 1.00822
 Zn182 Zn 0.24169 0.38595 1.00578
 N183 N 0.26249 0.40066 1.00992
 C184 C 0.26122 0.37243 0.97416
 N185 N 0.24604 0.37007 0.98509
 C186 C 0.23331 0.35727 0.98067
 C187 C 0.23577 0.34594 0.96495
 C188 C 0.26403 0.36168 0.95806
 C189 C 0.23525 0.38365 1.04488
 C190 C 0.23208 0.37568 1.06265
 C191 C 0.23377 0.34653 1.04753
 C192 C 0.23693 0.35508 1.03001
 N193 N 0.23737 0.37334 1.02897
 H194 H 0.27092 0.38305 0.97751
 H195 H 0.22116 0.35591 0.98935
 H196 H 0.22558 0.33563 0.96204
 H197 H 0.27585 0.36439 0.94921
 H198 H 0.23590 0.39815 1.04368
 H199 H 0.23017 0.38416 1.07507
 H200 H 0.23371 0.33198 1.04815
 H201 H 0.23924 0.34708 1.01737
 C202 C 0.29466 0.41980 1.01648
 C203 C 0.19007 0.41811 0.98958
 C204 C 0.23130 0.35687 1.06415
 C205 C 0.25119 0.34820 0.95316
 C206 C 0.78059 0.09731 0.97931
 H207 H 0.76840 0.09415 0.97128
 C208 C 0.79613 0.08698 0.97675
 H209 H 0.79516 0.07560 0.96715
 C210 C 0.79594 0.11576 1.00183
 H211 H 0.79613 0.12731 1.01118
 C212 C 0.81170 0.10593 0.99971
 H213 H 0.82361 0.11067 1.00734
 N214 N 0.78059 0.11106 0.99216
 C215 C 0.72558 0.11946 1.01345
 H216 H 0.72661 0.13393 1.01488
 C217 C 0.70943 0.11051 1.01835
 H218 H 0.69819 0.11818 1.02382
 C219 C 0.73894 0.09205 1.00421
 H220 H 0.75039 0.08491 0.99854
 C221 C 0.72296 0.08252 1.00891
 H222 H 0.72224 0.06813 1.00653
 Zn223 Zn 0.75943 0.12473 0.99680
 N224 N 0.73971 0.11028 1.00593
 C225 C 0.73479 0.13476 0.96800
 N226 N 0.75237 0.13618 0.97385
 C227 C 0.76496 0.14560 0.96346
 C228 C 0.75998 0.15417 0.94652
 C229 C 0.72918 0.14331 0.95137
 C230 C 0.76785 0.13548 1.03380
 C231 C 0.77204 0.14716 1.04883
 C232 C 0.76906 0.17219 1.02713
 C233 C 0.76505 0.15998 1.01243
 N234 N 0.76464 0.14200 1.01600
 H235 H 0.72497 0.12708 0.97622
 H236 H 0.77890 0.14637 0.96830
 H237 H 0.77031 0.16127 0.93828
 H238 H 0.71500 0.14234 0.94739
 H239 H 0.76723 0.12113 1.03625
 H240 H 0.77437 0.14170 1.06294
 H241 H 0.76943 0.18646 1.02410
 H242 H 0.76228 0.16487 0.99821
 C243 C 0.70777 0.09186 1.01554
 C244 C 0.81205 0.09087 0.98739
 C245 C 0.77271 0.16578 1.04559
 C246 C 0.74182 0.15314 0.94028
 C247 C 0.28421 0.60286 0.47997
 H248 H 0.27673 0.60765 0.46778
 C249 C 0.30051 0.59387 0.47716
 H250 H 0.30558 0.59198 0.46275
 C251 C 0.28694 0.59986 0.51360
 H252 H 0.28156 0.60237 0.52775
 C253 C 0.30331 0.59092 0.51144
 H254 H 0.31040 0.58640 0.52404
 N255 N 0.27790 0.60583 0.49800
 C256 C 0.22100 0.61117 0.51442
 H257 H 0.21947 0.62558 0.51349
 C258 C 0.20614 0.60030 0.51947
 H259 H 0.19320 0.60647 0.52235
 C260 C 0.23949 0.58567 0.51077
 H261 H 0.25249 0.58002 0.50719
 C262 C 0.22486 0.57423 0.51558
 H263 H 0.22674 0.55983 0.51581
 Zn264 Zn 0.25682 0.61936 0.50239
 N265 N 0.23731 0.60379 0.51020
 C266 C 0.23344 0.62830 0.47171
 N267 N 0.25012 0.63152 0.47950
 C268 C 0.26215 0.64315 0.47101
 C269 C 0.25753 0.65211 0.45420
 C270 C 0.22812 0.63726 0.45521
 C271 C 0.25165 0.63718 0.53799
 C272 C 0.25544 0.64962 0.55240
 C273 C 0.28207 0.65953 0.53481
 C274 C 0.27752 0.64711 0.52042
 N275 N 0.26236 0.63639 0.52210
 H276 H 0.22415 0.61871 0.47815
 H277 H 0.27551 0.64522 0.47705
 H278 H 0.26758 0.66085 0.44748
 H279 H 0.21455 0.63475 0.44978
 H280 H 0.24021 0.62810 0.53975
 H281 H 0.24667 0.65019 0.56486
 H282 H 0.29414 0.66799 0.53337
 H283 H 0.28628 0.64583 0.50809
 C284 C 0.20791 0.58157 0.51998
 C285 C 0.31041 0.58801 0.49304
 C286 C 0.27074 0.66099 0.55085
 C287 C 0.24023 0.64931 0.44607
 C288 C 0.72526 0.90763 0.48416
 H289 H 0.73772 0.90962 0.47625
 C290 C 0.70982 0.91701 0.47872
 H291 H 0.71067 0.92622 0.46677
 C292 C 0.70857 0.89247 0.50843
 H293 H 0.70781 0.88253 0.51961
 C294 C 0.69288 0.90152 0.50350
 H295 H 0.68050 0.89881 0.51149
 N296 N 0.72450 0.89582 0.49902
 C297 C 0.77290 0.89869 0.52972
 H298 H 0.76733 0.89004 0.54072
 C299 C 0.78815 0.90944 0.53387
 H300 H 0.79369 0.90918 0.54819
 C301 C 0.77266 0.90934 0.49787
 H302 H 0.76705 0.90884 0.48364
 C303 C 0.78811 0.92004 0.50129
 H304 H 0.79404 0.92759 0.48953
 Zn305 Zn 0.74551 0.88273 0.50614
 N306 N 0.76546 0.89871 0.51191
 C307 C 0.76831 0.86817 0.47700
 N308 N 0.75156 0.86758 0.48529
 C309 C 0.73823 0.85640 0.47854
 C310 C 0.74140 0.84541 0.46272
 C311 C 0.77190 0.85781 0.46077
 C312 C 0.73378 0.87669 0.54411
 C313 C 0.72851 0.86665 0.56010
 C314 C 0.73605 0.83959 0.54290
 C315 C 0.74122 0.85017 0.52723
 N316 N 0.73979 0.86837 0.52799
 H317 H 0.77888 0.87687 0.48272
 H318 H 0.72507 0.85606 0.48549
 H319 H 0.73059 0.83642 0.45798
 H320 H 0.78506 0.85928 0.45396
 H321 H 0.73286 0.89119 0.54442
 H322 H 0.72388 0.87358 0.57279
 H323 H 0.73695 0.82512 0.54185
 H324 H 0.74624 0.84377 0.51444
 C325 C 0.79624 0.92007 0.51946
 C326 C 0.69333 0.91399 0.48846
 C327 C 0.72946 0.84782 0.55958
 C328 C 0.75829 0.84631 0.45322
 C329 C 0.01657 0.27342 0.40370
 H330 H 0.02750 0.26396 0.40355
 C331 C 0.01706 0.28773 0.41672
 H332 H 0.02826 0.28901 0.42668
 C333 C -0.01101 0.28365 0.39069
 H334 H -0.02173 0.28240 0.38027
 C335 C -0.01120 0.29797 0.40363
 H336 H -0.02214 0.30748 0.40305
 N337 N 0.00258 0.27151 0.39111
 C338 C -0.01340 0.21849 0.38727
 H339 H -0.02479 0.22184 0.37844
 C340 C -0.01428 0.20264 0.39789
 H341 H -0.02688 0.19499 0.39737
 C342 C 0.01610 0.22505 0.39875
 H343 H 0.02815 0.23357 0.39864
 C344 C 0.01593 0.20917 0.40948
 H345 H 0.02820 0.20595 0.41707
 Zn346 Zn 0.00220 0.25152 0.37385
 N347 N 0.00149 0.22955 0.38807
 C348 C 0.02788 0.23704 0.34853
 N349 N 0.02352 0.25207 0.35853
 C350 C 0.03378 0.26742 0.35716
 C351 C 0.04909 0.26808 0.34528
 C352 C 0.04309 0.23710 0.33650
 C353 C -0.03549 0.25239 0.36523
 C354 C -0.05080 0.25233 0.35350
 C355 C -0.03103 0.25361 0.32589
 C356 C -0.01607 0.25355 0.33816
 N357 N -0.01850 0.25267 0.35746
 H358 H 0.01939 0.22506 0.34976
 H359 H 0.02997 0.27926 0.36509
 H360 H 0.05716 0.28038 0.34454
 H361 H 0.04617 0.22509 0.32845
 H362 H -0.03715 0.25195 0.38061
 H363 H -0.06418 0.25198 0.35999
 H364 H -0.02881 0.25388 0.31057
 H365 H -0.00252 0.25399 0.33218
 C366 C 0.00053 0.19748 0.40933
 C367 C 0.00292 0.30010 0.41690
 C368 C -0.04868 0.25274 0.33353
 C369 C 0.05391 0.25280 0.33469
 C370 C 0.01715 0.72366 0.09581
 H371 H 0.02907 0.73226 0.09696
 C372 C 0.01744 0.70881 0.08357
 H373 H 0.02966 0.70615 0.07548
 C374 C -0.01342 0.71708 0.10433
 H375 H -0.02554 0.72049 0.11219
 C376 C -0.01373 0.70209 0.09224
 H377 H -0.02599 0.69384 0.09136
 N378 N 0.00193 0.72745 0.10603
 C379 C 0.00762 0.78510 0.11459
 H380 H 0.00959 0.78593 0.12990
 C381 C 0.00868 0.80067 0.10346
 H382 H 0.01129 0.81347 0.11041
 C383 C 0.00126 0.76739 0.08711
 H384 H -0.00176 0.75439 0.08082
 C385 C 0.00229 0.78259 0.07544
 H386 H 0.00036 0.78104 0.06017
 Zn387 Zn 0.00215 0.74822 0.12201
 N388 N 0.00387 0.76891 0.10631
 C389 C 0.03940 0.75203 0.13066
 N390 N 0.02281 0.74811 0.13841
 C391 C 0.02099 0.74464 0.15745
 C392 C 0.03624 0.74430 0.16927
 C393 C 0.05501 0.75194 0.14199
 C394 C -0.03029 0.76355 0.13577
 C395 C -0.04582 0.76485 0.14716
 C396 C -0.03948 0.73571 0.16034
 C397 C -0.02413 0.73498 0.14856
 N398 N -0.01961 0.74893 0.13685
 H399 H 0.04054 0.75538 0.11566
 H400 H 0.00777 0.74210 0.16363
 H401 H 0.03449 0.74146 0.18436
 H402 H 0.06811 0.75477 0.13544
 H403 H -0.02664 0.77450 0.12631
 H404 H -0.05298 0.77735 0.14634
 H405 H -0.04258 0.72392 0.16883
 H406 H -0.01570 0.72323 0.14882
 C407 C 0.00598 0.79955 0.08358
 C408 C 0.00187 0.69774 0.08171
 C409 C -0.05081 0.75091 0.16009
 C410 C 0.05355 0.74786 0.16154
 C411 C 0.50162 0.22765 0.59593
 H412 H 0.51294 0.23715 0.59589
 C413 C 0.50239 0.21207 0.58481
 H414 H 0.51446 0.20961 0.57637
 C415 C 0.47258 0.21898 0.60783
 H416 H 0.46115 0.22151 0.61709
 C417 C 0.47279 0.20321 0.59693
 H418 H 0.46128 0.19394 0.59768
 N419 N 0.48685 0.23086 0.60709
 C420 C 0.49055 0.28893 0.61601
 H421 H 0.49033 0.28948 0.63148
 C422 C 0.49218 0.30480 0.60544
 H423 H 0.49301 0.31754 0.61294
 C424 C 0.48936 0.27161 0.58756
 H425 H 0.48812 0.25866 0.58062
 C426 C 0.49098 0.28716 0.57642
 H427 H 0.49133 0.28592 0.56099
 Zn428 Zn 0.48791 0.25186 0.62254
 N429 N 0.48948 0.27274 0.60700
 C430 C 0.52347 0.26143 0.63552
 N431 N 0.50901 0.24998 0.63785
 C432 C 0.50955 0.23621 0.65059
 C433 C 0.52474 0.23398 0.66218
 C434 C 0.53913 0.25944 0.64651
 C435 C 0.45031 0.25423 0.62992
 C436 C 0.43455 0.25536 0.64104
 C437 C 0.45321 0.25619 0.66937
 C438 C 0.46860 0.25501 0.65772
 N439 N 0.46691 0.25370 0.63838
 H440 H 0.52304 0.27192 0.62487
 H441 H 0.49799 0.22708 0.65191
 H442 H 0.52446 0.22329 0.67266
 H443 H 0.55060 0.26844 0.64396
 H444 H 0.44932 0.25355 0.61449
 H445 H 0.42146 0.25528 0.63402
 H446 H 0.45491 0.25734 0.68471
 H447 H 0.48188 0.25536 0.66422
 C448 C 0.49261 0.30405 0.58535
 C449 C 0.48790 0.19952 0.58531
 C450 C 0.43586 0.25624 0.66109
 C451 C 0.53992 0.24564 0.66022
 C452 C 0.51600 0.77906 0.90606
 H453 H 0.52607 0.76878 0.90774
 C454 C 0.51706 0.79471 0.91716
 H455 H 0.52810 0.79640 0.92724
 C456 C 0.48978 0.78953 0.89042
 H457 H 0.47944 0.78779 0.87965
 C458 C 0.49028 0.80531 0.90124
 H459 H 0.47985 0.81515 0.89904
 N460 N 0.50220 0.77652 0.89337
 C461 C 0.49840 0.71800 0.88779
 H462 H 0.49825 0.71705 0.87234
 C463 C 0.49668 0.70244 0.89883
 H464 H 0.49542 0.68951 0.89176
 C465 C 0.50008 0.73607 0.91570
 H466 H 0.50092 0.74920 0.92226
 C467 C 0.49863 0.72078 0.92732
 H468 H 0.49853 0.72231 0.94273
 Zn469 Zn 0.50103 0.75448 0.87948
 N470 N 0.50007 0.73440 0.89629
 C471 C 0.53535 0.74181 0.86743
 N472 N 0.52199 0.75365 0.86368
 C473 C 0.52366 0.76568 0.84912
 C474 C 0.53905 0.76584 0.83734
 C475 C 0.55110 0.74170 0.85621
 C476 C 0.46354 0.75630 0.87312
 C477 C 0.44736 0.75565 0.86280
 C478 C 0.46425 0.74624 0.83501
 C479 C 0.48024 0.74783 0.84570
 N480 N 0.47963 0.75301 0.86436
 H481 H 0.53399 0.73268 0.87937
 H482 H 0.51291 0.77510 0.84659
 H483 H 0.53980 0.77525 0.82556
 H484 H 0.56172 0.73248 0.85987
 H485 H 0.46332 0.75985 0.88814
 H486 H 0.43506 0.75943 0.87011
 H487 H 0.46519 0.74149 0.82042
 H488 H 0.49308 0.74450 0.83918
 C489 C 0.49675 0.70371 0.91887
 C490 C 0.50393 0.80801 0.91500
 C491 C 0.44740 0.75038 0.84341
 C492 C 0.55312 0.75377 0.84081
 C493 C -0.23374 0.64946 0.98085
 H494 H -0.22664 0.65109 0.99429
 C495 C -0.22921 0.66052 0.96532
 H496 H -0.21866 0.67078 0.96682
 C497 C -0.25596 0.63388 0.96235
 H498 H -0.26599 0.62316 0.96103
 C499 C -0.25213 0.64483 0.94665
 H500 H -0.25940 0.64256 0.93338
 N501 N -0.24688 0.63643 0.97907
 C502 C -0.26818 0.64876 1.02179
 H503 H -0.27556 0.65120 1.00879
 C504 C -0.27212 0.65882 1.03812
 H505 H -0.28317 0.66812 1.03723
 C506 C -0.24517 0.63343 1.03816
 H507 H -0.23431 0.62392 1.03811
 C508 C -0.24862 0.64315 1.05483
 H509 H -0.23989 0.64093 1.06696
 Zn510 Zn -0.25198 0.62121 1.00015
 N511 N -0.25533 0.63588 1.02223
 C512 C -0.23187 0.59384 1.01863
 N513 N -0.23209 0.60558 1.00370
 C514 C -0.21792 0.60678 0.99120
 C515 C -0.20243 0.59667 0.99401
 C516 C -0.21657 0.58346 1.02201
 C517 C -0.28896 0.61678 0.99107
 C518 C -0.30545 0.60772 0.98812
 C519 C -0.29047 0.57966 0.99376
 C520 C -0.27415 0.58930 0.99647
 N521 N -0.27374 0.60759 0.99544
 H522 H -0.24339 0.59293 1.02826
 H523 H -0.21846 0.61576 0.97912
 H524 H -0.19125 0.59799 0.98397
 H525 H -0.21635 0.57472 1.03437
 H526 H -0.28831 0.63118 0.98946
 H527 H -0.31729 0.61539 0.98447
 H528 H -0.29063 0.56517 0.99518
 H529 H -0.26192 0.58211 0.99957
 C530 C -0.26264 0.65586 1.05532
 C531 C -0.23858 0.65828 0.94803
 C532 C -0.30646 0.58893 0.98978
 C533 C -0.20144 0.58513 1.00982
 C534 C -0.22491 0.35771 0.51662
 H535 H -0.22043 0.35391 0.50245
 C536 C -0.21922 0.34859 0.53190
 H537 H -0.21005 0.33755 0.52979
 C538 C -0.24141 0.37830 0.53585
 H539 H -0.24989 0.38991 0.53736
 C540 C -0.23482 0.36920 0.55312
 H541 H -0.23960 0.37399 0.56683
 N542 N -0.23697 0.37254 0.51892
 C543 C -0.25873 0.37814 0.46101
 H544 H -0.25820 0.39265 0.45991
 C545 C -0.26485 0.36780 0.44556
 H546 H -0.26864 0.37447 0.43245
 C547 C -0.25428 0.35193 0.47946
 H548 H -0.25080 0.34578 0.49288
 C549 C -0.26028 0.34106 0.46433
 H550 H -0.26099 0.32661 0.46621
 Zn551 Zn -0.24505 0.38558 0.49738
 N552 N -0.25312 0.37011 0.47736
 C553 C -0.21789 0.39932 0.47161
 N554 N -0.22529 0.40044 0.48942
 C555 C -0.21783 0.41138 0.50300
 C556 C -0.20213 0.42152 0.49903
 C557 C -0.20229 0.40942 0.46694
 C558 C -0.28019 0.38990 0.51010
 C559 C -0.29629 0.39859 0.51440
 C560 C -0.28127 0.42697 0.50729
 C561 C -0.26543 0.41764 0.50300
 N562 N -0.26525 0.39943 0.50438
 H563 H -0.22374 0.39027 0.46112
 H564 H -0.22381 0.41180 0.51714
 H565 H -0.19606 0.42951 0.51038
 H566 H -0.19665 0.40832 0.45268
 H567 H -0.27959 0.37541 0.51117
 H568 H -0.30763 0.39041 0.51941
 H569 H -0.28105 0.44137 0.50521
 H570 H -0.25345 0.42493 0.49810
 C571 C -0.26546 0.34897 0.44702
 C572 C -0.22444 0.35450 0.55151
 C573 C -0.29729 0.41747 0.51277
 C574 C -0.19399 0.42050 0.48085
 C575 C 0.27535 -0.14492 0.02332
 H576 H 0.28267 -0.14625 0.00995
 C577 C 0.28055 -0.15414 0.03874
 H578 H 0.29230 -0.16256 0.03747
 C579 C 0.25176 -0.13044 0.04051
 H580 H 0.24104 -0.12080 0.04144
 C581 C 0.25694 -0.14030 0.05783
 H582 H 0.24867 -0.13834 0.07043
 N583 N 0.26035 -0.13288 0.02446
 C584 C 0.24288 -0.12436 -0.03437
 H585 H 0.24243 -0.10983 -0.03421
 C586 C 0.23751 -0.13384 -0.05068
 H587 H 0.23287 -0.12645 -0.06300
 C588 C 0.24880 -0.15152 -0.01809
 H589 H 0.25292 -0.15835 -0.00524
 C590 C 0.24360 -0.16157 -0.03417
 H591 H 0.24424 -0.17609 -0.03366
 Zn592 Zn 0.25460 -0.11875 0.00284
 N593 N 0.24856 -0.13324 -0.01858
 C594 C 0.28402 -0.10428 -0.01947
 N595 N 0.27521 -0.10394 -0.00234
 C596 C 0.28159 -0.09377 0.01243
 C597 C 0.29751 -0.08345 0.01037
 C598 C 0.29997 -0.09405 -0.02221
 C599 C 0.21837 -0.11362 0.01241
 C600 C 0.20245 -0.10431 0.01591
 C601 C 0.21882 -0.07652 0.00939
 C602 C 0.23455 -0.08641 0.00640
 N603 N 0.23404 -0.10461 0.00802
 H604 H 0.27890 -0.11268 -0.03095
 H605 H 0.27447 -0.09399 0.02600
 H606 H 0.30259 -0.07592 0.02256
 H607 H 0.30674 -0.09443 -0.03597
 H608 H 0.21825 -0.12815 0.01310
 H609 H 0.19021 -0.11213 0.01880
 H610 H 0.21988 -0.06203 0.00837
 H611 H 0.24711 -0.07953 0.00259
 C612 C 0.23795 -0.15272 -0.05081
 C613 C 0.27094 -0.15180 0.05742
 C614 C 0.20231 -0.08538 0.01433
 C615 C 0.30702 -0.08356 -0.00710
 C616 C 0.26315 1.12481 0.47247
 H617 H 0.26647 1.11072 0.47188
 C618 C 0.26786 1.13612 0.45725
 H619 H 0.27456 1.13048 0.44487
 C620 C 0.24944 1.14892 0.48893
 H621 H 0.24184 1.15377 0.50107
 C622 C 0.25407 1.16074 0.47413
 H623 H 0.25034 1.17470 0.47535
 N624 N 0.25412 1.13134 0.48790
 C625 C 0.22594 1.12327 0.53988
 H626 H 0.21745 1.11214 0.53520
 C627 C 0.22077 1.13313 0.55596
 H628 H 0.20859 1.12904 0.56363
 C629 C 0.25220 1.14176 0.53586
 H630 H 0.26422 1.14537 0.52772
 C631 C 0.24732 1.15224 0.55156
 H632 H 0.25578 1.16381 0.55519
 Zn633 Zn 0.24781 1.11490 0.50757
 N634 N 0.24145 1.12767 0.53018
 C635 C 0.28316 1.10743 0.52062
 N636 N 0.26818 1.10022 0.51197
 C637 C 0.26807 1.08304 0.50521
 C638 C 0.28339 1.07244 0.50706
 C639 C 0.29880 1.09731 0.52275
 C640 C 0.21838 1.10548 0.48353
 C641 C 0.20301 1.09565 0.47773
 C642 C 0.20742 1.07541 0.50424
 C643 C 0.22256 1.08577 0.50969
 N644 N 0.22771 1.10052 0.49937
 H645 H 0.28319 1.12119 0.52550
 H646 H 0.25632 1.07767 0.49779
 H647 H 0.28301 1.05884 0.50150
 H648 H 0.31074 1.10350 0.52917
 H649 H 0.22261 1.11730 0.47559
 H650 H 0.19557 1.09990 0.46524
 H651 H 0.20329 1.06392 0.51281
 H652 H 0.23014 1.08218 0.52232
 C653 C 0.23140 1.14800 0.56193
 C654 C 0.26328 1.15436 0.45791
 C655 C 0.19733 1.08047 0.48820
 C656 C 0.29910 1.07961 0.51574
 C657 C 0.16108 0.47133 0.26085
 H658 H 0.16119 0.48282 0.27037
 C659 C 0.17234 0.45681 0.26451
 H660 H 0.18124 0.45723 0.27682
 C661 C 0.14928 0.45674 0.23326
 H662 H 0.14000 0.45649 0.22134
 C663 C 0.16040 0.44207 0.23627
 H664 H 0.15958 0.43072 0.22656
 N665 N 0.15000 0.47112 0.24530
 C666 C 0.13944 0.52668 0.23045
 H667 H 0.12481 0.52564 0.22918
 C668 C 0.14832 0.54314 0.22743
 H669 H 0.14042 0.55470 0.22358
 C670 C 0.16741 0.51271 0.23696
 H671 H 0.17476 0.50081 0.24074
 C672 C 0.17688 0.52898 0.23411
 H673 H 0.19147 0.52950 0.23601
 Zn674 Zn 0.13493 0.49103 0.24088
 N675 N 0.14898 0.51199 0.23553
 C676 C 0.12420 0.51021 0.27366
 N677 N 0.12094 0.49502 0.26326
 C678 C 0.10860 0.48239 0.26924
 C679 C 0.09851 0.48510 0.28594
 C680 C 0.11473 0.51328 0.29062
 C681 C 0.12894 0.48546 0.20225
 C682 C 0.11941 0.48223 0.18537
 C683 C 0.09152 0.48172 0.20361
 C684 C 0.10168 0.48504 0.22016
 N685 N 0.12007 0.48661 0.21922
 H686 H 0.13451 0.51982 0.26911
 H687 H 0.10657 0.47019 0.26099
 H688 H 0.08843 0.47504 0.29008
 H689 H 0.11811 0.52519 0.29888
 H690 H 0.14361 0.48678 0.20189
 H691 H 0.12749 0.48045 0.17262
 H692 H 0.07692 0.48137 0.20523
 H693 H 0.09476 0.48663 0.23367
 C694 C 0.16726 0.54455 0.22965
 C695 C 0.17219 0.44203 0.25200
 C696 C 0.10019 0.48034 0.18553
 C697 C 0.10159 0.50069 0.29701
 C698 C -0.14641 1.03340 0.26427
 H699 H -0.13848 1.02819 0.27592
 C700 C -0.15684 1.04869 0.26717
 H701 H -0.15683 1.05518 0.28105
 C702 C -0.15535 1.03201 0.23174
 H703 H -0.15440 1.02561 0.21786
 C704 C -0.16572 1.04735 0.23393
 H705 H -0.17289 1.05264 0.22173
 N706 N -0.14564 1.02556 0.24668
 C707 C -0.13400 0.96962 0.23376
 H708 H -0.11964 0.96943 0.23685
 C709 C -0.14326 0.95350 0.22981
 H710 H -0.13583 0.94108 0.22957
 C711 C -0.16141 0.98570 0.23217
 H712 H -0.16856 0.99815 0.23353
 C713 C -0.17125 0.96983 0.22838
 H714 H -0.18584 0.97032 0.22656
 Zn715 Zn -0.12962 1.00640 0.24164
 N716 N -0.14308 0.98535 0.23465
 C717 C -0.12519 0.99267 0.27855
 N718 N -0.11628 1.00089 0.26381
 C719 C -0.09814 1.00460 0.26464
 C720 C -0.08825 1.00017 0.28092
 C721 C -0.11583 0.98796 0.29508
 C722 C -0.10233 1.00135 0.21332
 C723 C -0.09072 1.00635 0.19832
 C724 C -0.10135 1.03670 0.20110
 C725 C -0.11261 1.03112 0.21614
 N726 N -0.11329 1.01360 0.22167
 H727 H -0.13962 0.98981 0.27744
 H728 H -0.09132 1.01106 0.25270
 H729 H -0.07381 1.00319 0.28132
 H730 H -0.12322 0.98175 0.30682
 H731 H -0.10268 0.98757 0.21805
 H732 H -0.08302 0.99586 0.19155
 H733 H -0.10105 1.05084 0.19751
 H734 H -0.12069 1.04094 0.22350
 C735 C -0.16214 0.95348 0.22719
 C736 C -0.16628 1.05605 0.25173
 C737 C -0.09025 1.02425 0.19158
 C738 C -0.09711 0.99178 0.29644
 C739 C 0.33567 0.52207 -0.23069
 H740 H 0.33449 0.51097 -0.22075
 C741 C 0.32593 0.53776 -0.22745
 H742 H 0.31733 0.53870 -0.21490
 C743 C 0.34894 0.53462 -0.25869
 H744 H 0.35811 0.53354 -0.27069
 C745 C 0.33946 0.55045 -0.25606
 H746 H 0.34120 0.56119 -0.26637
 N747 N 0.34691 0.52081 -0.24610
 C748 C 0.35547 0.46350 -0.25908
 H749 H 0.37017 0.46379 -0.25984
 C750 C 0.34621 0.44833 -0.26289
 H751 H 0.35382 0.43672 -0.26725
 C752 C 0.32843 0.48008 -0.25435
 H753 H 0.32162 0.49247 -0.25120
 C754 C 0.31757 0.46358 -0.25835
 H755 H 0.30298 0.46442 -0.25696
 Zn756 Zn 0.36097 0.50002 -0.24945
 N757 N 0.34609 0.47963 -0.25436
 C758 C 0.37194 0.48122 -0.21640
 N759 N 0.37457 0.49644 -0.22688
 C760 C 0.38643 0.50957 -0.22110
 C761 C 0.39681 0.50733 -0.20464
 C762 C 0.38172 0.47860 -0.19959
 C763 C 0.36808 0.50275 -0.28835
 C764 C 0.37815 0.50561 -0.30503
 C765 C 0.40524 0.50886 -0.28579
 C766 C 0.39468 0.50563 -0.26947
 N767 N 0.37638 0.50307 -0.27100
 H768 H 0.36202 0.47119 -0.22086
 H769 H 0.38794 0.52176 -0.22942
 H770 H 0.40659 0.51775 -0.20078
 H771 H 0.37896 0.46660 -0.19127
 H772 H 0.35353 0.50054 -0.28917
 H773 H 0.37130 0.50562 -0.31872
 H774 H 0.41976 0.51111 -0.28439
 H775 H 0.40116 0.50535 -0.25567
 C776 C 0.32592 0.44791 -0.26214
 C777 C 0.32793 0.55228 -0.24016
 C778 C 0.39692 0.50895 -0.30380
 C779 C 0.39449 0.49169 -0.19351
 C780 C 0.65089 -0.03125 -0.22976
 H781 H 0.65259 -0.02010 -0.21998
 C782 C 0.66096 -0.04592 -0.22753
 H783 H 0.67077 -0.04590 -0.21606
 C784 C 0.63686 -0.04296 -0.25787
 H785 H 0.62792 -0.04178 -0.26994
 C786 C 0.64740 -0.05944 -0.25586
 H787 H 0.64451 -0.07003 -0.26605
 N788 N 0.63838 -0.03000 -0.24542
 C789 C 0.63148 0.02737 -0.25205
 H790 H 0.61698 0.02795 -0.24961
 C791 C 0.64168 0.04320 -0.25409
 H792 H 0.63446 0.05572 -0.25378
 C793 C 0.65771 0.00991 -0.25640
 H794 H 0.66384 -0.00317 -0.25712
 C795 C 0.66849 0.02547 -0.25872
 H796 H 0.68295 0.02391 -0.26068
 Zn797 Zn 0.62422 -0.00907 -0.24888
 N798 N 0.63959 0.01118 -0.25304
 C799 C 0.62004 0.00236 -0.21124
 N800 N 0.61050 -0.00396 -0.22655
 C801 C 0.59200 -0.00471 -0.22628
 C802 C 0.58245 0.00083 -0.21005
 C803 C 0.61106 0.00815 -0.19483
 C804 C 0.61213 -0.00182 -0.28611
 C805 C 0.60290 -0.00507 -0.30316
 C806 C 0.58660 -0.02966 -0.28792
 C807 C 0.59616 -0.02590 -0.27106
 N808 N 0.60888 -0.01236 -0.27055
 H809 H 0.63467 0.00354 -0.21201
 H810 H 0.58457 -0.00918 -0.23875
 H811 H 0.56773 0.00037 -0.21015
 H812 H 0.61895 0.01312 -0.18282
 H813 H 0.62235 0.00877 -0.28559
 H814 H 0.60588 0.00338 -0.31542
 H815 H 0.57704 -0.04091 -0.28831
 H816 H 0.59403 -0.03433 -0.25862
 C817 C 0.66063 0.04261 -0.25724
 C818 C 0.65929 -0.06126 -0.24131
 C819 C 0.59027 -0.01941 -0.30437
 C820 C 0.59201 0.00753 -0.19413
 C821 C 0.01234 0.26163 0.85158
 H822 H 0.00474 0.27385 0.85315
 C823 C 0.02804 0.26156 0.84028
 H824 H 0.03258 0.27388 0.83339
 C825 C 0.01575 0.23080 0.85897
 H826 H 0.01077 0.21879 0.86610
 C827 C 0.03149 0.23013 0.84783
 H828 H 0.03847 0.21751 0.84647
 N829 N 0.00654 0.24640 0.86066
 C830 C -0.05246 0.24727 0.86634
 H831 H -0.05437 0.24616 0.88164
 C832 C -0.06758 0.24786 0.85438
 H833 H -0.08106 0.24734 0.86064
 C834 C -0.03265 0.24843 0.83958
 H835 H -0.01902 0.24854 0.83380
 C836 C -0.04741 0.24892 0.82708
 H837 H -0.04497 0.24966 0.81181
 Zn838 Zn -0.01498 0.24701 0.87557
 N839 N -0.03537 0.24780 0.85885
 C840 C -0.02874 0.27776 0.89513
 N841 N -0.01380 0.26774 0.89162
 C842 C 0.00264 0.27247 0.89916
 C843 C 0.00456 0.28788 0.91052
 C844 C -0.02750 0.29306 0.90668
 C845 C -0.02974 0.21336 0.88787
 C846 C -0.03054 0.19769 0.89881
 C847 C -0.00395 0.20814 0.91598
 C848 C -0.00377 0.22372 0.90483
 N849 N -0.01649 0.22602 0.89103
 H850 H -0.04164 0.27412 0.88887
 H851 H 0.01439 0.26445 0.89606
 H852 H 0.01778 0.29159 0.91619
 H853 H -0.03947 0.30101 0.90909
 H854 H -0.03953 0.21517 0.87662
 H855 H -0.04131 0.18790 0.89609
 H856 H 0.00667 0.20636 0.92644
 H857 H 0.00679 0.23383 0.90693
 C858 C -0.06515 0.24879 0.83448
 C859 C 0.03787 0.24566 0.83831
 C860 C -0.01741 0.19477 0.91296
 C861 C -0.01066 0.29836 0.91438
 C862 C 0.47623 0.26698 0.15295
 H863 H 0.48420 0.27932 0.15198
 C864 C 0.46118 0.26601 0.16517
 H865 H 0.45771 0.27764 0.17367
 C866 C 0.47121 0.23678 0.14318
 H867 H 0.47500 0.22545 0.13448
 C868 C 0.45617 0.23518 0.15533
 H869 H 0.44849 0.22261 0.15574
 N870 N 0.48109 0.25242 0.14241
 C871 C 0.53979 0.25296 0.13408
 H872 H 0.54065 0.25034 0.11888
 C873 C 0.55558 0.25316 0.14515
 H874 H 0.56856 0.25113 0.13823
 C875 C 0.52180 0.25841 0.16156
 H876 H 0.50863 0.26010 0.16805
 C877 C 0.53724 0.25878 0.17314
 H878 H 0.53569 0.26077 0.18840
 Zn879 Zn 0.50223 0.25430 0.12664
 N880 N 0.52331 0.25572 0.14235
 C881 C 0.51584 0.28319 0.10364
 N882 N 0.50058 0.27511 0.11094
 C883 C 0.48383 0.28157 0.10705
 C884 C 0.48197 0.29695 0.09583
 C885 C 0.51460 0.29856 0.09226
 C886 C 0.50804 0.21772 0.11947
 C887 C 0.50943 0.20206 0.10857
 C888 C 0.50295 0.21934 0.08026
 C889 C 0.50161 0.23468 0.09174
 N890 N 0.50405 0.23358 0.11098
 H891 H 0.52903 0.27784 0.10674
 H892 H 0.47184 0.27476 0.11264
 H893 H 0.46851 0.30185 0.09291
 H894 H 0.52692 0.30500 0.08692
 H895 H 0.51000 0.21724 0.13480
 H896 H 0.51221 0.18952 0.11573
 H897 H 0.50115 0.22054 0.06496
 H898 H 0.49858 0.24746 0.08527
 C899 C 0.55443 0.25613 0.16497
 C900 C 0.45104 0.24988 0.16662
 C901 C 0.50688 0.20270 0.08866
 C902 C 0.49749 0.30573 0.08836
 C903 C -0.02255 0.76278 0.64421
 H904 H -0.01311 0.77411 0.64461
 C905 C -0.03762 0.76290 0.65498
 H906 H -0.04018 0.77472 0.66352
 C907 C -0.03037 0.73442 0.63036
 H908 H -0.02770 0.72346 0.62068
 C909 C -0.04721 0.73395 0.64190
 H910 H -0.05567 0.72197 0.64081
 N911 N -0.01878 0.74775 0.63199
 C912 C 0.04045 0.74969 0.62718
 H913 H 0.04210 0.74938 0.61180
 C914 C 0.05573 0.75014 0.63900
 H915 H 0.06916 0.75035 0.63261
 C916 C 0.02092 0.74975 0.65419
 H917 H 0.00737 0.74915 0.66013
 C918 C 0.03582 0.75040 0.66653
 H919 H 0.03354 0.75041 0.68184
 Zn920 Zn 0.00336 0.74850 0.61789
 N921 N 0.02345 0.74963 0.63489
 C922 C 0.01479 0.78323 0.60476
 N923 N 0.00282 0.76928 0.60223
 C924 C -0.01057 0.77007 0.58891
 C925 C -0.01203 0.78512 0.57715
 C926 C 0.01363 0.79869 0.59351
 C927 C 0.00526 0.71122 0.61133
 C928 C 0.00642 0.69540 0.60062
 C929 C 0.00993 0.71336 0.57205
 C930 C 0.00844 0.72884 0.58328
 N931 N 0.00580 0.72752 0.60252
 H932 H 0.02504 0.78255 0.61576
 H933 H -0.02007 0.75888 0.58736
 H934 H -0.02253 0.78514 0.56635
 H935 H 0.02301 0.80979 0.59617
 H936 H 0.00363 0.71052 0.62670
 H937 H 0.00572 0.68254 0.60784
 H938 H 0.01173 0.71465 0.55673
 H939 H 0.00946 0.74188 0.57656
 C940 C 0.05350 0.75059 0.65896
 C941 C -0.05093 0.74749 0.65419
 C942 C 0.00866 0.69637 0.58069
 C943 C 0.00009 0.79981 0.57940
 C944 C 0.53277 0.76636 0.36133
 H945 H 0.52909 0.77690 0.37118
 C946 C 0.54830 0.76856 0.35000
 H947 H 0.55627 0.78088 0.35130
 C948 C 0.52623 0.73815 0.34695
 H949 H 0.51729 0.72651 0.34549
 C950 C 0.54184 0.73962 0.33560
 H951 H 0.54506 0.72868 0.32602
 N952 N 0.52219 0.75123 0.35982
 C953 C 0.46365 0.74316 0.36545
 H954 H 0.46201 0.74002 0.38043
 C955 C 0.44855 0.74242 0.35340
 H956 H 0.43537 0.73882 0.35931
 C957 C 0.48263 0.75225 0.33965
 H958 H 0.49587 0.75634 0.33436
 C959 C 0.46790 0.75175 0.32712
 H960 H 0.47007 0.75513 0.31222
 Zn961 Zn 0.50072 0.74907 0.37498
 N962 N 0.48032 0.74790 0.35842
 C963 C 0.48740 0.78282 0.38685
 N964 N 0.49910 0.76948 0.39102
 C965 C 0.51030 0.77062 0.40641
 C966 C 0.51022 0.78578 0.41822
 C967 C 0.48697 0.79830 0.39819
 C968 C 0.51344 0.71509 0.38811
 C969 C 0.51360 0.70010 0.40010
 C970 C 0.48913 0.71285 0.41836
 C971 C 0.48928 0.72749 0.40585
 N972 N 0.50120 0.72831 0.39094
 H973 H 0.47872 0.78167 0.37444
 H974 H 0.51945 0.75977 0.40940
 H975 H 0.51920 0.78634 0.43044
 H976 H 0.47801 0.80903 0.39422
 H977 H 0.52316 0.71603 0.37658
 H978 H 0.52315 0.68956 0.39714
 H979 H 0.47973 0.71273 0.43031
 H980 H 0.48007 0.73841 0.40827
 C981 C 0.45058 0.74676 0.33395
 C982 C 0.55323 0.75497 0.33708
 C983 C 0.50135 0.69880 0.41554
 C984 C 0.49860 0.80002 0.41405
 B985 B -0.00536 0.00727 1.01428
 B986 B -0.01579 0.00359 0.99315
 B987 B 0.00220 0.01792 0.99458
 B988 B 0.01724 0.00974 1.01031
 B989 B 0.00833 -0.00998 1.01887
 B990 B -0.01225 -0.01380 1.00825
 B991 B 0.01357 -0.01363 0.98021
 B992 B 0.02409 -0.01006 1.00123
 B993 B 0.00613 -0.02424 1.00010
 B994 B -0.00895 -0.01607 0.98422
 B995 B 0.00004 0.00375 0.97570
 B996 B 0.02066 0.00727 0.98635
 B997 B 0.49674 0.51326 0.52141
 B998 B 0.48747 0.51046 0.49939
 B999 B 0.50565 0.52439 0.50254
 B1000 B 0.51954 0.51528 0.51887
 B1001 B 0.50975 0.49541 0.52598
 B1002 B 0.48969 0.49259 0.51411
 B1003 B 0.51720 0.49299 0.48775
 B1004 B 0.52647 0.49559 0.50951
 B1005 B 0.50825 0.48188 0.50665
 B1006 B 0.49443 0.49096 0.49020
 B1007 B 0.50435 0.51084 0.48305
 B1008 B 0.52430 0.51353 0.49512
 B1009 B 0.50882 0.98948 0.51197
 B1010 B 0.51906 0.99427 0.49100
 B1011 B 0.50074 0.98039 0.49151
 B1012 B 0.48613 0.98774 0.50826
 B1013 B 0.49559 1.00663 0.51816
 B1014 B 0.51619 1.01070 0.50748
 B1015 B 0.48992 1.01305 0.48011
 B1016 B 0.47963 1.00821 0.50100
 B1017 B 0.49789 1.02211 0.50064
 B1018 B 0.51256 1.01479 0.48384
 B1019 B 0.50310 0.99586 0.47390
 B1020 B 0.48252 0.99181 0.48459
 B1021 B 0.00378 0.48954 1.00994
 B1022 B 0.01264 0.49342 0.98813
 B1023 B -0.00526 0.47921 0.99058
 B1024 B -0.01900 0.48712 1.00792
 B1025 B -0.00941 0.50671 1.01602
 B1026 B 0.01033 0.51063 1.00369
 B1027 B -0.01766 0.51095 0.97814
 B1028 B -0.02645 0.50705 1.00002
 B1029 B -0.00857 0.52126 0.99746
 B1030 B 0.00520 0.51333 0.98014
 B1031 B -0.00441 0.49373 0.97203
 B1032 B -0.02421 0.48986 0.98436
 B1033 B 0.02023 0.50643 0.48401
 B1034 B 0.02933 0.50366 0.50580
 B1035 B 0.01248 0.51832 0.50280
 B1036 B -0.00230 0.50977 0.48659
 B1037 B 0.00559 0.48938 0.47967
 B1038 B 0.02536 0.48558 0.49160
 B1039 B -0.00195 0.48799 0.51802
 B1040 B -0.01104 0.49076 0.49625
 B1041 B 0.00578 0.47610 0.49921
 B1042 B 0.02057 0.48461 0.51547
 B1043 B 0.01269 0.50504 0.52240
 B1044 B -0.00707 0.50884 0.51043
 B1045 B 0.51679 0.01319 -0.00969
 B1046 B 0.52796 0.01060 0.01098
 B1047 B 0.50989 0.02399 0.01016
 B1048 B 0.49440 0.01476 -0.00490
 B1049 B 0.50320 -0.00488 -0.01329
 B1050 B 0.52412 -0.00725 -0.00333
 B1051 B 0.49904 -0.00774 0.02561
 B1052 B 0.48787 -0.00492 0.00469
 B1053 B 0.50600 -0.01856 0.00579
 B1054 B 0.52146 -0.00927 0.02079
 B1055 B 0.51282 0.01035 0.02908
 B1056 B 0.49185 0.01289 0.01934
 B1057 B 0.48286 0.49422 -0.01104
 B1058 B 0.47392 0.49780 0.01077
 B1059 B 0.49145 0.48381 0.00824
 B1060 B 0.50559 0.49208 -0.00879
 B1061 B 0.49662 0.51163 -0.01672
 B1062 B 0.47682 0.51518 -0.00458
 B1063 B 0.50456 0.51560 0.02131
 B1064 B 0.51351 0.51199 -0.00045
 B1065 B 0.49601 0.52600 0.00200
 B1066 B 0.48184 0.51775 0.01906
 B1067 B 0.49081 0.49816 0.02702
 B1068 B 0.51059 0.49462 0.01487
 B1069 B -0.01313 0.98864 0.47965
 B1070 B -0.02207 0.99275 0.50133
 B1071 B -0.00523 0.97799 0.49912
 B1072 B 0.00943 0.98545 0.48217
 B1073 B 0.00148 1.00535 0.47397
 B1074 B -0.01824 1.00990 0.48589
 B1075 B 0.00923 1.00929 0.51204
 B1076 B 0.01821 1.00507 0.49042
 B1077 B 0.00135 1.01990 0.49255
 B1078 B -0.01334 1.01242 0.50954
 B1079 B -0.00534 0.99253 0.51776
 B1080 B 0.01433 0.98797 0.50587
 B1081 B 0.76283 0.24644 0.22974
 B1082 B 0.76000 0.23462 0.25003
 B1083 B 0.77511 0.25181 0.24933
 B1084 B 0.76668 0.26824 0.23546
 B1085 B 0.74585 0.26097 0.22771
 B1086 B 0.74171 0.23996 0.23681
 B1087 B 0.74483 0.26336 0.26680
 B1088 B 0.74769 0.27515 0.24652
 B1089 B 0.73255 0.25796 0.24722
 B1090 B 0.74099 0.24153 0.26112
 B1091 B 0.76181 0.24882 0.26887
 B1092 B 0.76596 0.26981 0.25977
 B1093 B 0.74155 0.75919 0.73401
 B1094 B 0.74629 0.76840 0.75552
 B1095 B 0.73193 0.75048 0.75381
 B1096 B 0.73955 0.73662 0.73659
 B1097 B 0.75885 0.74616 0.72737
 B1098 B 0.76306 0.76594 0.73908
 B1099 B 0.76471 0.73894 0.76529
 B1100 B 0.76010 0.72967 0.74382
 B1101 B 0.77428 0.74757 0.74529
 B1102 B 0.76670 0.76144 0.76266
 B1103 B 0.74722 0.75185 0.77182
 B1104 B 0.74339 0.73201 0.76006
 B1105 B 0.24835 0.26335 0.76850
 B1106 B 0.24444 0.27285 0.74715
 B1107 B 0.25910 0.25587 0.74873
 B1108 B 0.25120 0.24104 0.76517
 B1109 B 0.23115 0.24903 0.77365
 B1110 B 0.22698 0.26893 0.76246
 B1111 B 0.22737 0.24246 0.73530
 B1112 B 0.23129 0.23292 0.75661
 B1113 B 0.21663 0.24989 0.75504
 B1114 B 0.22453 0.26474 0.73862
 B1115 B 0.24453 0.25673 0.73012
 B1116 B 0.24874 0.23685 0.74132
 B1117 B 0.24222 0.73315 0.26413
 B1118 B 0.24556 0.72337 0.24278
 B1119 B 0.23120 0.74057 0.24464
 B1120 B 0.23963 0.75544 0.26077
 B1121 B 0.25969 0.74725 0.26875
 B1122 B 0.26338 0.72722 0.25751
 B1123 B 0.26283 0.75343 0.23024
 B1124 B 0.25945 0.76321 0.25160
 B1125 B 0.27382 0.74602 0.24972
 B1126 B 0.26539 0.73112 0.23359
 B1127 B 0.24533 0.73932 0.22560
 B1128 B 0.24167 0.75938 0.23682
 B1129 B 0.25737 0.74056 0.73486
 B1130 B 0.25316 0.72895 0.75503
 B1131 B 0.26899 0.74560 0.75500
 B1132 B 0.26175 0.76226 0.74061
 B1133 B 0.24103 0.75570 0.73193
 B1134 B 0.23573 0.73492 0.74095
 B1135 B 0.23848 0.75838 0.77095
 B1136 B 0.24258 0.76993 0.75070
 B1137 B 0.22683 0.75329 0.75085
 B1138 B 0.23405 0.73666 0.76521
 B1139 B 0.25478 0.74319 0.77388
 B1140 B 0.26005 0.76400 0.76485
 B1141 B 0.24575 0.25569 0.23738
 B1142 B 0.24984 0.26716 0.25776
 B1143 B 0.23354 0.25090 0.25714
 B1144 B 0.24071 0.23409 0.24280
 B1145 B 0.26186 0.24010 0.23484
 B1146 B 0.26737 0.26080 0.24394
 B1147 B 0.26326 0.23729 0.27375
 B1148 B 0.25944 0.22591 0.25336
 B1149 B 0.27557 0.24221 0.25403
 B1150 B 0.26837 0.25899 0.26828
 B1151 B 0.24731 0.25280 0.27638
 B1152 B 0.24168 0.23219 0.26705
 B1153 B 0.76396 0.76497 0.26692
 B1154 B 0.76090 0.77482 0.24554
 B1155 B 0.77520 0.75760 0.24745
 B1156 B 0.76654 0.74265 0.26334
 B1157 B 0.74640 0.75083 0.27124
 B1158 B 0.74293 0.77097 0.26021
 B1159 B 0.74370 0.74489 0.23269
 B1160 B 0.74683 0.73495 0.25392
 B1161 B 0.73249 0.75219 0.25220
 B1162 B 0.74113 0.76714 0.23625
 B1163 B 0.76127 0.75893 0.22831
 B1164 B 0.76480 0.73886 0.23934
 B1165 B 0.73261 0.23232 0.75567
 B1166 B 0.73582 0.22120 0.73499
 B1167 B 0.72022 0.23733 0.73622
 B1168 B 0.72810 0.25400 0.75060
 B1169 B 0.74906 0.24799 0.75819
 B1170 B 0.75387 0.22749 0.74850
 B1171 B 0.75022 0.25125 0.71916
 B1172 B 0.74686 0.26244 0.73972
 B1173 B 0.76254 0.24632 0.73873
 B1174 B 0.75470 0.22963 0.72422
 B1175 B 0.73368 0.23564 0.71661
 B1176 B 0.72885 0.25610 0.72637
 C1177 C 0.43314 1.03264 0.35399
 C1178 C 0.42077 1.04452 0.34581
 C1179 C 0.41076 1.03941 0.32963
 C1180 C 0.41272 1.02221 0.32161
 C1181 C 0.42535 1.01050 0.32957
 C1182 C 0.43552 1.01570 0.34552
 C1183 C 0.44249 1.03706 0.37219
 C1184 C 0.46086 1.03292 0.37467
 C1185 C 0.46879 1.03396 0.39278
 C1186 C 0.45843 1.03900 0.40876
 C1187 C 0.44042 1.04434 0.40603
 C1188 C 0.43254 1.04347 0.38788
 C1189 C 0.46545 1.03584 0.42827
 C1190 C 0.45482 1.02580 0.44122
 C1191 C 0.46231 1.01951 0.45814
 C1192 C 0.48051 1.02353 0.46292
 C1193 C 0.49085 1.03450 0.45040
 C1194 C 0.48342 1.04051 0.43320
 H1195 H 0.41871 1.05765 0.35208
 H1196 H 0.40104 1.04864 0.32377
 H1197 H 0.42720 0.99724 0.32354
 H1198 H 0.44478 1.00618 0.35169
 H1199 H 0.46886 1.02810 0.36275
 H1200 H 0.48265 1.02961 0.39450
 H1201 H 0.43218 1.04834 0.41812
 H1202 H 0.41832 1.04667 0.38637
 H1203 H 0.44105 1.02167 0.43762
 H1204 H 0.45398 1.01068 0.46696
 H1205 H 0.50500 1.03760 0.45326
 H1206 H 0.49191 1.04820 0.42339
 C1207 C -0.07873 0.51704 0.85051
 C1208 C -0.08122 0.49946 0.84351
 C1209 C -0.09038 0.49623 0.82640
 C1210 C -0.09718 0.51051 0.81544
 C1211 C -0.09367 0.52824 0.82200
 C1212 C -0.08470 0.53143 0.83936
 C1213 C -0.07074 0.52002 0.86981
 C1214 C -0.05887 0.53464 0.87370
 C1215 C -0.05121 0.53685 0.89194
 C1216 C -0.05533 0.52450 0.90663
 C1217 C -0.06731 0.51002 0.90264
 C1218 C -0.07503 0.50793 0.88462
 C1219 C -0.04666 0.52576 0.92583
 C1220 C -0.05633 0.51982 0.94202
 C1221 C -0.04737 0.51644 0.95908
 C1222 C -0.02858 0.51989 0.96091
 C1223 C -0.01927 0.52778 0.94531
 C1224 C -0.02819 0.53055 0.92788
 H1225 H -0.07613 0.48808 0.85134
 H1226 H -0.09165 0.48242 0.82162
 H1227 H -0.09880 0.53975 0.81445
 H1228 H -0.08311 0.54513 0.84441
 H1229 H -0.05523 0.54416 0.86257
 H1230 H -0.04207 0.54816 0.89453
 H1231 H -0.07049 0.49994 0.91335
 H1232 H -0.08439 0.49674 0.88231
 H1233 H -0.07070 0.51652 0.94117
 H1234 H -0.05510 0.50978 0.97023
 H1235 H -0.00478 0.53047 0.94598
 H1236 H -0.02028 0.53517 0.91569
 C1237 C 0.06673 -0.03502 0.85035
 C1238 C 0.08084 -0.04591 0.84379
 C1239 C 0.08994 -0.04184 0.82671
 C1240 C 0.08515 -0.02676 0.81586
 C1241 C 0.07056 -0.01630 0.82204
 C1242 C 0.06145 -0.02039 0.83910
 C1243 C 0.05860 -0.03783 0.86959
 C1244 C 0.03994 -0.03533 0.87270
 C1245 C 0.03284 -0.03530 0.89126
 C1246 C 0.04427 -0.03771 0.90707
 C1247 C 0.06269 -0.04130 0.90389
 C1248 C 0.06979 -0.04139 0.88534
 C1249 C 0.03749 -0.03420 0.92669
 C1250 C 0.04772 -0.02308 0.93899
 C1251 C 0.04046 -0.01736 0.95634
 C1252 C 0.02286 -0.02285 0.96206
 C1253 C 0.01294 -0.03468 0.95010
 C1254 C 0.02017 -0.04026 0.93258
 H1255 H 0.08504 -0.05741 0.85204
 H1256 H 0.10089 -0.05036 0.82212
 H1257 H 0.06669 -0.00448 0.81415
 H1258 H 0.05083 -0.01157 0.84392
 H1259 H 0.03096 -0.03279 0.86080
 H1260 H 0.01861 -0.03237 0.89329
 H1261 H 0.07177 -0.04336 0.91582
 H1262 H 0.08424 -0.04324 0.88343
 H1263 H 0.06099 -0.01793 0.93472
 H1264 H 0.04849 -0.00807 0.96492
 H1265 H -0.00074 -0.03900 0.95377
 H1266 H 0.01201 -0.04888 0.92336
 C1267 C 0.57868 0.47922 0.35962
 C1268 C 0.59658 0.48605 0.35852
 C1269 C 0.60519 0.48825 0.34088
 C1270 C 0.59615 0.48359 0.32386
 C1271 C 0.57841 0.47624 0.32494
 C1272 C 0.56977 0.47400 0.34269
 C1273 C 0.56920 0.47867 0.37834
 C1274 C 0.55867 0.46363 0.38410
 C1275 C 0.55047 0.46323 0.40225
 C1276 C 0.55270 0.47787 0.41484
 C1277 C 0.56273 0.49307 0.40870
 C1278 C 0.57090 0.49344 0.39074
 C1279 C 0.54463 0.47781 0.43431
 C1280 C 0.55452 0.48545 0.44949
 C1281 C 0.54612 0.48902 0.46687
 C1282 C 0.52767 0.48450 0.46990
 C1283 C 0.51817 0.47537 0.45523
 C1284 C 0.52657 0.47208 0.43756
 H1285 H 0.60385 0.48998 0.37136
 H1286 H 0.61876 0.49413 0.34056
 H1287 H 0.57118 0.47235 0.31207
 H1288 H 0.55595 0.46876 0.34315
 H1289 H 0.55715 0.45207 0.37476
 H1290 H 0.54275 0.45138 0.40659
 H1291 H 0.56419 0.50482 0.41779
 H1292 H 0.57850 0.50540 0.38648
 H1293 H 0.56859 0.48963 0.44757
 H1294 H 0.55395 0.49636 0.47748
 H1295 H 0.50392 0.47183 0.45686
 H1296 H 0.51861 0.46615 0.42609
 C1297 C 0.56340 0.52661 0.15018
 C1298 C 0.57434 0.54055 0.15783
 C1299 C 0.58448 0.53773 0.17445
 C1300 C 0.58388 0.52091 0.18358
 C1301 C 0.57209 0.50740 0.17659
 C1302 C 0.56189 0.51025 0.16016
 C1303 C 0.55505 0.52825 0.13097
 C1304 C 0.55601 0.51375 0.11816
 C1305 C 0.54870 0.51495 0.09991
 C1306 C 0.54032 0.53074 0.09382
 C1307 C 0.53915 0.54528 0.10660
 C1308 C 0.54659 0.54410 0.12502
 C1309 C 0.53266 0.53137 0.07423
 C1310 C 0.51498 0.53742 0.07091
 C1311 C 0.50649 0.53411 0.05326
 C1312 C 0.51553 0.52460 0.03873
 C1313 C 0.53375 0.51996 0.04174
 C1314 C 0.54225 0.52356 0.05909
 H1315 H 0.57582 0.55326 0.15041
 H1316 H 0.59350 0.54835 0.17959
 H1317 H 0.57114 0.49444 0.18361
 H1318 H 0.55322 0.49941 0.15489
 H1319 H 0.56270 0.50148 0.12214
 H1320 H 0.54950 0.50337 0.09055
 H1321 H 0.53271 0.55758 0.10227
 H1322 H 0.54562 0.55547 0.13464
 H1323 H 0.50727 0.54350 0.08235
 H1324 H 0.49244 0.53781 0.05160
 H1325 H 0.54121 0.51236 0.03124
 H1326 H 0.55604 0.51911 0.06109
 C1327 C 0.06647 1.01962 0.64184
 C1328 C 0.06493 1.00307 0.65145
 C1329 C 0.07410 1.00032 0.66858
 C1330 C 0.08484 1.01413 0.67665
 C1331 C 0.08551 1.03106 0.66777
 C1332 C 0.07643 1.03378 0.65045
 C1333 C 0.05896 1.02141 0.62226
 C1334 C 0.05039 1.03716 0.61620
 C1335 C 0.04344 1.03841 0.59758
 C1336 C 0.04515 1.02400 0.58468
 C1337 C 0.05375 1.00834 0.59084
 C1338 C 0.06063 1.00711 0.60928
 C1339 C 0.03758 1.02458 0.56501
 C1340 C 0.04700 1.01640 0.54996
 C1341 C 0.03845 1.01287 0.53261
 C1342 C 0.02041 1.01803 0.52945
 C1343 C 0.01161 1.02790 0.54386
 C1344 C 0.02009 1.03108 0.56153
 H1345 H 0.05697 0.99205 0.64546
 H1346 H 0.07309 0.98726 0.67536
 H1347 H 0.09374 1.04191 0.67374
 H1348 H 0.07792 1.04666 0.64336
 H1349 H 0.04886 1.04838 0.62592
 H1350 H 0.03687 1.05063 0.59323
 H1351 H 0.05495 0.99682 0.58145
 H1352 H 0.06743 0.99492 0.61333
 H1353 H 0.06066 1.01164 0.55202
 H1354 H 0.04572 1.00494 0.52223
 H1355 H -0.00230 1.03202 0.54210
 H1356 H 0.01248 1.03744 0.57286
 C1357 C -0.06987 0.47138 0.64221
 C1358 C -0.06490 0.48550 0.65467
 C1359 C -0.07548 0.48927 0.67077
 C1360 C -0.09129 0.47906 0.67474
 C1361 C -0.09599 0.46463 0.66260
 C1362 C -0.08539 0.46082 0.64653
 C1363 C -0.05965 0.46858 0.62411
 C1364 C -0.06904 0.46495 0.60701
 C1365 C -0.05978 0.46459 0.58955
 C1366 C -0.04094 0.46789 0.58877
 C1367 C -0.03137 0.47047 0.60595
 C1368 C -0.04064 0.47083 0.62345
 C1369 C -0.03174 0.47080 0.57008
 C1370 C -0.01422 0.46438 0.56647
 C1371 C -0.00503 0.46898 0.54953
 C1372 C -0.01315 0.48016 0.53591
 C1373 C -0.03083 0.48624 0.53954
 C1374 C -0.04003 0.48150 0.55626
 H1375 H -0.05322 0.49409 0.65158
 H1376 H -0.07161 0.50058 0.67976
 H1377 H -0.10791 0.45631 0.66551
 H1378 H -0.08942 0.44967 0.63740
 H1379 H -0.08369 0.46328 0.60696
 H1380 H -0.06748 0.46237 0.57655
 H1381 H -0.01686 0.47317 0.60578
 H1382 H -0.03299 0.47337 0.63641
 H1383 H -0.00751 0.45612 0.57693
 H1384 H 0.00868 0.46434 0.54752
 H1385 H -0.03750 0.49518 0.52972
 H1386 H -0.05334 0.48699 0.55878
 C1387 C 0.43495 -0.02774 0.15166
 C1388 C 0.44094 -0.01509 0.16525
 C1389 C 0.43057 -0.01180 0.18162
 C1390 C 0.41414 -0.02134 0.18491
 C1391 C 0.40862 -0.03456 0.17157
 C1392 C 0.41881 -0.03757 0.15501
 C1393 C 0.44474 -0.02952 0.13331
 C1394 C 0.43547 -0.02694 0.11610
 C1395 C 0.44488 -0.02661 0.09875
 C1396 C 0.46378 -0.02925 0.09815
 C1397 C 0.47289 -0.03265 0.11544
 C1398 C 0.46348 -0.03256 0.13287
 C1399 C 0.47395 -0.02699 0.07979
 C1400 C 0.49155 -0.01932 0.07952
 C1401 C 0.49995 -0.01468 0.06221
 C1402 C 0.49082 -0.01705 0.04464
 C1403 C 0.47374 -0.02583 0.04500
 C1404 C 0.46556 -0.03096 0.06223
 H1405 H 0.45324 -0.00719 0.16278
 H1406 H 0.43515 -0.00131 0.19133
 H1407 H 0.39634 -0.04252 0.17380
 H1408 H 0.41403 -0.04746 0.14472
 H1409 H 0.42104 -0.02434 0.11617
 H1410 H 0.43738 -0.02349 0.08593
 H1411 H 0.48732 -0.03511 0.11558
 H1412 H 0.47085 -0.03469 0.14604
 H1413 H 0.49855 -0.01594 0.09266
 H1414 H 0.51327 -0.00829 0.06283
 H1415 H 0.46608 -0.02831 0.03225
 H1416 H 0.45229 -0.03748 0.06174
 C1417 C 0.34605 0.44738 0.02497
 C1418 C 0.32983 0.45561 0.03050
 C1419 C 0.31305 0.44679 0.02764
 C1420 C 0.31223 0.42964 0.01911
 C1421 C 0.32847 0.42169 0.01321
 C1422 C 0.34515 0.43042 0.01614
 C1423 C 0.36400 0.45633 0.02795
 C1424 C 0.37877 0.44621 0.03413
 C1425 C 0.39628 0.45370 0.03426
 C1426 C 0.39939 0.47149 0.02825
 C1427 C 0.38449 0.48206 0.02335
 C1428 C 0.36690 0.47452 0.02320
 C1429 C 0.41823 0.47813 0.02495
 C1430 C 0.42408 0.49534 0.03081
 C1431 C 0.44181 0.50148 0.02675
 C1432 C 0.45393 0.49060 0.01650
 C1433 C 0.44780 0.47342 0.01062
 C1434 C 0.43031 0.46725 0.01489
 H1435 H 0.33015 0.46868 0.03734
 H1436 H 0.30077 0.45321 0.03245
 H1437 H 0.32830 0.40872 0.00613
 H1438 H 0.35738 0.42396 0.01125
 H1439 H 0.37686 0.43228 0.03830
 H1440 H 0.40751 0.44538 0.03839
 H1441 H 0.38658 0.49578 0.01855
 H1442 H 0.35575 0.48260 0.01833
 H1443 H 0.41494 0.50401 0.03854
 H1444 H 0.44586 0.51484 0.03142
 H1445 H 0.45622 0.46481 0.00203
 H1446 H 0.42602 0.45411 0.00972
 C1447 C -0.15161 0.94697 0.52628
 C1448 C -0.15603 0.93141 0.53684
 C1449 C -0.17307 0.92300 0.53504
 C1450 C -0.18633 0.93010 0.52289
 C1451 C -0.18227 0.94626 0.51319
 C1452 C -0.16511 0.95452 0.51475
 C1453 C -0.13266 0.95440 0.52605
 C1454 C -0.12908 0.97297 0.52405
 C1455 C -0.11124 0.97954 0.52180
 C1456 C -0.09659 0.96769 0.52158
 C1457 C -0.10012 0.94927 0.52455
 C1458 C -0.11789 0.94270 0.52660
 C1459 C -0.07785 0.97416 0.51695
 C1460 C -0.06680 0.96380 0.50503
 C1461 C -0.04930 0.96965 0.50027
 C1462 C -0.04225 0.98617 0.50709
 C1463 C -0.05333 0.99661 0.51903
 C1464 C -0.07095 0.99068 0.52389
 H1465 H -0.14614 0.92542 0.54618
 H1466 H -0.17552 0.91052 0.54263
 H1467 H -0.19224 0.95236 0.50404
 H1468 H -0.16221 0.96641 0.50629
 H1469 H -0.14009 0.98240 0.52388
 H1470 H -0.10899 0.99380 0.51949
 H1471 H -0.08913 0.93982 0.52484
 H1472 H -0.12003 0.92832 0.52785
 H1473 H -0.07179 0.95123 0.49902
 H1474 H -0.04147 0.96119 0.49090
 H1475 H -0.04846 1.00938 0.52465
 H1476 H -0.07910 0.99894 0.53321
 C1477 C -0.14042 0.05897 0.98378
 C1478 C -0.14395 0.06941 1.00003
 C1479 C -0.15952 0.07971 1.00120
 C1480 C -0.17218 0.08012 0.98604
 C1481 C -0.16857 0.06945 0.96974
 C1482 C -0.15287 0.05911 0.96861
 C1483 C -0.12363 0.04822 0.98282
 C1484 C -0.11314 0.04757 0.96599
 C1485 C -0.09653 0.03871 0.96578
 C1486 C -0.09006 0.03032 0.98238
 C1487 C -0.10088 0.03053 0.99899
 C1488 C -0.11746 0.03928 0.99918
 C1489 C -0.07174 0.02221 0.98291
 C1490 C -0.06872 0.00676 0.99388
 C1491 C -0.05115 0.00048 0.99646
 C1492 C -0.03607 0.00966 0.98846
 C1493 C -0.03935 0.02392 0.97580
 C1494 C -0.05691 0.03038 0.97338
 H1495 H -0.13456 0.06974 1.01193
 H1496 H -0.16173 0.08680 1.01449
 H1497 H -0.17738 0.06945 0.95740
 H1498 H -0.15053 0.05116 0.95588
 H1499 H -0.11749 0.05439 0.95318
 H1500 H -0.08866 0.03861 0.95266
 H1501 H -0.09627 0.02443 1.01212
 H1502 H -0.12536 0.03927 1.01228
 H1503 H -0.07993 -0.00039 1.00070
 H1504 H -0.04949 -0.01151 1.00494
 H1505 H -0.02830 0.03052 0.96817
 H1506 H -0.05872 0.04217 0.96459
 C1507 C 0.36257 0.56346 0.48597
 C1508 C 0.34800 0.55852 0.47398
 C1509 C 0.33105 0.56652 0.47618
 C1510 C 0.32832 0.57946 0.49054
 C1511 C 0.34290 0.58434 0.50252
 C1512 C 0.35982 0.57647 0.50023
 C1513 C 0.38054 0.55493 0.48393
 C1514 C 0.39660 0.56537 0.48535
 C1515 C 0.41355 0.55725 0.48494
 C1516 C 0.41483 0.53850 0.48317
 C1517 C 0.39879 0.52810 0.48116
 C1518 C 0.38181 0.53624 0.48146
 C1519 C 0.43278 0.52987 0.48487
 C1520 C 0.43472 0.51453 0.49631
 C1521 C 0.45194 0.50787 0.50014
 C1522 C 0.46767 0.51667 0.49300
 C1523 C 0.46552 0.53088 0.48000
 C1524 C 0.44831 0.53761 0.47625
 H1525 H 0.34976 0.54860 0.46281
 H1526 H 0.32003 0.56243 0.46682
 H1527 H 0.34126 0.59443 0.51355
 H1528 H 0.37073 0.58038 0.50983
 H1529 H 0.39605 0.57982 0.48705
 H1530 H 0.42564 0.56561 0.48674
 H1531 H 0.39937 0.51363 0.47962
 H1532 H 0.36966 0.52785 0.48043
 H1533 H 0.42301 0.50820 0.50310
 H1534 H 0.45289 0.49645 0.50963
 H1535 H 0.47719 0.53726 0.47319
 H1536 H 0.44717 0.54909 0.46686
 C1537 C 0.15840 0.55095 0.52814
 C1538 C 0.16298 0.56519 0.54058
 C1539 C 0.17946 0.57460 0.53850
 C1540 C 0.19178 0.56992 0.52402
 C1541 C 0.18774 0.55498 0.51236
 C1542 C 0.17119 0.54560 0.51437
 C1543 C 0.13972 0.54299 0.52821
 C1544 C 0.13664 0.52453 0.52484
 C1545 C 0.11891 0.51760 0.52286
 C1546 C 0.10398 0.52904 0.52408
 C1547 C 0.10706 0.54732 0.52822
 C1548 C 0.12470 0.55421 0.53025
 C1549 C 0.08535 0.52238 0.51968
 C1550 C 0.07427 0.53245 0.50764
 C1551 C 0.05676 0.52647 0.50322
 C1552 C 0.04965 0.51027 0.51080
 C1553 C 0.06085 0.50009 0.52278
 C1554 C 0.07855 0.50605 0.52710
 H1555 H 0.15358 0.56939 0.55158
 H1556 H 0.18239 0.58587 0.54791
 H1557 H 0.19692 0.55117 0.50098
 H1558 H 0.16800 0.53482 0.50444
 H1559 H 0.14794 0.51552 0.52337
 H1560 H 0.11690 0.50346 0.51961
 H1561 H 0.09579 0.55640 0.52945
 H1562 H 0.12657 0.56852 0.53260
 H1563 H 0.07928 0.54489 0.50135
 H1564 H 0.04890 0.53459 0.49363
 H1565 H 0.05601 0.48751 0.52887
 H1566 H 0.08684 0.49802 0.53644
 C1567 C 0.65561 0.06510 0.02216
 C1568 C 0.67148 0.05673 0.02844
 C1569 C 0.68847 0.06537 0.02645
 C1570 C 0.68989 0.08257 0.01819
 C1571 C 0.67401 0.09085 0.01186
 C1572 C 0.65712 0.08223 0.01380
 C1573 C 0.63748 0.05604 0.02374
 C1574 C 0.62206 0.06610 0.02822
 C1575 C 0.60473 0.05821 0.02756
 C1576 C 0.60240 0.04002 0.02256
 C1577 C 0.61782 0.02966 0.01909
 C1578 C 0.63522 0.03761 0.01961
 C1579 C 0.58387 0.03237 0.01975
 C1580 C 0.57874 0.01553 0.02729
 C1581 C 0.56109 0.00864 0.02458
 C1582 C 0.54825 0.01835 0.01408
 C1583 C 0.55370 0.03503 0.00626
 C1584 C 0.57118 0.04198 0.00916
 H1585 H 0.67074 0.04358 0.03505
 H1586 H 0.70047 0.05871 0.03154
 H1587 H 0.67467 0.10388 0.00499
 H1588 H 0.64525 0.08887 0.00835
 H1589 H 0.62337 0.08021 0.03193
 H1590 H 0.59307 0.06640 0.03066
 H1591 H 0.61636 0.01563 0.01512
 H1592 H 0.64680 0.02953 0.01597
 H1593 H 0.58831 0.00785 0.03551
 H1594 H 0.55757 -0.00430 0.03077
 H1595 H 0.54451 0.04287 -0.00220
 H1596 H 0.57488 0.05484 0.00286
 C1597 C 0.64422 0.94202 0.47521
 C1598 C 0.64374 0.92355 0.47945
 C1599 C 0.65970 0.91443 0.48322
 C1600 C 0.67660 0.92354 0.48300
 C1601 C 0.67720 0.94191 0.47824
 C1602 C 0.66117 0.95106 0.47440
 C1603 C 0.62695 0.95182 0.47284
 C1604 C 0.62481 0.96900 0.48092
 C1605 C 0.60776 0.97702 0.48118
 C1606 C 0.59255 0.96792 0.47353
 C1607 C 0.59488 0.95128 0.46446
 C1608 C 0.61191 0.94337 0.46399
 C1609 C 0.57405 0.97464 0.47695
 C1610 C 0.56096 0.96316 0.48525
 C1611 C 0.54374 0.96937 0.48971
 C1612 C 0.53889 0.98717 0.48558
 C1613 C 0.55208 0.99866 0.47714
 C1614 C 0.56955 0.99250 0.47303
 H1615 H 0.63094 0.91619 0.48050
 H1616 H 0.65878 0.90022 0.48651
 H1617 H 0.69001 0.94932 0.47803
 H1618 H 0.66204 0.96524 0.47100
 H1619 H 0.63604 0.97582 0.48800
 H1620 H 0.60624 0.98981 0.48838
 H1621 H 0.58335 0.94412 0.45827
 H1622 H 0.61317 0.93035 0.45721
 H1623 H 0.56426 0.94946 0.48892
 H1624 H 0.53457 0.96024 0.49707
 H1625 H 0.54907 1.01251 0.47392
 H1626 H 0.57952 1.00163 0.46675
 C1627 C 0.14053 0.44600 0.97914
 C1628 C 0.14015 0.42790 0.98471
 C1629 C 0.15625 0.41869 0.98718
 C1630 C 0.17313 0.42742 0.98437
 C1631 C 0.17352 0.44529 0.97773
 C1632 C 0.15728 0.45452 0.97508
 C1633 C 0.12341 0.45602 0.97931
 C1634 C 0.11711 0.46491 0.96298
 C1635 C 0.09965 0.47220 0.96289
 C1636 C 0.08844 0.47070 0.97917
 C1637 C 0.09539 0.46288 0.99582
 C1638 C 0.11261 0.45554 0.99585
 C1639 C 0.06912 0.47590 0.97883
 C1640 C 0.05606 0.46430 0.98702
 C1641 C 0.03819 0.46957 0.98912
 C1642 C 0.03259 0.48654 0.98282
 C1643 C 0.04549 0.49782 0.97358
 C1644 C 0.06361 0.49252 0.97157
 H1645 H 0.12734 0.42100 0.98762
 H1646 H 0.15547 0.40479 0.99176
 H1647 H 0.18634 0.45236 0.97546
 H1648 H 0.15781 0.46850 0.97078
 H1649 H 0.12531 0.46545 0.95009
 H1650 H 0.09461 0.47822 0.94991
 H1651 H 0.08724 0.46198 1.00874
 H1652 H 0.11736 0.44903 1.00870
 H1653 H 0.05983 0.45127 0.99244
 H1654 H 0.02911 0.46056 0.99679
 H1655 H 0.04181 0.51100 0.96856
 H1656 H 0.07345 0.50171 0.96515
 C1657 C 0.00215 0.34627 0.45425
 C1658 C -0.01330 0.33495 0.45235
 C1659 C -0.01292 0.31979 0.44052
 C1660 C 0.00298 0.31541 0.43053
 C1661 C 0.01866 0.32620 0.43305
 C1662 C 0.01823 0.34152 0.44469
 C1663 C 0.00111 0.36360 0.46493
 C1664 C 0.01619 0.37067 0.47498
 C1665 C 0.01575 0.38791 0.48306
 C1666 C 0.00019 0.39844 0.48132
 C1667 C -0.01522 0.39095 0.47226
 C1668 C -0.01474 0.37383 0.46408
 C1669 C 0.00052 0.41771 0.48708
 C1670 C -0.00726 0.43046 0.47501
 C1671 C -0.00602 0.44871 0.47927
 C1672 C 0.00293 0.45491 0.49587
 C1673 C 0.01055 0.44214 0.50816
 C1674 C 0.00936 0.42372 0.50380
 H1675 H -0.02579 0.33792 0.45982
 H1676 H -0.02511 0.31152 0.43906
 H1677 H 0.03105 0.32319 0.42539
 H1678 H 0.03030 0.35002 0.44553
 H1679 H 0.02851 0.36305 0.47623
 H1680 H 0.02787 0.39330 0.48988
 H1681 H -0.02753 0.39858 0.47095
 H1682 H -0.02657 0.36899 0.45634
 H1683 H -0.01379 0.42639 0.46179
 H1684 H -0.01188 0.45798 0.46921
 H1685 H 0.01784 0.44635 0.52085
 H1686 H 0.01549 0.41421 0.51341
 C1687 C 0.50376 -0.14418 -0.04987
 C1688 C 0.50906 -0.16069 -0.04215
 C1689 C 0.50927 -0.17617 -0.05355
 C1690 C 0.50432 -0.17545 -0.07297
 C1691 C 0.49932 -0.15883 -0.08071
 C1692 C 0.49898 -0.14342 -0.06928
 C1693 C 0.50335 -0.12770 -0.03788
 C1694 C 0.48882 -0.11581 -0.03936
 C1695 C 0.48899 -0.09964 -0.02917
 C1696 C 0.50375 -0.09494 -0.01734
 C1697 C 0.51800 -0.10710 -0.01537
 C1698 C 0.51777 -0.12336 -0.02547
 C1699 C 0.50489 -0.07677 -0.00855
 C1700 C 0.52111 -0.06663 -0.00961
 C1701 C 0.52159 -0.04861 -0.00401
 C1702 C 0.50581 -0.04010 0.00275
 C1703 C 0.49005 -0.05082 0.00529
 C1704 C 0.48950 -0.06884 -0.00050
 H1705 H 0.51270 -0.16168 -0.02719
 H1706 H 0.51294 -0.18878 -0.04705
 H1707 H 0.49581 -0.15767 -0.09568
 H1708 H 0.49520 -0.13080 -0.07572
 H1709 H 0.47743 -0.11892 -0.04864
 H1710 H 0.47791 -0.09047 -0.03115
 H1711 H 0.52949 -0.10387 -0.00626
 H1712 H 0.52917 -0.13225 -0.02410
 H1713 H 0.53324 -0.07234 -0.01573
 H1714 H 0.53433 -0.04129 -0.00573
 H1715 H 0.47780 -0.04533 0.01089
 H1716 H 0.47688 -0.07646 0.00090
 C1717 C 0.00812 -0.15240 1.04900
 C1718 C -0.00452 -0.16629 1.04495
 C1719 C -0.00515 -0.18191 1.05606
 C1720 C 0.00688 -0.18403 1.07147
 C1721 C 0.01965 -0.17023 1.07535
 C1722 C 0.02023 -0.15460 1.06431
 C1723 C 0.00834 -0.13537 1.03785
 C1724 C 0.02486 -0.12631 1.03384
 C1725 C 0.02500 -0.10936 1.02529
 C1726 C 0.00865 -0.10115 1.02038
 C1727 C -0.00783 -0.11057 1.02337
 C1728 C -0.00799 -0.12749 1.03210
 C1729 C 0.00873 -0.08215 1.01411
 C1730 C -0.00186 -0.07648 0.99864
 C1731 C -0.00233 -0.05823 0.99371
 C1732 C 0.00766 -0.04531 1.00427
 C1733 C 0.01803 -0.05116 1.01988
 C1734 C 0.01876 -0.06931 1.02454
 H1735 H -0.01394 -0.16510 1.03318
 H1736 H -0.01529 -0.19219 1.05280
 H1737 H 0.02928 -0.17151 1.08693
 H1738 H 0.02995 -0.14407 1.06804
 H1739 H 0.03769 -0.13217 1.03765
 H1740 H 0.03789 -0.10244 1.02290
 H1741 H -0.02063 -0.10444 1.01990
 H1742 H -0.02096 -0.13400 1.03514
 H1743 H -0.00983 -0.08615 0.99047
 H1744 H -0.01087 -0.05427 0.98195
 H1745 H 0.02554 -0.04171 1.02877
 H1746 H 0.02672 -0.07326 1.03679
 C1747 C 0.49985 0.35271 0.55226
 C1748 C 0.50932 0.35029 0.56948
 C1749 C 0.50698 0.33452 0.58010
 C1750 C 0.49506 0.32076 0.57385
 C1751 C 0.48562 0.32312 0.55659
 C1752 C 0.48797 0.33893 0.54593
 C1753 C 0.50212 0.36981 0.54139
 C1754 C 0.48708 0.37816 0.53307
 C1755 C 0.48896 0.39523 0.52475
 C1756 C 0.50589 0.40429 0.52470
 C1757 C 0.52108 0.39555 0.53207
 C1758 C 0.51923 0.37850 0.54025
 C1759 C 0.50740 0.42347 0.51900
 C1760 C 0.51631 0.43572 0.53118
 C1761 C 0.51681 0.45401 0.52698
 C1762 C 0.50876 0.46062 0.51021
 C1763 C 0.50009 0.44827 0.49778
 C1764 C 0.49930 0.42987 0.50222
 H1765 H 0.51835 0.36073 0.57497
 H1766 H 0.51466 0.33307 0.59318
 H1767 H 0.47622 0.31284 0.55145
 H1768 H 0.48056 0.34033 0.53268
 H1769 H 0.47369 0.37191 0.53380
 H1770 H 0.47701 0.40174 0.51931
 H1771 H 0.53433 0.40214 0.53196
 H1772 H 0.53117 0.37226 0.54607
 H1773 H 0.52241 0.43123 0.54437
 H1774 H 0.52347 0.46296 0.53709
 H1775 H 0.49354 0.45283 0.48488
 H1776 H 0.49230 0.42066 0.49261
 C1777 C 0.49259 1.14916 0.55507
 C1778 C 0.49841 1.16532 0.54643
 C1779 C 0.49667 1.18172 0.55608
 C1780 C 0.48896 1.18230 0.57453
 C1781 C 0.48279 1.16616 0.58295
 C1782 C 0.48457 1.14982 0.57334
 C1783 C 0.49511 1.13155 0.54543
 C1784 C 0.50066 1.11668 0.55612
 C1785 C 0.50179 1.09976 0.54766
 C1786 C 0.49742 1.09723 0.52828
 C1787 C 0.49270 1.11221 0.51727
 C1788 C 0.49153 1.12924 0.52579
 C1789 C 0.49673 1.07876 0.52023
 C1790 C 0.50460 1.07460 0.50244
 C1791 C 0.50471 1.05675 0.49584
 C1792 C 0.49675 1.04282 0.50682
 C1793 C 0.48844 1.04728 0.52434
 C1794 C 0.48839 1.06494 0.53087
 H1795 H 0.50469 1.16524 0.53240
 H1796 H 0.50137 1.19395 0.54913
 H1797 H 0.47698 1.16608 0.59720
 H1798 H 0.47968 1.13764 0.58026
 H1799 H 0.50400 1.11810 0.57113
 H1800 H 0.50586 1.08852 0.55638
 H1801 H 0.48922 1.11060 0.50232
 H1802 H 0.48719 1.14046 0.51720
 H1803 H 0.51115 1.08505 0.49396
 H1804 H 0.51138 1.05386 0.48242
 H1805 H 0.48196 1.03713 0.53324
 H1806 H 0.48186 1.06779 0.54443
 C1807 C 0.00180 0.64948 1.04741
 C1808 C 0.01725 0.65472 1.05797
 C1809 C 0.01738 0.67055 1.06875
 C1810 C 0.00207 0.68153 1.06924
 C1811 C -0.01318 0.67660 1.05818
 C1812 C -0.01329 0.66076 1.04734
 C1813 C 0.00094 0.63164 1.03783
 C1814 C -0.00700 0.62938 1.01966
 C1815 C -0.00878 0.61221 1.01146
 C1816 C -0.00288 0.59705 1.02144
 C1817 C 0.00548 0.59941 1.03933
 C1818 C 0.00738 0.61648 1.04741
 C1819 C -0.00622 0.57860 1.01408
 C1820 C -0.00127 0.57356 0.99541
 C1821 C -0.00272 0.55549 0.98964
 C1822 C -0.00927 0.54225 1.00242
 C1823 C -0.01511 0.54769 1.02072
 C1824 C -0.01362 0.56556 1.02642
 H1825 H 0.02915 0.64639 1.05815
 H1826 H 0.02928 0.67388 1.07720
 H1827 H -0.02508 0.68492 1.05804
 H1828 H -0.02543 0.65701 1.03947
 H1829 H -0.01196 0.64087 1.01190
 H1830 H -0.01529 0.61070 0.99766
 H1831 H 0.01030 0.58795 1.04723
 H1832 H 0.01336 0.61771 1.06149
 H1833 H 0.00442 0.58344 0.98562
 H1834 H 0.00184 0.55184 0.97544
 H1835 H -0.02057 0.53810 1.03095
 H1836 H -0.01792 0.56916 1.04074
 C1837 C 0.49238 0.65450 -0.04873
 C1838 C 0.48036 0.65794 -0.06384
 C1839 C 0.48157 0.67404 -0.07404
 C1840 C 0.49468 0.68724 -0.06927
 C1841 C 0.50615 0.68426 -0.05360
 C1842 C 0.50507 0.66802 -0.04348
 C1843 C 0.49246 0.63643 -0.03952
 C1844 C 0.49586 0.63436 -0.01983
 C1845 C 0.49674 0.61716 -0.01167
 C1846 C 0.49437 0.60172 -0.02309
 C1847 C 0.49053 0.60386 -0.04263
 C1848 C 0.48969 0.62093 -0.05073
 C1849 C 0.49642 0.58330 -0.01518
 C1850 C 0.50545 0.57037 -0.02607
 C1851 C 0.50586 0.55256 -0.02014
 C1852 C 0.49758 0.54705 -0.00287
 C1853 C 0.48932 0.56017 0.00860
 C1854 C 0.48876 0.57816 0.00250
 H1855 H 0.47011 0.64805 -0.06798
 H1856 H 0.47230 0.67614 -0.08580
 H1857 H 0.51643 0.69419 -0.04966
 H1858 H 0.51465 0.66577 -0.03205
 H1859 H 0.49788 0.64603 -0.01074
 H1860 H 0.49973 0.61593 0.00342
 H1861 H 0.48830 0.59226 -0.05177
 H1862 H 0.48731 0.62192 -0.06597
 H1863 H 0.51193 0.57396 -0.03950
 H1864 H 0.51247 0.54303 -0.02945
 H1865 H 0.48273 0.55647 0.02192
 H1866 H 0.48170 0.58785 0.01122
 C1867 C -0.00028 1.14769 0.44004
 C1868 C -0.01233 1.15057 0.42490
 C1869 C -0.01212 1.16681 0.41494
 C1870 C 0.00004 1.18104 0.41990
 C1871 C 0.01177 1.17816 0.43558
 C1872 C 0.01161 1.16176 0.44543
 C1873 C 0.00040 1.12972 0.44938
 C1874 C 0.00326 1.12793 0.46919
 C1875 C 0.00417 1.11085 0.47760
 C1876 C 0.00233 1.09525 0.46632
 C1877 C -0.00081 1.09713 0.44660
 C1878 C -0.00163 1.11408 0.43825
 C1879 C 0.00393 1.07694 0.47462
 C1880 C 0.01281 1.06361 0.46414
 C1881 C 0.01253 1.04586 0.47031
 C1882 C 0.00380 1.04082 0.48749
 C1883 C -0.00423 1.05433 0.49863
 C1884 C -0.00417 1.07224 0.49224
 H1885 H -0.02188 1.14011 0.42049
 H1886 H -0.02107 1.16758 0.40279
 H1887 H 0.02093 1.18858 0.44076
 H1888 H 0.02110 1.15999 0.45705
 H1889 H 0.00471 1.13973 0.47821
 H1890 H 0.00664 1.10984 0.49282
 H1891 H -0.00265 1.08542 0.43753
 H1892 H -0.00357 1.11488 0.42293
 H1893 H 0.01965 1.06683 0.45081
 H1894 H 0.01896 1.03601 0.46125
 H1895 H -0.01116 1.05100 0.51187
 H1896 H -0.01115 1.08222 0.50065
 C1897 C 0.77280 0.68682 0.89601
 C1898 C 0.78711 0.67955 0.90660
 C1899 C 0.78360 0.67104 0.92413
 C1900 C 0.76575 0.66958 0.93120
 C1901 C 0.75168 0.67774 0.92119
 C1902 C 0.75518 0.68641 0.90388
 C1903 C 0.77570 0.69341 0.87617
 C1904 C 0.76273 0.68915 0.86213
 C1905 C 0.76488 0.69530 0.84348
 C1906 C 0.78023 0.70568 0.83815
 C1907 C 0.79341 0.70982 0.85209
 C1908 C 0.79121 0.70367 0.87094
 C1909 C 0.78147 0.71283 0.81833
 C1910 C 0.78684 0.73076 0.81481
 C1911 C 0.78355 0.73863 0.79698
 C1912 C 0.77456 0.72879 0.78245
 C1913 C 0.77077 0.71041 0.78563
 C1914 C 0.77460 0.70247 0.80310
 H1915 H 0.80080 0.67961 0.90089
 H1916 H 0.79465 0.66477 0.93165
 H1917 H 0.73786 0.67701 0.92656
 H1918 H 0.74396 0.69234 0.89634
 H1919 H 0.75082 0.68098 0.86554
 H1920 H 0.75419 0.69221 0.83332
 H1921 H 0.80538 0.71780 0.84843
 H1922 H 0.80143 0.70717 0.88148
 H1923 H 0.79220 0.73913 0.82624
 H1924 H 0.78661 0.75283 0.79525
 H1925 H 0.76340 0.70232 0.77529
 H1926 H 0.77081 0.68846 0.80515
 C1927 C 0.27209 0.18646 0.40734
 C1928 C 0.28529 0.17428 0.41326
 C1929 C 0.28281 0.16434 0.43007
 C1930 C 0.26705 0.16632 0.44128
 C1931 C 0.25433 0.17918 0.43581
 C1932 C 0.25688 0.18918 0.41912
 C1933 C 0.27315 0.19492 0.38813
 C1934 C 0.25739 0.19575 0.37694
 C1935 C 0.25818 0.20246 0.35839
 C1936 C 0.27476 0.20842 0.35043
 C1937 C 0.29052 0.20813 0.36169
 C1938 C 0.28974 0.20131 0.38039
 C1939 C 0.27521 0.21439 0.33024
 C1940 C 0.28358 0.23074 0.32479
 C1941 C 0.28105 0.23755 0.30629
 C1942 C 0.27019 0.22805 0.29297
 C1943 C 0.26286 0.21116 0.29831
 C1944 C 0.26552 0.20436 0.31655
 H1945 H 0.29713 0.17183 0.40446
 H1946 H 0.29306 0.15482 0.43407
 H1947 H 0.24197 0.18100 0.44395
 H1948 H 0.24662 0.19870 0.41513
 H1949 H 0.24445 0.19069 0.38230
 H1950 H 0.24576 0.20281 0.35014
 H1951 H 0.30345 0.21269 0.35586
 H1952 H 0.30209 0.20094 0.38874
 H1953 H 0.29111 0.23874 0.33514
 H1954 H 0.28671 0.25069 0.30287
 H1955 H 0.25421 0.20343 0.28874
 H1956 H 0.25920 0.19156 0.32027
 C1957 C 0.72160 0.31824 0.39642
 C1958 C 0.73522 0.31261 0.40900
 C1959 C 0.73897 0.32223 0.42576
 C1960 C 0.72921 0.33772 0.43032
 C1961 C 0.71506 0.34290 0.41818
 C1962 C 0.71128 0.33326 0.40142
 C1963 C 0.71950 0.30955 0.37737
 C1964 C 0.71741 0.32020 0.36096
 C1965 C 0.71829 0.31253 0.34275
 C1966 C 0.72130 0.29405 0.34053
 C1967 C 0.72218 0.28318 0.35689
 C1968 C 0.72134 0.29087 0.37515
 C1969 C 0.72574 0.28667 0.32140
 C1970 C 0.71874 0.26996 0.31518
 C1971 C 0.72424 0.26271 0.29761
 C1972 C 0.73697 0.27199 0.28602
 C1973 C 0.74389 0.28872 0.29243
 C1974 C 0.73823 0.29601 0.30973
 H1975 H 0.74362 0.30130 0.40542
 H1976 H 0.75009 0.31801 0.43470
 H1977 H 0.70707 0.35458 0.42151
 H1978 H 0.70052 0.33776 0.39218
 H1979 H 0.71612 0.33463 0.36213
 H1980 H 0.71737 0.32118 0.33036
 H1981 H 0.72457 0.26891 0.35558
 H1982 H 0.72273 0.28229 0.38754
 H1983 H 0.70914 0.26245 0.32398
 H1984 H 0.71887 0.24967 0.29339
 H1985 H 0.75391 0.29624 0.28418
 H1986 H 0.74418 0.30873 0.31432
 C1987 C 0.22300 0.81804 0.89802
 C1988 C 0.23284 0.83439 0.89697
 C1989 C 0.23769 0.84375 0.91355
 C1990 C 0.23279 0.83705 0.93166
 C1991 C 0.22301 0.82062 0.93277
 C1992 C 0.21820 0.81118 0.91611
 C1993 C 0.21858 0.80804 0.88017
 C1994 C 0.22140 0.78943 0.87880
 C1995 C 0.22040 0.78073 0.86102
 C1996 C 0.21660 0.79053 0.84440
 C1997 C 0.21232 0.80877 0.84606
 C1998 C 0.21325 0.81743 0.86375
 C1999 C 0.22018 0.78277 0.82528
 C2000 C 0.23204 0.79207 0.81293
 C2001 C 0.23734 0.78447 0.79568
 C2002 C 0.23049 0.76751 0.78987
 C2003 C 0.21824 0.75830 0.80210
 C2004 C 0.21326 0.76581 0.81976
 H2005 H 0.23717 0.83980 0.88329
 H2006 H 0.24560 0.85611 0.91216
 H2007 H 0.21886 0.81519 0.94650
 H2008 H 0.21059 0.79863 0.91734
 H2009 H 0.22557 0.78186 0.89119
 H2010 H 0.22390 0.76668 0.86006
 H2011 H 0.20919 0.81656 0.83345
 H2012 H 0.21057 0.83168 0.86446
 H2013 H 0.23790 0.80499 0.81702
 H2014 H 0.24716 0.79188 0.78709
 H2015 H 0.21297 0.74508 0.79836
 H2016 H 0.20421 0.75832 0.82919
 C2017 C 0.28559 0.81914 0.10745
 C2018 C 0.28987 0.81252 0.08921
 C2019 C 0.28543 0.82221 0.07276
 C2020 C 0.27629 0.83872 0.07408
 C2021 C 0.27252 0.84541 0.09259
 C2022 C 0.27706 0.83578 0.10892
 C2023 C 0.28879 0.80842 0.12498
 C2024 C 0.29428 0.81698 0.14201
 C2025 C 0.29397 0.80765 0.15932
 C2026 C 0.28831 0.78953 0.15994
 C2027 C 0.28425 0.78055 0.14274
 C2028 C 0.28446 0.78992 0.12540
 C2029 C 0.28408 0.78089 0.17855
 C2030 C 0.28903 0.76314 0.18244
 C2031 C 0.28314 0.75463 0.19929
 C2032 C 0.27200 0.76366 0.21245
 C2033 C 0.26724 0.78150 0.20842
 C2034 C 0.27340 0.79005 0.19188
 H2035 H 0.29649 0.79973 0.08764
 H2036 H 0.28840 0.81613 0.05908
 H2037 H 0.26641 0.85835 0.09476
 H2038 H 0.27343 0.84123 0.12276
 H2039 H 0.29809 0.83112 0.14207
 H2040 H 0.29739 0.81481 0.17237
 H2041 H 0.27969 0.76661 0.14287
 H2042 H 0.28006 0.78297 0.11255
 H2043 H 0.29716 0.75575 0.17227
 H2044 H 0.28674 0.74078 0.20157
 H2045 H 0.25826 0.78882 0.21777
 H2046 H 0.26901 0.80360 0.18904
 C2047 C 0.78614 0.32447 0.60174
 C2048 C 0.78660 0.34338 0.60217
 C2049 C 0.78359 0.35330 0.58562
 C2050 C 0.78075 0.34468 0.56787
 C2051 C 0.78230 0.32583 0.56711
 C2052 C 0.78459 0.31585 0.58386
 C2053 C 0.78511 0.31396 0.61992
 C2054 C 0.79123 0.29614 0.62104
 C2055 C 0.78753 0.28561 0.63728
 C2056 C 0.77780 0.29276 0.65276
 C2057 C 0.77299 0.31092 0.65221
 C2058 C 0.77635 0.32128 0.63599
 C2059 C 0.77107 0.28125 0.66872
 C2060 C 0.75338 0.28368 0.67563
 C2061 C 0.74685 0.27389 0.69115
 C2062 C 0.75771 0.26114 0.70029
 C2063 C 0.77513 0.25798 0.69278
 C2064 C 0.78180 0.26802 0.67717
 H2065 H 0.78874 0.35062 0.61544
 H2066 H 0.78363 0.36782 0.58679
 H2067 H 0.78013 0.31853 0.55387
 H2068 H 0.78402 0.30134 0.58282
 H2069 H 0.79840 0.29013 0.60919
 H2070 H 0.79151 0.27168 0.63734
 H2071 H 0.76588 0.31698 0.66411
 H2072 H 0.77112 0.33476 0.63581
 H2073 H 0.74449 0.29328 0.66903
 H2074 H 0.73324 0.27670 0.69604
 H2075 H 0.78375 0.24807 0.69915
 H2076 H 0.79545 0.26573 0.67201
 C2077 C 0.21578 0.17995 0.61066
 C2078 C 0.20245 0.17154 0.59931
 C2079 C 0.20746 0.16137 0.58335
 C2080 C 0.22594 0.15905 0.57874
 C2081 C 0.23920 0.16742 0.59038
 C2082 C 0.23416 0.17790 0.60602
 C2083 C 0.21081 0.19023 0.62789
 C2084 C 0.21715 0.20801 0.63020
 C2085 C 0.21494 0.21686 0.64767
 C2086 C 0.20670 0.20789 0.66318
 C2087 C 0.19955 0.19042 0.66057
 C2088 C 0.20141 0.18171 0.64295
 C2089 C 0.20847 0.21559 0.68257
 C2090 C 0.21795 0.20602 0.69642
 C2091 C 0.22311 0.21427 0.71350
 C2092 C 0.21829 0.23212 0.71755
 C2093 C 0.20786 0.24136 0.70401
 C2094 C 0.20317 0.23322 0.68658
 H2095 H 0.18819 0.17300 0.60270
 H2096 H 0.19682 0.15550 0.57456
 H2097 H 0.25354 0.16564 0.58768
 H2098 H 0.24465 0.18405 0.61484
 H2099 H 0.22445 0.21477 0.61872
 H2100 H 0.22079 0.23023 0.64948
 H2101 H 0.19328 0.18325 0.67243
 H2102 H 0.19654 0.16795 0.64144
 H2103 H 0.22253 0.19254 0.69345
 H2104 H 0.23166 0.20683 0.72309
 H2105 H 0.20420 0.25521 0.70631
 H2106 H 0.19601 0.24089 0.67593
 C2107 C 0.72413 0.68335 0.10706
 C2108 C 0.71979 0.69080 0.08928
 C2109 C 0.72405 0.68184 0.07227
 C2110 C 0.73290 0.66511 0.07252
 C2111 C 0.73703 0.65773 0.09057
 C2112 C 0.73275 0.66671 0.10748
 C2113 C 0.72062 0.69314 0.12520
 C2114 C 0.71520 0.68366 0.14171
 C2115 C 0.71486 0.69224 0.15948
 C2116 C 0.71978 0.71050 0.16108
 C2117 C 0.72380 0.72034 0.14443
 C2118 C 0.72427 0.71173 0.12663
 C2119 C 0.72343 0.71848 0.18012
 C2120 C 0.71745 0.73570 0.18501
 C2121 C 0.72294 0.74378 0.20224
 C2122 C 0.73478 0.73488 0.21467
 C2123 C 0.74040 0.71749 0.20974
 C2124 C 0.73461 0.70933 0.19286
 H2125 H 0.71316 0.70364 0.08849
 H2126 H 0.72097 0.68858 0.05903
 H2127 H 0.74307 0.64468 0.09196
 H2128 H 0.73649 0.66067 0.12095
 H2129 H 0.71187 0.66943 0.14100
 H2130 H 0.71153 0.68442 0.17212
 H2131 H 0.72782 0.73441 0.14533
 H2132 H 0.72859 0.71939 0.11421
 H2133 H 0.70886 0.74303 0.17533
 H2134 H 0.71847 0.75724 0.20539
 H2135 H 0.74974 0.71023 0.21867
 H2136 H 0.73969 0.69617 0.18927
 C2137 C 0.19395 0.59653 0.22560
 C2138 C 0.17698 0.59449 0.23468
 C2139 C 0.16845 0.57764 0.23596
 C2140 C 0.17663 0.56236 0.22818
 C2141 C 0.19373 0.56430 0.21928
 C2142 C 0.20233 0.58124 0.21802
 C2143 C 0.20279 0.61461 0.22449
 C2144 C 0.22142 0.61707 0.22837
 C2145 C 0.22910 0.63442 0.22952
 C2146 C 0.21826 0.64954 0.22687
 C2147 C 0.19991 0.64701 0.22196
 C2148 C 0.19228 0.62976 0.22074
 C2149 C 0.22548 0.66792 0.23072
 C2150 C 0.21534 0.67962 0.24206
 C2151 C 0.22177 0.69694 0.24595
 C2152 C 0.23849 0.70323 0.23845
 C2153 C 0.24877 0.69138 0.22722
 C2154 C 0.24237 0.67386 0.22348
 H2155 H 0.17040 0.60592 0.24111
 H2156 H 0.15552 0.57655 0.24334
 H2157 H 0.20032 0.55279 0.21306
 H2158 H 0.21537 0.58243 0.21088
 H2159 H 0.22983 0.60565 0.23140
 H2160 H 0.24327 0.63604 0.23341
 H2161 H 0.19135 0.65845 0.21949
 H2162 H 0.17800 0.62827 0.21725
 H2163 H 0.20244 0.67527 0.24817
 H2164 H 0.21347 0.70535 0.25490
 H2165 H 0.26176 0.69559 0.22125
 H2166 H 0.25047 0.66504 0.21471
 C2167 C 0.69209 0.09123 0.73898
 C2168 C 0.67575 0.09053 0.74932
 C2169 C 0.66552 0.07463 0.75055
 C2170 C 0.67128 0.05873 0.74146
 C2171 C 0.68789 0.05951 0.73120
 C2172 C 0.69804 0.07561 0.72983
 C2173 C 0.70246 0.10847 0.73771
 C2174 C 0.70888 0.11505 0.72003
 C2175 C 0.71603 0.13261 0.71859
 C2176 C 0.71681 0.14377 0.73482
 C2177 C 0.71158 0.13670 0.75266
 C2178 C 0.70451 0.11926 0.75409
 C2179 C 0.72125 0.16318 0.73319
 C2180 C 0.70967 0.17555 0.74180
 C2181 C 0.71396 0.19382 0.74165
 C2182 C 0.73006 0.20037 0.73299
 C2183 C 0.74137 0.18798 0.72371
 C2184 C 0.73695 0.16954 0.72372
 H2185 H 0.67074 0.10241 0.75642
 H2186 H 0.65342 0.07485 0.75934
 H2187 H 0.69282 0.04796 0.72350
 H2188 H 0.71060 0.07583 0.72170
 H2189 H 0.70742 0.10700 0.70718
 H2190 H 0.71998 0.13780 0.70469
 H2191 H 0.71238 0.14495 0.76543
 H2192 H 0.70005 0.11438 0.76796
 H2193 H 0.69733 0.17102 0.74894
 H2194 H 0.70489 0.20262 0.74919
 H2195 H 0.75387 0.19242 0.71683
 H2196 H 0.74605 0.16020 0.71691
 C2197 C 0.80883 0.10755 0.25757
 C2198 C 0.80478 0.09386 0.27081
 C2199 C 0.81283 0.07702 0.26899
 C2200 C 0.82467 0.07355 0.25366
 C2201 C 0.82837 0.08717 0.24025
 C2202 C 0.82063 0.10403 0.24226
 C2203 C 0.80118 0.12567 0.25963
 C2204 C 0.81278 0.14083 0.25889
 C2205 C 0.80569 0.15806 0.25880
 C2206 C 0.78679 0.16055 0.25909
 C2207 C 0.77518 0.14536 0.26070
 C2208 C 0.78234 0.12804 0.26106
 C2209 C 0.77944 0.17887 0.25660
 C2210 C 0.76397 0.18451 0.26663
 C2211 C 0.75756 0.20200 0.26432
 C2212 C 0.76649 0.21423 0.25194
 C2213 C 0.78182 0.20835 0.24181
 C2214 C 0.78809 0.19096 0.24398
 H2215 H 0.79574 0.09635 0.28274
 H2216 H 0.80977 0.06668 0.27948
 H2217 H 0.83759 0.08489 0.22843
 H2218 H 0.82384 0.11436 0.23181
 H2219 H 0.82737 0.13930 0.25808
 H2220 H 0.81504 0.16946 0.25814
 H2221 H 0.76058 0.14680 0.26087
 H2222 H 0.77316 0.11649 0.26159
 H2223 H 0.75705 0.17555 0.27656
 H2224 H 0.74579 0.20596 0.27250
 H2225 H 0.78940 0.21724 0.23240
 H2226 H 0.79981 0.18699 0.23569
 C2227 C 0.30085 0.60258 0.76808
 C2228 C 0.31902 0.60216 0.76187
 C2229 C 0.32780 0.58588 0.75961
 C2230 C 0.31861 0.56952 0.76328
 C2231 C 0.30052 0.56986 0.76979
 C2232 C 0.29171 0.58624 0.77213
 C2233 C 0.29153 0.62008 0.76947
 C2234 C 0.27352 0.62187 0.76312
 C2235 C 0.26575 0.63887 0.76198
 C2236 C 0.27594 0.65429 0.76698
 C2237 C 0.29351 0.65243 0.77428
 C2238 C 0.30117 0.63551 0.77568
 C2239 C 0.26916 0.67242 0.76301
 C2240 C 0.27949 0.68401 0.75136
 C2241 C 0.27404 0.70156 0.74827
 C2242 C 0.25828 0.70817 0.75709
 C2243 C 0.24761 0.69625 0.76830
 C2244 C 0.25295 0.67847 0.77112
 H2245 H 0.32640 0.61444 0.75829
 H2246 H 0.34183 0.58612 0.75489
 H2247 H 0.29307 0.55745 0.77266
 H2248 H 0.27775 0.58613 0.77707
 H2249 H 0.26577 0.61027 0.75812
 H2250 H 0.25217 0.64008 0.75624
 H2251 H 0.30150 0.66419 0.77843
 H2252 H 0.31488 0.63456 0.78112
 H2253 H 0.29197 0.67951 0.74481
 H2254 H 0.28274 0.71012 0.73958
 H2255 H 0.23531 0.70068 0.77523
 H2256 H 0.24476 0.66964 0.78011
 C2257 C 0.29683 0.39838 0.72959
 C2258 C 0.31491 0.39867 0.73585
 C2259 C 0.32435 0.41489 0.73849
 C2260 C 0.31604 0.43151 0.73502
 C2261 C 0.29774 0.43109 0.72882
 C2262 C 0.28830 0.41475 0.72615
 C2263 C 0.28695 0.38091 0.72746
 C2264 C 0.26900 0.37866 0.73415
 C2265 C 0.26082 0.36151 0.73482
 C2266 C 0.27052 0.34642 0.72892
 C2267 C 0.28796 0.34882 0.72107
 C2268 C 0.29604 0.36590 0.72022
 C2269 C 0.26363 0.32808 0.73311
 C2270 C 0.27457 0.31649 0.74356
 C2271 C 0.26839 0.29927 0.74815
 C2272 C 0.25120 0.29291 0.74209
 C2273 C 0.24016 0.30467 0.73169
 C2274 C 0.24627 0.32218 0.72739
 H2275 H 0.32169 0.38630 0.73926
 H2276 H 0.33795 0.41415 0.74417
 H2277 H 0.29071 0.44327 0.72530
 H2278 H 0.27440 0.41492 0.72114
 H2279 H 0.26168 0.38995 0.73990
 H2280 H 0.24739 0.35990 0.74104
 H2281 H 0.29558 0.33735 0.71624
 H2282 H 0.30970 0.36726 0.71453
 H2283 H 0.28785 0.32093 0.74853
 H2284 H 0.27712 0.29109 0.75678
 H2285 H 0.22677 0.30045 0.72691
 H2286 H 0.23757 0.33102 0.71943
 C2287 C 0.81042 0.90210 0.22212
 C2288 C 0.82575 0.90622 0.21076
 C2289 C 0.83436 0.92309 0.21199
 C2290 C 0.82771 0.93628 0.22443
 C2291 C 0.81192 0.93249 0.23513
 C2292 C 0.80341 0.91556 0.23405
 C2293 C 0.80262 0.88351 0.22263
 C2294 C 0.78381 0.88041 0.22488
 C2295 C 0.77680 0.86293 0.22722
 C2296 C 0.78844 0.84819 0.22733
 C2297 C 0.80713 0.85124 0.22430
 C2298 C 0.81414 0.86867 0.22206
 C2299 C 0.78139 0.82979 0.23166
 C2300 C 0.79132 0.81848 0.24357
 C2301 C 0.78484 0.80126 0.24794
 C2302 C 0.76814 0.79479 0.24066
 C2303 C 0.75814 0.80620 0.22876
 C2304 C 0.76468 0.82350 0.22433
 H2305 H 0.83129 0.89629 0.20113
 H2306 H 0.84637 0.92577 0.20338
 H2307 H 0.80663 0.94235 0.24499
 H2308 H 0.79180 0.91279 0.24321
 H2309 H 0.77453 0.89153 0.22511
 H2310 H 0.76235 0.86103 0.22961
 H2311 H 0.81643 0.84014 0.22398
 H2312 H 0.82870 0.87053 0.22059
 H2313 H 0.80405 0.82303 0.24982
 H2314 H 0.79294 0.79313 0.25731
 H2315 H 0.74526 0.80181 0.22276
 H2316 H 0.75677 0.83187 0.21498
 C2317 C 0.69052 0.89125 0.76485
 C2318 C 0.68295 0.89577 0.74716
 C2319 C 0.67293 0.91134 0.74508
 C2320 C 0.66977 0.92294 0.76076
 C2321 C 0.67745 0.91825 0.77856
 C2322 C 0.68765 0.90266 0.78054
 C2323 C 0.70123 0.87459 0.76671
 C2324 C 0.69978 0.86368 0.78308
 C2325 C 0.70886 0.84733 0.78399
 C2326 C 0.71951 0.84149 0.76850
 C2327 C 0.72130 0.85270 0.75239
 C2328 C 0.71245 0.86906 0.75159
 C2329 C 0.72787 0.82341 0.76836
 C2330 C 0.74431 0.82068 0.75860
 C2331 C 0.75057 0.80336 0.75544
 C2332 C 0.74049 0.78823 0.76179
 C2333 C 0.72552 0.79112 0.77389
 C2334 C 0.71896 0.80845 0.77670
 H2335 H 0.68467 0.88720 0.73478
 H2336 H 0.66828 0.91433 0.73082
 H2337 H 0.67520 0.92613 0.79131
 H2338 H 0.69335 0.89960 0.79439
 H2339 H 0.69119 0.86749 0.79495
 H2340 H 0.70737 0.83920 0.79674
 H2341 H 0.72909 0.84860 0.74002
 H2342 H 0.71421 0.87728 0.73893
 H2343 H 0.75215 0.83193 0.75291
 H2344 H 0.76306 0.80191 0.74743
 H2345 H 0.71846 0.77998 0.78071
 H2346 H 0.70648 0.80998 0.78472
 C2347 C 0.20410 0.39496 0.26079
 C2348 C 0.20330 0.40306 0.24268
 C2349 C 0.19329 0.41858 0.23996
 C2350 C 0.18396 0.42642 0.25532
 C2351 C 0.18527 0.41872 0.27359
 C2352 C 0.19517 0.40307 0.27628
 C2353 C 0.21326 0.37753 0.26311
 C2354 C 0.20467 0.36347 0.27327
 C2355 C 0.21232 0.34644 0.27382
 C2356 C 0.22879 0.34312 0.26430
 C2357 C 0.23772 0.35740 0.25476
 C2358 C 0.23000 0.37441 0.25412
 C2359 C 0.23594 0.32459 0.26339
 C2360 C 0.24370 0.31806 0.24642
 C2361 C 0.24884 0.30015 0.24496
 C2362 C 0.24574 0.28810 0.26017
 C2363 C 0.23938 0.29503 0.27764
 C2364 C 0.23435 0.31299 0.27917
 H2365 H 0.20990 0.39701 0.23045
 H2366 H 0.19264 0.42435 0.22578
 H2367 H 0.17812 0.42446 0.28565
 H2368 H 0.19567 0.39716 0.29041
 H2369 H 0.19163 0.36542 0.28010
 H2370 H 0.20494 0.33569 0.28104
 H2371 H 0.25059 0.35539 0.24760
 H2372 H 0.23702 0.38509 0.24640
 H2373 H 0.24526 0.32663 0.23399
 H2374 H 0.25479 0.29569 0.23165
 H2375 H 0.23821 0.28665 0.29020
 H2376 H 0.22912 0.31778 0.29271
 C2377 C 0.08704 0.24430 0.80454
 C2378 C 0.07207 0.25411 0.79824
 C2379 C 0.05610 0.25456 0.80915
 C2380 C 0.05477 0.24525 0.82661
 C2381 C 0.06977 0.23551 0.83291
 C2382 C 0.08569 0.23505 0.82202
 C2383 C 0.10423 0.24399 0.79332
 C2384 C 0.11420 0.22811 0.79206
 C2385 C 0.13133 0.22819 0.78344
 C2386 C 0.13888 0.24413 0.77581
 C2387 C 0.12852 0.25978 0.77606
 C2388 C 0.11135 0.25973 0.78476
 C2389 C 0.15815 0.24476 0.76951
 C2390 C 0.16365 0.25382 0.75278
 C2391 C 0.18210 0.25504 0.74774
 C2392 C 0.19539 0.24738 0.75946
 C2393 C 0.18969 0.23835 0.77619
 C2394 C 0.17137 0.23692 0.78103
 H2395 H 0.07264 0.26126 0.78476
 H2396 H 0.04470 0.26201 0.80379
 H2397 H 0.06933 0.22848 0.84646
 H2398 H 0.09711 0.22771 0.82751
 H2399 H 0.10890 0.21567 0.79811
 H2400 H 0.13891 0.21585 0.78316
 H2401 H 0.13408 0.27229 0.77044
 H2402 H 0.10405 0.27220 0.78560
 H2403 H 0.15370 0.26001 0.74366
 H2404 H 0.18593 0.26230 0.73490
 H2405 H 0.19940 0.23241 0.78577
 H2406 H 0.16759 0.23014 0.79420
 C2407 C 0.60380 0.75769 0.30540
 C2408 C 0.58832 0.74930 0.29738
 C2409 C 0.57179 0.74883 0.30736
 C2410 C 0.57038 0.75655 0.32571
 C2411 C 0.58577 0.76538 0.33342
 C2412 C 0.60215 0.76611 0.32333
 C2413 C 0.62187 0.75678 0.29579
 C2414 C 0.63760 0.75484 0.30685
 C2415 C 0.65458 0.75351 0.29820
 C2416 C 0.65639 0.75367 0.27817
 C2417 C 0.64073 0.75581 0.26699
 C2418 C 0.62363 0.75736 0.27572
 C2419 C 0.67466 0.75146 0.26938
 C2420 C 0.68034 0.76150 0.25331
 C2421 C 0.69840 0.76087 0.24687
 C2422 C 0.71114 0.75028 0.25644
 C2423 C 0.70508 0.73973 0.27199
 C2424 C 0.68710 0.74002 0.27806
 H2425 H 0.58908 0.74258 0.28366
 H2426 H 0.56017 0.74225 0.30072
 H2427 H 0.58539 0.77132 0.34756
 H2428 H 0.61363 0.77309 0.32979
 H2429 H 0.63684 0.75400 0.32229
 H2430 H 0.66636 0.75235 0.30732
 H2431 H 0.64164 0.75597 0.25153
 H2432 H 0.61183 0.75904 0.26675
 H2433 H 0.67109 0.77050 0.24632
 H2434 H 0.70255 0.76938 0.23503
 H2435 H 0.71435 0.73161 0.28007
 H2436 H 0.68311 0.73169 0.29011
 C2437 C 0.60289 0.25710 0.19963
 C2438 C 0.60057 0.24426 0.18501
 C2439 C 0.58484 0.24389 0.17385
 C2440 C 0.57102 0.25632 0.17707
 C2441 C 0.57321 0.26899 0.19188
 C2442 C 0.58898 0.26941 0.20300
 C2443 C 0.62011 0.25812 0.21069
 C2444 C 0.62850 0.27486 0.21460
 C2445 C 0.64554 0.27581 0.22335
 C2446 C 0.65457 0.26006 0.22844
 C2447 C 0.64583 0.24334 0.22535
 C2448 C 0.62880 0.24238 0.21652
 C2449 C 0.67371 0.26098 0.23512
 C2450 C 0.67991 0.24967 0.24971
 C2451 C 0.69841 0.24938 0.25439
 C2452 C 0.71111 0.26034 0.24454
 C2453 C 0.70469 0.27188 0.23021
 C2454 C 0.68627 0.27232 0.22573
 H2455 H 0.61113 0.23474 0.18190
 H2456 H 0.58347 0.23382 0.16272
 H2457 H 0.56287 0.27883 0.19464
 H2458 H 0.59030 0.27937 0.21425
 H2459 H 0.62223 0.28722 0.21019
 H2460 H 0.65188 0.28889 0.22570
 H2461 H 0.65250 0.23097 0.22896
 H2462 H 0.62257 0.22930 0.21393
 H2463 H 0.67051 0.24078 0.25721
 H2464 H 0.70278 0.24001 0.26518
 H2465 H 0.71394 0.28023 0.22189
 H2466 H 0.68201 0.28093 0.21417
 C2467 C 0.10023 0.75248 0.69601
 C2468 C 0.09948 0.74053 0.68041
 C2469 C 0.08433 0.73994 0.66839
 C2470 C 0.06952 0.75113 0.67183
 C2471 C 0.07014 0.76289 0.68760
 C2472 C 0.08539 0.76364 0.69949
 C2473 C 0.11675 0.75370 0.70811
 C2474 C 0.12448 0.77055 0.71286
 C2475 C 0.14101 0.77171 0.72263
 C2476 C 0.15005 0.75606 0.72805
 C2477 C 0.14190 0.73923 0.72410
 C2478 C 0.12547 0.73806 0.71414
 C2479 C 0.16874 0.75720 0.73592
 C2480 C 0.17405 0.74626 0.75121
 C2481 C 0.19228 0.74589 0.75691
 C2482 C 0.20561 0.75627 0.74726
 C2483 C 0.20004 0.76759 0.73233
 C2484 C 0.18186 0.76820 0.72690
 H2485 H 0.11080 0.73192 0.67727
 H2486 H 0.08415 0.73063 0.65645
 H2487 H 0.05895 0.77174 0.69051
 H2488 H 0.08558 0.77292 0.71145
 H2489 H 0.11811 0.78282 0.70831
 H2490 H 0.14698 0.78486 0.72555
 H2491 H 0.14866 0.72695 0.72794
 H2492 H 0.11972 0.72491 0.71083
 H2493 H 0.16416 0.73768 0.75843
 H2494 H 0.19597 0.73686 0.76830
 H2495 H 0.20982 0.77557 0.72425
 H2496 H 0.17822 0.77656 0.71490
 C2497 C 0.90169 0.74623 0.68973
 C2498 C 0.90217 0.73644 0.67255
 C2499 C 0.91761 0.73683 0.66091
 C2500 C 0.93322 0.74714 0.66597
 C2501 C 0.93252 0.75712 0.68319
 C2502 C 0.91702 0.75663 0.69488
 C2503 C 0.88503 0.74576 0.70186
 C2504 C 0.87861 0.76147 0.71066
 C2505 C 0.86183 0.76130 0.72021
 C2506 C 0.85117 0.74546 0.72102
 C2507 C 0.85805 0.72957 0.71319
 C2508 C 0.87480 0.72970 0.70380
 C2509 C 0.83212 0.74579 0.72789
 C2510 C 0.81838 0.73861 0.71617
 C2511 C 0.80027 0.73925 0.72179
 C2512 C 0.79531 0.74674 0.73953
 C2513 C 0.80911 0.75391 0.75136
 C2514 C 0.82737 0.75358 0.74550
 H2515 H 0.89038 0.72873 0.66782
 H2516 H 0.91678 0.72956 0.64752
 H2517 H 0.94414 0.76481 0.68829
 H2518 H 0.91717 0.76416 0.70815
 H2519 H 0.88610 0.77408 0.70935
 H2520 H 0.85674 0.77374 0.72602
 H2521 H 0.85016 0.71714 0.71385
 H2522 H 0.87956 0.71727 0.69765
 H2523 H 0.82164 0.73279 0.70240
 H2524 H 0.79018 0.73362 0.71215
 H2525 H 0.80583 0.75992 0.76502
 H2526 H 0.83779 0.75926 0.75474
 C2527 C 0.40418 0.24487 0.20363
 C2528 C 0.41705 0.23115 0.20274
 C2529 C 0.43231 0.23286 0.19087
 C2530 C 0.43515 0.24836 0.17971
 C2531 C 0.42255 0.26225 0.18092
 C2532 C 0.40721 0.26051 0.19268
 C2533 C 0.38722 0.24254 0.21514
 C2534 C 0.37948 0.25723 0.22464
 C2535 C 0.36262 0.25540 0.23380
 C2536 C 0.35311 0.23882 0.23372
 C2537 C 0.36128 0.22392 0.22506
 C2538 C 0.37809 0.22577 0.21584
 C2539 C 0.33406 0.23754 0.24086
 C2540 C 0.32094 0.22785 0.23030
 C2541 C 0.30261 0.22848 0.23524
 C2542 C 0.29679 0.23873 0.25099
 C2543 C 0.31002 0.24766 0.26219
 C2544 C 0.32845 0.24710 0.25716
 H2545 H 0.41532 0.21907 0.21122
 H2546 H 0.44197 0.22206 0.19048
 H2547 H 0.42428 0.27427 0.17232
 H2548 H 0.39744 0.27120 0.19273
 H2549 H 0.38629 0.27027 0.22467
 H2550 H 0.35666 0.26719 0.24018
 H2551 H 0.35443 0.21091 0.22496
 H2552 H 0.38355 0.21419 0.20858
 H2553 H 0.32469 0.22055 0.21752
 H2554 H 0.29295 0.22143 0.22615
 H2555 H 0.30613 0.25575 0.27435
 H2556 H 0.33826 0.25453 0.26573
 C2557 C 0.40351 0.74680 0.29743
 C2558 C 0.41692 0.76043 0.29589
 C2559 C 0.43234 0.76025 0.30750
 C2560 C 0.43465 0.74647 0.32097
 C2561 C 0.42142 0.73264 0.32222
 C2562 C 0.40604 0.73278 0.31055
 C2563 C 0.38637 0.74777 0.28637
 C2564 C 0.37827 0.73220 0.27843
 C2565 C 0.36114 0.73289 0.26987
 C2566 C 0.35175 0.74913 0.26924
 C2567 C 0.36022 0.76484 0.27638
 C2568 C 0.37736 0.76418 0.28481
 C2569 C 0.33251 0.74938 0.26311
 C2570 C 0.31974 0.75806 0.27461
 C2571 C 0.30135 0.75725 0.27007
 C2572 C 0.29517 0.74806 0.25362
 C2573 C 0.30803 0.73959 0.24190
 C2574 C 0.32652 0.74018 0.24665
 H2575 H 0.41540 0.77134 0.28582
 H2576 H 0.44223 0.77117 0.30630
 H2577 H 0.42293 0.72174 0.33230
 H2578 H 0.39585 0.72220 0.31223
 H2579 H 0.38501 0.71942 0.27922
 H2580 H 0.35487 0.72057 0.26459
 H2581 H 0.35332 0.77756 0.27594
 H2582 H 0.38317 0.77638 0.29091
 H2583 H 0.32390 0.76496 0.28758
 H2584 H 0.29196 0.76375 0.27969
 H2585 H 0.30383 0.73209 0.22935
 H2586 H 0.33613 0.73332 0.23758
 C2587 C 0.88751 0.24995 0.79848
 C2588 C 0.90237 0.23937 0.79335
 C2589 C 0.91795 0.23922 0.80481
 C2590 C 0.91890 0.24962 0.82162
 C2591 C 0.90427 0.26060 0.82638
 C2592 C 0.88881 0.26082 0.81492
 C2593 C 0.87034 0.24924 0.78735
 C2594 C 0.85362 0.24925 0.79707
 C2595 C 0.83736 0.24948 0.78699
 C2596 C 0.83733 0.24963 0.76690
 C2597 C 0.85396 0.24890 0.75704
 C2598 C 0.87037 0.24876 0.76720
 C2599 C 0.81978 0.25093 0.75673
 C2600 C 0.81493 0.23900 0.74192
 C2601 C 0.79706 0.23841 0.73493
 C2602 C 0.78381 0.24991 0.74249
 C2603 C 0.78922 0.26245 0.75660
 C2604 C 0.80693 0.26311 0.76339
 H2605 H 0.90173 0.23077 0.78084
 H2606 H 0.92900 0.23056 0.80085
 H2607 H 0.90479 0.26905 0.83901
 H2608 H 0.87778 0.26947 0.81901
 H2609 H 0.85309 0.24907 0.81255
 H2610 H 0.82471 0.24954 0.79495
 H2611 H 0.85426 0.24896 0.74155
 H2612 H 0.88306 0.24875 0.75933
 H2613 H 0.82460 0.22938 0.73663
 H2614 H 0.79341 0.22821 0.72449
 H2615 H 0.77954 0.27112 0.76346
 H2616 H 0.81036 0.27258 0.77467
 C2617 C 0.56552 0.97058 0.64089
 C2618 C 0.58425 0.97420 0.64238
 C2619 C 0.59226 0.97687 0.66019
 C2620 C 0.58175 0.97606 0.67698
 C2621 C 0.56316 0.97148 0.67562
 C2622 C 0.55509 0.96874 0.65767
 C2623 C 0.55692 0.97036 0.62178
 C2624 C 0.54454 0.95671 0.61623
 C2625 C 0.53707 0.95668 0.59777
 C2626 C 0.54182 0.97037 0.58470
 C2627 C 0.55378 0.98424 0.59064
 C2628 C 0.56130 0.98417 0.60885
 C2629 C 0.53414 0.97090 0.56506
 C2630 C 0.54490 0.97758 0.54997
 C2631 C 0.53709 0.98219 0.53263
 C2632 C 0.51838 0.97943 0.52940
 C2633 C 0.50790 0.97108 0.54391
 C2634 C 0.51569 0.96693 0.56161
 H2635 H 0.59264 0.97535 0.62966
 H2636 H 0.60672 0.97984 0.66082
 H2637 H 0.55474 0.97074 0.68834
 H2638 H 0.54061 0.96602 0.65686
 H2639 H 0.54094 0.94594 0.62602
 H2640 H 0.52784 0.94586 0.59365
 H2641 H 0.55721 0.99538 0.58127
 H2642 H 0.57044 0.99510 0.61294
 H2643 H 0.55926 0.98038 0.55197
 H2644 H 0.54566 0.98921 0.52242
 H2645 H 0.49340 0.96901 0.54223
 H2646 H 0.50700 0.96182 0.57296
 C2647 C 0.07005 0.47395 1.13456
 C2648 C 0.06238 0.46886 1.15211
 C2649 C 0.07236 0.47077 1.16905
 C2650 C 0.09051 0.47769 1.16895
 C2651 C 0.09812 0.48210 1.15084
 C2652 C 0.08806 0.48030 1.13409
 C2653 C 0.05920 0.47381 1.11677
 C2654 C 0.05969 0.48903 1.10499
 C2655 C 0.05062 0.48894 1.08758
 C2656 C 0.04094 0.47355 1.08135
 C2657 C 0.03975 0.45850 1.09346
 C2658 C 0.04883 0.45864 1.11111
 C2659 C 0.03248 0.47363 1.06211
 C2660 C 0.01458 0.46738 1.05907
 C2661 C 0.00580 0.47082 1.04168
 C2662 C 0.01478 0.48066 1.02714
 C2663 C 0.03313 0.48569 1.02994
 C2664 C 0.04191 0.48191 1.04696
 H2665 H 0.04850 0.46379 1.15280
 H2666 H 0.06575 0.46616 1.18201
 H2667 H 0.11148 0.48818 1.14925
 H2668 H 0.09431 0.48428 1.12065
 H2669 H 0.06720 0.50105 1.10925
 H2670 H 0.05127 0.50098 1.07890
 H2671 H 0.03230 0.44651 1.08905
 H2672 H 0.04822 0.44676 1.12003
 H2673 H 0.00699 0.46091 1.07053
 H2674 H -0.00835 0.46686 1.04021
 H2675 H 0.04058 0.49365 1.01951
 H2676 H 0.05587 0.48648 1.04868
 C2677 C -0.06005 0.03731 1.14121
 C2678 C -0.07483 0.04774 1.14677
 C2679 C -0.08433 0.04393 1.16368
 C2680 C -0.07947 0.02935 1.17546
 C2681 C -0.06399 0.01954 1.17015
 C2682 C -0.05445 0.02349 1.15332
 C2683 C -0.05167 0.03947 1.12200
 C2684 C -0.03281 0.03795 1.11942
 C2685 C -0.02540 0.03675 1.10102
 C2686 C -0.03675 0.03688 1.08492
 C2687 C -0.05542 0.03966 1.08746
 C2688 C -0.06280 0.04100 1.10581
 C2689 C -0.02970 0.03133 1.06600
 C2690 C -0.03874 0.01747 1.05606
 C2691 C -0.03126 0.01028 1.03949
 C2692 C -0.01473 0.01703 1.03205
 C2693 C -0.00593 0.03137 1.04171
 C2694 C -0.01328 0.03837 1.05862
 H2695 H -0.07939 0.05854 1.13771
 H2696 H -0.09623 0.05178 1.16661
 H2697 H -0.05895 0.00882 1.17898
 H2698 H -0.04309 0.01518 1.14941
 H2699 H -0.02390 0.03694 1.13166
 H2700 H -0.01098 0.03450 1.09943
 H2701 H -0.06443 0.03987 1.07524
 H2702 H -0.07739 0.04204 1.10733
 H2703 H -0.05118 0.01148 1.06168
 H2704 H -0.03818 -0.00112 1.03312
 H2705 H 0.00688 0.03689 1.03652
 H2706 H -0.00603 0.04904 1.06611
 C2707 C 0.42721 0.52019 0.64478
 C2708 C 0.42912 0.53143 0.66089
 C2709 C 0.41954 0.52759 0.67775
 C2710 C 0.40769 0.51261 0.67873
 C2711 C 0.40583 0.50131 0.66275
 C2712 C 0.41560 0.50496 0.64603
 C2713 C 0.43727 0.52413 0.62674
 C2714 C 0.42927 0.52013 0.60897
 C2715 C 0.43913 0.52227 0.59205
 C2716 C 0.45718 0.52884 0.59234
 C2717 C 0.46490 0.53372 0.61003
 C2718 C 0.45510 0.53129 0.62705
 C2719 C 0.46820 0.52896 0.57442
 C2720 C 0.48664 0.52446 0.57476
 C2721 C 0.49605 0.52128 0.55775
 C2722 C 0.48720 0.52201 0.53989
 C2723 C 0.46921 0.52800 0.53966
 C2724 C 0.45994 0.53166 0.55661
 H2725 H 0.43776 0.54337 0.66038
 H2726 H 0.42103 0.53657 0.68988
 H2727 H 0.39694 0.48954 0.66329
 H2728 H 0.41416 0.49571 0.63413
 H2729 H 0.41542 0.51503 0.60812
 H2730 H 0.43274 0.51807 0.57882
 H2731 H 0.47865 0.53910 0.61082
 H2732 H 0.46173 0.53447 0.64047
 H2733 H 0.49357 0.52222 0.58814
 H2734 H 0.51000 0.51703 0.55880
 H2735 H 0.46183 0.52947 0.52661
 H2736 H 0.44598 0.53588 0.55572
 C2737 C 0.42241 0.48501 -0.13971
 C2738 C 0.41845 0.50224 -0.14665
 C2739 C 0.40955 0.50437 -0.16405
 C2740 C 0.40475 0.48936 -0.17534
 C2741 C 0.40941 0.47216 -0.16881
 C2742 C 0.41801 0.47000 -0.15115
 C2743 C 0.43040 0.48288 -0.12030
 C2744 C 0.44275 0.46919 -0.11623
 C2745 C 0.45025 0.46760 -0.09789
 C2746 C 0.44566 0.47976 -0.08329
 C2747 C 0.43329 0.49338 -0.08749
 C2748 C 0.42560 0.49474 -0.10556
 C2749 C 0.45415 0.47912 -0.06396
 C2750 C 0.44447 0.48519 -0.04795
 C2751 C 0.45332 0.48883 -0.03081
 C2752 C 0.47193 0.48537 -0.02858
 C2753 C 0.48120 0.47742 -0.04399
 C2754 C 0.47247 0.47451 -0.06157
 H2755 H 0.42206 0.51418 -0.13853
 H2756 H 0.40604 0.51782 -0.16834
 H2757 H 0.40634 0.46029 -0.17726
 H2758 H 0.42076 0.45652 -0.14628
 H2759 H 0.44688 0.45988 -0.12726
 H2760 H 0.45964 0.45689 -0.09520
 H2761 H 0.42974 0.50338 -0.07692
 H2762 H 0.41583 0.50519 -0.10792
 H2763 H 0.43019 0.48826 -0.04895
 H2764 H 0.44566 0.49557 -0.01982
 H2765 H 0.49557 0.47474 -0.04303
 H2766 H 0.48043 0.46983 -0.07356
 C2767 C -0.06992 0.98151 0.34965
 C2768 C -0.08200 0.96860 0.34192
 C2769 C -0.09056 0.97171 0.32442
 C2770 C -0.08708 0.98774 0.31427
 C2771 C -0.07446 1.00030 0.32169
 C2772 C -0.06600 0.99723 0.33918
 C2773 C -0.06244 0.97936 0.36916
 C2774 C -0.06267 0.99394 0.38190
 C2775 C -0.05592 0.99224 0.40037
 C2776 C -0.04875 0.97591 0.40661
 C2777 C -0.04835 0.96128 0.39388
 C2778 C -0.05531 0.96295 0.37532
 C2779 C -0.04135 0.97476 0.42626
 C2780 C -0.02398 0.96797 0.42964
 C2781 C -0.01553 0.97069 0.44739
 C2782 C -0.02433 0.98023 0.46206
 C2783 C -0.04232 0.98564 0.45895
 C2784 C -0.05075 0.98275 0.44141
 H2785 H -0.08532 0.95641 0.34975
 H2786 H -0.10005 0.96168 0.31893
 H2787 H -0.07159 1.01282 0.31430
 H2788 H -0.05659 1.00732 0.34471
 H2789 H -0.06829 1.00667 0.37765
 H2790 H -0.05611 1.00385 0.40974
 H2791 H -0.04284 0.94857 0.39835
 H2792 H -0.05493 0.95152 0.36571
 H2793 H -0.01641 0.96179 0.41815
 H2794 H -0.00162 0.96654 0.44902
 H2795 H -0.04957 0.99336 0.46954
 H2796 H -0.06428 0.98786 0.43929
 C2797 C 0.07586 0.50890 0.35199
 C2798 C 0.08039 0.52361 0.34020
 C2799 C 0.08812 0.52095 0.32213
 C2800 C 0.09185 0.50350 0.31550
 C2801 C 0.08685 0.48879 0.32710
 C2802 C 0.07878 0.49144 0.34496
 C2803 C 0.06879 0.51162 0.37178
 C2804 C 0.07351 0.49969 0.38642
 C2805 C 0.06676 0.50180 0.40490
 C2806 C 0.05546 0.51622 0.40956
 C2807 C 0.05098 0.52841 0.39503
 C2808 C 0.05748 0.52608 0.37634
 C2809 C 0.04781 0.51773 0.42929
 C2810 C 0.03002 0.52372 0.43243
 C2811 C 0.02183 0.52197 0.45047
 C2812 C 0.03109 0.51385 0.46568
 C2813 C 0.04926 0.50899 0.46272
 C2814 C 0.05762 0.51136 0.44499
 H2815 H 0.07845 0.53726 0.34509
 H2816 H 0.09134 0.53263 0.31347
 H2817 H 0.08961 0.47516 0.32270
 H2818 H 0.07502 0.47972 0.35334
 H2819 H 0.08250 0.48864 0.38367
 H2820 H 0.07019 0.49180 0.41544
 H2821 H 0.04243 0.53975 0.39806
 H2822 H 0.05341 0.53547 0.36543
 H2823 H 0.02195 0.52865 0.42072
 H2824 H 0.00777 0.52574 0.45201
 H2825 H 0.05685 0.50225 0.47371
 H2826 H 0.07156 0.50721 0.44339
 C2827 C 0.56555 0.02486 -0.14243
 C2828 C 0.57989 0.03512 -0.15042
 C2829 C 0.58820 0.02971 -0.16743
 C2830 C 0.58230 0.01395 -0.17687
 C2831 C 0.56751 0.00407 -0.16931
 C2832 C 0.55926 0.00943 -0.15224
 C2833 C 0.55811 0.02936 -0.12325
 C2834 C 0.53955 0.02671 -0.11910
 C2835 C 0.53309 0.02849 -0.10037
 C2836 C 0.54507 0.03297 -0.08540
 C2837 C 0.56339 0.03677 -0.08977
 C2838 C 0.56985 0.03496 -0.10846
 C2839 C 0.53902 0.03125 -0.06519
 C2840 C 0.54994 0.02216 -0.05211
 C2841 C 0.54330 0.01758 -0.03406
 C2842 C 0.52560 0.02217 -0.02840
 C2843 C 0.51506 0.03224 -0.04111
 C2844 C 0.52169 0.03669 -0.05934
 H2845 H 0.58485 0.04723 -0.14340
 H2846 H 0.59934 0.03779 -0.17315
 H2847 H 0.56278 -0.00820 -0.17620
 H2848 H 0.54844 0.00105 -0.14633
 H2849 H 0.53011 0.02268 -0.13023
 H2850 H 0.51893 0.02534 -0.09745
 H2851 H 0.57289 0.04044 -0.07856
 H2852 H 0.58424 0.03700 -0.11111
 H2853 H 0.56323 0.01749 -0.05624
 H2854 H 0.55180 0.00956 -0.02495
 H2855 H 0.50131 0.03585 -0.03747
 H2856 H 0.51301 0.04382 -0.06910
 C2857 C 0.64155 0.56203 -0.01682
 C2858 C 0.64309 0.57851 -0.00709
 C2859 C 0.65997 0.58701 -0.00478
 C2860 C 0.67577 0.57932 -0.01225
 C2861 C 0.67432 0.56263 -0.02171
 C2862 C 0.65734 0.55403 -0.02392
 C2863 C 0.62340 0.55335 -0.01916
 C2864 C 0.62058 0.53499 -0.01514
 C2865 C 0.60294 0.52758 -0.01472
 C2866 C 0.58791 0.53843 -0.01831
 C2867 C 0.59090 0.55645 -0.02358
 C2868 C 0.60844 0.56383 -0.02400
 C2869 C 0.56916 0.53169 -0.01464
 C2870 C 0.55730 0.54229 -0.00394
 C2871 C 0.53984 0.53609 0.00039
 C2872 C 0.53354 0.51913 -0.00601
 C2873 C 0.54546 0.50850 -0.01681
 C2874 C 0.56314 0.51468 -0.02099
 H2875 H 0.63121 0.58476 -0.00103
 H2876 H 0.66065 0.59959 0.00303
 H2877 H 0.68623 0.55642 -0.02773
 H2878 H 0.65650 0.54133 -0.03149
 H2879 H 0.63188 0.52664 -0.01132
 H2880 H 0.60098 0.51366 -0.01053
 H2881 H 0.57956 0.56501 -0.02676
 H2882 H 0.61028 0.57791 -0.02757
 H2883 H 0.56172 0.55528 0.00156
 H2884 H 0.53147 0.54458 0.00918
 H2885 H 0.54126 0.49532 -0.02191
 H2886 H 0.57208 0.50623 -0.02924
 C2887 C 0.14724 1.05198 0.47590
 C2888 C 0.16332 1.04250 0.47899
 C2889 C 0.17969 1.05171 0.48271
 C2890 C 0.18037 1.07059 0.48312
 C2891 C 0.16447 1.08008 0.47949
 C2892 C 0.14809 1.07091 0.47606
 C2893 C 0.12941 1.04238 0.47376
 C2894 C 0.11567 1.04965 0.46232
 C2895 C 0.09809 1.04226 0.46264
 C2896 C 0.09402 1.02720 0.47398
 C2897 C 0.10788 1.01913 0.48439
 C2898 C 0.12542 1.02671 0.48438
 C2899 C 0.07496 1.02160 0.47711
 C2900 C 0.06846 1.00452 0.47168
 C2901 C 0.05038 0.99939 0.47545
 C2902 C 0.03864 1.01114 0.48510
 C2903 C 0.04556 1.02811 0.49078
 C2904 C 0.06337 1.03336 0.48658
 H2905 H 0.16326 1.02795 0.47869
 H2906 H 0.19183 1.04411 0.48530
 H2907 H 0.16457 1.09464 0.48003
 H2908 H 0.13597 1.07871 0.47423
 H2909 H 0.11834 1.06140 0.45357
 H2910 H 0.08750 1.04864 0.45452
 H2911 H 0.10487 1.00764 0.49344
 H2912 H 0.13554 1.02086 0.49355
 H2913 H 0.07735 0.99521 0.46451
 H2914 H 0.04575 0.98611 0.47107
 H2915 H 0.03743 1.03733 0.49895
 H2916 H 0.06831 1.04647 0.49124
 C2917 C 0.15194 -0.05850 1.01976
 C2918 C 0.15525 -0.07417 1.03026
 C2919 C 0.17189 -0.08275 1.02882
 C2920 C 0.18596 -0.07582 1.01700
 C2921 C 0.18292 -0.05944 1.00743
 C2922 C 0.16612 -0.05104 1.00866
 C2923 C 0.13343 -0.05076 1.01941
 C2924 C 0.13095 -0.03209 1.01798
 C2925 C 0.11350 -0.02513 1.01616
 C2926 C 0.09816 -0.03669 1.01577
 C2927 C 0.10062 -0.05526 1.01791
 C2928 C 0.11800 -0.06220 1.01957
 C2929 C 0.07970 -0.02968 1.01219
 C2930 C 0.06762 -0.03935 1.00037
 C2931 C 0.05020 -0.03317 0.99700
 C2932 C 0.04427 -0.01699 1.00516
 C2933 C 0.05645 -0.00718 1.01689
 C2934 C 0.07396 -0.01345 1.02036
 H2935 H 0.14488 -0.07995 1.03953
 H2936 H 0.17372 -0.09468 1.03737
 H2937 H 0.19297 -0.05362 0.99784
 H2938 H 0.16399 -0.03911 1.00016
 H2939 H 0.14251 -0.02286 1.01808
 H2940 H 0.11207 -0.01076 1.01446
 H2941 H 0.08908 -0.06451 1.01804
 H2942 H 0.11932 -0.07665 1.02038
 H2943 H 0.07167 -0.05171 0.99351
 H2944 H 0.04140 -0.04129 0.98799
 H2945 H 0.05248 0.00530 1.02352
 H2946 H 0.08291 -0.00574 1.02966
 C2947 C 0.65253 0.44409 0.52191
 C2948 C 0.65283 0.42598 0.51629
 C2949 C 0.66923 0.41728 0.51349
 C2950 C 0.68606 0.42641 0.51604
 C2951 C 0.68566 0.44470 0.52158
 C2952 C 0.66914 0.45336 0.52454
 C2953 C 0.63484 0.45321 0.52427
 C2954 C 0.63260 0.47101 0.51801
 C2955 C 0.61538 0.47870 0.51811
 C2956 C 0.60012 0.46867 0.52428
 C2957 C 0.60248 0.45128 0.53144
 C2958 C 0.61965 0.44369 0.53159
 C2959 C 0.58159 0.47545 0.52141
 C2960 C 0.56896 0.46491 0.51124
 C2961 C 0.55166 0.47125 0.50755
 C2962 C 0.54627 0.48818 0.51434
 C2963 C 0.55902 0.49872 0.52466
 C2964 C 0.57657 0.49248 0.52800
 H2965 H 0.64032 0.41856 0.51346
 H2966 H 0.66845 0.40357 0.50833
 H2967 H 0.69802 0.45233 0.52437
 H2968 H 0.66940 0.46727 0.52912
 H2969 H 0.64395 0.47868 0.51215
 H2970 H 0.61383 0.49210 0.51239
 H2971 H 0.59089 0.44338 0.53646
 H2972 H 0.62096 0.43015 0.53702
 H2973 H 0.57267 0.45189 0.50562
 H2974 H 0.54274 0.46294 0.49888
 H2975 H 0.55558 0.51191 0.52995
 H2976 H 0.58619 0.50088 0.53580
 C2977 C -0.14117 0.44577 0.47328
 C2978 C -0.15475 0.45434 0.48393
 C2979 C -0.17212 0.44658 0.48566
 C2980 C -0.17632 0.42994 0.47698
 C2981 C -0.16299 0.42179 0.46561
 C2982 C -0.14569 0.42967 0.46368
 C2983 C -0.12208 0.45277 0.47350
 C2984 C -0.10759 0.44076 0.47436
 C2985 C -0.08975 0.44711 0.47642
 C2986 C -0.08589 0.46564 0.47793
 C2987 C -0.10025 0.47772 0.47636
 C2988 C -0.11815 0.47136 0.47412
 C2989 C -0.06712 0.47211 0.48226
 C2990 C -0.05984 0.48789 0.47397
 C2991 C -0.04217 0.49385 0.47840
 C2992 C -0.03137 0.48417 0.49123
 C2993 C -0.03880 0.46839 0.49943
 C2994 C -0.05639 0.46252 0.49511
 H2995 H -0.15176 0.46668 0.49164
 H2996 H -0.18215 0.45345 0.49419
 H2997 H -0.16561 0.40892 0.45882
 H2998 H -0.13571 0.42287 0.45503
 H2999 H -0.11005 0.42637 0.47418
 H3000 H -0.07897 0.43744 0.47720
 H3001 H -0.09776 0.49207 0.47754
 H3002 H -0.12894 0.48100 0.47320
 H3003 H -0.06771 0.49552 0.46389
 H3004 H -0.03701 0.50601 0.47166
 H3005 H -0.03111 0.46042 0.50932
 H3006 H -0.06166 0.45053 0.50210
 C3007 C 0.35870 -0.05533 -0.01035
 C3008 C 0.34405 -0.04784 -0.00042
 C3009 C 0.32714 -0.05669 0.00009
 C3010 C 0.32453 -0.07336 -0.00915
 C3011 C 0.33908 -0.08058 -0.01957
 C3012 C 0.35596 -0.07161 -0.02023
 C3013 C 0.37700 -0.04668 -0.00949
 C3014 C 0.38783 -0.04481 -0.02599
 C3015 C 0.40526 -0.03699 -0.02488
 C3016 C 0.41230 -0.03107 -0.00721
 C3017 C 0.40140 -0.03304 0.00926
 C3018 C 0.38395 -0.04063 0.00811
 C3019 C 0.43106 -0.02331 -0.00567
 C3020 C 0.43497 -0.00959 0.00763
 C3021 C 0.45280 -0.00351 0.01055
 C3022 C 0.46731 -0.01110 0.00035
 C3023 C 0.46319 -0.02369 -0.01413
 C3024 C 0.44535 -0.02998 -0.01686
 H3025 H 0.34574 -0.03516 0.00707
 H3026 H 0.31615 -0.05053 0.00787
 H3027 H 0.33765 -0.09348 -0.02664
 H3028 H 0.36708 -0.07777 -0.02783
 H3029 H 0.38273 -0.04926 -0.03976
 H3030 H 0.41315 -0.03548 -0.03789
 H3031 H 0.40649 -0.02909 0.02319
 H3032 H 0.37603 -0.04222 0.02111
 H3033 H 0.42424 -0.00364 0.01601
 H3034 H 0.45520 0.00672 0.02132
 H3035 H 0.47386 -0.02926 -0.02290
 H3036 H 0.44289 -0.04049 -0.02731
 C3037 C 0.34986 1.05182 0.51581
 C3038 C 0.34439 1.06156 0.53201
 C3039 C 0.32768 1.07018 0.53225
 C3040 C 0.31608 1.06919 0.51632
 C3041 C 0.32129 1.05888 0.50042
 C3042 C 0.33797 1.05029 0.50018
 C3043 C 0.36837 1.04438 0.51459
 C3044 C 0.37854 1.04646 0.49768
 C3045 C 0.39630 1.04038 0.49659
 C3046 C 0.40434 1.03208 0.51238
 C3047 C 0.39410 1.02961 0.52920
 C3048 C 0.37628 1.03580 0.53033
 C3049 C 0.42351 1.02648 0.51120
 C3050 C 0.42884 1.00955 0.51774
 C3051 C 0.44672 1.00393 0.51505
 C3052 C 0.45964 1.01517 0.50584
 C3053 C 0.45429 1.03239 0.50005
 C3054 C 0.43652 1.03794 0.50269
 H3055 H 0.35332 1.06307 0.54421
 H3056 H 0.32393 1.07785 0.54479
 H3057 H 0.31278 1.05798 0.48784
 H3058 H 0.34173 1.04269 0.48759
 H3059 H 0.37293 1.05322 0.48540
 H3060 H 0.40380 1.04224 0.48336
 H3061 H 0.40001 1.02328 0.54159
 H3062 H 0.36869 1.03392 0.54350
 H3063 H 0.41903 1.00043 0.52433
 H3064 H 0.45021 0.99060 0.51978
 H3065 H 0.46358 1.04150 0.49279
 H3066 H 0.43286 1.05119 0.49778
 C3067 C -0.15151 0.55754 1.02030
 C3068 C -0.16833 0.54863 1.02317
 C3069 C -0.18462 0.55758 1.02004
 C3070 C -0.18437 0.57556 1.01384
 C3071 C -0.16756 0.58449 1.01128
 C3072 C -0.15136 0.57560 1.01441
 C3073 C -0.13407 0.54805 1.02240
 C3074 C -0.11876 0.55718 1.02991
 C3075 C -0.10164 0.54953 1.02893
 C3076 C -0.09949 0.53250 1.02066
 C3077 C -0.11490 0.52276 1.01447
 C3078 C -0.13207 0.53050 1.01528
 C3079 C -0.08105 0.52603 1.01641
 C3080 C -0.07585 0.50854 1.02107
 C3081 C -0.05848 0.50260 1.01622
 C3082 C -0.04611 0.51394 1.00632
 C3083 C -0.05167 0.53136 1.00149
 C3084 C -0.06878 0.53736 1.00664
 H3085 H -0.16887 0.53474 1.02779
 H3086 H -0.19739 0.55034 1.02206
 H3087 H -0.16690 0.59842 1.00682
 H3088 H -0.13867 0.58279 1.01174
 H3089 H -0.11993 0.57053 1.03592
 H3090 H -0.08994 0.55718 1.03401
 H3091 H -0.11351 0.50964 1.00793
 H3092 H -0.14357 0.52317 1.00928
 H3093 H -0.08520 0.49953 1.02849
 H3094 H -0.05490 0.48903 1.02003
 H3095 H -0.04313 0.54030 0.99309
 H3096 H -0.07267 0.55075 1.00242
 C3097 C 0.01139 0.64775 0.54723
 C3098 C 0.02389 0.66197 0.54406
 C3099 C 0.02287 0.67787 0.55474
 C3100 C 0.00952 0.67973 0.56899
 C3101 C -0.00301 0.66554 0.57208
 C3102 C -0.00216 0.64977 0.56123
 C3103 C 0.01291 0.63052 0.53666
 C3104 C -0.00263 0.62174 0.52924
 C3105 C -0.00141 0.60466 0.52096
 C3106 C 0.01533 0.59594 0.52020
 C3107 C 0.03097 0.60499 0.52697
 C3108 C 0.02980 0.62216 0.53500
 C3109 C 0.01612 0.57679 0.51439
 C3110 C 0.02462 0.56450 0.52642
 C3111 C 0.02388 0.54616 0.52237
 C3112 C 0.01501 0.53956 0.50588
 C3113 C 0.00701 0.55198 0.49346
 C3114 C 0.00742 0.57041 0.49777
 H3115 H 0.03444 0.66078 0.53332
 H3116 H 0.03275 0.68857 0.55213
 H3117 H -0.01354 0.66668 0.58286
 H3118 H -0.01184 0.63895 0.56412
 H3119 H -0.01578 0.62796 0.53020
 H3120 H -0.01369 0.59791 0.51600
 H3121 H 0.04404 0.59855 0.52651
 H3122 H 0.04197 0.62857 0.54070
 H3123 H 0.03119 0.56901 0.53946
 H3124 H 0.03004 0.53713 0.53247
 H3125 H -0.00005 0.54746 0.48072
 H3126 H 0.00075 0.57966 0.48827
 C3127 C 0.51016 0.15384 0.05530
 C3128 C 0.49740 0.16698 0.05069
 C3129 C 0.49646 0.18291 0.06133
 C3130 C 0.50825 0.18610 0.07683
 C3131 C 0.52119 0.17309 0.08120
 C3132 C 0.52209 0.15717 0.07064
 C3133 C 0.51069 0.13644 0.04473
 C3134 C 0.52733 0.12799 0.04134
 C3135 C 0.52774 0.11076 0.03340
 C3136 C 0.51155 0.10162 0.02845
 C3137 C 0.49497 0.11038 0.03081
 C3138 C 0.49453 0.12759 0.03894
 C3139 C 0.51190 0.08242 0.02267
 C3140 C 0.50153 0.07582 0.00725
 C3141 C 0.50132 0.05743 0.00275
 C3142 C 0.51130 0.04526 0.01374
 C3143 C 0.52156 0.05204 0.02923
 C3144 C 0.52204 0.07035 0.03346
 H3145 H 0.48813 0.16495 0.03886
 H3146 H 0.48621 0.19255 0.05766
 H3147 H 0.53067 0.17520 0.09283
 H3148 H 0.53190 0.14728 0.07481
 H3149 H 0.54006 0.13458 0.04516
 H3150 H 0.54073 0.10438 0.03148
 H3151 H 0.48228 0.10355 0.02729
 H3152 H 0.48146 0.13359 0.04149
 H3153 H 0.49354 0.08488 -0.00125
 H3154 H 0.49297 0.05275 -0.00903
 H3155 H 0.52919 0.04320 0.03833
 H3156 H 0.52988 0.07500 0.04565
 C3157 C -0.01483 0.14435 0.94330
 C3158 C -0.02085 0.14494 0.92425
 C3159 C -0.02191 0.16127 0.91458
 C3160 C -0.01721 0.17753 0.92376
 C3161 C -0.01178 0.17703 0.94304
 C3162 C -0.01058 0.16062 0.95270
 C3163 C -0.01210 0.12674 0.95283
 C3164 C -0.01632 0.12411 0.97230
 C3165 C -0.01345 0.10744 0.98102
 C3166 C -0.00622 0.09313 0.97045
 C3167 C -0.00218 0.09581 0.95098
 C3168 C -0.00497 0.11238 0.94234
 C3169 C -0.00291 0.07533 0.97929
 C3170 C 0.01241 0.06563 0.97382
 C3171 C 0.01437 0.04786 0.97950
 C3172 C 0.00116 0.03921 0.99105
 C3173 C -0.01334 0.04949 0.99800
 C3174 C -0.01546 0.06731 0.99202
 H3175 H -0.02454 0.13270 0.91668
 H3176 H -0.02594 0.16105 0.89970
 H3177 H -0.00832 0.18931 0.95064
 H3178 H -0.00580 0.16064 0.96733
 H3179 H -0.02197 0.13488 0.98074
 H3180 H -0.01667 0.10580 0.99605
 H3181 H 0.00306 0.08500 0.94230
 H3182 H -0.00128 0.11398 0.92743
 H3183 H 0.02269 0.07162 0.96458
 H3184 H 0.02605 0.04081 0.97413
 H3185 H -0.02373 0.04349 1.00705
 H3186 H -0.02740 0.07445 0.99657
 C3187 C 0.50125 0.65180 0.45196
 C3188 C 0.51757 0.65883 0.44425
 C3189 C 0.51764 0.67422 0.43282
 C3190 C 0.50135 0.68290 0.42851
 C3191 C 0.48504 0.67603 0.43643
 C3192 C 0.48501 0.66075 0.44809
 C3193 C 0.50115 0.63480 0.46327
 C3194 C 0.48667 0.62224 0.46163
 C3195 C 0.48725 0.60567 0.47099
 C3196 C 0.50241 0.60117 0.48199
 C3197 C 0.51663 0.61384 0.48415
 C3198 C 0.51594 0.63054 0.47504
 C3199 C 0.50402 0.58273 0.48969
 C3200 C 0.51975 0.57295 0.48608
 C3201 C 0.52049 0.55479 0.49093
 C3202 C 0.50555 0.54588 0.49970
 C3203 C 0.49038 0.55618 0.50456
 C3204 C 0.48947 0.57428 0.49934
 H3205 H 0.53033 0.65221 0.44664
 H3206 H 0.53051 0.67927 0.42732
 H3207 H 0.47220 0.68220 0.43332
 H3208 H 0.47221 0.65593 0.45399
 H3209 H 0.47519 0.62487 0.45248
 H3210 H 0.47622 0.59602 0.46888
 H3211 H 0.52840 0.61072 0.49271
 H3212 H 0.52713 0.64000 0.47704
 H3213 H 0.53117 0.57914 0.47862
 H3214 H 0.53268 0.54772 0.48713
 H3215 H 0.47871 0.55016 0.51144
 H3216 H 0.47723 0.58160 0.50246
 C3217 C 0.50069 0.84998 0.44567
 C3218 C 0.48401 0.84287 0.43908
 C3219 C 0.48324 0.82648 0.42923
 C3220 C 0.49915 0.81683 0.42566
 C3221 C 0.51576 0.82374 0.43270
 C3222 C 0.51650 0.84005 0.44264
 C3223 C 0.50176 0.86813 0.45468
 C3224 C 0.51635 0.87993 0.45036
 C3225 C 0.51685 0.89742 0.45763
 C3226 C 0.50271 0.90364 0.46930
 C3227 C 0.48840 0.89171 0.47416
 C3228 C 0.48792 0.87414 0.46692
 C3229 C 0.50245 0.92281 0.47533
 C3230 C 0.49668 0.92785 0.49374
 C3231 C 0.49620 0.94602 0.49900
 C3232 C 0.50146 0.95955 0.48595
 C3233 C 0.50718 0.95439 0.46753
 C3234 C 0.50767 0.93632 0.46233
 H3235 H 0.47159 0.85023 0.44099
 H3236 H 0.47018 0.82144 0.42428
 H3237 H 0.52832 0.81681 0.43006
 H3238 H 0.52954 0.84499 0.44776
 H3239 H 0.52715 0.87586 0.44082
 H3240 H 0.52822 0.90619 0.45385
 H3241 H 0.47725 0.89612 0.48303
 H3242 H 0.47662 0.86532 0.47075
 H3243 H 0.49266 0.91773 0.50412
 H3244 H 0.49164 0.94944 0.51325
 H3245 H 0.51137 0.96427 0.45699
 H3246 H 0.51186 0.93295 0.44792
 C3247 C -0.00733 0.34904 0.94387
 C3248 C 0.00532 0.34483 0.92955
 C3249 C 0.00466 0.32807 0.92051
 C3250 C -0.00888 0.31532 0.92540
 C3251 C -0.02130 0.31937 0.94005
 C3252 C -0.02041 0.33605 0.94936
 C3253 C -0.00760 0.36741 0.95195
 C3254 C -0.00696 0.37043 0.97178
 C3255 C -0.00648 0.38803 0.97904
 C3256 C -0.00691 0.40287 0.96658
 C3257 C -0.00831 0.39962 0.94678
 C3258 C -0.00844 0.38215 0.93957
 C3259 C -0.00550 0.42171 0.97382
 C3260 C 0.00373 0.43481 0.96288
 C3261 C 0.00398 0.45276 0.96845
 C3262 C -0.00441 0.45822 0.98558
 C3263 C -0.01303 0.44504 0.99702
 C3264 C -0.01364 0.42697 0.99117
 H3265 H 0.01555 0.35466 0.92514
 H3266 H 0.01429 0.32532 0.90918
 H3267 H -0.03181 0.30971 0.94410
 H3268 H -0.03034 0.33908 0.96030
 H3269 H -0.00635 0.35920 0.98158
 H3270 H -0.00531 0.39000 0.99434
 H3271 H -0.00933 0.41062 0.93674
 H3272 H -0.00932 0.38011 0.92424
 H3273 H 0.01070 0.43127 0.94978
 H3274 H 0.01082 0.46237 0.95917
 H3275 H -0.01976 0.44872 1.01021
 H3276 H -0.02095 0.41725 0.99992
 C3277 C 0.49305 0.35483 0.05588
 C3278 C 0.48238 0.35179 0.07236
 C3279 C 0.48371 0.33581 0.08270
 C3280 C 0.49585 0.32249 0.07697
 C3281 C 0.50654 0.32545 0.06053
 C3282 C 0.50511 0.34140 0.05006
 C3283 C 0.49188 0.37216 0.04528
 C3284 C 0.50753 0.38051 0.03739
 C3285 C 0.50664 0.39757 0.02902
 C3286 C 0.49014 0.40670 0.02856
 C3287 C 0.47439 0.39811 0.03570
 C3288 C 0.47521 0.38100 0.04383
 C3289 C 0.48963 0.42577 0.02248
 C3290 C 0.48175 0.43845 0.03463
 C3291 C 0.48215 0.45664 0.02992
 C3292 C 0.49002 0.46268 0.01262
 C3293 C 0.49761 0.44989 0.00023
 C3294 C 0.49757 0.43161 0.00521
 H3295 H 0.47327 0.36194 0.07758
 H3296 H 0.47552 0.33407 0.09549
 H3297 H 0.51587 0.31534 0.05563
 H3298 H 0.51336 0.34315 0.03733
 H3299 H 0.52063 0.37423 0.03841
 H3300 H 0.51901 0.40400 0.02379
 H3301 H 0.46146 0.40482 0.03532
 H3302 H 0.46280 0.37483 0.04927
 H3303 H 0.47575 0.43434 0.04814
 H3304 H 0.47627 0.46597 0.03998
 H3305 H 0.50390 0.45399 -0.01312
 H3306 H 0.50376 0.42204 -0.00438
 C3307 C -0.00522 0.84854 0.54620
 C3308 C -0.02058 0.83790 0.55098
 C3309 C -0.01885 0.82213 0.56160
 C3310 C -0.00166 0.81633 0.56750
 C3311 C 0.01375 0.82668 0.56222
 C3312 C 0.01199 0.84261 0.55183
 C3313 C -0.00721 0.86616 0.53632
 C3314 C 0.00615 0.87267 0.52348
 C3315 C 0.00500 0.88992 0.51562
 C3316 C -0.00962 0.90103 0.52028
 C3317 C -0.02341 0.89416 0.53234
 C3318 C -0.02216 0.87705 0.54036
 C3319 C -0.00979 0.92015 0.51396
 C3320 C -0.01579 0.93347 0.52662
 C3321 C -0.01490 0.95156 0.52157
 C3322 C -0.00790 0.95701 0.50368
 C3323 C -0.00226 0.94369 0.49078
 C3324 C -0.00320 0.92545 0.49585
 H3325 H -0.03404 0.84182 0.54664
 H3326 H -0.03109 0.81472 0.56554
 H3327 H 0.02724 0.82253 0.56616
 H3328 H 0.02414 0.85051 0.54867
 H3329 H 0.01767 0.86456 0.51972
 H3330 H 0.01593 0.89478 0.50649
 H3331 H -0.03505 0.90218 0.53595
 H3332 H -0.03264 0.87267 0.55029
 H3333 H -0.02062 0.93001 0.54081
 H3334 H -0.01947 0.96128 0.53198
 H3335 H 0.00326 0.94732 0.47693
 H3336 H 0.00136 0.91552 0.48567
 C3337 C 0.22581 0.33020 0.11856
 C3338 C 0.21625 0.32366 0.10255
 C3339 C 0.21773 0.33249 0.08494
 C3340 C 0.22869 0.34809 0.08305
 C3341 C 0.23768 0.35497 0.09927
 C3342 C 0.23626 0.34612 0.11681
 C3343 C 0.22622 0.31967 0.13653
 C3344 C 0.24291 0.31694 0.14562
 C3345 C 0.24385 0.30606 0.16176
 C3346 C 0.22812 0.29770 0.16926
 C3347 C 0.21128 0.30083 0.16064
 C3348 C 0.21036 0.31162 0.14425
 C3349 C 0.22986 0.28518 0.18551
 C3350 C 0.21968 0.28720 0.20237
 C3351 C 0.22375 0.27704 0.21864
 C3352 C 0.23809 0.26475 0.21829
 C3353 C 0.24715 0.26188 0.20078
 C3354 C 0.24312 0.27198 0.18469
 H3355 H 0.20821 0.31134 0.10346
 H3356 H 0.21045 0.32701 0.07274
 H3357 H 0.24634 0.36687 0.09826
 H3358 H 0.24365 0.35153 0.12897
 H3359 H 0.25537 0.32277 0.13989
 H3360 H 0.25696 0.30397 0.16829
 H3361 H 0.19900 0.29449 0.16621
 H3362 H 0.19731 0.31361 0.13755
 H3363 H 0.20936 0.29734 0.20330
 H3364 H 0.21649 0.27977 0.23176
 H3365 H 0.25808 0.25244 0.19952
 H3366 H 0.25089 0.26994 0.17170
 C3367 C 0.71478 0.81747 0.60998
 C3368 C 0.70434 0.83211 0.60425
 C3369 C 0.70883 0.84170 0.58766
 C3370 C 0.72392 0.83690 0.57648
 C3371 C 0.73401 0.82193 0.58192
 C3372 C 0.72949 0.81232 0.59847
 C3373 C 0.71151 0.80858 0.62871
 C3374 C 0.71343 0.78991 0.63070
 C3375 C 0.71353 0.78204 0.64884
 C3376 C 0.71180 0.79272 0.66532
 C3377 C 0.70850 0.81115 0.66325
 C3378 C 0.70832 0.81901 0.64513
 C3379 C 0.71648 0.78532 0.68430
 C3380 C 0.72913 0.79467 0.69569
 C3381 C 0.73633 0.78671 0.71190
 C3382 C 0.73082 0.76929 0.71749
 C3383 C 0.71731 0.76030 0.70666
 C3384 C 0.71032 0.76819 0.69012
 H3385 H 0.69282 0.83627 0.61274
 H3386 H 0.70056 0.85295 0.58364
 H3387 H 0.74585 0.81802 0.57379
 H3388 H 0.73801 0.80132 0.60269
 H3389 H 0.71564 0.78152 0.61826
 H3390 H 0.71622 0.76783 0.65003
 H3391 H 0.70702 0.81966 0.67574
 H3392 H 0.70689 0.83343 0.64408
 H3393 H 0.73445 0.80773 0.69135
 H3394 H 0.74703 0.79393 0.71927
 H3395 H 0.71268 0.74687 0.71046
 H3396 H 0.70053 0.76070 0.68156
 C3397 C 0.27774 0.69415 0.60032
 C3398 C 0.26360 0.69732 0.58733
 C3399 C 0.26197 0.68718 0.57060
 C3400 C 0.27466 0.67398 0.56630
 C3401 C 0.28965 0.67177 0.57834
 C3402 C 0.29116 0.68176 0.59530
 C3403 C 0.27707 0.70200 0.61989
 C3404 C 0.29292 0.70757 0.62965
 C3405 C 0.29194 0.71363 0.64866
 C3406 C 0.27512 0.71400 0.65822
 C3407 C 0.25932 0.70887 0.64825
 C3408 C 0.26028 0.70289 0.62942
 C3409 C 0.27361 0.71925 0.67863
 C3410 C 0.26201 0.70929 0.69072
 C3411 C 0.25785 0.71553 0.70893
 C3412 C 0.26544 0.73181 0.71581
 C3413 C 0.27819 0.74112 0.70425
 C3414 C 0.28224 0.73488 0.68578
 H3415 H 0.25330 0.70708 0.59054
 H3416 H 0.25036 0.68910 0.56139
 H3417 H 0.29950 0.66152 0.57527
 H3418 H 0.30215 0.67892 0.60504
 H3419 H 0.30605 0.70712 0.62265
 H3420 H 0.30431 0.71756 0.65602
 H3421 H 0.24612 0.70931 0.65513
 H3422 H 0.24783 0.69842 0.62252
 H3423 H 0.25552 0.69695 0.68576
 H3424 H 0.24806 0.70785 0.71731
 H3425 H 0.28433 0.75367 0.70903
 H3426 H 0.29129 0.74279 0.67674
 C3427 C 0.77994 0.19929 0.09520
 C3428 C 0.76720 0.20372 0.08112
 C3429 C 0.76544 0.19335 0.06452
 C3430 C 0.77635 0.17829 0.06172
 C3431 C 0.78980 0.17448 0.07527
 C3432 C 0.79162 0.18491 0.09183
 C3433 C 0.77961 0.20818 0.11420
 C3434 C 0.79576 0.21255 0.12405
 C3435 C 0.79512 0.21911 0.14285
 C3436 C 0.77834 0.22110 0.15212
 C3437 C 0.76225 0.21730 0.14205
 C3438 C 0.76287 0.21096 0.12330
 C3439 C 0.77721 0.22623 0.17251
 C3440 C 0.76619 0.21592 0.18484
 C3441 C 0.76275 0.22177 0.20338
 C3442 C 0.77025 0.23813 0.21016
 C3443 C 0.78220 0.24793 0.19812
 C3444 C 0.78574 0.24195 0.17946
 H3445 H 0.75814 0.21485 0.08329
 H3446 H 0.75492 0.19656 0.05436
 H3447 H 0.79857 0.16309 0.07332
 H3448 H 0.80148 0.18110 0.10246
 H3449 H 0.80885 0.21060 0.11731
 H3450 H 0.80769 0.22199 0.15037
 H3451 H 0.74914 0.21892 0.14886
 H3452 H 0.75021 0.20750 0.11622
 H3453 H 0.75971 0.20358 0.17987
 H3454 H 0.75355 0.21372 0.21212
 H3455 H 0.78810 0.26064 0.20269
 H3456 H 0.79431 0.25010 0.17014
 C3457 C 0.72567 0.17834 0.88744
 C3458 C 0.71732 0.16218 0.89356
 C3459 C 0.72256 0.15406 0.91062
 C3460 C 0.73609 0.16200 0.92223
 C3461 C 0.74412 0.17841 0.91636
 C3462 C 0.73905 0.18641 0.89915
 C3463 C 0.72130 0.18613 0.86842
 C3464 C 0.72171 0.20485 0.86549
 C3465 C 0.71979 0.21197 0.84711
 C3466 C 0.71730 0.20053 0.83127
 C3467 C 0.71569 0.18190 0.83439
 C3468 C 0.71779 0.17479 0.85269
 C3469 C 0.71868 0.20768 0.81147
 C3470 C 0.72897 0.19843 0.79786
 C3471 C 0.73248 0.20588 0.77997
 C3472 C 0.72557 0.22273 0.77488
 C3473 C 0.71478 0.23179 0.78832
 C3474 C 0.71135 0.22433 0.80642
 H3475 H 0.70678 0.15569 0.88510
 H3476 H 0.71620 0.14132 0.91448
 H3477 H 0.75435 0.18511 0.92506
 H3478 H 0.74599 0.19871 0.89481
 H3479 H 0.72399 0.21401 0.87733
 H3480 H 0.72120 0.22637 0.84519
 H3481 H 0.71350 0.17274 0.82252
 H3482 H 0.71753 0.16031 0.85428
 H3483 H 0.73525 0.18582 0.80137
 H3484 H 0.74133 0.19860 0.77044
 H3485 H 0.70966 0.24500 0.78527
 H3486 H 0.70336 0.23179 0.81664
 C3487 C 0.22604 0.67534 0.39296
 C3488 C 0.23764 0.68399 0.40621
 C3489 C 0.24192 0.67576 0.42355
 C3490 C 0.23499 0.65851 0.42800
 C3491 C 0.22317 0.64999 0.41487
 C3492 C 0.21860 0.65837 0.39773
 C3493 C 0.22270 0.68346 0.37380
 C3494 C 0.22086 0.67244 0.35751
 C3495 C 0.21981 0.67995 0.33928
 C3496 C 0.22099 0.69868 0.33674
 C3497 C 0.22179 0.70976 0.35305
 C3498 C 0.22251 0.70224 0.37136
 C3499 C 0.22364 0.70641 0.31728
 C3500 C 0.21687 0.72335 0.31236
 C3501 C 0.22174 0.73149 0.29495
 C3502 C 0.23341 0.72282 0.28206
 C3503 C 0.23940 0.70552 0.28671
 C3504 C 0.23460 0.69747 0.30399
 H3505 H 0.24389 0.69693 0.40301
 H3506 H 0.25074 0.68295 0.43340
 H3507 H 0.21772 0.63662 0.41754
 H3508 H 0.20935 0.65139 0.38812
 H3509 H 0.22109 0.65794 0.35865
 H3510 H 0.21878 0.67100 0.32707
 H3511 H 0.22281 0.72423 0.35168
 H3512 H 0.22342 0.71118 0.38356
 H3513 H 0.20824 0.73055 0.32219
 H3514 H 0.21702 0.74489 0.29207
 H3515 H 0.24856 0.69837 0.27740
 H3516 H 0.24041 0.68460 0.30734
 C3517 C 0.76721 0.81940 0.39907
 C3518 C 0.74961 0.82390 0.40509
 C3519 C 0.74677 0.83237 0.42262
 C3520 C 0.76135 0.83612 0.43506
 C3521 C 0.77885 0.83073 0.42950
 C3522 C 0.78177 0.82264 0.41167
 C3523 C 0.77024 0.81218 0.37940
 C3524 C 0.78398 0.79979 0.37540
 C3525 C 0.78643 0.79312 0.35678
 C3526 C 0.77507 0.79855 0.34179
 C3527 C 0.76135 0.81091 0.34593
 C3528 C 0.75920 0.81782 0.36429
 C3529 C 0.77661 0.79098 0.32205
 C3530 C 0.77121 0.80125 0.30629
 C3531 C 0.76835 0.79326 0.28854
 C3532 C 0.77208 0.77501 0.28543
 C3533 C 0.77942 0.76517 0.30067
 C3534 C 0.78145 0.77299 0.31884
 H3535 H 0.73793 0.82113 0.39613
 H3536 H 0.73311 0.83645 0.42604
 H3537 H 0.79040 0.83292 0.43880
 H3538 H 0.79552 0.81942 0.40758
 H3539 H 0.79269 0.79501 0.38667
 H3540 H 0.79720 0.78372 0.35419
 H3541 H 0.75189 0.81509 0.33509
 H3542 H 0.74878 0.82767 0.36654
 H3543 H 0.76805 0.81532 0.30788
 H3544 H 0.76199 0.80130 0.27769
 H3545 H 0.78225 0.75102 0.29903
 H3546 H 0.78564 0.76458 0.33057
 C3547 C 0.25727 0.31965 0.89960
 C3548 C 0.27264 0.32473 0.91037
 C3549 C 0.27070 0.33337 0.92806
 C3550 C 0.25335 0.33740 0.93529
 C3551 C 0.23802 0.33175 0.92477
 C3552 C 0.23996 0.32282 0.90733
 C3553 C 0.25912 0.31200 0.87997
 C3554 C 0.24650 0.31642 0.86580
 C3555 C 0.24780 0.30932 0.84743
 C3556 C 0.26206 0.29790 0.84237
 C3557 C 0.27487 0.29356 0.85644
 C3558 C 0.27339 0.30049 0.87506
 C3559 C 0.26279 0.29021 0.82266
 C3560 C 0.26809 0.27239 0.81934
 C3561 C 0.26538 0.26432 0.80139
 C3562 C 0.25699 0.27379 0.78649
 C3563 C 0.25287 0.29195 0.78962
 C3564 C 0.25622 0.30015 0.80719
 H3565 H 0.28619 0.32257 0.90490
 H3566 H 0.28285 0.33710 0.93591
 H3567 H 0.22443 0.33471 0.92961
 H3568 H 0.22777 0.31867 0.89975
 H3569 H 0.23556 0.32553 0.86881
 H3570 H 0.23733 0.31263 0.83726
 H3571 H 0.28606 0.28486 0.85308
 H3572 H 0.28329 0.29666 0.88563
 H3573 H 0.27319 0.26427 0.83090
 H3574 H 0.26858 0.25026 0.79972
 H3575 H 0.24585 0.29971 0.77901
 H3576 H 0.25258 0.31409 0.80893
 C3577 C 0.79668 0.39049 0.75003
 C3578 C 0.81289 0.39244 0.73951
 C3579 C 0.82190 0.40906 0.73838
 C3580 C 0.81496 0.42416 0.74778
 C3581 C 0.79849 0.42234 0.75795
 C3582 C 0.78940 0.40565 0.75902
 C3583 C 0.78771 0.37253 0.75158
 C3584 C 0.76884 0.37024 0.74906
 C3585 C 0.76094 0.35294 0.74843
 C3586 C 0.77183 0.33775 0.75028
 C3587 C 0.79047 0.34014 0.75392
 C3588 C 0.79831 0.35731 0.75457
 C3589 C 0.76440 0.31940 0.74687
 C3590 C 0.77386 0.30787 0.73472
 C3591 C 0.76801 0.29018 0.73214
 C3592 C 0.75248 0.28334 0.74166
 C3593 C 0.74258 0.29513 0.75336
 C3594 C 0.74845 0.31304 0.75588
 H3595 H 0.81858 0.38108 0.73203
 H3596 H 0.83429 0.41010 0.73003
 H3597 H 0.79287 0.43372 0.76544
 H3598 H 0.77695 0.40449 0.76726
 H3599 H 0.76037 0.38176 0.74671
 H3600 H 0.74654 0.35141 0.74558
 H3601 H 0.79908 0.32863 0.75578
 H3602 H 0.81279 0.35869 0.75702
 H3603 H 0.78605 0.31251 0.72736
 H3604 H 0.77632 0.28176 0.72328
 H3605 H 0.73051 0.29047 0.76089
 H3606 H 0.74089 0.32175 0.76530
 C3607 C 0.30974 0.89044 0.26965
 C3608 C 0.32771 0.89225 0.26318
 C3609 C 0.33620 0.90910 0.26179
 C3610 C 0.32702 0.92506 0.26671
 C3611 C 0.30877 0.92299 0.27316
 C3612 C 0.30036 0.90599 0.27462
 C3613 C 0.30086 0.87233 0.27054
 C3614 C 0.28272 0.86965 0.26471
 C3615 C 0.27517 0.85226 0.26347
 C3616 C 0.28568 0.83729 0.26788
 C3617 C 0.30346 0.84001 0.27460
 C3618 C 0.31093 0.85733 0.27603
 C3619 C 0.27882 0.81883 0.26400
 C3620 C 0.28954 0.80709 0.25334
 C3621 C 0.28334 0.78971 0.24930
 C3622 C 0.26636 0.78338 0.25609
 C3623 C 0.25555 0.79529 0.26669
 C3624 C 0.26167 0.81289 0.27049
 H3625 H 0.33515 0.88058 0.25857
 H3626 H 0.34967 0.90929 0.25563
 H3627 H 0.30096 0.93425 0.27804
 H3628 H 0.28654 0.90502 0.27995
 H3629 H 0.27464 0.88089 0.26025
 H3630 H 0.26145 0.85045 0.25816
 H3631 H 0.31172 0.82866 0.27835
 H3632 H 0.32476 0.85895 0.28106
 H3633 H 0.30266 0.81148 0.24783
 H3634 H 0.29195 0.78133 0.24064
 H3635 H 0.24233 0.79110 0.27206
 H3636 H 0.25315 0.82178 0.27869
 C3637 C 0.19826 0.89815 0.74242
 C3638 C 0.20434 0.91253 0.73088
 C3639 C 0.19441 0.92839 0.72994
 C3640 C 0.17814 0.93002 0.74035
 C3641 C 0.17213 0.91562 0.75185
 C3642 C 0.18204 0.89989 0.75284
 C3643 C 0.20837 0.88113 0.74348
 C3644 C 0.20999 0.87224 0.76109
 C3645 C 0.21717 0.85507 0.76192
 C3646 C 0.22300 0.84643 0.74519
 C3647 C 0.22251 0.85571 0.72772
 C3648 C 0.21521 0.87294 0.72687
 C3649 C 0.22801 0.82728 0.74593
 C3650 C 0.24372 0.82102 0.73685
 C3651 C 0.24833 0.80287 0.73821
 C3652 C 0.23720 0.79061 0.74847
 C3653 C 0.22123 0.79701 0.75702
 C3654 C 0.21677 0.81505 0.75586
 H3655 H 0.21682 0.91156 0.72274
 H3656 H 0.19931 0.93927 0.72091
 H3657 H 0.15981 0.91656 0.76026
 H3658 H 0.17685 0.88896 0.76163
 H3659 H 0.20523 0.87839 0.77419
 H3660 H 0.21774 0.84831 0.77561
 H3661 H 0.22688 0.84928 0.71463
 H3662 H 0.21408 0.87946 0.71310
 H3663 H 0.25258 0.83022 0.72905
 H3664 H 0.26068 0.79855 0.73131
 H3665 H 0.21211 0.78818 0.76490
 H3666 H 0.20439 0.81946 0.76267
 C3667 C 0.69998 0.40241 0.24005
 C3668 C 0.70564 0.41668 0.22814
 C3669 C 0.69585 0.43264 0.22768
 C3670 C 0.68016 0.43452 0.23898
 C3671 C 0.67453 0.42019 0.25080
 C3672 C 0.68429 0.40435 0.25129
 C3673 C 0.71009 0.38537 0.24077
 C3674 C 0.71243 0.37657 0.25833
 C3675 C 0.71992 0.35953 0.25896
 C3676 C 0.72535 0.35092 0.24205
 C3677 C 0.72402 0.36008 0.22457
 C3678 C 0.71641 0.37718 0.22393
 C3679 C 0.73106 0.33197 0.24269
 C3680 C 0.74647 0.32618 0.23274
 C3681 C 0.75174 0.30822 0.23386
 C3682 C 0.74158 0.29566 0.24478
 C3683 C 0.72590 0.30159 0.25429
 C3684 C 0.72079 0.31946 0.25335
 H3685 H 0.71773 0.41558 0.21938
 H3686 H 0.70045 0.44344 0.21838
 H3687 H 0.66268 0.42131 0.25991
 H3688 H 0.67941 0.39350 0.26039
 H3689 H 0.70810 0.38274 0.27159
 H3690 H 0.72114 0.35288 0.27266
 H3691 H 0.72805 0.35367 0.21134
 H3692 H 0.71471 0.38361 0.21018
 H3693 H 0.75461 0.33560 0.22440
 H3694 H 0.76384 0.30426 0.22621
 H3695 H 0.71745 0.29247 0.26261
 H3696 H 0.70862 0.32349 0.26084
 C3697 C 0.69881 0.60592 0.26748
 C3698 C 0.70563 0.59329 0.25444
 C3699 C 0.69719 0.57638 0.25239
 C3700 C 0.68167 0.57175 0.26324
 C3701 C 0.67521 0.58421 0.27667
 C3702 C 0.68373 0.60102 0.27884
 C3703 C 0.70655 0.62453 0.26829
 C3704 C 0.69495 0.63920 0.27030
 C3705 C 0.70184 0.65678 0.26963
 C3706 C 0.72049 0.66019 0.26676
 C3707 C 0.73223 0.64557 0.26541
 C3708 C 0.72533 0.62790 0.26616
 C3709 C 0.72730 0.67891 0.26392
 C3710 C 0.74379 0.68505 0.27191
 C3711 C 0.74996 0.70277 0.26892
 C3712 C 0.73980 0.71471 0.25780
 C3713 C 0.72335 0.70835 0.24982
 C3714 C 0.71723 0.69077 0.25280
 H3715 H 0.71712 0.59667 0.24534
 H3716 H 0.70273 0.56702 0.24214
 H3717 H 0.66318 0.58125 0.28513
 H3718 H 0.67830 0.61030 0.28924
 H3719 H 0.68040 0.63716 0.27172
 H3720 H 0.69247 0.66776 0.27101
 H3721 H 0.74666 0.64778 0.26310
 H3722 H 0.73466 0.61689 0.26483
 H3723 H 0.75181 0.67620 0.28063
 H3724 H 0.76270 0.70705 0.27531
 H3725 H 0.71505 0.71689 0.24111
 H3726 H 0.70466 0.68639 0.24609
 C3727 C 0.18870 0.10238 0.77056
 C3728 C 0.19663 0.09035 0.75757
 C3729 C 0.18918 0.07309 0.75491
 C3730 C 0.17351 0.06749 0.76500
 C3731 C 0.16593 0.07936 0.77840
 C3732 C 0.17352 0.09649 0.78125
 C3733 C 0.19543 0.12133 0.77197
 C3734 C 0.18305 0.13534 0.77421
 C3735 C 0.18901 0.15325 0.77391
 C3736 C 0.20747 0.15767 0.77109
 C3737 C 0.21998 0.14370 0.76955
 C3738 C 0.21403 0.12572 0.77003
 C3739 C 0.21332 0.17672 0.76837
 C3740 C 0.22992 0.18338 0.77566
 C3741 C 0.23551 0.20120 0.77222
 C3742 C 0.22465 0.21275 0.76140
 C3743 C 0.20795 0.20599 0.75440
 C3744 C 0.20243 0.18828 0.75775
 H3745 H 0.20822 0.09445 0.74895
 H3746 H 0.19560 0.06422 0.74474
 H3747 H 0.15375 0.07567 0.78630
 H3748 H 0.16725 0.10526 0.79163
 H3749 H 0.16861 0.13255 0.77550
 H3750 H 0.17906 0.16368 0.77549
 H3751 H 0.23429 0.14664 0.76726
 H3752 H 0.22397 0.11527 0.76859
 H3753 H 0.23856 0.17484 0.78404
 H3754 H 0.24844 0.20580 0.77794
 H3755 H 0.19919 0.21419 0.74582
 H3756 H 0.18977 0.18352 0.75152
 C3757 C 0.30208 0.09685 0.23709
 C3758 C 0.31755 0.09295 0.22612
 C3759 C 0.32571 0.07623 0.22746
 C3760 C 0.31846 0.06282 0.23959
 C3761 C 0.30244 0.06640 0.24984
 C3762 C 0.29439 0.08324 0.24867
 C3763 C 0.29492 0.11541 0.23755
 C3764 C 0.27618 0.11852 0.23919
 C3765 C 0.26979 0.13606 0.24100
 C3766 C 0.28202 0.15081 0.24123
 C3767 C 0.30067 0.14770 0.23895
 C3768 C 0.30704 0.13025 0.23725
 C3769 C 0.27567 0.16936 0.24469
 C3770 C 0.28581 0.18098 0.25655
 C3771 C 0.28053 0.19863 0.25943
 C3772 C 0.26481 0.20526 0.25071
 C3773 C 0.25440 0.19348 0.23913
 C3774 C 0.25977 0.17571 0.23617
 H3775 H 0.32364 0.10299 0.21677
 H3776 H 0.33813 0.07413 0.21950
 H3777 H 0.29628 0.05629 0.25905
 H3778 H 0.28255 0.08580 0.25741
 H3779 H 0.26647 0.10740 0.23924
 H3780 H 0.25535 0.13804 0.24280
 H3781 H 0.31042 0.15879 0.23873
 H3782 H 0.32156 0.12840 0.23631
 H3783 H 0.29791 0.17642 0.26369
 H3784 H 0.28900 0.20707 0.26846
 H3785 H 0.24224 0.19800 0.23210
 H3786 H 0.25172 0.16708 0.22687
 C3787 C 0.79971 0.59919 0.73448
 C3788 C 0.80252 0.59033 0.75193
 C3789 C 0.81022 0.57336 0.75236
 C3790 C 0.81494 0.56450 0.73531
 C3791 C 0.81129 0.57298 0.71778
 C3792 C 0.80388 0.59016 0.71737
 C3793 C 0.79346 0.61811 0.73431
 C3794 C 0.78207 0.62450 0.71979
 C3795 C 0.77681 0.64251 0.71961
 C3796 C 0.78275 0.65447 0.73399
 C3797 C 0.79385 0.64793 0.74865
 C3798 C 0.79929 0.63012 0.74868
 C3799 C 0.77755 0.67369 0.73403
 C3800 C 0.78989 0.68688 0.74065
 C3801 C 0.78456 0.70456 0.74315
 C3802 C 0.76688 0.70989 0.73847
 C3803 C 0.75480 0.69686 0.73079
 C3804 C 0.76004 0.67895 0.72868
 H3805 H 0.79906 0.59663 0.76540
 H3806 H 0.81300 0.56750 0.76617
 H3807 H 0.81436 0.56647 0.70433
 H3808 H 0.80199 0.59658 0.70365
 H3809 H 0.77716 0.61559 0.70860
 H3810 H 0.76830 0.64711 0.70807
 H3811 H 0.79835 0.65658 0.76024
 H3812 H 0.80834 0.62586 0.75990
 H3813 H 0.80362 0.68345 0.74454
 H3814 H 0.79417 0.71369 0.74987
 H3815 H 0.74101 0.70027 0.72715
 H3816 H 0.75013 0.66912 0.72364
 C3817 C 0.90325 0.75522 0.19632
 C3818 C 0.91693 0.74301 0.20050
 C3819 C 0.93208 0.74144 0.18850
 C3820 C 0.93420 0.75216 0.17180
 C3821 C 0.92011 0.76432 0.16782
 C3822 C 0.90501 0.76576 0.17980
 C3823 C 0.88683 0.75670 0.20867
 C3824 C 0.87888 0.77351 0.21169
 C3825 C 0.86216 0.77472 0.22104
 C3826 C 0.85310 0.75919 0.22775
 C3827 C 0.86156 0.74251 0.22593
 C3828 C 0.87826 0.74126 0.21642
 C3829 C 0.83396 0.76012 0.23421
 C3830 C 0.82777 0.75127 0.25080
 C3831 C 0.80926 0.75117 0.25567
 C3832 C 0.79660 0.75961 0.24379
 C3833 C 0.80303 0.76859 0.22730
 C3834 C 0.82144 0.76902 0.22274
 H3835 H 0.91610 0.73485 0.21330
 H3836 H 0.94244 0.73239 0.19321
 H3837 H 0.91988 0.77225 0.15491
 H3838 H 0.89439 0.77487 0.17576
 H3839 H 0.88535 0.78571 0.20635
 H3840 H 0.85599 0.78776 0.22247
 H3841 H 0.85474 0.73032 0.23082
 H3842 H 0.88395 0.72810 0.21424
 H3843 H 0.83722 0.74428 0.25986
 H3844 H 0.80484 0.74403 0.26839
 H3845 H 0.79381 0.77510 0.21761
 H3846 H 0.82580 0.77571 0.20971
 C3847 C 0.38766 0.25930 0.69634
 C3848 C 0.40245 0.24899 0.70215
 C3849 C 0.41809 0.24803 0.69077
 C3850 C 0.41929 0.25733 0.67328
 C3851 C 0.40452 0.26768 0.66752
 C3852 C 0.38891 0.26863 0.67888
 C3853 C 0.37075 0.26004 0.70806
 C3854 C 0.36106 0.27609 0.70942
 C3855 C 0.34418 0.27638 0.71858
 C3856 C 0.33662 0.26067 0.72671
 C3857 C 0.34673 0.24486 0.72639
 C3858 C 0.36362 0.24453 0.71711
 C3859 C 0.31746 0.26036 0.73340
 C3860 C 0.31215 0.25199 0.75061
 C3861 C 0.29375 0.25106 0.75598
 C3862 C 0.28034 0.25822 0.74406
 C3863 C 0.28587 0.26659 0.72687
 C3864 C 0.30412 0.26779 0.72175
 H3865 H 0.40199 0.24174 0.71557
 H3866 H 0.42914 0.23978 0.69554
 H3867 H 0.40506 0.27518 0.65426
 H3868 H 0.37767 0.27647 0.67379
 H3869 H 0.36636 0.28838 0.70305
 H3870 H 0.33676 0.28882 0.71886
 H3871 H 0.34113 0.23252 0.73238
 H3872 H 0.37067 0.23191 0.71623
 H3873 H 0.32222 0.24613 0.75985
 H3874 H 0.29003 0.24443 0.76924
 H3875 H 0.27609 0.27222 0.71715
 H3876 H 0.30776 0.27406 0.70826
 C3877 C 0.39680 0.74615 0.81151
 C3878 C 0.41352 0.74870 0.80194
 C3879 C 0.42981 0.75037 0.81218
 C3880 C 0.43001 0.74894 0.83230
 C3881 C 0.41329 0.74614 0.84176
 C3882 C 0.39701 0.74524 0.83163
 C3883 C 0.37921 0.74437 0.80080
 C3884 C 0.36433 0.73499 0.80893
 C3885 C 0.34752 0.73427 0.79985
 C3886 C 0.34505 0.74203 0.78168
 C3887 C 0.36015 0.75080 0.77311
 C3888 C 0.37686 0.75221 0.78265
 C3889 C 0.32666 0.74146 0.77238
 C3890 C 0.32138 0.75458 0.75904
 C3891 C 0.30348 0.75500 0.75221
 C3892 C 0.29019 0.74272 0.75900
 C3893 C 0.29560 0.72954 0.77207
 C3894 C 0.31359 0.72840 0.77790
 H3895 H 0.41419 0.74926 0.78650
 H3896 H 0.44219 0.75289 0.80418
 H3897 H 0.41254 0.74446 0.85709
 H3898 H 0.38458 0.74391 0.83983
 H3899 H 0.36545 0.72814 0.82248
 H3900 H 0.33644 0.72786 0.80756
 H3901 H 0.35917 0.75672 0.75905
 H3902 H 0.38778 0.75975 0.77581
 H3903 H 0.33073 0.76511 0.75445
 H3904 H 0.29987 0.76565 0.74248
 H3905 H 0.28586 0.72033 0.77852
 H3906 H 0.31689 0.71748 0.78736
 C3907 C 0.90422 0.24991 0.29700
 C3908 C 0.91877 0.26175 0.29266
 C3909 C 0.93415 0.26261 0.30440
 C3910 C 0.93519 0.25179 0.32082
 C3911 C 0.92066 0.23992 0.32508
 C3912 C 0.90539 0.23897 0.31331
 C3913 C 0.88752 0.24928 0.28510
 C3914 C 0.87871 0.23276 0.28118
 C3915 C 0.86180 0.23224 0.27218
 C3916 C 0.85329 0.24823 0.26690
 C3917 C 0.86259 0.26470 0.26974
 C3918 C 0.87955 0.26522 0.27876
 C3919 C 0.83404 0.24783 0.26058
 C3920 C 0.82786 0.25918 0.24602
 C3921 C 0.80930 0.25986 0.24167
 C3922 C 0.79653 0.24926 0.25187
 C3923 C 0.80291 0.23775 0.26622
 C3924 C 0.82135 0.23691 0.27037
 H3925 H 0.91829 0.27028 0.28014
 H3926 H 0.94510 0.27196 0.30082
 H3927 H 0.92116 0.23125 0.33749
 H3928 H 0.89431 0.22990 0.31720
 H3929 H 0.88470 0.22023 0.28551
 H3930 H 0.85509 0.21933 0.26986
 H3931 H 0.85630 0.27725 0.26601
 H3932 H 0.88597 0.27816 0.28168
 H3933 H 0.83736 0.26777 0.23825
 H3934 H 0.80497 0.26918 0.23082
 H3935 H 0.79361 0.22967 0.27480
 H3936 H 0.82559 0.22831 0.28194
 C3937 C 0.10204 0.25475 0.29915
 C3938 C 0.09023 0.26936 0.29979
 C3939 C 0.07448 0.26862 0.31105
 C3940 C 0.07017 0.25324 0.32197
 C3941 C 0.08174 0.23845 0.32093
 C3942 C 0.09748 0.23919 0.30967
 C3943 C 0.11964 0.25613 0.28866
 C3944 C 0.12655 0.24129 0.27866
 C3945 C 0.14404 0.24205 0.27071
 C3946 C 0.15501 0.25761 0.27270
 C3947 C 0.14774 0.27272 0.28182
 C3948 C 0.13027 0.27200 0.28969
 C3949 C 0.17458 0.25741 0.26746
 C3950 C 0.18747 0.26393 0.28059
 C3951 C 0.20597 0.26234 0.27698
 C3952 C 0.21228 0.25453 0.25991
 C3953 C 0.19934 0.24831 0.24651
 C3954 C 0.18067 0.24967 0.25028
 H3955 H 0.09321 0.28144 0.29165
 H3956 H 0.06568 0.28011 0.31122
 H3957 H 0.07894 0.22649 0.32933
 H3958 H 0.10643 0.22782 0.30976
 H3959 H 0.11859 0.22895 0.27740
 H3960 H 0.14932 0.23015 0.26387
 H3961 H 0.15585 0.28494 0.28344
 H3962 H 0.12545 0.28362 0.29739
 H3963 H 0.18323 0.26952 0.29417
 H3964 H 0.21519 0.26657 0.28813
 H3965 H 0.20361 0.24202 0.23331
 H3966 H 0.17100 0.24450 0.23991
 C3967 C 0.60297 0.75429 0.80790
 C3968 C 0.59336 0.77020 0.81054
 C3969 C 0.57708 0.77005 0.82100
 C3970 C 0.56994 0.75391 0.82877
 C3971 C 0.57932 0.73790 0.82537
 C3972 C 0.59571 0.73813 0.81523
 C3973 C 0.62112 0.75456 0.79868
 C3974 C 0.63585 0.74721 0.80836
 C3975 C 0.65299 0.74691 0.79985
 C3976 C 0.65581 0.75355 0.78119
 C3977 C 0.64108 0.76128 0.77163
 C3978 C 0.62390 0.76190 0.78037
 C3979 C 0.67409 0.75209 0.77203
 C3980 C 0.68123 0.76550 0.75977
 C3981 C 0.69916 0.76460 0.75293
 C3982 C 0.71053 0.75060 0.75871
 C3983 C 0.70285 0.73668 0.76992
 C3984 C 0.68494 0.73732 0.77625
 H3985 H 0.59881 0.78285 0.80515
 H3986 H 0.57045 0.78270 0.82350
 H3987 H 0.57407 0.72513 0.83060
 H3988 H 0.60283 0.72566 0.81319
 H3989 H 0.63410 0.74181 0.82265
 H3990 H 0.66407 0.74147 0.80801
 H3991 H 0.64269 0.76647 0.75725
 H3992 H 0.61268 0.76766 0.77267
 H3993 H 0.67327 0.77706 0.75609
 H3994 H 0.70437 0.77545 0.74410
 H3995 H 0.71068 0.72529 0.77437
 H3996 H 0.67972 0.72629 0.78487
 C3997 C 0.58887 0.23844 0.69342
 C3998 C 0.57746 0.22367 0.68880
 C3999 C 0.56166 0.22599 0.67811
 C4000 C 0.55654 0.24321 0.67208
 C4001 C 0.56764 0.25804 0.67725
 C4002 C 0.58364 0.25568 0.68757
 C4003 C 0.60654 0.23583 0.70340
 C4004 C 0.61398 0.24926 0.71542
 C4005 C 0.63142 0.24761 0.72306
 C4006 C 0.64177 0.23232 0.71918
 C4007 C 0.63387 0.21840 0.70817
 C4008 C 0.61663 0.22022 0.70020
 C4009 C 0.66121 0.23160 0.72509
 C4010 C 0.67401 0.22357 0.71299
 C4011 C 0.69249 0.22450 0.71720
 C4012 C 0.69887 0.23370 0.73354
 C4013 C 0.68605 0.24113 0.74608
 C4014 C 0.66744 0.23999 0.74198
 H4015 H 0.58075 0.21022 0.69332
 H4016 H 0.55371 0.21415 0.67426
 H4017 H 0.56403 0.27156 0.67328
 H4018 H 0.59212 0.26740 0.69053
 H4019 H 0.60650 0.26127 0.71868
 H4020 H 0.63701 0.25869 0.73135
 H4021 H 0.64119 0.20622 0.70524
 H4022 H 0.61157 0.20960 0.69093
 H4023 H 0.66993 0.21725 0.69968
 H4024 H 0.70181 0.21849 0.70715
 H4025 H 0.69035 0.24841 0.75873
 H4026 H 0.65799 0.24605 0.75184
 C4027 C 0.10184 0.74488 0.19606
 C4028 C 0.08766 0.73210 0.19818
 C4029 C 0.07188 0.73324 0.18720
 C4030 C 0.06999 0.74711 0.17376
 C4031 C 0.08406 0.76003 0.17184
 C4032 C 0.09979 0.75896 0.18291
 C4033 C 0.11909 0.74306 0.20679
 C4034 C 0.12805 0.75824 0.21457
 C4035 C 0.14508 0.75668 0.22317
 C4036 C 0.15355 0.73994 0.22402
 C4037 C 0.14428 0.72466 0.21688
 C4038 C 0.12722 0.72619 0.20840
 C4039 C 0.17261 0.73869 0.23065
 C4040 C 0.18513 0.72902 0.21975
 C4041 C 0.20346 0.72916 0.22462
 C4042 C 0.20981 0.73868 0.24079
 C4043 C 0.19715 0.74798 0.25201
 C4044 C 0.17875 0.74803 0.24695
 H4045 H 0.08881 0.72118 0.20830
 H4046 H 0.06134 0.72301 0.18890
 H4047 H 0.08291 0.77098 0.16176
 H4048 H 0.11056 0.76889 0.18081
 H4049 H 0.12201 0.77137 0.21371
 H4050 H 0.15197 0.76870 0.22841
 H4051 H 0.15045 0.71157 0.21746
 H4052 H 0.12072 0.71428 0.20242
 H4053 H 0.18087 0.72195 0.20691
 H4054 H 0.21272 0.72208 0.21535
 H4055 H 0.20147 0.75576 0.26433
 H4056 H 0.16935 0.75560 0.25561
   
