data_POSCAR
  _audit_creation_date              2014-09-24
  _audit_creation_method            'ToBaCCo'
  _symmetry_space_group_name_H-M    'P1'
  _symmetry_Int_Tables_number       1
  _symmetry_cell_setting            triclinic
  loop_
  _symmetry_equiv_pos_as_xyz
 x,y,z
_cell_length_a 46.4395
_cell_length_b 46.6128
_cell_length_c 46.3943
_cell_angle_alpha 89.984300
_cell_angle_beta 89.968400
_cell_angle_gamma 90.002100
loop_
  _atom_site_label
  _atom_site_type_symbol
  _atom_site_fract_x
  _atom_site_fract_y
  _atom_site_fract_z
C1 C 0.36189 1.35823 0.32337
 N2 N 0.33710 1.37121 0.33194
 C3 C 0.32158 1.36064 0.35443
 N4 N 0.33094 1.33661 0.36814
 C5 C 0.35561 1.32338 0.35974
 N6 N 0.37091 1.33423 0.33732
 C7 C 0.36105 0.85795 0.82412
 N8 N 0.37008 0.83390 0.83792
 C9 C 0.35473 0.82295 0.86026
 N10 N 0.33007 0.83620 0.86872
 C11 C 0.32077 0.86032 0.85511
 N12 N 0.33633 0.87096 0.83270
 C13 C 0.86148 1.35784 0.82313
 N14 N 0.83669 1.37086 0.83168
 C15 C 0.82118 1.36034 0.85421
 N16 N 0.83055 1.33634 0.86797
 C17 C 0.85521 1.32307 0.85959
 N18 N 0.87050 1.33387 0.83714
 C19 C 0.86292 0.85828 0.32374
 N20 N 0.83810 0.87120 0.33229
 C21 C 0.82259 0.86051 0.35467
 N22 N 0.83189 0.83649 0.36837
 C23 C 0.85659 0.82328 0.35998
 N24 N 0.87194 0.83422 0.33762
 C25 C 0.64444 0.63936 0.32261
 N26 N 0.63084 0.66340 0.33199
 C27 C 0.63937 0.67663 0.35663
 N28 N 0.66181 0.66572 0.37184
 C29 C 0.67558 0.64168 0.36268
 N30 N 0.66690 0.62870 0.33796
 C31 C 0.64571 0.13951 0.82171
 N32 N 0.63196 0.16349 0.83108
 C33 C 0.64037 0.17682 0.85571
 N34 N 0.66285 0.16609 0.87096
 C35 C 0.67685 0.14212 0.86193
 N36 N 0.66826 0.12904 0.83718
 C37 C 1.14408 0.63892 0.82289
 N38 N 1.16653 0.62831 0.83828
 C39 C 1.17509 0.64126 0.86304
 N40 N 1.16122 0.66523 0.87223
 C41 C 1.13877 0.67608 0.85699
 N42 N 1.13035 0.66288 0.83229
 C43 C 1.14605 0.13950 0.32157
 N44 N 1.16862 0.12908 0.33703
 C45 C 1.17721 0.14220 0.36176
 N46 N 1.16320 0.16616 0.37077
 C47 C 1.14069 0.17685 0.35553
 N48 N 1.13228 0.16349 0.33092
 C49 C 0.63868 1.35802 0.67580
 N50 N 0.66343 1.37101 0.66724
 C51 C 0.67896 1.36038 0.64479
 N52 N 0.66961 1.33630 0.63116
 C53 C 0.64492 1.32309 0.63960
 N54 N 0.62960 1.33402 0.66196
 C55 C 0.63715 0.85831 1.17642
 N56 N 0.66199 0.87120 1.16788
 C57 C 0.67748 0.86053 1.14548
 N58 N 0.66813 0.83654 1.13176
 C59 C 0.64341 0.82336 1.14014
 N60 N 0.62808 0.83429 1.16252
 C61 C 1.13798 1.35822 1.17611
 N62 N 1.16277 1.37121 1.16753
 C63 C 1.17830 1.36062 1.14507
 N64 N 1.16897 1.33656 1.13141
 C65 C 1.14430 1.32331 1.13982
 N66 N 1.12898 1.33419 1.16221
 C67 C 1.13883 0.85778 0.67598
 N68 N 1.16354 0.87084 0.66743
 C69 C 1.17910 0.86030 0.64498
 N70 N 1.16982 0.83620 0.63131
 C71 C 1.14516 0.82290 0.63974
 N72 N 1.12981 0.83377 0.66213
 C73 C 0.35454 0.63939 0.67726
 N74 N 0.36827 0.66336 0.66788
 C75 C 0.35986 0.67662 0.64321
 N76 N 0.33740 0.66579 0.62796
 C77 C 0.32348 0.64177 0.63705
 N78 N 0.33207 0.62880 0.66185
 C79 C 0.35456 0.13905 1.17798
 N80 N 0.36827 0.16303 1.16855
 C81 C 0.35983 0.17634 1.14393
 N82 N 0.33731 0.16560 1.12874
 C83 C 0.32334 0.14163 1.13781
 N84 N 0.33198 0.12856 1.16257
 C85 C 0.85538 0.63936 1.17744
 N86 N 0.86908 0.66335 1.16806
 C87 C 0.86059 0.67664 1.14343
 N88 N 0.83808 0.66584 1.12823
 C89 C 0.82423 0.64185 1.13739
 N90 N 0.83287 0.62880 1.16209
 C91 C 0.85434 0.13941 0.67844
 N92 N 0.86817 0.16333 0.66901
 C93 C 0.85981 0.17664 0.64435
 N94 N 0.83728 0.16596 0.62914
 C95 C 0.82320 0.14205 0.63822
 N96 N 0.83175 0.12899 0.66300
 C97 C 1.35513 0.35925 0.67882
 N98 N 1.33271 0.36975 0.66325
 C99 C 1.32424 0.35671 0.63850
 N100 N 1.33818 0.33274 0.62944
 C101 C 1.36058 0.32186 0.64479
 N102 N 1.36888 0.33522 0.66950
 C103 C 1.35532 0.85968 1.17760
 N104 N 1.36899 0.83564 1.16832
 C105 C 1.36059 0.82228 1.14365
 N106 N 1.33816 0.83321 1.12835
 C107 C 1.32435 0.85726 1.13743
 N108 N 1.33293 0.87028 1.16214
 C109 C 0.85543 0.36052 1.17835
 N110 N 0.83292 0.37102 1.16290
 C111 C 0.82433 0.35797 1.13819
 N112 N 0.83822 0.33399 1.12907
 C113 C 0.86068 0.32319 1.14432
 N114 N 0.86913 0.33649 1.16896
 C115 C 0.85566 0.86078 0.67730
 N116 N 0.86936 0.83681 0.66791
 C117 C 0.86093 0.82360 0.64321
 N118 N 0.83849 0.83448 0.62795
 C119 C 0.82464 0.85847 0.63713
 N120 N 0.83321 0.87141 0.66190
 C121 C 0.63760 0.64216 0.67576
 N122 N 0.62847 0.66617 0.66192
 C123 C 0.64375 0.67707 0.63949
 N124 N 0.66843 0.66385 0.63103
 C125 C 0.67777 0.63983 0.64472
 N126 N 0.66234 0.62918 0.66717
 C127 C 0.63728 1.14305 1.17614
 N128 N 0.62824 1.16707 1.16216
 C129 C 0.64359 1.17798 1.13974
 N130 N 0.66832 1.16469 1.13147
 C131 C 0.67762 1.14073 1.14526
 N132 N 0.66210 1.13012 1.16766
 C133 C 0.13710 0.64282 1.17639
 N134 N 0.16187 0.62986 1.16780
 C135 C 0.17735 0.64048 1.14538
 N136 N 0.16805 0.66448 1.13167
 C137 C 0.14338 0.67781 1.14004
 N138 N 0.12806 0.66689 1.16249
 C139 C 0.13729 1.14283 0.67533
 N140 N 0.16203 1.12985 0.66677
 C141 C 0.17744 1.14045 0.64430
 N142 N 0.16809 1.16442 0.63056
 C143 C 0.14340 1.17771 0.63893
 N144 N 0.12814 1.16682 0.66144
 C145 C 1.36314 0.64179 0.32373
 N146 N 1.33836 0.62887 0.33237
 C147 C 1.32295 0.63949 0.35484
 N148 N 1.33231 0.66348 0.36852
 C149 C 1.35697 0.67672 0.36006
 N150 N 1.37223 0.66584 0.33760
 C151 C 1.36282 1.14275 0.82365
 N152 N 1.33804 1.12975 0.83221
 C153 C 1.32266 1.14022 0.85476
 N154 N 1.33205 1.16408 0.86863
 C155 C 1.35673 1.17742 0.86032
 N156 N 1.37193 1.16669 0.83771
 C157 C 0.86233 0.64217 0.82418
 N158 N 0.87149 0.66615 0.83805
 C159 C 0.85625 0.67700 0.86054
 N160 N 0.83159 0.66377 0.86900
 C161 C 0.82221 0.63980 0.85529
 N162 N 0.83759 0.62919 0.83279
 C163 C 0.86305 1.14291 0.32374
 N164 N 0.87210 1.16693 0.33769
 C165 C 0.85675 1.17787 0.36009
 N166 N 0.83202 1.16460 0.36837
 C167 C 0.82269 1.14064 0.35462
 N168 N 0.83821 1.13000 0.33224
 C169 C 0.64383 0.36003 0.32318
 N170 N 0.62970 0.33644 0.33297
 C171 C 0.63807 0.32324 0.35774
 N172 N 0.66107 0.33369 0.37249
 C173 C 0.67529 0.35734 0.36297
 N174 N 0.66667 0.37030 0.33824
 C175 C 0.64424 0.86081 0.82275
 N176 N 0.66675 0.87135 0.83811
 C177 C 0.67533 0.85833 0.86285
 N178 N 0.66141 0.83439 0.87204
 C179 C 0.63888 0.82362 0.85684
 N180 N 0.63046 0.83688 0.83217
 C181 C 0.14488 0.35910 0.82114
 N182 N 0.13117 0.33503 0.83042
 C183 C 0.13949 0.32165 0.85512
 N184 N 0.16186 0.33255 0.87049
 C185 C 0.17575 0.35656 0.86146
 N186 N 0.16727 0.36962 0.83673
 C187 C 0.14495 0.86059 0.32161
 N188 N 0.16735 0.87122 0.33714
 C189 C 0.17595 0.85821 0.36187
 N190 N 0.16219 0.83414 0.37094
 C191 C 0.13986 0.82319 0.35561
 N192 N 0.13139 0.83646 0.33094
 O193 O 0.96238 0.89690 0.85917
 O194 O 0.96004 0.86373 0.82535
 C195 C 0.95112 0.88711 0.83625
 C196 C 0.92703 0.90279 0.82254
 C197 C 0.91620 0.89407 0.79571
 H198 H 0.92605 0.87610 0.78466
 O199 O 1.01808 1.10396 0.85537
 O200 O 1.01595 1.13736 0.82176
 C201 C 1.02653 1.11410 0.83139
 C202 C 1.04951 1.09919 0.81501
 C203 C 1.05947 1.11049 0.78875
 H204 H 1.04973 1.12991 0.78077
 O205 O 0.85023 0.97254 0.90632
 O206 O 0.81449 0.97236 0.87505
 C207 C 0.82627 0.96257 0.89773
 C208 C 0.81248 0.93871 0.91372
 C209 C 0.78621 0.92720 0.90424
 H210 H 0.77558 0.93652 0.88569
 O211 O 1.13617 1.02807 0.88690
 O212 O 1.16754 1.02800 0.85120
 C213 C 1.15900 1.03773 0.87531
 C214 C 1.17538 1.06086 0.88982
 C215 C 1.20214 1.07000 0.87900
 H216 H 1.21050 1.05957 0.86004
 O217 O 0.89456 0.85740 0.97956
 O218 O 0.86107 0.82395 0.98204
 C219 C 0.88370 0.83409 0.97047
 C220 C 0.89697 0.81917 0.94560
 C221 C 0.88581 0.79290 0.93582
 H222 H 0.86859 0.78327 0.94795
 O223 O 1.10205 1.14323 0.96446
 O224 O 1.13562 1.17659 0.96193
 C225 C 1.11159 1.16644 0.95371
 C226 C 1.09486 1.18128 0.93090
 C227 C 1.10454 1.20737 0.91917
 H228 H 1.12384 1.21729 0.92767
 O229 O 0.88664 1.02852 0.86393
 O230 O 0.85100 1.02833 0.83253
 C231 C 0.87505 1.03814 0.84108
 C232 C 0.88950 1.06132 0.82466
 C233 C 0.87865 1.07044 0.79790
 H234 H 0.85966 1.06003 0.78963
 O235 O 1.09386 0.97220 0.85037
 O236 O 1.12512 0.97214 0.81457
 C237 C 1.10248 0.96229 0.82637
 C238 C 1.08661 0.93839 0.81256
 C239 C 1.09628 0.92682 0.78637
 H240 H 1.11484 0.93616 0.77578
 O241 O 1.02064 0.85710 0.89481
 O242 O 1.01813 0.82364 0.86131
 C243 C 1.02963 0.83373 0.88399
 C244 C 1.05433 0.81867 0.89738
 C245 C 1.06397 0.79233 0.88630
 H246 H 1.05188 0.78277 0.86902
 O247 O 0.96443 1.14342 0.89813
 O248 O 0.96202 1.17678 0.86452
 C249 C 0.95380 1.16668 0.88860
 C250 C 0.93110 1.18157 0.90536
 C251 C 0.91947 1.20768 0.89572
 H252 H 0.92801 1.21761 0.87641
 O253 O 0.85510 1.10426 0.98169
 O254 O 0.82163 1.13773 0.98406
 C255 C 0.83116 1.11451 0.97332
 C256 C 0.81476 1.09970 0.95026
 C257 C 0.78864 1.11112 0.94005
 H258 H 0.78068 1.13060 0.94969
 O259 O 1.14073 0.89619 0.96245
 O260 O 1.17448 0.86299 0.96011
 C261 C 1.16360 0.88635 0.95113
 C262 C 1.17729 0.90197 0.92692
 C263 C 1.20402 0.89313 0.91592
 H264 H 1.21498 0.87505 0.92567
 O265 O 0.96200 1.10407 0.85866
 O266 O 0.95982 1.13727 0.82486
 C267 C 0.95077 1.11393 0.83573
 C268 C 0.92656 1.09834 0.82204
 C269 C 0.91552 1.10712 0.79527
 H270 H 0.92528 1.12513 0.78420
 O271 O 1.01842 0.89637 0.85547
 O272 O 1.01612 0.86300 0.82187
 C273 C 1.02679 0.88621 0.83148
 C274 C 1.04977 0.90109 0.81506
 C275 C 1.05990 0.88971 0.78889
 H276 H 1.05027 0.87022 0.78095
 O277 O 1.13593 0.97215 0.88699
 O278 O 1.16732 0.97214 0.85131
 C279 C 1.15870 0.96239 0.87540
 C280 C 1.17494 0.93909 0.88987
 C281 C 1.20169 0.92988 0.87907
 H282 H 1.21008 0.94028 0.86011
 O283 O 0.85016 1.02863 0.90619
 O284 O 0.81443 1.02853 0.87491
 C285 C 0.82619 1.03849 0.89753
 C286 C 0.81236 1.06244 0.91334
 C287 C 0.78625 1.07403 0.90360
 H288 H 0.77573 1.06470 0.88499
 O289 O 0.89452 1.14338 0.97934
 O290 O 0.86115 1.17693 0.98193
 C291 C 0.88373 1.16675 0.97031
 C292 C 0.89696 1.18164 0.94539
 C293 C 0.88565 1.20778 0.93547
 H294 H 0.86842 1.21743 0.94758
 O295 O 1.10148 0.85668 0.96500
 O296 O 1.13503 0.82331 0.96245
 C297 C 1.11096 0.83343 0.95433
 C298 C 1.09414 0.81854 0.93169
 C299 C 1.10350 0.79222 0.92032
 H300 H 1.12265 0.78214 0.92901
 O301 O 1.09389 1.02828 0.85044
 O302 O 1.12513 1.02831 0.81463
 C303 C 1.10250 1.03819 0.82643
 C304 C 1.08655 1.06206 0.81258
 C305 C 1.09606 1.07358 0.78628
 H306 H 1.11464 1.06430 0.77567
 O307 O 0.88684 0.97263 0.86413
 O308 O 0.85121 0.97251 0.83273
 C309 C 0.87531 0.96287 0.84132
 C310 C 0.88990 0.93975 0.82499
 C311 C 0.87926 0.93067 0.79813
 H312 H 0.86035 0.94109 0.78970
 O313 O 1.02060 1.14335 0.89450
 O314 O 1.01826 1.17683 0.86100
 C315 C 1.02979 1.16663 0.88363
 C316 C 1.05479 1.18142 0.89682
 C317 C 1.06473 1.20755 0.88547
 H318 H 1.05253 1.21730 0.86836
 O319 O 0.96456 0.85728 0.89834
 O320 O 0.96198 0.82394 0.86472
 C321 C 0.95384 0.83406 0.88881
 C322 C 0.93115 0.81920 0.90561
 C323 C 0.91970 0.79296 0.89613
 H324 H 0.92833 0.78296 0.87690
 O325 O 1.14129 1.10367 0.96234
 O326 O 1.17505 1.13687 0.96004
 C327 C 1.16420 1.11349 0.95108
 C328 C 1.17790 1.09785 0.92692
 C329 C 1.20463 1.10664 0.91593
 H330 H 1.21567 1.12465 0.92571
 O331 O 0.85538 0.89675 0.98203
 O332 O 0.82180 0.86338 0.98434
 C333 C 0.83140 0.88661 0.97368
 C334 C 0.81498 0.90152 0.95073
 C335 C 0.78874 0.89022 0.94079
 H336 H 0.78077 0.87079 0.95054
 Cu337 Cu 0.99170 0.88024 0.88033
 Cu338 Cu 0.98878 0.84022 0.83994
 Cu339 Cu 0.99142 1.12038 0.88005
 Cu340 Cu 0.98875 1.16043 0.83968
 Cu341 Cu 0.87202 1.00059 0.88830
 Cu342 Cu 0.82912 1.00041 0.85074
 Cu343 Cu 1.11182 1.00019 0.87224
 Cu344 Cu 1.14935 1.00015 0.82927
 C345 C 0.91398 0.92590 0.83681
 H346 H 0.92204 0.93255 0.85767
 C347 C 0.89256 0.90807 0.78293
 C348 C 1.06296 1.07476 0.82656
 H349 H 1.05573 1.06627 0.84706
 C350 C 1.08259 1.09768 0.77390
 C351 C 0.82648 0.92598 0.93729
 H352 H 0.84696 0.93448 0.94448
 C353 C 0.77388 0.90307 0.91768
 C354 C 1.16365 1.07469 0.91397
 H355 H 1.14286 1.06799 0.92215
 C356 C 1.21732 1.09268 0.89218
 C357 C 0.91975 0.83201 0.93048
 H358 H 0.92812 0.85249 0.93767
 C359 C 0.89668 0.77967 0.91076
 C360 C 1.06988 1.16858 0.91963
 H361 H 1.06255 1.14821 0.92816
 C362 C 1.09000 1.22059 0.89603
 C363 C 0.91363 1.07517 0.83633
 H364 H 0.92184 1.06846 0.85712
 C365 C 0.89180 1.09308 0.78261
 C366 C 1.06305 0.92564 0.82652
 H367 H 1.05572 0.93419 0.84696
 C368 C 1.08304 0.90258 0.77408
 C369 C 1.06941 0.83147 0.92019
 H370 H 1.06232 0.85201 0.92849
 C371 C 1.08887 0.77895 0.89729
 C372 C 0.91979 1.16884 0.93033
 H373 H 0.92828 1.14845 0.93764
 C374 C 0.89635 1.22089 0.91027
 C375 C 0.82623 1.07516 0.93697
 H376 H 0.84660 1.06656 0.94436
 C377 C 0.77390 1.09825 0.91684
 C378 C 1.16314 0.92523 0.91399
 H379 H 1.14237 0.93199 0.92218
 C380 C 1.21681 0.90715 0.89226
 O381 O 1.03785 0.89661 1.14153
 O382 O 1.03999 0.86344 1.17536
 C383 C 1.04905 0.88677 1.16445
 C384 C 1.07325 0.90233 1.17812
 C385 C 1.08420 0.89350 1.20488
 H386 H 1.07438 0.87548 1.21590
 O387 O 0.98207 1.10391 1.14539
 O388 O 0.98432 1.13741 1.17886
 C389 C 0.97366 1.11416 1.16933
 C390 C 0.95064 1.09936 1.18578
 C391 C 0.94058 1.11080 1.21195
 H392 H 0.95030 1.13026 1.21987
 O393 O 0.86415 1.02843 1.11377
 O394 O 0.83274 1.02839 1.14943
 C395 C 0.84132 1.03811 1.12532
 C396 C 0.82496 1.06123 1.11074
 C397 C 0.79819 1.07041 1.12151
 H398 H 0.78983 1.06007 1.14052
 O399 O 1.14980 0.97206 1.09407
 O400 O 1.18563 0.97191 1.12523
 C401 C 1.17378 0.96209 1.10260
 C402 C 1.18751 0.93820 1.08661
 C403 C 1.21378 0.92665 1.09605
 H404 H 1.22448 0.93598 1.11456
 O405 O 1.10529 0.85663 1.02117
 O406 O 1.13876 0.82317 1.01869
 C407 C 1.11616 0.83333 1.03029
 C408 C 1.10294 0.81847 1.05527
 C409 C 1.11411 0.79225 1.06516
 H410 H 1.13127 0.78254 1.05301
 O411 O 0.89828 1.14310 1.03552
 O412 O 0.86481 1.17655 1.03818
 C413 C 0.88885 1.16633 1.04629
 C414 C 0.90569 1.18112 1.06903
 C415 C 0.89622 1.20735 1.08055
 H416 H 0.87701 1.21737 1.07195
 O417 O 0.90632 0.97242 1.15030
 O418 O 0.87506 0.97236 1.18608
 C419 C 0.89769 0.96249 1.17428
 C420 C 0.91356 0.93856 1.18808
 C421 C 0.90398 0.92704 1.21434
 H422 H 0.88543 0.93639 1.22495
 O423 O 1.11347 1.02804 1.13650
 O424 O 1.14919 1.02791 1.16780
 C425 C 1.12511 1.03769 1.15930
 C426 C 1.11070 1.06090 1.17570
 C427 C 1.12160 1.07009 1.20242
 H428 H 1.14059 1.05969 1.21069
 O429 O 0.97941 0.85721 1.10577
 O430 O 0.98168 0.82374 1.13929
 C431 C 0.97025 0.83391 1.11659
 C432 C 0.94544 0.81903 1.10320
 C433 C 0.93570 0.79270 1.11423
 H434 H 0.94782 0.78299 1.13142
 O435 O 1.03577 1.14305 1.10230
 O436 O 1.03825 1.17650 1.13579
 C437 C 1.04641 1.16634 1.11172
 C438 C 1.06902 1.18125 1.09485
 C439 C 1.08054 1.20745 1.10437
 H440 H 1.07199 1.21740 1.12367
 O441 O 0.85904 0.89697 1.03815
 O442 O 0.82526 0.86379 1.04048
 C443 C 0.83616 0.88713 1.04946
 C444 C 0.82250 0.90273 1.07367
 C445 C 0.79573 0.89395 1.08461
 H446 H 0.78470 0.87597 1.07478
 O447 O 1.14483 1.10409 1.01846
 O448 O 1.17839 1.13749 1.01622
 C449 C 1.16877 1.11427 1.02690
 C450 C 1.18513 1.09938 1.04996
 C451 C 1.21131 1.11072 1.06010
 H452 H 1.21928 1.13021 1.05047
 O453 O 1.03816 1.10363 1.14174
 O454 O 1.04045 1.13692 1.17541
 C455 C 1.04944 1.11353 1.16460
 C456 C 1.07366 1.09795 1.17828
 C457 C 1.08475 1.10679 1.20499
 H458 H 1.07503 1.12484 1.21603
 O459 O 0.98178 0.89639 1.14516
 O460 O 0.98389 0.86302 1.17879
 C461 C 0.97333 0.88627 1.16915
 C462 C 0.95040 0.90124 1.18556
 C463 C 0.94035 0.88993 1.21181
 H464 H 0.94994 0.87042 1.21975
 O465 O 1.14980 1.02818 1.09412
 O466 O 1.18562 1.02812 1.12529
 C467 C 1.17379 1.03807 1.10270
 C468 C 1.18757 1.06205 1.08685
 C469 C 1.21374 1.07359 1.09652
 H470 H 1.22431 1.06421 1.11508
 O471 O 0.86412 0.97255 1.11381
 O472 O 0.83271 0.97256 1.14948
 C473 C 0.84130 0.96284 1.12538
 C474 C 0.82497 0.93968 1.11084
 C475 C 0.79818 0.93055 1.12159
 H476 H 0.78979 0.94095 1.14054
 O477 O 1.10546 1.14326 1.02069
 O478 O 1.13891 1.17675 1.01824
 C479 C 1.11628 1.16658 1.02978
 C480 C 1.10302 1.18144 1.05470
 C481 C 1.11421 1.20766 1.06451
 H482 H 1.13131 1.21742 1.05228
 O483 O 0.89825 0.85741 1.03571
 O484 O 0.86465 0.82407 1.03824
 C485 C 0.88874 0.83416 1.04637
 C486 C 0.90554 0.81919 1.06899
 C487 C 0.89608 0.79288 1.08032
 H488 H 0.87688 0.78290 1.07164
 O489 O 1.11337 0.97214 1.13641
 O490 O 1.14908 0.97206 1.16771
 C491 C 1.12496 0.96239 1.15920
 C492 C 1.11043 0.93923 1.17558
 C493 C 1.12120 0.93005 1.20236
 H494 H 1.14021 0.94036 1.21069
 O495 O 0.90625 1.02851 1.15043
 O496 O 0.87498 1.02857 1.18621
 C497 C 0.89762 1.03843 1.17443
 C498 C 0.91355 1.06229 1.18826
 C499 C 0.90395 1.07393 1.21446
 H500 H 0.88531 1.06471 1.22503
 O501 O 0.97963 1.14289 1.10581
 O502 O 0.98205 1.17647 1.13918
 C503 C 0.97052 1.16624 1.11657
 C504 C 0.94565 1.18111 1.10323
 C505 C 0.93587 1.20737 1.11442
 H506 H 0.94800 1.21702 1.13162
 O507 O 1.03554 0.85690 1.10247
 O508 O 1.03788 0.82357 1.13611
 C509 C 1.04613 0.83364 1.11204
 C510 C 1.06881 0.81867 1.09530
 C511 C 1.08030 0.79248 1.10492
 H512 H 1.07169 0.78256 1.12421
 O513 O 1.14436 0.89610 1.01854
 O514 O 1.17792 0.86271 1.01624
 C515 C 1.16835 0.88597 1.02686
 C516 C 1.18484 0.90093 1.04972
 C517 C 1.21108 0.88960 1.05961
 H518 H 1.21897 0.87011 1.04992
 O519 O 0.85889 1.10373 1.03782
 O520 O 0.82522 1.13701 1.04024
 C521 C 0.83606 1.11362 1.04918
 C522 C 0.82242 1.09805 1.07343
 C523 C 0.79570 1.10689 1.08440
 H524 H 0.78466 1.12485 1.07452
 Cu525 Cu 1.00848 0.88010 1.12035
 Cu526 Cu 1.01111 0.84008 1.16076
 Cu527 Cu 1.00875 1.12002 1.12045
 Cu528 Cu 1.01155 1.16020 1.16065
 Cu529 Cu 0.88019 0.88046 1.00868
 Cu530 Cu 0.83983 0.84044 1.01156
 Cu531 Cu 1.11957 0.87971 0.99197
 Cu532 Cu 1.15991 0.83968 0.98909
 Cu533 Cu 0.88005 1.12028 1.00839
 Cu534 Cu 0.83986 1.16043 1.01141
 Cu535 Cu 1.12004 1.12024 0.99166
 Cu536 Cu 1.16034 1.16029 0.98882
 Cu537 Cu 0.88837 1.00049 1.12852
 Cu538 Cu 0.85081 1.00047 1.17147
 Cu539 Cu 1.12805 1.00010 1.11213
 Cu540 Cu 1.17105 0.99998 1.14955
 C541 C 1.08626 0.92547 1.16386
 H542 H 1.07810 0.93221 1.14307
 C543 C 1.10791 0.90744 1.21760
 C544 C 0.93722 1.07490 1.17432
 H545 H 0.94451 1.06630 1.15389
 C546 C 0.91739 1.09806 1.22679
 C547 C 0.83668 1.07496 1.08650
 H548 H 0.85747 1.06823 1.07833
 C549 C 0.78301 1.09303 1.10821
 C550 C 1.17343 0.92544 1.06312
 H551 H 1.15294 0.93395 1.05596
 C552 C 1.22603 0.90247 1.08263
 C553 C 1.08018 0.83137 1.07036
 H554 H 1.07179 0.85181 1.06307
 C555 C 1.10332 0.77913 1.09034
 C556 C 0.93054 1.16827 1.08043
 H557 H 0.93772 1.14780 1.07204
 C558 C 0.91082 1.22059 1.10361
 C559 C 0.93709 0.92577 1.17408
 H560 H 0.94437 0.93427 1.15360
 C561 C 0.91730 0.90287 1.22669
 C562 C 1.08654 1.07474 1.16404
 H563 H 1.07829 1.06798 1.14329
 C564 C 1.10848 1.09278 1.21766
 C565 C 0.93035 0.83198 1.08047
 H566 H 0.93752 0.85252 1.07220
 C567 C 0.91070 0.77949 1.10329
 C568 C 1.08032 1.16852 1.06989
 H569 H 1.07193 1.14806 1.06267
 C570 C 1.10354 1.22075 1.08972
 C571 C 0.83674 0.92587 1.08668
 H572 H 0.85755 0.93257 1.07853
 C573 C 0.78300 0.90791 1.10834
 C574 C 1.17364 1.07484 1.06327
 H575 H 1.15323 1.06630 1.05594
 C576 C 1.22609 1.09780 1.08325
 O577 O 0.96269 0.39621 0.35838
 O578 O 0.96044 0.36302 0.32458
 C579 C 0.95144 0.38636 0.33548
 C580 C 0.92723 0.40195 0.32184
 C581 C 0.91627 0.39319 0.29507
 H582 H 0.92609 0.37522 0.28399
 O583 O 1.01881 0.60368 0.35510
 O584 O 1.01647 0.63705 0.32148
 C585 C 1.02715 0.61384 0.33109
 C586 C 1.05012 0.59901 0.31462
 C587 C 1.06011 0.61045 0.28843
 H588 H 1.05044 0.62996 0.28057
 O589 O 0.85057 0.47133 0.40610
 O590 O 0.81483 0.47135 0.37483
 C591 C 0.82661 0.46143 0.39746
 C592 C 0.81282 0.43750 0.41335
 C593 C 0.78657 0.42599 0.40384
 H594 H 0.77591 0.43535 0.38532
 O595 O 1.13631 0.52764 0.38644
 O596 O 1.16776 0.52767 0.35081
 C597 C 1.15916 0.53733 0.37493
 C598 C 1.17552 0.56041 0.38954
 C599 C 1.20233 0.56950 0.37883
 H600 H 1.21071 0.55914 0.35984
 O601 O 0.89512 0.35633 0.47908
 O602 O 0.86170 0.32281 0.48148
 C603 C 0.88431 0.33302 0.46993
 C604 C 0.89758 0.31822 0.44496
 C605 C 0.88639 0.29202 0.43506
 H606 H 0.86928 0.28226 0.44725
 O607 O 1.10234 0.64281 0.46445
 O608 O 1.13597 0.67610 0.46189
 C609 C 1.11190 0.66602 0.45372
 C610 C 1.09516 0.68091 0.43099
 C611 C 1.10471 0.70710 0.41943
 H612 H 1.12395 0.71708 0.42803
 O613 O 0.88721 0.52740 0.36409
 O614 O 0.85158 0.52746 0.33267
 C615 C 0.87567 0.53714 0.34127
 C616 C 0.89022 0.56031 0.32494
 C617 C 0.87951 0.56940 0.29811
 H618 H 0.86057 0.55899 0.28974
 O619 O 1.09416 0.47179 0.34970
 O620 O 1.12547 0.47181 0.31395
 C621 C 1.10282 0.46192 0.32570
 C622 C 1.08697 0.43803 0.31184
 C623 C 1.09661 0.42654 0.28561
 H624 H 1.11518 0.43591 0.27504
 O625 O 1.02113 0.35675 0.39411
 O626 O 1.01876 0.32327 0.36062
 C627 C 1.03024 0.33343 0.38328
 C628 C 1.05507 0.31854 0.39662
 C629 C 1.06495 0.29234 0.38539
 H630 H 1.05292 0.28274 0.36809
 O631 O 0.96504 0.64297 0.39795
 O632 O 0.96252 0.67629 0.36430
 C633 C 0.95436 0.66620 0.38839
 C634 C 0.93166 0.68110 0.40514
 C635 C 0.92018 0.70731 0.39558
 H636 H 0.92884 0.71730 0.37635
 O637 O 0.85580 0.60355 0.48151
 O638 O 0.82219 0.63689 0.48373
 C639 C 0.83181 0.61365 0.47314
 C640 C 0.81536 0.59863 0.45029
 C641 C 0.78908 0.60986 0.44037
 H642 H 0.78114 0.62935 0.45001
 O643 O 1.14144 0.39620 0.46194
 O644 O 1.17514 0.36295 0.45968
 C645 C 1.16431 0.38632 0.45066
 C646 C 1.17800 0.40189 0.42640
 C647 C 1.20475 0.39310 0.41541
 H648 H 1.21578 0.37509 0.42521
 O649 O 0.96276 0.60316 0.35897
 O650 O 0.96041 0.63633 0.32514
 C651 C 0.95147 0.61296 0.33607
 C652 C 0.92733 0.59729 0.32241
 C653 C 0.91642 0.60602 0.29561
 H654 H 0.92623 0.62402 0.28454
 O655 O 1.01875 0.39591 0.35468
 O656 O 1.01656 0.36253 0.32109
 C657 C 1.02717 0.38577 0.33069
 C658 C 1.05013 0.40071 0.31427
 C659 C 1.06024 0.38941 0.28805
 H660 H 1.05064 0.36992 0.28007
 O661 O 1.13632 0.47175 0.38626
 O662 O 1.16776 0.47184 0.35062
 C663 C 1.15914 0.46206 0.37469
 C664 C 1.17547 0.43886 0.38921
 C665 C 1.20223 0.42971 0.37842
 H666 H 1.21055 0.44006 0.35940
 O667 O 0.85054 0.52743 0.40617
 O668 O 0.81479 0.52754 0.37491
 C669 C 0.82657 0.53737 0.39757
 C670 C 0.81278 0.56126 0.41350
 C671 C 0.78647 0.57270 0.40404
 H672 H 0.77580 0.56329 0.38555
 O673 O 0.89496 0.64293 0.47903
 O674 O 0.86145 0.67636 0.48143
 C675 C 0.88410 0.66623 0.46991
 C676 C 0.89741 0.68114 0.44505
 C677 C 0.88624 0.70738 0.43522
 H678 H 0.86904 0.71707 0.44735
 O679 O 1.10216 0.35669 0.46432
 O680 O 1.13568 0.32328 0.46184
 C681 C 1.11165 0.33344 0.45365
 C682 C 1.09492 0.31857 0.43091
 C683 C 1.10450 0.29240 0.41938
 H684 H 1.12373 0.28242 0.42800
 O685 O 1.09431 0.52789 0.34969
 O686 O 1.12561 0.52802 0.31394
 C687 C 1.10297 0.53788 0.32573
 C688 C 1.08709 0.56184 0.31197
 C689 C 1.09664 0.57350 0.28575
 H690 H 1.11522 0.56426 0.27510
 O691 O 0.88704 0.47153 0.36381
 O692 O 0.85141 0.47164 0.33241
 C693 C 0.87549 0.46190 0.34094
 C694 C 0.89003 0.43881 0.32450
 C695 C 0.87925 0.42971 0.29770
 H696 H 0.86023 0.44004 0.28941
 O697 O 1.02118 0.64282 0.39451
 O698 O 1.01873 0.67626 0.36098
 C699 C 1.03027 0.66612 0.38363
 C700 C 1.05516 0.68101 0.39687
 C701 C 1.06498 0.70723 0.38565
 H702 H 1.05277 0.71697 0.36853
 O703 O 0.96500 0.35663 0.39761
 O704 O 0.96255 0.32328 0.36400
 C705 C 0.95436 0.33338 0.38809
 C706 C 0.93167 0.31845 0.40487
 C707 C 0.92014 0.29228 0.39525
 H708 H 0.92872 0.28238 0.37595
 O709 O 1.14145 0.60315 0.46221
 O710 O 1.17528 0.63628 0.45989
 C711 C 1.16436 0.61293 0.45093
 C712 C 1.17803 0.59729 0.42676
 C713 C 1.20482 0.60603 0.41586
 H714 H 1.21587 0.62400 0.42571
 O715 O 0.85577 0.39550 0.48157
 O716 O 0.82225 0.36206 0.48380
 C717 C 0.83182 0.38532 0.47318
 C718 C 0.81538 0.40023 0.45026
 C719 C 0.78915 0.38892 0.44031
 H720 H 0.78122 0.36946 0.45002
 Cu721 Cu 0.99207 0.37970 0.37957
 Cu722 Cu 0.98931 0.33966 0.33921
 Cu723 Cu 0.99213 0.61984 0.38002
 Cu724 Cu 0.98925 0.65985 0.33961
 Cu725 Cu 0.87239 0.49940 0.38821
 Cu726 Cu 0.82949 0.49951 0.35064
 Cu727 Cu 1.11211 0.49977 0.37157
 Cu728 Cu 1.14971 0.49984 0.32867
 C729 C 0.91421 0.42504 0.33617
 H730 H 0.92238 0.43172 0.35698
 C731 C 0.89254 0.40715 0.28240
 C732 C 1.06350 0.57449 0.32601
 H733 H 1.05624 0.56588 0.34644
 C734 C 1.08321 0.59768 0.27348
 C735 C 0.82683 0.42473 0.43688
 H736 H 0.84730 0.43324 0.44410
 C737 C 0.77425 0.40183 0.41726
 C738 C 1.16376 0.57420 0.41371
 H739 H 1.14293 0.56753 0.42182
 C740 C 1.21754 0.59209 0.39213
 C741 C 0.92033 0.33114 0.42984
 H742 H 0.92873 0.35157 0.43712
 C743 C 0.89710 0.27896 0.40983
 C744 C 1.07027 0.66814 0.41964
 H745 H 1.06304 0.64770 0.42806
 C746 C 1.09012 0.72037 0.39636
 C747 C 0.91433 0.57415 0.33671
 H748 H 0.92245 0.56748 0.35754
 C749 C 0.89275 0.59202 0.28289
 C750 C 1.06341 0.42523 0.32578
 H751 H 1.05610 0.43373 0.34624
 C752 C 1.08334 0.40237 0.27323
 C753 C 1.07007 0.33136 0.41949
 H754 H 1.06281 0.35179 0.42791
 C755 C 1.08999 0.27915 0.39627
 C756 C 0.92022 0.66830 0.43000
 H757 H 0.92859 0.64784 0.43723
 C758 C 0.89709 0.72057 0.41012
 C759 C 0.82683 0.57412 0.43695
 H760 H 0.84735 0.56567 0.44413
 C761 C 0.77415 0.59687 0.41739
 C762 C 1.16375 0.42505 0.41340
 H763 H 1.14297 0.43178 0.42158
 C764 C 1.21747 0.40709 0.39167
 O765 O 1.03776 0.39616 0.64138
 O766 O 1.04005 0.36290 0.67512
 C767 C 1.04904 0.38626 0.66426
 C768 C 1.07328 0.40177 0.67791
 C769 C 1.08428 0.39282 0.70460
 H770 H 1.07443 0.37480 0.71560
 O771 O 0.98186 0.60368 0.64417
 O772 O 0.98407 0.63698 0.67785
 C773 C 0.97343 0.61378 0.66818
 C774 C 0.95046 0.59885 0.68457
 C775 C 0.94043 0.61017 0.71080
 H776 H 0.95007 0.62965 0.71875
 O777 O 0.86414 0.52745 0.61297
 O778 O 0.83270 0.52751 0.64861
 C779 C 0.84133 0.53720 0.62451
 C780 C 0.82506 0.56040 0.60998
 C781 C 0.79826 0.56955 0.62071
 H782 H 0.78981 0.55910 0.63961
 O783 O 1.15004 0.47142 0.59380
 O784 O 1.18572 0.47140 0.62513
 C785 C 1.17400 0.46152 0.60246
 C786 C 1.18783 0.43763 0.58656
 C787 C 1.21397 0.42599 0.59622
 H788 H 1.22451 0.43526 0.61485
 O789 O 1.10560 0.35680 0.52054
 O790 O 1.13899 0.32326 0.51812
 C791 C 1.11637 0.33347 0.52967
 C792 C 1.10304 0.31858 0.55458
 C793 C 1.11415 0.29229 0.56435
 H794 H 1.13131 0.28262 0.55217
 O795 O 0.89854 0.64299 0.53517
 O796 O 0.86493 0.67631 0.53765
 C797 C 0.88901 0.66624 0.54580
 C798 C 0.90581 0.68121 0.56841
 C799 C 0.89634 0.70748 0.57982
 H800 H 0.87711 0.71745 0.57120
 O801 O 0.90619 0.47148 0.64973
 O802 O 0.87487 0.47156 0.68546
 C803 C 0.89750 0.46162 0.67373
 C804 C 0.91326 0.43768 0.68762
 C805 C 0.90345 0.42610 0.71376
 H806 H 0.88482 0.43544 0.72424
 O807 O 1.11329 0.52731 0.63589
 O808 O 1.14884 0.52736 0.66738
 C809 C 1.12477 0.53703 0.65873
 C810 C 1.11016 0.56017 0.67504
 C811 C 1.12072 0.56919 0.70194
 H812 H 1.13957 0.55872 0.71043
 O813 O 0.97941 0.35655 0.60564
 O814 O 0.98188 0.32303 0.63910
 C815 C 0.97037 0.33318 0.61644
 C816 C 0.94561 0.31821 0.60308
 C817 C 0.93574 0.29202 0.61435
 H818 H 0.94770 0.28251 0.63175
 O819 O 1.03582 0.64305 0.60162
 O820 O 1.03831 0.67630 0.63533
 C821 C 1.04653 0.66623 0.61124
 C822 C 1.06933 0.68109 0.59456
 C823 C 1.08098 0.70720 0.60420
 H824 H 1.07240 0.71717 0.62347
 O825 O 0.85933 0.39572 0.53766
 O826 O 0.82561 0.36248 0.53993
 C827 C 0.83644 0.38586 0.54892
 C828 C 0.82269 0.40149 0.57308
 C829 C 0.79592 0.39272 0.58404
 H830 H 0.78493 0.37466 0.57428
 O831 O 1.14501 0.60349 0.51833
 O832 O 1.17864 0.63681 0.51604
 C833 C 1.16898 0.61361 0.52673
 C834 C 1.18534 0.59871 0.54975
 C835 C 1.21152 0.61007 0.55982
 H836 H 1.21945 0.62956 0.55016
 O837 O 1.03790 0.60323 0.64063
 O838 O 1.04014 0.63632 0.67452
 C839 C 1.04909 0.61296 0.66360
 C840 C 1.07311 0.59722 0.67737
 C841 C 1.08386 0.60588 0.70425
 H842 H 1.07401 0.62386 0.71529
 O843 O 0.98166 0.39575 0.64503
 O844 O 0.98389 0.36231 0.67858
 C845 C 0.97322 0.38554 0.66898
 C846 C 0.95014 0.40039 0.68533
 C847 C 0.93986 0.38899 0.71146
 H848 H 0.94943 0.36949 0.71946
 O849 O 1.15010 0.52752 0.59392
 O850 O 1.18578 0.52762 0.62525
 C851 C 1.17403 0.53750 0.60259
 C852 C 1.18782 0.56145 0.58671
 C853 C 1.21402 0.57303 0.59631
 H854 H 1.22461 0.56371 0.61490
 O855 O 0.86420 0.47153 0.61299
 O856 O 0.83275 0.47166 0.64862
 C857 C 0.84137 0.46186 0.62456
 C858 C 0.82508 0.43862 0.61009
 C859 C 0.79829 0.42948 0.62086
 H860 H 0.78991 0.43991 0.63981
 O861 O 1.10588 0.64289 0.52062
 O862 O 1.13941 0.67629 0.51814
 C863 C 1.11676 0.66619 0.52969
 C864 C 1.10353 0.68111 0.55459
 C865 C 1.11484 0.70726 0.56447
 H866 H 1.13203 0.71693 0.55232
 O867 O 0.89862 0.35624 0.53529
 O868 O 0.86509 0.32284 0.53776
 C869 C 0.88912 0.33299 0.54596
 C870 C 0.90584 0.31814 0.56871
 C871 C 0.89627 0.29197 0.58026
 H872 H 0.87706 0.28197 0.57164
 O873 O 1.11360 0.47143 0.63615
 O874 O 1.14917 0.47151 0.66761
 C875 C 1.12512 0.46175 0.65902
 C876 C 1.11057 0.43858 0.67539
 C877 C 1.12138 0.42927 0.70212
 H878 H 1.14041 0.43953 0.71046
 O879 O 0.90638 0.52759 0.64943
 O880 O 0.87507 0.52776 0.68517
 C881 C 0.89773 0.53759 0.67337
 C882 C 0.91361 0.56154 0.68713
 C883 C 0.90404 0.57307 0.71338
 H884 H 0.88551 0.56371 0.72403
 O885 O 0.97968 0.64307 0.60497
 O886 O 0.98208 0.67646 0.63855
 C887 C 0.97059 0.66638 0.61585
 C888 C 0.94578 0.68133 0.60254
 C889 C 0.93604 0.70762 0.61365
 H890 H 0.94819 0.71730 0.63082
 O891 O 1.03551 0.35676 0.60201
 O892 O 1.03804 0.32333 0.63556
 C893 C 1.04621 0.33351 0.61148
 C894 C 1.06890 0.31865 0.59464
 C895 C 1.08035 0.29239 0.60411
 H896 H 1.07174 0.28240 0.62337
 O897 O 1.14508 0.39587 0.51809
 O898 O 1.17856 0.36241 0.51586
 C899 C 1.16900 0.38565 0.52650
 C900 C 1.18539 0.40047 0.54953
 C901 C 1.21151 0.38903 0.55966
 H902 H 1.21945 0.36957 0.54996
 O903 O 0.85939 0.60336 0.53758
 O904 O 0.82560 0.63652 0.53984
 C905 C 0.83648 0.61317 0.54883
 C906 C 0.82275 0.59751 0.57296
 C907 C 0.79598 0.60630 0.58387
 H908 H 0.78501 0.62436 0.57408
 Cu909 Cu 1.00840 0.37965 0.62016
 Cu910 Cu 1.01125 0.33953 0.66045
 Cu911 Cu 1.00864 0.61996 0.61944
 Cu912 Cu 1.01143 0.65987 0.65993
 Cu913 Cu 0.88059 0.37927 0.50823
 Cu914 Cu 0.84032 0.33916 0.51102
 Cu915 Cu 1.12021 0.37972 0.49139
 Cu916 Cu 1.16044 0.33960 0.48860
 Cu917 Cu 0.88057 0.61989 0.50815
 Cu918 Cu 0.84017 0.65989 0.51094
 Cu919 Cu 1.12028 0.61977 0.49158
 Cu920 Cu 1.16069 0.65973 0.48870
 Cu921 Cu 0.88838 0.49950 0.62772
 Cu922 Cu 0.85078 0.49964 0.67063
 Cu923 Cu 1.12822 0.49940 0.61178
 Cu924 Cu 1.17104 0.49948 0.64941
 C925 C 1.08633 0.42492 0.66368
 H926 H 1.07812 0.43174 0.64293
 C927 C 1.10808 0.40661 0.71730
 C928 C 0.93713 0.57432 0.67310
 H929 H 0.94439 0.56581 0.65263
 C930 C 0.91736 0.59727 0.72569
 C931 C 0.83691 0.57429 0.58591
 H932 H 0.85772 0.56758 0.57779
 C933 C 0.78317 0.59229 0.60752
 C934 C 1.17394 0.42498 0.56290
 H935 H 1.15355 0.43358 0.55556
 C936 C 1.22626 0.40179 0.58289
 C937 C 1.08030 0.33147 0.56974
 H938 H 1.07196 0.35196 0.56256
 C939 C 1.10333 0.27908 0.58946
 C940 C 0.93066 0.66843 0.57981
 H941 H 0.93783 0.64793 0.57149
 C942 C 0.91097 0.72082 0.60280
 C943 C 0.93691 0.42494 0.67380
 H944 H 0.94435 0.43352 0.65342
 C945 C 0.91663 0.40189 0.72616
 C946 C 1.08616 0.57409 0.66313
 H947 H 1.07816 0.56748 0.64223
 C948 C 1.10742 0.59181 0.71711
 C949 C 0.93066 0.33097 0.58014
 H950 H 0.93791 0.35140 0.57170
 C951 C 0.91076 0.27876 0.60342
 C952 C 1.08068 0.66833 0.56964
 H953 H 1.07219 0.64794 0.56234
 C954 C 1.10413 0.72039 0.58965
 C955 C 0.83688 0.42472 0.58601
 H956 H 0.85768 0.43143 0.57785
 C957 C 0.78312 0.40680 0.60767
 C958 C 1.17387 0.57420 0.56311
 H959 H 1.15345 0.56565 0.55582
 C960 C 1.22636 0.59720 0.58293
 O961 O 0.46255 0.89695 0.35887
 O962 O 0.46027 0.86375 0.32509
 C963 C 0.45129 0.88711 0.33598
 C964 C 0.42713 0.90269 0.32229
 C965 C 0.41619 0.89382 0.29557
 H966 H 0.42600 0.87578 0.28458
 O967 O 0.51843 1.10428 0.35460
 O968 O 0.51626 1.13778 0.32111
 C969 C 0.52686 1.11451 0.33066
 C970 C 0.54984 1.09966 0.31422
 C971 C 0.55989 1.11106 0.28803
 H972 H 0.55023 1.13055 0.28011
 O973 O 0.35050 0.97264 0.40600
 O974 O 0.31475 0.97253 0.37475
 C975 C 0.32652 0.96271 0.39742
 C976 C 0.31269 0.93885 0.41338
 C977 C 0.28644 0.92737 0.40383
 H978 H 0.27585 0.93673 0.38527
 O979 O 0.63608 1.02858 0.38625
 O980 O 0.66753 1.02851 0.35061
 C981 C 0.65893 1.03824 0.37470
 C982 C 0.67526 1.06139 0.38926
 C983 C 0.70204 1.07056 0.37850
 H984 H 0.71041 1.06020 0.35951
 O985 O 0.39465 0.85728 0.47913
 O986 O 0.36114 0.82384 0.48147
 C987 C 0.38381 0.83398 0.46998
 C988 C 0.39717 0.81907 0.44513
 C989 C 0.38609 0.79278 0.43533
 H990 H 0.36884 0.78313 0.44741
 O991 O 0.60193 1.14336 0.46451
 O992 O 0.63538 1.17684 0.46200
 C993 C 0.61131 1.16670 0.45389
 C994 C 0.59436 1.18171 0.43138
 C995 C 0.60350 1.20827 0.42036
 H996 H 0.62268 1.21829 0.42903
 O997 O 0.38701 1.02851 0.36355
 O998 O 0.35135 1.02837 0.33218
 C999 C 0.37543 1.03813 0.34070
 C1000 C 0.38989 1.06126 0.32424
 C1001 C 0.37906 1.07032 0.29746
 H1002 H 0.36007 1.05992 0.28921
 O1003 O 0.59392 0.97260 0.34974
 O1004 O 0.62521 0.97248 0.31397
 C1005 C 0.60257 0.96263 0.32578
 C1006 C 0.58669 0.93870 0.31202
 C1007 C 0.59624 0.92715 0.28577
 H1008 H 0.61478 0.93649 0.27512
 O1009 O 0.52092 0.85735 0.39451
 O1010 O 0.51852 0.82388 0.36101
 C1011 C 0.53000 0.83402 0.38368
 C1012 C 0.55479 0.81909 0.39703
 C1013 C 0.56451 0.79277 0.38599
 H1014 H 0.55235 0.78306 0.36884
 O1015 O 0.46469 1.14344 0.39756
 O1016 O 0.46223 1.17689 0.36403
 C1017 C 0.45405 1.16673 0.38810
 C1018 C 0.43141 1.18163 0.40494
 C1019 C 0.41980 1.20777 0.39535
 H1020 H 0.42830 1.21770 0.37601
 O1021 O 0.35556 1.10462 0.48139
 O1022 O 0.32203 1.13803 0.48362
 C1023 C 0.33163 1.11482 0.47294
 C1024 C 0.31528 1.09996 0.44987
 C1025 C 0.28913 1.11133 0.43970
 H1026 H 0.28116 1.13082 0.44932
 O1027 O 0.64102 0.89709 0.46200
 O1028 O 0.67482 0.86392 0.45977
 C1029 C 0.66392 0.88726 0.45073
 C1030 C 0.67761 0.90284 0.42651
 C1031 C 0.70436 0.89403 0.41558
 H1032 H 0.71537 0.87603 0.42542
 O1033 O 0.46237 1.10404 0.35814
 O1034 O 0.46012 1.13731 0.32442
 C1035 C 0.45112 1.11393 0.33525
 C1036 C 0.42694 1.09830 0.32156
 C1037 C 0.41592 1.10701 0.29477
 H1038 H 0.42565 1.12503 0.28368
 O1039 O 0.51859 0.89659 0.35514
 O1040 O 0.51634 0.86320 0.32155
 C1041 C 0.52696 0.88644 0.33114
 C1042 C 0.54987 0.90137 0.31466
 C1043 C 0.55988 0.89003 0.28843
 H1044 H 0.55028 0.87050 0.28053
 O1045 O 0.63607 0.97269 0.38628
 O1046 O 0.66751 0.97266 0.35064
 C1047 C 0.65889 0.96297 0.37474
 C1048 C 0.67518 0.93979 0.38932
 C1049 C 0.70197 0.93063 0.37858
 H1050 H 0.71037 0.94101 0.35962
 O1051 O 0.35059 1.02874 0.40586
 O1052 O 0.31484 1.02871 0.37460
 C1053 C 0.32663 1.03865 0.39721
 C1054 C 0.31285 1.06264 0.41300
 C1055 C 0.28671 1.07420 0.40330
 H1056 H 0.27616 1.06484 0.38472
 O1057 O 0.39505 1.14366 0.47918
 O1058 O 0.36160 1.17716 0.48162
 C1059 C 0.38423 1.16698 0.47008
 C1060 C 0.39746 1.18182 0.44513
 C1061 C 0.38620 1.20800 0.43526
 H1062 H 0.36912 1.21776 0.44751
 O1063 O 0.60192 0.85743 0.46446
 O1064 O 0.63553 0.82411 0.46202
 C1065 C 0.61146 0.83417 0.45385
 C1066 C 0.59470 0.81920 0.43123
 C1067 C 0.60416 0.79291 0.41987
 H1068 H 0.62336 0.78292 0.42854
 O1069 O 0.59404 1.02868 0.34956
 O1070 O 0.62533 1.02869 0.31380
 C1071 C 0.60269 1.03858 0.32556
 C1072 C 0.58681 1.06248 0.31172
 C1073 C 0.59641 1.07408 0.28549
 H1074 H 0.61501 1.06482 0.27490
 O1075 O 0.38705 0.97262 0.36377
 O1076 O 0.35140 0.97255 0.33239
 C1077 C 0.37548 0.96286 0.34098
 C1078 C 0.39000 0.93965 0.32469
 C1079 C 0.37924 0.93041 0.29792
 H1080 H 0.36030 0.94078 0.28951
 O1081 O 0.52082 1.14331 0.39411
 O1082 O 0.51844 1.17692 0.36074
 C1083 C 0.52992 1.16669 0.38340
 C1084 C 0.55459 1.18169 0.39697
 C1085 C 0.56418 1.20815 0.38610
 H1086 H 0.55276 1.21729 0.36813
 O1087 O 0.46481 0.85731 0.39802
 O1088 O 0.46236 0.82396 0.36441
 C1089 C 0.45416 0.83406 0.38849
 C1090 C 0.43148 0.81915 0.40525
 C1091 C 0.42011 0.79287 0.39576
 H1092 H 0.42882 0.78288 0.37655
 O1093 O 0.64125 1.10386 0.46207
 O1094 O 0.67490 1.13716 0.45975
 C1095 C 0.66408 1.11378 0.45076
 C1096 C 0.67776 1.09825 0.42651
 C1097 C 0.70450 1.10708 0.41555
 H1098 H 0.71553 1.12506 0.42541
 O1099 O 0.35550 0.89667 0.48162
 O1100 O 0.32188 0.86332 0.48378
 C1101 C 0.33152 0.88657 0.47320
 C1102 C 0.31514 0.90156 0.45028
 C1103 C 0.28892 0.89028 0.44026
 H1104 H 0.28095 0.87080 0.44991
 Cu1105 Cu 0.49190 0.88037 0.38002
 Cu1106 Cu 0.48910 0.84033 0.33965
 Cu1107 Cu 0.49174 1.12043 0.37946
 Cu1108 Cu 0.48900 1.16060 0.33923
 Cu1109 Cu 0.37235 1.00063 0.38795
 Cu1110 Cu 0.32942 1.00052 0.35043
 Cu1111 Cu 0.61187 1.00065 0.37151
 Cu1112 Cu 0.64946 1.00058 0.32859
 C1113 C 0.41414 0.92588 0.33648
 H1114 H 0.42230 0.93265 0.35726
 C1115 C 0.39247 0.90770 0.28281
 C1116 C 0.56320 1.07516 0.32568
 H1117 H 0.55591 1.06659 0.34612
 C1118 C 0.58301 1.09824 0.27316
 C1119 C 0.32666 0.92606 0.43693
 H1120 H 0.34713 0.93454 0.44417
 C1121 C 0.27410 0.90320 0.41717
 C1122 C 0.66352 1.07514 0.41346
 H1123 H 0.64273 1.06840 0.42162
 C1124 C 0.71722 1.09318 0.39178
 C1125 C 0.41997 0.83195 0.43008
 H1126 H 0.42828 0.85245 0.43728
 C1127 C 0.39708 0.77954 0.41032
 C1128 C 0.56963 1.16881 0.41979
 H1129 H 0.56261 1.14818 0.42792
 C1130 C 0.58855 1.22193 0.39776
 C1131 C 0.41402 1.07514 0.33589
 H1132 H 0.42222 1.06847 0.35670
 C1133 C 0.39223 1.09292 0.28212
 C1134 C 0.56318 0.92592 0.32607
 H1135 H 0.55593 0.93445 0.34654
 C1136 C 0.58290 0.90296 0.27349
 C1137 C 0.56988 0.83201 0.41977
 H1138 H 0.56272 0.85253 0.42805
 C1139 C 0.58955 0.77956 0.39688
 C1140 C 0.42017 1.16893 0.42996
 H1141 H 0.42862 1.14851 0.43722
 C1142 C 0.39678 1.22104 0.40999
 C1143 C 0.32676 1.07541 0.43660
 H1144 H 0.34715 1.06684 0.44396
 C1145 C 0.27437 1.09843 0.41653
 C1146 C 0.66339 0.92599 0.41348
 H1147 H 0.64259 0.93272 0.42161
 C1148 C 0.71712 0.90798 0.39185
 O1149 O 0.53739 0.89688 0.64088
 O1150 O 0.53971 0.86373 0.67472
 C1151 C 0.54865 0.88710 0.66381
 C1152 C 0.57276 0.90277 0.67750
 C1153 C 0.58360 0.89406 0.70434
 H1154 H 0.57375 0.87608 0.71540
 O1155 O 0.48167 1.10415 0.64506
 O1156 O 0.48389 1.13760 0.67859
 C1157 C 0.47322 1.11437 0.66900
 C1158 C 0.45014 1.09957 0.68537
 C1159 C 0.44005 1.11097 0.71154
 H1160 H 0.44977 1.13042 0.71949
 O1161 O 0.36399 1.02838 0.61308
 O1162 O 0.33250 1.02836 0.64867
 C1163 C 0.34114 1.03806 0.62457
 C1164 C 0.32484 1.06119 0.60996
 C1165 C 0.29801 1.07030 0.62062
 H1166 H 0.28957 1.05990 0.63955
 O1167 O 0.64968 0.97271 0.59384
 O1168 O 0.68541 0.97248 0.62513
 C1169 C 0.67365 0.96273 0.60243
 C1170 C 0.68748 0.93893 0.58641
 C1171 C 0.71378 0.92747 0.59585
 H1172 H 0.72441 0.93679 0.61440
 O1173 O 0.60541 0.85758 0.52062
 O1174 O 0.63893 0.82415 0.51823
 C1175 C 0.61626 0.83427 0.52974
 C1176 C 0.60294 0.81933 0.55460
 C1177 C 0.61411 0.79308 0.56439
 H1178 H 0.63134 0.78345 0.55226
 O1179 O 0.39833 1.14367 0.53542
 O1180 O 0.36478 1.17703 0.53793
 C1181 C 0.38880 1.16687 0.54617
 C1182 C 0.40548 1.18167 0.56903
 C1183 C 0.39582 1.20776 0.58073
 H1184 H 0.37656 1.21773 0.57217
 O1185 O 0.40613 0.97251 0.64976
 O1186 O 0.37479 0.97244 0.68548
 C1187 C 0.39745 0.96258 0.67373
 C1188 C 0.41328 0.93865 0.68753
 C1189 C 0.40362 0.92709 0.71373
 H1190 H 0.38507 0.93647 0.72433
 O1191 O 0.61325 1.02860 0.63630
 O1192 O 0.64887 1.02836 0.66772
 C1193 C 0.62482 1.03817 0.65918
 C1194 C 0.61036 1.06130 0.67564
 C1195 C 0.62123 1.07042 0.70239
 H1196 H 0.64026 1.06006 0.71062
 O1197 O 0.47905 0.85710 0.60534
 O1198 O 0.48152 0.82365 0.63886
 C1199 C 0.46999 0.83376 0.61619
 C1200 C 0.44519 0.81881 0.60285
 C1201 C 0.43537 0.79254 0.61398
 H1202 H 0.44739 0.78292 0.63129
 O1203 O 0.53553 1.14324 0.60216
 O1204 O 0.53804 1.17666 0.63568
 C1205 C 0.54623 1.16648 0.61163
 C1206 C 0.56897 1.18129 0.59481
 C1207 C 0.58061 1.20743 0.60438
 H1208 H 0.57207 1.21741 0.62366
 O1209 O 0.35904 0.89676 0.53774
 O1210 O 0.32524 0.86360 0.53994
 C1211 C 0.33613 0.88692 0.54899
 C1212 C 0.32244 0.90248 0.57322
 C1213 C 0.29574 0.89357 0.58423
 H1214 H 0.28478 0.87551 0.57444
 O1215 O 0.64506 1.10427 0.51823
 O1216 O 0.67854 1.13774 0.51596
 C1217 C 0.66898 1.11451 0.52666
 C1218 C 0.68532 1.09971 0.54978
 C1219 C 0.71144 1.11111 0.56002
 H1220 H 0.71946 1.13055 0.55033
 O1221 O 0.53778 1.10399 0.64175
 O1222 O 0.54006 1.13724 0.67547
 C1223 C 0.54904 1.11386 0.66464
 C1224 C 0.57325 1.09827 0.67832
 C1225 C 0.58431 1.10704 0.70507
 H1226 H 0.57456 1.12506 0.71615
 O1227 O 0.48135 0.89646 0.64457
 O1228 O 0.48362 0.86310 0.67819
 C1229 C 0.47298 0.88632 0.66857
 C1230 C 0.45004 0.90126 0.68500
 C1231 C 0.43991 0.88990 0.71119
 H1232 H 0.44949 0.87037 0.71913
 O1233 O 0.64970 1.02879 0.59399
 O1234 O 0.68541 1.02865 0.62529
 C1235 C 0.67368 1.03862 0.60266
 C1236 C 0.68756 1.06254 0.58684
 C1237 C 0.71368 1.07412 0.59660
 H1238 H 0.72414 1.06481 0.61526
 O1239 O 0.36389 0.97248 0.61332
 O1240 O 0.33241 0.97250 0.64893
 C1241 C 0.34106 0.96274 0.62487
 C1242 C 0.32480 0.93948 0.61036
 C1243 C 0.29807 0.93021 0.62117
 H1244 H 0.28968 0.94056 0.64016
 O1245 O 0.60548 1.14318 0.52067
 O1246 O 0.63887 1.17673 0.51821
 C1247 C 0.61627 1.16650 0.52978
 C1248 C 0.60303 1.18134 0.55471
 C1249 C 0.61430 1.20752 0.56454
 H1250 H 0.63138 1.21727 0.55228
 O1251 O 0.39817 0.85714 0.53529
 O1252 O 0.36455 0.82382 0.53770
 C1253 C 0.38862 0.83388 0.54590
 C1254 C 0.40535 0.81891 0.56856
 C1255 C 0.39583 0.79265 0.57995
 H1256 H 0.37663 0.78268 0.57127
 O1257 O 0.61296 0.97270 0.63593
 O1258 O 0.64858 0.97253 0.66735
 C1259 C 0.62448 0.96291 0.65873
 C1260 C 0.60988 0.93975 0.67504
 C1261 C 0.62053 0.93067 0.70190
 H1262 H 0.63944 0.94109 0.71032
 O1263 O 0.40588 1.02861 0.64995
 O1264 O 0.37454 1.02865 0.68567
 C1265 C 0.39720 1.03854 0.67393
 C1266 C 0.41306 1.06246 0.68777
 C1267 C 0.40343 1.07408 0.71398
 H1268 H 0.38480 1.06483 0.72454
 O1269 O 0.47938 1.14343 0.60578
 O1270 O 0.48182 1.17697 0.63920
 C1271 C 0.47028 1.16678 0.61657
 C1272 C 0.44539 1.18166 0.60328
 C1273 C 0.43546 1.20780 0.61461
 H1274 H 0.44758 1.21745 0.63183
 O1275 O 0.53517 0.85730 0.60171
 O1276 O 0.53773 0.82396 0.63534
 C1277 C 0.54590 0.83409 0.61125
 C1278 C 0.56865 0.81927 0.59449
 C1279 C 0.58014 0.79304 0.60400
 H1280 H 0.57147 0.78300 0.62320
 O1281 O 0.64462 0.89691 0.51811
 O1282 O 0.67823 0.86356 0.51590
 C1283 C 0.66860 0.88680 0.52650
 C1284 C 0.68501 0.90176 0.54941
 C1285 C 0.71128 0.89051 0.55932
 H1286 H 0.71927 0.87108 0.54958
 O1287 O 0.35919 1.10402 0.53749
 O1288 O 0.32544 1.13723 0.53976
 C1289 C 0.33627 1.11383 0.54871
 C1290 C 0.32250 1.09817 0.57281
 C1291 C 0.29570 1.10693 0.58365
 H1292 H 0.28471 1.12494 0.57379
 Cu1293 Cu 0.50804 0.88025 0.61973
 Cu1294 Cu 0.51093 0.84024 0.66014
 Cu1295 Cu 0.50843 1.12037 0.62032
 Cu1296 Cu 0.51123 1.16049 0.66058
 Cu1297 Cu 0.38022 0.88028 0.50827
 Cu1298 Cu 0.33983 0.84029 0.51099
 Cu1299 Cu 0.61986 0.88057 0.49147
 Cu1300 Cu 0.66025 0.84058 0.48871
 Cu1301 Cu 0.38041 1.12067 0.50819
 Cu1302 Cu 0.34012 1.16074 0.51102
 Cu1303 Cu 0.62009 1.12031 0.49153
 Cu1304 Cu 0.66027 1.16049 0.48868
 Cu1305 Cu 0.38813 1.00050 0.62798
 Cu1306 Cu 0.35049 1.00050 0.67084
 Cu1307 Cu 0.62785 1.00072 0.61186
 Cu1308 Cu 0.67072 1.00047 0.64944
 C1309 C 0.58580 0.92590 0.66322
 H1310 H 0.57774 0.93255 0.64236
 C1311 C 0.60724 0.90806 0.71711
 C1312 C 0.43673 1.07511 0.67387
 H1313 H 0.44406 1.06653 0.65344
 C1314 C 0.41686 1.09820 0.72635
 C1315 C 0.33670 1.07502 0.58586
 H1316 H 0.35754 1.06834 0.57779
 C1317 C 0.28289 1.09295 0.60732
 C1318 C 0.67347 0.92618 0.56286
 H1319 H 0.65296 0.93463 0.55570
 C1320 C 0.72615 0.90338 0.58239
 C1321 C 0.58011 0.83213 0.56966
 H1322 H 0.57173 0.85260 0.56246
 C1323 C 0.60323 0.77982 0.58943
 C1324 C 0.43038 1.16889 0.58039
 H1325 H 0.43769 1.14852 0.57187
 C1326 C 0.41030 1.22093 0.60392
 C1327 C 0.43681 0.92584 0.67355
 H1328 H 0.44414 0.93439 0.65311
 C1329 C 0.41682 0.90283 0.72602
 C1330 C 0.58618 1.07511 0.66401
 H1331 H 0.57795 1.06841 0.64324
 C1332 C 0.60807 1.09304 0.71770
 C1333 C 0.43017 0.83168 0.58003
 H1334 H 0.43738 0.85217 0.57170
 C1335 C 0.41038 0.77929 0.60299
 C1336 C 0.58027 1.16850 0.56987
 H1337 H 0.57181 1.14808 0.56263
 C1338 C 0.60370 1.22061 0.58976
 C1339 C 0.33659 0.92570 0.58619
 H1340 H 0.35734 0.93251 0.57799
 C1341 C 0.28296 0.90749 0.60795
 C1342 C 0.67378 1.07522 0.56313
 H1343 H 0.65341 1.06664 0.55572
 C1344 C 0.72610 1.09828 0.58331
 O1345 O 0.46205 0.39583 0.85885
 O1346 O 0.45993 0.36264 0.82505
 C1347 C 0.45085 0.38596 0.83593
 C1348 C 0.42664 0.40149 0.82223
 C1349 C 0.41566 0.39257 0.79552
 H1350 H 0.42547 0.37453 0.78454
 O1351 O 0.51785 0.60355 0.85558
 O1352 O 0.51566 0.63685 0.82189
 C1353 C 0.52630 0.61366 0.83159
 C1354 C 0.54931 0.59875 0.81525
 C1355 C 0.55933 0.61005 0.78900
 H1356 H 0.54962 0.62948 0.78100
 O1357 O 0.35001 0.47123 0.90603
 O1358 O 0.31425 0.47126 0.87479
 C1359 C 0.32602 0.46136 0.89742
 C1360 C 0.31219 0.43746 0.91332
 C1361 C 0.28602 0.42586 0.90368
 H1362 H 0.27546 0.43516 0.88507
 O1363 O 0.63582 0.52761 0.88723
 O1364 O 0.66715 0.52773 0.85150
 C1365 C 0.65858 0.53739 0.87562
 C1366 C 0.67484 0.56061 0.89011
 C1367 C 0.70164 0.56973 0.87939
 H1368 H 0.71009 0.55924 0.86051
 O1369 O 0.39426 0.35633 0.97921
 O1370 O 0.36084 0.32281 0.98169
 C1371 C 0.38347 0.33298 0.97013
 C1372 C 0.39682 0.31806 0.94526
 C1373 C 0.38569 0.29181 0.93542
 H1374 H 0.36832 0.28227 0.94741
 O1375 O 0.60112 0.64308 0.96476
 O1376 O 0.63468 0.67646 0.96222
 C1377 C 0.61061 0.66633 0.95408
 C1378 C 0.59379 0.68125 0.93144
 C1379 C 0.60320 0.70755 0.92007
 H1380 H 0.62240 0.71757 0.92873
 O1381 O 0.38662 0.52723 0.86386
 O1382 O 0.35095 0.52727 0.83249
 C1383 C 0.37504 0.53697 0.84106
 C1384 C 0.38952 0.56018 0.82472
 C1385 C 0.37877 0.56929 0.79792
 H1386 H 0.35988 0.55882 0.78952
 O1387 O 0.59367 0.47165 0.85067
 O1388 O 0.62487 0.47177 0.81483
 C1389 C 0.60227 0.46183 0.82663
 C1390 C 0.58641 0.43797 0.81275
 C1391 C 0.59607 0.42656 0.78650
 H1392 H 0.61463 0.43596 0.77595
 O1393 O 0.52056 0.35645 0.89463
 O1394 O 0.51827 0.32300 0.86111
 C1395 C 0.52974 0.33317 0.88378
 C1396 C 0.55463 0.31833 0.89707
 C1397 C 0.56454 0.29216 0.88582
 H1398 H 0.55246 0.28249 0.86858
 O1399 O 0.46392 0.64292 0.89810
 O1400 O 0.46146 0.67619 0.86440
 C1401 C 0.45324 0.66612 0.88849
 C1402 C 0.43051 0.68102 0.90521
 C1403 C 0.41887 0.70713 0.89556
 H1404 H 0.42742 0.71708 0.87626
 O1405 O 0.35530 0.60345 0.98188
 O1406 O 0.32159 0.63669 0.98402
 C1407 C 0.33130 0.61346 0.97345
 C1408 C 0.31494 0.59841 0.95056
 C1409 C 0.28862 0.60956 0.94068
 H1410 H 0.28060 0.62899 0.95037
 O1411 O 0.64127 0.39595 0.96216
 O1412 O 0.67502 0.36274 0.95995
 C1413 C 0.66417 0.38609 0.95091
 C1414 C 0.67785 0.40169 0.92667
 C1415 C 0.70455 0.39287 0.91554
 H1416 H 0.71557 0.37481 0.92525
 O1417 O 0.46178 0.60324 0.85898
 O1418 O 0.45956 0.63635 0.82509
 C1419 C 0.45058 0.61299 0.83600
 C1420 C 0.42650 0.59729 0.82228
 C1421 C 0.41556 0.60605 0.79549
 H1422 H 0.42532 0.62410 0.78446
 O1423 O 0.51812 0.39576 0.85536
 O1424 O 0.51605 0.36240 0.82174
 C1425 C 0.52660 0.38565 0.83139
 C1426 C 0.54957 0.40065 0.81504
 C1427 C 0.55971 0.38942 0.78880
 H1428 H 0.55010 0.36996 0.78075
 O1429 O 0.63609 0.47168 0.88694
 O1430 O 0.66741 0.47188 0.85119
 C1431 C 0.65889 0.46205 0.87527
 C1432 C 0.67528 0.43880 0.88964
 C1433 C 0.70199 0.42963 0.87870
 H1434 H 0.71026 0.44007 0.85971
 O1435 O 0.35025 0.52731 0.90623
 O1436 O 0.31447 0.52744 0.87501
 C1437 C 0.32628 0.53726 0.89766
 C1438 C 0.31248 0.56112 0.91365
 C1439 C 0.28613 0.57249 0.90425
 H1440 H 0.27547 0.56310 0.88575
 O1441 O 0.39421 0.64304 0.97943
 O1442 O 0.36059 0.67638 0.98175
 C1443 C 0.38327 0.66629 0.97025
 C1444 C 0.39646 0.68114 0.94530
 C1445 C 0.38516 0.70730 0.93541
 H1446 H 0.36807 0.71705 0.94764
 O1447 O 0.60183 0.35662 0.96458
 O1448 O 0.63538 0.32324 0.96215
 C1449 C 0.61134 0.33336 0.95394
 C1450 C 0.59459 0.31847 0.93124
 C1451 C 0.60420 0.29232 0.91967
 H1452 H 0.62347 0.28239 0.92825
 O1453 O 0.59368 0.52773 0.85065
 O1454 O 0.62489 0.52790 0.81482
 C1455 C 0.60225 0.53770 0.82665
 C1456 C 0.58630 0.56157 0.81284
 C1457 C 0.59584 0.57308 0.78657
 H1458 H 0.61441 0.56377 0.77596
 O1459 O 0.38658 0.47132 0.86382
 O1460 O 0.35092 0.47141 0.83244
 C1461 C 0.37499 0.46164 0.84100
 C1462 C 0.38948 0.43842 0.82466
 C1463 C 0.37868 0.42916 0.79791
 H1464 H 0.35970 0.43949 0.78955
 O1465 O 0.52005 0.64297 0.89471
 O1466 O 0.51767 0.67637 0.86113
 C1467 C 0.52913 0.66629 0.88384
 C1468 C 0.55390 0.68126 0.89721
 C1469 C 0.56362 0.70758 0.88611
 H1470 H 0.55157 0.71717 0.86881
 O1471 O 0.46442 0.35632 0.89815
 O1472 O 0.46207 0.32296 0.86454
 C1473 C 0.45382 0.33305 0.88861
 C1474 C 0.43113 0.31811 0.90537
 C1475 C 0.41971 0.29187 0.89584
 H1476 H 0.42836 0.28191 0.87659
 O1477 O 0.64046 0.60364 0.96242
 O1478 O 0.67421 0.63684 0.96009
 C1479 C 0.66336 0.61346 0.95115
 C1480 C 0.67713 0.59777 0.92706
 C1481 C 0.70391 0.60653 0.91616
 H1482 H 0.71489 0.62459 0.92593
 O1483 O 0.35498 0.39557 0.98165
 O1484 O 0.32146 0.36215 0.98394
 C1485 C 0.33103 0.38538 0.97328
 C1486 C 0.31464 0.40025 0.95029
 C1487 C 0.28850 0.38884 0.94020
 H1488 H 0.28057 0.36937 0.94988
 Cu1489 Cu 0.49145 0.37941 0.88013
 Cu1490 Cu 0.48882 0.33939 0.83975
 Cu1491 Cu 0.49106 0.61986 0.88024
 Cu1492 Cu 0.48832 0.65980 0.83975
 Cu1493 Cu 0.37193 0.49925 0.88812
 Cu1494 Cu 0.32899 0.49936 0.85062
 Cu1495 Cu 0.61168 0.49965 0.87245
 Cu1496 Cu 0.64914 0.49984 0.82942
 C1497 C 0.41365 0.42468 0.83641
 H1498 H 0.42184 0.43148 0.85717
 C1499 C 0.39192 0.40646 0.78277
 C1500 C 0.56271 0.57430 0.82681
 H1501 H 0.55547 0.56581 0.84730
 C1502 C 0.58246 0.59721 0.77419
 C1503 C 0.32610 0.42477 0.93694
 H1504 H 0.34651 0.43334 0.94426
 C1505 C 0.27372 0.40165 0.91701
 C1506 C 0.66297 0.57454 0.91415
 H1507 H 0.64215 0.56784 0.92226
 C1508 C 0.71674 0.59246 0.89256
 C1509 C 0.41966 0.33090 0.93023
 H1510 H 0.42801 0.35136 0.93747
 C1511 C 0.39670 0.27852 0.91043
 C1512 C 0.56899 0.66840 0.91999
 H1513 H 0.56186 0.64788 0.92831
 C1514 C 0.58857 0.72090 0.89709
 C1515 C 0.41358 0.57408 0.83651
 H1516 H 0.42172 0.56739 0.85734
 C1517 C 0.39192 0.59201 0.78274
 C1518 C 0.56284 0.42514 0.82664
 H1519 H 0.55552 0.43358 0.84712
 C1520 C 0.58284 0.40239 0.77407
 C1521 C 0.56967 0.33119 0.91989
 H1522 H 0.56238 0.35161 0.92832
 C1523 C 0.58967 0.27905 0.89659
 C1524 C 0.41922 0.66830 0.93018
 H1525 H 0.42769 0.64790 0.93749
 C1526 C 0.39578 0.72036 0.91015
 C1527 C 0.32651 0.57397 0.93714
 H1528 H 0.34706 0.56559 0.94428
 C1529 C 0.27373 0.59658 0.91768
 C1530 C 0.66362 0.42493 0.91381
 H1531 H 0.64288 0.43167 0.92209
 C1532 C 0.71721 0.40691 0.89179
 O1533 O 0.53726 0.39618 1.14118
 O1534 O 0.53951 0.36302 1.17501
 C1535 C 0.54848 0.38638 1.16412
 C1536 C 0.57259 0.40203 1.17782
 C1537 C 0.58343 0.39331 1.20465
 H1538 H 0.57355 0.37536 1.21574
 O1539 O 0.48101 0.60378 1.14461
 O1540 O 0.48327 0.63705 1.17831
 C1541 C 0.47264 0.61385 1.16864
 C1542 C 0.44973 0.59888 1.18507
 C1543 C 0.43979 0.61013 1.21136
 H1544 H 0.44943 0.62962 1.21929
 O1545 O 0.36343 0.52764 1.11327
 O1546 O 0.33205 0.52758 1.14896
 C1547 C 0.34062 0.53733 1.12486
 C1548 C 0.32433 0.56056 1.11039
 C1549 C 0.29759 0.56977 1.12121
 H1550 H 0.28918 0.55934 1.14014
 O1551 O 0.64932 0.47168 1.09384
 O1552 O 0.68500 0.47173 1.12518
 C1553 C 0.67330 0.46183 1.10251
 C1554 C 0.68721 0.43798 1.08663
 C1555 C 0.71345 0.42654 1.09624
 H1556 H 0.72399 0.43592 1.11482
 O1557 O 0.60542 0.35661 1.02077
 O1558 O 0.63886 0.32311 1.01842
 C1559 C 0.61622 0.33330 1.02994
 C1560 C 0.60290 0.31845 1.05487
 C1561 C 0.61410 0.29225 1.06478
 H1562 H 0.63130 0.28256 1.05266
 O1563 O 0.39772 0.64316 1.03561
 O1564 O 0.36402 0.67639 1.03800
 C1565 C 0.38810 0.66638 1.04623
 C1566 C 0.40479 0.68135 1.06893
 C1567 C 0.39523 0.70755 1.08043
 H1568 H 0.37599 0.71751 1.07181
 O1569 O 0.40570 0.47168 1.14973
 O1570 O 0.37443 0.47160 1.18552
 C1571 C 0.39707 0.46175 1.17372
 C1572 C 0.41293 0.43784 1.18754
 C1573 C 0.40330 0.42635 1.21378
 H1574 H 0.38474 0.43572 1.22436
 O1575 O 0.61255 0.52764 1.13590
 O1576 O 0.64814 0.52769 1.16736
 C1577 C 0.62406 0.53736 1.15874
 C1578 C 0.60949 0.56050 1.17508
 C1579 C 0.62018 0.56956 1.20192
 H1580 H 0.63912 0.55914 1.21029
 O1581 O 0.47901 0.35651 1.10540
 O1582 O 0.48142 0.32306 1.13893
 C1583 C 0.46994 0.33318 1.11625
 C1584 C 0.44514 0.31824 1.10292
 C1585 C 0.43535 0.29199 1.11411
 H1586 H 0.44743 0.28238 1.13139
 O1587 O 0.53479 0.64322 1.10193
 O1588 O 0.53728 0.67646 1.13564
 C1589 C 0.54546 0.66642 1.11154
 C1590 C 0.56817 0.68134 1.09481
 C1591 C 0.57968 0.70752 1.10440
 H1592 H 0.57104 0.71748 1.12366
 O1593 O 0.35858 0.39586 1.03776
 O1594 O 0.32485 0.36264 1.04010
 C1595 C 0.33569 0.38602 1.04907
 C1596 C 0.32199 0.40168 1.07324
 C1597 C 0.29521 0.39293 1.08422
 H1598 H 0.28420 0.37489 1.07446
 O1599 O 0.64396 0.60383 1.01848
 O1600 O 0.67753 0.63721 1.01620
 C1601 C 0.66794 0.61396 1.02683
 C1602 C 0.68439 0.59899 1.04972
 C1603 C 0.71066 0.61024 1.05965
 H1604 H 0.71861 0.62972 1.04997
 O1605 O 0.53705 0.60346 1.14097
 O1606 O 0.53934 0.63654 1.17487
 C1607 C 0.54829 0.61320 1.16392
 C1608 C 0.57241 0.59750 1.17759
 C1609 C 0.58330 0.60620 1.20440
 H1610 H 0.57350 0.62420 1.21547
 O1611 O 0.48120 0.39575 1.14474
 O1612 O 0.48341 0.36239 1.17837
 C1613 C 0.47277 0.38560 1.16873
 C1614 C 0.44977 0.40052 1.18511
 C1615 C 0.43967 0.38923 1.21135
 H1616 H 0.44928 0.36975 1.21935
 O1617 O 0.64923 0.52777 1.09382
 O1618 O 0.68493 0.52790 1.12514
 C1619 C 0.67317 0.53773 1.10246
 C1620 C 0.68696 0.56164 1.08655
 C1621 C 0.71325 0.57310 1.09603
 H1622 H 0.72391 0.56369 1.11452
 O1623 O 0.36354 0.47173 1.11320
 O1624 O 0.33214 0.47173 1.14887
 C1625 C 0.34074 0.46200 1.12478
 C1626 C 0.32443 0.43878 1.11028
 C1627 C 0.29764 0.42966 1.12106
 H1628 H 0.28928 0.44009 1.14002
 O1629 O 0.60484 0.64322 1.02091
 O1630 O 0.63830 0.67669 1.01844
 C1631 C 0.61568 0.66654 1.02999
 C1632 C 0.60239 0.68144 1.05487
 C1633 C 0.61358 0.70765 1.06473
 H1634 H 0.63078 0.71734 1.05260
 O1635 O 0.39789 0.35640 1.03537
 O1636 O 0.36436 0.32301 1.03793
 C1637 C 0.38841 0.33315 1.04606
 C1638 C 0.40522 0.31826 1.06872
 C1639 C 0.39573 0.29204 1.08021
 H1640 H 0.37650 0.28205 1.07161
 O1641 O 0.61274 0.47175 1.13606
 O1642 O 0.64832 0.47187 1.16752
 C1643 C 0.62427 0.46211 1.15893
 C1644 C 0.60973 0.43897 1.17531
 C1645 C 0.62040 0.42989 1.20217
 H1646 H 0.63929 0.44035 1.21058
 O1647 O 0.40560 0.52778 1.14981
 O1648 O 0.37435 0.52779 1.18561
 C1649 C 0.39697 0.53768 1.17381
 C1650 C 0.41286 0.56159 1.18763
 C1651 C 0.40337 0.57306 1.21395
 H1652 H 0.38485 0.56371 1.22461
 O1653 O 0.47867 0.64322 1.10547
 O1654 O 0.48108 0.67658 1.13906
 C1655 C 0.46958 0.66651 1.11637
 C1656 C 0.44473 0.68144 1.10310
 C1657 C 0.43493 0.70769 1.11427
 H1658 H 0.44711 0.71739 1.13141
 O1659 O 0.53516 0.35660 1.10197
 O1660 O 0.53763 0.32327 1.13561
 C1661 C 0.54586 0.33339 1.11154
 C1662 C 0.56865 0.31854 1.09482
 C1663 C 0.58019 0.29237 1.10445
 H1664 H 0.57157 0.28242 1.12372
 O1665 O 0.64463 0.39591 1.01828
 O1666 O 0.67819 0.36252 1.01614
 C1667 C 0.66857 0.38577 1.02673
 C1668 C 0.68491 0.40073 1.04970
 C1669 C 0.71113 0.38948 1.05977
 H1670 H 0.71916 0.37004 1.05010
 O1671 O 0.35864 0.60347 1.03797
 O1672 O 0.32476 0.63655 1.04014
 C1673 C 0.33569 0.61325 1.04918
 C1674 C 0.32198 0.59762 1.07334
 C1675 C 0.29527 0.60649 1.08433
 H1676 H 0.28431 0.62456 1.07456
 Cu1677 Cu 0.50798 0.37958 1.11994
 Cu1678 Cu 0.51077 0.33957 1.16034
 Cu1679 Cu 0.50770 0.62011 1.11984
 Cu1680 Cu 0.51052 0.66001 1.16035
 Cu1681 Cu 0.37980 0.37937 1.00832
 Cu1682 Cu 0.33952 0.33928 1.01121
 Cu1683 Cu 0.61992 0.37960 0.99161
 Cu1684 Cu 0.66021 0.33953 0.98890
 Cu1685 Cu 0.37988 0.61998 1.00857
 Cu1686 Cu 0.33936 0.65986 1.01123
 Cu1687 Cu 0.61921 0.62012 0.99182
 Cu1688 Cu 0.65954 0.66017 0.98895
 Cu1689 Cu 0.38772 0.49972 1.12794
 Cu1690 Cu 0.35018 0.49967 1.17090
 Cu1691 Cu 0.62742 0.49969 1.11174
 Cu1692 Cu 0.67025 0.49981 1.14937
 C1693 C 0.58563 0.42513 1.16353
 H1694 H 0.57756 0.43178 1.14267
 C1695 C 0.60713 0.40726 1.21739
 C1696 C 0.43637 0.57439 1.17359
 H1697 H 0.44358 0.56593 1.15307
 C1698 C 0.41680 0.59718 1.22631
 C1699 C 0.33613 0.57439 1.08627
 H1700 H 0.35690 0.56763 1.07808
 C1701 C 0.28251 0.59254 1.10805
 C1702 C 0.67333 0.42519 1.06304
 H1703 H 0.65286 0.43364 1.05575
 C1704 C 0.72588 0.40241 1.08291
 C1705 C 0.58007 0.33130 1.06991
 H1706 H 0.57166 0.35172 1.06262
 C1707 C 0.60330 0.27911 1.08994
 C1708 C 0.42966 0.66858 1.08032
 H1709 H 0.43689 0.64813 1.07194
 C1710 C 0.40981 0.72085 1.10349
 C1711 C 0.43648 0.42504 1.17359
 H1712 H 0.44378 0.43355 1.15312
 C1713 C 0.41657 0.40218 1.22617
 C1714 C 0.58540 0.57437 1.16330
 H1715 H 0.57730 0.56772 1.14245
 C1716 C 0.60694 0.59216 1.21715
 C1717 C 0.43007 0.33107 1.08011
 H1718 H 0.43727 0.35155 1.07172
 C1719 C 0.41033 0.27876 1.10325
 C1720 C 0.57958 0.66859 1.06992
 H1721 H 0.57118 0.64815 1.06266
 C1722 C 0.60277 0.72080 1.08986
 C1723 C 0.33621 0.42489 1.08618
 H1724 H 0.35701 0.43158 1.07802
 C1725 C 0.28244 0.40700 1.10787
 C1726 C 0.67292 0.57448 1.06307
 H1727 H 0.65242 0.56602 1.05588
 C1728 C 0.72556 0.59727 1.08266
 C1729 C 1.13720 1.12626 1.29521
 C1730 C 1.15288 1.09827 1.28704
 C1731 C 1.14379 1.08650 1.26176
 C1732 C 1.11982 1.10385 1.24650
 C1733 C 1.09610 1.10641 1.26959
 C1734 C 1.10512 1.11814 1.29490
 C1735 C 1.14129 1.14596 1.26899
 C1736 C 1.13228 1.13430 1.24371
 H1737 H 1.16881 1.08772 1.30049
 H1738 H 1.15195 1.06587 1.25488
 H1739 H 1.07415 1.09904 1.26650
 H1740 H 1.09080 1.12081 1.31322
 H1741 H 1.15078 1.16722 1.27014
 H1742 H 1.13415 1.14565 1.22335
 C1743 C 1.13499 0.62516 0.79498
 C1744 C 1.13925 0.64499 0.76895
 C1745 C 1.13064 0.63336 0.74352
 C1746 C 1.11836 0.60281 0.74609
 C1747 C 1.14227 0.58558 0.76155
 C1748 C 1.15096 0.59736 0.78696
 C1749 C 1.10300 0.61689 0.79434
 C1750 C 1.09434 0.60515 0.76892
 H1751 H 1.14853 0.66632 0.77036
 H1752 H 1.13265 0.64481 0.72323
 H1753 H 1.15072 0.56507 0.75466
 H1754 H 1.16685 0.58700 0.80059
 H1755 H 1.08852 0.61952 0.81252
 H1756 H 1.07246 0.59768 0.76555
 C1757 C 0.63684 1.12632 0.79532
 C1758 C 0.64099 1.14605 0.76914
 C1759 C 0.63195 1.13445 0.74383
 C1760 C 0.61941 1.10403 0.74657
 C1761 C 0.64333 1.08660 0.76182
 C1762 C 0.65246 1.09831 0.78712
 C1763 C 0.60474 1.11828 0.79499
 C1764 C 0.59569 1.10662 0.76966
 H1765 H 0.65053 1.16729 0.77032
 H1766 H 0.63384 1.14584 0.72350
 H1767 H 0.65141 1.06594 0.75492
 H1768 H 0.66834 1.08769 0.80056
 H1769 H 0.59043 1.12095 0.81332
 H1770 H 0.57372 1.09930 0.76655
 C1771 C 0.63513 0.62556 1.29479
 C1772 C 0.63936 0.64530 1.26868
 C1773 C 0.63053 0.63366 1.24333
 C1774 C 0.61809 0.60319 1.24604
 C1775 C 0.64198 0.58585 1.26142
 C1776 C 0.65090 0.59765 1.28675
 C1777 C 0.60309 0.61747 1.29434
 C1778 C 0.59422 0.60573 1.26900
 H1779 H 0.64878 0.66658 1.26998
 H1780 H 0.63248 0.64504 1.22300
 H1781 H 0.65023 0.56525 1.25458
 H1782 H 0.66678 0.58722 1.30034
 H1783 H 0.58873 0.62023 1.31260
 H1784 H 0.57228 0.59836 1.26578
 C1785 C 0.87820 0.86920 1.29936
 C1786 C 0.86107 0.86585 1.27131
 C1787 C 0.87461 0.87660 1.24772
 C1788 C 0.90424 0.88995 1.25394
 C1789 C 0.89863 0.91221 1.27785
 C1790 C 0.88500 0.90142 1.30148
 C1791 C 0.90759 0.85512 1.29306
 C1792 C 0.92125 0.86601 1.26949
 H1793 H 0.84010 0.85561 1.27001
 H1794 H 0.86516 0.87549 1.22635
 H1795 H 0.90547 0.93445 1.27661
 H1796 H 0.88014 0.91451 1.32022
 H1797 H 0.91774 0.83921 1.30681
 H1798 H 0.94303 0.85949 1.26436
 C1799 C 0.87689 0.36862 0.79873
 C1800 C 0.85975 0.36555 0.77064
 C1801 C 0.87350 0.37613 0.74708
 C1802 C 0.90333 0.38905 0.75335
 C1803 C 0.89798 0.41135 0.77731
 C1804 C 0.88414 0.40073 0.80090
 C1805 C 0.90609 0.35413 0.79242
 C1806 C 0.91995 0.36485 0.76888
 H1807 H 0.83864 0.35562 0.76930
 H1808 H 0.86407 0.37517 0.72569
 H1809 H 0.90511 0.43350 0.77609
 H1810 H 0.87941 0.41387 0.81963
 H1811 H 0.91598 0.33800 0.80610
 H1812 H 0.94158 0.35792 0.76370
 C1813 C 0.37722 0.86940 0.79846
 C1814 C 0.35996 0.86657 0.77047
 C1815 C 0.37367 0.87719 0.74692
 C1816 C 0.40358 0.88993 0.75318
 C1817 C 0.39842 0.91213 0.77726
 C1818 C 0.38459 0.90143 0.80081
 C1819 C 0.40624 0.85477 0.79206
 C1820 C 0.42012 0.86553 0.76855
 H1821 H 0.33878 0.85678 0.76922
 H1822 H 0.36416 0.87640 0.72556
 H1823 H 0.40562 0.93426 0.77613
 H1824 H 0.37988 0.91445 0.81964
 H1825 H 0.41592 0.83847 0.80566
 H1826 H 0.44168 0.85847 0.76326
 C1827 C 0.37720 0.36899 1.29893
 C1828 C 0.36000 0.36577 1.27090
 C1829 C 0.37364 0.37633 1.24728
 C1830 C 0.40342 0.38940 1.25344
 C1831 C 0.39805 0.41175 1.27733
 C1832 C 0.38432 0.40114 1.30099
 C1833 C 0.40645 0.35461 1.29260
 C1834 C 0.42019 0.36531 1.26899
 H1835 H 0.33893 0.35574 1.26965
 H1836 H 0.36415 0.37527 1.22592
 H1837 H 0.40510 0.43392 1.27604
 H1838 H 0.37959 0.41431 1.31971
 H1839 H 0.41645 0.33858 1.30632
 H1840 H 0.44186 0.35850 1.26379
 C1841 C 0.86317 1.12626 0.70487
 C1842 C 0.84751 1.09828 0.71311
 C1843 C 0.85659 1.08660 0.73846
 C1844 C 0.88050 1.10404 0.75369
 C1845 C 0.90426 1.10657 0.73063
 C1846 C 0.89526 1.11819 0.70526
 C1847 C 0.85900 1.14604 0.73100
 C1848 C 0.86799 1.13448 0.75635
 H1849 H 0.83163 1.08765 0.69967
 H1850 H 0.84847 1.06597 0.74538
 H1851 H 0.92622 1.09924 0.73379
 H1852 H 0.90960 1.12082 0.68695
 H1853 H 0.84948 1.16728 0.72976
 H1854 H 0.86609 1.14590 0.77665
 C1855 C 0.86463 0.62552 0.20525
 C1856 C 0.89663 0.61728 0.20567
 C1857 C 0.90547 0.60549 0.23101
 C1858 C 0.88161 0.60308 0.25400
 C1859 C 0.86932 0.63361 0.25670
 C1860 C 0.86053 0.64528 0.23135
 C1861 C 0.84874 0.59768 0.21332
 C1862 C 0.85762 0.58585 0.23866
 H1863 H 0.91100 0.61996 0.18740
 H1864 H 0.92738 0.59803 0.23423
 H1865 H 0.86743 0.64500 0.27702
 H1866 H 0.85121 0.66660 0.23004
 H1867 H 0.83278 0.58734 0.19977
 H1868 H 0.84924 0.56531 0.24555
 C1869 C 0.36345 1.12594 0.20439
 C1870 C 0.39561 1.11809 0.20480
 C1871 C 0.40466 1.10652 0.23016
 C1872 C 0.38090 1.10382 0.25320
 C1873 C 0.36818 1.13416 0.25587
 C1874 C 0.35913 1.14567 0.23052
 C1875 C 0.34799 1.09784 0.21259
 C1876 C 0.35713 1.08621 0.23793
 H1877 H 0.40994 1.12082 0.18649
 H1878 H 0.42667 1.09933 0.23334
 H1879 H 0.36618 1.14556 0.27618
 H1880 H 0.34946 1.16685 0.22928
 H1881 H 0.33224 1.08709 0.19910
 H1882 H 0.34921 1.06548 0.24480
 C1883 C 0.36377 0.62555 0.70510
 C1884 C 0.39575 0.61724 0.70551
 C1885 C 0.40459 0.60545 0.73085
 C1886 C 0.38075 0.60309 0.75385
 C1887 C 0.36851 0.63364 0.75655
 C1888 C 0.35972 0.64533 0.73119
 C1889 C 0.34782 0.59775 0.71320
 C1890 C 0.35670 0.58591 0.73854
 H1891 H 0.41011 0.61989 0.68722
 H1892 H 0.42649 0.59796 0.73405
 H1893 H 0.36666 0.64505 0.77687
 H1894 H 0.35044 0.66666 0.72989
 H1895 H 0.33180 0.58745 0.69969
 H1896 H 0.34824 0.56542 0.74548
 C1897 C 1.12265 0.86919 0.70164
 C1898 C 1.13994 0.86641 0.72963
 C1899 C 1.12622 0.87701 0.75318
 C1900 C 1.09628 0.88967 0.74693
 C1901 C 1.10136 0.91187 0.72283
 C1902 C 1.11520 0.90120 0.69927
 C1903 C 1.09367 0.85448 0.70809
 C1904 C 1.07979 0.86522 0.73161
 H1905 H 1.16114 0.85666 0.73087
 H1906 H 1.13575 0.87624 0.77453
 H1907 H 1.09412 0.93398 0.72394
 H1908 H 1.11986 0.91421 0.68043
 H1909 H 1.08404 0.83813 0.69453
 H1910 H 1.05826 0.85808 0.73694
 C1911 C 1.12266 0.36904 0.20052
 C1912 C 1.09337 0.35474 0.20684
 C1913 C 1.07964 0.36551 0.23042
 C1914 C 1.09648 0.38955 0.24598
 C1915 C 1.12621 0.37640 0.25217
 C1916 C 1.13983 0.36577 0.22857
 C1917 C 1.11564 0.40121 0.19843
 C1918 C 1.10193 0.41187 0.22206
 H1919 H 1.08333 0.33876 0.19311
 H1920 H 1.05793 0.35878 0.23559
 H1921 H 1.13568 0.37532 0.27354
 H1922 H 1.16087 0.35568 0.22985
 H1923 H 1.12042 0.41436 0.17970
 H1924 H 1.09495 0.43406 0.22333
 C1925 C 0.62189 0.86923 0.20081
 C1926 C 0.63907 0.86591 0.22884
 C1927 C 0.62556 0.87668 0.25243
 C1928 C 0.59592 0.89001 0.24624
 C1929 C 0.60148 0.91225 0.22228
 C1930 C 0.61508 0.90144 0.19865
 C1931 C 0.59253 0.85513 0.20717
 C1932 C 0.57889 0.86605 0.23075
 H1933 H 0.66005 0.85568 0.23012
 H1934 H 0.63505 0.87559 0.27379
 H1935 H 0.59464 0.93449 0.22350
 H1936 H 0.61990 0.91452 0.17988
 H1937 H 0.58237 0.83920 0.19347
 H1938 H 0.55713 0.85951 0.23593
 C1939 C 0.62252 0.36938 0.70150
 C1940 C 0.63974 0.36637 0.72950
 C1941 C 0.62600 0.37686 0.75309
 C1942 C 0.59610 0.38964 0.74686
 C1943 C 0.60131 0.41198 0.72290
 C1944 C 0.61517 0.40142 0.69931
 C1945 C 0.59347 0.35473 0.70780
 C1946 C 0.57957 0.36535 0.73135
 H1947 H 0.66091 0.35656 0.73072
 H1948 H 0.63549 0.37593 0.77445
 H1949 H 0.59412 0.43411 0.72414
 H1950 H 0.61992 0.41454 0.68056
 H1951 H 0.58379 0.33851 0.69410
 H1952 H 0.55800 0.35827 0.73657
 C1953 C 1.29887 1.13091 1.12255
 C1954 C 1.30094 1.09880 1.11526
 C1955 C 1.27728 1.08823 1.10156
 C1956 C 1.25335 1.11057 1.09639
 C1957 C 1.24727 1.12349 1.12628
 C1958 C 1.27090 1.13402 1.13989
 C1959 C 1.29243 1.14543 1.09336
 C1960 C 1.26882 1.13476 1.07965
 H1961 H 1.31966 1.08562 1.11987
 H1962 H 1.27599 1.06609 1.09443
 H1963 H 1.22596 1.12448 1.13586
 H1964 H 1.26970 1.14394 1.16103
 H1965 H 1.30607 1.16153 1.08338
 H1966 H 1.26354 1.14171 1.05803
 C1967 C 1.29906 0.63088 0.62184
 C1968 C 1.27108 0.63420 0.63910
 C1969 C 1.24748 0.62345 0.62562
 C1970 C 1.25361 0.61013 0.59593
 C1971 C 1.26910 0.63410 0.57887
 C1972 C 1.29268 0.64499 0.59247
 C1973 C 1.30117 0.59867 0.61500
 C1974 C 1.27753 0.58788 0.60144
 H1975 H 1.26983 0.64442 0.66010
 H1976 H 1.22615 0.62454 0.63517
 H1977 H 1.26391 0.64066 0.55710
 H1978 H 1.30636 0.66093 0.58227
 H1979 H 1.31991 0.58557 0.61978
 H1980 H 1.27628 0.56564 0.59460
 C1981 C 0.79875 1.13137 0.62287
 C1982 C 0.80085 1.09928 0.61551
 C1983 C 0.77723 1.08873 0.60173
 C1984 C 0.75331 1.11107 0.59655
 C1985 C 0.74715 1.12392 0.62646
 C1986 C 0.77075 1.13443 0.64015
 C1987 C 0.79237 1.14596 0.59371
 C1988 C 0.76880 1.13532 0.57991
 H1989 H 0.81956 1.08609 0.62015
 H1990 H 0.77596 1.06660 0.59455
 H1991 H 0.72581 1.12489 0.63599
 H1992 H 0.76949 1.14430 0.66132
 H1993 H 0.80600 1.16212 0.58381
 H1994 H 0.76353 1.14236 0.55832
 C1995 C 0.79842 0.63049 1.12146
 C1996 C 0.80053 0.59840 1.11425
 C1997 C 0.77683 0.58776 1.10069
 C1998 C 0.75287 0.61008 1.09560
 C1999 C 0.74691 0.62302 1.12551
 C2000 C 0.77060 0.63358 1.13896
 C2001 C 0.79190 0.64500 1.09239
 C2002 C 0.76825 0.63429 1.07876
 H2003 H 0.81930 0.58531 1.11887
 H2004 H 0.77553 0.56560 1.09362
 H2005 H 0.72565 0.62398 1.13521
 H2006 H 0.76956 0.64351 1.16010
 H2007 H 0.80553 0.66115 1.08248
 H2008 H 0.76288 0.64123 1.05716
 C2009 C 1.29439 0.87354 0.86392
 C2010 C 1.28643 0.90164 0.84829
 C2011 C 1.26114 0.91344 0.85727
 C2012 C 1.24568 0.89603 0.88107
 C2013 C 1.24289 0.86564 0.86846
 C2014 C 1.26819 0.85394 0.85957
 C2015 C 1.29387 0.88151 0.89606
 C2016 C 1.26856 0.89329 0.90496
 H2017 H 1.30000 0.91225 0.83250
 H2018 H 1.25439 0.93414 0.84917
 H2019 H 1.22254 0.85436 0.86641
 H2020 H 1.26936 0.83271 0.85000
 H2021 H 1.31206 0.87870 0.91050
 H2022 H 1.26533 0.90058 0.92695
 C2023 C 1.29517 0.37379 0.36324
 C2024 C 1.29466 0.38180 0.39537
 C2025 C 1.26931 0.39347 0.40431
 C2026 C 1.24637 0.39608 0.38045
 C2027 C 1.26173 0.41354 0.35660
 C2028 C 1.28706 0.40183 0.34759
 C2029 C 1.26904 0.35407 0.35895
 C2030 C 1.24370 0.36567 0.36787
 H2031 H 1.31288 0.37909 0.40978
 H2032 H 1.26607 0.40077 0.42629
 H2033 H 1.25490 0.43421 0.34851
 H2034 H 1.30058 0.41248 0.33177
 H2035 H 1.27028 0.33284 0.34939
 H2036 H 1.22340 0.35429 0.36588
 C2037 C 0.79475 0.87435 0.36386
 C2038 C 0.78670 0.90213 0.34784
 C2039 C 0.76138 0.91399 0.35666
 C2040 C 0.74601 0.89686 0.38074
 C2041 C 0.74333 0.86628 0.36855
 C2042 C 0.76868 0.85458 0.35981
 C2043 C 0.79426 0.88271 0.39586
 C2044 C 0.76893 0.89452 0.40464
 H2045 H 0.80025 0.91240 0.33180
 H2046 H 0.75448 0.93448 0.34816
 H2047 H 0.72303 0.85488 0.36669
 H2048 H 0.77000 0.83322 0.35056
 H2049 H 0.81249 0.88007 0.41026
 H2050 H 0.76568 0.90206 0.42654
 C2051 C 0.79479 0.37352 0.86306
 C2052 C 0.79443 0.38167 0.89516
 C2053 C 0.76912 0.39336 0.90417
 C2054 C 0.74606 0.39587 0.88043
 C2055 C 0.76129 0.41322 0.85642
 C2056 C 0.78659 0.40149 0.84733
 C2057 C 0.76864 0.35378 0.85898
 C2058 C 0.74335 0.36540 0.86799
 H2059 H 0.81272 0.37903 0.90949
 H2060 H 0.76598 0.40074 0.92615
 H2061 H 0.75437 0.43381 0.84820
 H2062 H 0.80000 0.41204 0.83135
 H2063 H 0.76984 0.33251 0.84951
 H2064 H 0.72304 0.35401 0.86614
 C2065 C 0.70534 0.87435 1.13631
 C2066 C 0.73137 0.85452 1.14031
 C2067 C 0.75674 0.86620 1.13158
 C2068 C 0.75411 0.89682 1.11945
 C2069 C 0.73117 0.89458 1.09556
 C2070 C 0.70582 0.88279 1.10433
 C2071 C 0.71344 0.90208 1.15238
 C2072 C 0.73878 0.91391 1.14358
 H2073 H 0.73002 0.83314 1.14952
 H2074 H 0.77702 0.85476 1.13341
 H2075 H 0.73442 0.90216 1.07367
 H2076 H 0.68758 0.88022 1.08993
 H2077 H 0.69992 0.91232 1.16846
 H2078 H 0.74574 0.93435 1.15214
 C2079 C 0.70538 0.37351 0.63599
 C2080 C 0.73152 0.35384 0.64045
 C2081 C 0.75687 0.36544 0.63155
 C2082 C 0.75420 0.39580 0.61884
 C2083 C 0.73134 0.39307 0.59492
 C2084 C 0.70598 0.38140 0.60383
 C2085 C 0.71341 0.40162 0.65155
 C2086 C 0.73875 0.41332 0.64256
 H2087 H 0.73027 0.33264 0.65008
 H2088 H 0.77718 0.35409 0.63365
 H2089 H 0.73463 0.40029 0.57292
 H2090 H 0.68780 0.37862 0.58938
 H2091 H 0.69983 0.41232 0.66727
 H2092 H 0.74554 0.43404 0.65058
 C2093 C 0.20546 0.87359 0.63621
 C2094 C 0.23169 0.85399 0.64040
 C2095 C 0.25696 0.86579 0.63154
 C2096 C 0.25413 0.89627 0.61913
 C2097 C 0.23120 0.89366 0.59526
 C2098 C 0.20592 0.88179 0.60412
 C2099 C 0.21343 0.90159 0.65201
 C2100 C 0.23869 0.91349 0.64307
 H2101 H 0.23056 0.83269 0.64983
 H2102 H 0.27733 0.85452 0.63349
 H2103 H 0.23439 0.90111 0.57331
 H2104 H 0.18771 0.87905 0.58970
 H2105 H 0.19989 0.91206 0.66792
 H2106 H 0.24547 0.93411 0.65133
 C2107 C 0.20472 0.37376 1.13627
 C2108 C 0.23084 0.35407 1.14068
 C2109 C 0.25619 0.36565 1.13176
 C2110 C 0.25352 0.39602 1.11907
 C2111 C 0.23064 0.39333 1.09518
 C2112 C 0.20528 0.38167 1.10411
 C2113 C 0.21278 0.40185 1.15184
 C2114 C 0.23812 0.41354 1.14283
 H2115 H 0.22960 0.33286 1.15030
 H2116 H 0.27649 0.35429 1.13383
 H2117 H 0.23391 0.40057 1.07318
 H2118 H 0.18708 0.37892 1.08968
 H2119 H 0.19922 0.41253 1.16759
 H2120 H 0.24492 0.43424 1.15086
 C2121 C 0.70128 1.13141 0.87728
 C2122 C 0.69912 1.09934 0.88471
 C2123 C 0.72273 1.08876 0.89849
 C2124 C 0.74670 1.11107 0.90361
 C2125 C 0.75286 1.12386 0.87367
 C2126 C 0.72928 1.13439 0.85997
 C2127 C 0.70771 1.14603 0.90641
 C2128 C 0.73128 1.13536 0.92021
 H2129 H 0.68038 1.08618 0.88012
 H2130 H 0.72396 1.06664 0.90572
 H2131 H 0.77420 1.12478 0.86412
 H2132 H 0.73054 1.14423 0.83879
 H2133 H 0.69412 1.16223 0.91629
 H2134 H 0.73657 1.14242 0.94179
 C2135 C 0.70135 0.63023 0.37860
 C2136 C 0.70782 0.64459 0.40774
 C2137 C 0.73144 0.63382 0.42136
 C2138 C 0.74686 0.60970 0.40445
 C2139 C 0.72291 0.58740 0.39922
 C2140 C 0.69923 0.59811 0.38566
 C2141 C 0.72920 0.63341 0.36116
 C2142 C 0.75287 0.62278 0.37461
 H2143 H 0.69415 0.66067 0.41771
 H2144 H 0.73675 0.64062 0.44302
 H2145 H 0.72420 0.56521 0.40620
 H2146 H 0.68046 0.58503 0.38097
 H2147 H 0.73027 0.64344 0.34006
 H2148 H 0.77414 0.62379 0.36494
 C2149 C 0.20167 1.13152 0.37709
 C2150 C 0.19954 1.09944 0.38451
 C2151 C 0.22318 1.08889 0.39825
 C2152 C 0.24714 1.11121 0.40335
 C2153 C 0.25325 1.12402 0.37340
 C2154 C 0.22964 1.13453 0.35975
 C2155 C 0.20811 1.14613 0.40621
 C2156 C 0.23171 1.13549 0.41998
 H2157 H 0.18080 1.08627 0.37994
 H2158 H 0.22444 1.06677 0.40547
 H2159 H 0.27457 1.12496 0.36382
 H2160 H 0.23086 1.14439 0.33856
 H2161 H 0.19451 1.16231 0.41611
 H2162 H 0.23701 1.14253 0.44156
 C2163 C 0.20087 0.62986 0.87896
 C2164 C 0.19884 0.59770 0.88591
 C2165 C 0.22254 0.58702 0.89945
 C2166 C 0.24641 0.60937 0.90477
 C2167 C 0.25241 0.62258 0.87499
 C2168 C 0.22873 0.63319 0.86156
 C2169 C 0.20726 0.64413 0.90817
 C2170 C 0.23090 0.63338 0.92177
 H2171 H 0.18012 0.58458 0.88115
 H2172 H 0.22389 0.56480 0.90635
 H2173 H 0.27369 0.62369 0.86535
 H2174 H 0.22979 0.64330 0.84050
 H2175 H 0.19353 0.66013 0.91818
 H2176 H 0.23616 0.64011 0.94347
 C2177 C 1.13436 1.29610 1.12548
 C2178 C 1.13380 1.27045 1.14621
 C2179 C 1.12439 1.24566 1.13397
 C2180 C 1.11602 1.24852 1.10196
 C2181 C 1.09412 1.27329 1.10116
 C2182 C 1.10367 1.29805 1.11339
 C2183 C 1.15282 1.28590 1.09994
 C2184 C 1.14341 1.26108 1.08768
 H2185 H 1.14076 1.27156 1.16852
 H2186 H 1.12348 1.22563 1.14589
 H2187 H 1.07293 1.27153 1.09146
 H2188 H 1.09063 1.31736 1.11416
 H2189 H 1.17217 1.29668 1.09253
 H2190 H 1.15563 1.25127 1.07047
 C2191 C 1.13519 0.79568 0.62540
 C2192 C 1.10459 0.79776 0.61311
 C2193 C 1.09497 0.77301 0.60090
 C2194 C 1.11671 0.74812 0.60192
 C2195 C 1.14427 0.76049 0.58779
 C2196 C 1.15375 0.78529 0.60002
 C2197 C 1.13434 0.77009 0.64621
 C2198 C 1.12485 0.74532 0.63399
 H2199 H 1.09166 0.81715 0.61374
 H2200 H 1.07382 0.77136 0.59108
 H2201 H 1.15658 0.75051 0.57073
 H2202 H 1.17324 0.79591 0.59273
 H2203 H 1.14118 0.77122 0.66856
 H2204 H 1.12375 0.72533 0.64596
 C2205 C 0.63490 1.29588 0.62533
 C2206 C 0.60434 1.29803 0.61295
 C2207 C 0.59467 1.27327 0.60081
 C2208 C 0.61632 1.24832 0.60198
 C2209 C 0.64398 1.26052 0.58789
 C2210 C 0.65350 1.28534 0.60004
 C2211 C 0.63391 1.27037 0.64624
 C2212 C 0.62437 1.24559 0.63408
 H2213 H 0.59147 1.31747 0.61348
 H2214 H 0.57354 1.27165 0.59094
 H2215 H 0.65637 1.25037 0.57100
 H2216 H 0.67309 1.29583 0.59283
 H2217 H 0.64070 1.27156 0.66860
 H2218 H 0.62319 1.22565 0.64612
 C2219 C 0.63346 0.79615 1.12576
 C2220 C 0.63289 0.77047 1.14646
 C2221 C 0.62351 0.74569 1.13418
 C2222 C 0.61519 0.74858 1.10216
 C2223 C 0.59327 0.77333 1.10136
 C2224 C 0.60278 0.79809 1.11364
 C2225 C 0.65195 0.78599 1.10023
 C2226 C 0.64258 0.76118 1.08793
 H2227 H 0.63980 0.77157 1.16879
 H2228 H 0.62259 0.72565 1.14607
 H2229 H 0.57209 0.77157 1.09163
 H2230 H 0.58972 0.81739 1.11442
 H2231 H 0.67128 0.79681 1.09282
 H2232 H 0.65480 0.75145 1.07067
 C2233 C 0.86524 1.29596 0.87410
 C2234 C 0.89595 1.29807 0.88611
 C2235 C 0.90559 1.27340 0.89849
 C2236 C 0.88376 1.24857 0.89789
 C2237 C 0.85637 1.26115 0.91215
 C2238 C 0.84686 1.28586 0.89975
 C2239 C 0.86583 1.27019 0.85353
 C2240 C 0.87534 1.24550 0.86592
 H2241 H 0.90893 1.31741 0.88519
 H2242 H 0.92681 1.27177 0.90816
 H2243 H 0.84426 1.25146 0.92951
 H2244 H 0.82752 1.29666 0.90716
 H2245 H 0.85883 1.27115 0.83123
 H2246 H 0.87629 1.22541 0.85412
 C2247 C 0.86650 0.79603 0.37432
 C2248 C 0.89717 0.79791 0.38647
 C2249 C 0.90664 0.77312 0.39872
 C2250 C 0.88470 0.74839 0.39786
 C2251 C 0.85732 0.76099 0.41209
 C2252 C 0.84798 0.78583 0.39983
 C2253 C 0.86706 0.77040 0.35358
 C2254 C 0.87640 0.74558 0.36583
 H2255 H 0.91025 0.81721 0.38573
 H2256 H 0.92782 0.77132 0.40846
 H2257 H 0.84507 0.75123 0.42932
 H2258 H 0.82865 0.79666 0.40723
 H2259 H 0.86016 0.77154 0.33125
 H2260 H 0.87731 0.72556 0.35390
 C2261 C 0.36564 1.29621 0.37413
 C2262 C 0.36638 1.27057 0.35339
 C2263 C 0.37590 1.24583 0.36566
 C2264 C 0.38418 1.24873 0.39769
 C2265 C 0.40594 1.27361 0.39854
 C2266 C 0.39629 1.29832 0.38628
 C2267 C 0.34717 1.28591 0.39962
 C2268 C 0.35668 1.26114 0.41189
 H2269 H 0.35946 1.27165 0.33107
 H2270 H 0.37693 1.22581 0.35375
 H2271 H 0.42713 1.27197 0.40829
 H2272 H 0.40923 1.31771 0.38554
 H2273 H 0.32771 1.29655 0.40694
 H2274 H 0.34442 1.25120 0.42902
 C2275 C 0.36471 0.79569 0.87453
 C2276 C 0.39525 0.79780 0.88695
 C2277 C 0.40488 0.77302 0.89911
 C2278 C 0.38320 0.74809 0.89790
 C2279 C 0.35554 0.76031 0.91195
 C2280 C 0.34606 0.78515 0.89978
 C2281 C 0.36571 0.77020 0.85362
 C2282 C 0.37520 0.74539 0.86578
 H2283 H 0.40814 0.81722 0.88645
 H2284 H 0.42599 0.77137 0.90901
 H2285 H 0.34311 0.75015 0.92881
 H2286 H 0.32647 0.79564 0.90697
 H2287 H 0.35896 0.77141 0.83125
 H2288 H 0.37638 0.72546 0.85374
 C2289 C 1.12445 0.70333 0.86692
 C2290 C 1.09856 0.71314 0.84876
 C2291 C 1.08631 0.73799 0.85806
 C2292 C 1.10097 0.75103 0.88501
 C2293 C 1.10065 0.72654 0.90728
 C2294 C 1.11288 0.70171 0.89786
 C2295 C 1.14502 0.72909 0.86677
 C2296 C 1.13279 0.75393 0.87606
 H2297 H 1.09072 0.70191 0.82984
 H2298 H 1.06856 0.74728 0.84623
 H2299 H 1.09126 0.72852 0.92863
 H2300 H 1.11395 0.68257 0.91115
 H2301 H 1.16721 0.72799 0.85949
 H2302 H 1.14461 0.77402 0.87655
 C2303 C 1.12616 0.20397 0.36549
 C2304 C 1.10033 0.21377 0.34725
 C2305 C 1.08790 0.23850 0.35666
 C2306 C 1.10233 0.25140 0.38381
 C2307 C 1.10201 0.22675 0.40589
 C2308 C 1.11442 0.20207 0.39636
 C2309 C 1.14659 0.22983 0.36566
 C2310 C 1.13418 0.25454 0.37506
 H2311 H 1.09273 0.20269 0.32814
 H2312 H 1.07025 0.24786 0.34474
 H2313 H 1.09250 0.22852 0.42720
 H2314 H 1.11553 0.18283 0.40951
 H2315 H 1.16883 0.22892 0.35847
 H2316 H 1.14589 0.27470 0.37575
 C2317 C 0.62513 0.70393 0.36653
 C2318 C 0.61322 0.70223 0.39734
 C2319 C 0.60103 0.72708 0.40675
 C2320 C 0.60171 0.75166 0.38460
 C2321 C 0.63364 0.75445 0.37600
 C2322 C 0.64583 0.72958 0.36672
 C2323 C 0.59949 0.71397 0.34814
 C2324 C 0.58729 0.73885 0.35741
 H2325 H 0.61408 0.68303 0.41056
 H2326 H 0.59145 0.72902 0.42801
 H2327 H 0.64555 0.77448 0.37668
 H2328 H 0.66809 0.72840 0.35965
 H2329 H 0.59191 0.70298 0.32897
 H2330 H 0.56992 0.74845 0.34527
 C2331 C 0.62586 0.20393 0.86570
 C2332 C 0.60012 0.21384 0.84739
 C2333 C 0.58770 0.23856 0.85683
 C2334 C 0.60203 0.25134 0.88409
 C2335 C 0.60159 0.22662 0.90608
 C2336 C 0.61399 0.20194 0.89651
 C2337 C 0.64633 0.22976 0.86603
 C2338 C 0.63393 0.25446 0.87547
 H2339 H 0.59263 0.20289 0.82817
 H2340 H 0.57021 0.24808 0.84480
 H2341 H 0.59200 0.22834 0.92736
 H2342 H 0.61501 0.18267 0.90961
 H2343 H 0.66859 0.22883 0.85892
 H2344 H 0.64566 0.27459 0.87626
 C2345 C 0.87493 0.70389 1.13354
 C2346 C 0.88660 0.70228 1.10264
 C2347 C 0.89888 0.72711 1.09326
 C2348 C 0.89850 0.75158 1.11553
 C2349 C 0.86665 0.75450 1.12437
 C2350 C 0.85438 0.72966 1.13361
 C2351 C 0.90076 0.71368 1.15179
 C2352 C 0.91305 0.73853 1.14254
 H2353 H 0.88555 0.68315 1.08934
 H2354 H 0.90833 0.72909 1.07194
 H2355 H 0.85485 0.77461 1.12385
 H2356 H 0.83216 0.72858 1.14083
 H2357 H 0.90848 0.70249 1.17079
 H2358 H 0.93068 0.74788 1.15450
 C2359 C 0.87442 0.20369 0.63431
 C2360 C 0.88596 0.20178 0.60337
 C2361 C 0.89844 0.22642 0.59379
 C2362 C 0.89839 0.25103 0.61590
 C2363 C 0.86661 0.25432 0.62485
 C2364 C 0.85412 0.22966 0.63431
 C2365 C 0.90042 0.21332 0.65240
 C2366 C 0.91293 0.23799 0.64293
 H2367 H 0.88467 0.18258 0.59020
 H2368 H 0.90784 0.22817 0.57243
 H2369 H 0.85500 0.27453 0.62424
 H2370 H 0.83192 0.22884 0.64162
 H2371 H 0.90815 0.20210 0.67137
 H2372 H 0.93083 0.24713 0.65465
 C2373 C 0.37431 0.70382 0.63330
 C2374 C 0.38592 0.70218 0.60237
 C2375 C 0.39829 0.72695 0.59297
 C2376 C 0.39809 0.75142 0.61525
 C2377 C 0.36627 0.75448 0.62417
 C2378 C 0.35389 0.72969 0.63343
 C2379 C 0.40024 0.71349 0.65149
 C2380 C 0.41265 0.73828 0.64221
 H2381 H 0.38474 0.68306 0.58906
 H2382 H 0.40772 0.72889 0.57164
 H2383 H 0.35457 0.77464 0.62367
 H2384 H 0.33168 0.72871 0.64068
 H2385 H 0.40801 0.70220 0.67041
 H2386 H 0.43044 0.74746 0.65405
 C2387 C 0.37430 0.20348 1.13395
 C2388 C 0.40023 0.21320 1.15208
 C2389 C 0.41263 0.23795 1.14268
 C2390 C 0.39806 0.25096 1.11567
 C2391 C 0.39824 0.22640 1.09350
 C2392 C 0.38587 0.20168 1.10302
 C2393 C 0.35388 0.22935 1.13398
 C2394 C 0.36625 0.25409 1.12459
 H2395 H 0.40797 0.20201 1.17108
 H2396 H 0.43040 0.24721 1.15450
 H2397 H 0.40765 0.22825 1.07215
 H2398 H 0.38469 0.18250 1.08980
 H2399 H 0.33168 0.22841 1.14127
 H2400 H 0.35455 0.27425 1.12403
 C2401 C 1.12134 1.13134 0.70110
 C2402 C 1.09214 1.14556 0.70754
 C2403 C 1.07853 1.13469 0.73116
 C2404 C 1.09552 1.11062 0.74661
 C2405 C 1.10091 1.08838 0.72263
 C2406 C 1.11444 1.09918 0.69895
 C2407 C 1.13868 1.13457 0.72901
 C2408 C 1.12525 1.12384 0.75267
 H2409 H 1.08216 1.16161 0.69386
 H2410 H 1.05685 1.14139 0.73644
 H2411 H 1.09406 1.06615 0.72390
 H2412 H 1.11924 1.08615 0.68016
 H2413 H 1.15970 1.14471 0.73012
 H2414 H 1.13485 1.12488 0.77398
 C2415 C 1.12190 0.63183 0.20079
 C2416 C 1.09252 0.64580 0.20726
 C2417 C 1.07898 0.63475 0.23084
 C2418 C 1.09612 0.61077 0.24624
 C2419 C 1.10169 0.58864 0.22221
 C2420 C 1.11517 0.59959 0.19857
 C2421 C 1.13914 0.63509 0.22879
 C2422 C 1.12573 0.62418 0.25239
 H2423 H 1.08229 0.66175 0.19363
 H2424 H 1.05720 0.64120 0.23608
 H2425 H 1.09494 0.56638 0.22339
 H2426 H 1.11997 0.58659 0.17974
 H2427 H 1.16008 0.64540 0.23005
 H2428 H 1.13528 0.62523 0.27373
 C2429 C 0.62199 1.13213 0.20052
 C2430 C 0.61521 1.09991 0.19834
 C2431 C 0.60162 1.08905 0.22196
 C2432 C 0.59603 1.11125 0.24593
 C2433 C 0.62565 1.12461 0.25214
 C2434 C 0.63916 1.13543 0.22856
 C2435 C 0.59262 1.14619 0.20687
 C2436 C 0.57899 1.13523 0.23044
 H2437 H 0.62005 1.08686 0.17956
 H2438 H 0.59481 1.06680 0.22317
 H2439 H 0.63513 1.12569 0.27351
 H2440 H 0.66012 1.14569 0.22986
 H2441 H 0.58247 1.16214 0.19318
 H2442 H 0.55722 1.14175 0.23562
 C2443 C 0.62157 0.63069 0.70150
 C2444 C 0.63887 0.63379 0.72944
 C2445 C 0.62532 0.62313 0.75307
 C2446 C 0.59552 0.61011 0.74693
 C2447 C 0.57872 0.63429 0.73150
 C2448 C 0.59244 0.64509 0.70791
 C2449 C 0.61448 0.59858 0.69930
 C2450 C 0.60081 0.58785 0.72294
 H2451 H 0.65996 0.64379 0.73060
 H2452 H 0.63488 0.62410 0.77440
 H2453 H 0.55708 0.64115 0.73677
 H2454 H 0.58258 0.66123 0.69424
 H2455 H 0.61924 0.58553 0.68051
 H2456 H 0.59382 0.56566 0.72418
 C2457 C 0.86480 0.87458 0.70517
 C2458 C 0.89677 0.88292 0.70571
 C2459 C 0.90548 0.89470 0.73109
 C2460 C 0.88154 0.89701 0.75400
 C2461 C 0.85754 0.91418 0.73860
 C2462 C 0.84879 0.90236 0.71323
 C2463 C 0.86066 0.85477 0.73123
 C2464 C 0.86933 0.86644 0.75663
 H2465 H 0.91120 0.88030 0.68748
 H2466 H 0.92736 0.90223 0.73438
 H2467 H 0.84906 0.93467 0.74551
 H2468 H 0.83283 0.91267 0.69964
 H2469 H 0.85142 0.83342 0.72987
 H2470 H 0.86741 0.85501 0.77693
 C2471 C 0.86422 0.37371 0.20474
 C2472 C 0.86000 0.35400 0.23092
 C2473 C 0.86888 0.36566 0.25625
 C2474 C 0.88135 0.39611 0.25351
 C2475 C 0.90519 0.39355 0.23052
 C2476 C 0.89629 0.38182 0.20518
 C2477 C 0.84850 0.40171 0.21285
 C2478 C 0.85747 0.41347 0.23817
 H2479 H 0.85052 0.33273 0.22972
 H2480 H 0.86693 0.35429 0.27659
 H2481 H 0.92712 0.40095 0.23371
 H2482 H 0.91068 0.37915 0.18692
 H2483 H 0.83265 0.41229 0.19933
 H2484 H 0.84932 0.43411 0.24502
 C2485 C 0.36452 0.87365 0.20537
 C2486 C 0.36058 0.85397 0.23156
 C2487 C 0.36930 0.86582 0.25685
 C2488 C 0.38136 0.89644 0.25400
 C2489 C 0.40521 0.89411 0.23100
 C2490 C 0.39645 0.88214 0.20572
 C2491 C 0.34841 0.90141 0.21335
 C2492 C 0.35721 0.91341 0.23862
 H2493 H 0.35143 0.83257 0.23036
 H2494 H 0.36751 0.85450 0.27723
 H2495 H 0.42707 0.90175 0.23415
 H2496 H 0.41081 0.87948 0.18745
 H2497 H 0.33231 0.91155 0.19980
 H2498 H 0.34862 0.93386 0.24549
 C2499 C 0.36383 0.37254 0.70520
 C2500 C 0.39584 0.38090 0.70563
 C2501 C 0.40464 0.39278 0.73093
 C2502 C 0.38079 0.39523 0.75392
 C2503 C 0.35677 0.41235 0.73854
 C2504 C 0.34789 0.40045 0.71324
 C2505 C 0.35976 0.35288 0.73144
 C2506 C 0.36855 0.36468 0.75674
 H2507 H 0.41025 0.37826 0.68738
 H2508 H 0.42652 0.40033 0.73411
 H2509 H 0.34837 0.43290 0.74537
 H2510 H 0.33191 0.41084 0.69974
 H2511 H 0.35045 0.33153 0.73030
 H2512 H 0.36667 0.35337 0.77712
 C2513 C 1.13616 0.87381 1.29522
 C2514 C 1.14050 0.85420 1.26900
 C2515 C 1.13163 0.86592 1.24369
 C2516 C 1.11906 0.89632 1.24648
 C2517 C 1.09518 0.89361 1.26942
 C2518 C 1.10406 0.88182 1.29474
 C2519 C 1.15180 0.90190 1.28722
 C2520 C 1.14284 0.91371 1.26192
 H2521 H 1.15003 0.83296 1.27017
 H2522 H 1.13365 0.85463 1.22332
 H2523 H 1.07323 0.90095 1.26620
 H2524 H 1.08964 0.87903 1.31297
 H2525 H 1.16758 0.91250 1.30080
 H2526 H 1.15093 0.93441 1.25515
 C2527 C 1.13618 0.37246 0.79477
 C2528 C 1.14016 0.35284 0.76850
 C2529 C 1.13138 0.36473 0.74323
 C2530 C 1.11922 0.39530 0.74612
 C2531 C 1.09540 0.39287 0.76913
 C2532 C 1.10419 0.38090 0.79441
 C2533 C 1.15218 0.40035 0.78675
 C2534 C 1.14331 0.41232 0.76149
 H2535 H 1.14941 0.33147 0.76960
 H2536 H 1.13319 0.35345 0.72284
 H2537 H 1.07353 0.40049 0.76600
 H2538 H 1.08979 0.37826 0.81267
 H2539 H 1.16821 0.41067 0.80024
 H2540 H 1.15176 0.43286 0.75465
 C2541 C 0.63508 0.87462 0.79488
 C2542 C 0.63919 0.85479 0.76883
 C2543 C 0.63050 0.86645 0.74343
 C2544 C 0.61829 0.89702 0.74605
 C2545 C 0.59437 0.89472 0.76898
 C2546 C 0.60311 0.88295 0.79437
 C2547 C 0.65108 0.90239 0.78679
 C2548 C 0.64230 0.91420 0.76141
 H2549 H 0.64844 0.83345 0.77020
 H2550 H 0.63240 0.85501 0.72314
 H2551 H 0.57249 0.90223 0.76570
 H2552 H 0.58869 0.88034 0.81261
 H2553 H 0.66705 0.91271 0.80036
 H2554 H 0.65077 0.93469 0.75449
 C2555 C 0.63473 0.37378 1.29525
 C2556 C 0.60290 0.38261 1.29479
 C2557 C 0.59425 0.39436 1.26936
 C2558 C 0.61813 0.39619 1.24634
 C2559 C 0.64247 0.41307 1.26152
 C2560 C 0.65113 0.40127 1.28694
 C2561 C 0.63845 0.35376 1.26930
 C2562 C 0.62986 0.36542 1.24386
 H2563 H 0.58849 0.38029 1.31308
 H2564 H 0.57247 0.40217 1.26609
 H2565 H 0.65134 0.43332 1.25440
 H2566 H 0.66736 0.41138 1.30035
 H2567 H 0.64737 0.33228 1.27076
 H2568 H 0.63154 0.35384 1.22362
 C2569 C 0.87834 1.13198 1.29937
 C2570 C 0.86119 1.13524 1.27131
 C2571 C 0.87471 1.12441 1.24775
 C2572 C 0.90435 1.11109 1.25399
 C2573 C 0.92136 1.13510 1.26946
 C2574 C 0.90771 1.14606 1.29300
 C2575 C 0.88516 1.09977 1.30159
 C2576 C 0.89877 1.08891 1.27799
 H2577 H 0.84022 1.14548 1.26999
 H2578 H 0.86525 1.12547 1.22638
 H2579 H 0.94311 1.14166 1.26426
 H2580 H 0.91783 1.16204 1.30666
 H2581 H 0.88032 1.08672 1.32038
 H2582 H 0.90560 1.06666 1.27681
 C2583 C 0.87832 0.63073 0.79842
 C2584 C 0.90741 0.64517 0.79193
 C2585 C 0.92111 0.63439 0.76833
 C2586 C 0.90432 0.61016 0.75295
 C2587 C 0.89911 0.58791 0.77698
 C2588 C 0.88548 0.59863 0.80064
 C2589 C 0.86096 0.63377 0.77050
 C2590 C 0.87448 0.62312 0.74686
 H2591 H 0.91727 0.66134 0.80556
 H2592 H 0.94272 0.64128 0.76300
 H2593 H 0.90615 0.56574 0.77576
 H2594 H 0.88077 0.58559 0.81945
 H2595 H 0.83985 0.64373 0.76938
 H2596 H 0.86488 0.62405 0.72555
 C2597 C 0.37802 1.13191 0.79918
 C2598 C 0.36076 1.13522 0.77119
 C2599 C 0.37421 1.12447 0.74755
 C2600 C 0.40389 1.11116 0.75364
 C2601 C 0.42092 1.13515 0.76911
 C2602 C 0.40734 1.14604 0.79273
 C2603 C 0.38489 1.09970 0.80128
 C2604 C 0.39841 1.08891 0.77759
 H2605 H 0.33977 1.14544 0.76998
 H2606 H 0.36466 1.12557 0.72622
 H2607 H 0.44265 1.14175 0.76386
 H2608 H 0.41751 1.16200 0.80640
 H2609 H 0.38013 1.08660 0.82005
 H2610 H 0.40525 1.06668 0.77633
 C2611 C 0.37826 0.63088 1.29926
 C2612 C 0.40770 0.64479 1.29287
 C2613 C 0.42118 0.63386 1.26921
 C2614 C 0.40394 0.61008 1.25366
 C2615 C 0.39829 0.58779 1.27754
 C2616 C 0.38485 0.59860 1.30126
 C2617 C 0.36102 0.63443 1.27129
 C2618 C 0.37437 0.62364 1.24761
 H2619 H 0.41802 0.66056 1.30663
 H2620 H 0.44300 0.64022 1.26403
 H2621 H 0.40497 0.56551 1.27621
 H2622 H 0.38001 0.58549 1.31999
 H2623 H 0.34011 0.64481 1.27011
 H2624 H 0.36482 0.62488 1.22629
 C2625 C 1.12581 1.29582 0.86461
 C2626 C 1.10045 1.28525 0.84605
 C2627 C 1.08826 1.26047 0.85567
 C2628 C 1.10231 1.24828 0.88334
 C2629 C 1.13437 1.24546 0.87523
 C2630 C 1.14660 1.27019 0.86561
 C2631 C 1.11341 1.29800 0.89524
 C2632 C 1.10122 1.27327 0.90496
 H2633 H 1.09315 1.29563 0.82642
 H2634 H 1.07134 1.25034 0.84332
 H2635 H 1.14632 1.22548 0.87642
 H2636 H 1.16894 1.27122 0.85875
 H2637 H 1.11391 1.31744 0.90813
 H2638 H 1.09134 1.27169 0.92612
 C2639 C 1.12563 0.79589 0.36555
 C2640 C 1.10030 0.78549 0.34696
 C2641 C 1.08815 0.76061 0.35636
 C2642 C 1.10231 0.74819 0.38388
 C2643 C 1.13436 0.74551 0.37568
 C2644 C 1.14650 0.77037 0.36627
 C2645 C 1.11336 0.79781 0.39620
 C2646 C 1.10123 0.77298 0.40574
 H2647 H 1.09299 0.79616 0.32749
 H2648 H 1.07116 0.75062 0.34401
 H2649 H 1.14638 0.72556 0.37669
 H2650 H 1.16882 0.77160 0.35941
 H2651 H 1.11393 0.81715 0.40922
 H2652 H 1.09142 0.77121 0.42692
 C2653 C 0.62414 1.29766 0.36748
 C2654 C 0.64294 1.27092 0.36328
 C2655 C 0.63056 1.24623 0.37276
 C2656 C 0.60038 1.25015 0.38588
 C2657 C 0.60427 1.27321 0.40934
 C2658 C 0.61664 1.29794 0.39978
 C2659 C 0.59548 1.29036 0.35249
 C2660 C 0.58301 1.26572 0.36208
 H2661 H 0.66413 1.27127 0.35336
 H2662 H 0.64123 1.22559 0.37085
 H2663 H 0.59732 1.27050 0.43152
 H2664 H 0.62025 1.31619 0.41386
 H2665 H 0.58500 1.30399 0.33667
 H2666 H 0.56197 1.25956 0.35427
 C2667 C 0.62445 0.79642 0.86677
 C2668 C 0.64483 0.77053 0.86640
 C2669 C 0.63250 0.74573 0.87567
 C2670 C 0.60075 0.74880 0.88483
 C2671 C 0.60075 0.77320 0.90720
 C2672 C 0.61308 0.79798 0.89779
 C2673 C 0.59837 0.78687 0.84875
 C2674 C 0.58600 0.76206 0.85804
 H2675 H 0.66699 0.77151 0.85898
 H2676 H 0.64419 0.72556 0.87601
 H2677 H 0.59147 0.77120 0.92859
 H2678 H 0.61437 0.81706 0.91115
 H2679 H 0.59043 0.79827 0.82997
 H2680 H 0.56802 0.75301 0.84638
 C2681 C 0.87505 1.29599 1.13436
 C2682 C 0.85443 1.27027 1.13408
 C2683 C 0.86669 1.24548 1.12469
 C2684 C 0.89861 1.24840 1.11606
 C2685 C 0.89918 1.27308 1.09402
 C2686 C 0.88692 1.29784 1.10355
 C2687 C 0.90073 1.28596 1.15269
 C2688 C 0.91301 1.26115 1.14329
 H2689 H 0.83218 1.27133 1.14120
 H2690 H 0.85485 1.22541 1.12394
 H2691 H 0.90875 1.27127 1.07274
 H2692 H 0.88601 1.31710 1.09041
 H2693 H 0.90830 1.29691 1.17189
 H2694 H 0.93045 1.25157 1.15534
 C2695 C 0.87526 0.79635 0.63327
 C2696 C 0.90098 0.78640 0.65158
 C2697 C 0.91324 0.76156 0.64227
 C2698 C 0.89878 0.74869 0.61513
 C2699 C 0.86688 0.74580 0.62383
 C2700 C 0.85464 0.77063 0.63314
 C2701 C 0.88707 0.79808 0.60242
 C2702 C 0.89931 0.77327 0.59298
 H2703 H 0.90862 0.79744 0.67070
 H2704 H 0.93073 0.75204 0.65431
 H2705 H 0.85503 0.72574 0.62319
 H2706 H 0.83240 0.77174 0.64028
 H2707 H 0.88611 0.81728 0.58921
 H2708 H 0.90883 0.77137 0.57169
 C2709 C 0.37432 1.29608 0.63528
 C2710 C 0.35364 1.27036 0.63445
 C2711 C 0.36595 1.24567 0.62484
 C2712 C 0.39795 1.24861 0.61659
 C2713 C 0.39884 1.27356 0.59489
 C2714 C 0.38658 1.29825 0.60460
 C2715 C 0.39982 1.28567 0.65376
 C2716 C 0.41208 1.26093 0.64415
 H2717 H 0.33132 1.27132 0.64138
 H2718 H 0.35407 1.22564 0.62374
 H2719 H 0.40866 1.27198 0.57370
 H2720 H 0.38595 1.31766 0.59166
 H2721 H 0.40722 1.29617 0.67328
 H2722 H 0.42920 1.25099 0.65638
 C2723 C 0.37418 0.79639 1.13426
 C2724 C 0.35343 0.77072 1.13377
 C2725 C 0.36562 0.74591 1.12434
 C2726 C 0.39760 0.74868 1.11592
 C2727 C 0.39845 0.77342 1.09397
 C2728 C 0.38630 0.79825 1.10350
 C2729 C 0.39975 0.78607 1.15271
 C2730 C 0.41190 0.76123 1.14328
 H2731 H 0.33114 0.77181 1.14079
 H2732 H 0.35368 0.72590 1.12348
 H2733 H 0.40815 0.77162 1.07276
 H2734 H 0.38564 0.81753 1.09038
 H2735 H 0.40732 0.79676 1.17207
 H2736 H 0.42908 0.75140 1.15550
 C2737 C 0.86619 0.70421 0.87492
 C2738 C 0.86628 0.72999 0.85435
 C2739 C 0.87559 0.75479 0.86665
 C2740 C 0.88434 0.75182 0.89854
 C2741 C 0.85727 0.73889 0.91307
 C2742 C 0.84795 0.71408 0.90076
 C2743 C 0.89703 0.70247 0.88665
 C2744 C 0.90648 0.72725 0.89894
 H2745 H 0.85911 0.72895 0.83210
 H2746 H 0.87622 0.77489 0.85484
 H2747 H 0.84532 0.74830 0.93070
 H2748 H 0.82889 0.70298 0.90845
 H2749 H 0.91024 0.68328 0.88561
 H2750 H 0.92776 0.72913 0.90843
 C2751 C 0.86619 0.20368 0.37382
 C2752 C 0.86681 0.22942 0.35315
 C2753 C 0.87627 0.25416 0.36547
 C2754 C 0.88461 0.25122 0.39748
 C2755 C 0.85721 0.23870 0.41171
 C2756 C 0.84774 0.21393 0.39944
 C2757 C 0.89689 0.20167 0.38597
 C2758 C 0.90646 0.22641 0.39825
 H2759 H 0.85984 0.22846 0.33083
 H2760 H 0.87722 0.27422 0.35361
 H2761 H 0.84499 0.24851 0.42893
 H2762 H 0.82834 0.20328 0.40694
 H2763 H 0.90994 0.18235 0.38525
 H2764 H 0.92764 0.22811 0.40799
 C2765 C 0.36685 0.70397 0.37443
 C2766 C 0.36689 0.72975 0.35386
 C2767 C 0.37612 0.75458 0.36617
 C2768 C 0.38484 0.75164 0.39808
 C2769 C 0.35779 0.73863 0.41258
 C2770 C 0.34855 0.71380 0.40025
 C2771 C 0.39768 0.70232 0.38619
 C2772 C 0.40705 0.72713 0.39850
 H2773 H 0.35976 0.72868 0.33160
 H2774 H 0.37672 0.77468 0.35436
 H2775 H 0.34582 0.74799 0.43021
 H2776 H 0.32953 0.70263 0.40795
 H2777 H 0.41095 0.68317 0.38516
 H2778 H 0.42832 0.72907 0.40801
 C2779 C 0.36617 0.20316 0.87419
 C2780 C 0.34836 0.21261 0.90058
 C2781 C 0.35775 0.23731 0.91302
 C2782 C 0.38440 0.25067 0.89812
 C2783 C 0.40673 0.22626 0.89780
 C2784 C 0.39726 0.20155 0.88537
 C2785 C 0.36566 0.22925 0.85398
 C2786 C 0.37503 0.25396 0.86644
 H2787 H 0.32971 0.20118 0.90879
 H2788 H 0.34632 0.24614 0.93128
 H2789 H 0.42815 0.22819 0.90697
 H2790 H 0.41064 0.18249 0.88394
 H2791 H 0.35810 0.22851 0.83185
 H2792 H 0.37532 0.27421 0.85489
 C2793 C 1.13399 0.70367 1.12633
 C2794 C 1.10321 0.70183 1.11434
 C2795 C 1.09372 0.72662 1.10206
 C2796 C 1.11571 0.75131 1.10267
 C2797 C 1.12423 0.75423 1.13463
 C2798 C 1.13362 0.72945 1.14695
 C2799 C 1.15235 0.71380 1.10058
 C2800 C 1.14296 0.73860 1.08831
 H2801 H 1.09006 0.68259 1.11517
 H2802 H 1.07250 0.72842 1.09242
 H2803 H 1.12344 0.77431 1.14647
 H2804 H 1.14068 0.72847 1.16924
 H2805 H 1.17160 0.70299 1.09294
 H2806 H 1.15507 0.74825 1.07092
 C2807 C 1.13399 0.20356 0.62525
 C2808 C 1.15220 0.21359 0.59936
 C2809 C 1.14280 0.23840 0.58712
 C2810 C 1.11571 0.25122 0.60168
 C2811 C 1.09363 0.22661 0.60125
 C2812 C 1.10312 0.20180 0.61348
 C2813 C 1.13386 0.22936 0.64584
 C2814 C 1.12447 0.25415 0.63357
 H2815 H 1.17131 0.20265 0.59154
 H2816 H 1.15476 0.24791 0.56956
 H2817 H 1.07235 0.22846 0.59174
 H2818 H 1.08991 0.18260 0.61441
 H2819 H 1.14107 0.22837 0.66809
 H2820 H 1.12382 0.27424 0.64539
 C2821 C 0.63382 0.70432 0.62516
 C2822 C 0.63343 0.72999 0.64586
 C2823 C 0.62409 0.75481 0.63362
 C2824 C 0.61561 0.75197 0.60164
 C2825 C 0.64289 0.73927 0.58728
 C2826 C 0.65223 0.71443 0.59954
 C2827 C 0.60309 0.70249 0.61317
 C2828 C 0.59361 0.72729 0.60094
 H2829 H 0.64044 0.72886 0.66816
 H2830 H 0.62327 0.77484 0.64553
 H2831 H 0.65501 0.74892 0.56990
 H2832 H 0.67146 0.70352 0.59200
 H2833 H 0.58997 0.68323 0.61401
 H2834 H 0.57239 0.72912 0.59129
 C2835 C 0.63417 0.20379 1.12599
 C2836 C 0.63360 0.22956 1.14662
 C2837 C 0.62415 0.25430 1.13428
 C2838 C 0.61577 0.25135 1.10229
 C2839 C 0.64315 0.23878 1.08803
 C2840 C 0.65260 0.21401 1.10033
 C2841 C 0.60345 0.20182 1.11387
 C2842 C 0.59390 0.22656 1.10157
 H2843 H 0.64059 0.22859 1.16894
 H2844 H 0.62323 0.27436 1.14613
 H2845 H 0.65531 0.24851 1.07073
 H2846 H 0.67195 0.20330 1.09279
 H2847 H 0.59039 0.18251 1.11463
 H2848 H 0.57271 0.22827 1.09185
 C2849 C 1.29485 1.12634 0.86397
 C2850 C 1.26880 1.14618 0.86017
 C2851 C 1.24347 1.13446 0.86896
 C2852 C 1.24616 1.10380 0.88096
 C2853 C 1.26138 1.08680 0.85669
 C2854 C 1.28669 1.09868 0.84782
 C2855 C 1.29451 1.11777 0.89592
 C2856 C 1.26920 1.10595 0.90476
 H2857 H 1.27010 1.16759 0.85103
 H2858 H 1.22318 1.14591 0.86726
 H2859 H 1.25438 1.06642 0.84804
 H2860 H 1.30013 1.08852 0.83162
 H2861 H 1.31281 1.12029 0.91025
 H2862 H 1.26604 1.09829 0.92664
 C2863 C 1.29514 0.62566 0.36407
 C2864 C 1.29468 0.61733 0.39608
 C2865 C 1.26935 0.60552 0.40489
 C2866 C 1.24642 0.60317 0.38100
 C2867 C 1.24373 0.63374 0.36877
 C2868 C 1.26907 0.64543 0.36000
 C2869 C 1.28709 0.59786 0.34809
 C2870 C 1.26177 0.58601 0.35695
 H2871 H 1.31292 0.61997 0.41046
 H2872 H 1.26612 0.59800 0.42681
 H2873 H 1.22343 0.64514 0.36691
 H2874 H 1.27039 0.66678 0.35072
 H2875 H 1.30064 0.58756 0.33208
 H2876 H 1.25488 0.56550 0.34851
 C2877 C 0.79485 1.12679 0.36378
 C2878 C 0.76880 1.14662 0.35982
 C2879 C 0.74345 1.13492 0.36856
 C2880 C 0.74610 1.10429 0.38065
 C2881 C 0.76141 1.08723 0.35650
 C2882 C 0.78674 1.09908 0.34768
 C2883 C 0.79439 1.11832 0.39575
 C2884 C 0.76905 1.10651 0.40453
 H2885 H 0.77014 1.16801 0.35064
 H2886 H 0.72316 1.14636 0.36676
 H2887 H 0.75446 1.06680 0.34792
 H2888 H 0.80025 1.08887 0.33158
 H2889 H 0.81264 1.12088 0.41014
 H2890 H 0.76582 1.09890 0.42642
 C2891 C 0.79438 0.62598 0.86452
 C2892 C 0.76832 0.64574 0.86036
 C2893 C 0.74296 0.63406 0.86911
 C2894 C 0.74563 0.60353 0.88144
 C2895 C 0.76103 0.58631 0.85745
 C2896 C 0.78636 0.59814 0.84861
 C2897 C 0.79387 0.61774 0.89655
 C2898 C 0.76852 0.60596 0.90536
 H2899 H 0.76965 0.66706 0.85102
 H2900 H 0.72266 0.64546 0.86719
 H2901 H 0.75415 0.56579 0.84903
 H2902 H 0.79993 0.58781 0.83264
 H2903 H 0.81208 0.62043 0.91096
 H2904 H 0.76525 0.59851 0.92729
 C2905 C 1.29865 0.86874 1.12144
 C2906 C 1.30093 0.90085 1.11434
 C2907 C 1.27731 0.91166 1.10078
 C2908 C 1.25325 0.88949 1.09557
 C2909 C 1.26856 0.86526 1.07868
 C2910 C 1.29213 0.85438 1.09232
 C2911 C 1.27078 0.86572 1.13887
 C2912 C 1.24717 0.87646 1.12541
 H2913 H 1.31976 0.91384 1.11903
 H2914 H 1.27613 0.93386 1.09378
 H2915 H 1.26321 0.85845 1.05703
 H2916 H 1.30571 0.83821 1.08239
 H2917 H 1.26965 0.85570 1.15997
 H2918 H 1.22589 0.87555 1.13507
 C2919 C 1.29861 0.36815 0.62234
 C2920 C 1.30100 0.40019 0.61500
 C2921 C 1.27747 0.41095 0.60122
 C2922 C 1.25338 0.38879 0.59606
 C2923 C 1.26869 0.36439 0.57945
 C2924 C 1.29217 0.35357 0.59329
 C2925 C 1.27064 0.36533 0.63966
 C2926 C 1.24712 0.37601 0.62599
 H2927 H 1.31983 0.41318 0.61968
 H2928 H 1.27637 0.43309 0.59406
 H2929 H 1.26337 0.35734 0.55788
 H2930 H 1.30572 0.33724 0.58358
 H2931 H 1.26939 0.35548 0.66084
 H2932 H 1.22579 0.37522 0.63555
 C2933 C 0.79890 0.86992 0.62118
 C2934 C 0.80102 0.90206 0.61420
 C2935 C 0.77736 0.91280 0.60064
 C2936 C 0.75342 0.89051 0.59532
 C2937 C 0.76887 0.86643 0.57837
 C2938 C 0.79248 0.85563 0.59200
 C2939 C 0.77102 0.86669 0.63857
 C2940 C 0.74737 0.87735 0.62512
 H2941 H 0.81978 0.91513 0.61896
 H2942 H 0.77607 0.93501 0.59372
 H2943 H 0.76359 0.85967 0.55669
 H2944 H 0.80616 0.83957 0.58202
 H2945 H 0.76992 0.85660 0.65964
 H2946 H 0.72608 0.87630 0.63475
 C2947 C 0.79858 0.36930 1.12215
 C2948 C 0.79219 0.35475 1.09307
 C2949 C 0.76860 0.36541 1.07931
 C2950 C 0.75313 0.38963 1.09602
 C2951 C 0.74704 0.37673 1.12593
 C2952 C 0.77068 0.36621 1.13952
 C2953 C 0.80069 0.40138 1.11488
 C2954 C 0.77705 0.41198 1.10118
 H2955 H 0.80587 0.33859 1.08326
 H2956 H 0.76332 0.35841 1.05771
 H2957 H 0.72573 0.37576 1.13553
 H2958 H 0.76955 0.35632 1.16068
 H2959 H 0.81943 0.41450 1.11957
 H2960 H 0.77576 0.43413 1.09407
 C2961 C 0.70545 1.12683 1.13614
 C2962 C 0.71356 1.09919 1.15239
 C2963 C 0.73888 1.08728 1.14361
 C2964 C 0.75416 1.10421 1.11933
 C2965 C 0.73117 1.10632 1.09547
 C2966 C 0.70586 1.11820 1.10422
 C2967 C 0.73152 1.14666 1.13995
 C2968 C 0.75685 1.13489 1.13125
 H2969 H 0.70009 1.08908 1.16859
 H2970 H 0.74586 1.06691 1.15233
 H2971 H 0.73436 1.09860 1.07363
 H2972 H 0.68759 1.12070 1.08984
 H2973 H 0.73021 1.16809 1.14902
 H2974 H 0.77715 1.14633 1.13296
 C2975 C 0.70559 0.62597 0.63551
 C2976 C 0.73168 0.64571 0.63960
 C2977 C 0.75701 0.63398 0.63086
 C2978 C 0.75430 0.60342 0.61863
 C2979 C 0.73890 0.58628 0.64267
 C2980 C 0.71359 0.59815 0.65150
 C2981 C 0.70607 0.61766 0.60350
 C2982 C 0.73139 0.60582 0.59471
 H2983 H 0.73038 0.66705 0.64887
 H2984 H 0.77733 0.64535 0.63275
 H2985 H 0.74577 0.56578 0.65117
 H2986 H 0.70002 0.58788 0.66752
 H2987 H 0.68786 0.62034 0.58909
 H2988 H 0.73464 0.59831 0.57280
 C2989 C 0.20526 1.12660 0.63514
 C2990 C 0.20579 1.11825 0.60314
 C2991 C 0.23113 1.10642 0.59440
 C2992 C 0.25400 1.10406 0.61836
 C2993 C 0.25668 1.13463 0.63057
 C2994 C 0.23133 1.14636 0.63925
 C2995 C 0.21325 1.09880 0.65117
 C2996 C 0.23858 1.08693 0.64240
 H2997 H 0.18759 1.12091 0.58871
 H2998 H 0.23442 1.09889 0.57251
 H2999 H 0.27699 1.14603 0.63247
 H3000 H 0.23000 1.16771 0.64850
 H3001 H 0.19965 1.08852 0.66716
 H3002 H 0.24543 1.06643 0.65089
 C3003 C 0.20511 0.62652 1.13616
 C3004 C 0.20547 0.61804 1.10420
 C3005 C 0.23073 0.60610 1.09539
 C3006 C 0.25372 0.60378 1.11923
 C3007 C 0.25654 0.63440 1.13129
 C3008 C 0.23126 0.64623 1.14005
 C3009 C 0.21312 0.59878 1.15227
 C3010 C 0.23838 0.58680 1.14343
 H3011 H 0.18721 0.62068 1.08984
 H3012 H 0.23389 0.59847 1.07350
 H3013 H 0.27688 0.64575 1.13305
 H3014 H 0.23003 0.66763 1.14922
 H3015 H 0.19961 0.58864 1.16843
 H3016 H 0.24528 0.56637 1.15205
 C3017 C 0.70111 0.86971 0.87881
 C3018 C 0.69895 0.90180 0.88600
 C3019 C 0.72262 0.91247 0.89959
 C3020 C 0.74661 0.89020 0.90472
 C3021 C 0.73125 0.86596 0.92154
 C3022 C 0.70762 0.85522 0.90789
 C3023 C 0.72896 0.86665 0.86134
 C3024 C 0.75262 0.87725 0.87482
 H3025 H 0.68017 0.91487 0.88136
 H3026 H 0.72389 0.93464 0.90664
 H3027 H 0.73662 0.85901 0.94314
 H3028 H 0.69402 0.83904 0.91778
 H3029 H 0.73004 0.85670 0.84021
 H3030 H 0.77389 0.87630 0.86514
 C3031 C 0.70122 0.36861 0.37874
 C3032 C 0.70782 0.35417 0.40782
 C3033 C 0.73153 0.36487 0.42134
 C3034 C 0.74690 0.38902 0.40440
 C3035 C 0.75274 0.37600 0.37450
 C3036 C 0.72898 0.36543 0.36115
 C3037 C 0.69921 0.40072 0.38588
 C3038 C 0.72296 0.41136 0.39934
 H3039 H 0.69420 0.33805 0.41781
 H3040 H 0.73695 0.35796 0.44295
 H3041 H 0.77396 0.37497 0.36473
 H3042 H 0.72993 0.35544 0.34003
 H3043 H 0.68044 0.41385 0.38130
 H3044 H 0.72433 0.43353 0.40634
 C3045 C 0.20160 0.86970 0.37794
 C3046 C 0.20797 0.85528 0.40709
 C3047 C 0.23149 0.86609 0.42086
 C3048 C 0.24691 0.89030 0.40407
 C3049 C 0.25311 0.87731 0.37423
 C3050 C 0.22955 0.86665 0.36064
 C3051 C 0.19935 0.90180 0.38506
 C3052 C 0.22292 0.91254 0.39877
 H3053 H 0.19431 0.83912 0.41695
 H3054 H 0.23672 0.85922 0.44252
 H3055 H 0.27444 0.87639 0.36468
 H3056 H 0.23076 0.85668 0.33952
 H3057 H 0.18057 0.91483 0.38028
 H3058 H 0.22411 0.93472 0.40579
 C3059 C 0.20137 0.36801 0.87762
 C3060 C 0.20779 0.35347 0.90669
 C3061 C 0.23127 0.36430 0.92052
 C3062 C 0.24660 0.38867 0.90386
 C3063 C 0.25286 0.37584 0.87396
 C3064 C 0.22934 0.36515 0.86031
 C3065 C 0.19900 0.40007 0.88489
 C3066 C 0.22252 0.41083 0.89866
 H3067 H 0.19421 0.33718 0.91644
 H3068 H 0.23656 0.35730 0.94212
 H3069 H 0.27420 0.37504 0.86441
 H3070 H 0.23060 0.35528 0.83915
 H3071 H 0.18017 0.41305 0.88018
 H3072 H 0.22363 0.43299 0.90578
   
