data_POSCAR
  _audit_creation_date              2014-09-24
  _audit_creation_method            'ToBaCCo'
  _symmetry_space_group_name_H-M    'P1'
  _symmetry_Int_Tables_number       1
  _symmetry_cell_setting            triclinic
  loop_
  _symmetry_equiv_pos_as_xyz
 x,y,z
_cell_length_a 41.1939
_cell_length_b 27.8883
_cell_length_c 28.9133
_cell_angle_alpha 90.016400
_cell_angle_beta 89.948500
_cell_angle_gamma 90.085000
loop_
  _atom_site_label
  _atom_site_type_symbol
  _atom_site_fract_x
  _atom_site_fract_y
  _atom_site_fract_z
C1 C -0.00151 0.00140 0.15081
 C2 C 0.00005 -0.01017 -0.15132
 C3 C -0.07813 -0.07544 0.07328
 C4 C -0.07281 0.08162 0.06703
 C5 C -0.07661 -0.08071 -0.07042
 C6 C 0.07338 -0.08195 -0.07544
 C7 C 0.07790 0.06058 -0.07727
 C8 C 0.07064 -0.08393 0.07766
 C9 C -0.07264 0.07337 -0.07615
 C10 C 0.07619 0.06503 0.07570
 O11 O -0.04709 -0.09273 -0.08034
 O12 O -0.08489 -0.04847 -0.04047
 O13 O -0.04248 0.08249 -0.08593
 O14 O -0.08231 0.04362 -0.04474
 O15 O 0.04678 0.07879 0.08388
 O16 O 0.08448 0.03341 0.04516
 O17 O 0.00357 0.03116 -0.13162
 O18 O -0.00384 -0.04894 -0.12831
 O19 O -0.00069 0.04151 0.12904
 O20 O -0.00212 -0.04028 0.13155
 O21 O 0.04323 -0.08836 -0.08689
 O22 O 0.08228 -0.05784 -0.03931
 O23 O -0.04878 -0.08825 0.08300
 O24 O -0.08593 -0.04341 0.04294
 O25 O 0.04052 -0.09349 0.08518
 O26 O 0.08103 -0.05399 0.04681
 O27 O 0.04841 0.07458 -0.08580
 O28 O 0.08493 0.03042 -0.04485
 O29 O 0.00512 0.13174 0.06489
 O30 O 0.00539 0.12749 -0.07253
 O31 O -0.00007 -0.14122 -0.06411
 O32 O -0.00516 -0.13656 0.07593
 O33 O -0.03054 -0.06648 0.00140
 O34 O -0.02657 0.05992 -0.00229
 O35 O 0.02531 -0.06961 0.00214
 O36 O -0.03030 -0.00089 0.06109
 O37 O -0.08233 0.04778 0.03960
 O38 O -0.04281 0.09052 0.07725
 O39 O 0.02884 -0.00505 0.06252
 O40 O 0.02981 -0.00861 -0.06093
 O41 O 0.02966 0.05576 -0.00134
 O42 O -0.02931 -0.00474 -0.06120
 Zr43 Zr 0.00116 0.05663 0.05805
 Zr44 Zr -0.00169 -0.06586 -0.05808
 Zr45 Zr -0.05605 -0.00162 -0.00046
 Zr46 Zr -0.00289 -0.06246 0.06164
 Zr47 Zr 0.00203 0.05283 -0.06163
 Zr48 Zr 0.05540 -0.00908 0.00118
 H49 H 0.03738 -0.10029 0.00214
 H50 H -0.04501 0.00108 0.08804
 H51 H 0.04402 0.08425 -0.00188
 H52 H -0.04371 -0.00476 -0.08847
 H53 H 0.00843 0.14409 0.03318
 H54 H -0.00442 0.14245 -0.04482
 H55 H -0.00576 -0.15246 0.04535
 H56 H -0.01024 -0.15365 -0.03550
 C57 C 0.24693 0.23751 0.09974
 C58 C 0.24686 0.25682 0.40178
 C59 C 0.17309 0.31750 0.17337
 C60 C 0.17482 0.16185 0.18337
 C61 C 0.17093 0.32682 0.31486
 C62 C 0.32080 0.32784 0.32319
 C63 C 0.32259 0.17778 0.33091
 C64 C 0.32257 0.32119 0.17649
 C65 C 0.17336 0.17094 0.32476
 C66 C 0.32476 0.17433 0.17836
 O67 O 0.20043 0.33978 0.32439
 O68 O 0.16368 0.29109 0.28876
 O69 O 0.20308 0.16132 0.33561
 O70 O 0.16439 0.20107 0.29340
 O71 O 0.29518 0.16101 0.17007
 O72 O 0.33307 0.20475 0.20996
 O73 O 0.24787 0.21472 0.38340
 O74 O 0.24545 0.29636 0.37910
 O75 O 0.24584 0.19815 0.12301
 O76 O 0.25043 0.27910 0.11871
 O77 O 0.29084 0.33786 0.33249
 O78 O 0.33025 0.29533 0.29432
 O79 O 0.20284 0.32789 0.16302
 O80 O 0.16420 0.28778 0.20528
 O81 O 0.29291 0.32965 0.16447
 O82 O 0.33149 0.29114 0.20791
 O83 O 0.29289 0.16548 0.33879
 O84 O 0.33149 0.20762 0.29906
 O85 O 0.25332 0.10862 0.18768
 O86 O 0.24915 0.11701 0.33008
 O87 O 0.24683 0.38522 0.31354
 O88 O 0.24732 0.37646 0.17305
 O89 O 0.21898 0.30895 0.24682
 O90 O 0.22056 0.18247 0.25385
 O91 O 0.27476 0.31000 0.24832
 O92 O 0.21912 0.24215 0.18918
 O93 O 0.16520 0.19676 0.20931
 O94 O 0.20482 0.15034 0.17609
 O95 O 0.27834 0.24384 0.18974
 O96 O 0.27687 0.25126 0.31353
 O97 O 0.27642 0.18462 0.25476
 O98 O 0.21769 0.24940 0.31177
 Zr99 Zr 0.24921 0.18370 0.19430
 Zr100 Zr 0.24632 0.30982 0.30765
 Zr101 Zr 0.19240 0.24484 0.24974
 Zr102 Zr 0.24794 0.30242 0.18785
 Zr103 Zr 0.24795 0.19076 0.31405
 Zr104 Zr 0.30355 0.24813 0.25225
 H105 H 0.28735 0.34020 0.24738
 H106 H 0.20453 0.24010 0.16213
 H107 H 0.29005 0.15543 0.25592
 H108 H 0.20296 0.25064 0.33875
 H109 H 0.24969 0.09573 0.21913
 H110 H 0.24739 0.10029 0.30000
 H111 H 0.24088 0.39228 0.20227
 H112 H 0.24737 0.39741 0.28144
 C113 C 0.49508 -0.00555 0.15111
 C114 C 0.49518 -0.00768 -0.14989
 C115 C 0.57443 0.06692 0.07229
 C116 C 0.57027 -0.08723 0.07622
 C117 C 0.57641 0.06214 -0.07404
 C118 C 0.42702 0.07313 -0.07610
 C119 C 0.42076 -0.07752 -0.07271
 C120 C 0.42476 0.07574 0.07209
 C121 C 0.57069 -0.08654 -0.07497
 C122 C 0.42062 -0.07512 0.07772
 O123 O 0.54686 0.07417 -0.08467
 O124 O 0.58304 0.03225 -0.04130
 O125 O 0.54042 -0.09544 -0.08365
 O126 O 0.58019 -0.05882 -0.04147
 O127 O 0.45001 -0.09022 0.08424
 O128 O 0.41312 -0.04253 0.04751
 O129 O 0.49325 -0.04814 -0.12874
 O130 O 0.49903 0.03320 -0.12999
 O131 O 0.49487 -0.04666 0.13104
 O132 O 0.49666 0.03520 0.13041
 O133 O 0.45711 0.08086 -0.08627
 O134 O 0.41680 0.04410 -0.04421
 O135 O 0.54497 0.07883 0.08259
 O136 O 0.58260 0.03388 0.04302
 O137 O 0.45481 0.08418 0.08276
 O138 O 0.41570 0.04381 0.04265
 O139 O 0.45017 -0.09064 -0.08200
 O140 O 0.41273 -0.04588 -0.04209
 O141 O 0.49304 -0.14056 0.07077
 O142 O 0.49475 -0.14198 -0.06741
 O143 O 0.50290 0.12738 -0.06660
 O144 O 0.50169 0.12841 0.06928
 O145 O 0.52841 0.05414 0.00050
 O146 O 0.52416 -0.07250 0.00134
 O147 O 0.47237 0.05778 -0.00035
 O148 O 0.52694 -0.00810 0.06216
 O149 O 0.58017 -0.05816 0.04412
 O150 O 0.53997 -0.09530 0.08426
 O151 O 0.46788 -0.00413 0.06233
 O152 O 0.46859 -0.00516 -0.06099
 O153 O 0.46798 -0.06751 0.00107
 O154 O 0.52750 -0.00966 -0.06022
 Zr155 Zr 0.49575 -0.06572 0.06080
 Zr156 Zr 0.50061 0.05210 -0.05976
 Zr157 Zr 0.55372 -0.01117 0.00116
 Zr158 Zr 0.49932 0.05345 0.06002
 Zr159 Zr 0.49607 -0.06690 -0.05856
 Zr160 Zr 0.44221 -0.00282 0.00045
 H161 H 0.46044 0.08854 -0.00106
 H162 H 0.54097 -0.00852 0.08991
 H163 H 0.45385 -0.09624 0.00153
 H164 H 0.54134 -0.01065 -0.08811
 H165 H 0.50107 -0.15495 0.04166
 H166 H 0.48836 -0.15522 -0.03701
 H167 H 0.49946 0.14230 0.03798
 H168 H 0.51544 0.13886 -0.03958
 C169 C 0.75026 0.24778 0.09980
 C170 C 0.74743 0.24246 0.40082
 C171 C 0.67319 0.31787 0.17599
 C172 C 0.67532 0.16337 0.17636
 C173 C 0.67131 0.31729 0.32085
 C174 C 0.82172 0.31755 0.32814
 C175 C 0.82301 0.16796 0.32597
 C176 C 0.82315 0.31843 0.17581
 C177 C 0.67418 0.16508 0.32315
 C178 C 0.82401 0.17057 0.17408
 O179 O 0.70098 0.32808 0.33228
 O180 O 0.66367 0.28759 0.28857
 O181 O 0.70391 0.15514 0.33343
 O182 O 0.66506 0.19566 0.29208
 O183 O 0.79446 0.15741 0.16729
 O184 O 0.83282 0.20160 0.20508
 O185 O 0.74800 0.20153 0.38010
 O186 O 0.74759 0.28345 0.38037
 O187 O 0.75102 0.20642 0.11969
 O188 O 0.74914 0.28818 0.12077
 O189 O 0.79178 0.32855 0.33654
 O190 O 0.83139 0.28715 0.29713
 O191 O 0.70297 0.33071 0.16814
 O192 O 0.66434 0.28565 0.20556
 O193 O 0.79340 0.32949 0.16642
 O194 O 0.83230 0.28816 0.20709
 O195 O 0.79297 0.16120 0.33628
 O196 O 0.83227 0.19690 0.29324
 O197 O 0.75053 0.11015 0.17615
 O198 O 0.74918 0.10813 0.31343
 O199 O 0.74760 0.37778 0.31812
 O200 O 0.74819 0.37908 0.18443
 O201 O 0.71924 0.30583 0.25013
 O202 O 0.72064 0.17930 0.24894
 O203 O 0.77605 0.30617 0.25117
 O204 O 0.71950 0.24317 0.18822
 O205 O 0.66556 0.19424 0.20673
 O206 O 0.70534 0.15375 0.16736
 O207 O 0.77864 0.24457 0.18902
 O208 O 0.77756 0.24347 0.31196
 O209 O 0.77672 0.18085 0.25007
 O210 O 0.71845 0.24244 0.31011
 Zr211 Zr 0.74949 0.18448 0.18971
 Zr212 Zr 0.74724 0.30255 0.31012
 Zr213 Zr 0.69247 0.24159 0.24878
 Zr214 Zr 0.74832 0.30372 0.19125
 Zr215 Zr 0.74825 0.18365 0.30928
 Zr216 Zr 0.80460 0.24365 0.25095
 H217 H 0.78917 0.33592 0.25171
 H218 H 0.70543 0.24257 0.16058
 H219 H 0.78983 0.15114 0.25028
 H220 H 0.70411 0.24229 0.33735
 H221 H 0.75308 0.09458 0.20667
 H222 H 0.73873 0.09644 0.28476
 H223 H 0.75470 0.39188 0.21494
 H224 H 0.73601 0.39063 0.29085
 C225 C -0.00098 0.48853 0.15155
 C226 C -0.00530 0.49791 -0.15085
 C227 C -0.07725 0.41512 0.07064
 C228 C -0.07438 0.57185 0.07771
 C229 C -0.07908 0.42172 -0.07164
 C230 C 0.07048 0.41925 -0.07876
 C231 C 0.07221 0.56969 -0.07334
 C232 C 0.07265 0.41466 0.07027
 C233 C -0.07724 0.57874 -0.06303
 C234 C 0.07466 0.56456 0.07424
 O235 O -0.04965 0.41051 -0.08298
 O236 O -0.08718 0.45239 -0.04019
 O237 O -0.04737 0.58954 -0.07257
 O238 O -0.08571 0.54273 -0.03774
 O239 O 0.04522 0.57515 0.08581
 O240 O 0.08275 0.53349 0.04314
 O241 O -0.00690 0.53806 -0.12872
 O242 O -0.00170 0.45695 -0.13093
 O243 O 0.00037 0.53006 0.13224
 O244 O -0.00166 0.44834 0.12970
 O245 O 0.04049 0.40874 -0.08729
 O246 O 0.08015 0.44945 -0.04774
 O247 O -0.04752 0.40268 0.07869
 O248 O -0.08617 0.44969 0.04385
 O249 O 0.04296 0.40548 0.08187
 O250 O 0.08150 0.44544 0.03933
 O251 O 0.04248 0.58022 -0.08340
 O252 O 0.08103 0.53753 -0.04377
 O253 O 0.00139 0.62574 0.07379
 O254 O 0.00057 0.63000 -0.06790
 O255 O -0.00451 0.36153 -0.07264
 O256 O -0.00149 0.35704 0.06689
 O257 O -0.03123 0.43150 -0.00052
 O258 O -0.02952 0.55783 0.00353
 O259 O 0.02466 0.43014 -0.00218
 O260 O -0.03086 0.49242 0.06286
 O261 O -0.08429 0.54115 0.04723
 O262 O -0.04434 0.58065 0.08735
 O263 O 0.02848 0.49077 0.06159
 O264 O 0.02661 0.49516 -0.06241
 O265 O 0.02611 0.55549 0.00146
 O266 O -0.03275 0.49657 -0.05985
 Zr267 Zr -0.00051 0.55108 0.06241
 Zr268 Zr -0.00377 0.43625 -0.06116
 Zr269 Zr -0.05794 0.49552 0.00248
 Zr270 Zr -0.00221 0.43219 0.05867
 Zr271 Zr -0.00261 0.55522 -0.05777
 Zr272 Zr 0.05339 0.49213 -0.00125
 H273 H 0.03732 0.40004 -0.00344
 H274 H -0.04506 0.49171 0.09042
 H275 H 0.03952 0.58493 0.00194
 H276 H -0.04776 0.49828 -0.08646
 H277 H -0.00442 0.64050 0.04381
 H278 H 0.00253 0.64396 -0.03657
 H279 H -0.00204 0.34376 0.03520
 H280 H -0.01239 0.34724 -0.04339
 C281 C 0.24826 0.74584 0.09970
 C282 C 0.24776 0.74664 0.40127
 C283 C 0.17239 0.82119 0.18074
 C284 C 0.17436 0.66462 0.17717
 C285 C 0.17072 0.81808 0.32139
 C286 C 0.32065 0.82400 0.32478
 C287 C 0.32302 0.67182 0.32665
 C288 C 0.32204 0.82373 0.17799
 C289 C 0.17414 0.66342 0.32269
 C290 C 0.32388 0.67308 0.17522
 O291 O 0.20025 0.83046 0.33157
 O292 O 0.16344 0.78576 0.29150
 O293 O 0.20407 0.65359 0.33213
 O294 O 0.16473 0.69519 0.29297
 O295 O 0.29433 0.66003 0.16722
 O296 O 0.33238 0.70397 0.20644
 O297 O 0.24870 0.70546 0.38098
 O298 O 0.24689 0.78722 0.38055
 O299 O 0.24852 0.70473 0.12001
 O300 O 0.24778 0.78655 0.12036
 O301 O 0.29068 0.83244 0.33527
 O302 O 0.33029 0.79268 0.29469
 O303 O 0.20196 0.83177 0.16974
 O304 O 0.16396 0.78773 0.20931
 O305 O 0.29207 0.83179 0.16690
 O306 O 0.33127 0.79222 0.20812
 O307 O 0.29345 0.65840 0.33291
 O308 O 0.33190 0.70382 0.29662
 O309 O 0.25112 0.61016 0.17984
 O310 O 0.25007 0.61041 0.32257
 O311 O 0.24473 0.87926 0.31929
 O312 O 0.24546 0.87880 0.18151
 O313 O 0.21850 0.80602 0.25029
 O314 O 0.22061 0.67944 0.25033
 O315 O 0.27458 0.80813 0.25081
 O316 O 0.21855 0.74333 0.18910
 O317 O 0.16491 0.69564 0.20752
 O318 O 0.20435 0.65447 0.16801
 O319 O 0.27790 0.74545 0.18893
 O320 O 0.27722 0.74569 0.31274
 O321 O 0.27647 0.68279 0.25066
 O322 O 0.21810 0.74322 0.31167
 Zr323 Zr 0.24884 0.68491 0.19047
 Zr324 Zr 0.24634 0.80419 0.31028
 Zr325 Zr 0.19218 0.74154 0.25023
 Zr326 Zr 0.24720 0.80388 0.19082
 Zr327 Zr 0.24844 0.68496 0.31050
 Zr328 Zr 0.30374 0.74638 0.25113
 H329 H 0.28701 0.83850 0.25078
 H330 H 0.20409 0.74322 0.16187
 H331 H 0.29003 0.65353 0.25053
 H332 H 0.20372 0.74260 0.33896
 H333 H 0.24689 0.59571 0.21051
 H334 H 0.24922 0.59544 0.29157
 H335 H 0.23945 0.89220 0.21201
 H336 H 0.25163 0.89327 0.28946
 C337 C 0.49887 0.49413 0.15228
 C338 C 0.49444 0.49410 -0.14921
 C339 C 0.57565 0.56914 0.07016
 C340 C 0.57342 0.41377 0.07012
 C341 C 0.57332 0.56530 -0.07608
 C342 C 0.42291 0.56839 -0.07155
 C343 C 0.42117 0.42020 -0.06880
 C344 C 0.42658 0.57559 0.07509
 C345 C 0.56970 0.41204 -0.07259
 C346 C 0.42383 0.42294 0.08005
 O347 O 0.54358 0.57641 -0.08616
 O348 O 0.58128 0.53629 -0.04340
 O349 O 0.53967 0.40022 -0.07703
 O350 O 0.58001 0.44530 -0.04492
 O351 O 0.45349 0.41069 0.08863
 O352 O 0.41497 0.45373 0.04925
 O353 O 0.49511 0.45313 -0.12845
 O354 O 0.49563 0.53499 -0.12896
 O355 O 0.49988 0.45306 0.13226
 O356 O 0.49894 0.53495 0.13151
 O357 O 0.45268 0.57853 -0.08279
 O358 O 0.41500 0.53930 -0.03894
 O359 O 0.54629 0.58020 0.08182
 O360 O 0.58344 0.53664 0.04020
 O361 O 0.45660 0.58436 0.08504
 O362 O 0.41692 0.54263 0.04679
 O363 O 0.45040 0.40861 -0.08010
 O364 O 0.41336 0.45128 -0.03758
 O365 O 0.49621 0.35970 0.07249
 O366 O 0.49286 0.35924 -0.06989
 O367 O 0.49865 0.62816 -0.06579
 O368 O 0.50248 0.62863 0.07083
 O369 O 0.52769 0.55585 -0.00004
 O370 O 0.52534 0.42922 0.00108
 O371 O 0.47194 0.55723 0.00194
 O372 O 0.52894 0.49305 0.06203
 O373 O 0.58233 0.44580 0.04048
 O374 O 0.54367 0.40429 0.08146
 O375 O 0.46981 0.49521 0.06485
 O376 O 0.46746 0.49426 -0.05902
 O377 O 0.46959 0.43168 0.00341
 O378 O 0.52650 0.49185 -0.06082
 Zr379 Zr 0.49854 0.43448 0.06208
 Zr380 Zr 0.49833 0.55281 -0.05896
 Zr381 Zr 0.55390 0.49148 -0.00047
 Zr382 Zr 0.50048 0.55371 0.06108
 Zr383 Zr 0.49601 0.43368 -0.05767
 Zr384 Zr 0.44298 0.49548 0.00393
 H385 H 0.45948 0.58753 0.00142
 H386 H 0.54373 0.49268 0.08897
 H387 H 0.45600 0.40240 0.00428
 H388 H 0.54020 0.49036 -0.08887
 H389 H 0.49826 0.34540 0.04133
 H390 H 0.49276 0.34417 -0.03892
 H391 H 0.49983 0.64266 0.03965
 H392 H 0.51180 0.64022 -0.03963
 C393 C 0.75007 0.74817 0.09924
 C394 C 0.74781 0.74976 0.40077
 C395 C 0.67193 0.82212 0.17943
 C396 C 0.67699 0.66504 0.17441
 C397 C 0.67012 0.81807 0.31977
 C398 C 0.82040 0.82691 0.32527
 C399 C 0.82322 0.67518 0.32808
 C400 C 0.82219 0.82497 0.17701
 C401 C 0.67469 0.66602 0.32212
 C402 C 0.82636 0.67463 0.17876
 O403 O 0.69945 0.83130 0.33031
 O404 O 0.66342 0.78592 0.28944
 O405 O 0.70457 0.65669 0.33226
 O406 O 0.66535 0.69646 0.29113
 O407 O 0.79704 0.66420 0.16636
 O408 O 0.83415 0.70508 0.21063
 O409 O 0.74911 0.70849 0.38059
 O410 O 0.74647 0.79020 0.37983
 O411 O 0.75258 0.70722 0.11949
 O412 O 0.74779 0.78879 0.11986
 O413 O 0.79027 0.83518 0.33526
 O414 O 0.83038 0.79597 0.29514
 O415 O 0.70163 0.83446 0.17013
 O416 O 0.66402 0.78680 0.20613
 O417 O 0.79230 0.83423 0.16665
 O418 O 0.83158 0.79388 0.20740
 O419 O 0.79373 0.66109 0.33343
 O420 O 0.83218 0.70765 0.29853
 O421 O 0.75426 0.61254 0.17960
 O422 O 0.75045 0.61285 0.32210
 O423 O 0.74367 0.88176 0.31771
 O424 O 0.74738 0.88124 0.18040
 O425 O 0.71838 0.80782 0.24913
 O426 O 0.72198 0.68112 0.24909
 O427 O 0.77473 0.81069 0.25053
 O428 O 0.71979 0.74490 0.18769
 O429 O 0.66673 0.69547 0.20487
 O430 O 0.70722 0.65593 0.16606
 O431 O 0.77908 0.74851 0.18909
 O432 O 0.77726 0.74856 0.31277
 O433 O 0.77756 0.68539 0.25080
 O434 O 0.71834 0.74516 0.31016
 Zr435 Zr 0.75096 0.68728 0.18977
 Zr436 Zr 0.74607 0.80663 0.30944
 Zr437 Zr 0.69283 0.74252 0.24826
 Zr438 Zr 0.74751 0.80629 0.19024
 Zr439 Zr 0.74895 0.68741 0.31010
 Zr440 Zr 0.80431 0.74928 0.25174
 H441 H 0.78713 0.84110 0.25058
 H442 H 0.70554 0.74452 0.16021
 H443 H 0.79116 0.65618 0.25107
 H444 H 0.70400 0.74448 0.33743
 H445 H 0.75041 0.59817 0.21039
 H446 H 0.74865 0.59789 0.29118
 H447 H 0.74051 0.89504 0.21036
 H448 H 0.75168 0.89563 0.28838
 C449 C -0.00181 0.00432 0.34973
 C450 C -0.00145 -0.00646 0.65159
 C451 C -0.07643 0.08100 0.43369
 C452 C -0.07836 -0.07424 0.42731
 C453 C -0.07361 0.07775 0.57542
 C454 C 0.07520 0.07013 0.57369
 C455 C 0.07235 -0.07985 0.57451
 C456 C 0.07345 0.07205 0.42676
 C457 C -0.07739 -0.07690 0.57337
 C458 C 0.07166 -0.08004 0.42608
 O459 O -0.04368 0.08635 0.58559
 O460 O -0.08346 0.04750 0.54448
 O461 O -0.04772 -0.08963 0.58166
 O462 O -0.08593 -0.04495 0.54341
 O463 O 0.04163 -0.08671 0.41447
 O464 O 0.08135 -0.05004 0.45719
 O465 O -0.00016 -0.04628 0.62931
 O466 O -0.00095 0.03515 0.63227
 O467 O -0.00115 -0.03732 0.36896
 O468 O -0.00259 0.04445 0.37151
 O469 O 0.04579 0.07954 0.58641
 O470 O 0.08318 0.03969 0.54198
 O471 O -0.04654 0.09231 0.42450
 O472 O -0.08478 0.04583 0.46003
 O473 O 0.04386 0.08462 0.41826
 O474 O 0.08217 0.03877 0.45519
 O475 O 0.04248 -0.09122 0.58301
 O476 O 0.08156 -0.04855 0.54412
 O477 O -0.00611 -0.13307 0.42481
 O478 O -0.00245 -0.13847 0.56555
 O479 O 0.00331 0.13037 0.57391
 O480 O 0.00076 0.13489 0.43392
 O481 O -0.02883 0.06240 0.50317
 O482 O -0.03080 -0.06405 0.49917
 O483 O 0.02708 0.05972 0.50176
 O484 O -0.03171 0.00126 0.43955
 O485 O -0.08662 -0.04384 0.45901
 O486 O -0.04876 -0.08525 0.41674
 O487 O 0.02758 -0.00059 0.43822
 O488 O 0.02877 -0.00481 0.56212
 O489 O 0.02494 -0.06570 0.49835
 O490 O -0.03050 -0.00259 0.56219
 Zr491 Zr -0.00306 -0.05907 0.43877
 Zr492 Zr 0.00010 0.05582 0.56225
 Zr493 Zr -0.05731 -0.00004 0.50151
 Zr494 Zr -0.00150 0.05986 0.44250
 Zr495 Zr -0.00215 -0.06315 0.55877
 Zr496 Zr 0.05410 -0.00408 0.49973
 H497 H 0.04052 0.08914 0.50222
 H498 H -0.04624 0.00268 0.41238
 H499 H 0.03730 -0.09611 0.49800
 H500 H -0.04480 -0.00252 0.58963
 H501 H -0.00785 -0.14869 0.45542
 H502 H -0.01057 -0.15082 0.53564
 H503 H -0.00096 0.14843 0.46542
 H504 H -0.00311 0.14557 0.54442
 C505 C 0.24683 0.23700 0.90311
 C506 C 0.24970 0.25503 0.60101
 C507 C 0.17610 0.15698 0.81702
 C508 C 0.17161 0.31667 0.82348
 C509 C 0.17695 0.16732 0.67506
 C510 C 0.32635 0.17795 0.67541
 C511 C 0.32293 0.32701 0.68193
 C512 C 0.32584 0.17201 0.82381
 C513 C 0.17295 0.32422 0.68499
 C514 C 0.32070 0.32092 0.83117
 O515 O 0.20709 0.15851 0.66578
 O516 O 0.16691 0.19701 0.70621
 O517 O 0.20251 0.33707 0.67610
 O518 O 0.16500 0.28811 0.71079
 O519 O 0.29071 0.32871 0.84163
 O520 O 0.33078 0.29211 0.79922
 O521 O 0.24766 0.29454 0.62371
 O522 O 0.25206 0.21304 0.61937
 O523 O 0.24536 0.27877 0.88426
 O524 O 0.24992 0.19755 0.88048
 O525 O 0.29699 0.16607 0.66458
 O526 O 0.33425 0.20814 0.70745
 O527 O 0.20614 0.14969 0.82824
 O528 O 0.16653 0.19023 0.78894
 O529 O 0.29637 0.16000 0.83418
 O530 O 0.33399 0.20384 0.79360
 O531 O 0.29300 0.33666 0.67185
 O532 O 0.33198 0.29471 0.71104
 O533 O 0.24643 0.37521 0.83013
 O534 O 0.24848 0.38359 0.69050
 O535 O 0.25415 0.11542 0.67357
 O536 O 0.25551 0.10779 0.81526
 O537 O 0.22300 0.18027 0.74839
 O538 O 0.21926 0.30624 0.75463
 O539 O 0.27842 0.18426 0.74926
 O540 O 0.21899 0.23990 0.81305
 O541 O 0.16378 0.28257 0.79531
 O542 O 0.20101 0.32887 0.83386
 O543 O 0.27851 0.24383 0.81438
 O544 O 0.27939 0.25048 0.69040
 O545 O 0.27513 0.30929 0.75558
 O546 O 0.22009 0.24690 0.69023
 Zr547 Zr 0.24687 0.30122 0.81484
 Zr548 Zr 0.25121 0.18926 0.68881
 Zr549 Zr 0.19344 0.24139 0.75115
 Zr550 Zr 0.25053 0.18273 0.80918
 Zr551 Zr 0.24806 0.30808 0.69512
 Zr552 Zr 0.30474 0.24834 0.75275
 H553 H 0.29226 0.15532 0.74820
 H554 H 0.20402 0.23756 0.83975
 H555 H 0.28747 0.33967 0.75701
 H556 H 0.20573 0.24769 0.66286
 H557 H 0.24902 0.39169 0.80007
 H558 H 0.24087 0.39519 0.72097
 H559 H 0.25413 0.09528 0.78333
 H560 H 0.25071 0.09884 0.70341
 C561 C 0.49644 -0.00146 0.34941
 C562 C 0.49617 -0.00587 0.65103
 C563 C 0.57054 -0.08668 0.42894
 C564 C 0.57407 0.06999 0.42774
 C565 C 0.57132 -0.08604 0.57047
 C566 C 0.42086 -0.07480 0.57350
 C567 C 0.42686 0.07566 0.57662
 C568 C 0.42112 -0.07281 0.42451
 C569 C 0.57599 0.06777 0.57168
 C570 C 0.42506 0.07941 0.43048
 O571 O 0.54129 -0.09539 0.58058
 O572 O 0.58088 -0.05400 0.54124
 O573 O 0.54661 0.07971 0.58266
 O574 O 0.58355 0.03524 0.54184
 O575 O 0.45500 0.08796 0.41956
 O576 O 0.41574 0.04640 0.45888
 O577 O 0.49869 0.03522 0.63112
 O578 O 0.49588 -0.04652 0.62999
 O579 O 0.49686 0.03918 0.37040
 O580 O 0.49729 -0.04265 0.36932
 O581 O 0.45044 -0.08666 0.58377
 O582 O 0.41319 -0.04498 0.54139
 O583 O 0.54045 -0.09374 0.41801
 O584 O 0.58045 -0.05521 0.45848
 O585 O 0.45058 -0.08522 0.41496
 O586 O 0.41304 -0.04224 0.45620
 O587 O 0.45687 0.08488 0.58584
 O588 O 0.41688 0.04417 0.54690
 O589 O 0.50125 0.13159 0.43137
 O590 O 0.50228 0.12960 0.57144
 O591 O 0.49329 -0.13916 0.56833
 O592 O 0.49177 -0.13652 0.42746
 O593 O 0.52446 -0.06885 0.49908
 O594 O 0.52824 0.05774 0.50058
 O595 O 0.46880 -0.06485 0.49959
 O596 O 0.52732 -0.00460 0.43837
 O597 O 0.58243 0.03629 0.45601
 O598 O 0.54470 0.08315 0.41902
 O599 O 0.46799 -0.00107 0.43830
 O600 O 0.46878 -0.00286 0.56221
 O601 O 0.47241 0.06033 0.50151
 O602 O 0.52792 -0.00662 0.56140
 Zr603 Zr 0.49935 0.05665 0.44102
 Zr604 Zr 0.49664 -0.06425 0.55941
 Zr605 Zr 0.55380 -0.00728 0.49952
 Zr606 Zr 0.49627 -0.06224 0.43945
 Zr607 Zr 0.50046 0.05476 0.56095
 Zr608 Zr 0.44256 -0.00062 0.50061
 H609 H 0.45493 -0.09386 0.49918
 H610 H 0.54159 -0.00547 0.41084
 H611 H 0.46040 0.09099 0.50239
 H612 H 0.54219 -0.00777 0.58889
 H613 H 0.50184 0.14549 0.46282
 H614 H 0.50964 0.14332 0.54168
 H615 H 0.49163 -0.15150 0.45844
 H616 H 0.49840 -0.15308 0.53773
 C617 C 0.74877 0.24650 0.90176
 C618 C 0.74923 0.24313 0.60037
 C619 C 0.67592 0.16341 0.82571
 C620 C 0.67144 0.32019 0.81985
 C621 C 0.67625 0.16212 0.67904
 C622 C 0.82578 0.17400 0.67830
 C623 C 0.82112 0.32358 0.67718
 C624 C 0.82579 0.17371 0.82448
 C625 C 0.67172 0.31535 0.67754
 C626 C 0.82063 0.32456 0.82576
 O627 O 0.70641 0.15297 0.67005
 O628 O 0.66619 0.19228 0.70982
 O629 O 0.70117 0.32897 0.66899
 O630 O 0.66363 0.28253 0.70707
 O631 O 0.79062 0.33406 0.83488
 O632 O 0.83056 0.29320 0.79613
 O633 O 0.74786 0.28412 0.62069
 O634 O 0.75142 0.20251 0.62128
 O635 O 0.74666 0.28705 0.88090
 O636 O 0.75065 0.20541 0.88185
 O637 O 0.79646 0.16204 0.66732
 O638 O 0.83367 0.20521 0.70930
 O639 O 0.70615 0.15348 0.83212
 O640 O 0.66583 0.19505 0.79618
 O641 O 0.79624 0.16236 0.83527
 O642 O 0.83384 0.20594 0.79458
 O643 O 0.79123 0.33139 0.66596
 O644 O 0.83074 0.29360 0.70827
 O645 O 0.74546 0.37960 0.82059
 O646 O 0.74627 0.37820 0.68118
 O647 O 0.75403 0.10948 0.68319
 O648 O 0.75225 0.11150 0.82481
 O649 O 0.72225 0.17918 0.75182
 O650 O 0.71832 0.30551 0.75050
 O651 O 0.77807 0.18346 0.75198
 O652 O 0.71891 0.24328 0.81266
 O653 O 0.66365 0.28531 0.79257
 O654 O 0.70089 0.33271 0.82958
 O655 O 0.77812 0.24722 0.81353
 O656 O 0.77853 0.24581 0.68971
 O657 O 0.77447 0.30898 0.75081
 O658 O 0.71931 0.24173 0.69017
 Zr659 Zr 0.74657 0.30472 0.81042
 Zr660 Zr 0.75058 0.18440 0.69193
 Zr661 Zr 0.69263 0.24036 0.75137
 Zr662 Zr 0.75022 0.18580 0.81172
 Zr663 Zr 0.74695 0.30322 0.69093
 Zr664 Zr 0.80417 0.24799 0.75178
 H665 H 0.79178 0.15437 0.75203
 H666 H 0.70448 0.24300 0.84000
 H667 H 0.78665 0.33960 0.75059
 H668 H 0.70519 0.24049 0.66259
 H669 H 0.74602 0.39378 0.78926
 H670 H 0.73781 0.39171 0.71043
 H671 H 0.74961 0.09595 0.79429
 H672 H 0.74959 0.09565 0.71405
 C673 C -0.00364 0.49093 0.35075
 C674 C -0.00268 0.49835 0.65272
 C675 C -0.07525 0.57785 0.43175
 C676 C -0.07981 0.41803 0.43302
 C677 C -0.07531 0.57519 0.57455
 C678 C 0.07456 0.56619 0.57381
 C679 C 0.07009 0.41674 0.57871
 C680 C 0.07383 0.56316 0.42504
 C681 C -0.07868 0.42113 0.57465
 C682 C 0.06981 0.41371 0.42757
 O683 O -0.04522 0.58635 0.58211
 O684 O -0.08509 0.54274 0.54581
 O685 O -0.04915 0.40945 0.58436
 O686 O -0.08726 0.45248 0.54410
 O687 O 0.03967 0.40737 0.41692
 O688 O 0.07975 0.44261 0.45958
 O689 O -0.00298 0.45695 0.63273
 O690 O -0.00089 0.53862 0.63121
 O691 O -0.00463 0.45054 0.37215
 O692 O -0.00212 0.53226 0.37047
 O693 O 0.04511 0.57812 0.58436
 O694 O 0.08248 0.53395 0.54375
 O695 O -0.04525 0.58600 0.42093
 O696 O -0.08483 0.54462 0.45985
 O697 O 0.04435 0.57548 0.41550
 O698 O 0.08214 0.53145 0.45548
 O699 O 0.04004 0.40741 0.58629
 O700 O 0.08003 0.44651 0.54726
 O701 O -0.00721 0.35878 0.43535
 O702 O -0.00481 0.36154 0.57428
 O703 O 0.00282 0.63014 0.56683
 O704 O 0.00220 0.62690 0.42835
 O705 O -0.02922 0.55886 0.50070
 O706 O -0.03246 0.43281 0.50302
 O707 O 0.02687 0.55482 0.50022
 O708 O -0.03267 0.49488 0.44029
 O709 O -0.08796 0.45236 0.46075
 O710 O -0.05031 0.40591 0.42315
 O711 O 0.02687 0.49128 0.43968
 O712 O 0.02747 0.49383 0.56330
 O713 O 0.02345 0.42971 0.50240
 O714 O -0.03176 0.49702 0.56288
 Zr715 Zr -0.00467 0.43387 0.44287
 Zr716 Zr -0.00080 0.55496 0.56032
 Zr717 Zr -0.05850 0.49715 0.50196
 Zr718 Zr -0.00129 0.55249 0.44061
 Zr719 Zr -0.00387 0.43618 0.56241
 Zr720 Zr 0.05330 0.49049 0.50130
 H721 H 0.04077 0.58374 0.49970
 H722 H -0.04739 0.49539 0.41326
 H723 H 0.03566 0.39918 0.50280
 H724 H -0.04593 0.49781 0.59044
 H725 H -0.00129 0.34532 0.46581
 H726 H -0.01130 0.34696 0.54449
 H727 H 0.00461 0.64179 0.45920
 H728 H -0.00626 0.64335 0.53785
 C729 C 0.24871 0.74662 0.90113
 C730 C 0.24888 0.74567 0.59983
 C731 C 0.17415 0.66590 0.82382
 C732 C 0.17217 0.82224 0.82102
 C733 C 0.17427 0.66552 0.67769
 C734 C 0.32363 0.67215 0.67459
 C735 C 0.32229 0.82447 0.67962
 C736 C 0.32397 0.66872 0.82184
 C737 C 0.17205 0.82041 0.67889
 C738 C 0.32188 0.82141 0.82440
 O739 O 0.20427 0.65555 0.66854
 O740 O 0.16465 0.69627 0.70824
 O741 O 0.20178 0.83240 0.66995
 O742 O 0.16340 0.78653 0.70688
 O743 O 0.29199 0.83117 0.83436
 O744 O 0.33132 0.78988 0.79461
 O745 O 0.24782 0.78634 0.62052
 O746 O 0.25020 0.70461 0.62004
 O747 O 0.24692 0.78724 0.88055
 O748 O 0.25040 0.70561 0.88080
 O749 O 0.29404 0.65957 0.66592
 O750 O 0.33221 0.70400 0.70477
 O751 O 0.20414 0.65548 0.83216
 O752 O 0.16460 0.69704 0.79358
 O753 O 0.29417 0.65995 0.83336
 O754 O 0.33273 0.70042 0.79166
 O755 O 0.29236 0.83213 0.66801
 O756 O 0.33160 0.79298 0.70950
 O757 O 0.24731 0.87938 0.81958
 O758 O 0.24555 0.87875 0.67936
 O759 O 0.25034 0.61042 0.68028
 O760 O 0.24783 0.61121 0.82247
 O761 O 0.22062 0.68081 0.75041
 O762 O 0.21876 0.80700 0.75041
 O763 O 0.27646 0.68259 0.75037
 O764 O 0.21832 0.74412 0.81172
 O765 O 0.16364 0.78855 0.79264
 O766 O 0.20190 0.83302 0.83109
 O767 O 0.27787 0.74576 0.81239
 O768 O 0.27798 0.74569 0.68839
 O769 O 0.27493 0.80801 0.75052
 O770 O 0.21854 0.74381 0.68918
 Zr771 Zr 0.24712 0.80437 0.81013
 Zr772 Zr 0.24890 0.68530 0.69041
 Zr773 Zr 0.19190 0.74292 0.75043
 Zr774 Zr 0.24869 0.68569 0.81043
 Zr775 Zr 0.24723 0.80419 0.69077
 Zr776 Zr 0.30393 0.74592 0.75036
 H777 H 0.28959 0.65291 0.74993
 H778 H 0.20401 0.74400 0.83916
 H779 H 0.28729 0.83844 0.75092
 H780 H 0.20432 0.74354 0.66167
 H781 H 0.24149 0.89314 0.78919
 H782 H 0.24398 0.89336 0.71043
 H783 H 0.24562 0.59634 0.79157
 H784 H 0.24777 0.59626 0.71142
 C785 C 0.49846 0.49604 0.35045
 C786 C 0.49820 0.49561 0.65180
 C787 C 0.57286 0.41337 0.43120
 C788 C 0.57506 0.56946 0.42774
 C789 C 0.57299 0.41416 0.57158
 C790 C 0.42315 0.42494 0.57688
 C791 C 0.42564 0.57293 0.57514
 C792 C 0.42308 0.42448 0.42522
 C793 C 0.57579 0.57087 0.57167
 C794 C 0.42584 0.57575 0.42912
 O795 O 0.54302 0.40435 0.58122
 O796 O 0.58250 0.44707 0.54313
 O797 O 0.54620 0.58213 0.58221
 O798 O 0.58400 0.53794 0.54252
 O799 O 0.45573 0.58519 0.41861
 O800 O 0.41688 0.54268 0.45775
 O801 O 0.49886 0.53646 0.63125
 O802 O 0.49949 0.45463 0.63137
 O803 O 0.49825 0.53689 0.37099
 O804 O 0.49963 0.45504 0.37074
 O805 O 0.45281 0.41285 0.58597
 O806 O 0.41460 0.45450 0.54477
 O807 O 0.54283 0.40529 0.42044
 O808 O 0.58246 0.44562 0.46020
 O809 O 0.45270 0.41251 0.41591
 O810 O 0.41468 0.45439 0.45724
 O811 O 0.45557 0.58374 0.58422
 O812 O 0.41640 0.54069 0.54593
 O813 O 0.50106 0.63017 0.43178
 O814 O 0.50149 0.62980 0.57196
 O815 O 0.49541 0.36117 0.57149
 O816 O 0.49452 0.36157 0.42992
 O817 O 0.52642 0.43110 0.50081
 O818 O 0.52874 0.55772 0.50096
 O819 O 0.47055 0.43344 0.50111
 O820 O 0.52869 0.49446 0.43961
 O821 O 0.58364 0.53646 0.45664
 O822 O 0.54551 0.58183 0.41878
 O823 O 0.46939 0.49663 0.43911
 O824 O 0.46980 0.49641 0.56292
 O825 O 0.47267 0.55893 0.50133
 O826 O 0.52902 0.49440 0.56237
 Zr827 Zr 0.50017 0.55517 0.44128
 Zr828 Zr 0.49852 0.43587 0.56092
 Zr829 Zr 0.55516 0.49331 0.50078
 Zr830 Zr 0.49821 0.43610 0.44104
 Zr831 Zr 0.50048 0.55502 0.56101
 Zr832 Zr 0.44364 0.49703 0.50117
 H833 H 0.45684 0.40425 0.50111
 H834 H 0.54307 0.49351 0.41220
 H835 H 0.46023 0.58922 0.50159
 H836 H 0.54348 0.49386 0.58968
 H837 H 0.50772 0.64371 0.46195
 H838 H 0.50002 0.64433 0.54085
 H839 H 0.49439 0.34701 0.46110
 H840 H 0.49918 0.34660 0.54076
 C841 C 0.74700 0.74844 0.90102
 C842 C 0.75034 0.74971 0.59995
 C843 C 0.67433 0.66762 0.82181
 C844 C 0.67152 0.82472 0.81947
 C845 C 0.67608 0.66718 0.67728
 C846 C 0.82572 0.67533 0.67875
 C847 C 0.82289 0.82566 0.67889
 C848 C 0.82249 0.67650 0.83003
 C849 C 0.67253 0.82014 0.67594
 C850 C 0.82127 0.82512 0.82698
 O851 O 0.70620 0.65802 0.66811
 O852 O 0.66608 0.69741 0.70808
 O853 O 0.70218 0.83355 0.66793
 O854 O 0.66407 0.78782 0.70563
 O855 O 0.79127 0.83365 0.83742
 O856 O 0.83100 0.79550 0.79561
 O857 O 0.74894 0.79033 0.62082
 O858 O 0.75203 0.70860 0.62013
 O859 O 0.74606 0.78944 0.88095
 O860 O 0.74769 0.70769 0.88021
 O861 O 0.79625 0.66445 0.66742
 O862 O 0.83388 0.70637 0.70987
 O863 O 0.70427 0.65564 0.82681
 O864 O 0.66468 0.70094 0.79390
 O865 O 0.79310 0.66145 0.83352
 O866 O 0.83177 0.70877 0.80046
 O867 O 0.79304 0.83476 0.66790
 O868 O 0.83205 0.79471 0.70941
 O869 O 0.74690 0.88252 0.82048
 O870 O 0.74720 0.88282 0.68324
 O871 O 0.75267 0.61398 0.67997
 O872 O 0.75058 0.61413 0.82308
 O873 O 0.72129 0.68338 0.74955
 O874 O 0.71884 0.80992 0.75041
 O875 O 0.77747 0.68605 0.75103
 O876 O 0.71819 0.74678 0.81157
 O877 O 0.66361 0.79067 0.79123
 O878 O 0.70109 0.83607 0.83010
 O879 O 0.77733 0.74893 0.81325
 O880 O 0.77902 0.74949 0.68983
 O881 O 0.77519 0.81147 0.75162
 O882 O 0.71973 0.74671 0.68922
 Zr883 Zr 0.74672 0.80752 0.81069
 Zr884 Zr 0.75045 0.68874 0.69051
 Zr885 Zr 0.69247 0.74536 0.74990
 Zr886 Zr 0.74863 0.68845 0.80977
 Zr887 Zr 0.74788 0.80765 0.69130
 Zr888 Zr 0.80439 0.74970 0.75238
 H889 H 0.79099 0.65677 0.75141
 H890 H 0.70349 0.74635 0.83862
 H891 H 0.78773 0.84175 0.75200
 H892 H 0.70582 0.74576 0.66143
 H893 H 0.75121 0.89654 0.78968
 H894 H 0.73743 0.89553 0.71200
 H895 H 0.75132 0.59863 0.79230
 H896 H 0.74939 0.59960 0.71090
 C897 C 0.02491 -0.00879 0.27460
 C898 C 0.02508 -0.00887 0.22644
 C899 C -0.00275 0.00355 0.20156
 C900 C -0.03086 0.01891 0.22553
 C901 C -0.03054 0.02139 0.27447
 C902 C -0.00264 0.00610 0.29898
 C903 C -0.05861 0.03793 0.29722
 N904 N -0.08532 0.04987 0.27240
 N905 N -0.08583 0.04648 0.22647
 C906 C -0.05959 0.03132 0.20222
 H907 H 0.04658 -0.01974 0.29299
 H908 H 0.04718 -0.01832 0.20841
 H909 H -0.05980 0.04070 0.33445
 H910 H -0.06143 0.02907 0.16501
 C911 C 0.25902 0.27224 0.97914
 C912 C 0.25828 0.27324 1.02703
 C913 C 0.24427 0.23568 1.05288
 C914 C 0.22744 0.19844 1.02818
 C915 C 0.22763 0.19835 0.97879
 C916 C 0.24469 0.23480 0.95431
 C917 C 0.20883 0.16349 0.95555
 N918 N 0.19134 0.13095 0.97971
 N919 N 0.19051 0.13146 1.02560
 C920 C 0.20732 0.16427 1.05047
 H921 H 0.27151 0.30101 0.96124
 H922 H 0.27067 0.30281 1.04384
 H923 H 0.20651 0.16256 0.91854
 H924 H 0.20297 0.16431 1.08706
 C925 C 0.12838 0.16080 0.12968
 C926 C 0.10499 0.13750 0.10305
 C927 C 0.10208 0.08747 0.10391
 C928 C 0.12266 0.06058 0.13351
 C929 C 0.14675 0.08427 0.16025
 C930 C 0.14966 0.13481 0.15796
 C931 C 0.16628 0.05657 0.18986
 N932 N 0.16178 0.00847 0.19247
 N933 N 0.13892 -0.01365 0.16788
 C934 C 0.11914 0.01080 0.13881
 H935 H 0.13029 0.19952 0.12756
 H936 H 0.08914 0.15870 0.08127
 H937 H 0.18464 0.07269 0.21158
 H938 H 0.10040 -0.00864 0.12094
 C939 C 0.39794 0.34889 0.10853
 C940 C 0.37336 0.32423 0.13151
 C941 C 0.34823 0.34913 0.15348
 C942 C 0.34862 0.39998 0.15417
 C943 C 0.37367 0.42509 0.13080
 C944 C 0.39808 0.39910 0.10697
 C945 C 0.37408 0.47547 0.13361
 N946 N 0.35081 0.49887 0.15785
 N947 N 0.32731 0.47531 0.17986
 C948 C 0.32551 0.42678 0.17907
 H949 H 0.41666 0.32858 0.09095
 H950 H 0.37361 0.28537 0.13145
 H951 H 0.39301 0.49646 0.11776
 H952 H 0.30647 0.40975 0.19879
 C953 C 0.40486 0.11965 0.14153
 C954 C 0.38099 0.14266 0.16768
 C955 C 0.35070 0.15355 0.14848
 C956 C 0.34544 0.14361 0.10090
 C957 C 0.36838 0.11623 0.07536
 C958 C 0.39881 0.10405 0.09606
 C959 C 0.36005 0.10397 0.02947
 N960 N 0.33235 0.12063 0.01008
 N961 N 0.31237 0.14942 0.03299
 C962 C 0.31829 0.16199 0.07733
 H963 H 0.42799 0.11243 0.15779
 H964 H 0.38610 0.15130 0.20348
 H965 H 0.37514 0.08261 0.00764
 H966 H 0.30246 0.18774 0.09309
 C967 C 0.09926 0.39047 0.14309
 C968 C 0.12348 0.36714 0.16806
 C969 C 0.14737 0.34028 0.14539
 C970 C 0.14619 0.33565 0.09650
 C971 C 0.12172 0.35979 0.07104
 C972 C 0.09837 0.38794 0.09468
 C973 C 0.12081 0.35349 0.02275
 N974 N 0.14303 0.32510 0.00161
 N975 N 0.16586 0.30223 0.02550
 C976 C 0.16808 0.30630 0.07212
 H977 H 0.08141 0.41154 0.16166
 H978 H 0.12398 0.37094 0.20533
 H979 H 0.10236 0.37006 0.00166
 H980 H 0.18651 0.28584 0.08966
 C981 C 0.40366 0.12443 0.36293
 C982 C 0.37865 0.14681 0.33888
 C983 C 0.34840 0.15528 0.35974
 C984 C 0.34429 0.14333 0.40746
 C985 C 0.37035 0.12199 0.43218
 C986 C 0.39946 0.10949 0.40878
 C987 C 0.36692 0.11575 0.48026
 N988 N 0.33865 0.12657 0.50161
 N989 N 0.31368 0.14429 0.47825
 C990 C 0.31558 0.15333 0.43230
 H991 H 0.42626 0.11773 0.34501
 H992 H 0.38277 0.15637 0.30303
 H993 H 0.38676 0.10430 0.50149
 H994 H 0.29476 0.16951 0.41681
 C995 C 0.12721 0.40348 0.40256
 C996 C 0.15115 0.38490 0.37373
 C997 C 0.14354 0.35220 0.33842
 C998 C 0.11030 0.33915 0.33199
 C999 C 0.08702 0.35221 0.36594
 C1000 C 0.09485 0.38782 0.39955
 C1001 C 0.05698 0.32795 0.36522
 N1002 N 0.04878 0.30002 0.32875
 N1003 N 0.06879 0.29411 0.29315
 C1004 C 0.09908 0.31297 0.29331
 H1005 H 0.13435 0.43025 0.42773
 H1006 H 0.17597 0.39623 0.37954
 H1007 H 0.04056 0.32880 0.39400
 H1008 H 0.11338 0.30826 0.26251
 C1009 C 0.12190 0.07317 0.37634
 C1010 C 0.14588 0.09710 0.35129
 C1011 C 0.14770 0.14723 0.35186
 C1012 C 0.12580 0.17376 0.37971
 C1013 C 0.10155 0.14944 0.40537
 C1014 C 0.09925 0.09879 0.40269
 C1015 C 0.08117 0.17666 0.43439
 N1016 N 0.08474 0.22490 0.43684
 N1017 N 0.10740 0.24774 0.41249
 C1018 C 0.12804 0.22389 0.38417
 H1019 H 0.12060 0.03441 0.37445
 H1020 H 0.16284 0.07642 0.33073
 H1021 H 0.06302 0.16010 0.45610
 H1022 H 0.14630 0.24432 0.36616
 C1023 C 0.36933 0.38414 0.41983
 C1024 C 0.34457 0.36115 0.39535
 C1025 C 0.34634 0.35589 0.34718
 C1026 C 0.37294 0.37631 0.32306
 C1027 C 0.39852 0.39866 0.34795
 C1028 C 0.39689 0.40207 0.39705
 C1029 C 0.42436 0.41833 0.32238
 N1030 N 0.42445 0.41601 0.27556
 N1031 N 0.40014 0.39603 0.25229
 C1032 C 0.37430 0.37661 0.27441
 H1033 H 0.36737 0.38675 0.45711
 H1034 H 0.32422 0.34624 0.41433
 H1035 H 0.44408 0.43670 0.33877
 H1036 H 0.35474 0.36282 0.25369
 C1037 C 0.52147 -0.01933 0.27419
 C1038 C 0.52105 -0.02073 0.22610
 C1039 C 0.49380 -0.00495 0.20166
 C1040 C 0.46627 0.01197 0.22582
 C1041 C 0.46708 0.01490 0.27464
 C1042 C 0.49495 -0.00104 0.29876
 C1043 C 0.43930 0.03173 0.29775
 N1044 N 0.41241 0.04378 0.27335
 N1045 N 0.41150 0.04021 0.22745
 C1046 C 0.43746 0.02461 0.20285
 H1047 H 0.54279 -0.03202 0.29238
 H1048 H 0.54224 -0.03370 0.20779
 H1049 H 0.43835 0.03390 0.33504
 H1050 H 0.43522 0.02168 0.16568
 C1051 C 0.77614 0.23493 0.97629
 C1052 C 0.77669 0.23633 1.02435
 C1053 C 0.74894 0.24911 1.04925
 C1054 C 0.72040 0.26293 1.02547
 C1055 C 0.71973 0.26118 0.97665
 C1056 C 0.74792 0.24720 0.95223
 C1057 C 0.69056 0.27262 0.95390
 N1058 N 0.66421 0.28623 0.97874
 N1059 N 0.66505 0.28890 1.02468
 C1060 C 0.69219 0.27773 1.04885
 H1061 H 0.79796 0.22489 0.95772
 H1062 H 0.79906 0.22821 1.04226
 H1063 H 0.68838 0.27068 0.91672
 H1064 H 0.69131 0.27984 1.08605
 C1065 C 0.62413 0.11678 0.17061
 C1066 C 0.59977 0.09378 0.14544
 C1067 C 0.60066 0.09253 0.09696
 C1068 C 0.62610 0.11633 0.07336
 C1069 C 0.65122 0.13903 0.09885
 C1070 C 0.65032 0.13878 0.14808
 C1071 C 0.67558 0.16327 0.07390
 N1072 N 0.67469 0.16463 0.02707
 N1073 N 0.65084 0.14398 0.00334
 C1074 C 0.62646 0.12019 0.02486
 H1075 H 0.62274 0.11690 0.20804
 H1076 H 0.58017 0.07634 0.16401
 H1077 H 0.69483 0.18233 0.09090
 H1078 H 0.60723 0.10561 0.00389
 C1079 C -0.12195 0.41410 0.12745
 C1080 C -0.14573 0.39072 0.15341
 C1081 C -0.15142 0.34159 0.14759
 C1082 C -0.13352 0.31590 0.11381
 C1083 C -0.10890 0.33945 0.08805
 C1084 C -0.10299 0.38885 0.09538
 C1085 C -0.09172 0.31297 0.05463
 N1086 N -0.09913 0.26617 0.04736
 N1087 N -0.12260 0.24427 0.07101
 C1088 C -0.14011 0.26757 0.10377
 H1089 H -0.11780 0.45204 0.13313
 H1090 H -0.15962 0.41101 0.17852
 H1091 H -0.07286 0.32916 0.03376
 H1092 H -0.15944 0.24851 0.12099
 C1093 C 0.88097 0.14402 0.16229
 C1094 C 0.90629 0.12472 0.13626
 C1095 C 0.90153 0.11040 0.09033
 C1096 C 0.87110 0.11931 0.06930
 C1097 C 0.84449 0.13581 0.09633
 C1098 C 0.84960 0.14879 0.14384
 C1099 C 0.81421 0.13980 0.07367
 N1100 N 0.81154 0.13093 0.02775
 N1101 N 0.83707 0.11903 0.00219
 C1102 C 0.86675 0.11365 0.02130
 H1103 H 0.88581 0.15404 0.19783
 H1104 H 0.92962 0.11963 0.15277
 H1105 H 0.79242 0.15058 0.09060
 H1106 H 0.88683 0.10663 -0.00148
 C1107 C 0.62349 0.41343 0.11706
 C1108 C 0.64727 0.39040 0.14314
 C1109 C 0.64750 0.34037 0.14742
 C1110 C 0.62399 0.31292 0.12283
 C1111 C 0.59980 0.33645 0.09631
 C1112 C 0.59925 0.38713 0.09434
 C1113 C 0.57767 0.30826 0.07101
 N1114 N 0.57958 0.25979 0.07252
 N1115 N 0.60234 0.23766 0.09714
 C1116 C 0.62463 0.26249 0.12198
 H1117 H 0.62354 0.45226 0.11550
 H1118 H 0.66532 0.41190 0.16087
 H1119 H 0.55935 0.32415 0.04917
 H1120 H 0.64322 0.24255 0.13939
 C1121 C -0.09619 0.13328 0.36951
 C1122 C -0.12079 0.15245 0.34204
 C1123 C -0.15401 0.14459 0.35197
 C1124 C -0.16153 0.11513 0.39173
 C1125 C -0.13639 0.10267 0.42324
 C1126 C -0.10326 0.10780 0.41006
 C1127 C -0.14548 0.08509 0.46714
 N1128 N -0.17662 0.07291 0.47600
 N1129 N -0.19938 0.07709 0.44385
 C1130 C -0.19288 0.09675 0.40206
 H1131 H -0.07128 0.13816 0.35843
 H1132 H -0.11333 0.17319 0.31217
 H1133 H -0.12843 0.08146 0.49491
 H1134 H -0.21222 0.09514 0.37745
 C1135 C 0.62722 0.40800 0.39462
 C1136 C 0.65013 0.38534 0.36678
 C1137 C 0.64437 0.33968 0.34798
 C1138 C 0.61448 0.31584 0.35919
 C1139 C 0.59268 0.33751 0.39118
 C1140 C 0.59813 0.38510 0.40661
 C1141 C 0.56637 0.31020 0.40783
 N1142 N 0.55990 0.26656 0.38964
 N1143 N 0.57848 0.24784 0.35675
 C1144 C 0.60541 0.27061 0.34109
 H1145 H 0.63211 0.44427 0.40617
 H1146 H 0.67243 0.40438 0.35900
 H1147 H 0.55141 0.32239 0.43608
 H1148 H 0.61907 0.25187 0.31541
 C1149 C 0.61443 0.07249 0.36475
 C1150 C 0.63830 0.09581 0.33887
 C1151 C 0.64885 0.14177 0.35126
 C1152 C 0.63547 0.16433 0.39091
 C1153 C 0.60988 0.14188 0.41542
 C1154 C 0.59991 0.09526 0.40268
 C1155 C 0.59558 0.16655 0.45271
 N1156 N 0.60759 0.20966 0.46603
 N1157 N 0.63260 0.22983 0.44426
 C1158 C 0.64697 0.20858 0.40736
 H1159 H 0.60678 0.03680 0.35464
 H1160 H 0.64870 0.07787 0.30911
 H1161 H 0.57557 0.15142 0.47212
 H1162 H 0.66690 0.22675 0.39088
 C1163 C -0.12716 0.41600 0.38036
 C1164 C -0.15047 0.39163 0.35429
 C1165 C -0.15328 0.34160 0.35674
 C1166 C -0.13309 0.31592 0.38772
 C1167 C -0.10922 0.34063 0.41397
 C1168 C -0.10597 0.39103 0.40959
 C1169 C -0.09001 0.31406 0.44495
 N1170 N -0.09459 0.26610 0.44924
 N1171 N -0.11717 0.24302 0.42494
 C1172 C -0.13663 0.26630 0.39454
 H1173 H -0.12503 0.45455 0.37672
 H1174 H -0.16610 0.41190 0.33141
 H1175 H -0.07184 0.33103 0.46641
 H1176 H -0.15506 0.24604 0.37667
 C1177 C 0.01900 0.51528 0.27549
 C1178 C 0.01986 0.51419 0.22742
 C1179 C -0.00286 0.48729 0.20241
 C1180 C -0.02773 0.46214 0.22638
 C1181 C -0.02880 0.46370 0.27537
 C1182 C -0.00474 0.48974 0.29991
 C1183 C -0.05478 0.44067 0.29807
 N1184 N -0.07762 0.41694 0.27328
 N1185 N -0.07650 0.41516 0.22733
 C1186 C -0.05255 0.43709 0.20308
 H1187 H 0.03732 0.53570 0.29385
 H1188 H 0.03869 0.53410 0.20956
 H1189 H -0.05769 0.44211 0.33513
 H1190 H -0.05375 0.43563 0.16590
 C1191 C 0.27630 0.74061 0.97633
 C1192 C 0.27625 0.74148 1.02448
 C1193 C 0.24718 0.74660 1.04902
 C1194 C 0.21782 0.75415 1.02478
 C1195 C 0.21805 0.75543 0.97588
 C1196 C 0.24744 0.74722 0.95175
 C1197 C 0.18863 0.76432 0.95276
 N1198 N 0.16088 0.77062 0.97729
 N1199 N 0.16063 0.76877 1.02329
 C1200 C 0.18811 0.76066 1.04784
 H1201 H 0.29905 0.73560 0.95813
 H1202 H 0.29907 0.73846 1.04272
 H1203 H 0.18732 0.76565 0.91549
 H1204 H 0.18654 0.75971 1.08507
 C1205 C 0.14899 0.59038 0.14627
 C1206 C 0.12518 0.56616 0.12098
 C1207 C 0.10084 0.59151 0.09764
 C1208 C 0.10147 0.64235 0.09790
 C1209 C 0.12542 0.66697 0.12397
 C1210 C 0.14899 0.64057 0.14918
 C1211 C 0.12558 0.71743 0.12250
 N1212 N 0.10330 0.74130 0.09690
 N1213 N 0.08104 0.71818 0.07212
 C1214 C 0.07950 0.66965 0.07147
 H1215 H 0.16717 0.56972 0.16455
 H1216 H 0.12527 0.52730 0.12053
 H1217 H 0.14357 0.73824 0.14043
 H1218 H 0.06161 0.65303 0.04941
 C1219 C 0.37716 0.83165 0.14337
 C1220 C 0.40137 0.85673 0.11978
 C1221 C 0.39666 0.90421 0.10392
 C1222 C 0.36745 0.92818 0.11814
 C1223 C 0.34368 0.90295 0.14484
 C1224 C 0.34766 0.85335 0.15480
 C1225 C 0.31768 0.92918 0.16383
 N1226 N 0.31455 0.97657 0.15506
 N1227 N 0.33626 1.00011 0.12976
 C1228 C 0.36263 0.97793 0.11182
 H1229 H 0.38141 0.79438 0.15204
 H1230 H 0.42329 0.83715 0.11127
 H1231 H 0.30077 0.91333 0.18771
 H1232 H 0.38010 1.00045 0.09527
 C1233 C 0.40515 0.61950 0.14358
 C1234 C 0.38000 0.64165 0.16777
 C1235 C 0.34992 0.65060 0.14669
 C1236 C 0.34616 0.63948 0.09871
 C1237 C 0.37243 0.61892 0.07389
 C1238 C 0.40121 0.60560 0.09738
 C1239 C 0.36964 0.61437 0.02558
 N1240 N 0.34147 0.62511 0.00405
 N1241 N 0.31612 0.64162 0.02750
 C1242 C 0.31762 0.64966 0.07366
 H1243 H 0.42763 0.61221 0.16152
 H1244 H 0.38384 0.65064 0.20382
 H1245 H 0.38998 0.60449 0.00449
 H1246 H 0.29666 0.66526 0.08920
 C1247 C 0.14991 0.85860 0.11028
 C1248 C 0.12499 0.87992 0.08535
 C1249 C 0.09521 0.89099 0.10634
 C1250 C 0.09100 0.88122 0.15451
 C1251 C 0.11721 0.86172 0.18014
 C1252 C 0.14623 0.84819 0.15733
 C1253 C 0.11410 0.85842 0.22845
 N1254 N 0.08577 0.86958 0.24943
 N1255 N 0.06048 0.88510 0.22532
 C1256 C 0.06218 0.89173 0.17897
 H1257 H 0.17217 0.84960 0.09236
 H1258 H 0.12893 0.88726 0.04897
 H1259 H 0.13426 0.84892 0.24986
 H1260 H 0.04095 0.90600 0.16290
 C1261 C 0.40487 0.62233 0.36183
 C1262 C 0.37985 0.64416 0.33716
 C1263 C 0.34846 0.64831 0.35579
 C1264 C 0.34297 0.63177 0.40217
 C1265 C 0.36937 0.61311 0.42822
 C1266 C 0.39983 0.60477 0.40668
 C1267 C 0.36474 0.60493 0.47584
 N1268 N 0.33499 0.60922 0.49503
 N1269 N 0.30958 0.62249 0.47000
 C1270 C 0.31250 0.63412 0.42470
 H1271 H 0.42826 0.61838 0.34519
 H1272 H 0.38494 0.65664 0.30242
 H1273 H 0.38461 0.59696 0.49846
 H1274 H 0.29073 0.64602 0.40841
 C1275 C 0.12678 -0.08822 0.39205
 C1276 C 0.14996 -0.11250 0.36600
 C1277 C 0.14345 -0.15769 0.34645
 C1278 C 0.11215 -0.17892 0.35440
 C1279 C 0.09031 -0.15626 0.38562
 C1280 C 0.09666 -0.10915 0.40179
 C1281 C 0.06305 -0.18227 0.40093
 N1282 N 0.05523 -0.22459 0.38103
 N1283 N 0.07342 -0.24333 0.34771
 C1284 C 0.10144 -0.22228 0.33377
 H1285 H 0.13243 -0.05252 0.40445
 H1286 H 0.17312 -0.09504 0.36028
 H1287 H 0.04852 -0.17020 0.42960
 H1288 H 0.11427 -0.24078 0.30704
 C1289 C 0.11829 0.56556 0.36675
 C1290 C 0.14226 0.58994 0.34160
 C1291 C 0.14884 0.63848 0.35021
 C1292 C 0.13165 0.66230 0.38594
 C1293 C 0.10645 0.63825 0.41007
 C1294 C 0.09989 0.58937 0.40048
 C1295 C 0.08924 0.66373 0.44424
 N1296 N 0.09792 0.70927 0.45496
 N1297 N 0.12230 0.73123 0.43340
 C1298 C 0.13939 0.70934 0.39934
 H1299 H 0.11363 0.52811 0.35920
 H1300 H 0.15563 0.57089 0.31508
 H1301 H 0.06962 0.64754 0.46347
 H1302 H 0.15866 0.72906 0.38284
 C1303 C 0.36828 -0.11592 0.42048
 C1304 C 0.34424 -0.14121 0.39656
 C1305 C 0.34578 -0.14670 0.34836
 C1306 C 0.37126 -0.12401 0.32367
 C1307 C 0.39630 -0.09981 0.34801
 C1308 C 0.39492 -0.09605 0.39707
 C1309 C 0.42140 -0.07876 0.32197
 N1310 N 0.42107 -0.08099 0.27516
 N1311 N 0.39699 -0.10215 0.25236
 C1312 C 0.37196 -0.12315 0.27501
 H1313 H 0.36662 -0.11327 0.45780
 H1314 H 0.32462 -0.15753 0.41600
 H1315 H 0.44083 -0.05940 0.33808
 H1316 H 0.35243 -0.13763 0.25475
 C1317 C 0.52384 0.47749 0.27565
 C1318 C 0.52395 0.47692 0.22755
 C1319 C 0.49733 0.49445 0.20280
 C1320 C 0.46967 0.51144 0.22666
 C1321 C 0.46986 0.51318 0.27549
 C1322 C 0.49730 0.49618 0.29988
 C1323 C 0.44189 0.52984 0.29833
 N1324 N 0.41537 0.54277 0.27356
 N1325 N 0.41502 0.54033 0.22759
 C1326 C 0.44123 0.52507 0.20331
 H1327 H 0.54478 0.46391 0.29413
 H1328 H 0.54502 0.46314 0.20948
 H1329 H 0.44046 0.53120 0.33561
 H1330 H 0.43947 0.52316 0.16608
 C1331 C 0.77460 0.73504 0.97519
 C1332 C 0.77528 0.73443 1.02327
 C1333 C 0.74804 0.74856 1.04869
 C1334 C 0.71932 0.76272 1.02544
 C1335 C 0.71836 0.76180 0.97657
 C1336 C 0.74636 0.74818 0.95158
 C1337 C 0.68911 0.77378 0.95431
 N1338 N 0.66280 0.78651 0.97966
 N1339 N 0.66375 0.78785 1.02566
 C1340 C 0.69104 0.77642 1.04939
 H1341 H 0.79642 0.72595 0.95626
 H1342 H 0.79740 0.72388 1.04077
 H1343 H 0.68683 0.77281 0.91709
 H1344 H 0.69013 0.77731 1.08667
 C1345 C 0.62528 0.61998 0.16808
 C1346 C 0.60078 0.59735 0.14294
 C1347 C 0.60218 0.59458 0.09454
 C1348 C 0.62855 0.61622 0.07096
 C1349 C 0.65383 0.63860 0.09653
 C1350 C 0.65222 0.64018 0.14575
 C1351 C 0.67916 0.66048 0.07153
 N1352 N 0.67908 0.66000 0.02467
 N1353 N 0.65511 0.63976 0.00087
 C1354 C 0.62978 0.61824 0.02236
 H1355 H 0.62333 0.62132 0.20544
 H1356 H 0.58063 0.58138 0.16154
 H1357 H 0.69863 0.67907 0.08841
 H1358 H 0.61055 0.60409 0.00119
 C1359 C 0.87134 0.82702 0.12786
 C1360 C 0.89498 0.85107 0.10221
 C1361 C 0.89555 0.90129 0.10003
 C1362 C 0.87237 0.92787 0.12580
 C1363 C 0.84825 0.90335 0.15187
 C1364 C 0.84752 0.85245 0.15218
 C1365 C 0.82643 0.93078 0.17841
 N1366 N 0.82857 0.97929 0.17845
 N1367 N 0.85118 1.00227 0.15411
 C1368 C 0.87321 0.97830 0.12807
 H1369 H 0.87131 0.78816 0.12811
 H1370 H 0.91288 0.83022 0.08350
 H1371 H 0.80821 0.91423 0.20003
 H1372 H 0.89145 0.99899 0.11024
 C1373 C 0.85895 0.65895 0.10844
 C1374 C 0.88287 0.63412 0.08397
 C1375 C 0.90085 0.59764 0.10515
 C1376 C 0.89512 0.58683 0.15239
 C1377 C 0.87098 0.61232 0.17738
 C1378 C 0.85281 0.64864 0.15506
 C1379 C 0.86533 0.59970 0.22378
 N1380 N 0.88303 0.56441 0.24381
 N1381 N 0.90582 0.54072 0.22049
 C1382 C 0.91240 0.55060 0.17552
 H1383 H 0.84523 0.68663 0.09092
 H1384 H 0.88757 0.64381 0.04834
 H1385 H 0.84694 0.61738 0.24426
 H1386 H 0.93093 0.52992 0.15825
 C1387 C 0.65056 0.86920 0.11287
 C1388 C 0.62563 0.89041 0.08768
 C1389 C 0.59310 0.89087 0.10353
 C1390 C 0.58683 0.87125 0.14912
 C1391 C 0.61346 0.85388 0.17609
 C1392 C 0.64497 0.84931 0.15648
 C1393 C 0.60823 0.84411 0.22323
 N1394 N 0.57815 0.84607 0.24159
 N1395 N 0.55275 0.85839 0.21615
 C1396 C 0.55588 0.87122 0.17123
 H1397 H 0.67452 0.86776 0.09748
 H1398 H 0.63206 0.90477 0.05404
 H1399 H 0.62796 0.83737 0.24632
 H1400 H 0.53363 0.88170 0.15533
 C1401 C -0.09551 0.62405 0.36387
 C1402 C -0.12013 0.64685 0.33917
 C1403 C -0.15153 0.65168 0.35756
 C1404 C -0.15737 0.63519 0.40385
 C1405 C -0.13115 0.61674 0.43035
 C1406 C -0.10073 0.60763 0.40911
 C1407 C -0.13598 0.60910 0.47798
 N1408 N -0.16589 0.61323 0.49674
 N1409 N -0.19121 0.62590 0.47120
 C1410 C -0.18803 0.63722 0.42586
 H1411 H -0.07235 0.61832 0.34697
 H1412 H -0.11480 0.65921 0.30447
 H1413 H -0.11614 0.60153 0.50082
 H1414 H -0.20975 0.64858 0.40904
 C1415 C 0.62545 -0.09287 0.39453
 C1416 C 0.64860 -0.11514 0.36696
 C1417 C 0.64248 -0.15946 0.34554
 C1418 C 0.61146 -0.18189 0.35304
 C1419 C 0.58946 -0.16116 0.38537
 C1420 C 0.59561 -0.11492 0.40385
 C1421 C 0.56223 -0.18815 0.39925
 N1422 N 0.55492 -0.22982 0.37776
 N1423 N 0.57345 -0.24692 0.34399
 C1424 C 0.60125 -0.22470 0.33091
 H1425 H 0.63088 -0.05758 0.40820
 H1426 H 0.67150 -0.09676 0.36170
 H1427 H 0.54724 -0.17742 0.42799
 H1428 H 0.61428 -0.24178 0.30350
 C1429 C 0.61830 0.57050 0.36823
 C1430 C 0.64207 0.59400 0.34215
 C1431 C 0.64940 0.64230 0.35038
 C1432 C 0.63307 0.66688 0.38655
 C1433 C 0.60798 0.64369 0.41157
 C1434 C 0.60083 0.59504 0.40246
 C1435 C 0.59154 0.66967 0.44616
 N1436 N 0.60086 0.71505 0.45637
 N1437 N 0.62514 0.73627 0.43392
 C1438 C 0.64151 0.71376 0.39949
 H1439 H 0.61303 0.53314 0.36106
 H1440 H 0.65476 0.57444 0.31529
 H1441 H 0.57206 0.65389 0.46614
 H1442 H 0.66070 0.73290 0.38230
 C1443 C -0.13088 -0.11825 0.42268
 C1444 C -0.15538 -0.14184 0.39809
 C1445 C -0.15448 -0.14451 0.34965
 C1446 C -0.12918 -0.12073 0.32548
 C1447 C -0.10402 -0.09740 0.35040
 C1448 C -0.10458 -0.09699 0.39961
 C1449 C -0.07965 -0.07378 0.32490
 N1450 N -0.08047 -0.07373 0.27804
 N1451 N -0.10430 -0.09499 0.25477
 C1452 C -0.12877 -0.11801 0.27685
 H1453 H -0.13202 -0.11772 0.46012
 H1454 H -0.17476 -0.15925 0.41712
 H1455 H -0.06037 -0.05431 0.34149
 H1456 H -0.14803 -0.13284 0.25617
 C1457 C 0.00643 0.03089 0.72849
 C1458 C 0.00701 0.02968 0.77644
 C1459 C -0.00013 -0.01261 0.80144
 C1460 C -0.00862 -0.05500 0.77512
 C1461 C -0.01441 -0.05044 0.72681
 C1462 C -0.00384 -0.00876 0.70288
 C1463 C -0.03127 -0.08771 0.70417
 N1464 N -0.03650 -0.12997 0.72577
 N1465 N -0.02638 -0.13725 0.76875
 C1466 C -0.01243 -0.10184 0.79393
 H1467 H 0.01413 0.06353 0.71135
 H1468 H 0.01433 0.06241 0.79378
 H1469 H -0.04130 -0.08342 0.67007
 H1470 H -0.00392 -0.11245 0.82743
 C1471 C 0.27603 0.24830 0.52461
 C1472 C 0.27548 0.25002 0.47645
 C1473 C 0.24667 0.25980 0.45263
 C1474 C 0.21827 0.27129 0.47784
 C1475 C 0.21895 0.27061 0.52688
 C1476 C 0.24799 0.25804 0.55023
 C1477 C 0.19017 0.28149 0.55087
 N1478 N 0.16278 0.29252 0.52716
 N1479 N 0.16222 0.29335 0.48112
 C1480 C 0.18896 0.28302 0.45566
 H1481 H 0.29857 0.23969 0.54205
 H1482 H 0.29776 0.24384 0.45757
 H1483 H 0.18907 0.28086 0.58818
 H1484 H 0.18709 0.28424 0.41840
 C1485 C 0.12547 0.12198 0.67023
 C1486 C 0.10075 0.09918 0.64580
 C1487 C 0.10164 0.09630 0.59743
 C1488 C 0.12745 0.11873 0.57308
 C1489 C 0.15282 0.14162 0.59793
 C1490 C 0.15192 0.14263 0.64710
 C1491 C 0.17747 0.16460 0.57239
 N1492 N 0.17675 0.16439 0.52554
 N1493 N 0.15277 0.14343 0.50233
 C1494 C 0.12804 0.12105 0.52445
 H1495 H 0.12412 0.12304 0.70765
 H1496 H 0.08101 0.08279 0.66495
 H1497 H 0.19692 0.18377 0.58885
 H1498 H 0.10872 0.10658 0.50376
 C1499 C 0.36890 0.38646 0.58451
 C1500 C 0.34492 0.36293 0.61003
 C1501 C 0.34879 0.35435 0.65756
 C1502 C 0.37712 0.37190 0.68013
 C1503 C 0.40059 0.39807 0.65448
 C1504 C 0.39722 0.40328 0.60588
 C1505 C 0.42627 0.41977 0.67876
 N1506 N 0.42978 0.41258 0.72476
 N1507 N 0.40881 0.38595 0.74845
 C1508 C 0.38260 0.36578 0.72789
 H1509 H 0.36559 0.39065 0.54757
 H1510 H 0.32359 0.34983 0.59208
 H1511 H 0.44293 0.44361 0.66195
 H1512 H 0.36614 0.34646 0.74974
 C1513 C 0.38185 0.08036 0.63296
 C1514 C 0.35707 0.10475 0.65582
 C1515 C 0.35277 0.15413 0.64962
 C1516 C 0.37325 0.17910 0.61846
 C1517 C 0.39796 0.15396 0.59421
 C1518 C 0.40206 0.10402 0.60147
 C1519 C 0.41731 0.17968 0.56268
 N1520 N 0.41216 0.22722 0.55611
 N1521 N 0.38893 0.25072 0.57875
 C1522 C 0.36926 0.22829 0.60956
 H1523 H 0.38559 0.04278 0.64035
 H1524 H 0.34141 0.08500 0.67917
 H1525 H 0.43625 0.16242 0.54290
 H1526 H 0.35049 0.24894 0.62638
 C1527 C 0.12714 0.39172 0.59249
 C1528 C 0.15210 0.37136 0.61829
 C1529 C 0.14626 0.35145 0.66198
 C1530 C 0.11451 0.35459 0.68076
 C1531 C 0.08820 0.37108 0.65302
 C1532 C 0.09485 0.39179 0.60835
 C1533 C 0.05667 0.36637 0.67229
 N1534 N 0.05261 0.35161 0.71656
 N1535 N 0.07765 0.34129 0.74356
 C1536 C 0.10836 0.34288 0.72728
 H1537 H 0.13324 0.40672 0.55903
 H1538 H 0.17621 0.37049 0.60335
 H1539 H 0.03468 0.37372 0.65412
 H1540 H 0.12766 0.33643 0.75128
 C1541 C 0.35770 0.15596 0.89456
 C1542 C 0.38274 0.13305 0.91831
 C1543 C 0.40241 0.09909 0.89629
 C1544 C 0.39802 0.09041 0.84837
 C1545 C 0.37287 0.11416 0.82403
 C1546 C 0.35236 0.14665 0.84761
 C1547 C 0.36862 0.10368 0.77686
 N1548 N 0.38852 0.07194 0.75555
 N1549 N 0.41219 0.04976 0.77833
 C1550 C 0.41751 0.05779 0.82395
 H1551 H 0.34269 0.18169 0.91275
 H1552 H 0.38722 0.14260 0.95393
 H1553 H 0.34955 0.12018 0.75688
 H1554 H 0.43652 0.03807 0.84090
 C1555 C 0.12137 0.31956 0.87088
 C1556 C 0.09703 0.34437 0.89453
 C1557 C 0.09569 0.39459 0.89349
 C1558 C 0.11842 0.42013 0.86605
 C1559 C 0.14316 0.39496 0.84199
 C1560 C 0.14508 0.34428 0.84550
 C1561 C 0.16458 0.42143 0.81383
 N1562 N 0.16152 0.46971 0.81061
 N1563 N 0.13833 0.49328 0.83321
 C1564 C 0.11662 0.47016 0.86056
 H1565 H 0.12221 0.28081 0.87339
 H1566 H 0.07957 0.32426 0.91481
 H1567 H 0.18331 0.40424 0.79359
 H1568 H 0.09776 0.49095 0.87688
 C1569 C 0.11980 0.14659 0.84666
 C1570 C 0.09610 0.12302 0.87242
 C1571 C 0.10237 0.07951 0.89596
 C1572 C 0.13367 0.05748 0.88823
 C1573 C 0.15664 0.08017 0.85801
 C1574 C 0.15061 0.12678 0.84010
 C1575 C 0.18437 0.05424 0.84442
 N1576 N 0.19058 0.01063 0.86265
 N1577 N 0.17046 -0.00958 0.89275
 C1578 C 0.14240 0.01178 0.90574
 H1579 H 0.11401 0.18157 0.83261
 H1580 H 0.07304 0.14130 0.87613
 H1581 H 0.20041 0.06688 0.81768
 H1582 H 0.12754 -0.00878 0.92849
 C1583 C 0.35955 0.32749 0.89590
 C1584 C 0.38376 0.35169 0.92037
 C1585 C 0.39486 0.39658 0.90545
 C1586 C 0.38136 0.41752 0.86530
 C1587 C 0.35538 0.39445 0.84226
 C1588 C 0.34527 0.34836 0.85686
 C1589 C 0.34074 0.41816 0.80477
 N1590 N 0.35296 0.46053 0.78964
 N1591 N 0.37852 0.48095 0.80985
 C1592 C 0.39320 0.46080 0.84703
 H1593 H 0.35188 0.29229 0.90749
 H1594 H 0.39426 0.33500 0.95070
 H1595 H 0.32020 0.40295 0.78676
 H1596 H 0.41356 0.47916 0.86259
 C1597 C 0.51757 0.01824 0.72697
 C1598 C 0.51734 0.01757 0.77501
 C1599 C 0.49356 -0.00813 0.79925
 C1600 C 0.46878 -0.03248 0.77447
 C1601 C 0.46871 -0.03100 0.72549
 C1602 C 0.49387 -0.00643 0.70178
 C1603 C 0.44259 -0.05246 0.70189
 N1604 N 0.41872 -0.07498 0.72580
 N1605 N 0.41898 -0.07696 0.77177
 C1606 C 0.44303 -0.05635 0.79686
 H1607 H 0.53673 0.03756 0.70927
 H1608 H 0.53630 0.03658 0.79348
 H1609 H 0.44044 -0.05044 0.66485
 H1610 H 0.44107 -0.05749 0.83394
 C1611 C 0.76901 0.21493 0.52427
 C1612 C 0.76847 0.21472 0.47610
 C1613 C 0.74592 0.24254 0.45177
 C1614 C 0.72236 0.26941 0.47656
 C1615 C 0.72242 0.26862 0.52556
 C1616 C 0.74680 0.24258 0.54945
 C1617 C 0.69719 0.29251 0.54902
 N1618 N 0.67445 0.31717 0.52503
 N1619 N 0.67488 0.31899 0.47908
 C1620 C 0.69786 0.29583 0.45410
 H1621 H 0.78729 0.19401 0.54202
 H1622 H 0.78635 0.19359 0.45763
 H1623 H 0.69474 0.29091 0.58604
 H1624 H 0.69606 0.29743 0.41702
 C1625 C 0.62342 0.12014 0.67100
 C1626 C 0.59933 0.09786 0.64486
 C1627 C 0.60275 0.09193 0.59689
 C1628 C 0.63095 0.11021 0.57466
 C1629 C 0.65456 0.13530 0.60097
 C1630 C 0.65142 0.13834 0.64988
 C1631 C 0.67978 0.15864 0.57696
 N1632 N 0.68277 0.15369 0.53059
 N1633 N 0.66174 0.12780 0.50629
 C1634 C 0.63591 0.10629 0.52662
 H1635 H 0.62020 0.12308 0.70809
 H1636 H 0.57799 0.08432 0.66247
 H1637 H 0.69646 0.18207 0.59418
 H1638 H 0.61933 0.08753 0.50455
 C1639 C -0.13026 0.37612 0.57948
 C1640 C -0.15455 0.35275 0.60435
 C1641 C -0.15371 0.35133 0.65278
 C1642 C -0.12869 0.37579 0.67679
 C1643 C -0.10371 0.39891 0.65158
 C1644 C -0.10437 0.39828 0.60242
 C1645 C -0.07971 0.42393 0.67662
 N1646 N -0.08079 0.42544 0.72343
 N1647 N -0.10443 0.40403 0.74704
 C1648 C -0.12847 0.37965 0.72537
 H1649 H -0.13124 0.37590 0.54202
 H1650 H -0.17378 0.33468 0.58559
 H1651 H -0.06085 0.44386 0.65960
 H1652 H -0.14760 0.36477 0.74629
 C1653 C 0.85585 0.15721 0.60633
 C1654 C 0.88038 0.13444 0.58148
 C1655 C 0.90161 0.10255 0.60336
 C1656 C 0.89852 0.09429 0.65163
 C1657 C 0.87375 0.11781 0.67694
 C1658 C 0.85231 0.14939 0.65390
 C1659 C 0.87063 0.10769 0.72438
 N1660 N 0.89113 0.07631 0.74500
 N1661 N 0.91438 0.05412 0.72128
 C1662 C 0.91871 0.06190 0.67540
 H1663 H 0.83972 0.18161 0.58845
 H1664 H 0.88310 0.14237 0.54506
 H1665 H 0.85186 0.12397 0.74511
 H1666 H 0.93742 0.04199 0.65789
 C1667 C 0.62091 0.41240 0.62294
 C1668 C 0.64423 0.38858 0.64927
 C1669 C 0.64565 0.33838 0.65007
 C1670 C 0.62365 0.31174 0.62220
 C1671 C 0.59987 0.33605 0.59544
 C1672 C 0.59827 0.38679 0.59648
 C1673 C 0.57925 0.30866 0.56698
 N1674 N 0.58226 0.26028 0.56564
 N1675 N 0.60463 0.23751 0.59048
 C1676 C 0.62547 0.26154 0.61844
 H1677 H 0.62016 0.45123 0.62389
 H1678 H 0.66119 0.40956 0.66958
 H1679 H 0.56123 0.32523 0.54508
 H1680 H 0.64364 0.24123 0.63659
 C1681 C 0.87885 0.17117 0.86554
 C1682 C 0.90327 0.14700 0.88957
 C1683 C 0.90175 0.09724 0.89595
 C1684 C 0.87582 0.07116 0.87525
 C1685 C 0.85145 0.09566 0.85000
 C1686 C 0.85225 0.14635 0.84696
 C1687 C 0.82777 0.06822 0.82674
 N1688 N 0.82757 0.01987 0.83063
 N1689 N 0.84985 -0.00301 0.85539
 C1690 C 0.87402 0.02089 0.87728
 H1691 H 0.88047 0.20968 0.86214
 H1692 H 0.92307 0.16749 0.90435
 H1693 H 0.81013 0.08436 0.80413
 H1694 H 0.89206 0.00014 0.89477
 C1695 C 0.65057 0.36361 0.88843
 C1696 C 0.62583 0.38379 0.91468
 C1697 C 0.59398 0.38677 0.89780
 C1698 C 0.58738 0.36957 0.85192
 C1699 C 0.61339 0.35198 0.82425
 C1700 C 0.64479 0.34641 0.84365
 C1701 C 0.60736 0.34220 0.77721
 N1702 N 0.57691 0.34467 0.76012
 N1703 N 0.55207 0.35752 0.78661
 C1704 C 0.55618 0.37030 0.83142
 H1705 H 0.67445 0.36081 0.90379
 H1706 H 0.63169 0.39664 0.94905
 H1707 H 0.62657 0.33427 0.75331
 H1708 H 0.53465 0.38144 0.84902
 C1709 C 0.61836 0.14120 0.84270
 C1710 C 0.59421 0.11630 0.86652
 C1711 C 0.60155 0.08242 0.90138
 C1712 C 0.63541 0.07331 0.91011
 C1713 C 0.65941 0.10493 0.89148
 C1714 C 0.65123 0.13665 0.85438
 C1715 C 0.69066 0.10354 0.91156
 N1716 N 0.69899 0.06735 0.94031
 N1717 N 0.67815 0.03271 0.95095
 C1718 C 0.64693 0.03403 0.93648
 H1719 H 0.61091 0.16509 0.81516
 H1720 H 0.56935 0.12383 0.85672
 H1721 H 0.70835 0.13148 0.90667
 H1722 H 0.63230 0.00320 0.94459
 C1723 C 0.86755 0.32571 0.87838
 C1724 C 0.89179 0.34905 0.90327
 C1725 C 0.89458 0.39901 0.90187
 C1726 C 0.87296 0.42602 0.87399
 C1727 C 0.84822 0.40220 0.84876
 C1728 C 0.84557 0.35160 0.85128
 C1729 C 0.82769 0.42983 0.82047
 N1730 N 0.83180 0.47801 0.81785
 N1731 N 0.85513 0.50036 0.84134
 C1732 C 0.87589 0.47606 0.86910
 H1733 H 0.86560 0.28714 0.88083
 H1734 H 0.90831 0.32800 0.92415
 H1735 H 0.80884 0.41361 0.79975
 H1736 H 0.89474 0.49604 0.88641
 C1737 C 0.01165 0.46531 0.72922
 C1738 C 0.01007 0.46371 0.77719
 C1739 C -0.00747 0.49830 0.80236
 C1740 C -0.02715 0.53147 0.77719
 C1741 C -0.02623 0.53179 0.72792
 C1742 C -0.00549 0.49953 0.70393
 C1743 C -0.04788 0.56219 0.70427
 N1744 N -0.06901 0.59000 0.72801
 N1745 N -0.07056 0.58879 0.77387
 C1746 C -0.05084 0.56014 0.79910
 H1747 H 0.02711 0.44012 0.71161
 H1748 H 0.02473 0.43703 0.79468
 H1749 H -0.04938 0.56286 0.66723
 H1750 H -0.05534 0.55822 0.83573
 C1751 C 0.27343 0.72800 0.52426
 C1752 C 0.27340 0.72943 0.47621
 C1753 C 0.24680 0.74766 0.45200
 C1754 C 0.22026 0.76745 0.47664
 C1755 C 0.22036 0.76653 0.52557
 C1756 C 0.24720 0.74638 0.54925
 C1757 C 0.19320 0.78504 0.54916
 N1758 N 0.16817 0.80426 0.52510
 N1759 N 0.16832 0.80585 0.47911
 C1760 C 0.19338 0.78795 0.45409
 H1761 H 0.29439 0.71359 0.54209
 H1762 H 0.29471 0.71763 0.45775
 H1763 H 0.19141 0.78402 0.58637
 H1764 H 0.19192 0.78986 0.41692
 C1765 C 0.12237 0.62079 0.67162
 C1766 C 0.09856 0.59667 0.64646
 C1767 C 0.10102 0.59167 0.59830
 C1768 C 0.12773 0.61290 0.57487
 C1769 C 0.15143 0.63870 0.60037
 C1770 C 0.14921 0.64126 0.64938
 C1771 C 0.17592 0.66290 0.57558
 N1772 N 0.17749 0.65942 0.52892
 N1773 N 0.15586 0.63404 0.50515
 C1774 C 0.13100 0.61105 0.52642
 H1775 H 0.11999 0.62304 0.70884
 H1776 H 0.07819 0.58112 0.66490
 H1777 H 0.19327 0.68566 0.59250
 H1778 H 0.11382 0.59258 0.50494
 C1779 C 0.37751 0.83269 0.64611
 C1780 C 0.40035 0.85642 0.61901
 C1781 C 0.39420 0.90220 0.60069
 C1782 C 0.36424 0.92527 0.61229
 C1783 C 0.34217 0.90201 0.64282
 C1784 C 0.34770 0.85396 0.65666
 C1785 C 0.31579 0.92844 0.66027
 N1786 N 0.30954 0.97294 0.64405
 N1787 N 0.32844 0.99327 0.61239
 C1788 C 0.35549 0.97130 0.59620
 H1789 H 0.38303 0.79688 0.65817
 H1790 H 0.42294 0.83812 0.61153
 H1791 H 0.30083 0.91494 0.68794
 H1792 H 0.36956 0.99123 0.57177
 C1793 C 0.37958 0.57528 0.63038
 C1794 C 0.35505 0.59920 0.65451
 C1795 C 0.34957 0.64826 0.64761
 C1796 C 0.36843 0.67317 0.61436
 C1797 C 0.39402 0.64924 0.59086
 C1798 C 0.39985 0.59997 0.59948
 C1799 C 0.41214 0.67516 0.55802
 N1800 N 0.40455 0.72147 0.54877
 N1801 N 0.38012 0.74355 0.57011
 C1802 C 0.36179 0.72100 0.60248
 H1803 H 0.38320 0.53733 0.63653
 H1804 H 0.34037 0.57933 0.67904
 H1805 H 0.43184 0.65885 0.53900
 H1806 H 0.34195 0.74047 0.61819
 C1807 C 0.12423 0.82198 0.62648
 C1808 C 0.10050 0.84604 0.60083
 C1809 C 0.09782 0.89614 0.60262
 C1810 C 0.11871 0.92213 0.63259
 C1811 C 0.14301 0.89775 0.65833
 C1812 C 0.14610 0.84729 0.65457
 C1813 C 0.16266 0.92469 0.68853
 N1814 N 0.15822 0.97267 0.69249
 N1815 N 0.13533 0.99542 0.66863
 C1816 C 0.11537 0.97180 0.63911
 H1817 H 0.12605 0.78334 0.62351
 H1818 H 0.08440 0.82542 0.57886
 H1819 H 0.18101 0.90803 0.70980
 H1820 H 0.09662 0.99183 0.62184
 C1821 C 0.37949 0.66132 0.85571
 C1822 C 0.40259 0.63734 0.88234
 C1823 C 0.39609 0.59217 0.90202
 C1824 C 0.36520 0.57035 0.89296
 C1825 C 0.34371 0.59244 0.86097
 C1826 C 0.34962 0.63989 0.84531
 C1827 C 0.31718 0.56560 0.84453
 N1828 N 0.30947 0.52311 0.86419
 N1829 N 0.32722 0.50494 0.89824
 C1830 C 0.35470 0.52676 0.91316
 H1831 H 0.38491 0.69721 0.84362
 H1832 H 0.42557 0.65508 0.88871
 H1833 H 0.30315 0.57727 0.81521
 H1834 H 0.36746 0.50868 0.94013
 C1835 C 0.15106 0.86267 0.89155
 C1836 C 0.12722 0.88653 0.91695
 C1837 C 0.09703 0.89851 0.89718
 C1838 C 0.09329 0.89089 0.84838
 C1839 C 0.11753 0.86587 0.82276
 C1840 C 0.14618 0.84993 0.84512
 C1841 C 0.11342 0.86113 0.77460
 N1842 N 0.08762 0.88118 0.75321
 N1843 N 0.06596 0.90674 0.77656
 C1844 C 0.06830 0.91290 0.82288
 H1845 H 0.17343 0.85318 0.90888
 H1846 H 0.13207 0.89341 0.95320
 H1847 H 0.13110 0.84398 0.75315
 H1848 H 0.05196 0.93770 0.83858
 C1849 C 0.12071 0.62537 0.82993
 C1850 C 0.09593 0.60284 0.85463
 C1851 C 0.09822 0.59656 0.90258
 C1852 C 0.12563 0.61500 0.92633
 C1853 C 0.15145 0.63639 0.90112
 C1854 C 0.14892 0.64156 0.85216
 C1855 C 0.17830 0.65352 0.92642
 N1856 N 0.17890 0.65008 0.97315
 N1857 N 0.15420 0.63154 0.99672
 C1858 C 0.12750 0.61451 0.97497
 H1859 H 0.11807 0.62945 0.79290
 H1860 H 0.07501 0.58941 0.83596
 H1861 H 0.19851 0.67087 0.91021
 H1862 H 0.10770 0.60213 0.99605
 C1863 C 0.37153 0.82413 0.87212
 C1864 C 0.39500 0.84864 0.89752
 C1865 C 0.39454 0.89880 0.90073
 C1866 C 0.37047 0.92484 0.87617
 C1867 C 0.34700 0.89990 0.84953
 C1868 C 0.34712 0.84911 0.84870
 C1869 C 0.32486 0.92683 0.82306
 N1870 N 0.32560 0.97536 0.82455
 N1871 N 0.34725 0.99876 0.85017
 C1872 C 0.36976 0.97521 0.87565
 H1873 H 0.37212 0.78530 0.87134
 H1874 H 0.41348 0.82818 0.91540
 H1875 H 0.30746 0.90996 0.80037
 H1876 H 0.38719 0.99618 0.89439
 C1877 C 0.51861 0.47015 0.72791
 C1878 C 0.51763 0.47003 0.77596
 C1879 C 0.49331 0.49456 0.79995
 C1880 C 0.46959 0.52064 0.77497
 C1881 C 0.47051 0.52078 0.72601
 C1882 C 0.49556 0.49576 0.70252
 C1883 C 0.44563 0.54483 0.70218
 N1884 N 0.42222 0.56849 0.72591
 N1885 N 0.42174 0.56923 0.77190
 C1886 C 0.44450 0.54599 0.79717
 H1887 H 0.53799 0.45112 0.71043
 H1888 H 0.53676 0.45220 0.79467
 H1889 H 0.44417 0.54430 0.66504
 H1890 H 0.44237 0.54701 0.83423
 C1891 C 0.77439 0.73183 0.52377
 C1892 C 0.77399 0.73301 0.47565
 C1893 C 0.74724 0.75112 0.45165
 C1894 C 0.72105 0.77143 0.47667
 C1895 C 0.72150 0.77063 0.52565
 C1896 C 0.74843 0.75045 0.54917
 C1897 C 0.69455 0.78934 0.54948
 N1898 N 0.66953 0.80900 0.52576
 N1899 N 0.66943 0.81070 0.47978
 C1900 C 0.69419 0.79239 0.45446
 H1901 H 0.79546 0.71740 0.54133
 H1902 H 0.79518 0.72119 0.45694
 H1903 H 0.69298 0.78815 0.58663
 H1904 H 0.69249 0.79437 0.41732
 C1905 C 0.62360 0.62412 0.67021
 C1906 C 0.59939 0.60148 0.64455
 C1907 C 0.60214 0.59643 0.59642
 C1908 C 0.62961 0.61616 0.57357
 C1909 C 0.65367 0.64073 0.59950
 C1910 C 0.65117 0.64310 0.64852
 C1911 C 0.67868 0.66418 0.57505
 N1912 N 0.68051 0.66073 0.52842
 N1913 N 0.65866 0.63613 0.50432
 C1914 C 0.63327 0.61409 0.52524
 H1915 H 0.62089 0.62651 0.70743
 H1916 H 0.57855 0.58686 0.66263
 H1917 H 0.69621 0.68646 0.59214
 H1918 H 0.61592 0.59630 0.50359
 C1919 C 0.87444 0.82762 0.63509
 C1920 C 0.89807 0.85089 0.60889
 C1921 C 0.89674 0.90051 0.60175
 C1922 C 0.87188 0.92745 0.62405
 C1923 C 0.84776 0.90354 0.65058
 C1924 C 0.84855 0.85296 0.65465
 C1925 C 0.82452 0.93140 0.67413
 N1926 N 0.82506 0.97981 0.67052
 N1927 N 0.84754 1.00225 0.64555
 C1928 C 0.87100 0.97783 0.62265
 H1929 H 0.87609 0.78931 0.63950
 H1930 H 0.91733 0.82981 0.59350
 H1931 H 0.80656 0.91547 0.69655
 H1932 H 0.88918 0.99824 0.60489
 C1933 C 0.87327 0.67369 0.62598
 C1934 C 0.89704 0.64953 0.60061
 C1935 C 0.89960 0.59953 0.60281
 C1936 C 0.87846 0.57367 0.63264
 C1937 C 0.85464 0.59836 0.65886
 C1938 C 0.85181 0.64873 0.65489
 C1939 C 0.83478 0.57175 0.68912
 N1940 N 0.83844 0.52361 0.69242
 N1941 N 0.86076 0.50044 0.66782
 C1942 C 0.88091 0.52380 0.63833
 H1943 H 0.87101 0.71197 0.62197
 H1944 H 0.91302 0.66989 0.57820
 H1945 H 0.81667 0.58870 0.71063
 H1946 H 0.89900 0.50328 0.62029
 C1947 C 0.64458 0.89218 0.64541
 C1948 C 0.62023 0.91463 0.61988
 C1949 C 0.59691 0.88774 0.59581
 C1950 C 0.59887 0.83711 0.59621
 C1951 C 0.62371 0.81419 0.62208
 C1952 C 0.64640 0.84212 0.64771
 C1953 C 0.62587 0.76395 0.61954
 N1954 N 0.60442 0.73863 0.59368
 N1955 N 0.58103 0.76015 0.56973
 C1956 C 0.57762 0.80847 0.56990
 H1957 H 0.66189 0.91411 0.66412
 H1958 H 0.61926 0.95347 0.61950
 H1959 H 0.64499 0.74468 0.63659
 H1960 H 0.55876 0.82397 0.54873
 C1961 C 0.87976 0.65572 0.84845
 C1962 C 0.90382 0.63369 0.87472
 C1963 C 0.89642 0.60834 0.91534
 C1964 C 0.86393 0.61021 0.93236
 C1965 C 0.83915 0.63284 0.90564
 C1966 C 0.84709 0.65446 0.86193
 C1967 C 0.80756 0.63414 0.92491
 N1968 N 0.80131 0.61457 0.96675
 N1969 N 0.82447 0.59426 0.99171
 C1970 C 0.85538 0.59192 0.97628
 H1971 H 0.88687 0.67291 0.81640
 H1972 H 0.92850 0.63535 0.86202
 H1973 H 0.78761 0.65189 0.90911
 H1974 H 0.87275 0.57763 0.99992
 C1975 C 0.65029 0.86786 0.88825
 C1976 C 0.62574 0.88930 0.91406
 C1977 C 0.59392 0.89423 0.89668
 C1978 C 0.58853 0.88143 0.84886
 C1979 C 0.61429 0.86086 0.82230
 C1980 C 0.64486 0.85154 0.84312
 C1981 C 0.60937 0.85337 0.77456
 N1982 N 0.58063 0.86413 0.75469
 N1983 N 0.55661 0.88336 0.77894
 C1984 C 0.55972 0.89308 0.82458
 H1985 H 0.67374 0.86299 0.90447
 H1986 H 0.63162 0.89974 0.94920
 H1987 H 0.62842 0.84156 0.75202
 H1988 H 0.54005 0.91217 0.83975
 C1989 C 0.61662 0.64876 0.84075
 C1990 C 0.59249 0.62381 0.86454
 C1991 C 0.60025 0.58735 0.89616
 C1992 C 0.63371 0.57574 0.90271
 C1993 C 0.65801 0.60689 0.88497
 C1994 C 0.64965 0.64121 0.85020
 C1995 C 0.68959 0.60233 0.90364
 N1996 N 0.69738 0.56381 0.92982
 N1997 N 0.67571 0.52990 0.93933
 C1998 C 0.64430 0.53425 0.92632
 H1999 H 0.60914 0.67496 0.81526
 H2000 H 0.56744 0.63311 0.85767
 H2001 H 0.70795 0.62949 0.89983
 H2002 H 0.62862 0.50426 0.93329
 C2003 C 0.84860 0.84709 0.90035
 C2004 C 0.87356 0.86931 0.92510
 C2005 C 0.89723 0.89656 0.90224
 C2006 C 0.89479 0.90338 0.85367
 C2007 C 0.86931 0.88116 0.82866
 C2008 C 0.84659 0.85186 0.85216
 C2009 C 0.86658 0.89072 0.78099
 N2010 N 0.88792 0.92067 0.76004
 N2011 N 0.91178 0.94168 0.78351
 C2012 C 0.91599 0.93394 0.82939
 H2013 H 0.83112 0.82518 0.91879
 H2014 H 0.87473 0.86456 0.96226
 H2015 H 0.84718 0.87582 0.76046
 H2016 H 0.93518 0.95304 0.84666
   
