data_POSCAR
  _audit_creation_date              2014-09-24
  _audit_creation_method            'ToBaCCo'
  _symmetry_space_group_name_H-M    'P1'
  _symmetry_Int_Tables_number       1
  _symmetry_cell_setting            triclinic
  loop_
  _symmetry_equiv_pos_as_xyz
 x,y,z
_cell_length_a 45.5250
_cell_length_b 45.5932
_cell_length_c 45.3529
_cell_angle_alpha 89.972300
_cell_angle_beta 89.978900
_cell_angle_gamma 89.691900
loop_
  _atom_site_label
  _atom_site_type_symbol
  _atom_site_fract_x
  _atom_site_fract_y
  _atom_site_fract_z
C1 C 0.13600 -0.04295 0.25727
 C2 C 0.12518 -0.01463 0.26247
 C3 C 0.11443 -0.00725 0.29035
 C4 C 0.11449 -0.02788 0.31317
 C5 C 0.12639 -0.05591 0.30820
 C6 C 0.13719 -0.06399 0.28008
 C7 C 0.12552 0.00756 0.23885
 C8 C 0.11310 0.00146 0.21133
 C9 C 0.11322 0.02247 0.18845
 C10 C 0.12673 0.04983 0.19394
 C11 C 0.13919 0.05598 0.22161
 C12 C 0.13841 0.03480 0.24388
 H13 H 0.14521 -0.04768 0.23577
 H14 H 0.10556 0.01454 0.29416
 H15 H 0.10403 -0.02016 0.20782
 H16 H 0.14810 0.03948 0.26519
 H17 H 0.12535 -0.07185 0.32587
 H18 H 0.12693 0.06681 0.17725
 C19 C 0.36446 -0.04105 0.74351
 C20 C 0.37563 -0.01323 0.73695
 C21 C 0.38659 -0.00746 0.70857
 C22 C 0.38675 -0.02945 0.68697
 C23 C 0.37497 -0.05700 0.69364
 C24 C 0.36358 -0.06278 0.72176
 C25 C 0.37571 0.00991 0.75964
 C26 C 0.38666 0.00418 0.78800
 C27 C 0.38951 0.02697 0.80870
 C28 C 0.37956 0.05535 0.80095
 C29 C 0.36634 0.06059 0.77350
 C30 C 0.36519 0.03796 0.75273
 H31 H 0.35525 -0.04537 0.76511
 H32 H 0.39592 0.01380 0.70361
 H33 H 0.39507 -0.01754 0.79299
 H34 H 0.35561 0.04208 0.73123
 H35 H 0.37451 -0.07394 0.67688
 H36 H 0.38026 0.07296 0.81697
 C37 C 0.86268 0.46342 0.24802
 C38 C 0.87533 0.49073 0.24258
 C39 C 0.88765 0.49663 0.21502
 C40 C 0.88779 0.47525 0.19285
 C41 C 0.87489 0.44780 0.19834
 C42 C 0.86216 0.44193 0.22598
 C43 C 0.87537 0.51335 0.26559
 C44 C 0.88776 0.50750 0.29316
 C45 C 0.88789 0.52897 0.31555
 C46 C 0.87449 0.55639 0.30961
 C47 C 0.86209 0.56223 0.28185
 C48 C 0.86283 0.54071 0.25995
 H49 H 0.85291 0.45901 0.26936
 H50 H 0.89737 0.51790 0.21092
 H51 H 0.89661 0.48576 0.29712
 H52 H 0.85328 0.54514 0.23849
 H53 H 0.87476 0.43116 0.18129
 H54 H 0.87434 0.57362 0.32603
 C55 C 0.63734 0.46063 0.75487
 C56 C 0.62449 0.48787 0.76073
 C57 C 0.61205 0.49333 0.78837
 C58 C 0.61207 0.47155 0.81020
 C59 C 0.62527 0.44422 0.80431
 C60 C 0.63808 0.43879 0.77660
 C61 C 0.62440 0.51083 0.73804
 C62 C 0.61160 0.50566 0.71053
 C63 C 0.61122 0.52765 0.68889
 C64 C 0.62432 0.55487 0.69487
 C65 C 0.63747 0.55997 0.72242
 C66 C 0.63722 0.53794 0.74392
 H67 H 0.64710 0.45653 0.73344
 H68 H 0.60208 0.51453 0.79279
 H69 H 0.60162 0.48458 0.70609
 H70 H 0.64726 0.54182 0.76524
 H71 H 0.62553 0.42731 0.82111
 H72 H 0.62423 0.57196 0.67825
 C73 C 0.24208 0.13203 1.03695
 C74 C 0.23724 0.12020 1.00893
 C75 C 0.20942 0.10959 1.00156
 C76 C 0.18591 0.11100 1.02179
 C77 C 0.19098 0.12428 1.04947
 C78 C 0.21905 0.13436 1.05722
 C79 C 0.26112 0.11994 0.98696
 C80 C 0.28898 0.10932 0.99467
 C81 C 0.31272 0.11087 0.97481
 C82 C 0.30785 0.12400 0.94703
 C83 C 0.27977 0.13391 0.93884
 C84 C 0.25646 0.13159 0.95878
 H85 H 0.26351 0.14066 1.04254
 H86 H 0.20615 0.10099 0.97957
 H87 H 0.29214 0.10076 1.01673
 H88 H 0.23501 0.14020 0.95286
 H89 H 0.17372 0.12541 1.06586
 H90 H 0.32535 0.12523 0.93091
 C91 C 0.75595 0.36433 1.03888
 C92 C 0.76234 0.37677 1.01148
 C93 C 0.78987 0.38899 1.00641
 C94 C 0.81099 0.38955 1.02876
 C95 C 0.80454 0.37720 1.05640
 C96 C 0.77693 0.36407 1.06177
 C97 C 0.73997 0.37776 0.98815
 C98 C 0.71282 0.39128 0.99331
 C99 C 0.69137 0.39344 0.97089
 C100 C 0.69802 0.38059 0.94316
 C101 C 0.72499 0.36621 0.93830
 C102 C 0.74597 0.36536 0.96074
 H103 H 0.73410 0.35572 1.04239
 H104 H 0.79468 0.39862 0.98509
 H105 H 0.70862 0.39937 1.01532
 H106 H 0.76695 0.35461 0.95700
 H107 H 0.82139 0.37730 1.07324
 H108 H 0.68274 0.38182 0.92496
 C109 C 0.25757 0.86477 0.53892
 C110 C 0.26248 0.87632 0.51085
 C111 C 0.28997 0.88794 0.50376
 C112 C 0.31318 0.88773 0.52435
 C113 C 0.30821 0.87446 0.55209
 C114 C 0.28036 0.86345 0.55952
 C115 C 0.23904 0.87550 0.48854
 C116 C 0.21148 0.88770 0.49466
 C117 C 0.18907 0.88721 0.47345
 C118 C 0.19435 0.87388 0.44599
 C119 C 0.22192 0.86127 0.43991
 C120 C 0.24416 0.86226 0.46119
 H121 H 0.23631 0.85556 0.54428
 H122 H 0.29325 0.89639 0.48168
 H123 H 0.20757 0.89786 0.51593
 H124 H 0.26539 0.85241 0.45655
 H125 H 0.32526 0.87402 0.56872
 H126 H 0.17720 0.87334 0.42944
 C127 C 0.74155 0.63295 0.53978
 C128 C 0.73665 0.62117 0.51171
 C129 C 0.70889 0.61027 0.50454
 C130 C 0.68595 0.61117 0.52517
 C131 C 0.69078 0.62397 0.55289
 C132 C 0.71867 0.63469 0.56035
 C133 C 0.76040 0.62107 0.48967
 C134 C 0.78826 0.61027 0.49708
 C135 C 0.81193 0.61182 0.47706
 C136 C 0.80698 0.62570 0.44958
 C137 C 0.77882 0.63589 0.44184
 C138 C 0.75561 0.63316 0.46177
 H139 H 0.76289 0.64190 0.54521
 H140 H 0.70523 0.60080 0.48294
 H141 H 0.79143 0.60154 0.51906
 H142 H 0.73413 0.64189 0.45611
 H143 H 0.67317 0.62479 0.56897
 H144 H 0.82435 0.62741 0.43339
 C145 C -0.03988 0.25775 0.13199
 C146 C -0.01192 0.26233 0.12014
 C147 C -0.00419 0.29028 0.11011
 C148 C -0.02385 0.31420 0.11233
 C149 C -0.05139 0.30937 0.12588
 C150 C -0.05954 0.28116 0.13518
 C151 C 0.00989 0.23828 0.11994
 C152 C 0.00221 0.21046 0.10954
 C153 C 0.02204 0.18662 0.11123
 C154 C 0.04968 0.19140 0.12457
 C155 C 0.05776 0.21949 0.13421
 C156 C 0.03793 0.24282 0.13160
 H157 H -0.04584 0.23625 0.14022
 H158 H 0.01777 0.29333 0.10150
 H159 H -0.01978 0.20741 0.10104
 H160 H 0.04385 0.26421 0.14009
 H161 H -0.06732 0.32696 0.12796
 H162 H 0.06575 0.17389 0.12618
 C163 C -0.03681 0.74581 0.36523
 C164 C -0.00928 0.73846 0.37688
 C165 C -0.00449 0.71030 0.38838
 C166 C -0.02750 0.69003 0.38943
 C167 C -0.05526 0.69778 0.37826
 C168 C -0.05979 0.72551 0.36548
 C169 C 0.01412 0.76061 0.37752
 C170 C 0.00870 0.78816 0.39008
 C171 C 0.03049 0.80977 0.39026
 C172 C 0.05791 0.80372 0.37732
 C173 C 0.06346 0.77615 0.36453
 C174 C 0.04155 0.75463 0.36500
 H175 H -0.04033 0.76741 0.35581
 H176 H 0.01673 0.70459 0.39766
 H177 H -0.01259 0.79275 0.39981
 H178 H 0.04566 0.73337 0.35507
 H179 H -0.07301 0.68205 0.37893
 H180 H 0.07479 0.82039 0.37710
 C181 C 0.46210 0.24738 0.86305
 C182 C 0.48943 0.24267 0.87619
 C183 C 0.49549 0.21587 0.89006
 C184 C 0.47446 0.19329 0.89100
 C185 C 0.44684 0.19862 0.87760
 C186 C 0.44081 0.22545 0.86360
 C187 C 0.51210 0.26552 0.87503
 C188 C 0.50565 0.29419 0.88431
 C189 C 0.52801 0.31528 0.88616
 C190 C 0.55647 0.30768 0.87638
 C191 C 0.56247 0.27958 0.86540
 C192 C 0.54050 0.25839 0.86545
 H193 H 0.45754 0.26796 0.85191
 H194 H 0.51726 0.21255 0.89906
 H195 H 0.48378 0.29918 0.89238
 H196 H 0.54522 0.23662 0.85701
 H197 H 0.42962 0.18237 0.87825
 H198 H 0.57376 0.32394 0.87613
 C199 C 0.46033 0.75616 0.63405
 C200 C 0.48815 0.76199 0.62217
 C201 C 0.49436 0.79008 0.61132
 C202 C 0.47279 0.81207 0.61196
 C203 C 0.44521 0.80624 0.62429
 C204 C 0.43895 0.77829 0.63559
 C205 C 0.51070 0.73869 0.62149
 C206 C 0.50380 0.71087 0.61050
 C207 C 0.52453 0.68800 0.61126
 C208 C 0.55217 0.69302 0.62404
 C209 C 0.55939 0.72105 0.63461
 C210 C 0.53876 0.74385 0.63292
 H211 H 0.45570 0.73467 0.64313
 H212 H 0.51555 0.79454 0.60143
 H213 H 0.48220 0.70702 0.60125
 H214 H 0.54406 0.76522 0.64187
 H215 H 0.42854 0.82330 0.62474
 H216 H 0.56827 0.67546 0.62513
 C217 C 0.85933 1.03650 0.75751
 C218 C 0.87246 1.00930 0.76256
 C219 C 0.88529 1.00319 0.78981
 C220 C 0.88564 1.02422 0.81261
 C221 C 0.87143 1.05159 0.80732
 C222 C 0.85822 1.05773 0.77977
 C223 C 0.87258 0.98697 0.73923
 C224 C 0.88621 0.99273 0.71230
 C225 C 0.88671 0.97170 0.68950
 C226 C 0.87200 0.94471 0.69446
 C227 C 0.85807 0.93890 0.72169
 C228 C 0.85889 0.96012 0.74395
 H229 H 0.84974 1.04102 0.73609
 H230 H 0.89429 0.98141 0.79316
 H231 H 0.89568 1.01423 0.70916
 H232 H 0.84870 0.95585 0.76513
 H233 H 0.87123 1.06850 0.82405
 H234 H 0.87197 0.92780 0.67774
 C235 C 0.36023 0.53655 0.25438
 C236 C 0.37235 0.50901 0.26050
 C237 C 0.38537 0.50365 0.28781
 C238 C 0.38689 0.52581 0.30915
 C239 C 0.37406 0.55343 0.30313
 C240 C 0.36045 0.55888 0.27567
 C241 C 0.37243 0.48604 0.23785
 C242 C 0.38704 0.49083 0.21126
 C243 C 0.38832 0.46894 0.18965
 C244 C 0.37378 0.44207 0.19473
 C245 C 0.35861 0.43718 0.22151
 C246 C 0.35851 0.45930 0.24303
 H247 H 0.35061 0.54053 0.23288
 H248 H 0.39474 0.48219 0.29226
 H249 H 0.39762 0.51175 0.20751
 H250 H 0.34759 0.45576 0.26397
 H251 H 0.37474 0.57055 0.31966
 H252 H 0.37429 0.42514 0.17799
 C253 C 0.64116 1.04070 0.24205
 C254 C 0.62765 1.01378 0.23687
 C255 C 0.61463 1.00820 0.20963
 C256 C 0.61443 1.02954 0.18738
 C257 C 0.62854 1.05661 0.19253
 C258 C 0.64222 1.06221 0.21995
 C259 C 0.62723 0.99122 0.25994
 C260 C 0.61344 0.99685 0.28686
 C261 C 0.61255 0.97543 0.30928
 C262 C 0.62693 0.94820 0.30396
 C263 C 0.64095 0.94252 0.27675
 C264 C 0.64056 0.96413 0.25485
 H265 H 0.65101 1.04479 0.26341
 H266 H 0.60446 0.98708 0.20586
 H267 H 0.60415 1.01849 0.29027
 H268 H 0.65080 0.95996 0.23366
 H269 H 0.62884 1.07316 0.17540
 H270 H 0.62664 0.93100 0.32040
 C271 C 0.14056 0.53773 0.74692
 C272 C 0.12727 0.51073 0.74154
 C273 C 0.11425 0.50526 0.71425
 C274 C 0.11386 0.52683 0.69222
 C275 C 0.12774 0.55391 0.69758
 C276 C 0.14136 0.55940 0.72499
 C277 C 0.12676 0.48814 0.76457
 C278 C 0.11300 0.49384 0.79147
 C279 C 0.11172 0.47224 0.81344
 C280 C 0.12546 0.44481 0.80840
 C281 C 0.13983 0.43910 0.78135
 C282 C 0.13981 0.46086 0.75948
 H283 H 0.15035 0.54178 0.76831
 H284 H 0.10414 0.48415 0.71032
 H285 H 0.10308 0.51519 0.79518
 H286 H 0.15015 0.45667 0.73834
 H287 H 0.12785 0.57062 0.68059
 H288 H 0.12500 0.42809 0.82536
 C289 C 0.74485 0.85874 -0.03791
 C290 C 0.73951 0.87227 -0.01082
 C291 C 0.71264 0.88620 -0.00561
 C292 C 0.69100 0.88730 -0.02757
 C293 C 0.69635 0.87322 -0.05482
 C294 C 0.72334 0.85865 -0.06001
 C295 C 0.76242 0.87238 0.01194
 C296 C 0.78950 0.88526 0.00605
 C297 C 0.81194 0.88599 0.02746
 C298 C 0.80652 0.87203 0.05497
 C299 C 0.77913 0.85875 0.06087
 C300 C 0.75718 0.85953 0.03928
 H301 H 0.76596 0.84830 -0.04175
 H302 H 0.70876 0.89648 0.01560
 H303 H 0.79301 0.89403 -0.01585
 H304 H 0.73588 0.84990 0.04362
 H305 H 0.67969 0.87366 -0.07186
 H306 H 0.82299 0.87209 0.07215
 C307 C 0.24298 0.35888 0.45972
 C308 C 0.23778 0.37231 0.48689
 C309 C 0.21090 0.38619 0.49227
 C310 C 0.18907 0.38729 0.47049
 C311 C 0.19426 0.37321 0.44319
 C312 C 0.22128 0.35869 0.43777
 C313 C 0.26055 0.37196 0.50982
 C314 C 0.28772 0.38501 0.50452
 C315 C 0.30935 0.38568 0.52653
 C316 C 0.30368 0.37203 0.55389
 C317 C 0.27641 0.35838 0.55921
 C318 C 0.25490 0.35893 0.53709
 H319 H 0.26407 0.34844 0.45577
 H320 H 0.20711 0.39632 0.51357
 H321 H 0.29187 0.39496 0.48321
 H322 H 0.23359 0.34916 0.54101
 H323 H 0.17744 0.37356 0.42631
 H324 H 0.32034 0.37213 0.57094
 C325 C 0.25531 0.63929 -0.03890
 C326 C 0.26052 0.62567 -0.01186
 C327 C 0.28756 0.61216 -0.00637
 C328 C 0.30955 0.61169 -0.02805
 C329 C 0.30426 0.62583 -0.05530
 C330 C 0.27707 0.63992 -0.06069
 C331 C 0.23750 0.62585 0.01074
 C332 C 0.21035 0.61307 0.00487
 C333 C 0.18742 0.61373 0.02578
 C334 C 0.19256 0.62867 0.05278
 C335 C 0.22000 0.64180 0.05860
 C336 C 0.24236 0.63986 0.03753
 H337 H 0.23413 0.64953 -0.04290
 H338 H 0.29139 0.60192 0.01487
 H339 H 0.20712 0.60354 -0.01674
 H340 H 0.26362 0.64958 0.04182
 H341 H 0.32113 0.62587 -0.07215
 H342 H 0.17579 0.62957 0.06967
 C343 C 0.75558 0.13753 0.46113
 C344 C 0.76073 0.12393 0.48816
 C345 C 0.78764 0.11018 0.49359
 C346 C 0.81005 0.10956 0.47211
 C347 C 0.80471 0.12429 0.44498
 C348 C 0.77748 0.13833 0.43946
 C349 C 0.73803 0.12439 0.51117
 C350 C 0.71076 0.11159 0.50596
 C351 C 0.68923 0.11090 0.52807
 C352 C 0.69509 0.12440 0.55549
 C353 C 0.72248 0.13792 0.56069
 C354 C 0.74388 0.13728 0.53844
 H355 H 0.73442 0.14781 0.45714
 H356 H 0.79111 0.10079 0.51524
 H357 H 0.70648 0.10183 0.48460
 H358 H 0.76526 0.14691 0.54226
 H359 H 0.82119 0.12436 0.42779
 H360 H 0.67851 0.12435 0.57263
 C361 C 1.03705 0.75681 0.85833
 C362 C 1.01018 0.76176 0.87219
 C363 C 1.00442 0.78866 0.88574
 C364 C 1.02554 0.81119 0.88609
 C365 C 1.05259 0.80599 0.87122
 C366 C 1.05836 0.77879 0.85731
 C367 C 0.98781 0.73867 0.87243
 C368 C 0.99358 0.71199 0.88642
 C369 C 0.97244 0.68949 0.88725
 C370 C 0.94533 0.69450 0.87241
 C371 C 0.93956 0.72148 0.85804
 C372 C 0.96090 0.74344 0.85861
 H373 H 1.04130 0.73565 0.84824
 H374 H 0.98286 0.79194 0.89529
 H375 H 1.01517 0.70884 0.89593
 H376 H 0.95665 0.76443 0.84816
 H377 H 1.06959 0.82247 0.87108
 H378 H 0.92830 0.67804 0.87261
 C379 C 0.53807 0.25542 0.35907
 C380 C 0.51073 0.26127 0.37182
 C381 C 0.50558 0.28813 0.38569
 C382 C 0.52776 0.30928 0.38745
 C383 C 0.55523 0.30345 0.37407
 C384 C 0.56045 0.27646 0.35959
 C385 C 0.48770 0.23885 0.37147
 C386 C 0.49250 0.21207 0.38565
 C387 C 0.47055 0.19066 0.38644
 C388 C 0.44364 0.19617 0.37186
 C389 C 0.43873 0.22311 0.35713
 C390 C 0.46089 0.24440 0.35748
 H391 H 0.54187 0.23430 0.34874
 H392 H 0.48422 0.29239 0.39542
 H393 H 0.51347 0.20803 0.39627
 H394 H 0.45733 0.26544 0.34690
 H395 H 0.57241 0.31977 0.37495
 H396 H 0.42665 0.17964 0.37203
 C397 C 1.03861 0.24256 0.63982
 C398 C 1.01184 0.23805 0.62571
 C399 C 1.00618 0.21136 0.61184
 C400 C 1.02721 0.18854 0.61159
 C401 C 1.05415 0.19329 0.62665
 C402 C 1.05987 0.22029 0.64079
 C403 C 0.98924 0.26114 0.62594
 C404 C 0.99467 0.28811 0.61251
 C405 C 0.97321 0.31056 0.61215
 C406 C 0.94613 0.30516 0.62682
 C407 C 0.94070 0.27787 0.64058
 C408 C 0.96236 0.25601 0.63960
 H409 H 1.04277 0.26352 0.65025
 H410 H 0.98469 0.20839 0.60213
 H411 H 1.01623 0.29153 0.60308
 H412 H 0.95837 0.23479 0.64958
 H413 H 1.07108 0.17655 0.62685
 H414 H 0.92889 0.32158 0.62696
 C415 C 0.54008 0.74579 0.13842
 C416 C 0.51316 0.74062 0.12468
 C417 C 0.50775 0.71348 0.11158
 C418 C 0.52928 0.69133 0.11151
 C419 C 0.55633 0.69654 0.12589
 C420 C 0.56174 0.72382 0.13968
 C421 C 0.49045 0.76363 0.12420
 C422 C 0.49597 0.79045 0.11045
 C423 C 0.47438 0.81251 0.10957
 C424 C 0.44711 0.80755 0.12364
 C425 C 0.44155 0.78060 0.13799
 C426 C 0.46331 0.75870 0.13762
 H427 H 0.54403 0.76704 0.14833
 H428 H 0.48662 0.70970 0.10129
 H429 H 0.51723 0.79407 0.10034
 H430 H 0.45927 0.73767 0.14799
 H431 H 0.57302 0.67953 0.12634
 H432 H 0.43038 0.82453 0.12347
 O433 O 0.05273 1.06626 0.99729
 O434 O 0.02372 1.07198 0.95441
 O435 O -0.00468 1.05325 1.06783
 O436 O -0.04424 1.02481 1.07744
 O437 O 0.06672 0.99651 1.05529
 O438 O 0.07444 0.95356 1.02473
 O439 O -0.08270 0.97250 0.99239
 O440 O -0.08859 1.01550 1.01591
 O441 O -0.02758 0.98989 0.91901
 O442 O 0.01929 1.01019 0.91155
 O443 O -0.00834 0.91684 0.97444
 O444 O 0.01146 0.90962 1.02088
 O445 O -0.05560 0.93300 1.00700
 O446 O -0.01948 0.92433 1.04812
 O447 O 0.00567 0.94333 0.93448
 O448 O 0.04610 0.97896 0.92577
 O449 O -0.06755 1.00348 0.94588
 O450 O -0.07130 1.04684 0.97748
 O451 O 0.08025 1.02538 1.00671
 O452 O 0.08630 0.97674 0.98676
 O453 O 0.02584 1.00637 1.08253
 O454 O -0.02210 0.98282 1.08690
 O455 O 0.00563 1.08001 1.02673
 O456 O -0.01907 1.08290 0.97869
 Zr457 Zr 0.01007 1.04915 0.99271
 O458 O -0.01633 1.02351 0.96504
 Zr459 Zr -0.00833 1.01005 1.05171
 O460 O -0.03596 0.98331 1.02630
 Zr461 Zr 0.05004 0.99113 1.01218
 O462 O 0.02496 0.96313 0.98543
 Zr463 Zr -0.05148 1.00619 0.98926
 O464 O -0.02671 1.03439 1.01674
 Zr465 Zr 0.00701 0.98679 0.94988
 O466 O 0.03491 1.01426 0.97492
 Zr467 Zr -0.01185 0.94799 1.00871
 O468 O 0.01550 0.97307 1.03698
 O469 O 0.02714 1.02682 1.02877
 O470 O -0.02934 0.96962 0.97200
 C471 C 0.07733 1.05304 1.00200
 C472 C 0.00052 1.07756 1.05445
 C473 C 0.05355 1.00183 1.07984
 C474 C -0.08021 0.94571 1.00108
 C475 C -0.05465 0.99793 0.92131
 C476 C 0.00007 0.91895 0.94742
 H477 H -0.02334 1.03609 0.94869
 H478 H 0.03781 0.94686 0.97885
 H479 H 0.03956 1.03956 1.04119
 H480 H -0.05232 0.97670 1.03896
 H481 H -0.08354 1.03291 1.02789
 H482 H -0.06213 1.01566 1.06932
 H483 H 0.05606 0.96176 0.93465
 H484 H 0.08560 0.98786 0.96802
 H485 H -0.09164 1.04304 0.97069
 H486 H -0.00958 1.10217 0.98203
 H487 H 0.03212 0.91250 1.01487
 H488 H 0.06321 0.94392 1.04070
 H489 H 0.03879 1.05966 0.94460
 H490 H 0.01081 1.03013 0.91319
 H491 H -0.00870 0.96565 1.08726
 H492 H -0.03714 0.93279 1.05766
 O493 O 0.49094 0.41618 0.47570
 O494 O 0.51521 0.41491 0.52308
 O495 O 0.41629 0.47344 0.49321
 O496 O 0.40813 0.51900 0.50804
 O497 O 0.47393 0.49077 0.41712
 O498 O 0.52229 0.51041 0.41317
 O499 O 0.49484 0.55488 0.56595
 O500 O 0.45040 0.52854 0.57109
 O501 O 0.56289 0.49826 0.55665
 O502 O 0.56870 0.45012 0.52477
 O503 O 0.55336 0.56403 0.49790
 O504 O 0.52259 0.57188 0.45241
 O505 O 0.50746 0.57999 0.52447
 O506 O 0.48666 0.58532 0.47460
 O507 O 0.57944 0.52314 0.51014
 O508 O 0.58658 0.47527 0.49199
 O509 O 0.52173 0.51135 0.58192
 O510 O 0.47543 0.48341 0.58468
 O511 O 0.50572 0.44193 0.43540
 O512 O 0.54488 0.47348 0.42568
 O513 O 0.43327 0.50431 0.44281
 O514 O 0.42570 0.54614 0.47479
 O515 O 0.44257 0.43285 0.50611
 O516 O 0.47217 0.42919 0.54927
 Zr517 Zr 0.48583 0.44844 0.50884
 O518 O 0.51195 0.47435 0.53699
 Zr519 Zr 0.44763 0.50680 0.48668
 O520 O 0.47239 0.53506 0.51361
 Zr521 Zr 0.50683 0.48582 0.44948
 O522 O 0.53451 0.51259 0.47496
 Zr523 Zr 0.48856 0.51191 0.55011
 O524 O 0.46112 0.48446 0.52483
 Zr525 Zr 0.54793 0.49020 0.51325
 O526 O 0.52337 0.46222 0.48570
 Zr527 Zr 0.51026 0.54860 0.49084
 O528 O 0.48341 0.52340 0.46256
 O529 O 0.47003 0.47000 0.47135
 O530 O 0.52562 0.52714 0.52822
 C531 C 0.50032 0.41776 0.44891
 C532 C 0.41821 0.44641 0.50137
 C533 C 0.44697 0.49929 0.41860
 C534 C 0.50209 0.57848 0.55222
 C535 C 0.54937 0.50617 0.58030
 C536 C 0.57734 0.55067 0.50484
 H537 H 0.51817 0.46265 0.55430
 H538 H 0.55147 0.51873 0.46287
 H539 H 0.45766 0.45732 0.45875
 H540 H 0.46010 0.55186 0.51998
 H541 H 0.43475 0.51387 0.56795
 H542 H 0.41369 0.52990 0.52601
 H543 H 0.58678 0.48403 0.47204
 H544 H 0.55660 0.46076 0.43896
 H545 H 0.47645 0.49449 0.60346
 H546 H 0.46561 0.40879 0.54565
 H547 H 0.54094 0.56299 0.44477
 H548 H 0.51239 0.52976 0.41420
 H549 H 0.50573 0.39552 0.52072
 H550 H 0.56415 0.44594 0.54568
 H551 H 0.43785 0.55574 0.45950
 H552 H 0.46880 0.58767 0.48682
 O553 O 0.58183 0.02527 0.49052
 O554 O 0.58393 -0.02183 0.51472
 O555 O 0.52489 0.00856 0.41605
 O556 O 0.47938 -0.00686 0.40814
 O557 O 0.50624 0.08327 0.47496
 O558 O 0.48677 0.08614 0.52405
 O559 O 0.44449 -0.06566 0.49441
 O560 O 0.47107 -0.06988 0.44950
 O561 O 0.50304 -0.05752 0.56220
 O562 O 0.54887 -0.02400 0.56905
 O563 O 0.43446 0.00177 0.55463
 O564 O 0.42593 0.04694 0.52375
 O565 O 0.41856 -0.02499 0.50811
 O566 O 0.41237 0.02480 0.48799
 O567 O 0.47492 -0.01445 0.57928
 O568 O 0.52228 0.00778 0.58705
 O569 O 0.48706 -0.08122 0.52125
 O570 O 0.51602 -0.08368 0.47475
 O571 O 0.55576 0.06486 0.50662
 O572 O 0.52419 0.07381 0.54597
 O573 O 0.49318 0.05803 0.43392
 O574 O 0.45185 0.02613 0.42617
 O575 O 0.56551 -0.00499 0.44207
 O576 O 0.56996 -0.04783 0.47142
 Zr577 Zr 0.55007 -0.00791 0.48552
 O578 O 0.52468 -0.03659 0.51150
 Zr579 Zr 0.49134 0.01422 0.44784
 O580 O 0.46341 -0.01310 0.47261
 Zr581 Zr 0.51189 0.05058 0.50764
 O582 O 0.48551 0.02447 0.53537
 Zr583 Zr 0.48718 -0.04944 0.48810
 O584 O 0.51425 -0.02371 0.46071
 Zr585 Zr 0.50858 -0.01366 0.54805
 O586 O 0.53603 0.01445 0.52355
 Zr587 Zr 0.44957 0.00885 0.51108
 O588 O 0.47440 0.03753 0.48424
 O589 O 0.52800 0.02946 0.47031
 O590 O 0.47171 -0.02834 0.52566
 C591 C 0.58006 0.05166 0.50054
 C592 C 0.55194 0.00015 0.41778
 C593 C 0.49772 0.08203 0.44789
 C594 C 0.42070 -0.05247 0.50223
 C595 C 0.49357 -0.08045 0.54873
 C596 C 0.44751 -0.00814 0.57779
 H597 H 0.53664 -0.05381 0.51734
 H598 H 0.47910 0.03604 0.55265
 H599 H 0.54050 0.04226 0.45795
 H600 H 0.44665 -0.01941 0.46033
 H601 H 0.48587 -0.06648 0.43388
 H602 H 0.46835 -0.02466 0.41365
 H603 H 0.51093 0.02625 0.58873
 H604 H 0.53557 0.05985 0.55824
 H605 H 0.50505 -0.10238 0.47586
 H606 H 0.59042 -0.04405 0.46501
 H607 H 0.43479 0.05448 0.54215
 H608 H 0.46755 0.08541 0.51389
 H609 H 0.60331 -0.01924 0.50509
 H610 H 0.55498 -0.04382 0.56252
 H611 H 0.44186 0.04079 0.43884
 H612 H 0.41034 0.01304 0.46979
 O613 O 0.00382 0.44797 1.07011
 O614 O 0.04723 0.47685 1.07480
 O615 O -0.06624 0.50632 1.05990
 O616 O -0.07508 0.54763 1.03228
 O617 O -0.05645 0.43664 1.00106
 O618 O -0.02644 0.42925 0.95700
 O619 O 0.00721 0.58466 0.97658
 O620 O -0.01524 0.59024 1.02058
 O621 O 0.08047 0.52853 0.99280
 O622 O 0.08579 0.47881 1.01471
 O623 O 0.02372 0.50972 0.92026
 O624 O -0.02758 0.48855 0.91790
 O625 O -0.00760 0.55787 0.93698
 O626 O -0.04604 0.52703 0.92598
 O627 O 0.06423 0.49642 0.94627
 O628 O 0.07498 0.45706 0.97884
 O629 O 0.05422 0.56878 1.00657
 O630 O 0.02405 0.57259 1.05090
 O631 O -0.00767 0.42150 1.02907
 O632 O 0.01091 0.41549 0.98024
 O633 O -0.08248 0.47767 1.01305
 O634 O -0.08731 0.52530 0.99013
 O635 O -0.02480 0.49427 1.08533
 O636 O 0.02269 0.51925 1.08747
 Zr637 Zr 0.00826 0.49091 1.05335
 O638 O 0.03531 0.51757 1.02724
 Zr639 Zr -0.05127 0.51104 1.01607
 O640 O -0.02644 0.53820 0.98831
 Zr641 Zr -0.01323 0.45236 0.99512
 O642 O 0.01348 0.47714 0.96681
 Zr643 Zr 0.01106 0.55313 1.01042
 O644 O -0.01556 0.52837 1.03960
 Zr645 Zr 0.04945 0.49437 0.99001
 O646 O 0.02466 0.46631 1.01757
 Zr647 Zr -0.00979 0.51430 0.95229
 O648 O -0.03797 0.48769 0.97820
 O649 O -0.02842 0.47489 1.03168
 O650 O 0.02738 0.53107 0.97328
 C651 C -0.00195 0.42379 1.05671
 C652 C -0.05245 0.49970 1.08380
 C653 C -0.08049 0.45013 1.00764
 C654 C -0.00162 0.58235 0.94967
 C655 C 0.07851 0.55559 1.00071
 C656 C 0.05078 0.50149 0.92195
 H657 H 0.05183 0.52430 1.03961
 H658 H 0.01966 0.46431 0.95037
 H659 H -0.04059 0.46233 1.04454
 H660 H -0.03903 0.55472 0.98185
 H661 H -0.02655 0.58519 1.03852
 H662 H -0.06851 0.56507 1.02117
 H663 H 0.06328 0.44506 0.96506
 H664 H 0.03019 0.41619 0.99031
 H665 H 0.03057 0.59293 1.04690
 H666 H 0.02027 0.50912 1.10669
 H667 H -0.01428 0.47159 0.91478
 H668 H -0.04266 0.44070 0.94801
 H669 H 0.05614 0.46132 1.06239
 H670 H 0.08783 0.49146 1.03229
 H671 H -0.08757 0.51285 0.97225
 H672 H -0.05945 0.53857 0.93868
 O673 O 0.08276 0.47540 0.50960
 O674 O 0.08455 0.52274 0.48599
 O675 O 0.02611 0.49303 0.58493
 O676 O -0.01928 0.50795 0.59357
 O677 O 0.00769 0.41810 0.52631
 O678 O -0.01277 0.41541 0.47770
 O679 O -0.05500 0.56764 0.50729
 O680 O -0.02779 0.57181 0.55192
 O681 O 0.00205 0.55867 0.43876
 O682 O 0.04921 0.52513 0.43245
 O683 O -0.06552 0.50170 0.44795
 O684 O -0.07359 0.45563 0.47758
 O685 O -0.08092 0.52696 0.49457
 O686 O -0.08640 0.47697 0.51442
 O687 O -0.02457 0.51297 0.42157
 O688 O 0.02275 0.49418 0.41374
 O689 O -0.01276 0.58288 0.47997
 O690 O 0.01690 0.58506 0.52601
 O691 O 0.05647 0.43597 0.49427
 O692 O 0.02436 0.42721 0.45517
 O693 O -0.00592 0.44335 0.56730
 O694 O -0.04708 0.47636 0.57547
 O695 O 0.06676 0.50537 0.55860
 O696 O 0.07066 0.54858 0.52944
 Zr697 Zr 0.05089 0.50884 0.51528
 O698 O 0.02519 0.53774 0.48945
 Zr699 Zr -0.00757 0.48732 0.55351
 O700 O -0.03566 0.51504 0.52910
 Zr701 Zr 0.01262 0.45071 0.49361
 O702 O -0.01403 0.47703 0.46622
 Zr703 Zr -0.01212 0.55110 0.51317
 O704 O 0.01518 0.52504 0.54033
 Zr705 Zr 0.00881 0.51489 0.45309
 O706 O 0.03656 0.48656 0.47736
 Zr707 Zr -0.04975 0.49313 0.49086
 O708 O -0.02471 0.46411 0.51735
 O709 O 0.02897 0.47171 0.53079
 O710 O -0.02787 0.53007 0.47579
 C711 C 0.08086 0.44895 0.49977
 C712 C 0.05323 0.50080 0.58303
 C713 C -0.00100 0.41937 0.55331
 C714 C -0.07887 0.55447 0.50010
 C715 C -0.00701 0.58183 0.45233
 C716 C -0.05224 0.50855 0.42392
 H717 H 0.03704 0.55485 0.48339
 H718 H -0.02046 0.46540 0.44903
 H719 H 0.04160 0.45880 0.54304
 H720 H -0.05228 0.52152 0.54159
 H721 H -0.01273 0.56843 0.56732
 H722 H -0.02889 0.52672 0.58832
 H723 H 0.01416 0.47430 0.41361
 H724 H 0.03694 0.44041 0.44337
 H725 H 0.00590 0.60388 0.52507
 H726 H 0.09109 0.54460 0.53597
 H727 H -0.06504 0.44845 0.45886
 H728 H -0.03202 0.41669 0.48780
 H729 H 0.10397 0.52002 0.49554
 H730 H 0.05406 0.54569 0.43733
 H731 H -0.05693 0.46129 0.56333
 H732 H -0.08862 0.48895 0.53247
 O733 O 0.44625 1.06826 0.00254
 O734 O 0.47448 1.07242 0.04688
 O735 O 0.50575 1.06038 -0.06648
 O736 O 0.54764 1.03295 -0.07548
 O737 O 0.43732 0.99843 -0.05967
 O738 O 0.42974 0.95554 -0.02853
 O739 O 0.58473 0.97720 0.00648
 O740 O 0.58963 1.02129 -0.01545
 O741 O 0.52775 0.99277 0.07984
 O742 O 0.47609 1.01371 0.08346
 O743 O 0.51030 0.91998 0.02190
 O744 O 0.48958 0.91835 -0.03038
 O745 O 0.55855 0.93746 -0.00824
 O746 O 0.52912 0.92638 -0.04733
 O747 O 0.49678 0.94536 0.06277
 O748 O 0.45771 0.97561 0.07417
 O749 O 0.56816 1.00617 0.05384
 O750 O 0.57129 1.05072 0.02422
 O751 O 0.42063 1.02738 -0.01052
 O752 O 0.41496 0.97896 0.00780
 O753 O 0.47770 1.01443 -0.08438
 O754 O 0.52533 0.99125 -0.08906
 O755 O 0.49287 1.08499 -0.02469
 O756 O 0.51692 1.08639 0.02305
 Zr757 Zr 0.48944 1.05222 0.00750
 O758 O 0.51651 1.02639 0.03465
 Zr759 Zr 0.51083 1.01634 -0.05250
 O760 O 0.53820 0.98860 -0.02752
 Zr761 Zr 0.45217 0.99394 -0.01557
 O762 O 0.47721 0.96602 0.01160
 Zr763 Zr 0.55256 1.01038 0.01049
 O764 O 0.52741 1.03944 -0.01609
 Zr765 Zr 0.49384 0.98893 0.04817
 O766 O 0.46535 1.01598 0.02301
 Zr767 Zr 0.51483 0.95229 -0.01137
 O768 O 0.48817 0.97803 -0.03997
 O769 O 0.47410 1.03096 -0.02992
 O770 O 0.53104 0.97302 0.02632
 C771 C 0.42238 1.05476 -0.00402
 C772 C 0.49877 1.08390 -0.05229
 C773 C 0.45057 1.00711 -0.08319
 C774 C 0.58285 0.95034 -0.00215
 C775 C 0.55481 1.00077 0.07816
 C776 C 0.50212 0.92131 0.04907
 H777 H 0.52286 1.03868 0.05141
 H778 H 0.46461 0.94945 0.01753
 H779 H 0.46145 1.04371 -0.04225
 H780 H 0.55493 0.98242 -0.03999
 H781 H 0.58428 1.03919 -0.02665
 H782 H 0.56504 1.02146 -0.06924
 H783 H 0.44435 0.96455 0.06113
 H784 H 0.41547 0.98862 0.02733
 H785 H 0.59169 1.04691 0.03093
 H786 H 0.50622 1.10534 0.02132
 H787 H 0.47317 0.91405 -0.01677
 H788 H 0.44138 0.94656 -0.04463
 H789 H 0.45839 1.06021 0.05481
 H790 H 0.48947 1.03031 0.08728
 H791 H 0.51306 0.97340 -0.08966
 H792 H 0.53898 0.93971 -0.06135
 O793 O 0.49150 0.58371 0.02518
 O794 O 0.51489 0.58599 -0.02248
 O795 O 0.41815 0.52511 0.00726
 O796 O 0.41163 0.47927 -0.00780
 O797 O 0.47686 0.50734 0.08325
 O798 O 0.52650 0.48926 0.08611
 O799 O 0.49586 0.44545 -0.06597
 O800 O 0.45231 0.47267 -0.07071
 O801 O 0.56470 0.50350 -0.05752
 O802 O 0.56828 0.55262 -0.02564
 O803 O 0.55865 0.43824 -0.00042
 O804 O 0.52896 0.42902 0.04644
 O805 O 0.51367 0.42125 -0.02576
 O806 O 0.49338 0.41428 0.02423
 O807 O 0.58338 0.48006 -0.01144
 O808 O 0.58854 0.52750 0.00653
 O809 O 0.52374 0.48903 -0.08213
 O810 O 0.47713 0.51718 -0.08460
 O811 O 0.50710 0.55793 0.06523
 O812 O 0.54679 0.52735 0.07480
 O813 O 0.43629 0.49417 0.05749
 O814 O 0.42995 0.45270 0.02595
 O815 O 0.44319 0.56646 -0.00480
 O816 O 0.47207 0.57108 -0.04824
 Zr817 Zr 0.48678 0.55170 -0.00817
 O818 O 0.51322 0.52663 -0.03705
 Zr819 Zr 0.45064 0.49236 0.01369
 O820 O 0.47617 0.46482 -0.01354
 Zr821 Zr 0.50944 0.51416 0.05064
 O822 O 0.53800 0.48857 0.02440
 Zr823 Zr 0.49075 0.48867 -0.05012
 O824 O 0.46295 0.51543 -0.02427
 Zr825 Zr 0.55007 0.51158 -0.01393
 O826 O 0.52493 0.53848 0.01445
 Zr827 Zr 0.51501 0.45212 0.00838
 O828 O 0.48730 0.47624 0.03714
 O829 O 0.47195 0.52946 0.02929
 O830 O 0.52877 0.47429 -0.02901
 C831 C 0.50116 0.58213 0.05186
 C832 C 0.41925 0.55230 -0.00055
 C833 C 0.45005 0.49850 0.08173
 C834 C 0.50607 0.42245 -0.05299
 C835 C 0.55121 0.49485 -0.08088
 C836 C 0.58210 0.45233 -0.00738
 H837 H 0.51885 0.53855 -0.05437
 H838 H 0.55538 0.48279 0.03613
 H839 H 0.45929 0.54174 0.04214
 H840 H 0.46439 0.44774 -0.01975
 H841 H 0.43660 0.48730 -0.06688
 H842 H 0.41753 0.46767 -0.02526
 H843 H 0.58886 0.51951 0.02680
 H844 H 0.55850 0.53985 0.06142
 H845 H 0.47831 0.50615 -0.10341
 H846 H 0.46495 0.59132 -0.04438
 H847 H 0.54781 0.43752 0.05298
 H848 H 0.51720 0.46973 0.08495
 H849 H 0.50484 0.60516 -0.01980
 H850 H 0.56522 0.55556 -0.04704
 H851 H 0.44323 0.44270 0.04006
 H852 H 0.47533 0.41171 0.01238
 O853 O -0.08271 0.02375 0.50876
 O854 O -0.08352 -0.02308 0.48345
 O855 O -0.02608 0.00653 0.58322
 O856 O 0.01944 -0.00874 0.59149
 O857 O -0.00853 0.08192 0.52533
 O858 O 0.01172 0.08553 0.47665
 O859 O 0.05638 -0.06636 0.50424
 O860 O 0.03013 -0.07127 0.54911
 O861 O 0.00015 -0.05736 0.43631
 O862 O -0.04804 -0.02535 0.43015
 O863 O 0.06583 0.00111 0.44576
 O864 O 0.07311 0.04659 0.47650
 O865 O 0.08146 -0.02514 0.49165
 O866 O 0.08652 0.02449 0.51264
 O867 O 0.02519 -0.01120 0.41953
 O868 O -0.02277 0.00705 0.41215
 O869 O 0.01288 -0.08233 0.47783
 O870 O -0.01520 -0.08464 0.52436
 O871 O -0.05717 0.06352 0.49289
 O872 O -0.02523 0.07354 0.45420
 O873 O 0.00548 0.05640 0.56602
 O874 O 0.04685 0.02427 0.57401
 O875 O -0.06615 -0.00734 0.55677
 O876 O -0.06989 -0.04950 0.52666
 Zr877 Zr -0.05035 -0.00935 0.51334
 O878 O -0.02414 -0.03747 0.48724
 Zr879 Zr 0.00767 0.01266 0.55182
 O880 O 0.03628 -0.01418 0.52702
 Zr881 Zr -0.01306 0.04964 0.49227
 O882 O 0.01401 0.02414 0.46451
 Zr883 Zr 0.01334 -0.05048 0.51086
 O884 O -0.01444 -0.02526 0.53827
 Zr885 Zr -0.00810 -0.01399 0.45107
 O886 O -0.03637 0.01358 0.47565
 Zr887 Zr 0.04995 0.00837 0.48894
 O888 O 0.02443 0.03655 0.51586
 O889 O -0.02908 0.02796 0.52924
 O890 O 0.02876 -0.02884 0.47362
 C891 C -0.08126 0.05020 0.49884
 C892 C -0.05290 -0.00223 0.58122
 C893 C 0.00030 0.08046 0.55226
 C894 C 0.07997 -0.05276 0.49684
 C895 C 0.00789 -0.08088 0.45008
 C896 C 0.05273 -0.00600 0.42170
 H897 H -0.03576 -0.05467 0.48106
 H898 H 0.02024 0.03610 0.44745
 H899 H -0.04189 0.04052 0.54166
 H900 H 0.05307 -0.02053 0.53934
 H901 H 0.01537 -0.06821 0.56488
 H902 H 0.03076 -0.02646 0.58596
 H903 H -0.01400 0.02684 0.41186
 H904 H -0.03721 0.06016 0.44200
 H905 H -0.00408 -0.10339 0.52347
 H906 H -0.09051 -0.04584 0.53280
 H907 H 0.06443 0.05403 0.45794
 H908 H 0.03089 0.08463 0.48691
 H909 H -0.10310 -0.02055 0.49273
 H910 H -0.05224 -0.04611 0.43482
 H911 H 0.05683 0.03904 0.56159
 H912 H 0.08903 0.01213 0.53040
 O913 O 0.74815 0.31868 0.19443
 O914 O 0.70350 0.32291 0.22211
 O915 O 0.81599 0.30989 0.25565
 O916 O 0.82441 0.28199 0.29698
 O917 O 0.81006 0.25015 0.18519
 O918 O 0.78048 0.20623 0.17710
 O919 O 0.74228 0.22664 0.33224
 O920 O 0.76335 0.27078 0.33802
 O921 O 0.66990 0.24213 0.27382
 O922 O 0.66691 0.26368 0.22251
 O923 O 0.72842 0.16985 0.25673
 O924 O 0.78066 0.16817 0.23667
 O925 O 0.75784 0.18705 0.30587
 O926 O 0.79717 0.17616 0.27649
 O927 O 0.68787 0.19525 0.24240
 O928 O 0.67720 0.22613 0.20318
 O929 O 0.69491 0.25531 0.31501
 O930 O 0.72403 0.30009 0.31920
 O931 O 0.76146 0.27794 0.16831
 O932 O 0.74358 0.22924 0.16198
 O933 O 0.83414 0.26490 0.22649
 O934 O 0.83806 0.24037 0.27413
 O935 O 0.77469 0.33457 0.24168
 O936 O 0.72640 0.33622 0.26530
 Zr937 Zr 0.74239 0.30224 0.23750
 O938 O 0.71493 0.27618 0.26381
 Zr939 Zr 0.80195 0.26599 0.25948
 O940 O 0.77669 0.23822 0.28623
 Zr941 Zr 0.76624 0.24431 0.19968
 O942 O 0.73902 0.21612 0.22405
 Zr943 Zr 0.73840 0.25990 0.30020
 O944 O 0.76528 0.28907 0.27582
 Zr945 Zr 0.70213 0.23888 0.24034
 O946 O 0.72747 0.26627 0.21255
 Zr947 Zr 0.76130 0.20208 0.26206
 O948 O 0.79006 0.22797 0.23595
 O949 O 0.77994 0.28102 0.22253
 O950 O 0.72331 0.22269 0.27788
 C951 C 0.75518 0.30539 0.17038
 C952 C 0.80208 0.33346 0.24830
 C953 C 0.83326 0.25876 0.19889
 C954 C 0.75132 0.19987 0.33031
 C955 C 0.67099 0.24977 0.30114
 C956 C 0.70154 0.17120 0.24794
 H957 H 0.69802 0.28838 0.27007
 H958 H 0.73345 0.19963 0.21110
 H959 H 0.79225 0.29402 0.21027
 H960 H 0.78888 0.23195 0.30314
 H961 H 0.77471 0.28853 0.33290
 H962 H 0.81764 0.27064 0.31425
 H963 H 0.69034 0.21458 0.19022
 H964 H 0.72420 0.23920 0.16204
 H965 H 0.71677 0.29609 0.33943
 H966 H 0.72868 0.35527 0.25497
 H967 H 0.76766 0.16443 0.21962
 H968 H 0.79660 0.19757 0.18896
 H969 H 0.69569 0.31069 0.20590
 H970 H 0.66307 0.28038 0.23592
 H971 H 0.83938 0.22314 0.26090
 H972 H 0.81089 0.18945 0.28673
 O973 O 0.75126 0.68408 0.69088
 O974 O 0.79609 0.67873 0.71813
 O975 O 0.68416 0.69115 0.75418
 O976 O 0.67623 0.71821 0.79602
 O977 O 0.68900 0.75332 0.68497
 O978 O 0.71940 0.79699 0.67738
 O979 O 0.75877 0.77219 0.83133
 O980 O 0.73752 0.72784 0.83614
 O981 O 0.83059 0.75736 0.77174
 O982 O 0.83229 0.73721 0.71923
 O983 O 0.77220 0.83069 0.75707
 O984 O 0.71976 0.83317 0.73761
 O985 O 0.74339 0.81252 0.80598
 O986 O 0.70375 0.82436 0.77757
 O987 O 0.81250 0.80549 0.74171
 O988 O 0.82287 0.77653 0.70218
 O989 O 0.80577 0.74375 0.81293
 O990 O 0.77669 0.69900 0.81628
 O991 O 0.73480 0.72488 0.66676
 O992 O 0.75589 0.77293 0.66102
 O993 O 0.66563 0.73680 0.72602
 O994 O 0.66234 0.76032 0.77419
 O995 O 0.72507 0.66679 0.73850
 O996 O 0.77375 0.66418 0.76100
 Zr997 Zr 0.75743 0.69908 0.73455
 O998 O 0.78522 0.72423 0.76134
 Zr999 Zr 0.69823 0.73497 0.75855
 O1000 O 0.72393 0.76197 0.78555
 Zr1001 Zr 0.73313 0.75804 0.69877
 O1002 O 0.76097 0.78535 0.72340
 Zr1003 Zr 0.76222 0.73969 0.79844
 O1004 O 0.73507 0.71129 0.77357
 Zr1005 Zr 0.79796 0.76203 0.73868
 O1006 O 0.77209 0.73565 0.71036
 Zr1007 Zr 0.73922 0.79856 0.76199
 O1008 O 0.70989 0.77353 0.73576
 O1009 O 0.71968 0.72082 0.72098
 O1010 O 0.77728 0.77736 0.77684
 C1011 C 0.74171 0.69752 0.66775
 C1012 C 0.69787 0.66778 0.74592
 C1013 C 0.66609 0.74396 0.69865
 C1014 C 0.74994 0.79908 0.83005
 C1015 C 0.82963 0.74916 0.79894
 C1016 C 0.79899 0.82944 0.74800
 H1017 H 0.80212 0.71176 0.76707
 H1018 H 0.76653 0.80211 0.71078
 H1019 H 0.70696 0.70817 0.70882
 H1020 H 0.71196 0.76790 0.80275
 H1021 H 0.72614 0.71021 0.83068
 H1022 H 0.68310 0.72929 0.81342
 H1023 H 0.80893 0.78580 0.68826
 H1024 H 0.77442 0.76150 0.66004
 H1025 H 0.78403 0.70244 0.83657
 H1026 H 0.77115 0.64545 0.75019
 H1027 H 0.73274 0.83747 0.72067
 H1028 H 0.70332 0.80543 0.68944
 H1029 H 0.80358 0.69118 0.70193
 H1030 H 0.83687 0.72062 0.73255
 H1031 H 0.66090 0.77785 0.76136
 H1032 H 0.68995 0.81086 0.78743
 O1033 O 0.24050 0.27313 0.66822
 O1034 O 0.26528 0.22639 0.66585
 O1035 O 0.16818 0.25484 0.72790
 O1036 O 0.16186 0.24047 0.77411
 O1037 O 0.22583 0.33110 0.74392
 O1038 O 0.27480 0.33520 0.76195
 O1039 O 0.24918 0.18288 0.80706
 O1040 O 0.20507 0.17740 0.78137
 O1041 O 0.31633 0.19260 0.74695
 O1042 O 0.32043 0.22531 0.69953
 O1043 O 0.30889 0.25152 0.81445
 O1044 O 0.27714 0.29581 0.82379
 O1045 O 0.26557 0.22332 0.83132
 O1046 O 0.24235 0.27247 0.83839
 O1047 O 0.33333 0.23784 0.77298
 O1048 O 0.33863 0.25764 0.72486
 O1049 O 0.27613 0.16734 0.76217
 O1050 O 0.22872 0.16450 0.73548
 O1051 O 0.25602 0.31316 0.69362
 O1052 O 0.29616 0.32291 0.72415
 O1053 O 0.18587 0.30546 0.75877
 O1054 O 0.18025 0.27322 0.80082
 O1055 O 0.19330 0.24254 0.68629
 O1056 O 0.22324 0.19980 0.68168
 Zr1057 Zr 0.23705 0.24010 0.70064
 O1058 O 0.26444 0.21216 0.72563
 Zr1059 Zr 0.20070 0.26175 0.76048
 O1060 O 0.22685 0.23487 0.78791
 Zr1061 Zr 0.25882 0.29906 0.73769
 O1062 O 0.28777 0.27374 0.76365
 Zr1063 Zr 0.24246 0.19874 0.76395
 O1064 O 0.21376 0.22395 0.73746
 Zr1065 Zr 0.30077 0.23587 0.74054
 O1066 O 0.27484 0.26322 0.71333
 Zr1067 Zr 0.26502 0.25754 0.80044
 O1068 O 0.23694 0.28570 0.77612
 O1069 O 0.22163 0.27726 0.72288
 O1070 O 0.27989 0.22054 0.77820
 C1071 C 0.24980 0.29974 0.66952
 C1072 C 0.16932 0.24676 0.70065
 C1073 C 0.19923 0.32960 0.75340
 C1074 C 0.25915 0.19595 0.83009
 C1075 C 0.30342 0.16901 0.75536
 C1076 C 0.33232 0.24370 0.80061
 H1077 H 0.27036 0.19506 0.71355
 H1078 H 0.30480 0.28580 0.76943
 H1079 H 0.20865 0.28977 0.71059
 H1080 H 0.21530 0.22833 0.80515
 H1081 H 0.18886 0.18085 0.76722
 H1082 H 0.16798 0.22231 0.78437
 H1083 H 0.33930 0.27704 0.73457
 H1084 H 0.30774 0.30962 0.71132
 H1085 H 0.23062 0.14570 0.74635
 H1086 H 0.21587 0.20335 0.66141
 H1087 H 0.29480 0.30399 0.81419
 H1088 H 0.26559 0.33412 0.78169
 H1089 H 0.25495 0.22858 0.64672
 H1090 H 0.31500 0.20493 0.69450
 H1091 H 0.19302 0.28789 0.81044
 H1092 H 0.22558 0.25919 0.84182
 O1093 O 0.27663 0.66837 0.23894
 O1094 O 0.23007 0.66570 0.26413
 O1095 O 0.25726 0.72779 0.16672
 O1096 O 0.24346 0.77391 0.16018
 O1097 O 0.33396 0.74397 0.22512
 O1098 O 0.33766 0.76195 0.27431
 O1099 O 0.18441 0.80541 0.24694
 O1100 O 0.17964 0.77968 0.20272
 O1101 O 0.19484 0.74660 0.31478
 O1102 O 0.22773 0.69894 0.31896
 O1103 O 0.25255 0.81350 0.30801
 O1104 O 0.29696 0.82343 0.27677
 O1105 O 0.22411 0.82977 0.26503
 O1106 O 0.27354 0.83750 0.24117
 O1107 O 0.23967 0.77197 0.33236
 O1108 O 0.25998 0.72424 0.33774
 O1109 O 0.16950 0.76124 0.27409
 O1110 O 0.16720 0.73406 0.22668
 O1111 O 0.31633 0.69365 0.25539
 O1112 O 0.32573 0.72431 0.29573
 O1113 O 0.30813 0.75850 0.18482
 O1114 O 0.27542 0.80044 0.17929
 O1115 O 0.24568 0.68621 0.19183
 O1116 O 0.20320 0.68097 0.22164
 Zr1117 Zr 0.24323 0.70033 0.23569
 O1118 O 0.21476 0.72485 0.26291
 Zr1119 Zr 0.26434 0.76009 0.19945
 O1120 O 0.23688 0.78710 0.22543
 Zr1121 Zr 0.30180 0.73754 0.25802
 O1122 O 0.27592 0.76316 0.28689
 Zr1123 Zr 0.20101 0.76280 0.24060
 O1124 O 0.22676 0.73679 0.21210
 Zr1125 Zr 0.23823 0.73983 0.29956
 O1126 O 0.26614 0.71304 0.27380
 Zr1127 Zr 0.25920 0.79969 0.26403
 O1128 O 0.28793 0.77575 0.23611
 O1129 O 0.28023 0.72274 0.22050
 O1130 O 0.22248 0.77708 0.27840
 C1131 C 0.30315 0.66966 0.24869
 C1132 C 0.24938 0.70065 0.16782
 C1133 C 0.33237 0.75331 0.19836
 C1134 C 0.19688 0.82818 0.25783
 C1135 C 0.17122 0.75497 0.30159
 C1136 C 0.24480 0.79957 0.33141
 H1137 H 0.19777 0.71272 0.26874
 H1138 H 0.28781 0.76898 0.30413
 H1139 H 0.29289 0.71062 0.20750
 H1140 H 0.23012 0.80419 0.21380
 H1141 H 0.18338 0.76552 0.18658
 H1142 H 0.22472 0.78327 0.16605
 H1143 H 0.27933 0.73396 0.33859
 H1144 H 0.31257 0.71142 0.30722
 H1145 H 0.14821 0.74471 0.22839
 H1146 H 0.20708 0.66076 0.21449
 H1147 H 0.30536 0.81373 0.29439
 H1148 H 0.33614 0.78167 0.26529
 H1149 H 0.23255 0.64664 0.25387
 H1150 H 0.20704 0.69448 0.31415
 H1151 H 0.28998 0.80999 0.19228
 H1152 H 0.25948 0.84143 0.22500
 O1153 O 0.31388 0.80806 0.75407
 O1154 O 0.31944 0.77953 0.79808
 O1155 O 0.30940 0.74473 0.68547
 O1156 O 0.28229 0.70354 0.67647
 O1157 O 0.24610 0.81377 0.68976
 O1158 O 0.20150 0.82072 0.71955
 O1159 O 0.22737 0.66771 0.75878
 O1160 O 0.27214 0.66343 0.73727
 O1161 O 0.24026 0.72624 0.83100
 O1162 O 0.25998 0.77850 0.83362
 O1163 O 0.16764 0.74164 0.77182
 O1164 O 0.16635 0.76090 0.71879
 O1165 O 0.18689 0.69282 0.74329
 O1166 O 0.17533 0.72058 0.70353
 O1167 O 0.19222 0.75629 0.81271
 O1168 O 0.22088 0.79559 0.82380
 O1169 O 0.25486 0.68564 0.80586
 O1170 O 0.30014 0.68272 0.77740
 O1171 O 0.27313 0.83176 0.73679
 O1172 O 0.22441 0.83700 0.75649
 O1173 O 0.26420 0.77341 0.66632
 O1174 O 0.24047 0.72562 0.66214
 O1175 O 0.33223 0.76297 0.72615
 O1176 O 0.33467 0.73761 0.77417
 Zr1177 Zr 0.29958 0.76434 0.75873
 O1178 O 0.27423 0.73728 0.78608
 Zr1179 Zr 0.26508 0.74065 0.69871
 O1180 O 0.23770 0.71352 0.72393
 Zr1181 Zr 0.24047 0.79968 0.73389
 O1182 O 0.21297 0.77488 0.76138
 Zr1183 Zr 0.25956 0.70053 0.76245
 O1184 O 0.28833 0.72561 0.73583
 Zr1185 Zr 0.23593 0.75949 0.79862
 O1186 O 0.26242 0.78804 0.77317
 Zr1187 Zr 0.20055 0.73662 0.73911
 O1188 O 0.22591 0.76295 0.71008
 O1189 O 0.27825 0.77801 0.72075
 O1190 O 0.22135 0.72165 0.77737
 C1191 C 0.30029 0.83100 0.74448
 C1192 C 0.33200 0.75500 0.69901
 C1193 C 0.25656 0.80053 0.66693
 C1194 C 0.20048 0.66893 0.74997
 C1195 C 0.24883 0.69926 0.82984
 C1196 C 0.16844 0.75046 0.79880
 H1197 H 0.28651 0.73148 0.80312
 H1198 H 0.19600 0.78737 0.76681
 H1199 H 0.29095 0.79054 0.70843
 H1200 H 0.23206 0.69646 0.71179
 H1201 H 0.29008 0.66901 0.72631
 H1202 H 0.27107 0.68620 0.68301
 H1203 H 0.21118 0.80929 0.80993
 H1204 H 0.23506 0.83778 0.77551
 H1205 H 0.29674 0.66235 0.78426
 H1206 H 0.35332 0.74854 0.77182
 H1207 H 0.16138 0.77753 0.73192
 H1208 H 0.19375 0.80896 0.70298
 H1209 H 0.30668 0.79529 0.80606
 H1210 H 0.27646 0.76512 0.83848
 H1211 H 0.22300 0.73854 0.66048
 H1212 H 0.18936 0.71228 0.68908
 O1213 O 0.18848 0.25088 0.18281
 O1214 O 0.21647 0.29520 0.17674
 O1215 O 0.25172 0.18319 0.18845
 O1216 O 0.29406 0.17538 0.21480
 O1217 O 0.18392 0.18868 0.25185
 O1218 O 0.17735 0.21898 0.29639
 O1219 O 0.33018 0.25731 0.26916
 O1220 O 0.33404 0.23589 0.22420
 O1221 O 0.27076 0.32949 0.25536
 O1222 O 0.21830 0.33156 0.23530
 O1223 O 0.25665 0.27184 0.32900
 O1224 O 0.23744 0.21933 0.33159
 O1225 O 0.30528 0.24288 0.31013
 O1226 O 0.27723 0.20343 0.32253
 O1227 O 0.24115 0.31201 0.30375
 O1228 O 0.20148 0.32246 0.27493
 O1229 O 0.31155 0.30427 0.24126
 O1230 O 0.31414 0.27561 0.19597
 O1231 O 0.16518 0.23484 0.22422
 O1232 O 0.16034 0.25534 0.27270
 O1233 O 0.22510 0.16468 0.23641
 O1234 O 0.27359 0.16156 0.25743
 O1235 O 0.23381 0.22355 0.16478
 O1236 O 0.25856 0.27126 0.16137
 Zr1237 Zr 0.23237 0.25636 0.19704
 O1238 O 0.25966 0.28406 0.22185
 Zr1239 Zr 0.25703 0.19737 0.23260
 O1240 O 0.28427 0.22296 0.25951
 Zr1241 Zr 0.19777 0.23267 0.25686
 O1242 O 0.22272 0.26053 0.28387
 Zr1243 Zr 0.29685 0.26097 0.23692
 O1244 O 0.27155 0.23398 0.20861
 Zr1245 Zr 0.23768 0.29722 0.26014
 O1246 O 0.20894 0.27141 0.23415
 Zr1247 Zr 0.26132 0.23866 0.29662
 O1248 O 0.23493 0.20938 0.27175
 O1249 O 0.21923 0.21883 0.21917
 O1250 O 0.27587 0.27639 0.27505
 C1251 C 0.16559 0.24169 0.19673
 C1252 C 0.24152 0.19645 0.16549
 C1253 C 0.19787 0.16539 0.24370
 C1254 C 0.32916 0.24897 0.29634
 C1255 C 0.29785 0.32823 0.24708
 C1256 C 0.24760 0.29864 0.32780
 H1257 H 0.26528 0.30084 0.20927
 H1258 H 0.21036 0.26625 0.30087
 H1259 H 0.20665 0.20609 0.20694
 H1260 H 0.30148 0.21095 0.26524
 H1261 H 0.32840 0.22503 0.20619
 H1262 H 0.31160 0.18227 0.22556
 H1263 H 0.18788 0.30878 0.28483
 H1264 H 0.15933 0.27408 0.26170
 H1265 H 0.33451 0.28253 0.19923
 H1266 H 0.24730 0.26882 0.14280
 H1267 H 0.22070 0.23246 0.33626
 H1268 H 0.18935 0.20261 0.30431
 H1269 H 0.20045 0.30295 0.18932
 H1270 H 0.23161 0.33613 0.21869
 H1271 H 0.26210 0.16083 0.27595
 H1272 H 0.28747 0.18978 0.30901
 O1273 O 0.81626 0.69451 0.25125
 O1274 O 0.82182 0.72145 0.20638
 O1275 O 0.80784 0.75682 0.31858
 O1276 O 0.78014 0.79819 0.32641
 O1277 O 0.74687 0.68756 0.31206
 O1278 O 0.70293 0.68052 0.28178
 O1279 O 0.72701 0.83371 0.24234
 O1280 O 0.77092 0.83861 0.26438
 O1281 O 0.74252 0.77466 0.17056
 O1282 O 0.76308 0.72302 0.16845
 O1283 O 0.66882 0.75976 0.22792
 O1284 O 0.66615 0.74038 0.28068
 O1285 O 0.68661 0.80859 0.25730
 O1286 O 0.67438 0.78030 0.29664
 O1287 O 0.69463 0.74467 0.18784
 O1288 O 0.72490 0.70490 0.17809
 O1289 O 0.75616 0.81551 0.19560
 O1290 O 0.80058 0.81881 0.22576
 O1291 O 0.77479 0.66987 0.26433
 O1292 O 0.72626 0.66449 0.24527
 O1293 O 0.76226 0.72838 0.33621
 O1294 O 0.73807 0.77631 0.33935
 O1295 O 0.83282 0.74182 0.27775
 O1296 O 0.83560 0.76430 0.22895
 Zr1297 Zr 0.80082 0.73774 0.24479
 O1298 O 0.77565 0.76426 0.21649
 Zr1299 Zr 0.76406 0.76103 0.30372
 O1300 O 0.73714 0.78801 0.27752
 Zr1301 Zr 0.74171 0.70185 0.26796
 O1302 O 0.71438 0.72641 0.23979
 Zr1303 Zr 0.75973 0.80104 0.23944
 O1304 O 0.78802 0.77635 0.26720
 Zr1305 Zr 0.73805 0.74172 0.20309
 O1306 O 0.76452 0.71368 0.22936
 Zr1307 Zr 0.70072 0.76473 0.26152
 O1308 O 0.72570 0.73848 0.29123
 O1309 O 0.77877 0.72378 0.28222
 O1310 O 0.72225 0.77962 0.22369
 C1311 C 0.80237 0.67103 0.25846
 C1312 C 0.83151 0.74902 0.30507
 C1313 C 0.75568 0.70105 0.33536
 C1314 C 0.70005 0.83250 0.25088
 C1315 C 0.75076 0.80164 0.17160
 C1316 C 0.67042 0.75077 0.20103
 H1317 H 0.78825 0.77004 0.19972
 H1318 H 0.69773 0.71385 0.23399
 H1319 H 0.79150 0.71149 0.29491
 H1320 H 0.73097 0.80508 0.28948
 H1321 H 0.78837 0.83318 0.27626
 H1322 H 0.76925 0.81555 0.31911
 H1323 H 0.71306 0.69230 0.19123
 H1324 H 0.73659 0.66407 0.22606
 H1325 H 0.79711 0.83896 0.21821
 H1326 H 0.85446 0.75365 0.23180
 H1327 H 0.66213 0.72349 0.26763
 H1328 H 0.69443 0.69254 0.29786
 H1329 H 0.80930 0.70566 0.19838
 H1330 H 0.78009 0.73593 0.16477
 H1331 H 0.72073 0.76334 0.34057
 H1332 H 0.68779 0.78954 0.31100
 O1333 O 0.68529 0.30700 0.74617
 O1334 O 0.67979 0.27848 0.70211
 O1335 O 0.69256 0.24656 0.81546
 O1336 O 0.71970 0.20550 0.82502
 O1337 O 0.75415 0.31531 0.80699
 O1338 O 0.79838 0.32104 0.77701
 O1339 O 0.77336 0.16673 0.74239
 O1340 O 0.72910 0.16290 0.76387
 O1341 O 0.75934 0.22390 0.66857
 O1342 O 0.73907 0.27540 0.66458
 O1343 O 0.83243 0.24009 0.72625
 O1344 O 0.83475 0.26051 0.77840
 O1345 O 0.81388 0.19190 0.75687
 O1346 O 0.82599 0.22148 0.79547
 O1347 O 0.80721 0.25439 0.68551
 O1348 O 0.77713 0.29377 0.67416
 O1349 O 0.74501 0.18391 0.69464
 O1350 O 0.70018 0.18192 0.72429
 O1351 O 0.72669 0.33175 0.75910
 O1352 O 0.77542 0.33598 0.73955
 O1353 O 0.73985 0.27494 0.83266
 O1354 O 0.76188 0.22637 0.83716
 O1355 O 0.66844 0.26180 0.77425
 O1356 O 0.66555 0.23655 0.72650
 Zr1357 Zr 0.70049 0.26349 0.74120
 O1358 O 0.72566 0.23593 0.71389
 Zr1359 Zr 0.73650 0.24154 0.80105
 O1360 O 0.76335 0.21354 0.77591
 Zr1361 Zr 0.75957 0.29957 0.76354
 O1362 O 0.78699 0.27388 0.73656
 Zr1363 Zr 0.74103 0.19965 0.73801
 O1364 O 0.71271 0.22539 0.76482
 Zr1365 Zr 0.76358 0.25774 0.70012
 O1366 O 0.73702 0.28680 0.72518
 Zr1367 Zr 0.80012 0.23605 0.75957
 O1368 O 0.77509 0.26347 0.78810
 O1369 O 0.72236 0.27833 0.77837
 O1370 O 0.77887 0.22027 0.72196
 C1371 C 0.69912 0.33057 0.75313
 C1372 C 0.66931 0.25530 0.80177
 C1373 C 0.74647 0.30223 0.83090
 C1374 C 0.80024 0.16791 0.75118
 C1375 C 0.75086 0.19704 0.67030
 C1376 C 0.83122 0.24868 0.69920
 H1377 H 0.71317 0.22978 0.69719
 H1378 H 0.80378 0.28618 0.73060
 H1379 H 0.70987 0.29115 0.79075
 H1380 H 0.76917 0.19676 0.78845
 H1381 H 0.71143 0.16876 0.77521
 H1382 H 0.72963 0.18761 0.81763
 H1383 H 0.78877 0.30676 0.68707
 H1384 H 0.76471 0.33619 0.72055
 H1385 H 0.70354 0.16152 0.71741
 H1386 H 0.64678 0.24747 0.72895
 H1387 H 0.83884 0.27722 0.76511
 H1388 H 0.80670 0.30939 0.79346
 H1389 H 0.69242 0.29396 0.69364
 H1390 H 0.72192 0.26259 0.66127
 H1391 H 0.77977 0.23862 0.83789
 H1392 H 0.81258 0.21170 0.80949
 C1393 C 0.07513 0.99737 1.15966
 C1394 C 0.09968 1.01617 1.16102
 C1395 C 0.10988 1.02862 1.13438
 C1396 C 0.09598 1.02247 1.10755
 C1397 C 0.07111 1.00452 1.10685
 C1398 C 0.06087 0.99201 1.13304
 H1399 H 0.06554 0.98809 1.17937
 H1400 H 0.12905 1.04254 1.13396
 H1401 H 0.10395 1.03266 1.08752
 H1402 H 0.04135 0.97850 1.13299
 C1403 C 0.56719 0.51141 0.66118
 C1404 C 0.59597 0.52217 0.66073
 C1405 C 0.60997 0.52682 0.63352
 C1406 C 0.59529 0.52059 0.60710
 C1407 C 0.56628 0.51023 0.60767
 C1408 C 0.55243 0.50571 0.63495
 H1409 H 0.55595 0.50779 0.68191
 H1410 H 0.63226 0.53496 0.63276
 H1411 H 0.60627 0.52460 0.58630
 H1412 H 0.53005 0.49780 0.63600
 C1413 C 0.39353 0.00034 0.64085
 C1414 C 0.40077 -0.02431 0.65807
 C1415 C 0.42235 -0.04393 0.64804
 C1416 C 0.43711 -0.03862 0.62171
 C1417 C 0.43021 -0.01386 0.60457
 C1418 C 0.40792 0.00534 0.61399
 H1419 H 0.37681 0.01567 0.64821
 H1420 H 0.42838 -0.06298 0.66104
 H1421 H 0.45407 -0.05388 0.61473
 H1422 H 0.40234 0.02458 0.60109
 C1423 C -0.11187 0.47736 1.13749
 C1424 C -0.09759 0.48183 1.16456
 C1425 C -0.06925 0.49375 1.16477
 C1426 C -0.05515 0.50063 1.13845
 C1427 C -0.06921 0.49605 1.11132
 C1428 C -0.09784 0.48467 1.11100
 H1429 H -0.13385 0.46841 1.13690
 H1430 H -0.05779 0.49729 1.18538
 H1431 H -0.03300 0.50917 1.13930
 H1432 H -0.10891 0.48046 1.09030
 C1433 C -0.10849 0.53593 0.36941
 C1434 C -0.09838 0.52305 0.34292
 C1435 C -0.07370 0.50419 0.34429
 C1436 C -0.05929 0.49904 0.37085
 C1437 C -0.06951 0.51187 0.39690
 C1438 C -0.09444 0.52999 0.39621
 H1439 H -0.12775 0.54995 0.36974
 H1440 H -0.06422 0.49461 0.32462
 H1441 H -0.03978 0.48532 0.37099
 H1442 H -0.10240 0.54032 0.41621
 C1443 C 0.42282 1.04273 -0.15257
 C1444 C 0.40330 1.02184 -0.16393
 C1445 C 0.39912 0.99551 -0.14799
 C1446 C 0.41345 0.99083 -0.12095
 C1447 C 0.43356 1.01151 -0.11048
 C1448 C 0.43847 1.03703 -0.12688
 H1449 H 0.42760 1.06272 -0.16453
 H1450 H 0.38402 0.97899 -0.15586
 H1451 H 0.40954 0.97080 -0.10876
 H1452 H 0.45480 1.05253 -0.11993
 C1453 C 0.56837 0.48869 -0.16179
 C1454 C 0.59710 0.47746 -0.16151
 C1455 C 0.61133 0.47290 -0.13439
 C1456 C 0.59693 0.47967 -0.10790
 C1457 C 0.56798 0.49052 -0.10832
 C1458 C 0.55390 0.49495 -0.13549
 H1459 H 0.55695 0.49225 -0.18244
 H1460 H 0.63358 0.46440 -0.13375
 H1461 H 0.60803 0.47565 -0.08715
 H1462 H 0.53155 0.50318 -0.13640
 C1463 C 0.07154 -0.00855 0.34101
 C1464 C 0.09992 -0.02068 0.34139
 C1465 C 0.11357 -0.02643 0.36859
 C1466 C 0.09883 -0.02034 0.39503
 C1467 C 0.07007 -0.00902 0.39448
 C1468 C 0.05671 -0.00296 0.36725
 H1469 H 0.06047 -0.00418 0.32031
 H1470 H 0.13550 -0.03572 0.36933
 H1471 H 0.10940 -0.02550 0.41580
 H1472 H 0.03454 0.00574 0.36627
 C1473 C 0.15676 1.07373 0.99612
 C1474 C 0.15836 1.09852 1.01473
 C1475 C 0.13191 1.10960 1.02681
 C1476 C 0.10509 1.09593 1.02102
 C1477 C 0.10421 1.07052 1.00372
 C1478 C 0.13012 1.05974 0.99109
 H1479 H 0.17629 1.06361 0.98699
 H1480 H 0.13168 1.12909 1.04040
 H1481 H 0.08524 1.10441 1.03117
 H1482 H 0.12987 1.03989 0.97795
 C1483 C 0.63076 0.61102 0.52383
 C1484 C 0.65773 0.59693 0.51827
 C1485 C 0.65786 0.56842 0.50668
 C1486 C 0.63159 0.55388 0.50150
 C1487 C 0.60459 0.56766 0.50745
 C1488 C 0.60429 0.59656 0.51818
 H1489 H 0.63022 0.63308 0.53268
 H1490 H 0.67837 0.55702 0.50247
 H1491 H 0.63238 0.53161 0.49322
 H1492 H 0.58370 0.60748 0.52321
 C1493 C 0.66127 0.42920 -0.00105
 C1494 C 0.66403 0.40780 -0.02358
 C1495 C 0.63867 0.40139 -0.04031
 C1496 C 0.61196 0.41548 -0.03456
 C1497 C 0.60954 0.43589 -0.01171
 C1498 C 0.63443 0.44300 0.00471
 H1499 H 0.67997 0.43662 0.01152
 H1500 H 0.63880 0.38499 -0.05750
 H1501 H 0.59347 0.41122 -0.04871
 H1502 H 0.63320 0.45965 0.02172
 C1503 C 0.16074 -0.06971 0.49159
 C1504 C 0.16077 -0.09821 0.47999
 C1505 C 0.13389 -0.11249 0.47529
 C1506 C 0.10735 -0.09830 0.48207
 C1507 C 0.10746 -0.06952 0.49312
 C1508 C 0.13439 -0.05546 0.49793
 H1509 H 0.18118 -0.05821 0.49523
 H1510 H 0.13348 -0.13457 0.46652
 H1511 H 0.08681 -0.10939 0.47778
 H1512 H 0.13507 -0.03323 0.50632
 C1513 C 0.34128 -0.07419 0.49853
 C1514 C 0.34035 -0.09883 0.51745
 C1515 C 0.36707 -0.10894 0.52974
 C1516 C 0.39356 -0.09480 0.52344
 C1517 C 0.39384 -0.06981 0.50547
 C1518 C 0.36759 -0.05966 0.49305
 H1519 H 0.32146 -0.06474 0.48931
 H1520 H 0.36783 -0.12818 0.54370
 H1521 H 0.41366 -0.10269 0.53352
 H1522 H 0.36738 -0.04010 0.47948
 C1523 C -0.16103 0.43276 1.01126
 C1524 C -0.16082 0.40435 1.02310
 C1525 C -0.13385 0.39025 1.02850
 C1526 C -0.10741 0.40453 1.02213
 C1527 C -0.10776 0.43322 1.01081
 C1528 C -0.13480 0.44710 1.00533
 H1529 H -0.18160 0.44406 1.00701
 H1530 H -0.13328 0.36822 1.03744
 H1531 H -0.08678 0.39359 1.02696
 H1532 H -0.13565 0.46927 0.99674
 C1533 C -0.13392 0.61011 0.47257
 C1534 C -0.16045 0.59921 0.48438
 C1535 C -0.15883 0.57457 0.50327
 C1536 C -0.13207 0.56086 0.50922
 C1537 C -0.10604 0.57167 0.49714
 C1538 C -0.10701 0.59664 0.47917
 H1539 H -0.13365 0.62938 0.45865
 H1540 H -0.17837 0.56440 0.51209
 H1541 H -0.13178 0.54123 0.52271
 H1542 H -0.08713 0.60494 0.46920
 C1543 C 0.36675 1.11053 -0.02912
 C1544 C 0.34043 1.09883 -0.01765
 C1545 C 0.34235 1.07392 0.00079
 C1546 C 0.36928 1.06031 0.00614
 C1547 C 0.39507 1.07171 -0.00594
 C1548 C 0.39382 1.09729 -0.02297
 H1549 H 0.36666 1.13017 -0.04254
 H1550 H 0.32292 1.06344 0.00949
 H1551 H 0.36990 1.04031 0.01905
 H1552 H 0.41362 1.10623 -0.03266
 C1553 C -0.00418 1.15731 1.07432
 C1554 C 0.01454 1.15900 1.09911
 C1555 C 0.02622 1.13255 1.11054
 C1556 C 0.01993 1.10563 1.09722
 C1557 C 0.00250 1.10462 1.07180
 C1558 C -0.00973 1.13055 1.06067
 H1559 H -0.01301 1.17680 1.06390
 H1560 H 0.03991 1.13240 1.13004
 H1561 H 0.02982 1.08576 1.10593
 H1562 H -0.02290 1.13020 1.04078
 C1563 C 0.50535 0.65926 0.56889
 C1564 C 0.51750 0.65955 0.59731
 C1565 C 0.52299 0.63278 0.61174
 C1566 C 0.51663 0.60613 0.59774
 C1567 C 0.50524 0.60601 0.56895
 C1568 C 0.49948 0.63282 0.55480
 H1569 H 0.50114 0.67958 0.55720
 H1570 H 0.53222 0.63251 0.63374
 H1571 H 0.52161 0.58570 0.60892
 H1572 H 0.49078 0.63332 0.53257
 C1573 C -0.03576 0.65714 0.43201
 C1574 C -0.02301 0.66170 0.40436
 C1575 C -0.00488 0.63988 0.39208
 C1576 C 0.00019 0.61357 0.40733
 C1577 C -0.01218 0.60917 0.43539
 C1578 C -0.03014 0.63134 0.44752
 H1579 H -0.04955 0.67391 0.44189
 H1580 H 0.00528 0.64326 0.37076
 H1581 H 0.01414 0.59695 0.39745
 H1582 H -0.03996 0.62879 0.46910
 C1583 C 0.50206 1.16400 -0.07231
 C1584 C 0.48130 1.16597 -0.09550
 C1585 C 0.46771 1.13982 -0.10485
 C1586 C 0.47461 1.11303 -0.09162
 C1587 C 0.49507 1.11142 -0.06872
 C1588 C 0.50857 1.13711 -0.05894
 H1589 H 0.51228 1.18331 -0.06315
 H1590 H 0.45222 1.13960 -0.12292
 H1591 H 0.46293 1.09376 -0.09839
 H1592 H 0.52372 1.13645 -0.04053
 C1593 C 0.49588 0.35810 -0.10488
 C1594 C 0.52257 0.34270 -0.10058
 C1595 C 0.54337 0.35436 -0.08101
 C1596 C 0.53716 0.37975 -0.06525
 C1597 C 0.51121 0.39560 -0.07024
 C1598 C 0.49068 0.38490 -0.09052
 H1599 H 0.47943 0.34991 -0.11998
 H1600 H 0.56362 0.34276 -0.07614
 H1601 H 0.55252 0.38682 -0.04866
 H1602 H 0.47033 0.39666 -0.09444
 C1603 C 0.02968 -0.13505 0.39047
 C1604 C 0.02447 -0.16184 0.40485
 C1605 C 0.01275 -0.16164 0.43344
 C1606 C 0.00673 -0.13524 0.44764
 C1607 C 0.01192 -0.10838 0.43344
 C1608 C 0.02316 -0.10843 0.40459
 H1609 H 0.03856 -0.13476 0.36831
 H1610 H 0.00868 -0.18202 0.44500
 H1611 H -0.00186 -0.13581 0.46991
 H1612 H 0.02771 -0.08797 0.39336
 C1613 C 0.49470 -0.13773 0.60972
 C1614 C 0.47799 -0.16003 0.59675
 C1615 C 0.46670 -0.15620 0.56837
 C1616 C 0.47219 -0.13048 0.55286
 C1617 C 0.48879 -0.10781 0.56560
 C1618 C 0.49986 -0.11158 0.59432
 H1619 H 0.50362 -0.14056 0.63168
 H1620 H 0.45387 -0.17334 0.55809
 H1621 H 0.46317 -0.12835 0.53087
 H1622 H 0.51265 -0.09451 0.60472
 C1623 C 0.00244 0.34387 1.07572
 C1624 C -0.01622 0.34195 1.10056
 C1625 C -0.02767 0.36833 1.11239
 C1626 C -0.02122 0.39540 1.09939
 C1627 C -0.00385 0.39663 1.07393
 C1628 C 0.00817 0.37078 1.06244
 H1629 H 0.01107 0.32449 1.06496
 H1630 H -0.04130 0.36830 1.13193
 H1631 H -0.03096 0.41521 1.10837
 H1632 H 0.02126 0.37130 1.04248
 C1633 C 0.75137 0.32631 0.09045
 C1634 C 0.77028 0.35076 0.08916
 C1635 C 0.78246 0.36114 0.11581
 C1636 C 0.77597 0.34748 0.14264
 C1637 C 0.75798 0.32266 0.14330
 C1638 C 0.74572 0.31222 0.11710
 H1639 H 0.74225 0.31670 0.07068
 H1640 H 0.79642 0.38027 0.11622
 H1641 H 0.78594 0.35556 0.16273
 H1642 H 0.73222 0.29271 0.11720
 C1643 C 0.29340 0.82585 0.59707
 C1644 C 0.27521 0.84908 0.58821
 C1645 C 0.25099 0.85699 0.60583
 C1646 C 0.24495 0.84164 0.63187
 C1647 C 0.26259 0.81769 0.64009
 C1648 C 0.28702 0.81015 0.62261
 H1649 H 0.31204 0.81928 0.58371
 H1650 H 0.23671 0.87493 0.59931
 H1651 H 0.22618 0.84797 0.64513
 H1652 H 0.30132 0.79209 0.62879
 C1653 C 0.74770 0.64108 0.60681
 C1654 C 0.72376 0.64918 0.58892
 C1655 C 0.70563 0.67256 0.59751
 C1656 C 0.71179 0.68820 0.62311
 C1657 C 0.73589 0.68042 0.64090
 C1658 C 0.75350 0.65637 0.63291
 H1659 H 0.76191 0.62302 0.60048
 H1660 H 0.68721 0.67926 0.58392
 H1661 H 0.69756 0.70637 0.62910
 H1662 H 0.77206 0.64991 0.64641
 C1663 C 0.24803 0.14054 0.10390
 C1664 C 0.22416 0.14875 0.08593
 C1665 C 0.20594 0.17199 0.09470
 C1666 C 0.21188 0.18733 0.12055
 C1667 C 0.23590 0.17946 0.13844
 C1668 C 0.25364 0.15557 0.13023
 H1669 H 0.26230 0.12257 0.09748
 H1670 H 0.18756 0.17881 0.08112
 H1671 H 0.19753 0.20538 0.12663
 H1672 H 0.27214 0.14901 0.14376
 C1673 C 0.29292 0.17197 0.90204
 C1674 C 0.27512 0.14834 0.91008
 C1675 C 0.25231 0.13959 0.89118
 C1676 C 0.24736 0.15446 0.86458
 C1677 C 0.26468 0.17872 0.85705
 C1678 C 0.28757 0.18716 0.87595
 H1679 H 0.31049 0.17919 0.91638
 H1680 H 0.23837 0.12132 0.89705
 H1681 H 0.22959 0.14756 0.85035
 H1682 H 0.30136 0.20562 0.87055
 C1683 C 0.78782 0.67806 0.40861
 C1684 C 0.77375 0.65136 0.41378
 C1685 C 0.75326 0.64089 0.39322
 C1686 C 0.74721 0.65687 0.36752
 C1687 C 0.76094 0.68396 0.36258
 C1688 C 0.78122 0.69436 0.38347
 H1689 H 0.80338 0.68664 0.42445
 H1690 H 0.74201 0.62037 0.39711
 H1691 H 0.73159 0.64829 0.35177
 H1692 H 0.79226 0.71507 0.38027
 C1693 C 0.22808 0.86122 0.38510
 C1694 C 0.22758 0.84593 0.41193
 C1695 C 0.23395 0.81586 0.41234
 C1696 C 0.24009 0.80102 0.38619
 C1697 C 0.24055 0.81610 0.35914
 C1698 C 0.23491 0.84647 0.35888
 H1699 H 0.22357 0.88457 0.38454
 H1700 H 0.23388 0.80383 0.43294
 H1701 H 0.24444 0.77766 0.38718
 H1702 H 0.23523 0.85867 0.33841
 C1703 C 0.72799 0.36449 0.88301
 C1704 C 0.73110 0.35055 0.91045
 C1705 C 0.74063 0.32125 0.91148
 C1706 C 0.74644 0.30590 0.88558
 C1707 C 0.74324 0.31966 0.85807
 C1708 C 0.73429 0.34921 0.85696
 H1709 H 0.72083 0.38715 0.88179
 H1710 H 0.74305 0.31004 0.93242
 H1711 H 0.75319 0.28313 0.88705
 H1712 H 0.73126 0.36015 0.83596
 C1713 C 0.86220 0.38707 0.22897
 C1714 C 0.84732 0.41392 0.23205
 C1715 C 0.81821 0.41418 0.24218
 C1716 C 0.80389 0.38799 0.24844
 C1717 C 0.81857 0.36102 0.24522
 C1718 C 0.84800 0.36078 0.23584
 H1719 H 0.88479 0.38651 0.22147
 H1720 H 0.80641 0.43472 0.24476
 H1721 H 0.78117 0.38880 0.25551
 H1722 H 0.85968 0.34028 0.23290
 C1723 C 0.35613 0.89176 0.75186
 C1724 C 0.34848 0.90941 0.72761
 C1725 C 0.32529 0.90107 0.70925
 C1726 C 0.30960 0.87570 0.71521
 C1727 C 0.31709 0.85792 0.73939
 C1728 C 0.34076 0.86584 0.75748
 H1729 H 0.37403 0.89799 0.76624
 H1730 H 0.31897 0.91453 0.69058
 H1731 H 0.29174 0.86979 0.70062
 H1732 H 0.34696 0.85230 0.77612
 C1733 C 0.14896 0.89485 0.24663
 C1734 C 0.14964 0.90790 0.27495
 C1735 C 0.16418 0.89259 0.29778
 C1736 C 0.17888 0.86631 0.29207
 C1737 C 0.17889 0.85424 0.26372
 C1738 C 0.16320 0.86814 0.24120
 H1739 H 0.13702 0.90488 0.22860
 H1740 H 0.16603 0.90164 0.31975
 H1741 H 0.19068 0.85553 0.30976
 H1742 H 0.16279 0.85886 0.21922
 C1743 C 0.63880 0.38394 0.77391
 C1744 C 0.65314 0.41084 0.77014
 C1745 C 0.68194 0.41119 0.75916
 C1746 C 0.69649 0.38504 0.75267
 C1747 C 0.68234 0.35804 0.75657
 C1748 C 0.65323 0.35768 0.76687
 H1749 H 0.61647 0.38329 0.78212
 H1750 H 0.69336 0.43176 0.75611
 H1751 H 0.71898 0.38590 0.74491
 H1752 H 0.64202 0.33712 0.77044
 C1753 C 0.68156 0.58728 0.73877
 C1754 C 0.65236 0.58779 0.72897
 C1755 C 0.63746 0.61469 0.72656
 C1756 C 0.65176 0.64082 0.73372
 C1757 C 0.68129 0.64035 0.74270
 C1758 C 0.69598 0.61332 0.74532
 H1759 H 0.69337 0.56668 0.74083
 H1760 H 0.61479 0.61542 0.71933
 H1761 H 0.64010 0.66140 0.73124
 H1762 H 0.71879 0.61237 0.75209
 C1763 C 0.18269 0.08441 0.23798
 C1764 C 0.15369 0.08424 0.22758
 C1765 C 0.13853 0.11092 0.22417
 C1766 C 0.15235 0.13745 0.23096
 C1767 C 0.18168 0.13763 0.24060
 C1768 C 0.19664 0.11084 0.24416
 H1769 H 0.19471 0.06404 0.24086
 H1770 H 0.11601 0.11117 0.21647
 H1771 H 0.14050 0.15781 0.22771
 H1772 H 0.21930 0.11037 0.25145
 C1773 C 0.36534 0.11576 0.77213
 C1774 C 0.35139 0.08877 0.76728
 C1775 C 0.32225 0.08854 0.75723
 C1776 C 0.30703 0.11473 0.75277
 C1777 C 0.32075 0.14175 0.75783
 C1778 C 0.35020 0.14214 0.76710
 H1779 H 0.38783 0.11638 0.77987
 H1780 H 0.31095 0.06800 0.75362
 H1781 H 0.28435 0.11385 0.74561
 H1782 H 0.36112 0.16275 0.77141
 C1783 C 0.86189 0.61715 0.28001
 C1784 C 0.84745 0.59040 0.27548
 C1785 C 0.81893 0.59040 0.26384
 C1786 C 0.80475 0.61671 0.25735
 C1787 C 0.81897 0.64354 0.26202
 C1788 C 0.84780 0.64362 0.27305
 H1789 H 0.88402 0.61751 0.28874
 H1790 H 0.80742 0.56998 0.26023
 H1791 H 0.78247 0.61611 0.24899
 H1792 H 0.85900 0.66411 0.27724
 C1793 C 0.89181 0.25599 0.13922
 C1794 C 0.91221 0.27626 0.15022
 C1795 C 0.90655 0.29049 0.17695
 C1796 C 0.88114 0.28420 0.19280
 C1797 C 0.86045 0.26409 0.18191
 C1798 C 0.86584 0.25027 0.15475
 H1799 H 0.89603 0.24466 0.11865
 H1800 H 0.92221 0.30590 0.18593
 H1801 H 0.87764 0.29526 0.21360
 H1802 H 0.85027 0.23474 0.14583
 C1803 C 0.39343 0.74837 0.64291
 C1804 C 0.41080 0.77261 0.65058
 C1805 C 0.40195 0.79084 0.67381
 C1806 C 0.37649 0.78466 0.68958
 C1807 C 0.35906 0.76041 0.68211
 C1808 C 0.36743 0.74255 0.65833
 H1809 H 0.39997 0.73408 0.62498
 H1810 H 0.41514 0.80950 0.68018
 H1811 H 0.37025 0.79910 0.70752
 H1812 H 0.35421 0.72388 0.65208
 C1813 C 0.38622 0.23181 0.86336
 C1814 C 0.41289 0.23027 0.84797
 C1815 C 0.41314 0.23424 0.81736
 C1816 C 0.38697 0.23902 0.80213
 C1817 C 0.36005 0.24049 0.81732
 C1818 C 0.35999 0.23728 0.84817
 H1819 H 0.38578 0.22911 0.88708
 H1820 H 0.43362 0.23327 0.80521
 H1821 H 0.38785 0.24155 0.77840
 H1822 H 0.33968 0.23856 0.86048
 C1823 C 0.91233 0.74384 0.32204
 C1824 C 0.91213 0.73312 0.35104
 C1825 C 0.88521 0.72972 0.36573
 C1826 C 0.85883 0.73661 0.35138
 C1827 C 0.85904 0.74630 0.32197
 C1828 C 0.88605 0.75012 0.30756
 H1829 H 0.93285 0.74655 0.31028
 H1830 H 0.88464 0.72166 0.38819
 H1831 H 0.83828 0.73322 0.36282
 H1832 H 0.88682 0.75748 0.28486
 C1833 C 0.11856 0.77479 0.36304
 C1834 C 0.09140 0.77002 0.34920
 C1835 C 0.09080 0.75910 0.32031
 C1836 C 0.11687 0.75356 0.30522
 C1837 C 0.14407 0.75838 0.31887
 C1838 C 0.14479 0.76870 0.34805
 H1839 H 0.11941 0.78309 0.38539
 H1840 H 0.07009 0.75543 0.30919
 H1841 H 0.11577 0.74569 0.28271
 H1842 H 0.16556 0.77294 0.35885
 C1843 C 0.59515 0.28608 0.82266
 C1844 C 0.59038 0.27347 0.85031
 C1845 C 0.61139 0.25417 0.86222
 C1846 C 0.63731 0.24801 0.84662
 C1847 C 0.64197 0.26046 0.81864
 C1848 C 0.62049 0.27944 0.80686
 H1849 H 0.57895 0.30075 0.81308
 H1850 H 0.60775 0.24409 0.88352
 H1851 H 0.65350 0.23338 0.85624
 H1852 H 0.62335 0.28952 0.78545
 C1853 C 0.60763 0.74682 0.63896
 C1854 C 0.58748 0.72619 0.64973
 C1855 C 0.59312 0.71188 0.67641
 C1856 C 0.61833 0.71837 0.69243
 C1857 C 0.63884 0.73879 0.68176
 C1858 C 0.63343 0.75276 0.65466
 H1859 H 0.60336 0.75823 0.61844
 H1860 H 0.57760 0.69620 0.68519
 H1861 H 0.62187 0.70714 0.71315
 H1862 H 0.64888 0.76849 0.64587
 C1863 C 0.09239 0.20959 0.17522
 C1864 C 0.08617 0.22436 0.14892
 C1865 C 0.10616 0.24511 0.13805
 C1866 C 0.13228 0.25081 0.15330
 C1867 C 0.13821 0.23646 0.18008
 C1868 C 0.11795 0.21582 0.19081
 H1869 H 0.07706 0.19377 0.18409
 H1870 H 0.10152 0.25684 0.11779
 H1871 H 0.14754 0.26670 0.14448
 H1872 H 0.12192 0.20429 0.21129
 C1873 C -0.10926 1.03011 0.86666
 C1874 C -0.10006 1.01753 0.83975
 C1875 C -0.07611 0.99757 0.84064
 C1876 C -0.06201 0.99060 0.86710
 C1877 C -0.07147 1.00298 0.89373
 C1878 C -0.09541 1.02263 0.89325
 H1879 H -0.12782 1.04499 0.86758
 H1880 H -0.06700 0.98820 0.82071
 H1881 H -0.04332 0.97581 0.86660
 H1882 H -0.10302 1.03288 0.91341
 C1883 C 0.42945 0.50471 0.33707
 C1884 C 0.40229 0.51958 0.33729
 C1885 C 0.38956 0.52705 0.36445
 C1886 C 0.40364 0.51962 0.39086
 C1887 C 0.43090 0.50480 0.39066
 C1888 C 0.44362 0.49747 0.36341
 H1889 H 0.43989 0.49889 0.31640
 H1890 H 0.36853 0.53823 0.36523
 H1891 H 0.39334 0.52591 0.41145
 H1892 H 0.46468 0.48635 0.36239
 C1893 C 0.57353 0.00125 0.33706
 C1894 C 0.59768 -0.01846 0.33621
 C1895 C 0.60662 -0.03143 0.36301
 C1896 C 0.59240 -0.02452 0.38950
 C1897 C 0.56833 -0.00505 0.39000
 C1898 C 0.55899 0.00761 0.36346
 H1899 H 0.56473 0.01094 0.31714
 H1900 H 0.62536 -0.04608 0.36398
 H1901 H 0.60000 -0.03491 0.40958
 H1902 H 0.54025 0.02234 0.36302
 C1903 C 0.10879 0.47285 0.86877
 C1904 C 0.09600 0.47907 0.84134
 C1905 C 0.06863 0.49357 0.84057
 C1906 C 0.05432 0.50163 0.86664
 C1907 C 0.06709 0.49553 0.89417
 C1908 C 0.09457 0.48111 0.89489
 H1909 H 0.12999 0.46204 0.87001
 H1910 H 0.05816 0.49848 0.81970
 H1911 H 0.03309 0.51236 0.86519
 H1912 H 0.10496 0.47572 0.91569
 C1913 C 0.07090 0.50685 0.66445
 C1914 C 0.09848 0.52058 0.66407
 C1915 C 0.11154 0.52697 0.63680
 C1916 C 0.09731 0.51965 0.61045
 C1917 C 0.06959 0.50602 0.61084
 C1918 C 0.05662 0.49969 0.63821
 H1919 H 0.06017 0.50189 0.68517
 H1920 H 0.13291 0.53725 0.63588
 H1921 H 0.10786 0.52511 0.58978
 H1922 H 0.03522 0.48949 0.63941
 C1923 C 0.61259 1.02830 0.13191
 C1924 C 0.59921 1.02279 0.15920
 C1925 C 0.57165 1.00893 0.15963
 C1926 C 0.55775 1.00081 0.13344
 C1927 C 0.57105 1.00627 0.10605
 C1928 C 0.59874 1.02003 0.10562
 H1929 H 0.63396 1.03860 0.13093
 H1930 H 0.56068 1.00458 0.18036
 H1931 H 0.53634 0.99065 0.13469
 H1932 H 0.60954 1.02492 0.08494
 C1933 C 0.39204 0.46937 0.13439
 C1934 C 0.40468 0.47504 0.16196
 C1935 C 0.43229 0.48880 0.16303
 C1936 C 0.44683 0.49694 0.13713
 C1937 C 0.43404 0.49167 0.10948
 C1938 C 0.40647 0.47769 0.10846
 H1939 H 0.37067 0.45914 0.13291
 H1940 H 0.44266 0.49328 0.18403
 H1941 H 0.46813 0.50727 0.13879
 H1942 H 0.39604 0.47291 0.08757
 C1943 C -0.07424 -0.00265 0.66201
 C1944 C -0.09848 -0.02199 0.66259
 C1945 C -0.10756 -0.03429 0.63557
 C1946 C -0.09343 -0.02702 0.60914
 C1947 C -0.06932 -0.00784 0.60891
 C1948 C -0.05984 0.00412 0.63568
 H1949 H -0.06524 0.00646 0.68206
 H1950 H -0.12634 -0.04868 0.63441
 H1951 H -0.10112 -0.03689 0.58887
 H1952 H -0.04106 0.01858 0.63636
 C1953 C -0.16036 0.92407 1.00073
 C1954 C -0.16113 0.90039 1.02095
 C1955 C -0.13433 0.89155 1.03391
 C1956 C -0.10793 0.90541 1.02644
 C1957 C -0.10757 0.92898 1.00640
 C1958 C -0.13411 0.93814 0.99373
 H1959 H -0.18024 0.93297 0.99111
 H1960 H -0.13334 0.87324 1.04905
 H1961 H -0.08782 0.89806 1.03693
 H1962 H -0.13470 0.95657 0.97865
 C1963 C 0.33706 0.42853 0.50629
 C1964 C 0.33739 0.40111 0.52052
 C1965 C 0.36455 0.38832 0.52777
 C1966 C 0.39083 0.40259 0.52077
 C1967 C 0.39049 0.43013 0.50661
 C1968 C 0.36324 0.44288 0.49948
 H1969 H 0.31643 0.43908 0.50068
 H1970 H 0.36546 0.36709 0.53846
 H1971 H 0.41140 0.39221 0.52685
 H1972 H 0.36206 0.46411 0.48882
 C1973 C 0.36474 0.60972 -0.02782
 C1974 C 0.33774 0.59640 -0.02160
 C1975 C 0.33771 0.56881 -0.00767
 C1976 C 0.36406 0.55480 -0.00018
 C1977 C 0.39116 0.56811 -0.00627
 C1978 C 0.39115 0.59582 -0.02011
 H1979 H 0.36542 0.63110 -0.03820
 H1980 H 0.31719 0.55792 -0.00278
 H1981 H 0.36318 0.53341 0.01016
 H1982 H 0.41158 0.60665 -0.02541
 C1983 C -0.13624 0.10385 0.46563
 C1984 C -0.16300 0.09478 0.47830
 C1985 C -0.16208 0.07070 0.49805
 C1986 C -0.13567 0.05659 0.50503
 C1987 C -0.10913 0.06617 0.49284
 C1988 C -0.10972 0.08998 0.47308
 H1989 H -0.13533 0.12246 0.45086
 H1990 H -0.18193 0.06168 0.50742
 H1991 H -0.13609 0.03799 0.51988
 H1992 H -0.08965 0.09770 0.46296
 C1993 C 0.66130 0.06855 0.50713
 C1994 C 0.66108 0.09568 0.52191
 C1995 C 0.63395 0.10856 0.52913
 C1996 C 0.60762 0.09472 0.52143
 C1997 C 0.60786 0.06757 0.50654
 C1998 C 0.63509 0.05468 0.49955
 H1999 H 0.68189 0.05790 0.50155
 H2000 H 0.63311 0.12957 0.54024
 H2001 H 0.58707 0.10516 0.52748
 H2002 H 0.63622 0.03369 0.48845
 C2003 C 0.15913 0.57546 0.99997
 C2004 C 0.16024 0.59983 1.01930
 C2005 C 0.13349 0.60991 1.03145
 C2006 C 0.10686 0.59642 1.02425
 C2007 C 0.10616 0.57203 1.00528
 C2008 C 0.13261 0.56177 0.99325
 H2009 H 0.17890 0.56573 0.99096
 H2010 H 0.13274 0.62886 1.04578
 H2011 H 0.08685 0.60469 1.03420
 H2012 H 0.13293 0.54272 0.97897
 C2013 C 0.16195 0.43054 0.49155
 C2014 C 0.16121 0.40329 0.47698
 C2015 C 0.13382 0.39093 0.47042
 C2016 C 0.10778 0.40535 0.47856
 C2017 C 0.10851 0.43260 0.49325
 C2018 C 0.13598 0.44502 0.49954
 H2019 H 0.18274 0.44079 0.49666
 H2020 H 0.13256 0.36984 0.45952
 H2021 H 0.08704 0.39522 0.47302
 H2022 H 0.13748 0.46607 0.51046
 C2023 C 0.66387 0.93085 -0.00725
 C2024 C 0.66319 0.90344 -0.02150
 C2025 C 0.63588 0.89118 -0.02851
 C2026 C 0.60981 0.90597 -0.02132
 C2027 C 0.61046 0.93350 -0.00717
 C2028 C 0.63786 0.94572 -0.00022
 H2029 H 0.68463 0.94098 -0.00179
 H2030 H 0.63469 0.86997 -0.03916
 H2031 H 0.58913 0.89597 -0.02729
 H2032 H 0.63927 0.96695 0.01036
 C2033 C 0.03180 0.86482 0.89202
 C2034 C 0.01926 0.83802 0.90102
 C2035 C -0.00024 0.83874 0.92537
 C2036 C -0.00692 0.86494 0.93995
 C2037 C 0.00530 0.89148 0.93058
 C2038 C 0.02462 0.89114 0.90635
 H2039 H 0.04635 0.86589 0.87319
 H2040 H -0.00954 0.81887 0.93436
 H2041 H -0.02146 0.86433 0.95884
 H2042 H 0.03474 0.91122 0.89876
 C2043 C 0.52899 0.36432 0.39109
 C2044 C 0.52159 0.33713 0.40343
 C2045 C 0.50665 0.33665 0.43061
 C2046 C 0.49920 0.36273 0.44510
 C2047 C 0.50636 0.39001 0.43270
 C2048 C 0.52136 0.39046 0.40547
 H2049 H 0.54020 0.36537 0.37005
 H2050 H 0.50087 0.31598 0.44080
 H2051 H 0.48798 0.36147 0.46612
 H2052 H 0.52754 0.41104 0.39536
 C2053 C -0.00114 0.33857 0.57330
 C2054 C -0.02076 0.33755 0.59755
 C2055 C -0.03353 0.36423 0.60690
 C2056 C -0.02631 0.39077 0.59315
 C2057 C -0.00674 0.39146 0.56913
 C2058 C 0.00555 0.36501 0.55926
 H2059 H 0.00832 0.31880 0.56406
 H2060 H -0.04820 0.36504 0.62565
 H2061 H -0.03649 0.41079 0.60109
 H2062 H 0.02028 0.36469 0.54050
 C2063 C 0.47450 0.86766 0.10698
 C2064 C 0.48101 0.84047 0.09400
 C2065 C 0.49542 0.84005 0.06652
 C2066 C 0.50303 0.86618 0.05228
 C2067 C 0.49659 0.89345 0.06525
 C2068 C 0.48231 0.89382 0.09286
 H2069 H 0.46376 0.86868 0.12827
 H2070 H 0.50056 0.81941 0.05585
 H2071 H 0.51367 0.86498 0.03095
 H2072 H 0.47668 0.91438 0.10343
 C2073 C 0.52935 0.63604 0.10936
 C2074 C 0.52281 0.66317 0.09621
 C2075 C 0.50842 0.66339 0.06873
 C2076 C 0.50067 0.63721 0.05478
 C2077 C 0.50705 0.60999 0.06791
 C2078 C 0.52149 0.60976 0.09544
 H2079 H 0.54012 0.63515 0.13064
 H2080 H 0.50333 0.68394 0.05784
 H2081 H 0.48996 0.63834 0.03349
 H2082 H 0.52709 0.58923 0.10611
 C2083 C 0.00145 0.16115 0.57242
 C2084 C 0.02081 0.16175 0.59687
 C2085 C 0.03292 0.13483 0.60638
 C2086 C 0.02539 0.10848 0.59253
 C2087 C 0.00611 0.10820 0.56828
 C2088 C -0.00559 0.13487 0.55829
 H2089 H -0.00751 0.18113 0.56311
 H2090 H 0.04733 0.13368 0.62532
 H2091 H 0.03513 0.08828 0.60057
 H2092 H -0.02006 0.13550 0.53935
 C2093 C 0.47009 0.13559 0.38965
 C2094 C 0.47646 0.16279 0.40252
 C2095 C 0.49029 0.16326 0.43029
 C2096 C 0.49772 0.13717 0.44480
 C2097 C 0.49166 0.10989 0.43184
 C2098 C 0.47771 0.10946 0.40406
 H2099 H 0.45976 0.13454 0.36818
 H2100 H 0.49528 0.18393 0.44087
 H2101 H 0.50809 0.13840 0.46625
 H2102 H 0.47236 0.08888 0.39350
 C2103 C -0.03381 0.63595 0.89396
 C2104 C -0.02121 0.66284 0.90251
 C2105 C -0.00153 0.66239 0.92673
 C2106 C 0.00527 0.63634 0.94157
 C2107 C -0.00700 0.60969 0.93261
 C2108 C -0.02652 0.60979 0.90854
 H2109 H -0.04849 0.63466 0.87526
 H2110 H 0.00783 0.68236 0.93539
 H2111 H 0.01996 0.63715 0.96033
 H2112 H -0.03669 0.58964 0.90126
 C2113 C 0.27633 0.64178 0.88401
 C2114 C 0.27056 0.65526 0.91117
 C2115 C 0.25655 0.68285 0.91147
 C2116 C 0.24855 0.69674 0.88517
 C2117 C 0.25426 0.68330 0.85790
 C2118 C 0.26816 0.65557 0.85766
 H2119 H 0.28671 0.62036 0.88317
 H2120 H 0.25195 0.69381 0.93216
 H2121 H 0.23827 0.71819 0.88623
 H2122 H 0.27321 0.64464 0.83708
 C2123 C 0.77823 0.14138 0.38398
 C2124 C 0.77127 0.15403 0.41133
 C2125 C 0.75680 0.18138 0.41176
 C2126 C 0.74950 0.19580 0.38554
 C2127 C 0.75643 0.18323 0.35810
 C2128 C 0.77080 0.15575 0.35766
 H2129 H 0.78903 0.12018 0.38294
 H2130 H 0.75136 0.19183 0.43251
 H2131 H 0.73877 0.21701 0.38682
 H2132 H 0.77678 0.14550 0.33697
 C2133 C 0.22082 0.35638 0.38230
 C2134 C 0.22752 0.34328 0.40949
 C2135 C 0.24173 0.31577 0.40960
 C2136 C 0.24904 0.30166 0.38319
 C2137 C 0.24242 0.31473 0.35591
 C2138 C 0.22828 0.34235 0.35583
 H2139 H 0.21023 0.37769 0.38150
 H2140 H 0.24697 0.30497 0.43023
 H2141 H 0.25955 0.28032 0.38418
 H2142 H 0.22254 0.35301 0.33528
 C2143 C 0.72341 0.85677 0.88456
 C2144 C 0.72981 0.84344 0.91171
 C2145 C 0.74394 0.81590 0.91179
 C2146 C 0.75139 0.80193 0.88537
 C2147 C 0.74496 0.81517 0.85814
 C2148 C 0.73099 0.84286 0.85809
 H2149 H 0.71291 0.87812 0.88382
 H2150 H 0.74897 0.80497 0.93240
 H2151 H 0.76178 0.78053 0.88633
 H2152 H 0.72541 0.85365 0.83755
 C2153 C 0.75819 0.81684 0.08967
 C2154 C 0.77261 0.84406 0.08940
 C2155 C 0.77885 0.85774 0.11636
 C2156 C 0.77072 0.84451 0.14302
 C2157 C 0.75639 0.81716 0.14332
 C2158 C 0.75023 0.80354 0.11625
 H2159 H 0.75323 0.80569 0.06920
 H2160 H 0.78957 0.87889 0.11680
 H2161 H 0.77614 0.85553 0.16343
 H2162 H 0.73958 0.78237 0.11555
 C2163 C 0.25520 0.31638 0.58773
 C2164 C 0.26980 0.34350 0.58761
 C2165 C 0.27681 0.35664 0.61466
 C2166 C 0.26938 0.34292 0.64125
 C2167 C 0.25494 0.31564 0.64139
 C2168 C 0.24789 0.30261 0.61425
 H2169 H 0.24973 0.30558 0.56720
 H2170 H 0.28772 0.37768 0.61525
 H2171 H 0.27542 0.35352 0.66172
 H2172 H 0.23709 0.28152 0.61343
 C2173 C 0.74408 0.17998 0.58873
 C2174 C 0.72943 0.15288 0.58897
 C2175 C 0.72298 0.13979 0.61621
 C2176 C 0.73104 0.15354 0.64262
 C2177 C 0.74551 0.18081 0.64238
 C2178 C 0.75199 0.19377 0.61505
 H2179 H 0.74915 0.19075 0.56807
 H2180 H 0.71206 0.11877 0.61707
 H2181 H 0.72538 0.14301 0.66325
 H2182 H 0.76276 0.21486 0.61393
 C2183 C 0.22029 0.64408 0.11385
 C2184 C 0.22619 0.65735 0.08662
 C2185 C 0.24026 0.68475 0.08619
 C2186 C 0.24836 0.69859 0.11244
 C2187 C 0.24278 0.68523 0.13977
 C2188 C 0.22863 0.65778 0.14013
 H2189 H 0.20984 0.62281 0.11477
 H2190 H 0.24500 0.69549 0.06543
 H2191 H 0.25889 0.71980 0.11130
 H2192 H 0.22367 0.64692 0.16076
 C2193 C 0.14324 0.61445 0.72390
 C2194 C 0.15638 0.58755 0.73131
 C2195 C 0.18361 0.58762 0.74599
 C2196 C 0.19753 0.61399 0.75289
 C2197 C 0.18450 0.64098 0.74539
 C2198 C 0.15707 0.64086 0.73097
 H2199 H 0.12211 0.61506 0.71295
 H2200 H 0.19437 0.56718 0.75179
 H2201 H 0.21872 0.61318 0.76372
 H2202 H 0.14644 0.66121 0.72460
 C2203 C 0.68483 0.08994 0.24101
 C2204 C 0.65760 0.09023 0.22628
 C2205 C 0.64462 0.11735 0.21940
 C2206 C 0.65844 0.14358 0.22730
 C2207 C 0.68573 0.14332 0.24204
 C2208 C 0.69874 0.11611 0.24872
 H2209 H 0.69549 0.06934 0.24642
 H2210 H 0.62353 0.11826 0.20839
 H2211 H 0.64787 0.16411 0.22145
 H2212 H 0.71984 0.11500 0.25970
 C2213 C 0.85656 0.11298 0.78016
 C2214 C 0.84325 0.08613 0.77337
 C2215 C 0.81615 0.08641 0.75845
 C2216 C 0.80266 0.11285 0.75045
 C2217 C 0.81595 0.13980 0.75709
 C2218 C 0.84313 0.13952 0.77202
 H2219 H 0.87760 0.11343 0.79129
 H2220 H 0.80525 0.06604 0.75308
 H2221 H 0.78163 0.11213 0.73934
 H2222 H 0.85387 0.15984 0.77784
 C2223 C 0.35961 0.61418 0.27607
 C2224 C 0.34619 0.58749 0.26874
 C2225 C 0.31918 0.58815 0.25370
 C2226 C 0.30580 0.61477 0.24629
 C2227 C 0.31903 0.64154 0.25375
 C2228 C 0.34622 0.64092 0.26859
 H2229 H 0.38057 0.61436 0.28734
 H2230 H 0.30809 0.56797 0.24803
 H2231 H 0.28477 0.61430 0.23516
 H2232 H 0.35694 0.66110 0.27494
 C2233 C 0.35622 0.38204 0.22149
 C2234 C 0.34300 0.40921 0.22770
 C2235 C 0.31516 0.40955 0.24126
 C2236 C 0.30082 0.38338 0.24833
 C2237 C 0.31401 0.35614 0.24215
 C2238 C 0.34198 0.35584 0.22874
 H2239 H 0.37778 0.38105 0.21143
 H2240 H 0.30429 0.43017 0.24614
 H2241 H 0.27923 0.38453 0.25830
 H2242 H 0.35279 0.33532 0.22338
 C2243 C 0.85607 0.88377 0.72080
 C2244 C 0.84280 0.91076 0.72767
 C2245 C 0.81540 0.91079 0.74206
 C2246 C 0.80156 0.88448 0.74941
 C2247 C 0.81481 0.85740 0.74265
 C2248 C 0.84230 0.85740 0.72830
 H2249 H 0.87733 0.88308 0.71009
 H2250 H 0.80454 0.93128 0.74746
 H2251 H 0.78031 0.88540 0.76011
 H2252 H 0.85307 0.83698 0.72245
 C2253 C 0.64254 0.88736 0.27711
 C2254 C 0.65598 0.91419 0.27049
 C2255 C 0.68346 0.91392 0.25627
 C2256 C 0.69728 0.88748 0.24896
 C2257 C 0.68396 0.86055 0.25565
 C2258 C 0.65632 0.86083 0.26969
 H2259 H 0.62121 0.88691 0.28768
 H2260 H 0.69446 0.93429 0.25106
 H2261 H 0.71865 0.88818 0.23849
 H2262 H 0.64550 0.84053 0.27546
 C2263 C 0.14189 0.38386 0.78166
 C2264 C 0.15513 0.41085 0.77525
 C2265 C 0.18268 0.41086 0.76117
 C2266 C 0.19658 0.38459 0.75344
 C2267 C 0.18333 0.35751 0.75959
 C2268 C 0.15579 0.35747 0.77383
 H2269 H 0.12056 0.38318 0.79221
 H2270 H 0.19359 0.43133 0.75621
 H2271 H 0.21789 0.38556 0.74287
 H2272 H 0.14506 0.33702 0.77923
 C2273 C 0.11358 0.77872 0.85554
 C2274 C 0.08663 0.77241 0.84205
 C2275 C 0.08675 0.75800 0.81459
 C2276 C 0.11319 0.75011 0.80091
 C2277 C 0.14023 0.75627 0.81441
 C2278 C 0.14005 0.77064 0.84196
 H2279 H 0.11417 0.78940 0.87685
 H2280 H 0.06628 0.75298 0.80359
 H2281 H 0.11241 0.73944 0.77959
 H2282 H 0.16043 0.77608 0.85293
 C2283 C 0.61580 0.27574 0.35869
 C2284 C 0.58893 0.26963 0.34488
 C2285 C 0.58930 0.25570 0.31719
 C2286 C 0.61585 0.24828 0.30349
 C2287 C 0.64280 0.25451 0.31715
 C2288 C 0.64242 0.26816 0.34505
 H2289 H 0.61622 0.28610 0.38016
 H2290 H 0.56895 0.25090 0.30586
 H2291 H 0.61520 0.23812 0.28193
 H2292 H 0.66273 0.27358 0.35616
 C2293 C 0.58917 0.74482 0.18278
 C2294 C 0.58969 0.73008 0.15550
 C2295 C 0.61698 0.72295 0.14295
 C2296 C 0.64314 0.73056 0.15726
 C2297 C 0.64264 0.74527 0.18463
 C2298 C 0.61527 0.75225 0.19718
 H2299 H 0.56846 0.75041 0.19315
 H2300 H 0.61809 0.71192 0.12183
 H2301 H 0.66378 0.72450 0.14702
 H2302 H 0.61396 0.76322 0.21832
 C2303 C 0.11506 0.21953 0.64313
 C2304 C 0.08797 0.22599 0.65645
 C2305 C 0.08780 0.23978 0.68421
 C2306 C 0.11410 0.24702 0.69833
 C2307 C 0.14127 0.24084 0.68495
 C2308 C 0.14140 0.22699 0.65714
 H2309 H 0.11585 0.20927 0.62162
 H2310 H 0.06721 0.24488 0.69508
 H2311 H 0.11310 0.25737 0.71980
 H2312 H 0.16189 0.22161 0.64624
 C2313 C 0.88543 0.27734 0.64228
 C2314 C 0.91251 0.27126 0.65577
 C2315 C 0.91267 0.25676 0.68319
 C2316 C 0.88641 0.24856 0.69684
 C2317 C 0.85924 0.25452 0.68338
 C2318 C 0.85911 0.26897 0.65585
 H2319 H 0.88464 0.28809 0.62100
 H2320 H 0.93324 0.25190 0.69421
 H2321 H 0.88743 0.23786 0.71815
 H2322 H 0.83861 0.27429 0.64494
 C2323 C 0.41372 0.76048 0.18121
 C2324 C 0.41342 0.77465 0.15362
 C2325 C 0.38623 0.78138 0.14063
 C2326 C 0.35994 0.77377 0.15477
 C2327 C 0.36024 0.75944 0.18235
 C2328 C 0.38752 0.75301 0.19539
 H2329 H 0.43434 0.75526 0.19195
 H2330 H 0.38530 0.79200 0.11929
 H2331 H 0.33936 0.77940 0.14418
 H2332 H 0.38870 0.74235 0.21670
 C2333 C 0.38352 0.22316 0.35467
 C2334 C 0.41063 0.22966 0.34156
 C2335 C 0.41076 0.24365 0.31386
 C2336 C 0.38442 0.25072 0.29949
 C2337 C 0.35724 0.24416 0.31255
 C2338 C 0.35718 0.23043 0.34044
 H2339 H 0.38268 0.21277 0.37614
 H2340 H 0.43132 0.24877 0.30307
 H2341 H 0.38539 0.26098 0.27798
 H2342 H 0.33672 0.22477 0.35116
 C2343 C 0.91126 0.74151 0.81492
 C2344 C 0.91130 0.72766 0.84269
 C2345 C 0.88431 0.72181 0.85633
 C2346 C 0.85787 0.72978 0.84260
 C2347 C 0.85779 0.74358 0.81474
 C2348 C 0.88487 0.74929 0.80109
 H2349 H 0.93176 0.74619 0.80379
 H2350 H 0.88366 0.71156 0.87787
 H2351 H 0.83746 0.72471 0.85370
 H2352 H 0.88573 0.75951 0.77955
   
