data_POSCAR
  _audit_creation_date              2014-09-24
  _audit_creation_method            'ToBaCCo'
  _symmetry_space_group_name_H-M    'P1'
  _symmetry_Int_Tables_number       1
  _symmetry_cell_setting            triclinic
  loop_
  _symmetry_equiv_pos_as_xyz
 x,y,z
_cell_length_a 38.2882
_cell_length_b 38.3316
_cell_length_c 38.2916
_cell_angle_alpha 89.959600
_cell_angle_beta 90.081600
_cell_angle_gamma 90.008400
loop_
  _atom_site_label
  _atom_site_type_symbol
  _atom_site_fract_x
  _atom_site_fract_y
  _atom_site_fract_z
C1 C 0.22926 1.10353 -0.02042
 C2 C 0.22937 1.10442 0.01540
 C3 C 0.24352 1.07299 0.02656
 N4 N 0.25192 1.05296 -0.00122
 C5 C 0.24315 1.07155 -0.02992
 C6 C 0.24928 1.06334 0.06181
 C7 C 0.25827 1.02873 0.07124
 C8 C 0.27344 1.01896 0.10271
 C9 C 0.27450 0.98309 0.10304
 C10 C 0.26003 0.97198 0.07176
 N11 N 0.25038 0.99993 0.05245
 C12 C 0.25334 0.93684 0.06294
 C13 C 0.24555 0.92622 0.02860
 C14 C 0.23342 0.89349 0.01916
 C15 C 0.23336 0.89262 -0.01666
 C16 C 0.24561 0.92484 -0.02776
 N17 N 0.25298 0.94529 -0.00005
 C18 C 0.25260 0.93415 -0.06277
 C19 C 0.25880 0.96921 -0.07274
 C20 C 0.27322 0.97966 -0.10430
 C21 C 0.27293 1.01554 -0.10448
 C22 C 0.25854 1.02597 -0.07297
 N23 N 0.25012 0.99765 -0.05374
 C24 C 0.24941 1.06062 -0.06451
 H25 H 0.21998 1.12406 -0.03747
 H26 H 0.21997 1.12571 0.03134
 H27 H 0.23517 0.99781 -0.03107
 H28 H 0.28215 1.03594 0.12355
 H29 H 0.28421 0.96701 0.12417
 H30 H 0.22610 0.87226 0.03631
 H31 H 0.22585 0.87063 -0.03271
 H32 H 0.28153 1.03208 -0.12572
 H33 H 0.23517 0.99930 0.02991
 H34 H 0.28256 0.96315 -0.12522
 C35 C 0.76564 0.47669 0.60576
 C36 C 0.76549 0.51248 0.60753
 C37 C 0.75311 0.52432 0.57562
 N38 N 0.74555 0.49710 0.55459
 C39 C 0.75329 0.46797 0.57286
 C40 C 0.74547 0.55943 0.56754
 C41 C 0.73742 0.57089 0.53336
 C42 C 0.72373 0.60338 0.52513
 C43 C 0.72229 0.60528 0.48931
 C44 C 0.73481 0.57384 0.47665
 N45 N 0.74414 0.55308 0.50364
 C46 C 0.73965 0.56599 0.44096
 C47 C 0.74450 0.53182 0.42825
 C48 C 0.75262 0.52336 0.39402
 C49 C 0.75332 0.48759 0.39228
 C50 C 0.74530 0.47550 0.42544
 N51 N 0.73962 0.50256 0.44727
 C52 C 0.74164 0.44008 0.43475
 C53 C 0.73576 0.42881 0.46933
 C54 C 0.72417 0.39580 0.47858
 C55 C 0.72547 0.39405 0.51444
 C56 C 0.73808 0.42594 0.52600
 N57 N 0.74420 0.44698 0.49834
 C58 C 0.74686 0.43371 0.56100
 H59 H 0.77345 0.45911 0.62648
 H60 H 0.77296 0.52801 0.62993
 H61 H 0.75801 0.47030 0.49886
 H62 H 0.71606 0.62383 0.54300
 H63 H 0.71324 0.62736 0.47433
 H64 H 0.75737 0.54107 0.37252
 H65 H 0.75877 0.47227 0.36919
 H66 H 0.71887 0.37151 0.53014
 H67 H 0.75817 0.52995 0.50176
 H68 H 0.71633 0.37493 0.46124
 C69 C 0.73360 0.89049 0.98442
 C70 C 0.73345 0.89039 1.02011
 C71 C 0.73390 0.92503 1.03074
 N72 N 0.73315 0.94619 1.00240
 C73 C 0.73373 0.92514 0.97407
 C74 C 0.73446 0.93615 1.06624
 C75 C 0.73306 0.97184 1.07657
 C76 C 0.72792 0.98362 1.11053
 C77 C 0.73006 1.01935 1.10977
 C78 C 0.73741 1.02873 1.07563
 N79 N 0.73937 0.99968 1.05567
 C80 C 0.74407 1.06336 1.06450
 C81 C 0.74908 1.07341 1.02935
 C82 C 0.75985 1.10631 1.01886
 C83 C 0.75897 1.10647 0.98311
 C84 C 0.74742 1.07372 0.97286
 N85 N 0.74142 1.05358 1.00121
 C86 C 0.74087 1.06370 0.93783
 C87 C 0.73531 1.02845 0.92755
 C88 C 0.72496 1.01811 0.89437
 C89 C 0.72379 0.98236 0.89442
 C90 C 0.73229 0.97156 0.92795
 N91 N 0.73979 0.99978 0.94781
 C92 C 0.73406 0.93626 0.93877
 H93 H 0.73335 0.86753 0.96798
 H94 H 0.73296 0.86728 1.03634
 H95 H 0.75082 0.99911 0.97252
 H96 H 0.72364 0.96840 1.13389
 H97 H 0.72744 1.03638 1.13214
 H98 H 0.76731 1.12805 1.03529
 H99 H 0.76573 1.12832 0.96653
 H100 H 0.71697 0.96640 0.87218
 H101 H 0.74836 0.99879 1.03025
 H102 H 0.71893 1.03455 0.87218
 C103 C 0.22062 0.39372 0.47793
 C104 C 0.22020 0.39265 0.51379
 C105 C 0.23074 0.42532 0.52520
 N106 N 0.23757 0.44618 0.49764
 C107 C 0.23134 0.42701 0.46873
 C108 C 0.23794 0.43421 0.56026
 C109 C 0.24519 0.46867 0.57124
 C110 C 0.25871 0.47769 0.60365
 C111 C 0.25946 0.51355 0.60495
 C112 C 0.24667 0.52540 0.57320
 N113 N 0.23788 0.49792 0.55289
 C114 C 0.24068 0.56077 0.56481
 C115 C 0.23532 0.57255 0.53030
 C116 C 0.22526 0.60604 0.52108
 C117 C 0.22480 0.60709 0.48523
 C118 C 0.23470 0.57423 0.47383
 N119 N 0.24132 0.55324 0.50140
 C120 C 0.23961 0.56466 0.43859
 C121 C 0.24641 0.53008 0.42788
 C122 C 0.25970 0.52068 0.39555
 C123 C 0.25955 0.48479 0.39435
 C124 C 0.24586 0.47332 0.42587
 N125 N 0.23790 0.50112 0.44610
 C126 C 0.23919 0.43805 0.43444
 H127 H 0.21470 0.37220 0.46061
 H128 H 0.21392 0.37013 0.52965
 H129 H 0.22357 0.50064 0.46914
 H130 H 0.26675 0.46027 0.62442
 H131 H 0.26807 0.52915 0.62689
 H132 H 0.21906 0.62748 0.53837
 H133 H 0.21821 0.62955 0.46939
 H134 H 0.26808 0.46899 0.37256
 H135 H 0.22378 0.49912 0.52971
 H136 H 0.26824 0.53791 0.37485
 C137 C 1.10236 0.25793 -0.02295
 C138 C 1.10307 0.25846 0.01286
 C139 C 1.07044 0.24741 0.02401
 N140 N 1.04980 0.24030 -0.00380
 C141 C 1.06930 0.24663 -0.03254
 C142 C 1.06088 0.24176 0.05933
 C143 C 1.02564 0.23705 0.06962
 C144 C 1.01497 0.22410 0.10178
 C145 C 0.97912 0.22565 0.10224
 C146 C 0.96885 0.23911 0.07025
 N147 N 0.99730 0.24600 0.05051
 C148 C 0.93414 0.24761 0.06128
 C149 C 0.92326 0.25399 0.02670
 C150 C 0.89090 0.26716 0.01734
 C151 C 0.89010 0.26777 -0.01844
 C152 C 0.92192 0.25461 -0.02972
 N153 N 0.94216 0.24619 -0.00204
 C154 C 0.93142 0.24946 -0.06503
 C155 C 0.96581 0.24025 -0.07508
 C156 C 0.97456 0.22522 -0.10682
 C157 C 1.01031 0.22250 -0.10745
 C158 C 1.02255 0.23622 -0.07620
 N159 N 0.99518 0.24679 -0.05649
 C160 C 1.05833 0.23996 -0.06727
 H161 H 1.12382 0.26474 -0.04002
 H162 H 1.12520 0.26575 0.02890
 H163 H 0.99662 0.26119 -0.03351
 H164 H 1.03135 0.21482 0.12290
 H165 H 0.96250 0.21812 0.12381
 H166 H 0.87008 0.27552 0.03450
 H167 H 0.86855 0.27689 -0.03432
 H168 H 1.02558 0.21177 -0.12865
 H169 H 0.99751 0.25987 0.02716
 H170 H 0.95695 0.21718 -0.12744
 C171 C 0.47597 0.72831 0.61030
 C172 C 0.51186 0.72891 0.61000
 C173 C 0.52163 0.74060 0.57716
 N174 N 0.49308 0.74706 0.55748
 C175 C 0.46519 0.73934 0.57754
 C176 C 0.55615 0.74769 0.56649
 C177 C 0.56455 0.75721 0.53188
 C178 C 0.59558 0.77271 0.52160
 C179 C 0.59514 0.77379 0.48565
 C180 C 0.56404 0.75848 0.47503
 N181 N 0.54541 0.74885 0.50341
 C182 C 0.55565 0.74912 0.44024
 C183 C 0.52081 0.74252 0.42990
 C184 C 0.51022 0.73054 0.39740
 C185 C 0.47431 0.73095 0.39749
 C186 C 0.46430 0.74246 0.43026
 N187 N 0.49267 0.74973 0.44987
 C188 C 0.42963 0.74898 0.44077
 C189 C 0.41994 0.75411 0.47596
 C190 C 0.38774 0.76655 0.48690
 C191 C 0.38785 0.76531 0.52281
 C192 C 0.42012 0.75222 0.53277
 N193 N 0.43944 0.74527 0.50407
 C194 C 0.43024 0.74526 0.56757
 H195 H 0.45968 0.72106 0.63221
 H196 H 0.52876 0.72214 0.63164
 H197 H 0.46296 0.73172 0.50355
 H198 H 0.61673 0.78140 0.53824
 H199 H 0.61601 0.78331 0.46916
 H200 H 0.52653 0.72277 0.37571
 H201 H 0.45748 0.72374 0.37594
 H202 H 0.36650 0.77294 0.53965
 H203 H 0.52365 0.73258 0.50325
 H204 H 0.36626 0.77525 0.47069
 C205 C -0.02656 0.73622 -0.10203
 C206 C 0.00919 0.73471 -0.10246
 C207 C 0.02053 0.74845 -0.07092
 N208 N -0.00709 0.75807 -0.05116
 C209 C -0.03588 0.75062 -0.07016
 C210 C 0.05589 0.75278 -0.06102
 C211 C 0.06545 0.76202 -0.02657
 C212 C 0.09765 0.77548 -0.01673
 C213 C 0.09798 0.77639 0.01916
 C214 C 0.06593 0.76364 0.03011
 N215 N 0.04617 0.75524 0.00212
 C216 C 0.05725 0.75588 0.06501
 C217 C 0.02256 0.75029 0.07595
 C218 C 0.01278 0.73835 0.10865
 C219 C -0.02306 0.73873 0.10923
 C220 C -0.03389 0.75106 0.07689
 N221 N -0.00594 0.75811 0.05662
 C222 C -0.06888 0.75824 0.06737
 C223 C -0.07895 0.76447 0.03225
 C224 C -0.11001 0.78022 0.02214
 C225 C -0.11037 0.78054 -0.01374
 C226 C -0.07957 0.76491 -0.02465
 N227 N -0.06048 0.75530 0.00356
 C228 C -0.07041 0.75883 -0.05999
 H229 H -0.04378 0.72771 -0.12278
 H230 H 0.02498 0.72456 -0.12354
 H231 H -0.03782 0.74032 0.00322
 H232 H 0.11909 0.78272 -0.03366
 H233 H 0.11974 0.78436 0.03537
 H234 H 0.02968 0.73047 0.12992
 H235 H -0.03932 0.73125 0.13109
 H236 H -0.13093 0.79124 -0.02996
 H237 H 0.02317 0.74078 0.00264
 H238 H -0.13021 0.79067 0.03889
 C239 C 0.47868 0.23609 0.39006
 C240 C 0.51450 0.23451 0.39040
 C241 C 0.52494 0.24400 0.42373
 N242 N 0.49686 0.25145 0.44366
 C243 C 0.46856 0.24649 0.42321
 C244 C 0.55988 0.24808 0.43467
 C245 C 0.56932 0.25388 0.46985
 C246 C 0.60190 0.26507 0.48103
 C247 C 0.60147 0.26401 0.51696
 C248 C 0.56866 0.25211 0.52663
 N249 N 0.54928 0.24598 0.49777
 C250 C 0.55849 0.24405 0.56115
 C251 C 0.52337 0.23870 0.57090
 C252 C 0.51235 0.22687 0.60327
 C253 C 0.47650 0.22795 0.60281
 C254 C 0.46694 0.24040 0.57017
 N255 N 0.49560 0.24706 0.55081
 C256 C 0.43255 0.24893 0.55994
 C257 C 0.42348 0.25735 0.52517
 C258 C 0.39238 0.27290 0.51496
 C259 C 0.39284 0.27453 0.47905
 C260 C 0.42421 0.25993 0.46838
 N261 N 0.44266 0.24946 0.49663
 C262 C 0.43403 0.25439 0.43327
 H263 H 0.46202 0.23077 0.36783
 H264 H 0.53096 0.22760 0.36852
 H265 H 0.46508 0.23415 0.49626
 H266 H 0.62392 0.27250 0.46496
 H267 H 0.62312 0.27044 0.53399
 H268 H 0.52845 0.21879 0.62508
 H269 H 0.45945 0.22106 0.62425
 H270 H 0.37229 0.28496 0.46265
 H271 H 0.52563 0.23269 0.49703
 H272 H 0.37141 0.28186 0.53162
 C273 C 1.10706 -0.01971 0.24262
 C274 C 1.10814 0.01596 0.24225
 C275 C 1.07386 0.02753 0.24469
 N276 N 1.05195 -0.00013 0.24578
 C277 C 1.07211 -0.02908 0.24461
 C278 C 1.06383 0.06321 0.24660
 C279 C 1.02860 0.07524 0.24715
 C280 C 1.01897 0.10989 0.25208
 C281 C 0.98323 0.11101 0.25264
 C282 C 0.97161 0.07700 0.24892
 N283 N 0.99936 0.05544 0.24475
 C284 C 0.93603 0.06715 0.25144
 C285 C 0.92416 0.03251 0.25555
 C286 C 0.88988 0.02344 0.26281
 C287 C 0.88911 -0.01215 0.26552
 C288 C 0.92285 -0.02376 0.25934
 N289 N 0.94424 0.00363 0.25358
 C290 C 0.93234 -0.05922 0.25574
 C291 C 0.96703 -0.07113 0.25069
 C292 C 0.97561 -0.10507 0.24157
 C293 C 1.01129 -0.10649 0.23896
 C294 C 1.02382 -0.07332 0.24638
 N295 N 0.99664 -0.05199 0.25401
 C296 C 1.05970 -0.06397 0.24496
 H297 H 1.12954 -0.03678 0.24139
 H298 H 1.13162 0.03158 0.24061
 H299 H 0.99831 -0.02669 0.26350
 H300 H 1.03585 0.13220 0.25590
 H301 H 0.96768 0.13419 0.25689
 H302 H 0.86771 0.04065 0.26604
 H303 H 0.86611 -0.02774 0.27067
 H304 H 1.02627 -0.12926 0.23157
 H305 H 0.99832 0.02907 0.23913
 H306 H 0.95802 -0.12664 0.23685
 C307 C 0.47678 0.60539 0.75681
 C308 C 0.51250 0.60535 0.75845
 C309 C 0.52302 0.57074 0.75671
 N310 N 0.49477 0.54974 0.75479
 C311 C 0.46649 0.57080 0.75493
 C312 C 0.55823 0.55946 0.75629
 C313 C 0.56905 0.52426 0.75215
 C314 C 0.60334 0.51412 0.74633
 C315 C 0.60334 0.47841 0.74349
 C316 C 0.56904 0.46748 0.74747
 N317 N 0.54838 0.49560 0.75319
 C318 C 0.55814 0.43218 0.74506
 C319 C 0.52293 0.42100 0.74393
 C320 C 0.51236 0.38699 0.73757
 C321 C 0.47653 0.38713 0.73769
 C322 C 0.46635 0.42114 0.74461
 N323 N 0.49474 0.44171 0.74826
 C324 C 0.43141 0.43227 0.74886
 C325 C 0.42147 0.46726 0.75536
 C326 C 0.38827 0.47727 0.76585
 C327 C 0.38807 0.51301 0.76703
 C328 C 0.42122 0.52400 0.75754
 N329 N 0.44140 0.49596 0.75017
 C330 C 0.43144 0.55938 0.75569
 H331 H 0.46028 0.62829 0.75782
 H332 H 0.52874 0.62835 0.76063
 H333 H 0.46589 0.49655 0.73859
 H334 H 0.62607 0.53074 0.74393
 H335 H 0.62605 0.46240 0.73842
 H336 H 0.52871 0.36445 0.73288
 H337 H 0.45996 0.36467 0.73336
 H338 H 0.36602 0.52908 0.77437
 H339 H 0.52221 0.49512 0.75979
 H340 H 0.36630 0.46053 0.77181
 C341 C 0.88854 0.97920 0.72786
 C342 C 0.88870 1.01499 0.72823
 C343 C 0.92207 1.02499 0.73803
 N344 N 0.94212 0.99665 0.74401
 C345 C 0.92173 0.96862 0.73784
 C346 C 0.93263 1.05960 0.74445
 C347 C 0.96767 1.06953 0.75047
 C348 C 0.97800 1.10260 0.76073
 C349 C 1.01383 1.10268 0.76092
 C350 C 1.02464 1.06939 0.75133
 N351 N 0.99620 1.04954 0.74461
 C352 C 1.05979 1.05918 0.74537
 C353 C 1.07032 1.02383 0.74157
 C354 C 1.10405 1.01298 0.73392
 C355 C 1.10364 0.97729 0.73380
 C356 C 1.06993 0.96721 0.74234
 N357 N 1.04966 0.99571 0.74723
 C358 C 1.05872 0.93214 0.74633
 C359 C 1.02332 0.92300 0.75221
 C360 C 1.01227 0.89131 0.76583
 C361 C 0.97639 0.89182 0.76561
 C362 C 0.96642 0.92375 0.75180
 N363 N 0.99521 0.94259 0.74362
 C364 C 0.93143 0.93393 0.74553
 H365 H 0.86624 0.96283 0.72206
 H366 H 0.86662 1.03171 0.72260
 H367 H 0.99573 0.96568 0.72938
 H368 H 0.96149 1.12477 0.76647
 H369 H 1.02979 1.12523 0.76659
 H370 H 1.12680 1.02898 0.72906
 H371 H 1.12582 0.96071 0.72823
 H372 H 0.95964 0.87086 0.77432
 H373 H 0.99636 1.02533 0.73254
 H374 H 1.02843 0.86994 0.77482
 C375 C 0.38969 0.48760 0.22717
 C376 C 0.39068 0.52334 0.22945
 C377 C 0.42404 0.53202 0.24057
 N378 N 0.44339 0.50293 0.24508
 C379 C 0.42250 0.47577 0.23689
 C380 C 0.43502 0.56576 0.25040
 C381 C 0.47033 0.57385 0.25758
 C382 C 0.48178 0.60350 0.27485
 C383 C 0.51775 0.60232 0.27484
 C384 C 0.52723 0.57211 0.25730
 N385 N 0.49815 0.55496 0.24688
 C386 C 0.56190 0.56219 0.24915
 C387 C 0.57027 0.52820 0.23753
 C388 C 0.60204 0.51815 0.22338
 C389 C 0.60117 0.48242 0.22066
 C390 C 0.56878 0.47198 0.23289
 N391 N 0.54999 0.49994 0.24318
 C392 C 0.55816 0.43708 0.23770
 C393 C 0.52324 0.42790 0.24518
 C394 C 0.51240 0.39575 0.25776
 C395 C 0.47647 0.39675 0.25913
 C396 C 0.46643 0.42943 0.24717
 N397 N 0.49509 0.44816 0.23862
 C398 C 0.43153 0.44051 0.24236
 H399 H 0.36715 0.47204 0.22019
 H400 H 0.36904 0.54085 0.22457
 H401 H 0.49530 0.47187 0.22537
 H402 H 0.46587 0.62390 0.28618
 H403 H 0.53493 0.62170 0.28614
 H404 H 0.62394 0.53473 0.21675
 H405 H 0.62215 0.46596 0.21137
 H406 H 0.45967 0.37567 0.26758
 H407 H 0.49735 0.53370 0.23001
 H408 H 0.52867 0.37377 0.26489
 O409 O 0.24910 0.15955 0.20044
 O410 O 0.28914 0.15214 0.24790
 O411 O 0.15790 0.20024 0.24856
 O412 O 0.14322 0.24536 0.28202
 O413 O 0.19900 0.24663 0.15516
 O414 O 0.24266 0.28812 0.14533
 O415 O 0.24810 0.30014 0.33677
 O416 O 0.20884 0.25428 0.34737
 O417 O 0.33767 0.25718 0.29342
 O418 O 0.35211 0.22063 0.24804
 O419 O 0.29094 0.34368 0.24720
 O420 O 0.24222 0.35343 0.20880
 O421 O 0.24407 0.34166 0.29452
 O422 O 0.20239 0.34861 0.24293
 O423 O 0.33453 0.30344 0.24518
 O424 O 0.34327 0.24968 0.20382
 O425 O 0.29628 0.25519 0.33596
 O426 O 0.24872 0.21319 0.34748
 O427 O 0.24827 0.20048 0.15739
 O428 O 0.28913 0.25058 0.14968
 O429 O 0.15696 0.24658 0.19725
 O430 O 0.14759 0.28928 0.24561
 O431 O 0.20137 0.15973 0.25152
 O432 O 0.25246 0.15154 0.28732
 Zr433 Zr 0.24788 0.18878 0.24689
 O434 O 0.27992 0.22047 0.27813
 Zr435 Zr 0.18438 0.24802 0.24533
 O436 O 0.21314 0.28166 0.27819
 Zr437 Zr 0.24570 0.24869 0.18398
 O438 O 0.27643 0.28380 0.21330
 Zr439 Zr 0.24844 0.25301 0.30895
 O440 O 0.21597 0.21884 0.28005
 Zr441 Zr 0.30886 0.25490 0.24675
 O442 O 0.28047 0.21956 0.21510
 Zr443 Zr 0.24497 0.31361 0.24701
 O444 O 0.21374 0.28201 0.21390
 O445 O 0.21454 0.21595 0.21396
 O446 O 0.27933 0.28676 0.27950
 C447 C 0.24856 0.16865 0.16815
 C448 C 0.16901 0.16875 0.25115
 C449 C 0.16696 0.24564 0.16513
 C450 C 0.24644 0.33201 0.32663
 C451 C 0.32810 0.25711 0.32554
 C452 C 0.32332 0.33500 0.24647
 H453 H 0.29539 0.20549 0.29237
 H454 H 0.29005 0.29866 0.19719
 H455 H 0.19995 0.19997 0.19985
 H456 H 0.19705 0.29537 0.29297
 H457 H 0.19065 0.23753 0.33982
 H458 H 0.15061 0.25877 0.30280
 H459 H 0.34274 0.27181 0.19050
 H460 H 0.28149 0.24253 0.12626
 H461 H 0.26942 0.19824 0.34368
 H462 H 0.23811 0.16032 0.30687
 H463 H 0.25764 0.34654 0.18930
 H464 H 0.22669 0.30626 0.15444
 H465 H 0.30667 0.16028 0.23073
 H466 H 0.34401 0.19871 0.25897
 H467 H 0.15292 0.30437 0.22531
 H468 H 0.18759 0.34553 0.26387
 O469 O 0.74032 0.84149 0.20401
 O470 O 0.70207 0.85071 0.25264
 O471 O 0.83395 0.80563 0.25670
 O472 O 0.85010 0.76153 0.29037
 O473 O 0.79475 0.75355 0.16445
 O474 O 0.74840 0.71117 0.15590
 O475 O 0.74684 0.70695 0.34669
 O476 O 0.78729 0.75449 0.35418
 O477 O 0.65727 0.74684 0.30500
 O478 O 0.64337 0.78501 0.25352
 O479 O 0.70402 0.65948 0.25522
 O480 O 0.75475 0.65041 0.22024
 O481 O 0.74710 0.66407 0.30563
 O482 O 0.79190 0.65554 0.25719
 O483 O 0.65974 0.69865 0.25816
 O484 O 0.64461 0.74669 0.21819
 O485 O 0.69929 0.75333 0.34633
 O486 O 0.74495 0.79352 0.35572
 O487 O 0.74347 0.79854 0.16307
 O488 O 0.70723 0.74816 0.15488
 O489 O 0.83662 0.75684 0.20652
 O490 O 0.84640 0.71651 0.25584
 O491 O 0.78999 0.84549 0.25269
 O492 O 0.74090 0.85393 0.29121
 Zr493 Zr 0.74413 0.81501 0.25225
 O494 O 0.71337 0.78422 0.28583
 Zr495 Zr 0.80879 0.75701 0.25387
 O496 O 0.78085 0.72387 0.28772
 Zr497 Zr 0.74742 0.75240 0.19254
 O498 O 0.71679 0.71883 0.22345
 Zr499 Zr 0.74585 0.75343 0.31760
 O500 O 0.77683 0.78727 0.28692
 Zr501 Zr 0.68426 0.74796 0.25674
 O502 O 0.71188 0.78179 0.22253
 Zr503 Zr 0.74914 0.69060 0.25763
 O504 O 0.78022 0.72113 0.22358
 O505 O 0.77808 0.78708 0.22072
 O506 O 0.71498 0.71798 0.29000
 C507 C 0.74109 0.83068 0.17221
 C508 C 0.82244 0.83707 0.25481
 C509 C 0.82677 0.75595 0.17445
 C510 C 0.74617 0.67482 0.33732
 C511 C 0.66740 0.74929 0.33703
 C512 C 0.67149 0.66720 0.25692
 H513 H 0.69810 0.79963 0.29974
 H514 H 0.70331 0.70331 0.20785
 H515 H 0.79211 0.80266 0.20566
 H516 H 0.79710 0.71077 0.30293
 H517 H 0.80367 0.77293 0.34643
 H518 H 0.84335 0.74819 0.31142
 H519 H 0.65145 0.72919 0.20051
 H520 H 0.68791 0.76325 0.16303
 H521 H 0.72868 0.81182 0.34758
 H522 H 0.75867 0.84804 0.30908
 H523 H 0.73915 0.65611 0.20042
 H524 H 0.76738 0.69521 0.16323
 H525 H 0.68361 0.84048 0.23769
 H526 H 0.64682 0.80223 0.27244
 H527 H 0.84034 0.69965 0.23722
 H528 H 0.80534 0.65881 0.27903
 O529 O 0.74487 0.15791 0.79985
 O530 O 0.70747 0.14618 0.75085
 O531 O 0.83674 0.19868 0.74861
 O532 O 0.84901 0.24226 0.71218
 O533 O 0.79353 0.24968 0.83941
 O534 O 0.74889 0.29022 0.84613
 O535 O 0.74616 0.29148 0.65586
 O536 O 0.78658 0.24231 0.64944
 O537 O 0.65551 0.24531 0.69988
 O538 O 0.64294 0.20994 0.74797
 O539 O 0.69718 0.33633 0.74278
 O540 O 0.74714 0.34875 0.78255
 O541 O 0.74436 0.33482 0.69628
 O542 O 0.78371 0.34794 0.74552
 O543 O 0.65542 0.29417 0.74528
 O544 O 0.64853 0.24299 0.78932
 O545 O 0.69745 0.24339 0.65788
 O546 O 0.74218 0.20681 0.64613
 O547 O 0.74379 0.20139 0.84028
 O548 O 0.70381 0.25183 0.84540
 O549 O 0.83548 0.25040 0.79723
 O550 O 0.84528 0.28642 0.74565
 O551 O 0.79512 0.15645 0.75273
 O552 O 0.74706 0.14411 0.71359
 Zr553 Zr 0.74760 0.18407 0.75168
 O554 O 0.71499 0.21262 0.71793
 Zr555 Zr 0.80836 0.24560 0.74940
 O556 O 0.77848 0.27691 0.71526
 Zr557 Zr 0.74676 0.24784 0.81066
 O558 O 0.71425 0.27932 0.77923
 Zr559 Zr 0.74495 0.24524 0.68561
 O560 O 0.77811 0.21330 0.71652
 Zr561 Zr 0.68375 0.24715 0.74693
 O562 O 0.71350 0.21544 0.78111
 Zr563 Zr 0.74470 0.30877 0.74450
 O564 O 0.77757 0.28028 0.77866
 O565 O 0.77954 0.21451 0.78315
 O566 O 0.71202 0.27893 0.71282
 C567 C 0.74278 0.16902 0.83141
 C568 C 0.82696 0.16670 0.75040
 C569 C 0.82550 0.25162 0.82932
 C570 C 0.74595 0.32382 0.66472
 C571 C 0.66543 0.24337 0.66794
 C572 C 0.66527 0.32611 0.74345
 H573 H 0.70081 0.19615 0.70400
 H574 H 0.69973 0.29430 0.79437
 H575 H 0.79435 0.20029 0.79884
 H576 H 0.79431 0.29063 0.70019
 H577 H 0.80215 0.22314 0.65716
 H578 H 0.84050 0.25338 0.69047
 H579 H 0.64906 0.26530 0.80228
 H580 H 0.71199 0.24619 0.86937
 H581 H 0.74013 0.18414 0.65818
 H582 H 0.76637 0.14907 0.69713
 H583 H 0.72806 0.34477 0.79948
 H584 H 0.76445 0.30805 0.83576
 H585 H 0.68908 0.15455 0.76694
 H586 H 0.65104 0.18928 0.73483
 H587 H 0.83477 0.30667 0.75759
 H588 H 0.79969 0.34383 0.72566
 O589 O 0.24451 0.83595 0.80207
 O590 O 0.28125 0.84615 0.75291
 O591 O 0.15307 0.79283 0.75106
 O592 O 0.13916 0.74486 0.72027
 O593 O 0.19562 0.74478 0.84548
 O594 O 0.24591 0.70672 0.85508
 O595 O 0.24472 0.69626 0.66460
 O596 O 0.20398 0.74166 0.65502
 O597 O 0.33382 0.74538 0.70640
 O598 O 0.34779 0.78009 0.75260
 O599 O 0.29200 0.65482 0.75304
 O600 O 0.24229 0.64503 0.79458
 O601 O 0.24238 0.65459 0.70687
 O602 O 0.20696 0.64258 0.75687
 O603 O 0.33389 0.69679 0.75495
 O604 O 0.34200 0.75094 0.79519
 O605 O 0.29185 0.74286 0.66435
 O606 O 0.24416 0.78286 0.65342
 O607 O 0.24757 0.79433 0.84430
 O608 O 0.27995 0.74459 0.85790
 O609 O 0.15344 0.74601 0.80371
 O610 O 0.14529 0.70373 0.75610
 O611 O 0.19470 0.83511 0.75336
 O612 O 0.24296 0.84443 0.71446
 Zr613 Zr 0.24204 0.80734 0.75535
 O614 O 0.27491 0.77737 0.72329
 Zr615 Zr 0.18106 0.74589 0.75629
 O616 O 0.21101 0.71341 0.72356
 Zr617 Zr 0.24278 0.74668 0.81721
 O618 O 0.27542 0.71379 0.78750
 Zr619 Zr 0.24467 0.74349 0.69241
 O620 O 0.21128 0.77638 0.72179
 Zr621 Zr 0.30603 0.74409 0.75371
 O622 O 0.27641 0.77742 0.78631
 Zr623 Zr 0.24472 0.68269 0.75415
 O624 O 0.21178 0.71248 0.78729
 O625 O 0.20982 0.77886 0.78847
 O626 O 0.27762 0.71087 0.72116
 C627 C 0.24798 0.82628 0.83399
 C628 C 0.16286 0.82490 0.75057
 C629 C 0.16350 0.74447 0.83567
 C630 C 0.24292 0.66440 0.67477
 C631 C 0.32379 0.74467 0.67439
 C632 C 0.32390 0.66486 0.75451
 H633 H 0.28950 0.79327 0.70918
 H634 H 0.28994 0.69972 0.80352
 H635 H 0.19515 0.79417 0.80325
 H636 H 0.19514 0.69904 0.70912
 H637 H 0.18641 0.75923 0.66216
 H638 H 0.14810 0.73452 0.69840
 H639 H 0.34359 0.72865 0.80811
 H640 H 0.30263 0.75033 0.84711
 H641 H 0.26203 0.80049 0.65943
 H642 H 0.22646 0.83600 0.69641
 H643 H 0.26352 0.64745 0.80915
 H644 H 0.23306 0.68664 0.84528
 H645 H 0.29924 0.83978 0.77038
 H646 H 0.33763 0.80284 0.74599
 H647 H 0.15099 0.68878 0.77643
 H648 H 0.18585 0.65132 0.74492
 O649 O 0.24087 0.33577 0.69762
 O650 O 0.20170 0.34401 0.74699
 O651 O 0.33283 0.29627 0.74938
 O652 O 0.34613 0.25100 0.78415
 O653 O 0.29377 0.24683 0.65621
 O654 O 0.24585 0.20683 0.64558
 O655 O 0.24453 0.19565 0.83528
 O656 O 0.28368 0.24522 0.84493
 O657 O 0.15336 0.24070 0.79352
 O658 O 0.14277 0.28221 0.74400
 O659 O 0.19766 0.15445 0.74355
 O660 O 0.24970 0.14550 0.70588
 O661 O 0.24404 0.15433 0.79276
 O662 O 0.28446 0.14484 0.74457
 O663 O 0.15475 0.19550 0.74567
 O664 O 0.14305 0.24490 0.70680
 O665 O 0.19501 0.23995 0.83585
 O666 O 0.23725 0.27982 0.84950
 O667 O 0.24384 0.29402 0.65544
 O668 O 0.20655 0.24524 0.64471
 O669 O 0.33508 0.24870 0.69897
 O670 O 0.34375 0.20757 0.74707
 O671 O 0.28985 0.33722 0.74624
 O672 O 0.24133 0.34633 0.78468
 Zr673 Zr 0.24337 0.30788 0.74516
 O674 O 0.21151 0.27682 0.77752
 Zr675 Zr 0.30638 0.24827 0.74581
 O676 O 0.27700 0.21431 0.77760
 Zr677 Zr 0.24593 0.24699 0.68342
 O678 O 0.21360 0.21365 0.71264
 Zr679 Zr 0.24231 0.24340 0.80829
 O680 O 0.27453 0.27801 0.77949
 Zr681 Zr 0.18171 0.24305 0.74634
 O682 O 0.21086 0.27678 0.71360
 Zr683 Zr 0.24461 0.18308 0.74602
 O684 O 0.27742 0.21396 0.71397
 O685 O 0.27695 0.27998 0.71313
 O686 O 0.21079 0.21029 0.77879
 C687 C 0.24214 0.32590 0.66551
 C688 C 0.32207 0.32802 0.74796
 C689 C 0.32565 0.24825 0.66675
 C690 C 0.24400 0.16378 0.82490
 C691 C 0.16307 0.23892 0.82564
 C692 C 0.16546 0.16389 0.74411
 H693 H 0.19663 0.29191 0.79220
 H694 H 0.19974 0.19927 0.69633
 H695 H 0.29161 0.29543 0.69854
 H696 H 0.29294 0.20025 0.79227
 H697 H 0.29832 0.26566 0.83886
 H698 H 0.33821 0.23722 0.80449
 H699 H 0.14916 0.22729 0.68896
 H700 H 0.18745 0.26054 0.65298
 H701 H 0.23182 0.30260 0.83875
 H702 H 0.25938 0.34009 0.80214
 H703 H 0.23165 0.15052 0.68809
 H704 H 0.26386 0.18977 0.65287
 H705 H 0.18412 0.33593 0.72982
 H706 H 0.14603 0.29788 0.76426
 H707 H 0.33710 0.19077 0.72859
 H708 H 0.30207 0.15107 0.76243
 O709 O 0.74424 0.65534 0.70876
 O710 O 0.78418 0.64768 0.75629
 O711 O 0.65383 0.69803 0.75594
 O712 O 0.63976 0.74346 0.78905
 O713 O 0.69621 0.74343 0.66249
 O714 O 0.74080 0.78347 0.65240
 O715 O 0.74416 0.79704 0.84387
 O716 O 0.70511 0.75119 0.85449
 O717 O 0.83420 0.75288 0.80141
 O718 O 0.84867 0.71575 0.75705
 O719 O 0.78910 0.83933 0.75339
 O720 O 0.74079 0.84960 0.71535
 O721 O 0.74135 0.83820 0.80109
 O722 O 0.70071 0.84555 0.74884
 O723 O 0.83200 0.79841 0.75180
 O724 O 0.84009 0.74337 0.71183
 O725 O 0.79259 0.75374 0.84369
 O726 O 0.74564 0.71030 0.85519
 O727 O 0.74469 0.69597 0.66537
 O728 O 0.78637 0.74513 0.65737
 O729 O 0.65403 0.74505 0.70441
 O730 O 0.64485 0.78701 0.75307
 O731 O 0.69661 0.65688 0.75982
 O732 O 0.74743 0.64832 0.79590
 Zr733 Zr 0.74361 0.68507 0.75493
 O734 O 0.77611 0.71656 0.78604
 Zr735 Zr 0.68116 0.74532 0.75258
 O736 O 0.71029 0.77877 0.78517
 Zr737 Zr 0.74275 0.74440 0.69149
 O738 O 0.77387 0.77929 0.72056
 Zr739 Zr 0.74502 0.74987 0.81638
 O740 O 0.71212 0.71597 0.78767
 Zr741 Zr 0.80568 0.75026 0.75450
 O742 O 0.77688 0.71503 0.72308
 Zr743 Zr 0.74269 0.80994 0.75377
 O744 O 0.71115 0.77850 0.72090
 O745 O 0.71082 0.71246 0.72155
 O746 O 0.77649 0.78295 0.78672
 C747 C 0.74450 0.66426 0.67641
 C748 C 0.66443 0.66643 0.75917
 C749 C 0.66416 0.74402 0.67237
 C750 C 0.74260 0.82872 0.83329
 C751 C 0.82451 0.75487 0.83346
 C752 C 0.82135 0.83019 0.75268
 H753 H 0.79141 0.70162 0.80051
 H754 H 0.78775 0.79373 0.70429
 H755 H 0.69593 0.69677 0.70743
 H756 H 0.69420 0.79279 0.79967
 H757 H 0.68734 0.73384 0.84729
 H758 H 0.64773 0.75591 0.81021
 H759 H 0.83996 0.76518 0.69800
 H760 H 0.77873 0.73700 0.63398
 H761 H 0.76703 0.69614 0.85225
 H762 H 0.73335 0.65770 0.81536
 H763 H 0.75590 0.84217 0.69580
 H764 H 0.72524 0.80209 0.66124
 H765 H 0.80183 0.65531 0.73902
 H766 H 0.83980 0.69350 0.76663
 H767 H 0.65050 0.80226 0.73298
 H768 H 0.68563 0.84289 0.76963
 O769 O 0.24169 0.66128 0.30043
 O770 O 0.20915 0.64904 0.24896
 O771 O 0.33674 0.70374 0.25425
 O772 O 0.34925 0.74786 0.21783
 O773 O 0.29038 0.75218 0.34384
 O774 O 0.24431 0.79199 0.35021
 O775 O 0.24916 0.79816 0.16024
 O776 O 0.28854 0.74829 0.15330
 O777 O 0.15642 0.75163 0.20056
 O778 O 0.14386 0.71217 0.24813
 O779 O 0.19566 0.83992 0.24488
 O780 O 0.24329 0.85258 0.28776
 O781 O 0.24636 0.84054 0.20161
 O782 O 0.28244 0.85227 0.25349
 O783 O 0.15427 0.79744 0.24793
 O784 O 0.14580 0.74573 0.28859
 O785 O 0.19933 0.75104 0.15952
 O786 O 0.24391 0.71370 0.14812
 O787 O 0.24291 0.70358 0.34216
 O788 O 0.20026 0.75123 0.34695
 O789 O 0.33348 0.75443 0.30283
 O790 O 0.34440 0.79171 0.25248
 O791 O 0.29538 0.66113 0.25558
 O792 O 0.24925 0.64980 0.21350
 Zr793 Zr 0.24759 0.68834 0.25299
 O794 O 0.21551 0.71747 0.21914
 Zr795 Zr 0.30781 0.75040 0.25422
 O796 O 0.27859 0.78224 0.22007
 Zr797 Zr 0.24452 0.75053 0.31365
 O798 O 0.21259 0.78254 0.28224
 Zr799 Zr 0.24615 0.75114 0.18859
 O800 O 0.27884 0.71875 0.21960
 Zr801 Zr 0.18329 0.75093 0.24833
 O802 O 0.21242 0.71860 0.28237
 Zr803 Zr 0.24365 0.81315 0.24904
 O804 O 0.27586 0.78411 0.28344
 O805 O 0.27829 0.71818 0.28620
 O806 O 0.21221 0.78380 0.21576
 C807 C 0.24079 0.67163 0.33234
 C808 C 0.32729 0.67159 0.25541
 C809 C 0.32256 0.75441 0.33460
 C810 C 0.24933 0.83028 0.16989
 C811 C 0.16706 0.75109 0.16884
 C812 C 0.16378 0.82942 0.24550
 H813 H 0.20179 0.70140 0.20430
 H814 H 0.19750 0.79698 0.29733
 H815 H 0.29273 0.70372 0.30205
 H816 H 0.29494 0.79636 0.20597
 H817 H 0.30396 0.72909 0.16124
 H818 H 0.34119 0.75951 0.19622
 H819 H 0.14802 0.76619 0.30417
 H820 H 0.20791 0.74559 0.37108
 H821 H 0.24159 0.69072 0.15950
 H822 H 0.26923 0.65557 0.19814
 H823 H 0.22334 0.84813 0.30352
 H824 H 0.25965 0.81047 0.34069
 H825 H 0.18776 0.65890 0.25948
 H826 H 0.14958 0.69504 0.22969
 H827 H 0.33497 0.81044 0.26747
 H828 H 0.30008 0.84800 0.23513
 O829 O 0.74459 0.34366 0.29609
 O830 O 0.78357 0.35442 0.24843
 O831 O 0.65629 0.29854 0.24390
 O832 O 0.64354 0.25064 0.21346
 O833 O 0.69930 0.25013 0.33896
 O834 O 0.74906 0.21587 0.35062
 O835 O 0.74818 0.20407 0.15864
 O836 O 0.70915 0.25090 0.14842
 O837 O 0.83837 0.25390 0.20122
 O838 O 0.85056 0.29036 0.24800
 O839 O 0.79782 0.16327 0.24798
 O840 O 0.74831 0.15166 0.28757
 O841 O 0.75056 0.16231 0.20085
 O842 O 0.71106 0.15125 0.25073
 O843 O 0.83893 0.20605 0.24978
 O844 O 0.84635 0.25920 0.28964
 O845 O 0.79679 0.25003 0.15891
 O846 O 0.74944 0.29055 0.14724
 O847 O 0.74822 0.30204 0.33839
 O848 O 0.78578 0.25294 0.34994
 O849 O 0.65723 0.25158 0.29695
 O850 O 0.65090 0.20890 0.24894
 O851 O 0.69706 0.34169 0.24624
 O852 O 0.74619 0.35200 0.20841
 Zr853 Zr 0.74494 0.31497 0.24934
 O854 O 0.77875 0.28563 0.21757
 Zr855 Zr 0.68523 0.25222 0.24970
 O856 O 0.71606 0.22049 0.21715
 Zr857 Zr 0.74648 0.25432 0.31119
 O858 O 0.77973 0.22192 0.28178
 Zr859 Zr 0.74933 0.25132 0.18639
 O860 O 0.71510 0.28344 0.21556
 Zr861 Zr 0.81014 0.25284 0.24830
 O862 O 0.77965 0.28578 0.28060
 Zr863 Zr 0.75004 0.19034 0.24808
 O864 O 0.71652 0.21953 0.28099
 O865 O 0.71303 0.28570 0.28207
 O866 O 0.78257 0.21926 0.21540
 C867 C 0.74711 0.33394 0.32806
 C868 C 0.66548 0.33079 0.24329
 C869 C 0.66730 0.24954 0.32888
 C870 C 0.74875 0.17216 0.16885
 C871 C 0.82865 0.25225 0.16915
 C872 C 0.82954 0.17392 0.24943
 H873 H 0.79328 0.30167 0.20356
 H874 H 0.79423 0.20801 0.29795
 H875 H 0.69756 0.30046 0.29657
 H876 H 0.70051 0.20598 0.20255
 H877 H 0.69112 0.26767 0.15626
 H878 H 0.65290 0.24088 0.19149
 H879 H 0.84527 0.23809 0.30446
 H880 H 0.80526 0.26727 0.34100
 H881 H 0.76760 0.30793 0.15308
 H882 H 0.73047 0.34308 0.18990
 H883 H 0.76803 0.15583 0.30378
 H884 H 0.73886 0.19452 0.34037
 H885 H 0.80086 0.34844 0.26675
 H886 H 0.83988 0.31259 0.24050
 H887 H 0.65775 0.19347 0.26853
 H888 H 0.69402 0.15573 0.23181
 C889 C 0.22391 0.08565 0.11735
 C890 C 0.24690 0.08905 0.08832
 C891 C 0.26815 0.11881 0.08585
 C892 C 0.26820 0.14406 0.11192
 C893 C 0.24694 0.14071 0.14143
 C894 C 0.22376 0.11175 0.14394
 C895 C 0.19934 0.05810 0.11932
 C896 C 0.17626 0.05550 0.14726
 C897 C 0.17616 0.08083 0.17314
 C898 C 0.19906 0.10901 0.17124
 H899 H 0.19714 0.03863 0.09903
 H900 H 0.15787 0.03408 0.14848
 H901 H 0.15777 0.07894 0.19447
 H902 H 0.19630 0.12888 0.19087
 H903 H 0.28575 0.12206 0.06394
 H904 H 0.28553 0.16625 0.10926
 C905 C 0.71808 0.58390 0.62285
 C906 C 0.74406 0.58528 0.59654
 C907 C 0.76885 0.61211 0.59703
 C908 C 0.76840 0.63739 0.62308
 C909 C 0.74358 0.63628 0.64988
 C910 C 0.71797 0.60939 0.64995
 C911 C 0.69164 0.55818 0.62226
 C912 C 0.66645 0.55676 0.64839
 C913 C 0.66648 0.58136 0.67499
 C914 C 0.69142 0.60787 0.67551
 H915 H 0.69004 0.53899 0.60164
 H916 H 0.64664 0.53661 0.64787
 H917 H 0.64684 0.57998 0.69514
 H918 H 0.68929 0.62714 0.69589
 H919 H 0.78863 0.61356 0.57688
 H920 H 0.78789 0.65789 0.62252
 C921 C 0.76787 0.88878 0.09537
 C922 C 0.73757 0.91018 0.09251
 C923 C 0.70963 0.90454 0.11557
 C924 C 0.71145 0.87896 0.14139
 C925 C 0.74062 0.85717 0.14418
 C926 C 0.76903 0.86162 0.12083
 C927 C 0.79761 0.89463 0.07423
 C928 C 0.82690 0.87326 0.07683
 C929 C 0.82763 0.84623 0.10097
 C930 C 0.79930 0.84063 0.12310
 H931 H 0.79865 0.91587 0.05566
 H932 H 0.84927 0.87788 0.06020
 H933 H 0.85054 0.82991 0.10284
 H934 H 0.80171 0.82021 0.14234
 H935 H 0.68604 0.92002 0.11346
 H936 H 0.68956 0.87570 0.15900
 C937 C 0.26804 0.38110 0.58625
 C938 C 0.24038 0.40568 0.58652
 C939 C 0.21498 0.40404 0.61274
 C940 C 0.21628 0.37827 0.63834
 C941 C 0.24276 0.35311 0.63822
 C942 C 0.26923 0.35452 0.61225
 C943 C 0.29513 0.38306 0.56130
 C944 C 0.32250 0.35912 0.56161
 C945 C 0.32385 0.33334 0.58709
 C946 C 0.29782 0.33120 0.61243
 H947 H 0.29567 0.40321 0.54153
 H948 H 0.34298 0.36084 0.54222
 H949 H 0.34541 0.31515 0.58739
 H950 H 0.30088 0.31168 0.63248
 H951 H 0.19397 0.42296 0.61335
 H952 H 0.19612 0.37765 0.65816
 C953 C 0.71416 0.11750 0.91264
 C954 C 0.73939 0.09014 0.91191
 C955 C 0.76337 0.08889 0.88425
 C956 C 0.76352 0.11437 0.85841
 C957 C 0.74010 0.14238 0.85934
 C958 C 0.71446 0.14364 0.88604
 C959 C 0.68735 0.11832 0.93803
 C960 C 0.66218 0.14456 0.93780
 C961 C 0.66241 0.16985 0.91178
 C962 C 0.68791 0.16920 0.88587
 H963 H 0.68512 0.09843 0.95793
 H964 H 0.64195 0.14484 0.95752
 H965 H 0.64230 0.18970 0.91126
 H966 H 0.68585 0.18823 0.86520
 H967 H 0.78260 0.06817 0.88292
 H968 H 0.78245 0.11236 0.83757
 C969 C 0.20984 0.59436 0.38731
 C970 C 0.23793 0.59227 0.41137
 C971 C 0.26501 0.61676 0.40981
 C972 C 0.26501 0.64274 0.38443
 C973 C 0.23813 0.64478 0.35971
 C974 C 0.20990 0.62092 0.36130
 C975 C 0.18137 0.57099 0.38894
 C976 C 0.15367 0.57370 0.36543
 C977 C 0.15353 0.59991 0.34026
 C978 C 0.18119 0.62348 0.33828
 H979 H 0.18007 0.55067 0.40852
 H980 H 0.13201 0.55561 0.36699
 H981 H 0.13172 0.60218 0.32239
 H982 H 0.17952 0.64404 0.31905
 H983 H 0.28652 0.61544 0.42818
 H984 H 0.28665 0.66091 0.38351
 C985 C 0.27847 0.87961 0.91332
 C986 C 0.25415 0.90766 0.91156
 C987 C 0.23071 0.90928 0.88340
 C988 C 0.22938 0.88281 0.85861
 C989 C 0.25188 0.85407 0.86060
 C990 C 0.27762 0.85295 0.88734
 C991 C 0.30501 0.87859 0.93908
 C992 C 0.32953 0.85176 0.93967
 C993 C 0.32898 0.82611 0.91406
 C994 C 0.30369 0.82691 0.88786
 H995 H 0.30759 0.89881 0.95858
 H996 H 0.34957 0.85134 0.95965
 H997 H 0.34868 0.80585 0.91407
 H998 H 0.30562 0.80768 0.86747
 H999 H 0.21227 0.93065 0.88132
 H1000 H 0.21004 0.88447 0.83799
 C1001 C 0.77486 0.39162 0.40450
 C1002 C 0.74485 0.41311 0.40713
 C1003 C 0.71733 0.40896 0.38340
 C1004 C 0.71885 0.38350 0.35756
 C1005 C 0.74783 0.36139 0.35490
 C1006 C 0.77645 0.36567 0.37801
 C1007 C 0.80358 0.39578 0.42732
 C1008 C 0.83316 0.37484 0.42403
 C1009 C 0.83493 0.34983 0.39777
 C1010 C 0.80702 0.34537 0.37477
 H1011 H 0.80360 0.41534 0.44767
 H1012 H 0.85497 0.37829 0.44171
 H1013 H 0.85817 0.33399 0.39501
 H1014 H 0.80987 0.32640 0.35415
 H1015 H 0.69438 0.42539 0.38517
 H1016 H 0.69694 0.38055 0.33988
 C1017 C 0.11497 0.21568 0.08460
 C1018 C 0.08729 0.24049 0.08531
 C1019 C 0.08557 0.26429 0.11316
 C1020 C 0.11134 0.26521 0.13881
 C1021 C 0.13970 0.24225 0.13781
 C1022 C 0.14118 0.21647 0.11115
 C1023 C 0.11605 0.18877 0.05930
 C1024 C 0.14271 0.16407 0.05945
 C1025 C 0.16815 0.16485 0.08531
 C1026 C 0.16721 0.19037 0.11119
 H1027 H 0.09603 0.18607 0.03956
 H1028 H 0.14326 0.14382 0.03976
 H1029 H 0.18836 0.14519 0.08566
 H1030 H 0.18646 0.18874 0.13164
 H1031 H 0.06450 0.28313 0.11450
 H1032 H 0.10950 0.28461 0.15930
 C1033 C 0.60976 0.71822 0.59236
 C1034 C 0.58474 0.74549 0.59279
 C1035 C 0.58598 0.77065 0.61926
 C1036 C 0.61161 0.76936 0.64504
 C1037 C 0.63696 0.74304 0.64500
 C1038 C 0.63594 0.71680 0.61884
 C1039 C 0.60885 0.69186 0.56659
 C1040 C 0.63313 0.66477 0.56690
 C1041 C 0.65826 0.66300 0.59310
 C1042 C 0.65959 0.68851 0.61901
 H1043 H 0.58932 0.69177 0.54616
 H1044 H 0.63218 0.64479 0.54694
 H1045 H 0.67664 0.64159 0.59349
 H1046 H 0.67890 0.68546 0.63934
 H1047 H 0.56684 0.79146 0.61992
 H1048 H 0.61197 0.78942 0.66497
 C1049 C 0.10977 0.72339 0.91777
 C1050 C 0.08247 0.74833 0.91373
 C1051 C 0.08183 0.76944 0.88378
 C1052 C 0.10814 0.76741 0.85893
 C1053 C 0.13597 0.74402 0.86280
 C1054 C 0.13650 0.72104 0.89193
 C1055 C 0.10997 0.69930 0.94582
 C1056 C 0.13619 0.67431 0.94888
 C1057 C 0.16206 0.67193 0.92359
 C1058 C 0.16199 0.69463 0.89516
 H1059 H 0.08956 0.69895 0.96530
 H1060 H 0.13601 0.65622 0.97061
 H1061 H 0.18191 0.65191 0.92563
 H1062 H 0.18141 0.69047 0.87534
 H1063 H 0.06126 0.78854 0.88013
 H1064 H 0.10711 0.78490 0.83670
 C1065 C 0.61140 0.21837 0.40545
 C1066 C 0.58794 0.24685 0.40792
 C1067 C 0.59056 0.27460 0.38426
 C1068 C 0.61620 0.27472 0.35855
 C1069 C 0.64011 0.24724 0.35594
 C1070 C 0.63764 0.21850 0.37914
 C1071 C 0.60889 0.18942 0.42815
 C1072 C 0.63179 0.16132 0.42502
 C1073 C 0.65716 0.16125 0.39903
 C1074 C 0.65999 0.18939 0.37611
 H1075 H 0.58914 0.18809 0.44828
 H1076 H 0.62959 0.13932 0.44262
 H1077 H 0.67455 0.13915 0.39643
 H1078 H 0.67937 0.18782 0.35571
 H1079 H 0.57260 0.29638 0.38584
 H1080 H 0.61773 0.29672 0.34081
 C1081 C 0.90767 0.78414 0.12218
 C1082 C 0.90539 0.76021 0.09385
 C1083 C 0.87650 0.73776 0.09177
 C1084 C 0.85141 0.73701 0.11799
 C1085 C 0.85398 0.75890 0.14711
 C1086 C 0.88170 0.78359 0.14889
 C1087 C 0.93384 0.81022 0.12327
 C1088 C 0.93517 0.83430 0.15043
 C1089 C 0.90993 0.83376 0.17639
 C1090 C 0.88312 0.80922 0.17540
 H1091 H 0.95311 0.81281 0.10283
 H1092 H 0.95549 0.85393 0.15096
 H1093 H 0.91076 0.85291 0.19705
 H1094 H 0.86312 0.81150 0.19497
 H1095 H 0.87395 0.71969 0.07015
 H1096 H 0.83007 0.71856 0.11582
 C1097 C 0.40579 0.27672 0.61387
 C1098 C 0.40511 0.25095 0.58736
 C1099 C 0.37818 0.22626 0.58685
 C1100 C 0.35252 0.22617 0.61256
 C1101 C 0.35327 0.25043 0.63988
 C1102 C 0.37980 0.27641 0.64049
 C1103 C 0.43140 0.30327 0.61401
 C1104 C 0.43200 0.32841 0.64022
 C1105 C 0.40675 0.32813 0.66621
 C1106 C 0.38050 0.30292 0.66610
 H1107 H 0.45105 0.30501 0.59383
 H1108 H 0.45199 0.34838 0.64021
 H1109 H 0.40744 0.34777 0.68639
 H1110 H 0.36066 0.30486 0.68593
 H1111 H 0.37728 0.20666 0.56650
 H1112 H 0.33224 0.20647 0.61151
 C1113 C 0.90755 0.27701 0.88120
 C1114 C 0.90539 0.25224 0.90882
 C1115 C 0.87643 0.22981 0.91042
 C1116 C 0.85075 0.23047 0.88471
 C1117 C 0.85277 0.25385 0.85668
 C1118 C 0.88076 0.27812 0.85530
 C1119 C 0.93465 0.30210 0.87991
 C1120 C 0.93565 0.32715 0.85356
 C1121 C 0.90929 0.32847 0.82861
 C1122 C 0.88189 0.30457 0.82967
 H1123 H 0.95493 0.30314 0.89955
 H1124 H 0.95659 0.34611 0.85293
 H1125 H 0.90972 0.34853 0.80870
 H1126 H 0.86113 0.30782 0.81097
 H1127 H 0.87422 0.21079 0.93126
 H1128 H 0.82943 0.21193 0.88631
 C1129 C 0.39966 0.78201 0.39170
 C1130 C 0.40227 0.75216 0.41341
 C1131 C 0.37802 0.72507 0.40990
 C1132 C 0.35180 0.72676 0.38474
 C1133 C 0.34916 0.75554 0.36238
 C1134 C 0.37277 0.78377 0.36605
 C1135 C 0.42286 0.81043 0.39534
 C1136 C 0.41960 0.83986 0.37416
 C1137 C 0.39304 0.84174 0.34937
 C1138 C 0.36967 0.81412 0.34541
 H1139 H 0.44348 0.81030 0.41468
 H1140 H 0.43755 0.86146 0.37724
 H1141 H 0.39036 0.86485 0.33332
 H1142 H 0.34884 0.81704 0.32659
 H1143 H 0.37964 0.70230 0.42661
 H1144 H 0.33388 0.70505 0.38216
 C1145 C 0.11270 0.09119 0.27913
 C1146 C 0.09059 0.08857 0.24928
 C1147 C 0.09450 0.11261 0.22191
 C1148 C 0.11988 0.13847 0.22334
 C1149 C 0.14253 0.14095 0.25192
 C1150 C 0.13903 0.11746 0.28025
 C1151 C 0.10821 0.06934 0.30857
 C1152 C 0.12980 0.07255 0.33772
 C1153 C 0.15573 0.09795 0.33856
 C1154 C 0.16018 0.12044 0.31031
 H1155 H 0.08780 0.04985 0.30952
 H1156 H 0.12613 0.05549 0.35996
 H1157 H 0.17215 0.10058 0.36145
 H1158 H 0.17980 0.14055 0.31257
 H1159 H 0.07781 0.11118 0.19906
 H1160 H 0.12230 0.15642 0.20158
 C1161 C 0.60699 0.59057 0.78903
 C1162 C 0.58590 0.58666 0.75880
 C1163 C 0.59064 0.60917 0.73038
 C1164 C 0.61576 0.63533 0.73146
 C1165 C 0.63755 0.63910 0.76057
 C1166 C 0.63320 0.61693 0.78983
 C1167 C 0.60226 0.56915 0.81865
 C1168 C 0.62308 0.57345 0.84825
 C1169 C 0.64863 0.59928 0.84907
 C1170 C 0.65360 0.62101 0.82027
 H1171 H 0.58238 0.54910 0.81930
 H1172 H 0.61921 0.55681 0.87077
 H1173 H 0.66448 0.60270 0.87224
 H1174 H 0.67312 0.64127 0.82228
 H1175 H 0.57465 0.60643 0.70717
 H1176 H 0.61886 0.65223 0.70897
 C1177 C 0.88953 0.09508 0.77988
 C1178 C 0.90515 0.08677 0.74740
 C1179 C 0.89549 0.10516 0.71732
 C1180 C 0.87029 0.13131 0.71888
 C1181 C 0.85427 0.13979 0.75058
 C1182 C 0.86412 0.12211 0.78154
 C1183 C 0.89892 0.07731 0.81080
 C1184 C 0.88395 0.08640 0.84272
 C1185 C 0.85960 0.11331 0.84445
 C1186 C 0.84971 0.13109 0.81421
 H1187 H 0.91793 0.05642 0.81060
 H1188 H 0.89142 0.07263 0.86625
 H1189 H 0.84826 0.12043 0.86933
 H1190 H 0.83088 0.15195 0.81671
 H1191 H 0.90752 0.09911 0.69247
 H1192 H 0.86301 0.14487 0.69513
 C1193 C 0.38232 0.59203 0.28134
 C1194 C 0.40805 0.59345 0.25474
 C1195 C 0.40773 0.62108 0.23083
 C1196 C 0.38178 0.64647 0.23205
 C1197 C 0.35512 0.64488 0.25702
 C1198 C 0.35561 0.61794 0.28253
 C1199 C 0.38283 0.56559 0.30705
 C1200 C 0.35746 0.56443 0.33308
 C1201 C 0.33159 0.58986 0.33448
 C1202 C 0.33076 0.61659 0.30976
 H1203 H 0.40293 0.54575 0.30744
 H1204 H 0.35808 0.54390 0.35250
 H1205 H 0.31225 0.58902 0.35502
 H1206 H 0.31084 0.63631 0.31264
 H1207 H 0.42740 0.62256 0.21056
 H1208 H 0.38196 0.66708 0.21266
 C1209 C 0.08347 0.87806 0.72020
 C1210 C 0.08402 0.90514 0.74568
 C1211 C 0.11075 0.90542 0.77084
 C1212 C 0.13602 0.87937 0.77170
 C1213 C 0.13563 0.85208 0.74745
 C1214 C 0.10968 0.85159 0.72093
 C1215 C 0.05868 0.87785 0.69275
 C1216 C 0.05923 0.85196 0.66724
 C1217 C 0.08490 0.82634 0.66787
 C1218 C 0.11015 0.82630 0.69411
 H1219 H 0.03905 0.89796 0.69026
 H1220 H 0.04000 0.85216 0.64649
 H1221 H 0.08562 0.80671 0.64757
 H1222 H 0.13047 0.80686 0.69248
 H1223 H 0.11168 0.92574 0.79049
 H1224 H 0.15583 0.88024 0.79192
 C1225 C 0.58713 0.38382 0.21043
 C1226 C 0.58528 0.40921 0.23726
 C1227 C 0.60982 0.40862 0.26441
 C1228 C 0.63573 0.38321 0.26560
 C1229 C 0.63778 0.35738 0.23984
 C1230 C 0.61368 0.35774 0.21164
 C1231 C 0.56363 0.38426 0.18200
 C1232 C 0.56615 0.35957 0.15541
 C1233 C 0.59231 0.33437 0.15635
 C1234 C 0.61604 0.33351 0.18399
 H1235 H 0.54334 0.40380 0.17990
 H1236 H 0.54794 0.36021 0.13377
 H1237 H 0.59441 0.31557 0.13537
 H1238 H 0.63650 0.31412 0.18309
 H1239 H 0.60876 0.42800 0.28497
 H1240 H 0.65411 0.38339 0.28714
 C1241 C 0.87961 0.91368 0.22573
 C1242 C 0.90354 0.91464 0.25402
 C1243 C 0.90003 0.89079 0.28148
 C1244 C 0.87338 0.86611 0.28129
 C1245 C 0.84878 0.86518 0.25420
 C1246 C 0.85152 0.88928 0.22614
 C1247 C 0.88346 0.93609 0.19668
 C1248 C 0.85934 0.93566 0.16947
 C1249 C 0.83146 0.91251 0.17025
 C1250 C 0.82784 0.88900 0.19782
 H1251 H 0.90509 0.95412 0.19467
 H1252 H 0.86233 0.95334 0.14762
 H1253 H 0.81272 0.91268 0.14918
 H1254 H 0.80646 0.87072 0.19649
 H1255 H 0.91829 0.89120 0.30311
 H1256 H 0.87177 0.84764 0.30267
 C1257 C 0.37833 0.40553 0.71941
 C1258 C 0.40308 0.40568 0.74696
 C1259 C 0.40051 0.38095 0.77376
 C1260 C 0.37407 0.35605 0.77353
 C1261 C 0.34885 0.35569 0.74703
 C1262 C 0.35078 0.38055 0.71953
 C1263 C 0.38096 0.42923 0.69125
 C1264 C 0.35658 0.42891 0.66425
 C1265 C 0.32962 0.40467 0.66437
 C1266 C 0.32692 0.38035 0.69134
 H1267 H 0.40195 0.44805 0.68967
 H1268 H 0.35876 0.44740 0.64298
 H1269 H 0.31090 0.40464 0.64326
 H1270 H 0.30630 0.36129 0.68949
 H1271 H 0.41923 0.38094 0.79499
 H1272 H 0.37303 0.33707 0.79449
 C1273 C 0.11147 0.21189 0.90747
 C1274 C 0.08386 0.23679 0.90601
 C1275 C 0.08170 0.25913 0.87696
 C1276 C 0.10709 0.25877 0.85096
 C1277 C 0.13556 0.23594 0.85279
 C1278 C 0.13732 0.21141 0.88061
 C1279 C 0.11284 0.18613 0.93395
 C1280 C 0.13956 0.16149 0.93476
 C1281 C 0.16471 0.16112 0.90868
 C1282 C 0.16338 0.18535 0.88157
 H1283 H 0.09303 0.18429 0.95395
 H1284 H 0.14038 0.14217 0.95539
 H1285 H 0.18499 0.14154 0.90915
 H1286 H 0.18233 0.18278 0.86099
 H1287 H 0.06075 0.27806 0.87501
 H1288 H 0.10503 0.27731 0.82969
 C1289 C 0.61472 0.72604 0.41974
 C1290 C 0.58453 0.74677 0.41393
 C1291 C 0.58259 0.76726 0.38366
 C1292 C 0.60935 0.76697 0.35906
 C1293 C 0.64024 0.74817 0.36488
 C1294 C 0.64368 0.72856 0.39642
 C1295 C 0.61675 0.70281 0.44841
 C1296 C 0.64765 0.68533 0.45617
 C1297 C 0.67680 0.69010 0.43522
 C1298 C 0.67477 0.71087 0.40545
 H1299 H 0.59459 0.69804 0.46522
 H1300 H 0.64904 0.66821 0.47862
 H1301 H 0.70099 0.67695 0.44144
 H1302 H 0.69789 0.71210 0.38979
 H1303 H 0.55999 0.78360 0.37892
 H1304 H 0.60632 0.78253 0.33562
 C1305 C 0.90610 0.78354 0.88453
 C1306 C 0.90335 0.76093 0.91394
 C1307 C 0.87392 0.73930 0.91698
 C1308 C 0.84875 0.73806 0.89080
 C1309 C 0.85184 0.75851 0.86066
 C1310 C 0.88016 0.78232 0.85777
 C1311 C 0.93280 0.80901 0.88231
 C1312 C 0.93453 0.83188 0.85410
 C1313 C 0.90928 0.83063 0.82808
 C1314 C 0.88217 0.80651 0.83002
 H1315 H 0.95209 0.81215 0.90271
 H1316 H 0.95515 0.85116 0.85279
 H1317 H 0.91026 0.84894 0.80665
 H1318 H 0.86222 0.80810 0.81032
 H1319 H 0.87105 0.72210 0.93928
 H1320 H 0.82699 0.72022 0.89376
 C1321 C 0.40757 0.28432 0.38009
 C1322 C 0.40689 0.25750 0.40560
 C1323 C 0.38024 0.23255 0.40483
 C1324 C 0.35480 0.23329 0.37891
 C1325 C 0.35551 0.25867 0.35262
 C1326 C 0.38181 0.28481 0.35319
 C1327 C 0.43282 0.31117 0.38128
 C1328 C 0.43310 0.33751 0.35620
 C1329 C 0.40800 0.33801 0.32995
 C1330 C 0.38230 0.31227 0.32860
 H1331 H 0.45232 0.31225 0.40171
 H1332 H 0.45272 0.35782 0.35732
 H1333 H 0.40831 0.35867 0.31076
 H1334 H 0.36262 0.31452 0.30857
 H1335 H 0.37936 0.21208 0.42435
 H1336 H 0.33472 0.21337 0.37897
 C1337 C 0.11039 0.72530 0.09048
 C1338 C 0.08600 0.75314 0.09105
 C1339 C 0.08867 0.77893 0.11677
 C1340 C 0.11514 0.77768 0.14166
 C1341 C 0.13999 0.75087 0.14137
 C1342 C 0.13750 0.72404 0.11598
 C1343 C 0.10790 0.69822 0.06558
 C1344 C 0.13161 0.67063 0.06575
 C1345 C 0.15770 0.66907 0.09102
 C1346 C 0.16051 0.69527 0.11612
 H1347 H 0.08752 0.69789 0.04600
 H1348 H 0.12942 0.65011 0.04646
 H1349 H 0.17566 0.64726 0.09141
 H1350 H 0.18038 0.69235 0.13590
 H1351 H 0.07006 0.80021 0.11752
 H1352 H 0.11635 0.79797 0.16130
 C1353 C 0.61057 0.21421 0.58952
 C1354 C 0.58598 0.24182 0.58854
 C1355 C 0.58709 0.26786 0.61414
 C1356 C 0.61252 0.26734 0.64010
 C1357 C 0.63800 0.24118 0.64091
 C1358 C 0.63667 0.21374 0.61607
 C1359 C 0.60931 0.18664 0.56510
 C1360 C 0.63316 0.15922 0.56684
 C1361 C 0.65821 0.15840 0.59319
 C1362 C 0.65984 0.18516 0.61778
 H1363 H 0.58974 0.18580 0.54471
 H1364 H 0.63188 0.13826 0.54795
 H1365 H 0.67625 0.13671 0.59481
 H1366 H 0.67880 0.18277 0.63851
 H1367 H 0.56815 0.28886 0.61386
 H1368 H 0.61261 0.28786 0.65948
 C1369 C 0.90671 0.27895 0.11278
 C1370 C 0.90780 0.25012 0.08968
 C1371 C 0.88294 0.22351 0.09276
 C1372 C 0.85736 0.22486 0.11852
 C1373 C 0.85598 0.25278 0.14205
 C1374 C 0.88043 0.28044 0.13904
 C1375 C 0.93073 0.30676 0.10981
 C1376 C 0.92883 0.33541 0.13212
 C1377 C 0.90281 0.33716 0.15739
 C1378 C 0.87866 0.31015 0.16074
 H1379 H 0.95095 0.30677 0.09010
 H1380 H 0.94740 0.35654 0.12953
 H1381 H 0.90114 0.35972 0.17429
 H1382 H 0.85830 0.31313 0.17998
 H1383 H 0.88343 0.20150 0.07502
 H1384 H 0.83866 0.20370 0.12038
 C1385 C 0.39987 0.77576 0.61783
 C1386 C 0.40318 0.74666 0.59530
 C1387 C 0.38009 0.71852 0.59852
 C1388 C 0.35428 0.71852 0.62410
 C1389 C 0.35093 0.74658 0.64721
 C1390 C 0.37341 0.77581 0.64391
 C1391 C 0.42191 0.80513 0.61454
 C1392 C 0.41792 0.83388 0.63644
 C1393 C 0.39176 0.83415 0.66163
 C1394 C 0.36953 0.80557 0.66526
 H1395 H 0.44218 0.80627 0.59492
 H1396 H 0.43499 0.85622 0.63362
 H1397 H 0.38849 0.85674 0.67825
 H1398 H 0.34901 0.80730 0.68448
 H1399 H 0.38227 0.69631 0.58117
 H1400 H 0.33709 0.69620 0.62623
 C1401 C 0.22112 0.08287 0.87958
 C1402 C 0.24623 0.08650 0.90661
 C1403 C 0.26917 0.11492 0.90621
 C1404 C 0.26770 0.13960 0.87963
 C1405 C 0.24384 0.13628 0.85206
 C1406 C 0.22017 0.10765 0.85179
 C1407 C 0.19636 0.05553 0.88008
 C1408 C 0.17230 0.05166 0.85309
 C1409 C 0.17170 0.07541 0.82571
 C1410 C 0.19473 0.10359 0.82535
 H1411 H 0.19518 0.03695 0.90129
 H1412 H 0.15386 0.03025 0.85355
 H1413 H 0.15300 0.07206 0.80482
 H1414 H 0.19199 0.12210 0.80438
 H1415 H 0.28844 0.11797 0.92673
 H1416 H 0.28584 0.16130 0.88030
 C1417 C 0.70822 0.60687 0.39927
 C1418 C 0.73935 0.59511 0.41541
 C1419 C 0.77134 0.61048 0.40665
 C1420 C 0.77303 0.63674 0.38160
 C1421 C 0.74277 0.64830 0.36476
 C1422 C 0.70994 0.63380 0.37375
 C1423 C 0.67544 0.59254 0.40805
 C1424 C 0.64494 0.60491 0.39239
 C1425 C 0.64654 0.63148 0.36764
 C1426 C 0.67869 0.64573 0.35818
 H1427 H 0.67312 0.57192 0.42723
 H1428 H 0.61993 0.59382 0.39947
 H1429 H 0.62280 0.64098 0.35554
 H1430 H 0.67883 0.66628 0.33878
 H1431 H 0.79524 0.60163 0.41898
 H1432 H 0.79820 0.64780 0.37491
 C1433 C 0.71522 0.11476 0.09453
 C1434 C 0.74379 0.09150 0.09126
 C1435 C 0.77264 0.09488 0.11353
 C1436 C 0.77369 0.12107 0.13871
 C1437 C 0.74613 0.14483 0.14198
 C1438 C 0.71638 0.14167 0.12009
 C1439 C 0.68525 0.11150 0.07320
 C1440 C 0.65717 0.13432 0.07689
 C1441 C 0.65815 0.16044 0.10208
 C1442 C 0.68728 0.16405 0.12366
 H1443 H 0.68313 0.09122 0.05368
 H1444 H 0.63441 0.13153 0.06033
 H1445 H 0.63610 0.17786 0.10509
 H1446 H 0.68650 0.18421 0.14332
 H1447 H 0.79452 0.07710 0.11128
 H1448 H 0.79640 0.12310 0.15552
 C1449 C 0.21130 0.58918 0.61699
 C1450 C 0.23995 0.58672 0.59373
 C1451 C 0.26825 0.60957 0.59742
 C1452 C 0.26869 0.63452 0.62385
 C1453 C 0.24094 0.63726 0.64747
 C1454 C 0.21169 0.61480 0.64395
 C1455 C 0.18188 0.56723 0.61351
 C1456 C 0.15349 0.57047 0.63602
 C1457 C 0.15362 0.59582 0.66201
 C1458 C 0.18226 0.61796 0.66587
 H1459 H 0.18040 0.54762 0.59325
 H1460 H 0.13110 0.55347 0.63304
 H1461 H 0.13129 0.59854 0.67910
 H1462 H 0.18082 0.63787 0.68570
 H1463 H 0.29018 0.60800 0.57965
 H1464 H 0.29102 0.65171 0.62608
 C1465 C 0.76961 0.89090 0.90636
 C1466 C 0.73765 0.90891 0.91134
 C1467 C 0.70850 0.89999 0.89108
 C1468 C 0.71092 0.87450 0.86530
 C1469 C 0.74205 0.85610 0.86018
 C1470 C 0.77158 0.86365 0.88121
 C1471 C 0.79975 0.89953 0.92587
 C1472 C 0.83076 0.88110 0.92139
 C1473 C 0.83248 0.85402 0.89734
 C1474 C 0.80333 0.84535 0.87724
 H1475 H 0.79969 0.92059 0.94466
 H1476 H 0.85360 0.88790 0.93662
 H1477 H 0.85671 0.84005 0.89407
 H1478 H 0.80607 0.82473 0.85822
 H1479 H 0.68380 0.91316 0.89508
 H1480 H 0.68808 0.86855 0.84965
 C1481 C 0.27094 0.38660 0.40709
 C1482 C 0.24313 0.41101 0.40671
 C1483 C 0.21861 0.41001 0.37955
 C1484 C 0.22067 0.38477 0.35345
 C1485 C 0.24705 0.35945 0.35390
 C1486 C 0.27291 0.36058 0.38057
 C1487 C 0.29733 0.38804 0.43290
 C1488 C 0.32468 0.36411 0.43297
 C1489 C 0.32678 0.33890 0.40702
 C1490 C 0.30154 0.33737 0.38077
 H1491 H 0.29730 0.40777 0.45307
 H1492 H 0.34457 0.36537 0.45305
 H1493 H 0.34829 0.32070 0.40712
 H1494 H 0.30517 0.31843 0.36034
 H1495 H 0.19747 0.42878 0.37881
 H1496 H 0.20092 0.38445 0.33316
 C1497 C 0.28055 0.88278 0.09052
 C1498 C 0.25524 0.90981 0.09079
 C1499 C 0.23082 0.91131 0.11788
 C1500 C 0.23025 0.88591 0.14377
 C1501 C 0.25321 0.85752 0.14281
 C1502 C 0.27956 0.85639 0.11675
 C1503 C 0.30732 0.88188 0.06517
 C1504 C 0.33234 0.85549 0.06547
 C1505 C 0.33171 0.83003 0.09136
 C1506 C 0.30589 0.83059 0.11699
 H1507 H 0.30947 0.90173 0.04521
 H1508 H 0.35264 0.85511 0.04583
 H1509 H 0.35164 0.81001 0.09188
 H1510 H 0.30746 0.81123 0.13738
 H1511 H 0.21180 0.93223 0.11878
 H1512 H 0.21127 0.88817 0.16449
 C1513 C 0.77440 0.37853 0.58582
 C1514 C 0.74815 0.40461 0.58672
 C1515 C 0.72258 0.40357 0.61276
 C1516 C 0.72257 0.37724 0.63771
 C1517 C 0.74755 0.35058 0.63699
 C1518 C 0.77417 0.35129 0.61121
 C1519 C 0.80142 0.37948 0.56075
 C1520 C 0.82751 0.35414 0.56058
 C1521 C 0.82760 0.32783 0.58563
 C1522 C 0.80145 0.32650 0.61091
 H1523 H 0.80285 0.39993 0.54132
 H1524 H 0.84802 0.35518 0.54118
 H1525 H 0.84826 0.30856 0.58571
 H1526 H 0.80334 0.30630 0.63047
 H1527 H 0.70257 0.42352 0.61388
 H1528 H 0.70281 0.37771 0.65785
 C1529 C 0.10291 0.09364 0.71150
 C1530 C 0.08557 0.08547 0.74332
 C1531 C 0.09451 0.10370 0.77382
 C1532 C 0.12018 0.12934 0.77336
 C1533 C 0.13863 0.13661 0.74276
 C1534 C 0.13002 0.11907 0.71141
 C1535 C 0.09328 0.07776 0.67959
 C1536 C 0.11068 0.08595 0.64869
 C1537 C 0.13760 0.11034 0.64880
 C1538 C 0.14714 0.12695 0.67975
 H1539 H 0.07216 0.05905 0.67822
 H1540 H 0.10313 0.07342 0.62451
 H1541 H 0.15093 0.11668 0.62471
 H1542 H 0.16771 0.14622 0.67855
 H1543 H 0.08166 0.09781 0.79833
 H1544 H 0.12628 0.14310 0.79733
 C1545 C 0.62040 0.58212 0.27480
 C1546 C 0.59069 0.58830 0.25340
 C1547 C 0.58864 0.61936 0.23432
 C1548 C 0.61497 0.64425 0.23630
 C1549 C 0.64535 0.63841 0.25600
 C1550 C 0.64885 0.60627 0.27458
 C1551 C 0.62225 0.55247 0.29670
 C1552 C 0.65238 0.54509 0.31570
 C1553 C 0.68101 0.56720 0.31366
 C1554 C 0.67928 0.59757 0.29368
 H1555 H 0.60046 0.53474 0.29943
 H1556 H 0.65352 0.52207 0.33206
 H1557 H 0.70441 0.56132 0.32845
 H1558 H 0.70192 0.61408 0.29443
 H1559 H 0.56625 0.62448 0.21776
 H1560 H 0.61185 0.66819 0.22154
 C1561 C 0.10287 0.90089 0.21161
 C1562 C 0.08449 0.90877 0.24286
 C1563 C 0.09093 0.88889 0.27297
 C1564 C 0.11652 0.86307 0.27319
 C1565 C 0.13605 0.85597 0.24321
 C1566 C 0.12861 0.87402 0.21179
 C1567 C 0.09539 0.91828 0.17993
 C1568 C 0.11273 0.90929 0.14922
 C1569 C 0.13754 0.88276 0.14937
 C1570 C 0.14553 0.86525 0.18031
 H1571 H 0.07577 0.93856 0.17855
 H1572 H 0.10664 0.92275 0.12511
 H1573 H 0.15064 0.87566 0.12537
 H1574 H 0.16470 0.84452 0.17925
 H1575 H 0.07672 0.89415 0.29686
 H1576 H 0.12154 0.84888 0.29717
 C1577 C 0.59862 0.39249 0.71037
 C1578 C 0.58575 0.40495 0.74272
 C1579 C 0.59907 0.39137 0.77397
 C1580 C 0.62483 0.36574 0.77365
 C1581 C 0.63797 0.35303 0.74208
 C1582 C 0.62493 0.36623 0.71007
 C1583 C 0.58588 0.40556 0.67835
 C1584 C 0.59872 0.39288 0.64673
 C1585 C 0.62435 0.36710 0.64643
 C1586 C 0.63742 0.35383 0.67776
 H1587 H 0.56596 0.42558 0.67754
 H1588 H 0.58871 0.40309 0.62232
 H1589 H 0.63418 0.35734 0.62181
 H1590 H 0.65732 0.33381 0.67646
 H1591 H 0.58936 0.40074 0.79882
 H1592 H 0.63466 0.35575 0.79826
 C1593 C 0.89977 0.11215 0.28400
 C1594 C 0.90934 0.09538 0.25249
 C1595 C 0.89273 0.10462 0.22122
 C1596 C 0.86688 0.13018 0.22072
 C1597 C 0.85713 0.14730 0.25145
 C1598 C 0.87347 0.13840 0.28347
 C1599 C 0.91566 0.10319 0.31605
 C1600 C 0.90586 0.11979 0.34691
 C1601 C 0.88006 0.14539 0.34644
 C1602 C 0.86390 0.15463 0.31511
 H1603 H 0.93570 0.08333 0.31752
 H1604 H 0.91826 0.11270 0.37132
 H1605 H 0.87247 0.15808 0.37050
 H1606 H 0.84380 0.17438 0.31596
 H1607 H 0.89975 0.09174 0.19705
 H1608 H 0.85440 0.13673 0.19615
 C1609 C 0.39476 0.60367 0.78863
 C1610 C 0.40353 0.58629 0.75723
 C1611 C 0.38560 0.59433 0.72636
 C1612 C 0.35958 0.61969 0.72602
 C1613 C 0.35099 0.63779 0.75652
 C1614 C 0.36829 0.62973 0.78827
 C1615 C 0.41160 0.59552 0.82042
 C1616 C 0.40261 0.61279 0.85115
 C1617 C 0.37666 0.63822 0.85085
 C1618 C 0.35952 0.64662 0.81980
 H1619 H 0.43170 0.57572 0.82180
 H1620 H 0.41574 0.60631 0.87535
 H1621 H 0.36966 0.65141 0.87483
 H1622 H 0.33924 0.66616 0.82082
 H1623 H 0.39202 0.58094 0.70229
 H1624 H 0.34630 0.62555 0.70170
 C1625 C 0.87729 0.91015 0.77594
 C1626 C 0.90313 0.90747 0.74955
 C1627 C 0.90173 0.87978 0.72581
 C1628 C 0.87512 0.85511 0.72753
 C1629 C 0.84840 0.85784 0.75238
 C1630 C 0.84922 0.88570 0.77689
 C1631 C 0.87912 0.93641 0.80177
 C1632 C 0.85301 0.93975 0.82678
 C1633 C 0.82510 0.91662 0.82711
 C1634 C 0.82350 0.88939 0.80302
 H1635 H 0.90070 0.95457 0.80296
 H1636 H 0.85447 0.96034 0.84607
 H1637 H 0.80480 0.91961 0.84646
 H1638 H 0.80208 0.87137 0.80541
 H1639 H 0.92142 0.87734 0.70567
 H1640 H 0.87504 0.83393 0.70881
 C1641 C 0.37828 0.41453 0.27254
 C1642 C 0.40300 0.41421 0.24496
 C1643 C 0.40102 0.38828 0.21932
 C1644 C 0.37503 0.36295 0.22042
 C1645 C 0.34977 0.36307 0.24683
 C1646 C 0.35125 0.38894 0.27334
 C1647 C 0.38051 0.43911 0.29995
 C1648 C 0.35619 0.43912 0.32696
 C1649 C 0.32975 0.41430 0.32769
 C1650 C 0.32749 0.38912 0.30151
 H1651 H 0.40115 0.45833 0.30100
 H1652 H 0.35806 0.45830 0.34762
 H1653 H 0.31114 0.41443 0.34887
 H1654 H 0.30737 0.36961 0.30393
 H1655 H 0.41990 0.38766 0.19827
 H1656 H 0.37440 0.34320 0.20019
   
