data_POSCAR
  _audit_creation_date              2014-09-24
  _audit_creation_method            'ToBaCCo'
  _symmetry_space_group_name_H-M    'P1'
  _symmetry_Int_Tables_number       1
  _symmetry_cell_setting            triclinic
  loop_
  _symmetry_equiv_pos_as_xyz
 x,y,z
_cell_length_a 58.9226
_cell_length_b 58.9123
_cell_length_c 58.9381
_cell_angle_alpha 90.003300
_cell_angle_beta 89.992200
_cell_angle_gamma 90.040100
loop_
  _atom_site_label
  _atom_site_type_symbol
  _atom_site_fract_x
  _atom_site_fract_y
  _atom_site_fract_z
N1 N 0.17120 0.22503 0.23066
 N2 N 0.17772 0.20735 0.24265
 C3 C 0.16317 0.20436 0.26005
 C4 C 0.14686 0.22108 0.25876
 C5 C 0.15235 0.23391 0.24002
 H6 H 0.16427 0.19109 0.27268
 H7 H 0.14331 0.24857 0.23368
 Cu8 Cu 0.20444 0.19009 0.23379
 Cu9 Cu 0.18757 0.23530 0.20379
 Cu10 Cu 0.23493 0.20395 0.18787
 N11 N 0.23075 0.17224 0.22483
 N12 N 0.24254 0.17779 0.20669
 C13 C 0.25963 0.16287 0.20398
 C14 C 0.25838 0.14724 0.22131
 C15 C 0.23994 0.15353 0.23427
 H16 H 0.27202 0.16335 0.19045
 H17 H 0.23374 0.14508 0.24934
 N18 N 0.22443 0.23098 0.17113
 N19 N 0.20642 0.24290 0.17720
 C20 C 0.20374 0.26027 0.16257
 C21 C 0.22084 0.25911 0.14670
 C22 C 0.23367 0.24048 0.15249
 H23 H 0.19043 0.27287 0.16337
 H24 H 0.24862 0.23438 0.14377
 H25 H 0.20058 0.20392 0.19502
 H26 H 0.21892 0.22263 0.21275
 N27 N 0.67148 0.72523 0.73043
 N28 N 0.67769 0.70723 0.74209
 C29 C 0.66317 0.70428 0.75953
 C30 C 0.64719 0.72132 0.75858
 C31 C 0.65285 0.73434 0.74001
 H32 H 0.66411 0.69083 0.77198
 H33 H 0.64408 0.74928 0.73395
 Cu34 Cu 0.70419 0.68966 0.73315
 Cu35 Cu 0.68798 0.73559 0.70370
 Cu36 Cu 0.73528 0.70425 0.68775
 N37 N 0.73069 0.67211 0.72421
 N38 N 0.74279 0.67798 0.70638
 C39 C 0.76008 0.66327 0.70385
 C40 C 0.75865 0.64744 0.72099
 C41 C 0.73992 0.65342 0.73366
 H42 H 0.77274 0.66402 0.69057
 H43 H 0.73356 0.64480 0.74856
 N44 N 0.72489 0.73136 0.67113
 N45 N 0.70689 0.74328 0.67721
 C46 C 0.70421 0.76065 0.66258
 C47 C 0.72129 0.75947 0.64671
 C48 C 0.73412 0.74084 0.65248
 H49 H 0.69086 0.77321 0.66335
 H50 H 0.74902 0.73470 0.64371
 H51 H 0.70092 0.70431 0.69463
 H52 H 0.71919 0.72253 0.71300
 N53 N 0.32815 0.77517 0.73057
 N54 N 0.32198 0.79319 0.74223
 C55 C 0.33652 0.79611 0.75966
 C56 C 0.35250 0.77903 0.75869
 C57 C 0.34679 0.76604 0.74012
 H58 H 0.33563 0.80955 0.77212
 H59 H 0.35553 0.75109 0.73404
 Cu60 Cu 0.29545 0.81080 0.73331
 Cu61 Cu 0.31163 0.76481 0.70385
 Cu62 Cu 0.26435 0.79618 0.68794
 N63 N 0.26891 0.82841 0.72438
 N64 N 0.25680 0.82252 0.70655
 C65 C 0.23950 0.83724 0.70401
 C66 C 0.24093 0.85309 0.72115
 C67 C 0.25969 0.84713 0.73382
 H68 H 0.22685 0.83647 0.69072
 H69 H 0.26606 0.85575 0.74872
 N70 N 0.27471 0.76902 0.67128
 N71 N 0.29270 0.75710 0.67736
 C72 C 0.29539 0.73972 0.66273
 C73 C 0.27830 0.74086 0.64685
 C74 C 0.26548 0.75952 0.65263
 H75 H 0.30873 0.72715 0.66351
 H76 H 0.25058 0.76565 0.64386
 H77 H 0.29877 0.79605 0.69479
 H78 H 0.28051 0.77786 0.71318
 N79 N 0.82924 0.27482 0.23089
 N80 N 0.82299 0.29278 0.24260
 C81 C 0.83750 0.29575 0.26003
 C82 C 0.85350 0.27873 0.25904
 C83 C 0.84790 0.26572 0.24045
 H84 H 0.83653 0.30918 0.27249
 H85 H 0.85671 0.25081 0.23437
 Cu86 Cu 0.79654 0.31051 0.23383
 Cu87 Cu 0.81278 0.26453 0.20416
 Cu88 Cu 0.76555 0.29586 0.18820
 N89 N 0.77001 0.32793 0.22468
 N90 N 0.75798 0.32210 0.20680
 C91 C 0.74072 0.33684 0.20423
 C92 C 0.74210 0.35265 0.22139
 C93 C 0.76079 0.34663 0.23408
 H94 H 0.72811 0.33616 0.19091
 H95 H 0.76710 0.35523 0.24901
 N96 N 0.77594 0.26877 0.17156
 N97 N 0.79392 0.25684 0.17764
 C98 C 0.79661 0.23948 0.16301
 C99 C 0.77955 0.24066 0.14711
 C100 C 0.76672 0.25930 0.15289
 H101 H 0.80994 0.22690 0.16379
 H102 H 0.75182 0.26544 0.14413
 H103 H 0.79992 0.29588 0.19520
 H104 H 0.78163 0.27762 0.21345
 N105 N 0.82869 0.72526 0.26955
 N106 N 0.82250 0.70724 0.25790
 C107 C 0.83704 0.70427 0.24049
 C108 C 0.85301 0.72133 0.24143
 C109 C 0.84734 0.73436 0.25997
 H110 H 0.83611 0.69082 0.22803
 H111 H 0.85613 0.74930 0.26603
 Cu112 Cu 0.79590 0.68969 0.26661
 Cu113 Cu 0.81216 0.73563 0.29622
 Cu114 Cu 0.76491 0.70424 0.31220
 N115 N 0.76954 0.67205 0.27580
 N116 N 0.75745 0.67792 0.29364
 C117 C 0.74018 0.66316 0.29620
 C118 C 0.74163 0.64731 0.27908
 C119 C 0.76035 0.65331 0.26642
 H120 H 0.72756 0.66386 0.30949
 H121 H 0.76667 0.64468 0.25151
 N122 N 0.77525 0.73139 0.32876
 N123 N 0.79324 0.74334 0.32268
 C124 C 0.79591 0.76073 0.33729
 C125 C 0.77883 0.75953 0.35317
 C126 C 0.76601 0.74087 0.34741
 H127 H 0.80925 0.77332 0.33652
 H128 H 0.75111 0.73470 0.35618
 H129 H 0.79926 0.70427 0.30522
 H130 H 0.78097 0.72252 0.28695
 N131 N 0.32890 0.22512 -0.23084
 N132 N 0.32267 0.20713 -0.24254
 C133 C 0.33724 0.20414 -0.25995
 C134 C 0.35327 0.22119 -0.25896
 C135 C 0.34760 0.23421 -0.24037
 H136 H 0.33628 0.19069 -0.27241
 H137 H 0.35641 0.24911 -0.23423
 Cu138 Cu 0.29605 0.18959 -0.23362
 Cu139 Cu 0.31229 0.23545 -0.20408
 Cu140 Cu 0.26492 0.20411 -0.18819
 N141 N 0.26950 0.17196 -0.22469
 N142 N 0.25742 0.17783 -0.20685
 C143 C 0.24012 0.16310 -0.20430
 C144 C 0.24150 0.14727 -0.22143
 C145 C 0.26026 0.15324 -0.23410
 H146 H 0.22751 0.16383 -0.19098
 H147 H 0.26659 0.14460 -0.24900
 N148 N 0.27529 0.23123 -0.17155
 N149 N 0.29331 0.24317 -0.17757
 C150 C 0.29593 0.26055 -0.16292
 C151 C 0.27878 0.25936 -0.14708
 C152 C 0.26599 0.24069 -0.15292
 H153 H 0.30926 0.27315 -0.16365
 H154 H 0.25105 0.23453 -0.14422
 H155 H 0.29927 0.20408 -0.19499
 H156 H 0.28104 0.22235 -0.21331
 N157 N 0.67117 0.27482 -0.23068
 N158 N 0.67710 0.29310 -0.24209
 C159 C 0.66260 0.29603 -0.25955
 C160 C 0.64687 0.27868 -0.25886
 C161 C 0.65270 0.26551 -0.24043
 H162 H 0.66339 0.30966 -0.27183
 H163 H 0.64417 0.25033 -0.23456
 Cu164 Cu 0.70347 0.31080 -0.23281
 Cu165 Cu 0.68786 0.26440 -0.20399
 Cu166 Cu 0.73519 0.29586 -0.18807
 N167 N 0.73016 0.32835 -0.22422
 N168 N 0.74253 0.32224 -0.20666
 C169 C 0.75998 0.33681 -0.20431
 C170 C 0.75841 0.35279 -0.22129
 C171 C 0.73939 0.34705 -0.23368
 H172 H 0.77285 0.33587 -0.19126
 H173 H 0.73288 0.35582 -0.24842
 N174 N 0.72491 0.26865 -0.17149
 N175 N 0.70691 0.25667 -0.17752
 C176 C 0.70429 0.23932 -0.16284
 C177 C 0.72141 0.24057 -0.14698
 C178 C 0.73418 0.25924 -0.15283
 H179 H 0.69095 0.22673 -0.16353
 H180 H 0.74907 0.26547 -0.14408
 H181 H 0.70086 0.29556 -0.19446
 H182 H 0.71900 0.27781 -0.21332
 N183 N 0.17151 0.77515 0.26944
 N184 N 0.17777 0.79313 0.25773
 C185 C 0.16323 0.79607 0.24031
 C186 C 0.14718 0.77907 0.24132
 C187 C 0.15283 0.76607 0.25990
 H188 H 0.16415 0.80953 0.22787
 H189 H 0.14400 0.75118 0.26602
 Cu190 Cu 0.20430 0.81074 0.26668
 Cu191 Cu 0.18796 0.76482 0.29619
 Cu192 Cu 0.23525 0.79620 0.31219
 N193 N 0.23083 0.82835 0.27565
 N194 N 0.24286 0.82251 0.29355
 C195 C 0.26013 0.83730 0.29616
 C196 C 0.25872 0.85312 0.27899
 C197 C 0.24005 0.84708 0.26624
 H198 H 0.27270 0.83661 0.30951
 H199 H 0.23369 0.85570 0.25135
 N200 N 0.22482 0.76905 0.32883
 N201 N 0.20682 0.75712 0.32272
 C202 C 0.20410 0.73972 0.33732
 C203 C 0.22116 0.74086 0.35323
 C204 C 0.23402 0.75953 0.34748
 H205 H 0.19076 0.72714 0.33650
 H206 H 0.24893 0.76565 0.35626
 H207 H 0.20080 0.79614 0.30527
 H208 H 0.21910 0.77787 0.28701
 N209 N 0.47498 0.42095 0.48060
 N210 N 0.45699 0.42714 0.49230
 C211 C 0.45406 0.41258 0.50971
 C212 C 0.47110 0.39659 0.50873
 C213 C 0.48410 0.40231 0.49015
 H214 H 0.44063 0.41351 0.52220
 H215 H 0.49905 0.39356 0.48408
 Cu216 Cu 0.43943 0.45375 0.48364
 Cu217 Cu 0.48529 0.43753 0.45390
 Cu218 Cu 0.45387 0.48471 0.43794
 N219 N 0.42174 0.48006 0.47439
 N220 N 0.42756 0.49213 0.45652
 C221 C 0.41277 0.50935 0.45395
 C222 C 0.39694 0.50789 0.47108
 C223 C 0.40300 0.48922 0.48379
 H224 H 0.41347 0.52199 0.44065
 H225 H 0.39441 0.48289 0.49872
 N226 N 0.48102 0.47443 0.42133
 N227 N 0.49298 0.45647 0.42740
 C228 C 0.51036 0.45384 0.41277
 C229 C 0.50915 0.47093 0.39688
 C230 C 0.49047 0.48370 0.40267
 H231 H 0.52297 0.44053 0.41354
 H232 H 0.48428 0.49859 0.39391
 H233 H 0.47219 0.46875 0.46319
 H234 H 0.45389 0.45039 0.44499
 N235 N -0.02515 -0.07870 0.98046
 N236 N -0.04311 -0.07248 0.99219
 C237 C -0.04607 -0.08700 1.00961
 C238 C -0.02907 -0.10301 1.00861
 C239 C -0.01607 -0.09736 0.99002
 H240 H -0.05946 -0.08604 1.02212
 H241 H -0.00116 -0.10616 0.98394
 Cu242 Cu -0.06060 -0.04589 0.98356
 Cu243 Cu -0.01484 -0.06216 0.95375
 Cu244 Cu -0.04618 -0.01492 0.93787
 N245 N -0.07820 -0.01956 0.97439
 N246 N -0.07238 -0.00749 0.95652
 C247 C -0.08712 0.00977 0.95400
 C248 C -0.10288 0.00832 0.97116
 C249 C -0.09689 -0.01037 0.98384
 H250 H -0.08643 0.02241 0.94072
 H251 H -0.10547 -0.01667 0.99879
 N252 N -0.01911 -0.02524 0.92122
 N253 N -0.00716 -0.04323 0.92725
 C254 C 0.01017 -0.04588 0.91256
 C255 C 0.00893 -0.02877 0.89670
 C256 C -0.00970 -0.01598 0.90255
 H257 H 0.02274 -0.05921 0.91329
 H258 H -0.01590 -0.00107 0.89383
 H259 H -0.02788 -0.03087 0.96307
 H260 H -0.04625 -0.04918 0.94490
 N261 N 1.02516 0.57867 0.98054
 N262 N 1.04313 0.57246 0.99224
 C263 C 1.04605 0.58694 1.00970
 C264 C 1.02905 0.60296 1.00869
 C265 C 1.01606 0.59732 0.99010
 H266 H 1.05950 0.58602 1.02216
 H267 H 1.00113 0.60609 0.98401
 Cu268 Cu 1.06081 0.54602 0.98346
 Cu269 Cu 1.01491 0.56215 0.95380
 Cu270 Cu 1.04623 0.51494 0.93788
 N271 N 1.07824 0.51953 0.97439
 N272 N 1.07241 0.50746 0.95653
 C273 C 1.08713 0.49019 0.95399
 C274 C 1.10291 0.49163 0.97115
 C275 C 1.09690 0.51030 0.98386
 H276 H 1.08642 0.47755 0.94069
 H277 H 1.10552 0.51665 0.99876
 N278 N 1.01920 0.52529 0.92123
 N279 N 1.00725 0.54328 0.92728
 C280 C 0.98992 0.54594 0.91260
 C281 C 0.99115 0.52884 0.89673
 C282 C 1.00978 0.51604 0.90255
 H283 H 0.97733 0.55927 0.91334
 H284 H 1.01596 0.50114 0.89381
 H285 H 1.02806 0.53091 0.96319
 H286 H 1.04633 0.54922 0.94486
 N287 N 0.52522 0.07863 0.48067
 N288 N 0.54320 0.07240 0.49237
 C289 C 0.54618 0.08691 0.50980
 C290 C 0.52917 0.10293 0.50884
 C291 C 0.51615 0.09729 0.49025
 H292 H 0.55964 0.08596 0.52224
 H293 H 0.50124 0.10608 0.48417
 Cu294 Cu 0.56077 0.04595 0.48340
 Cu295 Cu 0.51493 0.06211 0.45389
 Cu296 Cu 0.54634 0.01490 0.43787
 N297 N 0.57836 0.01955 0.47443
 N298 N 0.57256 0.00749 0.45654
 C299 C 0.58735 -0.00971 0.45395
 C300 C 0.60313 -0.00823 0.47111
 C301 C 0.59708 0.01041 0.48383
 H302 H 0.58670 -0.02232 0.44062
 H303 H 0.60569 0.01676 0.49875
 N304 N 0.51924 0.02524 0.42126
 N305 N 0.50727 0.04320 0.42735
 C306 C 0.48990 0.04582 0.41271
 C307 C 0.49113 0.02874 0.39682
 C308 C 0.50980 0.01597 0.40261
 H309 H 0.47729 0.05912 0.41349
 H310 H 0.51598 0.00107 0.39386
 H311 H 0.52810 0.03084 0.46304
 H312 H 0.54636 0.04920 0.44479
 N313 N -0.02536 0.07884 0.51923
 N314 N -0.04334 0.07261 0.50755
 C315 C -0.04629 0.08709 0.49009
 C316 C -0.02928 0.10310 0.49106
 C317 C -0.01626 0.09749 0.50964
 H318 H -0.05977 0.08617 0.47767
 H319 H -0.00136 0.10631 0.51572
 Cu320 Cu -0.06113 0.04631 0.51652
 Cu321 Cu -0.01511 0.06236 0.54600
 Cu322 Cu -0.04650 0.01514 0.56196
 N323 N -0.07848 0.01972 0.52542
 N324 N -0.07266 0.00765 0.54328
 C325 C -0.08742 -0.00960 0.54582
 C326 C -0.10319 -0.00814 0.52867
 C327 C -0.09717 0.01053 0.51597
 H328 H -0.08677 -0.02221 0.55914
 H329 H -0.10581 0.01689 0.50108
 N330 N -0.01944 0.02551 0.57861
 N331 N -0.00747 0.04349 0.57255
 C332 C 0.00988 0.04614 0.58721
 C333 C 0.00864 0.02904 0.60309
 C334 C -0.01002 0.01625 0.59727
 H335 H 0.02250 0.05945 0.58645
 H336 H -0.01622 0.00133 0.60599
 H337 H -0.02839 0.03116 0.53670
 H338 H -0.04655 0.04945 0.55511
 N339 N 0.47512 0.57864 0.01934
 N340 N 0.45741 0.57213 0.00738
 C341 C 0.45443 0.58666 -0.01003
 C342 C 0.47118 0.60296 -0.00878
 C343 C 0.48403 0.59747 0.00995
 H344 H 0.44113 0.58557 -0.02263
 H345 H 0.49872 0.60650 0.01625
 Cu346 Cu 0.44008 0.54547 0.01627
 Cu347 Cu 0.48536 0.56225 0.04622
 Cu348 Cu 0.45386 0.51497 0.06220
 N349 N 0.42217 0.51923 0.02526
 N350 N 0.42768 0.50743 0.04340
 C351 C 0.41269 0.49040 0.04613
 C352 C 0.39706 0.49171 0.02882
 C353 C 0.40342 0.51010 0.01584
 H354 H 0.41311 0.47801 0.05967
 H355 H 0.39498 0.51631 0.00078
 N356 N 0.48094 0.52541 0.07891
 N357 N 0.49292 0.54339 0.07283
 C358 C 0.51031 0.54602 0.08745
 C359 C 0.50909 0.52892 0.10332
 C360 C 0.49040 0.51614 0.09754
 H361 H 0.52296 0.55930 0.08664
 H362 H 0.48425 0.50121 0.10626
 H363 H 0.47256 0.53090 0.03729
 H364 H 0.45394 0.54931 0.05503
 N365 N 0.52506 -0.07870 0.01954
 N366 N 0.54307 -0.07250 0.00788
 C367 C 0.54600 -0.08701 -0.00956
 C368 C 0.52895 -0.10300 -0.00861
 C369 C 0.51594 -0.09735 0.00997
 H370 H 0.55947 -0.08607 -0.02196
 H371 H 0.50104 -0.10619 0.01606
 Cu372 Cu 0.56086 -0.04608 0.01665
 Cu373 Cu 0.51484 -0.06219 0.04627
 Cu374 Cu 0.54629 -0.01501 0.06224
 N375 N 0.57835 -0.01958 0.02579
 N376 N 0.57253 -0.00749 0.04363
 C377 C 0.58735 0.00973 0.04621
 C378 C 0.60315 0.00827 0.02906
 C379 C 0.59707 -0.01041 0.01637
 H380 H 0.58674 0.02233 0.05956
 H381 H 0.60566 -0.01681 0.00148
 N382 N 0.51917 -0.02534 0.07888
 N383 N 0.50719 -0.04331 0.07281
 C384 C 0.48981 -0.04595 0.08745
 C385 C 0.49105 -0.02888 0.10335
 C386 C 0.50973 -0.01609 0.09755
 H387 H 0.47720 -0.05927 0.08668
 H388 H 0.51593 -0.00120 0.10631
 H389 H 0.52810 -0.03108 0.03697
 H390 H 0.54630 -0.04942 0.05528
 N391 N 1.02484 0.42130 0.51924
 N392 N 1.04283 0.42753 0.50756
 C393 C 1.04576 0.41304 0.49012
 C394 C 1.02872 0.39705 0.49106
 C395 C 1.01572 0.40266 0.50965
 H396 H 1.05920 0.41401 0.47769
 H397 H 1.00079 0.39384 0.51570
 Cu398 Cu 1.06065 0.45391 0.51624
 Cu399 Cu 1.01464 0.43780 0.54597
 Cu400 Cu 1.04607 0.48500 0.56192
 N401 N 1.07804 0.48039 0.52543
 N402 N 1.07224 0.49247 0.54329
 C403 C 1.08702 0.50972 0.54584
 C404 C 1.10278 0.50826 0.52866
 C405 C 1.09673 0.48958 0.51599
 H406 H 1.08639 0.52236 0.55914
 H407 H 1.10529 0.48322 0.50108
 N408 N 1.01901 0.47466 0.57856
 N409 N 1.00702 0.45669 0.57250
 C410 C 0.98968 0.45404 0.58718
 C411 C 0.99096 0.47113 0.60306
 C412 C 1.00962 0.48391 0.59724
 H413 H 0.97706 0.44072 0.58644
 H414 H 1.01584 0.49880 0.60598
 H415 H 1.02786 0.46902 0.53667
 H416 H 1.04608 0.45070 0.55495
 Si417 Si 0.37425 -0.00031 0.25020
 Si418 Si 0.12546 -0.00034 0.74966
 Si419 Si 0.62576 0.49981 0.25001
 Si420 Si 0.87463 0.50013 0.74994
 Si421 Si 0.24981 0.37562 -0.00004
 Si422 Si 0.75036 0.12446 0.00016
 Si423 Si 0.24993 0.62419 0.49998
 Si424 Si 0.74995 0.87583 0.49993
 Si425 Si -0.00052 0.25011 0.37466
 Si426 Si 0.00004 0.75002 0.12497
 Si427 Si 0.50016 0.24977 0.62576
 Si428 Si 0.49991 0.75005 0.87476
 C429 C 0.09306 0.23143 0.30184
 C430 C 0.09615 0.25209 0.31742
 C431 C 0.07832 0.25567 0.33170
 C432 C 0.05914 0.23824 0.32899
 C433 C 0.07054 0.21504 0.33218
 C434 C 0.08838 0.21146 0.31790
 C435 C 0.07050 0.23560 0.28950
 C436 C 0.05266 0.23918 0.30378
 C437 C 0.11226 0.22760 0.28649
 C438 C 0.12806 0.22455 0.27386
 C439 C 0.03991 0.24207 0.34431
 C440 C 0.02394 0.24525 0.35667
 H441 H 0.11101 0.26300 0.31719
 H442 H 0.07789 0.26964 0.34370
 H443 H 0.06507 0.20251 0.34453
 H444 H 0.09818 0.19587 0.31802
 H445 H 0.06870 0.23577 0.27117
 H446 H 0.03558 0.24241 0.29767
 C447 C 0.59352 0.73161 0.80186
 C448 C 0.59628 0.75263 0.81701
 C449 C 0.57844 0.75614 0.83131
 C450 C 0.55959 0.73829 0.82905
 C451 C 0.57147 0.71538 0.83263
 C452 C 0.58931 0.71187 0.81834
 C453 C 0.57082 0.73508 0.78956
 C454 C 0.55299 0.73859 0.80385
 C455 C 0.61272 0.72786 0.78647
 C456 C 0.62847 0.72483 0.77377
 C457 C 0.54036 0.74207 0.84438
 C458 C 0.52438 0.74522 0.85675
 H459 H 0.61093 0.76382 0.81651
 H460 H 0.57781 0.77033 0.84305
 H461 H 0.56629 0.70299 0.84525
 H462 H 0.59941 0.69647 0.81871
 H463 H 0.56893 0.73482 0.77123
 H464 H 0.53581 0.74134 0.79777
 C465 C 0.40627 0.76855 0.80186
 C466 C 0.41008 0.78795 0.81884
 C467 C 0.42792 0.78441 0.83311
 C468 C 0.44022 0.76182 0.82902
 C469 C 0.44692 0.76224 0.80385
 C470 C 0.42908 0.76578 0.78957
 C471 C 0.40384 0.74712 0.81649
 C472 C 0.42169 0.74358 0.83077
 C473 C 0.38704 0.77237 0.78650
 C474 C 0.37125 0.77546 0.77385
 C475 C 0.45947 0.75801 0.84435
 C476 C 0.47543 0.75487 0.85673
 H477 H 0.39970 0.80316 0.81954
 H478 H 0.43284 0.79659 0.84604
 H479 H 0.46417 0.75994 0.79776
 H480 H 0.43103 0.76650 0.77127
 H481 H 0.38941 0.73568 0.81564
 H482 H 0.42254 0.72912 0.84215
 C483 C -0.09393 0.26864 0.30162
 C484 C -0.09742 0.24854 0.31783
 C485 C -0.07963 0.24501 0.33216
 C486 C -0.06008 0.26193 0.32889
 C487 C -0.07098 0.28546 0.33141
 C488 C -0.08877 0.28899 0.31707
 C489 C -0.07150 0.26362 0.28936
 C490 C -0.05371 0.26010 0.30369
 C491 C -0.11309 0.27242 0.28618
 C492 C -0.12881 0.27543 0.27345
 C493 C -0.04090 0.25813 0.34425
 C494 C -0.02495 0.25497 0.35664
 H495 H -0.11252 0.23796 0.31798
 H496 H -0.07947 0.23140 0.34459
 H497 H -0.06519 0.29824 0.34336
 H498 H -0.09824 0.30479 0.31674
 H499 H -0.06976 0.26289 0.27104
 H500 H -0.03671 0.25633 0.29764
 C501 C -0.09344 0.73164 0.19801
 C502 C -0.07088 0.73608 0.21026
 C503 C -0.05308 0.73956 0.19591
 C504 C -0.05959 0.73826 0.17072
 C505 C -0.07884 0.75556 0.16782
 C506 C -0.09664 0.75207 0.18217
 C507 C -0.08870 0.71148 0.18221
 C508 C -0.07090 0.71496 0.16785
 C509 C -0.11258 0.72789 0.21348
 C510 C -0.12829 0.72486 0.22621
 C511 C -0.04038 0.74202 0.15535
 C512 C -0.02442 0.74516 0.14297
 H513 H -0.06905 0.73646 0.22859
 H514 H -0.03600 0.74293 0.20196
 H515 H -0.07850 0.76935 0.15561
 H516 H -0.11156 0.76288 0.18225
 H517 H -0.09845 0.69583 0.18231
 H518 H -0.06539 0.70229 0.15567
 C519 C 0.40611 0.23126 0.69852
 C520 C 0.40324 0.25203 0.68305
 C521 C 0.42112 0.25553 0.66878
 C522 C 0.44015 0.23792 0.67135
 C523 C 0.42848 0.21484 0.66805
 C524 C 0.41060 0.21134 0.68232
 C525 C 0.42874 0.23515 0.71085
 C526 C 0.44661 0.23865 0.69658
 C527 C 0.38685 0.22751 0.71395
 C528 C 0.37106 0.22450 0.72666
 C529 C 0.45949 0.24172 0.65605
 C530 C 0.47555 0.24489 0.64374
 H531 H 0.38848 0.26303 0.68330
 H532 H 0.42165 0.26953 0.65681
 H533 H 0.43380 0.20234 0.65560
 H534 H 0.40061 0.19585 0.68209
 H535 H 0.43056 0.23516 0.72918
 H536 H 0.46373 0.24166 0.70270
 C537 C 0.59417 0.26835 0.69853
 C538 C 0.57166 0.26392 0.71088
 C539 C 0.55378 0.26038 0.69663
 C540 C 0.56014 0.26161 0.67139
 C541 C 0.57942 0.24434 0.66845
 C542 C 0.59729 0.24788 0.68271
 C543 C 0.58932 0.28845 0.68268
 C544 C 0.57144 0.28491 0.66842
 C545 C 0.61342 0.27217 0.71394
 C546 C 0.62917 0.27526 0.72668
 C547 C 0.54080 0.25779 0.65610
 C548 C 0.52474 0.25463 0.64378
 H549 H 0.56991 0.26357 0.72922
 H550 H 0.53674 0.25700 0.70277
 H551 H 0.57904 0.23050 0.65628
 H552 H 0.61222 0.23708 0.68275
 H553 H 0.59905 0.30411 0.68267
 H554 H 0.56587 0.29753 0.65621
 C555 C 0.09352 0.76860 0.19802
 C556 C 0.07098 0.76412 0.21029
 C557 C 0.05317 0.76057 0.19597
 C558 C 0.05965 0.76184 0.17076
 C559 C 0.07894 0.74459 0.16788
 C560 C 0.09675 0.74814 0.18220
 C561 C 0.08872 0.78871 0.18217
 C562 C 0.07092 0.78516 0.16785
 C563 C 0.11270 0.77242 0.21344
 C564 C 0.12844 0.77551 0.22614
 C565 C 0.04045 0.75803 0.15539
 C566 C 0.02450 0.75488 0.14300
 H567 H 0.06916 0.76374 0.22862
 H568 H 0.03610 0.75715 0.20203
 H569 H 0.07861 0.73075 0.15571
 H570 H 0.11168 0.73734 0.18231
 H571 H 0.09843 0.80438 0.18223
 H572 H 0.06537 0.79779 0.15564
 C573 C 0.30138 0.09339 0.23193
 C574 C 0.31718 0.09655 0.25240
 C575 C 0.33152 0.07875 0.25588
 C576 C 0.32868 0.05952 0.23853
 C577 C 0.33162 0.07090 0.21528
 C578 C 0.31727 0.08871 0.21181
 C579 C 0.28913 0.07080 0.23625
 C580 C 0.30347 0.05300 0.23972
 C581 C 0.28594 0.11256 0.22819
 C582 C 0.27331 0.12835 0.22509
 C583 C 0.34401 0.04027 0.24228
 C584 C 0.35633 0.02425 0.24541
 H585 H 0.31709 0.11147 0.26322
 H586 H 0.34374 0.07842 0.26966
 H587 H 0.34389 0.06547 0.20266
 H588 H 0.31724 0.09851 0.19621
 H589 H 0.27079 0.06894 0.23655
 H590 H 0.29742 0.03590 0.24299
 C591 C 0.80165 0.59365 0.73172
 C592 C 0.81375 0.59433 0.75477
 C593 C 0.82808 0.57652 0.75824
 C594 C 0.82891 0.55977 0.73830
 C595 C 0.83511 0.57425 0.71755
 C596 C 0.82077 0.59206 0.71409
 C597 C 0.78981 0.57044 0.73096
 C598 C 0.80414 0.55263 0.73442
 C599 C 0.78625 0.61284 0.72797
 C600 C 0.77363 0.62862 0.72483
 C601 C 0.84426 0.54056 0.74204
 C602 C 0.85664 0.52460 0.74516
 H603 H 0.81124 0.60761 0.76730
 H604 H 0.83785 0.57454 0.77372
 H605 H 0.84945 0.57079 0.70652
 H606 H 0.82284 0.60386 0.70009
 H607 H 0.77177 0.56819 0.72797
 H608 H 0.79837 0.53512 0.73439
 C609 C 0.80165 0.40649 0.76808
 C610 C 0.81716 0.41147 0.78842
 C611 C 0.83151 0.42930 0.78500
 C612 C 0.82894 0.44040 0.76158
 C613 C 0.80375 0.44680 0.75988
 C614 C 0.78940 0.42898 0.76330
 C615 C 0.81781 0.40317 0.74792
 C616 C 0.83216 0.42099 0.74450
 C617 C 0.78618 0.38732 0.77176
 C618 C 0.77347 0.37157 0.77485
 C619 C 0.84430 0.45963 0.75786
 C620 C 0.85666 0.47562 0.75474
 H621 H 0.81687 0.40186 0.80414
 H622 H 0.84351 0.43497 0.79779
 H623 H 0.79770 0.46384 0.75634
 H624 H 0.77107 0.43075 0.76269
 H625 H 0.81797 0.38813 0.73728
 H626 H 0.84461 0.42123 0.73092
 C627 C 0.30103 -0.09397 0.26846
 C628 C 0.31603 -0.08846 0.28904
 C629 C 0.33039 -0.07064 0.28557
 C630 C 0.32836 -0.06006 0.26186
 C631 C 0.30318 -0.05383 0.25940
 C632 C 0.28882 -0.07165 0.26286
 C633 C 0.31770 -0.09765 0.24877
 C634 C 0.33206 -0.07983 0.24530
 C635 C 0.28557 -0.11319 0.27222
 C636 C 0.27292 -0.12900 0.27537
 C637 C 0.34377 -0.04081 0.25811
 C638 C 0.35618 -0.02483 0.25499
 H639 H 0.31540 -0.09772 0.30495
 H640 H 0.34206 -0.06464 0.29852
 H641 H 0.29716 -0.03691 0.25530
 H642 H 0.27051 -0.06999 0.26172
 H643 H 0.31816 -0.11290 0.23843
 H644 H 0.34482 -0.07983 0.23201
 C645 C 0.19863 -0.09402 0.73161
 C646 C 0.18220 -0.09750 0.75153
 C647 C 0.16785 -0.07968 0.75495
 C648 C 0.17132 -0.06010 0.73812
 C649 C 0.16904 -0.07097 0.71456
 C650 C 0.18339 -0.08879 0.71114
 C651 C 0.21087 -0.07159 0.73679
 C652 C 0.19652 -0.05377 0.74021
 C653 C 0.21408 -0.11324 0.72790
 C654 C 0.22673 -0.12905 0.72478
 C655 C 0.15592 -0.04085 0.74181
 C656 C 0.14352 -0.02487 0.74490
 H657 H 0.18188 -0.11262 0.76206
 H658 H 0.15525 -0.07955 0.76839
 H659 H 0.15723 -0.06516 0.70167
 H660 H 0.18386 -0.09823 0.69532
 H661 H 0.22919 -0.06985 0.73768
 H662 H 0.20257 -0.03678 0.74403
 C663 C 0.69904 0.40644 0.23205
 C664 C 0.71114 0.42946 0.23381
 C665 C 0.69675 0.44724 0.23721
 C666 C 0.67167 0.44026 0.23852
 C667 C 0.67063 0.42225 0.25732
 C668 C 0.68502 0.40447 0.25391
 C669 C 0.68150 0.40946 0.21302
 C670 C 0.66711 0.42724 0.21643
 C671 C 0.71451 0.38728 0.22835
 C672 C 0.72714 0.37149 0.22523
 C673 C 0.65625 0.45943 0.24219
 C674 C 0.64381 0.47537 0.24526
 H675 H 0.72939 0.43160 0.23250
 H676 H 0.70269 0.46462 0.23881
 H677 H 0.65958 0.42338 0.27203
 H678 H 0.68630 0.39037 0.26571
 H679 H 0.68050 0.39861 0.19817
 H680 H 0.65379 0.43162 0.20448
 C681 C 0.69864 0.59348 0.26832
 C682 C 0.68341 0.58815 0.28878
 C683 C 0.66911 0.57030 0.28529
 C684 C 0.67143 0.55954 0.26169
 C685 C 0.69664 0.55329 0.25957
 C686 C 0.71094 0.57113 0.26305
 C687 C 0.68222 0.59701 0.24841
 C688 C 0.66791 0.57916 0.24492
 C689 C 0.71404 0.61267 0.27210
 C690 C 0.72666 0.62847 0.27526
 C691 C 0.65610 0.54030 0.25793
 C692 C 0.64374 0.52431 0.25480
 H693 H 0.68387 0.59754 0.30462
 H694 H 0.65731 0.56440 0.29815
 H695 H 0.70272 0.53633 0.25568
 H696 H 0.72927 0.56948 0.26214
 H697 H 0.68190 0.61217 0.23794
 H698 H 0.65533 0.57904 0.23147
 C699 C 0.19830 0.09348 0.76797
 C700 C 0.18243 0.09667 0.74756
 C701 C 0.16808 0.07884 0.74409
 C702 C 0.17101 0.05957 0.76138
 C703 C 0.16814 0.07089 0.78466
 C704 C 0.18249 0.08871 0.78813
 C705 C 0.21056 0.07093 0.76353
 C706 C 0.19621 0.05311 0.76007
 C707 C 0.21377 0.11267 0.77169
 C708 C 0.22646 0.12844 0.77478
 C709 C 0.15568 0.04029 0.75761
 C710 C 0.14338 0.02425 0.75447
 H711 H 0.18245 0.11161 0.73678
 H712 H 0.15580 0.07852 0.73036
 H713 H 0.15592 0.06538 0.79732
 H714 H 0.18256 0.09848 0.80375
 H715 H 0.22889 0.06911 0.76317
 H716 H 0.20227 0.03603 0.75674
 C717 C 0.23134 0.30249 0.09322
 C718 C 0.21094 0.31786 0.08812
 C719 C 0.21442 0.33226 0.07036
 C720 C 0.23796 0.32986 0.05946
 C721 C 0.23988 0.30469 0.05302
 C722 C 0.23640 0.29029 0.07078
 C723 C 0.25138 0.31878 0.09676
 C724 C 0.25486 0.33317 0.07900
 C725 C 0.22761 0.28700 0.11232
 C726 C 0.22453 0.27426 0.12801
 C727 C 0.24176 0.34526 0.04032
 C728 C 0.24495 0.35765 0.02439
 H729 H 0.19514 0.31744 0.09759
 H730 H 0.20161 0.34418 0.06461
 H731 H 0.24362 0.29869 0.03601
 H732 H 0.23716 0.27197 0.06898
 H733 H 0.26192 0.31897 0.11186
 H734 H 0.26838 0.34571 0.07889
 C735 C 0.73179 0.80283 0.59324
 C736 C 0.71142 0.81827 0.58823
 C737 C 0.71488 0.83266 0.57046
 C738 C 0.73837 0.83019 0.55949
 C739 C 0.74019 0.80501 0.55302
 C740 C 0.73673 0.79062 0.57078
 C741 C 0.75190 0.81905 0.59672
 C742 C 0.75536 0.83345 0.57895
 C743 C 0.72806 0.78735 0.61233
 C744 C 0.72498 0.77461 0.62801
 C745 C 0.74210 0.84555 0.54033
 C746 C 0.74520 0.85791 0.52438
 H747 H 0.69566 0.81791 0.59776
 H748 H 0.70210 0.84465 0.56478
 H749 H 0.74388 0.79902 0.53599
 H750 H 0.73745 0.77230 0.56897
 H751 H 0.76250 0.81920 0.61178
 H752 H 0.76892 0.84594 0.57879
 C753 C 0.76830 0.80284 0.40666
 C754 C 0.74757 0.81831 0.40362
 C755 C 0.74408 0.83270 0.42137
 C756 C 0.76166 0.83019 0.44041
 C757 C 0.78476 0.83342 0.42881
 C758 C 0.78826 0.81903 0.41105
 C759 C 0.76436 0.79063 0.42933
 C760 C 0.76087 0.80501 0.44708
 C761 C 0.77205 0.78737 0.38757
 C762 C 0.77514 0.77466 0.37187
 C763 C 0.75789 0.84555 0.45955
 C764 C 0.75475 0.85791 0.47550
 H765 H 0.73659 0.81797 0.38883
 H766 H 0.73011 0.84471 0.42181
 H767 H 0.79727 0.84588 0.43409
 H768 H 0.80377 0.81915 0.40112
 H769 H 0.76432 0.77230 0.43127
 H770 H 0.75783 0.79902 0.46423
 C771 C 0.26799 0.30254 -0.09344
 C772 C 0.26315 0.29029 -0.07096
 C773 C 0.25964 0.30465 -0.05318
 C774 C 0.26131 0.32985 -0.05963
 C775 C 0.24427 0.33299 -0.07906
 C776 C 0.24778 0.31862 -0.09685
 C777 C 0.28827 0.31813 -0.08843
 C778 C 0.28476 0.33249 -0.07066
 C779 C 0.27181 0.28711 -0.11259
 C780 C 0.27500 0.27445 -0.12834
 C781 C 0.25757 0.34523 -0.04045
 C782 C 0.25451 0.35763 -0.02450
 H783 H 0.26250 0.27196 -0.06917
 H784 H 0.25598 0.29863 -0.03616
 H785 H 0.23061 0.34535 -0.07885
 H786 H 0.23712 0.31867 -0.11187
 H787 H 0.30402 0.31788 -0.09799
 H788 H 0.29749 0.34455 -0.06498
 C789 C 0.73218 0.19749 -0.09327
 C790 C 0.73707 0.20976 -0.07081
 C791 C 0.74058 0.19541 -0.05302
 C792 C 0.73887 0.17021 -0.05944
 C793 C 0.75588 0.16703 -0.07890
 C794 C 0.75236 0.18138 -0.09669
 C795 C 0.71188 0.18193 -0.08822
 C796 C 0.71540 0.16759 -0.07043
 C797 C 0.72835 0.21289 -0.11243
 C798 C 0.72518 0.22553 -0.12820
 C799 C 0.74261 0.15485 -0.04025
 C800 C 0.74566 0.14246 -0.02429
 H801 H 0.73774 0.22809 -0.06905
 H802 H 0.74427 0.20146 -0.03601
 H803 H 0.76952 0.15465 -0.07870
 H804 H 0.76300 0.18129 -0.11174
 H805 H 0.69612 0.18219 -0.09775
 H806 H 0.70266 0.15555 -0.06472
 C807 C 0.23142 0.69742 0.40676
 C808 C 0.25237 0.68221 0.40390
 C809 C 0.25584 0.66780 0.42164
 C810 C 0.23802 0.67000 0.44050
 C811 C 0.21509 0.66654 0.42862
 C812 C 0.21162 0.68096 0.41087
 C813 C 0.23494 0.70958 0.42952
 C814 C 0.23840 0.69516 0.44726
 C815 C 0.22774 0.71294 0.38766
 C816 C 0.22475 0.72570 0.37196
 C817 C 0.24183 0.65458 0.45963
 C818 C 0.24505 0.64218 0.47555
 H819 H 0.26351 0.68272 0.38924
 H820 H 0.26994 0.65595 0.42217
 H821 H 0.20266 0.65391 0.43372
 H822 H 0.19622 0.68069 0.40076
 H823 H 0.23468 0.72790 0.43154
 H824 H 0.24111 0.70113 0.46448
 C825 C 0.26784 0.69737 0.59338
 C826 C 0.24693 0.68207 0.59624
 C827 C 0.24348 0.66766 0.57848
 C828 C 0.26130 0.66997 0.55961
 C829 C 0.28423 0.66659 0.57147
 C830 C 0.28767 0.68100 0.58923
 C831 C 0.26425 0.70954 0.57064
 C832 C 0.26081 0.69514 0.55288
 C833 C 0.27155 0.71290 0.61247
 C834 C 0.27461 0.72567 0.62816
 C835 C 0.25763 0.65456 0.54044
 C836 C 0.25461 0.64217 0.52447
 H837 H 0.23579 0.68253 0.61091
 H838 H 0.22940 0.65578 0.57792
 H839 H 0.29667 0.65400 0.56636
 H840 H 0.30308 0.68076 0.59933
 H841 H 0.26439 0.72786 0.56865
 H842 H 0.25798 0.70112 0.53569
 C843 C 0.76904 0.19741 0.09352
 C844 C 0.74846 0.18173 0.09668
 C845 C 0.74493 0.16738 0.07890
 C846 C 0.76232 0.17012 0.05971
 C847 C 0.78555 0.16707 0.07111
 C848 C 0.78908 0.18143 0.08889
 C849 C 0.76481 0.20967 0.07094
 C850 C 0.76128 0.19532 0.05316
 C851 C 0.77281 0.21285 0.11265
 C852 C 0.77588 0.22555 0.12838
 C853 C 0.75848 0.15476 0.04055
 C854 C 0.75525 0.14240 0.02460
 H855 H 0.73760 0.18191 0.11156
 H856 H 0.73105 0.15525 0.07855
 H857 H 0.79812 0.15476 0.06566
 H858 H 0.80468 0.18142 0.09869
 H859 H 0.76462 0.22800 0.06907
 H860 H 0.75808 0.20135 0.03605
 C861 C 0.48161 0.34302 0.55219
 C862 C 0.48567 0.32036 0.53999
 C863 C 0.48922 0.30259 0.55437
 C864 C 0.48836 0.30922 0.57956
 C865 C 0.46521 0.32073 0.58271
 C866 C 0.46166 0.33850 0.56833
 C867 C 0.50230 0.34614 0.56771
 C868 C 0.50585 0.32838 0.58209
 C869 C 0.47778 0.36216 0.53670
 C870 C 0.47469 0.37788 0.52395
 C871 C 0.49218 0.29007 0.59506
 C872 C 0.49534 0.27419 0.60758
 H873 H 0.48577 0.31844 0.52167
 H874 H 0.49236 0.28546 0.54836
 H875 H 0.45267 0.31536 0.59510
 H876 H 0.44609 0.34835 0.56841
 H877 H 0.51325 0.36097 0.56737
 H878 H 0.51985 0.32799 0.59406
 C879 C -0.01870 0.84347 0.05201
 C880 C -0.03792 0.83993 0.06924
 C881 C -0.03436 0.82211 0.08355
 C882 C -0.01192 0.80961 0.07922
 C883 C 0.00649 0.82800 0.08066
 C884 C 0.00292 0.84581 0.06635
 C885 C -0.01629 0.82060 0.03978
 C886 C -0.01272 0.80279 0.05409
 C887 C -0.02250 0.86261 0.03657
 C888 C -0.02554 0.87832 0.02383
 C889 C -0.00806 0.79041 0.09457
 C890 C -0.00485 0.77447 0.10695
 H891 H -0.05301 0.85046 0.07009
 H892 H -0.04640 0.81737 0.09666
 H893 H 0.02107 0.82709 0.09189
 H894 H 0.01443 0.86018 0.06533
 H895 H -0.01730 0.81857 0.02150
 H896 H -0.01066 0.78550 0.04806
 C897 C 0.01874 0.65652 0.05204
 C898 C 0.03846 0.66078 0.06852
 C899 C 0.03489 0.67861 0.08282
 C900 C 0.01196 0.69042 0.07923
 C901 C -0.00584 0.67151 0.08148
 C902 C -0.00227 0.65368 0.06719
 C903 C 0.01521 0.67921 0.03974
 C904 C 0.01164 0.69703 0.05403
 C905 C 0.02252 0.63736 0.03663
 C906 C 0.02554 0.62165 0.02390
 C907 C 0.00810 0.70963 0.09456
 C908 C 0.00491 0.72558 0.10695
 H909 H 0.05390 0.65072 0.06890
 H910 H 0.04726 0.68383 0.09544
 H911 H -0.02002 0.67209 0.09322
 H912 H -0.01338 0.63898 0.06669
 H913 H 0.01550 0.68111 0.02142
 H914 H 0.00885 0.71420 0.04795
 C915 C 0.51887 0.15647 0.55232
 C916 C 0.51482 0.17913 0.54012
 C917 C 0.51125 0.19689 0.55449
 C918 C 0.51208 0.19027 0.57968
 C919 C 0.53523 0.17876 0.58286
 C920 C 0.53880 0.16099 0.56848
 C921 C 0.49815 0.15335 0.56782
 C922 C 0.49458 0.17111 0.58219
 C923 C 0.52266 0.13734 0.53683
 C924 C 0.52567 0.12163 0.52407
 C925 C 0.50823 0.20942 0.59515
 C926 C 0.50503 0.22532 0.60764
 H927 H 0.51476 0.18104 0.52179
 H928 H 0.50813 0.21402 0.54847
 H929 H 0.54775 0.18413 0.59527
 H930 H 0.55436 0.15114 0.56858
 H931 H 0.48722 0.13851 0.56748
 H932 H 0.48057 0.17149 0.59415
 C933 C -0.01913 0.15669 0.44770
 C934 C -0.03903 0.16108 0.43147
 C935 C -0.03550 0.17889 0.41714
 C936 C -0.01243 0.19055 0.42045
 C937 C 0.00519 0.17153 0.41796
 C938 C 0.00166 0.15372 0.43229
 C939 C -0.01527 0.17934 0.45997
 C940 C -0.01174 0.19715 0.44564
 C941 C -0.02286 0.13754 0.46313
 C942 C -0.02583 0.12182 0.47586
 C943 C -0.00860 0.20974 0.40508
 C944 C -0.00541 0.22568 0.39268
 H945 H -0.05454 0.15112 0.43128
 H946 H -0.04798 0.18420 0.40467
 H947 H 0.01923 0.17202 0.40604
 H948 H 0.01266 0.13895 0.43263
 H949 H -0.01532 0.18124 0.47829
 H950 H -0.00875 0.21430 0.45170
 C951 C 0.48147 0.65666 0.94796
 C952 C 0.50227 0.65367 0.93256
 C953 C 0.50581 0.67146 0.91821
 C954 C 0.48820 0.69049 0.92066
 C955 C 0.48889 0.69712 0.94585
 C956 C 0.48534 0.67933 0.96020
 C957 C 0.46159 0.66105 0.93172
 C958 C 0.46513 0.67884 0.91736
 C959 C 0.47768 0.63750 0.96339
 C960 C 0.47465 0.62174 0.97608
 C961 C 0.49199 0.70967 0.90525
 C962 C 0.49512 0.72560 0.89282
 H963 H 0.51329 0.63891 0.93295
 H964 H 0.51987 0.67195 0.90631
 H965 H 0.49193 0.71427 0.95189
 H966 H 0.48534 0.68124 0.97853
 H967 H 0.44607 0.65109 0.93153
 H968 H 0.45265 0.68413 0.90489
 C969 C 0.51861 0.84343 0.94795
 C970 C 0.51486 0.82073 0.96018
 C971 C 0.51130 0.80294 0.94583
 C972 C 0.51182 0.80959 0.92065
 C973 C 0.53484 0.82132 0.91723
 C974 C 0.53841 0.83911 0.93158
 C975 C 0.49771 0.84636 0.93267
 C976 C 0.49414 0.82858 0.91832
 C977 C 0.52241 0.86258 0.96341
 C978 C 0.52545 0.87829 0.97616
 C979 C 0.50797 0.79042 0.90524
 C980 C 0.50478 0.77450 0.89281
 H981 H 0.51499 0.81880 0.97850
 H982 H 0.50837 0.78577 0.95187
 H983 H 0.54727 0.81607 0.90469
 H984 H 0.55389 0.84911 0.93132
 H985 H 0.48665 0.86109 0.93313
 H986 H 0.48003 0.82806 0.90649
 C987 C 0.01839 0.34354 0.44762
 C988 C 0.01446 0.32090 0.45991
 C989 C 0.01085 0.30310 0.44560
 C990 C 0.01152 0.30967 0.42040
 C991 C 0.03464 0.32124 0.41705
 C992 C 0.03825 0.33905 0.43136
 C993 C -0.00241 0.34656 0.43224
 C994 C -0.00602 0.32875 0.41793
 C995 C 0.02222 0.36269 0.46305
 C996 C 0.02524 0.37839 0.47580
 C997 C 0.00762 0.29048 0.40506
 C998 C 0.00439 0.27454 0.39267
 H999 H 0.01451 0.31903 0.47824
 H1000 H 0.00779 0.28596 0.45168
 H1001 H 0.04709 0.31587 0.40457
 H1002 H 0.05379 0.34896 0.43114
 H1003 H -0.01336 0.36137 0.43258
 H1004 H -0.02009 0.32829 0.40604
 C1005 C 0.34316 0.55087 0.48184
 C1006 C 0.33792 0.56612 0.46138
 C1007 C 0.32013 0.58047 0.46484
 C1008 C 0.30932 0.57817 0.48843
 C1009 C 0.32892 0.58162 0.50523
 C1010 C 0.34671 0.56727 0.50177
 C1011 C 0.32076 0.53862 0.48706
 C1012 C 0.30296 0.55297 0.49052
 C1013 C 0.36232 0.53545 0.47807
 C1014 C 0.37810 0.52283 0.47492
 C1015 C 0.29018 0.59360 0.49215
 C1016 C 0.27430 0.60608 0.49523
 H1017 H 0.34732 0.56565 0.44554
 H1018 H 0.31427 0.59228 0.45197
 H1019 H 0.32879 0.59418 0.51871
 H1020 H 0.36184 0.56754 0.51228
 H1021 H 0.31903 0.52029 0.48796
 H1022 H 0.28598 0.54693 0.49439
 C1023 C 0.84355 0.05136 -0.01802
 C1024 C 0.82085 0.03912 -0.01435
 C1025 C 0.80308 0.05349 -0.01088
 C1026 C 0.80979 0.07867 -0.01143
 C1027 C 0.82157 0.08205 -0.03441
 C1028 C 0.83934 0.06768 -0.03788
 C1029 C 0.84648 0.06668 0.00284
 C1030 C 0.82871 0.08105 0.00631
 C1031 C 0.86264 0.03593 -0.02179
 C1032 C 0.87836 0.02329 -0.02496
 C1033 C 0.79066 0.09406 -0.00770
 C1034 C 0.77475 0.10646 -0.00461
 H1035 H 0.81891 0.02079 -0.01445
 H1036 H 0.78590 0.04747 -0.00802
 H1037 H 0.81639 0.09459 -0.04687
 H1038 H 0.84939 0.06790 -0.05331
 H1039 H 0.86118 0.06624 0.01394
 H1040 H 0.82817 0.09294 0.02038
 C1041 C 0.65706 0.05115 0.01831
 C1042 C 0.65309 0.06827 -0.00092
 C1043 C 0.67090 0.08263 -0.00437
 C1044 C 0.69091 0.07847 0.01176
 C1045 C 0.69702 0.05333 0.00860
 C1046 C 0.67921 0.03896 0.01204
 C1047 C 0.66298 0.06564 0.03914
 C1048 C 0.68078 0.08000 0.03570
 C1049 C 0.63787 0.03574 0.02205
 C1050 C 0.62205 0.02316 0.02521
 C1051 C 0.71007 0.09390 0.00804
 C1052 C 0.72596 0.10637 0.00493
 H1053 H 0.63767 0.06902 -0.01098
 H1054 H 0.67075 0.09568 -0.01738
 H1055 H 0.71384 0.04734 0.00407
 H1056 H 0.68077 0.02067 0.01046
 H1057 H 0.65401 0.06466 0.05520
 H1058 H 0.68709 0.09131 0.04881
 C1059 C 0.15654 0.55116 0.51796
 C1060 C 0.15646 0.56246 0.49449
 C1061 C 0.17427 0.57682 0.49109
 C1062 C 0.19038 0.57846 0.51148
 C1063 C 0.19758 0.55391 0.51640
 C1064 C 0.17977 0.53954 0.51981
 C1065 C 0.15745 0.57087 0.53497
 C1066 C 0.17525 0.58524 0.53157
 C1067 C 0.13739 0.53575 0.52165
 C1068 C 0.12161 0.52316 0.52479
 C1069 C 0.20956 0.59383 0.50781
 C1070 C 0.22550 0.60622 0.50473
 H1071 H 0.14358 0.55942 0.48167
 H1072 H 0.17665 0.58610 0.47535
 H1073 H 0.21511 0.54829 0.51716
 H1074 H 0.18203 0.52163 0.52347
 H1075 H 0.14520 0.57331 0.54852
 H1076 H 0.17828 0.59998 0.54220
 C1077 C 0.15656 0.44868 -0.01811
 C1078 C 0.15318 0.43259 0.00209
 C1079 C 0.17097 0.41823 0.00553
 C1080 C 0.19036 0.42140 -0.01156
 C1081 C 0.19683 0.44660 -0.00990
 C1082 C 0.17905 0.46095 -0.01334
 C1083 C 0.16149 0.43314 -0.03842
 C1084 C 0.17927 0.41879 -0.03498
 C1085 C 0.13744 0.46408 -0.02185
 C1086 C 0.12169 0.47669 -0.02501
 C1087 C 0.20950 0.40603 -0.00786
 C1088 C 0.22542 0.39362 -0.00478
 H1089 H 0.13816 0.43251 0.01277
 H1090 H 0.17119 0.40583 0.01916
 H1091 H 0.21388 0.45263 -0.00634
 H1092 H 0.18085 0.47929 -0.01273
 H1093 H 0.15189 0.43343 -0.05414
 H1094 H 0.18491 0.40676 -0.04774
 C1095 C 0.65686 0.94895 0.48181
 C1096 C 0.66118 0.93273 0.46189
 C1097 C 0.67896 0.91838 0.46535
 C1098 C 0.69063 0.92167 0.48838
 C1099 C 0.67167 0.91917 0.50605
 C1100 C 0.65389 0.93353 0.50259
 C1101 C 0.67953 0.96121 0.48562
 C1102 C 0.69731 0.94686 0.48908
 C1103 C 0.63773 0.96432 0.47806
 C1104 C 0.62196 0.97689 0.47492
 C1105 C 0.70974 0.90628 0.49210
 C1106 C 0.72561 0.89383 0.49519
 H1107 H 0.65119 0.93257 0.44641
 H1108 H 0.68422 0.90592 0.45283
 H1109 H 0.67218 0.90723 0.52007
 H1110 H 0.63915 0.93389 0.51364
 H1111 H 0.68144 0.97955 0.48561
 H1112 H 0.71447 0.95289 0.49203
 C1113 C 0.84304 0.94904 0.51801
 C1114 C 0.84624 0.93324 0.49756
 C1115 C 0.82845 0.91887 0.49411
 C1116 C 0.80925 0.92175 0.51146
 C1117 C 0.80270 0.94694 0.51021
 C1118 C 0.82049 0.96130 0.51366
 C1119 C 0.83837 0.93321 0.53817
 C1120 C 0.82059 0.91885 0.53472
 C1121 C 0.86218 0.96441 0.52174
 C1122 C 0.87797 0.97698 0.52486
 C1123 C 0.79014 0.90634 0.50776
 C1124 C 0.77427 0.89388 0.50467
 H1125 H 0.86113 0.93336 0.48671
 H1126 H 0.82809 0.90668 0.48031
 H1127 H 0.78560 0.95295 0.50691
 H1128 H 0.81865 0.97964 0.51331
 H1129 H 0.84813 0.93333 0.55379
 H1130 H 0.81508 0.90665 0.54739
 C1131 C 0.34310 0.44888 0.01822
 C1132 C 0.34642 0.43286 -0.00205
 C1133 C 0.32862 0.41850 -0.00552
 C1134 C 0.30926 0.42157 0.01163
 C1135 C 0.30280 0.44676 0.01009
 C1136 C 0.32060 0.46113 0.01356
 C1137 C 0.33821 0.43324 0.03848
 C1138 C 0.32041 0.41887 0.03501
 C1139 C 0.36228 0.46429 0.02195
 C1140 C 0.37811 0.47686 0.02506
 C1141 C 0.29011 0.40614 0.00789
 C1142 C 0.27421 0.39368 0.00476
 H1143 H 0.36141 0.43283 -0.01276
 H1144 H 0.32836 0.40616 -0.01920
 H1145 H 0.28574 0.45279 0.00660
 H1146 H 0.31880 0.47946 0.01304
 H1147 H 0.34784 0.43346 0.05418
 H1148 H 0.31479 0.40679 0.04774
 C1149 C 0.55243 0.48150 0.34326
 C1150 C 0.54024 0.48528 0.32056
 C1151 C 0.55464 0.48877 0.30280
 C1152 C 0.57982 0.48814 0.30949
 C1153 C 0.58310 0.46510 0.32121
 C1154 C 0.56870 0.46161 0.33896
 C1155 C 0.56782 0.50232 0.34623
 C1156 C 0.58222 0.50582 0.32847
 C1157 C 0.53695 0.47774 0.36239
 C1158 C 0.52425 0.47464 0.37812
 C1159 C 0.59526 0.49190 0.29035
 C1160 C 0.60770 0.49502 0.27444
 H1161 H 0.52192 0.48522 0.31860
 H1162 H 0.54865 0.49171 0.28563
 H1163 H 0.59560 0.45262 0.31599
 H1164 H 0.56886 0.44613 0.34895
 H1165 H 0.56740 0.51339 0.36096
 H1166 H 0.59414 0.51987 0.32799
 C1167 C 0.05202 -0.01816 0.84297
 C1168 C 0.06757 -0.03847 0.83807
 C1169 C 0.08195 -0.03504 0.82029
 C1170 C 0.07938 -0.01164 0.80915
 C1171 C 0.08250 0.00550 0.82853
 C1172 C 0.06812 0.00206 0.84631
 C1173 C 0.03980 -0.01342 0.82046
 C1174 C 0.05418 -0.00999 0.80268
 C1175 C 0.03659 -0.02191 0.86213
 C1176 C 0.02396 -0.02503 0.87790
 C1177 C 0.09484 -0.00799 0.79000
 C1178 C 0.10734 -0.00500 0.77409
 H1179 H 0.06727 -0.05419 0.84768
 H1180 H 0.09398 -0.04781 0.81468
 H1181 H 0.09485 0.01918 0.82827
 H1182 H 0.06814 0.01280 0.86129
 H1183 H 0.02147 -0.01278 0.81866
 H1184 H 0.04817 -0.00639 0.78564
 C1185 C 0.05186 0.01828 0.65667
 C1186 C 0.06733 -0.00243 0.65354
 C1187 C 0.08175 -0.00598 0.67126
 C1188 C 0.07928 0.01154 0.69038
 C1189 C 0.05410 0.01071 0.69707
 C1190 C 0.03968 0.01426 0.67934
 C1191 C 0.06803 0.03823 0.66111
 C1192 C 0.08245 0.03469 0.67884
 C1193 C 0.03638 0.02212 0.63757
 C1194 C 0.02371 0.02528 0.62184
 C1195 C 0.09478 0.00769 0.70946
 C1196 C 0.10731 0.00450 0.72529
 H1197 H 0.06694 -0.01340 0.63873
 H1198 H 0.09371 -0.01998 0.67164
 H1199 H 0.04812 0.00764 0.71422
 H1200 H 0.02136 0.01420 0.68130
 H1201 H 0.06810 0.05380 0.65126
 H1202 H 0.09486 0.04723 0.68417
 C1203 C 0.55244 0.51823 0.15681
 C1204 C 0.56759 0.49723 0.15394
 C1205 C 0.58199 0.49372 0.17168
 C1206 C 0.57983 0.51154 0.19055
 C1207 C 0.55466 0.51120 0.19731
 C1208 C 0.54026 0.51472 0.17956
 C1209 C 0.56894 0.53798 0.16094
 C1210 C 0.58334 0.53447 0.17868
 C1211 C 0.53696 0.52202 0.13771
 C1212 C 0.52424 0.52516 0.12202
 C1213 C 0.59527 0.50774 0.20968
 C1214 C 0.60771 0.50460 0.22558
 H1215 H 0.56701 0.48608 0.13928
 H1216 H 0.59375 0.47955 0.17223
 H1217 H 0.54867 0.50844 0.21451
 H1218 H 0.52194 0.51497 0.18156
 H1219 H 0.56925 0.55340 0.15084
 H1220 H 0.59598 0.54687 0.18380
 C1221 C 0.44776 -0.01831 0.15697
 C1222 C 0.45994 -0.01427 0.17964
 C1223 C 0.44553 -0.01081 0.19739
 C1224 C 0.42035 -0.01173 0.19073
 C1225 C 0.41725 -0.03486 0.17915
 C1226 C 0.43166 -0.03832 0.16140
 C1227 C 0.43220 0.00235 0.15390
 C1228 C 0.41779 0.00581 0.17165
 C1229 C 0.46325 -0.02205 0.13784
 C1230 C 0.47595 -0.02516 0.12211
 C1231 C 0.40486 -0.00805 0.20987
 C1232 C 0.39236 -0.00501 0.22576
 H1233 H 0.47827 -0.01412 0.18157
 H1234 H 0.45152 -0.00769 0.21453
 H1235 H 0.40487 -0.04744 0.18446
 H1236 H 0.43162 -0.05386 0.15150
 H1237 H 0.43253 0.01334 0.13911
 H1238 H 0.40577 0.01977 0.17208
 C1239 C 0.94787 0.48183 0.65670
 C1240 C 0.93216 0.46162 0.66156
 C1241 C 0.91779 0.46512 0.67933
 C1242 C 0.92055 0.48850 0.69049
 C1243 C 0.91757 0.50567 0.67114
 C1244 C 0.93194 0.50216 0.65336
 C1245 C 0.96011 0.48646 0.67922
 C1246 C 0.94574 0.48997 0.69699
 C1247 C 0.96329 0.47803 0.63758
 C1248 C 0.97592 0.47487 0.62183
 C1249 C 0.90513 0.49226 0.70963
 C1250 C 0.89268 0.49537 0.72553
 H1251 H 0.93234 0.44591 0.65192
 H1252 H 0.90566 0.45241 0.68492
 H1253 H 0.90531 0.51941 0.67140
 H1254 H 0.93200 0.51291 0.63840
 H1255 H 0.97844 0.48696 0.68104
 H1256 H 0.95177 0.49346 0.71405
 C1257 C 0.94799 0.51824 0.84312
 C1258 C 0.93179 0.53817 0.83881
 C1259 C 0.91740 0.53471 0.82105
 C1260 C 0.92062 0.51166 0.80935
 C1261 C 0.91815 0.49399 0.82833
 C1262 C 0.93254 0.49745 0.84609
 C1263 C 0.96020 0.51440 0.82043
 C1264 C 0.94580 0.51095 0.80267
 C1265 C 0.96344 0.52199 0.86224
 C1266 C 0.97610 0.52511 0.87797
 C1267 C 0.90518 0.50795 0.79022
 C1268 C 0.89271 0.50488 0.77433
 H1269 H 0.93167 0.55365 0.84879
 H1270 H 0.90495 0.54724 0.81581
 H1271 H 0.90620 0.47996 0.82783
 H1272 H 0.93293 0.48638 0.86082
 H1273 H 0.97852 0.51439 0.81850
 H1274 H 0.95181 0.50797 0.78551
 C1275 C 0.44789 0.01812 0.34322
 C1276 C 0.43225 -0.00248 0.34639
 C1277 C 0.41781 -0.00597 0.32867
 C1278 C 0.42043 0.01148 0.30951
 C1279 C 0.44560 0.01047 0.30283
 C1280 C 0.46004 0.01396 0.32056
 C1281 C 0.43188 0.03816 0.33872
 C1282 C 0.41744 0.03467 0.32100
 C1283 C 0.46338 0.02189 0.36232
 C1284 C 0.47606 0.02501 0.37806
 C1285 C 0.40491 0.00769 0.29043
 C1286 C 0.39239 0.00452 0.27458
 H1287 H 0.43255 -0.01341 0.36122
 H1288 H 0.40573 -0.01989 0.32832
 H1289 H 0.45157 0.00731 0.28569
 H1290 H 0.47837 0.01378 0.31860
 H1291 H 0.43193 0.05376 0.34854
 H1292 H 0.40512 0.04728 0.31563
   
