data_POSCAR
  _audit_creation_date              2014-09-24
  _audit_creation_method            'ToBaCCo'
  _symmetry_space_group_name_H-M    'P1'
  _symmetry_Int_Tables_number       1
  _symmetry_cell_setting            triclinic
  loop_
  _symmetry_equiv_pos_as_xyz
 x,y,z
_cell_length_a 57.7161
_cell_length_b 54.7815
_cell_length_c 56.0629
_cell_angle_alpha 90.859700
_cell_angle_beta 91.307100
_cell_angle_gamma 90.311400
loop_
  _atom_site_label
  _atom_site_type_symbol
  _atom_site_fract_x
  _atom_site_fract_y
  _atom_site_fract_z
C1 C 0.72625 0.66920 0.97369
 H2 H 0.74201 0.66818 0.96364
 C3 C 0.70722 0.68215 0.96469
 H4 H 0.70848 0.69098 0.94762
 C5 C 0.70499 0.65749 1.00734
 H6 H 0.70388 0.64745 1.02368
 C7 C 0.68566 0.67029 0.99910
 H8 H 0.67013 0.67031 1.00957
 N9 N 0.72473 0.65699 0.99455
 C10 C 0.79282 0.64234 1.02597
 H11 H 0.79026 0.62315 1.02940
 C12 C 0.81330 0.65388 1.03352
 H13 H 0.82653 0.64335 1.04265
 C14 C 0.77874 0.67910 1.00937
 H15 H 0.76514 0.68880 1.00002
 C16 C 0.79914 0.69139 1.01652
 H17 H 0.80104 0.71061 1.01276
 Zn18 Zn 0.74949 0.63659 1.00451
 N19 N 0.77610 0.65494 1.01402
 C20 C 0.77924 0.61501 0.97110
 N21 N 0.75697 0.61567 0.97853
 C22 C 0.73989 0.60288 0.96668
 C23 C 0.74497 0.58875 0.94645
 C24 C 0.78509 0.60101 0.95121
 C25 C 0.73878 0.63125 1.05218
 C26 C 0.73177 0.61975 1.07284
 C27 C 0.72876 0.58186 1.05045
 C28 C 0.73597 0.59420 1.03022
 N29 N 0.74044 0.61853 1.03136
 H30 H 0.79252 0.62571 0.98027
 H31 H 0.72225 0.60400 0.97271
 H32 H 0.73119 0.57878 0.93712
 H33 H 0.80285 0.60117 0.94538
 H34 H 0.74246 0.65064 1.05259
 H35 H 0.72952 0.63141 1.08829
 H36 H 0.72624 0.56238 1.04854
 H37 H 0.73795 0.58427 1.01359
 C38 C 0.81671 0.67872 1.02882
 C39 C 0.68642 0.68245 0.97727
 C40 C 0.72622 0.59448 1.07255
 C41 C 0.76786 0.58773 0.93851
 C42 C 0.73102 0.34116 0.51918
 H43 H 0.74705 0.34163 0.52957
 C44 C 0.71205 0.32777 0.52713
 H45 H 0.71364 0.31805 0.54376
 C46 C 0.70909 0.35454 0.48567
 H47 H 0.70773 0.36538 0.46980
 C48 C 0.68980 0.34137 0.49289
 H49 H 0.67401 0.34187 0.48211
 N50 N 0.72918 0.35433 0.49885
 C51 C 0.79837 0.36927 0.47251
 H52 H 0.79679 0.38879 0.47040
 C53 C 0.81861 0.35751 0.46582
 H54 H 0.83246 0.36812 0.45831
 C55 C 0.78178 0.33178 0.48426
 H56 H 0.76731 0.32186 0.49135
 C57 C 0.80176 0.31921 0.47767
 H58 H 0.80259 0.29965 0.47999
 Zn59 Zn 0.75420 0.37479 0.49020
 N60 N 0.78059 0.35642 0.48181
 C61 C 0.78364 0.39605 0.52591
 N62 N 0.76165 0.39568 0.51664
 C63 C 0.74462 0.40917 0.52673
 C64 C 0.74953 0.42404 0.54675
 C65 C 0.78932 0.41073 0.54573
 C66 C 0.74292 0.38025 0.44215
 C67 C 0.73552 0.39189 0.42141
 C68 C 0.73423 0.42991 0.44372
 C69 C 0.74173 0.41751 0.46410
 N70 N 0.74542 0.39302 0.46304
 H71 H 0.79682 0.38470 0.51821
 H72 H 0.72717 0.40824 0.51929
 H73 H 0.73581 0.43473 0.55452
 H74 H 0.80687 0.41046 0.55298
 H75 H 0.74631 0.36085 0.44176
 H76 H 0.73350 0.38131 0.40503
 H77 H 0.73061 0.44925 0.44507
 H78 H 0.74417 0.42741 0.48078
 C79 C 0.82057 0.33216 0.46847
 C80 C 0.69096 0.32804 0.51408
 C81 C 0.73068 0.41698 0.42209
 C82 C 0.77219 0.42500 0.55643
 C83 C 0.22975 -0.16383 0.01335
 H84 H 0.24563 -0.16336 0.02399
 C85 C 0.21071 -0.17733 0.02094
 H86 H 0.21212 -0.18715 0.03751
 C87 C 0.20814 -0.14999 -0.02019
 H88 H 0.20690 -0.13884 -0.03586
 C89 C 0.18880 -0.16331 -0.01337
 H90 H 0.17309 -0.16262 -0.02426
 N91 N 0.22803 -0.15021 -0.00670
 C92 C 0.29674 -0.13151 -0.03197
 H93 H 0.29473 -0.11191 -0.03268
 C94 C 0.31702 -0.14227 -0.03995
 H95 H 0.33068 -0.13073 -0.04653
 C96 C 0.28127 -0.17018 -0.02227
 H97 H 0.26715 -0.18095 -0.01559
 C98 C 0.30137 -0.18175 -0.03007
 H99 H 0.30249 -0.20145 -0.02945
 Zn100 Zn 0.25257 -0.12852 -0.01379
 N101 N 0.27942 -0.14547 -0.02327
 C102 C 0.28118 -0.10911 0.02362
 N103 N 0.25928 -0.10958 0.01414
 C104 C 0.24164 -0.09794 0.02520
 C105 C 0.24577 -0.08502 0.04660
 C106 C 0.28609 -0.09633 0.04485
 C107 C 0.24165 -0.11948 -0.06134
 C108 C 0.23392 -0.10654 -0.08117
 C109 C 0.23064 -0.07069 -0.05598
 C110 C 0.23854 -0.08443 -0.03664
 N111 N 0.24334 -0.10850 -0.03954
 H112 H 0.29487 -0.11900 0.01502
 H113 H 0.22429 -0.09896 0.01752
 H114 H 0.23155 -0.07581 0.05514
 H115 H 0.30357 -0.09656 0.05228
 H116 H 0.24619 -0.13854 -0.06327
 H117 H 0.23389 -0.11626 -0.09806
 H118 H 0.22579 -0.05209 -0.05206
 H119 H 0.24026 -0.07592 -0.01918
 C120 C 0.31953 -0.16772 -0.03919
 C121 C 0.18970 -0.17675 0.00777
 C122 C 0.22756 -0.08163 -0.07898
 C123 C 0.26827 -0.08412 0.05668
 C124 C 0.22632 0.17130 0.47197
 H125 H 0.24171 0.16981 0.46140
 C126 C 0.20728 0.18457 0.46346
 H127 H 0.20821 0.19319 0.44625
 C128 C 0.20583 0.16021 0.50633
 H129 H 0.20497 0.15022 0.52272
 C130 C 0.18652 0.17337 0.49860
 H131 H 0.17128 0.17371 0.50950
 N132 N 0.22513 0.15913 0.49289
 C133 C 0.29426 0.14054 0.52007
 H134 H 0.29139 0.12126 0.52280
 C135 C 0.31565 0.15105 0.52624
 H136 H 0.32907 0.13976 0.53405
 C137 C 0.27995 0.17861 0.50688
 H138 H 0.26597 0.18921 0.49925
 C139 C 0.30114 0.18994 0.51291
 H140 H 0.30335 0.20925 0.50971
 Zn141 Zn 0.24933 0.13739 0.50147
 N142 N 0.27707 0.15425 0.51024
 C143 C 0.27638 0.11489 0.46600
 N144 N 0.25462 0.11682 0.47462
 C145 C 0.23629 0.10542 0.46345
 C146 C 0.23955 0.09127 0.44282
 C147 C 0.28043 0.10080 0.44564
 C148 C 0.23955 0.13086 0.54940
 C149 C 0.23148 0.11904 0.56947
 C150 C 0.22599 0.08235 0.54552
 C151 C 0.23422 0.09490 0.52585
 N152 N 0.24028 0.11888 0.52802
 H153 H 0.29067 0.12456 0.47462
 H154 H 0.21909 0.10759 0.47041
 H155 H 0.22480 0.08231 0.43411
 H156 H 0.29784 0.09983 0.43889
 H157 H 0.24474 0.14985 0.55068
 H158 H 0.23080 0.12903 0.58625
 H159 H 0.22040 0.06355 0.54325
 H160 H 0.23519 0.08561 0.50878
 C161 C 0.31943 0.17603 0.52247
 C162 C 0.18682 0.18526 0.47659
 C163 C 0.22412 0.09459 0.56760
 C164 C 0.26189 0.08881 0.43372
 C165 C 0.16930 0.47037 0.23087
 H166 H 0.16976 0.46237 0.24841
 C167 C 0.18075 0.45896 0.21208
 H168 H 0.19042 0.44243 0.21541
 C169 C 0.15533 0.50108 0.20503
 H170 H 0.14473 0.51696 0.20208
 C171 C 0.16652 0.49033 0.18579
 H172 H 0.16441 0.49822 0.16829
 N173 N 0.15675 0.49092 0.22701
 C174 C 0.14337 0.52557 0.29576
 H175 H 0.12496 0.52834 0.29301
 C176 C 0.15412 0.53309 0.31711
 H177 H 0.14392 0.54206 0.33061
 C178 C 0.17892 0.51058 0.28125
 H179 H 0.18842 0.50168 0.26722
 C180 C 0.19044 0.51790 0.30242
 H181 H 0.20881 0.51441 0.30461
 Zn182 Zn 0.13803 0.50302 0.25175
 N183 N 0.15570 0.51413 0.27857
 C184 C 0.12094 0.46861 0.28373
 N185 N 0.11877 0.47690 0.26104
 C186 C 0.10489 0.46522 0.24452
 C187 C 0.09255 0.44423 0.25062
 C188 C 0.10904 0.44776 0.29052
 C189 C 0.13324 0.55038 0.23614
 C190 C 0.12232 0.57108 0.22728
 C191 C 0.08567 0.54965 0.22857
 C192 C 0.09733 0.52929 0.23749
 N193 N 0.12076 0.52993 0.24069
 H194 H 0.13246 0.47763 0.29649
 H195 H 0.10390 0.47183 0.22644
 H196 H 0.08197 0.43480 0.23717
 H197 H 0.11111 0.44145 0.30865
 H198 H 0.15184 0.55038 0.23902
 H199 H 0.13272 0.58689 0.22310
 H200 H 0.06703 0.54886 0.22598
 H201 H 0.08770 0.51301 0.24167
 C202 C 0.17789 0.52896 0.32083
 C203 C 0.17912 0.46875 0.18908
 C204 C 0.09824 0.57083 0.22318
 C205 C 0.09490 0.43508 0.27381
 C206 C -0.16355 0.02109 0.23413
 H207 H -0.16232 0.03076 0.25108
 C208 C -0.17757 0.03017 0.21567
 H209 H -0.18648 0.04713 0.21900
 C210 C -0.15134 -0.01146 0.20936
 H211 H -0.14087 -0.02749 0.20674
 C212 C -0.16518 -0.00319 0.19050
 H213 H -0.16563 -0.01405 0.17424
 N214 N -0.15057 0.00082 0.23058
 C215 C -0.13057 -0.03102 0.29855
 H216 H -0.11208 -0.03204 0.29599
 C217 C -0.14008 -0.04028 0.31917
 H218 H -0.12873 -0.04822 0.33255
 C219 C -0.16767 -0.01896 0.28421
 H220 H -0.17831 -0.01080 0.27041
 C221 C -0.17796 -0.02802 0.30464
 H222 H -0.19657 -0.02691 0.30633
 Zn223 Zn -0.12916 -0.00863 0.25473
 N224 N -0.14434 -0.02045 0.28170
 C225 C -0.11022 0.02667 0.28680
 N226 N -0.11103 0.01908 0.26359
 C227 C -0.10014 0.03186 0.24644
 C228 C -0.08755 0.05304 0.25249
 C229 C -0.09776 0.04756 0.29362
 C230 C -0.12114 -0.05628 0.23982
 C231 C -0.10900 -0.07605 0.23057
 C232 C -0.07480 -0.05048 0.22929
 C233 C -0.08764 -0.03114 0.23862
 N234 N -0.11050 -0.03427 0.24321
 H235 H -0.11952 0.01680 0.30010
 H236 H -0.10142 0.02568 0.22804
 H237 H -0.07889 0.06297 0.23869
 H238 H -0.09762 0.05344 0.31216
 H239 H -0.13925 -0.05833 0.24400
 H240 H -0.11785 -0.09338 0.22789
 H241 H -0.05681 -0.04751 0.22504
 H242 H -0.07942 -0.01361 0.24181
 C243 C -0.16408 -0.03886 0.32243
 C244 C -0.17823 0.01841 0.19301
 C245 C -0.08560 -0.07321 0.22484
 C246 C -0.08622 0.06104 0.27640
 C247 C 0.34180 0.51372 0.73981
 H248 H 0.34133 0.52234 0.75728
 C249 C 0.32918 0.52361 0.72074
 H250 H 0.31864 0.53960 0.72378
 C251 C 0.35695 0.48307 0.71440
 H252 H 0.36845 0.46785 0.71172
 C253 C 0.34463 0.49231 0.69489
 H254 H 0.34682 0.48396 0.67747
 N255 N 0.35555 0.49399 0.73627
 C256 C 0.37328 0.46346 0.80564
 H257 H 0.39191 0.46309 0.80393
 C258 C 0.36321 0.45430 0.82603
 H259 H 0.37428 0.44714 0.84009
 C260 C 0.33639 0.47363 0.78934
 H261 H 0.32604 0.48093 0.77484
 C262 C 0.32555 0.46464 0.80950
 H263 H 0.30683 0.46499 0.81030
 Zn264 Zn 0.37593 0.48440 0.76126
 N265 N 0.35987 0.47302 0.78791
 C266 C 0.39262 0.52145 0.79273
 N267 N 0.39382 0.51225 0.77014
 C268 C 0.40569 0.52414 0.75309
 C269 C 0.41686 0.54632 0.75849
 C270 C 0.40344 0.54353 0.79887
 C271 C 0.38312 0.43689 0.74634
 C272 C 0.39470 0.41691 0.73679
 C273 C 0.42981 0.44116 0.73673
 C274 C 0.41750 0.46076 0.74637
 N275 N 0.39446 0.45841 0.75042
 H276 H 0.38266 0.51213 0.80591
 H277 H 0.40589 0.51673 0.73509
 H278 H 0.42575 0.55587 0.74458
 H279 H 0.40217 0.55058 0.81694
 H280 H 0.36485 0.43549 0.75003
 H281 H 0.38525 0.40002 0.73346
 H282 H 0.44794 0.44356 0.73277
 H283 H 0.42625 0.47793 0.75007
 C284 C 0.33904 0.45476 0.82816
 C285 C 0.33088 0.51314 0.69780
 C286 C 0.41824 0.41902 0.73140
 C287 C 0.41547 0.55645 0.78157
 C288 C 0.67640 0.96928 0.73035
 H289 H 0.67738 0.96126 0.74786
 C290 C 0.68803 0.95843 0.71137
 H291 H 0.69833 0.94230 0.71451
 C292 C 0.66093 0.99946 0.70477
 H293 H 0.64968 1.01487 0.70198
 C294 C 0.67228 0.98927 0.68536
 H295 H 0.66962 0.99711 0.66790
 N296 N 0.66299 0.98926 0.72668
 C297 C 0.64896 1.02183 0.79612
 H298 H 0.63035 1.02324 0.79387
 C299 C 0.65972 1.03001 0.81724
 H300 H 0.64891 1.03844 0.83049
 C301 C 0.68502 1.01032 0.78032
 H302 H 0.69473 1.00250 0.76586
 C303 C 0.69663 1.01849 0.80117
 H304 H 0.71519 1.01607 0.80237
 Zn305 Zn 0.64404 1.00038 0.75161
 N306 N 0.66156 1.01179 0.77841
 C307 C 0.62800 0.96466 0.78303
 N308 N 0.62555 0.97348 0.76056
 C309 C 0.61173 0.96196 0.74388
 C310 C 0.59958 0.94075 0.74963
 C311 C 0.61629 0.94356 0.78948
 C312 C 0.63783 1.04770 0.73638
 C313 C 0.62634 1.06803 0.72745
 C314 C 0.59030 1.04546 0.72868
 C315 C 0.60252 1.02550 0.73768
 N316 N 0.62593 1.02685 0.74089
 H317 H 0.63952 0.97356 0.79589
 H318 H 0.61055 0.96897 0.72596
 H319 H 0.58895 0.93156 0.73606
 H320 H 0.61848 0.93691 0.80748
 H321 H 0.65642 1.04828 0.73926
 H322 H 0.63630 1.08415 0.72325
 H323 H 0.57170 1.04408 0.72603
 H324 H 0.59333 1.00893 0.74183
 C325 C 0.68399 1.02821 0.82040
 C326 C 0.68570 0.96822 0.68841
 C327 C 0.60228 1.06701 0.72324
 C328 C 0.60204 0.93117 0.77264
 C329 C 0.01717 0.23645 -0.15240
 H330 H 0.02554 0.25416 -0.15244
 C331 C 0.02635 0.21704 -0.16553
 H332 H 0.04156 0.22013 -0.17605
 C333 C -0.01239 0.21078 -0.13796
 H334 H -0.02700 0.20814 -0.12657
 C335 C -0.00380 0.19090 -0.15081
 H336 H -0.01203 0.17322 -0.14916
 N337 N -0.00175 0.23296 -0.13882
 C338 C -0.02939 0.30490 -0.12156
 H339 H -0.02963 0.30317 -0.10237
 C340 C -0.03827 0.32579 -0.13220
 H341 H -0.04500 0.34024 -0.12099
 C342 C -0.02030 0.28795 -0.15932
 H343 H -0.01367 0.27292 -0.16979
 C344 C -0.02906 0.30860 -0.17075
 H345 H -0.02912 0.30927 -0.19005
 Zn346 Zn -0.01094 0.25864 -0.11816
 N347 N -0.02061 0.28654 -0.13512
 C348 C 0.02450 0.28918 -0.09874
 N349 N 0.01495 0.26647 -0.09809
 C350 C 0.02495 0.24849 -0.08497
 C351 C 0.04556 0.25300 -0.07201
 C352 C 0.04505 0.29445 -0.08611
 C353 C -0.05660 0.24496 -0.11333
 C354 C -0.07682 0.23788 -0.10219
 C355 C -0.05583 0.23901 -0.06445
 C356 C -0.03598 0.24615 -0.07646
 N357 N -0.03668 0.24863 -0.10050
 H358 H 0.01666 0.30310 -0.10965
 H359 H 0.01725 0.23044 -0.08517
 H360 H 0.05366 0.23831 -0.06223
 H361 H 0.05247 0.31260 -0.08704
 H362 H -0.05679 0.24777 -0.13240
 H363 H -0.09221 0.23646 -0.11343
 H364 H -0.05376 0.23612 -0.04553
 H365 H -0.01999 0.24951 -0.06653
 C366 C -0.03840 0.32778 -0.15713
 C367 C 0.01606 0.19377 -0.16453
 C368 C -0.07700 0.23434 -0.07718
 C369 C 0.05607 0.27614 -0.07286
 C370 C 0.46677 0.22480 0.16555
 H371 H 0.45842 0.24236 0.16400
 C372 C 0.45646 0.20634 0.17867
 H373 H 0.44038 0.21003 0.18759
 C374 C 0.49738 0.19841 0.15495
 H375 H 0.51286 0.19506 0.14500
 C376 C 0.48768 0.17946 0.16785
 H377 H 0.49593 0.16177 0.16766
 N378 N 0.48673 0.22047 0.15383
 C379 C 0.51670 0.29057 0.13482
 H380 H 0.51912 0.28665 0.11607
 C381 C 0.52438 0.31273 0.14467
 H382 H 0.53247 0.32592 0.13327
 C383 C 0.50297 0.27800 0.17224
 H384 H 0.49489 0.26424 0.18293
 C385 C 0.51039 0.30006 0.18288
 H386 H 0.50803 0.30308 0.20180
 Zn387 Zn 0.49742 0.24437 0.13260
 N388 N 0.50611 0.27380 0.14856
 C389 C 0.46484 0.27331 0.10752
 N390 N 0.47297 0.25027 0.11038
 C391 C 0.46272 0.23087 0.09885
 C392 C 0.44336 0.23428 0.08383
 C393 C 0.44577 0.27757 0.09250
 C394 C 0.54352 0.23040 0.13088
 C395 C 0.56429 0.22330 0.12070
 C396 C 0.54479 0.22210 0.08208
 C397 C 0.52435 0.22927 0.09303
 N398 N 0.52409 0.23312 0.11704
 H399 H 0.47274 0.28843 0.11728
 H400 H 0.46931 0.21268 0.10174
 H401 H 0.43521 0.21866 0.07496
 H402 H 0.43926 0.29599 0.09088
 H403 H 0.54284 0.23387 0.14990
 H404 H 0.57947 0.22091 0.13210
 H405 H 0.54480 0.21939 0.06291
 H406 H 0.50882 0.23203 0.08231
 C407 C 0.52137 0.31771 0.16903
 C408 C 0.46670 0.18314 0.17956
 C409 C 0.56514 0.21911 0.09597
 C410 C 0.43465 0.25790 0.08058
 C411 C 0.97072 0.72755 0.64565
 H412 H 0.96212 0.74494 0.64376
 C413 C 0.96023 0.70888 0.65835
 H414 H 0.94355 0.71211 0.66622
 C415 C 1.00209 0.70174 0.63612
 H416 H 1.01805 0.69873 0.62689
 C417 C 0.99225 0.68260 0.64865
 H418 H 1.00113 0.66527 0.64939
 N419 N 0.99116 0.72363 0.63467
 C420 C 1.02137 0.79453 0.61789
 H421 H 1.02443 0.79126 0.59915
 C422 C 1.02841 0.81653 0.62866
 H423 H 1.03713 0.83001 0.61809
 C424 C 1.00698 0.78039 0.65448
 H425 H 0.99877 0.76616 0.66447
 C426 C 1.01381 0.80218 0.66601
 H427 H 1.01049 0.80464 0.68482
 Zn428 Zn 1.00228 0.74795 0.61403
 N429 N 1.01068 0.77710 0.63077
 C430 C 0.97004 0.77721 0.58879
 N431 N 0.97811 0.75415 0.59164
 C432 C 0.96778 0.73476 0.58016
 C433 C 0.94826 0.73817 0.56539
 C434 C 0.95079 0.78147 0.57401
 C435 C 1.04832 0.73385 0.61257
 C436 C 1.06881 0.72548 0.60272
 C437 C 1.04950 0.72391 0.56402
 C438 C 1.02930 0.73231 0.57465
 N439 N 1.02902 0.73674 0.59859
 H440 H 0.97804 0.79231 0.59849
 H441 H 0.97435 0.71656 0.58305
 H442 H 0.93997 0.72254 0.55670
 H443 H 0.94422 0.79988 0.57253
 H444 H 1.04768 0.73792 0.63149
 H445 H 1.08398 0.72332 0.61420
 H446 H 1.04933 0.71993 0.54504
 H447 H 1.01386 0.73511 0.56381
 C448 C 1.02463 0.82065 0.65304
 C449 C 0.97082 0.68588 0.65962
 C450 C 1.06953 0.72016 0.57817
 C451 C 0.93946 0.76177 0.56234
 C452 C 0.51523 0.73391 0.34571
 H453 H 0.52325 0.75174 0.34459
 C454 C 0.52373 0.71436 0.33232
 H455 H 0.53804 0.71743 0.32056
 C456 C 0.48727 0.70822 0.36300
 H457 H 0.47357 0.70570 0.37555
 C458 C 0.49524 0.68814 0.34996
 H459 H 0.48749 0.67039 0.35265
 N460 N 0.49741 0.73052 0.36077
 C461 C 0.47111 0.80339 0.37657
 H462 H 0.47177 0.80267 0.39585
 C463 C 0.46252 0.82410 0.36533
 H464 H 0.45609 0.83863 0.37658
 C465 C 0.47733 0.78399 0.33933
 H466 H 0.48304 0.76824 0.32928
 C467 C 0.46874 0.80431 0.32726
 H468 H 0.46891 0.80381 0.30799
 Zn469 Zn 0.48945 0.75695 0.38108
 N470 N 0.47853 0.78400 0.36355
 C471 C 0.52600 0.78831 0.39702
 N472 N 0.51664 0.76560 0.39878
 C473 C 0.52733 0.74805 0.41188
 C474 C 0.54826 0.75310 0.42402
 C475 C 0.54690 0.79411 0.40879
 C476 C 0.44459 0.74219 0.39120
 C477 C 0.42596 0.73543 0.40512
 C478 C 0.45051 0.74077 0.44033
 C479 C 0.46868 0.74749 0.42570
 N480 N 0.46550 0.74773 0.40159
 H481 H 0.51758 0.80185 0.38611
 H482 H 0.51973 0.72999 0.41257
 H483 H 0.55676 0.73880 0.43400
 H484 H 0.55407 0.81231 0.40719
 H485 H 0.44248 0.74284 0.37199
 H486 H 0.40962 0.73049 0.39643
 H487 H 0.45332 0.74067 0.45949
 H488 H 0.48525 0.75259 0.43367
 C489 C 0.46116 0.82506 0.34016
 C490 C 0.51397 0.69099 0.33465
 C491 C 0.42882 0.73453 0.43004
 C492 C 0.55841 0.77634 0.42233
 C493 C 0.35062 0.00153 0.25058
 C494 C 0.12002 1.01024 0.74648
 C495 C 0.62090 0.50937 0.24774
 C496 C 0.85870 0.50939 0.74948
 C497 C 0.25037 0.35203 0.00674
 C498 C 0.75037 0.13189 1.01190
 C499 C 0.25809 0.62436 0.51325
 C500 C 0.75162 0.85600 0.50146
 C501 C 0.00166 0.25298 0.37050
 C502 C 1.01044 0.75178 0.11417
 C503 C 0.51148 0.24642 0.61410
 C504 C 0.50360 0.75159 0.86820
 C505 C 0.43213 -0.11281 0.30616
 C506 C 0.43214 -0.13540 0.29426
 C507 C 0.44208 -0.15577 0.30516
 C508 C 0.45211 -0.15403 0.32842
 C509 C 0.45238 -0.13078 0.33983
 C510 C 0.44247 -0.11052 0.32883
 C511 C 0.42042 -0.09227 0.29575
 C512 C 0.40999 -0.07516 0.28764
 C513 C 0.39671 -0.05497 0.27864
 C514 C 0.39548 -0.05039 0.25419
 C515 C 0.38116 -0.03187 0.24550
 C516 C 0.36697 -0.01821 0.26097
 C517 C 0.37008 -0.02176 0.28578
 C518 C 0.38442 -0.04024 0.29442
 H519 H 0.42396 -0.13744 0.27675
 H520 H 0.44062 -0.17302 0.29562
 H521 H 0.46072 -0.12778 0.35709
 H522 H 0.44271 -0.09304 0.33815
 H523 H 0.40534 -0.06132 0.24181
 H524 H 0.38055 -0.02868 0.22648
 H525 H 0.36157 -0.01033 0.29874
 H526 H 0.38580 -0.04314 0.31348
 C527 C 0.93124 0.39090 0.81009
 C528 C 0.95157 0.38090 0.80100
 C529 C 0.96147 0.36028 0.81153
 C530 C 0.95114 0.34946 0.83131
 C531 C 0.93064 0.35962 0.84016
 C532 C 0.92080 0.38016 0.82963
 C533 C 0.92064 0.41187 0.79927
 C534 C 0.91097 0.42917 0.79056
 C535 C 0.89848 0.44934 0.78041
 C536 C 0.90968 0.47147 0.77602
 C537 C 0.89729 0.49095 0.76620
 C538 C 0.87350 0.48840 0.75993
 C539 C 0.86236 0.46628 0.76572
 C540 C 0.87475 0.44692 0.77549
 H541 H 0.95976 0.38904 0.78583
 H542 H 0.97734 0.35301 0.80444
 H543 H 0.92202 0.35149 0.85507
 H544 H 0.90497 0.38761 0.83669
 H545 H 0.92795 0.47376 0.78041
 H546 H 0.90642 0.50801 0.76402
 H547 H 0.84393 0.46393 0.76231
 H548 H 0.86577 0.43005 0.77929
 C549 C 0.04710 1.13041 0.80340
 C550 C 0.02299 1.13307 0.80264
 C551 C 0.01285 1.15388 0.81266
 C552 C 0.02673 1.17230 0.82355
 C553 C 0.05096 1.16954 0.82394
 C554 C 0.06104 1.14876 0.81393
 C555 C 0.05774 1.10885 0.79363
 C556 C 0.06741 1.09116 0.78565
 C557 C 0.07998 1.07066 0.77622
 C558 C 0.06881 1.04843 0.77096
 C559 C 0.08127 1.02877 0.76156
 C560 C 0.10509 1.03124 0.75662
 C561 C 0.11618 1.05346 0.76330
 C562 C 0.10373 1.07299 0.77264
 H563 H 0.01204 1.11902 0.79445
 H564 H -0.00583 1.15557 0.81187
 H565 H 0.06212 1.18315 0.83253
 H566 H 0.07972 1.14687 0.81466
 H567 H 0.05051 1.04623 0.77428
 H568 H 0.07216 1.01167 0.75863
 H569 H 0.13462 1.05580 0.76086
 H570 H 0.11269 1.08995 0.77707
 C571 C 0.54387 0.62765 0.30136
 C572 C 0.51975 0.62975 0.30249
 C573 C 0.50993 0.65053 0.31293
 C574 C 0.52414 0.66946 0.32236
 C575 C 0.54835 0.66725 0.32085
 C576 C 0.55810 0.64651 0.31043
 C577 C 0.55425 0.60599 0.29154
 C578 C 0.56377 0.58811 0.28377
 C579 C 0.57615 0.56720 0.27500
 C580 C 0.57737 0.56250 0.25050
 C581 C 0.59119 0.54350 0.24205
 C582 C 0.60490 0.52946 0.25788
 C583 C 0.60175 0.53313 0.28262
 C584 C 0.58789 0.55209 0.29103
 H585 H 0.50856 0.61527 0.29550
 H586 H 0.49124 0.65178 0.31361
 H587 H 0.55980 0.68125 0.32831
 H588 H 0.57679 0.64503 0.30976
 H589 H 0.56797 0.57376 0.23789
 H590 H 0.59188 0.54029 0.22297
 H591 H 0.60989 0.52148 0.29570
 H592 H 0.58655 0.55513 0.31009
 C593 C 0.54623 0.38614 0.19848
 C594 C 0.52498 0.37665 0.20570
 C595 C 0.51693 0.35419 0.19641
 C596 C 0.53006 0.34106 0.17975
 C597 C 0.55152 0.35067 0.17291
 C598 C 0.55950 0.37303 0.18219
 C599 C 0.55483 0.40922 0.20768
 C600 C 0.56319 0.42827 0.21479
 C601 C 0.57464 0.45044 0.22273
 C602 C 0.57716 0.45592 0.24706
 C603 C 0.59109 0.47556 0.25477
 C604 C 0.60368 0.48946 0.23834
 C605 C 0.59889 0.48523 0.21377
 C606 C 0.58491 0.46561 0.20610
 H607 H 0.51458 0.38663 0.21835
 H608 H 0.50027 0.34733 0.20187
 H609 H 0.56222 0.34083 0.16045
 H610 H 0.57606 0.38011 0.17662
 H611 H 0.56894 0.44457 0.26013
 H612 H 0.59310 0.47915 0.27376
 H613 H 0.60612 0.49672 0.20029
 H614 H 0.58256 0.46192 0.18715
 C615 C 0.04971 0.88749 0.68593
 C616 C 0.03887 0.88784 0.66336
 C617 C 0.03027 0.86620 0.65288
 C618 C 0.03246 0.84386 0.66481
 C619 C 0.04297 0.84379 0.68770
 C620 C 0.05156 0.86545 0.69814
 C621 C 0.05994 0.90943 0.69612
 C622 C 0.06922 0.92736 0.70479
 C623 C 0.08123 0.94804 0.71549
 C624 C 0.07536 0.97191 0.70934
 C625 C 0.08765 0.99172 0.71953
 C626 C 0.10563 0.98814 0.73667
 C627 C 0.11189 0.96376 0.74171
 C628 C 0.09960 0.94407 0.73154
 H629 H 0.03733 0.90478 0.65373
 H630 H 0.02198 0.86693 0.63538
 H631 H 0.04519 0.82689 0.69723
 H632 H 0.06005 0.86494 0.71557
 H633 H 0.06150 0.97521 0.69646
 H634 H 0.08313 1.00998 0.71402
 H635 H 0.12670 0.95955 0.75301
 H636 H 0.10476 0.92565 0.73591
 C637 C 0.93544 0.62580 0.69181
 C638 C 0.93498 0.64905 0.70252
 C639 C 0.94669 0.66857 0.69226
 C640 C 0.95904 0.66507 0.67114
 C641 C 0.95952 0.64157 0.66064
 C642 C 0.94781 0.62211 0.67091
 C643 C 0.92286 0.60584 0.70195
 C644 C 0.91213 0.58916 0.71028
 C645 C 0.89906 0.56944 0.72021
 C646 C 0.88085 0.57453 0.73546
 C647 C 0.86794 0.55554 0.74502
 C648 C 0.87342 0.53083 0.74015
 C649 C 0.89115 0.52615 0.72372
 C650 C 0.90404 0.54521 0.71417
 H651 H 0.92547 0.65212 0.71872
 H652 H 0.94616 0.68636 0.70090
 H653 H 0.96852 0.63833 0.64416
 H654 H 0.94819 0.60423 0.66239
 H655 H 0.87640 0.59326 0.73973
 H656 H 0.85338 0.56049 0.75582
 H657 H 0.89510 0.50759 0.71836
 H658 H 0.91778 0.54103 0.70193
 C659 C 0.43242 0.12110 0.20930
 C660 C 0.41959 0.13888 0.19727
 C661 C 0.43065 0.15937 0.18819
 C662 C 0.45480 0.16239 0.19100
 C663 C 0.46751 0.14465 0.20357
 C664 C 0.45638 0.12413 0.21265
 C665 C 0.42096 0.09942 0.21736
 C666 C 0.41070 0.08142 0.22347
 C667 C 0.39759 0.06026 0.23014
 C668 C 0.39424 0.05518 0.25417
 C669 C 0.37978 0.03588 0.26046
 C670 C 0.36754 0.02188 0.24285
 C671 C 0.37287 0.02594 0.21872
 C672 C 0.38736 0.04521 0.21247
 H673 H 0.40105 0.13666 0.19449
 H674 H 0.42040 0.17242 0.17827
 H675 H 0.48608 0.14657 0.20623
 H676 H 0.46649 0.11050 0.22197
 H677 H 0.40248 0.06638 0.26805
 H678 H 0.37741 0.03242 0.27921
 H679 H 0.36593 0.01437 0.20447
 H680 H 0.39038 0.04854 0.19379
 C681 C 0.30816 0.42566 -0.10921
 C682 C 0.29942 0.44708 -0.11923
 C683 C 0.30932 0.45654 -0.13972
 C684 C 0.32811 0.44466 -0.15037
 C685 C 0.33664 0.42309 -0.14019
 C686 C 0.32673 0.41368 -0.11977
 C687 C 0.29785 0.41540 -0.08848
 C688 C 0.28950 0.40582 -0.07146
 C689 C 0.27970 0.39312 -0.05178
 C690 C 0.27717 0.40469 -0.02959
 C691 C 0.26780 0.39192 -0.01059
 C692 C 0.26018 0.36747 -0.01367
 C693 C 0.26400 0.35589 -0.03594
 C694 C 0.27331 0.36865 -0.05481
 H695 H 0.28498 0.45644 -0.11123
 H696 H 0.30253 0.47331 -0.14702
 H697 H 0.35082 0.41330 -0.14819
 H698 H 0.33349 0.39697 -0.11228
 H699 H 0.28269 0.42348 -0.02689
 H700 H 0.26707 0.40120 0.00652
 H701 H 0.25949 0.33683 -0.03875
 H702 H 0.27565 0.35934 -0.07176
 C703 C 0.80671 0.93208 0.38587
 C704 C 0.79844 0.95410 0.37673
 C705 C 0.80781 0.96357 0.35599
 C706 C 0.82557 0.95108 0.34420
 C707 C 0.83365 0.92892 0.35352
 C708 C 0.82428 0.91952 0.37420
 C709 C 0.79683 0.92172 0.40675
 C710 C 0.78878 0.91191 0.42378
 C711 C 0.77930 0.89878 0.44332
 C712 C 0.77835 0.90934 0.46614
 C713 C 0.76944 0.89602 0.48502
 C714 C 0.76069 0.87207 0.48119
 C715 C 0.76290 0.86148 0.45821
 C716 C 0.77175 0.87478 0.43948
 H717 H 0.78476 0.96391 0.38561
 H718 H 0.80141 0.98079 0.34936
 H719 H 0.84703 0.91868 0.34464
 H720 H 0.83064 0.90233 0.38100
 H721 H 0.78480 0.92772 0.46943
 H722 H 0.76995 0.90441 0.50259
 H723 H 0.75758 0.84275 0.45474
 H724 H 0.77290 0.86622 0.42200
 C725 C 0.78738 0.05108 1.13372
 C726 C 0.80508 0.03429 1.13011
 C727 C 0.81596 0.02310 1.14951
 C728 C 0.80944 0.02850 1.17321
 C729 C 0.79096 0.04506 1.17639
 C730 C 0.78014 0.05624 1.15685
 C731 C 0.77816 0.06433 1.11373
 C732 C 0.77177 0.07580 1.09665
 C733 C 0.76575 0.08999 1.07608
 C734 C 0.77894 0.11065 1.07112
 C735 C 0.77420 0.12406 1.05065
 C736 C 0.75656 0.11661 1.03413
 C737 C 0.74248 0.09656 1.04027
 C738 C 0.74730 0.08311 1.06080
 H739 H 0.81105 0.03042 1.11227
 H740 H 0.83045 0.01142 1.14559
 H741 H 0.78439 0.04928 1.19387
 H742 H 0.76636 0.06922 1.15983
 H743 H 0.79293 0.11648 1.08314
 H744 H 0.78429 0.14045 1.04812
 H745 H 0.72783 0.09114 1.02897
 H746 H 0.73668 0.06737 1.06472
 C747 C 0.30319 0.54717 0.63488
 C748 C 0.30195 0.52178 0.63702
 C749 C 0.31030 0.51069 0.65780
 C750 C 0.32001 0.52489 0.67668
 C751 C 0.32068 0.55043 0.67452
 C752 C 0.31233 0.56147 0.65376
 C753 C 0.29562 0.55869 0.61321
 C754 C 0.28954 0.56904 0.59533
 C755 C 0.28235 0.58233 0.57455
 C756 C 0.27957 0.57056 0.55235
 C757 C 0.27213 0.58367 0.53237
 C758 C 0.26667 0.60874 0.53444
 C759 C 0.27094 0.62047 0.55676
 C760 C 0.27836 0.60736 0.57660
 H761 H 0.29481 0.51056 0.62254
 H762 H 0.30934 0.49101 0.65903
 H763 H 0.32839 0.56185 0.68853
 H764 H 0.31340 0.58114 0.65226
 H765 H 0.28326 0.55127 0.55044
 H766 H 0.27101 0.57406 0.51542
 H767 H 0.26798 0.63988 0.55890
 H768 H 0.28090 0.61678 0.59361
 C769 C 0.20920 0.55229 0.38763
 C770 C 0.18770 0.54039 0.38715
 C771 C 0.17779 0.53232 0.36547
 C772 C 0.18925 0.53611 0.34392
 C773 C 0.21115 0.54750 0.34462
 C774 C 0.22102 0.55561 0.36637
 C775 C 0.21843 0.56236 0.40972
 C776 C 0.22588 0.57160 0.42798
 C777 C 0.23471 0.58368 0.44928
 C778 C 0.22679 0.57726 0.47173
 C779 C 0.23468 0.59006 0.49215
 C780 C 0.25115 0.60914 0.49064
 C781 C 0.25818 0.61585 0.46759
 C782 C 0.25032 0.60302 0.44729
 H783 H 0.17840 0.53774 0.40349
 H784 H 0.16108 0.52324 0.36552
 H785 H 0.22028 0.55084 0.32832
 H786 H 0.23763 0.56494 0.36654
 H787 H 0.21422 0.56267 0.47342
 H788 H 0.22778 0.58517 0.50924
 H789 H 0.26919 0.63152 0.46482
 H790 H 0.25601 0.60863 0.42991
 C791 C 0.71581 0.05448 0.88501
 C792 C 0.72861 0.05334 0.86416
 C793 C 0.71845 0.04409 0.84294
 C794 C 0.69506 0.03612 0.84212
 C795 C 0.68277 0.03673 0.86368
 C796 C 0.69303 0.04584 0.88477
 C797 C 0.72514 0.06609 0.90634
 C798 C 0.73160 0.07660 0.92434
 C799 C 0.73775 0.09013 0.94576
 C800 C 0.73180 0.11473 0.94750
 C801 C 0.73607 0.12777 0.96869
 C802 C 0.74577 0.11633 0.98899
 C803 C 0.75301 0.09182 0.98642
 C804 C 0.74866 0.07876 0.96512
 H805 H 0.74625 0.06022 0.86412
 H806 H 0.72869 0.04463 0.82705
 H807 H 0.66529 0.02971 0.86468
 H808 H 0.68301 0.04647 0.90087
 H809 H 0.72361 0.12383 0.93252
 H810 H 0.73135 0.14687 0.96944
 H811 H 0.76225 0.08265 1.00064
 H812 H 0.75375 0.05979 0.96378
 C813 C 0.71102 0.93195 0.62586
 C814 C 0.70208 0.91832 0.64448
 C815 C 0.69448 0.93007 0.66513
 C816 C 0.69570 0.95566 0.66741
 C817 C 0.70517 0.96917 0.64879
 C818 C 0.71278 0.95736 0.62814
 C819 C 0.71793 0.91980 0.60427
 C820 C 0.72358 0.90926 0.58633
 C821 C 0.73043 0.89615 0.56525
 C822 C 0.74309 0.87464 0.56751
 C823 C 0.74990 0.86175 0.54723
 C824 C 0.74491 0.87057 0.52409
 C825 C 0.73085 0.89153 0.52221
 C826 C 0.72404 0.90442 0.54258
 H827 H 0.70062 0.89863 0.64286
 H828 H 0.68694 0.91919 0.67896
 H829 H 0.70655 0.98886 0.65013
 H830 H 0.71977 0.96807 0.61386
 H831 H 0.74751 0.86767 0.58501
 H832 H 0.75885 0.84468 0.54987
 H833 H 0.72528 0.89805 0.50489
 H834 H 0.71370 0.92074 0.54063
 C835 C 0.20511 0.43138 0.12737
 C836 C 0.20737 0.45677 0.12955
 C837 C 0.19943 0.46892 0.14987
 C838 C 0.18912 0.45580 0.16829
 C839 C 0.18729 0.43024 0.16608
 C840 C 0.19524 0.41814 0.14575
 C841 C 0.21272 0.41884 0.10625
 C842 C 0.21905 0.40789 0.08878
 C843 C 0.22680 0.39423 0.06839
 C844 C 0.22052 0.40119 0.04525
 C845 C 0.22814 0.38766 0.02559
 C846 C 0.24289 0.36737 0.02864
 C847 C 0.24787 0.35991 0.05227
 C848 C 0.24024 0.37343 0.07182
 H849 H 0.21510 0.46718 0.11547
 H850 H 0.20129 0.48858 0.15116
 H851 H 0.17912 0.41965 0.17974
 H852 H 0.19340 0.39848 0.14423
 H853 H 0.20961 0.41695 0.04239
 H854 H 0.22265 0.39316 0.00789
 H855 H 0.25736 0.34337 0.05590
 H856 H 0.24463 0.36745 0.08970
 C857 C -0.11737 0.29765 0.44412
 C858 C -0.13895 0.28638 0.43987
 C859 C -0.15913 0.29718 0.44841
 C860 C -0.15797 0.31948 0.46117
 C861 C -0.13612 0.33026 0.46593
 C862 C -0.11600 0.31943 0.45743
 C863 C -0.09687 0.28798 0.43335
 C864 C -0.07977 0.28075 0.42355
 C865 C -0.05959 0.27311 0.41085
 C866 C -0.04076 0.26240 0.42276
 C867 C -0.02095 0.25583 0.41023
 C868 C -0.01936 0.26054 0.38557
 C869 C -0.03907 0.27027 0.37377
 C870 C -0.05876 0.27677 0.38629
 H871 H -0.14024 0.26961 0.42942
 H872 H -0.17570 0.28857 0.44427
 H873 H -0.13463 0.34724 0.47600
 H874 H -0.09941 0.32835 0.46078
 H875 H -0.04142 0.25900 0.44172
 H876 H -0.00721 0.24671 0.41993
 H877 H -0.03907 0.27312 0.35470
 H878 H -0.07335 0.28472 0.37678
 C879 C 0.38204 0.79982 0.93493
 C880 C 0.37191 0.79081 0.95552
 C881 C 0.35140 0.80112 0.96387
 C882 C 0.34086 0.82062 0.95175
 C883 C 0.35108 0.82929 0.93094
 C884 C 0.37150 0.81898 0.92264
 C885 C 0.40321 0.78966 0.92609
 C886 C 0.42080 0.78203 0.91755
 C887 C 0.44143 0.77391 0.90591
 C888 C 0.45968 0.76317 0.91875
 C889 C 0.47982 0.75597 0.90709
 C890 C 0.48231 0.76005 0.88242
 C891 C 0.46319 0.76991 0.86972
 C892 C 0.44320 0.77704 0.88136
 H893 H 0.37992 0.77596 0.96516
 H894 H 0.34404 0.79418 0.98004
 H895 H 0.34320 0.84397 0.92096
 H896 H 0.37909 0.82599 0.90661
 H897 H 0.45829 0.76020 0.93772
 H898 H 0.49308 0.74683 0.91745
 H899 H 0.46389 0.77231 0.85061
 H900 H 0.42907 0.78502 0.87114
 C901 C 1.12823 0.79113 0.03637
 C902 C 1.12702 0.81329 0.02437
 C903 C 1.14691 0.82341 0.01469
 C904 C 1.16840 0.81150 0.01684
 C905 C 1.16938 0.78897 0.02858
 C906 C 1.14941 0.77888 0.03831
 C907 C 1.10801 0.78212 0.04808
 C908 C 1.09098 0.77584 0.05849
 C909 C 1.07072 0.76985 0.07181
 C910 C 1.06509 0.78443 0.09144
 C911 C 1.04564 0.77907 0.10473
 C912 C 1.03077 0.75931 0.09827
 C913 C 1.03731 0.74416 0.07894
 C914 C 1.05687 0.74960 0.06563
 H915 H 1.11080 0.82308 0.02299
 H916 H 1.14557 0.84099 0.00622
 H917 H 1.18559 0.77924 0.03037
 H918 H 1.15057 0.76177 0.04769
 H919 H 1.07600 0.79983 0.09674
 H920 H 1.04276 0.79018 0.12046
 H921 H 1.02728 0.72796 0.07425
 H922 H 1.06131 0.73787 0.05071
 C923 C 0.63008 0.29348 0.54147
 C924 C 0.65161 0.28193 0.54354
 C925 C 0.67142 0.29293 0.53438
 C926 C 0.66993 0.31567 0.52307
 C927 C 0.64813 0.32695 0.52091
 C928 C 0.62841 0.31593 0.53003
 C929 C 0.60987 0.28327 0.55231
 C930 C 0.59279 0.27589 0.56197
 C931 C 0.57238 0.26853 0.57440
 C932 C 0.55958 0.24783 0.56725
 C933 C 0.53984 0.24107 0.57974
 C934 C 0.53207 0.25533 0.59918
 C935 C 0.54592 0.27557 0.60664
 C936 C 0.56554 0.28224 0.59418
 H937 H 0.65314 0.26460 0.55248
 H938 H 0.68788 0.28367 0.53614
 H939 H 0.64640 0.34464 0.51274
 H940 H 0.61190 0.32518 0.52857
 H941 H 0.56497 0.23677 0.55221
 H942 H 0.53063 0.22457 0.57429
 H943 H 0.54213 0.28607 0.62253
 H944 H 0.57562 0.29798 0.60024
 C945 C 0.38574 0.20667 0.54338
 C946 C 0.38441 0.18419 0.53123
 C947 C 0.36289 0.17457 0.52389
 C948 C 0.34232 0.18726 0.52867
 C949 C 0.34386 0.21020 0.54025
 C950 C 0.36544 0.21978 0.54763
 C951 C 0.40770 0.21515 0.55315
 C952 C 0.42598 0.22136 0.56226
 C953 C 0.44746 0.22776 0.57445
 C954 C 0.46508 0.24027 0.56288
 C955 C 0.48588 0.24615 0.57512
 C956 C 0.48967 0.23902 0.59904
 C957 C 0.47123 0.22724 0.61052
 C958 C 0.45059 0.22142 0.59831
 H959 H 0.39997 0.17383 0.52791
 H960 H 0.36231 0.15705 0.51468
 H961 H 0.32834 0.22030 0.54435
 H962 H 0.36624 0.23710 0.55721
 H963 H 0.46265 0.24572 0.54450
 H964 H 0.49860 0.25678 0.56589
 H965 H 0.47288 0.22247 0.62915
 H966 H 0.43696 0.21206 0.60759
 C967 C 0.88163 0.71144 0.05115
 C968 C 0.86967 0.69617 0.06648
 C969 C 0.84834 0.68605 0.05940
 C970 C 0.83857 0.69103 0.03679
 C971 C 0.85038 0.70690 0.02166
 C972 C 0.87186 0.71700 0.02879
 C973 C 0.90413 0.72059 0.05856
 C974 C 0.92287 0.72712 0.06626
 C975 C 0.94483 0.73360 0.07737
 C976 C 0.94866 0.72788 0.10129
 C977 C 0.96978 0.73355 0.11258
 C978 C 0.98799 0.74456 0.10009
 C979 C 0.98351 0.75114 0.07612
 C980 C 0.96221 0.74538 0.06480
 H981 H 0.87701 0.69183 0.08386
 H982 H 0.83950 0.67421 0.07157
 H983 H 0.84335 0.71090 0.00409
 H984 H 0.88098 0.72879 0.01678
 H985 H 0.93523 0.71907 0.11133
 H986 H 0.97198 0.72924 0.13128
 H987 H 0.99611 0.76119 0.06616
 H988 H 0.95924 0.75034 0.04635
 C989 C 0.62491 0.71431 0.94632
 C990 C 0.62353 0.69264 0.95908
 C991 C 0.64346 0.68254 0.96936
 C992 C 0.66519 0.69399 0.96709
 C993 C 0.66639 0.71597 0.95446
 C994 C 0.64636 0.72605 0.94412
 C995 C 0.60446 0.72335 0.93428
 C996 C 0.58708 0.72954 0.92371
 C997 C 0.56624 0.73521 0.91034
 C998 C 0.55866 0.71919 0.89219
 C999 C 0.53851 0.72406 0.87897
 C1000 C 0.52488 0.74483 0.88406
 C1001 C 0.53341 0.76138 0.90182
 C1002 C 0.55367 0.75643 0.91507
 H1003 H 0.60708 0.68324 0.96065
 H1004 H 0.64193 0.66537 0.97852
 H1005 H 0.68280 0.72533 0.95255
 H1006 H 0.64766 0.74277 0.93415
 H1007 H 0.56854 0.70298 0.88798
 H1008 H 0.53413 0.71170 0.86434
 H1009 H 0.52435 0.77826 0.90536
 H1010 H 0.55962 0.76923 0.92882
 C1011 C 0.12475 0.21646 0.44616
 C1012 C 0.12362 0.19514 0.45949
 C1013 C 0.14373 0.18532 0.46967
 C1014 C 0.16540 0.19669 0.46672
 C1015 C 0.16635 0.21834 0.45354
 C1016 C 0.14614 0.22815 0.44331
 C1017 C 0.10409 0.22520 0.43426
 C1018 C 0.08652 0.23121 0.42390
 C1019 C 0.06544 0.23681 0.41092
 C1020 C 0.05768 0.22096 0.39269
 C1021 C 0.03721 0.22576 0.37995
 C1022 C 0.02346 0.24627 0.38563
 C1023 C 0.03218 0.26270 0.40341
 C1024 C 0.05275 0.25781 0.41617
 H1025 H 0.10722 0.18578 0.46159
 H1026 H 0.14238 0.16837 0.47925
 H1027 H 0.18271 0.22764 0.45110
 H1028 H 0.14724 0.24460 0.43291
 H1029 H 0.06765 0.20493 0.38807
 H1030 H 0.03267 0.21355 0.36525
 H1031 H 0.02300 0.27939 0.40741
 H1032 H 0.05881 0.27049 0.42998
 C1033 C 0.56934 0.12799 0.68947
 C1034 C 0.56278 0.10413 0.68295
 C1035 C 0.57305 0.08427 0.69436
 C1036 C 0.59008 0.08805 0.71241
 C1037 C 0.59618 0.11213 0.71918
 C1038 C 0.58588 0.13195 0.70776
 C1039 C 0.55960 0.14836 0.67691
 C1040 C 0.55155 0.16531 0.66613
 C1041 C 0.54186 0.18534 0.65303
 C1042 C 0.52649 0.18074 0.63387
 C1043 C 0.51678 0.20007 0.62123
 C1044 C 0.52163 0.22459 0.62801
 C1045 C 0.53835 0.22877 0.64647
 C1046 C 0.54804 0.20938 0.65909
 H1047 H 0.55002 0.10087 0.66877
 H1048 H 0.56820 0.06598 0.68855
 H1049 H 0.60902 0.11563 0.73323
 H1050 H 0.59102 0.15035 0.71300
 H1051 H 0.52212 0.16214 0.62857
 H1052 H 0.50569 0.19559 0.60598
 H1053 H 0.54365 0.24719 0.65136
 H1054 H 0.56038 0.21314 0.67355
 C1055 C 1.06679 0.63308 0.19018
 C1056 C 1.08356 0.63639 0.20837
 C1057 C 1.09340 0.61617 0.21952
 C1058 C 1.08660 0.59233 0.21259
 C1059 C 1.06936 0.58922 0.19464
 C1060 C 1.05956 0.60948 0.18350
 C1061 C 1.05749 0.65380 0.17786
 C1062 C 1.04971 0.67093 0.16714
 C1063 C 1.04019 0.69097 0.15393
 C1064 C 1.04683 0.71498 0.15954
 C1065 C 1.03732 0.73434 0.14669
 C1066 C 1.02033 0.73013 0.12851
 C1067 C 1.01500 0.70559 0.12221
 C1068 C 1.02453 0.68632 0.13505
 H1069 H 1.08923 0.65459 0.21372
 H1070 H 1.10641 0.61915 0.23350
 H1071 H 1.06397 0.57112 0.18871
 H1072 H 1.04662 0.60672 0.16939
 H1073 H 1.05941 0.71876 0.17377
 H1074 H 1.04301 0.75274 0.15116
 H1075 H 1.00367 0.70105 0.10716
 H1076 H 1.01980 0.66772 0.13010
 C1077 C 0.95107 0.86761 0.19197
 C1078 C 0.96225 0.88228 0.20940
 C1079 C 0.95038 0.90156 0.22020
 C1080 C 0.92717 0.90632 0.21366
 C1081 C 0.91615 0.89144 0.19610
 C1082 C 0.92803 0.87224 0.18536
 C1083 C 0.96315 0.84801 0.18041
 C1084 C 0.97264 0.83158 0.17006
 C1085 C 0.98328 0.81207 0.15692
 C1086 C 0.98777 0.78971 0.16773
 C1087 C 0.99692 0.77036 0.15447
 C1088 C 1.00233 0.77321 0.13018
 C1089 C 0.99692 0.79575 0.11949
 C1090 C 0.98782 0.81501 0.13278
 H1091 H 0.98011 0.87884 0.21462
 H1092 H 0.95924 0.91256 0.23381
 H1093 H 0.89844 0.89489 0.19038
 H1094 H 0.91926 0.86109 0.17178
 H1095 H 0.98367 0.78703 0.18627
 H1096 H 0.99893 0.75303 0.16321
 H1097 H 0.99962 0.79835 0.10065
 H1098 H 0.98390 0.83208 0.12408
 C1099 C 0.45266 0.35977 0.69609
 C1100 C 0.46435 0.37315 0.71417
 C1101 C 0.45322 0.39246 0.72577
 C1102 C 0.43026 0.39852 0.71941
 C1103 C 0.41874 0.38493 0.70119
 C1104 C 0.42987 0.36571 0.68965
 C1105 C 0.46399 0.34022 0.68367
 C1106 C 0.47290 0.32392 0.67258
 C1107 C 0.48302 0.30470 0.65861
 C1108 C 0.48777 0.28205 0.66870
 C1109 C 0.49702 0.26322 0.65481
 C1110 C 0.50232 0.26694 0.63061
 C1111 C 0.49635 0.28964 0.62057
 C1112 C 0.48714 0.30838 0.63448
 H1113 H 0.48203 0.36871 0.71926
 H1114 H 0.46245 0.40247 0.73985
 H1115 H 0.40122 0.38942 0.69557
 H1116 H 0.42073 0.35558 0.67556
 H1117 H 0.48397 0.27879 0.68722
 H1118 H 0.49939 0.24569 0.66305
 H1119 H 0.49896 0.29287 0.60181
 H1120 H 0.48301 0.32568 0.62633
 C1121 C 0.44561 0.62599 0.80094
 C1122 C 0.45783 0.60968 0.78651
 C1123 C 0.44790 0.58717 0.77974
 C1124 C 0.42573 0.58071 0.78754
 C1125 C 0.41344 0.59748 0.80160
 C1126 C 0.42334 0.61993 0.80826
 C1127 C 0.45628 0.64825 0.80970
 C1128 C 0.46484 0.66656 0.81829
 C1129 C 0.47473 0.68783 0.83000
 C1130 C 0.47916 0.70909 0.81735
 C1131 C 0.48848 0.72972 0.82918
 C1132 C 0.49410 0.72919 0.85387
 C1133 C 0.48844 0.70785 0.86639
 C1134 C 0.47920 0.68736 0.85456
 H1135 H 0.47516 0.61414 0.78090
 H1136 H 0.45779 0.57455 0.76903
 H1137 H 0.39618 0.59320 0.80751
 H1138 H 0.41375 0.63240 0.81946
 H1139 H 0.47514 0.70984 0.79840
 H1140 H 0.49071 0.74608 0.81895
 H1141 H 0.49142 0.70704 0.88551
 H1142 H 0.47537 0.67116 0.86464
 C1143 C -0.05237 0.12741 0.29967
 C1144 C -0.06529 0.12684 0.27822
 C1145 C -0.07572 0.10502 0.27013
 C1146 C -0.07344 0.08362 0.28354
 C1147 C -0.05987 0.08428 0.30470
 C1148 C -0.04943 0.10603 0.31268
 C1149 C -0.04312 0.15000 0.30925
 C1150 C -0.03549 0.16843 0.31851
 C1151 C -0.02644 0.18971 0.33088
 C1152 C -0.02279 0.21151 0.31885
 C1153 C -0.01387 0.23201 0.33118
 C1154 C -0.00777 0.23083 0.35573
 C1155 C -0.01278 0.20897 0.36770
 C1156 C -0.02166 0.18859 0.35536
 H1157 H -0.06774 0.14333 0.26806
 H1158 H -0.08624 0.10508 0.25389
 H1159 H -0.05757 0.06802 0.31521
 H1160 H -0.03945 0.10627 0.32929
 H1161 H -0.02705 0.21275 0.29999
 H1162 H -0.01222 0.24876 0.32142
 H1163 H -0.00946 0.20762 0.38673
 H1164 H -0.02486 0.17193 0.36497
 C1165 C 0.06107 0.36972 0.29646
 C1166 C 0.04896 0.38625 0.28207
 C1167 C 0.06008 0.40730 0.27408
 C1168 C 0.08335 0.41206 0.28063
 C1169 C 0.09548 0.39499 0.29455
 C1170 C 0.08440 0.37400 0.30242
 C1171 C 0.04943 0.34914 0.30648
 C1172 C 0.04017 0.33220 0.31595
 C1173 C 0.02953 0.31247 0.32840
 C1174 C 0.01409 0.31765 0.34658
 C1175 C 0.00478 0.29880 0.35989
 C1176 C 0.01019 0.27411 0.35485
 C1177 C 0.02650 0.26939 0.33693
 C1178 C 0.03581 0.28832 0.32365
 H1179 H 0.03084 0.38316 0.27746
 H1180 H 0.05031 0.42020 0.26348
 H1181 H 0.11353 0.39797 0.29952
 H1182 H 0.09393 0.36134 0.31355
 H1183 H 0.00970 0.33638 0.35091
 H1184 H -0.00606 0.30389 0.37459
 H1185 H 0.03214 0.25091 0.33331
 H1186 H 0.04825 0.28414 0.31002
 C1187 C 0.56739 0.86590 0.79441
 C1188 C 0.55559 0.88271 0.78007
 C1189 C 0.56699 0.90370 0.77239
 C1190 C 0.59026 0.90816 0.77916
 C1191 C 0.60210 0.89081 0.79303
 C1192 C 0.59072 0.86987 0.80061
 C1193 C 0.55534 0.84547 0.80424
 C1194 C 0.54553 0.82877 0.81356
 C1195 C 0.53404 0.80949 0.82589
 C1196 C 0.51834 0.81540 0.84362
 C1197 C 0.50817 0.79704 0.85690
 C1198 C 0.51294 0.77212 0.85228
 C1199 C 0.52947 0.76662 0.83477
 C1200 C 0.53966 0.78508 0.82153
 H1201 H 0.53747 0.87988 0.77530
 H1202 H 0.55742 0.91682 0.76185
 H1203 H 0.62014 0.89356 0.79818
 H1204 H 0.60001 0.85700 0.81172
 H1205 H 0.51441 0.83431 0.84766
 H1206 H 0.49717 0.80269 0.87129
 H1207 H 0.53466 0.74792 0.83152
 H1208 H 0.55228 0.78033 0.80824
 C1209 C 0.69948 0.56117 0.13357
 C1210 C 0.71221 0.58280 0.13581
 C1211 C 0.72156 0.59358 0.11572
 C1212 C 0.71831 0.58308 0.09253
 C1213 C 0.70596 0.56056 0.09097
 C1214 C 0.69662 0.54993 0.11119
 C1215 C 0.68830 0.55131 0.15405
 C1216 C 0.67833 0.54370 0.17112
 C1217 C 0.66564 0.53528 0.19126
 C1218 C 0.66325 0.51032 0.19544
 C1219 C 0.64941 0.50229 0.21394
 C1220 C 0.63686 0.51901 0.22806
 C1221 C 0.64116 0.54418 0.22482
 C1222 C 0.65503 0.55216 0.20635
 H1223 H 0.71479 0.59154 0.15314
 H1224 H 0.73197 0.60976 0.11901
 H1225 H 0.70189 0.55155 0.07413
 H1226 H 0.68658 0.53322 0.10922
 H1227 H 0.67180 0.49705 0.18420
 H1228 H 0.64785 0.48285 0.21677
 H1229 H 0.63393 0.55791 0.23647
 H1230 H 0.65732 0.57158 0.20372
 C1231 C 0.19262 1.05964 0.62707
 C1232 C 0.20768 1.04643 0.61256
 C1233 C 0.21808 1.05774 0.59324
 C1234 C 0.21357 1.08241 0.58827
 C1235 C 0.19842 1.09544 0.60302
 C1236 C 0.18807 1.08414 0.62224
 C1237 C 0.18146 1.04837 0.64684
 C1238 C 0.17137 1.04024 0.66360
 C1239 C 0.15848 1.03222 0.68376
 C1240 C 0.16403 1.01059 0.69546
 C1241 C 0.15160 1.00362 0.71544
 C1242 C 0.13393 1.01860 0.72469
 C1243 C 0.12774 1.03957 0.71159
 C1244 C 0.14012 1.04644 0.69168
 H1245 H 0.21133 1.02745 0.61615
 H1246 H 0.22980 1.04728 0.58233
 H1247 H 0.19421 1.11429 0.59944
 H1248 H 0.17635 1.09450 0.63327
 H1249 H 0.17792 0.99912 0.68917
 H1250 H 0.15599 0.98660 0.72398
 H1251 H 0.11308 1.05069 0.71630
 H1252 H 0.13524 1.06289 0.68235
 C1253 C 0.19790 0.95672 0.86323
 C1254 C 0.19895 0.93132 0.86253
 C1255 C 0.20902 0.91861 0.88146
 C1256 C 0.21846 0.93099 0.90197
 C1257 C 0.21748 0.95694 0.90196
 C1258 C 0.20731 0.96952 0.88288
 C1259 C 0.18617 0.96926 0.84412
 C1260 C 0.17559 0.97865 0.82792
 C1261 C 0.16206 0.98846 0.80846
 C1262 C 0.13812 0.98460 0.80759
 C1263 C 0.12497 0.99214 0.78790
 C1264 C 0.13552 1.00306 0.76817
 C1265 C 0.15950 1.00843 0.77015
 C1266 C 0.17267 1.00080 0.78994
 H1267 H 0.19141 0.92117 0.84750
 H1268 H 0.20784 0.89898 0.88013
 H1269 H 0.22519 0.96806 0.91611
 H1270 H 0.20674 0.98928 0.88353
 H1271 H 0.12964 0.97537 0.82198
 H1272 H 0.10646 0.98875 0.78767
 H1273 H 0.16827 1.01857 0.75664
 H1274 H 0.19116 1.00436 0.79069
 C1275 C 0.70213 0.45233 0.36012
 C1276 C 0.69519 0.42864 0.36571
 C1277 C 0.70458 0.41719 0.38575
 C1278 C 0.72114 0.42925 0.40056
 C1279 C 0.72810 0.45308 0.39478
 C1280 C 0.71864 0.46455 0.37465
 C1281 C 0.69161 0.46401 0.33978
 C1282 C 0.68177 0.47277 0.32278
 C1283 C 0.66873 0.48196 0.30269
 C1284 C 0.65702 0.46553 0.28735
 C1285 C 0.64227 0.47405 0.26929
 C1286 C 0.63814 0.49933 0.26675
 C1287 C 0.65194 0.51563 0.28088
 C1288 C 0.66666 0.50705 0.29904
 H1289 H 0.68230 0.41909 0.35469
 H1290 H 0.69852 0.39904 0.38992
 H1291 H 0.74096 0.46276 0.40571
 H1292 H 0.72410 0.48292 0.37051
 H1293 H 0.65902 0.44603 0.28956
 H1294 H 0.63410 0.46063 0.25750
 H1295 H 0.65057 0.53515 0.27844
 H1296 H 0.67605 0.51997 0.31049
 C1297 C 0.79169 0.46436 0.62068
 C1298 C 0.77029 0.45219 0.61904
 C1299 C 0.76343 0.44017 0.59779
 C1300 C 0.77803 0.44002 0.57802
 C1301 C 0.79909 0.45305 0.57960
 C1302 C 0.80586 0.46509 0.60078
 C1303 C 0.80032 0.47397 0.64324
 C1304 C 0.80879 0.48095 0.66202
 C1305 C 0.82033 0.48784 0.68417
 C1306 C 0.83834 0.47329 0.69280
 C1307 C 0.85041 0.47981 0.71378
 C1308 C 0.84429 0.50078 0.72722
 C1309 C 0.82662 0.51581 0.71767
 C1310 C 0.81454 0.50922 0.69656
 H1311 H 0.75928 0.45130 0.63440
 H1312 H 0.74723 0.43011 0.59716
 H1313 H 0.81054 0.45352 0.56458
 H1314 H 0.82250 0.47435 0.60187
 H1315 H 0.84342 0.45705 0.68300
 H1316 H 0.86499 0.46859 0.71888
 H1317 H 0.82225 0.53279 0.72657
 H1318 H 0.80096 0.52097 0.68974
 C1319 C 0.28460 -0.04980 0.12446
 C1320 C 0.29936 -0.04688 0.10525
 C1321 C 0.29373 -0.05748 0.08304
 C1322 C 0.27321 -0.07121 0.07973
 C1323 C 0.25812 -0.07348 0.09896
 C1324 C 0.26384 -0.06290 0.12123
 C1325 C 0.29169 -0.04058 0.14770
 C1326 C 0.29883 -0.03324 0.16689
 C1327 C 0.30888 -0.02490 0.18932
 C1328 C 0.31006 0.00002 0.19492
 C1329 C 0.32261 0.00819 0.21516
 C1330 C 0.33515 -0.00833 0.22959
 C1331 C 0.33167 -0.03356 0.22500
 C1332 C 0.31907 -0.04169 0.20481
 H1333 H 0.31549 -0.03681 0.10755
 H1334 H 0.30553 -0.05515 0.06850
 H1335 H 0.24233 -0.08416 0.09701
 H1336 H 0.25236 -0.06541 0.13602
 H1337 H 0.30186 0.01321 0.18331
 H1338 H 0.32351 0.02762 0.21893
 H1339 H 0.33883 -0.04722 0.23671
 H1340 H 0.31773 -0.06110 0.20100
 C1341 C 0.27693 0.05154 0.36803
 C1342 C 0.29103 0.04816 0.38832
 C1343 C 0.28565 0.05958 0.40991
 C1344 C 0.26604 0.07459 0.41151
 C1345 C 0.25142 0.07715 0.39127
 C1346 C 0.25692 0.06577 0.36960
 C1347 C 0.28437 0.04211 0.34537
 C1348 C 0.29217 0.03477 0.32685
 C1349 C 0.30337 0.02669 0.30548
 C1350 C 0.30532 0.00179 0.30012
 C1351 C 0.31952 -0.00601 0.28164
 C1352 C 0.33298 0.01089 0.26899
 C1353 C 0.32864 0.03600 0.27289
 C1354 C 0.31438 0.04376 0.29128
 H1355 H 0.30660 0.03726 0.38730
 H1356 H 0.29705 0.05705 0.42527
 H1357 H 0.23634 0.08879 0.39194
 H1358 H 0.24598 0.06866 0.35395
 H1359 H 0.29655 -0.01163 0.31073
 H1360 H 0.32110 -0.02541 0.27812
 H1361 H 0.33652 0.04986 0.26216
 H1362 H 0.31250 0.06313 0.29487
 C1363 C 0.78847 0.55211 0.87369
 C1364 C 0.80176 0.54958 0.89468
 C1365 C 0.79455 0.56034 0.91598
 C1366 C 0.77391 0.57385 0.91660
 C1367 C 0.76014 0.57547 0.89565
 C1368 C 0.76745 0.56475 0.87428
 C1369 C 0.79761 0.54352 0.85141
 C1370 C 0.80660 0.53701 0.83319
 C1371 C 0.81887 0.53003 0.81209
 C1372 C 0.84254 0.53518 0.81102
 C1373 C 0.85487 0.52864 0.79084
 C1374 C 0.84375 0.51733 0.77081
 C1375 C 0.81997 0.51135 0.77258
 C1376 C 0.80762 0.51795 0.79291
 H1377 H 0.81807 0.53989 0.89445
 H1378 H 0.80536 0.55853 0.93189
 H1379 H 0.74428 0.58595 0.89555
 H1380 H 0.75710 0.56697 0.85810
 H1381 H 0.85155 0.54415 0.82591
 H1382 H 0.87328 0.53253 0.79075
 H1383 H 0.81086 0.50108 0.75866
 H1384 H 0.78938 0.51336 0.79378
 C1385 C 0.13219 0.69192 0.54866
 C1386 C 0.11924 0.70919 0.53601
 C1387 C 0.09869 0.71831 0.54545
 C1388 C 0.09098 0.71029 0.56767
 C1389 C 0.10406 0.69277 0.58006
 C1390 C 0.12449 0.68369 0.57062
 C1391 C 0.15350 0.68244 0.53959
 C1392 C 0.17149 0.67351 0.53348
 C1393 C 0.19295 0.66163 0.52811
 C1394 C 0.20595 0.66822 0.50845
 C1395 C 0.22687 0.65638 0.50390
 C1396 C 0.23561 0.63827 0.51938
 C1397 C 0.22146 0.63112 0.53839
 C1398 C 0.20067 0.64293 0.54286
 H1399 H 0.12507 0.71568 0.51900
 H1400 H 0.08907 0.73193 0.53560
 H1401 H 0.09838 0.68592 0.59699
 H1402 H 0.13432 0.67024 0.58050
 H1403 H 0.19987 0.68237 0.49659
 H1404 H 0.23637 0.66140 0.48827
 H1405 H 0.22594 0.61598 0.54969
 H1406 H 0.19041 0.63722 0.55776
 C1407 C 0.62900 0.19614 1.06492
 C1408 C 0.62919 0.21426 1.08277
 C1409 C 0.60840 0.22197 1.09267
 C1410 C 0.58713 0.21159 1.08484
 C1411 C 0.58711 0.19362 1.06666
 C1412 C 0.60792 0.18594 1.05680
 C1413 C 0.65040 0.18737 1.05543
 C1414 C 0.66803 0.17929 1.04743
 C1415 C 0.68855 0.16862 1.03772
 C1416 C 0.71059 0.17640 1.04553
 C1417 C 0.73035 0.16499 1.03674
 C1418 C 0.72850 0.14599 1.01945
 C1419 C 0.70597 0.13794 1.01247
 C1420 C 0.68633 0.14938 1.02123
 H1421 H 0.64541 0.22229 1.08917
 H1422 H 0.60896 0.23609 1.10639
 H1423 H 0.57107 0.18509 1.06045
 H1424 H 0.60760 0.17181 1.04306
 H1425 H 0.71251 0.19094 1.05875
 H1426 H 0.74718 0.17081 1.04368
 H1427 H 0.70327 0.12225 1.00080
 H1428 H 0.66932 0.14276 1.01556
 C1429 C 0.86315 0.20940 0.95699
 C1430 C 0.86503 0.20680 0.93236
 C1431 C 0.88472 0.21522 0.92099
 C1432 C 0.90336 0.22661 0.93400
 C1433 C 0.90077 0.22926 0.95907
 C1434 C 0.88097 0.22074 0.97031
 C1435 C 0.84348 0.19900 0.96851
 C1436 C 0.82720 0.18916 0.97749
 C1437 C 0.80822 0.17598 0.98749
 C1438 C 0.81125 0.15152 0.99332
 C1439 C 0.79270 0.13789 1.00154
 C1440 C 0.77072 0.14853 1.00480
 C1441 C 0.76782 0.17317 0.99822
 C1442 C 0.78649 0.18680 0.98989
 H1443 H 0.85147 0.19763 0.92190
 H1444 H 0.88543 0.21115 0.90213
 H1445 H 0.91342 0.23870 0.97035
 H1446 H 0.87962 0.22292 0.98947
 H1447 H 0.82786 0.14278 0.99101
 H1448 H 0.79544 0.11876 1.00523
 H1449 H 0.75105 0.18183 0.99866
 H1450 H 0.78382 0.20558 0.98476
 C1451 C 0.37222 0.70778 0.47082
 C1452 C 0.36809 0.72438 0.45250
 C1453 C 0.38657 0.73370 0.43970
 C1454 C 0.40944 0.72645 0.44502
 C1455 C 0.41348 0.71038 0.46399
 C1456 C 0.39497 0.70106 0.47675
 C1457 C 0.35306 0.69579 0.48177
 C1458 C 0.33703 0.68468 0.48983
 C1459 C 0.31805 0.67014 0.49795
 C1460 C 0.29850 0.68100 0.50779
 C1461 C 0.27929 0.66667 0.51348
 C1462 C 0.27904 0.64126 0.50859
 C1463 C 0.29965 0.63055 0.50032
 C1464 C 0.31875 0.64485 0.49475
 H1465 H 0.35054 0.72960 0.44767
 H1466 H 0.38294 0.74630 0.42542
 H1467 H 0.43085 0.70424 0.46833
 H1468 H 0.39833 0.68800 0.49072
 H1469 H 0.29800 0.70057 0.51082
 H1470 H 0.26483 0.67568 0.52166
 H1471 H 0.30059 0.61101 0.49734
 H1472 H 0.33391 0.63618 0.48744
 C1473 C 0.62430 0.79375 0.45567
 C1474 C 0.61920 0.80120 0.43240
 C1475 C 0.59788 0.79532 0.42155
 C1476 C 0.58126 0.78188 0.43386
 C1477 C 0.58663 0.77406 0.45714
 C1478 C 0.60804 0.78006 0.46803
 C1479 C 0.64592 0.80132 0.46676
 C1480 C 0.66415 0.80917 0.47455
 C1481 C 0.68580 0.82040 0.48182
 C1482 C 0.69284 0.84136 0.47010
 C1483 C 0.71384 0.85261 0.47623
 C1484 C 0.72890 0.84269 0.49378
 C1485 C 0.72085 0.82232 0.50648
 C1486 C 0.69968 0.81100 0.50025
 H1487 H 0.63167 0.81180 0.42267
 H1488 H 0.59442 0.80122 0.40348
 H1489 H 0.57409 0.76382 0.46707
 H1490 H 0.61178 0.77431 0.48611
 H1491 H 0.68192 0.84919 0.45624
 H1492 H 0.71800 0.86938 0.46730
 H1493 H 0.73104 0.81512 0.52119
 H1494 H 0.69412 0.79507 0.50985
 C1495 C 0.12234 0.29145 -0.03925
 C1496 C 0.10586 0.27780 -0.02715
 C1497 C 0.08429 0.27248 -0.03810
 C1498 C 0.07900 0.28096 -0.06117
 C1499 C 0.09586 0.29433 -0.07321
 C1500 C 0.11731 0.29953 -0.06233
 C1501 C 0.14420 0.29832 -0.02818
 C1502 C 0.16269 0.30568 -0.02055
 C1503 C 0.18467 0.31641 -0.01357
 C1504 C 0.19753 0.30822 0.00616
 C1505 C 0.21876 0.31941 0.01243
 C1506 C 0.22788 0.33846 -0.00137
 C1507 C 0.21393 0.34708 -0.02051
 C1508 C 0.19288 0.33593 -0.02670
 H1509 H 0.10955 0.27154 -0.00923
 H1510 H 0.07159 0.26222 -0.02839
 H1511 H 0.09250 0.30071 -0.09115
 H1512 H 0.12995 0.31009 -0.07187
 H1513 H 0.19107 0.29344 0.01682
 H1514 H 0.22810 0.31325 0.02817
 H1515 H 0.21883 0.36291 -0.03056
 H1516 H 0.18276 0.34287 -0.04163
 C1517 C 0.37119 0.27459 0.04331
 C1518 C 0.37250 0.25381 0.05751
 C1519 C 0.39353 0.24755 0.06870
 C1520 C 0.41337 0.26220 0.06599
 C1521 C 0.41210 0.28237 0.05082
 C1522 C 0.39115 0.28850 0.03957
 C1523 C 0.34914 0.28365 0.03501
 C1524 C 0.33119 0.29319 0.02907
 C1525 C 0.31071 0.30691 0.02321
 C1526 C 0.29147 0.29614 0.01153
 C1527 C 0.27179 0.31014 0.00623
 C1528 C 0.27086 0.33507 0.01313
 C1529 C 0.29091 0.34564 0.02402
 C1530 C 0.31039 0.33169 0.02925
 H1531 H 0.35710 0.24308 0.06074
 H1532 H 0.39398 0.23205 0.08046
 H1533 H 0.42717 0.29381 0.04823
 H1534 H 0.39031 0.30472 0.02875
 H1535 H 0.29176 0.27703 0.00630
 H1536 H 0.25769 0.30146 -0.00373
 H1537 H 0.29140 0.36491 0.02861
 H1538 H 0.32532 0.34035 0.03795
 C1539 C 0.87449 0.77835 0.52812
 C1540 C 0.89417 0.79237 0.52347
 C1541 C 0.91563 0.78622 0.53360
 C1542 C 0.91767 0.76595 0.54856
 C1543 C 0.89808 0.75115 0.55208
 C1544 C 0.87656 0.75742 0.54200
 C1545 C 0.85203 0.78754 0.52140
 C1546 C 0.83373 0.79712 0.51696
 C1547 C 0.81283 0.81079 0.51304
 C1548 C 0.81224 0.83494 0.52125
 C1549 C 0.79244 0.84889 0.51772
 C1550 C 0.77232 0.83888 0.50645
 C1551 C 0.77349 0.81467 0.49742
 C1552 C 0.79350 0.80066 0.50100
 H1553 H 0.89274 0.80872 0.51290
 H1554 H 0.93050 0.79778 0.53042
 H1555 H 0.89911 0.73558 0.56372
 H1556 H 0.86138 0.74662 0.54596
 H1557 H 0.82726 0.84312 0.53024
 H1558 H 0.79280 0.86774 0.52379
 H1559 H 0.75932 0.80664 0.48704
 H1560 H 0.79399 0.78211 0.49408
   
