data_POSCAR
  _audit_creation_date              2014-09-24
  _audit_creation_method            'ToBaCCo'
  _symmetry_space_group_name_H-M    'P1'
  _symmetry_Int_Tables_number       1
  _symmetry_cell_setting            triclinic
  loop_
  _symmetry_equiv_pos_as_xyz
 x,y,z
_cell_length_a 80.7410
_cell_length_b 80.5687
_cell_length_c 80.7558
_cell_angle_alpha 90.018700
_cell_angle_beta 89.989200
_cell_angle_gamma 89.899300
loop_
  _atom_site_label
  _atom_site_type_symbol
  _atom_site_fract_x
  _atom_site_fract_y
  _atom_site_fract_z
C1 C 0.35784 0.33321 0.34606
 C2 C 0.34556 0.33316 0.35834
 C3 C 0.33339 0.34532 0.35838
 C4 C 0.33336 0.35766 0.34614
 C5 C 0.34551 0.35771 0.33401
 C6 C 0.35782 0.34541 0.33397
 C7 C 0.37078 0.32260 0.34261
 N8 N 0.37850 0.32815 0.32879
 C9 C 0.37074 0.34203 0.32335
 C10 C 0.34206 0.37068 0.32345
 N11 N 0.32820 0.37840 0.32896
 C12 C 0.32273 0.37061 0.34276
 C13 C 0.32279 0.34185 0.37128
 N14 N 0.32831 0.32796 0.37896
 C15 C 0.34217 0.32250 0.37121
 H16 H 0.37417 0.31154 0.34943
 H17 H 0.37409 0.34894 0.31236
 H18 H 0.34892 0.37408 0.31244
 H19 H 0.31170 0.37395 0.34963
 H20 H 0.31176 0.34870 0.37467
 H21 H 0.34905 0.31145 0.37454
 C22 C 0.35794 0.83322 -0.15473
 C23 C 0.34564 0.83316 -0.14247
 C24 C 0.33346 0.84529 -0.14245
 C25 C 0.33342 0.85764 -0.15469
 C26 C 0.34558 0.85770 -0.16681
 C27 C 0.35791 0.84542 -0.16683
 C28 C 0.37092 0.82263 -0.15815
 N29 N 0.37864 0.82820 -0.17196
 C30 C 0.37087 0.84207 -0.17743
 C31 C 0.34214 0.87067 -0.17738
 N32 N 0.32827 0.87837 -0.17187
 C33 C 0.32277 0.87057 -0.15807
 C34 C 0.32286 0.84182 -0.12955
 N35 N 0.32839 0.82795 -0.12185
 C36 C 0.34226 0.82250 -0.12959
 H37 H 0.37430 0.81158 -0.15130
 H38 H 0.37421 0.84900 -0.18842
 H39 H 0.34902 0.87408 -0.18838
 H40 H 0.31173 0.87389 -0.15120
 H41 H 0.31181 0.84866 -0.12618
 H42 H 0.34916 0.81147 -0.12624
 C43 C 0.85788 0.33338 -0.15463
 C44 C 0.84561 0.33333 -0.14234
 C45 C 0.83343 0.34548 -0.14230
 C46 C 0.83339 0.35782 -0.15454
 C47 C 0.84552 0.35787 -0.16668
 C48 C 0.85784 0.34558 -0.16673
 C49 C 0.87083 0.32277 -0.15808
 N50 N 0.87853 0.32833 -0.17190
 C51 C 0.87076 0.34221 -0.17735
 C52 C 0.84207 0.37084 -0.17724
 N53 N 0.82821 0.37856 -0.17171
 C54 C 0.82274 0.37077 -0.15789
 C55 C 0.82286 0.34201 -0.12937
 N56 N 0.82839 0.32813 -0.12169
 C57 C 0.84224 0.32267 -0.12945
 H58 H 0.87422 0.31171 -0.15124
 H59 H 0.87409 0.34913 -0.18836
 H60 H 0.84893 0.37424 -0.18826
 H61 H 0.81172 0.37410 -0.15100
 H62 H 0.81182 0.34887 -0.12598
 H63 H 0.84914 0.31163 -0.12613
 C64 C 0.85806 0.83340 0.34567
 C65 C 0.84578 0.83336 0.35795
 C66 C 0.83359 0.84549 0.35798
 C67 C 0.83353 0.85781 0.34572
 C68 C 0.84567 0.85786 0.33358
 C69 C 0.85800 0.84559 0.33355
 C70 C 0.87103 0.82282 0.34224
 N71 N 0.87873 0.82837 0.32841
 C72 C 0.87094 0.84222 0.32294
 C73 C 0.84221 0.87082 0.32300
 N74 N 0.82834 0.87852 0.32852
 C75 C 0.82287 0.87074 0.34234
 C76 C 0.82302 0.84203 0.37091
 N77 N 0.82858 0.82817 0.37861
 C78 C 0.84243 0.82272 0.37086
 H79 H 0.87444 0.81177 0.34910
 H80 H 0.87426 0.84914 0.31193
 H81 H 0.84907 0.87421 0.31198
 H82 H 0.81184 0.87407 0.34923
 H83 H 0.81197 0.84888 0.37429
 H84 H 0.84935 0.81169 0.37421
 C85 C 0.64208 0.66659 0.34576
 C86 C 0.65437 0.66656 0.35803
 C87 C 0.66653 0.65440 0.35798
 C88 C 0.66655 0.64213 0.34566
 C89 C 0.65441 0.64216 0.33353
 C90 C 0.64210 0.65447 0.33358
 C91 C 0.62914 0.67722 0.34238
 N92 N 0.62142 0.67176 0.32854
 C93 C 0.62917 0.65791 0.32300
 C94 C 0.65784 0.62925 0.32289
 N95 N 0.67169 0.62148 0.32835
 C96 C 0.67717 0.62919 0.34220
 C97 C 0.67713 0.65778 0.37090
 N98 N 0.67162 0.67163 0.37868
 C99 C 0.65777 0.67715 0.37098
 H100 H 0.62576 0.68825 0.34928
 H101 H 0.62582 0.65107 0.31196
 H102 H 0.65097 0.62590 0.31187
 H103 H 0.68820 0.62580 0.34904
 H104 H 0.68816 0.65090 0.37423
 H105 H 0.65089 0.68818 0.37438
 C106 C 0.64193 0.16651 -0.15479
 C107 C 0.65421 0.16650 -0.14250
 C108 C 0.66638 0.15436 -0.14253
 C109 C 0.66643 0.14208 -0.15483
 C110 C 0.65430 0.14208 -0.16698
 C111 C 0.64198 0.15437 -0.16695
 C112 C 0.62897 0.17712 -0.15817
 N113 N 0.62127 0.17161 -0.17202
 C114 C 0.62905 0.15777 -0.17755
 C115 C 0.65776 0.12915 -0.17760
 N116 N 0.67162 0.12142 -0.17211
 C117 C 0.67708 0.12915 -0.15826
 C118 C 0.67696 0.15777 -0.12959
 N119 N 0.67142 0.17160 -0.12183
 C120 C 0.65757 0.17710 -0.12955
 H121 H 0.62557 0.18814 -0.15127
 H122 H 0.62572 0.15090 -0.18858
 H123 H 0.65090 0.12580 -0.18863
 H124 H 0.68811 0.12579 -0.15138
 H125 H 0.68800 0.15090 -0.12624
 H126 H 0.65067 0.18813 -0.12616
 C127 C 0.14187 0.66611 -0.15475
 C128 C 0.15415 0.66610 -0.14247
 C129 C 0.16633 0.65397 -0.14250
 C130 C 0.16639 0.64169 -0.15481
 C131 C 0.15425 0.64169 -0.16695
 C132 C 0.14192 0.65397 -0.16692
 C133 C 0.12891 0.67672 -0.15813
 N134 N 0.12121 0.67122 -0.17198
 C135 C 0.12899 0.65738 -0.17752
 C136 C 0.15772 0.62877 -0.17759
 N137 N 0.17159 0.62105 -0.17210
 C138 C 0.17705 0.62877 -0.15825
 C139 C 0.17692 0.65738 -0.12957
 N140 N 0.17137 0.67122 -0.12181
 C141 C 0.15752 0.67671 -0.12953
 H142 H 0.12552 0.68774 -0.15123
 H143 H 0.12567 0.65051 -0.18856
 H144 H 0.15087 0.62542 -0.18862
 H145 H 0.18808 0.62543 -0.15138
 H146 H 0.18797 0.65053 -0.12623
 H147 H 0.15061 0.68773 -0.12614
 C148 C 0.14213 0.16638 0.34527
 C149 C 0.15437 0.16633 0.35759
 C150 C 0.16653 0.15417 0.35757
 C151 C 0.16660 0.14192 0.34523
 C152 C 0.15450 0.14197 0.33305
 C153 C 0.14219 0.15427 0.33308
 C154 C 0.12919 0.17702 0.34188
 N155 N 0.12152 0.17156 0.32800
 C156 C 0.12930 0.15772 0.32245
 C157 C 0.15797 0.12906 0.32240
 N158 N 0.17180 0.12130 0.32791
 C159 C 0.17725 0.12899 0.34179
 C160 C 0.17708 0.15754 0.37053
 N161 N 0.17154 0.17136 0.37831
 C162 C 0.15772 0.17689 0.37057
 H163 H 0.12580 0.18803 0.34880
 H164 H 0.12599 0.15088 0.31139
 H165 H 0.15114 0.12575 0.31134
 H166 H 0.18825 0.12560 0.34869
 H167 H 0.18810 0.15065 0.37390
 H168 H 0.15082 0.18792 0.37396
 C169 C 0.64217 0.33335 0.65431
 C170 C 0.65444 0.33338 0.64202
 C171 C 0.66657 0.34553 0.64206
 C172 C 0.66658 0.35779 0.65439
 C173 C 0.65445 0.35776 0.66653
 C174 C 0.64217 0.34547 0.66649
 C175 C 0.62926 0.32273 0.65770
 N176 N 0.62154 0.32819 0.67156
 C177 C 0.62927 0.34203 0.67709
 C178 C 0.65787 0.37067 0.67718
 N179 N 0.67169 0.37841 0.67171
 C180 C 0.67718 0.37071 0.65784
 C181 C 0.67717 0.34214 0.62912
 N182 N 0.67168 0.32831 0.62134
 C183 C 0.65786 0.32280 0.62906
 H184 H 0.62590 0.31172 0.65080
 H185 H 0.62591 0.34887 0.68814
 H186 H 0.65101 0.37400 0.68822
 H187 H 0.68819 0.37409 0.65099
 H188 H 0.68819 0.34902 0.62578
 H189 H 0.65100 0.31178 0.62566
 C190 C 0.64140 0.83352 1.15484
 C191 C 0.65366 0.83354 1.14254
 C192 C 0.66583 0.84565 1.14259
 C193 C 0.66587 0.85789 1.15494
 C194 C 0.65375 0.85788 1.16709
 C195 C 0.64144 0.84562 1.16705
 C196 C 0.62846 0.82292 1.15821
 N197 N 0.62077 0.82840 1.17208
 C198 C 0.62853 0.84220 1.17765
 C199 C 0.65722 0.87076 1.17776
 N200 N 0.67106 0.87847 1.17229
 C201 C 0.67651 0.87078 1.15841
 C202 C 0.67641 0.84226 1.12964
 N203 N 0.67088 0.82846 1.12184
 C204 C 0.65704 0.82297 1.12956
 H205 H 0.62508 0.81193 1.15128
 H206 H 0.62521 0.84905 1.18872
 H207 H 0.65038 0.87410 1.18881
 H208 H 0.68753 0.87414 1.15154
 H209 H 0.68744 0.84911 1.12630
 H210 H 0.65015 0.81197 1.12615
 C211 C 0.14184 0.33334 1.15458
 C212 C 0.15408 0.33340 1.14226
 C213 C 0.16620 0.34556 1.14227
 C214 C 0.16622 0.35781 1.15461
 C215 C 0.15413 0.35776 1.16679
 C216 C 0.14187 0.34546 1.16678
 C217 C 0.12895 0.32271 1.15798
 N218 N 0.12126 0.32816 1.17187
 C219 C 0.12899 0.34200 1.17741
 C220 C 0.15756 0.37066 1.17744
 N221 N 0.17137 0.37843 1.17193
 C222 C 0.17682 0.37074 1.15804
 C223 C 0.17676 0.34219 1.12930
 N224 N 0.17126 0.32837 1.12152
 C225 C 0.15746 0.32284 1.12927
 H226 H 0.12558 0.31169 1.15106
 H227 H 0.12566 0.34884 1.18848
 H228 H 0.15073 0.37399 1.18849
 H229 H 0.18780 0.37414 1.15115
 H230 H 0.18776 0.34908 1.12593
 H231 H 0.15061 0.31181 1.12588
 C232 C 0.14205 0.83379 0.65489
 C233 C 0.15429 0.83388 0.64257
 C234 C 0.16642 0.84603 0.64264
 C235 C 0.16645 0.85823 0.65502
 C236 C 0.15435 0.85814 0.66720
 C237 C 0.14208 0.84585 0.66713
 C238 C 0.12915 0.82315 0.65825
 N239 N 0.12146 0.82854 0.67216
 C240 C 0.12919 0.84235 0.67774
 C241 C 0.15778 0.87100 0.67790
 N242 N 0.17159 0.87878 0.67242
 C243 C 0.17706 0.87114 0.65850
 C244 C 0.17698 0.84270 0.62966
 N245 N 0.17148 0.82890 0.62183
 C246 C 0.15767 0.82336 0.62956
 H247 H 0.12577 0.81217 0.65131
 H248 H 0.12585 0.84914 0.68883
 H249 H 0.15093 0.87428 0.68897
 H250 H 0.18805 0.87455 0.65162
 H251 H 0.18799 0.84959 0.62632
 H252 H 0.15081 0.81234 0.62613
 C253 C 0.35790 0.66678 0.65406
 C254 C 0.34564 0.66684 0.64176
 C255 C 0.33348 0.65472 0.64173
 C256 C 0.33344 0.64240 0.65399
 C257 C 0.34556 0.64234 0.66614
 C258 C 0.35786 0.65461 0.66618
 C259 C 0.37082 0.67736 0.65751
 N260 N 0.37852 0.67183 0.67135
 C261 C 0.37076 0.65798 0.67680
 C262 C 0.34210 0.62940 0.67672
 N263 N 0.32826 0.62171 0.67120
 C264 C 0.32281 0.62949 0.65737
 C265 C 0.32290 0.65820 0.62880
 N266 N 0.32843 0.67205 0.62111
 C267 C 0.34226 0.67749 0.62886
 H268 H 0.37421 0.68841 0.65067
 H269 H 0.37409 0.65108 0.68782
 H270 H 0.34894 0.62600 0.68775
 H271 H 0.31179 0.62616 0.65049
 H272 H 0.31187 0.65137 0.62542
 H273 H 0.34915 0.68852 0.62553
 C274 C 0.35776 0.16649 1.15425
 C275 C 0.34550 0.16654 1.14196
 C276 C 0.33333 0.15443 1.14194
 C277 C 0.33327 0.14213 1.15422
 C278 C 0.34539 0.14208 1.16637
 C279 C 0.35771 0.15433 1.16639
 C280 C 0.37070 0.17705 1.15768
 N281 N 0.37840 0.17153 1.17152
 C282 C 0.37062 0.15770 1.17700
 C283 C 0.34194 0.12915 1.17697
 N284 N 0.32809 0.12146 1.17145
 C285 C 0.32263 0.12923 1.15761
 C286 C 0.32276 0.15790 1.12901
 N287 N 0.32829 0.17173 1.12129
 C288 C 0.34213 0.17717 1.12904
 H289 H 0.37411 0.18808 1.15082
 H290 H 0.37395 0.15081 1.18802
 H291 H 0.34879 0.12576 1.18800
 H292 H 0.31161 0.12591 1.15072
 H293 H 0.31172 0.15107 1.12563
 H294 H 0.34903 0.18819 1.12568
 C295 C 0.85792 0.66682 1.15440
 C296 C 0.84565 0.66683 1.14211
 C297 C 0.83355 0.65466 1.14207
 C298 C 0.83357 0.64232 1.15431
 C299 C 0.84570 0.64230 1.16646
 C300 C 0.85794 0.65462 1.16650
 C301 C 0.87080 0.67745 1.15786
 N302 N 0.87854 0.67192 1.17168
 C303 C 0.87084 0.65803 1.17712
 C304 C 0.84231 0.62933 1.17701
 N305 N 0.82850 0.62158 1.17149
 C306 C 0.82301 0.62935 1.15768
 C307 C 0.82296 0.65810 1.12915
 N308 N 0.82841 0.67199 1.12146
 C309 C 0.84222 0.67749 1.12922
 H310 H 0.87414 0.68851 1.15103
 H311 H 0.87421 0.65113 1.18812
 H312 H 0.84917 0.62594 1.18803
 H313 H 0.81200 0.62599 1.15080
 H314 H 0.81196 0.65122 1.12575
 H315 H 0.84906 0.68855 1.12590
 C316 C 0.85846 0.16683 0.65464
 C317 C 0.84623 0.16685 0.64232
 C318 C 0.83408 0.15472 0.64228
 C319 C 0.83402 0.14243 0.65456
 C320 C 0.84611 0.14241 0.66675
 C321 C 0.85840 0.15468 0.66679
 C322 C 0.87137 0.17743 0.65810
 N323 N 0.87904 0.17192 0.67196
 C324 C 0.87128 0.15807 0.67745
 C325 C 0.84263 0.12948 0.67734
 N326 N 0.82881 0.12176 0.67180
 C327 C 0.82339 0.12951 0.65794
 C328 C 0.82354 0.15816 0.62932
 N329 N 0.82907 0.17200 0.62160
 C330 C 0.84288 0.17747 0.62938
 H331 H 0.87476 0.18847 0.65123
 H332 H 0.87458 0.15119 0.68849
 H333 H 0.84944 0.12610 0.68839
 H334 H 0.81240 0.12616 0.65104
 H335 H 0.81253 0.15130 0.62592
 H336 H 0.84976 0.18850 0.62604
 C337 C 0.33350 0.35751 0.65428
 C338 C 0.33350 0.34514 0.64206
 C339 C 0.34566 0.33297 0.64210
 C340 C 0.35795 0.33303 0.65436
 C341 C 0.35794 0.34525 0.66644
 C342 C 0.34565 0.35756 0.66640
 C343 C 0.32288 0.37047 0.65764
 N344 N 0.32837 0.37829 0.67144
 C345 C 0.34223 0.37056 0.67694
 C346 C 0.37088 0.34188 0.67703
 N347 N 0.37863 0.32798 0.67160
 C348 C 0.37089 0.32242 0.65780
 C349 C 0.34225 0.32229 0.62923
 N350 N 0.32840 0.32776 0.62149
 C351 C 0.32290 0.34166 0.62916
 H352 H 0.31185 0.37381 0.65078
 H353 H 0.34909 0.37398 0.68794
 H354 H 0.37425 0.34881 0.68802
 H355 H 0.37426 0.31134 0.65098
 H356 H 0.34912 0.31123 0.62590
 H357 H 0.31186 0.34853 0.62578
 C358 C 0.33350 0.85810 0.15357
 C359 C 0.33351 0.84573 0.14134
 C360 C 0.34567 0.83357 0.14138
 C361 C 0.35795 0.83362 0.15366
 C362 C 0.35794 0.84584 0.16574
 C363 C 0.34564 0.85815 0.16569
 C364 C 0.32288 0.87106 0.15694
 N365 N 0.32836 0.87887 0.17074
 C366 C 0.34221 0.87114 0.17624
 C367 C 0.37087 0.84246 0.17635
 N368 N 0.37861 0.82857 0.17092
 C369 C 0.37089 0.82301 0.15711
 C370 C 0.34226 0.82289 0.12851
 N371 N 0.32842 0.82835 0.12077
 C372 C 0.32291 0.84226 0.12844
 H373 H 0.31185 0.87440 0.15007
 H374 H 0.34907 0.87456 0.18725
 H375 H 0.37422 0.84938 0.18734
 H376 H 0.37426 0.81193 0.15030
 H377 H 0.34914 0.81183 0.12519
 H378 H 0.31188 0.84912 0.12506
 C379 C 0.83397 0.35741 0.15395
 C380 C 0.83400 0.34508 0.14170
 C381 C 0.84618 0.33294 0.14170
 C382 C 0.85847 0.33299 0.15397
 C383 C 0.85844 0.34518 0.16608
 C384 C 0.84611 0.35746 0.16607
 C385 C 0.82332 0.37035 0.15735
 N386 N 0.82879 0.37814 0.17117
 C387 C 0.84266 0.37042 0.17665
 C388 C 0.87138 0.34181 0.17667
 N389 N 0.87916 0.32794 0.17121
 C390 C 0.87144 0.32240 0.15739
 C391 C 0.84280 0.32229 0.12881
 N392 N 0.82894 0.32775 0.12108
 C393 C 0.82340 0.34162 0.12879
 H394 H 0.81228 0.37369 0.15050
 H395 H 0.84952 0.37383 0.18766
 H396 H 0.87473 0.34871 0.18768
 H397 H 0.87483 0.31135 0.15055
 H398 H 0.84970 0.31125 0.12545
 H399 H 0.81236 0.34847 0.12543
 C400 C 0.83364 0.85773 0.65459
 C401 C 0.83369 0.84541 0.64232
 C402 C 0.84585 0.83324 0.64236
 C403 C 0.85810 0.83325 0.65467
 C404 C 0.85805 0.84543 0.66679
 C405 C 0.84575 0.85774 0.66676
 C406 C 0.82301 0.87068 0.65797
 N407 N 0.82846 0.87845 0.67180
 C408 C 0.84229 0.87070 0.67733
 C409 C 0.87095 0.84203 0.67742
 N410 N 0.87872 0.82816 0.67196
 C411 C 0.87104 0.82264 0.65812
 C412 C 0.84250 0.82261 0.62944
 N413 N 0.82867 0.82810 0.62167
 C414 C 0.82314 0.84198 0.62938
 H415 H 0.81201 0.87405 0.65107
 H416 H 0.84912 0.87409 0.68836
 H417 H 0.87428 0.84892 0.68844
 H418 H 0.87444 0.81159 0.65127
 H419 H 0.84939 0.81157 0.62610
 H420 H 0.81212 0.84885 0.62598
 C421 C 0.66667 0.64221 0.65475
 C422 C 0.66667 0.65447 0.64243
 C423 C 0.65451 0.66663 0.64237
 C424 C 0.64220 0.66667 0.65463
 C425 C 0.64221 0.65455 0.66680
 C426 C 0.65451 0.64224 0.66686
 C427 C 0.67729 0.62927 0.65821
 N428 N 0.67178 0.62156 0.67205
 C429 C 0.65793 0.62933 0.67750
 C430 C 0.62925 0.65799 0.67736
 N431 N 0.62150 0.67183 0.67181
 C432 C 0.62925 0.67729 0.65798
 C433 C 0.65792 0.67720 0.62942
 N434 N 0.67178 0.67168 0.62173
 C435 C 0.67728 0.65785 0.62951
 H436 H 0.68832 0.62587 0.65138
 H437 H 0.65104 0.62598 0.68851
 H438 H 0.62588 0.65115 0.68839
 H439 H 0.62587 0.68831 0.65108
 H440 H 0.65103 0.68823 0.62601
 H441 H 0.68832 0.65096 0.62619
 C442 C 0.66678 0.14177 0.15436
 C443 C 0.66675 0.15401 0.14202
 C444 C 0.65456 0.16614 0.14193
 C445 C 0.64225 0.16618 0.15418
 C446 C 0.64228 0.15408 0.16638
 C447 C 0.65461 0.14181 0.16647
 C448 C 0.67742 0.12887 0.15787
 N449 N 0.67193 0.12118 0.17173
 C450 C 0.65805 0.12893 0.17714
 C451 C 0.62932 0.15753 0.17693
 N452 N 0.62155 0.17134 0.17136
 C453 C 0.62928 0.17679 0.15752
 C454 C 0.65796 0.17670 0.12897
 N455 N 0.67184 0.17120 0.12130
 C456 C 0.67737 0.15739 0.12911
 H457 H 0.68847 0.12548 0.15105
 H458 H 0.65117 0.12560 0.18816
 H459 H 0.62597 0.15070 0.18798
 H460 H 0.62589 0.18779 0.15060
 H461 H 0.65106 0.18771 0.12553
 H462 H 0.68843 0.15052 0.12580
 C463 C 0.16624 0.64231 0.15429
 C464 C 0.16621 0.65458 0.14198
 C465 C 0.15407 0.66676 0.14197
 C466 C 0.14182 0.66682 0.15428
 C467 C 0.14184 0.65469 0.16644
 C468 C 0.15413 0.64237 0.16645
 C469 C 0.17685 0.62936 0.15771
 N470 N 0.17139 0.62166 0.17158
 C471 C 0.15756 0.62945 0.17708
 C472 C 0.12894 0.65816 0.17706
 N473 N 0.12119 0.67202 0.17155
 C474 C 0.12890 0.67747 0.15769
 C475 C 0.15746 0.67734 0.12901
 N476 N 0.17128 0.67179 0.12127
 C477 C 0.17678 0.65794 0.12903
 H478 H 0.18786 0.62595 0.15084
 H479 H 0.15072 0.62612 0.18812
 H480 H 0.12560 0.65132 0.18810
 H481 H 0.12551 0.68849 0.15080
 H482 H 0.15058 0.68838 0.12563
 H483 H 0.18780 0.65104 0.12566
 C484 C 0.16613 0.14171 0.65469
 C485 C 0.16611 0.15397 0.64238
 C486 C 0.15396 0.16614 0.64235
 C487 C 0.14169 0.16620 0.65464
 C488 C 0.14171 0.15408 0.66681
 C489 C 0.15400 0.14176 0.66684
 C490 C 0.17674 0.12876 0.65813
 N491 N 0.17127 0.12106 0.67199
 C492 C 0.15744 0.12884 0.67747
 C493 C 0.12879 0.15754 0.67741
 N494 N 0.12104 0.17139 0.67188
 C495 C 0.12876 0.17684 0.65803
 C496 C 0.15736 0.17672 0.62940
 N497 N 0.17119 0.17118 0.62167
 C498 C 0.17670 0.15734 0.62944
 H499 H 0.18776 0.12536 0.65127
 H500 H 0.15058 0.12551 0.68850
 H501 H 0.12544 0.15070 0.68845
 H502 H 0.12538 0.18786 0.65113
 H503 H 0.15048 0.18776 0.62601
 H504 H 0.18772 0.15044 0.62609
 C505 C 0.33337 0.64257 0.34554
 C506 C 0.33339 0.65492 0.35777
 C507 C 0.34553 0.66705 0.35773
 C508 C 0.35781 0.66697 0.34544
 C509 C 0.35779 0.65477 0.33335
 C510 C 0.34550 0.64249 0.33339
 C511 C 0.32276 0.62963 0.34218
 N512 N 0.32823 0.62182 0.32837
 C513 C 0.34207 0.62951 0.32284
 C514 C 0.37072 0.65811 0.32273
 N515 N 0.37846 0.67197 0.32817
 C516 C 0.37074 0.67754 0.34199
 C517 C 0.34214 0.67772 0.37062
 N518 N 0.32831 0.67229 0.37837
 C519 C 0.32280 0.65841 0.37069
 H520 H 0.31174 0.62632 0.34906
 H521 H 0.34893 0.62608 0.31183
 H522 H 0.37407 0.65118 0.31174
 H523 H 0.37412 0.68860 0.34882
 H524 H 0.34902 0.68876 0.37394
 H525 H 0.31178 0.65157 0.37409
 C526 C 0.33369 0.14183 0.84564
 C527 C 0.33367 0.15416 0.85790
 C528 C 0.34582 0.16629 0.85790
 C529 C 0.35812 0.16624 0.84565
 C530 C 0.35814 0.15405 0.83353
 C531 C 0.34585 0.14177 0.83353
 C532 C 0.32309 0.12890 0.84223
 N533 N 0.32860 0.12111 0.82842
 C534 C 0.34245 0.12881 0.82294
 C535 C 0.37108 0.15742 0.82295
 N536 N 0.37881 0.17128 0.82843
 C537 C 0.37106 0.17682 0.84224
 C538 C 0.34238 0.17694 0.87080
 N539 N 0.32853 0.17149 0.87851
 C540 C 0.32305 0.15762 0.87079
 H541 H 0.31205 0.12556 0.84908
 H542 H 0.34933 0.12540 0.81194
 H543 H 0.37447 0.15052 0.81195
 H544 H 0.37441 0.18787 0.84909
 H545 H 0.34925 0.18798 0.87416
 H546 H 0.31202 0.15078 0.87415
 C547 C 0.83366 0.64200 0.84618
 C548 C 0.83366 0.65437 0.85840
 C549 C 0.84582 0.66648 0.85837
 C550 C 0.85813 0.66637 0.84611
 C551 C 0.85813 0.65415 0.83404
 C552 C 0.84583 0.64189 0.83407
 C553 C 0.82304 0.62908 0.84280
 N554 N 0.82854 0.62124 0.82902
 C555 C 0.84241 0.62891 0.82352
 C556 C 0.87108 0.65747 0.82344
 N557 N 0.87882 0.67134 0.82888
 C558 C 0.87107 0.67693 0.84267
 C559 C 0.84240 0.67719 0.87123
 N560 N 0.82854 0.67178 0.87895
 C561 C 0.82304 0.65790 0.87128
 H562 H 0.81199 0.62579 0.84966
 H563 H 0.84928 0.62546 0.81253
 H564 H 0.87445 0.65053 0.81246
 H565 H 0.87444 0.68800 0.84948
 H566 H 0.84928 0.68822 0.87455
 H567 H 0.81200 0.65108 0.87465
 C568 C 0.83447 0.14179 0.34573
 C569 C 0.83449 0.15412 0.35799
 C570 C 0.84662 0.16627 0.35795
 C571 C 0.85888 0.16623 0.34565
 C572 C 0.85886 0.15404 0.33353
 C573 C 0.84659 0.14175 0.33358
 C574 C 0.82386 0.12886 0.34236
 N575 N 0.82933 0.12108 0.32852
 C576 C 0.84315 0.12880 0.32300
 C577 C 0.87176 0.15743 0.32291
 N578 N 0.87950 0.17129 0.32836
 C579 C 0.87179 0.17683 0.34220
 C580 C 0.84322 0.17692 0.37086
 N581 N 0.82940 0.17146 0.37862
 C582 C 0.82390 0.15758 0.37092
 H583 H 0.81285 0.12552 0.34924
 H584 H 0.84999 0.12540 0.31197
 H585 H 0.87511 0.15052 0.31189
 H586 H 0.87516 0.18788 0.34904
 H587 H 0.85008 0.18797 0.37419
 H588 H 0.81289 0.15073 0.37431
 C589 C 0.66662 0.35761 0.34530
 C590 C 0.66662 0.34532 0.35760
 C591 C 0.65448 0.33319 0.35763
 C592 C 0.64218 0.33320 0.34537
 C593 C 0.64218 0.34534 0.33322
 C594 C 0.65447 0.35761 0.33318
 C595 C 0.67722 0.37052 0.34186
 N596 N 0.67172 0.37826 0.32803
 C597 C 0.65788 0.37054 0.32256
 C598 C 0.62924 0.34194 0.32265
 N599 N 0.62150 0.32811 0.32817
 C600 C 0.62924 0.32261 0.34200
 C601 C 0.65789 0.32259 0.37057
 N602 N 0.67174 0.32807 0.37828
 C603 C 0.67723 0.34190 0.37051
 H604 H 0.68825 0.37388 0.34871
 H605 H 0.65100 0.37391 0.31155
 H606 H 0.62587 0.34881 0.31162
 H607 H 0.62587 0.31159 0.34888
 H608 H 0.65102 0.31157 0.37397
 H609 H 0.68826 0.34876 0.37385
 C610 C 0.66599 0.85847 0.84576
 C611 C 0.66596 0.84619 0.85806
 C612 C 0.65380 0.83407 0.85807
 C613 C 0.64153 0.83409 0.84578
 C614 C 0.64156 0.84622 0.83363
 C615 C 0.65386 0.85849 0.83361
 C616 C 0.67661 0.87137 0.84232
 N617 N 0.67115 0.87911 0.82847
 C618 C 0.65731 0.87140 0.82299
 C619 C 0.62865 0.84282 0.82302
 N620 N 0.62089 0.82899 0.82853
 C621 C 0.62860 0.82350 0.84238
 C622 C 0.65719 0.82346 0.87100
 N623 N 0.67103 0.82892 0.87873
 C624 C 0.67654 0.84276 0.87098
 H625 H 0.68764 0.87472 0.84918
 H626 H 0.65046 0.87477 0.81196
 H627 H 0.62531 0.84968 0.81199
 H628 H 0.62522 0.81247 0.84925
 H629 H 0.65031 0.81244 0.87438
 H630 H 0.68758 0.84960 0.87434
 C631 C 0.16602 0.35822 0.84553
 C632 C 0.16595 0.34594 0.85783
 C633 C 0.15376 0.33386 0.85785
 C634 C 0.14149 0.33391 0.84557
 C635 C 0.14155 0.34604 0.83340
 C636 C 0.15389 0.35827 0.83338
 C637 C 0.17669 0.37107 0.84208
 N638 N 0.17126 0.37882 0.82823
 C639 C 0.15739 0.37116 0.82275
 C640 C 0.12863 0.34267 0.82280
 N641 N 0.12084 0.32886 0.82831
 C642 C 0.12853 0.32335 0.84216
 C643 C 0.15713 0.32323 0.87078
 N644 N 0.17100 0.32866 0.87849
 C645 C 0.17654 0.34247 0.87074
 H646 H 0.18774 0.37438 0.84894
 H647 H 0.15056 0.37454 0.81171
 H648 H 0.12531 0.34953 0.81176
 H649 H 0.12512 0.31234 0.84904
 H650 H 0.15023 0.31223 0.87415
 H651 H 0.18760 0.34928 0.87409
 C652 C 0.16618 0.85885 0.34552
 C653 C 0.16609 0.84663 0.35788
 C654 C 0.15389 0.83455 0.35794
 C655 C 0.14164 0.83455 0.34564
 C656 C 0.14172 0.84662 0.33342
 C657 C 0.15406 0.85884 0.33336
 C658 C 0.17687 0.87167 0.34202
 N659 N 0.17146 0.87935 0.32812
 C660 C 0.15758 0.87167 0.32266
 C661 C 0.12882 0.84319 0.32281
 N662 N 0.12102 0.82941 0.32838
 C663 C 0.12868 0.82397 0.34227
 C664 C 0.15725 0.82398 0.37092
 N665 N 0.17111 0.82943 0.37862
 C666 C 0.17667 0.84321 0.37082
 H667 H 0.18790 0.87500 0.34887
 H668 H 0.15078 0.87500 0.31160
 H669 H 0.12552 0.85000 0.31173
 H670 H 0.12526 0.81299 0.34919
 H671 H 0.15034 0.81299 0.37433
 H672 H 0.18773 0.85002 0.37413
 O673 O 0.24833 1.01676 0.27048
 O674 O 0.27109 0.98445 0.24752
 O675 O 0.27105 1.01680 0.24761
 O676 O 0.24839 0.98440 0.27039
 O677 O 0.22895 0.98445 0.25110
 O678 O 0.25162 1.01686 0.22832
 O679 O 0.25165 0.98450 0.22823
 O680 O 0.22889 1.01681 0.25119
 Cu681 Cu 0.26168 1.00060 0.26095
 Cu682 Cu 0.23832 1.00066 0.23776
 C683 C 0.23479 1.02226 0.26469
 C684 C 0.26519 0.97899 0.23402
 C685 C 0.26514 1.02232 0.23414
 C686 C 0.23487 0.97892 0.26457
 O687 O 0.24814 0.51638 0.77074
 O688 O 0.27094 0.48402 0.74791
 O689 O 0.27088 0.51637 0.74790
 O690 O 0.24819 0.48402 0.77074
 O691 O 0.22878 0.48401 0.75142
 O692 O 0.25147 0.51636 0.72858
 O693 O 0.25153 0.48401 0.72858
 O694 O 0.22873 0.51638 0.75142
 Cu695 Cu 0.26149 0.50020 0.76127
 Cu696 Cu 0.23817 0.50019 0.73805
 C697 C 0.23460 0.52187 0.76492
 C698 C 0.26506 0.47852 0.73441
 C699 C 0.26499 0.52185 0.73440
 C700 C 0.23468 0.47853 0.76491
 O701 O 0.74842 -0.01661 0.22956
 O702 O 0.77145 0.01566 0.25217
 O703 O 0.77130 -0.01670 0.25225
 O704 O 0.74857 0.01574 0.22947
 O705 O 0.72928 0.01592 0.24891
 O706 O 0.75200 -0.01652 0.27169
 O707 O 0.75215 0.01584 0.27161
 O708 O 0.72912 -0.01643 0.24900
 Cu709 Cu 0.76188 -0.00050 0.23890
 Cu710 Cu 0.73869 -0.00028 0.26227
 C711 C 0.73490 -0.02199 0.23548
 C712 C 0.76566 0.02122 0.26569
 C713 C 0.76547 -0.02211 0.26580
 C714 C 0.73511 0.02133 0.23537
 O715 O 0.77116 0.51586 0.75232
 O716 O 0.74840 0.48359 0.72944
 O717 O 0.74840 0.51595 0.72951
 O718 O 0.77116 0.48351 0.75226
 O719 O 0.75177 0.48351 0.77160
 O720 O 0.72901 0.51595 0.74886
 O721 O 0.72901 0.48359 0.74879
 O722 O 0.75177 0.51587 0.77167
 Cu723 Cu 0.76174 0.49973 0.73893
 Cu724 Cu 0.73843 0.49973 0.76218
 C725 C 0.76529 0.52134 0.76584
 C726 C 0.73488 0.47812 0.73527
 C727 C 0.73489 0.52145 0.73536
 C728 C 0.76529 0.47801 0.76575
 O729 O 0.25141 0.48393 0.27146
 O730 O 0.22868 0.51626 0.24854
 O731 O 0.22866 0.48391 0.24863
 O732 O 0.25143 0.51628 0.27137
 O733 O 0.27083 0.51618 0.25203
 O734 O 0.24807 0.48380 0.22930
 O735 O 0.24808 0.51616 0.22921
 O736 O 0.27082 0.48382 0.25213
 Cu737 Cu 0.23809 0.50010 0.26195
 Cu738 Cu 0.26141 0.49998 0.23872
 C739 C 0.26493 0.47839 0.26564
 C740 C 0.23456 0.52169 0.23503
 C741 C 0.23454 0.47836 0.23515
 C742 C 0.26496 0.52172 0.26552
 O743 O 0.74816 1.01659 0.77104
 O744 O 0.77096 0.98414 0.74832
 O745 O 0.77101 1.01650 0.74831
 O746 O 0.74812 0.98423 0.77106
 O747 O 0.72880 0.98428 0.75166
 O748 O 0.75169 1.01655 0.72890
 O749 O 0.75164 0.98419 0.72891
 O750 O 0.72884 1.01663 0.75164
 Cu751 Cu 0.76151 1.00036 0.76164
 Cu752 Cu 0.73829 1.00042 0.73832
 C753 C 0.73467 1.02211 0.76516
 C754 C 0.76513 0.97866 0.73480
 C755 C 0.76520 1.02199 0.73479
 C756 C 0.73462 0.97878 0.76518
 O757 O 0.74844 0.51598 0.27074
 O758 O 0.77124 0.48362 0.24791
 O759 O 0.77123 0.51597 0.24796
 O760 O 0.74844 0.48363 0.27070
 O761 O 0.72908 0.48368 0.25133
 O762 O 0.75187 0.51602 0.22859
 O763 O 0.75188 0.48367 0.22854
 O764 O 0.72907 0.51603 0.25138
 Cu765 Cu 0.76179 0.49979 0.26128
 Cu766 Cu 0.73852 0.49985 0.23801
 C767 C 0.73493 0.52150 0.26489
 C768 C 0.76539 0.47815 0.23439
 C769 C 0.76538 0.52148 0.23446
 C770 C 0.73493 0.47817 0.26483
 O771 O 0.27105 0.01555 0.75200
 O772 O 0.24813 -0.01679 0.72937
 O773 O 0.24815 0.01556 0.72932
 O774 O 0.27102 -0.01681 0.75205
 O775 O 0.25174 -0.01672 0.77150
 O776 O 0.22887 0.01565 0.74877
 O777 O 0.22884 -0.01670 0.74882
 O778 O 0.25176 0.01564 0.77145
 Cu779 Cu 0.26153 -0.00063 0.73872
 Cu780 Cu 0.23836 -0.00053 0.76210
 C781 C 0.26525 0.02108 0.76552
 C782 C 0.23464 -0.02223 0.73530
 C783 C 0.23467 0.02109 0.73522
 C784 C 0.26522 -0.02226 0.76559
 O785 O 0.22867 0.25179 1.01595
 O786 O 0.25157 0.22901 0.98367
 O787 O 0.25159 0.22904 1.01595
 O788 O 0.22865 0.25176 0.98367
 O789 O 0.24791 0.27125 0.98364
 O790 O 0.27085 0.24853 1.01592
 O791 O 0.27083 0.24850 0.98364
 O792 O 0.24793 0.27128 1.01592
 Cu793 Cu 0.23818 0.23844 0.99981
 Cu794 Cu 0.26132 0.26185 0.99978
 C795 C 0.23446 0.26536 1.02142
 C796 C 0.26505 0.23493 0.97818
 C797 C 0.26507 0.23497 1.02141
 C798 C 0.23442 0.26532 0.97818
 O799 O 0.24802 0.77202 0.48380
 O800 O 0.27095 0.74919 0.51600
 O801 O 0.27090 0.74924 0.48372
 O802 O 0.24807 0.77197 0.51608
 O803 O 0.22878 0.75252 0.51608
 O804 O 0.25162 0.72978 0.48372
 O805 O 0.25166 0.72973 0.51600
 O806 O 0.22873 0.75256 0.48380
 Cu807 Cu 0.26143 0.76257 0.49990
 Cu808 Cu 0.23825 0.73919 0.49990
 C809 C 0.23452 0.76613 0.47834
 C810 C 0.26516 0.73562 0.52146
 C811 C 0.26510 0.73569 0.47823
 C812 C 0.23459 0.76606 0.52157
 O813 O 0.27094 0.75121 -0.01655
 O814 O 0.24803 0.72859 0.01577
 O815 O 0.24805 0.72851 -0.01651
 O816 O 0.27093 0.75129 0.01573
 O817 O 0.25164 0.77082 0.01568
 O818 O 0.22876 0.74804 -0.01655
 O819 O 0.22875 0.74812 0.01573
 O820 O 0.25165 0.77074 -0.01660
 Cu821 Cu 0.26143 0.73793 -0.00039
 Cu822 Cu 0.23826 0.76140 -0.00044
 C823 C 0.26514 0.76477 -0.02206
 C824 C 0.23455 0.73456 0.02123
 C825 C 0.23456 0.73445 -0.02200
 C826 C 0.26513 0.76488 0.02117
 O827 O 0.27086 0.25094 0.48404
 O828 O 0.24796 0.22819 0.51628
 O829 O 0.24799 0.22823 0.48400
 O830 O 0.27085 0.25090 0.51632
 O831 O 0.25156 0.27042 0.51634
 O832 O 0.22869 0.24775 0.48402
 O833 O 0.22867 0.24771 0.51630
 O834 O 0.25157 0.27046 0.48406
 Cu835 Cu 0.26136 0.23759 0.50016
 Cu836 Cu 0.23818 0.26105 0.50019
 C837 C 0.26506 0.26452 0.47858
 C838 C 0.23448 0.23414 0.52176
 C839 C 0.23450 0.23418 0.47852
 C840 C 0.26505 0.26447 0.52181
 O841 O 0.75152 0.72935 0.98398
 O842 O 0.72853 0.75203 1.01628
 O843 O 0.72856 0.75207 0.98399
 O844 O 0.75149 0.72932 1.01626
 O845 O 0.77072 0.74884 1.01630
 O846 O 0.74778 0.77159 0.98404
 O847 O 0.74775 0.77155 1.01632
 O848 O 0.77074 0.74887 0.98402
 Cu849 Cu 0.73809 0.73872 1.00012
 Cu850 Cu 0.76119 0.76218 1.00017
 C851 C 0.76499 0.73530 0.97852
 C852 C 0.73428 0.76559 1.02178
 C853 C 0.73432 0.76565 0.97854
 C854 C 0.76496 0.73527 1.02175
 O855 O 0.74866 0.27113 0.48368
 O856 O 0.77162 0.24853 0.51602
 O857 O 0.77164 0.24844 0.48374
 O858 O 0.74865 0.27122 0.51596
 O859 O 0.72944 0.25168 0.51600
 O860 O 0.75244 0.22891 0.48378
 O861 O 0.75241 0.22899 0.51606
 O862 O 0.72946 0.25160 0.48372
 Cu863 Cu 0.76208 0.26180 0.49985
 Cu864 Cu 0.73900 0.23832 0.49989
 C865 C 0.73521 0.26516 0.47821
 C866 C 0.76587 0.23497 0.52153
 C867 C 0.76590 0.23485 0.47830
 C868 C 0.73518 0.26527 0.52145
 O869 O 0.77119 0.25115 -0.01647
 O870 O 0.74841 0.22836 0.01582
 O871 O 0.74830 0.22845 -0.01646
 O872 O 0.77129 0.25106 0.01581
 O873 O 0.75201 0.27059 0.01593
 O874 O 0.72901 0.24798 -0.01634
 O875 O 0.72912 0.24789 0.01594
 O876 O 0.75191 0.27068 -0.01635
 Cu877 Cu 0.76174 0.23779 -0.00034
 Cu878 Cu 0.73857 0.26125 -0.00019
 C879 C 0.76537 0.26474 -0.02189
 C880 C 0.73494 0.23430 0.02136
 C881 C 0.73480 0.23442 -0.02188
 C882 C 0.76551 0.26462 0.02135
 O883 O 0.77134 0.75138 0.48398
 O884 O 0.74849 0.72867 0.51628
 O885 O 0.74846 0.72867 0.48400
 O886 O 0.77137 0.75138 0.51626
 O887 O 0.75208 0.77090 0.51629
 O888 O 0.72917 0.74819 0.48403
 O889 O 0.72920 0.74819 0.51631
 O890 O 0.75205 0.77090 0.48401
 Cu891 Cu 0.76186 0.73806 0.50013
 Cu892 Cu 0.73868 0.76151 0.50016
 C893 C 0.76553 0.76495 0.47851
 C894 C 0.73501 0.73462 0.52177
 C895 C 0.73497 0.73462 0.47854
 C896 C 0.76557 0.76495 0.52175
 O897 O 1.01689 0.27090 0.24813
 O898 O 0.98464 0.24804 0.27089
 O899 O 1.01692 0.24808 0.27093
 O900 O 0.98460 0.27085 0.24808
 O901 O 0.98470 0.25141 0.22873
 O902 O 1.01702 0.22865 0.25159
 O903 O 0.98473 0.22860 0.25154
 O904 O 1.01698 0.25146 0.22878
 Cu905 Cu 1.00075 0.26143 0.26146
 Cu906 Cu 1.00087 0.23807 0.23821
 C907 C 1.02240 0.26502 0.23463
 C908 C 0.97921 0.23448 0.26504
 C909 C 1.02245 0.23454 0.26510
 C910 C 0.97917 0.26495 0.23457
 O911 O 0.48413 0.25130 0.72898
 O912 O 0.51647 0.22849 0.75177
 O913 O 0.48419 0.22848 0.75179
 O914 O 0.51642 0.25130 0.72896
 O915 O 0.51639 0.27074 0.74831
 O916 O 0.48415 0.24792 0.77113
 O917 O 0.51644 0.24793 0.77112
 O918 O 0.48410 0.27073 0.74833
 Cu919 Cu 0.50031 0.23793 0.73843
 Cu920 Cu 0.50027 0.26129 0.76167
 C921 C 0.47863 0.26484 0.73483
 C922 C 0.52195 0.23438 0.76527
 C923 C 0.47870 0.23437 0.76529
 C924 C 0.52187 0.26485 0.73480
 O925 O -0.01664 0.22909 0.74841
 O926 O 0.01559 0.25202 0.77114
 O927 O -0.01670 0.25200 0.77115
 O928 O 0.01565 0.22912 0.74841
 O929 O 0.01560 0.24848 0.72900
 O930 O -0.01675 0.27135 0.75174
 O931 O 0.01554 0.27138 0.75173
 O932 O -0.01668 0.24845 0.72900
 Cu933 Cu -0.00052 0.23861 0.76174
 Cu934 Cu -0.00058 0.26187 0.73841
 C935 C -0.02212 0.23492 0.73489
 C936 C 0.02103 0.26555 0.76525
 C937 C -0.02221 0.26552 0.76526
 C938 C 0.02111 0.23496 0.73489
 O939 O 0.48376 0.27089 0.25173
 O940 O 0.51603 0.24812 0.22879
 O941 O 0.48375 0.24812 0.22887
 O942 O 0.51605 0.27089 0.25165
 O943 O 0.51613 0.25143 0.27095
 O944 O 0.48383 0.22865 0.24818
 O945 O 0.51611 0.22866 0.24809
 O946 O 0.48384 0.25143 0.27103
 Cu947 Cu 0.49989 0.26147 0.23831
 Cu948 Cu 0.49998 0.23808 0.26151
 C949 C 0.47833 0.26499 0.26523
 C950 C 0.52155 0.23457 0.23459
 C951 C 0.47831 0.23456 0.23470
 C952 C 0.52157 0.26499 0.26512
 O953 O 1.01645 0.72843 0.75201
 O954 O 0.98411 0.75133 0.72931
 O955 O 1.01640 0.75132 0.72929
 O956 O 0.98416 0.72845 0.75206
 O957 O 0.98415 0.74783 0.77146
 O958 O 1.01638 0.77070 0.74869
 O959 O 0.98410 0.77070 0.74872
 O960 O 1.01644 0.74781 0.77142
 Cu961 Cu 1.00028 0.73793 0.73871
 Cu962 Cu 1.00027 0.76121 0.76203
 C963 C 1.02193 0.73427 0.76553
 C964 C 0.97862 0.76486 0.73520
 C965 C 1.02186 0.76485 0.73517
 C966 C 0.97869 0.73430 0.76558
 O967 O 0.51620 0.72915 0.25165
 O968 O 0.48394 0.75191 0.22870
 O969 O 0.51622 0.75194 0.22881
 O970 O 0.48391 0.72912 0.25153
 O971 O 0.48379 0.74858 0.27086
 O972 O 0.51610 0.77139 0.24814
 O973 O 0.48381 0.77136 0.24802
 O974 O 0.51607 0.74861 0.27097
 Cu975 Cu 0.50008 0.73857 0.23822
 Cu976 Cu 0.49993 0.76195 0.26145
 C977 C 0.52161 0.73506 0.26516
 C978 C 0.47840 0.76546 0.23451
 C979 C 0.52164 0.76550 0.23466
 C980 C 0.47837 0.73502 0.26501
 O981 O -0.01651 0.77172 0.25190
 O982 O 0.01583 0.74897 0.22904
 O983 O -0.01645 0.74890 0.22910
 O984 O 0.01578 0.77181 0.25184
 O985 O 0.01589 0.75239 0.27119
 O986 O -0.01634 0.72948 0.24845
 O987 O 0.01594 0.72955 0.24839
 O988 O -0.01640 0.75231 0.27125
 Cu989 Cu -0.00035 0.76231 0.23852
 Cu990 Cu -0.00021 0.73897 0.26177
 C991 C -0.02194 0.76584 0.26542
 C992 C 0.02137 0.73544 0.23488
 C993 C -0.02186 0.73534 0.23495
 C994 C 0.02130 0.76594 0.26533
 O995 O 0.48349 0.77144 0.75173
 O996 O 0.51587 0.74866 0.72895
 O997 O 0.48358 0.74861 0.72893
 O998 O 0.51578 0.77149 0.75175
 O999 O 0.51582 0.75207 0.77110
 O1000 O 0.48363 0.72919 0.74828
 O1001 O 0.51591 0.72924 0.74830
 O1002 O 0.48354 0.75202 0.77108
 Cu1003 Cu 0.49967 0.76201 0.73839
 Cu1004 Cu 0.49973 0.73867 0.76164
 C1005 C 0.47802 0.76556 0.76523
 C1006 C 0.52138 0.73512 0.73480
 C1007 C 0.47814 0.73506 0.73477
 C1008 C 0.52126 0.76562 0.76526
 C1009 C 0.41677 0.30534 0.30585
 N1010 N 0.42308 0.31163 0.29161
 N1011 N 0.43539 0.30386 0.28379
 C1012 C 0.44175 0.28955 0.28996
 N1013 N 0.43545 0.28326 0.30420
 N1014 N 0.42315 0.29104 0.31203
 C1015 C 0.40330 0.31353 0.31409
 C1016 C 0.39187 0.32032 0.32093
 C1017 C 0.45477 0.28100 0.28135
 C1018 C 0.46559 0.27373 0.27404
 C1019 C 0.41629 0.80587 0.80561
 N1020 N 0.42245 0.81203 0.79126
 N1021 N 0.43479 0.80426 0.78347
 C1022 C 0.44133 0.79011 0.78981
 N1023 N 0.43517 0.78396 0.80417
 N1024 N 0.42284 0.79173 0.81196
 C1025 C 0.40278 0.81404 0.81382
 C1026 C 0.39132 0.82082 0.82062
 C1027 C 0.45439 0.78157 0.78125
 C1028 C 0.46524 0.77431 0.77398
 C1029 C -0.08388 0.30596 0.80561
 N1030 N -0.07808 0.31180 0.79097
 N1031 N -0.06576 0.30401 0.78318
 C1032 C -0.05886 0.29016 0.78980
 N1033 N -0.06466 0.28433 0.80445
 N1034 N -0.07698 0.29211 0.81224
 C1035 C -0.09737 0.31415 0.81383
 C1036 C -0.10881 0.32094 0.82066
 C1037 C -0.04582 0.28159 0.78125
 C1038 C -0.03498 0.27430 0.77399
 C1039 C -0.08365 0.80606 0.30593
 N1040 N -0.07749 0.81224 0.29157
 N1041 N -0.06516 0.80450 0.28376
 C1042 C -0.05861 0.79034 0.29007
 N1043 N -0.06476 0.78416 0.30443
 N1044 N -0.07709 0.79190 0.31224
 C1045 C -0.09715 0.81422 0.31416
 C1046 C -0.10860 0.82099 0.32098
 C1047 C -0.04556 0.78181 0.28149
 C1048 C -0.03471 0.77457 0.27419
 C1049 C 0.58314 0.69468 0.30573
 N1050 N 0.57613 0.68788 0.29207
 N1051 N 0.56383 0.69567 0.28426
 C1052 C 0.55817 0.71050 0.28989
 N1053 N 0.56518 0.71730 0.30356
 N1054 N 0.57748 0.70951 0.31136
 C1055 C 0.59662 0.68646 0.31394
 C1056 C 0.60804 0.67963 0.32073
 C1057 C 0.54516 0.71905 0.28129
 C1058 C 0.53434 0.72632 0.27397
 C1059 C 0.58365 0.19402 0.80561
 N1060 N 0.57743 0.18784 0.79128
 N1061 N 0.56510 0.19562 0.78351
 C1062 C 0.55861 0.20981 0.78983
 N1063 N 0.56482 0.21598 0.80417
 N1064 N 0.57716 0.20820 0.81194
 C1065 C 0.59715 0.18583 0.81380
 C1066 C 0.60860 0.17903 0.82058
 C1067 C 0.54556 0.21836 0.78129
 C1068 C 0.53472 0.22563 0.77402
 C1069 C 1.08362 0.69370 0.80568
 N1070 N 1.07756 0.68772 0.79120
 N1071 N 1.06523 0.69554 0.78346
 C1072 C 1.05859 0.70958 0.78997
 N1073 N 1.06465 0.71555 0.80445
 N1074 N 1.07697 0.70773 0.81219
 C1075 C 1.09711 0.68547 0.81384
 C1076 C 1.10855 0.67865 0.82062
 C1077 C 1.04555 0.71818 0.78147
 C1078 C 1.03470 0.72548 0.77424
 C1079 C 1.08402 0.19409 0.30556
 N1080 N 1.07753 0.18770 0.29144
 N1081 N 1.06523 0.19551 0.28365
 C1082 C 1.05905 0.20994 0.28974
 N1083 N 1.06553 0.21632 0.30386
 N1084 N 1.07783 0.20851 0.31165
 C1085 C 1.09748 0.18586 0.31377
 C1086 C 1.10889 0.17902 0.32058
 C1087 C 1.04603 0.21851 0.28117
 C1088 C 1.03520 0.22579 0.27388
 C1089 C 0.58333 0.30529 0.69437
 N1090 N 0.57671 0.31176 0.70840
 N1091 N 0.56443 0.30396 0.71619
 C1092 C 0.55840 0.28946 0.71018
 N1093 N 0.56501 0.28300 0.69614
 N1094 N 0.57729 0.29079 0.68835
 C1095 C 0.59678 0.31351 0.68617
 C1096 C 0.60819 0.32033 0.67938
 C1097 C 0.54540 0.28089 0.71875
 C1098 C 0.53459 0.27361 0.72603
 C1099 C 0.58323 0.80595 0.19443
 N1100 N 0.57685 0.79172 0.18812
 N1101 N 0.56455 0.78393 0.19587
 C1102 C 0.55825 0.79012 0.21017
 N1103 N 0.56461 0.80434 0.21648
 N1104 N 0.57692 0.81214 0.20872
 C1105 C 0.59670 0.81416 0.18626
 C1106 C 0.60813 0.82097 0.17948
 C1107 C 0.54522 0.78155 0.21869
 C1108 C 0.53439 0.77426 0.22594
 C1109 C 1.08384 0.30560 0.19430
 N1110 N 1.07757 0.31176 0.20863
 N1111 N 1.06530 0.30393 0.21641
 C1112 C 1.05892 0.28971 0.21009
 N1113 N 1.06518 0.28356 0.19575
 N1114 N 1.07745 0.29139 0.18797
 C1115 C 1.09727 0.31385 0.18610
 C1116 C 1.10866 0.32070 0.17929
 C1117 C 1.04593 0.28111 0.21863
 C1118 C 1.03513 0.27380 0.22589
 C1119 C 1.08329 0.80550 0.69490
 N1120 N 1.07737 0.79095 0.68890
 N1121 N 1.06509 0.78310 0.69665
 C1122 C 1.05837 0.78957 0.71064
 N1123 N 1.06429 0.80412 0.71663
 N1124 N 1.07657 0.81197 0.70887
 C1125 C 1.09673 0.81377 0.68673
 C1126 C 1.10812 0.82064 0.67996
 C1127 C 1.04538 0.78095 0.71917
 C1128 C 1.03458 0.77364 0.72642
 C1129 C 0.41671 0.69461 0.69429
 N1130 N 0.42351 0.70852 0.68773
 N1131 N 0.43579 0.71631 0.69554
 C1132 C 0.44164 0.71042 0.71015
 N1133 N 0.43486 0.69651 0.71670
 N1134 N 0.42258 0.68872 0.70889
 C1135 C 0.40327 0.68642 0.68606
 C1136 C 0.39187 0.67964 0.67922
 C1137 C 0.45463 0.71899 0.71872
 C1138 C 0.46543 0.72628 0.72600
 C1139 C 0.41669 0.19426 0.19437
 N1140 N 0.42332 0.20830 0.18792
 N1141 N 0.43563 0.21606 0.19569
 C1142 C 0.44169 0.21001 0.21015
 N1143 N 0.43507 0.19597 0.21659
 N1144 N 0.42276 0.18820 0.20882
 C1145 C 0.40321 0.18609 0.18617
 C1146 C 0.39178 0.17932 0.17936
 C1147 C 0.45472 0.21855 0.21870
 C1148 C 0.46555 0.22582 0.22596
 C1149 C -0.08330 0.69481 0.19458
 N1150 N -0.07684 0.70897 0.18823
 N1151 N -0.06457 0.71678 0.19602
 C1152 C -0.05838 0.71066 0.21039
 N1153 N -0.06483 0.69649 0.21673
 N1154 N -0.07710 0.68868 0.20894
 C1155 C -0.09674 0.68658 0.18636
 C1156 C -0.10813 0.67977 0.17954
 C1157 C -0.04539 0.71925 0.21895
 C1158 C -0.03458 0.72655 0.22622
 C1159 C -0.08353 0.19435 0.69450
 N1160 N -0.07648 0.20802 0.68772
 N1161 N -0.06421 0.21583 0.69552
 C1162 C -0.05862 0.21020 0.71033
 N1163 N -0.06566 0.19652 0.71711
 N1164 N -0.07793 0.18871 0.70931
 C1165 C -0.09696 0.18613 0.68627
 C1166 C -0.10836 0.17933 0.67943
 C1167 C -0.04564 0.21880 0.71889
 C1168 C -0.03484 0.22612 0.72615
 C1169 C 0.30528 0.41674 0.30617
 N1170 N 0.31209 0.42382 0.29255
 N1171 N 0.30430 0.43614 0.28475
 C1172 C 0.28947 0.44175 0.29034
 N1173 N 0.28267 0.43468 0.30397
 N1174 N 0.29046 0.42235 0.31177
 C1175 C 0.31351 0.40324 0.31437
 C1176 C 0.32033 0.39180 0.32115
 C1177 C 0.28092 0.45479 0.28175
 C1178 C 0.27366 0.46563 0.27444
 C1179 C 0.30573 -0.08400 0.80582
 N1180 N 0.31215 -0.07736 0.79179
 N1181 N 0.30434 -0.06502 0.78405
 C1182 C 0.28987 -0.05895 0.79009
 N1183 N 0.28346 -0.06559 0.80413
 N1184 N 0.29127 -0.07793 0.81188
 C1185 C 0.31397 -0.09751 0.81398
 C1186 C 0.32081 -0.10896 0.82075
 C1187 C 0.28129 -0.04589 0.78157
 C1188 C 0.27399 -0.03504 0.77432
 C1189 C 0.80570 0.41620 0.80600
 N1190 N 0.81208 0.42278 0.79192
 N1191 N 0.80428 0.43512 0.78417
 C1192 C 0.78987 0.44127 0.79026
 N1193 N 0.78349 0.43470 0.80434
 N1194 N 0.79129 0.42236 0.81210
 C1195 C 0.81393 0.40269 0.81416
 C1196 C 0.82076 0.39123 0.82092
 C1197 C 0.78130 0.45434 0.78173
 C1198 C 0.77403 0.46521 0.77448
 C1199 C 0.80582 -0.08387 0.30616
 N1200 N 0.81237 -0.07712 0.29225
 N1201 N 0.80458 -0.06478 0.28447
 C1202 C 0.79000 -0.05883 0.29038
 N1203 N 0.78346 -0.06558 0.30430
 N1204 N 0.79125 -0.07791 0.31208
 C1205 C 0.81404 -0.09737 0.31435
 C1206 C 0.82088 -0.10882 0.32113
 C1207 C 0.78145 -0.04577 0.28182
 C1208 C 0.77420 -0.03490 0.27455
 C1209 C 0.30533 0.58346 0.69399
 N1210 N 0.31192 0.57662 0.70785
 N1211 N 0.30413 0.56432 0.71564
 C1212 C 0.28951 0.55847 0.70979
 N1213 N 0.28293 0.56530 0.69591
 N1214 N 0.29072 0.57760 0.68813
 C1215 C 0.31356 0.59692 0.68580
 C1216 C 0.32039 0.60834 0.67901
 C1217 C 0.28096 0.54545 0.71835
 C1218 C 0.27371 0.53461 0.72563
 C1219 C 0.30554 1.08395 0.19382
 N1220 N 0.29102 1.07800 0.18784
 N1221 N 0.28321 1.06569 0.19561
 C1222 C 0.28969 1.05897 0.20958
 N1223 N 0.30422 1.06491 0.21555
 N1224 N 0.31203 1.07722 0.20778
 C1225 C 0.31378 1.09741 0.18564
 C1226 C 0.32063 1.10883 0.17885
 C1227 C 0.28112 1.04594 0.21812
 C1228 C 0.27386 1.03510 0.22538
 C1229 C 0.80572 0.58320 0.19421
 N1230 N 0.81197 0.57680 0.20844
 N1231 N 0.80420 0.56446 0.21619
 C1232 C 0.78994 0.55815 0.20995
 N1233 N 0.78370 0.56454 0.19572
 N1234 N 0.79147 0.57688 0.18797
 C1235 C 0.81391 0.59671 0.18605
 C1236 C 0.82069 0.60817 0.17928
 C1237 C 0.78139 0.54510 0.21848
 C1238 C 0.77413 0.53425 0.22573
 C1239 C 0.80582 1.08352 0.69454
 N1240 N 0.81223 1.07684 0.70856
 N1241 N 0.80439 1.06454 0.71631
 C1242 C 0.78991 1.05856 0.71028
 N1243 N 0.78350 1.06524 0.69625
 N1244 N 0.79134 1.07753 0.68850
 C1245 C 0.81408 1.09698 0.68638
 C1246 C 0.82093 1.10840 0.67961
 C1247 C 0.78130 1.04555 0.71880
 C1248 C 0.77399 1.03473 0.72606
 C1249 C 0.69454 0.58319 0.30539
 N1250 N 0.70855 0.57650 0.31184
 N1251 N 0.71633 0.56418 0.30402
 C1252 C 0.71034 0.55817 0.28952
 N1253 N 0.69633 0.56486 0.28308
 N1254 N 0.68854 0.57718 0.29089
 C1255 C 0.68634 0.59668 0.31363
 C1256 C 0.67953 0.60811 0.32047
 C1257 C 0.71890 0.54513 0.28095
 C1258 C 0.72617 0.53428 0.27366
 C1259 C 0.69418 1.08386 0.80547
 N1260 N 0.68748 1.07684 0.79176
 N1261 N 0.69530 1.06451 0.78399
 C1262 C 0.71005 1.05883 0.78969
 N1263 N 0.71675 1.06583 0.80342
 N1264 N 0.70893 1.07816 0.81119
 C1265 C 0.68592 1.09734 0.81366
 C1266 C 0.67908 1.10877 0.82047
 C1267 C 0.71863 1.04577 0.78115
 C1268 C 0.72591 1.03491 0.77389
 C1269 C 0.19424 0.58355 0.80545
 N1270 N 0.18623 0.57437 0.79388
 N1271 N 0.19404 0.56206 0.78607
 C1272 C 0.21009 0.55855 0.78960
 N1273 N 0.21809 0.56773 0.80118
 N1274 N 0.21028 0.58004 0.80899
 C1275 C 0.18594 0.59701 0.81364
 C1276 C 0.17907 0.60842 0.82045
 C1277 C 0.21861 0.54550 0.78099
 C1278 C 0.22586 0.53465 0.77369
 C1279 C 0.19436 1.08381 0.30537
 N1280 N 0.18757 1.07674 0.29173
 N1281 N 0.19537 1.06444 0.28390
 C1282 C 0.21021 1.05885 0.28946
 N1283 N 0.21700 1.06591 0.30311
 N1284 N 0.20920 1.07820 0.31095
 C1285 C 0.18612 1.09726 0.31362
 C1286 C 0.17927 1.10867 0.32045
 C1287 C 0.21877 1.04583 0.28084
 C1288 C 0.22604 1.03501 0.27351
 C1289 C 0.69453 0.41662 0.69468
 N1290 N 0.68824 0.42300 0.70890
 N1291 N 0.69602 0.43529 0.71673
 C1292 C 0.71032 0.44157 0.71057
 N1293 N 0.71661 0.43520 0.69634
 N1294 N 0.70883 0.42291 0.68852
 C1295 C 0.68633 0.40317 0.68643
 C1296 C 0.67953 0.39176 0.67959
 C1297 C 0.71887 0.45457 0.71917
 C1298 C 0.72614 0.46539 0.72648
 C1299 C 0.69407 -0.08340 0.19523
 N1300 N 0.70766 -0.07632 0.18836
 N1301 N 0.71553 -0.06406 0.19614
 C1302 C 0.71004 -0.05851 0.21102
 N1303 N 0.69644 -0.06558 0.21789
 N1304 N 0.68857 -0.07784 0.21011
 C1305 C 0.68579 -0.09682 0.18701
 C1306 C 0.67894 -0.10821 0.18017
 C1307 C 0.71869 -0.04552 0.21955
 C1308 C 0.72605 -0.03472 0.22678
 C1309 C 0.19421 0.41669 0.19479
 N1310 N 0.18760 0.42354 0.20865
 N1311 N 0.19538 0.43586 0.21643
 C1312 C 0.21001 0.44170 0.21059
 N1313 N 0.21661 0.43486 0.19673
 N1314 N 0.20883 0.42254 0.18895
 C1315 C 0.18600 0.40322 0.18659
 C1316 C 0.17920 0.39180 0.17978
 C1317 C 0.21854 0.45474 0.21915
 C1318 C 0.22580 0.46559 0.22641
 C1319 C 0.19403 -0.08380 0.69505
 N1320 N 0.20631 -0.07530 0.68736
 N1321 N 0.21412 -0.06301 0.69515
 C1322 C 0.20990 -0.05885 0.71087
 N1323 N 0.19761 -0.06734 0.71856
 N1324 N 0.18980 -0.07963 0.71077
 C1325 C 0.18583 -0.09723 0.68678
 C1326 C 0.17902 -0.10862 0.67991
 C1327 C 0.21851 -0.04583 0.71938
 C1328 C 0.22583 -0.03499 0.72660
 C1329 C 0.30555 0.30491 0.41711
 N1330 N 0.29326 0.31261 0.42562
 N1331 N 0.28547 0.30479 0.43790
 C1332 C 0.28975 0.28904 0.44204
 N1333 N 0.30205 0.28135 0.43354
 N1334 N 0.30983 0.28916 0.42126
 C1335 C 0.31372 0.31319 0.40368
 C1336 C 0.32050 0.32006 0.39229
 C1337 C 0.28115 0.28051 0.45505
 C1338 C 0.27385 0.27325 0.46586
 C1339 C 0.30564 0.80496 -0.08366
 N1340 N 0.29341 0.81272 -0.07511
 N1341 N 0.28562 0.80494 -0.06281
 C1342 C 0.28983 0.78917 -0.05868
 N1343 N 0.30206 0.78142 -0.06723
 N1344 N 0.30985 0.78919 -0.07953
 C1345 C 0.31381 0.81321 -0.09711
 C1346 C 0.32058 0.82006 -0.10851
 C1347 C 0.28124 0.78068 -0.04565
 C1348 C 0.27393 0.77346 -0.03482
 C1349 C 0.80571 0.30510 -0.08348
 N1350 N 0.79371 0.31295 -0.07469
 N1351 N 0.78595 0.30514 -0.06238
 C1352 C 0.78996 0.28926 -0.05850
 N1353 N 0.80197 0.28142 -0.06728
 N1354 N 0.80973 0.28922 -0.07958
 C1355 C 0.81385 0.31338 -0.09693
 C1356 C 0.82060 0.32024 -0.10834
 C1357 C 0.78139 0.28074 -0.04547
 C1358 C 0.77412 0.27348 -0.03464
 C1359 C 0.80591 0.80521 0.41688
 N1360 N 0.79350 0.81286 0.42527
 N1361 N 0.78574 0.80508 0.43759
 C1362 C 0.79015 0.78941 0.44188
 N1363 N 0.80257 0.78176 0.43349
 N1364 N 0.81032 0.78955 0.42118
 C1365 C 0.81405 0.81346 0.40341
 C1366 C 0.82080 0.82030 0.39198
 C1367 C 0.78159 0.78090 0.45492
 C1368 C 0.77430 0.77366 0.46576
 C1369 C 0.69455 0.30554 0.58302
 N1370 N 0.70840 0.31219 0.57624
 N1371 N 0.71622 0.30443 0.56392
 C1372 C 0.71042 0.28979 0.55802
 N1373 N 0.69656 0.28315 0.56479
 N1374 N 0.68875 0.29090 0.57711
 C1375 C 0.68633 0.31372 0.59651
 C1376 C 0.67952 0.32050 0.60795
 C1377 C 0.71903 0.28126 0.54500
 C1378 C 0.72636 0.27401 0.53418
 C1379 C 0.69368 0.80571 1.08347
 N1380 N 0.70719 0.81264 1.07631
 N1381 N 0.71500 0.80491 1.06397
 C1382 C 0.70953 0.79000 1.05843
 N1383 N 0.69601 0.78307 1.06558
 N1384 N 0.68820 0.79081 1.07792
 C1385 C 0.68548 0.81387 1.09698
 C1386 C 0.67869 0.82065 1.10843
 C1387 C 0.71814 0.78151 1.04538
 C1388 C 0.72546 0.77429 1.03454
 C1389 C 0.19402 0.30562 1.08312
 N1390 N 0.20784 0.31229 1.07628
 N1391 N 0.21562 0.30453 1.06394
 C1392 C 0.20981 0.28988 1.05806
 N1393 N 0.19599 0.28322 1.06489
 N1394 N 0.18821 0.29098 1.07723
 C1395 C 0.18584 0.31380 1.09664
 C1396 C 0.17907 0.32057 1.10810
 C1397 C 0.21839 0.28135 1.04502
 C1398 C 0.22568 0.27410 1.03417
 C1399 C 0.19424 0.80625 0.58338
 N1400 N 0.20836 0.81264 0.57691
 N1401 N 0.21613 0.80490 0.56455
 C1402 C 0.21001 0.79054 0.55829
 N1403 N 0.19588 0.78416 0.56475
 N1404 N 0.18811 0.79190 0.57711
 C1405 C 0.18607 0.81440 0.59691
 C1406 C 0.17929 0.82114 0.60839
 C1407 C 0.21856 0.78203 0.54522
 C1408 C 0.22583 0.77478 0.53435
 C1409 C 0.30568 0.69513 0.58292
 N1410 N 0.31012 0.71076 0.57859
 N1411 N 0.30233 0.71859 0.56631
 C1412 C 0.28987 0.71102 0.55798
 N1413 N 0.28543 0.69538 0.56230
 N1414 N 0.29322 0.68755 0.57458
 C1415 C 0.31385 0.68683 0.59636
 C1416 C 0.32062 0.67996 0.60776
 C1417 C 0.28127 0.71958 0.54498
 C1418 C 0.27396 0.72686 0.53418
 C1419 C 0.30558 0.19472 1.08302
 N1420 N 0.30965 0.21054 1.07901
 N1421 N 0.30186 0.21832 1.06670
 C1422 C 0.28978 0.21052 1.05803
 N1423 N 0.28572 0.19469 1.06203
 N1424 N 0.29351 0.18691 1.07435
 C1425 C 0.31374 0.18646 1.09649
 C1426 C 0.32050 0.17961 1.10792
 C1427 C 0.28118 0.21902 1.04499
 C1428 C 0.27387 0.22626 1.03416
 C1429 C 0.80557 0.69496 1.08327
 N1430 N 0.80992 0.71063 1.07898
 N1431 N 0.80210 0.71842 1.06669
 C1432 C 0.78971 0.71078 1.05832
 N1433 N 0.78537 0.69510 1.06261
 N1434 N 0.79319 0.68731 1.07490
 C1435 C 0.81377 0.68671 1.09672
 C1436 C 0.82058 0.67987 1.10812
 C1437 C 0.78109 0.71929 1.04531
 C1438 C 0.77376 0.72654 1.03449
 C1439 C 0.80638 0.19488 0.58326
 N1440 N 0.81058 0.21063 0.57908
 N1441 N 0.80280 0.21838 0.56674
 C1442 C 0.79059 0.21062 0.55822
 N1443 N 0.78640 0.19487 0.56239
 N1444 N 0.79418 0.18712 0.57473
 C1445 C 0.81454 0.18667 0.59676
 C1446 C 0.82129 0.17985 0.60820
 C1447 C 0.78199 0.21909 0.54516
 C1448 C 0.77468 0.22629 0.53430
 C1449 C 0.69445 0.69440 0.41697
 N1450 N 0.70832 0.68774 0.42374
 N1451 N 0.71612 0.69549 0.43605
 C1452 C 0.71028 0.71014 0.44196
 N1453 N 0.69641 0.71679 0.43519
 N1454 N 0.68861 0.70904 0.42288
 C1455 C 0.68624 0.68622 0.40349
 C1456 C 0.67944 0.67944 0.39206
 C1457 C 0.71887 0.71866 0.45498
 C1458 C 0.72618 0.72590 0.46580
 C1459 C 0.69419 0.19438 -0.08351
 N1460 N 0.70736 0.18715 -0.07596
 N1461 N 0.71516 0.19488 -0.06363
 C1462 C 0.71004 0.21007 -0.05849
 N1463 N 0.69686 0.21729 -0.06604
 N1464 N 0.68906 0.20956 -0.07836
 C1465 C 0.68600 0.18621 -0.09700
 C1466 C 0.67922 0.17942 -0.10844
 C1467 C 0.71865 0.21854 -0.04546
 C1468 C 0.72597 0.22575 -0.03463
 C1469 C 0.19413 0.69409 -0.08354
 N1470 N 0.20774 0.68724 -0.07644
 N1471 N 0.21552 0.69503 -0.06414
 C1472 C 0.20992 0.70990 -0.05857
 N1473 N 0.19631 0.71674 -0.06566
 N1474 N 0.18853 0.70896 -0.07796
 C1475 C 0.18596 0.68588 -0.09701
 C1476 C 0.17918 0.67906 -0.10844
 C1477 C 0.21850 0.71844 -0.04555
 C1478 C 0.22579 0.72571 -0.03474
 C1479 C 0.19419 0.19408 0.41674
 N1480 N 0.20771 0.18714 0.42393
 N1481 N 0.21546 0.19487 0.43629
 C1482 C 0.20992 0.20978 0.44182
 N1483 N 0.19640 0.21671 0.43464
 N1484 N 0.18865 0.20898 0.42228
 C1485 C 0.18605 0.18592 0.40321
 C1486 C 0.17931 0.17915 0.39174
 C1487 C 0.21847 0.21827 0.45489
 C1488 C 0.22574 0.22549 0.46575
 C1489 C 0.30549 0.41672 0.69412
 N1490 N 0.31200 0.42347 0.70806
 N1491 N 0.30420 0.43583 0.71581
 C1492 C 0.28966 0.44180 0.70986
 N1493 N 0.28316 0.43506 0.69591
 N1494 N 0.29096 0.42270 0.68816
 C1495 C 0.31371 0.40319 0.68597
 C1496 C 0.32053 0.39172 0.67922
 C1497 C 0.28109 0.45487 0.71839
 C1498 C 0.27381 0.46573 0.72566
 C1499 C 0.30550 0.91727 0.19349
 N1500 N 0.31228 0.92432 0.20715
 N1501 N 0.30451 0.93667 0.21494
 C1502 C 0.28971 0.94233 0.20932
 N1503 N 0.28293 0.93528 0.19566
 N1504 N 0.29071 0.92294 0.18786
 C1505 C 0.31370 0.90375 0.18531
 C1506 C 0.32051 0.89229 0.17853
 C1507 C 0.28118 0.95538 0.21791
 C1508 C 0.27393 0.96623 0.22522
 C1509 C 0.80586 0.41647 0.19398
 N1510 N 0.81221 0.42298 0.20809
 N1511 N 0.80440 0.43531 0.21588
 C1512 C 0.79001 0.44149 0.20978
 N1513 N 0.78366 0.43498 0.19566
 N1514 N 0.79147 0.42265 0.18787
 C1515 C 0.81409 0.40297 0.18578
 C1516 C 0.82092 0.39153 0.17899
 C1517 C 0.78143 0.45453 0.21835
 C1518 C 0.77415 0.46538 0.22563
 C1519 C 0.80554 0.91683 0.69453
 N1520 N 0.81212 0.92367 0.70840
 N1521 N 0.80432 0.93602 0.71615
 C1522 C 0.78971 0.94191 0.71028
 N1523 N 0.78314 0.93508 0.69641
 N1524 N 0.79093 0.92273 0.68866
 C1525 C 0.81376 0.90332 0.68637
 C1526 C 0.82059 0.89186 0.67960
 C1527 C 0.78115 0.95498 0.71882
 C1528 C 0.77388 0.96586 0.72607
 C1529 C 0.69458 0.58324 0.69499
 N1530 N 0.70842 0.57634 0.68838
 N1531 N 0.71619 0.56400 0.69618
 C1532 C 0.71035 0.55819 0.71082
 N1533 N 0.69650 0.56508 0.71741
 N1534 N 0.68873 0.57742 0.70962
 C1535 C 0.68640 0.59674 0.68675
 C1536 C 0.67961 0.60818 0.67992
 C1537 C 0.71889 0.54512 0.71937
 C1538 C 0.72615 0.53425 0.72663
 C1539 C 0.69475 0.08302 0.19489
 N1540 N 0.70632 0.07377 0.18691
 N1541 N 0.71409 0.06146 0.19475
 C1542 C 0.71054 0.05804 0.21081
 N1543 N 0.69896 0.06728 0.21878
 N1544 N 0.69119 0.07959 0.21094
 C1545 C 0.68658 0.09646 0.18655
 C1546 C 0.67978 0.10785 0.17966
 C1547 C 0.71910 0.04498 0.21935
 C1548 C 0.72637 0.03412 0.22662
 C1549 C 0.19426 0.58336 0.19446
 N1550 N 0.18745 0.57630 0.20809
 N1551 N 0.19523 0.56397 0.21591
 C1552 C 0.21005 0.55834 0.21032
 N1553 N 0.21686 0.56539 0.19667
 N1554 N 0.20908 0.57771 0.18886
 C1555 C 0.18605 0.59684 0.18624
 C1556 C 0.17924 0.60828 0.17943
 C1557 C 0.21859 0.54530 0.21892
 C1558 C 0.22584 0.53446 0.22623
 C1559 C 0.19418 0.08277 0.69486
 N1560 N 0.18769 0.07608 0.70884
 N1561 N 0.19550 0.06376 0.71662
 C1562 C 0.21003 0.05776 0.71066
 N1563 N 0.21651 0.06443 0.69668
 N1564 N 0.20870 0.07675 0.68890
 C1565 C 0.18594 0.09625 0.68666
 C1566 C 0.17912 0.10769 0.67985
 C1567 C 0.21860 0.04471 0.71922
 C1568 C 0.22589 0.03387 0.72649
 C1569 C 0.30535 0.58346 0.30570
 N1570 N 0.29085 0.57749 0.31170
 N1571 N 0.28306 0.56515 0.30397
 C1572 C 0.28953 0.55841 0.28999
 N1573 N 0.30403 0.56438 0.28400
 N1574 N 0.31183 0.57672 0.29173
 C1575 C 0.31357 0.59697 0.31384
 C1576 C 0.32038 0.60842 0.32059
 C1577 C 0.28097 0.54536 0.28148
 C1578 C 0.27370 0.53450 0.27424
 C1579 C 0.30578 0.08277 0.80564
 N1580 N 0.29213 0.07575 0.81245
 N1581 N 0.28433 0.06342 0.80471
 C1582 C 0.28994 0.05774 0.78992
 N1583 N 0.30360 0.06476 0.78312
 N1584 N 0.31140 0.07709 0.79086
 C1585 C 0.31398 0.09627 0.81382
 C1586 C 0.32078 0.10772 0.82060
 C1587 C 0.28135 0.04470 0.78143
 C1588 C 0.27405 0.03385 0.77421
 C1589 C 0.80566 0.58293 0.80627
 N1590 N 0.81225 0.57610 0.79239
 N1591 N 0.80446 0.56378 0.78461
 C1592 C 0.78985 0.55793 0.79047
 N1593 N 0.78327 0.56475 0.80436
 N1594 N 0.79106 0.57707 0.81214
 C1595 C 0.81388 0.59641 0.81445
 C1596 C 0.82069 0.60785 0.82122
 C1597 C 0.78130 0.54491 0.78191
 C1598 C 0.77403 0.53408 0.77462
 C1599 C 0.80640 0.08279 0.30579
 N1600 N 0.79265 0.07590 0.31254
 N1601 N 0.78481 0.06360 0.30481
 C1602 C 0.79048 0.05780 0.29009
 N1603 N 0.80424 0.06468 0.28334
 N1604 N 0.81208 0.07699 0.29108
 C1605 C 0.81464 0.09627 0.31395
 C1606 C 0.82147 0.10770 0.32072
 C1607 C 0.78185 0.04478 0.28159
 C1608 C 0.77450 0.03396 0.27438
 C1609 C 0.69455 0.41653 0.30517
 N1610 N 0.68840 0.42278 0.29083
 N1611 N 0.69619 0.43509 0.28305
 C1612 C 0.71035 0.44153 0.28937
 N1613 N 0.71649 0.43530 0.30372
 N1614 N 0.70870 0.42298 0.31150
 C1615 C 0.68635 0.40306 0.31337
 C1616 C 0.67955 0.39163 0.32018
 C1617 C 0.71890 0.45457 0.28083
 C1618 C 0.72618 0.46540 0.27357
 C1619 C 0.69408 0.91730 0.80559
 N1620 N 0.68777 0.92378 0.79143
 N1621 N 0.69558 0.93606 0.78363
 C1622 C 0.70994 0.94224 0.78976
 N1623 N 0.71625 0.93577 0.80393
 N1624 N 0.70844 0.92348 0.81172
 C1625 C 0.68584 0.90385 0.81380
 C1626 C 0.67901 0.89245 0.82062
 C1627 C 0.71853 0.95524 0.78120
 C1628 C 0.72582 0.96605 0.77392
 C1629 C 0.19451 0.41682 0.80535
 N1630 N 0.21128 0.41706 0.80456
 N1631 N 0.21909 0.42935 0.79677
 C1632 C 0.21036 0.44178 0.78954
 N1633 N 0.19358 0.44155 0.79033
 N1634 N 0.18577 0.42926 0.79812
 C1635 C 0.18613 0.40345 0.81354
 C1636 C 0.17921 0.39211 0.82036
 C1637 C 0.21879 0.45486 0.78095
 C1638 C 0.22599 0.46574 0.77367
 C1639 C 0.19476 0.91720 0.30504
 N1640 N 0.21123 0.91612 0.30189
 N1641 N 0.21903 0.92839 0.29407
 C1642 C 0.21061 0.94211 0.28917
 N1643 N 0.19414 0.94320 0.29232
 N1644 N 0.18633 0.93092 0.30014
 C1645 C 0.18637 0.90388 0.31330
 C1646 C 0.17943 0.89258 0.32018
 C1647 C 0.21902 0.95522 0.28059
 C1648 C 0.22619 0.96611 0.27331
 C1649 C 0.41695 0.30520 0.69446
 N1650 N 0.42296 0.31123 0.70894
 N1651 N 0.43529 0.30346 0.71672
 C1652 C 0.44198 0.28942 0.71026
 N1653 N 0.43597 0.28340 0.69577
 N1654 N 0.42364 0.29118 0.68799
 C1655 C 0.40346 0.31339 0.68625
 C1656 C 0.39202 0.32017 0.67944
 C1657 C 0.45502 0.28087 0.71881
 C1658 C 0.46586 0.27360 0.72608
 C1659 C 0.41687 0.80576 0.19386
 N1660 N 0.42328 0.81216 0.20801
 N1661 N 0.43558 0.80439 0.21584
 C1662 C 0.44184 0.78999 0.20976
 N1663 N 0.43543 0.78360 0.19561
 N1664 N 0.42313 0.79137 0.18778
 C1665 C 0.40340 0.81395 0.18562
 C1666 C 0.39198 0.82074 0.17878
 C1667 C 0.45485 0.78145 0.21838
 C1668 C 0.46567 0.77419 0.22570
 C1669 C 0.91750 0.30520 0.19407
 N1670 N 0.92380 0.31150 0.20831
 N1671 N 0.93612 0.30375 0.21612
 C1672 C 0.94252 0.28947 0.20991
 N1673 N 0.93624 0.28318 0.19566
 N1674 N 0.92391 0.29093 0.18786
 C1675 C 0.90400 0.31337 0.18585
 C1676 C 0.89255 0.32014 0.17904
 C1677 C 0.95556 0.28094 0.21850
 C1678 C 0.96640 0.27369 0.22579
 C1679 C 0.91699 0.80533 0.69486
 N1680 N 0.92275 0.81113 0.70954
 N1681 N 0.93506 0.80334 0.71733
 C1682 C 0.94199 0.78951 0.71068
 N1683 N 0.93624 0.78372 0.69600
 N1684 N 0.92393 0.79151 0.68821
 C1685 C 0.90352 0.81353 0.68664
 C1686 C 0.89209 0.82033 0.67982
 C1687 C 0.95502 0.78094 0.71922
 C1688 C 0.96586 0.77365 0.72648
 C1689 C 0.58319 0.30531 0.30542
 N1690 N 0.57694 0.29098 0.31160
 N1691 N 0.56462 0.28320 0.30383
 C1692 C 0.55818 0.28954 0.28966
 N1693 N 0.56442 0.30388 0.28350
 N1694 N 0.57674 0.31165 0.29126
 C1695 C 0.59668 0.31350 0.31360
 C1696 C 0.60811 0.32029 0.32037
 C1697 C 0.54515 0.28099 0.28112
 C1698 C 0.53432 0.27373 0.27386
 C1699 C 0.58268 0.80613 0.80568
 N1700 N 0.57650 0.81225 0.79130
 N1701 N 0.56423 0.80444 0.78351
 C1702 C 0.55775 0.79029 0.78987
 N1703 N 0.56392 0.78418 0.80425
 N1704 N 0.57620 0.79198 0.81204
 C1705 C 0.59613 0.81435 0.81389
 C1706 C 0.60754 0.82115 0.82069
 C1707 C 0.54477 0.78170 0.78130
 C1708 C 0.53397 0.77440 0.77402
 C1709 C 0.08257 0.30607 0.80550
 N1710 N 0.07669 0.31192 0.79089
 N1711 N 0.06439 0.30412 0.78313
 C1712 C 0.05759 0.29024 0.78974
 N1713 N 0.06346 0.28440 0.80436
 N1714 N 0.07576 0.29220 0.81212
 C1715 C 0.09604 0.31427 0.81368
 C1716 C 0.10747 0.32105 0.82048
 C1717 C 0.04458 0.28165 0.78122
 C1718 C 0.03376 0.27435 0.77397
 C1719 C 0.08279 0.80652 0.30560
 N1720 N 0.07648 0.81270 0.29130
 N1721 N 0.06419 0.80488 0.28354
 C1722 C 0.05784 0.79065 0.28984
 N1723 N 0.06414 0.78447 0.30414
 N1724 N 0.07643 0.79229 0.31190
 C1725 C 0.09624 0.81475 0.31377
 C1726 C 0.10766 0.82157 0.32056
 C1727 C 0.04484 0.78205 0.28131
 C1728 C 0.03403 0.77474 0.27406
 C1729 C 0.58313 0.69473 0.69451
 N1730 N 0.57629 0.68811 0.70835
 N1731 N 0.56395 0.69590 0.71610
 C1732 C 0.55808 0.71055 0.71025
 N1733 N 0.56491 0.71717 0.69640
 N1734 N 0.57725 0.70937 0.68865
 C1735 C 0.59664 0.68651 0.68635
 C1736 C 0.60809 0.67969 0.67959
 C1737 C 0.54502 0.71911 0.71879
 C1738 C 0.53416 0.72638 0.72605
 C1739 C 0.58319 0.19423 0.19409
 N1740 N 0.57610 0.18739 0.20769
 N1741 N 0.56377 0.19517 0.21548
 C1742 C 0.55817 0.21003 0.20990
 N1743 N 0.56525 0.21686 0.19629
 N1744 N 0.57757 0.20908 0.18850
 C1745 C 0.59669 0.18602 0.18591
 C1746 C 0.60814 0.17920 0.17914
 C1747 C 0.54513 0.21857 0.21848
 C1748 C 0.53430 0.22583 0.22579
 C1749 C 0.08296 0.69498 0.19440
 N1750 N 0.07652 0.68864 0.20856
 N1751 N 0.06422 0.69645 0.21636
 C1752 C 0.05798 0.71083 0.21023
 N1753 N 0.06441 0.71717 0.19607
 N1754 N 0.07672 0.70936 0.18827
 C1755 C 0.09642 0.68674 0.18619
 C1756 C 0.10784 0.67990 0.17938
 C1757 C 0.04496 0.71941 0.21881
 C1758 C 0.03413 0.72669 0.22610
 C1759 C 0.08276 0.19436 0.69465
 N1760 N 0.07660 0.18830 0.70905
 N1761 N 0.06428 0.19613 0.71681
 C1762 C 0.05776 0.21026 0.71040
 N1763 N 0.06392 0.21632 0.69599
 N1764 N 0.07623 0.20849 0.68824
 C1765 C 0.09624 0.18612 0.68648
 C1766 C 0.10767 0.17927 0.67969
 C1767 C 0.04472 0.21886 0.71892
 C1768 C 0.03388 0.22617 0.72616
 C1769 C 0.41675 0.69468 0.30530
 N1770 N 0.42366 0.70848 0.31197
 N1771 N 0.43597 0.71624 0.30419
 C1772 C 0.44175 0.71044 0.28951
 N1773 N 0.43484 0.69663 0.28285
 N1774 N 0.42253 0.68887 0.29063
 C1775 C 0.40327 0.68652 0.31351
 C1776 C 0.39184 0.67975 0.32032
 C1777 C 0.45478 0.71899 0.28098
 C1778 C 0.46561 0.72626 0.27373
 C1779 C 0.41712 0.19403 0.80565
 N1780 N 0.42347 0.20829 0.81190
 N1781 N 0.43579 0.21606 0.80413
 C1782 C 0.44212 0.20980 0.78987
 N1783 N 0.43577 0.19554 0.78362
 N1784 N 0.42346 0.18777 0.79140
 C1785 C 0.40363 0.18586 0.81383
 C1786 C 0.39220 0.17908 0.82062
 C1787 C 0.45514 0.21835 0.78132
 C1788 C 0.46596 0.22562 0.77405
 C1789 C 0.91712 0.69400 0.80599
 N1790 N 0.92396 0.70787 0.81257
 N1791 N 0.93628 0.71562 0.80478
 C1792 C 0.94211 0.70973 0.79016
 N1793 N 0.93528 0.69585 0.78358
 N1794 N 0.92297 0.68810 0.79138
 C1795 C 0.90364 0.68585 0.81421
 C1796 C 0.89220 0.67910 0.82103
 C1797 C 0.95513 0.71826 0.78160
 C1798 C 0.96595 0.72553 0.77433
 C1799 C 0.91771 0.19408 0.30544
 N1800 N 0.92438 0.20808 0.31193
 N1801 N 0.93668 0.21586 0.30413
 C1802 C 0.94266 0.20987 0.28961
 N1803 N 0.93600 0.19586 0.28313
 N1804 N 0.92371 0.18808 0.29093
 C1805 C 0.90426 0.18589 0.31367
 C1806 C 0.89285 0.17910 0.32049
 C1807 C 0.95567 0.21843 0.28105
 C1808 C 0.96648 0.22571 0.27378
 C1809 C 0.30559 0.30472 0.58335
 N1810 N 0.30955 0.28883 0.57945
 N1811 N 0.30175 0.28104 0.56717
 C1812 C 0.28975 0.28890 0.55841
 N1813 N 0.28579 0.30481 0.56229
 N1814 N 0.29360 0.31260 0.57458
 C1815 C 0.31378 0.31300 0.59678
 C1816 C 0.32057 0.31986 0.60816
 C1817 C 0.28114 0.28040 0.54539
 C1818 C 0.27383 0.27317 0.53456
 C1819 C 0.30564 0.80528 0.08264
 N1820 N 0.30966 0.78940 0.07872
 N1821 N 0.30187 0.78159 0.06644
 C1822 C 0.28982 0.78941 0.05771
 N1823 N 0.28580 0.80529 0.06162
 N1824 N 0.29359 0.81310 0.07390
 C1825 C 0.31381 0.81357 0.09606
 C1826 C 0.32060 0.82044 0.10745
 C1827 C 0.28122 0.78088 0.04471
 C1828 C 0.27391 0.77362 0.03390
 C1829 C 0.80614 0.30479 0.08288
 N1830 N 0.81053 0.28912 0.07855
 N1831 N 0.80272 0.28135 0.06625
 C1832 C 0.79029 0.28901 0.05793
 N1833 N 0.78591 0.30469 0.06225
 N1834 N 0.79372 0.31246 0.07455
 C1835 C 0.81433 0.31303 0.09633
 C1836 C 0.82112 0.31986 0.10774
 C1837 C 0.78167 0.28052 0.04491
 C1838 C 0.77434 0.27331 0.03409
 C1839 C 0.80600 0.80520 0.58337
 N1840 N 0.79325 0.81266 0.57534
 N1841 N 0.78548 0.80488 0.56302
 C1842 C 0.79023 0.78942 0.55836
 N1843 N 0.80299 0.78196 0.56638
 N1844 N 0.81075 0.78974 0.57870
 C1845 C 0.81414 0.81343 0.59685
 C1846 C 0.82090 0.82025 0.60829
 C1847 C 0.78165 0.78091 0.54533
 C1848 C 0.77436 0.77367 0.53450
 C1849 C 0.30555 0.69535 0.41659
 N1850 N 0.30962 0.71118 0.42058
 N1851 N 0.30183 0.71898 0.43289
 C1852 C 0.28975 0.71120 0.44157
 N1853 N 0.28569 0.69536 0.43759
 N1854 N 0.29348 0.68756 0.42528
 C1855 C 0.31372 0.68707 0.40313
 C1856 C 0.32050 0.68020 0.39172
 C1857 C 0.28116 0.71972 0.45461
 C1858 C 0.27387 0.72697 0.46546
 C1859 C 0.30563 0.19447 0.91669
 N1860 N 0.29183 0.18780 0.92356
 N1861 N 0.28401 0.19562 0.93584
 C1862 C 0.28976 0.21032 0.94163
 N1863 N 0.30357 0.21698 0.93477
 N1864 N 0.31139 0.20917 0.92249
 C1865 C 0.31386 0.18622 0.90325
 C1866 C 0.32068 0.17938 0.89185
 C1867 C 0.28116 0.21889 0.95463
 C1868 C 0.27385 0.22617 0.96544
 C1869 C 0.80568 0.69493 0.91705
 N1870 N 0.80960 0.71082 0.92092
 N1871 N 0.80178 0.71864 0.93319
 C1872 C 0.78979 0.71081 0.94197
 N1873 N 0.78587 0.69491 0.93811
 N1874 N 0.79370 0.68708 0.92584
 C1875 C 0.81388 0.68662 0.90364
 C1876 C 0.82069 0.67972 0.89226
 C1877 C 0.78116 0.71934 0.95497
 C1878 C 0.77382 0.72659 0.96578
 C1879 C 0.80655 0.19442 0.41684
 N1880 N 0.79294 0.18760 0.42392
 N1881 N 0.78512 0.19541 0.43620
 C1882 C 0.79068 0.21027 0.44178
 N1883 N 0.80430 0.21708 0.43471
 N1884 N 0.81212 0.20928 0.42242
 C1885 C 0.81477 0.18618 0.40339
 C1886 C 0.82157 0.17934 0.39197
 C1887 C 0.78206 0.21883 0.45477
 C1888 C 0.77473 0.22610 0.46558
 C1889 C 0.69459 0.30527 0.41656
 N1890 N 0.70800 0.31229 0.42385
 N1891 N 0.71581 0.30455 0.43617
 C1892 C 0.71046 0.28955 0.44157
 N1893 N 0.69705 0.28253 0.43429
 N1894 N 0.68923 0.29028 0.42198
 C1895 C 0.68638 0.31345 0.40308
 C1896 C 0.67957 0.32024 0.39165
 C1897 C 0.71907 0.28106 0.45461
 C1898 C 0.72639 0.27384 0.46545
 C1899 C 0.69382 0.80601 0.91699
 N1900 N 0.70732 0.81292 0.92420
 N1901 N 0.71511 0.80512 0.93651
 C1902 C 0.70963 0.79019 0.94197
 N1903 N 0.69612 0.78329 0.93476
 N1904 N 0.68833 0.79109 0.92246
 C1905 C 0.68563 0.81424 0.90352
 C1906 C 0.67884 0.82107 0.89210
 C1907 C 0.71822 0.78164 0.95498
 C1908 C 0.72552 0.77438 0.96580
 C1909 C 0.19382 0.30569 0.91670
 N1910 N 0.20721 0.31269 0.92403
 N1911 N 0.21503 0.30489 0.93631
 C1912 C 0.20968 0.28986 0.94164
 N1913 N 0.19628 0.28287 0.93432
 N1914 N 0.18847 0.29067 0.92203
 C1915 C 0.18561 0.31393 0.90325
 C1916 C 0.17881 0.32077 0.89184
 C1917 C 0.21829 0.28131 0.95464
 C1918 C 0.22561 0.27405 0.96545
 C1919 C 0.19393 0.80655 0.41688
 N1920 N 0.20771 0.81325 0.42377
 N1921 N 0.21552 0.80545 0.43606
 C1922 C 0.20979 0.79073 0.44183
 N1923 N 0.19601 0.78405 0.43495
 N1924 N 0.18820 0.79184 0.42266
 C1925 C 0.18572 0.81477 0.40342
 C1926 C 0.17893 0.82158 0.39199
 C1927 C 0.21840 0.78217 0.45483
 C1928 C 0.22571 0.77489 0.46563
 C1929 C 0.69460 0.69442 0.58342
 N1930 N 0.70864 0.68792 0.57684
 N1931 N 0.71642 0.69567 0.56452
 C1932 C 0.71040 0.71015 0.55840
 N1933 N 0.69635 0.71664 0.56498
 N1934 N 0.68856 0.70889 0.57730
 C1935 C 0.68640 0.68625 0.59691
 C1936 C 0.67960 0.67948 0.60834
 C1937 C 0.71896 0.71866 0.54537
 C1938 C 0.72624 0.72590 0.53453
 C1939 C 0.69463 0.19396 0.08299
 N1940 N 0.70876 0.18757 0.07649
 N1941 N 0.71653 0.19534 0.06418
 C1942 C 0.71039 0.20974 0.05798
 N1943 N 0.69625 0.21612 0.06446
 N1944 N 0.68849 0.20835 0.07678
 C1945 C 0.68645 0.18578 0.09647
 C1946 C 0.67966 0.17900 0.10791
 C1947 C 0.71893 0.21828 0.04495
 C1948 C 0.72620 0.22555 0.03411
 C1949 C 0.19405 0.69451 0.08292
 N1950 N 0.20752 0.68750 0.07568
 N1951 N 0.21531 0.69523 0.06335
 C1952 C 0.20987 0.71019 0.05789
 N1953 N 0.19639 0.71719 0.06512
 N1954 N 0.18860 0.70946 0.07745
 C1955 C 0.18587 0.68635 0.09642
 C1956 C 0.17908 0.67959 0.10787
 C1957 C 0.21846 0.71867 0.04484
 C1958 C 0.22576 0.72588 0.03400
 C1959 C 0.19399 0.19393 0.58336
 N1960 N 0.20766 0.18710 0.57634
 N1961 N 0.21546 0.19485 0.56403
 C1962 C 0.20981 0.20966 0.55835
 N1963 N 0.19613 0.21648 0.56536
 N1964 N 0.18834 0.20873 0.57768
 C1965 C 0.18580 0.18576 0.59684
 C1966 C 0.17901 0.17898 0.60828
 C1967 C 0.21839 0.21817 0.54533
 C1968 C 0.22569 0.22541 0.53450
   
