data_POSCAR
  _audit_creation_date              2014-09-24
  _audit_creation_method            'ToBaCCo'
  _symmetry_space_group_name_H-M    'P1'
  _symmetry_Int_Tables_number       1
  _symmetry_cell_setting            triclinic
  loop_
  _symmetry_equiv_pos_as_xyz
 x,y,z
_cell_length_a 41.2718
_cell_length_b 41.2135
_cell_length_c 41.1779
_cell_angle_alpha 89.189000
_cell_angle_beta 89.706400
_cell_angle_gamma 90.399000
loop_
  _atom_site_label
  _atom_site_type_symbol
  _atom_site_fract_x
  _atom_site_fract_y
  _atom_site_fract_z
C1 C 0.11173 -0.00565 0.22264
 C2 C 0.13196 0.02527 0.22557
 C3 C 0.15049 0.02626 0.25254
 C4 C 0.14741 -0.00383 0.27467
 C5 C 0.13617 -0.03336 0.22527
 C6 C 0.15496 -0.03231 0.25227
 C7 C 0.09231 -0.00819 0.25452
 C8 C 0.11091 -0.00705 0.28171
 H9 H 0.13130 0.04504 0.20794
 H10 H 0.16296 -0.00302 0.29658
 H11 H 0.13755 -0.05289 0.20802
 H12 H 0.06629 -0.01042 0.25577
 C13 C 0.38934 0.00091 0.72467
 C14 C 0.36396 -0.02567 0.72850
 C15 C 0.34531 -0.02313 0.75540
 C16 C 0.35418 0.00615 0.77680
 C17 C 0.37064 0.03259 0.72656
 C18 C 0.35291 0.03626 0.75398
 C19 C 0.40807 -0.00027 0.75464
 C20 C 0.38884 0.00256 0.78396
 H21 H 0.36299 -0.04660 0.71285
 H22 H 0.33744 0.00799 0.79764
 H23 H 0.37249 0.05078 0.70770
 H24 H 0.43415 0.00079 0.75451
 C25 C 0.89162 0.48804 0.21941
 C26 C 0.86346 0.46448 0.22457
 C27 C 0.84454 0.47095 0.25050
 C28 C 0.85557 0.50095 0.26963
 C29 C 0.87629 0.52158 0.21806
 C30 C 0.85769 0.52900 0.24429
 C31 C 0.90992 0.48706 0.25183
 C32 C 0.89130 0.49440 0.27818
 H33 H 0.86055 0.44249 0.21070
 H34 H 0.84010 0.50591 0.29101
 H35 H 0.88084 0.53803 0.19797
 H36 H 0.93509 0.48073 0.25369
 C37 C 0.60850 0.49476 0.71420
 C38 C 0.62955 0.52527 0.71517
 C39 C 0.64829 0.52737 0.74194
 C40 C 0.64467 0.49858 0.76580
 C41 C 0.63206 0.46655 0.71845
 C42 C 0.65128 0.46858 0.74502
 C43 C 0.58923 0.49460 0.74624
 C44 C 0.60808 0.49672 0.77334
 H45 H 0.62883 0.54423 0.69668
 H46 H 0.66047 0.50024 0.78746
 H47 H 0.63241 0.44578 0.70264
 H48 H 0.56309 0.49317 0.74729
 C49 C 0.21763 0.10756 1.00191
 C50 C 0.21912 0.13083 1.03027
 C51 C 0.24643 0.14911 1.03116
 C52 C 0.27053 0.14239 1.00361
 C53 C 0.22332 0.12873 0.97147
 C54 C 0.25094 0.14682 0.97237
 C55 C 0.24878 0.08739 1.00459
 C56 C 0.27656 0.10558 1.00543
 H57 H 0.20111 0.13092 1.04952
 H58 H 0.29274 0.15772 1.00418
 H59 H 0.20807 0.12784 0.95022
 H60 H 0.24902 0.06123 1.00421
 C61 C 0.72163 0.38948 0.98870
 C62 C 0.72527 0.36248 0.96679
 C63 C 0.75247 0.34253 0.97338
 C64 C 0.77191 0.35394 1.00090
 C65 C 0.72156 0.37533 1.02115
 C66 C 0.74921 0.35576 1.02867
 C67 C 0.75232 0.40719 0.98583
 C68 C 0.78042 0.38807 0.99360
 H69 H 0.71232 0.36088 0.94399
 H70 H 0.79316 0.33840 1.00536
 H71 H 0.70133 0.37839 1.03743
 H72 H 0.75405 0.43177 0.97642
 C73 C 0.22021 0.89424 0.48818
 C74 C 0.22537 0.86699 0.46423
 C75 C 0.25182 0.84869 0.47000
 C76 C 0.27148 0.85952 0.49993
 C77 C 0.22020 0.87798 0.52166
 C78 C 0.24700 0.86019 0.52858
 C79 C 0.25221 0.91376 0.48679
 C80 C 0.27912 0.89579 0.49366
 H81 H 0.21128 0.86466 0.44222
 H82 H 0.29325 0.84457 0.50456
 H83 H 0.20094 0.88228 0.53871
 H84 H 0.25357 0.93947 0.48148
 C85 C 0.72053 0.61487 0.49160
 C86 C 0.72143 0.63572 0.52181
 C87 C 0.74921 0.65287 0.52531
 C88 C 0.77431 0.64752 0.49826
 C89 C 0.72821 0.63817 0.46317
 C90 C 0.75628 0.65512 0.46665
 C91 C 0.75090 0.59345 0.49393
 C92 C 0.77917 0.61048 0.49737
 H93 H 0.70242 0.63522 0.54006
 H94 H 0.79684 0.66207 0.50093
 H95 H 0.71441 0.63882 0.44086
 H96 H 0.75009 0.56738 0.49185
 C97 C -0.00831 0.21515 0.11190
 C98 C 0.02011 0.21367 0.13513
 C99 C 0.02498 0.24104 0.15221
 C100 C 0.00015 0.26791 0.14501
 C101 C -0.03758 0.22422 0.13279
 C102 C -0.03325 0.25173 0.15017
 C103 C -0.00218 0.24562 0.09078
 C104 C 0.00195 0.27355 0.10780
 H105 H 0.03698 0.19361 0.13565
 H106 H 0.00350 0.28966 0.16013
 H107 H -0.06081 0.21194 0.13137
 H108 H -0.00305 0.24507 0.06467
 C109 C 0.00100 0.72284 0.38756
 C110 C -0.02551 0.72279 0.36507
 C111 C -0.02856 0.75157 0.34597
 C112 C -0.00350 0.77604 0.35311
 C113 C 0.03124 0.73055 0.36699
 C114 C 0.02920 0.75845 0.34917
 C115 C -0.00341 0.75349 0.40806
 C116 C -0.00483 0.78174 0.39018
 H117 H -0.04419 0.70434 0.36631
 H118 H -0.00498 0.79848 0.33798
 H119 H 0.05330 0.71654 0.36844
 H120 H -0.00140 0.75306 0.43422
 C121 C 0.49342 0.21819 0.89251
 C122 C 0.46532 0.22544 0.86981
 C123 C 0.46957 0.25205 0.85073
 C124 C 0.50219 0.26958 0.85580
 C125 C 0.52341 0.21677 0.87085
 C126 C 0.52848 0.24343 0.85161
 C127 C 0.49784 0.24972 0.91173
 C128 C 0.50273 0.27673 0.89246
 H129 H 0.44256 0.21214 0.87081
 H130 H 0.50559 0.29117 0.83973
 H131 H 0.54080 0.19737 0.87335
 H132 H 0.49643 0.25085 0.93786
 C133 C 0.49708 0.72254 0.60952
 C134 C 0.52638 0.72358 0.63161
 C135 C 0.52844 0.75064 0.64964
 C136 C 0.50075 0.77481 0.64421
 C137 C 0.46779 0.72777 0.63172
 C138 C 0.46962 0.75500 0.64982
 C139 C 0.49913 0.75411 0.58915
 C140 C 0.50067 0.78165 0.60730
 H141 H 0.54542 0.70559 0.63102
 H142 H 0.50231 0.79670 0.65954
 H143 H 0.44581 0.71332 0.63034
 H144 H 0.49720 0.75458 0.56299
 C145 C 0.88754 0.99931 0.78353
 C146 C 0.87171 1.03023 0.77870
 C147 C 0.85256 1.03248 0.74990
 C148 C 0.85286 1.00283 0.73090
 C149 C 0.86080 0.97372 0.78191
 C150 C 0.84278 0.97514 0.75451
 C151 C 0.90721 0.99463 0.75214
 C152 C 0.88930 0.99702 0.72438
 H153 H 0.87549 1.05053 0.79474
 H154 H 0.83786 1.00416 0.70866
 H155 H 0.85957 0.95320 0.79865
 H156 H 0.93310 0.99163 0.75141
 C157 C 0.38632 0.51081 0.27641
 C158 C 0.36160 0.53714 0.26818
 C159 C 0.34401 0.53107 0.24112
 C160 C 0.35276 0.49910 0.22438
 C161 C 0.36684 0.47924 0.27827
 C162 C 0.34913 0.47317 0.25143
 C163 C 0.40682 0.50845 0.24541
 C164 C 0.38969 0.50173 0.21803
 H165 H 0.35933 0.55951 0.28148
 H166 H 0.33794 0.49391 0.20266
 H167 H 0.36827 0.46238 0.29861
 H168 H 0.43250 0.51367 0.24524
 C169 C 0.60882 1.00698 0.28284
 C170 C 0.62262 0.97302 0.27922
 C171 C 0.64201 0.96862 0.25278
 C172 C 0.64455 0.99982 0.23115
 C173 C 0.63619 1.02867 0.28106
 C174 C 0.65567 1.02547 0.25285
 C175 C 0.59020 1.01213 0.25091
 C176 C 0.60860 1.00752 0.22354
 H177 H 0.61443 0.95345 0.29492
 H178 H 0.66031 0.99720 0.20954
 H179 H 0.63908 1.04882 0.29750
 H180 H 0.56443 1.01595 0.25007
 C181 C 0.10531 0.51545 0.77862
 C182 C 0.12142 0.48234 0.78006
 C183 C 0.13962 0.47515 0.75358
 C184 C 0.14046 0.50255 0.72769
 C185 C 0.13276 0.53964 0.77224
 C186 C 0.15118 0.53307 0.74593
 C187 C 0.08609 0.51537 0.74668
 C188 C 0.10439 0.50837 0.71988
 H189 H 0.11802 0.46572 0.80044
 H190 H 0.15580 0.49710 0.70629
 H191 H 0.13574 0.56176 0.78589
 H192 H 0.06072 0.52110 0.74549
 C193 C 0.77631 0.88711 0.00609
 C194 C 0.76710 0.86422 0.03430
 C195 C 0.73965 0.84665 0.02905
 C196 C 0.72387 0.85345 -0.00406
 C197 C 0.77818 0.86565 -0.02367
 C198 C 0.75096 0.84814 -0.02902
 C199 C 0.74586 0.90778 0.00139
 C200 C 0.71819 0.89045 -0.00428
 H201 H 0.77900 0.86452 0.05768
 H202 H 0.70229 0.83821 -0.00871
 H203 H 0.79901 0.86522 -0.03979
 H204 H 0.74620 0.93363 0.00523
 C205 C 0.28105 0.39197 0.49321
 C206 C 0.27883 0.37442 0.52595
 C207 C 0.25146 0.35624 0.53041
 C208 C 0.22845 0.35717 0.50111
 C209 C 0.27677 0.36565 0.46807
 C210 C 0.24958 0.34752 0.47195
 C211 C 0.24966 0.41164 0.49098
 C212 C 0.22191 0.39375 0.49567
 H213 H 0.29720 0.37704 0.54447
 H214 H 0.20678 0.34158 0.50438
 H215 H 0.29254 0.36341 0.44708
 H216 H 0.24930 0.43705 0.48436
 C217 C 0.28147 0.60288 0.00423
 C218 C 0.27913 0.62117 -0.02816
 C219 C 0.25226 0.63977 -0.03141
 C220 C 0.23023 0.63924 -0.00102
 C221 C 0.27889 0.62875 0.03005
 C222 C 0.25236 0.64771 0.02772
 C223 C 0.24919 0.58387 0.00668
 C224 C 0.22219 0.60284 0.00362
 H225 H 0.29594 0.61720 -0.04798
 H226 H 0.20891 0.65532 -0.00343
 H227 H 0.29530 0.62991 0.05049
 H228 H 0.24786 0.55786 0.00847
 C229 C 0.78110 0.10756 0.51235
 C230 C 0.77950 0.12176 0.47997
 C231 C 0.75226 0.14199 0.47396
 C232 C 0.73130 0.14475 0.50294
 C233 C 0.77941 0.13452 0.53449
 C234 C 0.75259 0.15549 0.52937
 C235 C 0.75003 0.09063 0.51666
 C236 C 0.72212 0.11091 0.51100
 H237 H 0.79870 0.11865 0.46249
 H238 H 0.71063 0.16124 0.49913
 H239 H 0.79241 0.13454 0.55728
 H240 H 0.74754 0.06622 0.52623
 C241 C 0.99665 0.78015 0.88919
 C242 C 1.02558 0.77914 0.86584
 C243 C 1.02773 0.75144 0.84845
 C244 C 0.99968 0.72753 0.85475
 C245 C 0.96751 0.77497 0.86718
 C246 C 0.96885 0.74758 0.84960
 C247 C 0.99909 0.74882 0.90961
 C248 C 1.00086 0.72115 0.89171
 H249 H 1.04443 0.79755 0.86495
 H250 H 1.00100 0.70554 0.83957
 H251 H 0.94716 0.79133 0.86553
 H252 H 0.99936 0.74892 0.93588
 C253 C 0.50584 0.28762 0.38595
 C254 C 0.53352 0.28060 0.36229
 C255 C 0.53021 0.25216 0.34624
 C256 C 0.49912 0.23326 0.35511
 C257 C 0.47506 0.28565 0.36590
 C258 C 0.47149 0.25753 0.34977
 C259 C 0.50486 0.25735 0.40830
 C260 C 0.50116 0.22867 0.39234
 H261 H 0.55591 0.29449 0.36175
 H262 H 0.49583 0.21070 0.34116
 H263 H 0.45659 0.30421 0.36614
 H264 H 0.50911 0.25871 0.43410
 C265 C 1.00714 0.27921 0.60822
 C266 C 0.97409 0.27674 0.62492
 C267 C 0.96951 0.24919 0.64287
 C268 C 0.99901 0.22665 0.64331
 C269 C 1.03195 0.27497 0.63518
 C270 C 1.02774 0.24795 0.65373
 C271 C 1.00966 0.24769 0.58869
 C272 C 1.00505 0.22001 0.60701
 H273 H 0.95505 0.29425 0.62070
 H274 H 0.99535 0.20467 0.65880
 H275 H 1.05316 0.29047 0.63726
 H276 H 1.01421 0.24736 0.56296
 C277 C 0.49558 0.77432 0.11239
 C278 C 0.46461 0.76702 0.13166
 C279 C 0.46522 0.73885 0.14910
 C280 C 0.49737 0.72042 0.14616
 C281 C 0.52281 0.77314 0.13719
 C282 C 0.52408 0.74515 0.15473
 C283 C 0.50006 0.74378 0.09167
 C284 C 0.50073 0.71528 0.10919
 H285 H 0.44271 0.78112 0.12879
 H286 H 0.49779 0.69807 0.16144
 H287 H 0.54110 0.79203 0.13899
 H288 H 0.49934 0.74466 0.06556
 O289 O -0.02125 0.90372 0.98619
 O290 O -0.00307 0.90124 1.04071
 O291 O -0.09445 0.97689 0.98974
 O292 O -0.09892 1.02867 1.00005
 O293 O -0.02090 0.97875 0.91307
 O294 O 0.03357 0.99559 0.91093
 O295 O -0.01044 1.06393 1.06943
 O296 O -0.05911 1.03623 1.07636
 O297 O 0.06145 0.99044 1.07384
 O298 O 0.07142 0.94120 1.04676
 O299 O 0.06614 1.06092 0.99972
 O300 O 0.03901 1.07152 0.95064
 O301 O 0.01293 1.08671 1.02446
 O302 O -0.00363 1.08745 0.96568
 O303 O 0.08803 1.01551 1.02211
 O304 O 0.08858 0.95740 1.00424
 O305 O 0.01658 1.01309 1.09594
 O306 O -0.03882 0.99346 1.09909
 O307 O 0.00527 0.92553 0.94233
 O308 O 0.05441 0.95628 0.93339
 O309 O -0.06626 1.00089 0.93466
 O310 O -0.07128 1.05285 0.96331
 O311 O -0.07338 0.93173 1.01356
 O312 O -0.04328 0.92244 1.06191
 Zr313 Zr -0.02389 0.94259 1.01842
 O314 O 0.00557 0.97031 1.04897
 Zr315 Zr -0.05493 1.00842 0.98364
 O316 O -0.02773 1.03898 1.01361
 Zr317 Zr 0.01084 0.97500 0.95256
 O318 O 0.04114 1.00488 0.98021
 Zr319 Zr -0.01655 1.01511 1.05748
 O320 O -0.04777 0.98605 1.02943
 Zr321 Zr 0.04929 0.98240 1.02538
 O322 O 0.02167 0.95077 0.99639
 Zr323 Zr 0.01748 1.04830 0.99159
 O324 O -0.01115 1.02022 0.95981
 O325 O -0.03392 0.96401 0.97357
 O326 O 0.02828 1.02695 1.03645
 C327 C -0.00764 0.90173 0.95825
 C328 C -0.09715 0.94848 1.00262
 C329 C -0.04968 0.99010 0.91074
 C330 C 0.00045 1.08839 1.05305
 C331 C 0.04549 1.00199 1.09776
 C332 C 0.09013 1.04463 1.01091
 H333 H 0.00936 0.95788 1.06927
 H334 H 0.06147 1.00883 0.96794
 H335 H -0.04793 0.95012 0.96001
 H336 H -0.04032 1.05893 1.01727
 H337 H -0.07768 1.02393 1.06746
 H338 H -0.09373 1.04220 1.01898
 H339 H 0.09633 0.97030 0.98526
 H340 H 0.06253 0.94026 0.94947
 H341 H -0.02728 0.97318 1.10457
 H342 H -0.05806 0.93888 1.07095
 H343 H 0.05297 1.05543 0.93991
 H344 H 0.02531 1.01801 0.90876
 H345 H 0.01890 0.89905 1.03125
 H346 H 0.05517 0.93047 1.06107
 H347 H -0.05656 1.05853 0.94500
 H348 H -0.02304 1.09435 0.97790
 O349 O 0.48512 0.41580 0.47298
 O350 O 0.49852 0.41204 0.52857
 O351 O 0.40739 0.48784 0.47836
 O352 O 0.40289 0.53861 0.49446
 O353 O 0.47980 0.49551 0.40217
 O354 O 0.53513 0.51208 0.40078
 O355 O 0.49334 0.57290 0.56144
 O356 O 0.44246 0.54456 0.56636
 O357 O 0.56289 0.49832 0.56380
 O358 O 0.57140 0.44860 0.53041
 O359 O 0.56823 0.57215 0.49032
 O360 O 0.53802 0.58311 0.44049
 O361 O 0.51644 0.59722 0.51716
 O362 O 0.49929 0.60203 0.46087
 O363 O 0.59036 0.52642 0.51178
 O364 O 0.59380 0.47202 0.49486
 O365 O 0.51816 0.52045 0.58665
 O366 O 0.46575 0.50306 0.59051
 O367 O 0.50653 0.44011 0.42783
 O368 O 0.55493 0.47038 0.41990
 O369 O 0.43476 0.51643 0.42563
 O370 O 0.42893 0.56538 0.45676
 O371 O 0.43011 0.44104 0.49680
 O372 O 0.45717 0.43193 0.54762
 Zr373 Zr 0.47858 0.45360 0.50580
 O374 O 0.50783 0.48022 0.53750
 Zr375 Zr 0.44650 0.52045 0.47477
 O376 O 0.47429 0.55015 0.50513
 Zr377 Zr 0.51219 0.48894 0.44096
 O378 O 0.54288 0.51715 0.46988
 Zr379 Zr 0.48582 0.52466 0.54788
 O380 O 0.45441 0.49614 0.51933
 Zr381 Zr 0.55153 0.49323 0.51436
 O382 O 0.52387 0.46309 0.48373
 Zr383 Zr 0.51934 0.56009 0.48296
 O384 O 0.48991 0.53350 0.45077
 O385 O 0.46788 0.47680 0.46204
 O386 O 0.53058 0.53729 0.52710
 C387 C 0.49703 0.41498 0.44418
 C388 C 0.40585 0.45784 0.48706
 C389 C 0.45112 0.50740 0.40085
 C390 C 0.50470 0.59780 0.54604
 C391 C 0.54667 0.50844 0.58834
 C392 C 0.59242 0.55561 0.50061
 H393 H 0.51143 0.46691 0.55728
 H394 H 0.56311 0.52143 0.45756
 H395 H 0.45439 0.46340 0.44751
 H396 H 0.46198 0.57005 0.50978
 H397 H 0.42444 0.53030 0.55937
 H398 H 0.40878 0.55348 0.51215
 H399 H 0.59699 0.48110 0.47270
 H400 H 0.56413 0.45497 0.43599
 H401 H 0.46980 0.47951 0.58957
 H402 H 0.44031 0.44704 0.55530
 H403 H 0.55562 0.56942 0.43193
 H404 H 0.52593 0.53415 0.39912
 H405 H 0.52107 0.41036 0.52052
 H406 H 0.55903 0.44116 0.54980
 H407 H 0.44462 0.57331 0.44014
 H408 H 0.47855 0.60665 0.47197
 O409 O 0.43061 -0.05928 0.49648
 O410 O 0.46018 -0.06428 0.44617
 O411 O 0.50688 -0.06513 0.56693
 O412 O 0.55385 -0.03912 0.57582
 O413 O 0.43551 0.00890 0.57374
 O414 O 0.42646 0.05936 0.54632
 O415 O 0.59123 0.02846 0.48819
 O416 O 0.59235 -0.02765 0.50455
 O417 O 0.51838 0.02787 0.41240
 O418 O 0.46310 0.01010 0.41003
 O419 O 0.51522 0.09950 0.48540
 O420 O 0.49870 0.09878 0.54296
 O421 O 0.56841 0.07324 0.50995
 O422 O 0.53856 0.07946 0.56084
 O423 O 0.49431 0.07771 0.43959
 O424 O 0.44218 0.04727 0.43279
 O425 O 0.56419 0.00663 0.43409
 O426 O 0.57497 -0.04228 0.45708
 O427 O 0.40804 -0.01506 0.51964
 O428 O 0.40592 0.04111 0.50453
 O429 O 0.48106 -0.01312 0.59534
 O430 O 0.53593 0.00640 0.59592
 O431 O 0.48342 -0.08580 0.52180
 O432 O 0.50114 -0.08581 0.46627
 Zr433 Zr 0.47963 -0.04595 0.48969
 O434 O 0.50869 -0.01616 0.45944
 Zr435 Zr 0.51310 -0.01547 0.55573
 O436 O 0.54351 0.01580 0.52829
 Zr437 Zr 0.44688 0.01797 0.52468
 O438 O 0.47443 0.05067 0.49592
 Zr439 Zr 0.55234 -0.00431 0.48265
 O440 O 0.52500 -0.03774 0.51149
 Zr441 Zr 0.48605 0.02875 0.45173
 O442 O 0.45505 -0.00256 0.47894
 Zr443 Zr 0.51951 0.05957 0.51777
 O444 O 0.49028 0.02967 0.54863
 O445 O 0.46876 -0.02623 0.53453
 O446 O 0.53078 0.04036 0.47253
 C447 C 0.40623 -0.04377 0.50788
 C448 C 0.49495 -0.08873 0.55060
 C449 C 0.45204 -0.00244 0.59765
 C450 C 0.59300 0.05728 0.49965
 C451 C 0.54760 0.01785 0.41017
 C452 C 0.50478 0.10173 0.45608
 H453 H 0.51257 -0.02754 0.43883
 H454 H 0.46190 0.07079 0.49273
 H455 H 0.45499 -0.04076 0.54820
 H456 H 0.56379 0.01922 0.54046
 H457 H 0.58410 -0.04789 0.51504
 H458 H 0.57342 -0.02916 0.56583
 H459 H 0.43595 0.06629 0.44575
 H460 H 0.40360 0.03283 0.48221
 H461 H 0.55761 -0.05653 0.44888
 H462 H 0.52232 -0.08947 0.47686
 H463 H 0.47779 0.10392 0.53252
 H464 H 0.44295 0.06793 0.56139
 H465 H 0.44390 -0.04839 0.43858
 H466 H 0.47266 -0.01133 0.40559
 H467 H 0.52506 0.02741 0.59938
 H468 H 0.55613 0.06510 0.56848
 O469 O -0.06168 0.49636 1.07211
 O470 O -0.07201 0.54796 1.04776
 O471 O -0.06860 0.43077 0.99442
 O472 O -0.04443 0.42275 0.94691
 O473 O 0.01159 0.42645 1.06205
 O474 O 0.06055 0.45617 1.06701
 O475 O 0.01243 0.52119 0.90736
 O476 O -0.03966 0.50084 0.90725
 O477 O 0.01613 0.59038 0.98105
 O478 O 0.00188 0.59270 1.03563
 O479 O 0.08967 0.52101 0.97758
 O480 O 0.09331 0.46331 0.99034
 O481 O 0.06033 0.50212 0.92652
 O482 O 0.07060 0.44688 0.95114
 O483 O 0.06845 0.56412 1.00378
 O484 O 0.03786 0.56759 1.05796
 O485 O -0.00834 0.56980 0.93648
 O486 O -0.06217 0.54080 0.93386
 O487 O -0.01382 0.47730 1.09146
 O488 O 0.04136 0.49632 1.08997
 O489 O -0.01239 0.40488 1.01765
 O490 O 0.00383 0.40801 0.95977
 O491 O -0.09065 0.47499 1.01817
 O492 O -0.09358 0.53204 1.00567
 Zr493 Zr -0.05195 0.50804 1.02324
 O494 O -0.02629 0.54169 0.99385
 Zr495 Zr -0.01997 0.44486 0.98590
 O496 O 0.00618 0.47589 0.95387
 Zr497 Zr 0.01636 0.47588 1.05039
 O498 O 0.04504 0.50718 1.02140
 Zr499 Zr -0.01727 0.52072 0.94861
 O500 O -0.04586 0.48808 0.97688
 Zr501 Zr 0.01988 0.55059 1.01322
 O502 O -0.00767 0.52052 1.04522
 Zr503 Zr 0.05101 0.48762 0.97490
 O504 O 0.02612 0.45397 1.00557
 O505 O -0.02876 0.46407 1.03134
 O506 O 0.02837 0.53199 0.96721
 C507 C -0.04352 0.48554 1.09499
 C508 C -0.09274 0.44636 1.00630
 C509 C 0.00049 0.40241 1.04599
 C510 C 0.04240 0.51408 0.90395
 C511 C 0.00478 0.59317 0.95216
 C512 C 0.09209 0.54926 0.99018
 H513 H -0.03878 0.56197 0.99179
 H514 H 0.06589 0.51064 1.03259
 H515 H -0.04161 0.44892 1.04524
 H516 H 0.00872 0.46539 0.93258
 H517 H -0.05647 0.48544 0.91532
 H518 H -0.03896 0.43548 0.92708
 H519 H 0.05878 0.55673 1.06206
 H520 H 0.03044 0.51696 1.09505
 H521 H -0.06594 0.56095 0.94604
 H522 H -0.09715 0.52422 0.98334
 H523 H 0.09866 0.47142 1.01217
 H524 H 0.06843 0.44164 1.04977
 H525 H -0.05512 0.55592 1.06273
 H526 H -0.02198 0.59189 1.03393
 H527 H 0.02522 0.40482 0.97005
 H528 H 0.05691 0.44215 0.93212
 O529 O 0.09204 0.48141 0.51101
 O530 O 0.09371 0.53695 0.49537
 O531 O 0.02043 0.48397 0.58902
 O532 O -0.03186 0.49294 0.59481
 O533 O 0.01842 0.40841 0.51466
 O534 O -0.00094 0.40758 0.46088
 O535 O -0.06849 0.56586 0.50535
 O536 O -0.04118 0.57044 0.55487
 O537 O 0.00423 0.57119 0.43330
 O538 O 0.05236 0.54302 0.42091
 O539 O -0.06730 0.49615 0.43053
 O540 O -0.07649 0.44682 0.45887
 O541 O -0.09137 0.52135 0.48270
 O542 O -0.09186 0.46245 0.50218
 O543 O -0.02319 0.52038 0.40738
 O544 O 0.03487 0.50182 0.40388
 O545 O -0.01702 0.59270 0.47912
 O546 O 0.00186 0.59383 0.53406
 O547 O 0.06991 0.43706 0.48727
 O548 O 0.03852 0.43093 0.43833
 O549 O -0.00235 0.42916 0.56113
 O550 O -0.05570 0.45730 0.56721
 O551 O 0.06578 0.50598 0.56596
 O552 O 0.07304 0.55625 0.53657
 Zr553 Zr 0.05308 0.51347 0.51686
 O554 O 0.02457 0.54459 0.48822
 Zr555 Zr -0.01172 0.47827 0.55009
 O556 O -0.04309 0.50899 0.52383
 Zr557 Zr 0.02045 0.44849 0.48286
 O558 O -0.01038 0.47680 0.45361
 Zr559 Zr -0.01977 0.55300 0.51178
 O560 O 0.01009 0.52421 0.54221
 Zr561 Zr 0.01155 0.52210 0.44467
 O562 O 0.04403 0.49258 0.47132
 Zr563 Zr -0.05324 0.48779 0.47888
 O564 O -0.02426 0.45539 0.50655
 O565 O 0.03219 0.46862 0.52740
 O566 O -0.03240 0.53282 0.46729
 C567 C 0.09416 0.45318 0.49830
 C568 C 0.04949 0.49522 0.59062
 C569 C 0.00889 0.40570 0.54426
 C570 C -0.09286 0.55022 0.49402
 C571 C -0.00608 0.59514 0.44991
 C572 C -0.05218 0.50885 0.40612
 H573 H 0.03702 0.56482 0.48414
 H574 H -0.01485 0.46502 0.43336
 H575 H 0.04671 0.45494 0.54080
 H576 H -0.06290 0.51274 0.53680
 H577 H -0.02851 0.56142 0.57321
 H578 H -0.04494 0.51246 0.59026
 H579 H 0.02219 0.48257 0.39732
 H580 H 0.05461 0.44708 0.43023
 H581 H 0.02294 0.59824 0.52331
 H582 H 0.05731 0.56398 0.55291
 H583 H -0.06071 0.43636 0.44429
 H584 H -0.02263 0.40470 0.47095
 H585 H 0.09548 0.52867 0.47298
 H586 H 0.06340 0.55714 0.43668
 H587 H -0.06077 0.43880 0.55297
 H588 H -0.09916 0.47547 0.52081
 O589 O 0.51217 0.90515 0.02124
 O590 O 0.49471 0.90552 -0.03373
 O591 O 0.59024 0.97867 0.01176
 O592 O 0.59480 1.03100 0.00336
 O593 O 0.52038 0.98043 0.09464
 O594 O 0.46443 0.99644 0.09787
 O595 O 0.49928 1.06857 -0.06068
 O596 O 0.55183 1.04311 -0.06769
 O597 O 0.43112 0.99570 -0.06428
 O598 O 0.42357 0.94265 -0.03403
 O599 O 0.42972 1.06280 0.01259
 O600 O 0.46224 1.06822 0.06338
 O601 O 0.48023 1.08959 -0.01359
 O602 O 0.49948 1.09072 0.04121
 O603 O 0.40670 1.01901 -0.01121
 O604 O 0.40319 0.96239 0.00489
 O605 O 0.47661 1.01718 -0.08759
 O606 O 0.53001 1.00156 -0.09265
 O607 O 0.49269 0.92673 0.06782
 O608 O 0.44496 0.95497 0.07854
 O609 O 0.56571 1.00105 0.07030
 O610 O 0.56974 1.05341 0.04218
 O611 O 0.56615 0.93259 -0.00629
 O612 O 0.53570 0.92596 -0.05435
 Zr613 Zr 0.51717 0.94530 -0.01079
 O614 O 0.48746 0.97442 -0.04047
 Zr615 Zr 0.55155 1.00995 0.02204
 O616 O 0.52289 1.04192 -0.00577
 Zr617 Zr 0.48661 0.97603 0.05656
 O618 O 0.45492 1.00596 0.02987
 Zr619 Zr 0.50962 1.01979 -0.04928
 O620 O 0.54136 0.98905 -0.02321
 Zr621 Zr 0.44460 0.98556 -0.01555
 O622 O 0.47285 0.95339 0.01311
 Zr623 Zr 0.47867 1.04986 0.01848
 O624 O 0.50918 1.02117 0.04816
 O625 O 0.53012 0.96532 0.03346
 O626 O 0.46587 1.03045 -0.02632
 C627 C 0.50158 0.90262 0.05060
 C628 C 0.59122 0.94958 0.00091
 C629 C 0.54970 0.99124 0.09543
 C630 C 0.48853 1.09206 -0.04353
 C631 C 0.44720 1.00710 -0.08885
 C632 C 0.40531 1.04755 0.00080
 H633 H 0.48308 0.96273 -0.06078
 H634 H 0.43506 1.00934 0.04286
 H635 H 0.54436 0.95094 0.04644
 H636 H 0.53499 1.06235 -0.01005
 H637 H 0.57043 1.02928 -0.06155
 H638 H 0.58863 1.04660 -0.01396
 H639 H 0.39980 0.97131 0.02681
 H640 H 0.43419 0.94208 0.06156
 H641 H 0.52315 0.97864 -0.09449
 H642 H 0.55123 0.94220 -0.06334
 H643 H 0.44290 1.05550 0.07021
 H644 H 0.47468 1.01796 0.10094
 H645 H 0.47273 0.90339 -0.02418
 H646 H 0.43558 0.93686 -0.05395
 H647 H 0.55499 1.05928 0.06017
 H648 H 0.52070 1.09514 0.03072
 O649 O 0.56693 0.50888 -0.07230
 O650 O 0.57138 0.55861 -0.04191
 O651 O 0.57605 0.43590 0.00131
 O652 O 0.55242 0.42445 0.04984
 O653 O 0.50031 0.42849 -0.06750
 O654 O 0.44876 0.45528 -0.07389
 O655 O 0.48258 0.50927 0.09050
 O656 O 0.53854 0.49226 0.09124
 O657 O 0.48191 0.58606 0.02091
 O658 O 0.49865 0.59027 -0.03730
 O659 O 0.41117 0.50999 0.01715
 O660 O 0.41284 0.45341 -0.00175
 O661 O 0.43797 0.48663 0.06758
 O662 O 0.43356 0.43507 0.03846
 O663 O 0.43142 0.55763 -0.00286
 O664 O 0.45821 0.57026 -0.05413
 O665 O 0.50536 0.56355 0.06553
 O666 O 0.55532 0.53985 0.07360
 O667 O 0.52310 0.48349 -0.09386
 O668 O 0.46733 0.49810 -0.09501
 O669 O 0.52444 0.40668 -0.02285
 O670 O 0.50622 0.40289 0.03257
 O671 O 0.59570 0.48351 -0.01976
 O672 O 0.59495 0.53797 -0.00207
 Zr673 Zr 0.55494 0.51356 -0.02263
 O674 O 0.52579 0.54145 0.00820
 Zr675 Zr 0.52676 0.44490 0.01025
 O676 O 0.49602 0.46987 0.04223
 Zr677 Zr 0.49093 0.47694 -0.05458
 O678 O 0.45890 0.50375 -0.02560
 Zr679 Zr 0.51564 0.51584 0.05166
 O680 O 0.54853 0.48948 0.02254
 Zr681 Zr 0.48028 0.54830 -0.01314
 O682 O 0.51068 0.52328 -0.04586
 Zr683 Zr 0.45172 0.47950 0.01908
 O684 O 0.48104 0.45081 -0.01141
 O685 O 0.53580 0.46836 -0.03387
 O686 O 0.47047 0.52494 0.03113
 C687 C 0.55134 0.49666 -0.09626
 C688 C 0.59902 0.45399 -0.01013
 C689 C 0.51305 0.40464 -0.05172
 C690 C 0.45354 0.49773 0.09195
 C691 C 0.49283 0.58762 0.05006
 C692 C 0.40816 0.53973 0.00815
 H693 H 0.53694 0.56230 0.01215
 H694 H 0.43836 0.50675 -0.03746
 H695 H 0.55014 0.45576 -0.04825
 H696 H 0.49311 0.45704 0.06251
 H697 H 0.55839 0.48201 0.08261
 H698 H 0.54160 0.43143 0.07004
 H699 H 0.44271 0.55441 -0.06317
 H700 H 0.47507 0.52087 -0.09655
 H701 H 0.56601 0.55352 0.05675
 H702 H 0.59841 0.52797 0.01963
 H703 H 0.40627 0.46511 -0.02177
 H704 H 0.44176 0.43823 -0.05813
 H705 H 0.55498 0.56580 -0.05788
 H706 H 0.51858 0.59706 -0.02595
 H707 H 0.48482 0.39938 0.02241
 H708 H 0.44774 0.42836 0.05662
 O709 O -0.09267 0.01259 0.52080
 O710 O -0.09163 -0.04208 0.50273
 O711 O -0.01945 0.01156 0.59450
 O712 O 0.03284 -0.00112 0.59827
 O713 O -0.01979 0.08943 0.52339
 O714 O -0.00500 0.09349 0.46755
 O715 O 0.07130 -0.06279 0.50090
 O716 O 0.04799 -0.07159 0.55399
 O717 O -0.00392 -0.06795 0.43544
 O718 O -0.05517 -0.04016 0.42788
 O719 O 0.06419 0.00938 0.43265
 O720 O 0.06893 0.06109 0.46306
 O721 O 0.09137 -0.01442 0.48240
 O722 O 0.09104 0.04115 0.50160
 O723 O 0.02067 -0.01630 0.41096
 O724 O -0.03777 0.00162 0.40943
 O725 O 0.02058 -0.09079 0.47932
 O726 O 0.00474 -0.09654 0.53503
 O727 O -0.07240 0.05976 0.49944
 O728 O -0.04557 0.07075 0.44872
 O729 O 0.00448 0.06709 0.56771
 O730 O 0.05623 0.03921 0.57242
 O731 O -0.06412 -0.01215 0.57279
 O732 O -0.06842 -0.06218 0.54369
 Zr733 Zr -0.05182 -0.01756 0.52353
 O734 O -0.02308 -0.04570 0.49252
 Zr735 Zr 0.01265 0.01836 0.55515
 O736 O 0.04434 -0.00870 0.52592
 Zr737 Zr -0.02325 0.05094 0.49056
 O738 O 0.00700 0.02589 0.45838
 Zr739 Zr 0.02275 -0.05305 0.51327
 O740 O -0.00737 -0.02795 0.54633
 Zr741 Zr -0.01321 -0.01995 0.44920
 O742 O -0.04553 0.00667 0.47852
 Zr743 Zr 0.05117 0.01607 0.48140
 O744 O 0.02238 0.04478 0.51208
 O745 O -0.03226 0.02757 0.53470
 O746 O 0.03204 -0.02919 0.46930
 C747 C -0.09571 0.04201 0.51068
 C748 C -0.04818 -0.00057 0.59675
 C749 C -0.00760 0.09129 0.55198
 C750 C 0.09435 -0.04449 0.48989
 C751 C 0.00903 -0.09210 0.45042
 C752 C 0.04934 -0.00405 0.40903
 H753 H -0.03458 -0.06634 0.48842
 H754 H 0.01007 0.03889 0.43824
 H755 H -0.04635 0.04046 0.54909
 H756 H 0.06497 -0.01228 0.53749
 H757 H 0.03537 -0.06549 0.57347
 H758 H 0.04952 -0.01690 0.59179
 H759 H -0.02533 0.02107 0.40227
 H760 H -0.05939 0.05335 0.43976
 H761 H -0.01731 -0.10045 0.52662
 H762 H -0.05182 -0.06937 0.55946
 H763 H 0.05587 0.06721 0.44387
 H764 H 0.01737 0.09649 0.47557
 H765 H -0.09505 -0.03202 0.48106
 H766 H -0.06304 -0.05782 0.44245
 H767 H 0.06211 0.05720 0.55728
 H768 H 0.09736 0.02951 0.52174
 O769 O 0.74201 0.15378 0.26537
 O770 O 0.79831 0.16039 0.25597
 O771 O 0.72666 0.22605 0.34133
 O772 O 0.73256 0.27877 0.34569
 O773 O 0.65947 0.21821 0.26040
 O774 O 0.66166 0.23592 0.20562
 O775 O 0.80305 0.32599 0.26570
 O776 O 0.80870 0.29554 0.31510
 O777 O 0.82535 0.25577 0.19285
 O778 O 0.80549 0.19980 0.18320
 O779 O 0.74494 0.31289 0.18064
 O780 O 0.69099 0.31499 0.20396
 O781 O 0.75955 0.34198 0.23611
 O782 O 0.70086 0.33461 0.24614
 O783 O 0.77506 0.27151 0.16121
 O784 O 0.76570 0.21270 0.15883
 O785 O 0.84000 0.27995 0.23986
 O786 O 0.84208 0.26182 0.29217
 O787 O 0.69822 0.16926 0.23582
 O788 O 0.69022 0.19984 0.18711
 O789 O 0.67431 0.24190 0.30764
 O790 O 0.69500 0.29758 0.31480
 O791 O 0.75609 0.18405 0.32210
 O792 O 0.80985 0.18289 0.29872
 Zr793 Zr 0.76766 0.19717 0.27349
 O794 O 0.79766 0.22979 0.24704
 Zr795 Zr 0.72245 0.25685 0.30070
 O796 O 0.75070 0.29208 0.27603
 Zr797 Zr 0.70248 0.22031 0.23226
 O798 O 0.72961 0.25432 0.20447
 Zr799 Zr 0.79817 0.27526 0.26937
 O800 O 0.77104 0.24144 0.29803
 Zr801 Zr 0.77788 0.23898 0.20091
 O802 O 0.74997 0.20313 0.22584
 Zr803 Zr 0.73284 0.29882 0.22870
 O804 O 0.70215 0.26592 0.25471
 O805 O 0.71987 0.21166 0.27888
 O806 O 0.78082 0.28453 0.22257
 C807 C 0.71622 0.14753 0.24917
 C808 C 0.74085 0.19870 0.34498
 C809 C 0.65340 0.22835 0.28920
 C810 C 0.78543 0.34796 0.25234
 C811 C 0.84580 0.27077 0.21069
 C812 C 0.76077 0.29888 0.15783
 H813 H 0.81973 0.22078 0.24543
 H814 H 0.71945 0.25674 0.18290
 H815 H 0.70667 0.19545 0.29117
 H816 H 0.75015 0.31216 0.28884
 H817 H 0.80231 0.27929 0.33194
 H818 H 0.75020 0.29471 0.34181
 H819 H 0.74500 0.22133 0.15044
 H820 H 0.70941 0.18762 0.17977
 H821 H 0.84417 0.23807 0.29033
 H822 H 0.81339 0.19902 0.31597
 H823 H 0.68580 0.29886 0.18718
 H824 H 0.65601 0.25762 0.21387
 H825 H 0.79367 0.15851 0.23252
 H826 H 0.82368 0.19597 0.19829
 H827 H 0.67810 0.30092 0.29813
 H828 H 0.70862 0.34126 0.26776
 O829 O 0.76413 0.84172 0.76807
 O830 O 0.70919 0.84113 0.75567
 O831 O 0.76802 0.76349 0.84071
 O832 O 0.75628 0.71151 0.84295
 O833 O 0.84165 0.76846 0.76471
 O834 O 0.84253 0.75879 0.70949
 O835 O 0.68874 0.67649 0.75367
 O836 O 0.68220 0.70104 0.80442
 O837 O 0.67855 0.75672 0.68645
 O838 O 0.70461 0.80644 0.67706
 O839 O 0.75781 0.69028 0.67540
 O840 O 0.80762 0.68123 0.70387
 O841 O 0.73329 0.65890 0.72676
 O842 O 0.79082 0.65898 0.74284
 O843 O 0.73201 0.73502 0.65630
 O844 O 0.74661 0.79415 0.65865
 O845 O 0.65854 0.72974 0.73072
 O846 O 0.65545 0.74173 0.78492
 O847 O 0.80927 0.82433 0.74203
 O848 O 0.81837 0.79756 0.69192
 O849 O 0.82191 0.74084 0.80867
 O850 O 0.79364 0.69010 0.81440
 O851 O 0.74145 0.80816 0.82241
 O852 O 0.69149 0.81578 0.79462
 Zr853 Zr 0.73492 0.80008 0.77253
 O854 O 0.70503 0.77262 0.74220
 Zr855 Zr 0.77244 0.73452 0.79950
 O856 O 0.74339 0.70404 0.77107
 Zr857 Zr 0.80090 0.77445 0.73479
 O858 O 0.77377 0.74513 0.70341
 Zr859 Zr 0.69846 0.72575 0.76191
 O860 O 0.72581 0.75443 0.79424
 Zr861 Zr 0.72755 0.76503 0.69708
 O862 O 0.75584 0.79632 0.72598
 Zr863 Zr 0.76462 0.69938 0.72490
 O864 O 0.79547 0.72733 0.75456
 O865 O 0.78087 0.78105 0.78069
 O866 O 0.71861 0.71833 0.71583
 C867 C 0.79143 0.84680 0.75380
 C868 C 0.75395 0.79075 0.84514
 C869 C 0.84528 0.75290 0.79167
 C870 C 0.70558 0.65415 0.74040
 C871 C 0.65517 0.74416 0.70312
 C872 C 0.74579 0.70750 0.65230
 H873 H 0.68437 0.78435 0.73976
 H874 H 0.78589 0.74356 0.68274
 H875 H 0.79462 0.79472 0.79475
 H876 H 0.74078 0.68298 0.78260
 H877 H 0.68957 0.71386 0.82320
 H878 H 0.73870 0.69630 0.83709
 H879 H 0.76610 0.78328 0.65008
 H880 H 0.80117 0.81248 0.68443
 H881 H 0.65258 0.76494 0.77939
 H882 H 0.68448 0.79831 0.80991
 H883 H 0.81560 0.69757 0.68786
 H884 H 0.84527 0.73556 0.71516
 H885 H 0.71612 0.84501 0.73289
 H886 H 0.69049 0.81547 0.69413
 H887 H 0.80962 0.68422 0.79750
 H888 H 0.77959 0.65062 0.76255
 O889 O 0.15339 0.26498 0.74142
 O890 O 0.15658 0.25583 0.79853
 O891 O 0.22581 0.34499 0.73249
 O892 O 0.27793 0.35085 0.74198
 O893 O 0.22406 0.26692 0.66244
 O894 O 0.24338 0.21231 0.66502
 O895 O 0.32072 0.26917 0.81306
 O896 O 0.28959 0.31868 0.81705
 O897 O 0.24999 0.19504 0.82944
 O898 O 0.19427 0.18577 0.80601
 O899 O 0.31238 0.18679 0.75490
 O900 O 0.31660 0.21098 0.69848
 O901 O 0.34002 0.24262 0.76913
 O902 O 0.33790 0.25179 0.71162
 O903 O 0.26795 0.16517 0.77990
 O904 O 0.21080 0.16152 0.76745
 O905 O 0.27254 0.24229 0.84626
 O906 O 0.25393 0.29313 0.84875
 O907 O 0.17317 0.23912 0.69722
 O908 O 0.20423 0.19231 0.68948
 O909 O 0.24687 0.31367 0.68012
 O910 O 0.29969 0.32254 0.70456
 O911 O 0.18160 0.32360 0.75820
 O912 O 0.17589 0.29939 0.81057
 Zr913 Zr 0.19462 0.27534 0.76957
 O914 O 0.22520 0.24938 0.80136
 Zr915 Zr 0.25744 0.30568 0.72907
 O916 O 0.29072 0.28094 0.75865
 Zr917 Zr 0.22345 0.23718 0.70490
 O918 O 0.25485 0.20914 0.73404
 Zr919 Zr 0.27049 0.27266 0.80489
 O920 O 0.23830 0.30099 0.77646
 Zr921 Zr 0.23579 0.20414 0.78128
 O922 O 0.20245 0.22867 0.75106
 Zr923 Zr 0.29881 0.23421 0.74044
 O924 O 0.26862 0.26079 0.70826
 O925 O 0.21278 0.28284 0.72286
 O926 O 0.28089 0.22663 0.78730
 C927 C 0.14969 0.24959 0.71472
 C928 C 0.19745 0.34742 0.74503
 C929 C 0.23508 0.29592 0.65771
 C930 C 0.34400 0.25740 0.79610
 C931 C 0.26354 0.21271 0.85095
 C932 C 0.29696 0.16318 0.76901
 H933 H 0.21473 0.24708 0.82291
 H934 H 0.25806 0.18784 0.72384
 H935 H 0.19751 0.29501 0.70885
 H936 H 0.31075 0.29419 0.75952
 H937 H 0.27315 0.33507 0.81100
 H938 H 0.29307 0.34668 0.76005
 H939 H 0.22015 0.15437 0.74660
 H940 H 0.19157 0.18323 0.70801
 H941 H 0.23008 0.29406 0.84747
 H942 H 0.19162 0.31671 0.81601
 H943 H 0.30349 0.19114 0.69515
 H944 H 0.26519 0.22176 0.66110
 H945 H 0.15479 0.23259 0.79303
 H946 H 0.19101 0.19862 0.82586
 H947 H 0.30523 0.30618 0.68808
 H948 H 0.34190 0.27459 0.71774
 O949 O 0.24745 0.65615 0.22437
 O950 O 0.19277 0.66444 0.24270
 O951 O 0.26279 0.73393 0.15668
 O952 O 0.26296 0.78761 0.15607
 O953 O 0.33457 0.71365 0.23298
 O954 O 0.33587 0.72324 0.28962
 O955 O 0.20071 0.83042 0.24828
 O956 O 0.19263 0.81048 0.19509
 O957 O 0.17586 0.75630 0.31225
 O958 O 0.18847 0.70258 0.32050
 O959 O 0.26675 0.80392 0.32404
 O960 O 0.31836 0.80334 0.29385
 O961 O 0.24794 0.83976 0.27500
 O962 O 0.30389 0.83189 0.25764
 O963 O 0.23362 0.76369 0.34300
 O964 O 0.23438 0.70226 0.33745
 O965 O 0.16151 0.78419 0.26656
 O966 O 0.15835 0.77275 0.21126
 O967 O 0.29528 0.66603 0.24977
 O968 O 0.30352 0.68628 0.30434
 O969 O 0.31981 0.74200 0.18771
 O970 O 0.30477 0.79960 0.18579
 O971 O 0.22867 0.69384 0.17447
 O972 O 0.17791 0.69367 0.20384
 Zr973 Zr 0.22391 0.70161 0.22482
 O974 O 0.19930 0.73367 0.25562
 Zr975 Zr 0.27355 0.76042 0.19864
 O976 O 0.25055 0.79498 0.22788
 Zr977 Zr 0.29308 0.71506 0.26281
 O978 O 0.27152 0.74793 0.29494
 Zr979 Zr 0.20228 0.78111 0.23643
 O980 O 0.22393 0.74854 0.20367
 Zr981 Zr 0.22205 0.73671 0.30106
 O982 O 0.24453 0.70108 0.27156
 Zr983 Zr 0.27183 0.79481 0.27420
 O984 O 0.29725 0.76256 0.24372
 O985 O 0.27235 0.71334 0.21696
 O986 O 0.22292 0.78411 0.28267
 C987 C 0.27544 0.64742 0.23481
 C988 C 0.24460 0.70900 0.15191
 C989 C 0.34017 0.72521 0.20437
 C990 C 0.22076 0.84890 0.26309
 C991 C 0.15555 0.77281 0.29508
 C992 C 0.25207 0.78861 0.34722
 H993 H 0.17663 0.72610 0.25805
 H994 H 0.28366 0.74674 0.31555
 H995 H 0.28318 0.69836 0.20185
 H996 H 0.25177 0.81657 0.21718
 H997 H 0.19841 0.79760 0.17581
 H998 H 0.25043 0.80681 0.16268
 H999 H 0.25607 0.70824 0.34565
 H1000 H 0.28420 0.67247 0.30866
 H1001 H 0.14961 0.75141 0.21839
 H1002 H 0.17420 0.71195 0.18848
 H1003 H 0.32192 0.78696 0.31124
 H1004 H 0.34439 0.74472 0.28253
 H1005 H 0.20158 0.65735 0.26395
 H1006 H 0.17837 0.69164 0.30185
 H1007 H 0.32186 0.80051 0.20254
 H1008 H 0.29560 0.84045 0.23674
 O1009 O 0.15905 0.72618 0.76134
 O1010 O 0.16060 0.74629 0.70718
 O1011 O 0.24012 0.65843 0.75954
 O1012 O 0.29299 0.65999 0.75522
 O1013 O 0.22671 0.72796 0.84008
 O1014 O 0.23918 0.78414 0.84429
 O1015 O 0.32460 0.75901 0.69123
 O1016 O 0.30525 0.70534 0.68287
 O1017 O 0.24743 0.82013 0.68214
 O1018 O 0.19309 0.82320 0.70642
 O1019 O 0.30703 0.82803 0.76544
 O1020 O 0.31340 0.79295 0.81553
 O1021 O 0.34135 0.78055 0.73886
 O1022 O 0.34226 0.76186 0.79271
 O1023 O 0.26290 0.84678 0.73854
 O1024 O 0.20466 0.84171 0.74858
 O1025 O 0.27501 0.77783 0.66103
 O1026 O 0.26214 0.72130 0.65613
 O1027 O 0.17567 0.74904 0.80837
 O1028 O 0.19858 0.80115 0.81969
 O1029 O 0.25403 0.68551 0.81887
 O1030 O 0.30947 0.68727 0.79548
 O1031 O 0.19526 0.67714 0.73378
 O1032 O 0.18687 0.70955 0.68669
 Zr1033 Zr 0.20137 0.72792 0.73209
 O1034 O 0.22927 0.76145 0.70462
 Zr1035 Zr 0.26640 0.70057 0.77107
 O1036 O 0.29709 0.73270 0.74484
 Zr1037 Zr 0.22436 0.76124 0.80113
 O1038 O 0.25318 0.79609 0.77673
 Zr1039 Zr 0.27671 0.74420 0.69959
 O1040 O 0.24794 0.70884 0.72397
 Zr1041 Zr 0.23481 0.80498 0.72992
 O1042 O 0.20349 0.77277 0.75592
 Zr1043 Zr 0.29976 0.77741 0.76874
 O1044 O 0.27193 0.74382 0.79696
 O1045 O 0.21940 0.71691 0.77797
 O1046 O 0.28201 0.78883 0.72257
 C1047 C 0.15388 0.73644 0.79028
 C1048 C 0.21339 0.65406 0.74428
 C1049 C 0.23934 0.69969 0.84236
 C1050 C 0.34615 0.77202 0.70933
 C1051 C 0.26229 0.80604 0.65868
 C1052 C 0.28962 0.85113 0.75381
 H1053 H 0.21878 0.76503 0.68337
 H1054 H 0.25351 0.81577 0.79017
 H1055 H 0.20558 0.70077 0.78963
 H1056 H 0.31869 0.72283 0.74216
 H1057 H 0.29387 0.68505 0.68949
 H1058 H 0.30878 0.66793 0.73876
 H1059 H 0.21221 0.84655 0.77077
 H1060 H 0.18346 0.80830 0.80246
 H1061 H 0.24112 0.73047 0.64935
 H1062 H 0.20543 0.69711 0.67818
 H1063 H 0.29849 0.81050 0.82186
 H1064 H 0.26114 0.77601 0.84929
 H1065 H 0.15610 0.76785 0.71644
 H1066 H 0.18736 0.80805 0.68893
 H1067 H 0.31191 0.70205 0.81408
 H1068 H 0.34667 0.73946 0.78572
 O1069 O 0.25738 0.19020 0.17898
 O1070 O 0.30609 0.18169 0.20707
 O1071 O 0.19066 0.17490 0.26360
 O1072 O 0.17419 0.20131 0.30564
 O1073 O 0.17581 0.25568 0.19061
 O1074 O 0.20219 0.30641 0.18314
 O1075 O 0.26704 0.26420 0.34407
 O1076 O 0.25164 0.20915 0.34368
 O1077 O 0.33953 0.27009 0.26844
 O1078 O 0.33909 0.25665 0.21022
 O1079 O 0.26449 0.34091 0.27208
 O1080 O 0.21055 0.34336 0.26068
 O1081 O 0.24004 0.30839 0.32529
 O1082 O 0.18823 0.31545 0.29340
 O1083 O 0.30907 0.32260 0.24574
 O1084 O 0.31815 0.29660 0.19533
 O1085 O 0.32062 0.24386 0.31361
 O1086 O 0.29645 0.19354 0.32186
 O1087 O 0.23090 0.23450 0.15964
 O1088 O 0.24317 0.29075 0.16014
 O1089 O 0.15748 0.22709 0.23459
 O1090 O 0.15818 0.24627 0.29163
 O1091 O 0.23279 0.15770 0.23284
 O1092 O 0.28819 0.15795 0.24706
 Zr1093 Zr 0.26302 0.19877 0.22877
 O1094 O 0.29355 0.22681 0.25794
 Zr1095 Zr 0.19737 0.22537 0.26613
 O1096 O 0.22521 0.25420 0.29730
 Zr1097 Zr 0.22511 0.26391 0.20055
 O1098 O 0.25388 0.29474 0.22885
 Zr1099 Zr 0.27164 0.23463 0.30326
 O1100 O 0.24243 0.20334 0.27534
 Zr1101 Zr 0.29917 0.27345 0.23760
 O1102 O 0.27166 0.24411 0.20611
 Zr1103 Zr 0.23359 0.29993 0.27537
 O1104 O 0.20247 0.27216 0.24547
 O1105 O 0.21716 0.21771 0.22029
 O1106 O 0.27983 0.28126 0.28399
 C1107 C 0.24554 0.20743 0.15576
 C1108 C 0.20689 0.15257 0.24958
 C1109 C 0.15322 0.24136 0.20704
 C1110 C 0.25238 0.29118 0.34831
 C1111 C 0.34356 0.25660 0.29642
 C1112 C 0.29222 0.34531 0.25825
 H1113 H 0.31448 0.21548 0.25990
 H1114 H 0.25589 0.31582 0.21725
 H1115 H 0.20382 0.20342 0.20647
 H1116 H 0.21335 0.25544 0.31816
 H1117 H 0.23943 0.19039 0.33508
 H1118 H 0.18824 0.20422 0.32476
 H1119 H 0.30176 0.31214 0.18735
 H1120 H 0.26560 0.28327 0.15636
 H1121 H 0.30976 0.18458 0.30416
 H1122 H 0.27976 0.15367 0.26928
 H1123 H 0.21394 0.34579 0.23697
 H1124 H 0.18742 0.31355 0.20062
 H1125 H 0.31457 0.19959 0.19311
 H1126 H 0.34701 0.23649 0.22071
 H1127 H 0.15110 0.26547 0.27888
 H1128 H 0.18282 0.30189 0.31272
 O1129 O 0.81544 0.68176 0.23879
 O1130 O 0.81621 0.70574 0.18574
 O1131 O 0.82824 0.77052 0.29598
 O1132 O 0.80039 0.81459 0.30613
 O1133 O 0.75880 0.69445 0.32407
 O1134 O 0.70490 0.68247 0.30600
 O1135 O 0.72373 0.83801 0.21894
 O1136 O 0.77875 0.84442 0.22824
 O1137 O 0.71699 0.75621 0.15683
 O1138 O 0.73738 0.70109 0.15923
 O1139 O 0.65598 0.76129 0.23804
 O1140 O 0.66164 0.75215 0.29545
 O1141 O 0.68428 0.81707 0.25194
 O1142 O 0.68411 0.79231 0.30759
 O1143 O 0.67201 0.73139 0.19503
 O1144 O 0.70477 0.68155 0.18929
 O1145 O 0.73792 0.80559 0.16951
 O1146 O 0.79499 0.81706 0.18574
 O1147 O 0.77577 0.66158 0.27197
 O1148 O 0.71899 0.65597 0.26523
 O1149 O 0.78133 0.74332 0.33603
 O1150 O 0.75828 0.79800 0.33162
 O1151 O 0.84427 0.73890 0.25405
 O1152 O 0.83728 0.74993 0.19707
 Zr1153 Zr 0.80122 0.72989 0.22813
 O1154 O 0.76725 0.75342 0.19798
 Zr1155 Zr 0.77729 0.77086 0.29268
 O1156 O 0.74258 0.79641 0.26524
 Zr1157 Zr 0.74303 0.69999 0.27591
 O1158 O 0.70666 0.72226 0.24800
 Zr1159 Zr 0.75693 0.79959 0.21632
 O1160 O 0.79379 0.77753 0.24450
 Zr1161 Zr 0.72271 0.72848 0.19981
 O1162 O 0.75788 0.70266 0.22692
 Zr1163 Zr 0.69897 0.76967 0.26429
 O1164 O 0.73265 0.74581 0.29501
 O1165 O 0.78729 0.72441 0.27645
 O1166 O 0.71235 0.77523 0.21570
 C1167 C 0.80212 0.65869 0.25567
 C1168 C 0.85008 0.75611 0.27923
 C1169 C 0.77244 0.71424 0.34362
 C1170 C 0.69703 0.84026 0.23483
 C1171 C 0.72395 0.78597 0.15001
 C1172 C 0.65008 0.74505 0.21225
 H1173 H 0.77581 0.75468 0.17556
 H1174 H 0.68679 0.70879 0.24949
 H1175 H 0.80394 0.71307 0.28951
 H1176 H 0.73985 0.81816 0.27466
 H1177 H 0.79920 0.83931 0.23964
 H1178 H 0.79074 0.83222 0.29293
 H1179 H 0.68873 0.67548 0.20629
 H1180 H 0.72493 0.65061 0.24262
 H1181 H 0.79729 0.80238 0.16710
 H1182 H 0.83875 0.77328 0.20221
 H1183 H 0.65843 0.72886 0.29093
 H1184 H 0.69870 0.70055 0.32030
 H1185 H 0.79903 0.68965 0.18092
 H1186 H 0.75680 0.71171 0.14960
 H1187 H 0.74009 0.78523 0.34114
 H1188 H 0.69894 0.81085 0.31107
 O1189 O 0.67948 0.24218 0.81274
 O1190 O 0.70498 0.19223 0.82011
 O1191 O 0.76809 0.30440 0.82748
 O1192 O 0.81245 0.31605 0.80012
 O1193 O 0.69727 0.32785 0.74892
 O1194 O 0.68437 0.30222 0.69870
 O1195 O 0.84085 0.22607 0.73003
 O1196 O 0.84436 0.24154 0.78510
 O1197 O 0.76504 0.16036 0.72323
 O1198 O 0.70670 0.16132 0.74474
 O1199 O 0.76599 0.23901 0.65785
 O1200 O 0.75599 0.29910 0.66383
 O1201 O 0.82092 0.25323 0.68621
 O1202 O 0.80060 0.30676 0.68077
 O1203 O 0.73757 0.19477 0.67556
 O1204 O 0.68970 0.18513 0.70601
 O1205 O 0.81023 0.17682 0.74963
 O1206 O 0.81941 0.19744 0.80292
 O1207 O 0.66239 0.27631 0.77258
 O1208 O 0.65860 0.26354 0.71736
 O1209 O 0.74157 0.34164 0.77841
 O1210 O 0.79589 0.33954 0.75624
 O1211 O 0.73690 0.26192 0.84499
 O1212 O 0.74689 0.20529 0.84130
 Zr1213 Zr 0.72915 0.23444 0.80275
 O1214 O 0.75582 0.20380 0.77202
 Zr1215 Zr 0.76998 0.29961 0.77671
 O1216 O 0.79799 0.27197 0.74444
 Zr1217 Zr 0.70197 0.27776 0.74046
 O1218 O 0.72669 0.24847 0.70705
 Zr1219 Zr 0.80163 0.22450 0.76263
 O1220 O 0.77659 0.25286 0.79665
 Zr1221 Zr 0.73385 0.20134 0.72620
 O1222 O 0.70516 0.22955 0.75808
 Zr1223 Zr 0.77381 0.26684 0.69987
 O1224 O 0.74777 0.29826 0.73076
 O1225 O 0.72336 0.28190 0.78592
 O1226 O 0.78030 0.21953 0.71698
 C1227 C 0.65749 0.25879 0.79809
 C1228 C 0.75441 0.28732 0.85012
 C1229 C 0.71509 0.34847 0.76384
 C1230 C 0.84357 0.23797 0.70118
 C1231 C 0.79387 0.15558 0.73425
 C1232 C 0.75045 0.21238 0.65287
 H1233 H 0.75745 0.18204 0.78221
 H1234 H 0.71393 0.24839 0.68680
 H1235 H 0.71097 0.29541 0.80129
 H1236 H 0.81966 0.28199 0.74158
 H1237 H 0.83757 0.25308 0.80493
 H1238 H 0.83113 0.30516 0.78996
 H1239 H 0.68040 0.20370 0.69387
 H1240 H 0.65370 0.24114 0.72500
 H1241 H 0.80293 0.18102 0.80933
 H1242 H 0.76991 0.21149 0.84415
 H1243 H 0.73586 0.28950 0.65508
 H1244 H 0.70189 0.31699 0.69100
 H1245 H 0.69269 0.18361 0.80151
 H1246 H 0.72012 0.14973 0.76094
 H1247 H 0.78489 0.34565 0.73577
 H1248 H 0.81504 0.31453 0.69813
 C1249 C 0.10871 0.99086 1.16178
 C1250 C 0.09280 0.99474 1.19139
 C1251 C 0.05943 1.00285 1.18937
 C1252 C 0.04379 1.00571 1.15888
 C1253 C 0.06117 1.00116 1.12960
 C1254 C 0.09381 0.99386 1.13272
 C1255 C 0.12413 0.98897 1.11373
 C1256 C 0.14122 0.98582 1.14676
 H1257 H 0.04529 1.00786 1.21080
 H1258 H 0.01825 1.01149 1.15835
 H1259 H 0.13141 1.01106 1.09962
 H1260 H 0.12359 0.96606 1.09982
 H1261 H 0.15823 1.00617 1.15173
 H1262 H 0.15085 0.96114 1.15165
 C1263 C 0.60151 0.47921 0.65530
 C1264 C 0.58893 0.49369 0.68326
 C1265 C 0.56006 0.51158 0.67974
 C1266 C 0.54590 0.51620 0.64898
 C1267 C 0.56083 0.50389 0.62084
 C1268 C 0.58770 0.48392 0.62508
 C1269 C 0.61986 0.48499 0.60835
 C1270 C 0.63509 0.47980 0.64147
 H1271 H 0.54940 0.52364 0.70034
 H1272 H 0.52419 0.53069 0.64712
 H1273 H 0.62541 0.50921 0.59745
 H1274 H 0.62323 0.46415 0.59186
 H1275 H 0.64962 0.50096 0.64964
 H1276 H 0.64727 0.45593 0.64397
 C1277 C 0.44038 -0.00495 0.68905
 C1278 C 0.40680 -0.00112 0.69233
 C1279 C 0.38859 0.00350 0.66369
 C1280 C 0.40329 0.00325 0.63308
 C1281 C 0.43664 -0.00260 0.62994
 C1282 C 0.45490 -0.00586 0.65843
 C1283 C 0.47711 -0.03260 0.66831
 C1284 C 0.46129 -0.03174 0.70163
 H1285 H 0.36266 0.00720 0.66505
 H1286 H 0.38826 0.00679 0.61186
 H1287 H 0.50288 -0.02457 0.66837
 H1288 H 0.47230 -0.05550 0.65514
 H1289 H 0.47809 -0.02340 0.72086
 H1290 H 0.44722 -0.05411 0.70787
 C1291 C -0.10531 0.47132 1.16075
 C1292 C -0.08918 0.48107 1.18894
 C1293 C -0.05552 0.48730 1.18616
 C1294 C -0.03998 0.48677 1.15563
 C1295 C -0.05801 0.48122 1.12725
 C1296 C -0.09022 0.47139 1.13085
 C1297 C -0.12032 0.48127 1.11346
 C1298 C -0.13708 0.48105 1.14645
 H1299 H -0.04149 0.49495 1.20680
 H1300 H -0.01457 0.49336 1.15396
 H1301 H -0.12936 0.46200 1.09713
 H1302 H -0.11847 0.50593 1.10227
 H1303 H -0.15571 0.46157 1.14911
 H1304 H -0.14505 0.50552 1.15402
 C1305 C -0.06572 0.51599 0.31557
 C1306 C -0.09532 0.49974 0.31110
 C1307 C -0.11362 0.49217 0.33930
 C1308 C -0.10048 0.49676 0.37053
 C1309 C -0.06886 0.50954 0.37432
 C1310 C -0.05311 0.52104 0.34623
 C1311 C -0.01902 0.51724 0.33485
 C1312 C -0.03271 0.51124 0.30129
 H1313 H -0.13732 0.48097 0.33734
 H1314 H -0.11441 0.48863 0.39151
 H1315 H -0.00709 0.49555 0.34563
 H1316 H -0.00494 0.54026 0.33635
 H1317 H -0.02830 0.48599 0.29335
 H1318 H -0.02615 0.53056 0.28329
 C1319 C 0.43638 1.00430 -0.17995
 C1320 C 0.40260 1.00537 -0.18447
 C1321 C 0.38374 1.01092 -0.15601
 C1322 C 0.39800 1.01204 -0.12492
 C1323 C 0.43158 1.00839 -0.12111
 C1324 C 0.45033 1.00615 -0.14934
 C1325 C 0.47593 0.98217 -0.15724
 C1326 C 0.46074 0.97977 -0.19058
 H1327 H 0.35783 1.01356 -0.15668
 H1328 H 0.38263 1.01511 -0.10383
 H1329 H 0.47375 0.95941 -0.14252
 H1330 H 0.50049 0.99340 -0.15779
 H1331 H 0.44962 0.95564 -0.19528
 H1332 H 0.47703 0.98924 -0.21014
 C1333 C 0.56621 0.48043 -0.18493
 C1334 C 0.59448 0.49724 -0.19333
 C1335 C 0.60922 0.51490 -0.16795
 C1336 C 0.59549 0.51498 -0.13612
 C1337 C 0.56674 0.49722 -0.12879
 C1338 C 0.55332 0.48029 -0.15452
 C1339 C 0.52752 0.45634 -0.16255
 C1340 C 0.54209 0.45644 -0.19705
 H1341 H 0.63103 0.52897 -0.17262
 H1342 H 0.60733 0.52894 -0.11747
 H1343 H 0.50287 0.46695 -0.16124
 H1344 H 0.53069 0.43292 -0.14926
 H1345 H 0.52565 0.46699 -0.21562
 H1346 H 0.55349 0.43304 -0.20357
 C1347 C 0.06905 -0.02518 0.32264
 C1348 C 0.09688 -0.00739 0.31470
 C1349 C 0.11015 0.01156 0.33985
 C1350 C 0.09504 0.01257 0.37088
 C1351 C 0.06631 -0.00546 0.37756
 C1352 C 0.05474 -0.02434 0.35236
 C1353 C 0.02881 -0.04789 0.34374
 C1354 C 0.04493 -0.04892 0.30997
 H1355 H 0.13156 0.02632 0.33541
 H1356 H 0.10556 0.02784 0.38929
 H1357 H 0.00440 -0.03667 0.34360
 H1358 H 0.03074 -0.07105 0.35774
 H1359 H 0.02951 -0.03848 0.29047
 H1360 H 0.05609 -0.07270 0.30446
 C1361 C 0.15732 1.10417 0.99218
 C1362 C 0.18581 1.08914 1.00221
 C1363 C 0.18181 1.05797 1.01692
 C1364 C 0.15069 1.04334 1.02006
 C1365 C 0.12253 1.05975 1.00939
 C1366 C 0.12755 1.09035 0.99561
 C1367 C 0.11036 1.11937 0.98272
 C1368 C 0.14406 1.13528 0.97918
 H1369 H 0.20224 1.04506 1.02690
 H1370 H 0.14879 1.01943 1.03118
 H1371 H 0.09499 1.13086 1.00145
 H1372 H 0.09832 1.11464 0.95916
 H1373 H 0.14806 1.15575 0.99603
 H1374 H 0.15116 1.14010 0.95350
 C1375 C 0.68360 0.56571 0.50078
 C1376 C 0.68830 0.59745 0.48888
 C1377 C 0.66052 0.61466 0.47881
 C1378 C 0.62938 0.60113 0.48249
 C1379 C 0.62498 0.57029 0.49714
 C1380 C 0.65275 0.55242 0.50458
 C1381 C 0.66151 0.53579 0.53570
 C1382 C 0.69526 0.55014 0.53151
 H1383 H 0.66264 0.63937 0.46974
 H1384 H 0.60874 0.61543 0.47500
 H1385 H 0.66083 0.50893 0.53370
 H1386 H 0.64820 0.54569 0.55686
 H1387 H 0.71400 0.53148 0.52698
 H1388 H 0.70159 0.56810 0.55040
 C1389 C 0.66387 0.39325 -0.02780
 C1390 C 0.69262 0.40826 -0.01707
 C1391 C 0.68994 0.44117 -0.00762
 C1392 C 0.65963 0.45676 -0.00693
 C1393 C 0.63107 0.43948 -0.01406
 C1394 C 0.63420 0.40837 -0.02638
 C1395 C 0.61645 0.37755 -0.01871
 C1396 C 0.64907 0.36071 -0.02035
 H1397 H 0.71068 0.45439 0.00139
 H1398 H 0.65830 0.48146 0.00160
 H1399 H 0.59978 0.37048 -0.03855
 H1400 H 0.60560 0.37712 0.00607
 H1401 H 0.65099 0.34399 -0.04119
 H1402 H 0.65692 0.35039 0.00340
 C1403 C 0.16062 -0.10452 0.47373
 C1404 C 0.18895 -0.08757 0.48217
 C1405 C 0.18566 -0.05414 0.48858
 C1406 C 0.15484 -0.03972 0.48950
 C1407 C 0.12656 -0.05857 0.48519
 C1408 C 0.13040 -0.09046 0.47512
 C1409 C 0.11424 -0.12139 0.48558
 C1410 C 0.14752 -0.13703 0.48394
 H1411 H 0.20627 -0.03945 0.49527
 H1412 H 0.15305 -0.01443 0.49606
 H1413 H 0.09723 -0.13055 0.46693
 H1414 H 0.10422 -0.12041 0.51067
 H1415 H 0.14956 -0.15512 0.46429
 H1416 H 0.15646 -0.14532 0.50804
 C1417 C 0.34006 -0.10720 0.49614
 C1418 C 0.31151 -0.08941 0.49973
 C1419 C 0.31472 -0.05765 0.51191
 C1420 C 0.34551 -0.04324 0.51600
 C1421 C 0.37403 -0.06014 0.50796
 C1422 C 0.37043 -0.09292 0.49992
 C1423 C 0.38482 -0.11187 0.47291
 C1424 C 0.35158 -0.12733 0.46859
 H1425 H 0.29349 -0.04348 0.51756
 H1426 H 0.34679 -0.01833 0.52392
 H1427 H 0.40337 -0.12928 0.48172
 H1428 H 0.39246 -0.09629 0.45193
 H1429 H 0.35104 -0.15370 0.47463
 H1430 H 0.34016 -0.12043 0.44516
 C1431 C -0.16040 0.38308 1.00239
 C1432 C -0.18845 0.40200 0.99869
 C1433 C -0.18436 0.43589 1.00308
 C1434 C -0.15346 0.44990 1.00719
 C1435 C -0.12529 0.43081 1.00642
 C1436 C -0.12980 0.39712 1.00571
 C1437 C -0.11372 0.37192 0.98589
 C1438 C -0.14701 0.35655 0.98192
 H1439 H -0.20482 0.45209 1.00337
 H1440 H -0.15163 0.47602 1.00923
 H1441 H -0.09712 0.35671 1.00064
 H1442 H -0.10337 0.38178 0.96278
 H1443 H -0.14911 0.33232 0.99398
 H1444 H -0.15567 0.35765 0.95647
 C1445 C -0.18200 0.56625 0.48155
 C1446 C -0.18839 0.59517 0.49755
 C1447 C -0.16146 0.60963 0.51317
 C1448 C -0.13021 0.59537 0.51187
 C1449 C -0.12486 0.56616 0.49487
 C1450 C -0.15202 0.55275 0.48016
 C1451 C -0.16252 0.52606 0.45859
 C1452 C -0.19645 0.54129 0.45997
 H1453 H -0.16439 0.63173 0.52670
 H1454 H -0.11043 0.60716 0.52434
 H1455 H -0.16111 0.50188 0.47079
 H1456 H -0.15097 0.52783 0.43417
 H1457 H -0.21460 0.52562 0.47276
 H1458 H -0.20442 0.55178 0.43634
 C1459 C 0.31587 1.06193 -0.01001
 C1460 C 0.30938 1.09128 0.00505
 C1461 C 0.33645 1.10700 0.01918
 C1462 C 0.36793 1.09319 0.01770
 C1463 C 0.37329 1.06336 0.00181
 C1464 C 0.34600 1.04897 -0.01173
 C1465 C 0.33529 1.02096 -0.03148
 C1466 C 0.30116 1.03566 -0.02979
 H1467 H 0.33340 1.12966 0.03175
 H1468 H 0.38785 1.10579 0.02913
 H1469 H 0.33751 0.99748 -0.01809
 H1470 H 0.34598 1.02162 -0.05629
 H1471 H 0.28373 1.02030 -0.01568
 H1472 H 0.29226 1.04484 -0.05362
 C1473 C 0.00271 1.17931 1.06327
 C1474 C -0.01179 1.18367 1.09379
 C1475 C -0.02493 1.15590 1.10957
 C1476 C -0.02131 1.12493 1.09625
 C1477 C -0.00385 1.12079 1.06708
 C1478 C 0.00625 1.14872 1.05014
 C1479 C 0.03881 1.15684 1.03629
 C1480 C 0.03503 1.19033 1.05061
 H1481 H -0.03620 1.15777 1.13326
 H1482 H -0.03100 1.10418 1.10958
 H1483 H 0.03876 1.15704 1.00929
 H1484 H 0.05849 1.14247 1.04778
 H1485 H 0.03294 1.20977 1.03177
 H1486 H 0.05262 1.19545 1.07029
 C1487 C 0.50599 0.68833 0.55916
 C1488 C 0.49542 0.69102 0.59139
 C1489 C 0.48608 0.66222 0.60802
 C1490 C 0.48894 0.63194 0.59331
 C1491 C 0.50209 0.62946 0.56184
 C1492 C 0.50908 0.65827 0.54471
 C1493 C 0.53954 0.66815 0.52743
 C1494 C 0.53623 0.70101 0.54326
 H1495 H 0.47790 0.66292 0.63302
 H1496 H 0.48195 0.61044 0.60713
 H1497 H 0.53635 0.66914 0.50065
 H1498 H 0.56100 0.65430 0.53593
 H1499 H 0.53128 0.72090 0.52549
 H1500 H 0.55574 0.70628 0.56100
 C1501 C -0.00878 0.68640 0.43764
 C1502 C 0.00317 0.69077 0.40590
 C1503 C 0.01431 0.66295 0.38974
 C1504 C 0.01154 0.63203 0.40412
 C1505 C -0.00313 0.62776 0.43489
 C1506 C -0.01163 0.65568 0.45185
 C1507 C -0.04301 0.66371 0.46789
 C1508 C -0.03999 0.69724 0.45235
 H1509 H 0.02367 0.66486 0.36517
 H1510 H 0.01982 0.61137 0.39048
 H1511 H -0.04094 0.66392 0.49479
 H1512 H -0.06369 0.64926 0.45845
 H1513 H -0.03633 0.71671 0.47039
 H1514 H -0.05890 0.70229 0.43384
 C1515 C 0.48812 1.18301 -0.05560
 C1516 C 0.48794 1.18636 -0.08951
 C1517 C 0.48254 1.15802 -0.10779
 C1518 C 0.48137 1.12729 -0.09281
 C1519 C 0.48532 1.12412 -0.05909
 C1520 C 0.48663 1.15249 -0.04079
 C1521 C 0.51018 1.16167 -0.01511
 C1522 C 0.51209 1.19494 -0.03131
 H1523 H 0.48107 1.15952 -0.13403
 H1524 H 0.47888 1.10602 -0.10778
 H1525 H 0.53320 1.14789 -0.01659
 H1526 H 0.49872 1.16200 0.00938
 H1527 H 0.53619 1.20049 -0.04233
 H1528 H 0.50200 1.21436 -0.01585
 C1529 C 0.50220 0.33759 -0.11285
 C1530 C 0.50930 0.30957 -0.09465
 C1531 C 0.52412 0.31399 -0.06420
 C1532 C 0.52709 0.34519 -0.05092
 C1533 C 0.51524 0.37275 -0.06772
 C1534 C 0.50496 0.36833 -0.09971
 C1535 C 0.47549 0.38025 -0.11684
 C1536 C 0.47238 0.34660 -0.13115
 H1537 H 0.53231 0.29335 -0.05001
 H1538 H 0.53694 0.34733 -0.02671
 H1539 H 0.48130 0.39934 -0.13531
 H1540 H 0.45543 0.38620 -0.09986
 H1541 H 0.47624 0.34637 -0.15788
 H1542 H 0.45055 0.33333 -0.12226
 C1543 C -0.00665 -0.15709 0.38803
 C1544 C 0.00154 -0.18580 0.40455
 C1545 C 0.01889 -0.18232 0.43393
 C1546 C 0.02303 -0.15164 0.44817
 C1547 C 0.01015 -0.12352 0.43336
 C1548 C -0.00279 -0.12692 0.40220
 C1549 C -0.03345 -0.11430 0.38801
 C1550 C -0.03764 -0.14718 0.37235
 H1551 H 0.02863 -0.20322 0.44656
 H1552 H 0.03482 -0.15030 0.47155
 H1553 H -0.02901 -0.09428 0.37013
 H1554 H -0.05219 -0.10933 0.40675
 H1555 H -0.03539 -0.14577 0.34546
 H1556 H -0.05891 -0.16111 0.38186
 C1557 C 0.50735 -0.15793 0.61069
 C1558 C 0.49711 -0.18515 0.59344
 C1559 C 0.48088 -0.17938 0.56382
 C1560 C 0.47914 -0.14786 0.55034
 C1561 C 0.49345 -0.12125 0.56620
 C1562 C 0.50560 -0.12684 0.59744
 C1563 C 0.53700 -0.11680 0.61213
 C1564 C 0.53907 -0.15090 0.62649
 H1565 H 0.47009 -0.19912 0.55054
 H1566 H 0.46769 -0.14467 0.52692
 H1567 H 0.53372 -0.09785 0.63079
 H1568 H 0.55605 -0.11139 0.59360
 H1569 H 0.53729 -0.15154 0.65343
 H1570 H 0.55926 -0.16515 0.61608
 C1571 C -0.00484 0.31171 1.05945
 C1572 C 0.00389 0.30623 1.09188
 C1573 C 0.01334 0.33438 1.10903
 C1574 C 0.01269 0.36565 1.09414
 C1575 C 0.00242 0.36999 1.06158
 C1576 C -0.00564 0.34179 1.04534
 C1577 C -0.01891 0.33010 1.01414
 C1578 C -0.01834 0.29606 1.02985
 H1579 H 0.02112 0.33277 1.13396
 H1580 H 0.01978 0.38637 1.10841
 H1581 H -0.00142 0.33337 0.99372
 H1582 H -0.04371 0.33920 1.00954
 H1583 H -0.00073 0.27963 1.01804
 H1584 H -0.04292 0.28561 1.03420
 C1585 C 0.73655 0.35256 0.08737
 C1586 C 0.75404 0.34206 0.06014
 C1587 C 0.77664 0.31686 0.06689
 C1588 C 0.77971 0.30305 0.09872
 C1589 C 0.76110 0.31458 0.12519
 C1590 C 0.74064 0.34018 0.11791
 C1591 C 0.71622 0.36145 0.13315
 C1592 C 0.71148 0.37595 0.09902
 H1593 H 0.79103 0.30645 0.04775
 H1594 H 0.79624 0.28306 0.10237
 H1595 H 0.72728 0.37863 0.15054
 H1596 H 0.69479 0.34761 0.14236
 H1597 H 0.71971 0.40162 0.09663
 H1598 H 0.68685 0.37078 0.08952
 C1599 C 0.24435 0.86489 0.58999
 C1600 C 0.25427 0.84811 0.56210
 C1601 C 0.27354 0.82040 0.56742
 C1602 C 0.27820 0.80771 0.59916
 C1603 C 0.26419 0.82276 0.62652
 C1604 C 0.24971 0.85289 0.62112
 C1605 C 0.21935 0.86698 0.63433
 C1606 C 0.21289 0.87969 0.60022
 H1607 H 0.28313 0.80714 0.54706
 H1608 H 0.29097 0.78498 0.60192
 H1609 H 0.22428 0.88652 0.65200
 H1610 H 0.20155 0.84819 0.64252
 H1611 H 0.21338 0.90662 0.59835
 H1612 H 0.19129 0.86768 0.58958
 C1613 C 0.73843 0.70004 0.56116
 C1614 C 0.75523 0.67142 0.55479
 C1615 C 0.77339 0.65753 0.58014
 C1616 C 0.77083 0.66958 0.61190
 C1617 C 0.75010 0.69583 0.61879
 C1618 C 0.73634 0.71219 0.59229
 C1619 C 0.70265 0.72406 0.58709
 C1620 C 0.70496 0.71080 0.55285
 H1621 H 0.78721 0.63570 0.57604
 H1622 H 0.78379 0.65728 0.63122
 H1623 H 0.70128 0.75097 0.58764
 H1624 H 0.68455 0.71104 0.60268
 H1625 H 0.70504 0.73013 0.53374
 H1626 H 0.68785 0.69040 0.54862
 C1627 C 0.23595 0.19762 0.06521
 C1628 C 0.25351 0.16940 0.05916
 C1629 C 0.27348 0.15731 0.08403
 C1630 C 0.27176 0.17035 0.11542
 C1631 C 0.25011 0.19581 0.12232
 C1632 C 0.23467 0.21077 0.09595
 C1633 C 0.20037 0.22126 0.09179
 C1634 C 0.20179 0.20692 0.05794
 H1635 H 0.28793 0.13586 0.08011
 H1636 H 0.28589 0.15919 0.13458
 H1637 H 0.19806 0.24811 0.09151
 H1638 H 0.18338 0.20814 0.10851
 H1639 H 0.20043 0.22558 0.03825
 H1640 H 0.18521 0.18583 0.05509
 C1641 C 0.27433 0.14929 0.91647
 C1642 C 0.26288 0.16519 0.94395
 C1643 C 0.26004 0.19920 0.94211
 C1644 C 0.26321 0.21558 0.91185
 C1645 C 0.26878 0.19794 0.88321
 C1646 C 0.27694 0.16519 0.88685
 C1647 C 0.26820 0.13541 0.86846
 C1648 C 0.26550 0.11781 0.90117
 H1649 H 0.25246 0.21259 0.96324
 H1650 H 0.25804 0.24129 0.91046
 H1651 H 0.28867 0.12675 0.85331
 H1652 H 0.24457 0.13736 0.85578
 H1653 H 0.28453 0.09917 0.90483
 H1654 H 0.24044 0.10952 0.90687
 C1655 C 0.78680 0.65767 0.41444
 C1656 C 0.77061 0.67362 0.43943
 C1657 C 0.76330 0.70665 0.43462
 C1658 C 0.76736 0.72133 0.40365
 C1659 C 0.77788 0.70278 0.37710
 C1660 C 0.78991 0.67174 0.38387
 C1661 C 0.78594 0.63995 0.36730
 C1662 C 0.78274 0.62443 0.40095
 H1663 H 0.75147 0.72006 0.45370
 H1664 H 0.75873 0.74583 0.39973
 H1665 H 0.80832 0.63268 0.35423
 H1666 H 0.76326 0.63824 0.35296
 H1667 H 0.80340 0.60844 0.40729
 H1668 H 0.75837 0.61372 0.40574
 C1669 C 0.24799 0.79688 0.43920
 C1670 C 0.26311 0.82696 0.44422
 C1671 C 0.28033 0.84076 0.41776
 C1672 C 0.27814 0.82732 0.38653
 C1673 C 0.25830 0.79987 0.38086
 C1674 C 0.24596 0.78351 0.40839
 C1675 C 0.21307 0.76973 0.41501
 C1676 C 0.21514 0.78442 0.44862
 H1677 H 0.29190 0.86422 0.42018
 H1678 H 0.28978 0.84015 0.36648
 H1679 H 0.21300 0.74276 0.41546
 H1680 H 0.19432 0.78106 0.39946
 H1681 H 0.21627 0.76586 0.46842
 H1682 H 0.19723 0.80401 0.45253
 C1683 C 0.74551 0.29375 0.94161
 C1684 C 0.76322 0.32193 0.94893
 C1685 C 0.78313 0.33490 0.92387
 C1686 C 0.78161 0.32264 0.89202
 C1687 C 0.75990 0.29721 0.88427
 C1688 C 0.74433 0.28148 0.91040
 C1689 C 0.71011 0.27016 0.91449
 C1690 C 0.71138 0.28340 0.94878
 H1691 H 0.79650 0.35719 0.92763
 H1692 H 0.79549 0.33487 0.87306
 H1693 H 0.70798 0.24328 0.91391
 H1694 H 0.69306 0.28349 0.89837
 H1695 H 0.71013 0.26407 0.96785
 H1696 H 0.69463 0.30396 0.95251
 C1697 C 0.82922 0.42249 0.28359
 C1698 C 0.82042 0.44654 0.26106
 C1699 C 0.79426 0.43955 0.24029
 C1700 C 0.78129 0.40783 0.23868
 C1701 C 0.79478 0.38236 0.25734
 C1702 C 0.81687 0.39112 0.28157
 C1703 C 0.84836 0.37627 0.29118
 C1704 C 0.86193 0.41052 0.29337
 H1705 H 0.78658 0.45750 0.22252
 H1706 H 0.76297 0.40277 0.22067
 H1707 H 0.85956 0.36203 0.27137
 H1708 H 0.84675 0.36355 0.31512
 H1709 H 0.88107 0.41595 0.27494
 H1710 H 0.86815 0.41749 0.31857
 C1711 C 0.29575 0.94279 0.74829
 C1712 C 0.32436 0.94946 0.76517
 C1713 C 0.33776 0.92407 0.78389
 C1714 C 0.32576 0.89208 0.78127
 C1715 C 0.30006 0.88496 0.75989
 C1716 C 0.28372 0.91138 0.74604
 C1717 C 0.27205 0.91690 0.71218
 C1718 C 0.28518 0.95137 0.71459
 H1719 H 0.35978 0.92820 0.79749
 H1720 H 0.33809 0.87276 0.79419
 H1721 H 0.24519 0.91575 0.71061
 H1722 H 0.28519 0.90200 0.69413
 H1723 H 0.26581 0.96997 0.71445
 H1724 H 0.30562 0.95643 0.69758
 C1725 C 0.17949 0.92540 0.28851
 C1726 C 0.17953 0.94291 0.25913
 C1727 C 0.20066 0.93283 0.23432
 C1728 C 0.21708 0.90319 0.23718
 C1729 C 0.21253 0.88325 0.26483
 C1730 C 0.19551 0.89590 0.29122
 C1731 C 0.16911 0.88109 0.31156
 C1732 C 0.15158 0.91335 0.30865
 H1733 H 0.20209 0.94630 0.21157
 H1734 H 0.23069 0.89443 0.21656
 H1735 H 0.17729 0.87547 0.33668
 H1736 H 0.15635 0.86087 0.29924
 H1737 H 0.14969 0.92631 0.33207
 H1738 H 0.12864 0.91188 0.29467
 C1739 C 0.67908 0.42995 0.78352
 C1740 C 0.67557 0.44345 0.75232
 C1741 C 0.69257 0.42880 0.72666
 C1742 C 0.70728 0.39852 0.73123
 C1743 C 0.70580 0.38266 0.76162
 C1744 C 0.69416 0.40008 0.78815
 C1745 C 0.67066 0.39001 0.81407
 C1746 C 0.65411 0.42255 0.80896
 H1747 H 0.69188 0.43922 0.70238
 H1748 H 0.71765 0.38642 0.71047
 H1749 H 0.68241 0.38754 0.83820
 H1750 H 0.65555 0.36897 0.80684
 H1751 H 0.65632 0.43883 0.83014
 H1752 H 0.62926 0.42041 0.79883
 C1753 C 0.65715 0.58046 0.76818
 C1754 C 0.66818 0.55624 0.74760
 C1755 C 0.69486 0.56340 0.72724
 C1756 C 0.70769 0.59512 0.72530
 C1757 C 0.69336 0.62043 0.74298
 C1758 C 0.66940 0.61185 0.76585
 C1759 C 0.63688 0.62636 0.77185
 C1760 C 0.62351 0.59196 0.77446
 H1761 H 0.70420 0.54507 0.71115
 H1762 H 0.72743 0.60014 0.70851
 H1763 H 0.62764 0.64014 0.75045
 H1764 H 0.63592 0.63954 0.79520
 H1765 H 0.60646 0.58580 0.75461
 H1766 H 0.61493 0.58533 0.79932
 C1767 C 0.15904 0.07916 0.27915
 C1768 C 0.17067 0.05459 0.25933
 C1769 C 0.19818 0.06123 0.23999
 C1770 C 0.21095 0.09293 0.23770
 C1771 C 0.19586 0.11864 0.25414
 C1772 C 0.17135 0.11050 0.27659
 C1773 C 0.13869 0.12511 0.28156
 C1774 C 0.12526 0.09075 0.28439
 H1775 H 0.20801 0.04260 0.22454
 H1776 H 0.23109 0.09760 0.22130
 H1777 H 0.12996 0.13856 0.25973
 H1778 H 0.13716 0.13863 0.30468
 H1779 H 0.10869 0.08428 0.26424
 H1780 H 0.11607 0.08450 0.30913
 C1781 C 0.35842 0.09719 0.75805
 C1782 C 0.34030 0.06849 0.76327
 C1783 C 0.30978 0.07185 0.77831
 C1784 C 0.29617 0.10299 0.78243
 C1785 C 0.31323 0.13139 0.77228
 C1786 C 0.34557 0.12752 0.76319
 C1787 C 0.36606 0.14330 0.73753
 C1788 C 0.38017 0.11003 0.73144
 H1789 H 0.29536 0.05055 0.78437
 H1790 H 0.27151 0.10456 0.79132
 H1791 H 0.38407 0.16045 0.74757
 H1792 H 0.35174 0.15284 0.71674
 H1793 H 0.40625 0.10828 0.73778
 H1794 H 0.37378 0.10209 0.70666
 C1795 C 0.85626 0.58948 0.23244
 C1796 C 0.84408 0.56202 0.24898
 C1797 C 0.81797 0.56796 0.27062
 C1798 C 0.80484 0.59960 0.27388
 C1799 C 0.81756 0.62642 0.25581
 C1800 C 0.84401 0.61979 0.23609
 C1801 C 0.86524 0.63482 0.21074
 C1802 C 0.87952 0.60082 0.20661
 H1803 H 0.80676 0.54824 0.28424
 H1804 H 0.78425 0.60274 0.28990
 H1805 H 0.88262 0.65262 0.22085
 H1806 H 0.85132 0.64340 0.18927
 H1807 H 0.90517 0.59889 0.21446
 H1808 H 0.87407 0.59068 0.18236
 C1809 C 0.93653 0.27009 0.19964
 C1810 C 0.93909 0.26776 0.16585
 C1811 C 0.91176 0.27601 0.14724
 C1812 C 0.88153 0.28065 0.16231
 C1813 C 0.87811 0.27715 0.19629
 C1814 C 0.90657 0.27477 0.21462
 C1815 C 0.91469 0.25218 0.24201
 C1816 C 0.94735 0.24710 0.22564
 H1817 H 0.91303 0.27551 0.12097
 H1818 H 0.86036 0.28376 0.14716
 H1819 H 0.89914 0.23002 0.24258
 H1820 H 0.91656 0.26499 0.26550
 H1821 H 0.95075 0.22202 0.21668
 H1822 H 0.96800 0.25703 0.23969
 C1823 C 0.43660 0.76439 0.69936
 C1824 C 0.44048 0.76746 0.66572
 C1825 C 0.41299 0.77378 0.64669
 C1826 C 0.38254 0.77766 0.66119
 C1827 C 0.37881 0.77546 0.69516
 C1828 C 0.40625 0.76858 0.71388
 C1829 C 0.42029 0.78802 0.74073
 C1830 C 0.45320 0.78349 0.72499
 H1831 H 0.41492 0.77444 0.62043
 H1832 H 0.36171 0.78144 0.64572
 H1833 H 0.41785 0.77536 0.76465
 H1834 H 0.41200 0.81365 0.74031
 H1835 H 0.46977 0.76822 0.73981
 H1836 H 0.46412 0.80647 0.71540
 C1837 C 0.43578 0.25408 0.80093
 C1838 C 0.44192 0.26483 0.83237
 C1839 C 0.41596 0.27865 0.84961
 C1840 C 0.38425 0.27794 0.83714
 C1841 C 0.37766 0.26251 0.80751
 C1842 C 0.40438 0.25295 0.78883
 C1843 C 0.41029 0.22154 0.77233
 C1844 C 0.44465 0.22290 0.78525
 H1845 H 0.41942 0.28644 0.87435
 H1846 H 0.36468 0.28695 0.85204
 H1847 H 0.40897 0.22392 0.74545
 H1848 H 0.39565 0.20145 0.78331
 H1849 H 0.46319 0.22649 0.76584
 H1850 H 0.44999 0.20315 0.80306
 C1851 C 0.93144 0.72890 0.30814
 C1852 C 0.94510 0.75533 0.32447
 C1853 C 0.92826 0.78504 0.32056
 C1854 C 0.89741 0.78608 0.30504
 C1855 C 0.88388 0.75800 0.29073
 C1856 C 0.90348 0.73081 0.29074
 C1857 C 0.90111 0.69528 0.28564
 C1858 C 0.93293 0.69280 0.30465
 H1859 H 0.93699 0.80663 0.33213
 H1860 H 0.88380 0.80844 0.30519
 H1861 H 0.90374 0.68904 0.25964
 H1862 H 0.88000 0.68410 0.29855
 H1863 H 0.95389 0.68518 0.28959
 H1864 H 0.92952 0.67898 0.32775
 C1865 C 0.08425 0.78433 0.35198
 C1866 C 0.05830 0.77266 0.33351
 C1867 C 0.06373 0.76898 0.30001
 C1868 C 0.09543 0.77177 0.28701
 C1869 C 0.12226 0.77761 0.30746
 C1870 C 0.11534 0.78663 0.33932
 C1871 C 0.13063 0.77908 0.37118
 C1872 C 0.09645 0.77649 0.38527
 H1873 H 0.04425 0.76076 0.28456
 H1874 H 0.09927 0.76609 0.26169
 H1875 H 0.14437 0.80023 0.38053
 H1876 H 0.14376 0.75562 0.37135
 H1877 H 0.09087 0.79598 0.40279
 H1878 H 0.09022 0.75157 0.39388
 C1879 C 0.57196 0.27850 0.82516
 C1880 C 0.55891 0.24773 0.83246
 C1881 C 0.57754 0.22063 0.82333
 C1882 C 0.60974 0.22450 0.81263
 C1883 C 0.62382 0.25555 0.80964
 C1884 C 0.60349 0.28234 0.81331
 C1885 C 0.60874 0.31239 0.83245
 C1886 C 0.57448 0.30802 0.84558
 H1887 H 0.56801 0.19621 0.82601
 H1888 H 0.62386 0.20314 0.80730
 H1889 H 0.61137 0.33418 0.81648
 H1890 H 0.62777 0.30953 0.85128
 H1891 H 0.55778 0.32749 0.83740
 H1892 H 0.57364 0.30224 0.87203
 C1893 C 0.56374 0.74305 0.69784
 C1894 C 0.55806 0.75760 0.66755
 C1895 C 0.58455 0.77156 0.65078
 C1896 C 0.61622 0.76756 0.66247
 C1897 C 0.62199 0.74905 0.69095
 C1898 C 0.59498 0.73917 0.70942
 C1899 C 0.58705 0.70685 0.72439
 C1900 C 0.55277 0.71114 0.71174
 H1901 H 0.58114 0.78268 0.62709
 H1902 H 0.63618 0.77740 0.64818
 H1903 H 0.58850 0.70717 0.75133
 H1904 H 0.60029 0.68667 0.71268
 H1905 H 0.53452 0.71406 0.73141
 H1906 H 0.54612 0.69328 0.69289
 C1907 C 0.08060 0.26315 0.15542
 C1908 C 0.05552 0.24509 0.16992
 C1909 C 0.06378 0.22244 0.19442
 C1910 C 0.09566 0.22067 0.20624
 C1911 C 0.12025 0.24101 0.19323
 C1912 C 0.11217 0.26128 0.16694
 C1913 C 0.11784 0.29684 0.16250
 C1914 C 0.08327 0.29900 0.15028
 H1915 H 0.04554 0.20596 0.20423
 H1916 H 0.10091 0.20360 0.22571
 H1917 H 0.13625 0.30224 0.14335
 H1918 H 0.12170 0.30945 0.18587
 H1919 H 0.08175 0.30599 0.12416
 H1920 H 0.06706 0.31270 0.16672
 C1921 C -0.11086 1.00235 0.84462
 C1922 C -0.09450 0.99685 0.81552
 C1923 C -0.06156 0.98741 0.81877
 C1924 C -0.04689 0.98469 0.84976
 C1925 C -0.06465 0.99108 0.87845
 C1926 C -0.09684 0.99969 0.87420
 C1927 C -0.12700 1.00842 0.89195
 C1928 C -0.14300 1.01130 0.85833
 H1929 H -0.04678 0.98170 0.79801
 H1930 H -0.02166 0.97780 0.85111
 H1931 H -0.12465 1.03197 0.90458
 H1932 H -0.13660 0.98791 0.90705
 H1933 H -0.15001 1.03651 0.85166
 H1934 H -0.16177 0.99241 0.85397
 C1935 C 0.43719 0.50473 0.31045
 C1936 C 0.40537 0.51610 0.30714
 C1937 C 0.39010 0.52811 0.33521
 C1938 C 0.40540 0.52634 0.36555
 C1939 C 0.43605 0.51173 0.36879
 C1940 C 0.45223 0.50288 0.34041
 C1941 C 0.46858 0.47178 0.33244
 C1942 C 0.45210 0.47372 0.29960
 H1943 H 0.36547 0.53690 0.33426
 H1944 H 0.39236 0.53479 0.38665
 H1945 H 0.45995 0.45106 0.34786
 H1946 H 0.49535 0.47465 0.33088
 H1947 H 0.43391 0.45410 0.29593
 H1948 H 0.46945 0.47759 0.27916
 C1949 C 0.60483 -0.00339 0.34302
 C1950 C 0.59089 0.00991 0.31488
 C1951 C 0.56055 0.02519 0.31848
 C1952 C 0.54640 0.02847 0.34957
 C1953 C 0.56243 0.01687 0.37766
 C1954 C 0.59093 -0.00045 0.37321
 C1955 C 0.62303 0.00192 0.38958
 C1956 C 0.63844 -0.00162 0.35619
 H1957 H 0.54821 0.03568 0.29783
 H1958 H 0.52333 0.04064 0.35161
 H1959 H 0.62758 -0.01915 0.40604
 H1960 H 0.62730 0.02613 0.40043
 H1961 H 0.65162 -0.02484 0.35335
 H1962 H 0.65198 0.02045 0.34808
 C1963 C 0.05375 0.52146 0.81314
 C1964 C 0.08760 0.52223 0.81000
 C1965 C 0.10588 0.52626 0.83864
 C1966 C 0.09098 0.52544 0.86926
 C1967 C 0.05739 0.52047 0.87208
 C1968 C 0.03899 0.52088 0.84359
 C1969 C 0.01330 0.49771 0.83312
 C1970 C 0.02945 0.49809 0.79991
 H1971 H 0.13209 0.52751 0.83753
 H1972 H 0.10601 0.52667 0.89071
 H1973 H -0.01109 0.50898 0.83308
 H1974 H 0.01472 0.47381 0.84589
 H1975 H 0.01410 0.50933 0.78078
 H1976 H 0.04036 0.47444 0.79339
 C1977 C 0.06073 0.48930 0.68183
 C1978 C 0.09092 0.50421 0.68677
 C1979 C 0.10968 0.51163 0.65880
 C1980 C 0.09691 0.50754 0.62735
 C1981 C 0.06509 0.49560 0.62301
 C1982 C 0.04837 0.48490 0.65090
 C1983 C 0.01442 0.49087 0.66164
 C1984 C 0.02785 0.49617 0.69543
 H1985 H 0.13364 0.52218 0.66108
 H1986 H 0.11145 0.51513 0.60661
 H1987 H -0.00101 0.46875 0.66000
 H1988 H 0.00403 0.51320 0.65049
 H1989 H 0.01981 0.47736 0.71339
 H1990 H 0.02503 0.52169 0.70332
 C1991 C 0.56209 0.99389 0.18616
 C1992 C 0.59423 1.00373 0.19068
 C1993 C 0.61268 1.00809 0.16174
 C1994 C 0.59863 1.00347 0.13063
 C1995 C 0.56582 0.99354 0.12739
 C1996 C 0.54896 0.98864 0.15639
 C1997 C 0.51671 0.97897 0.16967
 C1998 C 0.53143 0.98448 0.20341
 H1999 H 0.63781 1.01549 0.16280
 H2000 H 0.61347 1.00790 0.10924
 H2001 H 0.51078 0.95314 0.16486
 H2002 H 0.49756 0.99669 0.16312
 H2003 H 0.53408 0.96182 0.21808
 H2004 H 0.52016 1.00511 0.21626
 C2005 C 0.38796 0.49723 0.15678
 C2006 C 0.40563 0.49718 0.18581
 C2007 C 0.43944 0.49186 0.18310
 C2008 C 0.45500 0.49180 0.15262
 C2009 C 0.43718 0.49605 0.12389
 C2010 C 0.40335 0.49644 0.12664
 C2011 C 0.37952 0.51902 0.11151
 C2012 C 0.36267 0.51997 0.14441
 H2013 H 0.45440 0.48868 0.20434
 H2014 H 0.48107 0.48910 0.15162
 H2015 H 0.36479 0.50699 0.09256
 H2016 H 0.39062 0.54263 0.10398
 H2017 H 0.33817 0.50860 0.14421
 H2018 H 0.36393 0.54412 0.15593
 C2019 C -0.11061 -0.01161 0.66370
 C2020 C -0.09523 -0.00136 0.69184
 C2021 C -0.06327 0.01105 0.68750
 C2022 C -0.04796 0.01146 0.65666
 C2023 C -0.06407 -0.00038 0.62894
 C2024 C -0.09575 -0.01136 0.63404
 C2025 C -0.12389 -0.02643 0.61745
 C2026 C -0.14075 -0.02688 0.65092
 H2027 H -0.04994 0.02081 0.70774
 H2028 H -0.02349 0.02096 0.65471
 H2029 H -0.11827 -0.05102 0.60832
 H2030 H -0.13520 -0.00961 0.59954
 H2031 H -0.14489 -0.05177 0.66082
 H2032 H -0.16195 -0.01046 0.65209
 C2033 C -0.16702 0.89441 1.02863
 C2034 C -0.19288 0.90645 1.01025
 C2035 C -0.18727 0.93498 0.99158
 C2036 C -0.15638 0.94927 0.98988
 C2037 C -0.12998 0.93478 1.00589
 C2038 C -0.13639 0.90830 1.02661
 C2039 C -0.12013 0.87611 1.02890
 C2040 C -0.15369 0.86086 1.03114
 H2041 H -0.20613 0.94517 0.97649
 H2042 H -0.15287 0.97048 0.97441
 H2043 H -0.10595 0.87333 1.05163
 H2044 H -0.10690 0.86991 1.00627
 H2045 H -0.15882 0.84932 1.05519
 H2046 H -0.15985 0.84575 1.00985
 C2047 C 0.31541 0.44360 0.48488
 C2048 C 0.31293 0.40979 0.48863
 C2049 C 0.34187 0.39174 0.48729
 C2050 C 0.37213 0.40726 0.48536
 C2051 C 0.37430 0.44133 0.48493
 C2052 C 0.34548 0.45894 0.48298
 C2053 C 0.33469 0.48663 0.50318
 C2054 C 0.30190 0.46990 0.50554
 H2055 H 0.34110 0.36549 0.48908
 H2056 H 0.39378 0.39257 0.48565
 H2057 H 0.33414 0.50979 0.48903
 H2058 H 0.34754 0.48783 0.52681
 H2059 H 0.28253 0.48382 0.49304
 H2060 H 0.29567 0.46124 0.53053
 C2061 C 0.34228 0.60174 0.00428
 C2062 C 0.31310 0.58465 0.00720
 C2063 C 0.31603 0.55072 0.01304
 C2064 C 0.34702 0.53581 0.01437
 C2065 C 0.37581 0.55438 0.00987
 C2066 C 0.37171 0.58755 0.00549
 C2067 C 0.38957 0.61847 -0.00121
 C2068 C 0.35609 0.63466 -0.00252
 H2069 H 0.29494 0.53538 0.01629
 H2070 H 0.34830 0.50980 0.01813
 H2071 H 0.40233 0.61841 -0.02505
 H2072 H 0.40451 0.62609 0.01978
 H2073 H 0.34970 0.64398 -0.02711
 H2074 H 0.35163 0.65166 0.01771
 C2075 C -0.15939 0.10615 0.51159
 C2076 C -0.18906 0.08938 0.51571
 C2077 C -0.18724 0.05492 0.51524
 C2078 C -0.15695 0.03907 0.51410
 C2079 C -0.12782 0.05711 0.51204
 C2080 C -0.13017 0.09064 0.50902
 C2081 C -0.11200 0.11711 0.52536
 C2082 C -0.14430 0.13427 0.52868
 H2083 H -0.20871 0.03982 0.51552
 H2084 H -0.15638 0.01280 0.51462
 H2085 H -0.09486 0.12985 0.50855
 H2086 H -0.10151 0.10921 0.54899
 H2087 H -0.14561 0.15714 0.51413
 H2088 H -0.15203 0.13612 0.55446
 C2089 C 0.68417 0.06490 0.50851
 C2090 C 0.68996 0.09841 0.51109
 C2091 C 0.66211 0.11833 0.51315
 C2092 C 0.63053 0.10519 0.50973
 C2093 C 0.62578 0.07195 0.50330
 C2094 C 0.65320 0.05221 0.50445
 C2095 C 0.66453 0.02720 0.48126
 C2096 C 0.69843 0.04096 0.48557
 H2097 H 0.66421 0.14405 0.51742
 H2098 H 0.60997 0.12130 0.51109
 H2099 H 0.65484 0.03099 0.45636
 H2100 H 0.66163 0.00217 0.49133
 H2101 H 0.70845 0.05269 0.46315
 H2102 H 0.71502 0.02370 0.49797
 C2103 C 0.18291 0.56112 0.98218
 C2104 C 0.18878 0.58979 0.99926
 C2105 C 0.16139 0.60802 1.00832
 C2106 C 0.12968 0.59584 1.00381
 C2107 C 0.12446 0.56517 0.98981
 C2108 C 0.15170 0.54933 0.97747
 C2109 C 0.16191 0.51484 0.98085
 C2110 C 0.19599 0.52756 0.98643
 H2111 H 0.16433 0.63095 1.02047
 H2112 H 0.10946 0.60971 1.01287
 H2113 H 0.15936 0.50146 0.95774
 H2114 H 0.15126 0.50252 1.00263
 H2115 H 0.21321 0.52115 0.96673
 H2116 H 0.20455 0.52241 1.01152
 C2117 C 0.16146 0.39233 0.48478
 C2118 C 0.18925 0.40892 0.49527
 C2119 C 0.18543 0.44187 0.50360
 C2120 C 0.15475 0.45644 0.50387
 C2121 C 0.12674 0.43859 0.49588
 C2122 C 0.13113 0.40697 0.48471
 C2123 C 0.11402 0.37643 0.49457
 C2124 C 0.14703 0.36043 0.49528
 H2125 H 0.20589 0.45624 0.51147
 H2126 H 0.15295 0.48141 0.51149
 H2127 H 0.09811 0.36721 0.47500
 H2128 H 0.10236 0.37797 0.51891
 H2129 H 0.14992 0.34155 0.47648
 H2130 H 0.15428 0.35297 0.52026
 C2131 C 0.65721 0.88714 -0.00821
 C2132 C 0.68575 0.90579 -0.00780
 C2133 C 0.68207 0.93989 -0.01079
 C2134 C 0.65130 0.95425 -0.00861
 C2135 C 0.62329 0.93493 -0.00445
 C2136 C 0.62686 0.90140 -0.00714
 C2137 C 0.61281 0.87469 0.01318
 C2138 C 0.64602 0.85919 0.01266
 H2139 H 0.70273 0.95594 -0.01338
 H2140 H 0.64962 0.98046 -0.00913
 H2141 H 0.59449 0.86069 -0.00060
 H2142 H 0.60516 0.88283 0.03767
 H2143 H 0.64609 0.83581 -0.00046
 H2144 H 0.65788 0.85866 0.03683
 C2145 C -0.03387 0.82731 0.91396
 C2146 C -0.00464 0.81078 0.90911
 C2147 C 0.02398 0.82517 0.92112
 C2148 C 0.02299 0.85500 0.93707
 C2149 C -0.00676 0.87018 0.94294
 C2150 C -0.03491 0.85637 0.93055
 C2151 C -0.06534 0.84702 0.94810
 C2152 C -0.06433 0.81526 0.92997
 H2153 H 0.04717 0.81345 0.91822
 H2154 H 0.04534 0.86581 0.94559
 H2155 H -0.08605 0.86265 0.94099
 H2156 H -0.06172 0.84399 0.97471
 H2157 H -0.08455 0.81260 0.91246
 H2158 H -0.06025 0.79375 0.94601
 C2159 C 0.49757 0.32405 0.43457
 C2160 C 0.50861 0.31995 0.40267
 C2161 C 0.51839 0.34812 0.38514
 C2162 C 0.51516 0.37911 0.39861
 C2163 C 0.50126 0.38279 0.42965
 C2164 C 0.49419 0.35460 0.44773
 C2165 C 0.46377 0.34518 0.46534
 C2166 C 0.46741 0.31170 0.45091
 H2167 H 0.52691 0.34642 0.36032
 H2168 H 0.52223 0.40015 0.38413
 H2169 H 0.44222 0.35847 0.45621
 H2170 H 0.46689 0.34533 0.49213
 H2171 H 0.44796 0.30552 0.43340
 H2172 H 0.47253 0.29260 0.46948
 C2173 C 0.01544 0.31495 0.55707
 C2174 C 0.01156 0.31151 0.59081
 C2175 C 0.01165 0.34013 0.60934
 C2176 C 0.01203 0.37084 0.59432
 C2177 C 0.01225 0.37381 0.56028
 C2178 C 0.01592 0.34550 0.54224
 C2179 C -0.00317 0.33423 0.51386
 C2180 C -0.00398 0.30091 0.53002
 H2181 H 0.00977 0.33871 0.63557
 H2182 H 0.01069 0.39214 0.60937
 H2183 H 0.01132 0.33505 0.49102
 H2184 H -0.02739 0.34578 0.51228
 H2185 H 0.00979 0.28259 0.51613
 H2186 H -0.02866 0.29308 0.53794
 C2187 C 0.50275 0.81103 0.06201
 C2188 C 0.49420 0.80683 0.09480
 C2189 C 0.48507 0.83472 0.11204
 C2190 C 0.48682 0.86570 0.09754
 C2191 C 0.49845 0.86987 0.06550
 C2192 C 0.50485 0.84185 0.04777
 C2193 C 0.53476 0.83348 0.02943
 C2194 C 0.53233 0.79981 0.04453
 H2195 H 0.47777 0.83270 0.13729
 H2196 H 0.48031 0.88643 0.11199
 H2197 H 0.55603 0.84734 0.03818
 H2198 H 0.53100 0.83391 0.00272
 H2199 H 0.55263 0.79399 0.06125
 H2200 H 0.52672 0.78081 0.02647
 C2201 C 0.48227 0.67768 0.06462
 C2202 C 0.49802 0.68251 0.09438
 C2203 C 0.50758 0.65435 0.11171
 C2204 C 0.50436 0.62326 0.09813
 C2205 C 0.49148 0.61929 0.06673
 C2206 C 0.47904 0.64699 0.05132
 C2207 C 0.48382 0.65935 0.01745
 C2208 C 0.48774 0.69285 0.03178
 H2209 H 0.51910 0.65620 0.13514
 H2210 H 0.51355 0.60259 0.11165
 H2211 H 0.46155 0.65672 0.00262
 H2212 H 0.50639 0.65021 0.00604
 H2213 H 0.46792 0.70965 0.02481
 H2214 H 0.51268 0.70286 0.02860
 C2215 C -0.01486 0.18197 0.56393
 C2216 C 0.00139 0.18706 0.59328
 C2217 C 0.00996 0.15919 0.61156
 C2218 C 0.00570 0.12781 0.59894
 C2219 C -0.00753 0.12341 0.56774
 C2220 C -0.01933 0.15105 0.55166
 C2221 C -0.01490 0.16241 0.51739
 C2222 C -0.00959 0.19620 0.53069
 H2223 H 0.02143 0.16157 0.63499
 H2224 H 0.01421 0.10721 0.61301
 H2225 H -0.03754 0.16011 0.50308
 H2226 H 0.00712 0.15224 0.50578
 H2227 H -0.02898 0.21350 0.52372
 H2228 H 0.01559 0.20516 0.52661
 C2229 C 0.50286 0.16757 0.39128
 C2230 C 0.50038 0.19629 0.40900
 C2231 C 0.49594 0.19287 0.44303
 C2232 C 0.49775 0.16222 0.45851
 C2233 C 0.50329 0.13408 0.44039
 C2234 C 0.50388 0.13731 0.40656
 C2235 C 0.52808 0.12462 0.38302
 C2236 C 0.52730 0.15771 0.36638
 H2237 H 0.49168 0.21369 0.45806
 H2238 H 0.49504 0.16060 0.48466
 H2239 H 0.51781 0.10494 0.36794
 H2240 H 0.55176 0.11901 0.39450
 H2241 H 0.51701 0.15680 0.34152
 H2242 H 0.55052 0.17133 0.36835
 C2243 C -0.00273 0.66037 0.88894
 C2244 C 0.00549 0.68830 0.90615
 C2245 C 0.01936 0.68364 0.93716
 C2246 C 0.02037 0.65252 0.95176
 C2247 C 0.00754 0.62527 0.93573
 C2248 C -0.00191 0.62978 0.90338
 C2249 C -0.03155 0.61874 0.88603
 C2250 C -0.03249 0.65225 0.87015
 H2251 H 0.02849 0.70401 0.95072
 H2252 H 0.02976 0.65018 0.97618
 H2253 H -0.05231 0.61384 0.90275
 H2254 H -0.02622 0.59911 0.86859
 H2255 H -0.05377 0.66668 0.87764
 H2256 H -0.02784 0.65180 0.84355
 C2257 C 0.22820 0.68309 0.93265
 C2258 C 0.24230 0.65257 0.93643
 C2259 C 0.24824 0.63474 0.90798
 C2260 C 0.24538 0.64939 0.87708
 C2261 C 0.23636 0.68219 0.87391
 C2262 C 0.22545 0.69765 0.90210
 C2263 C 0.23340 0.73042 0.91503
 C2264 C 0.23634 0.71444 0.94842
 H2265 H 0.25706 0.61009 0.90958
 H2266 H 0.25227 0.63563 0.85595
 H2267 H 0.21256 0.74728 0.91314
 H2268 H 0.25678 0.74023 0.90545
 H2269 H 0.21715 0.72202 0.96571
 H2270 H 0.26140 0.71495 0.95822
 C2271 C 0.76135 0.14270 0.41469
 C2272 C 0.74671 0.15551 0.44261
 C2273 C 0.72693 0.18310 0.43672
 C2274 C 0.72423 0.19714 0.40492
 C2275 C 0.74025 0.18342 0.37778
 C2276 C 0.75752 0.15543 0.38432
 C2277 C 0.77742 0.13061 0.36798
 C2278 C 0.78187 0.11567 0.40197
 H2279 H 0.71487 0.19509 0.45654
 H2280 H 0.71010 0.21899 0.40183
 H2281 H 0.80009 0.14103 0.35737
 H2282 H 0.76283 0.11525 0.35149
 H2283 H 0.80756 0.11694 0.40978
 H2284 H 0.76998 0.09153 0.40511
 C2285 C 0.22044 0.33686 0.42082
 C2286 C 0.24003 0.32548 0.44610
 C2287 C 0.25944 0.29821 0.44012
 C2288 C 0.26274 0.28619 0.40845
 C2289 C 0.24717 0.30171 0.38210
 C2290 C 0.22404 0.32528 0.38952
 C2291 C 0.21840 0.35792 0.37452
 C2292 C 0.21445 0.37066 0.40875
 H2293 H 0.27486 0.28859 0.45911
 H2294 H 0.27943 0.26649 0.40435
 H2295 H 0.19562 0.35866 0.36026
 H2296 H 0.24019 0.36780 0.36170
 H2297 H 0.18938 0.37872 0.41420
 H2298 H 0.23384 0.38809 0.41562
 C2299 C 0.72347 0.83429 0.91941
 C2300 C 0.74759 0.82789 0.94219
 C2301 C 0.77137 0.80487 0.93440
 C2302 C 0.77283 0.79171 0.90307
 C2303 C 0.75118 0.80223 0.87877
 C2304 C 0.72542 0.82202 0.88828
 C2305 C 0.71270 0.85262 0.87340
 C2306 C 0.71046 0.86598 0.90757
 H2307 H 0.78999 0.79869 0.95182
 H2308 H 0.79222 0.77514 0.89732
 H2309 H 0.68864 0.84894 0.86196
 H2310 H 0.73096 0.86548 0.85788
 H2311 H 0.68513 0.86988 0.91587
 H2312 H 0.72736 0.88660 0.91186
 C2313 C 0.72499 0.79556 0.05925
 C2314 C 0.72331 0.82931 0.05592
 C2315 C 0.71205 0.84701 0.08264
 C2316 C 0.70852 0.83188 0.11325
 C2317 C 0.71610 0.79881 0.11749
 C2318 C 0.72127 0.78049 0.08954
 C2319 C 0.74715 0.75640 0.08241
 C2320 C 0.75119 0.77291 0.04937
 H2321 H 0.70971 0.87314 0.08073
 H2322 H 0.70327 0.84675 0.13410
 H2323 H 0.73733 0.73129 0.08096
 H2324 H 0.76868 0.75916 0.09829
 H2325 H 0.74368 0.75731 0.02890
 H2326 H 0.77505 0.78528 0.04610
 C2327 C 0.25511 0.35508 0.59027
 C2328 C 0.24453 0.34013 0.56203
 C2329 C 0.23096 0.30866 0.56511
 C2330 C 0.22696 0.29377 0.59621
 C2331 C 0.23600 0.31045 0.62460
 C2332 C 0.25084 0.34085 0.62046
 C2333 C 0.24310 0.37254 0.63580
 C2334 C 0.24789 0.38818 0.60248
 H2335 H 0.22383 0.29555 0.54367
 H2336 H 0.21683 0.26951 0.59800
 H2337 H 0.26183 0.37993 0.65359
 H2338 H 0.21769 0.37363 0.64481
 H2339 H 0.26941 0.40451 0.60105
 H2340 H 0.22527 0.39839 0.59205
 C2341 C 0.76511 0.20235 0.56275
 C2342 C 0.74413 0.17694 0.55410
 C2343 C 0.72029 0.16784 0.57734
 C2344 C 0.72154 0.17998 0.60941
 C2345 C 0.74609 0.20217 0.61865
 C2346 C 0.76541 0.21515 0.59364
 C2347 C 0.80076 0.22278 0.59193
 C2348 C 0.80047 0.20900 0.55779
 H2349 H 0.70329 0.14846 0.57217
 H2350 H 0.70456 0.17051 0.62735
 H2351 H 0.81511 0.20807 0.60947
 H2352 H 0.80565 0.24933 0.59228
 H2353 H 0.81538 0.18688 0.55570
 H2354 H 0.80496 0.22773 0.53857
 C2355 C 0.26709 0.69206 0.06446
 C2356 C 0.24417 0.66893 0.05501
 C2357 C 0.22151 0.65803 0.07851
 C2358 C 0.22103 0.67135 0.10991
 C2359 C 0.24319 0.69601 0.11852
 C2360 C 0.26631 0.70557 0.09522
 C2361 C 0.27409 0.73873 0.08234
 C2362 C 0.27477 0.72409 0.04874
 H2363 H 0.20522 0.63813 0.07308
 H2364 H 0.20352 0.66210 0.12745
 H2365 H 0.29825 0.74738 0.09049
 H2366 H 0.25393 0.75611 0.08588
 H2367 H 0.29930 0.72446 0.03745
 H2368 H 0.25499 0.73289 0.03270
 C2369 C 0.16543 0.58214 0.71332
 C2370 C 0.17508 0.55717 0.73446
 C2371 C 0.20300 0.56254 0.75325
 C2372 C 0.21714 0.59372 0.75475
 C2373 C 0.20308 0.62021 0.73802
 C2374 C 0.17896 0.61300 0.71529
 C2375 C 0.14738 0.62909 0.70841
 C2376 C 0.13253 0.59536 0.70624
 H2377 H 0.21139 0.54378 0.76980
 H2378 H 0.23688 0.59759 0.77151
 H2379 H 0.14769 0.64248 0.68479
 H2380 H 0.13809 0.64305 0.72938
 H2381 H 0.12434 0.58931 0.68136
 H2382 H 0.11455 0.58998 0.72582
 C2383 C 0.67721 0.06966 0.21857
 C2384 C 0.67938 0.04916 0.24598
 C2385 C 0.70025 0.05920 0.27115
 C2386 C 0.71434 0.09037 0.27086
 C2387 C 0.70678 0.11293 0.24613
 C2388 C 0.69003 0.10112 0.21909
 C2389 C 0.66214 0.11510 0.20099
 C2390 C 0.64800 0.08102 0.20033
 H2391 H 0.70334 0.04393 0.29254
 H2392 H 0.72838 0.09776 0.29168
 H2393 H 0.66940 0.12452 0.17657
 H2394 H 0.64754 0.13202 0.21582
 H2395 H 0.64702 0.07113 0.17542
 H2396 H 0.62517 0.07834 0.21463
 C2397 C 0.81046 0.06529 0.72264
 C2398 C 0.84039 0.06234 0.73855
 C2399 C 0.85771 0.09125 0.74429
 C2400 C 0.84339 0.12154 0.73925
 C2401 C 0.81065 0.12411 0.72971
 C2402 C 0.79556 0.09556 0.71902
 C2403 C 0.76278 0.08190 0.72638
 C2404 C 0.77884 0.04894 0.73022
 H2405 H 0.88208 0.09061 0.75390
 H2406 H 0.85738 0.14283 0.74565
 H2407 H 0.74643 0.08343 0.70506
 H2408 H 0.75246 0.09117 0.74943
 H2409 H 0.77175 0.03154 0.71109
 H2410 H 0.77769 0.03900 0.75546
 C2411 C 0.33170 0.58123 0.20951
 C2412 C 0.32082 0.55502 0.22865
 C2413 C 0.28973 0.55722 0.24286
 C2414 C 0.27265 0.58685 0.24197
 C2415 C 0.28691 0.61465 0.22747
 C2416 C 0.31525 0.61043 0.20918
 C2417 C 0.34589 0.62990 0.20723
 C2418 C 0.36398 0.59790 0.20768
 H2419 H 0.28035 0.53734 0.25769
 H2420 H 0.25035 0.58891 0.25574
 H2421 H 0.35048 0.64454 0.22921
 H2422 H 0.34829 0.64340 0.18377
 H2423 H 0.37876 0.59423 0.22990
 H2424 H 0.37693 0.59322 0.18451
 C2425 C 0.30305 0.43610 0.26717
 C2426 C 0.33064 0.44283 0.24822
 C2427 C 0.34267 0.41788 0.22874
 C2428 C 0.32999 0.38615 0.23182
 C2429 C 0.30476 0.37884 0.25424
 C2430 C 0.29009 0.40502 0.26965
 C2431 C 0.28050 0.40940 0.30429
 C2432 C 0.29465 0.44356 0.30157
 H2433 H 0.36345 0.42231 0.21307
 H2434 H 0.34086 0.36717 0.21757
 H2435 H 0.29407 0.39323 0.32117
 H2436 H 0.25375 0.40904 0.30762
 H2437 H 0.31616 0.44709 0.31725
 H2438 H 0.27600 0.46281 0.30325
 C2439 C 0.79488 0.93829 0.76029
 C2440 C 0.82430 0.94630 0.74510
 C2441 C 0.84026 0.92173 0.72792
 C2442 C 0.82922 0.88933 0.72994
 C2443 C 0.80209 0.88091 0.74940
 C2444 C 0.78389 0.90644 0.76207
 C2445 C 0.76990 0.91081 0.79522
 C2446 C 0.78191 0.94577 0.79326
 H2447 H 0.86319 0.92687 0.71596
 H2448 H 0.84312 0.87075 0.71797
 H2449 H 0.78241 0.89598 0.81407
 H2450 H 0.74304 0.90865 0.79537
 H2451 H 0.80111 0.95119 0.81123
 H2452 H 0.76192 0.96368 0.79218
 C2453 C 0.65017 0.91006 0.26797
 C2454 C 0.65500 0.93563 0.24545
 C2455 C 0.67085 0.92776 0.21604
 C2456 C 0.68384 0.89631 0.21138
 C2457 C 0.68043 0.87192 0.23567
 C2458 C 0.66207 0.87926 0.26302
 C2459 C 0.67047 0.87442 0.29794
 C2460 C 0.65778 0.90823 0.30353
 H2461 H 0.67431 0.94588 0.19709
 H2462 H 0.69731 0.89144 0.18937
 H2463 H 0.69700 0.87231 0.30199
 H2464 H 0.65534 0.85519 0.30977
 H2465 H 0.67690 0.92585 0.31067
 H2466 H 0.63574 0.90801 0.31916
 C2467 C 0.14183 0.41600 0.76690
 C2468 C 0.15508 0.44301 0.75049
 C2469 C 0.18421 0.43857 0.73320
 C2470 C 0.19801 0.40741 0.73091
 C2471 C 0.18274 0.38001 0.74558
 C2472 C 0.15519 0.38542 0.76450
 C2473 C 0.12266 0.36942 0.76338
 C2474 C 0.10801 0.40295 0.76627
 H2475 H 0.19630 0.45898 0.72143
 H2476 H 0.22033 0.40477 0.71729
 H2477 H 0.11799 0.35358 0.78499
 H2478 H 0.11785 0.35805 0.73957
 H2479 H 0.09509 0.40654 0.78969
 H2480 H 0.09451 0.41090 0.74428
 C2481 C 0.08696 0.74725 0.85076
 C2482 C 0.05865 0.74288 0.83300
 C2483 C 0.06156 0.73573 0.79974
 C2484 C 0.09258 0.73195 0.78541
 C2485 C 0.12091 0.73511 0.80432
 C2486 C 0.11711 0.74340 0.83690
 C2487 C 0.13011 0.72703 0.86666
 C2488 C 0.09686 0.73136 0.88190
 H2489 H 0.04010 0.73382 0.78485
 H2490 H 0.09440 0.72727 0.75966
 H2491 H 0.14931 0.74172 0.87845
 H2492 H 0.13645 0.70122 0.86257
 H2493 H 0.09683 0.74861 0.90240
 H2494 H 0.08377 0.70808 0.88670
 C2495 C 0.56328 0.24018 0.29719
 C2496 C 0.55865 0.23757 0.33079
 C2497 C 0.58537 0.22963 0.35029
 C2498 C 0.61572 0.22374 0.33634
 C2499 C 0.62025 0.22567 0.30243
 C2500 C 0.59359 0.23410 0.28318
 C2501 C 0.57883 0.21507 0.25641
 C2502 C 0.54604 0.22167 0.27155
 H2503 H 0.58300 0.22932 0.37651
 H2504 H 0.63603 0.21889 0.35221
 H2505 H 0.58566 0.18901 0.25732
 H2506 H 0.58231 0.22722 0.23236
 H2507 H 0.53372 0.19946 0.28128
 H2508 H 0.53057 0.23764 0.25625
 C2509 C 0.57517 0.71574 0.16761
 C2510 C 0.55183 0.73854 0.17620
 C2511 C 0.55950 0.75993 0.20151
 C2512 C 0.59099 0.76088 0.21472
 C2513 C 0.61577 0.74110 0.20216
 C2514 C 0.60641 0.71719 0.18006
 C2515 C 0.62117 0.70771 0.14841
 C2516 C 0.58701 0.70610 0.13484
 H2517 H 0.54196 0.77773 0.20918
 H2518 H 0.59649 0.77889 0.23281
 H2519 H 0.63305 0.68362 0.14996
 H2520 H 0.63620 0.72743 0.13720
 H2521 H 0.57923 0.68108 0.12864
 H2522 H 0.58226 0.72483 0.11578
 C2523 C 0.05864 0.25469 0.70515
 C2524 C 0.05335 0.23793 0.67627
 C2525 C 0.07884 0.21881 0.66445
 C2526 C 0.11006 0.22122 0.67801
 C2527 C 0.11624 0.24274 0.70371
 C2528 C 0.08931 0.25678 0.71868
 C2529 C 0.08404 0.29075 0.72946
 C2530 C 0.05033 0.28843 0.71492
 H2531 H 0.07570 0.20517 0.64238
 H2532 H 0.12971 0.20818 0.66670
 H2533 H 0.10010 0.30838 0.71640
 H2534 H 0.08385 0.29271 0.75636
 H2535 H 0.04679 0.30539 0.69407
 H2536 H 0.03073 0.28870 0.73352
 C2537 C 0.93307 0.22516 0.68587
 C2538 C 0.93722 0.23954 0.65521
 C2539 C 0.90917 0.24600 0.63684
 C2540 C 0.87827 0.24329 0.65111
 C2541 C 0.87481 0.23409 0.68407
 C2542 C 0.90252 0.22269 0.70010
 C2543 C 0.91548 0.23035 0.73294
 C2544 C 0.94889 0.23298 0.71730
 H2545 H 0.91117 0.25517 0.61213
 H2546 H 0.85745 0.25066 0.63700
 H2547 H 0.91305 0.20943 0.75014
 H2548 H 0.90643 0.25383 0.74225
 H2549 H 0.96566 0.21354 0.72541
 H2550 H 0.95926 0.25796 0.71753
 C2551 C 0.43074 0.71659 0.19472
 C2552 C 0.43489 0.72433 0.16181
 C2553 C 0.40729 0.72311 0.14177
 C2554 C 0.37612 0.72049 0.15547
 C2555 C 0.37203 0.71879 0.18944
 C2556 C 0.39985 0.71382 0.20830
 C2557 C 0.41028 0.72985 0.23886
 C2558 C 0.44398 0.73287 0.22398
 H2559 H 0.40961 0.72756 0.11587
 H2560 H 0.35530 0.72267 0.13969
 H2561 H 0.40919 0.71295 0.26013
 H2562 H 0.39834 0.75364 0.24252
 H2563 H 0.46228 0.71769 0.23665
 H2564 H 0.45160 0.75840 0.21896
 C2565 C 0.43456 0.26559 0.30265
 C2566 C 0.44151 0.25035 0.33232
 C2567 C 0.41642 0.23287 0.34803
 C2568 C 0.38444 0.23446 0.33623
 C2569 C 0.37708 0.25364 0.30853
 C2570 C 0.40322 0.26684 0.29087
 C2571 C 0.40824 0.30007 0.27673
 C2572 C 0.44270 0.29866 0.28961
 H2573 H 0.42099 0.22029 0.37081
 H2574 H 0.36539 0.22199 0.34971
 H2575 H 0.39305 0.31861 0.28877
 H2576 H 0.40706 0.30023 0.24976
 H2577 H 0.44746 0.31665 0.30887
 H2578 H 0.46132 0.29789 0.27003
 C2579 C 0.91404 0.72388 0.84442
 C2580 C 0.94124 0.73829 0.82966
 C2581 C 0.93731 0.75311 0.79893
 C2582 C 0.90614 0.75715 0.78572
 C2583 C 0.87844 0.74683 0.80339
 C2584 C 0.88343 0.72793 0.83144
 C2585 C 0.86788 0.73005 0.86415
 C2586 C 0.90140 0.72572 0.87850
 H2587 H 0.95785 0.76453 0.78678
 H2588 H 0.90368 0.77028 0.76292
 H2589 H 0.85137 0.70917 0.86931
 H2590 H 0.85737 0.75435 0.86875
 H2591 H 0.90392 0.70245 0.89213
 H2592 H 0.91007 0.74746 0.89164
   
