data_POSCAR
  _audit_creation_date              2014-09-24
  _audit_creation_method            'ToBaCCo'
  _symmetry_space_group_name_H-M    'P1'
  _symmetry_Int_Tables_number       1
  _symmetry_cell_setting            triclinic
  loop_
  _symmetry_equiv_pos_as_xyz
 x,y,z
_cell_length_a 44.2225
_cell_length_b 44.2224
_cell_length_c 44.1971
_cell_angle_alpha 89.853100
_cell_angle_beta 90.350700
_cell_angle_gamma 89.888800
loop_
  _atom_site_label
  _atom_site_type_symbol
  _atom_site_fract_x
  _atom_site_fract_y
  _atom_site_fract_z
C1 C 0.24256 0.96569 -0.02078
 C2 C 0.23413 0.96531 0.01017
 C3 C 0.23015 0.99276 0.02542
 C4 C 0.23609 1.02105 0.01205
 C5 C 0.24480 1.02188 -0.01895
 C6 C 0.24776 0.99412 -0.03449
 H7 H 0.25136 0.99486 -0.05867
 H8 H 0.22579 0.99168 0.04952
 C9 C 0.74854 0.52420 0.47533
 C10 C 0.75573 0.52439 0.50643
 C11 C 0.75986 0.49704 0.52181
 C12 C 0.75646 0.46922 0.50717
 C13 C 0.74943 0.46862 0.47589
 C14 C 0.74587 0.49629 0.46042
 H15 H 0.74113 0.49618 0.43632
 H16 H 0.76456 0.49741 0.54594
 C17 C 0.74468 1.01153 1.01718
 C18 C 0.75312 0.98046 1.01738
 C19 C 0.75914 0.96645 0.98935
 C20 C 0.75711 0.98204 0.96170
 C21 C 0.74842 1.01269 0.96190
 C22 C 0.74216 1.02684 0.98943
 H23 H 0.73684 1.05081 0.98926
 H24 H 0.76418 0.94246 0.98865
 C25 C 0.25032 0.47763 0.52286
 C26 C 0.24348 0.50874 0.52169
 C27 C 0.24168 0.52337 0.49366
 C28 C 0.24729 0.50797 0.46660
 C29 C 0.25416 0.47676 0.46748
 C30 C 0.25513 0.46200 0.49571
 H31 H 0.25998 0.43796 0.49664
 H32 H 0.23729 0.54753 0.49299
 C33 C 0.96682 0.23322 -0.00560
 C34 C 0.96742 0.23988 0.02584
 C35 C 0.99555 0.24327 0.04053
 C36 C 1.02338 0.24041 0.02529
 C37 C 1.02255 0.23364 -0.00607
 C38 C 0.99462 0.22966 -0.02055
 H39 H 0.99477 0.22669 -0.04490
 H40 H 0.99560 0.24617 0.06486
 C41 C 0.46349 0.74814 0.49343
 C42 C 0.46552 0.74722 0.52536
 C43 C 0.49432 0.74855 0.53903
 C44 C 0.52083 0.75197 0.52194
 C45 C 0.51827 0.75509 0.49025
 C46 C 0.48980 0.75264 0.47655
 H47 H 0.48807 0.75426 0.45209
 H48 H 0.49618 0.74688 0.56345
 C49 C 0.00879 0.74253 -0.01919
 C50 C -0.02164 0.75342 -0.02096
 C51 C -0.03728 0.75838 0.00640
 C52 C -0.02379 0.75378 0.03482
 C53 C 0.00691 0.74596 0.03632
 C54 C 0.02235 0.73949 0.00965
 H55 H 0.04623 0.73403 0.01154
 H56 H -0.06119 0.76390 0.00582
 C57 C 0.51271 0.24722 0.54025
 C58 C 0.48088 0.24989 0.54098
 C59 C 0.46494 0.25136 0.51337
 C60 C 0.47968 0.24938 0.48532
 C61 C 0.51134 0.24495 0.48490
 C62 C 0.52729 0.24442 0.51238
 H63 H 0.55174 0.24228 0.51210
 H64 H 0.44055 0.25392 0.51372
 C65 C 0.97752 -0.01241 0.23586
 C66 C 0.97869 0.01890 0.24288
 C67 C 1.00694 0.03339 0.24430
 C68 C 1.03402 0.01810 0.23796
 C69 C 1.03296 -0.01260 0.22885
 C70 C 1.00460 -0.02703 0.22790
 H71 H 1.00418 -0.05123 0.22420
 H72 H 1.00785 0.05745 0.24893
 C73 C 0.53575 0.52570 0.73767
 C74 C 0.53793 0.49425 0.74311
 C75 C 0.51175 0.47770 0.74952
 C76 C 0.48321 0.49145 0.75014
 C77 C 0.48086 0.52275 0.74417
 C78 C 0.50706 0.53946 0.73824
 H79 H 0.50507 0.56364 0.73452
 H80 H 0.51357 0.45348 0.75310
 C81 C 1.02572 0.98108 0.74626
 C82 C 0.99517 0.98101 0.73705
 C83 C 0.97966 1.00844 0.73420
 C84 C 0.99309 1.03651 0.74097
 C85 C 1.02375 1.03657 0.75110
 C86 C 1.03946 1.00882 0.75324
 H87 H 1.06330 1.00893 0.75907
 H88 H 0.95577 1.00748 0.72860
 C89 C 0.52078 0.47750 0.24913
 C90 C 0.48924 0.47723 0.24459
 C91 C 0.47357 0.50450 0.24165
 C92 C 0.48826 0.53249 0.24407
 C93 C 0.51981 0.53310 0.24995
 C94 C 0.53561 0.50544 0.25180
 H95 H 0.55996 0.50563 0.25477
 H96 H 0.44920 0.50387 0.23858
 O97 O 0.26369 0.16716 0.20013
 O98 O 0.29757 0.15876 0.24292
 O99 O 0.18565 0.20478 0.23875
 O100 O 0.17525 0.24369 0.27040
 O101 O 0.22493 0.24565 0.16113
 O102 O 0.26769 0.27849 0.15369
 O103 O 0.26479 0.29004 0.31781
 O104 O 0.22823 0.25026 0.32586
 O105 O 0.34248 0.24638 0.28470
 O106 O 0.35235 0.21169 0.24560
 O107 O 0.30729 0.32346 0.24333
 O108 O 0.26571 0.33183 0.20454
 O109 O 0.26449 0.32538 0.28040
 O110 O 0.23271 0.33414 0.23603
 O111 O 0.34317 0.28654 0.24375
 O112 O 0.34895 0.24313 0.20632
 O113 O 0.30503 0.24995 0.31960
 O114 O 0.26771 0.21571 0.32974
 O115 O 0.26653 0.20299 0.16325
 O116 O 0.30051 0.24438 0.15484
 O117 O 0.18780 0.24734 0.19648
 O118 O 0.17916 0.28168 0.23832
 O119 O 0.22172 0.16819 0.24250
 O120 O 0.26519 0.15854 0.27544
 Zr121 Zr 0.26298 0.19179 0.24096
 O122 O 0.29057 0.21808 0.26950
 Zr123 Zr 0.21056 0.24546 0.23837
 O124 O 0.23605 0.27422 0.26669
 Zr125 Zr 0.26515 0.24406 0.18684
 O126 O 0.29316 0.27233 0.21301
 Zr127 Zr 0.26440 0.24833 0.29479
 O128 O 0.23601 0.21906 0.26927
 Zr129 Zr 0.31870 0.24585 0.24330
 O130 O 0.29333 0.21707 0.21459
 Zr131 Zr 0.26603 0.29996 0.24039
 O132 O 0.23785 0.27391 0.21171
 O133 O 0.23603 0.21683 0.21154
 O134 O 0.29349 0.27540 0.26992
 C135 C 0.26518 0.17539 0.17221
 C136 C 0.19406 0.17697 0.24091
 C137 C 0.19700 0.24719 0.16894
 C138 C 0.26468 0.31760 0.30840
 C139 C 0.33305 0.24871 0.31207
 C140 C 0.33488 0.31435 0.24405
 H141 H 0.30221 0.20459 0.28314
 H142 H 0.30648 0.28411 0.19951
 H143 H 0.22310 0.20403 0.19849
 H144 H 0.22229 0.28704 0.27870
 H145 H 0.21454 0.23327 0.32088
 H146 H 0.18169 0.25589 0.28801
 H147 H 0.36866 0.25196 0.21242
 H148 H 0.31576 0.22952 0.16194
 H149 H 0.25530 0.19833 0.32328
 H150 H 0.24822 0.16238 0.28941
 H151 H 0.28420 0.32871 0.19245
 H152 H 0.25352 0.29461 0.16000
 H153 H 0.31291 0.16471 0.22781
 H154 H 0.34452 0.19509 0.25832
 H155 H 0.18609 0.29639 0.22293
 H156 H 0.21677 0.32989 0.25104
 O157 O 0.74585 0.84458 0.21722
 O158 O 0.71142 0.85365 0.25892
 O159 O 0.82335 0.80748 0.26196
 O160 O 0.83211 0.76877 0.29494
 O161 O 0.78769 0.76385 0.18337
 O162 O 0.74408 0.73170 0.17438
 O163 O 0.74297 0.72475 0.33892
 O164 O 0.77875 0.76529 0.34654
 O165 O 0.66570 0.76755 0.30119
 O166 O 0.65783 0.80276 0.25983
 O167 O 0.70027 0.68969 0.26092
 O168 O 0.74484 0.68022 0.22643
 O169 O 0.73970 0.68879 0.30242
 O170 O 0.77446 0.67729 0.26142
 O171 O 0.66509 0.72717 0.26090
 O172 O 0.66061 0.76906 0.22261
 O173 O 0.70211 0.76453 0.33770
 O174 O 0.73859 0.79877 0.34847
 O175 O 0.74612 0.80746 0.18172
 O176 O 0.71267 0.76659 0.17213
 O177 O 0.82352 0.76487 0.22047
 O178 O 0.82983 0.73053 0.26237
 O179 O 0.78735 0.84427 0.26076
 O180 O 0.74385 0.85513 0.29201
 Zr181 Zr 0.74624 0.82081 0.25881
 O182 O 0.71786 0.79545 0.28714
 Zr183 Zr 0.79853 0.76680 0.26068
 O184 O 0.77177 0.73865 0.28828
 Zr185 Zr 0.74612 0.76702 0.20649
 O186 O 0.71655 0.74000 0.23205
 Zr187 Zr 0.74311 0.76565 0.31436
 O188 O 0.77217 0.79428 0.28925
 Zr189 Zr 0.69029 0.76736 0.26052
 O190 O 0.71692 0.79483 0.23185
 Zr191 Zr 0.74214 0.71266 0.26145
 O192 O 0.77201 0.73767 0.23367
 O193 O 0.77428 0.79489 0.23166
 O194 O 0.71429 0.73827 0.28911
 C195 C 0.74601 0.83539 0.18960
 C196 C 0.81497 0.83538 0.26184
 C197 C 0.81539 0.76341 0.19257
 C198 C 0.74060 0.69713 0.33021
 C199 C 0.67439 0.76581 0.32900
 C200 C 0.67274 0.69918 0.26068
 H201 H 0.70601 0.80935 0.29996
 H202 H 0.70362 0.72813 0.21814
 H203 H 0.78764 0.80736 0.21881
 H204 H 0.78491 0.72590 0.30125
 H205 H 0.79214 0.78250 0.34156
 H206 H 0.82540 0.75574 0.31183
 H207 H 0.64032 0.76188 0.22880
 H208 H 0.69620 0.78004 0.17904
 H209 H 0.74965 0.81675 0.34133
 H210 H 0.76028 0.85130 0.30682
 H211 H 0.72739 0.68344 0.21269
 H212 H 0.75861 0.71602 0.18122
 H213 H 0.69629 0.84719 0.24366
 H214 H 0.66349 0.81772 0.27544
 H215 H 0.82243 0.71506 0.24798
 H216 H 0.79022 0.68236 0.27652
 O217 O 0.74977 0.17727 0.78945
 O218 O 0.72721 0.16559 0.74666
 O219 O 0.83517 0.21496 0.75660
 O220 O 0.84763 0.25626 0.72688
 O221 O 0.79072 0.25547 0.83250
 O222 O 0.74915 0.28624 0.83936
 O223 O 0.76238 0.29667 0.67165
 O224 O 0.79201 0.25613 0.66218
 O225 O 0.68020 0.26068 0.70461
 O226 O 0.66928 0.22526 0.74117
 O227 O 0.71767 0.33609 0.74771
 O228 O 0.75704 0.34628 0.78037
 O229 O 0.75883 0.33380 0.70695
 O230 O 0.79442 0.34006 0.75423
 O231 O 0.68024 0.30135 0.74230
 O232 O 0.67080 0.26164 0.78143
 O233 O 0.71819 0.25716 0.67020
 O234 O 0.76419 0.21994 0.66632
 O235 O 0.74964 0.21209 0.82726
 O236 O 0.71392 0.25583 0.83188
 O237 O 0.83049 0.25489 0.80016
 O238 O 0.84145 0.29134 0.75801
 O239 O 0.79928 0.17853 0.75197
 O240 O 0.75723 0.17292 0.71249
 Zr241 Zr 0.75745 0.20232 0.75022
 O242 O 0.73014 0.22892 0.72142
 Zr243 Zr 0.81031 0.25511 0.75649
 O244 O 0.78707 0.28257 0.72494
 Zr245 Zr 0.75277 0.25413 0.80423
 O246 O 0.72841 0.28444 0.77647
 Zr247 Zr 0.75881 0.25673 0.69638
 O248 O 0.78662 0.22892 0.72413
 Zr249 Zr 0.70275 0.25912 0.74590
 O250 O 0.72578 0.22836 0.77481
 Zr251 Zr 0.75729 0.31033 0.74894
 O252 O 0.78185 0.28402 0.78096
 O253 O 0.78294 0.22637 0.78146
 O254 O 0.73007 0.28627 0.71893
 C255 C 0.74789 0.18476 0.81734
 C256 C 0.82704 0.18730 0.75410
 C257 C 0.81911 0.25538 0.82696
 C258 C 0.76151 0.32448 0.67947
 C259 C 0.69003 0.25916 0.67749
 C260 C 0.68984 0.32876 0.74433
 H261 H 0.71773 0.21553 0.70847
 H262 H 0.71541 0.29731 0.78928
 H263 H 0.79450 0.21293 0.79527
 H264 H 0.80188 0.29440 0.71318
 H265 H 0.81092 0.26359 0.67155
 H266 H 0.84165 0.24446 0.70881
 H267 H 0.65086 0.26674 0.77236
 H268 H 0.70072 0.23886 0.82564
 H269 H 0.74459 0.20927 0.66488
 H270 H 0.77665 0.17580 0.70184
 H271 H 0.74597 0.33901 0.79834
 H272 H 0.76151 0.30381 0.83315
 H273 H 0.70673 0.17456 0.74553
 H274 H 0.67234 0.21094 0.75819
 H275 H 0.83551 0.30440 0.77515
 H276 H 0.80604 0.34000 0.73518
 O277 O 0.23920 0.81063 0.79764
 O278 O 0.27223 0.81959 0.75315
 O279 O 0.15931 0.77770 0.75081
 O280 O 0.14726 0.73899 0.72121
 O281 O 0.19403 0.73192 0.83118
 O282 O 0.23604 0.69772 0.83948
 O283 O 0.23689 0.69236 0.67506
 O284 O 0.20136 0.73415 0.66766
 O285 O 0.31487 0.73086 0.71203
 O286 O 0.32328 0.76578 0.74951
 O287 O 0.27625 0.65433 0.75035
 O288 O 0.23326 0.64622 0.78652
 O289 O 0.23397 0.65584 0.71121
 O290 O 0.20107 0.64665 0.75404
 O291 O 0.31347 0.68973 0.75223
 O292 O 0.32069 0.72903 0.79023
 O293 O 0.27806 0.73170 0.67582
 O294 O 0.23932 0.76667 0.66519
 O295 O 0.23727 0.77333 0.83305
 O296 O 0.26948 0.73081 0.84115
 O297 O 0.15793 0.73582 0.79451
 O298 O 0.15005 0.70076 0.75261
 O299 O 0.19645 0.81297 0.75502
 O300 O 0.23791 0.82178 0.72215
 Zr301 Zr 0.23676 0.78765 0.75570
 O302 O 0.26398 0.76123 0.72711
 Zr303 Zr 0.18230 0.73610 0.75393
 O304 O 0.20737 0.70736 0.72557
 Zr305 Zr 0.23530 0.73344 0.80760
 O306 O 0.26294 0.70511 0.78137
 Zr307 Zr 0.23721 0.73323 0.69955
 O308 O 0.20961 0.76256 0.72537
 Zr309 Zr 0.29035 0.73124 0.75287
 O310 O 0.26555 0.76006 0.78207
 Zr311 Zr 0.23572 0.67952 0.75210
 O312 O 0.20771 0.70563 0.78063
 O313 O 0.20791 0.76282 0.78293
 O314 O 0.26469 0.70387 0.72426
 C315 C 0.23902 0.80126 0.82528
 C316 C 0.16858 0.80520 0.75224
 C317 C 0.16630 0.73340 0.82227
 C318 C 0.23517 0.66459 0.68358
 C319 C 0.30589 0.73098 0.68423
 C320 C 0.30420 0.66227 0.75113
 H321 H 0.27707 0.77472 0.71507
 H322 H 0.27541 0.69231 0.79496
 H323 H 0.19531 0.77592 0.79590
 H324 H 0.19345 0.69555 0.71262
 H325 H 0.18766 0.75082 0.67366
 H326 H 0.15361 0.72707 0.70345
 H327 H 0.34132 0.72543 0.78232
 H328 H 0.28627 0.74376 0.83411
 H329 H 0.25055 0.78411 0.67345
 H330 H 0.22379 0.81538 0.70592
 H331 H 0.25109 0.64861 0.79992
 H332 H 0.22140 0.68244 0.83218
 H333 H 0.28589 0.81578 0.77055
 H334 H 0.32057 0.77910 0.76722
 H335 H 0.15565 0.68621 0.76876
 H336 H 0.18535 0.65247 0.73910
 O337 O 0.25246 0.34413 0.72541
 O338 O 0.21716 0.35315 0.76814
 O339 O 0.32956 0.30937 0.77384
 O340 O 0.33853 0.27073 0.80634
 O341 O 0.29787 0.26364 0.69351
 O342 O 0.25521 0.23139 0.68303
 O343 O 0.24730 0.22530 0.84786
 O344 O 0.28278 0.26607 0.85654
 O345 O 0.17157 0.26324 0.80675
 O346 O 0.16576 0.30137 0.77037
 O347 O 0.20906 0.18874 0.76925
 O348 O 0.25482 0.17953 0.73618
 O349 O 0.24963 0.18890 0.81175
 O350 O 0.28404 0.17806 0.77108
 O351 O 0.17332 0.22559 0.76585
 O352 O 0.16925 0.26550 0.72843
 O353 O 0.20641 0.26568 0.84480
 O354 O 0.24562 0.29957 0.85719
 O355 O 0.25615 0.30705 0.69004
 O356 O 0.22286 0.26549 0.68001
 O357 O 0.33227 0.26650 0.73184
 O358 O 0.33774 0.23223 0.77413
 O359 O 0.29270 0.34508 0.76961
 O360 O 0.25037 0.35463 0.80062
 Zr361 Zr 0.25233 0.32064 0.76713
 O362 O 0.22336 0.29488 0.79445
 Zr363 Zr 0.30588 0.26797 0.77123
 O364 O 0.27871 0.23959 0.79820
 Zr365 Zr 0.25547 0.26673 0.71516
 O366 O 0.22585 0.23909 0.73997
 Zr367 Zr 0.24840 0.26611 0.82305
 O368 O 0.27775 0.29489 0.79855
 Zr369 Zr 0.19780 0.26585 0.76721
 O370 O 0.22450 0.29402 0.73917
 Zr371 Zr 0.25076 0.21251 0.77057
 O372 O 0.28094 0.23808 0.74356
 O373 O 0.28206 0.29531 0.74118
 O374 O 0.22135 0.23761 0.79703
 C375 C 0.25443 0.33495 0.69788
 C376 C 0.32047 0.33704 0.77229
 C377 C 0.32523 0.26411 0.70370
 C378 C 0.24836 0.19750 0.83943
 C379 C 0.17913 0.26363 0.83493
 C380 C 0.18139 0.19778 0.76687
 H381 H 0.20994 0.30852 0.80594
 H382 H 0.21377 0.22679 0.72570
 H383 H 0.29562 0.30796 0.72871
 H384 H 0.29175 0.22731 0.81172
 H385 H 0.29715 0.28234 0.85111
 H386 H 0.33187 0.25736 0.82298
 H387 H 0.14807 0.26311 0.73530
 H388 H 0.20629 0.27921 0.68613
 H389 H 0.23438 0.31700 0.84875
 H390 H 0.26342 0.34770 0.81756
 H391 H 0.23772 0.18230 0.72189
 H392 H 0.26886 0.21546 0.69104
 H393 H 0.20466 0.35021 0.74975
 H394 H 0.16896 0.31472 0.75269
 H395 H 0.33177 0.21706 0.75879
 H396 H 0.29980 0.18404 0.78586
 O397 O 0.76549 0.67445 0.69292
 O398 O 0.79956 0.66633 0.73579
 O399 O 0.68774 0.71261 0.73268
 O400 O 0.67758 0.75217 0.76345
 O401 O 0.72640 0.75341 0.65390
 O402 O 0.76982 0.78586 0.64619
 O403 O 0.76760 0.79784 0.81009
 O404 O 0.73051 0.75831 0.81830
 O405 O 0.84475 0.75307 0.77717
 O406 O 0.85321 0.71749 0.73666
 O407 O 0.81016 0.83041 0.73260
 O408 O 0.76671 0.83870 0.69629
 O409 O 0.76810 0.83301 0.77251
 O410 O 0.73600 0.84242 0.72943
 O411 O 0.84556 0.79338 0.73755
 O412 O 0.85184 0.75174 0.69936
 O413 O 0.80737 0.75714 0.81205
 O414 O 0.76970 0.72376 0.82261
 O415 O 0.76883 0.71023 0.65597
 O416 O 0.80175 0.75139 0.64674
 O417 O 0.68954 0.75371 0.68961
 O418 O 0.68162 0.78960 0.73052
 O419 O 0.72363 0.67579 0.73479
 O420 O 0.76656 0.66606 0.76816
 Zr421 Zr 0.76490 0.69928 0.73363
 O422 O 0.79262 0.72546 0.76215
 Zr423 Zr 0.71273 0.75314 0.73120
 O424 O 0.73851 0.78196 0.75916
 Zr425 Zr 0.76695 0.75141 0.67932
 O426 O 0.79537 0.77937 0.70533
 Zr427 Zr 0.76673 0.75602 0.78731
 O428 O 0.73819 0.72672 0.76202
 Zr429 Zr 0.82084 0.75295 0.73581
 O430 O 0.79518 0.72445 0.70708
 Zr431 Zr 0.76854 0.80737 0.73256
 O432 O 0.73992 0.78143 0.70423
 O433 O 0.73792 0.72432 0.70426
 O434 O 0.79591 0.78286 0.76227
 C435 C 0.76746 0.68268 0.66505
 C436 C 0.69599 0.68470 0.73407
 C437 C 0.69850 0.75401 0.66201
 C438 C 0.76804 0.82535 0.80055
 C439 C 0.83537 0.75552 0.80454
 C440 C 0.83766 0.82120 0.73506
 H441 H 0.80413 0.71189 0.77583
 H442 H 0.80870 0.79095 0.69167
 H443 H 0.72499 0.71142 0.69130
 H444 H 0.72494 0.79498 0.77117
 H445 H 0.71675 0.74135 0.81339
 H446 H 0.68405 0.76481 0.78073
 H447 H 0.87184 0.75889 0.70665
 H448 H 0.81807 0.73833 0.65491
 H449 H 0.75783 0.70609 0.81593
 H450 H 0.74964 0.67022 0.78210
 H451 H 0.78447 0.83505 0.68328
 H452 H 0.75478 0.80149 0.65169
 H453 H 0.81481 0.67213 0.72054
 H454 H 0.84695 0.70256 0.75207
 H455 H 0.68857 0.80391 0.71478
 H456 H 0.71932 0.83730 0.74333
 O457 O 0.24415 0.67090 0.29346
 O458 O 0.21938 0.65808 0.25195
 O459 O 0.32714 0.70880 0.25704
 O460 O 0.33835 0.74904 0.22560
 O461 O 0.28430 0.75183 0.33270
 O462 O 0.24204 0.78130 0.33999
 O463 O 0.25083 0.78715 0.17159
 O464 O 0.28092 0.74606 0.16274
 O465 O 0.16995 0.74720 0.20848
 O466 O 0.16041 0.71667 0.24809
 O467 O 0.20813 0.82799 0.24720
 O468 O 0.24808 0.83961 0.27904
 O469 O 0.24773 0.82511 0.20595
 O470 O 0.28469 0.83325 0.25189
 O471 O 0.17120 0.79269 0.24242
 O472 O 0.16313 0.75542 0.28511
 O473 O 0.20694 0.74876 0.17287
 O474 O 0.25232 0.71043 0.16815
 O475 O 0.24466 0.70697 0.33010
 O476 O 0.20750 0.74978 0.33425
 O477 O 0.32324 0.75058 0.29937
 O478 O 0.33254 0.78530 0.25538
 O479 O 0.29168 0.67178 0.25389
 O480 O 0.24859 0.66438 0.21644
 Zr481 Zr 0.24959 0.69498 0.25319
 O482 O 0.22116 0.72032 0.22440
 Zr483 Zr 0.30185 0.74868 0.25623
 O484 O 0.27735 0.77487 0.22450
 Zr485 Zr 0.24568 0.74834 0.30567
 O486 O 0.22010 0.77747 0.27772
 Zr487 Zr 0.24850 0.74790 0.19762
 O488 O 0.27749 0.72127 0.22539
 Zr489 Zr 0.19395 0.75077 0.24879
 O490 O 0.21827 0.72125 0.27793
 Zr491 Zr 0.24792 0.80281 0.24860
 O492 O 0.27369 0.77788 0.28068
 O493 O 0.27566 0.72038 0.28288
 O494 O 0.22003 0.77753 0.22023
 C495 C 0.24342 0.67925 0.32119
 C496 C 0.31931 0.68100 0.25523
 C497 C 0.31251 0.75219 0.32641
 C498 C 0.24946 0.81516 0.17861
 C499 C 0.17896 0.74746 0.18103
 C500 C 0.18050 0.82031 0.24342
 H501 H 0.20867 0.70627 0.21226
 H502 H 0.20727 0.79065 0.29038
 H503 H 0.28798 0.70767 0.29672
 H504 H 0.29161 0.78658 0.21195
 H505 H 0.29976 0.75480 0.17108
 H506 H 0.33183 0.73686 0.20798
 H507 H 0.14309 0.76077 0.27642
 H508 H 0.19463 0.73229 0.32882
 H509 H 0.23246 0.70018 0.16736
 H510 H 0.26717 0.66785 0.20454
 H511 H 0.23688 0.83303 0.29719
 H512 H 0.25343 0.79914 0.33280
 H513 H 0.19887 0.66696 0.25082
 H514 H 0.16473 0.70313 0.26547
 H515 H 0.32695 0.79895 0.27218
 H516 H 0.29565 0.83291 0.23245
 O517 O 0.73585 0.31152 0.29572
 O518 O 0.76935 0.32060 0.25124
 O519 O 0.65720 0.27611 0.24940
 O520 O 0.64677 0.23707 0.21910
 O521 O 0.69232 0.23325 0.32993
 O522 O 0.73468 0.19838 0.33823
 O523 O 0.73610 0.19209 0.17423
 O524 O 0.70048 0.23396 0.16654
 O525 O 0.81414 0.23334 0.21109
 O526 O 0.82103 0.26895 0.24874
 O527 O 0.77743 0.15589 0.25139
 O528 O 0.73377 0.14709 0.28623
 O529 O 0.73772 0.15591 0.21082
 O530 O 0.70255 0.14614 0.25250
 O531 O 0.81367 0.19226 0.25084
 O532 O 0.82010 0.23142 0.28897
 O533 O 0.77745 0.23201 0.17478
 O534 O 0.73917 0.26577 0.16325
 O535 O 0.73691 0.27443 0.33143
 O536 O 0.76737 0.23190 0.34082
 O537 O 0.65667 0.23473 0.29263
 O538 O 0.64998 0.19906 0.25118
 O539 O 0.69346 0.31230 0.25329
 O540 O 0.73469 0.32228 0.22051
 Zr541 Zr 0.73442 0.28808 0.25403
 O542 O 0.76235 0.26216 0.22568
 Zr543 Zr 0.68136 0.23517 0.25236
 O544 O 0.70731 0.20672 0.22448
 Zr545 Zr 0.73395 0.23426 0.30650
 O546 O 0.76264 0.20660 0.28062
 Zr547 Zr 0.73645 0.23319 0.19832
 O548 O 0.70807 0.26215 0.22373
 Zr549 Zr 0.78944 0.23314 0.25185
 O550 O 0.76371 0.26138 0.28082
 Zr551 Zr 0.73630 0.18001 0.25148
 O552 O 0.70730 0.20558 0.27954
 O553 O 0.70614 0.26275 0.28135
 O554 O 0.76461 0.20487 0.22345
 C555 C 0.73734 0.30233 0.32337
 C556 C 0.66577 0.30384 0.25085
 C557 C 0.66466 0.23383 0.32057
 C558 C 0.73736 0.16436 0.18305
 C559 C 0.80528 0.23246 0.18327
 C560 C 0.80518 0.16450 0.25098
 H561 H 0.77504 0.27587 0.21343
 H562 H 0.77541 0.19427 0.29437
 H563 H 0.69335 0.27576 0.29423
 H564 H 0.69384 0.19436 0.21158
 H565 H 0.68704 0.25097 0.17218
 H566 H 0.65354 0.22495 0.20163
 H567 H 0.84078 0.22874 0.28083
 H568 H 0.78511 0.24300 0.33303
 H569 H 0.74599 0.28487 0.17253
 H570 H 0.72014 0.31596 0.20462
 H571 H 0.75079 0.15058 0.30041
 H572 H 0.71920 0.18366 0.33155
 H573 H 0.78263 0.31767 0.26910
 H574 H 0.81824 0.28171 0.26686
 H575 H 0.65634 0.18441 0.26697
 H576 H 0.68747 0.15100 0.23660
 C577 C 0.24613 0.08917 0.07744
 C578 C 0.22073 0.07037 0.07818
 C579 C 0.21649 0.04909 0.05550
 C580 C 0.23744 0.04625 0.03179
 C581 C 0.26160 0.06699 0.03095
 N582 N 0.26538 0.08747 0.05359
 C583 C 0.25256 0.11024 0.10244
 N584 N 0.26522 0.13758 0.09636
 C585 C 0.27056 0.15829 0.11843
 C586 C 0.26315 0.15184 0.14866
 C587 C 0.25123 0.12330 0.15550
 C588 C 0.24586 0.10250 0.13249
 H589 H 0.19685 0.03453 0.05670
 H590 H 0.27872 0.06559 0.01363
 H591 H 0.28006 0.17996 0.11223
 H592 H 0.24516 0.11737 0.17847
 H593 H 0.20439 0.07189 0.09626
 H594 H 0.23652 0.08062 0.13819
 C595 C 0.75821 0.59615 0.56945
 C596 C 0.73029 0.58344 0.56135
 C597 C 0.72920 0.56141 0.53889
 C598 C 0.75585 0.55209 0.52476
 C599 C 0.78318 0.56592 0.53283
 N600 N 0.78370 0.58751 0.55466
 C601 C 0.76063 0.61775 0.59457
 N602 N 0.77886 0.64232 0.59173
 C603 C 0.78185 0.66304 0.61419
 C604 C 0.76645 0.65917 0.64160
 C605 C 0.74829 0.63353 0.64533
 C606 C 0.74510 0.61289 0.62174
 H607 H 0.70787 0.55063 0.53349
 H608 H 0.80419 0.55870 0.52266
 H609 H 0.79617 0.68254 0.61062
 H610 H 0.73589 0.62994 0.66610
 H611 H 0.70966 0.59010 0.57264
 H612 H 0.73089 0.59321 0.62478
 C613 C 0.75469 0.92296 0.09367
 C614 C 0.77697 0.92015 0.07148
 C615 C 0.77690 0.93974 0.04686
 C616 C 0.75484 0.96262 0.04408
 C617 C 0.73380 0.96556 0.06780
 N618 N 0.73412 0.94580 0.09150
 C619 C 0.75234 0.90041 0.11824
 N620 N 0.74345 0.90897 0.14642
 C621 C 0.74114 0.88878 0.16966
 C622 C 0.74753 0.85801 0.16492
 C623 C 0.75612 0.84885 0.13583
 C624 C 0.75857 0.86986 0.11259
 H625 H 0.79449 0.93711 0.03013
 H626 H 0.71585 0.98216 0.06665
 H627 H 0.73423 0.89675 0.19170
 H628 H 0.76129 0.82541 0.13101
 H629 H 0.79424 0.90282 0.07300
 H630 H 0.76488 0.86213 0.09027
 C631 C 0.25814 0.42273 0.60198
 C632 C 0.28306 0.42605 0.58276
 C633 C 0.28083 0.44504 0.55765
 C634 C 0.25392 0.46081 0.55169
 C635 C 0.22987 0.45770 0.57200
 N636 N 0.23250 0.43894 0.59633
 C637 C 0.25854 0.40049 0.62695
 N638 N 0.24376 0.40665 0.65319
 C639 C 0.24255 0.38639 0.67642
 C640 C 0.25600 0.35776 0.67349
 C641 C 0.27108 0.35096 0.64652
 C642 C 0.27256 0.37226 0.62335
 H643 H 0.29984 0.44692 0.54242
 H644 H 0.20852 0.46891 0.56774
 H645 H 0.23058 0.39240 0.69684
 H646 H 0.28184 0.32918 0.64338
 H647 H 0.30391 0.41378 0.58686
 H648 H 0.28384 0.36635 0.60251
 C649 C 0.74516 0.08081 0.89473
 C650 C 0.71967 0.06244 0.89912
 C651 C 0.72130 0.03838 0.91956
 C652 C 0.74842 0.03214 0.93483
 C653 C 0.77366 0.05031 0.92903
 N654 N 0.77135 0.07415 0.90968
 C655 C 0.74378 0.10809 0.87548
 N656 N 0.76009 0.13301 0.88344
 C657 C 0.76037 0.15858 0.86623
 C658 C 0.74424 0.15958 0.83886
 C659 C 0.72711 0.13425 0.83041
 C660 C 0.72661 0.10861 0.84874
 H661 H 0.70106 0.02562 0.92463
 H662 H 0.79463 0.04664 0.94128
 H663 H 0.77421 0.17752 0.87321
 H664 H 0.71456 0.13412 0.80928
 H665 H 0.69829 0.06759 0.88820
 H666 H 0.71383 0.08904 0.84148
 C667 C 0.24854 0.57634 0.40001
 C668 C 0.27573 0.56758 0.41405
 C669 C 0.27597 0.54276 0.43360
 C670 C 0.24926 0.52677 0.43912
 C671 C 0.22288 0.53532 0.42358
 N672 N 0.22316 0.55957 0.40458
 C673 C 0.24664 0.60385 0.38112
 N674 N 0.22862 0.60375 0.35609
 C675 C 0.22630 0.62811 0.33743
 C676 C 0.24240 0.65472 0.34379
 C677 C 0.26013 0.65582 0.37013
 C678 C 0.26250 0.63032 0.38876
 H679 H 0.29651 0.53719 0.44590
 H680 H 0.20172 0.52391 0.42797
 H681 H 0.21230 0.62652 0.31732
 H682 H 0.27306 0.67588 0.37558
 H683 H 0.29637 0.58020 0.41054
 H684 H 0.27650 0.63130 0.40891
 C685 C 0.24292 0.89062 0.91994
 C686 C 0.22342 0.89059 0.94489
 C687 C 0.22393 0.91479 0.96518
 C688 C 0.24394 0.93921 0.96096
 C689 C 0.26378 0.93754 0.93608
 N690 N 0.26253 0.91397 0.91649
 C691 C 0.24177 0.86694 0.89634
 N692 N 0.24968 0.87426 0.86748
 C693 C 0.24891 0.85389 0.84447
 C694 C 0.24009 0.82391 0.84995
 C695 C 0.23224 0.81579 0.87966
 C696 C 0.23296 0.83717 0.90282
 H697 H 0.20714 0.91515 0.98286
 H698 H 0.28053 0.95488 0.93212
 H699 H 0.25538 0.86110 0.82201
 H700 H 0.22533 0.79292 0.88502
 H701 H 0.20687 0.87287 0.94796
 H702 H 0.22714 0.83028 0.92556
 C703 C 0.74321 0.39181 0.41763
 C704 C 0.76718 0.39352 0.43857
 C705 C 0.76866 0.41788 0.45863
 C706 C 0.74608 0.44019 0.45827
 C707 C 0.72197 0.43699 0.43766
 N708 N 0.72137 0.41352 0.41790
 C709 C 0.74207 0.36821 0.39399
 N710 N 0.73016 0.37520 0.36634
 C711 C 0.72875 0.35480 0.34337
 C712 C 0.73929 0.32515 0.34777
 C713 C 0.75128 0.31737 0.37626
 C714 C 0.75288 0.33882 0.39932
 H715 H 0.78823 0.42004 0.47323
 H716 H 0.70412 0.45376 0.43660
 H717 H 0.71901 0.36164 0.32189
 H718 H 0.75960 0.29472 0.38068
 H719 H 0.78539 0.37714 0.43845
 H720 H 0.76200 0.33232 0.42117
 C721 C 0.10261 0.24613 0.07897
 C722 C 0.10196 0.22621 0.05433
 C723 C 0.07608 0.22462 0.03614
 C724 C 0.05073 0.24301 0.04212
 C725 C 0.05281 0.26300 0.06686
 N726 N 0.07809 0.26384 0.08436
 C727 C 0.12804 0.24698 0.10078
 N728 N 0.12221 0.25578 0.12964
 C729 C 0.14388 0.25642 0.15148
 C730 C 0.17370 0.24795 0.14481
 C731 C 0.18047 0.23948 0.11500
 C732 C 0.15770 0.23889 0.09294
 H733 H 0.07543 0.20762 0.01860
 H734 H 0.03453 0.27834 0.07220
 H735 H 0.13769 0.26342 0.17406
 H736 H 0.20320 0.23286 0.10885
 H737 H 0.12054 0.21093 0.04994
 H738 H 0.16339 0.23241 0.07008
 C739 C 0.60290 0.75292 0.57351
 C740 C 0.59799 0.77569 0.55180
 C741 C 0.57150 0.77529 0.53433
 C742 C 0.55030 0.75202 0.53818
 C743 C 0.55658 0.72932 0.55953
 N744 N 0.58210 0.73053 0.57663
 C745 C 0.62851 0.75369 0.59504
 N746 N 0.62424 0.74195 0.62315
 C747 C 0.64623 0.74194 0.64465
 C748 C 0.67484 0.75395 0.63830
 C749 C 0.68009 0.76564 0.60924
 C750 C 0.65686 0.76579 0.58758
 H751 H 0.56713 0.79359 0.51858
 H752 H 0.54085 0.71093 0.56307
 H753 H 0.64136 0.73228 0.66662
 H754 H 0.70193 0.77498 0.60346
 H755 H 0.61365 0.79428 0.54928
 H756 H 0.66119 0.77482 0.56524
 C757 C 0.07195 0.73282 0.91084
 C758 C 0.07048 0.71101 0.93376
 C759 C 0.04861 0.71358 0.95600
 C760 C 0.02778 0.73772 0.95561
 C761 C 0.02905 0.75819 0.93118
 N762 N 0.05092 0.75535 0.90984
 C763 C 0.09651 0.73232 0.88846
 N764 N 0.09107 0.74256 0.85991
 C765 C 0.11292 0.74292 0.83843
 C766 C 0.14238 0.73298 0.84540
 C767 C 0.14856 0.72287 0.87487
 C768 C 0.12571 0.72243 0.89640
 H769 H 0.04807 0.69663 0.97374
 H770 H 0.01410 0.77755 0.93004
 H771 H 0.10729 0.75125 0.81604
 H772 H 0.17098 0.71519 0.88125
 H773 H 0.08621 0.69224 0.93468
 H774 H 0.13105 0.71499 0.91917
 C775 C 0.57007 0.23894 0.40898
 C776 C 0.54843 0.26227 0.40980
 C777 C 0.52819 0.26374 0.43391
 C778 C 0.52922 0.24177 0.45681
 C779 C 0.55050 0.21830 0.45453
 N780 N 0.57035 0.21770 0.43126
 C781 C 0.59375 0.23777 0.38565
 N782 N 0.62153 0.22653 0.39314
 C783 C 0.64457 0.22508 0.37295
 C784 C 0.64009 0.23490 0.34307
 C785 C 0.61146 0.24617 0.33480
 C786 C 0.58833 0.24776 0.35600
 H787 H 0.51263 0.28261 0.43531
 H788 H 0.55199 0.20099 0.47185
 H789 H 0.66621 0.21605 0.38019
 H790 H 0.60699 0.25408 0.31199
 H791 H 0.54806 0.27998 0.39285
 H792 H 0.56638 0.25629 0.34911
 C793 C 0.91101 0.75403 0.10524
 C794 C 0.91087 0.73101 0.08350
 C795 C 0.93332 0.73029 0.06165
 C796 C 0.95606 0.75229 0.06135
 C797 C 0.95645 0.77409 0.08433
 N798 N 0.93408 0.77450 0.10545
 C799 C 0.88601 0.75676 0.12716
 N800 N 0.89179 0.76671 0.15572
 C801 C 0.86966 0.76910 0.17686
 C802 C 0.83958 0.76153 0.16961
 C803 C 0.83308 0.75198 0.14007
 C804 C 0.85616 0.74949 0.11887
 H805 H 0.93247 0.71306 0.04428
 H806 H 0.97364 0.79147 0.08468
 H807 H 0.87560 0.77699 0.19928
 H808 H 0.81023 0.74611 0.13341
 H809 H 0.89340 0.71390 0.08312
 H810 H 0.85060 0.74229 0.09613
 C811 C 0.42170 0.25469 0.61696
 C812 C 0.44615 0.27493 0.61525
 C813 C 0.46657 0.27269 0.59125
 C814 C 0.46296 0.25010 0.56933
 C815 C 0.43882 0.22977 0.57250
 N816 N 0.41893 0.23276 0.59560
 C817 C 0.39764 0.25769 0.63997
 N818 N 0.36907 0.24859 0.63277
 C819 C 0.34565 0.25073 0.65248
 C820 C 0.35037 0.26220 0.68170
 C821 C 0.37975 0.27142 0.68973
 C822 C 0.40335 0.26936 0.66894
 H823 H 0.48407 0.28954 0.58903
 H824 H 0.43514 0.21217 0.55590
 H825 H 0.32348 0.24310 0.64539
 H826 H 0.38447 0.28037 0.71205
 H827 H 0.44863 0.29322 0.63128
 H828 H 0.42584 0.27630 0.67571
 C829 C 0.89585 0.24116 0.93136
 C830 C 0.89534 0.25928 0.95744
 C831 C 0.91747 0.25519 0.97987
 C832 C 0.94021 0.23317 0.97631
 C833 C 0.93811 0.21401 0.95092
 N834 N 0.91680 0.21880 0.92928
 C835 C 0.87591 0.24673 0.90497
 N836 N 0.88576 0.23849 0.87701
 C837 C 0.86869 0.24224 0.85158
 C838 C 0.83950 0.25440 0.85357
 C839 C 0.82898 0.26329 0.88217
 C840 C 0.84710 0.25962 0.90786
 H841 H 0.91826 0.27112 0.99841
 H842 H 0.95415 0.19581 0.94764
 H843 H 0.87755 0.23475 0.83008
 H844 H 0.80650 0.27267 0.88476
 H845 H 0.87936 0.27767 0.95970
 H846 H 0.83822 0.26594 0.92971
 C847 C 0.39091 0.74861 0.43056
 C848 C 0.39075 0.76983 0.45427
 C849 C 0.41302 0.76827 0.47686
 C850 C 0.43503 0.74551 0.47591
 C851 C 0.43316 0.72368 0.45301
 N852 N 0.41183 0.72604 0.43095
 C853 C 0.37061 0.75119 0.40397
 N854 N 0.38010 0.74020 0.37682
 C855 C 0.36262 0.74136 0.35139
 C856 C 0.33342 0.75362 0.35261
 C857 C 0.32328 0.76524 0.38035
 C858 C 0.34177 0.76418 0.40598
 H859 H 0.41428 0.78588 0.49381
 H860 H 0.44999 0.70594 0.45151
 H861 H 0.37116 0.73183 0.33057
 H862 H 0.30082 0.77482 0.38236
 H863 H 0.37491 0.78850 0.45441
 H864 H 0.33318 0.77263 0.42722
 C865 C 0.10644 0.08124 0.23620
 C866 C 0.09414 0.07076 0.20881
 C867 C 0.07190 0.04834 0.20926
 C868 C 0.06178 0.03671 0.23690
 C869 C 0.07505 0.04735 0.26373
 N870 N 0.09694 0.06890 0.26274
 C871 C 0.12863 0.10616 0.23688
 N872 N 0.15305 0.10427 0.25570
 C873 C 0.17404 0.12667 0.25749
 C874 C 0.17061 0.15322 0.24030
 C875 C 0.14524 0.15594 0.22129
 C876 C 0.12439 0.13230 0.21925
 H877 H 0.06163 0.04105 0.18821
 H878 H 0.06735 0.03913 0.28544
 H879 H 0.19330 0.12383 0.27247
 H880 H 0.14196 0.17599 0.20752
 H881 H 0.10138 0.08010 0.18738
 H882 H 0.10492 0.13461 0.20444
 C883 C 0.60674 0.59023 0.72944
 C884 C 0.58436 0.58858 0.70686
 C885 C 0.56227 0.56618 0.70852
 C886 C 0.56241 0.54535 0.73252
 C887 C 0.58598 0.54690 0.75386
 N888 N 0.60722 0.56903 0.75186
 C889 C 0.62917 0.61500 0.73007
 N890 N 0.65715 0.60966 0.74192
 C891 C 0.67864 0.63156 0.74365
 C892 C 0.67231 0.66109 0.73359
 C893 C 0.64338 0.66725 0.72189
 C894 C 0.62183 0.64429 0.71998
 H895 H 0.54444 0.56569 0.69162
 H896 H 0.58652 0.53177 0.77308
 H897 H 0.70061 0.62587 0.75300
 H898 H 0.63755 0.68967 0.71381
 H899 H 0.58366 0.60462 0.68832
 H900 H 0.59954 0.64959 0.71120
 C901 C 0.92698 0.10465 0.74303
 C902 C 0.92859 0.08535 0.71809
 C903 C 0.95200 0.06448 0.71629
 C904 C 0.97416 0.06242 0.73927
 C905 C 0.97336 0.08429 0.76239
 N906 N 0.94983 0.10426 0.76391
 C907 C 0.90050 0.12474 0.74717
 N908 N 0.90425 0.15220 0.76041
 C909 C 0.88093 0.17199 0.76372
 C910 C 0.85165 0.16453 0.75346
 C911 C 0.84705 0.13586 0.74090
 C912 C 0.87137 0.11595 0.73767
 H913 H 0.95230 0.04925 0.69712
 H914 H 0.98969 0.08384 0.78070
 H915 H 0.88540 0.19373 0.77399
 H916 H 0.82490 0.12914 0.73282
 H917 H 0.91162 0.08594 0.70033
 H918 H 0.86736 0.09392 0.72785
 C919 C 0.42067 0.60047 0.24485
 C920 C 0.42488 0.58315 0.21869
 C921 C 0.44890 0.56283 0.21743
 C922 C 0.46874 0.55966 0.24211
 C923 C 0.46509 0.57890 0.26700
 N924 N 0.44129 0.59849 0.26783
 C925 C 0.39379 0.62003 0.24821
 N926 N 0.39634 0.64647 0.26363
 C927 C 0.37260 0.66572 0.26691
 C928 C 0.34413 0.65861 0.25449
 C929 C 0.34068 0.63093 0.23956
 C930 C 0.36548 0.61165 0.23625
 H931 H 0.45109 0.54833 0.19783
 H932 H 0.47988 0.57694 0.28651
 H933 H 0.37609 0.68673 0.27894
 H934 H 0.31912 0.62464 0.22970
 H935 H 0.40940 0.58476 0.19968
 H936 H 0.36248 0.59037 0.22457
 C937 C 0.08192 0.90213 0.74826
 C938 C 0.06223 0.90680 0.72367
 C939 C 0.04374 0.93239 0.72306
 C940 C 0.04433 0.95302 0.74715
 C941 C 0.06422 0.94736 0.77140
 N942 N 0.08244 0.92258 0.77122
 C943 C 0.10332 0.87650 0.74909
 N944 N 0.13094 0.88052 0.76217
 C945 C 0.15205 0.85817 0.76331
 C946 C 0.14568 0.82957 0.75115
 C947 C 0.11709 0.82473 0.73810
 C948 C 0.09593 0.84818 0.73684
 H949 H 0.02950 0.93641 0.70344
 H950 H 0.06543 0.96274 0.79038
 H951 H 0.17367 0.86274 0.77395
 H952 H 0.11124 0.80296 0.72858
 H953 H 0.06190 0.89148 0.70461
 H954 H 0.07394 0.84406 0.72679
 C955 C 0.57676 0.39862 0.25066
 C956 C 0.55508 0.40207 0.22759
 C957 C 0.53646 0.42756 0.22733
 C958 C 0.53895 0.44928 0.25028
 C959 C 0.56070 0.44481 0.27310
 N960 N 0.57899 0.42009 0.27257
 C961 C 0.59867 0.37342 0.25061
 N962 N 0.62695 0.37834 0.26183
 C963 C 0.64863 0.35656 0.26194
 C964 C 0.64228 0.32764 0.25055
 C965 C 0.61307 0.32186 0.23943
 C966 C 0.59125 0.34473 0.23926
 H967 H 0.52092 0.43082 0.20862
 H968 H 0.56345 0.46118 0.29107
 H969 H 0.67072 0.36185 0.27118
 H970 H 0.60718 0.29979 0.23064
 H971 H 0.55338 0.38601 0.20922
 H972 H 0.56879 0.33987 0.23074
 C973 C 0.90392 0.92864 0.24928
 C974 C 0.90710 0.95398 0.26805
 C975 C 0.93065 0.97433 0.26294
 C976 C 0.95105 0.96971 0.23899
 C977 C 0.94598 0.94456 0.22006
 N978 N 0.92324 0.92491 0.22583
 C979 C 0.88110 0.90503 0.25483
 N980 N 0.88739 0.87608 0.24645
 C981 C 0.86719 0.85322 0.24975
 C982 C 0.83838 0.85910 0.26143
 C983 C 0.83148 0.88876 0.27041
 C984 C 0.85281 0.91173 0.26733
 H985 H 0.93397 0.99242 0.27905
 H986 H 0.96011 0.94036 0.20061
 H987 H 0.87329 0.83076 0.24222
 H988 H 0.80942 0.89428 0.27941
 H989 H 0.89255 0.95729 0.28737
 H990 H 0.84680 0.93458 0.27367
 C991 C 0.40984 0.43049 0.76349
 C992 C 0.40918 0.45038 0.73868
 C993 C 0.43273 0.47082 0.73467
 C994 C 0.45655 0.47201 0.75565
 C995 C 0.45626 0.45190 0.78030
 N996 N 0.43336 0.43169 0.78342
 C997 C 0.38629 0.40731 0.76733
 N998 N 0.39406 0.37924 0.77755
 C999 C 0.37350 0.35650 0.77994
 C1000 C 0.34314 0.36157 0.77191
 C1001 C 0.33467 0.39068 0.76218
 C1002 C 0.35611 0.41348 0.75980
 H1003 H 0.43292 0.48476 0.71455
 H1004 H 0.47456 0.45187 0.79668
 H1005 H 0.38094 0.33449 0.78779
 H1006 H 0.31153 0.39575 0.75575
 H1007 H 0.39133 0.44927 0.72185
 H1008 H 0.34913 0.43571 0.75213
 C1009 C 0.09203 0.24323 0.92833
 C1010 C 0.07555 0.21621 0.92974
 C1011 C 0.05426 0.21228 0.95248
 C1012 C 0.04926 0.23520 0.97377
 C1013 C 0.06722 0.26129 0.97246
 N1014 N 0.08789 0.26464 0.95004
 C1015 C 0.11338 0.24909 0.90351
 N1016 N 0.13903 0.26503 0.90930
 C1017 C 0.15985 0.27068 0.88754
 C1018 C 0.15522 0.26034 0.85784
 C1019 C 0.12844 0.24478 0.85114
 C1020 C 0.10753 0.23898 0.87394
 H1021 H 0.04089 0.19179 0.95289
 H1022 H 0.06383 0.27954 0.98836
 H1023 H 0.18015 0.28298 0.89355
 H1024 H 0.12409 0.23633 0.82854
 H1025 H 0.07885 0.19844 0.91328
 H1026 H 0.08698 0.22688 0.86843
 C1027 C 0.58720 0.76508 0.42453
 C1028 C 0.56476 0.78733 0.42713
 C1029 C 0.54331 0.78484 0.44985
 C1030 C 0.54421 0.76037 0.47004
 C1031 C 0.56785 0.73939 0.46772
 N1032 N 0.58852 0.74218 0.44521
 C1033 C 0.60896 0.76561 0.39944
 N1034 N 0.63730 0.75453 0.40411
 C1035 C 0.65838 0.75425 0.38191
 C1036 C 0.65124 0.76524 0.35286
 C1037 C 0.62192 0.77607 0.34734
 C1038 C 0.60076 0.77639 0.37059
 H1039 H 0.52538 0.80151 0.45116
 H1040 H 0.56910 0.72015 0.48286
 H1041 H 0.68065 0.74531 0.38700
 H1042 H 0.61548 0.78460 0.32523
 H1043 H 0.56355 0.80627 0.41160
 H1044 H 0.57812 0.78454 0.36585
 C1045 C 0.92265 0.75990 0.90153
 C1046 C 0.92169 0.78252 0.92361
 C1047 C 0.94087 0.78076 0.94857
 C1048 C 0.96158 0.75672 0.95176
 C1049 C 0.96284 0.73531 0.92819
 N1050 N 0.94347 0.73730 0.90416
 C1051 C 0.90025 0.75942 0.87655
 N1052 N 0.90809 0.74853 0.84887
 C1053 C 0.88802 0.74734 0.82538
 C1054 C 0.85797 0.75693 0.82934
 C1055 C 0.84949 0.76786 0.85782
 C1056 C 0.87045 0.76918 0.88134
 H1057 H 0.93954 0.79843 0.96545
 H1058 H 0.97776 0.71595 0.92969
 H1059 H 0.89542 0.73854 0.80383
 H1060 H 0.82660 0.77546 0.86199
 H1061 H 0.90607 0.80132 0.92181
 H1062 H 0.86314 0.77715 0.90325
 C1063 C 0.42093 0.25429 0.40840
 C1064 C 0.42103 0.27772 0.42975
 C1065 C 0.44096 0.27644 0.45420
 C1066 C 0.46095 0.25201 0.45747
 C1067 C 0.46105 0.22960 0.43503
 N1068 N 0.44123 0.23123 0.41136
 C1069 C 0.39831 0.25364 0.38365
 N1070 N 0.40573 0.24164 0.35632
 C1071 C 0.38551 0.24011 0.33299
 C1072 C 0.35571 0.25048 0.33677
 C1073 C 0.34762 0.26257 0.36490
 C1074 C 0.36878 0.26427 0.38826
 H1075 H 0.44050 0.29434 0.47089
 H1076 H 0.47610 0.21035 0.43686
 H1077 H 0.39260 0.23042 0.31172
 H1078 H 0.32491 0.27081 0.36887
 H1079 H 0.40573 0.29677 0.42771
 H1080 H 0.36183 0.27320 0.40992
 C1081 C 0.07544 0.74897 0.10268
 C1082 C 0.06404 0.77610 0.09065
 C1083 C 0.03894 0.77536 0.07140
 C1084 C 0.02525 0.74774 0.06419
 C1085 C 0.03622 0.72133 0.07800
 N1086 N 0.06075 0.72257 0.09668
 C1087 C 0.10336 0.74829 0.12119
 N1088 N 0.10551 0.72804 0.14428
 C1089 C 0.13020 0.72656 0.16263
 C1090 C 0.15483 0.74600 0.15802
 C1091 C 0.15376 0.76622 0.13362
 C1092 C 0.12792 0.76757 0.11521
 H1093 H 0.03148 0.79605 0.06047
 H1094 H 0.02653 0.69959 0.07236
 H1095 H 0.13035 0.71062 0.18127
 H1096 H 0.17226 0.78172 0.12962
 H1097 H 0.07484 0.79753 0.09542
 H1098 H 0.12718 0.78347 0.09656
 C1099 C 0.58509 0.25002 0.60242
 C1100 C 0.57315 0.22182 0.59405
 C1101 C 0.54694 0.22070 0.57630
 C1102 C 0.53257 0.24750 0.56715
 C1103 C 0.54436 0.27510 0.57723
 N1104 N 0.56995 0.27568 0.59440
 C1105 C 0.61386 0.25277 0.61937
 N1106 N 0.61750 0.27660 0.63841
 C1107 C 0.64284 0.28021 0.65549
 C1108 C 0.66652 0.25916 0.65387
 C1109 C 0.66408 0.23524 0.63333
 C1110 C 0.63768 0.23189 0.61604
 H1111 H 0.53896 0.19907 0.56806
 H1112 H 0.53455 0.29625 0.56961
 H1113 H 0.64407 0.29892 0.67116
 H1114 H 0.68179 0.21837 0.63187
 H1115 H 0.58425 0.20093 0.60051
 H1116 H 0.63588 0.21310 0.60050
 C1117 C 0.89361 0.23574 0.08804
 C1118 C 0.89574 0.21396 0.06502
 C1119 C 0.91905 0.21590 0.04387
 C1120 C 0.93997 0.23968 0.04531
 C1121 C 0.93641 0.26146 0.06812
 N1122 N 0.91393 0.25878 0.08878
 C1123 C 0.87068 0.23370 0.11224
 N1124 N 0.87746 0.24450 0.14033
 C1125 C 0.85739 0.24366 0.16357
 C1126 C 0.82825 0.23199 0.15899
 C1127 C 0.82079 0.22081 0.13016
 C1128 C 0.84191 0.22148 0.10684
 H1129 H 0.92141 0.19822 0.02714
 H1130 H 0.95205 0.28018 0.07002
 H1131 H 0.86399 0.25274 0.18534
 H1132 H 0.79855 0.21160 0.12558
 H1133 H 0.88043 0.19492 0.06410
 H1134 H 0.83547 0.21322 0.08470
 C1135 C 0.39337 0.73727 0.58861
 C1136 C 0.39424 0.71825 0.56316
 C1137 C 0.41710 0.72197 0.54172
 C1138 C 0.43882 0.74476 0.54547
 C1139 C 0.43662 0.76370 0.57082
 N1140 N 0.41452 0.75936 0.59155
 C1141 C 0.37080 0.73362 0.61291
 N1142 N 0.37822 0.74229 0.64159
 C1143 C 0.35836 0.74069 0.66493
 C1144 C 0.32873 0.73055 0.65988
 C1145 C 0.32066 0.72137 0.63049
 C1146 C 0.34160 0.72272 0.60704
 H1147 H 0.41848 0.70640 0.52292
 H1148 H 0.45292 0.78157 0.57450
 H1149 H 0.36547 0.74819 0.68715
 H1150 H 0.29803 0.71341 0.62554
 H1151 H 0.37823 0.69998 0.56039
 H1152 H 0.33462 0.71623 0.58447
 C1153 C 0.25027 0.10048 0.92657
 C1154 C 0.27036 0.07644 0.92194
 C1155 C 0.26912 0.05106 0.94054
 C1156 C 0.24781 0.04910 0.96403
 C1157 C 0.22861 0.07426 0.96840
 N1158 N 0.23021 0.09880 0.94977
 C1159 C 0.24976 0.12643 0.90530
 N1160 N 0.26172 0.12286 0.87723
 C1161 C 0.26143 0.14519 0.85616
 C1162 C 0.24873 0.17348 0.86281
 C1163 C 0.23651 0.17796 0.89172
 C1164 C 0.23671 0.15435 0.91295
 H1165 H 0.28524 0.03304 0.93662
 H1166 H 0.21117 0.07385 0.98544
 H1167 H 0.27136 0.14081 0.83427
 H1168 H 0.22642 0.19945 0.89769
 H1169 H 0.28684 0.07712 0.90393
 H1170 H 0.22696 0.15792 0.93507
 C1171 C 0.73730 0.60191 0.41883
 C1172 C 0.71419 0.58026 0.42039
 C1173 C 0.71743 0.55551 0.43973
 C1174 C 0.74349 0.55234 0.45767
 C1175 C 0.76555 0.57507 0.45635
 N1176 N 0.76201 0.59893 0.43715
 C1177 C 0.73625 0.62677 0.39643
 N1178 N 0.74951 0.65377 0.40300
 C1179 C 0.75054 0.67688 0.38261
 C1180 C 0.73851 0.67309 0.35339
 C1181 C 0.72483 0.64541 0.34621
 C1182 C 0.72353 0.62233 0.36763
 H1183 H 0.69984 0.53850 0.44030
 H1184 H 0.78619 0.57316 0.46945
 H1185 H 0.76141 0.69785 0.38897
 H1186 H 0.71521 0.64155 0.32396
 H1187 H 0.69397 0.58221 0.40659
 H1188 H 0.71355 0.60091 0.36129
 C1189 C 0.74155 0.07143 0.09271
 C1190 C 0.76559 0.05078 0.09042
 C1191 C 0.76622 0.03048 0.06632
 C1192 C 0.74268 0.03033 0.04490
 C1193 C 0.71873 0.05088 0.04846
 N1194 N 0.71893 0.07086 0.07173
 C1195 C 0.74095 0.09480 0.11641
 N1196 N 0.72899 0.12246 0.10979
 C1197 C 0.72789 0.14514 0.13047
 C1198 C 0.73877 0.14033 0.15997
 C1199 C 0.75087 0.11185 0.16733
 C1200 C 0.75216 0.08911 0.14561
 H1201 H 0.78550 0.01558 0.06385
 H1202 H 0.70026 0.05153 0.03228
 H1203 H 0.71817 0.16669 0.12397
 H1204 H 0.75953 0.10719 0.18984
 H1205 H 0.78432 0.05115 0.10629
 H1206 H 0.76132 0.06722 0.15177
 C1207 C 0.23738 0.57069 0.59459
 C1208 C 0.21193 0.55333 0.58685
 C1209 C 0.21405 0.53217 0.56360
 C1210 C 0.24164 0.52771 0.54892
 C1211 C 0.26662 0.54515 0.55758
 N1212 N 0.26385 0.56619 0.57971
 C1213 C 0.23569 0.59471 0.61748
 N1214 N 0.25093 0.62104 0.61286
 C1215 C 0.25043 0.64404 0.63320
 C1216 C 0.23450 0.64082 0.66033
 C1217 C 0.21886 0.61376 0.66563
 C1218 C 0.21915 0.59078 0.64414
 H1219 H 0.19404 0.51997 0.55645
 H1220 H 0.28799 0.54273 0.54601
 H1221 H 0.26307 0.66445 0.62853
 H1222 H 0.20637 0.61043 0.68638
 H1223 H 0.19037 0.55700 0.59774
 H1224 H 0.20720 0.56991 0.64863
 C1225 C 0.76950 0.92178 0.88779
 C1226 C 0.79280 0.92550 0.90912
 C1227 C 0.78969 0.94697 0.93194
 C1228 C 0.76345 0.96477 0.93364
 C1229 C 0.74146 0.96159 0.91085
 N1230 N 0.74490 0.94034 0.88886
 C1231 C 0.77030 0.89692 0.86547
 N1232 N 0.75812 0.90120 0.83742
 C1233 C 0.75742 0.87883 0.81632
 C1234 C 0.76872 0.84988 0.82326
 C1235 C 0.78094 0.84488 0.85220
 C1236 C 0.78197 0.86834 0.87324
 H1237 H 0.80717 0.94878 0.94912
 H1238 H 0.72068 0.97446 0.91164
 H1239 H 0.74760 0.88355 0.79431
 H1240 H 0.78991 0.82292 0.85846
 H1241 H 0.81290 0.91150 0.90861
 H1242 H 0.79112 0.86392 0.89560
 C1243 C 0.26612 0.41443 0.39523
 C1244 C 0.28871 0.41728 0.41745
 C1245 C 0.28580 0.43925 0.43979
 C1246 C 0.26050 0.45844 0.44014
 C1247 C 0.23933 0.45610 0.41648
 N1248 N 0.24252 0.43431 0.39499
 C1249 C 0.26664 0.38932 0.37318
 N1250 N 0.25540 0.39378 0.34478
 C1251 C 0.25467 0.37132 0.32379
 C1252 C 0.26504 0.34212 0.33116
 C1253 C 0.27623 0.33693 0.36047
 C1254 C 0.27723 0.36045 0.38144
 H1255 H 0.30271 0.44048 0.45758
 H1256 H 0.21934 0.47021 0.41615
 H1257 H 0.24566 0.37622 0.30148
 H1258 H 0.28446 0.31479 0.36709
 H1259 H 0.30810 0.40231 0.41793
 H1260 H 0.28558 0.35588 0.40407
 C1261 C 0.24136 0.89491 0.07590
 C1262 C 0.26401 0.89788 0.05389
 C1263 C 0.26073 0.91944 0.03092
 C1264 C 0.23483 0.93776 0.02963
 C1265 C 0.21204 0.93290 0.05112
 N1266 N 0.21604 0.91230 0.07366
 C1267 C 0.24498 0.87459 0.10234
 N1268 N 0.23203 0.88229 0.12919
 C1269 C 0.23418 0.86446 0.15430
 C1270 C 0.24957 0.83675 0.15299
 C1271 C 0.26313 0.82848 0.12555
 C1272 C 0.26103 0.84732 0.10031
 H1273 H 0.27911 0.92298 0.01524
 H1274 H 0.19177 0.94666 0.05090
 H1275 H 0.22305 0.87145 0.17489
 H1276 H 0.27510 0.80720 0.12350
 H1277 H 0.28475 0.88492 0.05529
 H1278 H 0.27112 0.84014 0.07926
 C1279 C 0.76185 0.40254 0.57577
 C1280 C 0.78803 0.41009 0.55958
 C1281 C 0.78598 0.43027 0.53534
 C1282 C 0.75788 0.44214 0.52664
 C1283 C 0.73212 0.43329 0.54270
 N1284 N 0.73473 0.41426 0.56681
 C1285 C 0.76337 0.38327 0.60310
 N1286 N 0.74467 0.38902 0.62684
 C1287 C 0.74476 0.37169 0.65239
 C1288 C 0.76392 0.34650 0.65454
 C1289 C 0.78344 0.34034 0.63041
 C1290 C 0.78342 0.35875 0.60482
 H1291 H 0.80646 0.43777 0.52430
 H1292 H 0.71025 0.44296 0.53721
 H1293 H 0.72904 0.37680 0.67036
 H1294 H 0.79837 0.32089 0.63116
 H1295 H 0.81005 0.40182 0.56658
 H1296 H 0.79821 0.35322 0.58619
 C1297 C 0.08474 0.11090 0.75946
 C1298 C 0.06395 0.11045 0.73526
 C1299 C 0.04276 0.08712 0.73329
 C1300 C 0.04195 0.06451 0.75557
 C1301 C 0.06233 0.06654 0.78002
 N1302 N 0.08317 0.08906 0.78111
 C1303 C 0.10922 0.13360 0.76117
 N1304 N 0.13657 0.12569 0.77329
 C1305 C 0.16014 0.14543 0.77508
 C1306 C 0.15669 0.17526 0.76470
 C1307 C 0.12851 0.18386 0.75248
 C1308 C 0.10488 0.16317 0.75059
 H1309 H 0.02806 0.08594 0.71365
 H1310 H 0.06245 0.04950 0.79765
 H1311 H 0.18135 0.13795 0.78494
 H1312 H 0.12470 0.20663 0.74421
 H1313 H 0.06497 0.12703 0.71724
 H1314 H 0.08332 0.17046 0.74138
 C1315 C 0.57793 0.61008 0.25638
 C1316 C 0.55550 0.60948 0.23369
 C1317 C 0.53549 0.58504 0.23215
 C1318 C 0.53753 0.56148 0.25340
 C1319 C 0.55952 0.56365 0.27638
 N1320 N 0.57912 0.58725 0.27701
 C1321 C 0.60157 0.63371 0.25739
 N1322 N 0.62971 0.62627 0.26776
 C1323 C 0.65276 0.64659 0.26894
 C1324 C 0.64800 0.67662 0.25972
 C1325 C 0.61898 0.68489 0.24946
 C1326 C 0.59581 0.66352 0.24809
 H1327 H 0.51941 0.58390 0.21363
 H1328 H 0.56177 0.54603 0.29330
 H1329 H 0.67466 0.63931 0.27729
 H1330 H 0.61424 0.70782 0.24217
 H1331 H 0.55433 0.62688 0.21645
 H1332 H 0.57360 0.67040 0.24027
 C1333 C 0.10071 0.92163 0.22461
 C1334 C 0.07853 0.92265 0.20191
 C1335 C 0.05772 0.94626 0.20158
 C1336 C 0.05877 0.96916 0.22370
 C1337 C 0.08347 0.96899 0.24391
 N1338 N 0.10314 0.94525 0.24422
 C1339 C 0.12048 0.89489 0.22876
 N1340 N 0.14774 0.89853 0.24261
 C1341 C 0.16677 0.87497 0.24793
 C1342 C 0.15864 0.84540 0.23947
 C1343 C 0.13032 0.84094 0.22583
 C1344 C 0.11120 0.86560 0.22041
 H1345 H 0.03984 0.94593 0.18470
 H1346 H 0.08538 0.98565 0.26165
 H1347 H 0.18832 0.87945 0.25875
 H1348 H 0.12319 0.81856 0.21896
 H1349 H 0.07665 0.90503 0.18507
 H1350 H 0.08925 0.86158 0.21029
 C1351 C 0.60839 0.42991 0.73776
 C1352 C 0.59270 0.43825 0.71133
 C1353 C 0.57157 0.46171 0.71245
 C1354 C 0.56607 0.47667 0.73977
 C1355 C 0.58298 0.46840 0.76540
 N1356 N 0.60356 0.44558 0.76377
 C1357 C 0.62893 0.40362 0.73841
 N1358 N 0.65482 0.40515 0.75506
 C1359 C 0.67433 0.38147 0.75728
 C1360 C 0.66787 0.35395 0.74280
 C1361 C 0.64088 0.35158 0.72619
 C1362 C 0.62151 0.37650 0.72363
 H1363 H 0.55822 0.46700 0.69249
 H1364 H 0.57857 0.47884 0.78706
 H1365 H 0.69479 0.38412 0.77058
 H1366 H 0.63503 0.33072 0.71486
 H1367 H 0.59622 0.42630 0.69029
 H1368 H 0.60068 0.37440 0.71083
 C1369 C 0.90058 0.07614 0.24720
 C1370 C 0.90246 0.05418 0.22443
 C1371 C 0.92780 0.03541 0.22314
 C1372 C 0.95101 0.03802 0.24480
 C1373 C 0.94814 0.06019 0.26728
 N1374 N 0.92349 0.07858 0.26776
 C1375 C 0.87521 0.09786 0.24840
 N1376 N 0.88065 0.12636 0.25856
 C1377 C 0.85868 0.14784 0.25965
 C1378 C 0.82902 0.14102 0.25047
 C1379 C 0.82273 0.11156 0.24054
 C1380 C 0.84578 0.08997 0.23931
 H1381 H 0.92952 0.01919 0.20491
 H1382 H 0.96556 0.06298 0.28435
 H1383 H 0.86443 0.17018 0.26779
 H1384 H 0.80014 0.10533 0.23336
 H1385 H 0.88512 0.05221 0.20716
 H1386 H 0.84053 0.06734 0.23168
 C1387 C 0.39964 0.57451 0.74702
 C1388 C 0.40988 0.56349 0.71916
 C1389 C 0.43630 0.54621 0.71824
 C1390 C 0.45175 0.53907 0.74508
 C1391 C 0.44052 0.55000 0.77251
 N1392 N 0.41530 0.56764 0.77278
 C1393 C 0.37387 0.59562 0.74857
 N1394 N 0.37623 0.62043 0.76654
 C1395 C 0.35410 0.64172 0.76787
 C1396 C 0.32750 0.63841 0.75075
 C1397 C 0.32414 0.61257 0.73274
 C1398 C 0.34748 0.59125 0.73130
 H1399 H 0.44488 0.53861 0.69664
 H1400 H 0.45233 0.54528 0.79354
 H1401 H 0.35730 0.66123 0.78227
 H1402 H 0.30390 0.60933 0.71921
 H1403 H 0.39834 0.56926 0.69824
 H1404 H 0.34496 0.57159 0.71697
 C1405 C 0.93415 0.90743 0.72970
 C1406 C 0.93766 0.92715 0.70508
 C1407 C 0.95925 0.94992 0.70662
 C1408 C 0.97735 0.95305 0.73256
 C1409 C 0.97457 0.93165 0.75585
 N1410 N 0.95312 0.90972 0.75397
 C1411 C 0.90911 0.88555 0.73054
 N1412 N 0.91325 0.85836 0.74446
 C1413 C 0.89074 0.83758 0.74637
 C1414 C 0.86194 0.84398 0.73433
 C1415 C 0.85704 0.87216 0.72057
 C1416 C 0.88057 0.89292 0.71851
 H1417 H 0.96099 0.96594 0.68813
 H1418 H 0.98814 0.93345 0.77622
 H1419 H 0.89532 0.81615 0.75740
 H1420 H 0.83518 0.87798 0.71100
 H1421 H 0.92339 0.92545 0.68517
 H1422 H 0.87630 0.91470 0.70808
 C1423 C 0.42886 0.40294 0.24789
 C1424 C 0.44053 0.41476 0.27495
 C1425 C 0.46188 0.43789 0.27379
 C1426 C 0.47114 0.44933 0.24580
 C1427 C 0.45929 0.43664 0.21927
 N1428 N 0.43882 0.41383 0.22092
 C1429 C 0.40490 0.38000 0.24814
 N1430 N 0.40720 0.35546 0.22980
 C1431 C 0.38525 0.33403 0.22848
 C1432 C 0.35880 0.33731 0.24552
 C1433 C 0.35575 0.36266 0.26419
 C1434 C 0.37898 0.38389 0.26587
 H1435 H 0.47027 0.44770 0.29464
 H1436 H 0.46572 0.44541 0.19734
 H1437 H 0.38819 0.31476 0.21371
 H1438 H 0.33564 0.36578 0.27771
 H1439 H 0.43290 0.40643 0.29667
 H1440 H 0.37647 0.40350 0.28027
   
