data_POSCAR
  _audit_creation_date              2014-09-24
  _audit_creation_method            'ToBaCCo'
  _symmetry_space_group_name_H-M    'P1'
  _symmetry_Int_Tables_number       1
  _symmetry_cell_setting            triclinic
  loop_
  _symmetry_equiv_pos_as_xyz
 x,y,z
_cell_length_a 67.1454
_cell_length_b 67.1605
_cell_length_c 67.2189
_cell_angle_alpha 89.874600
_cell_angle_beta 87.877600
_cell_angle_gamma 91.683500
loop_
  _atom_site_label
  _atom_site_type_symbol
  _atom_site_fract_x
  _atom_site_fract_y
  _atom_site_fract_z
C1 C 0.12462 -0.00414 0.24612
 C2 C 0.37421 0.00430 0.75752
 C3 C 0.87538 0.50736 0.25295
 C4 C 0.62605 0.49375 0.74743
 C5 C 0.25037 0.12733 1.00062
 C6 C 0.74495 0.37582 0.99613
 C7 C 0.24166 0.87369 0.49870
 C8 C 0.75252 0.62480 0.49820
 C9 C 0.00602 0.25215 0.12535
 C10 C -0.00415 0.74768 0.37484
 C11 C 0.50091 0.25498 0.87472
 C12 C 0.50418 0.74066 0.62664
 C13 C 0.87533 0.99953 0.75466
 C14 C 0.37613 0.50115 0.25621
 C15 C 0.62384 0.99929 0.24914
 C16 C 0.12484 0.49842 0.74450
 C17 C 0.74274 0.87568 -0.00146
 C18 C 0.24565 0.37415 0.49934
 C19 C 0.25106 0.62825 -0.00014
 C20 C 0.74928 0.12578 0.49579
 C21 C 0.99544 0.75231 0.87647
 C22 C 0.49749 0.24134 0.37593
 C23 C 1.00830 0.24813 0.62408
 C24 C 0.50413 0.75494 0.12536
 O25 O -0.01466 0.98983 0.94663
 O26 O 0.01983 0.99807 0.94468
 O27 O -0.01725 0.94522 0.99349
 O28 O -0.01010 0.94356 1.02529
 O29 O -0.06055 0.99220 0.99270
 O30 O -0.05966 1.02488 1.00326
 O31 O 0.03572 0.99866 1.04406
 O32 O 0.03719 0.96687 1.02937
 O33 O 0.04180 1.03981 0.99737
 O34 O 0.02702 1.04580 0.96749
 O35 O -0.00381 1.04593 1.04041
 O36 O -0.03627 1.02954 1.04730
 O37 O 0.00919 1.01481 1.05742
 O38 O -0.02697 1.00463 1.05975
 O39 O 0.01068 1.05785 1.01157
 O40 O -0.00053 1.05554 0.97499
 O41 O 0.05318 1.01197 1.01189
 O42 O 0.05277 0.97758 1.00206
 O43 O -0.04136 1.00608 0.95955
 O44 O -0.04218 1.03833 0.97664
 O45 O -0.04934 0.96492 1.00844
 O46 O -0.03212 0.96178 1.03983
 O47 O -0.00229 0.95706 0.96481
 O48 O 0.02997 0.97309 0.95911
 Zr49 Zr 0.00430 0.98723 0.97060
 O50 O 0.02411 1.00535 0.98649
 Zr51 Zr -0.01868 0.97043 1.01202
 O52 O 0.00058 0.98740 1.02988
 Zr53 Zr -0.03483 1.01080 0.98968
 O54 O -0.01666 1.02959 1.00694
 Zr55 Zr 0.02804 0.99272 1.01463
 O56 O 0.00981 0.97334 0.99786
 Zr57 Zr 0.01156 1.03303 0.99261
 O58 O -0.00722 1.01582 0.97430
 Zr59 Zr -0.01098 1.01590 1.03421
 O60 O -0.03128 0.99814 1.01798
 O61 O -0.02369 0.98266 0.98430
 O62 O 0.01701 1.02095 1.02044
 C63 C -0.03153 0.99811 0.94499
 C64 C -0.01023 0.94291 0.97560
 C65 C -0.06328 0.97500 1.00101
 C66 C 0.02650 1.00730 1.05857
 C67 C 0.05569 1.02965 1.00477
 C68 C 0.00416 1.06005 1.02960
 H69 H 0.03681 1.00698 0.97867
 H70 H -0.02327 1.04245 1.00880
 H71 H -0.03262 0.97421 0.97624
 H72 H 0.00236 0.98033 1.04258
 H73 H 0.03150 0.95529 1.02220
 H74 H 0.00090 0.94694 1.03417
 H75 H -0.01080 1.06224 0.98327
 H76 H -0.05497 1.03657 0.96980
 H77 H 0.05594 0.98317 0.98866
 H78 H 0.03390 0.96359 0.96945
 H79 H -0.04053 1.03982 1.03792
 H80 H -0.06076 1.02018 1.01724
 H81 H 0.01561 1.01192 0.94276
 H82 H 0.03391 1.03493 0.96044
 H83 H -0.04196 0.97196 1.04350
 H84 H -0.02028 0.99257 1.06422
 O85 O 0.49122 0.47983 0.44486
 O86 O 0.52584 0.48852 0.44294
 O87 O 0.48786 0.43547 0.49107
 O88 O 0.49536 0.43321 0.52275
 O89 O 0.44557 0.48321 0.49097
 O90 O 0.44690 0.51578 0.50139
 O91 O 0.54136 0.48700 0.54283
 O92 O 0.54311 0.45591 0.52714
 O93 O 0.54813 0.52943 0.49638
 O94 O 0.53384 0.53582 0.46662
 O95 O 0.50289 0.53521 0.53939
 O96 O 0.47006 0.51942 0.54588
 O97 O 0.51491 0.50336 0.55606
 O98 O 0.47864 0.49414 0.55791
 O99 O 0.51747 0.54747 0.51075
 O100 O 0.50605 0.54567 0.47402
 O101 O 0.55930 0.50153 0.51098
 O102 O 0.55877 0.46714 0.50023
 O103 O 0.46478 0.49632 0.45804
 O104 O 0.46489 0.52894 0.47486
 O105 O 0.45621 0.45557 0.50654
 O106 O 0.47360 0.45139 0.53767
 O107 O 0.50398 0.44715 0.46290
 O108 O 0.53610 0.46340 0.45717
 Zr109 Zr 0.51039 0.47737 0.46878
 O110 O 0.53030 0.49515 0.48500
 Zr111 Zr 0.48704 0.46039 0.50996
 O112 O 0.50643 0.47690 0.52805
 Zr113 Zr 0.47155 0.50125 0.48801
 O114 O 0.48973 0.51963 0.50561
 Zr115 Zr 0.53407 0.48217 0.51303
 O116 O 0.51564 0.46318 0.49597
 Zr117 Zr 0.51799 0.52289 0.49141
 O118 O 0.49920 0.50609 0.47274
 Zr119 Zr 0.49511 0.50545 0.53269
 O120 O 0.47471 0.48818 0.51618
 O121 O 0.48233 0.47300 0.48240
 O122 O 0.52321 0.51041 0.51914
 C123 C 0.47430 0.48810 0.44343
 C124 C 0.49541 0.43311 0.47340
 C125 C 0.44250 0.46607 0.49925
 C126 C 0.53194 0.49536 0.55741
 C127 C 0.56187 0.51929 0.50401
 C128 C 0.51110 0.54941 0.52887
 H129 H 0.54304 0.49682 0.47726
 H130 H 0.48328 0.53255 0.50760
 H131 H 0.47329 0.46465 0.47434
 H132 H 0.50798 0.46958 0.54064
 H133 H 0.53724 0.44454 0.51980
 H134 H 0.50652 0.43631 0.53154
 H135 H 0.49623 0.55273 0.48254
 H136 H 0.45216 0.52741 0.46789
 H137 H 0.56239 0.47333 0.48719
 H138 H 0.54019 0.45402 0.46753
 H139 H 0.46614 0.53006 0.53674
 H140 H 0.44582 0.51131 0.51544
 H141 H 0.52127 0.50224 0.44093
 H142 H 0.53983 0.52481 0.45896
 H143 H 0.46383 0.46158 0.54152
 H144 H 0.48500 0.48183 0.56224
 O145 O 0.45331 -0.04634 0.50123
 O146 O 0.46988 -0.05017 0.46945
 O147 O 0.50082 -0.05220 0.54131
 O148 O 0.53064 -0.03760 0.54579
 O149 O 0.45948 -0.00505 0.54902
 O150 O 0.45694 0.02601 0.53439
 O151 O 0.55451 0.00407 0.48852
 O152 O 0.55494 -0.02928 0.49932
 O153 O 0.50849 0.00551 0.44724
 O154 O 0.47513 -0.00220 0.44664
 O155 O 0.51224 0.04864 0.49293
 O156 O 0.50274 0.04913 0.52814
 O157 O 0.54311 0.03070 0.50587
 O158 O 0.52538 0.03457 0.53874
 O159 O 0.49633 0.03674 0.46601
 O160 O 0.46159 0.01770 0.46511
 O161 O 0.53640 -0.00868 0.45815
 O162 O 0.54002 -0.04138 0.47328
 O163 O 0.44164 -0.01913 0.51739
 O164 O 0.44313 0.01567 0.50550
 O165 O 0.48712 -0.01982 0.55997
 O166 O 0.52224 -0.00897 0.55845
 O167 O 0.48601 -0.06442 0.51380
 O168 O 0.49517 -0.06384 0.47912
 Zr169 Zr 0.48375 -0.03941 0.49520
 O170 O 0.50178 -0.02151 0.47571
 Zr171 Zr 0.50652 -0.02190 0.53473
 O172 O 0.52603 -0.00361 0.51687
 Zr173 Zr 0.46658 0.00048 0.51875
 O174 O 0.48435 0.02009 0.50059
 Zr175 Zr 0.52959 -0.01568 0.48820
 O176 O 0.51227 -0.03551 0.50692
 Zr177 Zr 0.48954 0.00668 0.47277
 O178 O 0.47004 -0.01218 0.49023
 Zr179 Zr 0.51278 0.02393 0.51224
 O180 O 0.49415 0.00630 0.53181
 O181 O 0.47863 -0.02728 0.52324
 O182 O 0.51779 0.01231 0.48383
 C183 C 0.43921 -0.03648 0.50966
 C184 C 0.49308 -0.06647 0.53116
 C185 C 0.46967 -0.01268 0.56280
 C186 C 0.55696 0.02124 0.49661
 C187 C 0.52621 -0.00091 0.44447
 C188 C 0.50508 0.05078 0.47561
 H189 H 0.50301 -0.02827 0.46270
 H190 H 0.47755 0.03287 0.49937
 H191 H 0.46999 -0.03605 0.53196
 H192 H 0.53897 -0.00213 0.52334
 H193 H 0.55000 -0.04082 0.50748
 H194 H 0.54297 -0.03217 0.53902
 H195 H 0.46040 0.03116 0.47091
 H196 H 0.43080 0.01383 0.51399
 H197 H 0.53055 -0.04508 0.46290
 H198 H 0.50884 -0.06570 0.48369
 H199 H 0.48963 0.05256 0.52306
 H200 H 0.46829 0.03088 0.54222
 H201 H 0.46061 -0.03983 0.46543
 H202 H 0.47706 -0.01666 0.44509
 H203 H 0.51569 0.00364 0.56193
 H204 H 0.53655 0.02592 0.54181
 O205 O -0.04556 0.46149 0.99694
 O206 O -0.02958 0.45719 0.96526
 O207 O 0.00360 0.45632 1.03601
 O208 O 0.03234 0.47186 1.04117
 O209 O -0.03894 0.50359 1.04410
 O210 O -0.04197 0.53426 1.02908
 O211 O 0.05538 0.51177 0.98281
 O212 O 0.05589 0.47864 0.99309
 O213 O 0.00883 0.51355 0.94176
 O214 O -0.02446 0.50516 0.94143
 O215 O 0.01281 0.55670 0.98681
 O216 O 0.00404 0.55750 1.02213
 O217 O 0.04389 0.53928 0.99851
 O218 O 0.02718 0.54305 1.03230
 O219 O -0.00387 0.54463 0.96046
 O220 O -0.03821 0.52496 0.95992
 O221 O 0.03685 0.49940 0.95242
 O222 O 0.04036 0.46638 0.96770
 O223 O -0.05718 0.48871 1.01314
 O224 O -0.05606 0.52333 1.00052
 O225 O -0.01105 0.48920 1.05496
 O226 O 0.02420 0.50038 1.05254
 O227 O -0.01225 0.44380 1.00927
 O228 O -0.00387 0.44415 0.97433
 Zr229 Zr -0.01524 0.46856 0.99049
 O230 O 0.00237 0.48632 0.97047
 Zr231 Zr 0.00804 0.48678 1.02947
 O232 O 0.02725 0.50480 1.01104
 Zr233 Zr -0.03230 0.50857 1.01373
 O234 O -0.01484 0.52810 0.99515
 Zr235 Zr 0.03034 0.49232 0.98251
 O236 O 0.01342 0.47279 1.00179
 Zr237 Zr -0.01001 0.51444 0.96740
 O238 O -0.02916 0.49564 0.98532
 Zr239 Zr 0.01383 0.53220 1.00625
 O240 O -0.00454 0.51481 1.02628
 O241 O -0.02001 0.48094 1.01849
 O242 O 0.01841 0.52023 0.97796
 C243 C -0.05961 0.47132 1.00550
 C244 C -0.00414 0.44184 1.02616
 C245 C -0.02847 0.49638 1.05788
 C246 C 0.05780 0.52944 0.98978
 C247 C 0.02659 0.50727 0.93884
 C248 C 0.00511 0.55876 0.96975
 H249 H 0.00346 0.47947 0.95751
 H250 H -0.02174 0.54082 0.99395
 H251 H -0.02837 0.47216 1.02746
 H252 H 0.04031 0.50640 1.01726
 H253 H 0.05107 0.46738 1.00169
 H254 H 0.04438 0.47612 1.03319
 H255 H -0.03967 0.53831 0.96590
 H256 H -0.06827 0.52152 1.00919
 H257 H 0.03125 0.46317 0.95686
 H258 H 0.00990 0.44243 0.97867
 H259 H -0.00919 0.56083 1.01729
 H260 H -0.03050 0.53944 1.03656
 H261 H -0.03860 0.46763 0.96091
 H262 H -0.02254 0.49068 0.94010
 H263 H 0.01751 0.51291 1.05601
 H264 H 0.03887 0.53487 1.03475
 O265 O 0.01063 0.44074 0.50681
 O266 O 0.00046 0.44148 0.47343
 O267 O 0.05516 0.48783 0.50770
 O268 O 0.05742 0.52020 0.50262
 O269 O 0.00905 0.48212 0.55491
 O270 O -0.02363 0.49214 0.55742
 O271 O 0.00110 0.54245 0.46246
 O272 O 0.03259 0.52876 0.45715
 O273 O -0.04035 0.49487 0.45739
 O274 O -0.04720 0.46461 0.47201
 O275 O -0.04442 0.53499 0.50600
 O276 O -0.02771 0.53898 0.53697
 O277 O -0.01298 0.55348 0.49147
 O278 O -0.00218 0.55191 0.52681
 O279 O -0.05735 0.50800 0.49022
 O280 O -0.05615 0.47034 0.50068
 O281 O -0.01301 0.51191 0.44475
 O282 O 0.02171 0.50212 0.44178
 O283 O -0.00478 0.45096 0.53550
 O284 O -0.03754 0.46693 0.53935
 O285 O 0.03651 0.49912 0.54230
 O286 O 0.03968 0.53255 0.52649
 O287 O 0.04278 0.46100 0.49112
 O288 O 0.02487 0.45726 0.46104
 Zr289 Zr 0.01228 0.46637 0.48873
 O290 O -0.00607 0.48389 0.47164
 Zr291 Zr 0.03039 0.50580 0.51248
 O292 O 0.01346 0.52523 0.49569
 Zr293 Zr -0.01000 0.48139 0.53079
 O294 O -0.02880 0.50030 0.51547
 Zr295 Zr 0.00701 0.51251 0.46807
 O296 O 0.02651 0.49436 0.48360
 Zr297 Zr -0.03332 0.48862 0.48698
 O298 O -0.01599 0.46862 0.50298
 Zr299 Zr -0.01456 0.52819 0.51014
 O300 O 0.00313 0.51018 0.52790
 O301 O 0.01780 0.47749 0.51685
 O302 O -0.02074 0.51705 0.48204
 C303 C 0.00317 0.43752 0.52445
 C304 C 0.05714 0.47112 0.49870
 C305 C 0.02651 0.49019 0.55660
 C306 C -0.00645 0.55615 0.47341
 C307 C -0.03051 0.50397 0.44314
 C308 C -0.05887 0.52534 0.49809
 H309 H -0.00813 0.47714 0.45880
 H310 H -0.04149 0.50150 0.52325
 H311 H 0.02650 0.46881 0.52441
 H312 H 0.02077 0.53815 0.49394
 H313 H 0.04431 0.52164 0.46172
 H314 H 0.05413 0.52967 0.49204
 H315 H -0.06309 0.47835 0.51099
 H316 H -0.03561 0.45876 0.55140
 H317 H 0.01481 0.48971 0.43756
 H318 H 0.03423 0.46812 0.45643
 H319 H -0.03767 0.52883 0.54192
 H320 H -0.01869 0.50605 0.55903
 H321 H -0.01304 0.43866 0.47937
 H322 H -0.03650 0.45756 0.46467
 H323 H 0.03027 0.53469 0.53792
 H324 H 0.00965 0.55738 0.51921
 O325 O 0.46083 1.00326 -0.03920
 O326 O 0.45593 0.97172 -0.02325
 O327 O 0.45554 1.04321 0.01078
 O328 O 0.47113 1.05007 0.03828
 O329 O 0.50333 1.05108 -0.03469
 O330 O 0.53415 1.03669 -0.03918
 O331 O 0.50975 0.99244 0.05877
 O332 O 0.47665 1.00226 0.06119
 O333 O 0.51127 0.95022 0.01183
 O334 O 0.50346 0.94901 -0.02104
 O335 O 0.55529 0.99632 0.01384
 O336 O 0.55697 1.03105 0.00568
 O337 O 0.53738 1.00905 0.04622
 O338 O 0.54184 1.04226 0.02892
 O339 O 0.54278 0.96899 -0.00177
 O340 O 0.52405 0.96746 -0.03539
 O341 O 0.49677 0.96120 0.04066
 O342 O 0.46422 0.97621 0.04627
 O343 O 0.48857 1.01943 -0.05216
 O344 O 0.52305 1.00744 -0.05289
 O345 O 0.48860 1.06250 -0.00606
 O346 O 0.49984 1.06129 0.02870
 O347 O 0.44297 1.01621 -0.00536
 O348 O 0.44253 0.98151 0.00325
 Zr349 Zr 0.46744 0.99760 -0.00937
 O350 O 0.48465 0.97833 0.00714
 Zr351 Zr 0.48596 1.03756 0.01320
 O352 O 0.50341 1.01991 0.03132
 Zr353 Zr 0.50809 1.02106 -0.02835
 O354 O 0.52710 1.00331 -0.01203
 Zr355 Zr 0.49049 0.99119 0.03486
 O356 O 0.47146 1.00974 0.01913
 Zr357 Zr 0.51293 0.97545 -0.00671
 O358 O 0.49464 0.99251 -0.02475
 Zr359 Zr 0.53098 1.01532 0.01645
 O360 O 0.51415 1.03457 -0.00090
 O361 O 0.48035 1.02568 -0.01456
 O362 O 0.51854 0.98686 0.02147
 C363 C 0.47097 1.01165 -0.05369
 C364 C 0.44109 1.03317 0.00323
 C365 C 0.49589 1.06500 -0.02391
 C366 C 0.52727 1.00031 0.06050
 C367 C 0.50456 0.94751 0.02980
 C368 C 0.55701 0.97888 0.00626
 H369 H 0.47757 0.96527 0.00846
 H370 H 0.53992 1.00212 -0.01958
 H371 H 0.47176 1.03425 -0.02238
 H372 H 0.50488 1.02656 0.04431
 H373 H 0.46561 1.01060 0.05703
 H374 H 0.47462 1.04214 0.04999
 H375 H 0.53766 0.97339 -0.03725
 H376 H 0.52155 1.01574 -0.06495
 H377 H 0.46055 0.96548 0.03693
 H378 H 0.44059 0.98642 0.01704
 H379 H 0.55978 1.02665 -0.00815
 H380 H 0.53901 1.04492 -0.02806
 H381 H 0.46633 0.96747 -0.03303
 H382 H 0.48892 0.94746 -0.01837
 H383 H 0.51214 1.06526 0.02094
 H384 H 0.53361 1.04493 0.04109
 O385 O 0.49253 0.46080 -0.03664
 O386 O 0.46263 0.47802 -0.04040
 O387 O 0.53689 0.50795 -0.04500
 O388 O 0.54513 0.53650 -0.03063
 O389 O 0.54079 0.46558 0.00399
 O390 O 0.52528 0.46246 0.03464
 O391 O 0.48906 0.56165 0.01069
 O392 O 0.49937 0.56202 -0.02268
 O393 O 0.44319 0.51646 0.01489
 O394 O 0.43961 0.48340 0.00860
 O395 O 0.48905 0.51895 0.05688
 O396 O 0.52355 0.50910 0.05651
 O397 O 0.50388 0.54976 0.03792
 O398 O 0.53593 0.53182 0.04090
 O399 O 0.46074 0.50384 0.04619
 O400 O 0.45693 0.46924 0.02806
 O401 O 0.45684 0.54444 0.00019
 O402 O 0.47256 0.54724 -0.03374
 O403 O 0.50748 0.44836 -0.00970
 O404 O 0.49520 0.45008 0.02558
 O405 O 0.55430 0.49238 -0.01303
 O406 O 0.55578 0.52761 -0.00216
 O407 O 0.50851 0.49302 -0.05588
 O408 O 0.47457 0.50335 -0.05458
 Zr409 Zr 0.48942 0.49117 -0.03038
 O410 O 0.47130 0.50938 -0.01250
 Zr411 Zr 0.53092 0.51268 -0.01449
 O412 O 0.51454 0.53258 0.00351
 Zr413 Zr 0.51095 0.47310 0.00934
 O414 O 0.49434 0.49128 0.02893
 Zr415 Zr 0.48626 0.53679 -0.00791
 O416 O 0.50378 0.51925 -0.02759
 Zr417 Zr 0.46707 0.49709 0.01612
 O418 O 0.48288 0.47737 -0.00270
 Zr419 Zr 0.50846 0.51945 0.03158
 O420 O 0.52646 0.50029 0.01410
 O421 O 0.51692 0.48518 -0.01887
 O422 O 0.48057 0.52504 0.02055
 C423 C 0.49953 0.44637 -0.02674
 C424 C 0.52629 0.50032 -0.05875
 C425 C 0.55551 0.47518 -0.00473
 C426 C 0.49636 0.56389 0.02795
 C427 C 0.44214 0.53435 0.00837
 C428 C 0.47110 0.51211 0.05974
 H429 H 0.45844 0.51091 -0.01894
 H430 H 0.49245 0.48446 0.04194
 H431 H 0.52494 0.47642 -0.02764
 H432 H 0.52211 0.54538 0.00441
 H433 H 0.50768 0.55698 -0.03395
 H434 H 0.53855 0.54883 -0.02633
 H435 H 0.46228 0.46796 0.04152
 H436 H 0.50219 0.43740 0.02350
 H437 H 0.46054 0.53881 -0.03600
 H438 H 0.48062 0.51679 -0.05704
 H439 H 0.51719 0.49620 0.06068
 H440 H 0.53343 0.47374 0.03970
 H441 H 0.45736 0.46906 -0.02960
 H442 H 0.43847 0.48507 -0.00592
 H443 H 0.55868 0.52049 0.01027
 H444 H 0.53964 0.54325 0.03208
 O445 O 0.03270 0.00088 0.45218
 O446 O 0.03848 0.03253 0.46742
 O447 O 0.03782 -0.03950 0.50083
 O448 O 0.02291 -0.04596 0.53007
 O449 O -0.01187 -0.04545 0.46070
 O450 O -0.04182 -0.02951 0.45896
 O451 O -0.01312 0.01199 0.55499
 O452 O 0.01960 0.00117 0.55373
 O453 O -0.01442 0.05539 0.50870
 O454 O -0.00766 0.05670 0.47492
 O455 O -0.06026 0.01038 0.51417
 O456 O -0.06282 -0.02443 0.50619
 O457 O -0.04194 -0.00259 0.54481
 O458 O -0.04785 -0.03573 0.52834
 O459 O -0.04713 0.03795 0.49835
 O460 O -0.02958 0.03942 0.46282
 O461 O 0.00030 0.04326 0.53589
 O462 O 0.03227 0.02725 0.53804
 O463 O 0.00405 -0.01388 0.44174
 O464 O -0.02995 -0.00050 0.44455
 O465 O 0.00387 -0.05739 0.48745
 O466 O -0.00640 -0.05651 0.52310
 O467 O 0.05085 -0.01244 0.48407
 O468 O 0.05248 0.02220 0.49254
 Zr469 Zr 0.02683 0.00684 0.48250
 O470 O 0.01077 0.02637 0.50096
 Zr471 Zr 0.00775 -0.03285 0.50657
 O472 O -0.00867 -0.01498 0.52657
 Zr473 Zr -0.01497 -0.01510 0.46744
 O474 O -0.03287 0.00310 0.48584
 Zr475 Zr 0.00532 0.01322 0.52909
 O476 O 0.02330 -0.00561 0.51124
 Zr477 Zr -0.01773 0.03047 0.49009
 O478 O -0.00058 0.01302 0.47000
 Zr479 Zr -0.03640 -0.00921 0.51455
 O480 O -0.02066 -0.02875 0.49540
 O481 O 0.01291 -0.02079 0.47838
 O482 O -0.02289 0.01875 0.51866
 C483 C 0.02199 -0.00701 0.43866
 C484 C 0.05241 -0.02967 0.49213
 C485 C -0.00437 -0.05966 0.47058
 C486 C -0.03102 0.00517 0.55824
 C487 C -0.00710 0.05748 0.52599
 C488 C -0.06155 0.02812 0.50726
 H489 H 0.01834 0.03917 0.50169
 H490 H -0.04582 0.00480 0.47961
 H491 H 0.02096 -0.02960 0.46969
 H492 H -0.01004 -0.02178 0.53962
 H493 H 0.03028 -0.00735 0.54829
 H494 H 0.01947 -0.03845 0.54229
 H495 H -0.04333 0.03378 0.46229
 H496 H -0.02895 -0.00861 0.43224
 H497 H 0.03612 0.03791 0.52836
 H498 H 0.05469 0.01712 0.50609
 H499 H -0.06619 -0.01941 0.49292
 H500 H -0.04682 -0.03762 0.47050
 H501 H 0.02803 0.03688 0.45849
 H502 H 0.00697 0.05765 0.47608
 H503 H -0.01923 -0.05960 0.51683
 H504 H -0.03933 -0.03877 0.53959
 O505 O 0.79828 0.25105 0.21059
 O506 O 0.78136 0.22037 0.20396
 O507 O 0.75065 0.29244 0.20371
 O508 O 0.72209 0.29955 0.21837
 O509 O 0.79031 0.29672 0.25469
 O510 O 0.79076 0.27997 0.28446
 O511 O 0.69401 0.23880 0.25458
 O512 O 0.69582 0.25207 0.22205
 O513 O 0.73818 0.19630 0.25652
 O514 O 0.77164 0.19453 0.25062
 O515 O 0.73339 0.24007 0.30178
 O516 O 0.74305 0.27484 0.30438
 O517 O 0.70383 0.25453 0.28264
 O518 O 0.72175 0.28677 0.28909
 O519 O 0.74936 0.21312 0.28958
 O520 O 0.78480 0.21155 0.27179
 O521 O 0.71230 0.20890 0.24025
 O522 O 0.71111 0.22651 0.20884
 O523 O 0.80845 0.26522 0.23928
 O524 O 0.80428 0.25127 0.27315
 O525 O 0.76453 0.30959 0.23836
 O526 O 0.72841 0.30849 0.24759
 O527 O 0.76750 0.26605 0.19140
 O528 O 0.75716 0.23162 0.18962
 Zr529 Zr 0.76739 0.24592 0.21548
 O530 O 0.74779 0.22605 0.23126
 Zr531 Zr 0.74452 0.28527 0.23387
 O532 O 0.72339 0.26706 0.24991
 Zr533 Zr 0.78232 0.26639 0.25750
 O534 O 0.76281 0.24790 0.27508
 Zr535 Zr 0.72002 0.23920 0.23611
 O536 O 0.73903 0.25845 0.21843
 Zr537 Zr 0.75781 0.22096 0.26000
 O538 O 0.77894 0.23873 0.24317
 Zr539 Zr 0.73456 0.26042 0.27789
 O540 O 0.75486 0.28020 0.26250
 O541 O 0.77239 0.27313 0.22934
 O542 O 0.72962 0.23280 0.26455
 C543 C 0.81186 0.25829 0.22171
 C544 C 0.75953 0.28308 0.18942
 C545 C 0.78113 0.31137 0.24727
 C546 C 0.69057 0.24602 0.27201
 C547 C 0.72130 0.19443 0.24820
 C548 C 0.74027 0.22254 0.30367
 H549 H 0.74675 0.21349 0.22370
 H550 H 0.76872 0.24583 0.28814
 H551 H 0.78170 0.28207 0.22149
 H552 H 0.71053 0.27386 0.25096
 H553 H 0.70160 0.26082 0.21132
 H554 H 0.70960 0.29162 0.22079
 H555 H 0.78559 0.21690 0.28546
 H556 H 0.81692 0.25931 0.27247
 H557 H 0.72078 0.21631 0.20481
 H558 H 0.74409 0.23728 0.18690
 H559 H 0.75577 0.26920 0.30834
 H560 H 0.77932 0.28780 0.28934
 H561 H 0.78946 0.21514 0.21471
 H562 H 0.77122 0.19419 0.23594
 H563 H 0.73466 0.31140 0.26042
 H564 H 0.71115 0.29052 0.28008
 O565 O 0.76027 0.70869 0.70658
 O566 O 0.79006 0.70698 0.72451
 O567 O 0.71524 0.69948 0.75323
 O568 O 0.70604 0.71373 0.78165
 O569 O 0.70971 0.74620 0.70965
 O570 O 0.72320 0.77820 0.70660
 O571 O 0.75919 0.75912 0.80630
 O572 O 0.74983 0.72499 0.80741
 O573 O 0.80537 0.76420 0.76215
 O574 O 0.81007 0.75666 0.72906
 O575 O 0.75712 0.80355 0.76256
 O576 O 0.72319 0.80145 0.75205
 O577 O 0.74206 0.78455 0.79349
 O578 O 0.71071 0.78568 0.77456
 O579 O 0.78647 0.79384 0.74838
 O580 O 0.79226 0.77531 0.71433
 O581 O 0.79215 0.74856 0.78979
 O582 O 0.77806 0.71506 0.79399
 O583 O 0.74413 0.73465 0.69349
 O584 O 0.75407 0.77029 0.69439
 O585 O 0.69643 0.73044 0.73728
 O586 O 0.69364 0.74133 0.77212
 O587 O 0.74452 0.68948 0.73905
 O588 O 0.77810 0.69254 0.74985
 Zr589 Zr 0.76232 0.71579 0.73696
 O590 O 0.77898 0.73497 0.75508
 Zr591 Zr 0.71955 0.73019 0.75765
 O592 O 0.73437 0.74953 0.77722
 Zr593 Zr 0.73892 0.75389 0.71769
 O594 O 0.75414 0.77468 0.73551
 Zr595 Zr 0.76315 0.73960 0.78215
 O596 O 0.74727 0.71860 0.76482
 Zr597 Zr 0.78197 0.76342 0.74218
 O598 O 0.76759 0.74343 0.72266
 Zr599 Zr 0.73913 0.77740 0.76329
 O600 O 0.72252 0.75855 0.74448
 O601 O 0.73433 0.72580 0.73041
 O602 O 0.76749 0.76795 0.76973
 C603 C 0.75302 0.71800 0.69189
 C604 C 0.72666 0.68606 0.74601
 C605 C 0.69514 0.73755 0.71959
 C606 C 0.75021 0.77570 0.80792
 C607 C 0.80657 0.75759 0.78001
 C608 C 0.77515 0.80703 0.75616
 H609 H 0.79214 0.72920 0.75700
 H610 H 0.75549 0.78757 0.72839
 H611 H 0.72699 0.71645 0.72175
 H612 H 0.72643 0.75041 0.78985
 H613 H 0.74278 0.71291 0.80252
 H614 H 0.71171 0.71900 0.79401
 H615 H 0.78593 0.78827 0.71251
 H616 H 0.74715 0.76783 0.68179
 H617 H 0.78935 0.71188 0.78480
 H618 H 0.77182 0.69005 0.76321
 H619 H 0.72928 0.80511 0.73888
 H620 H 0.71389 0.78241 0.71745
 H621 H 0.79485 0.71779 0.71535
 H622 H 0.81219 0.74240 0.73170
 H623 H 0.69015 0.75351 0.76486
 H624 H 0.70709 0.77708 0.78618
 O625 O 0.24732 0.21668 0.79651
 O626 O 0.21690 0.21125 0.77980
 O627 O 0.29179 0.21063 0.75063
 O628 O 0.29900 0.22406 0.72062
 O629 O 0.29530 0.26021 0.79087
 O630 O 0.27991 0.29036 0.79297
 O631 O 0.24374 0.26252 0.69494
 O632 O 0.25463 0.22966 0.69511
 O633 O 0.19792 0.26416 0.73979
 O634 O 0.19448 0.25803 0.77356
 O635 O 0.24411 0.30922 0.73653
 O636 O 0.27858 0.31101 0.74654
 O637 O 0.25913 0.29060 0.70630
 O638 O 0.29089 0.29604 0.72395
 O639 O 0.21515 0.29658 0.75064
 O640 O 0.21132 0.28003 0.78626
 O641 O 0.21159 0.24936 0.71238
 O642 O 0.22742 0.21701 0.70983
 O643 O 0.26177 0.24511 0.80833
 O644 O 0.24968 0.27948 0.80588
 O645 O 0.30881 0.24435 0.76394
 O646 O 0.31059 0.25361 0.72863
 O647 O 0.26278 0.19797 0.76472
 O648 O 0.22887 0.19695 0.75480
 Zr649 Zr 0.24385 0.22237 0.76613
 O650 O 0.22592 0.23875 0.74751
 Zr651 Zr 0.28548 0.24040 0.74409
 O652 O 0.26936 0.25715 0.72393
 Zr653 Zr 0.26550 0.26386 0.78319
 O654 O 0.24894 0.28204 0.76470
 Zr655 Zr 0.24109 0.24380 0.72000
 O656 O 0.25833 0.22545 0.73795
 Zr657 Zr 0.22168 0.26737 0.75911
 O658 O 0.23738 0.24997 0.77925
 Zr659 Zr 0.26336 0.28505 0.73658
 O660 O 0.28121 0.26897 0.75589
 O661 O 0.27133 0.23579 0.77172
 O662 O 0.23550 0.27212 0.73115
 C663 C 0.25421 0.22741 0.81064
 C664 C 0.28091 0.19630 0.75831
 C665 C 0.31007 0.25260 0.78112
 C666 C 0.25137 0.28015 0.69245
 C667 C 0.19686 0.25694 0.72216
 C668 C 0.22578 0.31071 0.74234
 H669 H 0.21307 0.23141 0.74615
 H670 H 0.24699 0.29508 0.77116
 H671 H 0.27934 0.22778 0.78066
 H672 H 0.27702 0.25836 0.71111
 H673 H 0.26254 0.21873 0.70036
 H674 H 0.29335 0.22865 0.70809
 H675 H 0.21650 0.29396 0.78672
 H676 H 0.25678 0.27831 0.81851
 H677 H 0.21595 0.21348 0.71894
 H678 H 0.23491 0.19453 0.74139
 H679 H 0.27202 0.31510 0.75924
 H680 H 0.28861 0.29532 0.78171
 H681 H 0.21202 0.22183 0.78882
 H682 H 0.19299 0.24349 0.77150
 H683 H 0.31326 0.26669 0.73491
 H684 H 0.29473 0.28721 0.71277
 O685 O 0.20309 0.74286 0.28581
 O686 O 0.21956 0.71254 0.29140
 O687 O 0.24974 0.78665 0.29400
 O688 O 0.27959 0.79456 0.28055
 O689 O 0.21167 0.79040 0.24300
 O690 O 0.21123 0.77455 0.21274
 O691 O 0.30761 0.73802 0.24297
 O692 O 0.30526 0.74937 0.27586
 O693 O 0.26347 0.69289 0.23815
 O694 O 0.22965 0.68900 0.24463
 O695 O 0.26889 0.73799 0.19501
 O696 O 0.25918 0.77251 0.19330
 O697 O 0.29791 0.75258 0.21452
 O698 O 0.28078 0.78482 0.20924
 O699 O 0.25223 0.71006 0.20623
 O700 O 0.21685 0.70574 0.22353
 O701 O 0.28876 0.70597 0.25607
 O702 O 0.28991 0.72267 0.28782
 O703 O 0.19302 0.75730 0.25740
 O704 O 0.19750 0.74476 0.22298
 O705 O 0.23705 0.80376 0.26071
 O706 O 0.27296 0.80518 0.25107
 O707 O 0.23334 0.75862 0.30548
 O708 O 0.24366 0.72464 0.30655
 Zr709 Zr 0.23383 0.73924 0.28095
 O710 O 0.25347 0.72097 0.26488
 Zr711 Zr 0.25703 0.78042 0.26403
 O712 O 0.27823 0.76389 0.24769
 Zr713 Zr 0.21935 0.76046 0.23935
 O714 O 0.23897 0.74355 0.22148
 Zr715 Zr 0.28129 0.73582 0.26086
 O716 O 0.26220 0.75345 0.27886
 Zr717 Zr 0.24367 0.71641 0.23589
 O718 O 0.22244 0.73249 0.25294
 Zr719 Zr 0.26736 0.75755 0.21939
 O720 O 0.24699 0.77580 0.23511
 O721 O 0.22911 0.76659 0.26777
 O722 O 0.27197 0.72984 0.23213
 C723 C 0.18961 0.74987 0.27490
 C724 C 0.24057 0.77635 0.30785
 C725 C 0.22059 0.80503 0.25164
 C726 C 0.31116 0.74508 0.22537
 C727 C 0.27999 0.69153 0.24704
 C728 C 0.26186 0.72021 0.19259
 H729 H 0.25440 0.70821 0.27208
 H730 H 0.23322 0.74160 0.20828
 H731 H 0.21971 0.77473 0.27573
 H732 H 0.29113 0.77138 0.24692
 H733 H 0.29931 0.75774 0.28650
 H734 H 0.29234 0.78844 0.27655
 H735 H 0.21596 0.71186 0.21020
 H736 H 0.18486 0.75204 0.22392
 H737 H 0.27998 0.71205 0.29162
 H738 H 0.25658 0.73110 0.30978
 H739 H 0.24665 0.76614 0.18885
 H740 H 0.22284 0.78296 0.20811
 H741 H 0.21146 0.70741 0.28041
 H742 H 0.23055 0.68796 0.25924
 H743 H 0.26693 0.80788 0.23815
 H744 H 0.29154 0.78850 0.21833
 O745 O 0.19301 0.73768 0.76083
 O746 O 0.19354 0.74651 0.72640
 O747 O 0.24029 0.69515 0.76151
 O748 O 0.27275 0.69480 0.75496
 O749 O 0.23593 0.74221 0.80627
 O750 O 0.24722 0.77577 0.80548
 O751 O 0.29446 0.74986 0.71045
 O752 O 0.27954 0.71771 0.70810
 O753 O 0.24699 0.78926 0.70480
 O754 O 0.21382 0.79198 0.72250
 O755 O 0.28710 0.79757 0.75027
 O756 O 0.29174 0.78213 0.78248
 O757 O 0.30570 0.76662 0.73731
 O758 O 0.30510 0.75748 0.77319
 O759 O 0.25946 0.80823 0.73549
 O760 O 0.22668 0.80836 0.74641
 O761 O 0.26350 0.76248 0.69296
 O762 O 0.25376 0.72776 0.69252
 O763 O 0.20419 0.75429 0.78782
 O764 O 0.22056 0.78709 0.79044
 O765 O 0.25203 0.71509 0.79445
 O766 O 0.28522 0.71367 0.77744
 O767 O 0.21236 0.70591 0.74728
 O768 O 0.20852 0.72168 0.71575
 Zr769 Zr 0.21836 0.73635 0.74156
 O770 O 0.23569 0.75478 0.72193
 Zr771 Zr 0.25837 0.72107 0.76400
 O772 O 0.27748 0.73868 0.74508
 Zr773 Zr 0.23464 0.76062 0.78110
 O774 O 0.25279 0.77995 0.76308
 Zr775 Zr 0.26428 0.74328 0.71770
 O776 O 0.24619 0.72346 0.73564
 Zr777 Zr 0.24059 0.78276 0.73499
 O778 O 0.22108 0.76514 0.75376
 Zr779 Zr 0.28070 0.76741 0.75716
 O780 O 0.26329 0.74902 0.77719
 O781 O 0.23021 0.73228 0.76932
 O782 O 0.26901 0.77178 0.72925
 C783 C 0.19032 0.74555 0.77810
 C784 C 0.22284 0.69217 0.75464
 C785 C 0.24359 0.72508 0.80858
 C786 C 0.30832 0.75880 0.72001
 C787 C 0.25579 0.77959 0.69072
 C788 C 0.27697 0.81116 0.74217
 H789 H 0.22877 0.75591 0.70928
 H790 H 0.25390 0.79304 0.76972
 H791 H 0.22156 0.72345 0.77798
 H792 H 0.29038 0.73207 0.74326
 H793 H 0.27189 0.70601 0.71364
 H794 H 0.28233 0.69851 0.74395
 H795 H 0.21786 0.80379 0.75773
 H796 H 0.21321 0.78451 0.80332
 H797 H 0.24047 0.73270 0.68956
 H798 H 0.21943 0.71299 0.71118
 H799 H 0.28178 0.79189 0.78694
 H800 H 0.26064 0.77043 0.80716
 H801 H 0.19104 0.76011 0.73136
 H802 H 0.21098 0.78324 0.71106
 H803 H 0.28773 0.72379 0.78781
 H804 H 0.30980 0.74513 0.76681
 O805 O 0.25912 0.21362 0.20512
 O806 O 0.28870 0.20912 0.22287
 O807 O 0.21402 0.20278 0.25203
 O808 O 0.20512 0.21593 0.28103
 O809 O 0.20992 0.25313 0.21148
 O810 O 0.22536 0.28525 0.21159
 O811 O 0.26007 0.25648 0.30823
 O812 O 0.24916 0.22257 0.30669
 O813 O 0.30662 0.26260 0.26448
 O814 O 0.30905 0.25439 0.22829
 O815 O 0.26111 0.30386 0.26798
 O816 O 0.22731 0.30479 0.25684
 O817 O 0.24419 0.28353 0.29709
 O818 O 0.21357 0.28824 0.27813
 O819 O 0.28965 0.29385 0.25238
 O820 O 0.29545 0.28177 0.22046
 O821 O 0.29282 0.24521 0.29080
 O822 O 0.27737 0.21283 0.29317
 O823 O 0.24379 0.24102 0.19407
 O824 O 0.25376 0.27591 0.19626
 O825 O 0.19628 0.23577 0.23794
 O826 O 0.19412 0.24447 0.27334
 O827 O 0.24224 0.19279 0.23576
 O828 O 0.27568 0.19310 0.24679
 Zr829 Zr 0.26132 0.21827 0.23587
 O830 O 0.27892 0.23507 0.25535
 Zr831 Zr 0.21945 0.23311 0.25798
 O832 O 0.23523 0.25040 0.27859
 Zr833 Zr 0.23955 0.25875 0.21956
 O834 O 0.25623 0.27720 0.23847
 Zr835 Zr 0.26339 0.23858 0.28275
 O836 O 0.24659 0.21969 0.26402
 Zr837 Zr 0.28341 0.26419 0.24435
 O838 O 0.26779 0.24670 0.22347
 Zr839 Zr 0.24148 0.27891 0.26648
 O840 O 0.22368 0.26222 0.24681
 O841 O 0.23376 0.23001 0.23032
 O842 O 0.26923 0.26749 0.27225
 C843 C 0.25209 0.22422 0.19124
 C844 C 0.22457 0.18948 0.24332
 C845 C 0.19510 0.24441 0.22094
 C846 C 0.25162 0.27322 0.31093
 C847 C 0.30756 0.25441 0.28171
 C848 C 0.27919 0.30697 0.26148
 H849 H 0.29169 0.22840 0.25686
 H850 H 0.25849 0.29043 0.23216
 H851 H 0.22596 0.22164 0.22112
 H852 H 0.22726 0.25083 0.29125
 H853 H 0.24198 0.21102 0.30085
 H854 H 0.21125 0.21991 0.29362
 H855 H 0.28828 0.27751 0.20853
 H856 H 0.24577 0.27468 0.18415
 H857 H 0.28738 0.20878 0.28294
 H858 H 0.26926 0.18991 0.25996
 H859 H 0.23390 0.30911 0.24408
 H860 H 0.21544 0.28815 0.22238
 H861 H 0.29410 0.22043 0.21467
 H862 H 0.31359 0.24222 0.23484
 H863 H 0.19118 0.25730 0.26695
 H864 H 0.20910 0.27878 0.28879
 O865 O 0.74494 0.71616 0.29496
 O866 O 0.71391 0.71123 0.27937
 O867 O 0.78724 0.70994 0.24644
 O868 O 0.79476 0.72434 0.21739
 O869 O 0.79304 0.75902 0.28809
 O870 O 0.77838 0.78947 0.29085
 O871 O 0.73831 0.76287 0.19401
 O872 O 0.74857 0.72990 0.19362
 O873 O 0.69421 0.76536 0.24038
 O874 O 0.69138 0.75870 0.27363
 O875 O 0.74079 0.80942 0.23605
 O876 O 0.77541 0.81088 0.24429
 O877 O 0.75441 0.79078 0.20482
 O878 O 0.78704 0.79551 0.22162
 O879 O 0.71262 0.79742 0.25218
 O880 O 0.70936 0.77933 0.28697
 O881 O 0.70665 0.75035 0.21252
 O882 O 0.72183 0.71756 0.20934
 O883 O 0.75999 0.74439 0.30650
 O884 O 0.74845 0.77899 0.30475
 O885 O 0.80553 0.74324 0.26065
 O886 O 0.80612 0.75343 0.22526
 O887 O 0.75903 0.69762 0.26231
 O888 O 0.72465 0.69719 0.25370
 Zr889 Zr 0.74044 0.72224 0.26479
 O890 O 0.72203 0.73907 0.24703
 Zr891 Zr 0.78152 0.74008 0.24141
 O892 O 0.76485 0.75710 0.22197
 Zr893 Zr 0.76317 0.76328 0.28139
 O894 O 0.74630 0.78186 0.26363
 Zr895 Zr 0.73626 0.74415 0.21906
 O896 O 0.75396 0.72549 0.23616
 Zr897 Zr 0.71861 0.76765 0.25900
 O898 O 0.73474 0.74979 0.27837
 Zr899 Zr 0.75966 0.78498 0.23498
 O900 O 0.77797 0.76857 0.25362
 O901 O 0.76832 0.73525 0.26945
 O902 O 0.73140 0.77249 0.23058
 C903 C 0.75235 0.72673 0.30895
 C904 C 0.77662 0.69565 0.25451
 C905 C 0.80739 0.75126 0.27789
 C906 C 0.74604 0.78041 0.19123
 C907 C 0.69244 0.75827 0.22278
 C908 C 0.72306 0.81144 0.24345
 H909 H 0.70901 0.73197 0.24607
 H910 H 0.74485 0.79485 0.27035
 H911 H 0.77651 0.72693 0.27795
 H912 H 0.77204 0.75826 0.20890
 H913 H 0.75666 0.71893 0.19850
 H914 H 0.78789 0.72817 0.20526
 H915 H 0.71522 0.79296 0.28801
 H916 H 0.75600 0.77760 0.31707
 H917 H 0.71037 0.71439 0.21858
 H918 H 0.73018 0.69484 0.24008
 H919 H 0.76996 0.81446 0.25764
 H920 H 0.78681 0.79435 0.27936
 H921 H 0.70939 0.72184 0.28854
 H922 H 0.69011 0.74406 0.27231
 H923 H 0.80950 0.76611 0.23200
 H924 H 0.79017 0.78692 0.21005
 O925 O 0.77038 0.23452 0.69153
 O926 O 0.76142 0.26821 0.68853
 O927 O 0.81111 0.23827 0.74000
 O928 O 0.81033 0.24659 0.77161
 O929 O 0.76478 0.19102 0.73879
 O930 O 0.73158 0.18988 0.74756
 O931 O 0.75417 0.28920 0.78787
 O932 O 0.78619 0.29307 0.77306
 O933 O 0.71561 0.28984 0.73867
 O934 O 0.71167 0.27261 0.70973
 O935 O 0.70732 0.24679 0.78350
 O936 O 0.72316 0.21559 0.79138
 O937 O 0.73698 0.26235 0.80107
 O938 O 0.74737 0.22699 0.80413
 O939 O 0.69702 0.25871 0.75410
 O940 O 0.70206 0.24464 0.71793
 O941 O 0.74137 0.30405 0.75502
 O942 O 0.77645 0.30621 0.74566
 O943 O 0.75357 0.20736 0.70451
 O944 O 0.71977 0.20530 0.72054
 O945 O 0.79080 0.20515 0.75490
 O946 O 0.79138 0.22458 0.78598
 O947 O 0.80129 0.25052 0.71051
 O948 O 0.78502 0.28122 0.70368
 Zr949 Zr 0.77059 0.25500 0.71513
 O950 O 0.75090 0.27421 0.73001
 Zr951 Zr 0.78460 0.23561 0.75755
 O952 O 0.76613 0.25458 0.77438
 Zr953 Zr 0.74625 0.21518 0.73428
 O954 O 0.72594 0.23276 0.75068
 Zr955 Zr 0.76135 0.28080 0.75841
 O956 O 0.78224 0.26309 0.74271
 Zr957 Zr 0.72305 0.25984 0.73559
 O958 O 0.74194 0.24152 0.71816
 Zr959 Zr 0.73762 0.24102 0.77814
 O960 O 0.75674 0.22119 0.76288
 O961 O 0.77458 0.22813 0.72960
 O962 O 0.73300 0.26783 0.76362
 C963 C 0.76255 0.21692 0.69001
 C964 C 0.81469 0.24441 0.72207
 C965 C 0.78135 0.19003 0.74772
 C966 C 0.74470 0.28002 0.80229
 C967 C 0.72452 0.30486 0.74661
 C968 C 0.69386 0.25340 0.77234
 H969 H 0.74956 0.28630 0.72182
 H970 H 0.71305 0.22536 0.75236
 H971 H 0.78381 0.21941 0.72209
 H972 H 0.77235 0.25749 0.78719
 H973 H 0.79826 0.28775 0.76632
 H974 H 0.80641 0.25851 0.77924
 H975 H 0.69426 0.23516 0.72666
 H976 H 0.72225 0.19249 0.71368
 H977 H 0.77155 0.30824 0.73214
 H978 H 0.79346 0.28653 0.71433
 H979 H 0.71338 0.21030 0.78195
 H980 H 0.73435 0.19035 0.76191
 H981 H 0.74796 0.26254 0.68607
 H982 H 0.72301 0.27936 0.70244
 H983 H 0.78138 0.21387 0.78941
 H984 H 0.75891 0.23486 0.80892
 C985 C 0.09174 1.00155 1.19122
 C986 C 0.10714 0.98798 1.19239
 C987 C 0.11749 0.98595 1.20983
 C988 C 0.11251 0.99713 1.22701
 C989 C 0.09779 1.01158 1.22532
 C990 C 0.08734 1.01354 1.20781
 C991 C 0.08074 1.00324 1.17252
 C992 C 0.07533 1.02188 1.16518
 C993 C 0.06615 1.02332 1.14687
 C994 C 0.06233 1.00617 1.13553
 C995 C 0.06722 0.98753 1.14314
 C996 C 0.07622 0.98607 1.16143
 C997 C 0.05371 1.00754 1.11560
 C998 C 0.06179 0.99655 1.09966
 C999 C 0.05325 0.99692 1.08106
 C1000 C 0.03630 1.00817 1.07797
 C1001 C 0.02846 1.01953 1.09383
 C1002 C 0.03716 1.01930 1.11245
 H1003 H 0.11157 0.97917 1.17959
 H1004 H 0.12973 0.97586 1.20948
 H1005 H 0.09427 1.02129 1.23772
 H1006 H 0.07570 1.02434 1.20734
 H1007 H 0.07876 1.03540 1.17326
 H1008 H 0.06259 1.03788 1.14129
 H1009 H 0.06406 0.97403 1.13490
 H1010 H 0.07973 0.97144 1.16687
 H1011 H 0.07473 0.98759 1.10161
 H1012 H 0.05972 0.98802 1.06920
 H1013 H 0.01546 1.02842 1.09194
 H1014 H 0.03062 1.02786 1.12452
 C1015 C 0.59335 0.49183 0.69200
 C1016 C 0.58875 0.47804 0.70733
 C1017 C 0.59916 0.47878 0.72504
 C1018 C 0.61417 0.49356 0.72803
 C1019 C 0.61946 0.50636 0.71180
 C1020 C 0.60898 0.50575 0.69434
 C1021 C 0.58240 0.49175 0.67327
 C1022 C 0.57644 0.50982 0.66512
 C1023 C 0.56773 0.51024 0.64660
 C1024 C 0.56487 0.49261 0.63576
 C1025 C 0.57041 0.47444 0.64410
 C1026 C 0.57900 0.47400 0.66275
 C1027 C 0.55652 0.49334 0.61565
 C1028 C 0.56498 0.48237 0.59987
 C1029 C 0.55733 0.48337 0.58084
 C1030 C 0.54093 0.49525 0.57722
 C1031 C 0.53255 0.50630 0.59303
 C1032 C 0.54030 0.50539 0.61200
 H1033 H 0.57698 0.46685 0.70571
 H1034 H 0.59537 0.46788 0.73657
 H1035 H 0.63201 0.51677 0.71211
 H1036 H 0.61344 0.51596 0.68239
 H1037 H 0.57878 0.52369 0.67300
 H1038 H 0.56375 0.52446 0.64051
 H1039 H 0.56816 0.46060 0.63614
 H1040 H 0.58358 0.45991 0.66866
 H1041 H 0.57768 0.47318 0.60221
 H1042 H 0.56409 0.47462 0.56904
 H1043 H 0.51990 0.51557 0.59080
 H1044 H 0.53340 0.51391 0.62391
 C1045 C 0.40726 -0.00511 0.70103
 C1046 C 0.41696 -0.00737 0.71903
 C1047 C 0.40687 -0.00404 0.73730
 C1048 C 0.38695 0.00222 0.73798
 C1049 C 0.37734 0.00396 0.71974
 C1050 C 0.38737 0.00066 0.70164
 C1051 C 0.41755 -0.00885 0.68153
 C1052 C 0.40726 -0.01854 0.66630
 C1053 C 0.41610 -0.02042 0.64732
 C1054 C 0.43547 -0.01275 0.64313
 C1055 C 0.44612 -0.00381 0.65854
 C1056 C 0.43723 -0.00186 0.67757
 C1057 C 0.44415 -0.01336 0.62254
 C1058 C 0.46410 -0.01839 0.61892
 C1059 C 0.47230 -0.01848 0.59950
 C1060 C 0.46075 -0.01338 0.58330
 C1061 C 0.44075 -0.00847 0.58696
 C1062 C 0.43254 -0.00852 0.60635
 H1063 H 0.43218 -0.01229 0.71900
 H1064 H 0.41458 -0.00707 0.75074
 H1065 H 0.36183 0.00791 0.71954
 H1066 H 0.37949 0.00268 0.68805
 H1067 H 0.39225 -0.02451 0.66902
 H1068 H 0.40771 -0.02775 0.63583
 H1069 H 0.46104 0.00235 0.65568
 H1070 H 0.44546 0.00579 0.68897
 H1071 H 0.47334 -0.02234 0.63111
 H1072 H 0.48777 -0.02231 0.59723
 H1073 H 0.43143 -0.00447 0.57485
 H1074 H 0.41717 -0.00435 0.60873
 C1075 C -0.09074 0.50757 1.19597
 C1076 C -0.08038 0.50949 1.21370
 C1077 C -0.09078 0.51046 1.23215
 C1078 C -0.11182 0.50892 1.23328
 C1079 C -0.12193 0.50875 1.21522
 C1080 C -0.11160 0.50802 1.19695
 C1081 C -0.08017 0.50456 1.17643
 C1082 C -0.08843 0.49142 1.16248
 C1083 C -0.07946 0.48929 1.14361
 C1084 C -0.06186 0.50006 1.13827
 C1085 C -0.05309 0.51263 1.15240
 C1086 C -0.06220 0.51491 1.17131
 C1087 C -0.05321 0.49865 1.11776
 C1088 C -0.03269 0.49615 1.11430
 C1089 C -0.02469 0.49492 1.09484
 C1090 C -0.03704 0.49648 1.07848
 C1091 C -0.05757 0.49894 1.08200
 C1092 C -0.06558 0.49991 1.10142
 H1093 H -0.06425 0.50963 1.21339
 H1094 H -0.08217 0.51209 1.24531
 H1095 H -0.13807 0.50827 1.21535
 H1096 H -0.12005 0.50742 1.18354
 H1097 H -0.10195 0.48277 1.16613
 H1098 H -0.08631 0.47922 1.13312
 H1099 H -0.03955 0.52118 1.14858
 H1100 H -0.05551 0.52521 1.18167
 H1101 H -0.02288 0.49501 1.12666
 H1102 H -0.00879 0.49313 1.09261
 H1103 H -0.06748 0.50018 1.06973
 H1104 H -0.08143 0.50201 1.10369
 C1105 C -0.09144 0.50535 0.30810
 C1106 C -0.08786 0.49158 0.29279
 C1107 C -0.09826 0.49248 0.27512
 C1108 C -0.11232 0.50737 0.27210
 C1109 C -0.11646 0.52036 0.28821
 C1110 C -0.10596 0.51958 0.30564
 C1111 C -0.08074 0.50475 0.32699
 C1112 C -0.07370 0.52255 0.33558
 C1113 C -0.06517 0.52241 0.35421
 C1114 C -0.06357 0.50448 0.36473
 C1115 C -0.07021 0.48660 0.35596
 C1116 C -0.07863 0.48672 0.33721
 C1117 C -0.05530 0.50455 0.38491
 C1118 C -0.06445 0.49301 0.40034
 C1119 C -0.05672 0.49320 0.41938
 C1120 C -0.03958 0.50483 0.42338
 C1121 C -0.03055 0.51651 0.40795
 C1122 C -0.03835 0.51641 0.38897
 H1123 H -0.07694 0.48020 0.29444
 H1124 H -0.09534 0.48149 0.26370
 H1125 H -0.12821 0.53097 0.28792
 H1126 H -0.10965 0.52984 0.31755
 H1127 H -0.07502 0.53665 0.32795
 H1128 H -0.06031 0.53643 0.36062
 H1129 H -0.06894 0.47252 0.36363
 H1130 H -0.08406 0.47282 0.33100
 H1131 H -0.07769 0.48395 0.39771
 H1132 H -0.06402 0.48398 0.43087
 H1133 H -0.01732 0.52563 0.41048
 H1134 H -0.03091 0.52536 0.37735
 C1135 C 0.40739 1.00858 -0.18751
 C1136 C 0.39013 0.99640 -0.18841
 C1137 C 0.37967 0.99493 -0.20587
 C1138 C 0.38640 1.00514 -0.22337
 C1139 C 0.40301 1.01840 -0.22197
 C1140 C 0.41356 1.01986 -0.20439
 C1141 C 0.41844 1.00958 -0.16876
 C1142 C 0.42605 1.02780 -0.16154
 C1143 C 0.43507 1.02868 -0.14308
 C1144 C 0.43658 1.01138 -0.13148
 C1145 C 0.42954 0.99311 -0.13901
 C1146 C 0.42065 0.99221 -0.15743
 C1147 C 0.44505 1.01225 -0.11141
 C1148 C 0.43575 1.00149 -0.09552
 C1149 C 0.44396 1.00160 -0.07673
 C1150 C 0.46177 1.01241 -0.07339
 C1151 C 0.47091 1.02346 -0.08923
 C1152 C 0.46259 1.02345 -0.10802
 H1153 H 0.38441 0.98826 -0.17540
 H1154 H 0.36603 0.98595 -0.20536
 H1155 H 0.40792 1.02754 -0.23461
 H1156 H 0.42662 1.02967 -0.20407
 H1157 H 0.42443 1.04146 -0.16984
 H1158 H 0.44029 1.04298 -0.13760
 H1159 H 0.43091 0.97947 -0.13061
 H1160 H 0.41538 0.97787 -0.16277
 H1161 H 0.42204 0.99297 -0.09762
 H1162 H 0.43648 0.99296 -0.06491
 H1163 H 0.48461 1.03201 -0.08717
 H1164 H 0.47012 1.03181 -0.12002
 C1165 C 0.59104 0.49880 -0.19654
 C1166 C 0.61172 0.49665 -0.19686
 C1167 C 0.62243 0.49489 -0.21485
 C1168 C 0.61286 0.49509 -0.23322
 C1169 C 0.59209 0.49802 -0.23278
 C1170 C 0.58128 0.49946 -0.21462
 C1171 C 0.57993 0.50036 -0.17722
 C1172 C 0.56304 0.48810 -0.17287
 C1173 C 0.55381 0.48825 -0.15386
 C1174 C 0.56118 0.50083 -0.13893
 C1175 C 0.57762 0.51365 -0.14365
 C1176 C 0.58696 0.51332 -0.16253
 C1177 C 0.55215 0.50032 -0.11837
 C1178 C 0.56425 0.50263 -0.10184
 C1179 C 0.55587 0.50254 -0.08252
 C1180 C 0.53519 0.49989 -0.07922
 C1181 C 0.52308 0.49721 -0.09568
 C1182 C 0.53145 0.49753 -0.11504
 H1183 H 0.61960 0.49608 -0.18311
 H1184 H 0.63841 0.49320 -0.21449
 H1185 H 0.58404 0.49963 -0.24626
 H1186 H 0.56535 0.50155 -0.21469
 H1187 H 0.55747 0.47787 -0.18393
 H1188 H 0.54131 0.47804 -0.15070
 H1189 H 0.58337 0.52392 -0.13272
 H1190 H 0.59981 0.52311 -0.16565
 H1191 H 0.58029 0.50433 -0.10379
 H1192 H 0.56564 0.50442 -0.07015
 H1193 H 0.50707 0.49527 -0.09363
 H1194 H 0.52166 0.49595 -0.12741
 C1195 C 0.08953 -0.01047 0.30230
 C1196 C 0.11019 -0.00665 0.30194
 C1197 C 0.12100 -0.00467 0.28393
 C1198 C 0.11150 -0.00580 0.26556
 C1199 C 0.09083 -0.01044 0.26601
 C1200 C 0.07998 -0.01247 0.28414
 C1201 C 0.07817 -0.01224 0.32165
 C1202 C 0.05943 -0.00360 0.32434
 C1203 C 0.04959 -0.00385 0.34306
 C1204 C 0.05832 -0.01267 0.35946
 C1205 C 0.07669 -0.02192 0.35659
 C1206 C 0.08646 -0.02176 0.33790
 C1207 C 0.04885 -0.01148 0.37969
 C1208 C 0.06047 -0.00645 0.39599
 C1209 C 0.05172 -0.00497 0.41506
 C1210 C 0.03113 -0.00862 0.41834
 C1211 C 0.01950 -0.01376 0.40203
 C1212 C 0.02826 -0.01506 0.38287
 H1213 H 0.11805 -0.00494 0.31564
 H1214 H 0.13696 -0.00195 0.28429
 H1215 H 0.08294 -0.01303 0.25250
 H1216 H 0.06415 -0.01601 0.28394
 H1217 H 0.05273 0.00400 0.31216
 H1218 H 0.03550 0.00350 0.34489
 H1219 H 0.08358 -0.02917 0.36888
 H1220 H 0.10064 -0.02897 0.33622
 H1221 H 0.07633 -0.00334 0.39393
 H1222 H 0.06115 -0.00101 0.42726
 H1223 H 0.00360 -0.01664 0.40403
 H1224 H 0.01899 -0.01908 0.37058
 C1225 C 0.19319 1.09405 1.00095
 C1226 C 0.21102 1.08363 0.99907
 C1227 C 0.22952 1.09388 0.99848
 C1228 C 0.23063 1.11481 1.00038
 C1229 C 0.21256 1.12508 1.00106
 C1230 C 0.19423 1.11491 1.00142
 C1231 C 0.17346 1.08347 1.00246
 C1232 C 0.15817 1.09087 1.01501
 C1233 C 0.13921 1.08182 1.01568
 C1234 C 0.13516 1.06499 1.00404
 C1235 C 0.15052 1.05714 0.99196
 C1236 C 0.16949 1.06635 0.99110
 C1237 C 0.11482 1.05592 1.00432
 C1238 C 0.11187 1.03525 1.00644
 C1239 C 0.09262 1.02676 1.00687
 C1240 C 0.07599 1.03876 1.00488
 C1241 C 0.07899 1.05945 1.00266
 C1242 C 0.09822 1.06795 1.00252
 H1243 H 0.21071 1.06753 0.99835
 H1244 H 0.24273 1.08522 0.99649
 H1245 H 0.21270 1.14120 1.00178
 H1246 H 0.18081 1.12348 1.00207
 H1247 H 0.16085 1.10371 1.02435
 H1248 H 0.12769 1.08792 1.02538
 H1249 H 0.14768 1.04422 0.98276
 H1250 H 0.18086 1.06040 0.98115
 H1251 H 0.12445 1.02571 1.00800
 H1252 H 0.09080 1.01076 1.00849
 H1253 H 0.06647 1.06907 1.00113
 H1254 H 0.10016 1.08393 1.00072
 C1255 C 0.69677 0.58905 0.49872
 C1256 C 0.69684 0.60989 0.49995
 C1257 C 0.71472 0.62093 0.49932
 C1258 C 0.73325 0.61154 0.49768
 C1259 C 0.73301 0.59070 0.49480
 C1260 C 0.71502 0.57960 0.49565
 C1261 C 0.67763 0.57741 0.50080
 C1262 C 0.67402 0.56041 0.48915
 C1263 C 0.65557 0.55015 0.49065
 C1264 C 0.64038 0.55683 0.50369
 C1265 C 0.64413 0.57349 0.51566
 C1266 C 0.66258 0.58359 0.51433
 C1267 C 0.62034 0.54704 0.50425
 C1268 C 0.60334 0.55863 0.50328
 C1269 C 0.58437 0.54958 0.50333
 C1270 C 0.58198 0.52876 0.50461
 C1271 C 0.59899 0.51716 0.50591
 C1272 C 0.61803 0.52623 0.50556
 H1273 H 0.68302 0.61775 0.50150
 H1274 H 0.71417 0.63697 0.50072
 H1275 H 0.74655 0.58276 0.49191
 H1276 H 0.71546 0.56356 0.49427
 H1277 H 0.68521 0.55536 0.47846
 H1278 H 0.65294 0.53741 0.48115
 H1279 H 0.63275 0.57872 0.52605
 H1280 H 0.66503 0.59629 0.52392
 H1281 H 0.60476 0.57470 0.50209
 H1282 H 0.57155 0.55892 0.50238
 H1283 H 0.59760 0.50108 0.50683
 H1284 H 0.63094 0.51702 0.50644
 C1285 C 0.68901 0.40834 -0.00480
 C1286 C 0.68924 0.38743 -0.00461
 C1287 C 0.70715 0.37753 -0.00400
 C1288 C 0.72566 0.38805 -0.00375
 C1289 C 0.72544 0.40904 -0.00500
 C1290 C 0.70739 0.41901 -0.00512
 C1291 C 0.66963 0.41876 -0.00473
 C1292 C 0.66786 0.43715 -0.01450
 C1293 C 0.64956 0.44666 -0.01447
 C1294 C 0.63242 0.43787 -0.00499
 C1295 C 0.63422 0.41942 0.00463
 C1296 C 0.65255 0.41018 0.00500
 C1297 C 0.61277 0.44779 -0.00499
 C1298 C 0.59895 0.44518 0.01115
 C1299 C 0.58030 0.45383 0.01099
 C1300 C 0.57513 0.46578 -0.00504
 C1301 C 0.58896 0.46885 -0.02101
 C1302 C 0.60748 0.45977 -0.02111
 H1303 H 0.67557 0.37856 -0.00516
 H1304 H 0.70663 0.36140 -0.00375
 H1305 H 0.73904 0.41800 -0.00616
 H1306 H 0.70791 0.43512 -0.00534
 H1307 H 0.68054 0.44417 -0.02240
 H1308 H 0.64896 0.46098 -0.02178
 H1309 H 0.62140 0.41187 0.01177
 H1310 H 0.65325 0.39628 0.01307
 H1311 H 0.60255 0.43663 0.02413
 H1312 H 0.57004 0.45150 0.02366
 H1313 H 0.58528 0.47796 -0.03360
 H1314 H 0.61747 0.46190 -0.03398
 C1315 C 0.18705 -0.09236 0.49660
 C1316 C 0.18662 -0.11233 0.50269
 C1317 C 0.20416 -0.12281 0.50339
 C1318 C 0.22288 -0.11353 0.49869
 C1319 C 0.22313 -0.09370 0.49163
 C1320 C 0.20544 -0.08320 0.49079
 C1321 C 0.16814 -0.08153 0.49601
 C1322 C 0.16380 -0.06975 0.47951
 C1323 C 0.14521 -0.06096 0.47843
 C1324 C 0.13066 -0.06372 0.49388
 C1325 C 0.13532 -0.07497 0.51064
 C1326 C 0.15381 -0.08378 0.51168
 C1327 C 0.11056 -0.05523 0.49252
 C1328 C 0.09350 -0.06625 0.49931
 C1329 C 0.07464 -0.05810 0.49886
 C1330 C 0.07231 -0.03872 0.49153
 C1331 C 0.08932 -0.02786 0.48428
 C1332 C 0.10822 -0.03602 0.48478
 H1333 H 0.17261 -0.12002 0.50658
 H1334 H 0.20310 -0.13836 0.50770
 H1335 H 0.23687 -0.08632 0.48640
 H1336 H 0.20613 -0.06789 0.48565
 H1337 H 0.17451 -0.06792 0.46715
 H1338 H 0.14203 -0.05249 0.46526
 H1339 H 0.12465 -0.07697 0.52301
 H1340 H 0.15689 -0.09247 0.52474
 H1341 H 0.09474 -0.08125 0.50498
 H1342 H 0.06188 -0.06696 0.50441
 H1343 H 0.08810 -0.01287 0.47856
 H1344 H 0.12107 -0.02710 0.47958
 C1345 C 0.29981 -0.09604 0.50399
 C1346 C 0.28288 -0.08870 0.51405
 C1347 C 0.26412 -0.09792 0.51182
 C1348 C 0.26163 -0.11426 0.49886
 C1349 C 0.27891 -0.12161 0.48909
 C1350 C 0.29757 -0.11250 0.49141
 C1351 C 0.31996 -0.08717 0.50699
 C1352 C 0.33618 -0.09956 0.50955
 C1353 C 0.35542 -0.09143 0.51119
 C1354 C 0.35892 -0.07072 0.51025
 C1355 C 0.34259 -0.05828 0.50824
 C1356 C 0.32329 -0.06644 0.50669
 C1357 C 0.37959 -0.06223 0.51072
 C1358 C 0.38373 -0.04447 0.52098
 C1359 C 0.40311 -0.03626 0.52089
 C1360 C 0.41883 -0.04564 0.51054
 C1361 C 0.41471 -0.06355 0.50051
 C1362 C 0.39534 -0.07171 0.50056
 H1363 H 0.28428 -0.07629 0.52421
 H1364 H 0.25159 -0.09255 0.52063
 H1365 H 0.27825 -0.13491 0.48007
 H1366 H 0.31037 -0.11854 0.48351
 H1367 H 0.33398 -0.11559 0.51026
 H1368 H 0.36758 -0.10140 0.51319
 H1369 H 0.34481 -0.04227 0.50725
 H1370 H 0.31106 -0.05657 0.50461
 H1371 H 0.37198 -0.03695 0.52918
 H1372 H 0.40574 -0.02249 0.52886
 H1373 H 0.42640 -0.07112 0.49229
 H1374 H 0.39261 -0.08525 0.49225
 C1375 C -0.19848 0.41006 1.00047
 C1376 C -0.20110 0.39621 0.98514
 C1377 C -0.21913 0.38568 0.98336
 C1378 C -0.23554 0.38881 0.99669
 C1379 C -0.23250 0.40222 1.01256
 C1380 C -0.21439 0.41288 1.01426
 C1381 C -0.17889 0.42082 1.00221
 C1382 C -0.17068 0.42434 1.02090
 C1383 C -0.15152 0.43298 1.02222
 C1384 C -0.14013 0.43807 1.00490
 C1385 C -0.14855 0.43512 0.98630
 C1386 C -0.16772 0.42673 0.98497
 C1387 C -0.11934 0.44597 1.00600
 C1388 C -0.10423 0.43823 0.99352
 C1389 C -0.08475 0.44609 0.99380
 C1390 C -0.07996 0.46207 1.00641
 C1391 C -0.09503 0.46960 1.01916
 C1392 C -0.11450 0.46152 1.01906
 H1393 H -0.18891 0.39296 0.97476
 H1394 H -0.21966 0.37455 0.97181
 H1395 H -0.24426 0.40438 1.02374
 H1396 H -0.21286 0.42333 1.02638
 H1397 H -0.17876 0.41980 1.03447
 H1398 H -0.14533 0.43505 1.03675
 H1399 H -0.14025 0.43929 0.97273
 H1400 H -0.17374 0.42473 0.97036
 H1401 H -0.10752 0.42608 0.98348
 H1402 H -0.07355 0.43996 0.98377
 H1403 H -0.09182 0.48185 1.02910
 H1404 H -0.12589 0.46778 1.02879
 C1405 C -0.19151 0.59258 0.49854
 C1406 C -0.20709 0.58807 0.51245
 C1407 C -0.22497 0.59824 0.51207
 C1408 C -0.22807 0.61280 0.49738
 C1409 C -0.21196 0.61757 0.48388
 C1410 C -0.19418 0.60743 0.48428
 C1411 C -0.17223 0.58238 0.49913
 C1412 C -0.15420 0.59328 0.49604
 C1413 C -0.13601 0.58376 0.49602
 C1414 C -0.13539 0.56310 0.49915
 C1415 C -0.15341 0.55218 0.50238
 C1416 C -0.17166 0.56173 0.50242
 C1417 C -0.11594 0.55314 0.49909
 C1418 C -0.11350 0.53459 0.48979
 C1419 C -0.09499 0.52553 0.48939
 C1420 C -0.07853 0.53484 0.49829
 C1421 C -0.08107 0.55334 0.50767
 C1422 C -0.09954 0.56235 0.50808
 H1423 H -0.20528 0.57703 0.52396
 H1424 H -0.23647 0.59478 0.52336
 H1425 H -0.21259 0.62951 0.47316
 H1426 H -0.18241 0.61133 0.47340
 H1427 H -0.15412 0.60924 0.49374
 H1428 H -0.12242 0.59257 0.49328
 H1429 H -0.15339 0.53627 0.50505
 H1430 H -0.18533 0.55293 0.50471
 H1431 H -0.12582 0.52725 0.48254
 H1432 H -0.09356 0.51129 0.48203
 H1433 H -0.06880 0.56089 0.51480
 H1434 H -0.10101 0.57648 0.51563
 C1435 C 0.30601 1.09500 0.00347
 C1436 C 0.30355 1.10896 -0.01167
 C1437 C 0.28574 1.11885 -0.01307
 C1438 C 0.26938 1.11474 0.00034
 C1439 C 0.27211 1.10075 0.01567
 C1440 C 0.29005 1.09080 0.01704
 C1441 C 0.32555 1.08558 0.00536
 C1442 C 0.32675 1.06508 0.00912
 C1443 C 0.34533 1.05622 0.00972
 C1444 C 0.36303 1.06774 0.00672
 C1445 C 0.36176 1.08831 0.00341
 C1446 C 0.34325 1.09712 0.00277
 C1447 C 0.38281 1.05843 0.00652
 C1448 C 0.39905 1.06813 0.01535
 C1449 C 0.41792 1.05992 0.01430
 C1450 C 0.42101 1.04179 0.00441
 C1451 C 0.40468 1.03194 -0.00420
 C1452 C 0.38579 1.04018 -0.00315
 H1453 H 0.31561 1.11251 -0.02236
 H1454 H 0.28540 1.13030 -0.02435
 H1455 H 0.26037 1.09781 0.02687
 H1456 H 0.29168 1.08036 0.02913
 H1457 H 0.31333 1.05584 0.01111
 H1458 H 0.34587 1.04037 0.01251
 H1459 H 0.37509 1.09756 0.00085
 H1460 H 0.34279 1.11301 0.00015
 H1461 H 0.39715 1.08207 0.02315
 H1462 H 0.43009 1.06785 0.02125
 H1463 H 0.40651 1.01794 -0.01193
 H1464 H 0.37362 1.03248 -0.01032
 C1465 C 0.00290 1.19867 1.08818
 C1466 C -0.01462 1.20619 1.09702
 C1467 C -0.01402 1.22370 1.10819
 C1468 C 0.00426 1.23391 1.11138
 C1469 C 0.02121 1.22773 1.10025
 C1470 C 0.02069 1.21009 1.08930
 C1471 C 0.00280 1.17863 1.07872
 C1472 C 0.01542 1.17463 1.06213
 C1473 C 0.01620 1.15543 1.05420
 C1474 C 0.00423 1.13976 1.06251
 C1475 C -0.00867 1.14387 1.07884
 C1476 C -0.00929 1.16300 1.08690
 C1477 C 0.00509 1.11926 1.05418
 C1478 C 0.00295 1.10246 1.06673
 C1479 C 0.00294 1.08322 1.05882
 C1480 C 0.00534 1.08031 1.03820
 C1481 C 0.00799 1.09706 1.02569
 C1482 C 0.00775 1.11629 1.03357
 H1483 H -0.02883 1.19840 1.09549
 H1484 H -0.02792 1.22898 1.11452
 H1485 H 0.03526 1.23598 1.10102
 H1486 H 0.03446 1.20503 1.08244
 H1487 H 0.02476 1.18633 1.05527
 H1488 H 0.02646 1.15281 1.04174
 H1489 H -0.01838 1.13230 1.08542
 H1490 H -0.01897 1.16540 1.09986
 H1491 H 0.00131 1.10416 1.08271
 H1492 H 0.00103 1.07063 1.06887
 H1493 H 0.00969 1.09534 1.00970
 H1494 H 0.00913 1.12882 1.02341
 C1495 C 0.50915 0.68488 0.59330
 C1496 C 0.51128 0.70318 0.58312
 C1497 C 0.50928 0.72122 0.59335
 C1498 C 0.50469 0.72141 0.61402
 C1499 C 0.50283 0.70292 0.62404
 C1500 C 0.50476 0.68502 0.61385
 C1501 C 0.51167 0.66561 0.58277
 C1502 C 0.52127 0.64990 0.59198
 C1503 C 0.52243 0.63129 0.58287
 C1504 C 0.51415 0.62796 0.56426
 C1505 C 0.50515 0.64383 0.55469
 C1506 C 0.50390 0.66246 0.56387
 C1507 C 0.51424 0.60780 0.55526
 C1508 C 0.51861 0.60530 0.53484
 C1509 C 0.51805 0.58630 0.52635
 C1510 C 0.51291 0.56940 0.53808
 C1511 C 0.50879 0.57192 0.55856
 C1512 C 0.50950 0.59089 0.56705
 H1513 H 0.51510 0.70356 0.56733
 H1514 H 0.51203 0.73488 0.58505
 H1515 H 0.49992 0.70238 0.63999
 H1516 H 0.50278 0.67122 0.62215
 H1517 H 0.52785 0.65197 0.60633
 H1518 H 0.52979 0.61946 0.59042
 H1519 H 0.49849 0.64163 0.54040
 H1520 H 0.49627 0.67420 0.55646
 H1521 H 0.52249 0.61805 0.52544
 H1522 H 0.52130 0.58492 0.51052
 H1523 H 0.50481 0.55925 0.56803
 H1524 H 0.50587 0.59237 0.58280
 C1525 C -0.00262 0.69227 0.40941
 C1526 C -0.00341 0.69215 0.38863
 C1527 C -0.00393 0.70993 0.37802
 C1528 C -0.00389 0.72855 0.38781
 C1529 C -0.00226 0.72854 0.40872
 C1530 C -0.00201 0.71060 0.41938
 C1531 C -0.00241 0.67316 0.42042
 C1532 C -0.01537 0.66952 0.43698
 C1533 C -0.01637 0.65076 0.44615
 C1534 C -0.00429 0.63535 0.43901
 C1535 C 0.00921 0.63936 0.42290
 C1536 C 0.01006 0.65799 0.41367
 C1537 C -0.00592 0.61505 0.44793
 C1538 C -0.00420 0.59816 0.43573
 C1539 C -0.00476 0.57907 0.44400
 C1540 C -0.00725 0.57635 0.46467
 C1541 C -0.00963 0.59316 0.47687
 C1542 C -0.00890 0.61232 0.46859
 H1543 H -0.00392 0.67822 0.38055
 H1544 H -0.00465 0.70922 0.36197
 H1545 H -0.00084 0.74220 0.41704
 H1546 H -0.00093 0.71104 0.43541
 H1547 H -0.02524 0.68095 0.44237
 H1548 H -0.02703 0.64814 0.45842
 H1549 H 0.01912 0.62804 0.41736
 H1550 H 0.02042 0.66054 0.40112
 H1551 H -0.00242 0.59967 0.41972
 H1552 H -0.00314 0.56643 0.43415
 H1553 H -0.01149 0.59156 0.49287
 H1554 H -0.01013 0.62501 0.47842
 C1555 C 0.50119 1.19978 -0.09030
 C1556 C 0.50117 1.19959 -0.11116
 C1557 C 0.50161 1.21732 -0.12192
 C1558 C 0.50182 1.23597 -0.11225
 C1559 C 0.50360 1.23606 -0.09137
 C1560 C 0.50296 1.21819 -0.08053
 C1561 C 0.49910 1.18072 -0.07903
 C1562 C 0.51004 1.17746 -0.06194
 C1563 C 0.50864 1.15903 -0.05213
 C1564 C 0.49641 1.14352 -0.05933
 C1565 C 0.48508 1.14698 -0.07604
 C1566 C 0.48632 1.16538 -0.08570
 C1567 C 0.49601 1.12350 -0.05006
 C1568 C 0.49774 1.10653 -0.06209
 C1569 C 0.49762 1.08757 -0.05357
 C1570 C 0.49555 1.08513 -0.03282
 C1571 C 0.49360 1.10211 -0.02077
 C1572 C 0.49399 1.12115 -0.02931
 H1573 H 0.50065 1.18566 -0.11924
 H1574 H 0.50111 1.21654 -0.13799
 H1575 H 0.50542 1.24976 -0.08318
 H1576 H 0.50343 1.21883 -0.06447
 H1577 H 0.52011 1.18891 -0.05650
 H1578 H 0.51762 1.15666 -0.03933
 H1579 H 0.47527 1.13537 -0.08166
 H1580 H 0.47727 1.16757 -0.09848
 H1581 H 0.49951 1.10796 -0.07811
 H1582 H 0.49909 1.07480 -0.06327
 H1583 H 0.49207 1.10070 -0.00473
 H1584 H 0.49253 1.13402 -0.01975
 C1585 C 0.49718 0.31155 -0.09282
 C1586 C 0.51188 0.30907 -0.10786
 C1587 C 0.51329 0.29113 -0.11806
 C1588 C 0.50042 0.27463 -0.11317
 C1589 C 0.48519 0.27755 -0.09846
 C1590 C 0.48382 0.29561 -0.08818
 C1591 C 0.49569 0.33103 -0.08258
 C1592 C 0.49272 0.33210 -0.06181
 C1593 C 0.49268 0.35060 -0.05223
 C1594 C 0.49546 0.36835 -0.06327
 C1595 C 0.49803 0.36720 -0.08406
 C1596 C 0.49809 0.34879 -0.09359
 C1597 C 0.49592 0.38807 -0.05332
 C1598 C 0.48685 0.40436 -0.06202
 C1599 C 0.48808 0.42319 -0.05338
 C1600 C 0.49836 0.42625 -0.03573
 C1601 C 0.50718 0.40988 -0.02681
 C1602 C 0.50597 0.39099 -0.03553
 H1603 H 0.52234 0.32112 -0.11188
 H1604 H 0.52429 0.29070 -0.13017
 H1605 H 0.47428 0.26575 -0.09497
 H1606 H 0.47200 0.29728 -0.07695
 H1607 H 0.49093 0.31863 -0.05295
 H1608 H 0.49044 0.35103 -0.03620
 H1609 H 0.50042 0.38056 -0.09299
 H1610 H 0.50014 0.34845 -0.10964
 H1611 H 0.47870 0.40254 -0.07553
 H1612 H 0.48090 0.43536 -0.06056
 H1613 H 0.51517 0.41170 -0.01320
 H1614 H 0.51330 0.37877 -0.02859
 C1615 C -0.00616 -0.19626 0.40835
 C1616 C 0.00907 -0.19923 0.39397
 C1617 C 0.00991 -0.21697 0.38333
 C1618 C -0.00411 -0.23279 0.38718
 C1619 C -0.01986 -0.22930 0.40116
 C1620 C -0.02080 -0.21136 0.41170
 C1621 C -0.00680 -0.17712 0.41927
 C1622 C -0.02462 -0.16677 0.42151
 C1623 C -0.02469 -0.14793 0.43038
 C1624 C -0.00699 -0.13920 0.43736
 C1625 C 0.01070 -0.14982 0.43557
 C1626 C 0.01080 -0.16854 0.42659
 C1627 C -0.00675 -0.11892 0.44609
 C1628 C 0.00414 -0.11477 0.46311
 C1629 C 0.00491 -0.09556 0.47101
 C1630 C -0.00510 -0.07999 0.46201
 C1631 C -0.01603 -0.08417 0.44499
 C1632 C -0.01689 -0.10345 0.43715
 H1633 H 0.02010 -0.18752 0.39052
 H1634 H 0.02141 -0.21775 0.37173
 H1635 H -0.03149 -0.24059 0.40394
 H1636 H -0.03289 -0.20934 0.42255
 H1637 H -0.03835 -0.17298 0.41587
 H1638 H -0.03858 -0.14015 0.43175
 H1639 H 0.02459 -0.14343 0.44066
 H1640 H 0.02471 -0.17627 0.42520
 H1641 H 0.01195 -0.12644 0.47042
 H1642 H 0.01343 -0.09292 0.48416
 H1643 H -0.02397 -0.07257 0.43771
 H1644 H -0.02520 -0.10617 0.42388
 C1645 C 0.49906 -0.20272 0.59460
 C1646 C 0.51434 -0.20524 0.60800
 C1647 C 0.51629 -0.22323 0.61796
 C1648 C 0.50374 -0.23994 0.61411
 C1649 C 0.48851 -0.23737 0.60046
 C1650 C 0.48622 -0.21909 0.59085
 C1651 C 0.49631 -0.18285 0.58526
 C1652 C 0.48925 -0.18114 0.56590
 C1653 C 0.48727 -0.16239 0.55713
 C1654 C 0.49264 -0.14486 0.56736
 C1655 C 0.49953 -0.14664 0.58676
 C1656 C 0.50104 -0.16528 0.59566
 C1657 C 0.49160 -0.12482 0.55781
 C1658 C 0.48792 -0.10777 0.56941
 C1659 C 0.48846 -0.08883 0.56074
 C1660 C 0.49206 -0.08651 0.54019
 C1661 C 0.49497 -0.10346 0.52839
 C1662 C 0.49500 -0.12238 0.53712
 H1663 H 0.52477 -0.19316 0.61114
 H1664 H 0.52738 -0.22354 0.62917
 H1665 H 0.47799 -0.24947 0.59764
 H1666 H 0.47397 -0.21767 0.58098
 H1667 H 0.48556 -0.19427 0.55733
 H1668 H 0.48154 -0.16170 0.54232
 H1669 H 0.50417 -0.13366 0.59510
 H1670 H 0.50598 -0.16583 0.61079
 H1671 H 0.48461 -0.10896 0.58525
 H1672 H 0.48585 -0.07597 0.57009
 H1673 H 0.49789 -0.10199 0.51249
 H1674 H 0.49825 -0.13498 0.52768
 C1675 C 0.00687 0.30447 1.08613
 C1676 C 0.02482 0.29758 1.09335
 C1677 C 0.02495 0.28046 1.10523
 C1678 C 0.00700 0.27007 1.11075
 C1679 C -0.01045 0.27567 1.10135
 C1680 C -0.01065 0.29288 1.08970
 C1681 C 0.00619 0.32412 1.07587
 C1682 C -0.00721 0.32725 1.06065
 C1683 C -0.00904 0.34619 1.05234
 C1684 C 0.00263 0.36245 1.05889
 C1685 C 0.01647 0.35917 1.07366
 C1686 C 0.01814 0.34030 1.08212
 C1687 C 0.00025 0.38280 1.05058
 C1688 C 0.00206 0.39969 1.06281
 C1689 C 0.00038 0.41883 1.05495
 C1690 C -0.00344 0.42155 1.03474
 C1691 C -0.00572 0.40468 1.02259
 C1692 C -0.00378 0.38555 1.03039
 H1693 H 0.03879 0.30554 1.08998
 H1694 H 0.03915 0.27561 1.11019
 H1695 H -0.02432 0.26728 1.10400
 H1696 H -0.02475 0.29748 1.08422
 H1697 H -0.01645 0.31510 1.05523
 H1698 H -0.01996 0.34815 1.04110
 H1699 H 0.02600 0.37122 1.07880
 H1700 H 0.02844 0.33857 1.09397
 H1701 H 0.00469 0.39816 1.07852
 H1702 H 0.00205 0.43150 1.06475
 H1703 H -0.00847 0.40628 1.00690
 H1704 H -0.00501 0.37294 1.02046
 C1705 C 0.74991 0.34149 0.05150
 C1706 C 0.73479 0.35527 0.04964
 C1707 C 0.73266 0.36567 0.03191
 C1708 C 0.74541 0.36249 0.01504
 C1709 C 0.76090 0.34893 0.01721
 C1710 C 0.76297 0.33842 0.03504
 C1711 C 0.75233 0.33121 0.07093
 C1712 C 0.77136 0.32797 0.07823
 C1713 C 0.77342 0.31989 0.09728
 C1714 C 0.75650 0.31507 0.10948
 C1715 C 0.73753 0.31773 0.10196
 C1716 C 0.73547 0.32557 0.08292
 C1717 C 0.75843 0.30768 0.13015
 C1718 C 0.74666 0.31555 0.14577
 C1719 C 0.74758 0.30804 0.16511
 C1720 C 0.76014 0.29229 0.16928
 C1721 C 0.77228 0.28471 0.15371
 C1722 C 0.77154 0.29243 0.13437
 H1723 H 0.72495 0.35868 0.06222
 H1724 H 0.72142 0.37684 0.03203
 H1725 H 0.77166 0.34669 0.00508
 H1726 H 0.77489 0.32799 0.03595
 H1727 H 0.78467 0.33233 0.06953
 H1728 H 0.78823 0.31804 0.10273
 H1729 H 0.72423 0.31375 0.11088
 H1730 H 0.72059 0.32737 0.07763
 H1731 H 0.73663 0.32750 0.14299
 H1732 H 0.73799 0.31424 0.17669
 H1733 H 0.78215 0.27260 0.15639
 H1734 H 0.78074 0.28606 0.12259
 C1735 C 0.24655 0.83993 0.55409
 C1736 C 0.23535 0.85720 0.55364
 C1737 C 0.23346 0.86768 0.53595
 C1738 C 0.24219 0.86092 0.51784
 C1739 C 0.25429 0.84410 0.51864
 C1740 C 0.25620 0.83357 0.53644
 C1741 C 0.24852 0.82917 0.57321
 C1742 C 0.26697 0.82195 0.57875
 C1743 C 0.26897 0.81339 0.59756
 C1744 C 0.25258 0.81199 0.61116
 C1745 C 0.23401 0.81855 0.60531
 C1746 C 0.23199 0.82699 0.58656
 C1747 C 0.25473 0.80424 0.63161
 C1748 C 0.24575 0.81408 0.64786
 C1749 C 0.24665 0.80638 0.66708
 C1750 C 0.25650 0.78857 0.67053
 C1751 C 0.26602 0.77903 0.65432
 C1752 C 0.26520 0.78684 0.63505
 H1753 H 0.22847 0.86301 0.56716
 H1754 H 0.22548 0.88142 0.53668
 H1755 H 0.26242 0.83913 0.50545
 H1756 H 0.26522 0.82047 0.53638
 H1757 H 0.28001 0.82358 0.56885
 H1758 H 0.28347 0.80849 0.60174
 H1759 H 0.22102 0.81724 0.61533
 H1760 H 0.21748 0.83200 0.58255
 H1761 H 0.23789 0.82772 0.64568
 H1762 H 0.23923 0.81421 0.67917
 H1763 H 0.27377 0.76531 0.65644
 H1764 H 0.27222 0.77896 0.62276
 C1765 C 0.75783 0.65507 0.55573
 C1766 C 0.74301 0.64030 0.55318
 C1767 C 0.74098 0.63092 0.53490
 C1768 C 0.75335 0.63638 0.51815
 C1769 C 0.76866 0.65088 0.52106
 C1770 C 0.77064 0.66035 0.53947
 C1771 C 0.75988 0.66452 0.57552
 C1772 C 0.76271 0.68524 0.57728
 C1773 C 0.76280 0.69417 0.59608
 C1774 C 0.76017 0.68253 0.61347
 C1775 C 0.75802 0.66176 0.61165
 C1776 C 0.75790 0.65287 0.59292
 C1777 C 0.75891 0.69196 0.63344
 C1778 C 0.76765 0.68311 0.64983
 C1779 C 0.76568 0.69149 0.66879
 C1780 C 0.75494 0.70896 0.67182
 C1781 C 0.74634 0.71790 0.65538
 C1782 C 0.74830 0.70950 0.63643
 H1783 H 0.73293 0.63585 0.56545
 H1784 H 0.72995 0.61893 0.53440
 H1785 H 0.77921 0.65477 0.50901
 H1786 H 0.78251 0.67141 0.54114
 H1787 H 0.76421 0.69458 0.56413
 H1788 H 0.76477 0.71019 0.59701
 H1789 H 0.75580 0.65238 0.62471
 H1790 H 0.75600 0.63683 0.59203
 H1791 H 0.77612 0.66973 0.64798
 H1792 H 0.77264 0.68429 0.68106
 H1793 H 0.73796 0.73136 0.65714
 H1794 H 0.74113 0.71651 0.62418
 C1795 C 0.25482 0.16201 0.05555
 C1796 C 0.23965 0.14746 0.05381
 C1797 C 0.23822 0.13623 0.03655
 C1798 C 0.25153 0.13970 0.02000
 C1799 C 0.26750 0.15357 0.02242
 C1800 C 0.26903 0.16471 0.03989
 C1801 C 0.25578 0.17388 0.07399
 C1802 C 0.27370 0.17621 0.08396
 C1803 C 0.27395 0.18567 0.10246
 C1804 C 0.25632 0.19311 0.11116
 C1805 C 0.23860 0.19143 0.10078
 C1806 C 0.23832 0.18187 0.08241
 C1807 C 0.25606 0.20167 0.13143
 C1808 C 0.24531 0.21885 0.13578
 C1809 C 0.24409 0.22622 0.15517
 C1810 C 0.25350 0.21650 0.17065
 C1811 C 0.26443 0.19942 0.16621
 C1812 C 0.26573 0.19212 0.14679
 H1813 H 0.22903 0.14448 0.06606
 H1814 H 0.22675 0.12462 0.03659
 H1815 H 0.27867 0.15597 0.01055
 H1816 H 0.28112 0.17563 0.04104
 H1817 H 0.28732 0.17008 0.07779
 H1818 H 0.28785 0.18695 0.11010
 H1819 H 0.22477 0.19688 0.10720
 H1820 H 0.22436 0.18039 0.07490
 H1821 H 0.23785 0.22657 0.12416
 H1822 H 0.23562 0.23946 0.15804
 H1823 H 0.27193 0.19162 0.17775
 H1824 H 0.27390 0.17870 0.14388
 C1825 C 0.24756 0.16225 0.94576
 C1826 C 0.24832 0.14144 0.94537
 C1827 C 0.24925 0.13067 0.96300
 C1828 C 0.24969 0.14035 0.98163
 C1829 C 0.24792 0.16128 0.98188
 C1830 C 0.24727 0.17209 0.96413
 C1831 C 0.24722 0.17351 0.92690
 C1832 C 0.26046 0.18978 0.92326
 C1833 C 0.26137 0.19922 0.90468
 C1834 C 0.24891 0.19266 0.88951
 C1835 C 0.23511 0.17688 0.89353
 C1836 C 0.23436 0.16733 0.91198
 C1837 C 0.25067 0.20171 0.86934
 C1838 C 0.24884 0.18966 0.85240
 C1839 C 0.25013 0.19801 0.83339
 C1840 C 0.25351 0.21861 0.83083
 C1841 C 0.25575 0.23066 0.84771
 C1842 C 0.25427 0.22230 0.86679
 H1843 H 0.24853 0.13350 0.93136
 H1844 H 0.24993 0.11460 0.96216
 H1845 H 0.24666 0.16950 0.99562
 H1846 H 0.24616 0.18813 0.96474
 H1847 H 0.27062 0.19468 0.93452
 H1848 H 0.27228 0.21120 0.90200
 H1849 H 0.22496 0.17180 0.88234
 H1850 H 0.22382 0.15500 0.91459
 H1851 H 0.24656 0.17368 0.85382
 H1852 H 0.24857 0.18828 0.82068
 H1853 H 0.25826 0.24660 0.84621
 H1854 H 0.25557 0.23200 0.87954
 C1855 C 0.74837 0.66088 0.44413
 C1856 C 0.74962 0.64013 0.44333
 C1857 C 0.75095 0.62904 0.46072
 C1858 C 0.75126 0.63829 0.47957
 C1859 C 0.74905 0.65915 0.48029
 C1860 C 0.74804 0.67032 0.46274
 C1861 C 0.74754 0.67242 0.42541
 C1862 C 0.76057 0.68884 0.42166
 C1863 C 0.76119 0.69834 0.40307
 C1864 C 0.74863 0.69171 0.38798
 C1865 C 0.73500 0.67581 0.39217
 C1866 C 0.73456 0.66621 0.41061
 C1867 C 0.75008 0.70081 0.36774
 C1868 C 0.74773 0.68884 0.35079
 C1869 C 0.74863 0.69725 0.33177
 C1870 C 0.75214 0.71783 0.32915
 C1871 C 0.75492 0.72979 0.34602
 C1872 C 0.75382 0.72138 0.36512
 H1873 H 0.74990 0.63247 0.42916
 H1874 H 0.75205 0.61303 0.45949
 H1875 H 0.74776 0.66702 0.49424
 H1876 H 0.74661 0.68631 0.46370
 H1877 H 0.77083 0.69379 0.43281
 H1878 H 0.77199 0.71041 0.40032
 H1879 H 0.72473 0.67066 0.38112
 H1880 H 0.72418 0.65375 0.41327
 H1881 H 0.74534 0.67288 0.35219
 H1882 H 0.74664 0.68758 0.31908
 H1883 H 0.75754 0.74572 0.34451
 H1884 H 0.75551 0.73106 0.37784
 C1885 C 0.23470 0.84134 0.44276
 C1886 C 0.22963 0.83179 0.46093
 C1887 C 0.23184 0.84183 0.47899
 C1888 C 0.23985 0.86150 0.47934
 C1889 C 0.24402 0.87116 0.46093
 C1890 C 0.24178 0.86118 0.44299
 C1891 C 0.23282 0.83079 0.42351
 C1892 C 0.22588 0.84080 0.40685
 C1893 C 0.22583 0.83158 0.38826
 C1894 C 0.23265 0.81213 0.38592
 C1895 C 0.23886 0.80182 0.40271
 C1896 C 0.23895 0.81107 0.42134
 C1897 C 0.23409 0.80301 0.36587
 C1898 C 0.22850 0.78293 0.36301
 C1899 C 0.23039 0.77432 0.34414
 C1900 C 0.23805 0.78557 0.32776
 C1901 C 0.24353 0.80569 0.33064
 C1902 C 0.24154 0.81430 0.34947
 H1903 H 0.22356 0.81667 0.46116
 H1904 H 0.22691 0.83422 0.49255
 H1905 H 0.24923 0.88657 0.46044
 H1906 H 0.24584 0.86899 0.42925
 H1907 H 0.22066 0.85585 0.40815
 H1908 H 0.22059 0.83974 0.37566
 H1909 H 0.24435 0.78687 0.40131
 H1910 H 0.24454 0.80306 0.43386
 H1911 H 0.22255 0.77393 0.37535
 H1912 H 0.22601 0.75878 0.34245
 H1913 H 0.24946 0.81481 0.31837
 H1914 H 0.24622 0.82974 0.35127
 C1915 C 0.74232 0.34489 0.93854
 C1916 C 0.74199 0.33369 0.95631
 C1917 C 0.74247 0.34312 0.97491
 C1918 C 0.74411 0.36408 0.97627
 C1919 C 0.74376 0.37511 0.95838
 C1920 C 0.74273 0.36575 0.93997
 C1921 C 0.74234 0.33512 0.91855
 C1922 C 0.75202 0.34454 0.90198
 C1923 C 0.75166 0.33593 0.88312
 C1924 C 0.74217 0.31727 0.88021
 C1925 C 0.73273 0.30765 0.89681
 C1926 C 0.73266 0.31653 0.91567
 C1927 C 0.74243 0.30791 0.86001
 C1928 C 0.72662 0.29528 0.85404
 C1929 C 0.72721 0.28630 0.83524
 C1930 C 0.74337 0.29013 0.82179
 C1931 C 0.75897 0.30296 0.82752
 C1932 C 0.75865 0.31151 0.84645
 H1933 H 0.74157 0.31758 0.95593
 H1934 H 0.74144 0.33380 0.98803
 H1935 H 0.74436 0.39124 0.95871
 H1936 H 0.74213 0.37503 0.92685
 H1937 H 0.76008 0.35860 0.90350
 H1938 H 0.75877 0.34411 0.87079
 H1939 H 0.72552 0.29313 0.89536
 H1940 H 0.72481 0.30885 0.92791
 H1941 H 0.71367 0.29240 0.86380
 H1942 H 0.71495 0.27648 0.83115
 H1943 H 0.77180 0.30588 0.81758
 H1944 H 0.77142 0.32061 0.85051
 C1945 C 0.84394 0.44907 0.25732
 C1946 C 0.83906 0.46439 0.27065
 C1947 C 0.84894 0.48308 0.26909
 C1948 C 0.86336 0.48721 0.25365
 C1949 C 0.86837 0.47131 0.24075
 C1950 C 0.85864 0.45281 0.24239
 C1951 C 0.83431 0.42895 0.25886
 C1952 C 0.84597 0.41201 0.25665
 C1953 C 0.83704 0.39305 0.25576
 C1954 C 0.81620 0.39051 0.25714
 C1955 C 0.80451 0.40740 0.26006
 C1956 C 0.81350 0.42646 0.26098
 C1957 C 0.80686 0.37033 0.25495
 C1958 C 0.78972 0.36747 0.24378
 C1959 C 0.78148 0.34833 0.24105
 C1960 C 0.79022 0.33162 0.24940
 C1961 C 0.80733 0.33455 0.26061
 C1962 C 0.81551 0.35365 0.26337
 H1963 H 0.82802 0.46174 0.28259
 H1964 H 0.84541 0.49436 0.28004
 H1965 H 0.88028 0.47261 0.22956
 H1966 H 0.86280 0.44127 0.23193
 H1967 H 0.86207 0.41347 0.25521
 H1968 H 0.84648 0.38042 0.25333
 H1969 H 0.78842 0.40589 0.26146
 H1970 H 0.80418 0.43928 0.26263
 H1971 H 0.78287 0.37999 0.23685
 H1972 H 0.76826 0.34665 0.23238
 H1973 H 0.81436 0.32209 0.26746
 H1974 H 0.82856 0.35536 0.27228
 C1975 C 0.33930 0.94882 0.75098
 C1976 C 0.32999 0.96712 0.74868
 C1977 C 0.34059 0.98516 0.75153
 C1978 C 0.36065 0.98527 0.75717
 C1979 C 0.36964 0.96672 0.75960
 C1980 C 0.35911 0.94888 0.75680
 C1981 C 0.32887 0.92957 0.74683
 C1982 C 0.33913 0.91448 0.73666
 C1983 C 0.33025 0.89564 0.73432
 C1984 C 0.31086 0.89144 0.74200
 C1985 C 0.30021 0.90676 0.75136
 C1986 C 0.30914 0.92568 0.75375
 C1987 C 0.30227 0.87086 0.74111
 C1988 C 0.28230 0.86732 0.73632
 C1989 C 0.27421 0.84789 0.73615
 C1990 C 0.28587 0.83161 0.74096
 C1991 C 0.30592 0.83518 0.74551
 C1992 C 0.31403 0.85456 0.74553
 H1993 H 0.31478 0.96749 0.74391
 H1994 H 0.33324 0.99886 0.74840
 H1995 H 0.38517 0.96606 0.76330
 H1996 H 0.36664 0.93504 0.75895
 H1997 H 0.35417 0.91718 0.73071
 H1998 H 0.33865 0.88426 0.72666
 H1999 H 0.28527 0.90390 0.75753
 H2000 H 0.30092 0.93700 0.76170
 H2001 H 0.27296 0.87959 0.73268
 H2002 H 0.25870 0.84568 0.73261
 H2003 H 0.31534 0.82302 0.74929
 H2004 H 0.32940 0.85685 0.74952
 C2005 C 0.15636 0.93958 0.24792
 C2006 C 0.13562 0.94006 0.24609
 C2007 C 0.12599 0.95810 0.24529
 C2008 C 0.13661 0.97649 0.24646
 C2009 C 0.15728 0.97595 0.24953
 C2010 C 0.16705 0.95780 0.24980
 C2011 C 0.16655 0.92010 0.24804
 C2012 C 0.18360 0.91737 0.25918
 C2013 C 0.19273 0.89891 0.25951
 C2014 C 0.18485 0.88251 0.24904
 C2015 C 0.16780 0.88529 0.23792
 C2016 C 0.15900 0.90383 0.23719
 C2017 C 0.19418 0.86260 0.24975
 C2018 C 0.19322 0.84950 0.23343
 C2019 C 0.20143 0.83066 0.23427
 C2020 C 0.21130 0.82464 0.25118
 C2021 C 0.21263 0.83769 0.26737
 C2022 C 0.20394 0.85635 0.26679
 H2023 H 0.12663 0.92646 0.24548
 H2024 H 0.10999 0.95774 0.24373
 H2025 H 0.16606 0.98938 0.25198
 H2026 H 0.18303 0.95813 0.25139
 H2027 H 0.18978 0.92939 0.26794
 H2028 H 0.20605 0.89758 0.26794
 H2029 H 0.16096 0.87309 0.22993
 H2030 H 0.14621 0.90533 0.22802
 H2031 H 0.18638 0.85384 0.21983
 H2032 H 0.20048 0.82095 0.22146
 H2033 H 0.22009 0.83331 0.28064
 H2034 H 0.20466 0.86571 0.27983
 C2035 C 0.65705 0.43715 0.74355
 C2036 C 0.66200 0.45275 0.73017
 C2037 C 0.65212 0.47080 0.73156
 C2038 C 0.63755 0.47406 0.74682
 C2039 C 0.63225 0.45788 0.75965
 C2040 C 0.64204 0.43993 0.75822
 C2041 C 0.66718 0.41783 0.74225
 C2042 C 0.65611 0.39988 0.74492
 C2043 C 0.66561 0.38170 0.74505
 C2044 C 0.68644 0.38100 0.74245
 C2045 C 0.69751 0.39892 0.73937
 C2046 C 0.68796 0.41716 0.73922
 C2047 C 0.69646 0.36161 0.74325
 C2048 C 0.71436 0.35983 0.75322
 C2049 C 0.72344 0.34141 0.75444
 C2050 C 0.71481 0.32437 0.74571
 C2051 C 0.69694 0.32622 0.73569
 C2052 C 0.68790 0.34461 0.73446
 H2053 H 0.67319 0.45084 0.71838
 H2054 H 0.65590 0.48235 0.72068
 H2055 H 0.62020 0.45863 0.77069
 H2056 H 0.63780 0.42814 0.76870
 H2057 H 0.64004 0.39990 0.74703
 H2058 H 0.65667 0.36820 0.74764
 H2059 H 0.71355 0.39882 0.73707
 H2060 H 0.69687 0.43077 0.73724
 H2061 H 0.72118 0.37260 0.76038
 H2062 H 0.73720 0.34053 0.76227
 H2063 H 0.68992 0.31347 0.72866
 H2064 H 0.67427 0.34556 0.72644
 C2065 C 0.66257 0.54892 0.74772
 C2066 C 0.67189 0.53057 0.74955
 C2067 C 0.66057 0.51269 0.75010
 C2068 C 0.63967 0.51275 0.74827
 C2069 C 0.63048 0.53140 0.74803
 C2070 C 0.64171 0.54910 0.74761
 C2071 C 0.67424 0.56796 0.74576
 C2072 C 0.66811 0.58277 0.73270
 C2073 C 0.67769 0.60144 0.73199
 C2074 C 0.69378 0.60569 0.74416
 C2075 C 0.70064 0.59065 0.75650
 C2076 C 0.69091 0.57192 0.75735
 C2077 C 0.70249 0.62615 0.74466
 C2078 C 0.72321 0.62965 0.74330
 C2079 C 0.73115 0.64915 0.74351
 C2080 C 0.71848 0.66541 0.74543
 C2081 C 0.69777 0.66179 0.74699
 C2082 C 0.68987 0.64239 0.74650
 H2083 H 0.68795 0.53001 0.75014
 H2084 H 0.66837 0.49903 0.75194
 H2085 H 0.61442 0.53218 0.74749
 H2086 H 0.63400 0.56302 0.74706
 H2087 H 0.65567 0.57999 0.72318
 H2088 H 0.67237 0.61269 0.72208
 H2089 H 0.71300 0.59365 0.76607
 H2090 H 0.69593 0.56083 0.76760
 H2091 H 0.73320 0.61733 0.74180
 H2092 H 0.74717 0.65149 0.74237
 H2093 H 0.68761 0.67398 0.74844
 H2094 H 0.67384 0.64004 0.74779
 C2095 C 0.16012 0.05190 0.24301
 C2096 C 0.14394 0.04956 0.25668
 C2097 C 0.13275 0.03178 0.25783
 C2098 C 0.13765 0.01533 0.24571
 C2099 C 0.15312 0.01828 0.23107
 C2100 C 0.16442 0.03616 0.22995
 C2101 C 0.17193 0.07100 0.24230
 C2102 C 0.17831 0.07982 0.22406
 C2103 C 0.18783 0.09869 0.22363
 C2104 C 0.19101 0.10909 0.24141
 C2105 C 0.18533 0.09994 0.25961
 C2106 C 0.17600 0.08111 0.26006
 C2107 C 0.19941 0.12977 0.24115
 C2108 C 0.19047 0.14434 0.25316
 C2109 C 0.19846 0.16373 0.25355
 C2110 C 0.21573 0.16903 0.24205
 C2111 C 0.22458 0.15450 0.22983
 C2112 C 0.21640 0.13508 0.22928
 H2113 H 0.13956 0.06174 0.26627
 H2114 H 0.11992 0.03134 0.26803
 H2115 H 0.15657 0.00659 0.22053
 H2116 H 0.17658 0.03760 0.21898
 H2117 H 0.17528 0.07251 0.21012
 H2118 H 0.19201 0.10546 0.20939
 H2119 H 0.18798 0.10745 0.27355
 H2120 H 0.17174 0.07453 0.27437
 H2121 H 0.17719 0.14072 0.26225
 H2122 H 0.19124 0.17450 0.26313
 H2123 H 0.23785 0.15811 0.22074
 H2124 H 0.22360 0.12410 0.21993
 C2125 C 0.34435 0.06159 0.76152
 C2126 C 0.35971 0.05858 0.74720
 C2127 C 0.36914 0.04043 0.74582
 C2128 C 0.36282 0.02403 0.75790
 C2129 C 0.34753 0.02716 0.77244
 C2130 C 0.33838 0.04561 0.77417
 C2131 C 0.33499 0.08145 0.76324
 C2132 C 0.31472 0.08313 0.76885
 C2133 C 0.30590 0.10177 0.76945
 C2134 C 0.31701 0.11922 0.76409
 C2135 C 0.33734 0.11750 0.75880
 C2136 C 0.34624 0.09899 0.75869
 C2137 C 0.30745 0.13904 0.76344
 C2138 C 0.31857 0.15674 0.76694
 C2139 C 0.31000 0.17534 0.76505
 C2140 C 0.28995 0.17669 0.76024
 C2141 C 0.27859 0.15914 0.75735
 C2142 C 0.28729 0.14054 0.75866
 H2143 H 0.36468 0.07033 0.73698
 H2144 H 0.38172 0.03962 0.73538
 H2145 H 0.34286 0.01534 0.78270
 H2146 H 0.32697 0.04744 0.78576
 H2147 H 0.30549 0.07002 0.77236
 H2148 H 0.29032 0.10242 0.77406
 H2149 H 0.34646 0.13038 0.75427
 H2150 H 0.36202 0.09851 0.75488
 H2151 H 0.33392 0.15634 0.77123
 H2152 H 0.31897 0.18869 0.76766
 H2153 H 0.26309 0.15985 0.75353
 H2154 H 0.27827 0.12742 0.75544
 C2155 C 0.84080 0.56180 0.25272
 C2156 C 0.86170 0.56241 0.25209
 C2157 C 0.87226 0.54491 0.25181
 C2158 C 0.86238 0.52605 0.25236
 C2159 C 0.84138 0.52551 0.25145
 C2160 C 0.83074 0.54318 0.25192
 C2161 C 0.82985 0.58069 0.25429
 C2162 C 0.81248 0.58355 0.24369
 C2163 C 0.80308 0.60189 0.24440
 C2164 C 0.81096 0.61771 0.25558
 C2165 C 0.82794 0.61467 0.26660
 C2166 C 0.83719 0.59635 0.26608
 C2167 C 0.80201 0.63759 0.25532
 C2168 C 0.81424 0.65475 0.25241
 C2169 C 0.80599 0.67357 0.25212
 C2170 C 0.78532 0.67567 0.25498
 C2171 C 0.77308 0.65849 0.25802
 C2172 C 0.78134 0.63961 0.25803
 H2173 H 0.86999 0.57649 0.25186
 H2174 H 0.88840 0.54604 0.25170
 H2175 H 0.83297 0.51165 0.25033
 H2176 H 0.81462 0.54222 0.25200
 H2177 H 0.80652 0.57185 0.23437
 H2178 H 0.79003 0.60393 0.23569
 H2179 H 0.83409 0.62652 0.27563
 H2180 H 0.85020 0.59449 0.27486
 H2181 H 0.83022 0.65356 0.25011
 H2182 H 0.81583 0.68650 0.24979
 H2183 H 0.75709 0.65962 0.26016
 H2184 H 0.77162 0.62659 0.26041
 C2185 C 0.95356 0.25443 0.16598
 C2186 C 0.96402 0.23673 0.16354
 C2187 C 0.98138 0.23635 0.15142
 C2188 C 0.98824 0.25342 0.14063
 C2189 C 0.97914 0.27161 0.14531
 C2190 C 0.96181 0.27203 0.15742
 C2191 C 0.93353 0.25436 0.17620
 C2192 C 0.92755 0.27047 0.18810
 C2193 C 0.90801 0.27120 0.19599
 C2194 C 0.89401 0.25584 0.19214
 C2195 C 0.90017 0.23946 0.18075
 C2196 C 0.91968 0.23873 0.17287
 C2197 C 0.87295 0.25704 0.19958
 C2198 C 0.85727 0.25086 0.18752
 C2199 C 0.83746 0.25159 0.19456
 C2200 C 0.83282 0.25856 0.21384
 C2201 C 0.84850 0.26506 0.22578
 C2202 C 0.86832 0.26431 0.21873
 H2203 H 0.95854 0.22308 0.17068
 H2204 H 0.98890 0.22239 0.14961
 H2205 H 0.98497 0.28559 0.13920
 H2206 H 0.95444 0.28605 0.15936
 H2207 H 0.93792 0.28265 0.19112
 H2208 H 0.90372 0.28407 0.20463
 H2209 H 0.88985 0.22722 0.17779
 H2210 H 0.92371 0.22621 0.16358
 H2211 H 0.86030 0.24555 0.17255
 H2212 H 0.82579 0.24654 0.18490
 H2213 H 0.84551 0.27046 0.24074
 H2214 H 0.88006 0.26902 0.22845
 C2215 C 0.44791 0.74654 0.66129
 C2216 C 0.44958 0.73235 0.64608
 C2217 C 0.46759 0.72994 0.63551
 C2218 C 0.48487 0.74134 0.64000
 C2219 C 0.48291 0.75600 0.65494
 C2220 C 0.46480 0.75839 0.66559
 C2221 C 0.42827 0.74934 0.67178
 C2222 C 0.42157 0.76849 0.67649
 C2223 C 0.40231 0.77102 0.68466
 C2224 C 0.38933 0.75448 0.68812
 C2225 C 0.39627 0.73534 0.68406
 C2226 C 0.41551 0.73279 0.67610
 C2227 C 0.36844 0.75696 0.69547
 C2228 C 0.35286 0.74624 0.68661
 C2229 C 0.33327 0.74747 0.69412
 C2230 C 0.32879 0.75933 0.71082
 C2231 C 0.34432 0.77055 0.71933
 C2232 C 0.36394 0.76947 0.71165
 H2233 H 0.43669 0.72355 0.64175
 H2234 H 0.46749 0.71960 0.62321
 H2235 H 0.49542 0.76586 0.65816
 H2236 H 0.46399 0.76960 0.67711
 H2237 H 0.43093 0.78157 0.67318
 H2238 H 0.39730 0.78594 0.68762
 H2239 H 0.38673 0.72229 0.68699
 H2240 H 0.42033 0.71781 0.67312
 H2241 H 0.35587 0.73673 0.67393
 H2242 H 0.32173 0.73864 0.68716
 H2243 H 0.34139 0.77988 0.73217
 H2244 H 0.37569 0.77787 0.71875
 C2245 C 0.44490 0.25644 0.84295
 C2246 C 0.46033 0.27055 0.83877
 C2247 C 0.47825 0.26985 0.84878
 C2248 C 0.48139 0.25482 0.86299
 C2249 C 0.46516 0.24152 0.86780
 C2250 C 0.44746 0.24211 0.85770
 C2251 C 0.42588 0.25660 0.83242
 C2252 C 0.41723 0.23862 0.82580
 C2253 C 0.39866 0.23831 0.81715
 C2254 C 0.38824 0.25596 0.81497
 C2255 C 0.39701 0.27403 0.82130
 C2256 C 0.41573 0.27436 0.82985
 C2257 C 0.36822 0.25535 0.80628
 C2258 C 0.35253 0.26618 0.81487
 C2259 C 0.33354 0.26510 0.80693
 C2260 C 0.32992 0.25328 0.79012
 C2261 C 0.34569 0.24250 0.78154
 C2262 C 0.36457 0.24349 0.78955
 H2263 H 0.45860 0.28200 0.82765
 H2264 H 0.48980 0.28106 0.84537
 H2265 H 0.46562 0.23077 0.87973
 H2266 H 0.43549 0.23157 0.86183
 H2267 H 0.42480 0.22473 0.82747
 H2268 H 0.39223 0.22415 0.81256
 H2269 H 0.38939 0.28789 0.81961
 H2270 H 0.42200 0.28840 0.83495
 H2271 H 0.35486 0.27526 0.82792
 H2272 H 0.32177 0.27365 0.81386
 H2273 H 0.34347 0.23326 0.76858
 H2274 H 0.37642 0.23512 0.78250
 C2275 C 0.94094 0.75090 0.34160
 C2276 C 0.95649 0.76511 0.33856
 C2277 C 0.97397 0.76390 0.34917
 C2278 C 0.97656 0.74825 0.36285
 C2279 C 0.96020 0.73481 0.36655
 C2280 C 0.94290 0.73593 0.35585
 C2281 C 0.92239 0.75171 0.33039
 C2282 C 0.91382 0.73414 0.32272
 C2283 C 0.89560 0.73447 0.31340
 C2284 C 0.88551 0.75237 0.31163
 C2285 C 0.89427 0.77003 0.31893
 C2286 C 0.91260 0.76972 0.32814
 C2287 C 0.86563 0.75240 0.30275
 C2288 C 0.85006 0.76307 0.31178
 C2289 C 0.83113 0.76256 0.30382
 C2290 C 0.82737 0.75148 0.28656
 C2291 C 0.84301 0.74090 0.27747
 C2292 C 0.86190 0.74132 0.28552
 H2293 H 0.95523 0.77701 0.32783
 H2294 H 0.98569 0.77513 0.34655
 H2295 H 0.96027 0.72351 0.37799
 H2296 H 0.93078 0.72528 0.35909
 H2297 H 0.92115 0.72008 0.32411
 H2298 H 0.88915 0.72061 0.30806
 H2299 H 0.88689 0.78407 0.31758
 H2300 H 0.91883 0.78345 0.33404
 H2301 H 0.85245 0.77153 0.32523
 H2302 H 0.81946 0.77093 0.31117
 H2303 H 0.84066 0.73224 0.26414
 H2304 H 0.87367 0.73308 0.27816
 C2305 C 0.05148 0.74385 0.33888
 C2306 C 0.03325 0.74366 0.32935
 C2307 C 0.01524 0.74454 0.34047
 C2308 C 0.01510 0.74647 0.36143
 C2309 C 0.03360 0.74596 0.37076
 C2310 C 0.05145 0.74477 0.35969
 C2311 C 0.07065 0.74324 0.32736
 C2312 C 0.08543 0.73032 0.33315
 C2313 C 0.10425 0.73101 0.32364
 C2314 C 0.10882 0.74481 0.30826
 C2315 C 0.09376 0.75725 0.30196
 C2316 C 0.07481 0.75640 0.31138
 C2317 C 0.12946 0.74668 0.29952
 C2318 C 0.13307 0.75038 0.27908
 C2319 C 0.15261 0.75180 0.27105
 C2320 C 0.16891 0.74942 0.28329
 C2321 C 0.16526 0.74604 0.30376
 C2322 C 0.14582 0.74479 0.31177
 H2323 H 0.03293 0.74246 0.31330
 H2324 H 0.00164 0.74342 0.33245
 H2325 H 0.03418 0.74685 0.38682
 H2326 H 0.06533 0.74493 0.36742
 H2327 H 0.08247 0.71982 0.34523
 H2328 H 0.11532 0.72083 0.32850
 H2329 H 0.09682 0.76814 0.29027
 H2330 H 0.06366 0.76660 0.30675
 H2331 H 0.12080 0.75178 0.26921
 H2332 H 0.15493 0.75435 0.25521
 H2333 H 0.17747 0.74439 0.31366
 H2334 H 0.14363 0.74248 0.32765
 C2335 C 0.55684 0.25453 0.83880
 C2336 C 0.53859 0.25243 0.82931
 C2337 C 0.52049 0.25205 0.84042
 C2338 C 0.52019 0.25429 0.86133
 C2339 C 0.53868 0.25506 0.87068
 C2340 C 0.55663 0.25532 0.85965
 C2341 C 0.57617 0.25595 0.82728
 C2342 C 0.59152 0.26887 0.83362
 C2343 C 0.61024 0.26928 0.82390
 C2344 C 0.61405 0.25694 0.80747
 C2345 C 0.59854 0.24460 0.80055
 C2346 C 0.57977 0.24406 0.81040
 C2347 C 0.63443 0.25637 0.79826
 C2348 C 0.63755 0.25678 0.77748
 C2349 C 0.65689 0.25615 0.76900
 C2350 C 0.67341 0.25479 0.78115
 C2351 C 0.67021 0.25437 0.80193
 C2352 C 0.65096 0.25525 0.81037
 H2353 H 0.53827 0.25142 0.81325
 H2354 H 0.50693 0.24994 0.83245
 H2355 H 0.53917 0.25601 0.88675
 H2356 H 0.57041 0.25616 0.86752
 H2357 H 0.58910 0.27861 0.84624
 H2358 H 0.62183 0.27921 0.82931
 H2359 H 0.60114 0.23485 0.78797
 H2360 H 0.56832 0.23385 0.80521
 H2361 H 0.62505 0.25776 0.76783
 H2362 H 0.65887 0.25644 0.75294
 H2363 H 0.68260 0.25340 0.81171
 H2364 H 0.64895 0.25471 0.82643
 C2365 C 0.56037 0.73713 0.65754
 C2366 C 0.56005 0.74027 0.63696
 C2367 C 0.54202 0.74117 0.62748
 C2368 C 0.52359 0.73966 0.63831
 C2369 C 0.52403 0.73538 0.65888
 C2370 C 0.54221 0.73430 0.66838
 C2371 C 0.57975 0.73685 0.66741
 C2372 C 0.59466 0.75130 0.66246
 C2373 C 0.61331 0.75072 0.67091
 C2374 C 0.61757 0.73558 0.68444
 C2375 C 0.60252 0.72125 0.68962
 C2376 C 0.58377 0.72193 0.68124
 C2377 C 0.63759 0.73495 0.69316
 C2378 C 0.63957 0.72965 0.71321
 C2379 C 0.65831 0.73001 0.72163
 C2380 C 0.67552 0.73580 0.71023
 C2381 C 0.67360 0.74067 0.69007
 C2382 C 0.65488 0.74018 0.68162
 H2383 H 0.57382 0.74186 0.62811
 H2384 H 0.54241 0.74347 0.61152
 H2385 H 0.51047 0.73257 0.66772
 H2386 H 0.54208 0.73147 0.68425
 H2387 H 0.59185 0.76317 0.65208
 H2388 H 0.62434 0.76227 0.66696
 H2389 H 0.60537 0.70927 0.69984
 H2390 H 0.57259 0.71050 0.68516
 H2391 H 0.62658 0.72577 0.72259
 H2392 H 0.65921 0.72625 0.73723
 H2393 H 0.68655 0.74503 0.68081
 H2394 H 0.65395 0.74394 0.66602
 C2395 C 0.05919 0.24993 0.16129
 C2396 C 0.05070 0.23237 0.15359
 C2397 C 0.03337 0.23287 0.14280
 C2398 C 0.02445 0.25111 0.13849
 C2399 C 0.03181 0.26832 0.14814
 C2400 C 0.04918 0.26783 0.15899
 C2401 C 0.07868 0.24957 0.17109
 C2402 C 0.09310 0.26490 0.16758
 C2403 C 0.11194 0.26393 0.17567
 C2404 C 0.11684 0.24757 0.18743
 C2405 C 0.10231 0.23238 0.19118
 C2406 C 0.08346 0.23340 0.18317
 C2407 C 0.13701 0.24632 0.19575
 C2408 C 0.13928 0.23871 0.21500
 C2409 C 0.15814 0.23772 0.22295
 C2410 C 0.17526 0.24442 0.21190
 C2411 C 0.17304 0.25187 0.19257
 C2412 C 0.15414 0.25277 0.18458
 H2413 H 0.05773 0.21822 0.15540
 H2414 H 0.02722 0.21884 0.13762
 H2415 H 0.02448 0.28236 0.14666
 H2416 H 0.05485 0.28150 0.16549
 H2417 H 0.09000 0.27745 0.15816
 H2418 H 0.12265 0.27603 0.17273
 H2419 H 0.10562 0.21949 0.20003
 H2420 H 0.07264 0.22145 0.18638
 H2421 H 0.12640 0.23389 0.22413
 H2422 H 0.15924 0.23204 0.23794
 H2423 H 0.18590 0.25710 0.18363
 H2424 H 0.15296 0.25839 0.16957
 C2425 C -0.09137 1.00207 0.80973
 C2426 C -0.10688 0.98798 0.80758
 C2427 C -0.11752 0.98717 0.79024
 C2428 C -0.11251 0.99992 0.77389
 C2429 C -0.09760 1.01486 0.77668
 C2430 C -0.08704 1.01582 0.79430
 C2431 C -0.08031 1.00235 0.82839
 C2432 C -0.07736 1.02011 0.83902
 C2433 C -0.06887 1.01976 0.85773
 C2434 C -0.06298 1.00169 0.86600
 C2435 C -0.06534 0.98408 0.85501
 C2436 C -0.07395 0.98440 0.83645
 C2437 C -0.05486 1.00098 0.88621
 C2438 C -0.03846 0.98920 0.88996
 C2439 C -0.03108 0.98809 0.90907
 C2440 C -0.03999 0.99864 0.92494
 C2441 C -0.05650 1.01034 0.92120
 C2442 C -0.06380 1.01155 0.90202
 H2443 H -0.11113 0.97778 0.81962
 H2444 H -0.12998 0.97664 0.79013
 H2445 H -0.09404 1.02575 0.76509
 H2446 H -0.07538 1.02714 0.79579
 H2447 H -0.08226 1.03411 0.83317
 H2448 H -0.06702 1.03359 0.86581
 H2449 H -0.06108 0.96992 0.86104
 H2450 H -0.07597 0.97053 0.82849
 H2451 H -0.03118 0.98101 0.87804
 H2452 H -0.01831 0.97898 0.91137
 H2453 H -0.06367 1.01873 0.93304
 H2454 H -0.07663 1.02053 0.89960
 C2455 C 0.41081 0.49710 0.31006
 C2456 C 0.41545 0.48546 0.29329
 C2457 C 0.40460 0.48707 0.27600
 C2458 C 0.38916 0.50081 0.27473
 C2459 C 0.38415 0.51181 0.29201
 C2460 C 0.39493 0.51016 0.30922
 C2461 C 0.42188 0.49533 0.32870
 C2462 C 0.42601 0.51234 0.34016
 C2463 C 0.43495 0.51067 0.35847
 C2464 C 0.44012 0.49197 0.36573
 C2465 C 0.43668 0.47501 0.35401
 C2466 C 0.42759 0.47666 0.33569
 C2467 C 0.44856 0.49027 0.38572
 C2468 C 0.46502 0.47835 0.38883
 C2469 C 0.47329 0.47744 0.40761
 C2470 C 0.46512 0.48826 0.42370
 C2471 C 0.44837 0.49980 0.42061
 C2472 C 0.44024 0.50084 0.40184
 H2473 H 0.42749 0.47509 0.29350
 H2474 H 0.40825 0.47749 0.26354
 H2475 H 0.37148 0.52139 0.29263
 H2476 H 0.39040 0.51873 0.32216
 H2477 H 0.42222 0.52699 0.33501
 H2478 H 0.43781 0.52404 0.36702
 H2479 H 0.44042 0.46040 0.35932
 H2480 H 0.42442 0.46325 0.32734
 H2481 H 0.47176 0.47012 0.37663
 H2482 H 0.48616 0.46837 0.40948
 H2483 H 0.44166 0.50831 0.43263
 H2484 H 0.42737 0.50990 0.39993
 C2485 C 0.59068 -0.00285 0.30662
 C2486 C 0.58018 -0.00447 0.28895
 C2487 C 0.59037 -0.00455 0.27037
 C2488 C 0.61137 -0.00239 0.26899
 C2489 C 0.62171 -0.00222 0.28692
 C2490 C 0.61158 -0.00236 0.30534
 C2491 C 0.58015 -0.00139 0.32640
 C2492 C 0.58802 0.01106 0.34117
 C2493 C 0.57890 0.01184 0.36012
 C2494 C 0.56153 0.00040 0.36470
 C2495 C 0.55323 -0.01160 0.34985
 C2496 C 0.56250 -0.01255 0.33088
 C2497 C 0.55246 0.00062 0.38512
 C2498 C 0.53181 0.00248 0.38823
 C2499 C 0.52333 0.00247 0.40755
 C2500 C 0.53531 0.00029 0.42410
 C2501 C 0.55599 -0.00146 0.42094
 C2502 C 0.56448 -0.00118 0.40166
 H2503 H 0.56404 -0.00522 0.28943
 H2504 H 0.58162 -0.00620 0.25731
 H2505 H 0.63785 -0.00130 0.28658
 H2506 H 0.62019 -0.00193 0.31864
 H2507 H 0.60128 0.02028 0.33808
 H2508 H 0.58539 0.02146 0.37121
 H2509 H 0.53991 -0.02068 0.35308
 H2510 H 0.55614 -0.02242 0.31993
 H2511 H 0.52226 0.00404 0.37572
 H2512 H 0.50734 0.00376 0.40949
 H2513 H 0.56562 -0.00311 0.43338
 H2514 H 0.58043 -0.00278 0.39963
 C2515 C 0.09138 0.50572 0.80121
 C2516 C 0.08159 0.50771 0.78323
 C2517 C 0.09187 0.50515 0.76492
 C2518 C 0.11212 0.49994 0.76413
 C2519 C 0.12185 0.49861 0.78235
 C2520 C 0.11163 0.50113 0.80051
 C2521 C 0.08074 0.50844 0.82075
 C2522 C 0.09039 0.51820 0.83636
 C2523 C 0.08118 0.51930 0.85527
 C2524 C 0.06205 0.51079 0.85900
 C2525 C 0.05205 0.50172 0.84323
 C2526 C 0.06132 0.50054 0.82429
 C2527 C 0.05300 0.51062 0.87948
 C2528 C 0.03276 0.51464 0.88291
 C2529 C 0.02424 0.51391 0.90221
 C2530 C 0.03575 0.50894 0.91848
 C2531 C 0.05605 0.50507 0.91501
 C2532 C 0.06457 0.50596 0.89576
 H2533 H 0.06611 0.51179 0.78330
 H2534 H 0.08396 0.50791 0.75154
 H2535 H 0.13757 0.49548 0.78246
 H2536 H 0.11962 0.49937 0.81407
 H2537 H 0.10517 0.52486 0.83400
 H2538 H 0.08907 0.52673 0.86703
 H2539 H 0.03736 0.49489 0.84573
 H2540 H 0.05357 0.49280 0.81262
 H2541 H 0.02354 0.51843 0.87065
 H2542 H 0.00856 0.51696 0.90434
 H2543 H 0.06537 0.50123 0.92717
 H2544 H 0.08016 0.50255 0.89354
 C2545 C 0.09099 0.49366 0.68994
 C2546 C 0.08575 0.48170 0.70660
 C2547 C 0.09652 0.48334 0.72402
 C2548 C 0.11242 0.49743 0.72552
 C2549 C 0.11824 0.50844 0.70821
 C2550 C 0.10757 0.50677 0.69090
 C2551 C 0.07968 0.49243 0.67134
 C2552 C 0.07643 0.50983 0.66039
 C2553 C 0.06734 0.50879 0.64208
 C2554 C 0.06112 0.49035 0.63429
 C2555 C 0.06361 0.47299 0.64553
 C2556 C 0.07286 0.47401 0.66387
 C2557 C 0.05262 0.48941 0.61423
 C2558 C 0.03544 0.47769 0.61071
 C2559 C 0.02704 0.47770 0.59194
 C2560 C 0.03580 0.48928 0.57627
 C2561 C 0.05329 0.50056 0.57974
 C2562 C 0.06154 0.50067 0.59850
 H2563 H 0.07322 0.47120 0.70625
 H2564 H 0.09232 0.47367 0.73649
 H2565 H 0.13138 0.51815 0.70770
 H2566 H 0.11263 0.51550 0.67802
 H2567 H 0.08105 0.52430 0.66593
 H2568 H 0.06521 0.52246 0.63395
 H2569 H 0.05902 0.45857 0.63983
 H2570 H 0.07527 0.46033 0.67186
 H2571 H 0.02822 0.46893 0.62260
 H2572 H 0.01360 0.46879 0.58976
 H2573 H 0.06047 0.50962 0.56806
 H2574 H 0.07497 0.50960 0.60070
 C2575 C 0.58914 1.00105 0.19497
 C2576 C 0.58596 1.01488 0.21031
 C2577 C 0.59692 1.01411 0.22764
 C2578 C 0.61115 0.99931 0.23026
 C2579 C 0.61493 0.98633 0.21406
 C2580 C 0.60387 0.98696 0.19698
 C2581 C 0.57783 1.00145 0.17645
 C2582 C 0.57051 0.98356 0.16827
 C2583 C 0.56159 0.98348 0.14984
 C2584 C 0.55990 1.00127 0.13911
 C2585 C 0.56672 1.01926 0.14753
 C2586 C 0.57552 1.01936 0.16609
 C2587 C 0.55158 1.00090 0.11895
 C2588 C 0.56087 1.01207 0.10334
 C2589 C 0.55326 1.01151 0.08427
 C2590 C 0.53608 0.99987 0.08040
 C2591 C 0.52686 0.98861 0.09603
 C2592 C 0.53457 0.98907 0.11506
 H2593 H 0.57490 1.02617 0.20895
 H2594 H 0.59424 1.02508 0.23913
 H2595 H 0.62678 0.97581 0.21402
 H2596 H 0.60726 0.97669 0.18501
 H2597 H 0.57199 0.96957 0.17604
 H2598 H 0.55659 0.96938 0.14369
 H2599 H 0.56538 1.03322 0.13968
 H2600 H 0.58115 1.03333 0.17200
 H2601 H 0.57418 1.02109 0.10584
 H2602 H 0.56070 1.02043 0.07262
 H2603 H 0.51359 0.97951 0.09360
 H2604 H 0.52704 0.98039 0.12684
 C2605 C 0.40824 0.50578 0.19835
 C2606 C 0.41849 0.50968 0.21582
 C2607 C 0.40861 0.50808 0.23449
 C2608 C 0.38824 0.50215 0.23617
 C2609 C 0.37796 0.49927 0.21842
 C2610 C 0.38783 0.50076 0.19987
 C2611 C 0.41853 0.50711 0.17847
 C2612 C 0.41451 0.49264 0.16400
 C2613 C 0.42325 0.49426 0.14490
 C2614 C 0.43619 0.51044 0.13976
 C2615 C 0.44059 0.52471 0.15437
 C2616 C 0.43185 0.52305 0.17356
 C2617 C 0.44491 0.51229 0.11919
 C2618 C 0.46494 0.51839 0.11572
 C2619 C 0.47334 0.51891 0.09636
 C2620 C 0.46188 0.51330 0.08007
 C2621 C 0.44169 0.50782 0.08353
 C2622 C 0.43330 0.50736 0.10283
 H2623 H 0.43419 0.51389 0.21504
 H2624 H 0.41694 0.51192 0.24745
 H2625 H 0.36211 0.49572 0.21897
 H2626 H 0.37938 0.49829 0.18664
 H2627 H 0.40460 0.48000 0.16748
 H2628 H 0.41995 0.48276 0.13415
 H2629 H 0.45039 0.53741 0.15082
 H2630 H 0.43507 0.53451 0.18438
 H2631 H 0.47429 0.52216 0.12802
 H2632 H 0.48895 0.52318 0.09423
 H2633 H 0.43236 0.50360 0.07133
 H2634 H 0.41771 0.50303 0.10497
 C2635 C -0.09063 -0.00367 0.69790
 C2636 C -0.08043 -0.00432 0.71574
 C2637 C -0.09092 -0.00386 0.73416
 C2638 C -0.11183 -0.00188 0.73509
 C2639 C -0.12184 -0.00198 0.71695
 C2640 C -0.11143 -0.00279 0.69873
 C2641 C -0.07988 -0.00346 0.67829
 C2642 C -0.08651 -0.01593 0.66302
 C2643 C -0.07800 -0.01425 0.64382
 C2644 C -0.06280 0.00010 0.63939
 C2645 C -0.05571 0.01213 0.65488
 C2646 C -0.06412 0.01029 0.67419
 C2647 C -0.05474 0.00264 0.61860
 C2648 C -0.03435 0.00682 0.61463
 C2649 C -0.02675 0.00835 0.59501
 C2650 C -0.03935 0.00557 0.57894
 C2651 C -0.05982 0.00191 0.58291
 C2652 C -0.06743 0.00057 0.60249
 H2653 H -0.06436 -0.00544 0.71540
 H2654 H -0.08250 -0.00520 0.74743
 H2655 H -0.13791 -0.00095 0.71697
 H2656 H -0.11967 -0.00224 0.68519
 H2657 H -0.09850 -0.02681 0.66591
 H2658 H -0.08344 -0.02414 0.63241
 H2659 H -0.04413 0.02343 0.65196
 H2660 H -0.05891 0.02020 0.68571
 H2661 H -0.02413 0.00834 0.62666
 H2662 H -0.01088 0.01107 0.59247
 H2663 H -0.06996 -0.00012 0.57087
 H2664 H -0.08329 -0.00215 0.60501
 C2665 C -0.19976 0.90799 1.00278
 C2666 C -0.20224 0.89297 0.98859
 C2667 C -0.22045 0.88277 0.98709
 C2668 C -0.23722 0.88771 0.99926
 C2669 C -0.23428 0.90221 1.01416
 C2670 C -0.21595 0.91250 1.01563
 C2671 C -0.18010 0.91838 1.00429
 C2672 C -0.17860 0.93917 1.00650
 C2673 C -0.15988 0.94892 1.00660
 C2674 C -0.14234 0.93803 1.00463
 C2675 C -0.14393 0.91721 1.00279
 C2676 C -0.16255 0.90752 1.00267
 C2677 C -0.12238 0.94814 1.00430
 C2678 C -0.10665 0.93953 1.01412
 C2679 C -0.08757 0.94829 1.01300
 C2680 C -0.08369 0.96597 1.00210
 C2681 C -0.09950 0.97483 0.99256
 C2682 C -0.11866 0.96599 0.99364
 H2683 H -0.18998 0.88899 0.97859
 H2684 H -0.22098 0.87066 0.97656
 H2685 H -0.24628 0.90559 1.02470
 H2686 H -0.21428 0.92365 1.02711
 H2687 H -0.19189 0.94791 1.00767
 H2688 H -0.15911 0.96495 1.00826
 H2689 H -0.13073 0.90841 1.00102
 H2690 H -0.16323 0.89146 1.00121
 H2691 H -0.10911 0.92599 1.02275
 H2692 H -0.07584 0.94115 1.02076
 H2693 H -0.09705 0.98846 0.98408
 H2694 H -0.13045 0.97286 0.98575
 C2695 C 0.30339 0.40570 0.50256
 C2696 C 0.28665 0.41265 0.51325
 C2697 C 0.26806 0.40285 0.51187
 C2698 C 0.26558 0.38627 0.49920
 C2699 C 0.28275 0.37916 0.48906
 C2700 C 0.30117 0.38894 0.49040
 C2701 C 0.32337 0.41531 0.50433
 C2702 C 0.34022 0.40351 0.50547
 C2703 C 0.35927 0.41226 0.50550
 C2704 C 0.36197 0.43306 0.50460
 C2705 C 0.34508 0.44495 0.50406
 C2706 C 0.32594 0.43614 0.50395
 C2707 C 0.38239 0.44211 0.50373
 C2708 C 0.38724 0.45841 0.49113
 C2709 C 0.40676 0.46624 0.48962
 C2710 C 0.42184 0.45782 0.50059
 C2711 C 0.41693 0.44165 0.51332
 C2712 C 0.39743 0.43396 0.51494
 H2713 H 0.28806 0.42528 0.52314
 H2714 H 0.25562 0.40804 0.52093
 H2715 H 0.28227 0.36565 0.48037
 H2716 H 0.31381 0.38318 0.48200
 H2717 H 0.33869 0.38742 0.50612
 H2718 H 0.37194 0.40266 0.50570
 H2719 H 0.34668 0.46103 0.50364
 H2720 H 0.31320 0.44558 0.50301
 H2721 H 0.37604 0.46484 0.48209
 H2722 H 0.41007 0.47871 0.47969
 H2723 H 0.42813 0.43501 0.52221
 H2724 H 0.39411 0.42164 0.52506
 C2725 C 0.30749 0.59741 0.00408
 C2726 C 0.29097 0.59240 0.01679
 C2727 C 0.27271 0.60155 0.01465
 C2728 C 0.27031 0.61609 -0.00021
 C2729 C 0.28711 0.62121 -0.01265
 C2730 C 0.30511 0.61166 -0.01089
 C2731 C 0.32728 0.58834 0.00666
 C2732 C 0.34504 0.59925 0.00188
 C2733 C 0.36357 0.59058 0.00329
 C2734 C 0.36501 0.57089 0.01012
 C2735 C 0.34729 0.56020 0.01563
 C2736 C 0.32869 0.56872 0.01371
 C2737 C 0.38483 0.56140 0.01080
 C2738 C 0.38655 0.54082 0.00744
 C2739 C 0.40514 0.53203 0.00724
 C2740 C 0.42254 0.54365 0.00986
 C2741 C 0.42101 0.56414 0.01329
 C2742 C 0.40234 0.57287 0.01406
 H2743 H 0.29224 0.58186 0.02884
 H2744 H 0.26052 0.59772 0.02508
 H2745 H 0.28684 0.63310 -0.02348
 H2746 H 0.31728 0.61578 -0.02122
 H2747 H 0.34474 0.61459 -0.00303
 H2748 H 0.37671 0.59931 -0.00140
 H2749 H 0.34769 0.54518 0.02140
 H2750 H 0.31543 0.55973 0.01743
 H2751 H 0.37362 0.53149 0.00438
 H2752 H 0.40598 0.51621 0.00435
 H2753 H 0.43424 0.57335 0.01555
 H2754 H 0.40170 0.58863 0.01723
 C2755 C -0.19472 0.09417 0.50184
 C2756 C -0.21090 0.09110 0.51549
 C2757 C -0.22892 0.10061 0.51296
 C2758 C -0.23148 0.11354 0.49669
 C2759 C -0.21494 0.11680 0.48333
 C2760 C -0.19717 0.10693 0.48558
 C2761 C -0.17518 0.08464 0.50468
 C2762 C -0.15721 0.09444 0.49843
 C2763 C -0.13895 0.08530 0.50018
 C2764 C -0.13795 0.06624 0.50875
 C2765 C -0.15586 0.05666 0.51559
 C2766 C -0.17423 0.06565 0.51342
 C2767 C -0.11839 0.05629 0.50991
 C2768 C -0.11723 0.03544 0.50822
 C2769 C -0.09880 0.02625 0.50812
 C2770 C -0.08105 0.03770 0.50921
 C2771 C -0.08209 0.05842 0.51123
 C2772 C -0.10054 0.06758 0.51187
 H2773 H -0.20953 0.08179 0.52849
 H2774 H -0.24085 0.09821 0.52406
 H2775 H -0.21515 0.12743 0.47128
 H2776 H -0.18523 0.10957 0.47455
 H2777 H -0.15714 0.10928 0.49212
 H2778 H -0.12566 0.09313 0.49440
 H2779 H -0.15579 0.04216 0.52263
 H2780 H -0.18768 0.05750 0.51830
 H2781 H -0.13047 0.02618 0.50631
 H2782 H -0.09837 0.01024 0.50637
 H2783 H -0.06861 0.06756 0.51235
 H2784 H -0.10073 0.08356 0.51380
 C2785 C 0.69289 0.09094 0.49416
 C2786 C 0.71108 0.08102 0.49371
 C2787 C 0.72931 0.09175 0.49397
 C2788 C 0.72984 0.11273 0.49540
 C2789 C 0.71151 0.12248 0.49518
 C2790 C 0.69346 0.11185 0.49444
 C2791 C 0.67330 0.07979 0.49453
 C2792 C 0.65666 0.08763 0.50476
 C2793 C 0.63808 0.07782 0.50468
 C2794 C 0.63558 0.05948 0.49490
 C2795 C 0.65227 0.05141 0.48489
 C2796 C 0.67085 0.06150 0.48459
 C2797 C 0.61563 0.04900 0.49531
 C2798 C 0.60936 0.03739 0.47911
 C2799 C 0.59037 0.02810 0.47952
 C2800 C 0.57714 0.03061 0.49592
 C2801 C 0.58337 0.04204 0.51209
 C2802 C 0.60243 0.05087 0.51192
 H2803 H 0.71129 0.06492 0.49339
 H2804 H 0.74281 0.08341 0.49293
 H2805 H 0.71121 0.13859 0.49568
 H2806 H 0.67992 0.12016 0.49397
 H2807 H 0.65791 0.10141 0.51300
 H2808 H 0.62562 0.08484 0.51221
 H2809 H 0.65107 0.03720 0.47740
 H2810 H 0.68321 0.05505 0.47636
 H2811 H 0.61892 0.03578 0.46593
 H2812 H 0.58587 0.01934 0.46685
 H2813 H 0.57359 0.04388 0.52510
 H2814 H 0.60682 0.05905 0.52498
 C2815 C 0.19474 0.59440 0.99491
 C2816 C 0.21287 0.58471 0.99191
 C2817 C 0.23110 0.59504 0.99410
 C2818 C 0.23164 0.61529 0.99976
 C2819 C 0.21329 0.62478 1.00271
 C2820 C 0.19521 0.61448 1.00058
 C2821 C 0.17530 0.58396 0.99177
 C2822 C 0.15993 0.59396 0.98265
 C2823 C 0.14115 0.58482 0.98089
 C2824 C 0.13729 0.56540 0.98810
 C2825 C 0.15283 0.55509 0.99657
 C2826 C 0.17166 0.56428 0.99841
 C2827 C 0.11690 0.55633 0.98753
 C2828 C 0.11390 0.53628 0.98222
 C2829 C 0.09467 0.52767 0.98242
 C2830 C 0.07804 0.53889 0.98814
 C2831 C 0.08106 0.55903 0.99316
 C2832 C 0.10025 0.56766 0.99280
 H2833 H 0.21298 0.56931 0.98716
 H2834 H 0.24465 0.58727 0.99056
 H2835 H 0.21299 0.64044 1.00646
 H2836 H 0.18153 0.62235 1.00325
 H2837 H 0.16240 0.60895 0.97693
 H2838 H 0.12958 0.59298 0.97394
 H2839 H 0.15023 0.54016 1.00241
 H2840 H 0.18315 0.55624 1.00561
 H2841 H 0.12644 0.52727 0.97790
 H2842 H 0.09289 0.51211 0.97849
 H2843 H 0.06861 0.56812 0.99761
 H2844 H 0.10212 0.58309 0.99718
 C2845 C 0.19122 0.40770 0.49387
 C2846 C 0.20982 0.41701 0.48913
 C2847 C 0.22746 0.40666 0.49099
 C2848 C 0.22694 0.38685 0.49810
 C2849 C 0.20812 0.37748 0.50195
 C2850 C 0.19063 0.38782 0.50030
 C2851 C 0.17235 0.41845 0.49217
 C2852 C 0.15516 0.40832 0.48572
 C2853 C 0.13691 0.41767 0.48588
 C2854 C 0.13540 0.43754 0.49213
 C2855 C 0.15276 0.44796 0.49782
 C2856 C 0.17104 0.43848 0.49791
 C2857 C 0.11565 0.44698 0.49333
 C2858 C 0.11078 0.46016 0.50888
 C2859 C 0.09183 0.46820 0.51054
 C2860 C 0.07727 0.46296 0.49688
 C2861 C 0.08214 0.44995 0.48125
 C2862 C 0.10116 0.44221 0.47938
 H2863 H 0.21071 0.43216 0.48355
 H2864 H 0.24136 0.41411 0.48636
 H2865 H 0.20697 0.36200 0.50652
 H2866 H 0.17661 0.38018 0.50424
 H2867 H 0.15572 0.39301 0.48079
 H2868 H 0.12387 0.40907 0.48163
 H2869 H 0.15222 0.46339 0.50238
 H2870 H 0.18399 0.44667 0.50303
 H2871 H 0.12143 0.46391 0.52009
 H2872 H 0.08843 0.47816 0.52278
 H2873 H 0.07129 0.44593 0.47031
 H2874 H 0.10450 0.43249 0.46695
 C2875 C 0.68873 0.91083 -0.00112
 C2876 C 0.68780 0.88995 -0.00064
 C2877 C 0.70516 0.87913 -0.00128
 C2878 C 0.72415 0.88876 -0.00215
 C2879 C 0.72496 0.90968 -0.00450
 C2880 C 0.70747 0.92057 -0.00362
 C2881 C 0.67011 0.92216 0.00123
 C2882 C 0.66737 0.93963 -0.00979
 C2883 C 0.64938 0.94960 -0.00803
 C2884 C 0.63377 0.94218 0.00464
 C2885 C 0.63667 0.92504 0.01599
 C2886 C 0.65466 0.91522 0.01441
 C2887 C 0.61418 0.95172 0.00549
 C2888 C 0.59663 0.94002 0.00403
 C2889 C 0.57808 0.94886 0.00443
 C2890 C 0.57667 0.96958 0.00653
 C2891 C 0.59422 0.98128 0.00830
 C2892 C 0.61284 0.97244 0.00760
 H2893 H 0.67360 0.88189 0.00039
 H2894 H 0.70382 0.86303 -0.00042
 H2895 H 0.73893 0.91783 -0.00694
 H2896 H 0.70869 0.93666 -0.00448
 H2897 H 0.67889 0.94528 -0.02019
 H2898 H 0.64741 0.96274 -0.01704
 H2899 H 0.62497 0.91922 0.02610
 H2900 H 0.65646 0.90214 0.02353
 H2901 H 0.59729 0.92403 0.00223
 H2902 H 0.56482 0.93944 0.00310
 H2903 H 0.59359 0.99730 0.00984
 H2904 H 0.62618 0.98174 0.00887
 C2905 C -0.00824 0.80733 0.91119
 C2906 C -0.00197 0.80756 0.89107
 C2907 C -0.00098 0.78993 0.88028
 C2908 C -0.00558 0.77132 0.88937
 C2909 C -0.01313 0.77130 0.90927
 C2910 C -0.01422 0.78907 0.92010
 C2911 C -0.00854 0.82626 0.92253
 C2912 C -0.02485 0.83094 0.93520
 C2913 C -0.02556 0.84956 0.94454
 C2914 C -0.00996 0.86378 0.94138
 C2915 C 0.00664 0.85874 0.92930
 C2916 C 0.00733 0.84023 0.91999
 C2917 C -0.01104 0.88405 0.95009
 C2918 C -0.00457 0.90073 0.93869
 C2919 C -0.00465 0.91979 0.94690
 C2920 C -0.01126 0.92271 0.96674
 C2921 C -0.01822 0.90607 0.97803
 C2922 C -0.01813 0.88694 0.96978
 H2923 H 0.00199 0.82148 0.88356
 H2924 H 0.00366 0.79081 0.86469
 H2925 H -0.01838 0.75764 0.91651
 H2926 H -0.01952 0.78851 0.93551
 H2927 H -0.03734 0.82050 0.93733
 H2928 H -0.03859 0.85306 0.95370
 H2929 H 0.01912 0.86917 0.92697
 H2930 H 0.02029 0.83687 0.91066
 H2931 H 0.00058 0.89905 0.92334
 H2932 H 0.00065 0.93222 0.93767
 H2933 H -0.02342 0.90778 0.99336
 H2934 H -0.02313 0.87436 0.97895
 C2935 C 0.49529 0.29693 0.41018
 C2936 C 0.50879 0.29509 0.39391
 C2937 C 0.50972 0.27743 0.38315
 C2938 C 0.49746 0.26066 0.38852
 C2939 C 0.48316 0.26299 0.40422
 C2940 C 0.48228 0.28075 0.41509
 C2941 C 0.49467 0.31595 0.42146
 C2942 C 0.47645 0.32399 0.42795
 C2943 C 0.47603 0.34269 0.43713
 C2944 C 0.49381 0.35374 0.43987
 C2945 C 0.51203 0.34541 0.43398
 C2946 C 0.51246 0.32673 0.42498
 C2947 C 0.49352 0.37415 0.44822
 C2948 C 0.50539 0.38947 0.43921
 C2949 C 0.50569 0.40863 0.44720
 C2950 C 0.49425 0.41293 0.46451
 C2951 C 0.48217 0.39765 0.47342
 C2952 C 0.48172 0.37848 0.46527
 H2953 H 0.51840 0.30756 0.38913
 H2954 H 0.51983 0.27731 0.37026
 H2955 H 0.47269 0.25093 0.40816
 H2956 H 0.47151 0.28174 0.42741
 H2957 H 0.46247 0.31616 0.42531
 H2958 H 0.46178 0.34882 0.44146
 H2959 H 0.52598 0.35343 0.43629
 H2960 H 0.52678 0.32077 0.42062
 H2961 H 0.51442 0.38661 0.42589
 H2962 H 0.51516 0.42001 0.43994
 H2963 H 0.47313 0.40047 0.48673
 H2964 H 0.47250 0.36691 0.47253
 C2965 C 0.00775 0.29936 0.58366
 C2966 C -0.00951 0.28746 0.58748
 C2967 C -0.00894 0.27061 0.59961
 C2968 C 0.00875 0.26553 0.60888
 C2969 C 0.02648 0.27607 0.60286
 C2970 C 0.02591 0.29301 0.59080
 C2971 C 0.00657 0.31888 0.57336
 C2972 C 0.02195 0.32587 0.56015
 C2973 C 0.02135 0.34490 0.55172
 C2974 C 0.00536 0.35736 0.55634
 C2975 C -0.01021 0.35018 0.56919
 C2976 C -0.00959 0.33121 0.57762
 C2977 C 0.00505 0.37792 0.54816
 C2978 C -0.00168 0.39368 0.56014
 C2979 C -0.00222 0.41300 0.55248
 C2980 C 0.00403 0.41706 0.53266
 C2981 C 0.01093 0.40132 0.52072
 C2982 C 0.01142 0.38198 0.52838
 H2983 H -0.02359 0.29143 0.58145
 H2984 H -0.02264 0.26205 0.60259
 H2985 H 0.04085 0.27164 0.60779
 H2986 H 0.03961 0.30154 0.58773
 H2987 H 0.03451 0.31667 0.55640
 H2988 H 0.03364 0.35004 0.54198
 H2989 H -0.02288 0.35928 0.57281
 H2990 H -0.02155 0.32643 0.58795
 H2991 H -0.00634 0.39112 0.57555
 H2992 H -0.00749 0.42475 0.56215
 H2993 H 0.01579 0.40389 0.50536
 H2994 H 0.01648 0.37014 0.51872
 C2995 C 0.50550 0.80836 0.08766
 C2996 C 0.48785 0.79683 0.09071
 C2997 C 0.48776 0.77930 0.10194
 C2998 C 0.50512 0.77320 0.11118
 C2999 C 0.52320 0.78351 0.10591
 C3000 C 0.52331 0.80107 0.09472
 C3001 C 0.50518 0.82831 0.07804
 C3002 C 0.52098 0.83516 0.06526
 C3003 C 0.52117 0.85445 0.05735
 C3004 C 0.50556 0.86735 0.06203
 C3005 C 0.48961 0.86038 0.07454
 C3006 C 0.48943 0.84112 0.08246
 C3007 C 0.50589 0.88801 0.05398
 C3008 C 0.49926 0.90390 0.06585
 C3009 C 0.49909 0.92324 0.05814
 C3010 C 0.50557 0.92718 0.03835
 C3011 C 0.51251 0.91133 0.02659
 C3012 C 0.51264 0.89200 0.03430
 H3013 H 0.47401 0.80155 0.08468
 H3014 H 0.47382 0.77094 0.10423
 H3015 H 0.53733 0.77837 0.11079
 H3016 H 0.53729 0.80929 0.09224
 H3017 H 0.53324 0.82561 0.06140
 H3018 H 0.53375 0.85939 0.04788
 H3019 H 0.47720 0.86981 0.07820
 H3020 H 0.47716 0.83644 0.09247
 H3021 H 0.49430 0.90140 0.08119
 H3022 H 0.49375 0.93508 0.06766
 H3023 H 0.51758 0.91378 0.01127
 H3024 H 0.51763 0.88008 0.02468
 C3025 C 0.50125 0.70227 0.08702
 C3026 C 0.48373 0.70969 0.09588
 C3027 C 0.48435 0.72699 0.10734
 C3028 C 0.50268 0.73692 0.11107
 C3029 C 0.51974 0.73075 0.10012
 C3030 C 0.51913 0.71343 0.08863
 C3031 C 0.50096 0.68254 0.07701
 C3032 C 0.51644 0.66926 0.07975
 C3033 C 0.51558 0.65013 0.07164
 C3034 C 0.49920 0.64377 0.06061
 C3035 C 0.48389 0.65717 0.05755
 C3036 C 0.48477 0.67633 0.06564
 C3037 C 0.49805 0.62322 0.05246
 C3038 C 0.49064 0.61968 0.03347
 C3039 C 0.48981 0.60041 0.02569
 C3040 C 0.49643 0.58418 0.03667
 C3041 C 0.50364 0.58768 0.05576
 C3042 C 0.50441 0.60696 0.06356
 H3043 H 0.46957 0.70175 0.09458
 H3044 H 0.47041 0.73224 0.11360
 H3045 H 0.53382 0.73888 0.10121
 H3046 H 0.53275 0.70860 0.08123
 H3047 H 0.52901 0.67347 0.08863
 H3048 H 0.52777 0.64030 0.07401
 H3049 H 0.47099 0.65271 0.04926
 H3050 H 0.47270 0.68625 0.06307
 H3051 H 0.48584 0.63188 0.02443
 H3052 H 0.48423 0.59831 0.01091
 H3053 H 0.50877 0.57554 0.06468
 H3054 H 0.50987 0.60913 0.07838
 C3055 C 0.00321 0.19466 0.58696
 C3056 C 0.02140 0.20540 0.58799
 C3057 C 0.02277 0.22275 0.59938
 C3058 C 0.00622 0.22938 0.61083
 C3059 C -0.01240 0.21961 0.60800
 C3060 C -0.01378 0.20230 0.59662
 C3061 C 0.00202 0.17519 0.57653
 C3062 C -0.01470 0.16979 0.56552
 C3063 C -0.01642 0.15086 0.55701
 C3064 C -0.00148 0.13690 0.55933
 C3065 C 0.01545 0.14249 0.56993
 C3066 C 0.01717 0.16139 0.57843
 C3067 C -0.00361 0.11650 0.55100
 C3068 C 0.00234 0.09994 0.56187
 C3069 C 0.00084 0.08078 0.55393
 C3070 C -0.00668 0.07768 0.53490
 C3071 C -0.01302 0.09421 0.52418
 C3072 C -0.01149 0.11340 0.53214
 H3073 H 0.03462 0.20034 0.58003
 H3074 H 0.03700 0.23072 0.59976
 H3075 H -0.02604 0.22514 0.61466
 H3076 H -0.02814 0.19464 0.59583
 H3077 H -0.02652 0.18015 0.56358
 H3078 H -0.02970 0.14699 0.54903
 H3079 H 0.02738 0.13220 0.57170
 H3080 H 0.03014 0.16500 0.58698
 H3081 H 0.00811 0.10178 0.57661
 H3082 H 0.00577 0.06841 0.56266
 H3083 H -0.01885 0.09240 0.50946
 H3084 H -0.01606 0.12586 0.52332
 C3085 C 0.50230 0.18546 0.40914
 C3086 C 0.49757 0.18559 0.38899
 C3087 C 0.49571 0.20352 0.37883
 C3088 C 0.49793 0.22202 0.38855
 C3089 C 0.50306 0.22177 0.40876
 C3090 C 0.50498 0.20375 0.41893
 C3091 C 0.50475 0.16625 0.41969
 C3092 C 0.49744 0.16346 0.43940
 C3093 C 0.49886 0.14500 0.44886
 C3094 C 0.50757 0.12893 0.43878
 C3095 C 0.51537 0.13189 0.41929
 C3096 C 0.51402 0.15033 0.40988
 C3097 C 0.50777 0.10892 0.44818
 C3098 C 0.50277 0.09188 0.43712
 C3099 C 0.50218 0.07305 0.44598
 C3100 C 0.50667 0.07074 0.46610
 C3101 C 0.51203 0.08775 0.47709
 C3102 C 0.51247 0.10666 0.46824
 H3103 H 0.49529 0.17178 0.38099
 H3104 H 0.49256 0.20299 0.36315
 H3105 H 0.50639 0.23537 0.41668
 H3106 H 0.50919 0.20414 0.43432
 H3107 H 0.49006 0.17537 0.44730
 H3108 H 0.49254 0.14309 0.46383
 H3109 H 0.52249 0.11990 0.41129
 H3110 H 0.52025 0.15212 0.39487
 H3111 H 0.49884 0.09317 0.42170
 H3112 H 0.49803 0.06029 0.43704
 H3113 H 0.51555 0.08651 0.49263
 H3114 H 0.51655 0.11952 0.47707
 C3115 C 0.00137 0.69526 0.90711
 C3116 C -0.01043 0.69665 0.89043
 C3117 C -0.01285 0.71492 0.88110
 C3118 C -0.00401 0.73265 0.88846
 C3119 C 0.00836 0.73099 0.90490
 C3120 C 0.01069 0.71263 0.91433
 C3121 C 0.00425 0.67558 0.91647
 C3122 C 0.00308 0.67328 0.93726
 C3123 C 0.00447 0.65441 0.94590
 C3124 C 0.00716 0.63748 0.93391
 C3125 C 0.00900 0.63994 0.91315
 C3126 C 0.00754 0.65875 0.90454
 C3127 C 0.00727 0.61722 0.94288
 C3128 C -0.00251 0.60112 0.93367
 C3129 C -0.00295 0.58214 0.94223
 C3130 C 0.00634 0.57877 0.96029
 C3131 C 0.01632 0.59484 0.96943
 C3132 C 0.01677 0.61385 0.96082
 H3133 H -0.01772 0.68349 0.88443
 H3134 H -0.02129 0.71495 0.86770
 H3135 H 0.01659 0.74386 0.91026
 H3136 H 0.02030 0.71191 0.92688
 H3137 H 0.00043 0.68598 0.94680
 H3138 H 0.00279 0.65299 0.96192
 H3139 H 0.01153 0.62729 0.90352
 H3140 H 0.00893 0.66014 0.88849
 H3141 H -0.01025 0.60326 0.92001
 H3142 H -0.01084 0.57018 0.93480
 H3143 H 0.02370 0.59278 0.98330
 H3144 H 0.02464 0.62589 0.96815
 C3145 C 0.24444 0.66134 0.94433
 C3146 C 0.24898 0.64110 0.94433
 C3147 C 0.25126 0.63098 0.96213
 C3148 C 0.24975 0.64082 0.98065
 C3149 C 0.24457 0.66105 0.98059
 C3150 C 0.24223 0.67123 0.96265
 C3151 C 0.24202 0.67187 0.92517
 C3152 C 0.24998 0.69126 0.92205
 C3153 C 0.24912 0.70041 0.90340
 C3154 C 0.24035 0.69029 0.88750
 C3155 C 0.23179 0.67120 0.89081
 C3156 C 0.23255 0.66213 0.90945
 C3157 C 0.24080 0.69923 0.86731
 C3158 C 0.24601 0.68767 0.85062
 C3159 C 0.24688 0.69605 0.83157
 C3160 C 0.24239 0.71615 0.82876
 C3161 C 0.23700 0.72766 0.84547
 C3162 C 0.23631 0.71931 0.86456
 H3163 H 0.25091 0.63304 0.93050
 H3164 H 0.25436 0.61525 0.96149
 H3165 H 0.24172 0.66902 0.99430
 H3166 H 0.23819 0.68671 0.96312
 H3167 H 0.25751 0.69907 0.93382
 H3168 H 0.25595 0.71509 0.90119
 H3169 H 0.22460 0.66324 0.87893
 H3170 H 0.22584 0.64737 0.91150
 H3171 H 0.24977 0.67221 0.85235
 H3172 H 0.25106 0.68675 0.81905
 H3173 H 0.23349 0.74320 0.84383
 H3174 H 0.23212 0.72849 0.87717
 C3175 C 0.74408 0.15794 0.43928
 C3176 C 0.74738 0.13743 0.43987
 C3177 C 0.74937 0.12764 0.45795
 C3178 C 0.74878 0.13804 0.47621
 C3179 C 0.74521 0.15865 0.47557
 C3180 C 0.74307 0.16846 0.45735
 C3181 C 0.74146 0.16809 0.41984
 C3182 C 0.74949 0.18739 0.41616
 C3183 C 0.74786 0.19640 0.39751
 C3184 C 0.73829 0.18628 0.38208
 C3185 C 0.72990 0.16720 0.38587
 C3186 C 0.73137 0.15826 0.40453
 C3187 C 0.73761 0.19532 0.36192
 C3188 C 0.74192 0.18392 0.34487
 C3189 C 0.74234 0.19262 0.32592
 C3190 C 0.73825 0.21288 0.32356
 C3191 C 0.73338 0.22414 0.34061
 C3192 C 0.73318 0.21548 0.35957
 H3193 H 0.74848 0.12883 0.42629
 H3194 H 0.75140 0.11170 0.45776
 H3195 H 0.74330 0.16725 0.48902
 H3196 H 0.74002 0.18420 0.45748
 H3197 H 0.75753 0.19531 0.42751
 H3198 H 0.75464 0.21106 0.39495
 H3199 H 0.72215 0.15919 0.37437
 H3200 H 0.72456 0.14360 0.40696
 H3201 H 0.74556 0.16838 0.34623
 H3202 H 0.74614 0.18351 0.31314
 H3203 H 0.73022 0.23980 0.33936
 H3204 H 0.72960 0.22457 0.37243
 C3205 C 0.24170 0.33864 0.44508
 C3206 C 0.23672 0.32970 0.46358
 C3207 C 0.23774 0.34078 0.48116
 C3208 C 0.24435 0.36094 0.48064
 C3209 C 0.24820 0.36993 0.46186
 C3210 C 0.24732 0.35891 0.44445
 C3211 C 0.24109 0.32714 0.42631
 C3212 C 0.23446 0.33613 0.40898
 C3213 C 0.23562 0.32627 0.39082
 C3214 C 0.24305 0.30695 0.38953
 C3215 C 0.24909 0.29764 0.40699
 C3216 C 0.24815 0.30766 0.42521
 C3217 C 0.24481 0.29698 0.36989
 C3218 C 0.26122 0.28516 0.36483
 C3219 C 0.26341 0.27706 0.34573
 C3220 C 0.24944 0.28099 0.33132
 C3221 C 0.23287 0.29239 0.33650
 C3222 C 0.23047 0.30010 0.35560
 H3223 H 0.23171 0.31424 0.46443
 H3224 H 0.23306 0.33353 0.49499
 H3225 H 0.25241 0.38559 0.46072
 H3226 H 0.25135 0.36628 0.43048
 H3227 H 0.22860 0.35098 0.40938
 H3228 H 0.23112 0.33406 0.37769
 H3229 H 0.25463 0.28266 0.40655
 H3230 H 0.25347 0.30040 0.43831
 H3231 H 0.27264 0.28263 0.37542
 H3232 H 0.27627 0.26823 0.34205
 H3233 H 0.22163 0.29524 0.32579
 H3234 H 0.21736 0.30861 0.35912
 C3235 C 0.74016 0.84262 0.94240
 C3236 C 0.73635 0.83252 0.96056
 C3237 C 0.73693 0.84274 0.97869
 C3238 C 0.74169 0.86335 0.97915
 C3239 C 0.74424 0.87348 0.96078
 C3240 C 0.74394 0.86328 0.94279
 C3241 C 0.74039 0.83183 0.92306
 C3242 C 0.73376 0.84108 0.90583
 C3243 C 0.73526 0.83165 0.88739
 C3244 C 0.74304 0.81250 0.88566
 C3245 C 0.74919 0.80299 0.90298
 C3246 C 0.74798 0.81258 0.92143
 C3247 C 0.74484 0.80268 0.86584
 C3248 C 0.76088 0.79030 0.86102
 C3249 C 0.76265 0.78143 0.84224
 C3250 C 0.74863 0.78504 0.82777
 C3251 C 0.73265 0.79740 0.83253
 C3252 C 0.73066 0.80593 0.85137
 H3253 H 0.73265 0.81672 0.96077
 H3254 H 0.73332 0.83441 0.99217
 H3255 H 0.74716 0.88943 0.96044
 H3256 H 0.74710 0.87163 0.92920
 H3257 H 0.72745 0.85572 0.90652
 H3258 H 0.73063 0.83962 0.87442
 H3259 H 0.75494 0.78811 0.90232
 H3260 H 0.75341 0.80506 0.93433
 H3261 H 0.77228 0.78770 0.87161
 H3262 H 0.77516 0.77201 0.83892
 H3263 H 0.72142 0.80017 0.82178
 H3264 H 0.71784 0.81493 0.85463
 C3265 C 0.74388 0.84127 0.05407
 C3266 C 0.73024 0.85646 0.05210
 C3267 C 0.72964 0.86731 0.03447
 C3268 C 0.74219 0.86286 0.01778
 C3269 C 0.75635 0.84796 0.02019
 C3270 C 0.75710 0.83723 0.03802
 C3271 C 0.74460 0.83041 0.07323
 C3272 C 0.76284 0.82764 0.08228
 C3273 C 0.76323 0.81904 0.10124
 C3274 C 0.74541 0.81286 0.11137
 C3275 C 0.72724 0.81510 0.10203
 C3276 C 0.72684 0.82385 0.08320
 C3277 C 0.74565 0.80451 0.13181
 C3278 C 0.73362 0.78776 0.13718
 C3279 C 0.73364 0.78004 0.15650
 C3280 C 0.74558 0.78900 0.17093
 C3281 C 0.75748 0.80588 0.16558
 C3282 C 0.75758 0.81350 0.14620
 H3283 H 0.72041 0.86041 0.06451
 H3284 H 0.71962 0.87960 0.03441
 H3285 H 0.76696 0.84471 0.00819
 H3286 H 0.76799 0.82576 0.03927
 H3287 H 0.77672 0.83271 0.07498
 H3288 H 0.77745 0.81729 0.10802
 H3289 H 0.71328 0.81060 0.10953
 H3290 H 0.71260 0.82570 0.07648
 H3291 H 0.72436 0.78046 0.12635
 H3292 H 0.72427 0.76703 0.16011
 H3293 H 0.76691 0.81311 0.17631
 H3294 H 0.76680 0.82659 0.14253
 C3295 C 0.24896 0.34334 0.55650
 C3296 C 0.23671 0.35972 0.55461
 C3297 C 0.23541 0.36937 0.53639
 C3298 C 0.24568 0.36245 0.51915
 C3299 C 0.25855 0.34641 0.52137
 C3300 C 0.25991 0.33677 0.53971
 C3301 C 0.25059 0.33361 0.57614
 C3302 C 0.25089 0.31277 0.57782
 C3303 C 0.25152 0.30373 0.59653
 C3304 C 0.25189 0.31536 0.61389
 C3305 C 0.25186 0.33620 0.61212
 C3306 C 0.25131 0.34522 0.59348
 C3307 C 0.25208 0.30594 0.63383
 C3308 C 0.26364 0.31446 0.64877
 C3309 C 0.26329 0.30613 0.66779
 C3310 C 0.25150 0.28897 0.67229
 C3311 C 0.24011 0.28026 0.65729
 C3312 C 0.24037 0.28870 0.63826
 H3313 H 0.22815 0.36522 0.56730
 H3314 H 0.22659 0.38256 0.53610
 H3315 H 0.26775 0.34143 0.50889
 H3316 H 0.26994 0.32452 0.54087
 H3317 H 0.25023 0.30347 0.56472
 H3318 H 0.25177 0.28764 0.59742
 H3319 H 0.25191 0.34558 0.62520
 H3320 H 0.25141 0.36132 0.59264
 H3321 H 0.27309 0.32754 0.64572
 H3322 H 0.27242 0.31308 0.67893
 H3323 H 0.23082 0.26707 0.66031
 H3324 H 0.23109 0.28195 0.62713
 C3325 C 0.75516 0.15760 0.55231
 C3326 C 0.73971 0.14342 0.55003
 C3327 C 0.73702 0.13406 0.53181
 C3328 C 0.74958 0.13871 0.51494
 C3329 C 0.76500 0.15320 0.51738
 C3330 C 0.76756 0.16272 0.53570
 C3331 C 0.75868 0.16611 0.57229
 C3332 C 0.76166 0.18670 0.57494
 C3333 C 0.76357 0.19462 0.59408
 C3334 C 0.76275 0.18208 0.61095
 C3335 C 0.76048 0.16141 0.60811
 C3336 C 0.75839 0.15356 0.58905
 C3337 C 0.76357 0.19048 0.63146
 C3338 C 0.75183 0.18190 0.64721
 C3339 C 0.75197 0.19010 0.66631
 C3340 C 0.76371 0.20724 0.67016
 C3341 C 0.77570 0.21565 0.65451
 C3342 C 0.77567 0.20734 0.63543
 H3343 H 0.72989 0.13920 0.56259
 H3344 H 0.72561 0.12240 0.53153
 H3345 H 0.77552 0.15666 0.50517
 H3346 H 0.77978 0.17345 0.53712
 H3347 H 0.76185 0.19671 0.56227
 H3348 H 0.76507 0.21062 0.59568
 H3349 H 0.76029 0.15125 0.62064
 H3350 H 0.75650 0.13758 0.58741
 H3351 H 0.74206 0.16912 0.64469
 H3352 H 0.74243 0.18332 0.67793
 H3353 H 0.78501 0.22879 0.65695
 H3354 H 0.78515 0.21415 0.62378
 C3355 C 0.25943 0.65978 0.05598
 C3356 C 0.24529 0.64411 0.05490
 C3357 C 0.24189 0.63464 0.03689
 C3358 C 0.25230 0.64074 0.01913
 C3359 C 0.26677 0.65636 0.02049
 C3360 C 0.26999 0.66602 0.03858
 C3361 C 0.26347 0.66890 0.07551
 C3362 C 0.26366 0.68965 0.07796
 C3363 C 0.26545 0.69797 0.09692
 C3364 C 0.26725 0.68567 0.11371
 C3365 C 0.26809 0.66496 0.11097
 C3366 C 0.26612 0.65668 0.09211
 C3367 C 0.26700 0.69417 0.13413
 C3368 C 0.25640 0.68416 0.14977
 C3369 C 0.25520 0.69239 0.16879
 C3370 C 0.26446 0.71094 0.17270
 C3371 C 0.27538 0.72083 0.15716
 C3372 C 0.27664 0.71253 0.13809
 H3373 H 0.23703 0.63894 0.06816
 H3374 H 0.23164 0.62193 0.03725
 H3375 H 0.27593 0.66078 0.00754
 H3376 H 0.28126 0.67786 0.03913
 H3377 H 0.26159 0.69935 0.06537
 H3378 H 0.26458 0.71396 0.09853
 H3379 H 0.26998 0.65510 0.12348
 H3380 H 0.26640 0.64064 0.09052
 H3381 H 0.24848 0.67019 0.14719
 H3382 H 0.24658 0.68438 0.18033
 H3383 H 0.28277 0.73511 0.15967
 H3384 H 0.28513 0.72049 0.12643
 C3385 C 0.15936 0.55443 0.74974
 C3386 C 0.16894 0.53625 0.75174
 C3387 C 0.15837 0.51810 0.74958
 C3388 C 0.13802 0.51772 0.74490
 C3389 C 0.12864 0.53614 0.74307
 C3390 C 0.13915 0.55412 0.74519
 C3391 C 0.17005 0.57382 0.75271
 C3392 C 0.16038 0.58931 0.76283
 C3393 C 0.16953 0.60815 0.76420
 C3394 C 0.18864 0.61194 0.75559
 C3395 C 0.19872 0.59626 0.74621
 C3396 C 0.18950 0.57736 0.74477
 C3397 C 0.19752 0.63243 0.75568
 C3398 C 0.21767 0.63588 0.75985
 C3399 C 0.22588 0.65528 0.75976
 C3400 C 0.21413 0.67161 0.75530
 C3401 C 0.19398 0.66809 0.75112
 C3402 C 0.18577 0.64875 0.75137
 H3403 H 0.18443 0.53605 0.75564
 H3404 H 0.16608 0.50452 0.75233
 H3405 H 0.11291 0.53658 0.74013
 H3406 H 0.13136 0.56785 0.74333
 H3407 H 0.14560 0.58692 0.76955
 H3408 H 0.16159 0.61983 0.77189
 H3409 H 0.21342 0.59881 0.73935
 H3410 H 0.19727 0.56575 0.73681
 H3411 H 0.22702 0.62358 0.76335
 H3412 H 0.24146 0.65746 0.76301
 H3413 H 0.18449 0.68029 0.74763
 H3414 H 0.17026 0.64653 0.74784
 C3415 C 0.65557 0.05741 0.24425
 C3416 C 0.65988 0.04213 0.23067
 C3417 C 0.64988 0.02353 0.23240
 C3418 C 0.63588 0.01942 0.24822
 C3419 C 0.63138 0.03527 0.26135
 C3420 C 0.64125 0.05371 0.25956
 C3421 C 0.66545 0.07742 0.24251
 C3422 C 0.65419 0.09455 0.24539
 C3423 C 0.66346 0.11340 0.24561
 C3424 C 0.68424 0.11562 0.24288
 C3425 C 0.69551 0.09853 0.23945
 C3426 C 0.68618 0.07960 0.23920
 C3427 C 0.69401 0.13572 0.24401
 C3428 C 0.71192 0.13860 0.25394
 C3429 C 0.72069 0.15766 0.25554
 C3430 C 0.71174 0.17427 0.24722
 C3431 C 0.69383 0.17133 0.23727
 C3432 C 0.68511 0.15231 0.23567
 H3433 H 0.67058 0.04473 0.21842
 H3434 H 0.65301 0.01228 0.22129
 H3435 H 0.61978 0.03396 0.27287
 H3436 H 0.63753 0.06521 0.27022
 H3437 H 0.63815 0.09335 0.24773
 H3438 H 0.65436 0.12620 0.24846
 H3439 H 0.71153 0.09980 0.23704
 H3440 H 0.69522 0.06664 0.23702
 H3441 H 0.71899 0.12615 0.26077
 H3442 H 0.73450 0.15936 0.26328
 H3443 H 0.68658 0.18372 0.23054
 H3444 H 0.67145 0.15056 0.22770
 C3445 C 0.84472 0.05636 0.75810
 C3446 C 0.85968 0.05333 0.74347
 C3447 C 0.86929 0.03531 0.74220
 C3448 C 0.86387 0.01925 0.75517
 C3449 C 0.84934 0.02276 0.77041
 C3450 C 0.83959 0.04092 0.77161
 C3451 C 0.83494 0.07585 0.75917
 C3452 C 0.81411 0.07693 0.76132
 C3453 C 0.80496 0.09536 0.76033
 C3454 C 0.81650 0.11301 0.75732
 C3455 C 0.83735 0.11188 0.75578
 C3456 C 0.84645 0.09354 0.75673
 C3457 C 0.80700 0.13256 0.75532
 C3458 C 0.81555 0.14967 0.76392
 C3459 C 0.80730 0.16826 0.76128
 C3460 C 0.79021 0.17024 0.75003
 C3461 C 0.78150 0.15309 0.74160
 C3462 C 0.78982 0.13444 0.74421
 H3463 H 0.86405 0.06501 0.73292
 H3464 H 0.88134 0.03443 0.73117
 H3465 H 0.84551 0.01135 0.78142
 H3466 H 0.82839 0.04306 0.78335
 H3467 H 0.80490 0.06350 0.76312
 H3468 H 0.78887 0.09580 0.76182
 H3469 H 0.84666 0.12515 0.75326
 H3470 H 0.86256 0.09317 0.75528
 H3471 H 0.82860 0.14867 0.77281
 H3472 H 0.81430 0.18108 0.76820
 H3473 H 0.76831 0.15406 0.73289
 H3474 H 0.78304 0.12156 0.73719
 C3475 C 0.34396 0.55703 0.25309
 C3476 C 0.36471 0.55676 0.25492
 C3477 C 0.37445 0.53885 0.25625
 C3478 C 0.36396 0.52036 0.25564
 C3479 C 0.34328 0.52062 0.25255
 C3480 C 0.33338 0.53869 0.25174
 C3481 C 0.33371 0.57644 0.25247
 C3482 C 0.31674 0.57891 0.24114
 C3483 C 0.30764 0.59738 0.24030
 C3484 C 0.31547 0.61399 0.25049
 C3485 C 0.33245 0.61145 0.26177
 C3486 C 0.34120 0.59295 0.26300
 C3487 C 0.30613 0.63387 0.24945
 C3488 C 0.30700 0.64710 0.26565
 C3489 C 0.29893 0.66596 0.26457
 C3490 C 0.28924 0.67190 0.24752
 C3491 C 0.28790 0.65869 0.23145
 C3492 C 0.29649 0.63998 0.23229
 H3493 H 0.37362 0.57044 0.25510
 H3494 H 0.39047 0.53940 0.25772
 H3495 H 0.33463 0.50703 0.25048
 H3496 H 0.31740 0.53822 0.25012
 H3497 H 0.31062 0.56668 0.23263
 H3498 H 0.29440 0.59855 0.23173
 H3499 H 0.33926 0.62383 0.26953
 H3500 H 0.35392 0.59166 0.27230
 H3501 H 0.31368 0.64287 0.27937
 H3502 H 0.29981 0.67575 0.27732
 H3503 H 0.28050 0.66299 0.21811
 H3504 H 0.29578 0.63045 0.21935
 C3505 C 0.34362 0.44406 0.26503
 C3506 C 0.33795 0.46086 0.27598
 C3507 C 0.34811 0.47921 0.27291
 C3508 C 0.36350 0.48150 0.25808
 C3509 C 0.36928 0.46423 0.24760
 C3510 C 0.35938 0.44596 0.25087
 C3511 C 0.33364 0.42432 0.26844
 C3512 C 0.34515 0.40739 0.27065
 C3513 C 0.33613 0.38842 0.27155
 C3514 C 0.31538 0.38588 0.27003
 C3515 C 0.30376 0.40292 0.26874
 C3516 C 0.31282 0.42199 0.26804
 C3517 C 0.30619 0.36552 0.26858
 C3518 C 0.28737 0.36079 0.27751
 C3519 C 0.27864 0.34174 0.27542
 C3520 C 0.28856 0.32700 0.26438
 C3521 C 0.30746 0.33171 0.25565
 C3522 C 0.31611 0.35070 0.25766
 H3523 H 0.32610 0.45963 0.28733
 H3524 H 0.34408 0.49163 0.28231
 H3525 H 0.38196 0.46448 0.23720
 H3526 H 0.36419 0.43316 0.24238
 H3527 H 0.36122 0.40885 0.27133
 H3528 H 0.34547 0.37568 0.27310
 H3529 H 0.28777 0.40150 0.26740
 H3530 H 0.30366 0.43483 0.26625
 H3531 H 0.27942 0.37178 0.28619
 H3532 H 0.26409 0.33861 0.28241
 H3533 H 0.31551 0.32080 0.24694
 H3534 H 0.33043 0.35391 0.25023
 C3535 C 0.83905 0.94419 0.75536
 C3536 C 0.82960 0.96248 0.75365
 C3537 C 0.84081 0.98041 0.75279
 C3538 C 0.86176 0.98047 0.75419
 C3539 C 0.87106 0.96188 0.75434
 C3540 C 0.85992 0.94411 0.75507
 C3541 C 0.82751 0.92509 0.75754
 C3542 C 0.83393 0.91033 0.77050
 C3543 C 0.82444 0.89161 0.77137
 C3544 C 0.80817 0.88727 0.75947
 C3545 C 0.80106 0.90226 0.74721
 C3546 C 0.81069 0.92103 0.74622
 C3547 C 0.79949 0.86679 0.75908
 C3548 C 0.77877 0.86330 0.76030
 C3549 C 0.77080 0.84384 0.75975
 C3550 C 0.78344 0.82758 0.75763
 C3551 C 0.80416 0.83114 0.75642
 C3552 C 0.81210 0.85053 0.75724
 H3553 H 0.81350 0.96295 0.75337
 H3554 H 0.83290 0.99402 0.75104
 H3555 H 0.88715 0.96120 0.75455
 H3556 H 0.86772 0.93024 0.75554
 H3557 H 0.84652 0.91318 0.77981
 H3558 H 0.82996 0.88040 0.78120
 H3559 H 0.78857 0.89921 0.73782
 H3560 H 0.80546 0.93208 0.73604
 H3561 H 0.76877 0.87562 0.76182
 H3562 H 0.75476 0.84154 0.76063
 H3563 H 0.81429 0.81893 0.75484
 H3564 H 0.82813 0.85285 0.75607
 C3565 C 0.65853 0.94493 0.24776
 C3566 C 0.63764 0.94426 0.24910
 C3567 C 0.62705 0.96173 0.25002
 C3568 C 0.63689 0.98062 0.24939
 C3569 C 0.65792 0.98118 0.24973
 C3570 C 0.66859 0.96355 0.24862
 C3571 C 0.66949 0.92613 0.24534
 C3572 C 0.68719 0.92304 0.25531
 C3573 C 0.69662 0.90475 0.25382
 C3574 C 0.68844 0.88921 0.24245
 C3575 C 0.67112 0.89250 0.23204
 C3576 C 0.66183 0.91077 0.23336
 C3577 C 0.69739 0.86932 0.24205
 C3578 C 0.68520 0.85211 0.24488
 C3579 C 0.69352 0.83331 0.24510
 C3580 C 0.71420 0.83129 0.24227
 C3581 C 0.72636 0.84850 0.23907
 C3582 C 0.71805 0.86735 0.23912
 H3583 H 0.62939 0.93016 0.24931
 H3584 H 0.61091 0.96056 0.25056
 H3585 H 0.66634 0.99504 0.25079
 H3586 H 0.68472 0.96454 0.24804
 H3587 H 0.69339 0.93449 0.26476
 H3588 H 0.70991 0.90251 0.26209
 H3589 H 0.66472 0.88088 0.22289
 H3590 H 0.64853 0.91283 0.22505
 H3591 H 0.66924 0.85324 0.24735
 H3592 H 0.68375 0.82035 0.24756
 H3593 H 0.74236 0.84743 0.23695
 H3594 H 0.72772 0.88040 0.23678
 C3595 C 0.15680 0.44234 0.73950
 C3596 C 0.16155 0.45841 0.72656
 C3597 C 0.15166 0.47642 0.72858
 C3598 C 0.13683 0.47905 0.74371
 C3599 C 0.13169 0.46252 0.75610
 C3600 C 0.14184 0.44478 0.75438
 C3601 C 0.16704 0.42296 0.73748
 C3602 C 0.15675 0.40496 0.74237
 C3603 C 0.16650 0.38691 0.74184
 C3604 C 0.18675 0.38612 0.73583
 C3605 C 0.19690 0.40403 0.73020
 C3606 C 0.18722 0.42222 0.73118
 C3607 C 0.19724 0.36679 0.73609
 C3608 C 0.21757 0.36615 0.74048
 C3609 C 0.22703 0.34794 0.74188
 C3610 C 0.21626 0.32995 0.73945
 C3611 C 0.19610 0.33047 0.73477
 C3612 C 0.18678 0.34866 0.73281
 H3613 H 0.17259 0.45698 0.71454
 H3614 H 0.15544 0.48833 0.71811
 H3615 H 0.11950 0.46289 0.76703
 H3616 H 0.13779 0.43291 0.76480
 H3617 H 0.14108 0.40473 0.74676
 H3618 H 0.15814 0.37363 0.74663
 H3619 H 0.21237 0.40409 0.72509
 H3620 H 0.19573 0.43572 0.72740
 H3621 H 0.22611 0.37966 0.74346
 H3622 H 0.24258 0.34788 0.74561
 H3623 H 0.18757 0.31677 0.73252
 H3624 H 0.17133 0.34842 0.72878
 C3625 C 0.05254 0.74714 0.84343
 C3626 C 0.03521 0.73783 0.83636
 C3627 C 0.01681 0.73991 0.84658
 C3628 C 0.01508 0.75205 0.86366
 C3629 C 0.03278 0.76091 0.87079
 C3630 C 0.05108 0.75873 0.86070
 C3631 C 0.07231 0.74447 0.83334
 C3632 C 0.08906 0.74105 0.84465
 C3633 C 0.10800 0.74001 0.83550
 C3634 C 0.11068 0.74244 0.81479
 C3635 C 0.09382 0.74517 0.80336
 C3636 C 0.07481 0.74613 0.81255
 C3637 C 0.13109 0.74287 0.80538
 C3638 C 0.13493 0.73382 0.78685
 C3639 C 0.15415 0.73454 0.77803
 C3640 C 0.16997 0.74436 0.78753
 C3641 C 0.16609 0.75334 0.80609
 C3642 C 0.14691 0.75263 0.81487
 H3643 H 0.03600 0.72840 0.82333
 H3644 H 0.00396 0.73168 0.84131
 H3645 H 0.03274 0.76917 0.88458
 H3646 H 0.06420 0.76602 0.86658
 H3647 H 0.08753 0.73927 0.86066
 H3648 H 0.12059 0.73741 0.84467
 H3649 H 0.09541 0.74725 0.78740
 H3650 H 0.06216 0.74887 0.80350
 H3651 H 0.12311 0.72602 0.77926
 H3652 H 0.15660 0.72742 0.76375
 H3653 H 0.17784 0.76112 0.81382
 H3654 H 0.14440 0.76006 0.82898
 C3655 C 0.55382 0.23921 0.34061
 C3656 C 0.53560 0.23742 0.33097
 C3657 C 0.51738 0.23753 0.34189
 C3658 C 0.51688 0.24031 0.36273
 C3659 C 0.53526 0.24097 0.37227
 C3660 C 0.55331 0.24032 0.36148
 C3661 C 0.57337 0.24029 0.32925
 C3662 C 0.58936 0.25172 0.33660
 C3663 C 0.60793 0.25241 0.32664
 C3664 C 0.61106 0.24223 0.30858
 C3665 C 0.59500 0.23105 0.30096
 C3666 C 0.57643 0.22998 0.31123
 C3667 C 0.63105 0.24335 0.29804
 C3668 C 0.63837 0.22715 0.28695
 C3669 C 0.65757 0.22809 0.27799
 C3670 C 0.66997 0.24503 0.28039
 C3671 C 0.66265 0.26128 0.29113
 C3672 C 0.64335 0.26059 0.29956
 H3673 H 0.53533 0.23625 0.31493
 H3674 H 0.50387 0.23541 0.33384
 H3675 H 0.53564 0.24230 0.38830
 H3676 H 0.56691 0.24073 0.36964
 H3677 H 0.58760 0.26031 0.35012
 H3678 H 0.61991 0.26082 0.33335
 H3679 H 0.59668 0.22320 0.28699
 H3680 H 0.56459 0.22086 0.30515
 H3681 H 0.62951 0.21353 0.28559
 H3682 H 0.66297 0.21537 0.26976
 H3683 H 0.67182 0.27466 0.29284
 H3684 H 0.63814 0.27367 0.30729
 C3685 C 0.55687 0.75409 0.16191
 C3686 C 0.54898 0.73626 0.15413
 C3687 C 0.53184 0.73624 0.14298
 C3688 C 0.52238 0.75418 0.13874
 C3689 C 0.52897 0.77151 0.14868
 C3690 C 0.54626 0.77161 0.15961
 C3691 C 0.57643 0.75453 0.17167
 C3692 C 0.58011 0.76741 0.18767
 C3693 C 0.59890 0.76853 0.19599
 C3694 C 0.61442 0.75665 0.18863
 C3695 C 0.61060 0.74351 0.17289
 C3696 C 0.59191 0.74255 0.16445
 C3697 C 0.63450 0.75789 0.19730
 C3698 C 0.65183 0.75591 0.18512
 C3699 C 0.67064 0.75627 0.19334
 C3700 C 0.67262 0.75888 0.21391
 C3701 C 0.65537 0.76137 0.22604
 C3702 C 0.63653 0.76077 0.21785
 H3703 H 0.55613 0.72227 0.15657
 H3704 H 0.52618 0.72209 0.13760
 H3705 H 0.52123 0.78532 0.14718
 H3706 H 0.55164 0.78561 0.16564
 H3707 H 0.56849 0.77667 0.19380
 H3708 H 0.60133 0.77895 0.20798
 H3709 H 0.62206 0.73387 0.16707
 H3710 H 0.58975 0.73267 0.15196
 H3711 H 0.65088 0.75414 0.16918
 H3712 H 0.68366 0.75452 0.18356
 H3713 H 0.65638 0.76326 0.24197
 H3714 H 0.62354 0.76206 0.22773
 C3715 C 0.06213 0.24936 0.65925
 C3716 C 0.05436 0.23117 0.65217
 C3717 C 0.03693 0.23048 0.64142
 C3718 C 0.02704 0.24809 0.63685
 C3719 C 0.03371 0.26588 0.64593
 C3720 C 0.05124 0.26663 0.65648
 C3721 C 0.08170 0.25040 0.66901
 C3722 C 0.08517 0.26383 0.68462
 C3723 C 0.10386 0.26538 0.69308
 C3724 C 0.11955 0.25341 0.68630
 C3725 C 0.11600 0.23979 0.67088
 C3726 C 0.09737 0.23838 0.66229
 C3727 C 0.13947 0.25499 0.69534
 C3728 C 0.15706 0.25272 0.68362
 C3729 C 0.17571 0.25357 0.69225
 C3730 C 0.17723 0.25693 0.71276
 C3731 C 0.15970 0.25962 0.72442
 C3732 C 0.14106 0.25855 0.71584
 H3733 H 0.06176 0.21738 0.65496
 H3734 H 0.03133 0.21606 0.63670
 H3735 H 0.02576 0.27952 0.64410
 H3736 H 0.05655 0.28091 0.66192
 H3737 H 0.07341 0.27315 0.69038
 H3738 H 0.10608 0.27619 0.70477
 H3739 H 0.12758 0.23009 0.66549
 H3740 H 0.09538 0.22808 0.65011
 H3741 H 0.15646 0.25038 0.66772
 H3742 H 0.18894 0.25161 0.68282
 H3743 H 0.16032 0.26207 0.74030
 H3744 H 0.12786 0.26005 0.72540
 C3745 C 0.95624 0.25078 0.66508
 C3746 C 0.96693 0.23318 0.66302
 C3747 C 0.98433 0.23279 0.65097
 C3748 C 0.99086 0.24966 0.63969
 C3749 C 0.98163 0.26785 0.64403
 C3750 C 0.96444 0.26833 0.65632
 C3751 C 0.93602 0.25060 0.67498
 C3752 C 0.92104 0.26225 0.66725
 C3753 C 0.90162 0.26117 0.67538
 C3754 C 0.89653 0.24822 0.69133
 C3755 C 0.91157 0.23683 0.69937
 C3756 C 0.93110 0.23804 0.69132
 C3757 C 0.87556 0.24649 0.69926
 C3758 C 0.87123 0.24409 0.71976
 C3759 C 0.85147 0.24302 0.72714
 C3760 C 0.83559 0.24450 0.71420
 C3761 C 0.83991 0.24662 0.69368
 C3762 C 0.85963 0.24749 0.68630
 H3763 H 0.96137 0.21941 0.66986
 H3764 H 0.99196 0.21887 0.64935
 H3765 H 0.98731 0.28173 0.63756
 H3766 H 0.95729 0.28243 0.65858
 H3767 H 0.92413 0.27185 0.65448
 H3768 H 0.89054 0.27046 0.66906
 H3769 H 0.90816 0.22661 0.71158
 H3770 H 0.94229 0.22902 0.69781
 H3771 H 0.88311 0.24349 0.73018
 H3772 H 0.84866 0.24149 0.74305
 H3773 H 0.82803 0.24758 0.68328
 H3774 H 0.86238 0.24885 0.67038
 C3775 C 0.45160 0.75486 0.16604
 C3776 C 0.46241 0.73749 0.16290
 C3777 C 0.47978 0.73791 0.15080
 C3778 C 0.48624 0.75545 0.14055
 C3779 C 0.47676 0.77326 0.14583
 C3780 C 0.45954 0.77292 0.15814
 C3781 C 0.43157 0.75396 0.17632
 C3782 C 0.41626 0.76577 0.16949
 C3783 C 0.39700 0.76400 0.17795
 C3784 C 0.39241 0.75021 0.19331
 C3785 C 0.40778 0.73869 0.20048
 C3786 C 0.42715 0.74057 0.19211
 C3787 C 0.37160 0.74779 0.20153
 C3788 C 0.36766 0.74444 0.22198
 C3789 C 0.34802 0.74299 0.22968
 C3790 C 0.33191 0.74502 0.21712
 C3791 C 0.33585 0.74790 0.19663
 C3792 C 0.35544 0.74915 0.18893
 H3793 H 0.45702 0.72333 0.16902
 H3794 H 0.48757 0.72417 0.14848
 H3795 H 0.48235 0.78754 0.14021
 H3796 H 0.45223 0.78680 0.16121
 H3797 H 0.41898 0.77603 0.15718
 H3798 H 0.38565 0.77342 0.17233
 H3799 H 0.40476 0.72785 0.21223
 H3800 H 0.43861 0.73143 0.19792
 H3801 H 0.37974 0.74349 0.23214
 H3802 H 0.34547 0.74086 0.24556
 H3803 H 0.32378 0.74927 0.18652
 H3804 H 0.35790 0.75121 0.17304
 C3805 C 0.44158 0.24690 0.34459
 C3806 C 0.45833 0.25916 0.33956
 C3807 C 0.47618 0.25713 0.34942
 C3808 C 0.47811 0.24232 0.36414
 C3809 C 0.46082 0.23080 0.36970
 C3810 C 0.44303 0.23289 0.35995
 C3811 C 0.42241 0.24886 0.33437
 C3812 C 0.41049 0.23183 0.33052
 C3813 C 0.39194 0.23355 0.32206
 C3814 C 0.38487 0.25232 0.31707
 C3815 C 0.39697 0.26934 0.32035
 C3816 C 0.41552 0.26764 0.32899
 C3817 C 0.36483 0.25395 0.30867
 C3818 C 0.36190 0.26626 0.29217
 C3819 C 0.34321 0.26676 0.28362
 C3820 C 0.32702 0.25511 0.29153
 C3821 C 0.32987 0.24332 0.30844
 C3822 C 0.34856 0.24269 0.31685
 H3823 H 0.45770 0.27029 0.32796
 H3824 H 0.48861 0.26720 0.34553
 H3825 H 0.46062 0.22046 0.38204
 H3826 H 0.43017 0.22383 0.36487
 H3827 H 0.41551 0.21711 0.33403
 H3828 H 0.38313 0.22014 0.31931
 H3829 H 0.39184 0.28401 0.31673
 H3830 H 0.42420 0.28108 0.33195
 H3831 H 0.37420 0.27504 0.28552
 H3832 H 0.34153 0.27606 0.27064
 H3833 H 0.31777 0.23417 0.31496
 H3834 H 0.35032 0.23330 0.32974
 C3835 C 0.93998 0.75662 0.84450
 C3836 C 0.95822 0.76251 0.83501
 C3837 C 0.97613 0.76110 0.84491
 C3838 C 0.97631 0.75328 0.86443
 C3839 C 0.95776 0.74858 0.87414
 C3840 C 0.93998 0.74993 0.86427
 C3841 C 0.92088 0.75749 0.83411
 C3842 C 0.90649 0.74199 0.83665
 C3843 C 0.88805 0.74304 0.82787
 C3844 C 0.88349 0.75964 0.81630
 C3845 C 0.89803 0.77497 0.81335
 C3846 C 0.91655 0.77391 0.82217
 C3847 C 0.86360 0.76073 0.80742
 C3848 C 0.86170 0.76760 0.78784
 C3849 C 0.84309 0.76720 0.77911
 C3850 C 0.82596 0.75990 0.78978
 C3851 C 0.82779 0.75374 0.80962
 C3852 C 0.84636 0.75417 0.81832
 H3853 H 0.95864 0.76807 0.81986
 H3854 H 0.98974 0.76640 0.83730
 H3855 H 0.95705 0.74371 0.88952
 H3856 H 0.92612 0.74599 0.87227
 H3857 H 0.90953 0.72895 0.84543
 H3858 H 0.87739 0.73075 0.83002
 H3859 H 0.89491 0.78800 0.80461
 H3860 H 0.92728 0.78616 0.82009
 H3861 H 0.87471 0.77265 0.77903
 H3862 H 0.84224 0.77207 0.76381
 H3863 H 0.81492 0.74822 0.81837
 H3864 H 0.84726 0.74918 0.83358
   
