data_POSCAR
  _audit_creation_date              2014-09-24
  _audit_creation_method            'ToBaCCo'
  _symmetry_space_group_name_H-M    'P1'
  _symmetry_Int_Tables_number       1
  _symmetry_cell_setting            triclinic
  loop_
  _symmetry_equiv_pos_as_xyz
 x,y,z
_cell_length_a 65.4595
_cell_length_b 64.1283
_cell_length_c 63.8910
_cell_angle_alpha 89.936900
_cell_angle_beta 89.742300
_cell_angle_gamma 89.862400
loop_
  _atom_site_label
  _atom_site_type_symbol
  _atom_site_fract_x
  _atom_site_fract_y
  _atom_site_fract_z
C1 C 0.30562 0.45406 0.92324
 N2 N 0.29431 0.43928 0.93332
 C3 C 0.29888 0.43360 0.95324
 N4 N 0.31492 0.44255 0.96288
 C5 C 0.32674 0.45679 0.95300
 N6 N 0.32209 0.46253 0.93304
 C7 C 0.43707 0.83548 0.43463
 N8 N 0.44462 0.82695 0.41658
 C9 C 0.43632 0.80900 0.40884
 N10 N 0.42035 0.79998 0.41908
 C11 C 0.41272 0.80836 0.43690
 N12 N 0.42119 0.82598 0.44453
 C13 C 0.94508 0.92268 0.78948
 N14 N 0.92868 0.93175 0.78050
 C15 C 0.92056 0.94955 0.78836
 N16 N 0.92899 0.95838 0.80573
 C17 C 0.94585 0.94952 0.81468
 N18 N 0.95358 0.93161 0.80648
 C19 C 0.45011 -0.07670 0.28994
 N20 N 0.43143 -0.06968 0.28352
 C21 C 0.42332 -0.05190 0.29199
 N22 N 0.43384 -0.04155 0.30702
 C23 C 0.45237 -0.04842 0.31341
 N24 N 0.46032 -0.06588 0.30480
 C25 C 0.80969 0.30251 0.34379
 N26 N 0.82718 0.29469 0.33547
 C27 C 0.83566 0.30325 0.31800
 N28 N 0.82649 0.32004 0.30885
 C29 C 0.80884 0.32796 0.31703
 N30 N 0.80063 0.31911 0.33449
 C31 C -0.19501 0.82036 0.80664
 N32 N -0.17779 0.81411 0.79643
 C33 C -0.16681 0.79759 0.80356
 N34 N -0.17307 0.78745 0.82106
 C35 C -0.19013 0.79356 0.83152
 N36 N -0.20105 0.81011 0.82425
 C37 C 0.93696 0.32664 0.45362
 N38 N 0.94380 0.31817 0.43531
 C39 C 0.93346 0.30247 0.42589
 N40 N 0.91615 0.29520 0.43487
 C41 C 0.90895 0.30335 0.45305
 N42 N 0.91935 0.31920 0.46241
 C43 C 0.45514 0.43812 0.83713
 N44 N 0.44260 0.44836 0.82367
 C45 C 0.43583 0.43901 0.80604
 N46 N 0.44146 0.41913 0.80191
 C47 C 0.45396 0.40859 0.81506
 N48 N 0.46082 0.41809 0.83277
 C49 C 0.81036 0.91685 0.93938
 N50 N 0.80171 0.92629 0.92248
 C51 C 0.80982 0.94404 0.91435
 N52 N 0.82675 0.95233 0.92322
 C53 C 0.83565 0.94315 0.94006
 N54 N 0.82738 0.92536 0.94805
 C55 C 0.29667 0.82199 0.28892
 N56 N 0.31410 0.81555 0.27921
 C57 C 0.32505 0.79928 0.28692
 N58 N 0.31843 0.78937 0.30444
 C59 C 0.30098 0.79552 0.31423
 N60 N 0.29024 0.81195 0.30651
 C61 C 0.80503 0.43076 0.46183
 N62 N 0.79865 0.43748 0.44268
 C63 C 0.80876 0.45325 0.43280
 N64 N 0.82536 0.46189 0.44200
 C65 C 0.83188 0.45512 0.46089
 N66 N 0.82170 0.43957 0.47066
 C67 C 0.94935 0.84302 -0.05473
 N68 N 0.93479 0.83187 -0.04465
 C69 C 0.92885 0.81292 -0.05170
 N70 N 0.93766 0.80492 -0.06933
 C71 C 0.95262 0.81578 -0.07953
 N72 N 0.95826 0.83484 -0.07212
 C73 C 0.30157 0.33160 0.80244
 N74 N 0.29075 0.32361 0.81859
 C75 C 0.29575 0.30503 0.82721
 N76 N 0.31206 0.29416 0.81952
 C77 C 0.32283 0.30184 0.80289
 N78 N 0.31761 0.32068 0.79463
 C79 C 0.17513 0.54464 0.55281
 N80 N 0.18524 0.53511 0.56872
 C81 C 0.20397 0.54192 0.57465
 N82 N 0.21245 0.55846 0.56471
 C83 C 0.20256 0.56818 0.54883
 N84 N 0.18382 0.56128 0.54297
 C85 C 0.59480 0.69158 0.04960
 N86 N 0.58654 0.67417 0.04118
 C87 C 0.56856 0.66655 0.04840
 N88 N 0.55874 0.67649 0.06434
 C89 C 0.56685 0.69404 0.07286
 N90 N 0.58497 0.70141 0.06550
 C91 C 0.68676 0.19101 0.68211
 N92 N 0.69432 0.17276 0.68982
 C93 C 0.68591 0.16384 0.70707
 N94 N 0.66984 0.17318 0.71654
 C95 C 0.66192 0.19118 0.70902
 N96 N 0.67026 0.20003 0.69158
 C97 C 1.09032 0.07013 0.17835
 N98 N 1.08358 0.06180 0.16003
 C99 C 1.06644 0.06923 0.15053
 N100 N 1.05600 0.08525 0.15965
 C101 C 1.06248 0.09378 0.17798
 N102 N 1.07964 0.08614 0.18721
 C103 C 0.03741 0.18958 1.04675
 N104 N 0.05548 0.19609 1.03870
 C105 C 0.06749 0.20958 1.04939
 N106 N 0.06131 0.21651 1.06862
 C107 C 0.04303 0.21015 1.07676
 N108 N 0.03132 0.19677 1.06564
 C109 C 0.17366 0.69546 0.69471
 N110 N 0.18518 0.68022 0.70335
 C111 C 0.20158 0.67223 0.69314
 N112 N 0.20646 0.67955 0.67378
 C113 C 0.19510 0.69500 0.66488
 N114 N 0.17865 0.70287 0.67542
 C115 C 1.19460 0.17177 0.19922
 N116 N 1.17885 0.18233 0.20844
 C117 C 1.17253 0.20094 0.20045
 N118 N 1.18175 0.20864 0.18310
 C119 C 1.19728 0.19831 0.17367
 N120 N 1.20373 0.17986 0.18185
 C121 C 0.65224 1.06359 0.56088
 N122 N 0.66350 1.05463 0.57642
 C123 C 0.68035 1.06437 0.58406
 N124 N 0.68585 1.08317 0.57610
 C125 C 0.67494 1.09235 0.56059
 N126 N 0.65813 1.08245 0.55303
 C127 C 0.55595 0.54583 0.18115
 N128 N 0.55007 0.56444 0.18937
 C129 C 0.56128 0.57358 0.20472
 N130 N 0.57859 0.56409 0.21159
 C131 C 0.58463 0.54554 0.20337
 N132 N 0.57326 0.53655 0.18818
 C133 C 0.67178 0.69127 0.20061
 N134 N 0.68200 0.67483 0.20927
 C135 C 0.70058 0.66894 0.20157
 N136 N 0.70874 0.67951 0.18515
 C137 C 0.69879 0.69587 0.17644
 N138 N 0.68027 0.70165 0.18418
 C139 C 0.16831 0.05785 1.03978
 N140 N 0.17649 0.07686 1.03516
 C141 C 0.19427 0.08296 1.04436
 N142 N 0.20338 0.07031 1.05852
 C143 C 0.19517 0.05162 1.06358
 N144 N 0.17778 0.04545 1.05404
 C145 C 0.56525 0.20327 0.54774
 N146 N 0.55764 0.21042 0.56614
 C147 C 0.54074 0.20167 0.57484
 N148 N 0.53157 0.18533 0.56508
 C149 C 0.53899 0.17827 0.54645
 N150 N 0.55585 0.18725 0.53800
 C151 C 0.10149 0.55408 0.71233
 N152 N 0.09225 0.54271 0.69725
 C153 C 0.07360 0.54833 0.68987
 N154 N 0.06431 0.56582 0.69747
 C155 C 0.07348 0.57724 0.71271
 N156 N 0.09203 0.57126 0.71996
 C157 C 0.66265 0.55916 0.06455
 N158 N 0.67089 0.55034 0.08183
 C159 C 0.68816 0.55817 0.09051
 N160 N 0.69722 0.57524 0.08175
 C161 C 0.68902 0.58428 0.06436
 N162 N 0.67177 0.57611 0.05593
 C163 C 0.05378 0.68988 0.58100
 N164 N 0.04789 0.67149 0.57253
 C165 C 0.05863 0.66271 0.55662
 N166 N 0.07553 0.67248 0.54914
 C167 C 0.08162 0.69095 0.55747
 N168 N 0.07077 0.69952 0.57351
 C169 C 0.55218 1.04103 0.66191
 N170 N 0.56966 1.03449 0.67129
 C171 C 0.57617 1.04367 0.68925
 N172 N 0.56517 1.05968 0.69766
 C173 C 0.54766 1.06630 0.68838
 N174 N 0.54132 1.05687 0.67060
 C175 C 0.44165 0.32813 0.95006
 N176 N 0.42317 0.32066 0.95678
 C177 C 0.41484 0.30351 0.94737
 N178 N 0.42493 0.29428 0.93122
 C179 C 0.44312 0.30167 0.92444
 N180 N 0.45133 0.31846 0.93393
 C181 C 0.94219 0.44384 0.35518
 N182 N 0.95182 0.42741 0.34617
 C183 C 0.94581 0.41999 0.32728
 N184 N 0.92970 0.42913 0.31730
 C185 C 0.91999 0.44578 0.32621
 N186 N 0.92637 0.45293 0.34507
 C187 C 0.30528 0.93810 0.40476
 N188 N 0.29528 0.92103 0.41205
 C189 C 0.30173 0.91109 0.42964
 N190 N 0.31850 0.91824 0.43985
 C191 C 0.32867 0.93535 0.43275
 N192 N 0.32191 0.94518 0.41521
 O193 O 0.22316 0.53219 0.74023
 O194 O 0.22907 0.53309 0.77555
 O195 O 0.27608 0.56218 0.71316
 O196 O 0.30994 0.55773 0.71383
 O197 O 0.25344 0.50539 0.68751
 O198 O 0.25708 0.46962 0.69675
 O199 O 0.33117 0.51190 0.77237
 O200 O 0.32395 0.54651 0.76627
 O201 O 0.28020 0.48443 0.79952
 O202 O 0.24409 0.48340 0.79213
 O203 O 0.30730 0.45518 0.74779
 O204 O 0.30821 0.46051 0.71127
 O205 O 0.33304 0.48515 0.74904
 O206 O 0.32676 0.48562 0.70930
 O207 O 0.28179 0.45514 0.77204
 O208 O 0.24390 0.46205 0.76947
 O209 O 0.30364 0.51053 0.79898
 O210 O 0.29515 0.54759 0.78970
 O211 O 0.22478 0.50531 0.71696
 O212 O 0.23472 0.46901 0.72017
 O213 O 0.27719 0.53119 0.68601
 O214 O 0.31440 0.52982 0.69567
 O215 O 0.25064 0.56245 0.73756
 O216 O 0.25466 0.55680 0.77613
 Zr217 Zr 0.25270 0.53334 0.75281
 O218 O 0.27057 0.51658 0.77436
 Zr219 Zr 0.28932 0.53256 0.71654
 O220 O 0.30914 0.51677 0.73708
 Zr221 Zr 0.25513 0.49447 0.71840
 O222 O 0.27382 0.47651 0.73805
 Zr223 Zr 0.30141 0.52297 0.76843
 O224 O 0.28352 0.54134 0.74786
 Zr225 Zr 0.26763 0.48442 0.76933
 O226 O 0.24750 0.50106 0.74968
 Zr227 Zr 0.30467 0.48459 0.73360
 O228 O 0.28608 0.50034 0.71155
 O229 O 0.25857 0.52642 0.72161
 O230 O 0.29849 0.49077 0.76498
 C231 C 0.21513 0.51990 0.72668
 C232 C 0.26097 0.57089 0.72262
 C233 C 0.26320 0.51980 0.67778
 C234 C 0.34053 0.49662 0.76361
 C235 C 0.29405 0.49559 0.80819
 C236 C 0.29672 0.44644 0.76228
 H237 H 0.26671 0.52059 0.78880
 H238 H 0.27129 0.46161 0.73512
 H239 H 0.24949 0.53430 0.71210
 H240 H 0.32341 0.52088 0.73413
 H241 H 0.31704 0.55908 0.76068
 H242 H 0.31987 0.55619 0.72534
 H243 H 0.24698 0.45170 0.75842
 H244 H 0.22695 0.47060 0.73340
 H245 H 0.30638 0.54800 0.80006
 H246 H 0.24383 0.56734 0.77361
 H247 H 0.29487 0.45343 0.71010
 H248 H 0.27064 0.47071 0.68993
 H249 H 0.22475 0.51839 0.77711
 H250 H 0.24387 0.49699 0.79942
 H251 H 0.31231 0.51690 0.68751
 H252 H 0.33658 0.49684 0.71258
 O253 O 0.24893 -0.03747 0.28449
 O254 O 0.21468 -0.03292 0.27600
 O255 O 0.27576 -0.06196 0.22819
 O256 O 0.27867 -0.05272 0.19463
 O257 O 0.30508 -0.01160 0.26052
 O258 O 0.29828 0.02552 0.26210
 O259 O 0.22931 0.00070 0.17537
 O260 O 0.23114 -0.03522 0.17877
 O261 O 0.19944 0.02385 0.22829
 O262 O 0.20412 0.01773 0.26686
 O263 O 0.25345 0.05098 0.20930
 O264 O 0.28953 0.04288 0.21210
 O265 O 0.25432 0.02502 0.17924
 O266 O 0.29140 0.02137 0.18931
 O267 O 0.22760 0.05019 0.23313
 O268 O 0.22676 0.03884 0.27053
 O269 O 0.20093 0.00131 0.20092
 O270 O 0.20519 -0.03704 0.20541
 O271 O 0.27420 -0.01338 0.28823
 O272 O 0.27438 0.02388 0.28411
 O273 O 0.30530 -0.03440 0.23329
 O274 O 0.29960 -0.02690 0.19583
 O275 O 0.25079 -0.06342 0.25303
 O276 O 0.21435 -0.05347 0.24670
 Zr277 Zr 0.23867 -0.03281 0.25365
 O278 O 0.22068 -0.01183 0.23607
 Zr279 Zr 0.27674 -0.03061 0.21908
 O280 O 0.26029 -0.01007 0.19993
 Zr281 Zr 0.27563 0.00228 0.25917
 O282 O 0.25924 0.02464 0.24161
 Zr283 Zr 0.22883 -0.01444 0.20441
 O284 O 0.24531 -0.03703 0.22161
 Zr285 Zr 0.22761 0.01911 0.24400
 O286 O 0.24396 -0.00191 0.26349
 Zr287 Zr 0.26579 0.02068 0.20964
 O288 O 0.28420 0.00015 0.22747
 O289 O 0.27000 -0.02835 0.25075
 O290 O 0.23438 0.01656 0.21230
 C291 C 0.26296 -0.02835 0.29516
 C292 C 0.26510 -0.07176 0.24195
 C293 C 0.31376 -0.02565 0.24907
 C294 C 0.24029 0.01589 0.16864
 C295 C 0.19199 0.01569 0.21156
 C296 C 0.23860 0.05956 0.21933
 H297 H 0.20602 -0.01496 0.23813
 H298 H 0.26282 0.03878 0.24647
 H299 H 0.27795 -0.03835 0.25927
 H300 H 0.26426 -0.01242 0.18517
 H301 H 0.23447 -0.04910 0.18467
 H302 H 0.26925 -0.04804 0.18353
 H303 H 0.23924 0.04751 0.27026
 H304 H 0.26026 0.02335 0.28971
 H305 H 0.19649 -0.03503 0.19290
 H306 H 0.21472 -0.06523 0.25680
 H307 H 0.28844 0.04942 0.22607
 H308 H 0.30578 0.02584 0.24861
 H309 H 0.21465 -0.01900 0.28266
 H310 H 0.19466 0.00642 0.26289
 H311 H 0.30803 -0.01481 0.20002
 H312 H 0.28932 0.01066 0.17839
 O313 O 0.55366 0.72440 0.23760
 O314 O 0.54923 0.73032 0.27290
 O315 O 0.49946 0.69088 0.21994
 O316 O 0.46585 0.69572 0.21908
 O317 O 0.52110 0.74310 0.18289
 O318 O 0.51833 0.77959 0.18622
 O319 O 0.44639 0.74884 0.27097
 O320 O 0.45481 0.71414 0.27136
 O321 O 0.49791 0.78220 0.29089
 O322 O 0.53313 0.78290 0.28183
 O323 O 0.46718 0.80108 0.23714
 O324 O 0.46586 0.79126 0.20226
 O325 O 0.44256 0.77096 0.24337
 O326 O 0.44907 0.76434 0.20365
 O327 O 0.49352 0.80608 0.25960
 O328 O 0.53232 0.79950 0.25472
 O329 O 0.47456 0.75644 0.29557
 O330 O 0.48411 0.71838 0.29321
 O331 O 0.55100 0.74737 0.21050
 O332 O 0.54056 0.78443 0.20900
 O333 O 0.49832 0.71669 0.18704
 O334 O 0.46109 0.71986 0.19781
 O335 O 0.52661 0.69442 0.24172
 O336 O 0.52368 0.70687 0.27903
 Zr337 Zr 0.52471 0.72592 0.25188
 O338 O 0.50734 0.74615 0.27105
 Zr339 Zr 0.48681 0.72068 0.21775
 O340 O 0.46738 0.73909 0.23640
 Zr341 Zr 0.52057 0.75871 0.21172
 O342 O 0.50176 0.77949 0.22867
 Zr343 Zr 0.47646 0.73840 0.26794
 O344 O 0.49383 0.71708 0.24980
 Zr345 Zr 0.50918 0.77717 0.26048
 O346 O 0.52916 0.75746 0.24331
 Zr347 Zr 0.47092 0.77023 0.22723
 O348 O 0.48942 0.75161 0.20728
 O349 O 0.51762 0.72765 0.22028
 O350 O 0.47838 0.76952 0.25883
 C351 C 0.56107 0.73414 0.22170
 C352 C 0.51510 0.68361 0.22952
 C353 C 0.51157 0.72695 0.17626
 C354 C 0.43588 0.76164 0.25991
 C355 C 0.48410 0.77286 0.30168
 C356 C 0.47741 0.81231 0.24990
 H357 H 0.51176 0.74481 0.28578
 H358 H 0.50366 0.79379 0.22324
 H359 H 0.52632 0.71820 0.21183
 H360 H 0.45318 0.73412 0.23481
 H361 H 0.46197 0.70099 0.26778
 H362 H 0.45862 0.69702 0.23263
 H363 H 0.52754 0.80882 0.24340
 H364 H 0.54936 0.78427 0.22156
 H365 H 0.47330 0.71980 0.30405
 H366 H 0.53459 0.69616 0.27792
 H367 H 0.47932 0.79695 0.19820
 H368 H 0.50429 0.77816 0.18071
 H369 H 0.55366 0.74498 0.27128
 H370 H 0.53520 0.76999 0.29003
 H371 H 0.46333 0.73048 0.18678
 H372 H 0.43914 0.75414 0.20927
 O373 O 0.06089 0.72582 0.74729
 O374 O 0.05612 0.72579 0.78352
 O375 O 0.00797 0.69478 0.72329
 O376 O -0.02580 0.69913 0.72339
 O377 O 0.02888 0.75358 0.69682
 O378 O 0.02449 0.78915 0.70741
 O379 O -0.04759 0.74293 0.78244
 O380 O -0.03870 0.70831 0.77616
 O381 O 0.00205 0.77209 0.80962
 O382 O 0.03947 0.77235 0.80188
 O383 O -0.02449 0.80085 0.75955
 O384 O -0.02528 0.79583 0.72185
 O385 O -0.05020 0.77027 0.75982
 O386 O -0.04463 0.77178 0.72110
 O387 O 0.00115 0.80108 0.78344
 O388 O 0.03858 0.79530 0.78024
 O389 O -0.02069 0.74539 0.80878
 O390 O -0.01030 0.70861 0.79981
 O391 O 0.05784 0.75312 0.72463
 O392 O 0.04795 0.78905 0.72990
 O393 O 0.00663 0.72643 0.69570
 O394 O -0.03051 0.72684 0.70569
 O395 O 0.03381 0.69501 0.74701
 O396 O 0.03152 0.70082 0.78526
 Zr397 Zr 0.03183 0.72430 0.76179
 O398 O 0.01344 0.73989 0.78406
 Zr399 Zr -0.00542 0.72445 0.72635
 O400 O -0.02541 0.73952 0.74734
 Zr401 Zr 0.02763 0.76355 0.72804
 O402 O 0.00893 0.78062 0.74858
 Zr403 Zr -0.01733 0.73292 0.77843
 O404 O 0.00109 0.71553 0.75742
 Zr405 Zr 0.01558 0.77217 0.77962
 O406 O 0.03596 0.75674 0.75904
 Zr407 Zr -0.02172 0.77191 0.74439
 O408 O -0.00317 0.75685 0.72173
 O409 O 0.02514 0.73138 0.73083
 O410 O -0.01515 0.76519 0.77548
 C411 C 0.06800 0.73819 0.73309
 C412 C 0.02310 0.68617 0.73273
 C413 C 0.01982 0.73870 0.68721
 C414 C -0.05749 0.75804 0.77395
 C415 C -0.01210 0.76089 0.81792
 C416 C -0.01409 0.80952 0.77414
 H417 H 0.01734 0.73574 0.79841
 H418 H 0.01116 0.79564 0.74593
 H419 H 0.03402 0.72361 0.72098
 H420 H -0.03958 0.73507 0.74450
 H421 H -0.03115 0.69610 0.77060
 H422 H -0.03532 0.69995 0.73541
 H423 H 0.03590 0.80511 0.76861
 H424 H 0.05587 0.78719 0.74293
 H425 H -0.02161 0.70779 0.81017
 H426 H 0.04294 0.69096 0.78256
 H427 H -0.01293 0.80467 0.72237
 H428 H 0.01097 0.78770 0.70068
 H429 H 0.05995 0.74065 0.78470
 H430 H 0.03837 0.75952 0.81041
 H431 H -0.02900 0.74021 0.69807
 H432 H -0.05258 0.75877 0.72268
 O433 O 0.05075 0.05128 -0.02123
 O434 O 0.04289 0.04660 -0.05688
 O435 O -0.00345 0.07698 0.00559
 O436 O -0.03653 0.06857 0.00919
 O437 O 0.02696 0.02450 0.03469
 O438 O 0.02577 -0.01260 0.02730
 O439 O -0.05660 0.01735 -0.04433
 O440 O -0.05265 0.05325 -0.03967
 O441 O -0.00602 -0.00558 -0.07441
 O442 O 0.03236 -0.00092 -0.06900
 O443 O -0.02489 -0.03513 -0.02027
 O444 O -0.02298 -0.02759 0.01718
 O445 O -0.05403 -0.00841 -0.01991
 O446 O -0.04542 -0.00600 0.01852
 O447 O -0.00161 -0.03338 -0.04669
 O448 O 0.03418 -0.02415 -0.04779
 O449 O -0.03163 0.01837 -0.07269
 O450 O -0.02620 0.05608 -0.06598
 O451 O 0.05337 0.02525 0.00294
 O452 O 0.04747 -0.01184 0.00298
 O453 O 0.00098 0.04806 0.03579
 O454 O -0.03586 0.04213 0.02998
 O455 O 0.02042 0.07777 -0.02041
 O456 O 0.01566 0.06916 -0.05721
 Zr457 Zr 0.02078 0.04754 -0.03257
 O458 O 0.00273 0.02841 -0.05171
 Zr459 Zr -0.01332 0.04573 0.00640
 O460 O -0.03277 0.02648 -0.01123
 Zr461 Zr 0.02435 0.01119 0.00442
 O462 O 0.00662 -0.00970 -0.01338
 Zr463 Zr -0.02808 0.03200 -0.04322
 O464 O -0.01035 0.05300 -0.02561
 Zr465 Zr 0.00951 -0.00287 -0.04551
 O466 O 0.02925 0.01624 -0.02780
 Zr467 Zr -0.02457 -0.00497 -0.00690
 O468 O -0.00660 0.01425 0.01288
 O469 O 0.01748 0.04235 -0.00056
 O470 O -0.02141 0.00050 -0.03881
 C471 C 0.06074 0.04068 -0.00753
 C472 C 0.00989 0.08641 -0.00584
 C473 C 0.01640 0.03874 0.04405
 C474 C -0.06372 0.00152 -0.03434
 C475 C -0.02175 0.00382 -0.08205
 C476 C -0.01496 -0.04315 -0.03574
 H477 H 0.00495 0.03207 -0.06659
 H478 H 0.01095 -0.02413 -0.01019
 H479 H 0.02609 0.05191 0.00773
 H480 H -0.04716 0.02914 -0.00731
 H481 H -0.04657 0.06677 -0.03561
 H482 H -0.04779 0.06431 -0.00011
 H483 H 0.03476 -0.03203 -0.03449
 H484 H 0.05340 -0.01107 -0.01128
 H485 H -0.03849 0.05520 -0.07497
 H486 H 0.02651 0.07995 -0.05686
 H487 H -0.00946 -0.03444 0.01612
 H488 H 0.01275 -0.01196 0.03522
 H489 H 0.04996 0.03298 -0.05587
 H490 H 0.02832 0.01012 -0.07899
 H491 H -0.03258 0.02910 0.03761
 H492 H -0.05537 0.00547 0.01667
 O493 O 0.05560 0.51050 0.52805
 O494 O 0.04960 0.50587 0.49292
 O495 O 0.00161 0.54209 0.55027
 O496 O -0.03179 0.53627 0.55307
 O497 O 0.02699 0.48981 0.58399
 O498 O 0.02415 0.45274 0.57953
 O499 O -0.05227 0.48442 0.50071
 O500 O -0.04546 0.51949 0.50185
 O501 O -0.00012 0.45519 0.47522
 O502 O 0.03613 0.45456 0.48398
 O503 O -0.02871 0.43191 0.52918
 O504 O -0.02725 0.43854 0.56477
 O505 O -0.05393 0.46153 0.52796
 O506 O -0.04475 0.46560 0.56736
 O507 O -0.00436 0.42944 0.50386
 O508 O 0.03445 0.43455 0.50877
 O509 O -0.02492 0.48004 0.47380
 O510 O -0.01716 0.51788 0.47792
 O511 O 0.05530 0.48624 0.55416
 O512 O 0.04598 0.44945 0.55561
 O513 O 0.00259 0.51503 0.58213
 O514 O -0.03468 0.51127 0.57385
 O515 O 0.02750 0.54001 0.52651
 O516 O 0.02339 0.52898 0.48930
 Zr517 Zr 0.02609 0.50892 0.51560
 O518 O 0.00828 0.48931 0.49670
 Zr519 Zr -0.01011 0.51182 0.55219
 O520 O -0.02987 0.49341 0.53428
 Zr521 Zr 0.02506 0.47459 0.55475
 O522 O 0.00629 0.45385 0.53773
 Zr523 Zr -0.02259 0.49609 0.50235
 O524 O -0.00482 0.51701 0.52005
 Zr525 Zr 0.01176 0.45794 0.50559
 O526 O 0.03189 0.47729 0.52267
 Zr527 Zr -0.02463 0.46194 0.54160
 O528 O -0.00601 0.48053 0.56125
 O529 O 0.02073 0.50585 0.54751
 O530 O -0.01905 0.46467 0.50968
 C531 C 0.06426 0.50017 0.54281
 C532 C 0.01636 0.55012 0.53970
 C533 C 0.01693 0.50529 0.59171
 C534 C -0.06172 0.47109 0.51216
 C535 C -0.01467 0.46486 0.46587
 C536 C -0.01992 0.42231 0.51395
 H537 H 0.01195 0.49163 0.48184
 H538 H 0.00879 0.43930 0.54218
 H539 H 0.02962 0.51527 0.55566
 H540 H -0.04411 0.49778 0.53713
 H541 H -0.03866 0.53276 0.50548
 H542 H -0.04071 0.53435 0.54080
 H543 H 0.02957 0.42423 0.51916
 H544 H 0.05265 0.44898 0.54168
 H545 H -0.02860 0.51690 0.46785
 H546 H 0.03419 0.53978 0.49006
 H547 H -0.01326 0.43535 0.56954
 H548 H 0.01093 0.45486 0.58684
 H549 H 0.05480 0.49140 0.49397
 H550 H 0.03610 0.46704 0.47485
 H551 H -0.03175 0.50002 0.58405
 H552 H -0.05518 0.47605 0.56339
 O553 O 0.47035 -0.05015 0.47949
 O554 O 0.47147 -0.04815 0.51566
 O555 O 0.43722 0.00420 0.46078
 O556 O 0.43937 0.03865 0.46496
 O557 O 0.49312 -0.01169 0.42960
 O558 O 0.52843 -0.00813 0.43833
 O559 O 0.48531 0.05711 0.52311
 O560 O 0.45161 0.04813 0.51746
 O561 O 0.51645 0.00451 0.54353
 O562 O 0.51934 -0.03171 0.53146
 O563 O 0.54066 0.03949 0.49472
 O564 O 0.53508 0.04301 0.45824
 O565 O 0.50962 0.06331 0.49827
 O566 O 0.50914 0.05994 0.45812
 O567 O 0.54379 0.01163 0.51645
 O568 O 0.54027 -0.02708 0.50843
 O569 O 0.48942 0.02670 0.54602
 O570 O 0.45360 0.01658 0.53794
 O571 O 0.49504 -0.04467 0.45482
 O572 O 0.53041 -0.03368 0.45908
 O573 O 0.46621 0.01065 0.43249
 O574 O 0.46529 0.04686 0.44610
 O575 O 0.43925 -0.02441 0.48175
 O576 O 0.44652 -0.02373 0.52036
 Zr577 Zr 0.46843 -0.02185 0.49585
 O578 O 0.48473 -0.00480 0.51850
 Zr579 Zr 0.46543 0.01914 0.46414
 O580 O 0.48056 0.03812 0.48580
 Zr581 Zr 0.50476 -0.01361 0.46024
 O582 O 0.52215 0.00456 0.48116
 Zr583 Zr 0.47618 0.02663 0.51624
 O584 O 0.45843 0.00938 0.49482
 Zr585 Zr 0.51627 -0.00516 0.51201
 O586 O 0.50024 -0.02469 0.49091
 Zr587 Zr 0.51211 0.03573 0.48046
 O588 O 0.49688 0.01815 0.45727
 O589 O 0.47348 -0.01214 0.46525
 O590 O 0.50767 0.02605 0.51118
 C591 C 0.48148 -0.05611 0.46396
 C592 C 0.42983 -0.01268 0.46852
 C593 C 0.47797 -0.00147 0.42191
 C594 C 0.49871 0.06873 0.51418
 C595 C 0.50498 0.01727 0.55373
 C596 C 0.55039 0.02882 0.50848
 H597 H 0.48164 -0.01039 0.53259
 H598 H 0.53680 0.00341 0.47754
 H599 H 0.46583 -0.02057 0.45497
 H600 H 0.47551 0.05261 0.48452
 H601 H 0.43945 0.04074 0.51208
 H602 H 0.44087 0.04783 0.47727
 H603 H 0.54973 -0.02174 0.49758
 H604 H 0.52967 -0.04258 0.47172
 H605 H 0.45274 0.02708 0.54930
 H606 H 0.43690 -0.03523 0.51719
 H607 H 0.54308 0.03015 0.45574
 H608 H 0.52681 0.00649 0.43359
 H609 H 0.48612 -0.05199 0.51556
 H610 H 0.50655 -0.03315 0.53963
 H611 H 0.47781 0.04668 0.43735
 H612 H 0.49749 0.06883 0.46243
 O613 O 0.49910 0.55406 0.03210
 O614 O 0.46492 0.55070 0.02479
 O615 O 0.51295 0.50076 0.06999
 O616 O 0.51225 0.46604 0.06748
 O617 O 0.55252 0.51775 0.01842
 O618 O 0.55146 0.51339 -0.01771
 O619 O 0.46266 0.44592 0.01080
 O620 O 0.46172 0.45482 0.04521
 O621 O 0.44894 0.49815 -0.02531
 O622 O 0.46007 0.53297 -0.02786
 O623 O 0.50102 0.46231 -0.03947
 O624 O 0.53425 0.45926 -0.02684
 O625 O 0.49094 0.43945 -0.00903
 O626 O 0.52969 0.44360 0.00075
 O627 O 0.48011 0.48956 -0.04715
 O628 O 0.48723 0.52911 -0.04290
 O629 O 0.44097 0.47692 0.00205
 O630 O 0.44286 0.48647 0.04020
 O631 O 0.52711 0.54919 0.01138
 O632 O 0.53003 0.53636 -0.02549
 O633 O 0.54628 0.49609 0.04592
 O634 O 0.53388 0.45834 0.04444
 O635 O 0.49303 0.52909 0.06328
 O636 O 0.45710 0.52625 0.04949
 Zr637 Zr 0.48447 0.52525 0.03160
 O638 O 0.46641 0.50763 0.01110
 Zr639 Zr 0.51588 0.48560 0.04112
 O640 O 0.49777 0.46567 0.02270
 Zr641 Zr 0.52535 0.51766 0.00139
 O642 O 0.50946 0.49803 -0.01932
 Zr643 Zr 0.46745 0.47650 0.02089
 O644 O 0.48470 0.49427 0.04243
 Zr645 Zr 0.47883 0.50745 -0.01936
 O646 O 0.49498 0.52801 0.00037
 Zr647 Zr 0.50867 0.46711 -0.00811
 O648 O 0.52786 0.48609 0.01056
 O649 O 0.51507 0.51663 0.03210
 O650 O 0.47829 0.47643 -0.00981
 C651 C 0.51555 0.56048 0.02327
 C652 C 0.50412 0.51781 0.07547
 C653 C 0.55783 0.50859 0.03539
 C654 C 0.47354 0.43416 -0.00108
 C655 C 0.43666 0.48630 -0.01521
 C656 C 0.48936 0.47247 -0.05193
 H657 H 0.45229 0.51318 0.01142
 H658 H 0.51573 0.49884 -0.03340
 H659 H 0.52320 0.52565 0.04143
 H660 H 0.49822 0.45134 0.02841
 H661 H 0.46537 0.46186 0.05845
 H662 H 0.49902 0.45890 0.06566
 H663 H 0.49811 0.52271 -0.05158
 H664 H 0.51853 0.54640 -0.02607
 H665 H 0.43155 0.47634 0.03858
 H666 H 0.45802 0.53791 0.05962
 H667 H 0.53907 0.47232 -0.03342
 H668 H 0.55573 0.49869 -0.01581
 H669 H 0.46771 0.55475 0.01011
 H670 H 0.45121 0.53617 -0.01569
 H671 H 0.54535 0.45951 0.03436
 H672 H 0.52256 0.43387 0.01032
 O673 O 0.76195 0.31968 0.51155
 O674 O 0.75766 0.31448 0.54807
 O675 O 0.79292 0.26505 0.49077
 O676 O 0.78777 0.23016 0.49184
 O677 O 0.73977 0.28750 0.45809
 O678 O 0.70359 0.28470 0.46486
 O679 O 0.73662 0.20999 0.54454
 O680 O 0.77158 0.21693 0.54155
 O681 O 0.70869 0.26305 0.56882
 O682 O 0.71062 0.30093 0.56030
 O683 O 0.68419 0.23629 0.51604
 O684 O 0.69405 0.23603 0.47781
 O685 O 0.71230 0.20862 0.51921
 O686 O 0.71482 0.21312 0.48146
 O687 O 0.68301 0.26242 0.54002
 O688 O 0.69007 0.30029 0.53682
 O689 O 0.73336 0.23810 0.57041
 O690 O 0.77053 0.24606 0.56514
 O691 O 0.73796 0.31757 0.48589
 O692 O 0.70226 0.30914 0.48675
 O693 O 0.76541 0.26358 0.46002
 O694 O 0.76287 0.22641 0.46972
 O695 O 0.79091 0.29175 0.51414
 O696 O 0.78176 0.28864 0.55136
 Zr697 Zr 0.76095 0.29006 0.52600
 O698 O 0.74273 0.27207 0.54640
 Zr699 Zr 0.76338 0.25182 0.49084
 O700 O 0.74522 0.23224 0.50983
 Zr701 Zr 0.72636 0.28717 0.48808
 O702 O 0.70662 0.26930 0.50690
 Zr703 Zr 0.74865 0.24026 0.54145
 O704 O 0.76876 0.25825 0.52266
 Zr705 Zr 0.71194 0.27599 0.53863
 O706 O 0.72993 0.29576 0.51963
 Zr707 Zr 0.71411 0.23759 0.50366
 O708 O 0.73238 0.25539 0.48277
 O709 O 0.75719 0.28328 0.49444
 O710 O 0.71769 0.24425 0.53525
 C711 C 0.75183 0.32737 0.49607
 C712 C 0.80066 0.28062 0.50069
 C713 C 0.75492 0.27740 0.45013
 C714 C 0.72218 0.20066 0.53465
 C715 C 0.71808 0.24810 0.57818
 C716 C 0.67499 0.24716 0.53013
 H717 H 0.74548 0.27595 0.56110
 H718 H 0.69237 0.27228 0.50278
 H719 H 0.76603 0.29198 0.48540
 H720 H 0.74908 0.21752 0.50749
 H721 H 0.78445 0.22384 0.53725
 H722 H 0.78381 0.21911 0.50186
 H723 H 0.68159 0.29777 0.52430
 H724 H 0.70242 0.31680 0.50019
 H725 H 0.76972 0.23451 0.57545
 H726 H 0.79151 0.30041 0.55013
 H727 H 0.68430 0.24778 0.47901
 H728 H 0.70538 0.27085 0.45826
 H729 H 0.74375 0.32028 0.54632
 H730 H 0.72226 0.29944 0.57001
 H731 H 0.75010 0.22772 0.46155
 H732 H 0.72813 0.20592 0.48280
 O733 O 0.81715 0.74566 -0.02496
 O734 O 0.81069 0.71227 -0.02241
 O735 O 0.76131 0.77417 -0.04605
 O736 O 0.72932 0.77852 -0.03493
 O737 O 0.79554 0.80094 0.00556
 O738 O 0.79793 0.79269 0.04163
 O739 O 0.71178 0.72340 0.01485
 O740 O 0.71466 0.72621 -0.02096
 O741 O 0.76470 0.69236 0.03635
 O742 O 0.79953 0.69622 0.02747
 O743 O 0.74452 0.74536 0.06582
 O744 O 0.74727 0.78177 0.06095
 O745 O 0.71516 0.74798 0.04030
 O746 O 0.72614 0.78658 0.03777
 O747 O 0.76764 0.71897 0.06310
 O748 O 0.80425 0.72344 0.05286
 O749 O 0.73703 0.69459 0.01499
 O750 O 0.74071 0.70034 -0.02407
 O751 O 0.82164 0.76956 0.00099
 O752 O 0.81777 0.76719 0.03937
 O753 O 0.76870 0.80309 -0.01681
 O754 O 0.73144 0.79690 -0.00813
 O755 O 0.78529 0.74868 -0.04970
 O756 O 0.77935 0.71098 -0.04094
 Zr757 Zr 0.78729 0.73497 -0.01964
 O758 O 0.77083 0.71555 0.00109
 Zr759 Zr 0.75396 0.77392 -0.01419
 O760 O 0.73543 0.75561 0.00542
 Zr761 Zr 0.79368 0.77046 0.01766
 O762 O 0.77640 0.75311 0.03950
 Zr763 Zr 0.73992 0.72365 -0.00053
 O764 O 0.75603 0.74213 -0.02253
 Zr765 Zr 0.77901 0.72135 0.03226
 O766 O 0.79777 0.73854 0.01138
 Zr767 Zr 0.74508 0.75982 0.03637
 O768 O 0.76274 0.77965 0.01687
 O769 O 0.78479 0.76664 -0.01323
 O770 O 0.74801 0.72813 0.03050
 C771 C 0.82786 0.75927 -0.01517
 C772 C 0.77408 0.76353 -0.05697
 C773 C 0.78455 0.81079 -0.00786
 C774 C 0.70497 0.73395 0.03045
 C775 C 0.74799 0.68511 0.02877
 C776 C 0.75400 0.72944 0.07316
 H777 H 0.77292 0.70069 -0.00251
 H778 H 0.78134 0.75587 0.05384
 H779 H 0.79288 0.77513 -0.02318
 H780 H 0.72101 0.75971 0.00333
 H781 H 0.72018 0.73057 -0.03473
 H782 H 0.72060 0.76603 -0.03368
 H783 H 0.80378 0.71120 0.06235
 H784 H 0.82437 0.75359 0.03645
 H785 H 0.72896 0.69088 -0.02165
 H786 H 0.78889 0.71163 -0.05302
 H787 H 0.76176 0.78230 0.06519
 H788 H 0.78466 0.79994 0.04340
 H789 H 0.80596 0.69971 -0.01482
 H790 H 0.81200 0.70227 0.02111
 H791 H 0.73668 0.80581 0.00329
 H792 H 0.71447 0.78427 0.02827
 O793 O 1.05769 0.22745 0.26092
 O794 O 1.04702 0.22958 0.29555
 O795 O 1.00840 0.20120 0.22764
 O796 O 0.97447 0.20690 0.22562
 O797 O 1.03643 0.25565 0.20324
 O798 O 1.03627 0.29085 0.21102
 O799 O 0.94892 0.25934 0.27860
 O800 O 0.95351 0.22373 0.27505
 O801 O 0.99912 0.28322 0.31015
 O802 O 1.03501 0.28258 0.30651
 O803 O 0.97852 0.31113 0.25434
 O804 O 0.98356 0.30369 0.21721
 O805 O 0.95159 0.28410 0.25317
 O806 O 0.96266 0.28044 0.21486
 O807 O 0.99967 0.31071 0.28243
 O808 O 1.03886 0.30241 0.28179
 O809 O 0.97338 0.25960 0.30820
 O810 O 0.97930 0.22136 0.30170
 O811 O 1.06143 0.25264 0.23600
 O812 O 1.05424 0.29086 0.23816
 O813 O 1.01069 0.23214 0.19970
 O814 O 0.97297 0.23402 0.20570
 O815 O 1.02991 0.20018 0.25550
 O816 O 1.01952 0.20766 0.29296
 Zr817 Zr 1.02701 0.22994 0.26961
 O818 O 1.00818 0.24956 0.28778
 Zr819 Zr 0.99565 0.23144 0.22908
 O820 O 0.97455 0.24977 0.24618
 Zr821 Zr 1.03233 0.26712 0.23364
 O822 O 1.01235 0.28768 0.24935
 Zr823 Zr 0.97781 0.24514 0.27862
 O824 O 0.99651 0.22408 0.26132
 Zr825 Zr 1.01413 0.28117 0.28138
 O826 O 1.03529 0.26157 0.26582
 Zr827 Zr 0.98177 0.28128 0.24150
 O828 O 1.00202 0.26305 0.22314
 O829 O 1.02579 0.23579 0.23764
 O830 O 0.98370 0.27660 0.27363
 C831 C 1.06828 0.23748 0.24732
 C832 C 1.02183 0.19200 0.23908
 C833 C 1.02613 0.24243 0.19260
 C834 C 0.94170 0.27455 0.26778
 C835 C 0.98340 0.27401 0.31773
 C836 C 0.98614 0.31947 0.27076
 H837 H 1.01005 0.24616 0.30276
 H838 H 1.01609 0.30227 0.24618
 H839 H 1.03525 0.22709 0.22925
 H840 H 0.96045 0.24651 0.24177
 H841 H 0.95979 0.21025 0.27102
 H842 H 0.96331 0.20966 0.23573
 H843 H 1.03554 0.31413 0.27230
 H844 H 1.06100 0.28795 0.25168
 H845 H 0.96697 0.22260 0.31069
 H846 H 1.02987 0.19634 0.29254
 H847 H 0.99608 0.31198 0.21946
 H848 H 1.02282 0.29267 0.20422
 H849 H 1.05344 0.24352 0.29614
 H850 H 1.03479 0.26882 0.31352
 H851 H 0.97605 0.24680 0.19759
 H852 H 0.95175 0.27010 0.21751
 O853 O 0.74563 0.96047 0.79780
 O854 O 0.71142 0.95931 0.78918
 O855 O 0.77696 0.93616 0.74447
 O856 O 0.78076 0.94284 0.71077
 O857 O 0.79714 0.99478 0.77231
 O858 O 0.78638 1.02747 0.77388
 O859 O 0.72040 0.98634 0.68646
 O860 O 0.72883 0.95155 0.69221
 O861 O 0.68962 1.00988 0.73670
 O862 O 0.69263 1.01004 0.77319
 O863 O 0.74097 1.04229 0.71472
 O864 O 0.77548 1.03934 0.71737
 O865 O 0.74067 1.01506 0.68789
 O866 O 0.78007 1.01292 0.69569
 O867 O 0.71496 1.04049 0.73837
 O868 O 0.71536 1.03129 0.77800
 O869 O 0.69339 0.98441 0.71223
 O870 O 0.70392 0.94739 0.71995
 O871 O 0.76706 0.98831 0.79964
 O872 O 0.75874 1.02629 0.79085
 O873 O 0.80218 0.96976 0.74761
 O874 O 0.79522 0.97167 0.70851
 O875 O 0.75153 0.93282 0.76862
 O876 O 0.71397 0.93711 0.76142
 Zr877 Zr 0.73530 0.96137 0.76680
 O878 O 0.71494 0.97822 0.74764
 Zr879 Zr 0.77354 0.96643 0.73263
 O880 O 0.75417 0.98158 0.71116
 Zr881 Zr 0.76621 1.00220 0.76951
 O882 O 0.74828 1.02011 0.74891
 Zr883 Zr 0.72350 0.97348 0.71638
 O884 O 0.74322 0.95544 0.73539
 Zr885 Zr 0.71779 1.01058 0.75233
 O886 O 0.73566 0.99350 0.77407
 Zr887 Zr 0.75543 1.01355 0.71738
 O888 O 0.77599 0.99861 0.73811
 O889 O 0.76568 0.97038 0.76385
 O890 O 0.72493 1.00555 0.72110
 C891 C 0.75818 0.97224 0.80768
 C892 C 0.76718 0.92584 0.75852
 C893 C 0.80843 0.98163 0.76253
 C894 C 0.72748 1.00334 0.67871
 C895 C 0.68303 0.99886 0.72137
 C896 C 0.72535 1.04996 0.72406
 H897 H 0.70080 0.97342 0.75019
 H898 H 0.75023 1.03504 0.75215
 H899 H 0.77498 0.96249 0.77313
 H900 H 0.75826 0.97828 0.69661
 H901 H 0.73433 0.93886 0.69901
 H902 H 0.76876 0.94163 0.70152
 H903 H 0.72457 1.04320 0.77524
 H904 H 0.74753 1.02104 0.79987
 H905 H 0.69475 0.94700 0.70764
 H906 H 0.71604 0.92609 0.77212
 H907 H 0.78733 1.03530 0.72605
 H908 H 0.78532 1.03623 0.76120
 H909 H 0.70947 0.97349 0.79496
 H910 H 0.68874 0.99527 0.77509
 H911 H 0.80264 0.98460 0.71213
 H912 H 0.77574 1.00515 0.68310
 O913 O 0.70179 0.52403 0.26110
 O914 O 0.70924 0.51629 0.29606
 O915 O 0.75324 0.55650 0.23803
 O916 O 0.78772 0.55137 0.23801
 O917 O 0.72939 0.50663 0.20246
 O918 O 0.73120 0.46953 0.20479
 O919 O 0.80971 0.49242 0.28351
 O920 O 0.80466 0.52818 0.28414
 O921 O 0.75788 0.46395 0.30792
 O922 O 0.72149 0.46511 0.30045
 O923 O 0.78399 0.44400 0.25106
 O924 O 0.78085 0.45655 0.21413
 O925 O 0.80995 0.47155 0.25469
 O926 O 0.80224 0.47934 0.21692
 O927 O 0.76003 0.44025 0.27662
 O928 O 0.72167 0.44705 0.27452
 O929 O 0.78247 0.48877 0.31093
 O930 O 0.77670 0.52701 0.30863
 O931 O 0.70118 0.50242 0.23280
 O932 O 0.70937 0.46560 0.22864
 O933 O 0.75388 0.53158 0.20538
 O934 O 0.79053 0.52800 0.21277
 O935 O 0.72901 0.55245 0.26335
 O936 O 0.73559 0.53967 0.29953
 Zr937 Zr 0.73158 0.52101 0.27244
 O938 O 0.74972 0.49983 0.28922
 Zr939 Zr 0.76664 0.52661 0.23518
 O940 O 0.78668 0.50605 0.25079
 Zr941 Zr 0.73109 0.48983 0.23082
 O942 O 0.74979 0.46748 0.24574
 Zr943 Zr 0.78059 0.50622 0.28307
 O944 O 0.76247 0.52901 0.26780
 Zr945 Zr 0.74519 0.46936 0.27823
 O946 O 0.72496 0.49022 0.26315
 Zr947 Zr 0.78072 0.47526 0.24142
 O948 O 0.76202 0.49604 0.22407
 O949 O 0.73599 0.52027 0.24023
 O950 O 0.77603 0.47555 0.27363
 C951 C 0.69275 0.51555 0.24548
 C952 C 0.73848 0.56339 0.24954
 C953 C 0.73949 0.52236 0.19539
 C954 C 0.81827 0.47906 0.27125
 C955 C 0.77220 0.47318 0.31797
 C956 C 0.77498 0.43340 0.26546
 H957 H 0.74648 0.50124 0.30429
 H958 H 0.74674 0.45340 0.24034
 H959 H 0.72694 0.53005 0.23268
 H960 H 0.80102 0.51004 0.24800
 H961 H 0.79846 0.54199 0.28128
 H962 H 0.79948 0.54600 0.24604
 H963 H 0.72512 0.43824 0.26230
 H964 H 0.70302 0.46427 0.24267
 H965 H 0.78836 0.52502 0.31830
 H966 H 0.72443 0.55015 0.30014
 H967 H 0.76927 0.44672 0.21516
 H968 H 0.74505 0.47040 0.19857
 H969 H 0.70295 0.50253 0.29336
 H970 H 0.72214 0.47684 0.31046
 H971 H 0.78872 0.51593 0.20331
 H972 H 0.81155 0.49076 0.22097
 O973 O 0.54376 0.21336 0.74966
 O974 O 0.53858 0.21538 0.78622
 O975 O 0.49267 0.17762 0.72834
 O976 O 0.45804 0.17988 0.73185
 O977 O 0.50885 0.23412 0.69681
 O978 O 0.50350 0.27082 0.70491
 O979 O 0.43522 0.23006 0.78580
 O980 O 0.44376 0.19470 0.78021
 O981 O 0.48537 0.25996 0.80925
 O982 O 0.52267 0.26125 0.79930
 O983 O 0.45650 0.28559 0.75774
 O984 O 0.45653 0.27645 0.71887
 O985 O 0.43175 0.25466 0.76033
 O986 O 0.43519 0.25438 0.72291
 O987 O 0.48216 0.28758 0.78148
 O988 O 0.51915 0.28372 0.77757
 O989 O 0.46321 0.23274 0.81055
 O990 O 0.47298 0.19607 0.80334
 O991 O 0.53912 0.23788 0.72425
 O992 O 0.52821 0.27297 0.72541
 O993 O 0.48728 0.20643 0.69883
 O994 O 0.45184 0.20536 0.70927
 O995 O 0.51875 0.18122 0.75147
 O996 O 0.51571 0.18879 0.78889
 Zr997 Zr 0.51483 0.21102 0.76424
 O998 O 0.49610 0.22737 0.78547
 Zr999 Zr 0.47697 0.20652 0.72998
 O1000 O 0.45678 0.22327 0.74959
 Zr1001 Zr 0.50849 0.24697 0.72721
 O1002 O 0.49016 0.26526 0.74716
 Zr1003 Zr 0.46535 0.21920 0.78089
 O1004 O 0.48434 0.20065 0.76143
 Zr1005 Zr 0.49756 0.25921 0.77862
 O1006 O 0.51780 0.24314 0.75850
 Zr1007 Zr 0.45974 0.25555 0.74431
 O1008 O 0.47785 0.23860 0.72261
 O1009 O 0.50734 0.21515 0.73290
 O1010 O 0.46695 0.25125 0.77564
 C1011 C 0.55020 0.22483 0.73443
 C1012 C 0.50865 0.17077 0.73791
 C1013 C 0.49953 0.21844 0.68875
 C1014 C 0.42503 0.24430 0.77613
 C1015 C 0.47200 0.24861 0.81866
 C1016 C 0.46666 0.29519 0.77200
 H1017 H 0.50042 0.22426 0.79996
 H1018 H 0.49193 0.28012 0.74345
 H1019 H 0.51645 0.20723 0.72339
 H1020 H 0.44259 0.21852 0.74740
 H1021 H 0.45127 0.18204 0.77571
 H1022 H 0.44602 0.18364 0.74049
 H1023 H 0.51640 0.29206 0.76485
 H1024 H 0.53517 0.27386 0.73911
 H1025 H 0.46164 0.19530 0.81366
 H1026 H 0.52797 0.17981 0.78710
 H1027 H 0.46676 0.28764 0.72059
 H1028 H 0.49021 0.26784 0.69824
 H1029 H 0.54332 0.22995 0.78471
 H1030 H 0.52176 0.24951 0.80932
 H1031 H 0.45121 0.21905 0.70213
 H1032 H 0.42966 0.24005 0.72324
 O1033 O 0.24610 0.77276 0.43528
 O1034 O 0.21180 0.77154 0.44436
 O1035 O 0.27540 0.79431 0.49127
 O1036 O 0.27767 0.78430 0.52485
 O1037 O 0.30006 0.74184 0.45772
 O1038 O 0.29145 0.70619 0.45568
 O1039 O 0.22305 0.73461 0.54380
 O1040 O 0.22743 0.77014 0.54111
 O1041 O 0.19310 0.71512 0.48929
 O1042 O 0.19840 0.72035 0.45177
 O1043 O 0.24438 0.68333 0.50921
 O1044 O 0.28057 0.68819 0.50723
 O1045 O 0.24673 0.70883 0.53994
 O1046 O 0.28445 0.71019 0.52937
 O1047 O 0.21880 0.68678 0.48551
 O1048 O 0.22037 0.69849 0.44764
 O1049 O 0.19502 0.73637 0.51765
 O1050 O 0.20242 0.77474 0.51418
 O1051 O 0.26951 0.74673 0.43083
 O1052 O 0.26668 0.70883 0.43510
 O1053 O 0.30260 0.76414 0.48525
 O1054 O 0.29597 0.75669 0.52335
 O1055 O 0.25053 0.79803 0.46677
 O1056 O 0.21343 0.79131 0.47406
 Zr1057 Zr 0.23590 0.76870 0.46618
 O1058 O 0.21642 0.74877 0.48320
 Zr1059 Zr 0.27374 0.76280 0.50016
 O1060 O 0.25541 0.74358 0.51926
 Zr1061 Zr 0.27003 0.73058 0.45969
 O1062 O 0.25248 0.70936 0.47731
 Zr1063 Zr 0.22423 0.75021 0.51495
 O1064 O 0.24273 0.77170 0.49821
 Zr1065 Zr 0.22159 0.71761 0.47461
 O1066 O 0.23900 0.73773 0.45544
 Zr1067 Zr 0.25882 0.71256 0.50941
 O1068 O 0.27874 0.73157 0.49140
 O1069 O 0.26676 0.76149 0.46859
 O1070 O 0.22786 0.71907 0.50650
 C1071 C 0.25924 0.76260 0.42426
 C1072 C 0.26554 0.80504 0.47761
 C1073 C 0.30997 0.75494 0.46897
 C1074 C 0.23306 0.71874 0.55058
 C1075 C 0.18567 0.72307 0.50609
 C1076 C 0.22887 0.67633 0.49919
 H1077 H 0.20204 0.75301 0.48105
 H1078 H 0.25512 0.69501 0.47234
 H1079 H 0.27539 0.77087 0.46002
 H1080 H 0.25934 0.74550 0.53405
 H1081 H 0.23212 0.78377 0.53561
 H1082 H 0.26679 0.78136 0.53520
 H1083 H 0.23106 0.68764 0.44893
 H1084 H 0.25328 0.71172 0.42857
 H1085 H 0.19312 0.77295 0.52634
 H1086 H 0.21472 0.80326 0.46427
 H1087 H 0.28026 0.68289 0.49271
 H1088 H 0.29826 0.70433 0.46936
 H1089 H 0.21075 0.75794 0.43714
 H1090 H 0.19049 0.73314 0.45487
 H1091 H 0.30395 0.74446 0.51855
 H1092 H 0.28257 0.72034 0.54087
 O1093 O 0.24608 0.28174 0.94521
 O1094 O 0.20957 0.27931 0.95109
 O1095 O 0.26630 0.31647 0.99848
 O1096 O 0.26397 0.31300 1.03409
 O1097 O 0.29713 0.26008 0.98001
 O1098 O 0.28803 0.22251 0.98645
 O1099 O 0.21229 0.26477 1.05715
 O1100 O 0.21811 0.30021 1.04808
 O1101 O 0.18619 0.23656 1.00571
 O1102 O 0.19607 0.23678 0.96614
 O1103 O 0.23577 0.20806 1.03308
 O1104 O 0.27479 0.21599 1.03166
 O1105 O 0.23569 0.23850 1.05924
 O1106 O 0.27110 0.23678 1.05547
 O1107 O 0.21191 0.20823 1.00734
 O1108 O 0.21483 0.21171 0.97034
 O1109 O 0.18696 0.26284 1.02950
 O1110 O 0.19407 0.29918 1.01945
 O1111 O 0.26975 0.25600 0.94954
 O1112 O 0.26929 0.22155 0.96006
 O1113 O 0.29534 0.28741 1.00258
 O1114 O 0.28652 0.28753 1.03862
 O1115 O 0.24440 0.31321 0.97112
 O1116 O 0.20834 0.30691 0.97375
 Zr1117 Zr 0.23159 0.28377 0.97492
 O1118 O 0.21051 0.26837 0.99450
 Zr1119 Zr 0.26531 0.28704 1.01368
 O1120 O 0.24641 0.27007 1.03423
 Zr1121 Zr 0.26715 0.24708 0.98082
 O1122 O 0.24673 0.22899 0.99889
 Zr1123 Zr 0.21596 0.27563 1.02612
 O1124 O 0.23483 0.29376 1.00633
 Zr1125 Zr 0.21599 0.23645 0.99216
 O1126 O 0.23648 0.25163 0.97155
 Zr1127 Zr 0.25036 0.23762 1.03020
 O1128 O 0.27191 0.25477 1.01227
 O1129 O 0.26212 0.27896 0.98245
 O1130 O 0.21985 0.24349 1.02361
 C1131 C 0.26050 0.26969 0.93842
 C1132 C 0.25725 0.32352 0.98201
 C1133 C 0.30511 0.27577 0.98968
 C1134 C 0.22134 0.24980 1.06695
 C1135 C 0.17802 0.24767 1.02039
 C1136 C 0.22081 0.19981 1.02296
 H1137 H 0.19639 0.27208 0.99046
 H1138 H 0.24967 0.21403 0.99664
 H1139 H 0.27139 0.28693 0.97316
 H1140 H 0.24911 0.27432 1.04882
 H1141 H 0.22238 0.31275 1.04014
 H1142 H 0.25664 0.30866 1.04693
 H1143 H 0.22795 0.20410 0.97122
 H1144 H 0.25545 0.21966 0.95417
 H1145 H 0.18464 0.30024 1.03160
 H1146 H 0.20994 0.31515 0.96068
 H1147 H 0.27163 0.20437 1.02204
 H1148 H 0.29608 0.22647 0.99891
 H1149 H 0.21233 0.26558 0.94459
 H1150 H 0.18519 0.24717 0.96890
 H1151 H 0.29308 0.27361 1.03902
 H1152 H 0.27346 0.25138 1.05975
 C1153 C 0.30778 0.38334 0.77734
 C1154 C 0.29039 0.39387 0.78478
 N1155 N 0.27660 0.38368 0.79686
 C1156 C 0.27950 0.36341 0.80212
 C1157 C 0.29709 0.35283 0.79508
 N1158 N 0.31079 0.36308 0.78270
 N1159 N 0.32151 0.39370 0.76520
 C1160 C 0.31859 0.41412 0.76016
 C1161 C 0.30121 0.42468 0.76775
 N1162 N 0.28757 0.41418 0.77987
 H1163 H 0.26831 0.35578 0.81200
 H1164 H 0.32971 0.42198 0.75037
 C1165 C 0.28562 -0.13222 0.25741
 C1166 C 0.26950 -0.12301 0.26864
 N1167 N 0.26176 -0.13292 0.28570
 C1168 C 0.26969 -0.15143 0.29230
 C1169 C 0.28649 -0.16027 0.28157
 N1170 N 0.29377 -0.15044 0.26419
 N1171 N 0.29352 -0.12237 0.24046
 C1172 C 0.28636 -0.10342 0.23446
 C1173 C 0.27078 -0.09363 0.24616
 N1174 N 0.26254 -0.10386 0.26289
 H1175 H 0.26334 -0.15873 0.30614
 H1176 H 0.29331 -0.09580 0.22108
 C1177 C 0.79217 0.86737 0.77554
 C1178 C 0.77564 0.87581 0.78677
 N1179 N 0.76842 0.86555 0.80387
 C1180 C 0.77712 0.84737 0.81037
 C1181 C 0.79398 0.83911 0.79937
 N1182 N 0.80095 0.84936 0.78210
 N1183 N 0.79959 0.87761 0.75858
 C1184 C 0.79141 0.89609 0.75244
 C1185 C 0.77510 0.90493 0.76388
 N1186 N 0.76751 0.89440 0.78076
 H1187 H 0.77117 0.83969 0.82419
 H1188 H 0.79785 0.90394 0.73894
 C1189 C 0.45503 0.87284 0.26372
 C1190 C 0.47389 0.86588 0.27154
 N1191 N 0.48480 0.87837 0.28432
 C1192 C 0.47764 0.89742 0.28998
 C1193 C 0.45842 0.90441 0.28272
 N1194 N 0.44768 0.89188 0.26950
 N1195 N 0.44415 0.86017 0.25096
 C1196 C 0.45117 0.84082 0.24583
 C1197 C 0.46990 0.83366 0.25400
 N1198 N 0.48081 0.84653 0.26661
 H1199 H 0.48684 0.90679 0.30039
 H1200 H 0.44201 0.83103 0.23579
 C1201 C -0.02923 0.87142 0.78985
 C1202 C -0.03785 0.86174 0.77231
 N1203 N -0.05111 0.87247 0.76008
 C1204 C -0.05635 0.89243 0.76476
 C1205 C -0.04801 0.90206 0.78255
 N1206 N -0.03453 0.89128 0.79459
 N1207 N -0.01602 0.86068 0.80213
 C1208 C -0.01099 0.84062 0.79761
 C1209 C -0.01966 0.83085 0.78007
 N1210 N -0.03290 0.84173 0.76784
 H1211 H -0.06720 0.90051 0.75490
 H1212 H -0.00036 0.83243 0.80763
 C1213 C -0.02719 -0.10555 -0.05314
 C1214 C -0.03694 -0.09658 -0.03571
 N1215 N -0.05062 -0.10798 -0.02459
 C1216 C -0.05515 -0.12789 -0.03017
 C1217 C -0.04561 -0.13691 -0.04786
 N1218 N -0.03174 -0.12539 -0.05881
 N1219 N -0.01355 -0.09418 -0.06433
 C1220 C -0.00924 -0.07419 -0.05895
 C1221 C -0.01908 -0.06501 -0.04157
 N1222 N -0.03272 -0.07655 -0.03034
 H1223 H -0.06626 -0.13642 -0.02096
 H1224 H 0.00167 -0.06555 -0.06830
 C1225 C -0.04898 0.36823 0.49014
 C1226 C -0.03145 0.37638 0.48044
 N1227 N -0.02450 0.36767 0.46244
 C1228 C -0.03432 0.35127 0.45355
 C1229 C -0.05220 0.34314 0.46295
 N1230 N -0.05896 0.35190 0.48120
 N1231 N -0.05598 0.37710 0.50809
 C1232 C -0.04643 0.39391 0.51662
 C1233 C -0.02908 0.40245 0.50670
 N1234 N -0.02201 0.39328 0.48882
 H1235 H -0.02826 0.34487 0.43913
 H1236 H -0.05267 0.40082 0.53072
 C1237 C 0.46601 -0.11584 0.44032
 C1238 C 0.45750 -0.10804 0.45893
 N1239 N 0.44316 -0.11919 0.46928
 C1240 C 0.43665 -0.13778 0.46184
 C1241 C 0.44472 -0.14577 0.44291
 N1242 N 0.45946 -0.13454 0.43267
 N1243 N 0.48028 -0.10427 0.43002
 C1244 C 0.48620 -0.08522 0.43739
 C1245 C 0.47732 -0.07729 0.45588
 N1246 N 0.46325 -0.08912 0.46613
 H1247 H 0.42506 -0.14605 0.47067
 H1248 H 0.49735 -0.07624 0.42870
 C1249 C 0.44867 0.37596 -0.01941
 C1250 C 0.46768 0.38278 -0.02705
 N1251 N 0.47786 0.37111 -0.04131
 C1252 C 0.46987 0.35304 -0.04857
 C1253 C 0.45055 0.34615 -0.04138
 N1254 N 0.44050 0.35783 -0.02671
 N1255 N 0.43846 0.38792 -0.00527
 C1256 C 0.44630 0.40643 0.00138
 C1257 C 0.46522 0.41345 -0.00655
 N1258 N 0.47544 0.40125 -0.02053
 H1259 H 0.47857 0.34434 -0.06007
 H1260 H 0.43765 0.41570 0.01247
 C1261 C 0.77138 0.38524 0.47170
 C1262 C 0.77955 0.37733 0.49040
 N1263 N 0.79497 0.38760 0.49995
 C1264 C 0.80287 0.40525 0.49147
 C1265 C 0.79523 0.41289 0.47234
 N1266 N 0.77946 0.40273 0.46302
 N1267 N 0.75603 0.37484 0.46212
 C1268 C 0.74874 0.35668 0.47017
 C1269 C 0.75740 0.34831 0.48853
 N1270 N 0.77252 0.35904 0.49827
 H1271 H 0.81534 0.41291 0.49940
 H1272 H 0.73675 0.34856 0.46192
 C1273 C 0.80486 0.87009 -0.02846
 C1274 C 0.78777 0.86060 -0.03753
 N1275 N 0.77819 0.87012 -0.05373
 C1276 C 0.78499 0.88865 -0.06144
 C1277 C 0.80235 0.89818 -0.05261
 N1278 N 0.81174 0.88856 -0.03618
 N1279 N 0.81457 0.86048 -0.01238
 C1280 C 0.80808 0.84168 -0.00506
 C1281 C 0.79111 0.83192 -0.01429
 N1282 N 0.78133 0.84179 -0.03030
 H1283 H 0.77699 0.89568 -0.07445
 H1284 H 0.81630 0.83433 0.00764
 C1285 C 0.77575 0.29564 0.39002
 C1286 C 0.78589 0.27995 0.40126
 N1287 N 0.80320 0.27136 0.39322
 C1288 C 0.81096 0.27789 0.37454
 C1289 C 0.80107 0.29393 0.36340
 N1290 N 0.78358 0.30230 0.37147
 N1291 N 0.75854 0.30436 0.39809
 C1292 C 0.75111 0.29831 0.41704
 C1293 C 0.76144 0.28288 0.42864
 N1294 N 0.77859 0.27400 0.42030
 H1295 H 0.82490 0.27087 0.36867
 H1296 H 0.73750 0.30579 0.42315
 C1297 C 0.78371 0.78376 -0.11914
 C1298 C 0.79582 0.76786 -0.11050
 N1299 N 0.81166 0.75997 -0.12174
 C1300 C 0.81620 0.76752 -0.14109
 C1301 C 0.80450 0.78399 -0.14957
 N1302 N 0.78834 0.79146 -0.13835
 N1303 N 0.76802 0.79184 -0.10784
 C1304 C 0.76410 0.78503 -0.08810
 C1305 C 0.77658 0.76952 -0.07910
 N1306 N 0.79206 0.76117 -0.09069
 H1307 H 0.82912 0.76101 -0.14947
 H1308 H 0.75163 0.79203 -0.07940
 C1309 C 0.30793 0.48029 0.87117
 C1310 C 0.29188 0.47051 0.86056
 N1311 N 0.28057 0.45582 0.87052
 C1312 C 0.28457 0.45037 0.89065
 C1313 C 0.30072 0.46000 0.90142
 N1314 N 0.31203 0.47481 0.89131
 N1315 N 0.31918 0.49504 0.86111
 C1316 C 0.31510 0.50045 0.84091
 C1317 C 0.29905 0.49059 0.83019
 N1318 N 0.28787 0.47583 0.84043
 H1319 H 0.27526 0.43855 0.89808
 H1320 H 0.32436 0.51221 0.83330
 C1321 C 0.27717 -0.05209 0.35527
 C1322 C 0.28787 -0.03508 0.34688
 N1323 N 0.30358 -0.02669 0.35778
 C1324 C 0.30923 -0.03465 0.37664
 C1325 C 0.29878 -0.05195 0.38499
 N1326 N 0.28288 -0.06016 0.37404
 N1327 N 0.26157 -0.06059 0.34428
 C1328 C 0.25628 -0.05297 0.32517
 C1329 C 0.26719 -0.03611 0.31650
 N1330 N 0.28271 -0.02755 0.32774
 H1331 H 0.32194 -0.02771 0.38483
 H1332 H 0.24391 -0.06024 0.31671
 C1333 C -0.04547 -0.01713 -0.13989
 C1334 C -0.02845 -0.02689 -0.13077
 N1335 N -0.02003 -0.04379 -0.14013
 C1336 C -0.02792 -0.05156 -0.15810
 C1337 C -0.04524 -0.04208 -0.16727
 N1338 N -0.05348 -0.02491 -0.15787
 N1339 N -0.05397 -0.00031 -0.13035
 C1340 C -0.04635 0.00708 -0.11203
 C1341 C -0.02944 -0.00286 -0.10267
 N1342 N -0.02088 -0.01961 -0.11243
 H1343 H -0.02075 -0.06517 -0.16498
 H1344 H -0.05363 0.02040 -0.10473
 C1345 C -0.03084 0.44628 0.40475
 C1346 C -0.04079 0.46299 0.41465
 N1347 N -0.05596 0.47329 0.40456
 C1348 C -0.06174 0.46758 0.38499
 C1349 C -0.05190 0.45070 0.37499
 N1350 N -0.03659 0.44055 0.38523
 N1351 N -0.01573 0.43593 0.41491
 C1352 C -0.01012 0.44152 0.43458
 C1353 C -0.02010 0.45827 0.44457
 N1354 N -0.03522 0.46858 0.43425
 H1355 H -0.07397 0.47610 0.37747
 H1356 H 0.00196 0.43295 0.44230
 C1357 C 0.45983 -0.01599 0.36049
 C1358 C 0.47757 -0.02485 0.36904
 N1359 N 0.48779 -0.03984 0.35828
 C1360 C 0.48074 -0.04682 0.33959
 C1361 C 0.46238 -0.03872 0.33148
 N1362 N 0.45257 -0.02322 0.34205
 N1363 N 0.44941 -0.00127 0.37140
 C1364 C 0.45561 0.00463 0.39076
 C1365 C 0.47284 -0.00494 0.39982
 N1366 N 0.48357 -0.01926 0.38852
 H1367 H 0.48896 -0.05916 0.33162
 H1368 H 0.44669 0.01609 0.39926
 C1369 C 0.47768 0.44591 -0.11132
 C1370 C 0.47049 0.46593 -0.10626
 N1371 N 0.45906 0.47660 -0.12030
 C1372 C 0.45427 0.46811 -0.13911
 C1373 C 0.46101 0.44777 -0.14416
 N1374 N 0.47274 0.43726 -0.13004
 N1375 N 0.48912 0.43525 -0.09723
 C1376 C 0.49353 0.44362 -0.07824
 C1377 C 0.48602 0.46356 -0.07293
 N1378 N 0.47470 0.47423 -0.08722
 H1379 H 0.44497 0.47712 -0.14980
 H1380 H 0.50251 0.43460 -0.06728
 C1381 C 0.46603 0.79966 0.35963
 C1382 C 0.45692 0.78130 0.35221
 N1383 N 0.44169 0.77230 0.36340
 C1384 C 0.43504 0.78081 0.38166
 C1385 C 0.44393 0.79934 0.38920
 N1386 N 0.45935 0.80830 0.37791
 N1387 N 0.48123 0.80865 0.34828
 C1388 C 0.48764 0.80020 0.32982
 C1389 C 0.47839 0.78189 0.32222
 N1390 N 0.46323 0.77292 0.33376
 H1391 H 0.42280 0.77316 0.39010
 H1392 H 0.49967 0.80787 0.32108
 C1393 C -0.03606 0.78136 0.87619
 C1394 C -0.02082 0.79268 0.86572
 N1395 N -0.01443 0.81110 0.87370
 C1396 C -0.02266 0.81887 0.89164
 C1397 C -0.03818 0.80776 0.90223
 N1398 N -0.04438 0.78910 0.89416
 N1399 N -0.04261 0.76304 0.86795
 C1400 C -0.03476 0.75566 0.84960
 C1401 C -0.01963 0.76713 0.83889
 N1402 N -0.01302 0.78537 0.84740
 H1403 H -0.01715 0.83369 0.89740
 H1404 H -0.04053 0.74118 0.84328
 C1405 C 0.37567 0.77421 0.28067
 C1406 C 0.38362 0.78439 0.26298
 N1407 N 0.37199 0.79875 0.25287
 C1408 C 0.35284 0.80354 0.25979
 C1409 C 0.34496 0.79354 0.27772
 N1410 N 0.35665 0.77902 0.28760
 N1411 N 0.38725 0.76002 0.29097
 C1412 C 0.40653 0.75558 0.28448
 C1413 C 0.41474 0.76585 0.26685
 N1414 N 0.40296 0.78001 0.25646
 H1415 H 0.34403 0.81523 0.25157
 H1416 H 0.41538 0.74422 0.29313
 C1417 C -0.11745 0.77063 0.79520
 C1418 C -0.10895 0.78197 0.77854
 N1419 N -0.11986 0.79766 0.76965
 C1420 C -0.13884 0.80271 0.77684
 C1421 C -0.14722 0.79164 0.79384
 N1422 N -0.13627 0.77576 0.80247
 N1423 N -0.10655 0.75506 0.80424
 C1424 C -0.08737 0.75038 0.79749
 C1425 C -0.07861 0.76191 0.78100
 N1426 N -0.08974 0.77741 0.77188
 H1427 H -0.14706 0.81547 0.76964
 H1428 H -0.07899 0.73799 0.80515
 C1429 C 0.86059 0.29939 0.48386
 C1430 C 0.85154 0.28175 0.47478
 N1431 N 0.86171 0.27110 0.45968
 C1432 C 0.88040 0.27741 0.45298
 C1433 C 0.88943 0.29538 0.46163
 N1434 N 0.87928 0.30586 0.47708
 N1435 N 0.85023 0.31010 0.49885
 C1436 C 0.83118 0.30412 0.50501
 C1437 C 0.82190 0.28666 0.49563
 N1438 N 0.83249 0.27587 0.48079
 H1439 H 0.88797 0.26860 0.44076
 H1440 H 0.82325 0.31315 0.51684
 C1441 C 0.88424 0.77844 -0.04139
 C1442 C 0.87752 0.78603 -0.02192
 N1443 N 0.88838 0.80098 -0.01204
 C1444 C 0.90547 0.80908 -0.02092
 C1445 C 0.91195 0.80215 -0.04080
 N1446 N 0.90125 0.78672 -0.05047
 N1447 N 0.87308 0.76365 -0.05131
 C1448 C 0.85533 0.75640 -0.04284
 C1449 C 0.84822 0.76453 -0.02365
 N1450 N 0.85971 0.77903 -0.01363
 H1451 H 0.91361 0.82122 -0.01270
 H1452 H 0.84657 0.74491 -0.05133
 C1453 C -0.12094 -0.02210 -0.05365
 C1454 C -0.11020 -0.03167 -0.03730
 N1455 N -0.11790 -0.04917 -0.02826
 C1456 C -0.13578 -0.05764 -0.03496
 C1457 C -0.14644 -0.04829 -0.05168
 N1458 N -0.13865 -0.03061 -0.06045
 N1459 N -0.11330 -0.00468 -0.06281
 C1460 C -0.09525 0.00355 -0.05650
 C1461 C -0.08415 -0.00616 -0.04034
 N1462 N -0.09203 -0.02357 -0.03107
 H1463 H -0.14138 -0.07167 -0.02748
 H1464 H -0.08949 0.01733 -0.06432
 C1465 C -0.12197 0.45750 0.49376
 C1466 C -0.11063 0.47314 0.48373
 N1467 N -0.11873 0.48351 0.46720
 C1468 C -0.13762 0.47868 0.45998
 C1469 C -0.14883 0.46263 0.46965
 N1470 N -0.14073 0.45257 0.48647
 N1471 N -0.11371 0.44693 0.51010
 C1472 C -0.09447 0.45118 0.51675
 C1473 C -0.08293 0.46659 0.50645
 N1474 N -0.09143 0.47726 0.49025
 H1475 H -0.14357 0.48695 0.44654
 H1476 H -0.08817 0.44238 0.52968
 C1477 C 0.37325 -0.03277 0.44384
 C1478 C 0.38225 -0.04356 0.46056
 N1479 N 0.37295 -0.06088 0.46826
 C1480 C 0.35517 -0.06800 0.45988
 C1481 C 0.34635 -0.05747 0.44272
 N1482 N 0.35573 -0.04001 0.43530
 N1483 N 0.38233 -0.01542 0.43613
 C1484 C 0.40016 -0.00838 0.44423
 C1485 C 0.40960 -0.01932 0.46073
 N1486 N 0.40029 -0.03671 0.46855
 H1487 H 0.34827 -0.08193 0.46633
 H1488 H 0.40706 0.00542 0.43749
 C1489 C 0.37778 0.47794 -0.04048
 C1490 C 0.38251 0.47089 -0.02023
 N1491 N 0.36817 0.46085 -0.00875
 C1492 C 0.34942 0.45701 -0.01676
 C1493 C 0.34477 0.46328 -0.03742
 N1494 N 0.35907 0.47396 -0.04863
 N1495 N 0.39226 0.48785 -0.05198
 C1496 C 0.41130 0.49090 -0.04420
 C1497 C 0.41617 0.48351 -0.02404
 N1498 N 0.40153 0.47377 -0.01252
 H1499 H 0.33849 0.44863 -0.00718
 H1500 H 0.42256 0.49879 -0.05379
 C1501 C 0.39601 0.47638 0.78972
 C1502 C 0.38767 0.46627 0.77228
 N1503 N 0.39633 0.44841 0.76510
 C1504 C 0.41268 0.43987 0.77493
 C1505 C 0.42051 0.44945 0.79300
 N1506 N 0.41213 0.46770 0.79972
 N1507 N 0.38705 0.49396 0.79719
 C1508 C 0.36976 0.50162 0.78834
 C1509 C 0.36085 0.49099 0.77143
 N1510 N 0.37026 0.47371 0.76365
 H1511 H 0.41898 0.42535 0.76913
 H1512 H 0.36266 0.51539 0.79497
 C1513 C 0.37316 -0.04701 0.26491
 C1514 C 0.36429 -0.02999 0.27543
 N1515 N 0.37485 -0.02040 0.29087
 C1516 C 0.39384 -0.02705 0.29630
 C1517 C 0.40280 -0.04422 0.28592
 N1518 N 0.39212 -0.05378 0.27040
 N1519 N 0.36263 -0.05653 0.24941
 C1520 C 0.34366 -0.04986 0.24396
 C1521 C 0.33459 -0.03286 0.25454
 N1522 N 0.34526 -0.02335 0.27010
 H1523 H 0.40176 -0.01903 0.30874
 H1524 H 0.33569 -0.05790 0.23156
 C1525 C 0.15282 0.52976 0.71297
 C1526 C 0.16264 0.54134 0.72858
 N1527 N 0.15212 0.55621 0.73921
 C1528 C 0.13223 0.56024 0.73476
 C1529 C 0.12241 0.54893 0.71886
 N1530 N 0.13299 0.53384 0.70844
 N1531 N 0.16341 0.51499 0.70225
 C1532 C 0.18345 0.51131 0.70638
 C1533 C 0.19340 0.52305 0.72189
 N1534 N 0.18263 0.53775 0.73265
 H1535 H 0.12431 0.57237 0.74334
 H1536 H 0.19152 0.49947 0.69753
 C1537 C 0.13608 0.03846 0.18662
 C1538 C 0.14409 0.04709 0.20500
 N1539 N 0.13398 0.06308 0.21442
 C1540 C 0.11630 0.07088 0.20627
 C1541 C 0.10827 0.06238 0.18766
 N1542 N 0.11853 0.04627 0.17842
 N1543 N 0.14605 0.02250 0.17712
 C1544 C 0.16375 0.01479 0.18505
 C1545 C 0.17210 0.02343 0.20341
 N1546 N 0.16193 0.03946 0.21298
 H1547 H 0.10874 0.08366 0.21422
 H1548 H 0.17129 0.00212 0.17691
 C1549 C 0.62168 0.71860 0.20367
 C1550 C 0.61217 0.70849 0.22055
 N1551 N 0.62235 0.69317 0.23091
 C1552 C 0.64160 0.68741 0.22509
 C1553 C 0.65118 0.69742 0.20807
 N1554 N 0.64087 0.71285 0.19784
 N1555 N 0.61146 0.73378 0.19318
 C1556 C 0.59210 0.73930 0.19875
 C1557 C 0.58239 0.72916 0.21561
 N1558 N 0.59281 0.71397 0.22612
 H1559 H 0.64925 0.67508 0.23359
 H1560 H 0.58435 0.75140 0.18999
 C1561 C 0.12582 0.72435 0.70684
 C1562 C 0.11885 0.71383 0.72479
 N1563 N 0.13029 0.69827 0.73307
 C1564 C 0.14827 0.69253 0.72407
 C1565 C 0.15507 0.70262 0.70570
 N1566 N 0.14365 0.71843 0.69762
 N1567 N 0.11437 0.73992 0.69857
 C1568 C 0.09611 0.74526 0.70724
 C1569 C 0.08874 0.73433 0.72488
 N1570 N 0.10045 0.71891 0.73328
 H1571 H 0.15690 0.67988 0.73097
 H1572 H 0.08721 0.75754 0.70003
 C1573 C 0.61434 0.23143 0.54601
 C1574 C 0.62384 0.22262 0.52835
 N1575 N 0.61353 0.20858 0.51658
 C1576 C 0.59425 0.20268 0.52188
 C1577 C 0.58493 0.21107 0.53992
 N1578 N 0.59524 0.22539 0.55143
 N1579 N 0.62461 0.24538 0.55787
 C1580 C 0.64404 0.25088 0.55295
 C1581 C 0.65377 0.24186 0.53545
 N1582 N 0.64334 0.22795 0.52351
 H1583 H 0.58655 0.19117 0.51241
 H1584 H 0.65187 0.26198 0.56282
 C1585 C 0.64455 0.71911 0.04831
 C1586 C 0.65388 0.70990 0.03080
 N1587 N 0.64362 0.69558 0.01941
 C1588 C 0.62440 0.68981 0.02483
 C1589 C 0.61500 0.69873 0.04253
 N1590 N 0.62532 0.71332 0.05381
 N1591 N 0.65507 0.73335 0.05973
 C1592 C 0.67455 0.73872 0.05444
 C1593 C 0.68393 0.72932 0.03697
 N1594 N 0.67322 0.71518 0.02562
 H1595 H 0.61667 0.67819 0.01550
 H1596 H 0.68262 0.75003 0.06383
 C1597 C 0.12041 0.05839 0.01041
 C1598 C 0.11195 0.03926 0.01658
 N1599 N 0.12253 0.02644 0.02942
 C1600 C 0.14117 0.03193 0.03671
 C1601 C 0.14969 0.05139 0.03113
 N1602 N 0.13905 0.06410 0.01786
 N1603 N 0.10956 0.07113 -0.00247
 C1604 C 0.09056 0.06569 -0.00920
 C1605 C 0.08189 0.04671 -0.00253
 N1606 N 0.09300 0.03399 0.01012
 H1607 H 0.14901 0.02124 0.04706
 H1608 H 0.08214 0.07628 -0.01917
 C1609 C 0.12570 0.51638 0.55506
 C1610 C 0.11477 0.52594 0.53885
 N1611 N 0.12381 0.54102 0.52714
 C1612 C 0.14331 0.54712 0.53100
 C1613 C 0.15432 0.53775 0.54739
 N1614 N 0.14517 0.52249 0.55898
 N1615 N 0.11656 0.50140 0.56685
 C1616 C 0.09689 0.49560 0.56321
 C1617 C 0.08581 0.50529 0.54706
 N1618 N 0.09517 0.52022 0.53526
 H1619 H 0.15004 0.55929 0.52148
 H1620 H 0.08998 0.48370 0.57294
 C1621 C 0.60612 0.05478 0.53014
 C1622 C 0.59891 0.03590 0.53843
 N1623 N 0.60970 0.02631 0.55381
 C1624 C 0.62729 0.03477 0.56134
 C1625 C 0.63450 0.05390 0.55323
 N1626 N 0.62358 0.06330 0.53771
 N1627 N 0.59544 0.06445 0.51480
 C1628 C 0.57779 0.05621 0.50739
 C1629 C 0.57024 0.03736 0.51574
 N1630 N 0.58113 0.02762 0.53113
 H1631 H 0.63540 0.02668 0.57366
 H1632 H 0.56965 0.06449 0.49523
 C1633 C 0.61520 0.52789 0.05866
 C1634 C 0.60730 0.53592 0.03997
 N1635 N 0.61764 0.55098 0.02946
 C1636 C 0.63557 0.55855 0.03687
 C1637 C 0.64357 0.55073 0.05571
 N1638 N 0.63315 0.53544 0.06612
 N1639 N 0.60455 0.51302 0.06926
 C1640 C 0.58624 0.50596 0.06206
 C1641 C 0.57821 0.51417 0.04340
 N1642 N 0.58912 0.52892 0.03285
 H1643 H 0.64339 0.57064 0.02815
 H1644 H 0.57796 0.49432 0.07095
 C1645 C 0.03559 0.06082 0.10360
 C1646 C 0.04655 0.04499 0.09334
 N1647 N 0.06374 0.03726 0.10235
 C1648 C 0.07051 0.04465 0.12107
 C1649 C 0.05970 0.06076 0.13140
 N1650 N 0.04240 0.06833 0.12223
 N1651 N 0.01843 0.06860 0.09468
 C1652 C 0.01175 0.06143 0.07589
 C1653 C 0.02279 0.04572 0.06526
 N1654 N 0.03999 0.03785 0.07441
 H1655 H 0.08431 0.03809 0.12767
 H1656 H -0.00192 0.06817 0.06922
 C1657 C 0.03792 0.53262 0.64773
 C1658 C 0.04829 0.51564 0.63873
 N1659 N 0.06616 0.50906 0.64715
 C1660 C 0.07431 0.51888 0.66399
 C1661 C 0.06427 0.53630 0.67272
 N1662 N 0.04615 0.54261 0.66442
 N1663 N 0.02017 0.53935 0.63916
 C1664 C 0.01252 0.53015 0.62173
 C1665 C 0.02321 0.51355 0.61223
 N1666 N 0.04080 0.50658 0.62118
 H1667 H 0.08871 0.51337 0.67017
 H1668 H -0.00148 0.53616 0.61506
 C1669 C 0.52177 0.03382 0.61520
 C1670 C 0.53337 0.01922 0.60392
 N1671 N 0.55068 0.01128 0.61253
 C1672 C 0.55705 0.01752 0.63180
 C1673 C 0.54571 0.03268 0.64288
 N1674 N 0.52823 0.04021 0.63421
 N1675 N 0.50455 0.04191 0.60674
 C1676 C 0.49848 0.03630 0.58729
 C1677 C 0.51029 0.02206 0.57559
 N1678 N 0.52746 0.01373 0.58432
 H1679 H 0.57103 0.01108 0.63810
 H1680 H 0.48478 0.04328 0.58090
 C1681 C 0.52276 0.54050 0.13438
 C1682 C 0.52773 0.52026 0.12777
 N1683 N 0.54054 0.50836 0.13936
 C1684 C 0.54906 0.51593 0.15711
 C1685 C 0.54476 0.53648 0.16351
 N1686 N 0.53143 0.54821 0.15207
 N1687 N 0.51028 0.55247 0.12236
 C1688 C 0.50292 0.54526 0.10380
 C1689 C 0.50854 0.52524 0.09680
 N1690 N 0.52064 0.51322 0.10922
 H1691 H 0.55948 0.50614 0.16583
 H1692 H 0.49348 0.55535 0.09427
 C1693 C 0.24072 0.53583 0.61810
 C1694 C 0.23194 0.51957 0.62970
 N1695 N 0.21485 0.51004 0.62254
 C1696 C 0.20590 0.51629 0.60441
 C1697 C 0.21431 0.53300 0.59303
 N1698 N 0.23170 0.54219 0.60013
 N1699 N 0.25755 0.54566 0.62550
 C1700 C 0.26580 0.54023 0.64424
 C1701 C 0.25667 0.52434 0.65623
 N1702 N 0.24004 0.51428 0.64847
 H1703 H 0.19209 0.50862 0.59927
 H1704 H 0.27896 0.54864 0.64994
 C1705 C 0.22575 0.03979 0.10913
 C1706 C 0.21593 0.02197 0.11693
 N1707 N 0.20055 0.01319 0.10587
 C1708 C 0.19410 0.02180 0.08760
 C1709 C 0.20325 0.04031 0.08024
 N1710 N 0.21916 0.04853 0.09110
 N1711 N 0.24089 0.04881 0.12032
 C1712 C 0.24643 0.04103 0.13923
 C1713 C 0.23615 0.02358 0.14745
 N1714 N 0.22127 0.01434 0.13591
 H1715 H 0.18146 0.01468 0.07942
 H1716 H 0.25836 0.04875 0.14796
 C1717 C 0.69493 0.22583 0.63608
 C1718 C 0.71200 0.21652 0.62652
 N1719 N 0.72072 0.19950 0.63540
 C1720 C 0.71309 0.19121 0.65338
 C1721 C 0.69581 0.20028 0.66299
 N1722 N 0.68721 0.21752 0.65406
 N1723 N 0.68614 0.24275 0.62699
 C1724 C 0.69352 0.25068 0.60867
 C1725 C 0.71049 0.24121 0.59889
 N1726 N 0.71931 0.22435 0.60823
 H1727 H 0.72039 0.17756 0.65997
 H1728 H 0.68601 0.26401 0.60168
 C1729 C 0.73314 0.70634 0.13138
 C1730 C 0.72349 0.72335 0.12175
 N1731 N 0.70634 0.73159 0.13049
 C1732 C 0.69823 0.72345 0.14835
 C1733 C 0.70767 0.70617 0.15789
 N1734 N 0.72503 0.69817 0.14915
 N1735 N 0.75005 0.69782 0.12243
 C1736 C 0.75763 0.70537 0.10407
 C1737 C 0.74780 0.72220 0.09415
 N1738 N 0.73099 0.73083 0.10341
 H1739 H 0.68444 0.73023 0.15483
 H1740 H 0.77092 0.69802 0.09712
 C1741 C 0.53239 0.70294 0.11837
 C1742 C 0.54027 0.72152 0.12657
 N1743 N 0.55593 0.73124 0.11665
 C1744 C 0.56433 0.72307 0.09900
 C1745 C 0.55685 0.70417 0.09092
 N1746 N 0.54085 0.69466 0.10078
 N1747 N 0.51693 0.69309 0.12861
 C1748 C 0.50922 0.70082 0.14687
 C1749 C 0.51748 0.71918 0.15539
 N1750 N 0.53272 0.72911 0.14481
 H1751 H 0.57696 0.73111 0.09159
 H1752 H 0.49718 0.69242 0.15488
 C1753 C 0.04156 0.72280 0.62704
 C1754 C 0.02552 0.71161 0.63638
 N1755 N 0.01815 0.69436 0.62680
 C1756 C 0.02636 0.68752 0.60847
 C1757 C 0.04295 0.69825 0.59943
 N1758 N 0.04998 0.71582 0.60890
 N1759 N 0.04910 0.73990 0.63677
 C1760 C 0.04163 0.74608 0.65565
 C1761 C 0.02608 0.73443 0.66546
 N1762 N 0.01827 0.71756 0.65538
 H1763 H 0.02033 0.67351 0.60140
 H1764 H 0.04829 0.75953 0.66321
 C1765 C 0.53095 0.62163 0.21358
 C1766 C 0.54396 0.63354 0.22623
 N1767 N 0.56215 0.62535 0.23229
 C1768 C 0.56798 0.60589 0.22609
 C1769 C 0.55514 0.59414 0.21299
 N1770 N 0.53685 0.60238 0.20720
 N1771 N 0.51280 0.62966 0.20742
 C1772 C 0.50713 0.64922 0.21304
 C1773 C 0.52031 0.66157 0.22525
 N1774 N 0.53843 0.65329 0.23171
 H1775 H 0.58266 0.59987 0.23101
 H1776 H 0.49260 0.65517 0.20763
 C1777 C 0.04172 0.62534 0.71536
 C1778 C 0.05056 0.63566 0.73242
 N1779 N 0.06579 0.62635 0.74327
 C1780 C 0.07288 0.60725 0.73766
 C1781 C 0.06446 0.59696 0.72025
 N1782 N 0.04889 0.60625 0.70959
 N1783 N 0.02654 0.63487 0.70448
 C1784 C 0.01992 0.65431 0.70982
 C1785 C 0.02903 0.66481 0.72673
 N1786 N 0.04408 0.65505 0.73763
 H1787 H 0.08522 0.60037 0.74653
 H1788 H 0.00790 0.66157 0.70078
 C1789 C 0.02704 0.14710 0.01128
 C1790 C 0.01079 0.13708 0.02156
 N1791 N 0.00211 0.14607 0.03862
 C1792 C 0.00948 0.16426 0.04639
 C1793 C 0.02677 0.17355 0.03701
 N1794 N 0.03471 0.16493 0.01931
 N1795 N 0.03596 0.13803 -0.00557
 C1796 C 0.02983 0.11900 -0.01225
 C1797 C 0.01436 0.10832 -0.00124
 N1798 N 0.00495 0.11785 0.01520
 H1799 H 0.00256 0.17069 0.06039
 H1800 H 0.03759 0.11196 -0.02547
 C1801 C 0.03046 0.61304 0.55270
 C1802 C 0.04239 0.60161 0.53844
 N1803 N 0.05903 0.61071 0.52953
 C1804 C 0.06439 0.63063 0.53444
 C1805 C 0.05266 0.64191 0.54910
 N1806 N 0.03589 0.63275 0.55771
 N1807 N 0.01396 0.60407 0.56182
 C1808 C 0.00889 0.58404 0.55753
 C1809 C 0.02097 0.57228 0.54355
 N1810 N 0.03744 0.58147 0.53421
 H1811 H 0.07788 0.63737 0.52733
 H1812 H -0.00431 0.57733 0.56523
 C1813 C 0.51171 0.12819 0.53905
 C1814 C 0.51889 0.12220 0.51920
 N1815 N 0.53112 0.13519 0.50813
 C1816 C 0.53694 0.15379 0.51618
 C1817 C 0.53045 0.15961 0.53639
 N1818 N 0.51773 0.14671 0.54727
 N1819 N 0.49959 0.11497 0.55011
 C1820 C 0.49454 0.09592 0.54231
 C1821 C 0.50223 0.08970 0.52267
 N1822 N 0.51411 0.10316 0.51158
 H1823 H 0.54699 0.16366 0.50705
 H1824 H 0.48509 0.08558 0.55159
 C1825 C 0.53503 0.62084 0.04031
 C1826 C 0.54667 0.60870 0.02634
 N1827 N 0.56480 0.61606 0.01916
 C1828 C 0.57195 0.63490 0.02551
 C1829 C 0.56055 0.64687 0.03993
 N1830 N 0.54226 0.63951 0.04686
 N1831 N 0.51694 0.61353 0.04755
 C1832 C 0.51004 0.59449 0.04171
 C1833 C 0.52188 0.58196 0.02814
 N1834 N 0.53991 0.58952 0.02066
 H1835 H 0.58658 0.64022 0.01967
 H1836 H 0.49563 0.58904 0.04801
 C1837 C 0.70404 0.14051 0.55506
 C1838 C 0.69344 0.15078 0.53906
 N1839 N 0.67692 0.14148 0.53032
 C1840 C 0.67046 0.12236 0.53687
 C1841 C 0.68104 0.11194 0.55300
 N1842 N 0.69764 0.12144 0.56159
 N1843 N 0.72044 0.14982 0.56395
 C1844 C 0.72675 0.16903 0.55762
 C1845 C 0.71618 0.17949 0.54157
 N1846 N 0.69972 0.16997 0.53268
 H1847 H 0.65721 0.11547 0.52957
 H1848 H 0.73983 0.17606 0.56511
 C1849 C 0.72451 0.62870 0.05400
 C1850 C 0.71468 0.63890 0.03738
 N1851 N 0.69703 0.63100 0.02974
 C1852 C 0.68867 0.61341 0.03798
 C1853 C 0.69828 0.60317 0.05483
 N1854 N 0.71609 0.61115 0.06240
 N1855 N 0.74217 0.63669 0.06161
 C1856 C 0.75037 0.65446 0.05348
 C1857 C 0.74041 0.66491 0.03698
 N1858 N 0.72275 0.65672 0.02936
 H1859 H 0.67452 0.60764 0.03151
 H1860 H 0.76433 0.66053 0.06010
 C1861 C 0.23757 0.62785 0.69973
 C1862 C 0.23109 0.61967 0.71904
 N1863 N 0.21607 0.62939 0.72995
 C1864 C 0.20692 0.64676 0.72229
 C1865 C 0.21282 0.65468 0.70259
 N1866 N 0.22822 0.64508 0.69185
 N1867 N 0.25257 0.61794 0.68884
 C1868 C 0.26113 0.60004 0.69623
 C1869 C 0.25412 0.59146 0.71525
 N1870 N 0.23935 0.60168 0.72622
 H1871 H 0.19481 0.65397 0.73133
 H1872 H 0.27276 0.59226 0.68700
 C1873 C 0.22295 0.12168 0.20304
 C1874 C 0.21235 0.11124 0.21903
 N1875 N 0.19651 0.12099 0.22881
 C1876 C 0.19070 0.14063 0.22320
 C1877 C 0.20109 0.15101 0.20691
 N1878 N 0.21705 0.14117 0.19733
 N1879 N 0.23872 0.11202 0.19318
 C1880 C 0.24433 0.09228 0.19843
 C1881 C 0.23358 0.08152 0.21424
 N1882 N 0.21782 0.09141 0.22422
 H1883 H 0.17790 0.14788 0.23115
 H1884 H 0.25687 0.08499 0.19009
 C1885 C 0.71015 1.11167 0.70701
 C1886 C 0.70211 1.10276 0.72539
 N1887 N 0.68966 1.11427 0.73788
 C1888 C 0.68471 1.13421 0.73272
 C1889 C 0.69253 1.14308 0.71416
 N1890 N 0.70516 1.13153 0.70181
 N1891 N 0.72254 1.10021 0.69446
 C1892 C 0.72738 1.08025 0.69948
 C1893 C 0.71944 1.07124 0.71793
 N1894 N 0.70690 1.08277 0.73044
 H1895 H 0.67455 1.14292 0.74289
 H1896 H 0.73736 1.07153 0.68913
 C1897 C 0.71279 0.62184 0.23343
 C1898 C 0.73053 0.61449 0.22341
 N1899 N 0.73858 0.62543 0.20721
 C1900 C 0.72958 0.64326 0.20036
 C1901 C 0.71143 0.65045 0.20992
 N1902 N 0.70357 0.63955 0.22641
 N1903 N 0.70470 0.61076 0.24955
 C1904 C 0.71331 0.59248 0.25586
 C1905 C 0.73071 0.58467 0.24537
 N1906 N 0.73896 0.59608 0.22946
 H1907 H 0.73634 0.65146 0.18725
 H1908 H 0.70619 0.58381 0.26846
 C1909 C 0.53453 0.11278 0.72037
 C1910 C 0.51738 0.12070 0.70984
 N1911 N 0.50988 0.11020 0.69315
 C1912 C 0.51890 0.09230 0.68633
 C1913 C 0.53642 0.08459 0.69653
 N1914 N 0.54368 0.09504 0.71346
 N1915 N 0.54217 0.12331 0.73695
 C1916 C 0.53366 0.14158 0.74331
 C1917 C 0.51678 0.14993 0.73248
 N1918 N 0.50895 0.13910 0.71604
 H1919 H 0.51266 0.08445 0.67282
 H1920 H 0.54032 0.14967 0.75646
 C1921 C 1.04801 0.13608 0.21539
 C1922 C 1.03199 0.14604 0.20481
 N1923 N 1.02580 0.13847 0.18604
 C1924 C 1.03499 0.12150 0.17726
 C1925 C 1.05137 0.11165 0.18758
 N1926 N 1.05737 0.11924 0.20655
 N1927 N 1.05428 0.14372 0.23410
 C1928 C 1.04550 0.16106 0.24258
 C1929 C 1.02975 0.17149 0.23180
 N1930 N 1.02335 0.16352 0.21313
 H1931 H 1.02976 0.11599 0.16221
 H1932 H 1.05118 0.16695 0.25731
 C1933 C 0.20766 0.61680 0.51754
 C1934 C 0.22648 0.62445 0.52458
 N1935 N 0.23756 0.61317 0.53845
 C1936 C 0.23054 0.59468 0.54590
 C1937 C 0.21140 0.58715 0.53938
 N1938 N 0.20049 0.59841 0.52515
 N1939 N 0.19655 0.62825 0.50376
 C1940 C 0.20329 0.64715 0.49692
 C1941 C 0.22192 0.65510 0.50440
 N1942 N 0.23308 0.64338 0.51799
 H1943 H 0.23967 0.58620 0.55715
 H1944 H 0.19394 0.65607 0.48622
 C1945 C 0.19739 0.13956 1.03330
 C1946 C 0.21804 0.14384 1.03757
 N1947 N 0.23058 0.12803 1.04344
 C1948 C 0.22341 0.10823 1.04532
 C1949 C 0.20277 0.10391 1.04090
 N1950 N 0.19027 0.11978 1.03499
 N1951 N 0.18475 0.15526 1.02755
 C1952 C 0.19187 0.17498 1.02539
 C1953 C 0.21268 0.17929 1.02896
 N1954 N 0.22530 0.16358 1.03520
 H1955 H 0.23373 0.09597 1.05023
 H1956 H 0.18146 0.18713 1.02040
 C1957 C 0.21973 0.69872 0.61242
 C1958 C 0.20903 0.71538 0.60332
 N1959 N 0.19417 0.72521 0.61446
 C1960 C 0.18945 0.71911 0.63430
 C1961 C 0.20011 0.70240 0.64353
 N1962 N 0.21506 0.69264 0.63225
 N1963 N 0.23451 0.68882 0.60121
 C1964 C 0.23912 0.69483 0.58131
 C1965 C 0.22848 0.71158 0.57211
 N1966 N 0.21365 0.72143 0.58348
 H1967 H 0.17747 0.72724 0.64272
 H1968 H 0.25100 0.68662 0.57281
 C1969 C 0.20293 0.23099 1.12749
 C1970 C 0.21860 0.22065 1.11671
 N1971 N 0.22751 0.20355 1.12527
 C1972 C 0.22128 0.19606 1.14415
 C1973 C 0.20529 0.20615 1.15497
 N1974 N 0.19668 0.22355 1.14633
 N1975 N 0.19376 0.24786 1.11863
 C1976 C 0.19948 0.25476 1.09930
 C1977 C 0.21507 0.24425 1.08837
 N1978 N 0.22425 0.22750 1.09753
 H1979 H 0.22856 0.18224 1.15042
 H1980 H 0.19178 0.26807 1.09248
 C1981 C 0.72012 0.54822 0.13767
 C1982 C 0.71061 0.53050 0.14616
 N1983 N 0.69444 0.52196 0.13620
 C1984 C 0.68720 0.53039 0.11818
 C1985 C 0.69646 0.54833 0.10966
 N1986 N 0.71285 0.55676 0.11966
 N1987 N 0.73624 0.55679 0.14782
 C1988 C 0.74315 0.54856 0.16613
 C1989 C 0.73345 0.53094 0.17483
 N1990 N 0.71742 0.52235 0.16447
 H1991 H 0.67419 0.52318 0.11073
 H1992 H 0.75589 0.55589 0.17393
 C1993 C 0.69841 1.02671 0.62443
 C1994 C 0.71385 1.03816 0.63435
 N1995 N 0.71841 1.05759 0.62738
 C1996 C 0.70815 1.06619 0.61104
 C1997 C 0.69235 1.05497 0.60126
 N1998 N 0.68797 1.03537 0.60823
 N1999 N 0.69378 1.00733 0.63150
 C2000 C 0.70363 0.99899 0.64825
 C2001 C 0.71875 1.01062 0.65865
 N2002 N 0.72353 1.02996 0.65125
 H2003 H 0.71211 1.08178 0.60598
 H2004 H 0.69924 0.98366 0.65375
 C2005 C 0.51351 0.20295 0.62594
 C2006 C 0.52263 0.22019 0.63566
 N2007 N 0.53676 0.23153 0.62508
 C2008 C 0.54241 0.22627 0.60529
 C2009 C 0.53362 0.20875 0.59559
 N2010 N 0.51922 0.19760 0.60619
 N2011 N 0.49953 0.19150 0.63663
 C2012 C 0.49439 0.19637 0.65669
 C2013 C 0.50376 0.21344 0.66662
 N2014 N 0.51761 0.22500 0.65571
 H2015 H 0.55388 0.23553 0.59737
 H2016 H 0.48331 0.18681 0.66485
 C2017 C 1.04376 0.23153 0.12974
 C2018 C 1.02528 0.22378 0.13779
 N2019 N 1.01279 0.21256 0.12534
 C2020 C 1.01800 0.20844 0.10521
 C2021 C 1.03678 0.21572 0.09702
 N2022 N 1.04915 0.22730 0.10958
 N2023 N 1.05616 0.24284 0.14234
 C2024 C 1.05091 0.24668 0.16262
 C2025 C 1.03246 0.23871 0.17076
 N2026 N 1.02012 0.22746 0.15802
 H2027 H 1.00760 0.19926 0.09588
 H2028 H 1.06113 0.25572 0.17230
 C2029 C 0.61111 0.21617 0.71408
 C2030 C 0.60431 0.20790 0.73326
 N2031 N 0.61712 0.19611 0.74493
 C2032 C 0.63628 0.19169 0.73804
 C2033 C 0.64288 0.19913 0.71838
 N2034 N 0.63017 0.21149 0.70699
 N2035 N 0.59817 0.22782 0.70235
 C2036 C 0.57865 0.23134 0.70879
 C2037 C 0.57160 0.22252 0.72769
 N2038 N 0.58475 0.21113 0.73954
 H2039 H 0.64600 0.18184 0.74753
 H2040 H 0.56862 0.24051 0.69896
 C2041 C 1.12626 0.21266 0.23217
 C2042 C 1.11909 0.23091 0.22245
 N2043 N 1.13012 0.23968 0.20678
 C2044 C 1.14781 0.23081 0.20006
 C2045 C 1.15469 0.21204 0.20919
 N2046 N 1.14379 0.20355 0.22525
 N2047 N 1.11510 0.20383 0.24774
 C2048 C 1.09689 0.21216 0.25373
 C2049 C 1.08926 0.23000 0.24344
 N2050 N 1.10075 0.23905 0.22815
 H2051 H 1.15608 0.23809 0.18732
 H2052 H 1.08816 0.20446 0.26590
 C2053 C 0.12809 0.70037 0.52570
 C2054 C 0.13728 0.71706 0.53627
 N2055 N 0.12777 0.72545 0.55323
 C2056 C 0.10958 0.71778 0.56019
 C2057 C 0.10057 0.70076 0.54984
 N2058 N 0.11012 0.69258 0.53277
 N2059 N 0.13745 0.69192 0.50876
 C2060 C 0.15570 0.69929 0.50192
 C2061 C 0.16524 0.71580 0.51262
 N2062 N 0.15569 0.72434 0.52959
 H2063 H 0.10246 0.72465 0.57386
 H2064 H 0.16283 0.69201 0.48845
 C2065 C 0.11880 0.23372 1.04349
 C2066 C 0.12604 0.22438 1.02497
 N2067 N 0.11390 0.21080 1.01460
 C2068 C 0.09493 0.20606 1.02193
 C2069 C 0.08770 0.21521 1.04064
 N2070 N 0.09992 0.22888 1.05093
 N2071 N 0.13082 0.24738 1.05383
 C2072 C 0.14975 0.25215 1.04656
 C2073 C 0.15722 0.24277 1.02805
 N2074 N 0.14508 0.22900 1.01770
 H2075 H 0.08572 0.19506 1.01330
 H2076 H 0.15895 0.26305 1.05534
 C2077 C 0.63323 0.53697 0.23163
 C2078 C 0.64183 0.52020 0.22052
 N2079 N 0.63123 0.51143 0.20461
 C2080 C 0.61251 0.51883 0.19913
 C2081 C 0.60408 0.53600 0.20988
 N2082 N 0.61470 0.54455 0.22599
 N2083 N 0.64376 0.54576 0.24754
 C2084 C 0.66265 0.53871 0.25274
 C2085 C 0.67159 0.52222 0.24133
 N2086 N 0.66083 0.51330 0.22550
 H2087 H 0.60455 0.51166 0.18620
 H2088 H 0.67074 0.54627 0.26535
 C2089 C 0.62481 1.01493 0.69758
 C2090 C 0.63265 1.02486 0.71536
 N2091 N 0.62176 1.04038 0.72461
 C2092 C 0.60341 1.04655 0.71681
 C2093 C 0.59558 1.03683 0.69881
 N2094 N 0.60655 1.02115 0.68971
 N2095 N 0.63577 0.99949 0.68826
 C2096 C 0.65432 0.99362 0.69581
 C2097 C 0.66239 1.00371 0.71349
 N2098 N 0.65121 1.01910 0.72283
 H2099 H 0.59517 1.05907 0.72447
 H2100 H 0.66279 0.98143 0.68787
 C2101 C 0.87532 0.45523 0.29133
 C2102 C 0.86638 0.47273 0.30092
 N2103 N 0.87551 0.48156 0.31767
 C2104 C 0.89306 0.47354 0.32555
 C2105 C 0.90191 0.45563 0.31644
 N2106 N 0.89284 0.44699 0.29933
 N2107 N 0.86595 0.44642 0.27461
 C2108 C 0.84796 0.45416 0.26723
 C2109 C 0.83873 0.47140 0.27718
 N2110 N 0.84835 0.48027 0.29376
 H2111 H 0.89979 0.48094 0.33907
 H2112 H 0.84069 0.44658 0.25411
 C2113 C 0.86919 0.97369 0.78342
 C2114 C 0.86289 0.96569 0.76402
 N2115 N 0.87615 0.95441 0.75227
 C2116 C 0.89526 0.95024 0.75926
 C2117 C 0.90140 0.95736 0.77913
 N2118 N 0.88823 0.96923 0.79064
 N2119 N 0.85580 0.98489 0.79517
 C2120 C 0.83635 0.98822 0.78854
 C2121 C 0.82981 0.97964 0.76941
 N2122 N 0.84339 0.96869 0.75756
 H2123 H 0.90533 0.94082 0.74965
 H2124 H 0.82597 0.99701 0.79841
 C2125 C 0.36783 0.26626 0.79822
 C2126 C 0.37592 0.27262 0.77889
 N2127 N 0.36618 0.28738 0.76749
 C2128 C 0.34878 0.29643 0.77466
 C2129 C 0.34072 0.29061 0.79427
 N2130 N 0.35038 0.27541 0.80555
 N2131 N 0.37804 0.25168 0.80964
 C2132 C 0.39611 0.24346 0.80272
 C2133 C 0.40445 0.25028 0.78356
 N2134 N 0.39391 0.26460 0.77216
 H2135 H 0.34150 0.30830 0.76521
 H2136 H 0.40414 0.23224 0.81234
 C2137 C 0.88324 0.29673 0.28620
 C2138 C 0.89209 0.27920 0.29572
 N2139 N 0.88228 0.26964 0.31178
 C2140 C 0.86403 0.27688 0.31892
 C2141 C 0.85510 0.29465 0.30969
 N2142 N 0.86498 0.30410 0.29338
 N2143 N 0.89330 0.30633 0.27023
 C2144 C 0.91186 0.29929 0.26349
 C2145 C 0.92090 0.28186 0.27323
 N2146 N 0.91061 0.27226 0.28910
 H2147 H 0.85670 0.26889 0.33185
 H2148 H 0.91961 0.30744 0.25093
 C2149 C 0.36758 0.77463 0.44631
 C2150 C 0.35878 0.78393 0.46408
 N2151 N 0.36820 0.80037 0.47321
 C2152 C 0.38591 0.80815 0.46522
 C2153 C 0.39454 0.79921 0.44709
 N2154 N 0.38516 0.78250 0.43819
 N2155 N 0.35803 0.75836 0.43701
 C2156 C 0.33989 0.75115 0.44447
 C2157 C 0.33071 0.76076 0.46197
 N2158 N 0.34056 0.77687 0.47144
 H2159 H 0.39291 0.82143 0.47273
 H2160 H 0.33252 0.73835 0.43649
 C2161 C 0.36529 0.29621 0.97562
 C2162 C 0.35635 0.27994 0.96412
 N2163 N 0.36678 0.27149 0.94783
 C2164 C 0.38563 0.27860 0.94241
 C2165 C 0.39458 0.29515 0.95367
 N2166 N 0.38410 0.30349 0.97013
 N2167 N 0.35487 0.30469 0.99189
 C2168 C 0.33586 0.29788 0.99705
 C2169 C 0.32657 0.28186 0.98531
 N2170 N 0.33723 0.27319 0.96913
 H2171 H 0.39341 0.27150 0.92924
 H2172 H 0.32798 0.30519 1.01004
 C2173 C 0.78511 0.45421 0.37997
 C2174 C 0.79449 0.47179 0.37107
 N2175 N 0.80771 0.48322 0.38255
 C2176 C 0.81216 0.47780 0.40255
 C2177 C 0.80298 0.46007 0.41158
 N2178 N 0.78956 0.44871 0.40001
 N2179 N 0.77186 0.44285 0.36834
 C2180 C 0.76753 0.44833 0.34824
 C2181 C 0.77693 0.46599 0.33931
 N2182 N 0.79020 0.47723 0.35107
 H2183 H 0.82289 0.48722 0.41122
 H2184 H 0.75684 0.43904 0.33938
 C2185 C 0.77719 0.95172 0.86750
 C2186 C 0.78631 0.96912 0.85799
 N2187 N 0.80234 0.97855 0.86745
 C2188 C 0.80984 0.97121 0.88588
 C2189 C 0.80106 0.95345 0.89525
 N2190 N 0.78478 0.94425 0.88580
 N2191 N 0.76131 0.94214 0.85794
 C2192 C 0.75433 0.94895 0.83912
 C2193 C 0.76376 0.96607 0.82921
 N2194 N 0.77949 0.97584 0.83908
 H2195 H 0.82279 0.97896 0.89289
 H2196 H 0.74185 0.94074 0.83177
 C2197 C 0.27306 0.78579 0.36388
 C2198 C 0.28392 0.76884 0.37225
 N2199 N 0.29965 0.76042 0.36122
 C2200 C 0.30519 0.76833 0.34227
 C2201 C 0.29456 0.78555 0.33397
 N2202 N 0.27862 0.79375 0.34502
 N2203 N 0.25749 0.79439 0.37501
 C2204 C 0.25239 0.78695 0.39425
 C2205 C 0.26343 0.77015 0.40287
 N2206 N 0.27890 0.76145 0.39150
 H2207 H 0.31793 0.76139 0.33395
 H2208 H 0.24001 0.79428 0.40281
 C2209 C 0.28393 0.27846 0.87733
 C2210 C 0.26684 0.28986 0.88433
 N2211 N 0.25862 0.30470 0.87182
 C2212 C 0.26700 0.30902 0.85284
 C2213 C 0.28466 0.29825 0.84612
 N2214 N 0.29253 0.28298 0.85849
 N2215 N 0.29225 0.26374 0.88990
 C2216 C 0.28450 0.26013 0.90931
 C2217 C 0.26780 0.27202 0.91670
 N2218 N 0.25925 0.28650 0.90385
 H2219 H 0.26025 0.32122 0.84339
 H2220 H 0.29170 0.24842 0.91902
 C2221 C 0.45165 0.26807 0.87825
 C2222 C 0.46838 0.27782 0.86853
 N2223 N 0.47732 0.29443 0.87787
 C2224 C 0.47007 0.30196 0.89635
 C2225 C 0.45288 0.29263 0.90578
 N2226 N 0.44423 0.27576 0.89650
 N2227 N 0.44262 0.25156 0.86890
 C2228 C 0.44935 0.24449 0.85008
 C2229 C 0.46574 0.25458 0.83995
 N2230 N 0.47495 0.27097 0.84957
 H2231 H 0.47731 0.31544 0.90325
 H2232 H 0.44160 0.23146 0.84288
 C2233 C 0.96413 0.29502 0.37749
 C2234 C 0.95327 0.27926 0.36712
 N2235 N 0.93634 0.27109 0.37630
 C2236 C 0.92974 0.27803 0.39530
 C2237 C 0.94053 0.29396 0.40565
 N2238 N 0.95753 0.30199 0.39639
 N2239 N 0.98099 0.30329 0.36842
 C2240 C 0.98751 0.29662 0.34938
 C2241 C 0.97666 0.28090 0.33875
 N2242 N 0.95972 0.27256 0.34799
 H2243 H 0.91613 0.27126 0.40213
 H2244 H 1.00101 0.30368 0.34261
 C2245 C 0.45216 0.35719 0.78885
 C2246 C 0.46680 0.34575 0.79993
 N2247 N 0.47694 0.35487 0.81602
 C2248 C 0.47316 0.37503 0.82148
 C2249 C 0.45868 0.38665 0.81020
 N2250 N 0.44852 0.37731 0.79417
 N2251 N 0.44195 0.34806 0.77283
 C2252 C 0.44585 0.32796 0.76724
 C2253 C 0.46079 0.31653 0.77807
 N2254 N 0.47082 0.32580 0.79424
 H2255 H 0.48147 0.38192 0.83433
 H2256 H 0.43762 0.32115 0.75429
 C2257 C 0.95988 0.37618 0.29169
 C2258 C 0.97558 0.36641 0.30301
 N2259 N 0.98157 0.37455 0.32154
 C2260 C 0.97249 0.39193 0.32940
 C2261 C 0.95646 0.40164 0.31835
 N2262 N 0.95063 0.39351 0.29961
 N2263 N 0.95384 0.36788 0.27320
 C2264 C 0.96257 0.35012 0.26566
 C2265 C 0.97802 0.34001 0.27721
 N2266 N 0.98417 0.34858 0.29561
 H2267 H 0.97762 0.39789 0.34431
 H2268 H 0.95715 0.34373 0.25104
 C2269 C 0.28958 0.86402 0.46123
 C2270 C 0.27318 0.85545 0.45011
 N2271 N 0.26594 0.86551 0.43297
 C2272 C 0.27449 0.88367 0.42629
 C2273 C 0.29122 0.89212 0.43713
 N2274 N 0.29824 0.88206 0.45448
 N2275 N 0.29698 0.85385 0.47822
 C2276 C 0.28896 0.83529 0.48442
 C2277 C 0.27284 0.82634 0.47301
 N2278 N 0.26527 0.83683 0.45617
 H2279 H 0.26847 0.89120 0.41246
 H2280 H 0.29546 0.82739 0.49782
 C2281 C 0.27182 0.38346 0.95902
 C2282 C 0.27720 0.37761 0.97949
 N2283 N 0.28776 0.39112 0.99162
 C2284 C 0.29367 0.40996 0.98401
 C2285 C 0.28913 0.41546 0.96316
 N2286 N 0.27802 0.40210 0.95129
 N2287 N 0.26139 0.36997 0.94682
 C2288 C 0.25625 0.35079 0.95405
 C2289 C 0.26207 0.34461 0.97437
 N2290 N 0.27234 0.35830 0.98667
 H2291 H 0.30253 0.42018 0.99391
 H2292 H 0.24805 0.34034 0.94380
 C2293 C 0.79954 0.37508 0.28402
 C2294 C 0.78140 0.38283 0.29288
 N2295 N 0.77225 0.37226 0.30870
 C2296 C 0.78050 0.35436 0.31629
 C2297 C 0.79896 0.34665 0.30785
 N2298 N 0.80797 0.35721 0.29172
 N2299 N 0.80873 0.38592 0.26831
 C2300 C 0.80076 0.40429 0.26129
 C2301 C 0.78283 0.41235 0.27054
 N2302 N 0.77359 0.40122 0.28606
 H2303 H 0.77282 0.34644 0.32904
 H2304 H 0.80868 0.41277 0.24906
   
