data_POSCAR
  _audit_creation_date              2014-09-24
  _audit_creation_method            'ToBaCCo'
  _symmetry_space_group_name_H-M    'P1'
  _symmetry_Int_Tables_number       1
  _symmetry_cell_setting            triclinic
  loop_
  _symmetry_equiv_pos_as_xyz
 x,y,z
_cell_length_a 95.2005
_cell_length_b 95.5768
_cell_length_c 96.7565
_cell_angle_alpha 89.968700
_cell_angle_beta 90.014800
_cell_angle_gamma 89.834800
loop_
  _atom_site_label
  _atom_site_type_symbol
  _atom_site_fract_x
  _atom_site_fract_y
  _atom_site_fract_z
N1 N 0.36154 0.32016 0.33150
 N2 N 0.36131 0.33037 0.32243
 C3 C 0.37192 0.32859 0.31342
 C4 C 0.37926 0.31660 0.31699
 C5 C 0.37237 0.31153 0.32858
 H6 H 0.37410 0.33552 0.30487
 H7 H 0.37486 0.30215 0.33433
 Cu8 Cu 0.34705 0.34491 0.32277
 Cu9 Cu 0.34758 0.31881 0.34612
 Cu10 Cu 0.32111 0.34385 0.34655
 N11 N 0.33172 0.35831 0.32279
 N12 N 0.32160 0.35802 0.33200
 C13 C 0.31240 0.36842 0.32922
 C14 C 0.31700 0.37552 0.31756
 C15 C 0.32930 0.36879 0.31383
 H16 H 0.30295 0.37047 0.33508
 H17 H 0.33603 0.37133 0.30520
 N18 N 0.32250 0.32866 0.36036
 N19 N 0.33257 0.31915 0.36013
 C20 C 0.33066 0.31018 0.37068
 C21 C 0.31879 0.31416 0.37799
 C22 C 0.31391 0.32596 0.37112
 H23 H 0.33748 0.30142 0.37292
 H24 H 0.30469 0.33206 0.37366
 H25 H 0.33167 0.32886 0.33517
 H26 H 0.34240 0.33988 0.34709
 N27 N 0.35978 0.81975 -0.16734
 N28 N 0.35964 0.82954 -0.17687
 C29 C 0.37045 0.82728 -0.18564
 C30 C 0.37773 0.81537 -0.18135
 C31 C 0.37055 0.81098 -0.16966
 H32 H 0.37271 0.83375 -0.19451
 H33 H 0.37285 0.80204 -0.16322
 Cu34 Cu 0.34500 0.84395 -0.17680
 Cu35 Cu 0.34605 0.81871 -0.15258
 Cu36 Cu 0.32001 0.84395 -0.15207
 N37 N 0.33018 0.85814 -0.17632
 N38 N 0.32049 0.85793 -0.16666
 C39 C 0.31145 0.86855 -0.16871
 C40 C 0.31560 0.87598 -0.18035
 C41 C 0.32761 0.86899 -0.18488
 H42 H 0.30252 0.87060 -0.16214
 H43 H 0.33397 0.87150 -0.19378
 N44 N 0.32132 0.82892 -0.13819
 N45 N 0.33128 0.81931 -0.13844
 C46 C 0.32937 0.81045 -0.12780
 C47 C 0.31763 0.81464 -0.12045
 C48 C 0.31280 0.82642 -0.12735
 H49 H 0.33611 0.80163 -0.12554
 H50 H 0.30366 0.83262 -0.12478
 H51 H 0.32995 0.82852 -0.16329
 H52 H 0.34126 0.83987 -0.15220
 N53 N 0.85969 0.32141 -0.16817
 N54 N 0.85830 0.32946 -0.17909
 C55 C 0.86909 0.32705 -0.18778
 C56 C 0.87768 0.31685 -0.18202
 C57 C 0.87135 0.31356 -0.16955
 H58 H 0.87038 0.33212 -0.19769
 H59 H 0.87482 0.30590 -0.16207
 Cu60 Cu 0.84237 0.34206 -0.18111
 Cu61 Cu 0.84579 0.32083 -0.15348
 Cu62 Cu 0.81690 0.34264 -0.15710
 N63 N 0.82901 0.35746 -0.17992
 N64 N 0.81908 0.35761 -0.17052
 C65 C 0.81099 0.36901 -0.17234
 C66 C 0.81610 0.37656 -0.18354
 C67 C 0.82764 0.36883 -0.18804
 H68 H 0.80196 0.37139 -0.16599
 H69 H 0.83446 0.37110 -0.19667
 N70 N 0.81931 0.32976 -0.14140
 N71 N 0.83045 0.32168 -0.13986
 C72 C 0.82896 0.31407 -0.12826
 C73 C 0.81627 0.31752 -0.12213
 C74 C 0.81046 0.32756 -0.13077
 H75 H 0.83652 0.30647 -0.12461
 H76 H 0.80043 0.33274 -0.12956
 H77 H 0.82916 0.32660 -0.16550
 H78 H 0.83834 0.34111 -0.15633
 N79 N 0.85920 0.82050 0.33303
 N80 N 0.85956 0.83010 0.32333
 C81 C 0.87042 0.82743 0.31482
 C82 C 0.87729 0.81549 0.31943
 C83 C 0.86982 0.81140 0.33104
 H84 H 0.87305 0.83367 0.30589
 H85 H 0.87190 0.80250 0.33761
 Cu86 Cu 0.84574 0.84513 0.32273
 Cu87 Cu 0.84499 0.82040 0.34746
 Cu88 Cu 0.81981 0.84664 0.34633
 N89 N 0.83132 0.85957 0.32205
 N90 N 0.82124 0.86011 0.33129
 C91 C 0.81275 0.87101 0.32843
 C92 C 0.81774 0.87776 0.31668
 C93 C 0.82959 0.87011 0.31297
 H94 H 0.80362 0.87372 0.33450
 H95 H 0.83647 0.87199 0.30430
 N96 N 0.82018 0.83204 0.36073
 N97 N 0.82977 0.82207 0.36115
 C98 C 0.82726 0.81378 0.37211
 C99 C 0.81549 0.81873 0.37900
 C100 C 0.81130 0.83035 0.37144
 H101 H 0.83356 0.80479 0.37484
 H102 H 0.80245 0.83710 0.37356
 H103 H 0.82968 0.83049 0.33594
 H104 H 0.84091 0.84167 0.34726
 N105 N 0.64009 0.67893 0.33212
 N106 N 0.64053 0.66873 0.32304
 C107 C 0.62988 0.67033 0.31402
 C108 C 0.62229 0.68218 0.31762
 C109 C 0.62912 0.68735 0.32920
 H110 H 0.62778 0.66333 0.30551
 H111 H 0.62643 0.69664 0.33500
 Cu112 Cu 0.65502 0.65437 0.32374
 Cu113 Cu 0.65384 0.68058 0.34694
 Cu114 Cu 0.68025 0.65552 0.34805
 N115 N 0.67010 0.64061 0.32433
 N116 N 0.67994 0.64112 0.33382
 C117 C 0.68902 0.63049 0.33182
 C118 C 0.68467 0.62286 0.32041
 C119 C 0.67259 0.62964 0.31594
 H120 H 0.69815 0.62856 0.33817
 H121 H 0.66607 0.62681 0.30726
 N122 N 0.67877 0.67091 0.36154
 N123 N 0.66873 0.68043 0.36114
 C124 C 0.67057 0.68943 0.37169
 C125 C 0.68236 0.68541 0.37914
 C126 C 0.68725 0.67359 0.37235
 H127 H 0.66379 0.69826 0.37379
 H128 H 0.69633 0.66737 0.37504
 H129 H 0.66992 0.67059 0.33647
 H130 H 0.65889 0.65958 0.34813
 N131 N 0.63931 0.17762 -0.16667
 N132 N 0.64090 0.17009 -0.17793
 C133 C 0.63068 0.17345 -0.18697
 C134 C 0.62222 0.18367 -0.18106
 C135 C 0.62803 0.18598 -0.16813
 H136 H 0.62960 0.16893 -0.19715
 H137 H 0.62437 0.19317 -0.16029
 Cu138 Cu 0.65622 0.15666 -0.17951
 Cu139 Cu 0.65186 0.17592 -0.15089
 Cu140 Cu 0.68356 0.15950 -0.15797
 N141 N 0.67089 0.14243 -0.17890
 N142 N 0.68167 0.14373 -0.17054
 C143 C 0.69055 0.13296 -0.17249
 C144 C 0.68505 0.12426 -0.18265
 C145 C 0.67248 0.13071 -0.18645
 H146 H 0.70030 0.13173 -0.16690
 H147 H 0.66506 0.12728 -0.19417
 N148 N 0.68064 0.17158 -0.14179
 N149 N 0.66846 0.17747 -0.13887
 C150 C 0.66973 0.18484 -0.12709
 C151 C 0.68339 0.18346 -0.12229
 C152 C 0.68998 0.17494 -0.13191
 H153 H 0.66131 0.19079 -0.12241
 H154 H 0.70080 0.17147 -0.13183
 H155 H 0.66787 0.17362 -0.16449
 H156 H 0.66274 0.15732 -0.15515
 N157 N 0.14008 0.67811 -0.16517
 N158 N 0.14129 0.67032 -0.17630
 C159 C 0.13077 0.67343 -0.18507
 C160 C 0.12246 0.68375 -0.17913
 C161 C 0.12871 0.68641 -0.16645
 H162 H 0.12940 0.66865 -0.19509
 H163 H 0.12531 0.69378 -0.15867
 Cu164 Cu 0.15648 0.65681 -0.17817
 Cu165 Cu 0.15325 0.67675 -0.14979
 Cu166 Cu 0.18458 0.66004 -0.15778
 N167 N 0.17115 0.64257 -0.17790
 N168 N 0.18225 0.64405 -0.16997
 C169 C 0.19106 0.63325 -0.17202
 C170 C 0.18516 0.62437 -0.18172
 C171 C 0.17249 0.63067 -0.18525
 H172 H 0.20109 0.63212 -0.16690
 H173 H 0.16482 0.62692 -0.19260
 N174 N 0.18226 0.67218 -0.14159
 N175 N 0.17025 0.67821 -0.13825
 C176 C 0.17195 0.68526 -0.12632
 C177 C 0.18571 0.68349 -0.12188
 C178 C 0.19189 0.67514 -0.13188
 H179 H 0.16374 0.69114 -0.12123
 H180 H 0.20260 0.67136 -0.13209
 H181 H 0.16864 0.67406 -0.16390
 H182 H 0.16380 0.65797 -0.15407
 N183 N 0.13951 0.18046 0.33239
 N184 N 0.14002 0.17091 0.32264
 C185 C 0.12937 0.17314 0.31371
 C186 C 0.12181 0.18475 0.31810
 C187 C 0.12859 0.18907 0.33001
 H188 H 0.12738 0.16691 0.30461
 H189 H 0.12578 0.19780 0.33655
 Cu190 Cu 0.15473 0.15669 0.32254
 Cu191 Cu 0.15304 0.18122 0.34742
 Cu192 Cu 0.17891 0.15572 0.34795
 N193 N 0.16914 0.14220 0.32322
 N194 N 0.17853 0.14192 0.33317
 C195 C 0.18725 0.13102 0.33118
 C196 C 0.18318 0.12401 0.31931
 C197 C 0.17160 0.13144 0.31455
 H198 H 0.19591 0.12842 0.33794
 H199 H 0.16549 0.12927 0.30539
 N200 N 0.17752 0.17058 0.36199
 N201 N 0.16764 0.18028 0.36178
 C202 C 0.16952 0.18894 0.37258
 C203 C 0.18117 0.18452 0.38000
 C204 C 0.18595 0.17283 0.37294
 H205 H 0.16286 0.19781 0.37486
 H206 H 0.19498 0.16647 0.37548
 H207 H 0.16939 0.17166 0.33697
 H208 H 0.15766 0.16006 0.34734
 N209 N 0.63926 0.32098 0.66927
 N210 N 0.63946 0.33104 0.67849
 C211 C 0.62879 0.32918 0.68741
 C212 C 0.62144 0.31730 0.68360
 C213 C 0.62842 0.31238 0.67199
 H214 H 0.62654 0.33599 0.69604
 H215 H 0.62596 0.30313 0.66606
 Cu216 Cu 0.65376 0.34550 0.67825
 Cu217 Cu 0.65323 0.31970 0.65462
 Cu218 Cu 0.67937 0.34492 0.65425
 N219 N 0.66874 0.35926 0.67814
 N220 N 0.67872 0.35906 0.66877
 C221 C 0.68770 0.36964 0.67126
 C222 C 0.68312 0.37684 0.68288
 C223 C 0.67105 0.36991 0.68692
 H224 H 0.69697 0.37178 0.66519
 H225 H 0.66438 0.37245 0.69560
 N226 N 0.67820 0.32976 0.64045
 N227 N 0.66826 0.32017 0.64063
 C228 C 0.67033 0.31127 0.63004
 C229 C 0.68216 0.31542 0.62279
 C230 C 0.68685 0.32721 0.62972
 H231 H 0.66366 0.30246 0.62774
 H232 H 0.69598 0.33340 0.62724
 H233 H 0.66910 0.32964 0.66548
 H234 H 0.65810 0.34077 0.65384
 N235 N 0.63868 0.81916 1.16790
 N236 N 0.63849 0.82861 1.17774
 C237 C 0.62761 0.82600 1.18625
 C238 C 0.62060 0.81424 1.18151
 C239 C 0.62797 0.81021 1.16981
 H240 H 0.62512 0.83209 1.19532
 H241 H 0.62574 0.80143 1.16313
 Cu242 Cu 0.65262 0.84325 1.17852
 Cu243 Cu 0.65292 0.81898 1.15347
 Cu244 Cu 0.67826 0.84498 1.15463
 N245 N 0.66686 0.85779 1.17909
 N246 N 0.67686 0.85843 1.16975
 C247 C 0.68527 0.86935 1.17262
 C248 C 0.68031 0.87595 1.18443
 C249 C 0.66859 0.86827 1.18820
 H250 H 0.69440 0.87216 1.16659
 H251 H 0.66177 0.87018 1.19692
 N252 N 0.67781 0.83039 1.14019
 N253 N 0.66816 0.82052 1.13979
 C254 C 0.67069 0.81212 1.12891
 C255 C 0.68253 0.81687 1.12207
 C256 C 0.68674 0.82851 1.12954
 H257 H 0.66433 0.80322 1.12615
 H258 H 0.69575 0.83503 1.12748
 H259 H 0.66851 0.82874 1.16486
 H260 H 0.65715 0.84022 1.15389
 N261 N 0.14015 0.31898 1.16840
 N262 N 0.13942 0.32937 1.17726
 C263 C 0.12837 0.32738 1.18568
 C264 C 0.12177 0.31505 1.18199
 C265 C 0.12954 0.31001 1.17090
 H266 H 0.12539 0.33438 1.19394
 H267 H 0.12784 0.30038 1.16530
 Cu268 Cu 0.15320 0.34431 1.17741
 Cu269 Cu 0.15538 0.31766 1.15493
 Cu270 Cu 0.17858 0.34559 1.15336
 N271 N 0.16740 0.35885 1.17762
 N272 N 0.17721 0.35942 1.16810
 C273 C 0.18562 0.37042 1.17070
 C274 C 0.18084 0.37713 1.18252
 C275 C 0.16923 0.36944 1.18659
 H276 H 0.19465 0.37315 1.16451
 H277 H 0.16260 0.37136 1.19545
 N278 N 0.17827 0.33043 1.13953
 N279 N 0.16955 0.31974 1.14013
 C280 C 0.17219 0.31113 1.12939
 C281 C 0.18317 0.31662 1.12170
 C282 C 0.18670 0.32888 1.12847
 H283 H 0.16665 0.30148 1.12744
 H284 H 0.19483 0.33617 1.12558
 H285 H 0.17028 0.32982 1.16513
 H286 H 0.15777 0.33897 1.15328
 N287 N 0.14304 0.81696 0.67125
 N288 N 0.14113 0.82807 0.67901
 C289 C 0.12934 0.82635 0.68653
 C290 C 0.12357 0.81342 0.68327
 C291 C 0.13266 0.80777 0.67358
 H292 H 0.12527 0.83396 0.69377
 H293 H 0.13192 0.79771 0.66854
 Cu294 Cu 0.15463 0.84340 0.67865
 Cu295 Cu 0.15888 0.81507 0.65873
 Cu296 Cu 0.17435 0.84660 0.65011
 N297 N 0.16877 0.85804 0.67700
 N298 N 0.17641 0.85921 0.66575
 C299 C 0.18523 0.87009 0.66712
 C300 C 0.18312 0.87607 0.68000
 C301 C 0.17252 0.86814 0.68597
 H302 H 0.19259 0.87335 0.65927
 H303 H 0.16801 0.86947 0.69614
 N304 N 0.17600 0.82972 0.63861
 N305 N 0.17056 0.81758 0.64220
 C306 C 0.17369 0.80802 0.63248
 C307 C 0.18157 0.81443 0.62225
 C308 C 0.18284 0.82821 0.62653
 H309 H 0.17039 0.79722 0.63285
 H310 H 0.18828 0.83657 0.62126
 H311 H 0.17225 0.83152 0.66449
 H312 H 0.15586 0.83558 0.65466
 N313 N 0.36025 0.67960 0.66787
 N314 N 0.36008 0.66966 0.67723
 C315 C 0.37079 0.67173 0.68612
 C316 C 0.37803 0.68364 0.68209
 C317 C 0.37099 0.68830 0.67044
 H318 H 0.37302 0.66515 0.69495
 H319 H 0.37348 0.69735 0.66421
 Cu320 Cu 0.34577 0.65512 0.67686
 Cu321 Cu 0.34647 0.68081 0.65313
 Cu322 Cu 0.32035 0.65571 0.65256
 N323 N 0.33074 0.64131 0.67661
 N324 N 0.32089 0.64162 0.66709
 C325 C 0.31187 0.63105 0.66932
 C326 C 0.31624 0.62364 0.68089
 C327 C 0.32829 0.63052 0.68522
 H328 H 0.30278 0.62899 0.66296
 H329 H 0.33478 0.62791 0.69402
 N330 N 0.32165 0.67085 0.63875
 N331 N 0.33164 0.68037 0.63901
 C332 C 0.32970 0.68932 0.62845
 C333 C 0.31789 0.68531 0.62113
 C334 C 0.31307 0.67351 0.62797
 H335 H 0.33644 0.69811 0.62623
 H336 H 0.30389 0.66741 0.62542
 H337 H 0.33051 0.67089 0.66390
 H338 H 0.34160 0.65971 0.65239
 N339 N 0.36063 0.17844 1.16860
 N340 N 0.36004 0.16835 1.17780
 C341 C 0.37066 0.16990 1.18686
 C342 C 0.37839 0.18160 1.18316
 C343 C 0.37165 0.18673 1.17148
 H344 H 0.37258 0.16301 1.19551
 H345 H 0.37447 0.19585 1.16550
 Cu346 Cu 0.34540 0.15421 1.17714
 Cu347 Cu 0.34703 0.18014 1.15363
 Cu348 Cu 0.32041 0.15550 1.15258
 N349 N 0.33017 0.14067 1.17657
 N350 N 0.32044 0.14125 1.16697
 C351 C 0.31123 0.13080 1.16897
 C352 C 0.31537 0.12319 1.18049
 C353 C 0.32746 0.12981 1.18503
 H354 H 0.30217 0.12896 1.16251
 H355 H 0.33385 0.12696 1.19382
 N356 N 0.32215 0.17069 1.13893
 N357 N 0.33228 0.18007 1.13930
 C358 C 0.33061 0.18898 1.12863
 C359 C 0.31884 0.18505 1.12114
 C360 C 0.31378 0.17339 1.12803
 H361 H 0.33751 0.19766 1.12646
 H362 H 0.30461 0.16734 1.12537
 H363 H 0.33079 0.17052 1.16409
 H364 H 0.34180 0.15921 1.15266
 N365 N 0.85847 0.67859 1.16930
 N366 N 0.85784 0.66874 1.17876
 C367 C 0.86839 0.67054 1.18784
 C368 C 0.87609 0.68217 1.18391
 C369 C 0.86945 0.68699 1.17206
 H370 H 0.87036 0.66383 1.19661
 H371 H 0.87228 0.69601 1.16593
 Cu372 Cu 0.84329 0.65452 1.17837
 Cu373 Cu 0.84497 0.67979 1.15418
 Cu374 Cu 0.81923 0.65421 1.15298
 N375 N 0.82895 0.64010 1.17740
 N376 N 0.81959 0.64003 1.16743
 C377 C 0.81089 0.62912 1.16922
 C378 C 0.81497 0.62189 1.18100
 C379 C 0.82651 0.62921 1.18589
 H380 H 0.80222 0.62670 1.16244
 H381 H 0.83261 0.62688 1.19502
 N382 N 0.82058 0.66941 1.13930
 N383 N 0.83035 0.67916 1.13973
 C384 C 0.82833 0.68807 1.12910
 C385 C 0.81671 0.68373 1.12161
 C386 C 0.81211 0.67185 1.12842
 H387 H 0.83474 0.69715 1.12708
 H388 H 0.80325 0.66540 1.12565
 H389 H 0.82867 0.66997 1.16431
 H390 H 0.84050 0.65868 1.15366
 N391 N 0.86158 0.17659 0.66708
 N392 N 0.86019 0.16798 0.67758
 C393 C 0.87009 0.17088 0.68707
 C394 C 0.87821 0.18190 0.68225
 C395 C 0.87246 0.18519 0.66947
 H396 H 0.87125 0.16536 0.69676
 H397 H 0.87591 0.19319 0.66234
 Cu398 Cu 0.84585 0.15351 0.67755
 Cu399 Cu 0.84923 0.17579 0.65103
 Cu400 Cu 0.81737 0.15993 0.65824
 N401 N 0.82974 0.14103 0.67785
 N402 N 0.81860 0.14367 0.67026
 C403 C 0.80890 0.13374 0.67251
 C404 C 0.81424 0.12423 0.68198
 C405 C 0.82753 0.12925 0.68516
 H406 H 0.79869 0.13359 0.66763
 H407 H 0.83507 0.12468 0.69221
 N408 N 0.82024 0.17254 0.64243
 N409 N 0.83247 0.17821 0.63939
 C410 C 0.83117 0.18568 0.62766
 C411 C 0.81743 0.18457 0.62301
 C412 C 0.81084 0.17616 0.63269
 H413 H 0.83965 0.19136 0.62282
 H414 H 0.80002 0.17277 0.63263
 H415 H 0.83406 0.17237 0.66506
 H416 H 0.83798 0.15703 0.65375
 N417 N 0.32047 0.36091 0.66878
 N418 N 0.33002 0.36031 0.67857
 C419 C 0.32791 0.37100 0.68742
 C420 C 0.31638 0.37868 0.68295
 C421 C 0.31199 0.37193 0.67106
 H422 H 0.33417 0.37293 0.69654
 H423 H 0.30328 0.37480 0.66447
 Cu424 Cu 0.34407 0.34544 0.67878
 Cu425 Cu 0.31949 0.34734 0.65387
 Cu426 Cu 0.34468 0.32117 0.65357
 N427 N 0.35840 0.33085 0.67825
 N428 N 0.35851 0.32142 0.66838
 C429 C 0.36927 0.31252 0.67048
 C430 C 0.37635 0.31654 0.68234
 C431 C 0.36913 0.32826 0.68697
 H432 H 0.37175 0.30380 0.66381
 H433 H 0.37140 0.33434 0.69611
 N434 N 0.32980 0.32270 0.63949
 N435 N 0.32020 0.33267 0.63963
 C436 C 0.31145 0.33084 0.62886
 C437 C 0.31572 0.31913 0.62154
 C438 C 0.32741 0.31426 0.62861
 H439 H 0.30264 0.33757 0.62651
 H440 H 0.33362 0.30511 0.62614
 H441 H 0.32882 0.33098 0.66446
 H442 H 0.34065 0.34241 0.65401
 N443 N 0.32011 0.86130 0.16816
 N444 N 0.32992 0.86155 0.17769
 C445 C 0.32751 0.87245 0.18621
 C446 C 0.31552 0.87943 0.18176
 C447 C 0.31116 0.87199 0.17024
 H448 H 0.33392 0.87500 0.19506
 H449 H 0.30212 0.87413 0.16381
 Cu450 Cu 0.34475 0.84748 0.17811
 Cu451 Cu 0.31945 0.84704 0.15387
 Cu452 Cu 0.34518 0.82136 0.15468
 N453 N 0.35885 0.83270 0.17866
 N454 N 0.35899 0.82257 0.16948
 C455 C 0.36970 0.81380 0.17232
 C456 C 0.37668 0.81865 0.18394
 C457 C 0.36946 0.83069 0.18766
 H458 H 0.37208 0.80448 0.16644
 H459 H 0.37175 0.83752 0.19625
 N460 N 0.33028 0.82199 0.14053
 N461 N 0.32049 0.83178 0.14029
 C462 C 0.31175 0.82934 0.12963
 C463 C 0.31620 0.81742 0.12278
 C464 C 0.32802 0.81306 0.12998
 H465 H 0.30283 0.83582 0.12703
 H466 H 0.33439 0.80394 0.12784
 H467 H 0.32949 0.83164 0.16535
 H468 H 0.34074 0.84246 0.15371
 N469 N 0.81978 0.36036 0.16694
 N470 N 0.82955 0.36032 0.17653
 C471 C 0.82710 0.37100 0.18532
 C472 C 0.81515 0.37812 0.18098
 C473 C 0.81084 0.37100 0.16925
 H474 H 0.83348 0.37332 0.19426
 H475 H 0.80187 0.37335 0.16281
 Cu476 Cu 0.84439 0.34622 0.17663
 Cu477 Cu 0.81914 0.34658 0.15220
 Cu478 Cu 0.84467 0.32080 0.15249
 N479 N 0.85837 0.33126 0.17685
 N480 N 0.85832 0.32140 0.16739
 C481 C 0.86882 0.31234 0.16994
 C482 C 0.87591 0.31667 0.18167
 C483 C 0.86897 0.32877 0.18577
 H484 H 0.87115 0.30329 0.16365
 H485 H 0.87133 0.33515 0.19468
 N486 N 0.82997 0.32192 0.13825
 N487 N 0.82021 0.33174 0.13815
 C488 C 0.81163 0.32961 0.12729
 C489 C 0.81618 0.31785 0.12018
 C490 C 0.82786 0.31329 0.12747
 H491 H 0.80265 0.33608 0.12486
 H492 H 0.83436 0.30432 0.12513
 H493 H 0.82897 0.33094 0.16340
 H494 H 0.84035 0.34200 0.15207
 N495 N 0.82133 0.86107 0.66971
 N496 N 0.83115 0.86061 0.67925
 C497 C 0.82918 0.87124 0.68816
 C498 C 0.81750 0.87883 0.68401
 C499 C 0.81281 0.87204 0.67222
 H500 H 0.83580 0.87332 0.69699
 H501 H 0.80375 0.87471 0.66600
 Cu502 Cu 0.84536 0.84601 0.67916
 Cu503 Cu 0.82028 0.84725 0.65491
 Cu504 Cu 0.84572 0.82106 0.65482
 N505 N 0.85954 0.83138 0.67917
 N506 N 0.85969 0.82162 0.66961
 C507 C 0.87046 0.81280 0.67210
 C508 C 0.87742 0.81724 0.68390
 C509 C 0.87015 0.82908 0.68808
 H510 H 0.87288 0.80372 0.66587
 H511 H 0.87246 0.83559 0.69691
 N512 N 0.83068 0.82237 0.64079
 N513 N 0.82103 0.83232 0.64084
 C514 C 0.81227 0.83032 0.63010
 C515 C 0.81655 0.81854 0.62288
 C516 C 0.82828 0.81380 0.62999
 H517 H 0.80343 0.83701 0.62771
 H518 H 0.83456 0.80469 0.62759
 H519 H 0.82992 0.83111 0.66557
 H520 H 0.84142 0.84224 0.65455
 N521 N 0.68041 0.64041 0.66752
 N522 N 0.67116 0.64032 0.67760
 C523 C 0.67398 0.62945 0.68605
 C524 C 0.68566 0.62238 0.68101
 C525 C 0.68940 0.62968 0.66921
 H526 H 0.66809 0.62699 0.69528
 H527 H 0.69800 0.62736 0.66229
 Cu528 Cu 0.65655 0.65463 0.67868
 Cu529 Cu 0.68037 0.65445 0.65298
 Cu530 Cu 0.65419 0.67960 0.65422
 N531 N 0.64166 0.66869 0.67904
 N532 N 0.64089 0.67839 0.66944
 C533 C 0.62994 0.68686 0.67212
 C534 C 0.62342 0.68230 0.68409
 C535 C 0.63115 0.67068 0.68818
 H536 H 0.62697 0.69568 0.66577
 H537 H 0.62940 0.66430 0.69723
 N538 N 0.66862 0.67909 0.63964
 N539 N 0.67860 0.66951 0.63919
 C540 C 0.68690 0.67202 0.62821
 C541 C 0.68194 0.68378 0.62137
 C542 C 0.67031 0.68796 0.62895
 H543 H 0.69597 0.66580 0.62551
 H544 H 0.66358 0.69683 0.62690
 H545 H 0.67077 0.67010 0.66433
 H546 H 0.65905 0.65854 0.65391
 N547 N 0.68065 0.13974 0.16659
 N548 N 0.67264 0.14105 0.17756
 C549 C 0.67501 0.13020 0.18612
 C550 C 0.68514 0.12162 0.18023
 C551 C 0.68844 0.12804 0.16781
 H552 H 0.66993 0.12883 0.19602
 H553 H 0.69604 0.12458 0.16025
 Cu554 Cu 0.66008 0.15694 0.17977
 Cu555 Cu 0.68108 0.15371 0.15197
 Cu556 Cu 0.65885 0.18226 0.15575
 N557 N 0.64441 0.16996 0.17869
 N558 N 0.64397 0.17987 0.16930
 C559 C 0.63238 0.18770 0.17125
 C560 C 0.62506 0.18241 0.18249
 C561 C 0.63307 0.17110 0.18691
 H562 H 0.62966 0.19669 0.16501
 H563 H 0.63098 0.16428 0.19558
 N564 N 0.67178 0.18007 0.14002
 N565 N 0.68005 0.16909 0.13845
 C566 C 0.68764 0.17072 0.12683
 C567 C 0.68398 0.18333 0.12074
 C568 C 0.67384 0.18895 0.12941
 H569 H 0.69535 0.16330 0.12314
 H570 H 0.66850 0.19887 0.12823
 H571 H 0.67522 0.17029 0.16398
 H572 H 0.66068 0.16094 0.15498
 N573 N 0.17910 0.63921 0.16913
 N574 N 0.16941 0.63963 0.17878
 C575 C 0.17143 0.62886 0.18754
 C576 C 0.18304 0.62124 0.18317
 C577 C 0.18761 0.62818 0.17142
 H578 H 0.16493 0.62677 0.19644
 H579 H 0.19649 0.62550 0.16499
 Cu580 Cu 0.15516 0.65429 0.17907
 Cu581 Cu 0.18010 0.65303 0.15436
 Cu582 Cu 0.15448 0.67882 0.15422
 N583 N 0.14063 0.66868 0.17859
 N584 N 0.14050 0.67821 0.16880
 C585 C 0.12966 0.68699 0.17087
 C586 C 0.12252 0.68281 0.18263
 C587 C 0.12979 0.67109 0.18724
 H588 H 0.12717 0.69576 0.16425
 H589 H 0.12750 0.66493 0.19632
 N590 N 0.16947 0.67776 0.14032
 N591 N 0.17927 0.66798 0.14031
 C592 C 0.18804 0.67027 0.12962
 C593 C 0.18355 0.68211 0.12259
 C594 C 0.17174 0.68653 0.12969
 H595 H 0.19714 0.66393 0.12727
 H596 H 0.16522 0.69546 0.12727
 H597 H 0.17049 0.66902 0.16510
 H598 H 0.15893 0.65757 0.15438
 N599 N 0.17928 0.13881 0.66926
 N600 N 0.16917 0.13900 0.67850
 C601 C 0.17111 0.12840 0.68745
 C602 C 0.18308 0.12109 0.68367
 C603 C 0.18798 0.12801 0.67202
 H604 H 0.16426 0.12612 0.69605
 H605 H 0.19728 0.12552 0.66610
 Cu606 Cu 0.15446 0.15311 0.67822
 Cu607 Cu 0.18040 0.15278 0.65455
 Cu608 Cu 0.15454 0.17848 0.65419
 N609 N 0.14026 0.16773 0.67802
 N610 N 0.14030 0.17765 0.66863
 C611 C 0.12947 0.18642 0.67101
 C612 C 0.12224 0.18178 0.68258
 C613 C 0.12943 0.16987 0.68672
 H614 H 0.12719 0.19560 0.66487
 H615 H 0.12698 0.16323 0.69542
 N616 N 0.16980 0.17758 0.64046
 N617 N 0.17965 0.16784 0.64054
 C618 C 0.18852 0.17020 0.62993
 C619 C 0.18407 0.18201 0.62281
 C620 C 0.17214 0.18636 0.62983
 H621 H 0.19764 0.16386 0.62765
 H622 H 0.16558 0.19525 0.62737
 H623 H 0.17020 0.16843 0.66536
 H624 H 0.15922 0.15731 0.65379
 N625 N 0.31886 0.63897 0.33171
 N626 N 0.32894 0.63895 0.32243
 C627 C 0.32673 0.62832 0.31353
 C628 C 0.31459 0.62136 0.31746
 C629 C 0.30994 0.62845 0.32906
 H630 H 0.33334 0.62595 0.30476
 H631 H 0.30078 0.62609 0.33522
 Cu632 Cu 0.34380 0.65294 0.32287
 Cu633 Cu 0.31788 0.65258 0.34655
 Cu634 Cu 0.34345 0.67817 0.34726
 N635 N 0.35776 0.66783 0.32316
 N636 N 0.35752 0.67760 0.33271
 C637 C 0.36812 0.68659 0.33048
 C638 C 0.37548 0.68229 0.31888
 C639 C 0.36858 0.67031 0.31451
 H640 H 0.37030 0.69556 0.33691
 H641 H 0.37111 0.66397 0.30560
 N642 N 0.32833 0.67698 0.36109
 N643 N 0.31858 0.66721 0.36078
 C644 C 0.30968 0.66922 0.37140
 C645 C 0.31400 0.68084 0.37880
 C646 C 0.32589 0.68547 0.37194
 H647 H 0.30074 0.66266 0.37360
 H648 H 0.33220 0.69447 0.37452
 H649 H 0.32811 0.66829 0.33580
 H650 H 0.33913 0.65703 0.34734
 N651 N 0.32080 0.13784 0.83040
 N652 N 0.33092 0.13837 0.82119
 C653 C 0.32925 0.12789 0.81207
 C654 C 0.31744 0.12030 0.81571
 C655 C 0.31236 0.12694 0.82745
 H656 H 0.33615 0.12591 0.80343
 H657 H 0.30311 0.12420 0.83332
 Cu658 Cu 0.34522 0.15280 0.82170
 Cu659 Cu 0.31933 0.15152 0.84530
 Cu660 Cu 0.34442 0.17783 0.84613
 N661 N 0.35893 0.16779 0.82211
 N662 N 0.35867 0.17756 0.83165
 C663 C 0.36923 0.18662 0.82930
 C664 C 0.37647 0.18231 0.81760
 C665 C 0.36960 0.17031 0.81337
 H666 H 0.37132 0.19577 0.83551
 H667 H 0.37220 0.16384 0.80457
 N668 N 0.32917 0.17630 0.85986
 N669 N 0.31964 0.16631 0.85955
 C670 C 0.31067 0.16817 0.87016
 C671 C 0.31471 0.17991 0.87757
 C672 C 0.32651 0.18476 0.87069
 H673 H 0.30186 0.16142 0.87234
 H674 H 0.33265 0.19388 0.87327
 H675 H 0.32913 0.16763 0.83476
 H676 H 0.34041 0.15658 0.84618
 N677 N 0.81993 0.63959 0.83264
 N678 N 0.82975 0.63957 0.82310
 C679 C 0.82746 0.62881 0.81439
 C680 C 0.81555 0.62169 0.81870
 C681 C 0.81109 0.62888 0.83034
 H682 H 0.83393 0.62644 0.80552
 H683 H 0.80211 0.62654 0.83674
 Cu684 Cu 0.84451 0.65365 0.82299
 Cu685 Cu 0.81919 0.65352 0.84728
 Cu686 Cu 0.84486 0.67912 0.84699
 N687 N 0.85866 0.66834 0.82280
 N688 N 0.85871 0.67823 0.83222
 C689 C 0.86943 0.68701 0.82973
 C690 C 0.87656 0.68244 0.81808
 C691 C 0.86939 0.67052 0.81397
 H692 H 0.87184 0.69602 0.83602
 H693 H 0.87171 0.66399 0.80515
 N694 N 0.82997 0.67827 0.86111
 N695 N 0.82020 0.66851 0.86122
 C696 C 0.81157 0.67077 0.87202
 C697 C 0.81607 0.68255 0.87909
 C698 C 0.82779 0.68699 0.87182
 H699 H 0.80266 0.66428 0.87454
 H700 H 0.83422 0.69600 0.87408
 H701 H 0.82910 0.66910 0.83615
 H702 H 0.84041 0.65798 0.84752
 N703 N 0.81988 0.13876 0.33194
 N704 N 0.82987 0.13885 0.32257
 C705 C 0.82781 0.12818 0.31374
 C706 C 0.81588 0.12095 0.31776
 C707 C 0.81115 0.12801 0.32939
 H708 H 0.83451 0.12588 0.30502
 H709 H 0.80195 0.12564 0.33549
 Cu710 Cu 0.84447 0.15303 0.32257
 Cu711 Cu 0.81892 0.15270 0.34657
 Cu712 Cu 0.84434 0.17864 0.34649
 N713 N 0.85833 0.16793 0.32243
 N714 N 0.85830 0.17791 0.33176
 C715 C 0.86890 0.18682 0.32908
 C716 C 0.87594 0.18222 0.31737
 C717 C 0.86890 0.17018 0.31348
 H718 H 0.87115 0.19608 0.33508
 H719 H 0.87130 0.16351 0.30478
 N720 N 0.82933 0.17756 0.36053
 N721 N 0.81968 0.16768 0.36054
 C722 C 0.81096 0.16976 0.37130
 C723 C 0.81528 0.18154 0.37848
 C724 C 0.82699 0.18618 0.37131
 H725 H 0.80213 0.16314 0.37372
 H726 H 0.83332 0.19522 0.37369
 H727 H 0.82882 0.16843 0.33551
 H728 H 0.84011 0.15747 0.34703
 N729 N 0.67924 0.35977 0.33198
 N730 N 0.66973 0.35906 0.32216
 C731 C 0.67185 0.36965 0.31318
 C732 C 0.68335 0.37734 0.31762
 C733 C 0.68769 0.37073 0.32961
 H734 H 0.66566 0.37147 0.30398
 H735 H 0.69637 0.37366 0.33619
 Cu736 Cu 0.65585 0.34407 0.32211
 Cu737 Cu 0.68036 0.34635 0.34699
 Cu738 Cu 0.65557 0.31996 0.34758
 N739 N 0.64170 0.32938 0.32282
 N740 N 0.64171 0.32001 0.33277
 C741 C 0.63106 0.31103 0.33075
 C742 C 0.62392 0.31491 0.31887
 C743 C 0.63099 0.32665 0.31413
 H744 H 0.62870 0.30234 0.33749
 H745 H 0.62864 0.33265 0.30494
 N746 N 0.67046 0.32174 0.36164
 N747 N 0.67987 0.33184 0.36136
 C748 C 0.68873 0.33020 0.37207
 C749 C 0.68479 0.31848 0.37950
 C750 C 0.67311 0.31340 0.37257
 H751 H 0.69744 0.33706 0.37428
 H752 H 0.66713 0.30417 0.37516
 H753 H 0.67122 0.32976 0.33657
 H754 H 0.65922 0.34118 0.34692
 N755 N 0.67968 0.86029 0.83184
 N756 N 0.67032 0.86010 0.82188
 C757 C 0.67265 0.87098 0.81334
 C758 C 0.68413 0.87842 0.81819
 C759 C 0.68830 0.87126 0.82999
 H760 H 0.66646 0.87326 0.80426
 H761 H 0.69695 0.87379 0.83675
 Cu762 Cu 0.65601 0.84566 0.82098
 Cu763 Cu 0.68005 0.84624 0.84643
 Cu764 Cu 0.65431 0.82067 0.84544
 N765 N 0.64145 0.83145 0.82075
 N766 N 0.64081 0.82172 0.83032
 C767 C 0.62980 0.81333 0.82770
 C768 C 0.62314 0.81804 0.81581
 C769 C 0.63087 0.82958 0.81172
 H770 H 0.62696 0.80440 0.83394
 H771 H 0.62888 0.83622 0.80289
 N772 N 0.66892 0.82141 0.85988
 N773 N 0.67869 0.83116 0.86025
 C774 C 0.68708 0.82884 0.87122
 C775 C 0.68241 0.81705 0.87816
 C776 C 0.67084 0.81264 0.87062
 H777 H 0.69595 0.83529 0.87392
 H778 H 0.66431 0.80367 0.87275
 H779 H 0.67063 0.83040 0.83523
 H780 H 0.65879 0.84180 0.84574
 N781 N 0.18064 0.36018 0.83229
 N782 N 0.17142 0.36059 0.82220
 C783 C 0.17425 0.37159 0.81398
 C784 C 0.18592 0.37850 0.81916
 C785 C 0.18966 0.37090 0.83083
 H786 H 0.16824 0.37435 0.80491
 H787 H 0.19831 0.37294 0.83776
 Cu788 Cu 0.15661 0.34669 0.82074
 Cu789 Cu 0.18025 0.34578 0.84655
 Cu790 Cu 0.15361 0.32118 0.84449
 N791 N 0.14158 0.33298 0.81986
 N792 N 0.14045 0.32304 0.82916
 C793 C 0.12927 0.31502 0.82609
 C794 C 0.12300 0.32020 0.81418
 C795 C 0.13115 0.33163 0.81056
 H796 H 0.12605 0.30605 0.83209
 H797 H 0.12963 0.33848 0.80180
 N798 N 0.16794 0.32107 0.85922
 N799 N 0.17808 0.33042 0.85999
 C800 C 0.18617 0.32750 0.87104
 C801 C 0.18091 0.31573 0.87760
 C802 C 0.16933 0.31197 0.86977
 H803 H 0.19531 0.33346 0.87401
 H804 H 0.16238 0.30325 0.87161
 H805 H 0.17047 0.33059 0.83482
 H806 H 0.15887 0.34213 0.84543
 N807 N 0.17891 0.86061 0.33180
 N808 N 0.16918 0.86104 0.32219
 C809 C 0.17167 0.87201 0.31380
 C810 C 0.18363 0.87886 0.31840
 C811 C 0.18790 0.87126 0.32988
 H812 H 0.16527 0.87475 0.30498
 H813 H 0.19689 0.87325 0.33639
 Cu814 Cu 0.15424 0.84718 0.32154
 Cu815 Cu 0.17931 0.84628 0.34607
 Cu816 Cu 0.15337 0.82098 0.34481
 N817 N 0.14000 0.83261 0.32077
 N818 N 0.13974 0.82243 0.32989
 C819 C 0.12896 0.81384 0.32699
 C820 C 0.12202 0.81888 0.31540
 C821 C 0.12938 0.83083 0.31175
 H822 H 0.12646 0.80457 0.33287
 H823 H 0.12717 0.83776 0.30320
 N824 N 0.16809 0.82131 0.35912
 N825 N 0.17796 0.83095 0.35960
 C826 C 0.18637 0.82838 0.37050
 C827 C 0.18160 0.81652 0.37727
 C828 C 0.16997 0.81234 0.36971
 H829 H 0.19530 0.83472 0.37329
 H830 H 0.16333 0.80344 0.37174
 H831 H 0.16932 0.83114 0.33439
 H832 H 0.15802 0.84204 0.34597
 O833 O 0.23114 0.98797 0.25026
 O834 O 0.25169 1.01532 0.23277
 O835 O 0.25196 0.98802 0.23292
 O836 O 0.23096 1.01528 0.25023
 O837 O 0.24601 1.01535 0.26756
 O838 O 0.26702 0.98817 0.25024
 O839 O 0.26673 1.01546 0.25011
 O840 O 0.24621 0.98805 0.26757
 Cu841 Cu 0.23993 1.00164 0.23980
 Cu842 Cu 0.25800 1.00177 0.26061
 C843 C 0.23521 0.98324 0.26186
 C844 C 0.26268 1.02014 0.23847
 C845 C 0.26304 0.98336 0.23865
 C846 C 0.23495 1.02005 0.26183
 O847 O 0.26964 0.48827 0.75139
 O848 O 0.24801 0.51516 0.76849
 O849 O 0.24878 0.48789 0.76866
 O850 O 0.26895 0.51559 0.75123
 O851 O 0.25402 0.51516 0.73379
 O852 O 0.23382 0.48752 0.75126
 O853 O 0.23311 0.51480 0.75103
 O854 O 0.25467 0.48786 0.73399
 Cu855 Cu 0.26034 0.50178 0.76169
 Cu856 Cu 0.24242 0.50130 0.74077
 C857 C 0.26577 0.48336 0.73980
 C858 C 0.23690 0.51964 0.76267
 C859 C 0.23789 0.48290 0.76291
 C860 C 0.26489 0.52018 0.73955
 O861 O 0.72818 0.01179 0.24996
 O862 O 0.74735 -0.01508 0.26960
 O863 O 0.74647 0.01218 0.26988
 O864 O 0.72939 -0.01549 0.24939
 O865 O 0.74663 -0.01454 0.23420
 O866 O 0.76378 0.01291 0.25476
 O867 O 0.76461 -0.01439 0.25441
 O868 O 0.74548 0.01273 0.23483
 Cu869 Cu 0.73612 -0.00174 0.26122
 Cu870 Cu 0.75686 -0.00074 0.24303
 C871 C 0.73358 0.01696 0.23910
 C872 C 0.75921 -0.01943 0.26534
 C873 C 0.75804 0.01732 0.26578
 C874 C 0.73513 -0.01981 0.23832
 O875 O 0.75665 0.48525 0.76348
 O876 O 0.73559 0.51218 0.74591
 O877 O 0.73700 0.48492 0.74483
 O878 O 0.75580 0.51253 0.76394
 O879 O 0.77173 0.51334 0.74741
 O880 O 0.75271 0.48621 0.72813
 O881 O 0.75148 0.51348 0.72938
 O882 O 0.77238 0.48603 0.74676
 Cu883 Cu 0.74468 0.49861 0.75620
 Cu884 Cu 0.76365 0.49988 0.73626
 C885 C 0.76802 0.48092 0.75811
 C886 C 0.73998 0.51757 0.73473
 C887 C 0.74168 0.48081 0.73321
 C888 C 0.76698 0.51769 0.75890
 O889 O 0.23487 0.51242 0.24500
 O890 O 0.25158 0.48520 0.26618
 O891 O 0.25330 0.51243 0.26475
 O892 O 0.23413 0.48515 0.24549
 O893 O 0.25147 0.48416 0.23041
 O894 O 0.27079 0.51081 0.24989
 O895 O 0.26889 0.48359 0.25112
 O896 O 0.25237 0.51142 0.23010
 Cu897 Cu 0.24173 0.49892 0.25686
 Cu898 Cu 0.26263 0.49735 0.23889
 C899 C 0.24077 0.51671 0.23403
 C900 C 0.26301 0.47962 0.26225
 C901 C 0.26532 0.51634 0.26054
 C902 C 0.23957 0.48000 0.23461
 O903 O 0.76418 0.98725 0.74629
 O904 O 0.74481 1.01451 0.76546
 O905 O 0.74462 0.98724 0.76498
 O906 O 0.76497 1.01450 0.74735
 O907 O 0.74903 1.01551 0.73083
 O908 O 0.72879 0.98781 0.74834
 O909 O 0.72885 1.01509 0.74893
 O910 O 0.74837 0.98827 0.72965
 Cu911 Cu 0.75623 1.00080 0.75768
 Cu912 Cu 0.73717 1.00176 0.73778
 C913 C 0.75953 0.98306 0.73469
 C914 C 0.73351 1.01949 0.76043
 C915 C 0.73330 0.98275 0.75966
 C916 C 0.76047 1.01976 0.73614
 O917 O 0.76679 0.48634 0.25041
 O918 O 0.74626 0.51373 0.26789
 O919 O 0.74566 0.48643 0.26738
 O920 O 0.76689 0.51362 0.25032
 O921 O 0.75195 0.51385 0.23289
 O922 O 0.73067 0.48690 0.25001
 O923 O 0.73133 0.51421 0.25046
 O924 O 0.75180 0.48657 0.23303
 Cu925 Cu 0.75789 0.49999 0.26075
 Cu926 Cu 0.73994 0.50042 0.23986
 C927 C 0.76278 0.48168 0.23877
 C928 C 0.73537 0.51877 0.26214
 C929 C 0.73458 0.48194 0.26157
 C930 C 0.76299 0.51843 0.23868
 O931 O 0.26800 0.01122 0.75102
 O932 O 0.24907 -0.01649 0.73189
 O933 O 0.24967 0.01082 0.73108
 O934 O 0.26883 -0.01610 0.75045
 O935 O 0.25214 -0.01647 0.76625
 O936 O 0.23322 0.01134 0.74711
 O937 O 0.23238 -0.01597 0.74769
 O938 O 0.25153 0.01080 0.76703
 Cu939 Cu 0.26055 -0.00264 0.73953
 Cu940 Cu 0.24066 -0.00257 0.75859
 C941 C 0.26293 0.01574 0.76235
 C942 C 0.23744 -0.02097 0.73661
 C943 C 0.23829 0.01584 0.73578
 C944 C 0.26377 -0.02104 0.76156
 O945 O 0.25108 0.23196 0.98502
 O946 O 0.23056 0.24968 1.01217
 O947 O 0.23160 0.25106 0.98520
 O948 O 0.25031 0.23085 1.01200
 O949 O 0.26641 0.24734 1.01322
 O950 O 0.24769 0.26756 0.98655
 O951 O 0.24668 0.26615 1.01350
 O952 O 0.26718 0.24846 0.98623
 Cu953 Cu 0.23928 0.23924 0.99847
 Cu954 Cu 0.25860 0.25902 1.00000
 C955 C 0.26258 0.23722 0.98088
 C956 C 0.23516 0.26087 1.01759
 C957 C 0.23651 0.26274 0.98122
 C958 C 0.26151 0.23571 1.01729
 O959 O 0.25026 0.77030 0.48620
 O960 O 0.26769 0.74987 0.51365
 O961 O 0.26895 0.75047 0.48676
 O962 O 0.24953 0.77020 0.51315
 O963 O 0.23256 0.75454 0.51259
 O964 O 0.25184 0.73499 0.48577
 O965 O 0.25073 0.73423 0.51266
 O966 O 0.23314 0.75482 0.48561
 Cu967 Cu 0.26081 0.76177 0.50002
 Cu968 Cu 0.24035 0.74309 0.49908
 C969 C 0.23873 0.76599 0.48116
 C970 C 0.26216 0.73855 0.51787
 C971 C 0.26370 0.73943 0.48165
 C972 C 0.23780 0.76570 0.51750
 O973 O 0.23273 0.74765 -0.01112
 O974 O 0.25349 0.76500 0.01593
 O975 O 0.25186 0.76694 -0.01089
 O976 O 0.23440 0.74567 0.01570
 O977 O 0.25085 0.72950 0.01367
 O978 O 0.26831 0.75078 -0.01292
 O979 O 0.26996 0.74885 0.01394
 O980 O 0.24918 0.73148 -0.01317
 Cu981 Cu 0.24147 0.75793 0.00262
 Cu982 Cu 0.26123 0.73853 0.00017
 C983 C 0.23744 0.73664 -0.01686
 C984 C 0.26522 0.75986 0.01964
 C985 C 0.26303 0.76244 -0.01654
 C986 C 0.23967 0.73400 0.01931
 O987 O 0.23485 0.24481 0.48810
 O988 O 0.25427 0.26473 0.51446
 O989 O 0.25280 0.26522 0.48752
 O990 O 0.23602 0.24459 0.51507
 O991 O 0.25335 0.22925 0.51422
 O992 O 0.27002 0.24978 0.48639
 O993 O 0.27160 0.24941 0.51334
 O994 O 0.25208 0.22936 0.48727
 Cu995 Cu 0.24275 0.25637 0.50139
 Cu996 Cu 0.26349 0.23792 0.50021
 C997 C 0.24019 0.23371 0.48311
 C998 C 0.26624 0.26043 0.51847
 C999 C 0.26422 0.26098 0.48214
 C1000 C 0.24185 0.23346 0.51946
 O1001 O 0.75405 0.77458 0.98645
 O1002 O 0.77370 0.75570 1.01348
 O1003 O 0.77346 0.75541 0.98650
 O1004 O 0.75435 0.77492 1.01344
 O1005 O 0.73805 0.75858 1.01377
 O1006 O 0.75712 0.73909 0.98681
 O1007 O 0.75738 0.73937 1.01379
 O1008 O 0.73773 0.75825 0.98677
 Cu1009 Cu 0.76552 0.76679 0.99993
 Cu1010 Cu 0.74594 0.74719 1.00032
 C1011 C 0.74258 0.76959 0.98190
 C1012 C 0.76885 0.74434 1.01834
 C1013 C 0.76851 0.74396 0.98196
 C1014 C 0.74298 0.77003 1.01831
 O1015 O 0.75046 0.27013 0.48696
 O1016 O 0.77198 0.25276 0.51363
 O1017 O 0.77103 0.25222 0.48666
 O1018 O 0.75177 0.27108 0.51387
 O1019 O 0.73644 0.25386 0.51510
 O1020 O 0.75556 0.23512 0.48754
 O1021 O 0.75663 0.23555 0.51451
 O1022 O 0.73500 0.25303 0.48819
 Cu1023 Cu 0.76285 0.26327 0.50017
 Cu1024 Cu 0.74437 0.24266 0.50144
 C1025 C 0.73907 0.26451 0.48296
 C1026 C 0.76791 0.24120 0.51870
 C1027 C 0.76654 0.24052 0.48233
 C1028 C 0.74088 0.26567 0.51924
 O1029 O 0.76067 0.25870 -0.01437
 O1030 O 0.74154 0.23933 0.01255
 O1031 O 0.74163 0.23931 -0.01439
 O1032 O 0.76070 0.25859 0.01257
 O1033 O 0.74421 0.27484 0.01255
 O1034 O 0.72506 0.25549 -0.01438
 O1035 O 0.72502 0.25557 0.01258
 O1036 O 0.74412 0.27490 -0.01440
 Cu1037 Cu 0.75279 0.24735 -0.00091
 Cu1038 Cu 0.73294 0.26683 -0.00091
 C1039 C 0.75563 0.27007 -0.01906
 C1040 C 0.73005 0.24418 0.01725
 C1041 C 0.73012 0.24413 -0.01907
 C1042 C 0.75569 0.26997 0.01724
 O1043 O 0.73652 0.74601 0.48735
 O1044 O 0.75577 0.76479 0.51470
 O1045 O 0.75574 0.76523 0.48767
 O1046 O 0.73642 0.74566 0.51435
 O1047 O 0.75282 0.72932 0.51416
 O1048 O 0.77213 0.74887 0.48751
 O1049 O 0.77216 0.74844 0.51447
 O1050 O 0.75292 0.72966 0.48722
 Cu1051 Cu 0.74447 0.75706 0.50104
 Cu1052 Cu 0.76415 0.73744 0.50083
 C1053 C 0.74149 0.73465 0.48254
 C1054 C 0.76722 0.75978 0.51933
 C1055 C 0.76719 0.76033 0.48293
 C1056 C 0.74135 0.73417 0.51888
 O1057 O 0.98369 0.25163 0.23289
 O1058 O 1.01086 0.23056 0.25038
 O1059 O 0.98357 0.23268 0.25214
 O1060 O 1.01096 0.24928 0.23092
 O1061 O 1.01333 0.26580 0.24664
 O1062 O 0.98585 0.24924 0.26785
 O1063 O 1.01312 0.24710 0.26611
 O1064 O 0.98609 0.26818 0.24858
 Cu1065 Cu 0.99702 0.23938 0.24001
 Cu1066 Cu 0.99984 0.25923 0.25887
 C1067 C 0.98017 0.26347 0.23779
 C1068 C 1.01673 0.23530 0.26120
 C1069 C 0.97993 0.23815 0.26357
 C1070 C 1.01693 0.26032 0.23520
 O1071 O 0.48648 0.25005 0.76984
 O1072 O 0.51356 0.26725 0.74870
 O1073 O 0.48627 0.26889 0.75046
 O1074 O 0.51380 0.24832 0.76796
 O1075 O 0.51181 0.23180 0.75218
 O1076 O 0.48428 0.25235 0.73471
 O1077 O 0.51156 0.25072 0.73292
 O1078 O 0.48449 0.23352 0.75407
 Cu1079 Cu 0.50023 0.26028 0.76083
 Cu1080 Cu 0.49782 0.24044 0.74190
 C1081 C 0.48077 0.23888 0.76551
 C1082 C 0.51727 0.26190 0.73724
 C1083 C 0.48050 0.26410 0.73962
 C1084 C 0.51761 0.23660 0.76300
 O1085 O 0.01354 0.25449 0.76370
 O1086 O -0.01401 0.23684 0.74373
 O1087 O 0.01341 0.23635 0.74372
 O1088 O -0.01380 0.25558 0.76314
 O1089 O -0.01305 0.27254 0.74770
 O1090 O 0.01382 0.25322 0.72817
 O1091 O -0.01360 0.25381 0.72828
 O1092 O 0.01433 0.27138 0.74819
 Cu1093 Cu -0.00027 0.24411 0.75511
 Cu1094 Cu 0.00044 0.26443 0.73653
 C1095 C 0.01872 0.26590 0.75936
 C1096 C -0.01864 0.24233 0.73267
 C1097 C 0.01831 0.24155 0.73263
 C1098 C -0.01812 0.26735 0.75869
 O1099 O 0.51612 0.25172 0.26446
 O1100 O 0.48827 0.23300 0.24544
 O1101 O 0.51569 0.23336 0.24464
 O1102 O 0.48877 0.25071 0.26580
 O1103 O 0.48747 0.26788 0.25061
 O1104 O 0.51485 0.25068 0.22960
 O1105 O 0.48748 0.25019 0.23024
 O1106 O 0.51481 0.26903 0.24942
 Cu1107 Cu 0.50233 0.24047 0.25659
 Cu1108 Cu 0.50105 0.26117 0.23846
 C1109 C 0.52024 0.26360 0.26015
 C1110 C 0.48308 0.23846 0.23458
 C1111 C 0.51998 0.23906 0.23357
 C1112 C 0.48340 0.26219 0.26179
 O1113 O 0.98698 0.74788 0.73040
 O1114 O 1.01405 0.72890 0.75000
 O1115 O 0.98665 0.72824 0.74895
 O1116 O 1.01427 0.74913 0.73200
 O1117 O 1.01278 0.76484 0.74863
 O1118 O 0.98546 0.74390 0.76565
 O1119 O 1.01287 0.74464 0.76662
 O1120 O 0.98545 0.76354 0.74708
 Cu1121 Cu 1.00064 0.73696 0.73868
 Cu1122 Cu 0.99900 0.75579 0.75867
 C1123 C 0.98148 0.75889 0.73540
 C1124 C 1.01820 0.73355 0.76159
 C1125 C 0.98126 0.73257 0.76019
 C1126 C 1.01828 0.76055 0.73745
 O1127 O 0.51117 0.76663 0.24982
 O1128 O 0.48383 0.74610 0.26750
 O1129 O 0.51116 0.74761 0.26902
 O1130 O 0.48385 0.76532 0.24851
 O1131 O 0.48550 0.74896 0.23253
 O1132 O 0.51296 0.73127 0.25303
 O1133 O 0.48560 0.72972 0.25155
 O1134 O 0.51283 0.75027 0.23383
 Cu1135 Cu 0.49733 0.75805 0.26032
 Cu1136 Cu 0.49939 0.73840 0.24114
 C1137 C 0.51673 0.76191 0.23882
 C1138 C 0.47997 0.73444 0.26250
 C1139 C 0.51684 0.73648 0.26449
 C1140 C 0.47993 0.76015 0.23706
 O1141 O -0.01335 0.76762 0.25095
 O1142 O 0.01389 0.74680 0.23333
 O1143 O -0.01342 0.74847 0.23191
 O1144 O 0.01400 0.76630 0.25200
 O1145 O 0.01253 0.75010 0.26816
 O1146 O -0.01509 0.73231 0.24811
 O1147 O 0.01224 0.73058 0.24947
 O1148 O -0.01481 0.75144 0.26715
 Cu1149 Cu 0.00043 0.75892 0.24042
 Cu1150 Cu -0.00144 0.73949 0.25984
 C1151 C -0.01880 0.76304 0.26205
 C1152 C 0.01778 0.73516 0.23843
 C1153 C -0.01903 0.73740 0.23660
 C1154 C 0.01804 0.76123 0.26346
 O1155 O 0.51310 0.74956 0.77137
 O1156 O 0.48631 0.72937 0.75282
 O1157 O 0.51370 0.72906 0.75375
 O1158 O 0.48579 0.75053 0.76968
 O1159 O 0.48705 0.76546 0.75234
 O1160 O 0.51461 0.74390 0.73632
 O1161 O 0.48721 0.74433 0.73548
 O1162 O 0.51442 0.76440 0.75396
 Cu1163 Cu 0.49961 0.73814 0.76365
 Cu1164 Cu 0.50094 0.75601 0.74278
 C1165 C 0.51845 0.76035 0.76584
 C1166 C 0.48206 0.73343 0.74105
 C1167 C 0.51897 0.73288 0.74228
 C1168 C 0.48160 0.76164 0.76370
 C1169 C 0.39538 0.31529 0.29652
 C1170 C 0.40698 0.30964 0.28967
 C1171 C 0.41518 0.29916 0.29586
 C1172 C 0.41134 0.29424 0.30905
 C1173 C 0.39970 0.29989 0.31592
 C1174 C 0.39160 0.31052 0.30976
 C1175 C 0.42727 0.29347 0.28796
 C1176 C 0.43799 0.28638 0.29364
 C1177 C 0.44984 0.28068 0.28543
 C1178 C 0.45702 0.26887 0.29038
 C1179 C 0.46800 0.26294 0.28278
 C1180 C 0.47217 0.26883 0.27011
 C1181 C 0.46527 0.28092 0.26535
 C1182 C 0.45424 0.28681 0.27293
 H1183 H 0.38933 0.32330 0.29132
 H1184 H 0.40958 0.31353 0.27947
 H1185 H 0.41709 0.28589 0.31406
 H1186 H 0.39710 0.29592 0.32607
 H1187 H 0.42726 0.29535 0.27693
 H1188 H 0.43806 0.28426 0.30462
 H1189 H 0.45394 0.26405 0.30005
 H1190 H 0.47316 0.25368 0.28679
 H1191 H 0.46831 0.28579 0.25570
 H1192 H 0.44933 0.29623 0.26901
 C1193 C 0.39517 0.79644 0.81817
 C1194 C 0.40676 0.78989 0.81220
 C1195 C 0.41334 0.79560 0.80057
 C1196 C 0.40791 0.80804 0.79485
 C1197 C 0.39619 0.81461 0.80079
 C1198 C 0.38961 0.80892 0.81258
 C1199 C 0.42546 0.78787 0.79465
 C1200 C 0.43525 0.79356 0.78643
 C1201 C 0.44738 0.78544 0.78104
 C1202 C 0.45366 0.78960 0.76859
 C1203 C 0.46488 0.78198 0.76302
 C1204 C 0.47014 0.77008 0.76987
 C1205 C 0.46413 0.76616 0.78255
 C1206 C 0.45293 0.77378 0.78811
 H1207 H 0.39062 0.79148 0.82713
 H1208 H 0.41066 0.78028 0.81677
 H1209 H 0.41246 0.81260 0.78567
 H1210 H 0.39234 0.82412 0.79604
 H1211 H 0.42638 0.77696 0.79749
 H1212 H 0.43434 0.80438 0.78328
 H1213 H 0.44971 0.79863 0.76302
 H1214 H 0.46932 0.78532 0.75327
 H1215 H 0.46805 0.75717 0.78818
 H1216 H 0.44880 0.77056 0.79802
 C1217 C -0.10413 0.29781 0.81733
 C1218 C -0.09232 0.29150 0.81144
 C1219 C -0.08555 0.29761 0.80008
 C1220 C -0.09099 0.31015 0.79458
 C1221 C -0.10285 0.31644 0.80046
 C1222 C -0.10957 0.31035 0.81189
 C1223 C -0.07333 0.29023 0.79396
 C1224 C -0.06350 0.29655 0.78625
 C1225 C -0.05159 0.28898 0.77974
 C1226 C -0.04524 0.29485 0.76802
 C1227 C -0.03427 0.28792 0.76129
 C1228 C -0.02932 0.27497 0.76621
 C1229 C -0.03538 0.26927 0.77818
 C1230 C -0.04637 0.27620 0.78491
 H1231 H -0.10910 0.29267 0.82600
 H1232 H -0.08846 0.28177 0.81578
 H1233 H -0.08638 0.31499 0.78557
 H1234 H -0.10673 0.32608 0.79598
 H1235 H -0.07252 0.27912 0.79599
 H1236 H -0.06431 0.30764 0.78420
 H1237 H -0.04895 0.30474 0.76391
 H1238 H -0.02978 0.29264 0.75213
 H1239 H -0.03170 0.25939 0.78232
 H1240 H -0.05059 0.27156 0.79421
 C1241 C -0.10523 0.79575 0.31853
 C1242 C -0.09354 0.78917 0.31268
 C1243 C -0.08644 0.79525 0.30150
 C1244 C -0.09143 0.80801 0.29613
 C1245 C -0.10314 0.81459 0.30198
 C1246 C -0.11020 0.80855 0.31326
 C1247 C -0.07427 0.78765 0.29551
 C1248 C -0.06433 0.79370 0.28772
 C1249 C -0.05241 0.78583 0.28161
 C1250 C -0.04604 0.79103 0.26959
 C1251 C -0.03502 0.78373 0.26330
 C1252 C -0.03004 0.77113 0.26900
 C1253 C -0.03614 0.76615 0.28127
 C1254 C -0.04716 0.77343 0.28755
 H1255 H -0.11038 0.79066 0.32713
 H1256 H -0.09001 0.77929 0.31695
 H1257 H -0.08658 0.81286 0.28724
 H1258 H -0.10663 0.82439 0.29755
 H1259 H -0.07357 0.77658 0.29774
 H1260 H -0.06500 0.80474 0.28534
 H1261 H -0.04978 0.80064 0.26490
 H1262 H -0.03050 0.78790 0.25389
 H1263 H -0.03244 0.75656 0.28602
 H1264 H -0.05138 0.76936 0.29710
 C1265 C 0.60560 0.68296 0.29751
 C1266 C 0.59382 0.68847 0.29082
 C1267 C 0.58578 0.69909 0.29697
 C1268 C 0.58995 0.70428 0.30995
 C1269 C 0.60176 0.69878 0.31665
 C1270 C 0.60973 0.68803 0.31054
 C1271 C 0.57352 0.70471 0.28926
 C1272 C 0.56289 0.71178 0.29515
 C1273 C 0.55089 0.71760 0.28721
 C1274 C 0.54362 0.72916 0.29260
 C1275 C 0.53247 0.73520 0.28531
 C1276 C 0.52823 0.72969 0.27251
 C1277 C 0.53523 0.71785 0.26729
 C1278 C 0.54641 0.71184 0.27456
 H1279 H 0.61152 0.67482 0.29235
 H1280 H 0.59095 0.68437 0.28077
 H1281 H 0.58436 0.71276 0.31490
 H1282 H 0.60460 0.70299 0.32664
 H1283 H 0.57334 0.70283 0.27823
 H1284 H 0.56303 0.71380 0.30614
 H1285 H 0.54675 0.73370 0.30238
 H1286 H 0.52726 0.74427 0.28966
 H1287 H 0.53213 0.71327 0.25752
 H1288 H 0.55137 0.70261 0.27030
 C1289 C 0.60466 0.20327 0.81856
 C1290 C 0.59305 0.21004 0.81277
 C1291 C 0.58622 0.20445 0.80118
 C1292 C 0.59146 0.19202 0.79530
 C1293 C 0.60313 0.18526 0.80106
 C1294 C 0.60984 0.19078 0.81279
 C1295 C 0.57405 0.21218 0.79536
 C1296 C 0.56400 0.20621 0.78764
 C1297 C 0.55191 0.21408 0.78180
 C1298 C 0.54504 0.20867 0.77014
 C1299 C 0.53379 0.21587 0.76413
 C1300 C 0.52908 0.22861 0.76973
 C1301 C 0.53569 0.23383 0.78164
 C1302 C 0.54693 0.22663 0.78765
 H1303 H 0.60965 0.20796 0.82746
 H1304 H 0.58934 0.21968 0.81741
 H1305 H 0.58679 0.18759 0.78610
 H1306 H 0.60684 0.17569 0.79632
 H1307 H 0.57339 0.22321 0.79777
 H1308 H 0.56469 0.19519 0.78518
 H1309 H 0.54855 0.19894 0.76553
 H1310 H 0.52889 0.21152 0.75499
 H1311 H 0.53221 0.24354 0.78630
 H1312 H 0.55153 0.23091 0.79695
 C1313 C 1.10402 0.70265 0.82096
 C1314 C 1.09221 0.70914 0.81521
 C1315 C 1.08580 0.70367 0.80333
 C1316 C 1.09165 0.69166 0.79715
 C1317 C 1.10347 0.68519 0.80289
 C1318 C 1.10980 0.69058 0.81488
 C1319 C 1.07345 0.71108 0.79742
 C1320 C 1.06398 0.70490 0.78917
 C1321 C 1.05199 0.71237 0.78267
 C1322 C 1.04598 0.70663 0.77072
 C1323 C 1.03491 0.71341 0.76398
 C1324 C 1.02950 0.72607 0.76913
 C1325 C 1.03523 0.73165 0.78132
 C1326 C 1.04635 0.72487 0.78805
 H1327 H 1.10867 0.70723 0.83009
 H1328 H 1.08803 0.71846 0.82008
 H1329 H 1.08738 0.68736 0.78772
 H1330 H 1.10760 0.67595 0.79787
 H1331 H 1.07226 0.72201 0.80006
 H1332 H 1.06517 0.69395 0.78662
 H1333 H 1.05001 0.69695 0.76643
 H1334 H 1.03068 0.70878 0.75467
 H1335 H 1.03120 0.74132 0.78562
 H1336 H 1.05033 0.72942 0.79749
 C1337 C 1.10502 0.20480 0.31541
 C1338 C 1.09330 0.21104 0.30929
 C1339 C 1.08553 0.20395 0.29918
 C1340 C 1.08992 0.19048 0.29512
 C1341 C 1.10170 0.18424 0.30124
 C1342 C 1.10936 0.19131 0.31150
 C1343 C 1.07326 0.21124 0.29301
 C1344 C 1.06289 0.20485 0.28608
 C1345 C 1.05076 0.21259 0.28018
 C1346 C 1.04390 0.20715 0.26853
 C1347 C 1.03271 0.21440 0.26245
 C1348 C 1.02805 0.22718 0.26801
 C1349 C 1.03461 0.23238 0.27996
 C1350 C 1.04579 0.22515 0.28602
 H1351 H 1.11073 0.21069 0.32311
 H1352 H 1.09027 0.22147 0.31253
 H1353 H 1.08449 0.18477 0.28711
 H1354 H 1.10473 0.17385 0.29795
 H1355 H 1.07279 0.22246 0.29443
 H1356 H 1.06329 0.19369 0.28432
 H1357 H 1.04741 0.19741 0.26395
 H1358 H 1.02783 0.21007 0.25330
 H1359 H 1.03116 0.24210 0.28460
 H1360 H 1.05040 0.22939 0.29533
 C1361 C 0.60495 0.31584 0.70378
 C1362 C 0.59332 0.31005 0.71042
 C1363 C 0.58539 0.29952 0.70408
 C1364 C 0.58950 0.29470 0.69093
 C1365 C 0.60118 0.30048 0.68427
 C1366 C 0.60903 0.31115 0.69060
 C1367 C 0.57328 0.29365 0.71177
 C1368 C 0.56278 0.28642 0.70593
 C1369 C 0.55088 0.28061 0.71397
 C1370 C 0.54389 0.26877 0.70891
 C1371 C 0.53287 0.26276 0.71637
 C1372 C 0.52850 0.26859 0.72900
 C1373 C 0.53520 0.28072 0.73385
 C1374 C 0.54623 0.28670 0.72640
 H1375 H 0.61079 0.32388 0.70910
 H1376 H 0.59049 0.31387 0.72059
 H1377 H 0.58397 0.28632 0.68580
 H1378 H 0.60399 0.29657 0.67416
 H1379 H 0.57307 0.29553 0.72280
 H1380 H 0.56293 0.28428 0.69496
 H1381 H 0.54715 0.26398 0.69928
 H1382 H 0.52787 0.25347 0.71230
 H1383 H 0.53198 0.28556 0.74346
 H1384 H 0.55096 0.29615 0.73038
 C1385 C 0.60372 0.79414 0.18300
 C1386 C 0.59209 0.78757 0.18891
 C1387 C 0.58448 0.79403 0.19957
 C1388 C 0.58892 0.80721 0.20436
 C1389 C 0.60057 0.81378 0.19845
 C1390 C 0.60813 0.80734 0.18770
 C1391 C 0.57240 0.78641 0.20564
 C1392 C 0.56218 0.79249 0.21310
 C1393 C 0.55034 0.78458 0.21926
 C1394 C 0.54364 0.79001 0.23102
 C1395 C 0.53265 0.78274 0.23731
 C1396 C 0.52801 0.76992 0.23188
 C1397 C 0.53445 0.76468 0.21988
 C1398 C 0.54545 0.77194 0.21360
 H1399 H 0.60930 0.78874 0.17486
 H1400 H 0.58900 0.77737 0.18510
 H1401 H 0.58367 0.81241 0.21282
 H1402 H 0.60362 0.82391 0.20238
 H1403 H 0.57200 0.77525 0.20377
 H1404 H 0.56253 0.80360 0.21516
 H1405 H 0.54710 0.79981 0.23549
 H1406 H 0.52786 0.78711 0.24651
 H1407 H 0.53102 0.75491 0.21534
 H1408 H 0.54995 0.76766 0.20424
 C1409 C 1.10534 0.31305 0.20210
 C1410 C 1.09376 0.30711 0.20866
 C1411 C 1.08587 0.29664 0.20216
 C1412 C 1.09003 0.29201 0.18895
 C1413 C 1.10171 0.29794 0.18238
 C1414 C 1.10945 0.30859 0.18886
 C1415 C 1.07373 0.29072 0.20979
 C1416 C 1.06316 0.28362 0.20390
 C1417 C 1.05110 0.27810 0.21193
 C1418 C 1.04391 0.26634 0.20696
 C1419 C 1.03270 0.26064 0.21441
 C1420 C 1.02836 0.26670 0.22695
 C1421 C 1.03528 0.27874 0.23171
 C1422 C 1.04648 0.28441 0.22427
 H1423 H 1.11114 0.32104 0.20756
 H1424 H 1.09090 0.31078 0.21888
 H1425 H 1.08450 0.28371 0.18370
 H1426 H 1.10459 0.29423 0.17221
 H1427 H 1.07350 0.29255 0.22082
 H1428 H 1.06334 0.28147 0.19294
 H1429 H 1.04713 0.26138 0.19740
 H1430 H 1.02755 0.25141 0.21042
 H1431 H 1.03209 0.28376 0.24124
 H1432 H 1.05136 0.29382 0.22818
 C1433 C 1.10519 0.79466 0.68279
 C1434 C 1.09325 0.78822 0.68817
 C1435 C 1.08630 0.79384 0.69968
 C1436 C 1.09165 0.80610 0.70578
 C1437 C 1.10365 0.81255 0.70039
 C1438 C 1.11061 0.80687 0.68886
 C1439 C 1.07398 0.78619 0.70521
 C1440 C 1.06413 0.79193 0.71337
 C1441 C 1.05209 0.78391 0.71901
 C1442 C 1.04569 0.78857 0.73123
 C1443 C 1.03461 0.78109 0.73713
 C1444 C 1.02960 0.76881 0.73086
 C1445 C 1.03571 0.76437 0.71840
 C1446 C 1.04678 0.77185 0.71249
 H1447 H 1.11011 0.79000 0.67383
 H1448 H 1.08941 0.77878 0.68328
 H1449 H 1.08687 0.81057 0.71490
 H1450 H 1.10759 0.82184 0.70545
 H1451 H 1.07310 0.77530 0.70231
 H1452 H 1.06501 0.80277 0.71644
 H1453 H 1.04945 0.79791 0.73637
 H1454 H 1.03008 0.78486 0.74670
 H1455 H 1.03197 0.75506 0.71321
 H1456 H 1.05101 0.76820 0.70276
 C1457 C 0.39497 0.70353 0.68468
 C1458 C 0.40667 0.70969 0.69084
 C1459 C 0.41426 0.70266 0.70116
 C1460 C 0.40970 0.68930 0.70537
 C1461 C 0.39796 0.68312 0.69919
 C1462 C 0.39047 0.69014 0.68874
 C1463 C 0.42650 0.70988 0.70739
 C1464 C 0.43652 0.70351 0.71486
 C1465 C 0.44846 0.71117 0.72108
 C1466 C 0.45458 0.70594 0.73322
 C1467 C 0.46559 0.71308 0.73963
 C1468 C 0.47084 0.72554 0.73391
 C1469 C 0.46503 0.73054 0.72149
 C1470 C 0.45398 0.72342 0.71513
 H1471 H 0.38943 0.70939 0.67682
 H1472 H 0.40984 0.72002 0.68747
 H1473 H 0.41495 0.68363 0.71354
 H1474 H 0.39480 0.67283 0.70263
 H1475 H 0.42721 0.72105 0.70564
 H1476 H 0.43588 0.69242 0.71695
 H1477 H 0.45064 0.69644 0.73792
 H1478 H 0.46989 0.70890 0.74914
 H1479 H 0.46893 0.74002 0.71675
 H1480 H 0.44989 0.72750 0.70549
 C1481 C 0.39636 0.18109 0.20226
 C1482 C 0.40817 0.18659 0.20889
 C1483 C 0.41502 0.19840 0.20360
 C1484 C 0.40961 0.20480 0.19161
 C1485 C 0.39780 0.19932 0.18498
 C1486 C 0.39101 0.18738 0.19019
 C1487 C 0.42733 0.20402 0.21118
 C1488 C 0.43715 0.21213 0.20531
 C1489 C 0.44911 0.21833 0.21297
 C1490 C 0.45543 0.23041 0.20760
 C1491 C 0.46651 0.23685 0.21455
 C1492 C 0.47167 0.23126 0.22700
 C1493 C 0.46562 0.21895 0.23222
 C1494 C 0.45447 0.21252 0.22529
 H1495 H 0.39145 0.17195 0.20669
 H1496 H 0.41200 0.18153 0.21819
 H1497 H 0.41423 0.21422 0.18744
 H1498 H 0.39399 0.20458 0.17581
 H1499 H 0.42821 0.20130 0.22200
 H1500 H 0.43629 0.21479 0.19447
 H1501 H 0.45161 0.23502 0.19808
 H1502 H 0.47098 0.24628 0.21019
 H1503 H 0.46943 0.21432 0.24173
 H1504 H 0.45022 0.20297 0.22954
 C1505 C -0.10735 0.68334 0.20409
 C1506 C -0.09564 0.68897 0.21075
 C1507 C -0.08760 0.69945 0.20443
 C1508 C -0.09170 0.70438 0.19131
 C1509 C -0.10344 0.69875 0.18465
 C1510 C -0.11140 0.68814 0.19094
 C1511 C -0.07543 0.70522 0.21212
 C1512 C -0.06483 0.71223 0.20617
 C1513 C -0.05292 0.71820 0.21409
 C1514 C -0.04574 0.72972 0.20857
 C1515 C -0.03467 0.73587 0.21581
 C1516 C -0.03041 0.73053 0.22869
 C1517 C -0.03733 0.71875 0.23404
 C1518 C -0.04844 0.71261 0.22682
 H1519 H -0.11325 0.67532 0.20939
 H1520 H -0.09282 0.68508 0.22090
 H1521 H -0.08611 0.71274 0.18622
 H1522 H -0.10622 0.70276 0.17456
 H1523 H -0.07530 0.70352 0.22317
 H1524 H -0.06491 0.71409 0.19515
 H1525 H -0.04888 0.73412 0.19872
 H1526 H -0.02951 0.74489 0.21135
 H1527 H -0.03421 0.71429 0.24388
 H1528 H -0.05334 0.70343 0.23119
 C1529 C -0.10384 0.18286 0.70128
 C1530 C -0.09237 0.18916 0.70775
 C1531 C -0.08627 0.20128 0.70223
 C1532 C -0.09212 0.20717 0.69019
 C1533 C -0.10361 0.20087 0.68372
 C1534 C -0.10960 0.18860 0.68915
 C1535 C -0.07419 0.20762 0.70960
 C1536 C -0.06492 0.21631 0.70365
 C1537 C -0.05290 0.22259 0.71116
 C1538 C -0.04709 0.23510 0.70618
 C1539 C -0.03588 0.24147 0.71306
 C1540 C -0.03015 0.23538 0.72502
 C1541 C -0.03572 0.22266 0.72981
 C1542 C -0.04692 0.21630 0.72295
 H1543 H -0.10810 0.17343 0.70580
 H1544 H -0.08816 0.18446 0.71707
 H1545 H -0.08809 0.21677 0.68584
 H1546 H -0.10785 0.20577 0.67455
 H1547 H -0.07292 0.20480 0.72035
 H1548 H -0.06618 0.21922 0.69292
 H1549 H -0.05139 0.24008 0.69704
 H1550 H -0.03180 0.25123 0.70907
 H1551 H -0.03145 0.21761 0.73892
 H1552 H -0.05069 0.20639 0.72684
 C1553 C 0.31429 0.39082 0.29671
 C1554 C 0.30836 0.40225 0.28988
 C1555 C 0.29841 0.41079 0.29646
 C1556 C 0.29422 0.40739 0.31003
 C1557 C 0.30014 0.39586 0.31687
 C1558 C 0.31034 0.38753 0.31032
 C1559 C 0.29261 0.42282 0.28859
 C1560 C 0.28601 0.43380 0.29432
 C1561 C 0.28058 0.44571 0.28604
 C1562 C 0.26897 0.45327 0.29099
 C1563 C 0.26335 0.46435 0.28333
 C1564 C 0.26935 0.46825 0.27062
 C1565 C 0.28124 0.46097 0.26587
 C1566 C 0.28682 0.44984 0.27350
 H1567 H 0.32190 0.38452 0.29120
 H1568 H 0.31168 0.40450 0.27940
 H1569 H 0.28629 0.41342 0.31537
 H1570 H 0.29682 0.39359 0.32733
 H1571 H 0.29409 0.42263 0.27750
 H1572 H 0.28418 0.43409 0.30534
 H1573 H 0.26408 0.45042 0.30069
 H1574 H 0.25424 0.46981 0.28734
 H1575 H 0.28619 0.46380 0.25619
 H1576 H 0.29610 0.44463 0.26960
 C1577 C 0.29647 -0.10672 0.81956
 C1578 C 0.28978 -0.09513 0.81371
 C1579 C 0.29535 -0.08850 0.80204
 C1580 C 0.30775 -0.09389 0.79614
 C1581 C 0.31446 -0.10555 0.80195
 C1582 C 0.30894 -0.11218 0.81378
 C1583 C 0.28760 -0.07643 0.79608
 C1584 C 0.29361 -0.06656 0.78821
 C1585 C 0.28577 -0.05471 0.78193
 C1586 C 0.29153 -0.04811 0.77030
 C1587 C 0.28445 -0.03711 0.76380
 C1588 C 0.27145 -0.03234 0.76886
 C1589 C 0.26582 -0.03868 0.78073
 C1590 C 0.27291 -0.04972 0.78723
 H1591 H 0.29166 -0.11134 0.82857
 H1592 H 0.28017 -0.09127 0.81839
 H1593 H 0.31217 -0.08938 0.78687
 H1594 H 0.32393 -0.10932 0.79702
 H1595 H 0.27651 -0.07574 0.79843
 H1596 H 0.30471 -0.06727 0.78590
 H1597 H 0.30148 -0.05162 0.76608
 H1598 H 0.28914 -0.03242 0.75472
 H1599 H 0.25589 -0.03516 0.78496
 H1600 H 0.26831 -0.05416 0.79645
 C1601 C 0.79845 0.39533 0.81641
 C1602 C 0.79266 0.40736 0.81050
 C1603 C 0.79875 0.41353 0.79882
 C1604 C 0.81085 0.40735 0.79310
 C1605 C 0.81667 0.39527 0.79900
 C1606 C 0.81051 0.38899 0.81071
 C1607 C 0.79172 0.42597 0.79270
 C1608 C 0.79788 0.43494 0.78392
 C1609 C 0.79038 0.44709 0.77778
 C1610 C 0.79501 0.45247 0.76508
 C1611 C 0.78791 0.46360 0.75874
 C1612 C 0.77607 0.46965 0.76507
 C1613 C 0.77172 0.46457 0.77800
 C1614 C 0.77883 0.45349 0.78433
 H1615 H 0.79326 0.39106 0.82539
 H1616 H 0.78330 0.41186 0.81510
 H1617 H 0.81571 0.41151 0.78389
 H1618 H 0.82590 0.39086 0.79415
 H1619 H 0.78090 0.42767 0.79566
 H1620 H 0.80862 0.43325 0.78071
 H1621 H 0.80398 0.44786 0.75989
 H1622 H 0.79157 0.46731 0.74881
 H1623 H 0.76277 0.46913 0.78325
 H1624 H 0.77527 0.45009 0.79440
 C1625 C 0.81837 -0.10475 0.29806
 C1626 C 0.81267 -0.09303 0.29146
 C1627 C 0.80060 -0.08646 0.29665
 C1628 C 0.79415 -0.09204 0.30850
 C1629 C 0.79981 -0.10377 0.31511
 C1630 C 0.81204 -0.11035 0.31003
 C1631 C 0.79477 -0.07424 0.28910
 C1632 C 0.78641 -0.06461 0.29497
 C1633 C 0.78000 -0.05278 0.28728
 C1634 C 0.76764 -0.04675 0.29249
 C1635 C 0.76097 -0.03584 0.28545
 C1636 C 0.76662 -0.03059 0.27307
 C1637 C 0.77922 -0.03635 0.26804
 C1638 C 0.78587 -0.04731 0.27507
 H1639 H 0.82772 -0.10935 0.29364
 H1640 H 0.81777 -0.08904 0.28227
 H1641 H 0.78454 -0.08763 0.31257
 H1642 H 0.79441 -0.10764 0.32415
 H1643 H 0.79754 -0.07329 0.27830
 H1644 H 0.78368 -0.06555 0.30578
 H1645 H 0.76297 -0.05067 0.30194
 H1646 H 0.75132 -0.03159 0.28965
 H1647 H 0.78391 -0.03245 0.25860
 H1648 H 0.79564 -0.05132 0.27096
 C1649 C 0.29706 0.60560 0.68158
 C1650 C 0.29061 0.59399 0.68759
 C1651 C 0.29637 0.58757 0.69935
 C1652 C 0.30869 0.59320 0.70512
 C1653 C 0.31515 0.60484 0.69911
 C1654 C 0.30944 0.61120 0.68725
 C1655 C 0.28889 0.57542 0.70542
 C1656 C 0.29483 0.56613 0.71406
 C1657 C 0.28710 0.55416 0.72017
 C1658 C 0.29187 0.54847 0.73270
 C1659 C 0.28476 0.53736 0.73895
 C1660 C 0.27276 0.53160 0.73271
 C1661 C 0.26819 0.53705 0.71998
 C1662 C 0.27529 0.54817 0.71375
 H1663 H 0.29225 0.61015 0.67251
 H1664 H 0.28107 0.58996 0.68298
 H1665 H 0.31328 0.58891 0.71442
 H1666 H 0.32458 0.60886 0.70389
 H1667 H 0.27800 0.57415 0.70251
 H1668 H 0.30568 0.56737 0.71714
 H1669 H 0.30103 0.55278 0.73779
 H1670 H 0.28860 0.53337 0.74872
 H1671 H 0.25907 0.53275 0.71482
 H1672 H 0.27157 0.55187 0.70383
 C1673 C 0.29651 1.10481 0.18025
 C1674 C 0.28987 1.09319 0.18605
 C1675 C 0.29495 1.08711 0.19828
 C1676 C 0.30674 1.09309 0.20474
 C1677 C 0.31338 1.10473 0.19894
 C1678 C 0.30836 1.11075 0.18661
 C1679 C 0.28733 1.07497 0.20415
 C1680 C 0.29307 1.06577 0.21300
 C1681 C 0.28524 1.05385 0.21907
 C1682 C 0.28990 1.04819 0.23165
 C1683 C 0.28267 1.03716 0.23790
 C1684 C 0.27068 1.03145 0.23161
 C1685 C 0.26623 1.03685 0.21882
 C1686 C 0.27345 1.04789 0.21258
 H1687 H 0.29228 1.10907 0.17077
 H1688 H 0.28074 1.08888 0.18092
 H1689 H 0.31073 1.08907 0.21442
 H1690 H 0.32235 1.10905 0.20428
 H1691 H 0.27654 1.07364 0.20090
 H1692 H 0.30384 1.06709 0.21631
 H1693 H 0.29904 1.05247 0.23679
 H1694 H 0.28642 1.03319 0.24772
 H1695 H 0.25712 1.03258 0.21363
 H1696 H 0.26982 1.05156 0.20263
 C1697 C 0.79578 0.60389 0.18158
 C1698 C 0.78940 0.59217 0.18745
 C1699 C 0.79536 0.58546 0.19894
 C1700 C 0.80786 0.59086 0.20457
 C1701 C 0.81425 0.60260 0.19870
 C1702 C 0.80829 0.60929 0.18713
 C1703 C 0.78790 0.57326 0.20493
 C1704 C 0.79383 0.56387 0.21346
 C1705 C 0.78599 0.55194 0.21948
 C1706 C 0.79049 0.54629 0.23212
 C1707 C 0.78315 0.53529 0.23831
 C1708 C 0.77120 0.52964 0.23190
 C1709 C 0.76694 0.53501 0.21903
 C1710 C 0.77428 0.54599 0.21286
 H1711 H 0.79077 0.60873 0.17276
 H1712 H 0.77973 0.58832 0.18296
 H1713 H 0.81264 0.58632 0.21366
 H1714 H 0.82383 0.60642 0.20333
 H1715 H 0.77698 0.57208 0.20209
 H1716 H 0.80468 0.56501 0.21655
 H1717 H 0.79958 0.55056 0.23735
 H1718 H 0.78674 0.53134 0.24819
 H1719 H 0.75788 0.53077 0.21373
 H1720 H 0.77079 0.54966 0.20285
 C1721 C 0.79472 1.10663 0.68146
 C1722 C 0.78796 1.09483 0.68674
 C1723 C 0.79354 1.08758 0.69810
 C1724 C 0.80601 1.09250 0.70420
 C1725 C 0.81278 1.10432 0.69891
 C1726 C 0.80721 1.11155 0.68749
 C1727 C 0.78570 1.07537 0.70354
 C1728 C 0.79153 1.06527 0.71130
 C1729 C 0.78348 1.05339 0.71714
 C1730 C 0.78864 1.04674 0.72903
 C1731 C 0.78125 1.03575 0.73512
 C1732 C 0.76855 1.03105 0.72935
 C1733 C 0.76356 1.03744 0.71722
 C1734 C 0.77095 1.04847 0.71114
 H1735 H 0.79013 1.11182 0.67261
 H1736 H 0.77834 1.09133 0.68190
 H1737 H 0.81043 1.08754 0.71325
 H1738 H 0.82224 1.10790 0.70397
 H1739 H 0.77466 1.07481 0.70096
 H1740 H 0.80256 1.06581 0.71393
 H1741 H 0.79833 1.05022 0.73378
 H1742 H 0.78543 1.03100 0.74442
 H1743 H 0.75389 1.03397 0.71244
 H1744 H 0.76687 1.05295 0.70169
 C1745 C 0.70295 0.60381 0.32082
 C1746 C 0.70934 0.59202 0.31501
 C1747 C 0.70434 0.58629 0.30261
 C1748 C 0.69290 0.59280 0.29597
 C1749 C 0.68652 0.60460 0.30177
 C1750 C 0.69143 0.61026 0.31428
 C1751 C 0.71169 0.57394 0.29674
 C1752 C 0.70583 0.56508 0.28766
 C1753 C 0.71339 0.55294 0.28159
 C1754 C 0.70877 0.54758 0.26888
 C1755 C 0.71577 0.53638 0.26262
 C1756 C 0.72751 0.53021 0.26902
 C1757 C 0.73190 0.53531 0.28193
 C1758 C 0.72490 0.54651 0.28819
 H1759 H 0.70708 0.60779 0.33045
 H1760 H 0.71821 0.58730 0.32028
 H1761 H 0.68901 0.58906 0.28615
 H1762 H 0.67783 0.60934 0.29628
 H1763 H 0.72236 0.57218 0.30017
 H1764 H 0.69517 0.56684 0.28418
 H1765 H 0.69984 0.55223 0.26365
 H1766 H 0.71208 0.53266 0.25270
 H1767 H 0.74081 0.53069 0.28722
 H1768 H 0.72848 0.54993 0.29823
 C1769 C 0.70400 1.10678 0.81694
 C1770 C 0.71006 1.09470 0.81141
 C1771 C 0.70336 1.08725 0.80084
 C1772 C 0.69042 1.09224 0.79581
 C1773 C 0.68432 1.10434 0.80132
 C1774 C 0.69103 1.11188 0.81196
 C1775 C 0.71058 1.07479 0.79501
 C1776 C 0.70412 1.06485 0.78760
 C1777 C 0.71168 1.05290 0.78122
 C1778 C 0.70598 1.04673 0.76934
 C1779 C 0.71299 1.03578 0.76268
 C1780 C 0.72579 1.03065 0.76787
 C1781 C 0.73128 1.03651 0.78004
 C1782 C 0.72429 1.04751 0.78667
 H1783 H 0.70966 1.11207 0.82508
 H1784 H 0.72009 1.09116 0.81544
 H1785 H 0.68506 1.08711 0.78738
 H1786 H 0.67442 1.10777 0.79703
 H1787 H 0.72176 1.07396 0.79688
 H1788 H 0.69298 1.06562 0.78557
 H1789 H 0.69621 1.05058 0.76502
 H1790 H 0.70841 1.03143 0.75338
 H1791 H 0.74105 1.03269 0.78438
 H1792 H 0.72876 1.05163 0.79610
 C1793 C 0.20300 0.60505 0.81922
 C1794 C 0.20915 0.59297 0.81380
 C1795 C 0.20375 0.58668 0.80184
 C1796 C 0.19199 0.59280 0.79535
 C1797 C 0.18582 0.60491 0.80079
 C1798 C 0.19132 0.61124 0.81273
 C1799 C 0.21116 0.57425 0.79623
 C1800 C 0.20546 0.56511 0.78734
 C1801 C 0.21335 0.55306 0.78156
 C1802 C 0.20928 0.54763 0.76870
 C1803 C 0.21678 0.53664 0.76263
 C1804 C 0.22848 0.53076 0.76938
 C1805 C 0.23226 0.53587 0.78247
 C1806 C 0.22475 0.54684 0.78853
 H1807 H 0.20746 0.60948 0.82850
 H1808 H 0.21821 0.58852 0.81898
 H1809 H 0.18772 0.58856 0.78590
 H1810 H 0.17695 0.60946 0.79542
 H1811 H 0.22188 0.57270 0.79964
 H1812 H 0.19481 0.56665 0.78373
 H1813 H 0.20044 0.55212 0.76318
 H1814 H 0.21354 0.53289 0.75257
 H1815 H 0.24109 0.53143 0.78803
 H1816 H 0.22788 0.55030 0.79871
 C1817 C 0.20268 1.10629 0.31823
 C1818 C 0.20907 1.09456 0.31232
 C1819 C 0.20282 1.08762 0.30114
 C1820 C 0.19005 1.09281 0.29585
 C1821 C 0.18365 1.10456 0.30177
 C1822 C 0.18988 1.11146 0.31305
 C1823 C 0.21028 1.07539 0.29514
 C1824 C 0.20425 1.06581 0.28694
 C1825 C 0.21208 1.05382 0.28096
 C1826 C 0.20736 1.04794 0.26852
 C1827 C 0.21468 1.03687 0.26236
 C1828 C 0.22681 1.03134 0.26862
 C1829 C 0.23129 1.03694 0.28131
 C1830 C 0.22399 1.04801 0.28744
 H1831 H 0.20792 1.11131 0.32680
 H1832 H 0.21895 1.09089 0.31654
 H1833 H 0.18503 1.08807 0.28700
 H1834 H 0.17383 1.10822 0.29744
 H1835 H 0.22130 1.07432 0.29770
 H1836 H 0.19331 1.06683 0.28411
 H1837 H 0.19813 1.05211 0.26340
 H1838 H 0.21090 1.03275 0.25263
 H1839 H 0.24050 1.03281 0.28648
 H1840 H 0.22765 1.05186 0.29731
 C1841 C 0.68546 0.39325 0.70299
 C1842 C 0.69157 0.40480 0.70942
 C1843 C 0.70197 0.41263 0.70270
 C1844 C 0.70635 0.40845 0.68942
 C1845 C 0.70025 0.39684 0.68298
 C1846 C 0.68969 0.38913 0.68967
 C1847 C 0.70820 0.42469 0.71014
 C1848 C 0.71505 0.43520 0.70391
 C1849 C 0.72140 0.44706 0.71157
 C1850 C 0.73274 0.45417 0.70558
 C1851 C 0.73924 0.46520 0.71255
 C1852 C 0.73442 0.46949 0.72561
 C1853 C 0.72280 0.46263 0.73145
 C1854 C 0.71633 0.45156 0.72450
 H1855 H 0.67752 0.38749 0.70858
 H1856 H 0.68810 0.40767 0.71970
 H1857 H 0.71463 0.41389 0.68401
 H1858 H 0.70380 0.39398 0.67275
 H1859 H 0.70694 0.42484 0.72125
 H1860 H 0.71646 0.43509 0.69282
 H1861 H 0.73674 0.45102 0.69557
 H1862 H 0.74811 0.47031 0.70771
 H1863 H 0.71875 0.46576 0.74144
 H1864 H 0.70729 0.44670 0.72925
 C1865 C 0.68098 -0.10734 0.20446
 C1866 C 0.68657 -0.09570 0.21121
 C1867 C 0.69750 -0.08797 0.20525
 C1868 C 0.70290 -0.09229 0.19238
 C1869 C 0.69730 -0.10395 0.18562
 C1870 C 0.68625 -0.11162 0.19156
 C1871 C 0.70319 -0.07585 0.21304
 C1872 C 0.71080 -0.06556 0.20733
 C1873 C 0.71659 -0.05368 0.21538
 C1874 C 0.72861 -0.04688 0.21043
 C1875 C 0.73457 -0.03581 0.21780
 C1876 C 0.72852 -0.03119 0.23025
 C1877 C 0.71625 -0.03775 0.23503
 C1878 C 0.71032 -0.04886 0.22768
 H1879 H 0.67259 -0.11298 0.20949
 H1880 H 0.68230 -0.09271 0.22116
 H1881 H 0.71160 -0.08694 0.18756
 H1882 H 0.70169 -0.10691 0.17574
 H1883 H 0.70087 -0.07549 0.22398
 H1884 H 0.71330 -0.06587 0.19644
 H1885 H 0.73355 -0.05028 0.20092
 H1886 H 0.74398 -0.03094 0.21379
 H1887 H 0.71126 -0.03436 0.24452
 H1888 H 0.70075 -0.05347 0.23159
 C1889 C 0.18136 0.39446 0.20207
 C1890 C 0.18713 0.40609 0.20867
 C1891 C 0.19849 0.41328 0.20283
 C1892 C 0.20413 0.40842 0.19026
 C1893 C 0.19836 0.39677 0.18365
 C1894 C 0.18690 0.38962 0.18946
 C1895 C 0.20445 0.42535 0.21046
 C1896 C 0.21232 0.43532 0.20455
 C1897 C 0.21876 0.44699 0.21238
 C1898 C 0.23096 0.45319 0.20709
 C1899 C 0.23763 0.46397 0.21426
 C1900 C 0.23214 0.46892 0.22683
 C1901 C 0.21970 0.46300 0.23195
 C1902 C 0.21305 0.45215 0.22481
 H1903 H 0.17263 0.38925 0.20698
 H1904 H 0.18267 0.40951 0.21841
 H1905 H 0.21318 0.41332 0.18559
 H1906 H 0.20299 0.39337 0.17401
 H1907 H 0.20221 0.42592 0.22141
 H1908 H 0.21463 0.43480 0.19363
 H1909 H 0.23550 0.44952 0.19748
 H1910 H 0.24715 0.46837 0.20997
 H1911 H 0.21514 0.46667 0.24155
 H1912 H 0.20340 0.44798 0.22899
 C1913 C 0.20334 -0.10714 0.68015
 C1914 C 0.21049 -0.09573 0.68578
 C1915 C 0.20511 -0.08862 0.69730
 C1916 C 0.19253 -0.09339 0.70331
 C1917 C 0.18540 -0.10484 0.69771
 C1918 C 0.19068 -0.11181 0.68602
 C1919 C 0.21317 -0.07667 0.70300
 C1920 C 0.20728 -0.06633 0.71039
 C1921 C 0.21527 -0.05457 0.71655
 C1922 C 0.20928 -0.04738 0.72773
 C1923 C 0.21642 -0.03642 0.73411
 C1924 C 0.22973 -0.03225 0.72937
 C1925 C 0.23562 -0.03918 0.71794
 C1926 C 0.22847 -0.05022 0.71157
 H1927 H 0.20787 -0.11235 0.67128
 H1928 H 0.22025 -0.09240 0.68106
 H1929 H 0.18826 -0.08852 0.71248
 H1930 H 0.17572 -0.10816 0.70253
 H1931 H 0.22432 -0.07646 0.70085
 H1932 H 0.19610 -0.06657 0.71241
 H1933 H 0.19908 -0.05041 0.73169
 H1934 H 0.21153 -0.03126 0.74284
 H1935 H 0.24581 -0.03615 0.71399
 H1936 H 0.23328 -0.05516 0.70270
 C1937 C 0.31749 0.29389 0.39447
 C1938 C 0.31180 0.28726 0.40605
 C1939 C 0.30123 0.29372 0.41390
 C1940 C 0.29629 0.30698 0.40973
 C1941 C 0.30198 0.31362 0.39810
 C1942 C 0.31269 0.30717 0.39034
 C1943 C 0.29549 0.28600 0.42599
 C1944 C 0.28793 0.29188 0.43617
 C1945 C 0.28227 0.28384 0.44807
 C1946 C 0.27032 0.28894 0.45493
 C1947 C 0.26452 0.28159 0.46605
 C1948 C 0.27066 0.26903 0.47068
 C1949 C 0.28285 0.26412 0.46405
 C1950 C 0.28862 0.27144 0.45290
 H1951 H 0.32557 0.28846 0.38873
 H1952 H 0.31574 0.27701 0.40891
 H1953 H 0.28790 0.31222 0.41519
 H1954 H 0.29798 0.32382 0.39526
 H1955 H 0.29774 0.27491 0.42644
 H1956 H 0.28540 0.30291 0.43577
 H1957 H 0.26532 0.29854 0.45154
 H1958 H 0.25517 0.28572 0.47096
 H1959 H 0.28791 0.25455 0.46744
 H1960 H 0.29814 0.26742 0.44826
 C1961 C 0.31595 0.79437 -0.10407
 C1962 C 0.31028 0.78793 -0.09240
 C1963 C 0.30015 0.79479 -0.08433
 C1964 C 0.29561 0.80822 -0.08834
 C1965 C 0.30128 0.81467 -0.10005
 C1966 C 0.31155 0.80784 -0.10803
 C1967 C 0.29439 0.78729 -0.07218
 C1968 C 0.28763 0.79354 -0.06168
 C1969 C 0.28187 0.78563 -0.04980
 C1970 C 0.27013 0.79099 -0.04280
 C1971 C 0.26410 0.78357 -0.03187
 C1972 C 0.26981 0.77069 -0.02761
 C1973 C 0.28187 0.76557 -0.03430
 C1974 C 0.28787 0.77297 -0.04525
 H1975 H 0.32368 0.78866 -0.11003
 H1976 H 0.31387 0.77753 -0.08965
 H1977 H 0.28753 0.81374 -0.08268
 H1978 H 0.29761 0.82503 -0.10278
 H1979 H 0.29590 0.77607 -0.07195
 H1980 H 0.28583 0.80471 -0.06183
 H1981 H 0.26543 0.80081 -0.04601
 H1982 H 0.25486 0.78785 -0.02687
 H1983 H 0.28662 0.75576 -0.03117
 H1984 H 0.29725 0.76877 -0.05001
 C1985 C 0.81564 0.29909 -0.10364
 C1986 C 0.80960 0.29313 -0.09190
 C1987 C 0.79790 0.29934 -0.08556
 C1988 C 0.79224 0.31164 -0.09135
 C1989 C 0.79827 0.31760 -0.10313
 C1990 C 0.81004 0.31139 -0.10944
 C1991 C 0.79162 0.29228 -0.07339
 C1992 C 0.78330 0.29871 -0.06415
 C1993 C 0.77673 0.29136 -0.05231
 C1994 C 0.76433 0.29686 -0.04664
 C1995 C 0.75754 0.29006 -0.03574
 C1996 C 0.76311 0.27763 -0.03019
 C1997 C 0.77575 0.27233 -0.03558
 C1998 C 0.78253 0.27913 -0.04648
 H1999 H 0.82458 0.29388 -0.10827
 H2000 H 0.81409 0.28358 -0.08775
 H2001 H 0.78297 0.31656 -0.08707
 H2002 H 0.79365 0.32706 -0.10727
 H2003 H 0.79403 0.28129 -0.07212
 H2004 H 0.78078 0.30967 -0.06540
 H2005 H 0.75972 0.30634 -0.05082
 H2006 H 0.74786 0.29446 -0.03178
 H2007 H 0.78040 0.26287 -0.03143
 H2008 H 0.79235 0.27483 -0.05017
 C2009 C 0.79666 0.81892 0.39727
 C2010 C 0.79041 0.81330 0.40910
 C2011 C 0.79624 0.80156 0.41569
 C2012 C 0.80835 0.79537 0.41000
 C2013 C 0.81460 0.80098 0.39817
 C2014 C 0.80886 0.81284 0.39164
 C2015 C 0.78905 0.79576 0.42801
 C2016 C 0.79552 0.78778 0.43752
 C2017 C 0.78821 0.78135 0.44946
 C2018 C 0.79411 0.76936 0.45553
 C2019 C 0.78740 0.76264 0.46651
 C2020 C 0.77467 0.76787 0.47178
 C2021 C 0.76896 0.78013 0.46600
 C2022 C 0.77566 0.78683 0.45498
 H2023 H 0.79184 0.82800 0.39257
 H2024 H 0.78100 0.81819 0.41317
 H2025 H 0.81291 0.78601 0.41442
 H2026 H 0.82387 0.79586 0.39416
 H2027 H 0.77801 0.79820 0.42915
 H2028 H 0.80657 0.78539 0.43638
 H2029 H 0.80383 0.76500 0.45157
 H2030 H 0.79211 0.75326 0.47077
 H2031 H 0.75924 0.78450 0.46991
 H2032 H 0.77102 0.79632 0.45095
 C2033 C 0.68394 0.29532 0.60611
 C2034 C 0.68991 0.28889 0.59455
 C2035 C 0.70046 0.29559 0.58690
 C2036 C 0.70508 0.30886 0.59125
 C2037 C 0.69911 0.31530 0.60284
 C2038 C 0.68845 0.30863 0.61042
 C2039 C 0.70664 0.28813 0.57488
 C2040 C 0.71364 0.29451 0.56462
 C2041 C 0.72015 0.28692 0.55286
 C2042 C 0.73139 0.29322 0.54586
 C2043 C 0.73804 0.28638 0.53489
 C2044 C 0.73348 0.27311 0.53055
 C2045 C 0.72199 0.26695 0.53730
 C2046 C 0.71537 0.27377 0.54832
 H2047 H 0.67589 0.28974 0.61172
 H2048 H 0.68625 0.27861 0.59154
 H2049 H 0.71348 0.31424 0.58597
 H2050 H 0.70290 0.32552 0.60581
 H2051 H 0.70528 0.27690 0.57458
 H2052 H 0.71508 0.30572 0.56489
 H2053 H 0.73520 0.30339 0.54904
 H2054 H 0.74681 0.29147 0.52987
 H2055 H 0.71814 0.25679 0.53413
 H2056 H 0.70642 0.26876 0.55308
 C2057 C 0.68524 0.79738 1.10488
 C2058 C 0.69155 0.79150 1.09322
 C2059 C 0.70196 0.79875 1.08591
 C2060 C 0.70609 0.81204 1.09068
 C2061 C 0.69978 0.81793 1.10238
 C2062 C 0.68925 0.81069 1.10962
 C2063 C 0.70844 0.79180 1.07373
 C2064 C 0.71581 0.79848 1.06393
 C2065 C 0.72229 0.79117 1.05199
 C2066 C 0.73420 0.79703 1.04573
 C2067 C 0.74083 0.79028 1.03469
 C2068 C 0.73559 0.77756 1.02956
 C2069 C 0.72341 0.77191 1.03554
 C2070 C 0.71680 0.77864 1.04660
 H2071 H 0.67732 0.79136 1.11022
 H2072 H 0.68825 0.78120 1.08988
 H2073 H 0.71434 0.81787 1.08564
 H2074 H 0.70317 0.82818 1.10570
 H2075 H 0.70695 0.78062 1.07290
 H2076 H 0.71759 0.80962 1.06471
 H2077 H 0.73854 0.80675 1.04957
 H2078 H 0.75015 0.79495 1.03026
 H2079 H 0.71901 0.76221 1.03174
 H2080 H 0.70733 0.77406 1.05077
 C2081 C 0.20289 0.31585 1.10448
 C2082 C 0.20940 0.31015 1.09283
 C2083 C 0.20315 0.29916 1.08548
 C2084 C 0.19024 0.29382 1.09021
 C2085 C 0.18373 0.29951 1.10192
 C2086 C 0.18996 0.31061 1.10919
 C2087 C 0.21076 0.29334 1.07336
 C2088 C 0.20472 0.28568 1.06337
 C2089 C 0.21261 0.27981 1.05144
 C2090 C 0.20725 0.26796 1.04472
 C2091 C 0.21448 0.26190 1.03364
 C2092 C 0.22718 0.26766 1.02892
 C2093 C 0.23235 0.27976 1.03540
 C2094 C 0.22514 0.28580 1.04649
 H2095 H 0.20815 0.32425 1.10986
 H2096 H 0.21939 0.31439 1.08952
 H2097 H 0.18521 0.28509 1.08514
 H2098 H 0.17380 0.29517 1.10523
 H2099 H 0.22186 0.29562 1.07272
 H2100 H 0.19366 0.28323 1.06398
 H2101 H 0.19756 0.26322 1.04820
 H2102 H 0.21016 0.25262 1.02885
 H2103 H 0.24203 0.28454 1.03194
 H2104 H 0.22936 0.29523 1.05102
 C2105 C 0.18251 0.79481 0.60504
 C2106 C 0.18798 0.78866 0.59310
 C2107 C 0.19827 0.79551 0.58526
 C2108 C 0.20315 0.80864 0.58977
 C2109 C 0.19766 0.81480 0.60171
 C2110 C 0.18728 0.80796 0.60950
 C2111 C 0.20399 0.78833 0.57289
 C2112 C 0.21092 0.79487 0.56270
 C2113 C 0.21719 0.78739 0.55079
 C2114 C 0.22898 0.79321 0.54431
 C2115 C 0.23556 0.78626 0.53338
 C2116 C 0.23037 0.77340 0.52858
 C2117 C 0.21826 0.76779 0.53475
 C2118 C 0.21172 0.77472 0.54574
 H2119 H 0.17448 0.78924 0.61070
 H2120 H 0.18410 0.77851 0.58994
 H2121 H 0.21142 0.81410 0.58437
 H2122 H 0.20177 0.82482 0.60494
 H2123 H 0.20245 0.77713 0.57230
 H2124 H 0.21263 0.80603 0.56321
 H2125 H 0.23330 0.80303 0.54791
 H2126 H 0.24481 0.79091 0.52879
 H2127 H 0.21393 0.75797 0.53121
 H2128 H 0.20235 0.77015 0.55015
 C2129 C 0.31631 0.70568 0.60482
 C2130 C 0.31054 0.71231 0.59328
 C2131 C 0.30012 0.70576 0.58536
 C2132 C 0.29541 0.69241 0.58940
 C2133 C 0.30118 0.68577 0.60098
 C2134 C 0.31173 0.69230 0.60882
 C2135 C 0.29426 0.71346 0.57335
 C2136 C 0.28711 0.70744 0.56299
 C2137 C 0.28119 0.71547 0.55124
 C2138 C 0.26932 0.71024 0.54442
 C2139 C 0.26320 0.71767 0.53351
 C2140 C 0.26896 0.73043 0.52908
 C2141 C 0.28110 0.73548 0.53563
 C2142 C 0.28718 0.72807 0.54657
 H2143 H 0.32425 0.71117 0.61065
 H2144 H 0.31427 0.72264 0.59051
 H2145 H 0.28712 0.68712 0.58388
 H2146 H 0.29736 0.67549 0.60374
 H2147 H 0.29602 0.72464 0.57310
 H2148 H 0.28509 0.69632 0.56318
 H2149 H 0.26460 0.70049 0.54771
 H2150 H 0.25390 0.71344 0.52863
 H2151 H 0.28587 0.74520 0.53236
 H2152 H 0.29665 0.73219 0.55121
 C2153 C 0.31823 0.20467 1.10379
 C2154 C 0.31255 0.21110 1.09207
 C2155 C 0.30149 0.20486 1.08475
 C2156 C 0.29608 0.19206 1.08957
 C2157 C 0.30176 0.18563 1.10130
 C2158 C 0.31291 0.19184 1.10858
 C2159 C 0.29560 0.21231 1.07257
 C2160 C 0.28797 0.20610 1.06265
 C2161 C 0.28171 0.21375 1.05079
 C2162 C 0.26989 0.20806 1.04422
 C2163 C 0.26342 0.21508 1.03324
 C2164 C 0.26873 0.22791 1.02848
 C2165 C 0.28082 0.23341 1.03478
 C2166 C 0.28727 0.22641 1.04578
 H2167 H 0.32671 0.20989 1.10913
 H2168 H 0.31683 0.22102 1.08868
 H2169 H 0.28728 0.18706 1.08456
 H2170 H 0.29732 0.17580 1.10462
 H2171 H 0.29769 0.22341 1.07189
 H2172 H 0.28579 0.19502 1.06330
 H2173 H 0.26547 0.19826 1.04777
 H2174 H 0.25416 0.21051 1.02858
 H2175 H 0.28527 0.24321 1.03127
 H2176 H 0.29667 0.23091 1.05019
 C2177 C 0.79717 0.68614 1.10432
 C2178 C 0.79115 0.69244 1.09271
 C2179 C 0.79820 0.70310 1.08558
 C2180 C 0.81140 0.70748 1.09048
 C2181 C 0.81743 0.70118 1.10212
 C2182 C 0.81039 0.69041 1.10919
 C2183 C 0.79112 0.70957 1.07346
 C2184 C 0.79769 0.71720 1.06378
 C2185 C 0.79027 0.72369 1.05190
 C2186 C 0.79598 0.73571 1.04579
 C2187 C 0.78913 0.74234 1.03480
 C2188 C 0.77646 0.73699 1.02957
 C2189 C 0.77095 0.72471 1.03541
 C2190 C 0.77778 0.71810 1.04642
 H2191 H 0.79131 0.67802 1.10951
 H2192 H 0.78092 0.68893 1.08926
 H2193 H 0.81706 0.71592 1.08558
 H2194 H 0.82761 0.70478 1.10554
 H2195 H 0.77993 0.70785 1.07256
 H2196 H 0.80883 0.71917 1.06463
 H2197 H 0.80567 0.74013 1.04970
 H2198 H 0.79370 0.75174 1.03048
 H2199 H 0.76129 0.72023 1.03154
 H2200 H 0.77331 0.70855 1.05047
 C2201 C 0.79803 0.18621 0.60555
 C2202 C 0.79206 0.19206 0.59370
 C2203 C 0.79906 0.20256 0.58629
 C2204 C 0.81221 0.20720 0.59111
 C2205 C 0.81820 0.20132 0.60298
 C2206 C 0.81117 0.19077 0.61036
 C2207 C 0.79198 0.20853 0.57395
 C2208 C 0.79838 0.21627 0.56425
 C2209 C 0.79077 0.22214 0.55218
 C2210 C 0.79557 0.23460 0.54618
 C2211 C 0.78831 0.24071 0.53514
 C2212 C 0.77616 0.23437 0.52980
 C2213 C 0.77166 0.22161 0.53548
 C2214 C 0.77890 0.21553 0.54651
 H2215 H 0.79232 0.17805 0.61084
 H2216 H 0.78191 0.18831 0.59028
 H2217 H 0.81783 0.21552 0.58599
 H2218 H 0.82824 0.20524 0.60647
 H2219 H 0.78088 0.20635 0.57290
 H2220 H 0.80937 0.21885 0.56522
 H2221 H 0.80479 0.23979 0.55025
 H2222 H 0.79209 0.25050 0.53094
 H2223 H 0.76245 0.21636 0.53149
 H2224 H 0.77521 0.20561 0.55047
 C2225 C 0.68241 0.70447 0.39711
 C2226 C 0.68818 0.71089 0.40878
 C2227 C 0.70002 0.70518 0.41535
 C2228 C 0.70615 0.69299 0.40981
 C2229 C 0.70039 0.68659 0.39814
 C2230 C 0.68842 0.69221 0.39162
 C2231 C 0.70597 0.71254 0.42753
 C2232 C 0.71414 0.70628 0.43703
 C2233 C 0.72062 0.71372 0.44888
 C2234 C 0.73262 0.70786 0.45504
 C2235 C 0.73931 0.71458 0.46603
 C2236 C 0.73406 0.72728 0.47123
 C2237 C 0.72183 0.73299 0.46532
 C2238 C 0.71515 0.72628 0.45428
 H2239 H 0.67326 0.70923 0.39241
 H2240 H 0.68334 0.72034 0.41273
 H2241 H 0.71557 0.68850 0.41421
 H2242 H 0.70545 0.67726 0.39423
 H2243 H 0.70343 0.72353 0.42857
 H2244 H 0.71661 0.69528 0.43599
 H2245 H 0.73699 0.69814 0.45118
 H2246 H 0.74867 0.70985 0.47039
 H2247 H 0.71744 0.74270 0.46917
 H2248 H 0.70566 0.73092 0.45017
 C2249 C 0.70269 0.18523 -0.10471
 C2250 C 0.70863 0.19136 -0.09299
 C2251 C 0.70166 0.20219 -0.08598
 C2252 C 0.68862 0.20688 -0.09106
 C2253 C 0.68266 0.20073 -0.10277
 C2254 C 0.68963 0.18984 -0.10975
 C2255 C 0.70864 0.20857 -0.07382
 C2256 C 0.70191 0.21616 -0.06419
 C2257 C 0.70919 0.22284 -0.05238
 C2258 C 0.70322 0.23484 -0.04642
 C2259 C 0.70993 0.24169 -0.03551
 C2260 C 0.72269 0.23657 -0.03022
 C2261 C 0.72846 0.22430 -0.03591
 C2262 C 0.72177 0.21748 -0.04684
 H2263 H 0.70834 0.17682 -0.10973
 H2264 H 0.71872 0.18759 -0.08936
 H2265 H 0.68307 0.21551 -0.08630
 H2266 H 0.67271 0.20473 -0.10647
 H2267 H 0.71985 0.20691 -0.07288
 H2268 H 0.69074 0.21800 -0.06507
 H2269 H 0.69346 0.23909 -0.05040
 H2270 H 0.70517 0.25107 -0.03131
 H2271 H 0.73821 0.22000 -0.03197
 H2272 H 0.72644 0.20796 -0.05078
 C2273 C 0.20559 0.68417 -0.10487
 C2274 C 0.21199 0.68953 -0.09303
 C2275 C 0.20534 0.69988 -0.08511
 C2276 C 0.19210 0.70489 -0.08938
 C2277 C 0.18569 0.69951 -0.10126
 C2278 C 0.19237 0.68911 -0.10917
 C2279 C 0.21286 0.70543 -0.07286
 C2280 C 0.20666 0.71243 -0.06249
 C2281 C 0.21455 0.71809 -0.05053
 C2282 C 0.20912 0.72976 -0.04352
 C2283 C 0.21645 0.73568 -0.03247
 C2284 C 0.22932 0.72996 -0.02810
 C2285 C 0.23454 0.71800 -0.03482
 C2286 C 0.22722 0.71209 -0.04588
 H2287 H 0.21106 0.67610 -0.11058
 H2288 H 0.22220 0.68552 -0.09002
 H2289 H 0.18676 0.71315 -0.08385
 H2290 H 0.17560 0.70371 -0.10432
 H2291 H 0.22407 0.70357 -0.07246
 H2292 H 0.19550 0.71453 -0.06283
 H2293 H 0.19930 0.73448 -0.04679
 H2294 H 0.21209 0.74484 -0.02746
 H2295 H 0.24434 0.71323 -0.03160
 H2296 H 0.23148 0.70277 -0.05065
 C2297 C 0.18202 0.20381 0.39765
 C2298 C 0.18784 0.20998 0.40940
 C2299 C 0.19895 0.20352 0.41649
 C2300 C 0.20428 0.19076 0.41143
 C2301 C 0.19846 0.18458 0.39966
 C2302 C 0.18725 0.19101 0.39261
 C2303 C 0.20498 0.21074 0.42870
 C2304 C 0.21276 0.20434 0.43840
 C2305 C 0.21921 0.21186 0.45019
 C2306 C 0.23149 0.20636 0.45613
 C2307 C 0.23820 0.21335 0.46693
 C2308 C 0.23267 0.22593 0.47216
 C2309 C 0.22012 0.23120 0.46653
 C2310 C 0.21343 0.22424 0.45567
 H2311 H 0.17351 0.20920 0.39250
 H2312 H 0.18362 0.21988 0.41298
 H2313 H 0.21313 0.18561 0.41626
 H2314 H 0.20285 0.17477 0.39612
 H2315 H 0.20288 0.22184 0.42959
 H2316 H 0.21500 0.19328 0.43757
 H2317 H 0.23607 0.19677 0.45220
 H2318 H 0.24781 0.20896 0.47110
 H2319 H 0.21551 0.24080 0.47041
 H2320 H 0.20371 0.22854 0.45172
 C2321 C 0.29663 0.39593 0.68519
 C2322 C 0.29050 0.40770 0.69123
 C2323 C 0.29749 0.41514 0.70164
 C2324 C 0.31078 0.41039 0.70604
 C2325 C 0.31692 0.39856 0.69999
 C2326 C 0.30994 0.39121 0.68945
 C2327 C 0.29028 0.42749 0.70770
 C2328 C 0.29657 0.43732 0.71540
 C2329 C 0.28884 0.44946 0.72118
 C2330 C 0.29353 0.45552 0.73355
 C2331 C 0.28618 0.46667 0.73952
 C2332 C 0.27405 0.47209 0.73314
 C2333 C 0.26966 0.46635 0.72050
 C2334 C 0.27698 0.45520 0.71455
 H2335 H 0.29080 0.39049 0.67726
 H2336 H 0.28021 0.41103 0.68771
 H2337 H 0.31643 0.41555 0.71426
 H2338 H 0.32717 0.39524 0.70356
 H2339 H 0.27915 0.42847 0.70558
 H2340 H 0.30759 0.43641 0.71796
 H2341 H 0.30273 0.45141 0.73875
 H2342 H 0.28989 0.47092 0.74923
 H2343 H 0.26046 0.47039 0.71523
 H2344 H 0.27337 0.45120 0.70472
 C2345 C 0.29573 0.89683 0.18294
 C2346 C 0.28925 0.90852 0.18881
 C2347 C 0.29555 0.91570 0.19981
 C2348 C 0.30848 0.91078 0.20497
 C2349 C 0.31498 0.89906 0.19909
 C2350 C 0.30870 0.89194 0.18798
 C2351 C 0.28799 0.92789 0.20576
 C2352 C 0.29400 0.93768 0.21374
 C2353 C 0.28607 0.94963 0.21966
 C2354 C 0.29086 0.95571 0.23198
 C2355 C 0.28348 0.96676 0.23809
 C2356 C 0.27121 0.97207 0.23190
 C2357 C 0.26665 0.96627 0.21933
 C2358 C 0.27401 0.95521 0.21325
 H2359 H 0.29045 0.89164 0.17450
 H2360 H 0.27924 0.91199 0.18469
 H2361 H 0.31355 0.91571 0.21368
 H2362 H 0.32492 0.89562 0.20332
 H2363 H 0.27692 0.92877 0.20334
 H2364 H 0.30499 0.93686 0.21643
 H2365 H 0.30020 0.95172 0.23704
 H2366 H 0.28732 0.97104 0.24773
 H2367 H 0.25733 0.97023 0.21422
 H2368 H 0.27029 0.95119 0.20348
 C2369 C 0.79533 0.39545 0.18245
 C2370 C 0.78883 0.40705 0.18847
 C2371 C 0.79512 0.41410 0.19956
 C2372 C 0.80806 0.40912 0.20466
 C2373 C 0.81457 0.39748 0.19863
 C2374 C 0.80830 0.39050 0.18743
 C2375 C 0.78755 0.42623 0.20563
 C2376 C 0.79355 0.43595 0.21368
 C2377 C 0.78563 0.44788 0.21967
 C2378 C 0.79043 0.45388 0.23202
 C2379 C 0.78309 0.46493 0.23816
 C2380 C 0.77085 0.47033 0.23199
 C2381 C 0.76626 0.46459 0.21942
 C2382 C 0.77358 0.45352 0.21329
 H2383 H 0.79004 0.39037 0.17395
 H2384 H 0.77882 0.41057 0.18439
 H2385 H 0.81312 0.41394 0.21344
 H2386 H 0.82452 0.39398 0.20281
 H2387 H 0.77649 0.42713 0.20321
 H2388 H 0.80454 0.43510 0.21637
 H2389 H 0.79976 0.44984 0.23706
 H2390 H 0.78696 0.46917 0.24782
 H2391 H 0.75696 0.46861 0.21432
 H2392 H 0.76984 0.44955 0.20350
 C2393 C 0.81576 0.89534 0.70412
 C2394 C 0.80991 0.90703 0.71061
 C2395 C 0.79956 0.91507 0.70398
 C2396 C 0.79499 0.91100 0.69075
 C2397 C 0.80084 0.89928 0.68426
 C2398 C 0.81132 0.89132 0.69085
 C2399 C 0.79349 0.92720 0.71148
 C2400 C 0.78681 0.93785 0.70526
 C2401 C 0.78036 0.94965 0.71294
 C2402 C 0.76903 0.95680 0.70690
 C2403 C 0.76236 0.96773 0.71390
 C2404 C 0.76701 0.97188 0.72706
 C2405 C 0.77863 0.96501 0.73295
 C2406 C 0.78526 0.95402 0.72596
 H2407 H 0.82366 0.88942 0.70964
 H2408 H 0.81351 0.90982 0.72086
 H2409 H 0.78672 0.91659 0.68543
 H2410 H 0.79711 0.89652 0.67406
 H2411 H 0.79466 0.92724 0.72261
 H2412 H 0.78553 0.93786 0.69416
 H2413 H 0.76515 0.95373 0.69682
 H2414 H 0.75349 0.97285 0.70903
 H2415 H 0.78254 0.96805 0.74302
 H2416 H 0.79429 0.94912 0.73075
 C2417 C 0.70616 0.60587 0.68218
 C2418 C 0.71294 0.59416 0.68769
 C2419 C 0.70653 0.58609 0.69801
 C2420 C 0.69319 0.59017 0.70290
 C2421 C 0.68641 0.60193 0.69739
 C2422 C 0.69279 0.60990 0.68693
 C2423 C 0.71437 0.57390 0.70361
 C2424 C 0.70841 0.56329 0.71053
 C2425 C 0.71656 0.55135 0.71621
 C2426 C 0.71125 0.54419 0.72773
 C2427 C 0.71877 0.53313 0.73365
 C2428 C 0.73172 0.52886 0.72805
 C2429 C 0.73684 0.53573 0.71625
 C2430 C 0.72934 0.54684 0.71036
 H2431 H 0.71154 0.61181 0.67429
 H2432 H 0.72325 0.59137 0.68383
 H2433 H 0.68802 0.58453 0.71113
 H2434 H 0.67614 0.60472 0.70133
 H2435 H 0.72559 0.57373 0.70182
 H2436 H 0.69724 0.56340 0.71253
 H2437 H 0.70137 0.54735 0.73234
 H2438 H 0.71448 0.52800 0.74269
 H2439 H 0.74671 0.53261 0.71161
 H2440 H 0.73353 0.55172 0.70117
 C2441 C 0.70402 0.10324 0.18067
 C2442 C 0.71021 0.09133 0.18644
 C2443 C 0.70399 0.08454 0.19773
 C2444 C 0.69146 0.09003 0.20326
 C2445 C 0.68528 0.10198 0.19750
 C2446 C 0.69150 0.10875 0.18615
 C2447 C 0.71126 0.07223 0.20377
 C2448 C 0.70479 0.06244 0.21140
 C2449 C 0.71225 0.05049 0.21793
 C2450 C 0.70618 0.04412 0.22953
 C2451 C 0.71301 0.03312 0.23630
 C2452 C 0.72605 0.02816 0.23153
 C2453 C 0.73194 0.03425 0.21966
 C2454 C 0.72511 0.04526 0.21289
 H2455 H 0.70923 0.10823 0.17205
 H2456 H 0.71993 0.08742 0.18208
 H2457 H 0.68653 0.08540 0.21222
 H2458 H 0.67565 0.10591 0.20201
 H2459 H 0.72241 0.07134 0.20179
 H2460 H 0.69365 0.06333 0.21339
 H2461 H 0.69622 0.04784 0.23354
 H2462 H 0.70813 0.02862 0.24538
 H2463 H 0.74190 0.03057 0.21563
 H2464 H 0.72991 0.04951 0.20368
 C2465 C 0.18347 0.60297 0.20188
 C2466 C 0.18942 0.59119 0.20813
 C2467 C 0.20126 0.58463 0.20240
 C2468 C 0.20716 0.59025 0.19028
 C2469 C 0.20121 0.60206 0.18402
 C2470 C 0.18928 0.60859 0.18973
 C2471 C 0.20728 0.57233 0.20970
 C2472 C 0.21603 0.56299 0.20389
 C2473 C 0.22194 0.55086 0.21153
 C2474 C 0.23475 0.54505 0.20716
 C2475 C 0.24082 0.53384 0.21432
 C2476 C 0.23413 0.52813 0.22597
 C2477 C 0.22109 0.53367 0.23009
 C2478 C 0.21503 0.54485 0.22293
 H2479 H 0.17434 0.60764 0.20667
 H2480 H 0.18471 0.58716 0.21751
 H2481 H 0.21652 0.58582 0.18571
 H2482 H 0.20609 0.60608 0.17475
 H2483 H 0.20423 0.57100 0.22039
 H2484 H 0.21933 0.56429 0.19328
 H2485 H 0.24020 0.54936 0.19831
 H2486 H 0.25084 0.52977 0.21084
 H2487 H 0.21556 0.52940 0.23890
 H2488 H 0.20487 0.54861 0.22631
 C2489 C 0.18475 0.10496 0.70409
 C2490 C 0.19037 0.09325 0.71075
 C2491 C 0.20049 0.08487 0.70423
 C2492 C 0.20513 0.08867 0.69092
 C2493 C 0.19952 0.10043 0.68425
 C2494 C 0.18921 0.10868 0.69073
 C2495 C 0.20620 0.07264 0.71189
 C2496 C 0.21260 0.06173 0.70584
 C2497 C 0.21860 0.04978 0.71367
 C2498 C 0.22974 0.04223 0.70777
 C2499 C 0.23600 0.03114 0.71489
 C2500 C 0.23113 0.02718 0.72804
 C2501 C 0.21968 0.03444 0.73380
 C2502 C 0.21347 0.04562 0.72669
 H2503 H 0.17700 0.11114 0.70954
 H2504 H 0.18673 0.09069 0.72105
 H2505 H 0.21325 0.08279 0.68567
 H2506 H 0.20325 0.10299 0.67400
 H2507 H 0.20495 0.07272 0.72301
 H2508 H 0.21397 0.06160 0.69474
 H2509 H 0.23379 0.04511 0.69770
 H2510 H 0.24473 0.02571 0.71011
 H2511 H 0.21562 0.03158 0.74386
 H2512 H 0.20458 0.05085 0.73139
 C2513 C 0.29402 0.60541 0.31413
 C2514 C 0.28771 0.59376 0.30809
 C2515 C 0.29513 0.58538 0.29869
 C2516 C 0.30898 0.58913 0.29518
 C2517 C 0.31529 0.60084 0.30121
 C2518 C 0.30791 0.60907 0.31083
 C2519 C 0.28783 0.57317 0.29257
 C2520 C 0.29445 0.56221 0.28683
 C2521 C 0.28689 0.55021 0.28065
 C2522 C 0.29342 0.54264 0.27003
 C2523 C 0.28649 0.53152 0.26363
 C2524 C 0.27292 0.52762 0.26785
 C2525 C 0.26656 0.53490 0.27880
 C2526 C 0.27347 0.54607 0.28517
 H2527 H 0.28789 0.61159 0.32130
 H2528 H 0.27699 0.59123 0.31085
 H2529 H 0.31494 0.58324 0.28765
 H2530 H 0.32598 0.60337 0.29839
 H2531 H 0.27647 0.57326 0.29299
 H2532 H 0.30579 0.56206 0.28622
 H2533 H 0.30381 0.54551 0.26647
 H2534 H 0.29173 0.52607 0.25527
 H2535 H 0.25617 0.53207 0.28238
 H2536 H 0.26831 0.55131 0.29367
 C2537 C 0.31635 0.10428 0.79518
 C2538 C 0.31091 0.09263 0.78833
 C2539 C 0.30067 0.08423 0.79459
 C2540 C 0.29574 0.08795 0.80782
 C2541 C 0.30117 0.09964 0.81467
 C2542 C 0.31158 0.10792 0.80846
 C2543 C 0.29511 0.07210 0.78674
 C2544 C 0.28868 0.06115 0.79265
 C2545 C 0.28267 0.04934 0.78469
 C2546 C 0.27155 0.04180 0.79055
 C2547 C 0.26527 0.03082 0.78334
 C2548 C 0.27010 0.02698 0.77014
 C2549 C 0.28153 0.03424 0.76442
 C2550 C 0.28776 0.04531 0.77161
 H2551 H 0.32419 0.11047 0.78993
 H2552 H 0.31478 0.09013 0.77809
 H2553 H 0.28752 0.08207 0.81287
 H2554 H 0.29719 0.10212 0.82485
 H2555 H 0.29646 0.07230 0.77564
 H2556 H 0.28726 0.06091 0.80374
 H2557 H 0.26751 0.04458 0.80065
 H2558 H 0.25655 0.02539 0.78810
 H2559 H 0.28556 0.03146 0.75431
 H2560 H 0.29663 0.05055 0.76694
 C2561 C 0.79595 0.60419 0.81703
 C2562 C 0.78972 0.59248 0.81097
 C2563 C 0.79634 0.58539 0.80007
 C2564 C 0.80931 0.59044 0.79519
 C2565 C 0.81555 0.60216 0.80125
 C2566 C 0.80897 0.60919 0.81227
 C2567 C 0.78910 0.57317 0.79384
 C2568 C 0.79558 0.56337 0.78620
 C2569 C 0.78813 0.55147 0.77968
 C2570 C 0.79396 0.54535 0.76782
 C2571 C 0.78716 0.53431 0.76115
 C2572 C 0.77443 0.52902 0.76630
 C2573 C 0.76878 0.53488 0.77841
 C2574 C 0.77555 0.54597 0.78506
 H2575 H 0.79044 0.60933 0.82538
 H2576 H 0.77967 0.58892 0.81485
 H2577 H 0.81460 0.58562 0.78653
 H2578 H 0.82552 0.60568 0.79723
 H2579 H 0.77794 0.57232 0.79573
 H2580 H 0.80672 0.56418 0.78419
 H2581 H 0.80370 0.54928 0.76355
 H2582 H 0.79185 0.52999 0.75189
 H2583 H 0.75906 0.53097 0.78272
 H2584 H 0.77097 0.55006 0.79446
 C2585 C 0.81463 0.10375 0.29816
 C2586 C 0.80862 0.09216 0.29169
 C2587 C 0.79741 0.08497 0.29783
 C2588 C 0.79218 0.08979 0.31059
 C2589 C 0.79820 0.10141 0.31706
 C2590 C 0.80951 0.10854 0.31094
 C2591 C 0.79131 0.07288 0.29031
 C2592 C 0.78317 0.06307 0.29616
 C2593 C 0.77714 0.05117 0.28832
 C2594 C 0.76473 0.04494 0.29313
 C2595 C 0.75857 0.03388 0.28590
 C2596 C 0.76479 0.02870 0.27376
 C2597 C 0.77742 0.03468 0.26914
 C2598 C 0.78356 0.04575 0.27636
 H2599 H 0.82321 0.10896 0.29300
 H2600 H 0.81279 0.08877 0.28182
 H2601 H 0.78331 0.08487 0.31554
 H2602 H 0.79392 0.10477 0.32687
 H2603 H 0.79378 0.07210 0.27942
 H2604 H 0.78045 0.06381 0.30698
 H2605 H 0.75967 0.04881 0.30241
 H2606 H 0.74888 0.02946 0.28978
 H2607 H 0.78257 0.03084 0.25991
 H2608 H 0.79341 0.04988 0.27259
 C2609 C 0.70340 0.39403 0.31503
 C2610 C 0.70964 0.40572 0.30900
 C2611 C 0.70257 0.41349 0.29885
 C2612 C 0.68911 0.40911 0.29464
 C2613 C 0.68285 0.39735 0.30068
 C2614 C 0.68991 0.38972 0.31101
 C2615 C 0.70988 0.42576 0.29285
 C2616 C 0.70359 0.43595 0.28556
 C2617 C 0.71143 0.44805 0.27990
 C2618 C 0.70657 0.45452 0.26779
 C2619 C 0.71397 0.46565 0.26192
 C2620 C 0.72632 0.47066 0.26815
 C2621 C 0.73091 0.46450 0.28055
 C2622 C 0.72353 0.45335 0.28639
 H2623 H 0.70930 0.38834 0.32276
 H2624 H 0.72006 0.40874 0.31235
 H2625 H 0.68339 0.41454 0.28661
 H2626 H 0.67247 0.39431 0.29730
 H2627 H 0.72108 0.42642 0.29472
 H2628 H 0.69250 0.43539 0.28327
 H2629 H 0.69718 0.45074 0.26269
 H2630 H 0.71010 0.47022 0.25240
 H2631 H 0.74028 0.46822 0.28570
 H2632 H 0.72730 0.44902 0.29604
 C2633 C 0.70262 0.89716 0.81796
 C2634 C 0.70878 0.90900 0.81207
 C2635 C 0.70305 0.91517 0.80018
 C2636 C 0.69107 0.90911 0.79415
 C2637 C 0.68491 0.89726 0.80004
 C2638 C 0.69060 0.89112 0.81202
 C2639 C 0.71023 0.92751 0.79415
 C2640 C 0.70403 0.93668 0.78557
 C2641 C 0.71149 0.94877 0.77939
 C2642 C 0.70651 0.95440 0.76691
 C2643 C 0.71346 0.96555 0.76055
 C2644 C 0.72550 0.97138 0.76662
 C2645 C 0.73025 0.96602 0.77933
 C2646 C 0.72331 0.95489 0.78568
 H2647 H 0.70739 0.89277 0.82713
 H2648 H 0.71807 0.91337 0.81686
 H2649 H 0.68656 0.91323 0.78473
 H2650 H 0.67575 0.89292 0.79506
 H2651 H 0.72111 0.92898 0.79703
 H2652 H 0.69319 0.93522 0.78258
 H2653 H 0.69734 0.94999 0.76193
 H2654 H 0.70949 0.96948 0.75080
 H2655 H 0.73940 0.97039 0.78437
 H2656 H 0.72717 0.95126 0.79556
 C2657 C 0.20455 0.39711 0.82009
 C2658 C 0.21113 0.40894 0.81462
 C2659 C 0.20617 0.41519 0.80243
 C2660 C 0.19457 0.40919 0.79567
 C2661 C 0.18799 0.39736 0.80114
 C2662 C 0.19287 0.39115 0.81343
 C2663 C 0.21373 0.42753 0.79686
 C2664 C 0.20795 0.43680 0.78810
 C2665 C 0.21569 0.44883 0.78214
 C2666 C 0.21090 0.45462 0.76965
 C2667 C 0.21802 0.46575 0.76347
 C2668 C 0.23003 0.47146 0.76973
 C2669 C 0.23462 0.46592 0.78242
 C2670 C 0.22751 0.45477 0.78859
 H2671 H 0.20869 0.39268 0.82954
 H2672 H 0.22013 0.41325 0.81997
 H2673 H 0.19069 0.41333 0.78600
 H2674 H 0.17916 0.39306 0.79557
 H2675 H 0.22448 0.42890 0.80021
 H2676 H 0.19720 0.43544 0.78476
 H2677 H 0.20174 0.45035 0.76454
 H2678 H 0.21416 0.46981 0.75373
 H2679 H 0.24375 0.47017 0.78757
 H2680 H 0.23126 0.45098 0.79846
 C2681 C 0.20279 0.89692 0.31822
 C2682 C 0.20924 0.90869 0.31253
 C2683 C 0.20350 0.91540 0.30093
 C2684 C 0.19120 0.90992 0.29498
 C2685 C 0.18473 0.89812 0.30067
 C2686 C 0.19043 0.89146 0.31238
 C2687 C 0.21099 0.92768 0.29515
 C2688 C 0.20499 0.93725 0.28686
 C2689 C 0.21275 0.94928 0.28094
 C2690 C 0.20790 0.95526 0.26857
 C2691 C 0.21509 0.96638 0.26245
 C2692 C 0.22723 0.97188 0.26865
 C2693 C 0.23186 0.96617 0.28125
 C2694 C 0.22469 0.95503 0.28736
 H2695 H 0.20759 0.89213 0.32718
 H2696 H 0.21877 0.91260 0.31725
 H2697 H 0.18664 0.91445 0.28577
 H2698 H 0.17532 0.89422 0.29578
 H2699 H 0.22193 0.92879 0.29797
 H2700 H 0.19410 0.93617 0.28390
 H2701 H 0.19865 0.95114 0.26349
 H2702 H 0.21120 0.97058 0.25277
 H2703 H 0.24109 0.97026 0.28637
 H2704 H 0.22846 0.95109 0.29716
 C2705 C 0.39309 0.29630 0.68428
 C2706 C 0.40470 0.28973 0.69029
 C2707 C 0.41237 0.29633 0.70079
 C2708 C 0.40802 0.30965 0.70533
 C2709 C 0.39636 0.31622 0.69932
 C2710 C 0.38877 0.30964 0.68870
 C2711 C 0.42446 0.28870 0.70694
 C2712 C 0.43479 0.29481 0.71417
 C2713 C 0.44669 0.28687 0.72027
 C2714 C 0.45356 0.29235 0.73189
 C2715 C 0.46463 0.28505 0.73812
 C2716 C 0.46915 0.27213 0.73275
 C2717 C 0.46253 0.26682 0.72089
 C2718 C 0.45146 0.27412 0.71468
 H2719 H 0.38746 0.29078 0.67626
 H2720 H 0.40772 0.27943 0.68667
 H2721 H 0.41334 0.31497 0.71367
 H2722 H 0.39336 0.32648 0.70303
 H2723 H 0.42478 0.27751 0.70528
 H2724 H 0.43451 0.30595 0.71606
 H2725 H 0.45020 0.30223 0.73630
 H2726 H 0.46955 0.28947 0.74720
 H2727 H 0.46586 0.25698 0.71640
 H2728 H 0.44683 0.26979 0.70542
 C2729 C 0.39339 0.81713 0.20399
 C2730 C 0.40492 0.81107 0.21067
 C2731 C 0.41245 0.80010 0.20448
 C2732 C 0.40805 0.79516 0.19149
 C2733 C 0.39650 0.80121 0.18481
 C2734 C 0.38903 0.81228 0.19097
 C2735 C 0.42443 0.79389 0.21219
 C2736 C 0.43464 0.78618 0.20635
 C2737 C 0.44640 0.77992 0.21431
 C2738 C 0.45310 0.76795 0.20908
 C2739 C 0.46407 0.76157 0.21639
 C2740 C 0.46866 0.76714 0.22904
 C2741 C 0.46220 0.77935 0.23410
 C2742 C 0.45124 0.78570 0.22681
 H2743 H 0.38786 0.82551 0.20918
 H2744 H 0.40798 0.81500 0.22072
 H2745 H 0.41325 0.78646 0.18649
 H2746 H 0.39348 0.79717 0.17481
 H2747 H 0.42477 0.79588 0.22319
 H2748 H 0.43434 0.78400 0.19539
 H2749 H 0.44970 0.76338 0.19940
 H2750 H 0.46886 0.75222 0.21216
 H2751 H 0.46560 0.78400 0.24374
 H2752 H 0.44674 0.79522 0.23094
 C2753 C 0.89171 0.29589 0.18476
 C2754 C 0.90325 0.28930 0.19084
 C2755 C 0.91159 0.29633 0.20055
 C2756 C 0.90792 0.31011 0.20428
 C2757 C 0.89631 0.31671 0.19820
 C2758 C 0.88812 0.30971 0.18831
 C2759 C 0.92367 0.28868 0.20666
 C2760 C 0.93450 0.29482 0.21311
 C2761 C 0.94643 0.28676 0.21897
 C2762 C 0.95380 0.29230 0.23026
 C2763 C 0.96486 0.28482 0.23629
 C2764 C 0.96890 0.27171 0.23103
 C2765 C 0.96183 0.26637 0.21943
 C2766 C 0.95075 0.27383 0.21344
 H2767 H 0.88556 0.29005 0.17737
 H2768 H 0.90573 0.27864 0.18788
 H2769 H 0.91379 0.31580 0.21200
 H2770 H 0.89385 0.32734 0.20121
 H2771 H 0.92361 0.27741 0.20559
 H2772 H 0.93464 0.30604 0.21450
 H2773 H 0.95080 0.30232 0.23461
 H2774 H 0.97016 0.28927 0.24516
 H2775 H 0.96478 0.25638 0.21503
 H2776 H 0.94571 0.26946 0.20440
 C2777 C 0.89361 0.81476 0.70423
 C2778 C 0.90519 0.80867 0.71075
 C2779 C 0.91331 0.79850 0.70401
 C2780 C 0.90941 0.79432 0.69059
 C2781 C 0.89777 0.80040 0.68406
 C2782 C 0.88976 0.81073 0.69078
 C2783 C 0.92536 0.79225 0.71157
 C2784 C 0.93610 0.78559 0.70544
 C2785 C 0.94791 0.77923 0.71325
 C2786 C 0.95515 0.76790 0.70738
 C2787 C 0.96612 0.76138 0.71451
 C2788 C 0.97022 0.76617 0.72764
 C2789 C 0.96325 0.77778 0.73336
 C2790 C 0.95223 0.78427 0.72624
 H2791 H 0.88762 0.82251 0.70986
 H2792 H 0.90785 0.81198 0.72114
 H2793 H 0.91508 0.78622 0.68515
 H2794 H 0.89512 0.79701 0.67372
 H2795 H 0.92530 0.79333 0.72270
 H2796 H 0.93621 0.78433 0.69434
 H2797 H 0.95213 0.76392 0.69732
 H2798 H 0.97133 0.75252 0.70976
 H2799 H 0.96625 0.78180 0.74340
 H2800 H 0.94727 0.79330 0.73090
 C2801 C 0.60730 0.29461 0.31714
 C2802 C 0.59575 0.28795 0.31117
 C2803 C 0.58807 0.29443 0.30056
 C2804 C 0.59238 0.30769 0.29587
 C2805 C 0.60396 0.31435 0.30184
 C2806 C 0.61156 0.30790 0.31256
 C2807 C 0.57607 0.28677 0.29439
 C2808 C 0.56560 0.29299 0.28740
 C2809 C 0.55386 0.28522 0.28088
 C2810 C 0.54675 0.29146 0.26975
 C2811 C 0.53579 0.28448 0.26310
 C2812 C 0.53157 0.27113 0.26753
 C2813 C 0.53843 0.26501 0.27889
 C2814 C 0.54944 0.27198 0.28553
 H2815 H 0.61295 0.28920 0.32524
 H2816 H 0.59278 0.27768 0.31488
 H2817 H 0.58708 0.31290 0.28742
 H2818 H 0.60691 0.32455 0.29800
 H2819 H 0.57596 0.27553 0.29578
 H2820 H 0.56568 0.30421 0.28597
 H2821 H 0.54983 0.30170 0.26605
 H2822 H 0.53068 0.28954 0.25443
 H2823 H 0.53534 0.25479 0.28264
 H2824 H 0.55430 0.26701 0.29437
 C2825 C 0.60660 0.81649 0.79563
 C2826 C 0.59483 0.81079 0.78912
 C2827 C 0.58666 0.80062 0.79576
 C2828 C 0.59069 0.79606 0.80903
 C2829 C 0.60247 0.80174 0.81553
 C2830 C 0.61057 0.81204 0.80893
 C2831 C 0.57446 0.79466 0.78828
 C2832 C 0.56365 0.78835 0.79458
 C2833 C 0.55183 0.78176 0.78704
 C2834 C 0.54443 0.77094 0.79354
 C2835 C 0.53350 0.76411 0.78672
 C2836 C 0.52961 0.76806 0.77325
 C2837 C 0.53673 0.77919 0.76687
 C2838 C 0.54772 0.78599 0.77369
 H2839 H 0.61263 0.82426 0.79011
 H2840 H 0.59207 0.81438 0.77885
 H2841 H 0.58500 0.78790 0.81435
 H2842 H 0.60519 0.79801 0.82574
 H2843 H 0.57454 0.79554 0.77713
 H2844 H 0.56354 0.78746 0.80572
 H2845 H 0.54728 0.76758 0.80387
 H2846 H 0.52817 0.75563 0.79197
 H2847 H 0.53389 0.78256 0.75655
 H2848 H 0.55283 0.79461 0.76850
 C2849 C 0.10587 0.32073 0.79438
 C2850 C 0.09418 0.31543 0.78741
 C2851 C 0.08670 0.30403 0.79274
 C2852 C 0.09132 0.29785 0.80515
 C2853 C 0.10302 0.30314 0.81212
 C2854 C 0.11047 0.31466 0.80684
 C2855 C 0.07456 0.29860 0.78476
 C2856 C 0.06427 0.29086 0.79033
 C2857 C 0.05245 0.28497 0.78222
 C2858 C 0.04560 0.27307 0.78734
 C2859 C 0.03461 0.26696 0.77997
 C2860 C 0.03009 0.27270 0.76735
 C2861 C 0.03669 0.28483 0.76237
 C2862 C 0.04774 0.29093 0.76973
 H2863 H 0.11130 0.32954 0.78987
 H2864 H 0.09095 0.32031 0.77781
 H2865 H 0.08619 0.28874 0.80941
 H2866 H 0.10623 0.29808 0.82161
 H2867 H 0.07422 0.30115 0.77387
 H2868 H 0.06458 0.28830 0.80121
 H2869 H 0.04892 0.26835 0.79699
 H2870 H 0.02970 0.25766 0.78414
 H2871 H 0.03337 0.28959 0.75274
 H2872 H 0.05240 0.30038 0.76566
 C2873 C 0.10476 0.81815 0.29573
 C2874 C 0.09310 0.81231 0.28914
 C2875 C 0.08586 0.80104 0.29507
 C2876 C 0.09070 0.79556 0.30771
 C2877 C 0.10236 0.80139 0.31431
 C2878 C 0.10955 0.81276 0.30842
 C2879 C 0.07374 0.79505 0.28747
 C2880 C 0.06371 0.78723 0.29340
 C2881 C 0.05184 0.78101 0.28562
 C2882 C 0.04525 0.76907 0.29100
 C2883 C 0.03420 0.76270 0.28390
 C2884 C 0.02940 0.76823 0.27128
 C2885 C 0.03574 0.78040 0.26607
 C2886 C 0.04680 0.78675 0.27317
 H2887 H 0.11003 0.82680 0.29077
 H2888 H 0.08970 0.81666 0.27934
 H2889 H 0.08576 0.78660 0.31246
 H2890 H 0.10571 0.79689 0.32402
 H2891 H 0.07316 0.79729 0.27653
 H2892 H 0.06426 0.78490 0.30433
 H2893 H 0.04881 0.76452 0.30065
 H2894 H 0.02949 0.75338 0.28823
 H2895 H 0.03219 0.78502 0.25645
 H2896 H 0.05121 0.79624 0.26891
 C2897 C 0.60639 0.70211 0.68714
 C2898 C 0.59475 0.70821 0.69352
 C2899 C 0.58738 0.70110 0.70392
 C2900 C 0.59208 0.68771 0.70794
 C2901 C 0.60378 0.68160 0.70153
 C2902 C 0.61105 0.68871 0.69101
 C2903 C 0.57511 0.70828 0.71025
 C2904 C 0.56551 0.70214 0.71840
 C2905 C 0.55331 0.70989 0.72415
 C2906 C 0.54743 0.70553 0.73673
 C2907 C 0.53616 0.71287 0.74259
 C2908 C 0.53045 0.72464 0.73589
 C2909 C 0.53605 0.72870 0.72306
 C2910 C 0.54729 0.72139 0.71723
 H2911 H 0.61176 0.70804 0.67924
 H2912 H 0.59147 0.71856 0.69027
 H2913 H 0.58694 0.68192 0.71607
 H2914 H 0.60706 0.67127 0.70480
 H2915 H 0.57395 0.71930 0.70791
 H2916 H 0.56662 0.69127 0.72129
 H2917 H 0.55175 0.69660 0.74218
 H2918 H 0.53204 0.70942 0.75245
 H2919 H 0.53178 0.73759 0.71752
 H2920 H 0.55111 0.72471 0.70723
 C2921 C 0.60615 0.18170 0.20062
 C2922 C 0.59409 0.18722 0.20680
 C2923 C 0.58742 0.19908 0.20129
 C2924 C 0.59315 0.20538 0.18942
 C2925 C 0.60523 0.19986 0.18323
 C2926 C 0.61194 0.18799 0.18879
 C2927 C 0.57500 0.20483 0.20865
 C2928 C 0.56561 0.21362 0.20295
 C2929 C 0.55359 0.21963 0.21071
 C2930 C 0.54781 0.23240 0.20629
 C2931 C 0.53678 0.23866 0.21358
 C2932 C 0.53120 0.23219 0.22541
 C2933 C 0.53669 0.21919 0.22959
 C2934 C 0.54770 0.21294 0.22230
 H2935 H 0.61094 0.17258 0.20526
 H2936 H 0.58997 0.18220 0.21598
 H2937 H 0.58863 0.21477 0.18502
 H2938 H 0.60934 0.20508 0.17419
 H2939 H 0.57371 0.20164 0.21930
 H2940 H 0.56689 0.21697 0.19236
 H2941 H 0.55204 0.23770 0.19731
 H2942 H 0.53274 0.24864 0.21005
 H2943 H 0.53251 0.21384 0.23855
 H2944 H 0.55144 0.20283 0.22574
 C2945 C 0.10592 0.70310 0.18470
 C2946 C 0.09421 0.70959 0.19057
 C2947 C 0.08625 0.70279 0.20071
 C2948 C 0.09041 0.68934 0.20507
 C2949 C 0.10218 0.68284 0.19921
 C2950 C 0.11005 0.68963 0.18892
 C2951 C 0.07404 0.71034 0.20667
 C2952 C 0.06349 0.70415 0.21352
 C2953 C 0.05151 0.71209 0.21940
 C2954 C 0.04453 0.70669 0.23099
 C2955 C 0.03347 0.71408 0.23709
 C2956 C 0.02904 0.72699 0.23160
 C2957 C 0.03573 0.73218 0.21972
 C2958 C 0.04681 0.72481 0.21365
 H2959 H 0.11179 0.70879 0.17697
 H2960 H 0.09134 0.72000 0.18711
 H2961 H 0.08484 0.68385 0.21314
 H2962 H 0.10504 0.67247 0.20273
 H2963 H 0.07379 0.72156 0.20519
 H2964 H 0.06368 0.69298 0.21527
 H2965 H 0.04784 0.69684 0.23551
 H2966 H 0.02848 0.70975 0.24618
 H2967 H 0.03246 0.74201 0.21515
 H2968 H 0.05154 0.72905 0.20440
 C2969 C 0.10509 0.18352 0.70224
 C2970 C 0.09338 0.18958 0.70856
 C2971 C 0.08592 0.20040 0.70206
 C2972 C 0.09059 0.20521 0.68909
 C2973 C 0.10232 0.19914 0.68276
 C2974 C 0.10972 0.18820 0.68924
 C2975 C 0.07374 0.20664 0.70941
 C2976 C 0.06362 0.21418 0.70321
 C2977 C 0.05178 0.22068 0.71084
 C2978 C 0.04539 0.23268 0.70529
 C2979 C 0.03445 0.23937 0.71229
 C2980 C 0.02951 0.23410 0.72495
 C2981 C 0.03561 0.22184 0.73032
 C2982 C 0.04661 0.21517 0.72334
 H2983 H 0.11055 0.17525 0.70768
 H2984 H 0.09013 0.18576 0.71861
 H2985 H 0.08545 0.21381 0.68386
 H2986 H 0.10556 0.20307 0.67277
 H2987 H 0.07318 0.20487 0.72045
 H2988 H 0.06412 0.21612 0.69222
 H2989 H 0.04907 0.23704 0.69561
 H2990 H 0.02992 0.24874 0.70782
 H2991 H 0.03196 0.21744 0.73998
 H2992 H 0.05090 0.20566 0.72771
 C2993 C 0.39191 0.70266 0.31670
 C2994 C 0.40355 0.70918 0.31078
 C2995 C 0.41155 0.70239 0.30061
 C2996 C 0.40748 0.68892 0.29631
 C2997 C 0.39579 0.68239 0.30224
 C2998 C 0.38788 0.68917 0.31253
 C2999 C 0.42369 0.70996 0.29459
 C3000 C 0.43421 0.70380 0.28762
 C3001 C 0.44614 0.71171 0.28164
 C3002 C 0.45317 0.70618 0.27012
 C3003 C 0.46424 0.71347 0.26398
 C3004 C 0.46864 0.72641 0.26934
 C3005 C 0.46188 0.73175 0.28113
 C3006 C 0.45079 0.72448 0.28724
 H3007 H 0.38603 0.70833 0.32445
 H3008 H 0.40635 0.71960 0.31420
 H3009 H 0.41306 0.68343 0.28823
 H3010 H 0.39302 0.67202 0.29873
 H3011 H 0.42390 0.72118 0.29611
 H3012 H 0.43406 0.69264 0.28585
 H3013 H 0.44991 0.69630 0.26570
 H3014 H 0.46928 0.70902 0.25495
 H3015 H 0.46511 0.74161 0.28560
 H3016 H 0.44602 0.72884 0.29643
 C3017 C 0.39258 0.18524 0.79734
 C3018 C 0.40414 0.19139 0.79094
 C3019 C 0.41222 0.20144 0.79785
 C3020 C 0.40828 0.20542 0.81132
 C3021 C 0.39665 0.19927 0.81774
 C3022 C 0.38871 0.18904 0.81084
 C3023 C 0.42435 0.20759 0.79040
 C3024 C 0.43494 0.21449 0.79648
 C3025 C 0.44694 0.22028 0.78858
 C3026 C 0.45399 0.23205 0.79373
 C3027 C 0.46509 0.23801 0.78635
 C3028 C 0.46948 0.23221 0.77371
 C3029 C 0.46272 0.22016 0.76878
 C3030 C 0.45161 0.21423 0.77614
 H3031 H 0.38663 0.17758 0.79158
 H3032 H 0.40683 0.18821 0.78052
 H3033 H 0.41396 0.21339 0.81692
 H3034 H 0.39396 0.20248 0.82813
 H3035 H 0.42455 0.20614 0.77931
 H3036 H 0.43482 0.21631 0.80751
 H3037 H 0.45071 0.23680 0.80338
 H3038 H 0.47014 0.24725 0.79048
 H3039 H 0.46595 0.21534 0.75916
 H3040 H 0.44684 0.20482 0.77210
 C3041 C 0.89385 0.70212 0.81590
 C3042 C 0.90556 0.70829 0.80974
 C3043 C 0.91285 0.70150 0.79908
 C3044 C 0.90801 0.68837 0.79454
 C3045 C 0.89627 0.68218 0.80070
 C3046 C 0.88905 0.68896 0.81149
 C3047 C 0.92512 0.70874 0.79288
 C3048 C 0.93491 0.70251 0.78498
 C3049 C 0.94704 0.71017 0.77904
 C3050 C 0.95324 0.70521 0.76683
 C3051 C 0.96448 0.71235 0.76076
 C3052 C 0.96983 0.72456 0.76688
 C3053 C 0.96389 0.72929 0.77934
 C3054 C 0.95268 0.72216 0.78539
 H3055 H 0.88856 0.70778 0.82405
 H3056 H 0.90896 0.71845 0.81339
 H3057 H 0.91304 0.68289 0.78612
 H3058 H 0.89290 0.67207 0.79698
 H3059 H 0.92607 0.71980 0.79507
 H3060 H 0.93401 0.69155 0.78242
 H3061 H 0.94922 0.69590 0.76183
 H3062 H 0.96885 0.70840 0.75120
 H3063 H 0.96787 0.73856 0.78442
 H3064 H 0.94860 0.72601 0.79510
 C3065 C 0.89206 0.18446 0.29699
 C3066 C 0.90356 0.19049 0.29034
 C3067 C 0.91155 0.20087 0.29686
 C3068 C 0.90761 0.20530 0.31019
 C3069 C 0.89605 0.19927 0.31685
 C3070 C 0.88817 0.18873 0.31035
 C3071 C 0.92359 0.20692 0.28915
 C3072 C 0.93409 0.21419 0.29496
 C3073 C 0.94601 0.21993 0.28687
 C3074 C 0.95309 0.23176 0.29186
 C3075 C 0.96419 0.23762 0.28439
 C3076 C 0.96856 0.23166 0.27181
 C3077 C 0.96173 0.21958 0.26702
 C3078 C 0.95063 0.21375 0.27447
 H3079 H 0.88618 0.17653 0.29153
 H3080 H 0.90626 0.18696 0.28003
 H3081 H 0.91320 0.21353 0.31549
 H3082 H 0.89336 0.20285 0.32712
 H3083 H 0.92375 0.20511 0.27811
 H3084 H 0.93398 0.21634 0.30592
 H3085 H 0.94986 0.23662 0.30146
 H3086 H 0.96927 0.24689 0.28841
 H3087 H 0.96494 0.21464 0.25745
 H3088 H 0.94584 0.20430 0.27054
 C3089 C 0.29568 0.31749 0.60474
 C3090 C 0.28935 0.31165 0.59308
 C3091 C 0.29626 0.30131 0.58534
 C3092 C 0.30964 0.29677 0.58967
 C3093 C 0.31597 0.30260 0.60136
 C3094 C 0.30907 0.31304 0.60904
 C3095 C 0.28890 0.29520 0.57327
 C3096 C 0.29544 0.28843 0.56295
 C3097 C 0.28788 0.28184 0.55127
 C3098 C 0.29421 0.27051 0.54445
 C3099 C 0.28728 0.26367 0.53368
 C3100 C 0.27388 0.26812 0.52939
 C3101 C 0.26772 0.27975 0.53591
 C3102 C 0.27464 0.28657 0.54672
 H3103 H 0.28993 0.32537 0.61045
 H3104 H 0.27898 0.31524 0.59008
 H3105 H 0.31518 0.28851 0.58431
 H3106 H 0.32627 0.29888 0.60432
 H3107 H 0.27760 0.29635 0.57301
 H3108 H 0.30673 0.28718 0.56317
 H3109 H 0.30446 0.26676 0.54765
 H3110 H 0.29236 0.25480 0.52882
 H3111 H 0.25747 0.28352 0.53276
 H3112 H 0.26963 0.29558 0.55135
 C3113 C 0.29594 0.81465 0.10646
 C3114 C 0.28962 0.80844 0.09500
 C3115 C 0.29675 0.79825 0.08726
 C3116 C 0.31035 0.79422 0.09141
 C3117 C 0.31668 0.80043 0.10293
 C3118 C 0.30956 0.81076 0.11057
 C3119 C 0.28937 0.79198 0.07526
 C3120 C 0.29573 0.78490 0.06504
 C3121 C 0.28792 0.77891 0.05319
 C3122 C 0.29338 0.76709 0.04644
 C3123 C 0.28611 0.76097 0.03544
 C3124 C 0.27329 0.76665 0.03087
 C3125 C 0.26805 0.77874 0.03735
 C3126 C 0.27530 0.78484 0.04834
 H3127 H 0.29001 0.82241 0.11215
 H3128 H 0.27910 0.81167 0.09213
 H3129 H 0.31611 0.78615 0.08600
 H3130 H 0.32717 0.79714 0.10578
 H3131 H 0.27810 0.79345 0.07487
 H3132 H 0.30694 0.78308 0.06537
 H3133 H 0.30316 0.76243 0.04987
 H3134 H 0.29047 0.75170 0.03063
 H3135 H 0.25829 0.78348 0.03397
 H3136 H 0.27103 0.79428 0.05288
 C3137 C 0.81483 0.29861 0.10253
 C3138 C 0.80873 0.29251 0.09088
 C3139 C 0.79755 0.29909 0.08400
 C3140 C 0.79244 0.31189 0.08917
 C3141 C 0.79855 0.31800 0.10083
 C3142 C 0.80982 0.31144 0.10767
 C3143 C 0.79124 0.29198 0.07188
 C3144 C 0.78344 0.29852 0.06228
 C3145 C 0.77682 0.29116 0.05049
 C3146 C 0.76468 0.29693 0.04453
 C3147 C 0.75788 0.29014 0.03364
 C3148 C 0.76319 0.27749 0.02838
 C3149 C 0.77558 0.27192 0.03407
 C3150 C 0.78236 0.27869 0.04498
 H3151 H 0.82339 0.29313 0.10752
 H3152 H 0.81278 0.28258 0.08721
 H3153 H 0.78356 0.31714 0.08450
 H3154 H 0.79432 0.32785 0.10445
 H3155 H 0.79316 0.28086 0.07095
 H3156 H 0.78138 0.30962 0.06316
 H3157 H 0.76028 0.30660 0.04848
 H3158 H 0.74839 0.29475 0.02943
 H3159 H 0.78003 0.26226 0.03016
 H3160 H 0.79198 0.27417 0.04893
 C3161 C 0.79690 0.81729 0.60554
 C3162 C 0.79059 0.81136 0.59390
 C3163 C 0.79713 0.80038 0.58673
 C3164 C 0.81011 0.79529 0.59162
 C3165 C 0.81642 0.80123 0.60328
 C3166 C 0.80991 0.81231 0.61040
 C3167 C 0.78978 0.79426 0.57462
 C3168 C 0.79616 0.78659 0.56482
 C3169 C 0.78860 0.78019 0.55299
 C3170 C 0.79446 0.76835 0.54662
 C3171 C 0.78760 0.76180 0.53563
 C3172 C 0.77476 0.76705 0.53063
 C3173 C 0.76906 0.77914 0.53675
 C3174 C 0.77591 0.78567 0.54778
 H3175 H 0.79144 0.82570 0.61076
 H3176 H 0.78053 0.81540 0.59047
 H3177 H 0.81535 0.78657 0.58672
 H3178 H 0.82641 0.79705 0.60668
 H3179 H 0.77862 0.79626 0.57385
 H3180 H 0.80729 0.78448 0.56555
 H3181 H 0.80429 0.76400 0.55032
 H3182 H 0.79232 0.75255 0.53111
 H3183 H 0.75925 0.78353 0.53306
 H3184 H 0.77129 0.79506 0.55205
 C3185 C 0.29373 0.68276 0.39530
 C3186 C 0.28729 0.68867 0.40688
 C3187 C 0.29418 0.69890 0.41472
 C3188 C 0.30764 0.70329 0.41057
 C3189 C 0.31408 0.69739 0.39897
 C3190 C 0.30722 0.68704 0.39119
 C3191 C 0.28673 0.70505 0.42673
 C3192 C 0.29320 0.71167 0.43715
 C3193 C 0.28554 0.71823 0.44880
 C3194 C 0.29178 0.72952 0.45569
 C3195 C 0.28476 0.73631 0.46645
 C3196 C 0.27138 0.73183 0.47067
 C3197 C 0.26530 0.72024 0.46407
 C3198 C 0.27231 0.71348 0.45326
 H3199 H 0.28800 0.67496 0.38951
 H3200 H 0.27686 0.68520 0.40974
 H3201 H 0.31317 0.71147 0.41602
 H3202 H 0.32445 0.70098 0.39614
 H3203 H 0.27541 0.70402 0.42687
 H3204 H 0.30449 0.71281 0.43706
 H3205 H 0.30202 0.73328 0.45256
 H3206 H 0.28978 0.74515 0.47138
 H3207 H 0.25507 0.71645 0.46717
 H3208 H 0.26737 0.70449 0.44856
 C3209 C 0.29480 0.18094 0.89464
 C3210 C 0.28825 0.18678 0.90622
 C3211 C 0.29454 0.19778 0.91354
 C3212 C 0.30754 0.20295 0.90887
 C3213 C 0.31409 0.19711 0.89728
 C3214 C 0.30782 0.18603 0.88999
 C3215 C 0.28691 0.20378 0.92558
 C3216 C 0.29291 0.21170 0.93541
 C3217 C 0.28503 0.21780 0.94722
 C3218 C 0.29038 0.22979 0.95372
 C3219 C 0.28319 0.23603 0.96473
 C3220 C 0.27052 0.23033 0.96958
 C3221 C 0.26534 0.21811 0.96331
 C3222 C 0.27252 0.21189 0.95229
 H3223 H 0.28953 0.17252 0.88931
 H3224 H 0.27820 0.18265 0.90948
 H3225 H 0.31261 0.21167 0.91390
 H3226 H 0.32408 0.20137 0.89405
 H3227 H 0.27581 0.20147 0.92626
 H3228 H 0.30396 0.21418 0.93475
 H3229 H 0.30006 0.23448 0.95013
 H3230 H 0.28750 0.24539 0.96935
 H3231 H 0.25569 0.21337 0.96689
 H3232 H 0.26829 0.20237 0.94795
 C3233 C 0.79680 0.68419 0.89680
 C3234 C 0.79072 0.69040 0.90843
 C3235 C 0.79736 0.70154 0.91521
 C3236 C 0.81020 0.70649 0.90995
 C3237 C 0.81629 0.70028 0.89831
 C3238 C 0.80967 0.68905 0.89156
 C3239 C 0.79025 0.70796 0.92732
 C3240 C 0.79681 0.71587 0.93679
 C3241 C 0.78946 0.72259 0.94858
 C3242 C 0.79533 0.73465 0.95447
 C3243 C 0.78862 0.74151 0.96539
 C3244 C 0.77593 0.73637 0.97078
 C3245 C 0.77025 0.72407 0.96515
 C3246 C 0.77694 0.71723 0.95420
 H3247 H 0.79127 0.67567 0.89189
 H3248 H 0.78076 0.68645 0.91217
 H3249 H 0.81551 0.71532 0.91453
 H3250 H 0.82617 0.70438 0.89462
 H3251 H 0.77911 0.70602 0.92835
 H3252 H 0.80792 0.71793 0.93580
 H3253 H 0.80504 0.73892 0.95045
 H3254 H 0.79332 0.75093 0.96953
 H3255 H 0.76056 0.71975 0.96915
 H3256 H 0.77233 0.70768 0.95031
 C3257 C 0.79609 0.18243 0.39635
 C3258 C 0.78988 0.18836 0.40806
 C3259 C 0.79614 0.19972 0.41483
 C3260 C 0.80872 0.20519 0.40946
 C3261 C 0.81495 0.19926 0.39773
 C3262 C 0.80873 0.18780 0.39101
 C3263 C 0.78890 0.20578 0.42705
 C3264 C 0.79523 0.21386 0.43652
 C3265 C 0.78776 0.22020 0.44846
 C3266 C 0.79329 0.23238 0.45442
 C3267 C 0.78648 0.23889 0.46548
 C3268 C 0.77404 0.23327 0.47096
 C3269 C 0.76870 0.22085 0.46526
 C3270 C 0.77549 0.21436 0.45414
 H3271 H 0.79086 0.17371 0.39148
 H3272 H 0.78012 0.18400 0.41186
 H3273 H 0.81371 0.21421 0.41404
 H3274 H 0.82461 0.20377 0.39396
 H3275 H 0.77785 0.20340 0.42817
 H3276 H 0.80624 0.21634 0.43543
 H3277 H 0.80280 0.23701 0.45034
 H3278 H 0.79093 0.24840 0.46968
 H3279 H 0.75921 0.21618 0.46932
 H3280 H 0.77115 0.20471 0.45019
 C3281 C 0.70519 0.31728 0.39586
 C3282 C 0.71185 0.31175 0.40750
 C3283 C 0.70531 0.30147 0.41557
 C3284 C 0.69194 0.29666 0.41160
 C3285 C 0.68526 0.30219 0.39992
 C3286 C 0.69179 0.31259 0.39192
 C3287 C 0.71307 0.29585 0.42767
 C3288 C 0.70707 0.28883 0.43812
 C3289 C 0.71524 0.28315 0.44990
 C3290 C 0.71022 0.27124 0.45677
 C3291 C 0.71786 0.26528 0.46763
 C3292 C 0.73062 0.27123 0.47195
 C3293 C 0.73540 0.28343 0.46539
 C3294 C 0.72778 0.28936 0.45450
 H3295 H 0.71068 0.32511 0.38991
 H3296 H 0.72220 0.31556 0.41022
 H3297 H 0.68665 0.28847 0.41725
 H3298 H 0.67496 0.29829 0.39720
 H3299 H 0.72428 0.29768 0.42788
 H3300 H 0.69593 0.28671 0.43798
 H3301 H 0.70051 0.26636 0.45354
 H3302 H 0.71384 0.25593 0.47253
 H3303 H 0.74511 0.28836 0.46857
 H3304 H 0.73171 0.29886 0.44983
 C3305 C 0.68245 0.79856 0.89672
 C3306 C 0.68831 0.79241 0.90852
 C3307 C 0.70029 0.79812 0.91476
 C3308 C 0.70646 0.81004 0.90879
 C3309 C 0.70062 0.81618 0.89700
 C3310 C 0.68853 0.81055 0.89079
 C3311 C 0.70634 0.79101 0.92706
 C3312 C 0.71466 0.79742 0.93629
 C3313 C 0.72126 0.79020 0.94824
 C3314 C 0.73338 0.79605 0.95410
 C3315 C 0.74021 0.78947 0.96513
 C3316 C 0.73498 0.77691 0.97064
 C3317 C 0.72262 0.77124 0.96503
 C3318 C 0.71580 0.77781 0.95398
 H3319 H 0.67319 0.79383 0.89230
 H3320 H 0.68342 0.78315 0.91281
 H3321 H 0.71599 0.81451 0.91294
 H3322 H 0.70574 0.82529 0.89273
 H3323 H 0.70376 0.78009 0.92841
 H3324 H 0.71717 0.80836 0.93494
 H3325 H 0.73774 0.80564 0.94998
 H3326 H 0.74967 0.79415 0.96924
 H3327 H 0.71824 0.76165 0.96913
 H3328 H 0.70622 0.77320 0.95012
 C3329 C 0.18115 0.29567 0.89445
 C3330 C 0.18656 0.28893 0.90613
 C3331 C 0.19742 0.29501 0.91387
 C3332 C 0.20290 0.30794 0.90952
 C3333 C 0.19749 0.31468 0.89784
 C3334 C 0.18654 0.30864 0.89013
 C3335 C 0.20306 0.28723 0.92596
 C3336 C 0.21036 0.29322 0.93625
 C3337 C 0.21651 0.28528 0.94798
 C3338 C 0.22809 0.29099 0.95495
 C3339 C 0.23448 0.28376 0.96583
 C3340 C 0.22933 0.27068 0.97010
 C3341 C 0.21749 0.26513 0.96340
 C3342 C 0.21112 0.27236 0.95248
 H3343 H 0.17282 0.29057 0.88878
 H3344 H 0.18223 0.27891 0.90915
 H3345 H 0.21157 0.31282 0.91486
 H3346 H 0.20198 0.32461 0.89487
 H3347 H 0.20109 0.27609 0.92625
 H3348 H 0.21238 0.30434 0.93598
 H3349 H 0.23236 0.30099 0.95179
 H3350 H 0.24354 0.28837 0.97081
 H3351 H 0.21319 0.25515 0.96652
 H3352 H 0.20192 0.26782 0.94773
 C3353 C 0.18146 0.79773 0.39549
 C3354 C 0.18718 0.79137 0.40722
 C3355 C 0.19912 0.79692 0.41367
 C3356 C 0.20540 0.80891 0.40795
 C3357 C 0.19969 0.81527 0.39620
 C3358 C 0.18763 0.80979 0.38981
 C3359 C 0.20493 0.78958 0.42592
 C3360 C 0.21338 0.79564 0.43528
 C3361 C 0.21938 0.78806 0.44729
 C3362 C 0.23188 0.79300 0.45322
 C3363 C 0.23810 0.78596 0.46432
 C3364 C 0.23185 0.77387 0.46983
 C3365 C 0.21912 0.76917 0.46418
 C3366 C 0.21291 0.77620 0.45308
 H3367 H 0.17221 0.79311 0.39092
 H3368 H 0.18220 0.78207 0.41132
 H3369 H 0.21489 0.81329 0.41228
 H3370 H 0.20488 0.82444 0.39213
 H3371 H 0.20201 0.77873 0.42719
 H3372 H 0.21639 0.80646 0.43402
 H3373 H 0.23699 0.80220 0.44907
 H3374 H 0.24788 0.78990 0.46848
 H3375 H 0.21395 0.75998 0.46829
 H3376 H 0.20299 0.77236 0.44919
 C3377 C 0.68240 0.70321 0.60380
 C3378 C 0.68821 0.70964 0.59216
 C3379 C 0.69961 0.70356 0.58520
 C3380 C 0.70524 0.69093 0.59027
 C3381 C 0.69944 0.68449 0.60191
 C3382 C 0.68795 0.69054 0.60885
 C3383 C 0.70567 0.71102 0.57315
 C3384 C 0.71357 0.70479 0.56343
 C3385 C 0.72016 0.71242 0.55178
 C3386 C 0.73221 0.70669 0.54562
 C3387 C 0.73901 0.71367 0.53486
 C3388 C 0.73381 0.72650 0.52990
 C3389 C 0.72151 0.73206 0.53579
 C3390 C 0.71473 0.72509 0.54659
 H3391 H 0.67364 0.70829 0.60885
 H3392 H 0.68375 0.71944 0.58857
 H3393 H 0.71432 0.68610 0.58555
 H3394 H 0.70409 0.67481 0.60545
 H3395 H 0.70350 0.72211 0.57240
 H3396 H 0.71576 0.69371 0.56415
 H3397 H 0.73653 0.69688 0.54932
 H3398 H 0.74842 0.70905 0.53050
 H3399 H 0.71716 0.74186 0.53212
 H3400 H 0.70518 0.72962 0.55071
 C3401 C 0.70243 0.18429 0.10224
 C3402 C 0.70826 0.19040 0.09046
 C3403 C 0.70176 0.20190 0.08409
 C3404 C 0.68932 0.20732 0.08989
 C3405 C 0.68350 0.20122 0.10171
 C3406 C 0.68999 0.18964 0.10804
 C3407 C 0.70866 0.20824 0.07185
 C3408 C 0.70200 0.21635 0.06260
 C3409 C 0.70919 0.22296 0.05068
 C3410 C 0.70344 0.23521 0.04499
 C3411 C 0.71010 0.24202 0.03403
 C3412 C 0.72262 0.23664 0.02843
 C3413 C 0.72816 0.22414 0.03384
 C3414 C 0.72150 0.21733 0.04481
 H3415 H 0.70785 0.17551 0.10688
 H3416 H 0.71792 0.18610 0.08630
 H3417 H 0.68418 0.21643 0.08559
 H3418 H 0.67392 0.20564 0.10586
 H3419 H 0.71973 0.20604 0.07055
 H3420 H 0.69095 0.21866 0.06389
 H3421 H 0.69389 0.23967 0.04922
 H3422 H 0.70552 0.25159 0.03005
 H3423 H 0.73769 0.21963 0.02965
 H3424 H 0.72598 0.20763 0.04852
 C3425 C 0.18603 0.70243 0.10640
 C3426 C 0.19201 0.70880 0.09486
 C3427 C 0.20205 0.70174 0.08685
 C3428 C 0.20618 0.68815 0.09081
 C3429 C 0.20019 0.68177 0.10241
 C3430 C 0.19000 0.68882 0.11031
 C3431 C 0.20808 0.70917 0.07479
 C3432 C 0.21491 0.70289 0.06436
 C3433 C 0.22074 0.71078 0.05251
 C3434 C 0.23257 0.70548 0.04562
 C3435 C 0.23864 0.71291 0.03470
 C3436 C 0.23287 0.72574 0.03036
 C3437 C 0.22073 0.73080 0.03695
 C3438 C 0.21469 0.72339 0.04786
 H3439 H 0.17840 0.70831 0.11231
 H3440 H 0.18873 0.71931 0.09214
 H3441 H 0.21416 0.68245 0.08518
 H3442 H 0.20353 0.67129 0.10511
 H3443 H 0.20667 0.72041 0.07454
 H3444 H 0.21668 0.69171 0.06452
 H3445 H 0.23731 0.69570 0.04888
 H3446 H 0.24794 0.70868 0.02978
 H3447 H 0.21593 0.74056 0.03374
 H3448 H 0.20523 0.72753 0.05253
 C3449 C 0.18594 0.20188 0.60588
 C3450 C 0.19205 0.20824 0.59437
 C3451 C 0.20295 0.20164 0.58708
 C3452 C 0.20774 0.18849 0.59173
 C3453 C 0.20161 0.18211 0.60329
 C3454 C 0.19061 0.18871 0.61051
 C3455 C 0.20911 0.20910 0.57503
 C3456 C 0.21731 0.20312 0.56539
 C3457 C 0.22322 0.21097 0.55348
 C3458 C 0.23562 0.20609 0.54725
 C3459 C 0.24163 0.21330 0.53614
 C3460 C 0.23527 0.22549 0.53091
 C3461 C 0.22265 0.23017 0.53690
 C3462 C 0.21666 0.22298 0.54801
 H3463 H 0.17762 0.20742 0.61118
 H3464 H 0.18820 0.21840 0.59113
 H3465 H 0.21633 0.18312 0.58670
 H3466 H 0.20554 0.17199 0.60652
 H3467 H 0.20662 0.22011 0.57414
 H3468 H 0.22015 0.19220 0.56625
 H3469 H 0.24080 0.19678 0.55114
 H3470 H 0.25132 0.20937 0.53173
 H3471 H 0.21739 0.23944 0.53303
 H3472 H 0.20681 0.22679 0.55212
   
