data_POSCAR
  _audit_creation_date              2014-09-24
  _audit_creation_method            'ToBaCCo'
  _symmetry_space_group_name_H-M    'P1'
  _symmetry_Int_Tables_number       1
  _symmetry_cell_setting            triclinic
  loop_
  _symmetry_equiv_pos_as_xyz
 x,y,z
_cell_length_a 50.5957
_cell_length_b 52.1710
_cell_length_c 51.5142
_cell_angle_alpha 91.100200
_cell_angle_beta 90.042300
_cell_angle_gamma 89.837900
loop_
  _atom_site_label
  _atom_site_type_symbol
  _atom_site_fract_x
  _atom_site_fract_y
  _atom_site_fract_z
N1 N 0.20144 0.19406 0.22951
 N2 N 0.20864 0.17167 0.23852
 C3 C 0.19137 0.16437 0.25668
 C4 C 0.17245 0.18327 0.25960
 C5 C 0.17945 0.20204 0.24220
 H6 H 0.19227 0.14635 0.26669
 H7 H 0.16865 0.21942 0.23811
 Cu8 Cu 0.23944 0.15330 0.22566
 Cu9 Cu 0.22052 0.20930 0.20042
 Cu10 Cu 0.25327 0.16268 0.16343
 N11 N 0.26426 0.13130 0.20717
 N12 N 0.26937 0.13485 0.18250
 C13 C 0.28640 0.11671 0.17403
 C14 C 0.29239 0.10106 0.19459
 C15 C 0.27798 0.11084 0.21536
 H16 H 0.29396 0.11520 0.15442
 H17 H 0.27744 0.10359 0.23487
 N18 N 0.24512 0.19716 0.15074
 N19 N 0.23344 0.21537 0.16478
 C20 C 0.23329 0.23722 0.15111
 C21 C 0.24577 0.23238 0.12755
 C22 C 0.25287 0.20686 0.12804
 H23 H 0.22556 0.25542 0.15812
 H24 H 0.26388 0.19629 0.11337
 H25 H 0.22127 0.17317 0.18701
 H26 H 0.25449 0.18604 0.19587
 N27 N 0.69010 0.73843 0.73855
 N28 N 0.68690 0.71714 0.75141
 C29 C 0.67011 0.72156 0.77126
 C30 C 0.66259 0.74703 0.77084
 C31 C 0.67567 0.75720 0.74992
 H32 H 0.66353 0.70724 0.78470
 H33 H 0.67371 0.77643 0.74269
 Cu34 Cu 0.70455 0.68559 0.74089
 Cu35 Cu 0.70945 0.73928 0.70601
 Cu36 Cu 0.74366 0.68417 0.68823
 N37 N 0.73162 0.65951 0.73596
 N38 N 0.74751 0.65932 0.71578
 C39 C 0.76400 0.63909 0.71728
 C40 C 0.75797 0.62592 0.73957
 C41 C 0.73734 0.63939 0.75094
 H42 H 0.77872 0.63393 0.70287
 H43 H 0.72711 0.63484 0.76868
 N44 N 0.74247 0.71484 0.66647
 N45 N 0.72972 0.73596 0.67352
 C46 C 0.73077 0.75274 0.65404
 C47 C 0.74484 0.74168 0.63379
 C48 C 0.75211 0.71770 0.64232
 H49 H 0.72103 0.77121 0.65409
 H50 H 0.76269 0.70307 0.63137
 H51 H 0.70702 0.70096 0.69631
 H52 H 0.73593 0.71089 0.71668
 N53 N 0.33508 0.78817 0.70630
 N54 N 0.33320 0.80568 0.72489
 C55 C 0.35296 0.80228 0.74204
 C56 C 0.36795 0.78153 0.73361
 C57 C 0.35611 0.77310 0.71084
 H58 H 0.35616 0.81393 0.75934
 H59 H 0.36214 0.75712 0.69853
 Cu60 Cu 0.30523 0.83128 0.72435
 Cu61 Cu 0.31031 0.78639 0.67745
 Cu62 Cu 0.25201 0.82050 0.68703
 N63 N 0.27849 0.85759 0.71959
 N64 N 0.25736 0.85322 0.70530
 C65 C 0.24138 0.87390 0.70662
 C66 C 0.25330 0.89224 0.72250
 C67 C 0.27685 0.88125 0.73030
 H68 H 0.22243 0.87529 0.69700
 H69 H 0.29146 0.88957 0.74325
 N70 N 0.25560 0.79241 0.66110
 N71 N 0.27808 0.78009 0.65700
 C72 C 0.27453 0.76228 0.63812
 C73 C 0.24860 0.76349 0.62985
 C74 C 0.23712 0.78283 0.64477
 H75 H 0.28962 0.74914 0.63117
 H76 H 0.21687 0.78945 0.64382
 H77 H 0.29096 0.82197 0.67993
 H78 H 0.28107 0.79639 0.70278
 N79 N 0.85185 0.28094 0.24890
 N80 N 0.84219 0.30213 0.25938
 C81 C 0.85633 0.30847 0.28067
 C82 C 0.87616 0.29041 0.28350
 C83 C 0.87284 0.27326 0.26289
 H84 H 0.85261 0.32511 0.29297
 H85 H 0.88448 0.25630 0.25856
 Cu86 Cu 0.81269 0.31977 0.24345
 Cu87 Cu 0.83625 0.26522 0.21785
 Cu88 Cu 0.77281 0.28688 0.20332
 N89 N 0.78479 0.33675 0.22438
 N90 N 0.76781 0.32351 0.21022
 C91 C 0.74886 0.33943 0.20157
 C92 C 0.75492 0.36396 0.21018
 C93 C 0.77784 0.36164 0.22446
 H94 H 0.73236 0.33369 0.18944
 H95 H 0.78817 0.37683 0.23479
 N96 N 0.78795 0.25484 0.18861
 N97 N 0.81215 0.24692 0.19388
 C98 C 0.81724 0.22545 0.17990
 C99 C 0.79537 0.21976 0.16482
 C100 C 0.77713 0.23877 0.17079
 H101 H 0.83580 0.21515 0.18009
 H102 H 0.75778 0.24118 0.16222
 H103 H 0.81199 0.29436 0.20340
 H104 H 0.80030 0.27575 0.23171
 N105 N 0.83991 0.71682 0.28043
 N106 N 0.84544 0.69254 0.28416
 C107 C 0.86712 0.68594 0.27057
 C108 C 0.87569 0.70714 0.25738
 C109 C 0.85803 0.72653 0.26412
 H110 H 0.87509 0.66671 0.26926
 H111 H 0.85798 0.74596 0.25717
 Cu112 Cu 0.82177 0.67044 0.30271
 Cu113 Cu 0.80942 0.73337 0.29726
 Cu114 Cu 0.76569 0.69298 0.32850
 N115 N 0.79188 0.64820 0.30865
 N116 N 0.76927 0.65709 0.31759
 C117 C 0.75118 0.63814 0.31659
 C118 C 0.76328 0.61633 0.30636
 C119 C 0.78910 0.62341 0.30173
 H120 H 0.73059 0.64039 0.32184
 H121 H 0.80435 0.61195 0.29243
 N122 N 0.76202 0.73055 0.32942
 N123 N 0.77788 0.74588 0.31655
 C124 C 0.77120 0.77038 0.32221
 C125 C 0.75047 0.77038 0.33967
 C126 C 0.74512 0.74485 0.34381
 H127 H 0.78192 0.78698 0.31575
 H128 H 0.73078 0.73728 0.35717
 H129 H 0.80429 0.70772 0.32665
 H130 H 0.78631 0.70081 0.29566
 N131 N 0.30818 0.25044 -0.24588
 N132 N 0.29814 0.22860 -0.25426
 C133 C 0.31188 0.22015 -0.27510
 C134 C 0.33175 0.23758 -0.27996
 C135 C 0.32881 0.25662 -0.26105
 H136 H 0.30783 0.20251 -0.28569
 H137 H 0.34090 0.27352 -0.25834
 Cu138 Cu 0.26858 0.21269 -0.23689
 Cu139 Cu 0.29414 0.26850 -0.21535
 Cu140 Cu 0.23639 0.24464 -0.18902
 N141 N 0.23363 0.20252 -0.22568
 N142 N 0.22084 0.21514 -0.20724
 C143 C 0.19719 0.20393 -0.20361
 C144 C 0.19525 0.18315 -0.22061
 C145 C 0.21871 0.18283 -0.23429
 H146 H 0.18270 0.21015 -0.18939
 H147 H 0.22449 0.16926 -0.24940
 N148 N 0.25542 0.27435 -0.17377
 N149 N 0.27695 0.28384 -0.18437
 C150 C 0.28525 0.30400 -0.16989
 C151 C 0.26833 0.30722 -0.14906
 C152 C 0.24965 0.28810 -0.15203
 H153 H 0.30273 0.31513 -0.17380
 H154 H 0.23315 0.28449 -0.13929
 H155 H 0.27586 0.23807 -0.19732
 H156 H 0.25603 0.25547 -0.22214
 N157 N 0.64080 0.31476 -0.19542
 N158 N 0.65185 0.32278 -0.21686
 C159 C 0.63451 0.31978 -0.23663
 C160 C 0.61164 0.30889 -0.22683
 C161 C 0.61635 0.30623 -0.20063
 H162 H 0.63868 0.32411 -0.25666
 H163 H 0.60347 0.29780 -0.18641
 Cu164 Cu 0.68874 0.33433 -0.21657
 Cu165 Cu 0.65975 0.31328 -0.16289
 Cu166 Cu 0.72420 0.30145 -0.16983
 N167 N 0.72768 0.33295 -0.21612
 N168 N 0.74101 0.31937 -0.19908
 C169 C 0.76703 0.32291 -0.20291
 C170 C 0.77024 0.33971 -0.22307
 C171 C 0.74489 0.34573 -0.23104
 H172 H 0.78245 0.31527 -0.19072
 H173 H 0.73937 0.35907 -0.24593
 N174 N 0.70544 0.29389 -0.13770
 N175 N 0.68038 0.29993 -0.13469
 C176 C 0.67167 0.29097 -0.11201
 C177 C 0.69225 0.27823 -0.10021
 C178 C 0.71351 0.28054 -0.11697
 H179 H 0.65127 0.29166 -0.10580
 H180 H 0.73282 0.27184 -0.11504
 H181 H 0.70075 0.33282 -0.17705
 H182 H 0.69290 0.30274 -0.19567
 N183 N 0.16964 0.77223 0.23474
 N184 N 0.18636 0.78709 0.22262
 C185 C 0.17485 0.79568 0.20084
 C186 C 0.14964 0.78554 0.19934
 C187 C 0.14698 0.77081 0.22117
 H188 H 0.18409 0.80831 0.18717
 H189 H 0.12979 0.76003 0.22692
 Cu190 Cu 0.22140 0.79376 0.23682
 Cu191 Cu 0.17792 0.75674 0.26783
 Cu192 Cu 0.24483 0.75344 0.28094
 N193 N 0.25438 0.80084 0.25519
 N194 N 0.26372 0.78438 0.27192
 C195 C 0.28635 0.79340 0.28212
 C196 C 0.29139 0.81703 0.27154
 C197 C 0.27079 0.82114 0.25430
 H198 H 0.29767 0.78376 0.29686
 H199 H 0.26760 0.83783 0.24255
 N200 N 0.21859 0.73219 0.29835
 N201 N 0.19293 0.73421 0.29428
 C202 C 0.18006 0.71969 0.31150
 C203 C 0.19862 0.70828 0.32728
 C204 C 0.22281 0.71649 0.31832
 H205 H 0.15881 0.71847 0.31317
 H206 H 0.24198 0.71262 0.32669
 H207 H 0.21230 0.77593 0.27916
 H208 H 0.21423 0.75054 0.25318
 N209 N 0.47872 0.45918 0.50361
 N210 N 0.46970 0.47779 0.51874
 C211 C 0.46768 0.46936 0.54316
 C212 C 0.47575 0.44402 0.54328
 C213 C 0.48255 0.43812 0.51785
 H214 H 0.46040 0.48065 0.55947
 H215 H 0.48960 0.41989 0.51021
 Cu216 Cu 0.46001 0.51072 0.50474
 Cu217 Cu 0.48386 0.46371 0.46648
 Cu218 Cu 0.48349 0.52698 0.44669
 N219 N 0.44566 0.53970 0.48630
 N220 N 0.45557 0.54682 0.46400
 C221 C 0.44204 0.56734 0.45561
 C222 C 0.42233 0.57296 0.47345
 C223 C 0.42521 0.55507 0.49268
 H224 H 0.44542 0.57658 0.43729
 H225 H 0.41302 0.55304 0.50976
 N226 N 0.49974 0.49894 0.42614
 N227 N 0.49858 0.47472 0.43306
 C228 C 0.51005 0.45997 0.41454
 C229 C 0.51887 0.47566 0.39508
 C230 C 0.51208 0.50027 0.40305
 H231 H 0.51224 0.43939 0.41539
 H232 H 0.51547 0.51777 0.39265
 H233 H 0.49581 0.50009 0.47447
 H234 H 0.46247 0.49702 0.45930
 N235 N -0.05593 -0.07413 0.97642
 N236 N -0.07652 -0.06153 0.98562
 C237 C -0.08479 -0.07264 1.00752
 C238 C -0.06862 -0.09342 1.01216
 C239 C -0.05052 -0.09388 0.99203
 H240 H -0.10150 -0.06625 1.01903
 H241 H -0.03467 -0.10755 0.98889
 Cu242 Cu -0.09145 -0.03264 0.96744
 Cu243 Cu -0.03848 -0.06420 0.94443
 Cu244 Cu -0.05181 -0.00158 0.92657
 N245 N -0.10279 -0.00152 0.95067
 N246 N -0.08729 0.01065 0.93461
 C247 C -0.09933 0.03238 0.92720
 C248 C -0.12367 0.03379 0.93934
 C249 C -0.12523 0.01199 0.95405
 H250 H -0.09063 0.04646 0.91468
 H251 H -0.14114 0.00680 0.96690
 N252 N -0.02166 -0.02158 0.91288
 N253 N -0.01685 -0.04552 0.91932
 C254 C 0.00451 -0.05407 0.90617
 C255 C 0.01337 -0.03462 0.89057
 C256 C -0.00366 -0.01433 0.89527
 H257 H 0.01279 -0.07311 0.90764
 H258 H -0.00323 0.00420 0.88623
 H259 H -0.04490 -0.02763 0.95638
 H260 H -0.06520 -0.03816 0.92788
 N261 N 1.00598 0.58498 0.96833
 N262 N 1.02179 0.58260 0.98843
 C263 C 1.01916 0.60346 1.00409
 C264 C 1.00071 0.61963 0.99316
 C265 C 0.99274 0.60730 0.97053
 H266 H 1.02972 0.60665 1.02211
 H267 H 0.97843 0.61409 0.95665
 Cu268 Cu 1.04408 0.55236 0.99199
 Cu269 Cu 1.00387 0.55929 0.94050
 Cu270 Cu 1.04361 0.50552 0.94627
 N271 N 1.06538 0.52145 0.99553
 N272 N 1.06536 0.50344 0.97731
 C273 C 1.08221 0.48469 0.98396
 C274 C 1.09335 0.49123 1.00764
 C275 C 1.08223 0.51464 1.01449
 H276 H 1.08624 0.46765 0.97234
 H277 H 1.08652 0.52605 1.03171
 N278 N 1.02017 0.51101 0.91637
 N279 N 1.00465 0.53125 0.91434
 C280 C 0.99066 0.52908 0.89212
 C281 C 0.99786 0.50647 0.87963
 C282 C 1.01659 0.49551 0.89548
 H283 H 0.97635 0.54290 0.88545
 H284 H 1.02664 0.47745 0.89214
 H285 H 1.01466 0.52856 0.96290
 H286 H 1.04165 0.54512 0.94512
 N287 N 0.51434 0.10083 0.51126
 N288 N 0.53680 0.09711 0.52350
 C289 C 0.54564 0.11989 0.53287
 C290 C 0.52785 0.13864 0.52549
 C291 C 0.50832 0.12589 0.51191
 H292 H 0.56394 0.12270 0.54341
 H293 H 0.49097 0.13423 0.50310
 Cu294 Cu 0.55229 0.06274 0.52432
 Cu295 Cu 0.49447 0.07299 0.49531
 Cu296 Cu 0.53502 0.02356 0.47423
 N297 N 0.56881 0.02924 0.51895
 N298 N 0.56252 0.01432 0.49900
 C299 C 0.57764 -0.00696 0.49930
 C300 C 0.59399 -0.00545 0.52079
 C301 C 0.58788 0.01776 0.53283
 H302 H 0.57659 -0.02247 0.48511
 H303 H 0.59689 0.02583 0.55017
 N304 N 0.49986 0.03042 0.45895
 N305 N 0.48390 0.04831 0.46842
 C306 C 0.46133 0.04839 0.45472
 C307 C 0.46316 0.02980 0.43544
 C308 C 0.48781 0.01865 0.43863
 H309 H 0.44537 0.06194 0.45778
 H310 H 0.49643 0.00340 0.42687
 H311 H 0.51542 0.03918 0.50467
 H312 H 0.53054 0.06252 0.48204
 N313 N -0.00928 0.03826 0.48614
 N314 N -0.02152 0.02453 0.46818
 C315 C -0.02258 0.03758 0.44605
 C316 C -0.01059 0.06096 0.45013
 C317 C -0.00201 0.06079 0.47576
 H318 H -0.03331 0.03131 0.42893
 H319 H 0.00695 0.07651 0.48651
 Cu320 Cu -0.04109 -0.00584 0.47620
 Cu321 Cu -0.00695 0.02633 0.52214
 Cu322 Cu -0.04708 -0.02574 0.53663
 N323 N -0.07069 -0.02659 0.48624
 N324 N -0.07367 -0.03397 0.51028
 C325 C -0.09702 -0.04619 0.51234
 C326 C -0.10928 -0.04595 0.48827
 C327 C -0.09196 -0.03348 0.47220
 H328 H -0.10491 -0.05367 0.53016
 H329 H -0.09498 -0.02877 0.45206
 N330 N -0.02347 -0.00908 0.56221
 N331 N -0.00786 0.01044 0.55698
 C332 C 0.00675 0.01607 0.57832
 C333 C -0.00024 -0.00066 0.59773
 C334 C -0.01946 -0.01617 0.58681
 H335 H 0.02170 0.03082 0.57952
 H336 H -0.02930 -0.03201 0.59589
 H337 H -0.01476 -0.01188 0.51548
 H338 H -0.04381 0.00965 0.52066
 N339 N 0.48194 0.58203 -0.00323
 N340 N 0.46522 0.56753 -0.01632
 C341 C 0.46301 0.57612 -0.04064
 C342 C 0.47895 0.59742 -0.04284
 C343 C 0.49066 0.60075 -0.01871
 H344 H 0.44978 0.56823 -0.05521
 H345 H 0.50414 0.61580 -0.01275
 Cu346 Cu 0.44545 0.54090 0.00049
 Cu347 Cu 0.48974 0.57581 0.03323
 Cu348 Cu 0.46466 0.51916 0.05812
 N349 N 0.42159 0.52192 0.02228
 N350 N 0.42930 0.51197 0.04430
 C351 C 0.40880 0.49937 0.05488
 C352 C 0.38714 0.50230 0.03876
 C353 C 0.39591 0.51675 0.01841
 H354 H 0.40923 0.49011 0.07349
 H355 H 0.38437 0.52327 0.00210
 N356 N 0.49381 0.53848 0.07469
 N357 N 0.50268 0.56035 0.06558
 C358 C 0.52241 0.56890 0.08092
 C359 C 0.52609 0.55171 0.10065
 C360 C 0.50761 0.53263 0.09618
 H361 H 0.53364 0.58613 0.07762
 H362 H 0.50453 0.51571 0.10758
 H363 H 0.48491 0.53720 0.02751
 H364 H 0.45730 0.55422 0.04456
 N365 N 0.50888 -0.08960 0.03315
 N366 N 0.52408 -0.08280 0.01379
 C367 C 0.51904 -0.09813 -0.00696
 C368 C 0.49941 -0.11521 -0.00017
 C369 C 0.49333 -0.10913 0.02535
 H370 H 0.52917 -0.09724 -0.02539
 H371 H 0.47945 -0.11883 0.03771
 Cu372 Cu 0.54935 -0.05498 0.01825
 Cu373 Cu 0.51187 -0.07387 0.06757
 Cu374 Cu 0.57244 -0.04468 0.07845
 N375 N 0.57285 -0.02641 0.02630
 N376 N 0.58366 -0.02387 0.04944
 C377 C 0.60004 -0.00360 0.04966
 C378 C 0.59876 0.00759 0.02563
 C379 C 0.58128 -0.00726 0.01124
 H380 H 0.61074 0.00343 0.06653
 H381 H 0.57512 -0.00432 -0.00860
 N382 N 0.54926 -0.05603 0.10669
 N383 N 0.52573 -0.06613 0.10242
 C384 C 0.51327 -0.06890 0.12520
 C385 C 0.52960 -0.05981 0.14477
 C386 C 0.55233 -0.05188 0.13241
 H387 H 0.49329 -0.07589 0.12724
 H388 H 0.56909 -0.04228 0.14123
 H389 H 0.53632 -0.04210 0.06205
 H390 H 0.55109 -0.07492 0.06084
 N391 N 1.04619 0.39125 0.52891
 N392 N 1.06550 0.39501 0.51237
 C393 C 1.06786 0.37426 0.49655
 C394 C 1.04924 0.35651 0.50395
 C395 C 1.03591 0.36783 0.52459
 H396 H 1.08241 0.37197 0.48130
 H397 H 1.01976 0.35981 0.53550
 Cu398 Cu 1.08688 0.42576 0.51510
 Cu399 Cu 1.03583 0.41713 0.55472
 Cu400 Cu 1.05829 0.47825 0.54070
 N401 N 1.10554 0.45813 0.51708
 N402 N 1.09443 0.47878 0.52732
 C403 C 1.11150 0.49850 0.52598
 C404 C 1.13451 0.48954 0.51442
 C405 C 1.13003 0.46389 0.50902
 H406 H 1.10736 0.51787 0.53269
 H407 H 1.14352 0.45045 0.49979
 N408 N 1.02741 0.47186 0.56305
 N409 N 1.01972 0.44860 0.56926
 C410 C 0.99875 0.45043 0.58523
 C411 C 0.99290 0.47607 0.58920
 C412 C 1.01146 0.48916 0.57491
 H413 H 0.98824 0.43428 0.59301
 H414 H 1.01339 0.50971 0.57347
 H415 H 1.04370 0.44297 0.52693
 H416 H 1.06719 0.44358 0.55486
 C417 C 0.44951 -0.02127 0.25467
 H418 H 0.44672 -0.00388 0.26613
 C419 C 0.47289 -0.02506 0.24073
 H420 H 0.48794 -0.01036 0.24140
 C421 C 0.43257 -0.06094 0.23889
 H422 H 0.41677 -0.07478 0.23808
 C423 C 0.45546 -0.06532 0.22438
 H424 H 0.45706 -0.08262 0.21252
 N425 N 0.42980 -0.03892 0.25319
 C426 C 0.35318 -0.00098 0.25749
 H427 H 0.34463 -0.00916 0.27470
 C428 C 0.33885 0.01689 0.24326
 H429 H 0.31921 0.02235 0.24961
 C430 C 0.38910 0.00160 0.22818
 H431 H 0.40870 -0.00433 0.22234
 C432 C 0.37538 0.01926 0.21325
 H433 H 0.38487 0.02694 0.19628
 Zn434 Zn 0.39767 -0.03120 0.27026
 N435 N 0.37804 -0.00785 0.25006
 C436 C 0.39420 0.00555 0.31155
 N437 N 0.40598 -0.01656 0.30320
 C438 C 0.42429 -0.02861 0.31803
 C439 C 0.43075 -0.01891 0.34266
 C440 C 0.39993 0.01581 0.33609
 C441 C 0.36498 -0.07199 0.25336
 C442 C 0.35127 -0.09509 0.25559
 C443 C 0.36330 -0.09568 0.30096
 C444 C 0.37643 -0.07250 0.29796
 N445 N 0.37760 -0.06145 0.27431
 H446 H 0.38026 0.01528 0.29930
 H447 H 0.43368 -0.04597 0.31076
 H448 H 0.44502 -0.02903 0.35435
 H449 H 0.39033 0.03345 0.34226
 H450 H 0.36599 -0.06267 0.23481
 H451 H 0.34186 -0.10358 0.23863
 H452 H 0.36289 -0.10428 0.31992
 H453 H 0.38603 -0.06365 0.31452
 C454 C 0.35004 0.02733 0.22088
 C455 C 0.47577 -0.04706 0.22490
 C456 C 0.35084 -0.10743 0.27955
 C457 C 0.41824 0.00343 0.35208
 C458 C 0.08438 -0.01105 0.71359
 H459 H 0.09034 -0.02610 0.72644
 C460 C 0.06565 -0.01621 0.69440
 H461 H 0.05756 -0.03535 0.69269
 C462 C 0.08802 0.03195 0.70012
 H463 H 0.09672 0.05074 0.70256
 C464 C 0.06940 0.02752 0.68036
 H465 H 0.06371 0.04303 0.66784
 N466 N 0.09484 0.01280 0.71647
 C467 C 0.16591 -0.00283 0.76112
 H468 H 0.16147 0.00821 0.77858
 C469 C 0.18847 -0.01820 0.76006
 H470 H 0.20123 -0.01892 0.77690
 C471 C 0.15385 -0.01592 0.71842
 H472 H 0.14022 -0.01499 0.70231
 C473 C 0.17607 -0.03189 0.71667
 H474 H 0.17948 -0.04306 0.69906
 Zn475 Zn 0.11810 0.01804 0.74508
 N476 N 0.14918 -0.00189 0.74049
 C477 C 0.08839 0.02117 0.79289
 N478 N 0.10137 0.00566 0.77555
 C479 C 0.10304 -0.02005 0.77924
 C480 C 0.09100 -0.03118 0.80057
 C481 C 0.07591 0.01078 0.81449
 C482 C 0.15332 0.05997 0.74850
 C483 C 0.16110 0.08514 0.75393
 C484 C 0.11523 0.09686 0.75917
 C485 C 0.10829 0.07143 0.75343
 N486 N 0.12734 0.05336 0.74914
 H487 H 0.08750 0.04156 0.79009
 H488 H 0.11373 -0.03207 0.76550
 H489 H 0.09224 -0.05174 0.80259
 H490 H 0.06563 0.02345 0.82797
 H491 H 0.16823 0.04567 0.74426
 H492 H 0.18198 0.08958 0.75418
 H493 H 0.09977 0.11079 0.76303
 H494 H 0.08768 0.06602 0.75285
 C495 C 0.19367 -0.03313 0.73771
 C496 C 0.05759 0.00328 0.67775
 C497 C 0.14200 0.10386 0.76000
 C498 C 0.07703 -0.01576 0.81847
 C499 C 0.59284 0.49824 0.20581
 H500 H 0.58895 0.47867 0.21121
 C501 C 0.57934 0.50894 0.18491
 H502 H 0.56519 0.49728 0.17431
 C503 C 0.61648 0.53684 0.21298
 H504 H 0.63083 0.54775 0.22407
 C505 C 0.60337 0.54832 0.19239
 H506 H 0.60789 0.56804 0.18823
 N507 N 0.61136 0.51212 0.21902
 C508 C 0.66558 0.45612 0.25125
 H509 H 0.66441 0.46156 0.27159
 C510 C 0.68422 0.43800 0.24299
 H511 H 0.69726 0.42933 0.25703
 C512 C 0.65183 0.46259 0.20782
 H513 H 0.63997 0.47300 0.19411
 C514 C 0.67061 0.44488 0.19869
 H515 H 0.67296 0.44153 0.17800
 Zn516 Zn 0.63044 0.49682 0.24629
 N517 N 0.64998 0.46814 0.23370
 C518 C 0.60476 0.46227 0.27958
 N519 N 0.60658 0.48722 0.27270
 C520 C 0.59143 0.50562 0.28444
 C521 C 0.57450 0.49936 0.30478
 C522 C 0.58816 0.45517 0.29980
 C523 C 0.67720 0.52304 0.24299
 C524 C 0.69906 0.53727 0.25095
 C525 C 0.67712 0.54642 0.29174
 C526 C 0.65580 0.53134 0.28323
 N527 N 0.65631 0.51997 0.25920
 H528 H 0.61632 0.44775 0.26956
 H529 H 0.59279 0.52526 0.27820
 H530 H 0.56285 0.51439 0.31397
 H531 H 0.58784 0.43528 0.30526
 H532 H 0.67715 0.51376 0.22404
 H533 H 0.71573 0.53905 0.23792
 H534 H 0.67678 0.55511 0.31099
 H535 H 0.63923 0.52838 0.29601
 C536 C 0.68717 0.43272 0.21643
 C537 C 0.58478 0.53426 0.17771
 C538 C 0.69927 0.54895 0.27564
 C539 C 0.57292 0.47385 0.31294
 C540 C 0.90700 0.46408 0.69310
 H541 H 0.90803 0.44689 0.70446
 C542 C 0.92207 0.46584 0.67051
 H543 H 0.93483 0.44997 0.66506
 C544 C 0.88938 0.50555 0.68691
 H545 H 0.87657 0.52101 0.69310
 C546 C 0.90406 0.50811 0.66416
 H547 H 0.90210 0.52556 0.65332
 N548 N 0.89207 0.48428 0.70158
 C549 C 0.82690 0.50246 0.74851
 H550 H 0.82166 0.48262 0.75095
 C551 C 0.80775 0.52142 0.75258
 H552 H 0.78783 0.51587 0.75765
 C553 C 0.85915 0.53392 0.73962
 H554 H 0.87944 0.53869 0.73527
 C555 C 0.84044 0.55346 0.74290
 H556 H 0.84639 0.57324 0.74079
 Zn557 Zn 0.87777 0.48274 0.73577
 N558 N 0.85196 0.50890 0.74166
 C559 C 0.90148 0.50158 0.78230
 N560 N 0.90562 0.48722 0.76034
 C561 C 0.92880 0.47442 0.75650
 C562 C 0.94861 0.47526 0.77529
 C563 C 0.92084 0.50293 0.80169
 C564 C 0.84215 0.44170 0.72519
 C565 C 0.82967 0.41834 0.73003
 C566 C 0.86027 0.41168 0.76528
 C567 C 0.87172 0.43531 0.76018
 N568 N 0.86244 0.44994 0.74057
 H569 H 0.88281 0.51131 0.78525
 H570 H 0.93181 0.46292 0.73917
 H571 H 0.96675 0.46479 0.77166
 H572 H 0.91679 0.51385 0.81932
 H573 H 0.83519 0.45363 0.70964
 H574 H 0.81314 0.41227 0.71807
 H575 H 0.86762 0.40072 0.78140
 H576 H 0.88771 0.44213 0.77232
 C577 C 0.81436 0.54723 0.74937
 C578 C 0.92152 0.48851 0.65623
 C579 C 0.83875 0.40309 0.75037
 C580 C 0.94461 0.48925 0.79849
 C581 C 0.20542 0.40999 0.04893
 H582 H 0.21836 0.40705 0.06534
 C583 C 0.18326 0.42582 0.05167
 H584 H 0.17907 0.43428 0.07054
 C585 C 0.19621 0.40321 0.00426
 H586 H 0.20187 0.39522 -0.01442
 C587 C 0.17392 0.41900 0.00610
 H588 H 0.16265 0.42251 -0.01131
 N589 N 0.21167 0.39936 0.02542
 C590 C 0.27138 0.34093 0.04048
 H591 H 0.28664 0.34737 0.02744
 C592 C 0.27468 0.31807 0.05370
 H593 H 0.29281 0.30730 0.05099
 C594 C 0.22906 0.34710 0.05928
 H595 H 0.21104 0.35816 0.06089
 C596 C 0.23163 0.32436 0.07308
 H597 H 0.21551 0.31816 0.08523
 Zn598 Zn 0.24534 0.38376 0.02192
 N599 N 0.24879 0.35482 0.04328
 C600 C 0.29098 0.40636 0.04728
 N601 N 0.27012 0.40957 0.03094
 C602 C 0.26564 0.43233 0.01932
 C603 C 0.28261 0.45291 0.02353
 C604 C 0.30879 0.42651 0.05181
 C605 C 0.23590 0.35472 -0.02446
 C606 C 0.24073 0.34640 -0.05004
 C607 C 0.27803 0.37506 -0.05134
 C608 C 0.27245 0.38287 -0.02590
 N609 N 0.25153 0.37289 -0.01303
 H610 H 0.29407 0.38817 0.05651
 H611 H 0.24898 0.43432 0.00633
 H612 H 0.27887 0.47053 0.01341
 H613 H 0.32553 0.42368 0.06456
 H614 H 0.21961 0.34675 -0.01369
 H615 H 0.22785 0.33216 -0.05881
 H616 H 0.29508 0.38319 -0.06070
 H617 H 0.28517 0.39671 -0.01636
 C618 C 0.25449 0.30931 0.06994
 C619 C 0.16755 0.43113 0.02991
 C620 C 0.26203 0.35669 -0.06392
 C621 C 0.30463 0.45015 0.03982
 C622 C 0.70747 0.08777 0.00528
 H623 H 0.72561 0.08068 -0.00312
 C624 C 0.68600 0.07117 0.00697
 H625 H 0.68797 0.05148 0.00017
 C626 C 0.68202 0.12195 0.02316
 H627 H 0.68030 0.14191 0.02887
 C628 C 0.65973 0.10621 0.02421
 H629 H 0.64110 0.11400 0.03109
 N630 N 0.70521 0.11276 0.01321
 C631 C 0.73895 0.18460 -0.01383
 H632 H 0.75857 0.18376 -0.00552
 C633 C 0.73084 0.20637 -0.02715
 H634 H 0.74422 0.22238 -0.02906
 C635 C 0.69753 0.16474 -0.02158
 H636 H 0.68484 0.14825 -0.02018
 C637 C 0.68839 0.18634 -0.03435
 H638 H 0.66859 0.18637 -0.04234
 Zn639 Zn 0.73401 0.13581 0.00781
 N640 N 0.72222 0.16443 -0.01114
 C641 C 0.76796 0.12644 -0.03544
 N642 N 0.76109 0.11860 -0.01133
 C643 C 0.77368 0.09860 -0.00006
 C644 C 0.79429 0.08593 -0.01287
 C645 C 0.78860 0.11432 -0.04895
 C646 C 0.73242 0.15963 0.05819
 C647 C 0.74311 0.16899 0.08160
 C648 C 0.78616 0.15487 0.06706
 C649 C 0.77476 0.14612 0.04393
 N650 N 0.74823 0.14809 0.04003
 H651 H 0.75754 0.14216 -0.04423
 H652 H 0.76791 0.09277 0.01916
 H653 H 0.80427 0.07047 -0.00314
 H654 H 0.79370 0.12085 -0.06810
 H655 H 0.71154 0.16179 0.05453
 H656 H 0.73023 0.17795 0.09590
 H657 H 0.80734 0.15322 0.06946
 H658 H 0.78740 0.13824 0.02894
 C659 C 0.70510 0.20747 -0.03712
 C660 C 0.66173 0.08057 0.01598
 C661 C 0.77030 0.16635 0.08632
 C662 C 0.80217 0.09387 -0.03757
 C663 C 0.22906 0.58832 0.47728
 H664 H 0.24055 0.59276 0.46025
 C665 C 0.21639 0.56475 0.47879
 H666 H 0.21811 0.55117 0.46272
 C667 C 0.21258 0.60107 0.51864
 H668 H 0.21133 0.61527 0.53414
 C669 C 0.19908 0.57780 0.52074
 H670 H 0.18752 0.57416 0.53795
 N671 N 0.22718 0.60580 0.49709
 C672 C 0.20504 0.65395 0.45801
 H673 H 0.19243 0.65045 0.47442
 C674 C 0.19381 0.66231 0.43489
 H675 H 0.17279 0.66607 0.43430
 C676 C 0.24739 0.65218 0.43864
 H677 H 0.26806 0.64729 0.43964
 C678 C 0.23702 0.66053 0.41517
 H679 H 0.25012 0.66233 0.39873
 Zn680 Zn 0.24514 0.63686 0.49146
 N681 N 0.23150 0.64956 0.45972
 C682 C 0.29871 0.64877 0.48031
 N683 N 0.28207 0.62995 0.48811
 C684 C 0.29135 0.60610 0.49335
 C685 C 0.31798 0.60010 0.48964
 C686 C 0.32547 0.64350 0.47604
 C687 C 0.21465 0.66884 0.52583
 C688 C 0.21073 0.68751 0.54530
 C689 C 0.25792 0.68930 0.55161
 C690 C 0.26092 0.67058 0.53213
 N691 N 0.23950 0.66102 0.51927
 H692 H 0.29104 0.66778 0.47684
 H693 H 0.27808 0.59155 0.50024
 H694 H 0.32469 0.58079 0.49327
 H695 H 0.33826 0.65862 0.46939
 H696 H 0.19774 0.66052 0.51617
 H697 H 0.19074 0.69322 0.55006
 H698 H 0.27546 0.69682 0.56099
 H699 H 0.28051 0.66388 0.52725
 C700 C 0.20990 0.66587 0.41310
 C701 C 0.20114 0.55929 0.50068
 C702 C 0.23258 0.69828 0.55830
 C703 C 0.33532 0.61879 0.48040
 C704 C 0.70183 0.89947 0.52955
 H705 H 0.72006 0.89681 0.54016
 C706 C 0.68396 0.91842 0.53760
 H707 H 0.68888 0.93009 0.55445
 C708 C 0.67457 0.88818 0.49376
 H709 H 0.67124 0.87656 0.47647
 C710 C 0.65610 0.90700 0.50111
 H711 H 0.63851 0.90939 0.48945
 N712 N 0.69706 0.88504 0.50783
 C713 C 0.75097 0.81970 0.51551
 H714 H 0.76287 0.82184 0.49825
 C715 C 0.75655 0.79995 0.53254
 H716 H 0.77298 0.78727 0.52824
 C717 C 0.71549 0.83414 0.54199
 H718 H 0.69940 0.84742 0.54551
 C719 C 0.72042 0.81463 0.55962
 H720 H 0.70787 0.81312 0.57651
 Zn721 Zn 0.72493 0.86325 0.49658
 N722 N 0.73084 0.83643 0.52050
 C723 C 0.77865 0.87793 0.50704
 N724 N 0.75569 0.88409 0.49477
 C725 C 0.75385 0.90572 0.48055
 C726 C 0.77605 0.92081 0.47634
 C727 C 0.80135 0.89266 0.50353
 C728 C 0.71864 0.82297 0.45898
 C729 C 0.71974 0.81233 0.43390
 C730 C 0.71671 0.85490 0.41678
 C731 C 0.71580 0.86472 0.44218
 N732 N 0.71819 0.84887 0.46272
 H733 H 0.77966 0.86145 0.51930
 H734 H 0.73510 0.91135 0.47245
 H735 H 0.77416 0.93767 0.46455
 H736 H 0.81965 0.88694 0.51268
 H737 H 0.71935 0.81044 0.47537
 H738 H 0.72166 0.79176 0.43168
 H739 H 0.71568 0.86813 0.40092
 H740 H 0.71412 0.88513 0.44532
 C741 C 0.74124 0.79721 0.55501
 C742 C 0.66087 0.92272 0.52312
 C743 C 0.72005 0.82844 0.41235
 C744 C 0.80032 0.91397 0.48738
 C745 C 0.03381 0.17698 0.39751
 H746 H 0.05416 0.18319 0.39883
 C747 C 0.02656 0.15307 0.40697
 H748 H 0.04143 0.14079 0.41539
 C749 C -0.01025 0.18519 0.38429
 H750 H -0.02452 0.19767 0.37534
 C751 C -0.01822 0.16129 0.39301
 H752 H -0.03871 0.15571 0.39086
 N753 N 0.01538 0.19259 0.38673
 C754 C 0.07661 0.23041 0.34875
 H755 H 0.08033 0.24609 0.36226
 C756 C 0.09650 0.22225 0.33149
 H757 H 0.11554 0.23167 0.33185
 C758 C 0.04786 0.19801 0.33262
 H759 H 0.02895 0.18843 0.33342
 C760 C 0.06723 0.18897 0.31556
 H761 H 0.06304 0.17249 0.30315
 Zn762 Zn 0.02615 0.22474 0.37394
 N763 N 0.05295 0.21803 0.34912
 C764 C 0.04318 0.27105 0.39798
 N765 N 0.03765 0.24593 0.40203
 C766 C 0.03631 0.23660 0.42647
 C767 C 0.03949 0.25282 0.44799
 C768 C 0.04642 0.28806 0.41910
 C769 C -0.00621 0.24226 0.33231
 C770 C -0.02845 0.25417 0.32174
 C771 C -0.04351 0.26437 0.36523
 C772 C -0.02129 0.25190 0.37496
 N773 N -0.00318 0.24119 0.35852
 H774 H 0.04356 0.27815 0.37839
 H775 H 0.03136 0.21682 0.42953
 H776 H 0.03773 0.24493 0.46718
 H777 H 0.04949 0.30821 0.41553
 H778 H 0.00849 0.23379 0.31958
 H779 H -0.03061 0.25490 0.30086
 H780 H -0.05776 0.27262 0.37866
 H781 H -0.01844 0.25070 0.39571
 C782 C 0.09202 0.20085 0.31516
 C783 C 0.00028 0.14496 0.40451
 C784 C -0.04735 0.26549 0.33832
 C785 C 0.04370 0.27905 0.44449
 C786 C -0.03770 0.73176 0.07371
 H787 H -0.05542 0.74245 0.07858
 C788 C -0.03831 0.71313 0.05396
 H789 H -0.05673 0.70948 0.04387
 C790 C 0.00768 0.72344 0.08145
 H791 H 0.02560 0.72769 0.09207
 C792 C 0.00785 0.70434 0.06201
 H793 H 0.02601 0.69406 0.05780
 N794 N -0.01499 0.73650 0.08705
 C795 C -0.04358 0.76479 0.16238
 H796 H -0.03747 0.78464 0.16284
 C797 C -0.05726 0.75472 0.18350
 H798 H -0.06177 0.76691 0.20017
 C799 C -0.04425 0.72435 0.14064
 H800 H -0.03882 0.71236 0.12417
 C801 C -0.05736 0.71345 0.16145
 H802 H -0.06229 0.69327 0.16047
 Zn803 Zn -0.01719 0.76216 0.11346
 N804 N -0.03756 0.74958 0.14141
 C805 C -0.05546 0.80223 0.10744
 N806 N -0.03297 0.79112 0.09813
 C807 C -0.02095 0.79991 0.07648
 C808 C -0.03086 0.82129 0.06387
 C809 C -0.06616 0.82367 0.09535
 C810 C 0.03032 0.75266 0.13977
 C811 C 0.05544 0.75804 0.14972
 C812 C 0.05233 0.80046 0.13199
 C813 C 0.02717 0.79438 0.12266
 N814 N 0.01685 0.77066 0.12630
 H815 H -0.06522 0.79449 0.12418
 H816 H -0.00336 0.79039 0.06918
 H817 H -0.02048 0.82799 0.04699
 H818 H -0.08403 0.83205 0.10326
 H819 H 0.02151 0.73407 0.14273
 H820 H 0.06595 0.74336 0.16016
 H821 H 0.06010 0.81947 0.12895
 H822 H 0.01595 0.80876 0.11265
 C823 C -0.06390 0.72862 0.18326
 C824 C -0.01538 0.69907 0.04797
 C825 C 0.06680 0.78215 0.14567
 C826 C -0.05369 0.83369 0.07334
 C827 C 0.49119 0.26070 0.58219
 H828 H 0.47541 0.27422 0.57864
 C829 C 0.49834 0.24292 0.56290
 H830 H 0.48771 0.24290 0.54467
 C831 C 0.52309 0.24369 0.61087
 H832 H 0.53253 0.24394 0.62969
 C833 C 0.53063 0.22527 0.59218
 H834 H 0.54596 0.21155 0.59675
 N835 N 0.50339 0.26068 0.60570
 C836 C 0.44888 0.28126 0.66777
 H837 H 0.46070 0.29483 0.67881
 C838 C 0.42528 0.27222 0.67826
 H839 H 0.41921 0.27918 0.69725
 C840 C 0.44343 0.25469 0.63042
 H841 H 0.45057 0.24759 0.61192
 C842 C 0.41970 0.24522 0.64011
 H843 H 0.40888 0.23131 0.62851
 Zn844 Zn 0.49090 0.28383 0.63184
 N845 N 0.45753 0.27243 0.64423
 C846 C 0.47376 0.33511 0.63281
 N847 N 0.48760 0.31741 0.61862
 C848 C 0.49934 0.32372 0.59587
 C849 C 0.49680 0.34849 0.58629
 C850 C 0.47076 0.36006 0.62400
 C851 C 0.51343 0.26560 0.67751
 C852 C 0.52871 0.26680 0.70002
 C853 C 0.54732 0.30668 0.68552
 C854 C 0.53137 0.30490 0.66340
 N855 N 0.51465 0.28473 0.66003
 H856 H 0.46491 0.32988 0.65100
 H857 H 0.51098 0.30967 0.58524
 H858 H 0.50641 0.35307 0.56822
 H859 H 0.45918 0.37353 0.63548
 H860 H 0.50001 0.24975 0.67426
 H861 H 0.52712 0.25161 0.71395
 H862 H 0.56003 0.32317 0.68830
 H863 H 0.53197 0.31986 0.64918
 C864 C 0.41041 0.25377 0.66448
 C865 C 0.51805 0.22467 0.56789
 C866 C 0.54560 0.28773 0.70440
 C867 C 0.48227 0.36703 0.60038
 C868 C 0.51093 0.71430 0.89965
 H869 H 0.52515 0.72744 0.90816
 C870 C 0.50773 0.68985 0.90993
 H871 H 0.51973 0.68424 0.92628
 C872 C 0.47794 0.70573 0.86804
 H873 H 0.46592 0.71204 0.85207
 C874 C 0.47422 0.68119 0.87756
 H875 H 0.45925 0.66913 0.86869
 N876 N 0.49630 0.72163 0.87888
 C877 C 0.53954 0.78063 0.83814
 H878 H 0.52427 0.79514 0.83720
 C879 C 0.56361 0.78434 0.82563
 H880 H 0.56647 0.80176 0.81497
 C881 C 0.55336 0.73972 0.85214
 H882 H 0.54908 0.72217 0.86208
 C883 C 0.57773 0.74260 0.83982
 H884 H 0.59213 0.72727 0.84079
 Zn885 Zn 0.50070 0.75483 0.86515
 N886 N 0.53488 0.75864 0.85107
 C887 C 0.51462 0.79614 0.89869
 N888 N 0.49505 0.77943 0.89209
 C889 C 0.47178 0.77930 0.90526
 C890 C 0.46734 0.79677 0.92571
 C891 C 0.51103 0.81391 0.91896
 C892 C 0.48214 0.74518 0.81547
 C893 C 0.46532 0.74605 0.79408
 C894 C 0.43786 0.77641 0.81766
 C895 C 0.45537 0.77507 0.83864
 N896 N 0.47672 0.75920 0.83733
 H897 H 0.53328 0.79553 0.88855
 H898 H 0.45670 0.76552 0.89991
 H899 H 0.44854 0.79644 0.93567
 H900 H 0.52709 0.82671 0.92399
 H901 H 0.49946 0.73299 0.81483
 H902 H 0.47030 0.73464 0.77705
 H903 H 0.42066 0.78868 0.81939
 H904 H 0.45164 0.78641 0.85601
 C905 C 0.58303 0.76508 0.82617
 C906 C 0.48930 0.67288 0.89867
 C907 C 0.44254 0.76149 0.79508
 C908 C 0.48716 0.81438 0.93285
 N909 N 0.11689 0.16353 0.29704
 N910 N 0.13813 0.15896 0.28286
 C911 C 0.14858 0.18147 0.27575
 C912 C 0.13344 0.20142 0.28613
 C913 C 0.11348 0.18907 0.29956
 H914 H 0.13658 0.22182 0.28433
 H915 H 0.10531 0.14927 0.30526
 H916 H 0.14515 0.14063 0.27804
 N917 N 0.61731 0.79022 0.80239
 N918 N 0.63821 0.78538 0.78772
 C919 C 0.64268 0.75994 0.78723
 C920 C 0.62398 0.74803 0.80235
 C921 C 0.60797 0.76788 0.81144
 H922 H 0.62138 0.72765 0.80484
 H923 H 0.60956 0.80855 0.80567
 H924 H 0.64880 0.79931 0.77785
 N925 N 0.42369 0.74409 0.75321
 N926 N 0.40416 0.74939 0.73716
 C927 C 0.39127 0.77030 0.74620
 C928 C 0.40311 0.77875 0.76904
 C929 C 0.42374 0.76158 0.77289
 H930 H 0.39738 0.79506 0.78106
 H931 H 0.43623 0.72834 0.75071
 H932 H 0.39969 0.73858 0.72047
 N933 N -0.08296 0.29876 0.33940
 N934 N -0.10419 0.30587 0.32380
 C935 C -0.10479 0.28965 0.30313
 C936 C -0.08406 0.27222 0.30485
 C937 C -0.07088 0.27857 0.32776
 H938 H -0.07930 0.25674 0.29136
 H939 H -0.07750 0.30807 0.35669
 H940 H -0.11725 0.32088 0.32813
 N941 N -0.07196 0.69231 0.21284
 N942 N -0.08761 0.68678 0.23240
 C943 C -0.10270 0.70742 0.23821
 C944 C -0.09607 0.72720 0.22178
 C945 C -0.07661 0.71664 0.20579
 H946 H -0.10506 0.74599 0.22067
 H947 H -0.05849 0.67944 0.20442
 H948 H -0.08821 0.66889 0.24112
 N949 N 0.37454 0.22085 0.66742
 N950 N 0.35265 0.21637 0.68309
 C951 C 0.35097 0.23580 0.70061
 C952 C 0.37144 0.25297 0.69653
 C953 C 0.38585 0.24295 0.67564
 H954 H 0.37540 0.27040 0.70754
 H955 H 0.38110 0.20829 0.65277
 H956 H 0.34036 0.20039 0.68134
 N957 N 0.55085 0.28148 0.75186
 N958 N 0.56907 0.28795 0.77112
 C959 C 0.58918 0.30044 0.75980
 C960 C 0.58417 0.30249 0.73338
 C961 C 0.56004 0.29032 0.72921
 H962 H 0.59656 0.31137 0.71901
 H963 H 0.53295 0.27215 0.75509
 H964 H 0.56708 0.28330 0.79063
 N965 N 0.10985 0.80592 0.14592
 N966 N 0.13173 0.80668 0.15994
 C967 C 0.12959 0.78972 0.17919
 C968 C 0.10540 0.77751 0.17727
 C969 C 0.09341 0.78834 0.15591
 H970 H 0.09749 0.76310 0.18991
 H971 H 0.10651 0.81714 0.12966
 H972 H 0.14768 0.81879 0.15640
 N973 N 0.34005 0.05177 0.18059
 N974 N 0.32488 0.07115 0.17372
 C975 C 0.31064 0.07906 0.19445
 C976 C 0.31684 0.06394 0.21542
 C977 C 0.33571 0.04689 0.20586
 H978 H 0.30936 0.06570 0.23504
 H979 H 0.35306 0.04216 0.16802
 H980 H 0.32462 0.07889 0.15518
 N981 N 0.77365 0.56629 0.76944
 N982 N 0.75901 0.58711 0.76702
 C983 C 0.76970 0.60183 0.74859
 C984 C 0.79232 0.59001 0.73902
 C985 C 0.79411 0.56746 0.75276
 H986 H 0.80525 0.59655 0.72380
 H987 H 0.76964 0.55165 0.78239
 H988 H 0.74175 0.59083 0.77756
 N989 N 0.83738 0.35917 0.76878
 N990 N 0.81927 0.34252 0.77582
 C991 C 0.79532 0.35126 0.76871
 C992 C 0.79833 0.37439 0.75622
 C993 C 0.82536 0.37892 0.75703
 H994 H 0.78292 0.38719 0.74972
 H995 H 0.85753 0.35727 0.77273
 H996 H 0.82332 0.32592 0.78614
 N997 N 0.34653 -0.15037 0.29939
 N998 N 0.33008 -0.17161 0.29683
 C999 C 0.31204 -0.16648 0.27836
 C1000 C 0.31672 -0.14227 0.26853
 C1001 C 0.33834 -0.13278 0.28232
 H1002 H 0.30546 -0.13253 0.25380
 H1003 H 0.36251 -0.14900 0.31216
 H1004 H 0.33163 -0.18805 0.30797
 N1005 N 0.23921 -0.04639 0.75077
 N1006 N 0.25584 -0.06738 0.74646
 C1007 C 0.24334 -0.08377 0.73010
 C1008 C 0.21892 -0.07358 0.72335
 C1009 C 0.21698 -0.05032 0.73684
 H1010 H 0.20398 -0.08244 0.71114
 H1011 H 0.24366 -0.03071 0.76287
 H1012 H 0.27429 -0.06975 0.75519
 N1013 N 0.73349 0.42847 0.20193
 N1014 N 0.75175 0.41036 0.20107
 C1015 C 0.74021 0.38771 0.20578
 C1016 C 0.71345 0.39151 0.21004
 C1017 C 0.71005 0.41770 0.20744
 H1018 H 0.69912 0.37770 0.21659
 H1019 H 0.73737 0.44806 0.20058
 H1020 H 0.77192 0.41367 0.19844
 N1021 N 0.74789 0.55480 0.27871
 N1022 N 0.76472 0.57238 0.28703
 C1023 C 0.75109 0.59187 0.29820
 C1024 C 0.72429 0.58624 0.29735
 C1025 C 0.72317 0.56262 0.28452
 H1026 H 0.70793 0.59834 0.30342
 H1027 H 0.75332 0.53798 0.26874
 H1028 H 0.78513 0.57125 0.28425
 N1029 N 0.13560 0.14631 0.78306
 N1030 N 0.14974 0.16702 0.78849
 C1031 C 0.17349 0.16457 0.77692
 C1032 C 0.17452 0.14135 0.76353
 C1033 C 0.15013 0.13017 0.76801
 H1034 H 0.19104 0.13346 0.75269
 H1035 H 0.11671 0.14306 0.79042
 H1036 H 0.14328 0.18230 0.80026
 N1037 N 0.27152 0.26447 0.07219
 N1038 N 0.26893 0.24433 0.08704
 C1039 C 0.25265 0.25040 0.10691
 C1040 C 0.24435 0.27564 0.10453
 C1041 C 0.25689 0.28391 0.08216
 H1042 H 0.23121 0.28639 0.11726
 H1043 H 0.28277 0.26450 0.05520
 H1044 H 0.27831 0.22677 0.08347
 N1045 N 0.76116 0.75505 0.56769
 N1046 N 0.76221 0.74054 0.58842
 C1047 C 0.74886 0.75233 0.60784
 C1048 C 0.73882 0.77533 0.59910
 C1049 C 0.74703 0.77640 0.57346
 H1050 H 0.72715 0.78924 0.60994
 H1051 H 0.76961 0.74993 0.54985
 H1052 H 0.77172 0.72277 0.58903
 N1053 N 0.73461 0.83247 0.36600
 N1054 N 0.74290 0.81716 0.34695
 C1055 C 0.73976 0.79270 0.35409
 C1056 C 0.72879 0.79238 0.37869
 C1057 C 0.72612 0.81810 0.38587
 H1058 H 0.72538 0.77570 0.39035
 H1059 H 0.73638 0.85238 0.36571
 H1060 H 0.75160 0.82347 0.32985
 N1061 N 0.28498 0.36018 -0.10695
 N1062 N 0.28665 0.34714 -0.12910
 C1063 C 0.27063 0.32666 -0.12806
 C1064 C 0.25808 0.32666 -0.10413
 C1065 C 0.26793 0.34823 -0.09108
 H1066 H 0.24449 0.31245 -0.09702
 H1067 H 0.29545 0.37704 -0.10314
 H1068 H 0.29866 0.35232 -0.14461
 N1069 N 0.67043 0.23937 -0.04807
 N1070 N 0.66718 0.25827 -0.06442
 C1071 C 0.68989 0.26163 -0.07756
 C1072 C 0.70865 0.24437 -0.06881
 C1073 C 0.69533 0.23044 -0.05029
 H1074 H 0.72839 0.24106 -0.07623
 H1075 H 0.65557 0.23237 -0.03607
 H1076 H 0.64931 0.26791 -0.06714
 N1077 N 0.17279 0.67535 0.38212
 N1078 N 0.16987 0.68639 0.35940
 C1079 C 0.19381 0.69354 0.35083
 C1080 C 0.21278 0.68668 0.36873
 C1081 C 0.19869 0.67530 0.38845
 H1082 H 0.23375 0.69057 0.36799
 H1083 H 0.15714 0.66813 0.39294
 H1084 H 0.15171 0.68928 0.35025
 N1085 N 0.20661 0.73214 0.58296
 N1086 N 0.21087 0.74932 0.60169
 C1087 C 0.23614 0.74733 0.60957
 C1088 C 0.24849 0.72804 0.59531
 C1089 C 0.22913 0.71878 0.57850
 H1090 H 0.26879 0.72178 0.59704
 H1091 H 0.18861 0.73014 0.57323
 H1092 H 0.19669 0.76229 0.60869
 N1093 N 0.80525 0.16680 0.12066
 N1094 N 0.81178 0.18081 0.14128
 C1095 C 0.79330 0.19912 0.14504
 C1096 C 0.77394 0.19651 0.12610
 C1097 C 0.78245 0.17589 0.11080
 H1098 H 0.75699 0.20877 0.12302
 H1099 H 0.81650 0.15143 0.11349
 H1100 H 0.82891 0.17803 0.15220
 N1101 N 0.47162 0.41395 0.60510
 N1102 N 0.46991 0.43411 0.59007
 C1103 C 0.47615 0.42687 0.56561
 C1104 C 0.48220 0.40098 0.56502
 C1105 C 0.47898 0.39338 0.59051
 H1106 H 0.48751 0.38928 0.54826
 H1107 H 0.46795 0.41458 0.62504
 H1108 H 0.46449 0.45246 0.59660
 N1109 N -0.08456 0.87141 0.06918
 N1110 N -0.08838 0.89052 0.05312
 C1111 C -0.07061 0.88861 0.03375
 C1112 C -0.05482 0.86737 0.03758
 C1113 C -0.06424 0.85682 0.06035
 H1114 H -0.03878 0.86071 0.02533
 H1115 H -0.09571 0.86886 0.08595
 H1116 H -0.10287 0.90464 0.05560
 N1117 N -0.03275 0.67897 0.00691
 N1118 N -0.02847 0.65816 -0.00747
 C1119 C -0.00889 0.64449 0.00339
 C1120 C -0.00015 0.65727 0.02560
 C1121 C -0.01590 0.67907 0.02721
 H1122 H 0.01504 0.65125 0.03899
 H1123 H -0.04690 0.69287 0.00263
 H1124 H -0.03902 0.65343 -0.02431
 N1125 N 0.51871 0.20616 0.52280
 N1126 N 0.52142 0.18332 0.51168
 C1127 C 0.52895 0.16649 0.52974
 C1128 C 0.53129 0.17917 0.55350
 C1129 C 0.52411 0.20433 0.54834
 H1130 H 0.53452 0.17070 0.57225
 H1131 H 0.51215 0.22236 0.51308
 H1132 H 0.51688 0.17913 0.49228
 N1133 N -0.02631 0.10513 0.40007
 N1134 N -0.02878 0.08302 0.41176
 C1135 C -0.01202 0.08250 0.43211
 C1136 C 0.00196 0.10532 0.43332
 C1137 C -0.00779 0.11915 0.41256
 H1138 H 0.01677 0.11113 0.44740
 H1139 H -0.03702 0.11027 0.38362
 H1140 H -0.04211 0.06878 0.40598
 N1141 N 0.47411 0.62730 0.89540
 N1142 N 0.47141 0.60754 0.91079
 C1143 C 0.48088 0.61396 0.93444
 C1144 C 0.49025 0.63890 0.93409
 C1145 C 0.48527 0.64684 0.90896
 H1146 H 0.49809 0.65008 0.95023
 H1147 H 0.46817 0.62720 0.87599
 H1148 H 0.46285 0.59012 0.90513
 N1149 N 0.46532 0.82979 0.97407
 N1150 N 0.46862 0.84828 0.99166
 C1151 C 0.48873 0.86329 0.98422
 C1152 C 0.49865 0.85403 0.96084
 C1153 C 0.48337 0.83257 0.95506
 H1154 H 0.51516 0.86152 0.95006
 H1155 H 0.45147 0.81514 0.97576
 H1156 H 0.45753 0.85015 1.00868
 N1157 N 0.02936 0.29216 0.48919
 N1158 N 0.03044 0.31262 0.50460
 C1159 C 0.04465 0.33078 0.49284
 C1160 C 0.05301 0.32154 0.46881
 C1161 C 0.04278 0.29689 0.46717
 H1162 H 0.06429 0.33158 0.45437
 H1163 H 0.01868 0.27568 0.49350
 H1164 H 0.02129 0.31407 0.52274
 N1165 N 0.37808 0.62372 0.45642
 N1166 N 0.40091 0.61145 0.45434
 C1167 C 0.40111 0.59209 0.47124
 C1168 C 0.37744 0.59198 0.48464
 C1169 C 0.36321 0.61223 0.47454
 H1170 H 0.37114 0.57842 0.49900
 H1171 H 0.37253 0.63900 0.44479
 H1172 H 0.41579 0.61604 0.44120
 N1173 N 0.83944 0.09171 -0.06981
 N1174 N 0.85909 0.07591 -0.07582
 C1175 C 0.85716 0.05499 -0.06105
 C1176 C 0.83538 0.05750 -0.04504
 C1177 C 0.82470 0.08116 -0.05099
 H1178 H 0.82876 0.04420 -0.03059
 H1179 H 0.83692 0.10973 -0.07792
 H1180 H 0.87380 0.07975 -0.08940
 N1181 N 0.61690 0.06844 0.00020
 N1182 N 0.60074 0.04867 0.00185
 C1183 C 0.61148 0.03154 0.01802
 C1184 C 0.63561 0.04060 0.02688
 C1185 C 0.63828 0.06403 0.01506
 H1186 H 0.64941 0.03132 0.03976
 H1187 H 0.61360 0.08433 -0.01141
 H1188 H 0.58261 0.04714 -0.00775
 N1189 N 0.19650 0.51249 0.49094
 N1190 N 0.17902 0.49419 0.49460
 C1191 C 0.15848 0.50405 0.50812
 C1192 C 0.16321 0.52975 0.51360
 C1193 C 0.18753 0.53437 0.50219
 H1194 H 0.15038 0.54334 0.52355
 H1195 H 0.21421 0.50988 0.48083
 H1196 H 0.18107 0.47541 0.48749
 N1197 N 0.14263 0.46767 0.05124
 N1198 N 0.12330 0.48360 0.04526
 C1199 C 0.11375 0.47690 0.02172
 C1200 C 0.12747 0.45570 0.01235
 C1201 C 0.14587 0.45043 0.03157
 H1202 H 0.12495 0.44619 -0.00632
 H1203 H 0.15389 0.46944 0.06814
 H1204 H 0.11729 0.49913 0.05694
 N1205 N 0.64330 0.95737 0.55312
 N1206 N 0.62601 0.97635 0.55232
 C1207 C 0.61385 0.97569 0.52909
 C1208 C 0.62375 0.95528 0.51443
 C1209 C 0.64267 0.94417 0.53030
 H1210 H 0.61865 0.95006 0.49464
 H1211 H 0.65525 0.95380 0.56918
 H1212 H 0.62277 0.98955 0.56749
 N1213 N 0.82799 0.94108 0.45881
 N1214 N 0.85185 0.95120 0.45888
 C1215 C 0.86398 0.94540 0.48129
 C1216 C 0.84715 0.93082 0.49618
 C1217 C 0.82444 0.92852 0.48116
 H1218 H 0.85089 0.92308 0.51517
 H1219 H 0.81470 0.94241 0.44337
 H1220 H 0.85950 0.96196 0.44375
 N1221 N 0.31711 0.49639 0.03884
 N1222 N 0.33898 0.51006 0.03852
 C1223 C 0.35968 0.49452 0.04295
 C1224 C 0.35065 0.46975 0.04635
 C1225 C 0.32342 0.47169 0.04311
 H1226 H 0.36240 0.45248 0.04796
 H1227 H 0.29836 0.50391 0.03520
 H1228 H 0.33975 0.52953 0.03421
 N1229 N 0.54962 0.44256 0.34149
 N1230 N 0.53564 0.44310 0.36313
 C1231 C 0.53269 0.46763 0.37115
 C1232 C 0.54528 0.48347 0.35383
 C1233 C 0.55601 0.46680 0.33526
 H1234 H 0.54707 0.50411 0.35516
 H1235 H 0.55449 0.42569 0.33136
 H1236 H 0.52834 0.42683 0.37216
 N1237 N 0.06884 -0.05083 0.85019
 N1238 N 0.05206 -0.05577 0.86907
 C1239 C 0.03555 -0.03567 0.87212
 C1240 C 0.04218 -0.01702 0.85451
 C1241 C 0.06335 -0.02743 0.84078
 H1242 H 0.03232 0.00111 0.85152
 H1243 H 0.08375 -0.06342 0.84407
 H1244 H 0.05192 -0.07276 0.87947
 N1245 N 0.01722 -0.01946 0.66200
 N1246 N 0.00204 -0.02032 0.64119
 C1247 C 0.01104 -0.00334 0.62396
 C1248 C 0.03291 0.00918 0.63444
 C1249 C 0.03632 -0.00188 0.65859
 H1250 H 0.04517 0.02343 0.62539
 H1251 H 0.01433 -0.03079 0.67824
 H1252 H -0.01405 -0.03265 0.63892
 N1253 N 0.57942 0.56778 0.14371
 N1254 N 0.56405 0.57227 0.12358
 C1255 C 0.54613 0.55335 0.12136
 C1256 C 0.55023 0.53600 0.14100
 C1257 C 0.57163 0.54585 0.15489
 H1258 H 0.53920 0.51867 0.14447
 H1259 H 0.59526 0.57949 0.14908
 H1260 H 0.56615 0.58795 0.11148
 N1261 N 0.52251 -0.03894 0.21102
 N1262 N 0.53682 -0.04248 0.18977
 C1263 C 0.52228 -0.05562 0.17214
 C1264 C 0.49788 -0.06103 0.18273
 C1265 C 0.49867 -0.04992 0.20731
 H1266 H 0.48111 -0.06987 0.17312
 H1267 H 0.52882 -0.02855 0.22739
 H1268 H 0.55573 -0.03500 0.18713
 N1269 N 0.94662 0.51534 0.62466
 N1270 N 0.96565 0.51211 0.60733
 C1271 C 0.97164 0.48700 0.60548
 C1272 C 0.95565 0.47362 0.62224
 C1273 C 0.94006 0.49230 0.63427
 H1274 H 0.95605 0.45325 0.62571
 H1275 H 0.93919 0.53325 0.63036
 H1276 H 0.97468 0.52701 0.59743
 N1277 N 0.98321 0.47008 0.82176
 N1278 N 0.99703 0.47452 0.84312
 C1279 C 0.98768 0.49592 0.85491
 C1280 C 0.96695 0.50557 0.84044
 C1281 C 0.96468 0.48857 0.81948
 H1282 H 0.95510 0.52240 0.84477
 H1283 H 0.98617 0.45416 0.80951
 H1284 H 1.01241 0.46284 0.84950
 N1285 N 0.40787 0.02944 0.39209
 N1286 N 0.41963 0.03616 0.41405
 C1287 C 0.44365 0.02500 0.41478
 C1288 C 0.44731 0.01035 0.39237
 C1289 C 0.42418 0.01387 0.37833
 H1290 H 0.46477 -0.00035 0.38663
 H1291 H 0.38896 0.03552 0.38685
 H1292 H 0.41132 0.04844 0.42807
   
