data_POSCAR
  _audit_creation_date              2014-09-24
  _audit_creation_method            'ToBaCCo'
  _symmetry_space_group_name_H-M    'P1'
  _symmetry_Int_Tables_number       1
  _symmetry_cell_setting            triclinic
  loop_
  _symmetry_equiv_pos_as_xyz
 x,y,z
_cell_length_a 49.4274
_cell_length_b 48.6355
_cell_length_c 48.6398
_cell_angle_alpha 91.487300
_cell_angle_beta 89.875200
_cell_angle_gamma 91.249100
loop_
  _atom_site_label
  _atom_site_type_symbol
  _atom_site_fract_x
  _atom_site_fract_y
  _atom_site_fract_z
C1 C 0.71803 0.65766 0.97142
 H2 H 0.73691 0.65517 0.96045
 C3 C 0.69694 0.67161 0.95923
 H4 H 0.69995 0.68000 0.93902
 C5 C 0.69037 0.64751 1.00983
 H6 H 0.68749 0.63749 1.02918
 C7 C 0.66879 0.66128 0.99841
 H8 H 0.64980 0.66220 1.00950
 N9 N 0.71436 0.64569 0.99617
 C10 C 0.78997 0.63172 1.03803
 H11 H 0.78372 0.61266 1.04736
 C12 C 0.81407 0.64474 1.04631
 H13 H 0.82622 0.63560 1.06202
 C14 C 0.78185 0.66664 1.00617
 H15 H 0.76914 0.67526 0.99074
 C16 C 0.80616 0.68019 1.01359
 H17 H 0.81194 0.69923 1.00388
 Zn18 Zn 0.74172 0.62275 1.00993
 N19 N 0.77423 0.64282 1.01846
 C20 C 0.77355 0.58246 0.98385
 N21 N 0.74942 0.59530 0.98289
 C22 C 0.73212 0.59078 0.96145
 C23 C 0.73959 0.57411 0.93902
 C24 C 0.78181 0.56559 0.96189
 C25 C 0.72691 0.62422 1.06484
 C26 C 0.71757 0.61468 1.08993
 C27 C 0.71399 0.56894 1.06960
 C28 C 0.72346 0.57953 1.04478
 N29 N 0.72933 0.60679 1.04282
 H30 H 0.78696 0.58629 1.00109
 H31 H 0.71283 0.60081 0.96128
 H32 H 0.72589 0.57137 0.92178
 H33 H 0.80172 0.55676 0.96242
 H34 H 0.73239 0.64574 1.06284
 H35 H 0.71748 0.62950 1.10684
 H36 H 0.70831 0.54737 1.06943
 H37 H 0.72563 0.56604 1.02691
 C38 C 0.82239 0.66932 1.03413
 C39 C 0.67174 0.67313 0.97255
 C40 C 0.71025 0.58656 1.09299
 C41 C 0.76507 0.56189 0.93872
 C42 C 0.72316 0.32663 0.52419
 H43 H 0.74237 0.32152 0.53292
 C44 C 0.70001 0.31119 0.53109
 H45 H 0.70182 0.29418 0.54486
 C46 C 0.69683 0.35625 0.49779
 H47 H 0.69520 0.37440 0.48570
 C48 C 0.67330 0.34145 0.50415
 H49 H 0.65414 0.34801 0.49612
 N50 N 0.72124 0.34882 0.50784
 C51 C 0.79383 0.36331 0.46384
 H52 H 0.78593 0.38105 0.45405
 C53 C 0.81618 0.35062 0.45217
 H54 H 0.82467 0.35851 0.43333
 C55 C 0.79393 0.33292 0.50104
 H56 H 0.78573 0.32657 0.52049
 C57 C 0.81657 0.31960 0.49006
 H58 H 0.82508 0.30258 0.50077
 Zn59 Zn 0.75164 0.37285 0.50134
 N60 N 0.78252 0.35389 0.48743
 C61 C 0.78503 0.40610 0.53559
 N62 N 0.76143 0.39124 0.53464
 C63 C 0.74553 0.38862 0.55732
 C64 C 0.75349 0.40078 0.58241
 C65 C 0.79378 0.41860 0.56028
 C66 C 0.73375 0.38757 0.44972
 C67 C 0.72489 0.40447 0.42908
 C68 C 0.73082 0.44365 0.46023
 C69 C 0.73984 0.42593 0.48034
 N70 N 0.74102 0.39843 0.47476
 H71 H 0.79732 0.40776 0.51725
 H72 H 0.72670 0.37695 0.55604
 H73 H 0.74056 0.39846 0.60023
 H74 H 0.81302 0.42968 0.56081
 H75 H 0.73460 0.36558 0.44596
 H76 H 0.71867 0.39527 0.40952
 H77 H 0.72977 0.46548 0.46495
 H78 H 0.74552 0.43408 0.50045
 C79 C 0.82758 0.32817 0.46498
 C80 C 0.67460 0.31888 0.52138
 C81 C 0.72319 0.43288 0.43422
 C82 C 0.77805 0.41578 0.58421
 C83 C 0.22898 -0.17687 0.01582
 H84 H 0.24829 -0.17915 0.02584
 C85 C 0.20572 -0.18974 0.02644
 H86 H 0.20732 -0.20193 0.04466
 C87 C 0.20308 -0.15675 -0.01897
 H88 H 0.20178 -0.14329 -0.03616
 C89 C 0.17946 -0.16917 -0.00909
 H90 H 0.16047 -0.16560 -0.01932
 N91 N 0.22724 -0.16064 -0.00645
 C92 C 0.30584 -0.14943 -0.04559
 H93 H 0.30434 -0.12755 -0.04856
 C94 C 0.32757 -0.16357 -0.05680
 H95 H 0.34284 -0.15247 -0.06835
 C96 C 0.28765 -0.19043 -0.02690
 H97 H 0.27184 -0.20079 -0.01550
 C98 C 0.30947 -0.20539 -0.03741
 H99 H 0.31040 -0.22728 -0.03408
 Zn100 Zn 0.25805 -0.14021 -0.01853
 N101 N 0.28637 -0.16292 -0.03109
 C102 C 0.29647 -0.12039 0.02026
 N103 N 0.27069 -0.11756 0.01124
 C104 C 0.25357 -0.09981 0.02407
 C105 C 0.26239 -0.08373 0.04673
 C106 C 0.30607 -0.10480 0.04277
 C107 C 0.24163 -0.13357 -0.07218
 C108 C 0.23293 -0.12027 -0.09546
 C109 C 0.23955 -0.07680 -0.07108
 C110 C 0.24798 -0.09111 -0.04814
 N111 N 0.24821 -0.11902 -0.04891
 H112 H 0.30959 -0.13506 0.01030
 H113 H 0.23303 -0.09824 0.01673
 H114 H 0.24860 -0.06949 0.05650
 H115 H 0.32653 -0.10779 0.04985
 H116 H 0.24288 -0.15576 -0.07250
 H117 H 0.22890 -0.13307 -0.11354
 H118 H 0.23827 -0.05474 -0.06860
 H119 H 0.25381 -0.07987 -0.02955
 C120 C 0.32955 -0.19187 -0.05281
 C121 C 0.18047 -0.18556 0.01417
 C122 C 0.23092 -0.09124 -0.09536
 C123 C 0.28902 -0.08611 0.05633
 C124 C 0.21851 0.16443 0.45593
 H125 H 0.23686 0.16119 0.44423
 C126 C 0.19890 0.18187 0.44602
 H127 H 0.20233 0.19219 0.42682
 C128 C 0.19051 0.15303 0.49375
 H129 H 0.18669 0.14092 0.51169
 C130 C 0.17059 0.17068 0.48487
 H131 H 0.15169 0.17200 0.49608
 N132 N 0.21367 0.14971 0.47892
 C133 C 0.28975 0.11834 0.50862
 H134 H 0.28276 0.09780 0.51333
 C135 C 0.31552 0.12711 0.51688
 H136 H 0.32842 0.11284 0.52707
 C137 C 0.28086 0.16218 0.49102
 H138 H 0.26709 0.17599 0.48154
 C139 C 0.30661 0.17189 0.49905
 H140 H 0.31235 0.19316 0.49571
 Zn141 Zn 0.23783 0.12127 0.48798
 N142 N 0.27299 0.13574 0.49587
 C143 C 0.25888 0.07573 0.45760
 N144 N 0.23985 0.09556 0.45771
 C145 C 0.22424 0.09935 0.43514
 C146 C 0.22955 0.08517 0.41047
 C147 C 0.26461 0.06079 0.43344
 C148 C 0.22657 0.12061 0.54342
 C149 C 0.21777 0.11054 0.56849
 C150 C 0.20844 0.06643 0.54602
 C151 C 0.21724 0.07750 0.52115
 N152 N 0.22571 0.10428 0.52034
 H153 H 0.27066 0.07240 0.47578
 H154 H 0.20843 0.11429 0.43573
 H155 H 0.21806 0.08966 0.39225
 H156 H 0.28104 0.04641 0.43324
 H157 H 0.23380 0.14170 0.54218
 H158 H 0.21828 0.12399 0.58659
 H159 H 0.20115 0.04529 0.54642
 H160 H 0.21702 0.06486 0.50252
 C161 C 0.32413 0.15431 0.51250
 C162 C 0.17435 0.18458 0.46024
 C163 C 0.20827 0.08324 0.56995
 C164 C 0.25066 0.06641 0.40922
 C165 C 0.17260 0.47878 0.21850
 H166 H 0.17299 0.46733 0.23726
 C167 C 0.18708 0.46949 0.19549
 H168 H 0.19850 0.45084 0.19687
 C169 C 0.15525 0.51551 0.19334
 H170 H 0.14222 0.53294 0.19215
 C171 C 0.16963 0.50714 0.16999
 H172 H 0.16795 0.51879 0.15143
 N173 N 0.15672 0.50119 0.21695
 C174 C 0.13972 0.53350 0.29953
 H175 H 0.11875 0.53840 0.29638
 C176 C 0.15216 0.54100 0.32433
 H177 H 0.14055 0.55139 0.34023
 C178 C 0.18067 0.51558 0.28202
 H179 H 0.19175 0.50584 0.26543
 C180 C 0.19408 0.52312 0.30649
 H181 H 0.21539 0.51894 0.30863
 Zn182 Zn 0.13370 0.51053 0.24708
 N183 N 0.15380 0.52046 0.27919
 C184 C 0.09639 0.47935 0.27855
 N185 N 0.11057 0.47972 0.25456
 C186 C 0.10970 0.45770 0.23668
 C187 C 0.09535 0.43369 0.24333
 C188 C 0.08189 0.45578 0.28605
 C189 C 0.12722 0.56539 0.23461
 C190 C 0.11392 0.58875 0.22637
 C191 C 0.07170 0.56277 0.22716
 C192 C 0.08594 0.53971 0.23501
 N193 N 0.11325 0.54137 0.23810
 H194 H 0.09690 0.49699 0.29240
 H195 H 0.12045 0.45851 0.21735
 H196 H 0.09523 0.41629 0.22899
 H197 H 0.07187 0.45564 0.30585
 H198 H 0.14894 0.56610 0.23739
 H199 H 0.12578 0.60720 0.22241
 H200 H 0.04996 0.56104 0.22483
 H201 H 0.07524 0.52044 0.23825
 C202 C 0.17962 0.53566 0.32813
 C203 C 0.18535 0.48347 0.17063
 C204 C 0.08577 0.58765 0.22222
 C205 C 0.08165 0.43231 0.26859
 C206 C -0.16867 0.02837 0.21754
 H207 H -0.16850 0.04086 0.23618
 C208 C -0.18450 0.03608 0.19540
 H209 H -0.19542 0.05502 0.19771
 C210 C -0.15298 -0.01017 0.19214
 H211 H -0.14108 -0.02852 0.19105
 C212 C -0.16839 -0.00321 0.16945
 H213 H -0.16819 -0.01694 0.15160
 N214 N -0.15254 0.00617 0.21523
 C215 C -0.13681 -0.00787 0.30052
 H216 H -0.11898 0.00520 0.30307
 C217 C -0.14905 -0.01931 0.32356
 H218 H -0.14064 -0.01481 0.34377
 C219 C -0.16829 -0.03123 0.27099
 H220 H -0.17531 -0.03610 0.25035
 C221 C -0.18091 -0.04345 0.29345
 H222 H -0.19789 -0.05756 0.29004
 Zn223 Zn -0.12766 -0.00091 0.24385
 N224 N -0.14657 -0.01395 0.27489
 C225 C -0.12241 0.05092 0.26955
 N226 N -0.10871 0.03225 0.25390
 C227 C -0.08244 0.03704 0.24657
 C228 C -0.06902 0.06142 0.25507
 C229 C -0.10967 0.07520 0.27887
 C230 C -0.10188 -0.05203 0.24590
 C231 C -0.08654 -0.07385 0.23586
 C232 C -0.07358 -0.04642 0.19709
 C233 C -0.08915 -0.02508 0.20790
 N234 N -0.10335 -0.02841 0.23162
 H235 H -0.14306 0.04652 0.27563
 H236 H -0.07170 0.02193 0.23445
 H237 H -0.04802 0.06487 0.24948
 H238 H -0.12072 0.08957 0.29178
 H239 H -0.11327 -0.05435 0.26470
 H240 H -0.08656 -0.09286 0.24697
 H241 H -0.06288 -0.04359 0.17790
 H242 H -0.09079 -0.00621 0.19678
 C243 C -0.17112 -0.03768 0.32011
 C244 C -0.18388 0.02085 0.17027
 C245 C -0.07258 -0.07142 0.21085
 C246 C -0.08264 0.08058 0.27173
 C247 C 0.34323 0.51926 0.71999
 H248 H 0.34670 0.53115 0.73881
 C249 C 0.32794 0.53013 0.69887
 H250 H 0.31977 0.55050 0.70162
 C251 C 0.35146 0.47916 0.69283
 H252 H 0.36112 0.45958 0.69021
 C253 C 0.33623 0.48915 0.67131
 H254 H 0.33396 0.47679 0.65259
 N255 N 0.35497 0.49438 0.71646
 C256 C 0.37555 0.45692 0.79348
 H257 H 0.39643 0.45230 0.78896
 C258 C 0.36321 0.44638 0.81684
 H259 H 0.37479 0.43386 0.83043
 C260 C 0.33493 0.47830 0.78082
 H261 H 0.32389 0.49030 0.76639
 C262 C 0.32183 0.46842 0.80425
 H263 H 0.30071 0.47286 0.80776
 Zn264 Zn 0.37955 0.48251 0.74332
 N265 N 0.36131 0.47234 0.77590
 C266 C 0.41201 0.51783 0.77732
 N267 N 0.40467 0.51162 0.75092
 C268 C 0.41335 0.52737 0.72979
 C269 C 0.42939 0.55096 0.73496
 C270 C 0.42838 0.54091 0.78335
 C271 C 0.38268 0.42706 0.72944
 C272 C 0.39370 0.40292 0.71884
 C273 C 0.43507 0.42827 0.70908
 C274 C 0.42325 0.45202 0.72013
 N275 N 0.39734 0.45102 0.72959
 H276 H 0.40467 0.50532 0.79388
 H277 H 0.40705 0.52209 0.70899
 H278 H 0.43558 0.56374 0.71806
 H279 H 0.43341 0.54597 0.80457
 H280 H 0.36219 0.42684 0.73731
 H281 H 0.38161 0.38410 0.71896
 H282 H 0.45537 0.42957 0.70075
 H283 H 0.43453 0.47132 0.72058
 C284 C 0.33596 0.45185 0.82229
 C285 C 0.32475 0.51524 0.67389
 C286 C 0.42006 0.40337 0.70799
 C287 C 0.43686 0.55805 0.76208
 C288 C 0.67484 0.96228 0.71712
 H289 H 0.67464 0.95120 0.73612
 C290 C 0.68925 0.95214 0.69440
 H291 H 0.70005 0.93314 0.69615
 C292 C 0.65930 0.99940 0.69127
 H293 H 0.64716 1.01750 0.68989
 C294 C 0.67354 0.99013 0.66817
 H295 H 0.67260 1.00162 0.64944
 N296 N 0.65991 0.98527 0.71502
 C297 C 0.64035 1.01963 0.79608
 H298 H 0.61860 1.01976 0.79366
 C299 C 0.65205 1.02964 0.82042
 H300 H 0.63877 1.03816 0.83601
 C301 C 0.68335 1.00957 0.77738
 H302 H 0.69536 1.00150 0.76053
 C303 C 0.69607 1.01993 0.80131
 H304 H 0.71788 1.01897 0.80250
 Zn305 Zn 0.63663 0.99541 0.74433
 N306 N 0.65594 1.00931 0.77543
 C307 C 0.61748 0.95541 0.78082
 N308 N 0.61603 0.96370 0.75437
 C309 C 0.60122 0.94897 0.73529
 C310 C 0.58624 0.92555 0.74289
 C311 C 0.60276 0.93246 0.78928
 C312 C 0.62600 1.04964 0.73299
 C313 C 0.61175 1.07200 0.72373
 C314 C 0.57343 1.04146 0.71453
 C315 C 0.58830 1.01969 0.72443
 N316 N 0.61428 1.02408 0.73293
 H317 H 0.63024 0.96637 0.79552
 H318 H 0.60105 0.95540 0.71417
 H319 H 0.57421 0.91425 0.72765
 H320 H 0.60422 0.92632 0.81047
 H321 H 0.64672 1.05254 0.73977
 H322 H 0.62164 1.09207 0.72326
 H323 H 0.55297 1.03766 0.70720
 H324 H 0.57925 0.99931 0.72474
 C325 C 0.68040 1.02981 0.82369
 C326 C 0.68830 0.96584 0.66931
 C327 C 0.58528 1.06794 0.71395
 C328 C 0.58663 0.91738 0.77035
 C329 C 0.03536 0.22868 -0.14460
 H330 H 0.04545 0.24863 -0.14491
 C331 C 0.04647 0.20636 -0.15887
 H332 H 0.06477 0.20956 -0.17074
 C333 C -0.00025 0.20024 -0.12795
 H334 H -0.01797 0.19773 -0.11514
 C335 C 0.01032 0.17729 -0.14167
 H336 H 0.00052 0.15739 -0.13920
 N337 N 0.01254 0.22522 -0.12933
 C338 C -0.01986 0.30661 -0.11216
 H339 H -0.02298 0.30491 -0.09024
 C340 C -0.02822 0.32999 -0.12544
 H341 H -0.03789 0.34617 -0.11357
 C342 C -0.00470 0.28683 -0.15432
 H343 H 0.00409 0.26978 -0.16555
 C344 C -0.01292 0.30987 -0.16851
 H345 H -0.00998 0.31051 -0.19055
 Zn346 Zn 0.00149 0.25475 -0.10616
 N347 N -0.00803 0.28577 -0.12658
 C348 C 0.03860 0.29030 -0.07709
 N349 N 0.03086 0.26365 -0.08226
 C350 C 0.04558 0.24254 -0.07281
 C351 C 0.06963 0.24787 -0.05834
 C352 C 0.06211 0.29653 -0.06218
 C353 C -0.05273 0.24109 -0.10110
 C354 C -0.07685 0.23306 -0.08850
 C355 C -0.05284 0.23089 -0.04545
 C356 C -0.02918 0.23926 -0.05900
 N357 N -0.02956 0.24385 -0.08637
 H358 H 0.02707 0.30684 -0.08514
 H359 H 0.03918 0.22153 -0.07745
 H360 H 0.08163 0.23091 -0.05168
 H361 H 0.06836 0.31784 -0.05885
 H362 H -0.05235 0.24477 -0.12295
 H363 H -0.09411 0.22974 -0.10185
 H364 H -0.05149 0.22848 -0.02349
 H365 H -0.01051 0.24207 -0.04762
 C366 C -0.02476 0.33189 -0.15399
 C367 C 0.03432 0.18005 -0.15697
 C368 C -0.07759 0.22742 -0.06005
 C369 C 0.07819 0.27517 -0.05312
 C370 C 0.47086 0.23763 0.17453
 H371 H 0.46141 0.25749 0.17481
 C372 C 0.45777 0.21523 0.18668
 H373 H 0.43842 0.21807 0.19673
 C374 C 0.50681 0.20937 0.15976
 H375 H 0.52533 0.20674 0.14831
 C376 C 0.49462 0.18656 0.17191
 H377 H 0.50409 0.16674 0.16980
 N378 N 0.49477 0.23427 0.16108
 C379 C 0.53378 0.31442 0.14839
 H380 H 0.53797 0.31156 0.12667
 C381 C 0.54128 0.33905 0.16181
 H382 H 0.55173 0.35487 0.15036
 C383 C 0.51488 0.29713 0.18947
 H384 H 0.50429 0.28081 0.20001
 C385 C 0.52221 0.32152 0.20382
 H386 H 0.51715 0.32384 0.22542
 Zn387 Zn 0.50858 0.26375 0.14001
 N388 N 0.52032 0.29433 0.16212
 C389 C 0.47188 0.30132 0.11878
 N390 N 0.48002 0.27481 0.11709
 C391 C 0.46680 0.25578 0.10073
 C392 C 0.44456 0.26330 0.08503
 C393 C 0.45003 0.30973 0.10333
 C394 C 0.56118 0.24503 0.13270
 C395 C 0.58380 0.23545 0.11850
 C396 C 0.56036 0.24230 0.07578
 C397 C 0.53802 0.25145 0.09085
 N398 N 0.53866 0.25215 0.11881
 H399 H 0.48193 0.31601 0.13248
 H400 H 0.47336 0.23469 0.10015
 H401 H 0.43424 0.24800 0.07206
 H402 H 0.44370 0.33087 0.10528
 H403 H 0.56128 0.24618 0.15494
 H404 H 0.60097 0.22875 0.13014
 H405 H 0.55943 0.24195 0.05355
 H406 H 0.52019 0.25789 0.08018
 C407 C 0.53513 0.34306 0.18977
 C408 C 0.46952 0.18920 0.18509
 C409 C 0.58357 0.23374 0.08960
 C410 C 0.43606 0.29066 0.08619
 C411 C 0.96138 0.71980 0.68037
 H412 H 0.95010 0.73861 0.68001
 C413 C 0.95153 0.69748 0.69531
 H414 H 0.93256 0.69935 0.70627
 C415 C 0.99859 0.69388 0.66457
 H416 H 1.01638 0.69201 0.65186
 C417 C 0.98977 0.67132 0.67951
 H418 H 1.00154 0.65281 0.67869
 N419 N 0.98426 0.71745 0.66499
 C420 C 1.01108 0.79969 0.64200
 H421 H 1.00905 0.79637 0.62001
 C422 C 1.02008 0.82514 0.65239
 H423 H 1.02418 0.84136 0.63806
 C424 C 1.00701 0.78235 0.68691
 H425 H 1.00208 0.76541 0.70013
 C426 C 1.01684 0.80744 0.69826
 H427 H 1.01965 0.80941 0.72028
 Zn428 Zn 0.99374 0.74592 0.64066
 N429 N 1.00445 0.77903 0.65918
 C430 C 0.95093 0.77725 0.62182
 N431 N 0.96308 0.75257 0.61844
 C432 C 0.95306 0.73306 0.60037
 C433 C 0.93092 0.73879 0.58362
 C434 C 0.92915 0.78389 0.60544
 C435 C 1.04735 0.73297 0.63410
 C436 C 1.07121 0.72527 0.62107
 C437 C 1.04767 0.72480 0.57759
 C438 C 1.02405 0.73228 0.59158
 N439 N 1.02425 0.73571 0.61943
 H440 H 0.95801 0.79197 0.63729
 H441 H 0.96253 0.71324 0.59864
 H442 H 0.92351 0.72348 0.56875
 H443 H 0.92010 0.80388 0.60810
 H444 H 1.04703 0.73628 0.65619
 H445 H 1.08898 0.72216 0.63349
 H446 H 1.04719 0.72226 0.55542
 H447 H 1.00570 0.73541 0.58017
 C448 C 1.02373 0.82927 0.68086
 C449 C 0.96550 0.67257 0.69450
 C450 C 1.07166 0.72095 0.59242
 C451 C 0.91922 0.76479 0.58571
 C452 C 0.51493 0.74845 0.35376
 H453 H 0.52385 0.76887 0.35229
 C454 C 0.52704 0.72620 0.34031
 H455 H 0.54501 0.72978 0.32804
 C456 C 0.48141 0.71889 0.37268
 H457 H 0.46428 0.71593 0.38617
 C458 C 0.49291 0.69603 0.35961
 H459 H 0.48436 0.67574 0.36315
 N460 N 0.49275 0.74441 0.36985
 C461 C 0.46002 0.82617 0.38442
 H462 H 0.45893 0.82608 0.40663
 C463 C 0.45119 0.84891 0.37034
 H464 H 0.44263 0.86556 0.38240
 C465 C 0.47093 0.80313 0.34258
 H466 H 0.47858 0.78519 0.33185
 C467 C 0.46221 0.82542 0.32757
 H468 H 0.46442 0.82418 0.30546
 Zn469 Zn 0.48137 0.77457 0.39202
 N470 N 0.46996 0.80404 0.37050
 C471 C 0.52306 0.81112 0.41057
 N472 N 0.51174 0.78564 0.41356
 C473 C 0.52393 0.76648 0.42893
 C474 C 0.54900 0.77235 0.44129
 C475 C 0.54804 0.81781 0.42248
 C476 C 0.42872 0.75627 0.40037
 C477 C 0.40611 0.74676 0.41470
 C478 C 0.43088 0.75401 0.45716
 C479 C 0.45313 0.76332 0.44194
 N480 N 0.45178 0.76374 0.41403
 H481 H 0.51347 0.82588 0.39781
 H482 H 0.51477 0.74617 0.43048
 H483 H 0.55903 0.75649 0.45240
 H484 H 0.55710 0.83794 0.41923
 H485 H 0.42820 0.75706 0.37817
 H486 H 0.38839 0.73981 0.40323
 H487 H 0.43233 0.75354 0.47934
 H488 H 0.47151 0.76991 0.45240
 C489 C 0.45219 0.84909 0.34130
 C490 C 0.51644 0.69946 0.34373
 C491 C 0.40707 0.74521 0.44348
 C492 C 0.56169 0.79805 0.43740
 Si493 Si 0.36320 0.00879 0.23767
 Si494 Si 0.12632 1.00734 0.75243
 Si495 Si 0.61916 0.52390 0.27511
 Si496 Si 0.86945 0.49346 0.76490
 Si497 Si 0.25965 0.36933 0.00402
 Si498 Si 0.74718 0.12854 1.00432
 Si499 Si 0.24473 0.62673 0.51346
 Si500 Si 0.75813 0.86021 0.49407
 Si501 Si 0.00171 0.25873 0.36480
 Si502 Si 1.00402 0.75048 0.11568
 Si503 Si 0.50100 0.22992 0.60781
 Si504 Si 0.50805 0.73838 0.85625
 C505 C 0.42266 -0.08201 0.29841
 C506 C 0.42340 -0.10828 0.28532
 C507 C 0.43362 -0.13077 0.29928
 C508 C 0.44307 -0.12788 0.32662
 C509 C 0.44278 -0.10136 0.33909
 C510 C 0.43285 -0.07890 0.32530
 C511 C 0.41041 -0.05883 0.28326
 C512 C 0.40788 -0.03211 0.29484
 C513 C 0.39480 -0.01176 0.28052
 C514 C 0.38422 -0.01739 0.25429
 C515 C 0.38722 -0.04359 0.24220
 C516 C 0.40011 -0.06432 0.25649
 C517 C 0.41339 -0.11216 0.25853
 C518 C 0.40203 -0.09067 0.24443
 H519 H 0.41404 -0.13224 0.24840
 H520 H 0.39423 -0.09486 0.22390
 H521 H 0.43265 -0.15078 0.28904
 H522 H 0.45102 -0.09737 0.35942
 H523 H 0.39232 0.00831 0.29028
 H524 H 0.37875 -0.04825 0.22207
 H525 H 0.43333 -0.05930 0.33618
 H526 H 0.41527 -0.02662 0.31512
 C527 C 0.94225 0.40262 0.80751
 C528 C 0.93925 0.37614 0.79492
 C529 C 0.95106 0.35332 0.80690
 C530 C 0.96553 0.35634 0.83163
 C531 C 0.96927 0.38274 0.84350
 C532 C 0.95791 0.40559 0.83162
 C533 C 0.92747 0.42603 0.79536
 C534 C 0.92831 0.45294 0.80690
 C535 C 0.91196 0.47326 0.79655
 C536 C 0.89446 0.46731 0.77454
 C537 C 0.89496 0.44133 0.76151
 C538 C 0.91100 0.42055 0.77198
 C539 C 0.92367 0.37241 0.77104
 C540 C 0.90984 0.39413 0.75982
 H541 H 0.92155 0.35220 0.76126
 H542 H 0.89746 0.38999 0.74176
 H543 H 0.94787 0.33299 0.79766
 H544 H 0.98079 0.38568 0.86230
 H545 H 0.91216 0.49345 0.80652
 H546 H 0.88218 0.43681 0.74388
 H547 H 0.96117 0.42522 0.84201
 H548 H 0.94083 0.45856 0.82436
 C549 C 0.07385 1.10846 0.80896
 C550 C 0.04529 1.10973 0.80871
 C551 C 0.03243 1.13323 0.81941
 C552 C 0.04766 1.15546 0.83083
 C553 C 0.07594 1.15370 0.83160
 C554 C 0.08887 1.13064 0.82084
 C555 C 0.08689 1.08349 0.79664
 C556 C 0.11511 1.08139 0.79395
 C557 C 0.12635 1.05825 0.78149
 C558 C 0.10999 1.03626 0.77182
 C559 C 0.08180 1.03807 0.77415
 C560 C 0.07014 1.06163 0.78626
 C561 C 0.02979 1.08750 0.79798
 C562 C 0.04193 1.06386 0.78726
 H563 H 0.00789 1.08834 0.79794
 H564 H 0.02903 1.04725 0.77922
 H565 H 0.01057 1.13426 0.81867
 H566 H 0.08821 1.17002 0.84109
 H567 H 0.14793 1.05836 0.77828
 H568 H 0.06886 1.02179 0.76563
 H569 H 0.11061 1.13054 0.82241
 H570 H 0.12891 1.09773 0.80046
 C571 C 0.56013 0.62815 0.31564
 C572 C 0.53165 0.62861 0.31290
 C573 C 0.51742 0.65201 0.32169
 C574 C 0.53124 0.67519 0.33298
 C575 C 0.55950 0.67474 0.33518
 C576 C 0.57378 0.65167 0.32662
 C577 C 0.57457 0.60268 0.30661
 C578 C 0.60272 0.59998 0.30949
 C579 C 0.61535 0.57616 0.30036
 C580 C 0.60041 0.55441 0.28808
 C581 C 0.57231 0.55636 0.28566
 C582 C 0.55926 0.58037 0.29487
 C583 C 0.51760 0.60575 0.30142
 C584 C 0.53112 0.58223 0.29244
 H585 H 0.49580 0.60608 0.29923
 H586 H 0.51934 0.56519 0.28356
 H587 H 0.49559 0.65223 0.31964
 H588 H 0.57067 0.69212 0.34420
 H589 H 0.63709 0.57484 0.30259
 H590 H 0.56066 0.53940 0.27646
 H591 H 0.59545 0.65275 0.32897
 H592 H 0.61545 0.61595 0.31868
 C593 C 0.55922 0.42083 0.22804
 C594 C 0.56292 0.39594 0.24196
 C595 C 0.55411 0.37072 0.22991
 C596 C 0.54208 0.36977 0.20380
 C597 C 0.53778 0.39452 0.19043
 C598 C 0.54611 0.41969 0.20234
 C599 C 0.57055 0.44709 0.24073
 C600 C 0.56867 0.47285 0.22820
 C601 C 0.58183 0.49618 0.23957
 C602 C 0.59692 0.49444 0.26370
 C603 C 0.59766 0.46939 0.27722
 C604 C 0.58478 0.44573 0.26588
 C605 C 0.57618 0.39626 0.26739
 C606 C 0.58693 0.42060 0.27904
 H607 H 0.57888 0.37728 0.27815
 H608 H 0.59763 0.41961 0.29841
 H609 H 0.55766 0.35170 0.24034
 H610 H 0.52807 0.39438 0.17048
 H611 H 0.58109 0.51542 0.22889
 H612 H 0.60916 0.46790 0.29602
 H613 H 0.54253 0.43790 0.19083
 H614 H 0.55783 0.47530 0.20925
 C615 C 0.05810 0.90682 0.71171
 C616 C 0.06496 0.89624 0.68530
 C617 C 0.05420 0.87085 0.67592
 C618 C 0.03549 0.85590 0.69180
 C619 C 0.02811 0.86679 0.71772
 C620 C 0.03933 0.89181 0.72764
 C621 C 0.07151 0.93331 0.72150
 C622 C 0.06841 0.94434 0.74840
 C623 C 0.08338 0.96771 0.75713
 C624 C 0.10132 0.98087 0.73914
 C625 C 0.10334 0.97103 0.71196
 C626 C 0.08925 0.94708 0.70325
 C627 C 0.08254 0.91101 0.66826
 C628 C 0.09407 0.93610 0.67687
 H629 H 0.08750 0.90304 0.64789
 H630 H 0.10770 0.94662 0.66295
 H631 H 0.06080 0.86263 0.65617
 H632 H 0.01336 0.85615 0.73030
 H633 H 0.08196 0.97471 0.77840
 H634 H 0.11719 0.98087 0.69786
 H635 H 0.03288 0.89917 0.74766
 H636 H 0.05549 0.93457 0.76333
 C637 C 0.92994 0.59972 0.73040
 C638 C 0.94505 0.59783 0.70571
 C639 C 0.95671 0.62155 0.69444
 C640 C 0.95400 0.64747 0.70749
 C641 C 0.93960 0.64920 0.73235
 C642 C 0.92770 0.62571 0.74367
 C643 C 0.91653 0.57403 0.74085
 C644 C 0.89984 0.57382 0.76439
 C645 C 0.88641 0.54966 0.77217
 C646 C 0.88932 0.52522 0.75673
 C647 C 0.90707 0.52475 0.73431
 C648 C 0.92019 0.54899 0.72589
 C649 C 0.94818 0.57234 0.69214
 C650 C 0.93619 0.54842 0.70213
 H651 H 0.95995 0.57088 0.67335
 H652 H 0.93901 0.52925 0.69071
 H653 H 0.96732 0.61982 0.67497
 H654 H 0.93752 0.66879 0.74315
 H655 H 0.87358 0.55034 0.79018
 H656 H 0.90971 0.50568 0.72265
 H657 H 0.91678 0.62840 0.76274
 H658 H 0.89646 0.59213 0.77678
 C659 C 0.42819 0.11504 0.21059
 C660 C 0.41418 0.13525 0.19614
 C661 C 0.42753 0.15979 0.18884
 C662 C 0.45494 0.16446 0.19523
 C663 C 0.46873 0.14454 0.20972
 C664 C 0.45557 0.12022 0.21745
 C665 C 0.41329 0.08886 0.21750
 C666 C 0.42524 0.06747 0.23193
 C667 C 0.41044 0.04353 0.23784
 C668 C 0.38342 0.04038 0.22963
 C669 C 0.37150 0.06115 0.21474
 C670 C 0.38603 0.08543 0.20892
 C671 C 0.38711 0.13065 0.18855
 C672 C 0.37339 0.10625 0.19470
 H673 H 0.37641 0.14610 0.17746
 H674 H 0.35250 0.10364 0.18823
 H675 H 0.41683 0.17488 0.17724
 H676 H 0.48987 0.14776 0.21498
 H677 H 0.42028 0.02754 0.24886
 H678 H 0.35072 0.05848 0.20788
 H679 H 0.46730 0.10567 0.22844
 H680 H 0.44593 0.06880 0.23889
 C681 C 0.29938 0.41479 -0.10684
 C682 C 0.29597 0.44313 -0.11154
 C683 C 0.30713 0.45505 -0.13518
 C684 C 0.32233 0.43923 -0.15387
 C685 C 0.32541 0.41116 -0.14929
 C686 C 0.31402 0.39902 -0.12624
 C687 C 0.28805 0.40302 -0.08096
 C688 C 0.29055 0.37515 -0.07446
 C689 C 0.28111 0.36546 -0.04946
 C690 C 0.26864 0.38306 -0.03034
 C691 C 0.26559 0.41077 -0.03664
 C692 C 0.27504 0.42083 -0.06187
 C693 C 0.28210 0.45948 -0.09225
 C694 C 0.27203 0.44862 -0.06788
 H695 H 0.27944 0.48116 -0.09580
 H696 H 0.26192 0.46227 -0.05341
 H697 H 0.30485 0.47683 -0.13856
 H698 H 0.33680 0.39851 -0.16365
 H699 H 0.28464 0.34425 -0.04469
 H700 H 0.25654 0.42473 -0.02180
 H701 H 0.31734 0.37739 -0.12389
 H702 H 0.30017 0.36052 -0.08809
 C703 C 0.79914 0.91889 0.39042
 C704 C 0.80196 0.94792 0.39167
 C705 C 0.81151 0.96208 0.36863
 C706 C 0.81752 0.94776 0.34401
 C707 C 0.81359 0.91916 0.34252
 C708 C 0.80458 0.90486 0.36537
 C709 C 0.79008 0.90439 0.41573
 C710 C 0.78925 0.87552 0.41728
 C711 C 0.78017 0.86291 0.44105
 C712 C 0.77139 0.87865 0.46368
 C713 C 0.77302 0.90738 0.46295
 C714 C 0.78260 0.92038 0.43920
 C715 C 0.79499 0.96256 0.41576
 C716 C 0.78507 0.94912 0.43885
 H717 H 0.79691 0.98481 0.41668
 H718 H 0.77960 0.96140 0.45684
 H719 H 0.81407 0.98429 0.36973
 H720 H 0.81815 0.90770 0.32374
 H721 H 0.77955 0.84065 0.44158
 H722 H 0.76689 0.91958 0.48075
 H723 H 0.80195 0.88287 0.36291
 H724 H 0.79568 0.86228 0.40051
 C725 C 0.78154 0.05458 1.09861
 C726 C 0.77032 0.06032 1.12483
 C727 C 0.78095 0.04820 1.14827
 C728 C 0.80306 0.03034 1.14635
 C729 C 0.81286 0.02350 1.11982
 C730 C 0.80235 0.03538 1.09644
 C731 C 0.77145 0.07001 1.07451
 C732 C 0.78275 0.06736 1.04795
 C733 C 0.77439 0.08412 1.02686
 C734 C 0.75457 0.10376 1.03167
 C735 C 0.74195 0.10543 1.05743
 C736 C 0.75057 0.08911 1.07898
 C737 C 0.74897 0.07867 1.12766
 C738 C 0.73920 0.09264 1.10520
 H739 H 0.74005 0.08280 1.14768
 H740 H 0.72307 0.10709 1.10859
 H741 H 0.77164 0.05275 1.16799
 H742 H 0.83002 0.01035 1.11680
 H743 H 0.78413 0.08240 1.00693
 H744 H 0.72617 0.12012 1.06116
 H745 H 0.81138 0.02977 1.07696
 H746 H 0.79862 0.05314 1.04318
 C747 C 0.28821 0.55362 0.60442
 C748 C 0.27683 0.55688 0.63102
 C749 C 0.28832 0.54378 0.65349
 C750 C 0.31131 0.52758 0.64998
 C751 C 0.32227 0.52413 0.62351
 C752 C 0.31091 0.53684 0.60105
 C753 C 0.27623 0.56903 0.58124
 C754 C 0.28637 0.56753 0.55413
 C755 C 0.27590 0.58396 0.53380
 C756 C 0.25511 0.60217 0.53993
 C757 C 0.24371 0.60271 0.56630
 C758 C 0.25426 0.58648 0.58705
 C759 C 0.25445 0.57368 0.63516
 C760 C 0.24345 0.58822 0.61367
 H761 H 0.24560 0.57608 0.65547
 H762 H 0.22650 0.60141 0.61808
 H763 H 0.27949 0.54639 0.67379
 H764 H 0.34027 0.51216 0.62020
 H765 H 0.28470 0.58310 0.51338
 H766 H 0.22726 0.61635 0.57106
 H767 H 0.32059 0.53366 0.58138
 H768 H 0.30272 0.55428 0.54827
 C769 C 0.21494 0.56601 0.40411
 C770 C 0.19110 0.54936 0.40431
 C771 C 0.18029 0.53867 0.37951
 C772 C 0.19295 0.54415 0.35433
 C773 C 0.21737 0.55931 0.35427
 C774 C 0.22826 0.57016 0.37882
 C775 C 0.22433 0.57922 0.43073
 C776 C 0.24638 0.59802 0.43239
 C777 C 0.25292 0.61153 0.45722
 C778 C 0.23774 0.60661 0.48099
 C779 C 0.21693 0.58664 0.48007
 C780 C 0.20963 0.57348 0.45504
 C781 C 0.17786 0.54397 0.42915
 C782 C 0.18709 0.55555 0.45401
 H783 H 0.15981 0.53091 0.42933
 H784 H 0.17588 0.55108 0.47260
 H785 H 0.16165 0.52649 0.37970
 H786 H 0.22750 0.56371 0.33506
 H787 H 0.26976 0.62607 0.45753
 H788 H 0.20559 0.58230 0.49863
 H789 H 0.24682 0.58212 0.37743
 H790 H 0.25845 0.60314 0.41468
 C791 C 0.71452 0.06429 0.89769
 C792 C 0.68906 0.05053 0.89803
 C793 C 0.67826 0.03876 0.87371
 C794 C 0.69244 0.04003 0.84853
 C795 C 0.71855 0.05228 0.84883
 C796 C 0.72933 0.06435 0.87292
 C797 C 0.72428 0.07854 0.92368
 C798 C 0.74820 0.09483 0.92498
 C799 C 0.75540 0.10920 0.94918
 C800 C 0.73900 0.10767 0.97262
 C801 C 0.71606 0.09032 0.97210
 C802 C 0.70819 0.07636 0.94770
 C803 C 0.67434 0.04875 0.92260
 C804 C 0.68385 0.06112 0.94696
 H805 H 0.65499 0.03783 0.92295
 H806 H 0.67155 0.05939 0.96534
 H807 H 0.65889 0.02798 0.87476
 H808 H 0.73031 0.05412 0.83016
 H809 H 0.77379 0.12161 0.94931
 H810 H 0.70367 0.08866 0.99044
 H811 H 0.74914 0.07397 0.87155
 H812 H 0.76131 0.09725 0.90743
 C813 C 0.72411 0.92838 0.59673
 C814 C 0.69942 0.94240 0.59494
 C815 C 0.68822 0.95502 0.61851
 C816 C 0.70125 0.95403 0.64412
 C817 C 0.72614 0.94084 0.64563
 C818 C 0.73746 0.92822 0.62232
 C819 C 0.73447 0.91369 0.57144
 C820 C 0.75796 0.89779 0.57146
 C821 C 0.76566 0.88283 0.54798
 C822 C 0.75042 0.88362 0.52380
 C823 C 0.72764 0.90017 0.52310
 C824 C 0.71936 0.91491 0.54679
 C825 C 0.68575 0.94331 0.56978
 C826 C 0.69557 0.92999 0.54620
 H827 H 0.66694 0.95423 0.56837
 H828 H 0.68403 0.93100 0.52735
 H829 H 0.66882 0.96483 0.61703
 H830 H 0.73691 0.94021 0.66496
 H831 H 0.78327 0.87013 0.54916
 H832 H 0.71570 0.90062 0.50444
 H833 H 0.75655 0.91830 0.62490
 H834 H 0.77029 0.89599 0.58954
 C835 C 0.22003 0.44706 0.09700
 C836 C 0.23397 0.44633 0.12237
 C837 C 0.22320 0.45925 0.14601
 C838 C 0.19819 0.47233 0.14509
 C839 C 0.18464 0.47333 0.11979
 C840 C 0.19541 0.46105 0.09607
 C841 C 0.23133 0.43153 0.07266
 C842 C 0.21899 0.43080 0.04652
 C843 C 0.22865 0.41361 0.02542
 C844 C 0.25082 0.39686 0.02982
 C845 C 0.26433 0.39880 0.05512
 C846 C 0.25481 0.41595 0.07649
 C847 C 0.25803 0.43184 0.12429
 C848 C 0.26808 0.41676 0.10191
 H849 H 0.26880 0.43139 0.14365
 H850 H 0.28627 0.40510 0.10472
 H851 H 0.23407 0.45859 0.16530
 H852 H 0.16509 0.48280 0.11843
 H853 H 0.21785 0.41228 0.00607
 H854 H 0.28150 0.38599 0.05883
 H855 H 0.18371 0.46204 0.07746
 H856 H 0.20143 0.44270 0.04214
 C857 C -0.10353 0.29335 0.42379
 C858 C -0.10318 0.29721 0.45274
 C859 C -0.12610 0.30753 0.46650
 C860 C -0.14933 0.31411 0.45165
 C861 C -0.15001 0.30873 0.42322
 C862 C -0.12755 0.29844 0.40946
 C863 C -0.07818 0.28443 0.40955
 C864 C -0.07609 0.28226 0.38072
 C865 C -0.05196 0.27469 0.36828
 C866 C -0.02919 0.26913 0.38404
 C867 C -0.03094 0.27069 0.41279
 C868 C -0.05519 0.27881 0.42566
 C869 C -0.07985 0.29118 0.46759
 C870 C -0.05649 0.28187 0.45437
 H871 H -0.07959 0.29384 0.48978
 H872 H -0.03898 0.27759 0.46679
 H873 H -0.12548 0.31145 0.48853
 H874 H -0.16797 0.31290 0.41144
 H875 H -0.05104 0.27332 0.34602
 H876 H -0.01364 0.26576 0.42514
 H877 H -0.12945 0.29493 0.38758
 H878 H -0.09266 0.28665 0.36728
 C879 C 0.40016 0.77073 0.91207
 C880 C 0.38204 0.78513 0.89544
 C881 C 0.35859 0.79634 0.90695
 C882 C 0.35252 0.79322 0.93485
 C883 C 0.36953 0.77763 0.95102
 C884 C 0.39316 0.76653 0.93982
 C885 C 0.42615 0.76115 0.89938
 C886 C 0.44690 0.74913 0.91457
 C887 C 0.47128 0.74185 0.90191
 C888 C 0.47532 0.74592 0.87379
 C889 C 0.45484 0.75778 0.85856
 C890 C 0.43056 0.76566 0.87107
 C891 C 0.38758 0.78870 0.86752
 C892 C 0.41118 0.77889 0.85552
 H893 H 0.37354 0.79945 0.85476
 H894 H 0.41461 0.78234 0.83386
 H895 H 0.34518 0.80801 0.89429
 H896 H 0.36507 0.77492 0.97261
 H897 H 0.48702 0.73347 0.91434
 H898 H 0.45821 0.76209 0.83709
 H899 H 0.40581 0.75510 0.95326
 H900 H 0.44497 0.74581 0.93633
 C901 C 1.10654 0.78247 0.05008
 C902 C 1.10806 0.80958 0.04019
 C903 C 1.13207 0.81958 0.02828
 C904 C 1.15505 0.80317 0.02627
 C905 C 1.15362 0.77637 0.03622
 C906 C 1.12970 0.76607 0.04788
 C907 C 1.08065 0.77292 0.06335
 C908 C 1.07678 0.74626 0.07356
 C909 C 1.05306 0.73916 0.08763
 C910 C 1.03264 0.75835 0.09181
 C911 C 1.03558 0.78435 0.08037
 C912 C 1.05933 0.79178 0.06625
 C913 C 1.08582 0.82683 0.04276
 C914 C 1.06207 0.81820 0.05569
 H915 H 1.08699 0.84757 0.03513
 H916 H 1.04567 0.83256 0.05770
 H917 H 1.13310 0.84053 0.02121
 H918 H 1.17102 0.76325 0.03479
 H919 H 1.05110 0.71876 0.09589
 H920 H 1.01990 0.79929 0.08317
 H921 H 1.12987 0.74537 0.05530
 H922 H 1.09197 0.73077 0.07136
 C923 C 0.60141 0.27842 0.54956
 C924 C 0.60308 0.30742 0.54791
 C925 C 0.62682 0.32026 0.53829
 C926 C 0.64936 0.30476 0.53055
 C927 C 0.64776 0.27604 0.53229
 C928 C 0.62409 0.26298 0.54156
 C929 C 0.57590 0.26563 0.56077
 C930 C 0.57190 0.23698 0.56296
 C931 C 0.54868 0.22629 0.57558
 C932 C 0.52899 0.24384 0.58626
 C933 C 0.53186 0.27220 0.58263
 C934 C 0.55514 0.28321 0.57011
 C935 C 0.58135 0.32355 0.55648
 C936 C 0.55797 0.31172 0.56753
 H937 H 0.58265 0.34575 0.55517
 H938 H 0.54198 0.32515 0.57447
 H939 H 0.62803 0.34252 0.53761
 H940 H 0.66484 0.26364 0.52633
 H941 H 0.54662 0.20427 0.57770
 H942 H 0.51634 0.28585 0.59018
 H943 H 0.62413 0.24086 0.54263
 H944 H 0.58663 0.22251 0.55555
 C945 C 0.40069 0.18356 0.54583
 C946 C 0.38322 0.16623 0.56112
 C947 C 0.35853 0.15687 0.54995
 C948 C 0.35052 0.16449 0.52364
 C949 C 0.36764 0.18182 0.50850
 C950 C 0.39248 0.19120 0.51938
 C951 C 0.42672 0.19351 0.55894
 C952 C 0.44573 0.21084 0.54574
 C953 C 0.46888 0.22076 0.55966
 C954 C 0.47349 0.21346 0.58683
 C955 C 0.45528 0.19564 0.59981
 C956 C 0.43210 0.18558 0.58617
 C957 C 0.39021 0.15860 0.58766
 C958 C 0.41407 0.16818 0.59997
 H959 H 0.37682 0.14530 0.59929
 H960 H 0.41835 0.16204 0.62076
 H961 H 0.34516 0.14401 0.56211
 H962 H 0.36194 0.18789 0.48809
 H963 H 0.48269 0.23478 0.54950
 H964 H 0.45868 0.19032 0.62103
 H965 H 0.40483 0.20449 0.50685
 H966 H 0.44286 0.21734 0.52494
 C967 C 0.89726 0.70696 0.06279
 C968 C 0.87651 0.69956 0.08151
 C969 C 0.85209 0.68784 0.07183
 C970 C 0.84758 0.68359 0.04362
 C971 C 0.86756 0.69196 0.02493
 C972 C 0.89220 0.70342 0.03435
 C973 C 0.92365 0.71807 0.07426
 C974 C 0.94642 0.72442 0.05777
 C975 C 0.97069 0.73410 0.06977
 C976 C 0.97261 0.73769 0.09831
 C977 C 0.95014 0.73182 0.11480
 C978 C 0.92594 0.72172 0.10315
 C979 C 0.88020 0.70372 0.10983
 C980 C 0.90428 0.71483 0.12040
 H981 H 0.86421 0.69826 0.12410
 H982 H 0.90614 0.71763 0.14250
 H983 H 0.83646 0.68186 0.08634
 H984 H 0.86441 0.68890 0.00302
 H985 H 0.98793 0.73871 0.05678
 H986 H 0.95171 0.73467 0.13694
 H987 H 0.90703 0.70917 0.01913
 H988 H 0.94596 0.72177 0.03569
 C989 C 0.60412 0.70683 0.92963
 C990 C 0.60060 0.68301 0.94547
 C991 C 0.62254 0.67261 0.95993
 C992 C 0.64825 0.68543 0.95878
 C993 C 0.65156 0.70933 0.94350
 C994 C 0.62984 0.71997 0.92919
 C995 C 0.58050 0.71644 0.91338
 C996 C 0.58214 0.73933 0.89625
 C997 C 0.56017 0.74631 0.88009
 C998 C 0.53593 0.73089 0.88073
 C999 C 0.53366 0.70873 0.89847
 C1000 C 0.55575 0.70126 0.91458
 C1001 C 0.57537 0.66934 0.94633
 C1002 C 0.55344 0.67826 0.93122
 H1003 H 0.57264 0.65117 0.95856
 H1004 H 0.53449 0.66669 0.93224
 H1005 H 0.61978 0.65390 0.97134
 H1006 H 0.67107 0.71984 0.94257
 H1007 H 0.56261 0.76348 0.86656
 H1008 H 0.51503 0.69655 0.89883
 H1009 H 0.63375 0.73829 0.91770
 H1010 H 0.60034 0.75178 0.89452
 C1011 C 0.10449 0.22038 0.42388
 C1012 C 0.11926 0.19977 0.40968
 C1013 C 0.14276 0.18945 0.42125
 C1014 C 0.15135 0.19833 0.44745
 C1015 C 0.13651 0.21826 0.46192
 C1016 C 0.11349 0.22944 0.45017
 C1017 C 0.07938 0.23073 0.41063
 C1018 C 0.06444 0.25298 0.42144
 C1019 C 0.04107 0.26157 0.40811
 C1020 C 0.03169 0.24756 0.38439
 C1021 C 0.04684 0.22607 0.37311
 C1022 C 0.07064 0.21785 0.38568
 C1023 C 0.11000 0.18875 0.38448
 C1024 C 0.08595 0.19723 0.37300
 H1025 H 0.12122 0.17284 0.37375
 H1026 H 0.07937 0.18767 0.35370
 H1027 H 0.15376 0.17345 0.41037
 H1028 H 0.14268 0.22503 0.48239
 H1029 H 0.03058 0.27932 0.41620
 H1030 H 0.04057 0.21606 0.35393
 H1031 H 0.10263 0.24455 0.46220
 H1032 H 0.07084 0.26431 0.43974
 C1033 C 0.54753 0.13598 0.67549
 C1034 C 0.54820 0.10977 0.66210
 C1035 C 0.55944 0.08746 0.67536
 C1036 C 0.57095 0.09093 0.70154
 C1037 C 0.57043 0.11685 0.71479
 C1038 C 0.55869 0.13909 0.70207
 C1039 C 0.53580 0.15939 0.66030
 C1040 C 0.53297 0.18604 0.67204
 C1041 C 0.52244 0.20723 0.65666
 C1042 C 0.51481 0.20238 0.62927
 C1043 C 0.51721 0.17597 0.61754
 C1044 C 0.52723 0.15445 0.63284
 C1045 C 0.53850 0.10613 0.63522
 C1046 C 0.52854 0.12807 0.62078
 H1047 H 0.53910 0.08610 0.62496
 H1048 H 0.52171 0.12429 0.59984
 H1049 H 0.56031 0.06757 0.66481
 H1050 H 0.57930 0.11993 0.73501
 H1051 H 0.52042 0.22738 0.66624
 H1052 H 0.51106 0.17205 0.59639
 H1053 H 0.55910 0.15861 0.71312
 H1054 H 0.53860 0.19089 0.69305
 C1055 C 1.04870 0.65787 0.18631
 C1056 C 1.03846 0.63095 0.18047
 C1057 C 1.05014 0.60826 0.19273
 C1058 C 1.07167 0.61187 0.21139
 C1059 C 1.08054 0.63877 0.21848
 C1060 C 1.06931 0.66145 0.20610
 C1061 C 1.03733 0.68127 0.17088
 C1062 C 1.04842 0.70823 0.17248
 C1063 C 1.03796 0.72896 0.15650
 C1064 C 1.01586 0.72351 0.13915
 C1065 C 1.00469 0.69681 0.13735
 C1066 C 1.01548 0.67564 0.15268
 C1067 C 1.01684 0.62678 0.16217
 C1068 C 1.00529 0.64871 0.14894
 H1069 H 1.00874 0.60622 0.15795
 H1070 H 0.98863 0.64439 0.13492
 H1071 H 1.04300 0.58771 0.18691
 H1072 H 1.09641 0.64236 0.23353
 H1073 H 1.04756 0.74919 0.15728
 H1074 H 0.98840 0.69203 0.12308
 H1075 H 1.07710 0.68157 0.21224
 H1076 H 1.06568 0.71352 0.18522
 C1077 C 0.96394 0.85634 0.17474
 C1078 C 0.94953 0.87461 0.15826
 C1079 C 0.93841 0.89843 0.17008
 C1080 C 0.94122 0.90451 0.19829
 C1081 C 0.95595 0.88671 0.21451
 C1082 C 0.96726 0.86298 0.20294
 C1083 C 0.97462 0.83058 0.16141
 C1084 C 0.98841 0.81047 0.17601
 C1085 C 0.99748 0.78660 0.16260
 C1086 C 0.99331 0.78239 0.13435
 C1087 C 0.97922 0.80195 0.11978
 C1088 C 0.97001 0.82594 0.13293
 C1089 C 0.94588 0.86884 0.13016
 C1090 C 0.95594 0.84505 0.11776
 H1091 H 0.93491 0.88286 0.11755
 H1092 H 0.95246 0.84146 0.09595
 H1093 H 0.92672 0.91180 0.15740
 H1094 H 0.95869 0.89112 0.23628
 H1095 H 1.00746 0.77142 0.17454
 H1096 H 0.97500 0.79827 0.09811
 H1097 H 0.97830 0.85007 0.21646
 H1098 H 0.99215 0.81262 0.19780
 C1099 C 0.45085 0.32976 0.66873
 C1100 C 0.46830 0.34714 0.68477
 C1101 C 0.45829 0.37111 0.69765
 C1102 C 0.43106 0.37820 0.69454
 C1103 C 0.41407 0.36112 0.67817
 C1104 C 0.42371 0.33727 0.66552
 C1105 C 0.46217 0.30443 0.65531
 C1106 C 0.44621 0.28567 0.63949
 C1107 C 0.45779 0.26312 0.62626
 C1108 C 0.48551 0.25837 0.62859
 C1109 C 0.50154 0.27634 0.64501
 C1110 C 0.49007 0.29931 0.65841
 C1111 C 0.49562 0.34060 0.68760
 C1112 C 0.50632 0.31732 0.67453
 H1113 H 0.50904 0.35387 0.69984
 H1114 H 0.52766 0.31340 0.67706
 H1115 H 0.47163 0.38411 0.71027
 H1116 H 0.39319 0.36641 0.67477
 H1117 H 0.44480 0.24978 0.61377
 H1118 H 0.52307 0.27293 0.64665
 H1119 H 0.40955 0.32527 0.65311
 H1120 H 0.42478 0.28810 0.63675
 C1121 C 0.47456 0.63497 0.78775
 C1122 C 0.48483 0.60980 0.79681
 C1123 C 0.47331 0.58470 0.78732
 C1124 C 0.45166 0.58418 0.76873
 C1125 C 0.44265 0.60901 0.75841
 C1126 C 0.45391 0.63413 0.76777
 C1127 C 0.48518 0.66127 0.80094
 C1128 C 0.47458 0.68723 0.79540
 C1129 C 0.48286 0.71059 0.81074
 C1130 C 0.50201 0.70872 0.83171
 C1131 C 0.51439 0.68352 0.83573
 C1132 C 0.50567 0.65973 0.82110
 C1133 C 0.50591 0.60981 0.81599
 C1134 C 0.51629 0.63426 0.82768
 H1135 H 0.51408 0.59056 0.82258
 H1136 H 0.53212 0.63312 0.84297
 H1137 H 0.48064 0.56550 0.79501
 H1138 H 0.42597 0.60906 0.74400
 H1139 H 0.47369 0.73000 0.80656
 H1140 H 0.52989 0.68189 0.85118
 H1141 H 0.44567 0.65258 0.75964
 H1142 H 0.45918 0.68980 0.78007
 C1143 C -0.04383 0.15387 0.30561
 C1144 C -0.05645 0.13439 0.32291
 C1145 C -0.06891 0.11061 0.31155
 C1146 C -0.06851 0.10537 0.28313
 C1147 C -0.05504 0.12392 0.26600
 C1148 C -0.04295 0.14804 0.27705
 C1149 C -0.03196 0.17971 0.31864
 C1150 C -0.02094 0.20163 0.30338
 C1151 C -0.01069 0.22550 0.31674
 C1152 C -0.01096 0.22772 0.34544
 C1153 C -0.02168 0.20615 0.36075
 C1154 C -0.03254 0.18248 0.34769
 C1155 C -0.05653 0.13860 0.35146
 C1156 C -0.04447 0.16195 0.36361
 H1157 H -0.06596 0.12353 0.36466
 H1158 H -0.04497 0.16422 0.38584
 H1159 H -0.07885 0.09595 0.32487
 H1160 H -0.05440 0.12003 0.24399
 H1161 H -0.00269 0.24217 0.30463
 H1162 H -0.02205 0.20805 0.38303
 H1163 H -0.03303 0.16179 0.26298
 H1164 H -0.02047 0.20089 0.28120
 C1165 C 0.04623 0.35724 0.29949
 C1166 C 0.03338 0.38270 0.30405
 C1167 C 0.04430 0.40680 0.29280
 C1168 C 0.06840 0.40627 0.27751
 C1169 C 0.08074 0.38091 0.27243
 C1170 C 0.06980 0.35670 0.28314
 C1171 C 0.03473 0.33226 0.31324
 C1172 C 0.04608 0.30595 0.31041
 C1173 C 0.03553 0.28381 0.32510
 C1174 C 0.01346 0.28734 0.34277
 C1175 C 0.00161 0.31317 0.34525
 C1176 C 0.01190 0.33551 0.33056
 C1177 C 0.01019 0.38421 0.32054
 C1178 C -0.00021 0.36116 0.33365
 H1179 H 0.00028 0.40367 0.32393
 H1180 H -0.01784 0.36355 0.34672
 H1181 H 0.03428 0.42617 0.29648
 H1182 H 0.09951 0.37986 0.26097
 H1183 H 0.04500 0.26398 0.32307
 H1184 H -0.01518 0.31629 0.35920
 H1185 H 0.08052 0.33797 0.27899
 H1186 H 0.06329 0.30211 0.29732
 C1187 C 0.54547 0.84632 0.80258
 C1188 C 0.55861 0.84439 0.77672
 C1189 C 0.57097 0.86791 0.76545
 C1190 C 0.57058 0.89332 0.77981
 C1191 C 0.55622 0.89538 0.80462
 C1192 C 0.54372 0.87232 0.81582
 C1193 C 0.53471 0.82049 0.81514
 C1194 C 0.52359 0.82013 0.84183
 C1195 C 0.51531 0.79546 0.85336
 C1196 C 0.51750 0.77060 0.83857
 C1197 C 0.52809 0.77050 0.81185
 C1198 C 0.53705 0.79528 0.80015
 C1199 C 0.55989 0.81890 0.76270
 C1200 C 0.54912 0.79492 0.77405
 H1201 H 0.56968 0.81739 0.74277
 H1202 H 0.55091 0.77569 0.76250
 H1203 H 0.58193 0.86620 0.74617
 H1204 H 0.55508 0.91494 0.81570
 H1205 H 0.50750 0.79581 0.87419
 H1206 H 0.53022 0.75115 0.80059
 H1207 H 0.53320 0.87532 0.83506
 H1208 H 0.52170 0.83850 0.85448
 C1209 C 0.67760 0.55789 0.16800
 C1210 C 0.67717 0.58607 0.16176
 C1211 C 0.68811 0.59535 0.13697
 C1212 C 0.69981 0.57713 0.11733
 C1213 C 0.69985 0.54891 0.12389
 C1214 C 0.68910 0.53955 0.14869
 C1215 C 0.66519 0.54891 0.19465
 C1216 C 0.66448 0.52135 0.20306
 C1217 C 0.65161 0.51411 0.22760
 C1218 C 0.63935 0.53412 0.24435
 C1219 C 0.64026 0.56155 0.23633
 C1220 C 0.65311 0.56909 0.21189
 C1221 C 0.66530 0.60501 0.18004
 C1222 C 0.65346 0.59670 0.20449
 H1223 H 0.66493 0.62665 0.17527
 H1224 H 0.64428 0.61215 0.21776
 H1225 H 0.68567 0.61684 0.13269
 H1226 H 0.70927 0.53369 0.11069
 H1227 H 0.65054 0.49267 0.23302
 H1228 H 0.63047 0.57723 0.24863
 H1229 H 0.69008 0.51782 0.15235
 H1230 H 0.67335 0.50505 0.19085
 C1231 C 0.17596 1.05533 0.64694
 C1232 C 0.19472 1.03905 0.63214
 C1233 C 0.20492 1.04788 0.60672
 C1234 C 0.19712 1.07310 0.59618
 C1235 C 0.17886 1.08930 0.61112
 C1236 C 0.16839 1.08061 0.63610
 C1237 C 0.16492 1.04494 0.67353
 C1238 C 0.14477 1.05876 0.68861
 C1239 C 0.13421 1.04779 0.71258
 C1240 C 0.14374 1.02308 0.72253
 C1241 C 0.16411 1.00924 0.70807
 C1242 C 0.17448 1.01979 0.68340
 C1243 C 0.20332 1.01426 0.64294
 C1244 C 0.19362 1.00498 0.66814
 H1245 H 0.21784 1.00186 0.63176
 H1246 H 0.20089 0.98567 0.67556
 H1247 H 0.21934 1.03545 0.59541
 H1248 H 0.17248 1.10878 0.60331
 H1249 H 0.11793 1.05847 0.72285
 H1250 H 0.17103 0.98975 0.71542
 H1251 H 0.15455 1.09414 0.64656
 H1252 H 0.13624 1.07765 0.68193
 C1253 C 0.19663 0.94994 0.83786
 C1254 C 0.19128 0.92164 0.84157
 C1255 C 0.20340 0.90798 0.86323
 C1256 C 0.22051 0.92203 0.88255
 C1257 C 0.22552 0.95041 0.87848
 C1258 C 0.21397 0.96400 0.85657
 C1259 C 0.18239 0.96391 0.81504
 C1260 C 0.18721 0.99168 0.80858
 C1261 C 0.17164 1.00423 0.78869
 C1262 C 0.15067 0.98962 0.77514
 C1263 C 0.14741 0.96140 0.77968
 C1264 C 0.16297 0.94851 0.79944
 C1265 C 0.17291 0.90722 0.82433
 C1266 C 0.15881 0.92044 0.80395
 H1267 H 0.16877 0.88550 0.82713
 H1268 H 0.14421 0.90854 0.79173
 H1269 H 0.19736 0.88672 0.86592
 H1270 H 0.23927 0.96245 0.89145
 H1271 H 0.17602 1.02545 0.78423
 H1272 H 0.13245 0.94928 0.76829
 H1273 H 0.21860 0.98567 0.85488
 H1274 H 0.20275 1.00406 0.81876
 C1275 C 0.68525 0.47919 0.37130
 C1276 C 0.70612 0.46078 0.36440
 C1277 C 0.71928 0.44668 0.38514
 C1278 C 0.71199 0.45060 0.41287
 C1279 C 0.69238 0.46999 0.41978
 C1280 C 0.67920 0.48417 0.39932
 C1281 C 0.67004 0.49193 0.34842
 C1282 C 0.64734 0.50843 0.35306
 C1283 C 0.63283 0.51843 0.33106
 C1284 C 0.64080 0.51274 0.30391
 C1285 C 0.66347 0.49659 0.29893
 C1286 C 0.67797 0.48593 0.32093
 C1287 C 0.71330 0.45606 0.33682
 C1288 C 0.69968 0.46856 0.31557
 H1289 H 0.72949 0.44219 0.33156
 H1290 H 0.70580 0.46397 0.29457
 H1291 H 0.73484 0.43214 0.37968
 H1292 H 0.68641 0.47338 0.44102
 H1293 H 0.61488 0.53010 0.33545
 H1294 H 0.66937 0.49159 0.27800
 H1295 H 0.66402 0.49851 0.40590
 H1296 H 0.63994 0.51323 0.37345
 C1297 C 0.80835 0.44872 0.66183
 C1298 C 0.81115 0.46406 0.63759
 C1299 C 0.80070 0.45353 0.61254
 C1300 C 0.78766 0.42761 0.61102
 C1301 C 0.78460 0.41261 0.63514
 C1302 C 0.79475 0.42296 0.66019
 C1303 C 0.82084 0.46020 0.68791
 C1304 C 0.81930 0.44662 0.71318
 C1305 C 0.83295 0.45732 0.73635
 C1306 C 0.84856 0.48156 0.73483
 C1307 C 0.84874 0.49620 0.71043
 C1308 C 0.83529 0.48562 0.68695
 C1309 C 0.82484 0.48958 0.63833
 C1310 C 0.83673 0.50008 0.66245
 H1311 H 0.82687 0.50140 0.61982
 H1312 H 0.84759 0.51966 0.66179
 H1313 H 0.80287 0.46548 0.59413
 H1314 H 0.77495 0.39240 0.63452
 H1315 H 0.83198 0.44615 0.75532
 H1316 H 0.85969 0.51563 0.70937
 H1317 H 0.79214 0.41024 0.67787
 H1318 H 0.80806 0.42756 0.71540
 C1319 C 0.32013 -0.04190 0.12807
 C1320 C 0.29295 -0.05168 0.12750
 C1321 C 0.28265 -0.06550 0.10387
 C1322 C 0.29908 -0.06971 0.08059
 C1323 C 0.32568 -0.05903 0.08092
 C1324 C 0.33609 -0.04531 0.10424
 C1325 C 0.33081 -0.02863 0.15416
 C1326 C 0.35802 -0.01982 0.15731
 C1327 C 0.36721 -0.00844 0.18227
 C1328 C 0.34958 -0.00539 0.20458
 C1329 C 0.32242 -0.01370 0.20178
 C1330 C 0.31298 -0.02558 0.17683
 C1331 C 0.27632 -0.04792 0.15060
 C1332 C 0.28605 -0.03496 0.17465
 H1333 H 0.25545 -0.05523 0.15014
 H1334 H 0.27239 -0.03266 0.19197
 H1335 H 0.26209 -0.07370 0.10393
 H1336 H 0.33859 -0.06134 0.06303
 H1337 H 0.38831 -0.00220 0.18422
 H1338 H 0.30879 -0.01151 0.21913
 H1339 H 0.35669 -0.03770 0.10314
 H1340 H 0.37266 -0.02189 0.14098
 C1341 C 0.28600 0.03739 0.33323
 C1342 C 0.27966 0.06545 0.33732
 C1343 C 0.26643 0.07420 0.36141
 C1344 C 0.26052 0.05571 0.38234
 C1345 C 0.26675 0.02792 0.37838
 C1346 C 0.27907 0.01874 0.35400
 C1347 C 0.30159 0.02925 0.30790
 C1348 C 0.30795 0.00178 0.30112
 C1349 C 0.32487 -0.00430 0.27882
 C1350 C 0.33594 0.01679 0.26298
 C1351 C 0.32837 0.04394 0.26844
 C1352 C 0.31104 0.05027 0.29047
 C1353 C 0.28792 0.08492 0.31815
 C1354 C 0.30371 0.07757 0.29550
 H1355 H 0.28306 0.10640 0.32131
 H1356 H 0.31054 0.09359 0.28187
 H1357 H 0.26229 0.09586 0.36468
 H1358 H 0.26249 0.01338 0.39440
 H1359 H 0.33019 -0.02549 0.27465
 H1360 H 0.33648 0.06039 0.25619
 H1361 H 0.28390 -0.00275 0.35226
 H1362 H 0.30047 -0.01519 0.31303
 C1363 C 0.80012 0.52384 0.86637
 C1364 C 0.78356 0.54705 0.86411
 C1365 C 0.77110 0.55847 0.88760
 C1366 C 0.77518 0.54740 0.91361
 C1367 C 0.79078 0.52380 0.91564
 C1368 C 0.80301 0.51208 0.89238
 C1369 C 0.81493 0.51376 0.84124
 C1370 C 0.83271 0.49151 0.84154
 C1371 C 0.84809 0.48469 0.81838
 C1372 C 0.84610 0.49979 0.79439
 C1373 C 0.82702 0.52054 0.79308
 C1374 C 0.81175 0.52794 0.81641
 C1375 C 0.78036 0.55940 0.83865
 C1376 C 0.79415 0.55005 0.81531
 H1377 H 0.76750 0.57703 0.83688
 H1378 H 0.79153 0.56076 0.79627
 H1379 H 0.75937 0.57690 0.88580
 H1380 H 0.79389 0.51462 0.93540
 H1381 H 0.86184 0.46780 0.81958
 H1382 H 0.82505 0.53183 0.77428
 H1383 H 0.81512 0.49424 0.89538
 H1384 H 0.83553 0.47949 0.85958
 C1385 C 0.14514 0.68971 0.55636
 C1386 C 0.11965 0.68162 0.54525
 C1387 C 0.09580 0.69242 0.55651
 C1388 C 0.09688 0.71166 0.57855
 C1389 C 0.12231 0.72093 0.58826
 C1390 C 0.14610 0.71011 0.57743
 C1391 C 0.16992 0.67589 0.54544
 C1392 C 0.19582 0.68032 0.55704
 C1393 C 0.21799 0.66583 0.54700
 C1394 C 0.21495 0.64676 0.52515
 C1395 C 0.18953 0.64282 0.51285
 C1396 C 0.16692 0.65667 0.52324
 C1397 C 0.11809 0.66253 0.52322
 C1398 C 0.14126 0.65067 0.51216
 H1399 H 0.09863 0.65658 0.51444
 H1400 H 0.13896 0.63593 0.49518
 H1401 H 0.07638 0.68506 0.54869
 H1402 H 0.12389 0.73648 0.60454
 H1403 H 0.23756 0.66924 0.55663
 H1404 H 0.18698 0.62854 0.49563
 H1405 H 0.16496 0.71790 0.58594
 H1406 H 0.19931 0.69434 0.57426
 C1407 C 0.65080 0.19624 1.04693
 C1408 C 0.65532 0.21308 1.07071
 C1409 C 0.63355 0.22620 1.08377
 C1410 C 0.60692 0.22205 1.07416
 C1411 C 0.60259 0.20540 1.05051
 C1412 C 0.62415 0.19278 1.03699
 C1413 C 0.67441 0.18173 1.03424
 C1414 C 0.67226 0.16529 1.01002
 C1415 C 0.69429 0.15038 1.00033
 C1416 C 0.71884 0.15132 1.01462
 C1417 C 0.72187 0.16917 1.03751
 C1418 C 0.69987 0.18432 1.04745
 C1419 C 0.68136 0.21596 1.08190
 C1420 C 0.70308 0.20161 1.07074
 H1421 H 0.68485 0.22888 1.10010
 H1422 H 0.72264 0.20389 1.08065
 H1423 H 0.63736 0.23929 1.10178
 H1424 H 0.58231 0.20129 1.04285
 H1425 H 0.69178 0.13785 0.98183
 H1426 H 0.74114 0.17055 1.04812
 H1427 H 0.61937 0.17976 1.01931
 H1428 H 0.65374 0.16346 0.99839
 C1429 C 0.85079 0.19463 0.97529
 C1430 C 0.84955 0.21064 0.95156
 C1431 C 0.87327 0.22234 0.94053
 C1432 C 0.89902 0.21826 0.95237
 C1433 C 0.89951 0.20356 0.97711
 C1434 C 0.87596 0.19196 0.98824
 C1435 C 0.82534 0.18053 0.98500
 C1436 C 0.82475 0.16263 1.00734
 C1437 C 0.80111 0.14801 1.01391
 C1438 C 0.77755 0.15091 0.99846
 C1439 C 0.77729 0.17002 0.97747
 C1440 C 0.80108 0.18443 0.97028
 C1441 C 0.82468 0.21454 0.93857
 C1442 C 0.80096 0.20179 0.94779
 H1443 H 0.82363 0.22717 0.92059
 H1444 H 0.78237 0.20496 0.93663
 H1445 H 0.87108 0.23530 0.92298
 H1446 H 0.91818 0.19896 0.98733
 H1447 H 0.80160 0.13403 1.03081
 H1448 H 0.75889 0.17256 0.96578
 H1449 H 0.87812 0.18034 1.00665
 H1450 H 0.84244 0.15904 1.01955
 C1451 C 0.34025 0.70372 0.48310
 C1452 C 0.33546 0.72269 0.46217
 C1453 C 0.35718 0.73735 0.45047
 C1454 C 0.38391 0.73287 0.45869
 C1455 C 0.38850 0.71475 0.48007
 C1456 C 0.36701 0.70045 0.49222
 C1457 C 0.31681 0.68683 0.49346
 C1458 C 0.31950 0.66702 0.51386
 C1459 C 0.29768 0.64988 0.52078
 C1460 C 0.27274 0.65208 0.50756
 C1461 C 0.26920 0.67299 0.48877
 C1462 C 0.29106 0.69021 0.48144
 C1463 C 0.30920 0.72610 0.45223
 C1464 C 0.28750 0.71009 0.46154
 H1465 H 0.30551 0.74078 0.43634
 H1466 H 0.26773 0.71291 0.45258
 H1467 H 0.35332 0.75167 0.43430
 H1468 H 0.40890 0.71066 0.48668
 H1469 H 0.30068 0.63455 0.53610
 H1470 H 0.24969 0.67503 0.47895
 H1471 H 0.37196 0.68629 0.50804
 H1472 H 0.33835 0.66401 0.52435
 C1473 C 0.64409 0.81529 0.46281
 C1474 C 0.63516 0.82143 0.43604
 C1475 C 0.60842 0.81550 0.42814
 C1476 C 0.58997 0.80353 0.44641
 C1477 C 0.59885 0.79672 0.47270
 C1478 C 0.62557 0.80260 0.48090
 C1479 C 0.67267 0.82322 0.47067
 C1480 C 0.68360 0.81919 0.49704
 C1481 C 0.70981 0.82880 0.50365
 C1482 C 0.72567 0.84237 0.48411
 C1483 C 0.71528 0.84566 0.45770
 C1484 C 0.68913 0.83633 0.45086
 C1485 C 0.65281 0.83375 0.41727
 C1486 C 0.67921 0.84103 0.42452
 H1487 H 0.64597 0.83822 0.39674
 H1488 H 0.69193 0.85096 0.40936
 H1489 H 0.60191 0.82018 0.40753
 H1490 H 0.58495 0.78730 0.48710
 H1491 H 0.71730 0.82654 0.52435
 H1492 H 0.72690 0.85663 0.44250
 H1493 H 0.63126 0.79727 0.50145
 H1494 H 0.67203 0.80935 0.51299
 C1495 C 0.15602 0.30059 -0.02118
 C1496 C 0.13204 0.31050 -0.00879
 C1497 C 0.10665 0.30114 -0.01847
 C1498 C 0.10469 0.28172 -0.04018
 C1499 C 0.12837 0.27049 -0.05117
 C1500 C 0.15377 0.27980 -0.04187
 C1501 C 0.18257 0.31373 -0.01264
 C1502 C 0.20735 0.30757 -0.02562
 C1503 C 0.23087 0.32292 -0.01924
 C1504 C 0.23031 0.34453 0.00030
 C1505 C 0.20640 0.34906 0.01511
 C1506 C 0.18245 0.33451 0.00826
 C1507 C 0.13348 0.33033 0.01255
 C1508 C 0.15819 0.34183 0.02114
 H1509 H 0.11515 0.33755 0.02237
 H1510 H 0.15815 0.35761 0.03729
 H1511 H 0.08833 0.30956 -0.00967
 H1512 H 0.12723 0.25539 -0.06793
 H1513 H 0.24925 0.31831 -0.03029
 H1514 H 0.20584 0.36485 0.03111
 H1515 H 0.17131 0.27099 -0.05158
 H1516 H 0.20879 0.29177 -0.04149
 C1517 C 0.36612 0.32084 0.04503
 C1518 C 0.36487 0.29479 0.05734
 C1519 C 0.38806 0.28433 0.06975
 C1520 C 0.41249 0.29965 0.07021
 C1521 C 0.41391 0.32477 0.05677
 C1522 C 0.39116 0.33521 0.04425
 C1523 C 0.34060 0.33232 0.03394
 C1524 C 0.33953 0.35893 0.02331
 C1525 C 0.31518 0.36925 0.01433
 C1526 C 0.29132 0.35338 0.01548
 C1527 C 0.29191 0.32675 0.02566
 C1528 C 0.31640 0.31621 0.03522
 C1529 C 0.34038 0.27970 0.05770
 C1530 C 0.31673 0.29007 0.04666
 H1531 H 0.33943 0.25964 0.06689
 H1532 H 0.29828 0.27768 0.04766
 H1533 H 0.38681 0.26484 0.08005
 H1534 H 0.43271 0.33663 0.05629
 H1535 H 0.31495 0.38997 0.00667
 H1536 H 0.27334 0.31457 0.02677
 H1537 H 0.39364 0.35471 0.03443
 H1538 H 0.35709 0.37237 0.02217
 C1539 C 0.85306 0.79411 0.53828
 C1540 C 0.87827 0.80854 0.53929
 C1541 C 0.90007 0.79783 0.55349
 C1542 C 0.89733 0.77297 0.56718
 C1543 C 0.87297 0.75780 0.56504
 C1544 C 0.85099 0.76823 0.55074
 C1545 C 0.82955 0.80778 0.52514
 C1546 C 0.80308 0.79617 0.52418
 C1547 C 0.78154 0.81101 0.51374
 C1548 C 0.78605 0.83755 0.50407
 C1549 C 0.81230 0.84879 0.50396
 C1550 C 0.83395 0.83429 0.51436
 C1551 C 0.88141 0.83415 0.52711
 C1552 C 0.85972 0.84674 0.51490
 H1553 H 0.90081 0.84498 0.52768
 H1554 H 0.86303 0.86692 0.50638
 H1555 H 0.91906 0.80940 0.55484
 H1556 H 0.87055 0.73850 0.57547
 H1557 H 0.76132 0.80205 0.51397
 H1558 H 0.81580 0.86946 0.49670
 H1559 H 0.83242 0.75616 0.55034
 H1560 H 0.79854 0.77603 0.53196
   
