data_POSCAR
  _audit_creation_date              2014-09-24
  _audit_creation_method            'ToBaCCo'
  _symmetry_space_group_name_H-M    'P1'
  _symmetry_Int_Tables_number       1
  _symmetry_cell_setting            triclinic
  loop_
  _symmetry_equiv_pos_as_xyz
 x,y,z
_cell_length_a 86.1403
_cell_length_b 86.0194
_cell_length_c 86.2391
_cell_angle_alpha 90.075900
_cell_angle_beta 89.414000
_cell_angle_gamma 89.986700
loop_
  _atom_site_label
  _atom_site_type_symbol
  _atom_site_fract_x
  _atom_site_fract_y
  _atom_site_fract_z
C1 C 0.30667 0.44322 0.92588
 N2 N 0.30067 0.43017 0.93253
 C3 C 0.30794 0.42334 0.94473
 N4 N 0.32136 0.42963 0.95009
 C5 C 0.32750 0.44263 0.94352
 N6 N 0.32001 0.44929 0.93147
 C7 C 0.43746 0.83225 0.43551
 N8 N 0.42431 0.82660 0.44226
 C9 C 0.41678 0.81415 0.43620
 N10 N 0.42253 0.80730 0.42313
 C11 C 0.43569 0.81276 0.41620
 N12 N 0.44305 0.82522 0.42247
 C13 C 0.94878 0.92451 0.81069
 N14 N 0.93674 0.93125 0.80327
 C15 C 0.92991 0.94431 0.80895
 N16 N 0.93523 0.95063 0.82236
 C17 C 0.94732 0.94401 0.83000
 N18 N 0.95398 0.93095 0.82404
 C19 C 0.44227 -0.08089 0.31114
 N20 N 0.44854 -0.07396 0.32380
 C21 C 0.44291 -0.06026 0.32928
 N22 N 0.43081 -0.05345 0.32197
 C23 C 0.42433 -0.06014 0.30932
 N24 N 0.43010 -0.07389 0.30397
 C25 C 0.80033 0.30846 0.32234
 N26 N 0.81284 0.30125 0.31580
 C27 C 0.81938 0.30678 0.30251
 N28 N 0.81335 0.31969 0.29585
 C29 C 0.80093 0.32708 0.30222
 N30 N 0.79448 0.32142 0.31550
 C31 C -0.18894 0.83285 0.81093
 N32 N -0.19574 0.82593 0.82334
 C33 C -0.18954 0.81308 0.82996
 N34 N -0.17617 0.80705 0.82389
 C35 C -0.16918 0.81378 0.81132
 N36 N -0.17564 0.82671 0.80496
 C37 C 0.94508 0.31792 0.44470
 N38 N 0.93327 0.31048 0.45214
 C39 C 0.92660 0.29763 0.44603
 N40 N 0.93191 0.29209 0.43224
 C41 C 0.94378 0.29924 0.42458
 N42 N 0.95028 0.31222 0.43083
 C43 C 0.44339 0.44664 0.81947
 N44 N 0.45088 0.43475 0.81213
 C45 C 0.44535 0.42872 0.79872
 N46 N 0.43215 0.43462 0.79268
 C47 C 0.42445 0.44643 0.79978
 N48 N 0.43011 0.45238 0.81321
 C49 C 0.80916 0.92673 0.94432
 N50 N 0.80253 0.93262 0.93133
 C51 C 0.80853 0.94539 0.92421
 N52 N 0.82137 0.95225 0.93016
 C53 C 0.82819 0.94658 0.94311
 N54 N 0.82197 0.93383 0.95010
 C55 C 0.30346 0.82538 0.30790
 N56 N 0.31583 0.81761 0.30181
 C57 C 0.32135 0.80453 0.30861
 N58 N 0.31433 0.79916 0.32174
 C59 C 0.30189 0.80673 0.32800
 N60 N 0.29657 0.81983 0.32103
 C61 C 0.80631 0.42567 0.44382
 N62 N 0.81952 0.43150 0.45011
 C63 C 0.82589 0.44487 0.44457
 N64 N 0.81900 0.45232 0.43261
 C65 C 0.80586 0.44663 0.42618
 N66 N 0.79961 0.43329 0.43183
 C67 C 0.94189 0.82388 -0.05613
 N68 N 0.92889 0.81746 -0.04964
 C69 C 0.92231 0.80457 -0.05595
 N70 N 0.92879 0.79819 -0.06886
 C71 C 0.94166 0.80440 -0.07560
 N72 N 0.94813 0.81725 -0.06912
 C73 C 0.31533 0.32651 0.80702
 N74 N 0.30815 0.31958 0.81930
 C75 C 0.31440 0.30685 0.82611
 N76 N 0.32802 0.30110 0.82057
 C77 C 0.33544 0.30783 0.80835
 N78 N 0.32903 0.32060 0.80160
 C79 C 0.17207 0.55684 0.56097
 N80 N 0.17844 0.56973 0.55447
 C81 C 0.19089 0.57681 0.56085
 N82 N 0.19704 0.57084 0.57398
 C83 C 0.19090 0.55791 0.58071
 N84 N 0.17834 0.55096 0.57416
 C85 C 0.57122 0.69150 0.05135
 N86 N 0.56429 0.67886 0.04496
 C87 C 0.55096 0.67299 0.05109
 N88 N 0.54458 0.67990 0.06378
 C89 C 0.55130 0.69251 0.07038
 N90 N 0.56469 0.69826 0.06414
 C91 C 0.70714 0.20211 0.67948
 N92 N 0.69489 0.20931 0.68652
 C93 C 0.68971 0.20452 0.70068
 N94 N 0.69679 0.19236 0.70766
 C95 C 0.70895 0.18500 0.70079
 N96 N 0.71404 0.18991 0.68666
 C97 C 1.08063 0.05581 0.19516
 N98 N 1.07397 0.04909 0.18264
 C99 C 1.06124 0.05536 0.17590
 N100 N 1.05503 0.06862 0.18199
 C101 C 1.06147 0.07547 0.19463
 N102 N 1.07429 0.06903 0.20106
 C103 C 0.05403 0.17108 1.05688
 N104 N 0.06716 0.17721 1.05041
 C105 C 0.07296 0.19097 1.05559
 N106 N 0.06557 0.19850 1.06738
 C107 C 0.05252 0.19255 1.07403
 N108 N 0.04686 0.17886 1.06866
 C109 C 0.17817 0.69479 0.69872
 N110 N 0.18483 0.70036 0.68551
 C111 C 0.19706 0.69285 0.67876
 N112 N 0.20248 0.67952 0.68529
 C113 C 0.19587 0.67383 0.69850
 N114 N 0.18377 0.68156 0.70508
 C115 C 1.18455 0.16644 0.18503
 N116 N 1.19000 0.17268 0.17151
 C117 C 1.18274 0.18508 0.16494
 N118 N 1.16994 0.19111 0.17206
 C119 C 1.16434 0.18504 0.18550
 N120 N 1.17172 0.17271 0.19190
 C121 C 0.67315 1.05869 0.55959
 N122 N 0.67939 1.05211 0.57245
 C123 C 0.69193 1.05859 0.57940
 N124 N 0.69815 1.07182 0.57342
 C125 C 0.69207 1.07862 0.56065
 N126 N 0.67959 1.07193 0.55382
 C127 C 0.55858 0.55566 0.16732
 N128 N 0.57083 0.54919 0.17472
 C129 C 0.57593 0.55506 0.18835
 N130 N 0.56863 0.56757 0.19461
 C131 C 0.55633 0.57423 0.18746
 N132 N 0.55137 0.56826 0.17373
 C133 C 0.67054 0.69488 0.19278
 N134 N 0.67687 0.70145 0.17987
 C135 C 0.69008 0.69572 0.17337
 N136 N 0.69699 0.68322 0.17993
 C137 C 0.69089 0.67643 0.19283
 N138 N 0.67758 0.68229 0.19921
 C139 C 0.17212 0.05888 1.06087
 N140 N 0.17928 0.07125 1.05403
 C141 C 0.19249 0.07733 1.06000
 N142 N 0.19853 0.07091 1.07295
 C143 C 0.19163 0.05860 1.08005
 N144 N 0.17838 0.05265 1.07393
 C145 C 0.57324 0.19570 0.55104
 N146 N 0.56705 0.20228 0.56403
 C147 C 0.55416 0.19620 0.57090
 N148 N 0.54752 0.18334 0.56468
 C149 C 0.55357 0.17657 0.55173
 N150 N 0.56646 0.18280 0.54500
 C151 C 0.07259 0.55346 0.69362
 N152 N 0.06500 0.54622 0.68197
 C153 C 0.05185 0.55228 0.67597
 N154 N 0.04625 0.56588 0.68177
 C155 C 0.05366 0.57336 0.69347
 N156 N 0.06689 0.56709 0.69933
 C157 C 0.66836 0.56322 0.06305
 N158 N 0.67460 0.57675 0.05771
 C159 C 0.68686 0.58341 0.06503
 N160 N 0.69279 0.57641 0.07779
 C161 C 0.68668 0.56293 0.08326
 N162 N 0.67448 0.55644 0.07583
 C163 C 0.05626 0.68505 0.57892
 N164 N 0.05064 0.67179 0.57252
 C165 C 0.05742 0.66546 0.55972
 N166 N 0.07002 0.67254 0.55333
 C167 C 0.07586 0.68580 0.55955
 N168 N 0.06893 0.69200 0.57239
 C169 C 0.56866 1.06283 0.66632
 N170 N 0.58183 1.05706 0.67263
 C171 C 0.58888 1.06432 0.68466
 N172 N 0.58255 1.07765 0.69047
 C173 C 0.56932 1.08363 0.68432
 N174 N 0.56252 1.07614 0.67226
 C175 C 0.44040 0.32593 0.94006
 N176 N 0.44721 0.31993 0.92704
 C177 C 0.44097 0.30745 0.91970
 N178 N 0.42777 0.30098 0.92548
 C179 C 0.42078 0.30676 0.93843
 N180 N 0.42715 0.31925 0.94563
 C181 C 0.93678 0.43592 0.33449
 N182 N 0.92346 0.44272 0.32954
 C183 C 0.91587 0.43718 0.31691
 N184 N 0.92174 0.42459 0.30919
 C185 C 0.93508 0.41771 0.31399
 N186 N 0.94242 0.42347 0.32659
 C187 C 0.31324 0.93946 0.42085
 N188 N 0.30667 0.92673 0.42759
 C189 C 0.31292 0.92033 0.44050
 N190 N 0.32584 0.92680 0.44662
 C191 C 0.33265 0.93947 0.44008
 N192 N 0.32626 0.94573 0.42713
 O193 O 0.24478 0.47716 0.79483
 O194 O 0.21865 0.47923 0.78965
 O195 O 0.26444 0.45499 0.75493
 O196 O 0.26565 0.45886 0.72942
 O197 O 0.28608 0.49589 0.77354
 O198 O 0.28108 0.52249 0.77272
 O199 O 0.22512 0.49674 0.71284
 O200 O 0.22723 0.47057 0.71770
 O201 O 0.20546 0.51794 0.75169
 O202 O 0.20986 0.51814 0.77881
 O203 O 0.24580 0.53658 0.73213
 O204 O 0.27270 0.53080 0.73242
 O205 O 0.24411 0.51509 0.71219
 O206 O 0.27337 0.51207 0.71814
 O207 O 0.22698 0.53805 0.75069
 O208 O 0.22860 0.53232 0.77997
 O209 O 0.20489 0.49906 0.73327
 O210 O 0.20915 0.47073 0.73909
 O211 O 0.26365 0.49567 0.79498
 O212 O 0.26247 0.52370 0.78838
 O213 O 0.28659 0.47696 0.75514
 O214 O 0.28017 0.47856 0.72672
 O215 O 0.24576 0.45553 0.77372
 O216 O 0.21764 0.46214 0.76944
 Zr217 Zr 0.23615 0.47814 0.77226
 O218 O 0.22181 0.49241 0.75868
 Zr219 Zr 0.26411 0.47741 0.74543
 O220 O 0.25036 0.49052 0.73018
 Zr221 Zr 0.26371 0.50515 0.77230
 O222 O 0.25111 0.52004 0.75770
 Zr223 Zr 0.22659 0.48777 0.73528
 O224 O 0.24027 0.47254 0.74882
 Zr225 Zr 0.22742 0.51603 0.76160
 O226 O 0.24003 0.50190 0.77709
 Zr227 Zr 0.25474 0.51411 0.73423
 O228 O 0.26945 0.50100 0.74879
 O229 O 0.25980 0.48165 0.76874
 O230 O 0.23106 0.51138 0.73817
 C231 C 0.25552 0.48491 0.80159
 C232 C 0.25665 0.44864 0.76601
 C233 C 0.29300 0.48508 0.76589
 C234 C 0.23280 0.50758 0.70600
 C235 C 0.19876 0.51057 0.74069
 C236 C 0.23496 0.54385 0.73939
 H237 H 0.21079 0.49029 0.76124
 H238 H 0.25405 0.53093 0.75986
 H239 H 0.26628 0.47509 0.77551
 H240 H 0.25267 0.48747 0.71934
 H241 H 0.23041 0.46076 0.72276
 H242 H 0.25674 0.46002 0.72238
 H243 H 0.23675 0.54000 0.77731
 H244 H 0.25278 0.52226 0.79448
 H245 H 0.20172 0.47135 0.73040
 H246 H 0.21849 0.45396 0.77749
 H247 H 0.27333 0.53613 0.74256
 H248 H 0.28572 0.52274 0.76217
 H249 H 0.21862 0.49002 0.79365
 H250 H 0.20444 0.50802 0.77945
 H251 H 0.28701 0.48758 0.72870
 H252 H 0.27038 0.50439 0.71016
 O253 O 0.26982 -0.04227 0.25299
 O254 O 0.26566 -0.03954 0.22648
 O255 O 0.29654 -0.00215 0.26507
 O256 O 0.29423 0.02378 0.26338
 O257 O 0.25705 -0.01538 0.29277
 O258 O 0.22974 -0.01197 0.29010
 O259 O 0.25364 0.03883 0.22536
 O260 O 0.27995 0.03258 0.22628
 O261 O 0.22928 -0.00015 0.21203
 O262 O 0.22862 -0.02745 0.21995
 O263 O 0.21477 0.02413 0.25130
 O264 O 0.22315 0.02578 0.27806
 O265 O 0.23706 0.04241 0.24575
 O266 O 0.24173 0.03979 0.27474
 O267 O 0.21122 0.00381 0.23489
 O268 O 0.21488 -0.02501 0.23886
 O269 O 0.24918 0.01674 0.20804
 O270 O 0.27725 0.00958 0.21055
 O271 O 0.25288 -0.03878 0.27314
 O272 O 0.22607 -0.03029 0.27455
 O273 O 0.27713 0.00138 0.28907
 O274 O 0.27623 0.02899 0.28017
 O275 O 0.29289 -0.02284 0.24908
 O276 O 0.28435 -0.02126 0.22166
 Zr277 Zr 0.26977 -0.02063 0.24165
 O278 O 0.25555 -0.00737 0.22699
 Zr279 Zr 0.27478 0.00898 0.26593
 O280 O 0.26123 0.02369 0.25193
 Zr281 Zr 0.24546 -0.01551 0.27145
 O282 O 0.23044 -0.00169 0.25820
 Zr283 Zr 0.26184 0.01611 0.22878
 O284 O 0.27721 0.00271 0.24238
 Zr285 Zr 0.23243 -0.00823 0.23479
 O286 O 0.24629 -0.02315 0.24830
 Zr287 Zr 0.23783 0.02161 0.25867
 O288 O 0.25159 0.00806 0.27379
 O289 O 0.26865 -0.01429 0.26489
 O290 O 0.23856 0.01513 0.23545
 C291 C 0.26234 -0.04716 0.26503
 C292 C 0.30133 -0.01452 0.25810
 C293 C 0.26918 -0.00814 0.29748
 C294 C 0.24371 0.04697 0.23310
 C295 C 0.23681 0.00969 0.20366
 C296 C 0.20649 0.01614 0.24189
 H297 H 0.25670 -0.01110 0.21618
 H298 H 0.21972 -0.00287 0.26221
 H299 H 0.27532 -0.02093 0.27140
 H300 H 0.26497 0.03452 0.25272
 H301 H 0.28967 0.02716 0.22905
 H302 H 0.29177 0.03116 0.25499
 H303 H 0.20870 -0.02159 0.24797
 H304 H 0.22531 -0.03664 0.26500
 H305 H 0.27667 0.01765 0.20238
 H306 H 0.29166 -0.03012 0.22262
 H307 H 0.21655 0.01648 0.27949
 H308 H 0.23154 -0.00126 0.29390
 H309 H 0.25475 -0.04276 0.22818
 H310 H 0.23750 -0.02808 0.21261
 H311 H 0.26728 0.02861 0.28744
 H312 H 0.25040 0.04623 0.27074
 O313 O 0.53289 0.72403 0.24683
 O314 O 0.52552 0.72447 0.27271
 O315 O 0.49366 0.70624 0.22293
 O316 O 0.46682 0.71326 0.22138
 O317 O 0.51632 0.74710 0.20611
 O318 O 0.51612 0.77357 0.21340
 O319 O 0.45054 0.74766 0.26295
 O320 O 0.45359 0.72164 0.25841
 O321 O 0.48850 0.76390 0.28699
 O322 O 0.51652 0.76219 0.28406
 O323 O 0.47412 0.78747 0.24758
 O324 O 0.47698 0.78389 0.21997
 O325 O 0.45281 0.76739 0.24554
 O326 O 0.46104 0.76693 0.21700
 O327 O 0.49091 0.78580 0.26763
 O328 O 0.51959 0.77858 0.26757
 O329 O 0.46894 0.74641 0.28444
 O330 O 0.47344 0.71824 0.27790
 O331 O 0.53567 0.74411 0.22985
 O332 O 0.53079 0.77202 0.23257
 O333 O 0.49684 0.72958 0.20306
 O334 O 0.46875 0.73209 0.20700
 O335 O 0.51047 0.70393 0.24293
 O336 O 0.50445 0.70853 0.27104
 Zr337 Zr 0.50964 0.72577 0.25418
 O338 O 0.49554 0.73955 0.26883
 Zr339 Zr 0.48525 0.72910 0.22474
 O340 O 0.46974 0.74226 0.23842
 Zr341 Zr 0.51360 0.75486 0.22908
 O342 O 0.49906 0.76962 0.24225
 Zr343 Zr 0.47239 0.73704 0.26204
 O344 O 0.48630 0.72205 0.24815
 Zr345 Zr 0.50046 0.76326 0.26568
 O346 O 0.51613 0.74938 0.25264
 Zr347 Zr 0.47567 0.76581 0.23654
 O348 O 0.49044 0.75278 0.22166
 O349 O 0.50836 0.73140 0.23080
 O350 O 0.47721 0.76068 0.26002
 C351 C 0.54098 0.73231 0.23734
 C352 C 0.50343 0.69848 0.23100
 C353 C 0.50864 0.73729 0.19797
 C354 C 0.44515 0.75954 0.25577
 C355 C 0.47639 0.75678 0.29212
 C356 C 0.48074 0.79311 0.25960
 H357 H 0.49689 0.73628 0.27972
 H358 H 0.50218 0.78054 0.24054
 H359 H 0.51532 0.72493 0.22426
 H360 H 0.45899 0.74018 0.23510
 H361 H 0.45814 0.71159 0.25513
 H362 H 0.46616 0.70677 0.23081
 H363 H 0.51849 0.78672 0.25957
 H364 H 0.53532 0.76999 0.24287
 H365 H 0.46403 0.71872 0.28461
 H366 H 0.51219 0.70003 0.27006
 H367 H 0.48715 0.78906 0.22119
 H368 H 0.50611 0.77447 0.20793
 H369 H 0.53010 0.73495 0.27385
 H370 H 0.51511 0.75206 0.28929
 H371 H 0.47092 0.74231 0.20217
 H372 H 0.45295 0.75885 0.21820
 O373 O 0.00505 0.70842 0.73240
 O374 O -0.02154 0.71178 0.73560
 O375 O 0.02005 0.74987 0.70908
 O376 O 0.01901 0.77549 0.71295
 O377 O 0.04495 0.73342 0.74881
 O378 O 0.04029 0.73457 0.77608
 O379 O -0.02046 0.78961 0.75209
 O380 O -0.01875 0.78433 0.72576
 O381 O -0.03722 0.74977 0.77399
 O382 O -0.03029 0.72205 0.77317
 O383 O 0.00180 0.77154 0.79134
 O384 O 0.02909 0.77246 0.78461
 O385 O -0.00110 0.79131 0.76975
 O386 O 0.02795 0.78738 0.76671
 O387 O -0.01543 0.75165 0.79319
 O388 O -0.01217 0.72290 0.78781
 O389 O -0.03917 0.76814 0.75523
 O390 O -0.03559 0.76207 0.72705
 O391 O 0.02439 0.71014 0.75013
 O392 O 0.02400 0.71657 0.77747
 O393 O 0.04283 0.75145 0.72971
 O394 O 0.03463 0.77906 0.73179
 O395 O 0.00328 0.72951 0.71053
 O396 O -0.02473 0.73145 0.71814
 Zr397 Zr -0.00562 0.73043 0.73344
 O398 O -0.02077 0.74334 0.74790
 Zr399 Zr 0.01981 0.75944 0.73146
 O400 O 0.00550 0.77372 0.74528
 Zr401 Zr 0.02274 0.73289 0.75921
 O402 O 0.00897 0.74626 0.77454
 Zr403 Zr -0.01783 0.76706 0.74320
 O404 O -0.00372 0.75414 0.72759
 Zr405 Zr -0.01455 0.74086 0.77124
 O406 O -0.00063 0.72629 0.75698
 Zr407 Zr 0.01074 0.76991 0.76868
 O408 O 0.02624 0.75669 0.75476
 O409 O 0.01774 0.73584 0.73594
 O410 O -0.01267 0.76450 0.76660
 C411 C 0.01657 0.70267 0.73988
 C412 C 0.01307 0.73813 0.70312
 C413 C 0.05059 0.74144 0.73750
 C414 C -0.01284 0.79694 0.76255
 C415 C -0.04464 0.76057 0.76691
 C416 C -0.00837 0.76352 0.79881
 H417 H -0.03163 0.74011 0.74611
 H418 H 0.01224 0.74429 0.78531
 H419 H 0.02454 0.72949 0.72913
 H420 H 0.00698 0.78470 0.74220
 H421 H -0.01570 0.77920 0.71590
 H422 H 0.01046 0.78279 0.71534
 H423 H -0.00330 0.72555 0.79451
 H424 H 0.01413 0.71069 0.77741
 H425 H -0.04344 0.77048 0.72776
 H426 H -0.02350 0.72315 0.71021
 H427 H 0.02972 0.76274 0.79068
 H428 H 0.04441 0.74529 0.77542
 H429 H -0.02090 0.70806 0.74643
 H430 H -0.03712 0.72231 0.76402
 H431 H 0.04144 0.77789 0.74090
 H432 H 0.02497 0.79442 0.75818
 O433 O -0.02106 -0.04561 0.00700
 O434 O -0.01930 -0.03888 0.03332
 O435 O -0.03914 -0.00546 -0.01506
 O436 O -0.03319 0.01984 -0.01700
 O437 O 0.00148 -0.02808 -0.03410
 O438 O 0.02831 -0.02823 -0.02713
 O439 O 0.00369 0.03662 0.02301
 O440 O -0.02284 0.03343 0.01929
 O441 O 0.01955 -0.00197 0.04701
 O442 O 0.01710 -0.03049 0.04352
 O443 O 0.04294 0.01266 0.00736
 O444 O 0.03879 0.00941 -0.02081
 O445 O 0.02311 0.03413 0.00510
 O446 O 0.02288 0.02639 -0.02290
 O447 O 0.04120 -0.00462 0.02717
 O448 O 0.03414 -0.03277 0.02750
 O449 O 0.00233 0.01786 0.04464
 O450 O -0.02564 0.01383 0.03904
 O451 O -0.00142 -0.04809 -0.01071
 O452 O 0.02629 -0.04401 -0.00862
 O453 O -0.01623 -0.00860 -0.03603
 O454 O -0.01272 0.01946 -0.03180
 O455 O -0.04082 -0.02281 0.00475
 O456 O -0.03562 -0.01791 0.03246
 Zr457 Zr -0.01876 -0.02256 0.01494
 O458 O -0.00488 -0.00855 0.02926
 Zr459 Zr -0.01602 0.00250 -0.01431
 O460 O -0.00224 0.01766 -0.00112
 Zr461 Zr 0.00962 -0.02619 -0.01119
 O462 O 0.02472 -0.01220 0.00197
 Zr463 Zr -0.00719 0.01477 0.02256
 O464 O -0.02245 0.00099 0.00926
 Zr465 Zr 0.01865 -0.01378 0.02558
 O466 O 0.00469 -0.02916 0.01255
 Zr467 Zr 0.02122 0.01131 -0.00356
 O468 O 0.00756 -0.00286 -0.01821
 O469 O -0.01372 -0.02078 -0.00862
 O470 O 0.01633 0.00961 0.02003
 C471 C -0.01319 -0.05347 -0.00309
 C472 C -0.04666 -0.01537 -0.00671
 C473 C -0.00858 -0.02016 -0.04169
 C474 C 0.01546 0.04192 0.01538
 C475 C 0.01253 0.01020 0.05223
 C476 C 0.04854 0.00572 0.01926
 H477 H -0.00806 -0.00999 0.04022
 H478 H 0.03557 -0.01545 0.00002
 H479 H -0.02046 -0.02745 -0.01505
 H480 H -0.00412 0.02851 -0.00437
 H481 H -0.03281 0.02876 0.01606
 H482 H -0.03031 0.02860 -0.01019
 H483 H 0.04139 -0.03240 0.01854
 H484 H 0.02486 -0.04821 0.00198
 H485 H -0.02508 0.02328 0.04560
 H486 H -0.04390 -0.02590 0.03189
 H487 H 0.04484 -0.00010 -0.01866
 H488 H 0.02900 -0.01816 -0.03264
 H489 H -0.00905 -0.04407 0.03340
 H490 H 0.00749 -0.02839 0.04954
 H491 H -0.00282 0.01694 -0.03716
 H492 H 0.01422 0.03391 -0.02217
 O493 O 0.04240 0.51145 0.50681
 O494 O 0.03736 0.51156 0.48007
 O495 O 0.00110 0.52963 0.52773
 O496 O -0.02432 0.52416 0.52800
 O497 O 0.02167 0.48753 0.54519
 O498 O 0.02114 0.46086 0.53645
 O499 O -0.03926 0.49034 0.48494
 O500 O -0.03546 0.51656 0.49055
 O501 O 0.00007 0.47435 0.46178
 O502 O 0.02866 0.47653 0.46672
 O503 O -0.01677 0.44925 0.49894
 O504 O -0.01566 0.45194 0.52747
 O505 O -0.03820 0.46962 0.50127
 O506 O -0.03259 0.46781 0.52941
 O507 O 0.00178 0.45174 0.48022
 O508 O 0.02967 0.45834 0.48141
 O509 O -0.01925 0.49216 0.46439
 O510 O -0.01472 0.51969 0.47190
 O511 O 0.04307 0.49067 0.52313
 O512 O 0.03843 0.46344 0.51922
 O513 O 0.00245 0.50553 0.54724
 O514 O -0.02527 0.50294 0.54144
 O515 O 0.01990 0.53192 0.50918
 O516 O 0.01693 0.52847 0.48095
 Zr517 Zr 0.01986 0.51046 0.49748
 O518 O 0.00645 0.49790 0.48144
 Zr519 Zr -0.00720 0.50676 0.52505
 O520 O -0.02171 0.49414 0.51019
 Zr521 Zr 0.02092 0.48050 0.52175
 O522 O 0.00765 0.46663 0.50671
 Zr523 Zr -0.01717 0.50043 0.48711
 O524 O -0.00391 0.51450 0.50212
 Zr525 Zr 0.01088 0.47407 0.48367
 O526 O 0.02565 0.48671 0.49858
 Zr527 Zr -0.01605 0.47040 0.51127
 O528 O -0.00271 0.48284 0.52763
 O529 O 0.01633 0.50414 0.52049
 O530 O -0.01274 0.47664 0.48820
 C531 C 0.04932 0.50264 0.51666
 C532 C 0.01171 0.53735 0.52050
 C533 C 0.01352 0.49743 0.55296
 C534 C -0.04524 0.47822 0.49137
 C535 C -0.01163 0.48198 0.45655
 C536 C -0.00900 0.44410 0.48720
 H537 H 0.00862 0.50168 0.47081
 H538 H 0.01058 0.45561 0.50807
 H539 H 0.02273 0.51034 0.52768
 H540 H -0.03269 0.49612 0.51301
 H541 H -0.03068 0.52618 0.49465
 H542 H -0.03272 0.52184 0.52062
 H543 H 0.02894 0.45087 0.49010
 H544 H 0.04332 0.46517 0.50893
 H545 H -0.02378 0.51977 0.46489
 H546 H 0.02508 0.53645 0.48256
 H547 H -0.00607 0.44587 0.52555
 H548 H 0.01093 0.46062 0.54181
 H549 H 0.04210 0.50109 0.47939
 H550 H 0.02658 0.48612 0.46077
 H551 H -0.02338 0.49263 0.54614
 H552 H -0.03955 0.47695 0.52921
 O553 O 0.54528 0.01579 0.50318
 O554 O 0.54257 0.01203 0.47663
 O555 O 0.50480 0.04163 0.51658
 O556 O 0.47906 0.03878 0.51635
 O557 O 0.51933 0.00141 0.54280
 O558 O 0.51601 -0.02594 0.53907
 O559 O 0.46415 -0.00007 0.47665
 O560 O 0.47045 0.02606 0.47830
 O561 O 0.50323 -0.02398 0.46119
 O562 O 0.53067 -0.02478 0.46876
 O563 O 0.47931 -0.03991 0.50006
 O564 O 0.47792 -0.03304 0.52702
 O565 O 0.46089 -0.01731 0.49639
 O566 O 0.46441 -0.01382 0.52570
 O567 O 0.49937 -0.04285 0.48303
 O568 O 0.52817 -0.03943 0.48691
 O569 O 0.48599 -0.00420 0.45855
 O570 O 0.49318 0.02380 0.46200
 O571 O 0.54235 -0.00191 0.52261
 O572 O 0.53419 -0.02896 0.52284
 O573 O 0.50241 0.02147 0.54018
 O574 O 0.47455 0.02025 0.53201
 O575 O 0.52536 0.03869 0.50008
 O576 O 0.52412 0.03055 0.47253
 Zr577 Zr 0.52365 0.01560 0.49211
 O578 O 0.51035 0.00173 0.47715
 Zr579 Zr 0.49432 0.01958 0.51725
 O580 O 0.47961 0.00640 0.50299
 Zr581 Zr 0.51918 -0.00962 0.52101
 O582 O 0.50529 -0.02438 0.50741
 Zr583 Zr 0.48691 0.00785 0.47974
 O584 O 0.50031 0.02285 0.49371
 Zr585 Zr 0.51146 -0.02165 0.48395
 O586 O 0.52645 -0.00806 0.49773
 Zr587 Zr 0.48197 -0.01720 0.50867
 O588 O 0.49560 -0.00384 0.52412
 O589 O 0.51762 0.01378 0.51542
 O590 O 0.48811 -0.01565 0.48537
 C591 C 0.55042 0.00806 0.51483
 C592 C 0.51685 0.04685 0.50935
 C593 C 0.51214 0.01343 0.54807
 C594 C 0.45609 -0.01011 0.48425
 C595 C 0.49314 -0.01630 0.45343
 C596 C 0.48705 -0.04779 0.48993
 H597 H 0.51395 0.00323 0.46632
 H598 H 0.50654 -0.03524 0.51090
 H599 H 0.52421 0.02047 0.52199
 H600 H 0.46879 0.01008 0.50422
 H601 H 0.47590 0.03571 0.48135
 H602 H 0.47219 0.03700 0.50741
 H603 H 0.52483 -0.04590 0.49582
 H604 H 0.54034 -0.02936 0.51308
 H605 H 0.48504 0.02343 0.45396
 H606 H 0.53286 0.03797 0.47363
 H607 H 0.48762 -0.03896 0.52854
 H608 H 0.50536 -0.02431 0.54319
 H609 H 0.54591 0.00110 0.47791
 H610 H 0.53112 -0.01571 0.46174
 H611 H 0.47543 0.01137 0.53924
 H612 H 0.45765 -0.00525 0.52219
 O613 O 0.50360 0.47520 -0.04704
 O614 O 0.53009 0.47903 -0.04251
 O615 O 0.48633 0.45479 -0.00514
 O616 O 0.48722 0.46047 0.02043
 O617 O 0.46200 0.49284 -0.02506
 O618 O 0.46613 0.52038 -0.02570
 O619 O 0.52410 0.50189 0.03334
 O620 O 0.52296 0.47497 0.03033
 O621 O 0.54273 0.52032 -0.00738
 O622 O 0.53736 0.51663 -0.03536
 O623 O 0.50263 0.53914 0.01084
 O624 O 0.47468 0.53164 0.01057
 O625 O 0.50435 0.51942 0.03251
 O626 O 0.47615 0.51626 0.02802
 O627 O 0.52072 0.53927 -0.00849
 O628 O 0.51932 0.53157 -0.03643
 O629 O 0.54397 0.50308 0.01249
 O630 O 0.54113 0.47442 0.00897
 O631 O 0.48387 0.49282 -0.04743
 O632 O 0.48298 0.52040 -0.04327
 O633 O 0.46349 0.47532 -0.00543
 O634 O 0.47001 0.47924 0.02184
 O635 O 0.50453 0.45501 -0.02442
 O636 O 0.53214 0.46279 -0.02164
 Zr637 Zr 0.51300 0.47798 -0.02472
 O638 O 0.52715 0.49351 -0.01227
 Zr639 Zr 0.48608 0.47784 0.00315
 O640 O 0.49916 0.49321 0.01684
 Zr641 Zr 0.48401 0.50355 -0.02549
 O642 O 0.49689 0.52012 -0.01306
 Zr643 Zr 0.52288 0.49084 0.01158
 O644 O 0.50993 0.47398 -0.00075
 Zr645 Zr 0.52071 0.51648 -0.01712
 O646 O 0.50773 0.50104 -0.03097
 Zr647 Zr 0.49387 0.51627 0.01082
 O648 O 0.47939 0.50089 -0.00164
 O649 O 0.48933 0.48061 -0.02054
 O650 O 0.51756 0.51391 0.00668
 C651 C 0.49230 0.48218 -0.05380
 C652 C 0.49416 0.44813 -0.01608
 C653 C 0.45613 0.48217 -0.01636
 C654 C 0.51588 0.51293 0.03930
 C655 C 0.54964 0.51420 0.00426
 C656 C 0.51311 0.54590 0.00255
 H657 H 0.53820 0.49153 -0.01479
 H658 H 0.49360 0.53068 -0.01612
 H659 H 0.48297 0.47331 -0.02668
 H660 H 0.49711 0.49111 0.02794
 H661 H 0.52035 0.46466 0.02596
 H662 H 0.49399 0.46448 0.02870
 H663 H 0.50999 0.53814 -0.03502
 H664 H 0.49326 0.52034 -0.04851
 H665 H 0.54842 0.47593 0.01767
 H666 H 0.53162 0.45439 -0.02952
 H667 H 0.47553 0.53806 0.00110
 H668 H 0.46140 0.52036 -0.01519
 H669 H 0.52915 0.48939 -0.04739
 H670 H 0.54474 0.50803 -0.03354
 H671 H 0.46370 0.48869 0.02016
 H672 H 0.47814 0.50748 0.03512
 O673 O 0.75189 0.27005 0.45707
 O674 O 0.72546 0.27084 0.46231
 O675 O 0.77285 0.28920 0.49761
 O676 O 0.77356 0.28439 0.52293
 O677 O 0.79011 0.24616 0.47786
 O678 O 0.78155 0.22006 0.47877
 O679 O 0.72901 0.25182 0.53923
 O680 O 0.73444 0.27766 0.53458
 O681 O 0.70667 0.23433 0.50019
 O682 O 0.71169 0.23457 0.47242
 O683 O 0.74377 0.20990 0.51848
 O684 O 0.77151 0.21198 0.51771
 O685 O 0.74562 0.23126 0.53912
 O686 O 0.77449 0.22964 0.53264
 O687 O 0.72533 0.21148 0.49994
 O688 O 0.72750 0.21737 0.47130
 O689 O 0.70869 0.25257 0.51912
 O690 O 0.71643 0.28009 0.51363
 O691 O 0.76814 0.24917 0.45662
 O692 O 0.76377 0.22178 0.46249
 O693 O 0.79238 0.26472 0.49646
 O694 O 0.78583 0.26313 0.52470
 O695 O 0.75452 0.29121 0.47896
 O696 O 0.72603 0.28788 0.48255
 Zr697 Zr 0.74261 0.26981 0.47970
 O698 O 0.72638 0.25750 0.49337
 Zr699 Zr 0.77001 0.26662 0.50640
 O700 O 0.75468 0.25488 0.52148
 Zr701 Zr 0.76668 0.23960 0.47912
 O702 O 0.75178 0.22623 0.49327
 Zr703 Zr 0.73157 0.26091 0.51683
 O704 O 0.74706 0.27446 0.50324
 Zr705 Zr 0.72881 0.23348 0.48982
 O706 O 0.74362 0.24587 0.47452
 Zr707 Zr 0.75593 0.23098 0.51680
 O708 O 0.77245 0.24259 0.50261
 O709 O 0.76561 0.26339 0.48304
 O710 O 0.73284 0.23696 0.51332
 C711 C 0.76161 0.26095 0.45017
 C712 C 0.76579 0.29675 0.48694
 C713 C 0.79804 0.25607 0.48561
 C714 C 0.73551 0.24013 0.54578
 C715 C 0.70106 0.24225 0.51157
 C716 C 0.73223 0.20434 0.51099
 H717 H 0.71576 0.26115 0.49106
 H718 H 0.75324 0.21510 0.49079
 H719 H 0.77290 0.26932 0.47637
 H720 H 0.75734 0.25736 0.53234
 H721 H 0.73874 0.28708 0.52955
 H722 H 0.76483 0.28374 0.53042
 H723 H 0.73536 0.20919 0.47306
 H724 H 0.75392 0.22398 0.45711
 H725 H 0.70904 0.28037 0.52253
 H726 H 0.72787 0.29585 0.47443
 H727 H 0.77105 0.20656 0.50761
 H728 H 0.78632 0.21953 0.48915
 H729 H 0.72436 0.26018 0.45812
 H730 H 0.70683 0.24498 0.47297
 H731 H 0.79120 0.25315 0.52262
 H732 H 0.77328 0.23825 0.54018
 O733 O 0.74992 0.77255 -0.04204
 O734 O 0.72288 0.77066 -0.03892
 O735 O 0.76509 0.79625 -0.00141
 O736 O 0.76304 0.79308 0.02441
 O737 O 0.78821 0.75453 -0.01654
 O738 O 0.78197 0.72728 -0.01408
 O739 O 0.72181 0.75652 0.03923
 O740 O 0.72547 0.78273 0.03351
 O741 O 0.70440 0.73511 -0.00009
 O742 O 0.71206 0.73525 -0.02817
 O743 O 0.74163 0.71533 0.02198
 O744 O 0.76997 0.72053 0.02245
 O745 O 0.74020 0.73767 0.04134
 O746 O 0.76886 0.73797 0.03791
 O747 O 0.72488 0.71442 0.00185
 O748 O 0.72847 0.71864 -0.02641
 O749 O 0.70338 0.75456 0.01773
 O750 O 0.70881 0.78227 0.01127
 O751 O 0.76810 0.75350 -0.03965
 O752 O 0.76639 0.72656 -0.03269
 O753 O 0.78672 0.77425 0.00098
 O754 O 0.77837 0.77343 0.02829
 O755 O 0.74830 0.79509 -0.02155
 O756 O 0.72026 0.78926 -0.02015
 Zr757 Zr 0.73855 0.77271 -0.02026
 O758 O 0.72241 0.75983 -0.00701
 Zr759 Zr 0.76357 0.77406 0.00885
 O760 O 0.74846 0.76131 0.02332
 Zr761 Zr 0.76552 0.74528 -0.01680
 O762 O 0.75049 0.73118 -0.00347
 Zr763 Zr 0.72541 0.76488 0.01659
 O764 O 0.74040 0.77919 0.00326
 Zr765 Zr 0.72729 0.73605 -0.00907
 O766 O 0.74243 0.74879 -0.02375
 Zr767 Zr 0.75224 0.73737 0.02001
 O768 O 0.76873 0.75019 0.00684
 O769 O 0.76164 0.76898 -0.01455
 O770 O 0.72912 0.74104 0.01444
 C771 C 0.76114 0.76415 -0.04742
 C772 C 0.75829 0.80227 -0.01320
 C773 C 0.79424 0.76583 -0.00885
 C774 C 0.72878 0.74571 0.04676
 C775 C 0.69730 0.74307 0.01046
 C776 C 0.73119 0.70847 0.01388
 H777 H 0.71174 0.76233 -0.01029
 H778 H 0.75311 0.72013 -0.00523
 H779 H 0.76885 0.77524 -0.02099
 H780 H 0.74996 0.76448 0.03422
 H781 H 0.72917 0.79227 0.02821
 H782 H 0.75518 0.79067 0.03248
 H783 H 0.73752 0.71196 -0.02417
 H784 H 0.75647 0.72675 -0.03838
 H785 H 0.70088 0.78239 0.01970
 H786 H 0.72194 0.79662 -0.02886
 H787 H 0.76944 0.71342 0.01346
 H788 H 0.78617 0.72840 -0.00350
 H789 H 0.72360 0.75982 -0.04272
 H790 H 0.70512 0.74439 -0.02750
 H791 H 0.78418 0.76351 0.02770
 H792 H 0.76722 0.74766 0.04389
 O793 O 0.99421 0.20581 0.22741
 O794 O 0.96784 0.20936 0.23179
 O795 O 1.00876 0.24653 0.20300
 O796 O 1.00900 0.27220 0.20656
 O797 O 1.03484 0.22998 0.24221
 O798 O 1.03138 0.23192 0.26945
 O799 O 0.96974 0.28718 0.24685
 O800 O 0.97113 0.28198 0.22062
 O801 O 0.95388 0.24788 0.26960
 O802 O 0.96062 0.22050 0.26965
 O803 O 0.99391 0.26997 0.28543
 O804 O 1.02049 0.27100 0.27783
 O805 O 0.98979 0.28934 0.26367
 O806 O 1.01916 0.28500 0.25901
 O807 O 0.97644 0.25039 0.28821
 O808 O 0.97940 0.22146 0.28339
 O809 O 0.95124 0.26557 0.25027
 O810 O 0.95452 0.25953 0.22206
 O811 O 1.01407 0.20737 0.24456
 O812 O 1.01445 0.21453 0.27211
 O813 O 1.03252 0.24767 0.22283
 O814 O 1.02482 0.27578 0.22498
 O815 O 0.99164 0.22655 0.20548
 O816 O 0.96408 0.22873 0.21417
 Zr817 Zr 0.98382 0.22784 0.22868
 O818 O 0.96939 0.24113 0.24339
 Zr819 Zr 1.00970 0.25638 0.22526
 O820 O 0.99587 0.27118 0.23913
 Zr821 Zr 1.01307 0.23031 0.25339
 O822 O 1.00011 0.24435 0.26884
 Zr823 Zr 0.97243 0.26467 0.23799
 O824 O 0.98595 0.25137 0.22224
 Zr825 Zr 0.97646 0.23906 0.26653
 O826 O 0.98957 0.22398 0.25208
 Zr827 Zr 1.00180 0.26789 0.26242
 O828 O 1.01675 0.25402 0.24842
 O829 O 1.00733 0.23293 0.23025
 O830 O 0.97830 0.26258 0.26127
 C831 C 1.00588 0.19996 0.23453
 C832 C 1.00122 0.23488 0.19753
 C833 C 1.04026 0.23749 0.23048
 C834 C 0.97759 0.29469 0.25698
 C835 C 0.94611 0.25819 0.26221
 C836 C 0.98391 0.26221 0.29340
 H837 H 0.95847 0.23791 0.24200
 H838 H 1.00378 0.24261 0.27952
 H839 H 1.01374 0.22637 0.22326
 H840 H 0.99728 0.28209 0.23579
 H841 H 0.97406 0.27688 0.21071
 H842 H 1.00018 0.27927 0.20866
 H843 H 0.98844 0.22430 0.28979
 H844 H 1.00475 0.20836 0.27205
 H845 H 0.94661 0.26787 0.22286
 H846 H 0.96489 0.22027 0.20637
 H847 H 1.02214 0.26098 0.28316
 H848 H 1.03565 0.24256 0.26845
 H849 H 0.96910 0.20559 0.24255
 H850 H 0.95397 0.22007 0.26038
 H851 H 1.03218 0.27436 0.23361
 H852 H 1.01537 0.29247 0.25120
 O853 O 0.77960 0.96618 0.75095
 O854 O 0.77815 0.97079 0.72477
 O855 O 0.80090 1.00718 0.76944
 O856 O 0.79629 1.03262 0.77053
 O857 O 0.75999 0.98790 0.79144
 O858 O 0.73317 0.98890 0.78591
 O859 O 0.76016 1.04788 0.72918
 O860 O 0.78621 1.04307 0.73176
 O861 O 0.73991 1.00853 0.70956
 O862 O 0.74019 0.98082 0.71514
 O863 O 0.71967 1.02862 0.74865
 O864 O 0.72384 1.02853 0.77547
 O865 O 0.74147 1.04880 0.74798
 O866 O 0.74278 1.04249 0.77730
 O867 O 0.71917 1.00966 0.73033
 O868 O 0.72461 0.98061 0.73283
 O869 O 0.75843 1.02731 0.70933
 O870 O 0.78653 1.02153 0.71402
 O871 O 0.76053 0.96612 0.76943
 O872 O 0.73273 0.97242 0.76797
 O873 O 0.77869 1.00651 0.79138
 O874 O 0.77638 1.03485 0.78466
 O875 O 0.80104 0.98774 0.75155
 O876 O 0.79508 0.99111 0.72335
 Zr877 Zr 0.77867 0.98863 0.74170
 O878 O 0.76483 1.00191 0.72671
 Zr879 Zr 0.77828 1.01605 0.76889
 O880 O 0.76537 1.03091 0.75463
 Zr881 Zr 0.75098 0.98882 0.76888
 O882 O 0.73632 1.00295 0.75540
 Zr883 Zr 0.76907 1.02544 0.73113
 O884 O 0.78394 1.01222 0.74533
 Zr885 Zr 0.74112 0.99883 0.73185
 O886 O 0.75490 0.98370 0.74534
 Zr887 Zr 0.74171 1.02661 0.75857
 O888 O 0.75462 1.01253 0.77397
 O889 O 0.77450 0.99255 0.76516
 O890 O 0.74537 1.02240 0.73508
 C891 C 0.77156 0.95948 0.76164
 C892 C 0.80761 0.99602 0.76208
 C893 C 0.77075 0.99574 0.79808
 C894 C 0.74938 1.05491 0.73678
 C895 C 0.74732 1.01972 0.70298
 C896 C 0.71299 1.02117 0.73767
 H897 H 0.76735 0.99924 0.71581
 H898 H 0.72535 1.00076 0.75808
 H899 H 0.78105 0.98594 0.77182
 H900 H 0.76826 1.04181 0.75684
 H901 H 0.79595 1.03801 0.73509
 H902 H 0.79539 1.03942 0.76136
 H903 H 0.71699 0.98313 0.74112
 H904 H 0.73399 0.96672 0.75806
 H905 H 0.78613 1.03021 0.70648
 H906 H 0.80326 0.98309 0.72453
 H907 H 0.71944 1.01802 0.77696
 H908 H 0.73323 0.99940 0.79064
 H909 H 0.76734 0.96690 0.72452
 H910 H 0.74999 0.98111 0.70907
 H911 H 0.76733 1.03269 0.79149
 H912 H 0.75070 1.05042 0.77469
 O913 O 0.74813 0.54674 0.23657
 O914 O 0.77466 0.54059 0.23914
 O915 O 0.72862 0.50789 0.21334
 O916 O 0.72730 0.48212 0.21651
 O917 O 0.70663 0.52582 0.25468
 O918 O 0.71205 0.52329 0.28182
 O919 O 0.76562 0.46278 0.25390
 O920 O 0.76348 0.46866 0.22759
 O921 O 0.78731 0.50000 0.27532
 O922 O 0.78351 0.52846 0.27516
 O923 O 0.74655 0.48265 0.29436
 O924 O 0.71881 0.48514 0.28857
 O925 O 0.74662 0.46303 0.27242
 O926 O 0.71844 0.46974 0.27109
 O927 O 0.76582 0.50059 0.29564
 O928 O 0.76606 0.52933 0.29087
 O929 O 0.78665 0.48208 0.25597
 O930 O 0.78280 0.48888 0.22822
 O931 O 0.72942 0.54657 0.25542
 O932 O 0.72995 0.53982 0.28248
 O933 O 0.70635 0.50800 0.23521
 O934 O 0.71147 0.47985 0.23595
 O935 O 0.74776 0.52604 0.21447
 O936 O 0.77539 0.52136 0.22073
 Zr937 Zr 0.75684 0.52378 0.23695
 O938 O 0.77087 0.50883 0.25022
 Zr939 Zr 0.72843 0.49766 0.23548
 O940 O 0.74132 0.48160 0.24842
 Zr941 Zr 0.72906 0.52370 0.26398
 O942 O 0.74182 0.50872 0.27833
 Zr943 Zr 0.76516 0.48564 0.24528
 O944 O 0.75227 0.50051 0.23067
 Zr945 Zr 0.76571 0.51155 0.27388
 O946 O 0.75294 0.52787 0.26077
 Zr947 Zr 0.73723 0.48556 0.27214
 O948 O 0.72291 0.50054 0.25914
 O949 O 0.73312 0.52076 0.24042
 O950 O 0.76103 0.48836 0.26898
 C951 C 0.73739 0.55340 0.24472
 C952 C 0.73687 0.51883 0.20732
 C953 C 0.69988 0.51862 0.24354
 C954 C 0.75750 0.45624 0.26468
 C955 C 0.79329 0.48868 0.26751
 C956 C 0.75763 0.48954 0.30147
 H957 H 0.78195 0.51085 0.24789
 H958 H 0.73910 0.51087 0.28928
 H959 H 0.72682 0.52788 0.23404
 H960 H 0.73856 0.47091 0.24527
 H961 H 0.76079 0.47428 0.21796
 H962 H 0.73442 0.47343 0.21877
 H963 H 0.75680 0.52798 0.29762
 H964 H 0.74043 0.54453 0.28212
 H965 H 0.78960 0.47958 0.22828
 H966 H 0.77497 0.53013 0.21329
 H967 H 0.72002 0.49425 0.29546
 H968 H 0.70653 0.51325 0.28084
 H969 H 0.77410 0.54455 0.24991
 H970 H 0.78995 0.52760 0.26564
 H971 H 0.70542 0.48118 0.24568
 H972 H 0.72001 0.46309 0.26184
 O973 O 0.55317 0.23773 0.74729
 O974 O 0.54763 0.23944 0.77388
 O975 O 0.51337 0.21481 0.72856
 O976 O 0.48738 0.21847 0.72941
 O977 O 0.53090 0.25585 0.70666
 O978 O 0.52909 0.28303 0.71235
 O979 O 0.47038 0.25691 0.76873
 O980 O 0.47527 0.23033 0.76583
 O981 O 0.50934 0.27687 0.78859
 O982 O 0.53748 0.27590 0.78319
 O983 O 0.49071 0.29681 0.74928
 O984 O 0.49209 0.29057 0.72092
 O985 O 0.47037 0.27542 0.74992
 O986 O 0.47544 0.27428 0.72188
 O987 O 0.50938 0.29724 0.76767
 O988 O 0.53787 0.29179 0.76608
 O989 O 0.49072 0.25818 0.78874
 O990 O 0.49629 0.23010 0.78404
 O991 O 0.55253 0.25641 0.72862
 O992 O 0.54624 0.28348 0.72923
 O993 O 0.51262 0.23682 0.70684
 O994 O 0.48491 0.23799 0.71339
 O995 O 0.53219 0.21560 0.74684
 O996 O 0.52808 0.22149 0.77473
 Zr997 Zr 0.53042 0.23799 0.75657
 O998 O 0.51643 0.25163 0.77148
 Zr999 Zr 0.50329 0.23719 0.72949
 O1000 O 0.48811 0.25069 0.74332
 Zr1001 Zr 0.52982 0.26521 0.72919
 O1002 O 0.51589 0.27997 0.74289
 Zr1003 Zr 0.49291 0.24742 0.76689
 O1004 O 0.50686 0.23234 0.75311
 Zr1005 Zr 0.51969 0.27523 0.76644
 O1006 O 0.53499 0.26173 0.75270
 Zr1007 Zr 0.49245 0.27443 0.73943
 O1008 O 0.50638 0.26090 0.72421
 O1009 O 0.52663 0.24164 0.73308
 O1010 O 0.49619 0.27108 0.76297
 C1011 C 0.55959 0.24593 0.73649
 C1012 C 0.52460 0.20860 0.73613
 C1013 C 0.52318 0.24496 0.70005
 C1014 C 0.46382 0.26793 0.76110
 C1015 C 0.49810 0.26944 0.79512
 C1016 C 0.49826 0.30356 0.76018
 H1017 H 0.51886 0.24919 0.78239
 H1018 H 0.51824 0.29090 0.74022
 H1019 H 0.53349 0.23523 0.72638
 H1020 H 0.47723 0.24788 0.74107
 H1021 H 0.48042 0.22051 0.76267
 H1022 H 0.47868 0.22139 0.73638
 H1023 H 0.53615 0.29882 0.75720
 H1024 H 0.55125 0.28327 0.73951
 H1025 H 0.48732 0.23048 0.79133
 H1026 H 0.53665 0.21381 0.77382
 H1027 H 0.50088 0.29783 0.72231
 H1028 H 0.51881 0.28228 0.70737
 H1029 H 0.55181 0.25015 0.77353
 H1030 H 0.53634 0.26664 0.78988
 H1031 H 0.48591 0.24796 0.70775
 H1032 H 0.46930 0.26463 0.72303
 O1033 O 0.24843 0.71130 0.52626
 O1034 O 0.27475 0.71658 0.52295
 O1035 O 0.22954 0.75327 0.54520
 O1036 O 0.22919 0.77864 0.53874
 O1037 O 0.20684 0.73095 0.50729
 O1038 O 0.21154 0.72983 0.48011
 O1039 O 0.26788 0.79150 0.49813
 O1040 O 0.26599 0.78928 0.52489
 O1041 O 0.28773 0.75074 0.48111
 O1042 O 0.28277 0.72284 0.48484
 O1043 O 0.24792 0.76777 0.46109
 O1044 O 0.21997 0.76687 0.46772
 O1045 O 0.24865 0.78988 0.48032
 O1046 O 0.22015 0.78429 0.48340
 O1047 O 0.26641 0.74897 0.46167
 O1048 O 0.26502 0.72088 0.46988
 O1049 O 0.28815 0.77125 0.49771
 O1050 O 0.28440 0.76834 0.52642
 O1051 O 0.22936 0.70950 0.50825
 O1052 O 0.22922 0.71317 0.48039
 O1053 O 0.20715 0.75109 0.52436
 O1054 O 0.21314 0.77887 0.51954
 O1055 O 0.24802 0.73441 0.54580
 O1056 O 0.27582 0.73817 0.53844
 Zr1057 Zr 0.25722 0.73385 0.52306
 O1058 O 0.27152 0.74623 0.50746
 Zr1059 Zr 0.22955 0.76072 0.52194
 O1060 O 0.24292 0.77452 0.50668
 Zr1061 Zr 0.22909 0.73127 0.49700
 O1062 O 0.24203 0.74389 0.48042
 Zr1063 Zr 0.26668 0.77003 0.50958
 O1064 O 0.25338 0.75782 0.52641
 Zr1065 Zr 0.26578 0.74063 0.48455
 O1066 O 0.25282 0.72671 0.50013
 Zr1067 Zr 0.23844 0.76785 0.48370
 O1068 O 0.22378 0.75508 0.49894
 O1069 O 0.23355 0.73705 0.51986
 O1070 O 0.26211 0.76444 0.48658
 C1071 C 0.23762 0.70383 0.51926
 C1072 C 0.23736 0.74273 0.55227
 C1073 C 0.20039 0.73958 0.51770
 C1074 C 0.25997 0.79705 0.48685
 C1075 C 0.29429 0.76275 0.48701
 C1076 C 0.25884 0.75972 0.45472
 H1077 H 0.28256 0.74407 0.50968
 H1078 H 0.23912 0.74050 0.46989
 H1079 H 0.22718 0.73086 0.52720
 H1080 H 0.24060 0.78563 0.50852
 H1081 H 0.26306 0.78514 0.53523
 H1082 H 0.23667 0.78662 0.53520
 H1083 H 0.25615 0.72216 0.46280
 H1084 H 0.23949 0.70806 0.48105
 H1085 H 0.29165 0.77715 0.52479
 H1086 H 0.27522 0.73058 0.54709
 H1087 H 0.22085 0.75694 0.46199
 H1088 H 0.20685 0.74031 0.47947
 H1089 H 0.27436 0.71141 0.51270
 H1090 H 0.28960 0.72476 0.49379
 H1091 H 0.20685 0.77636 0.51033
 H1092 H 0.22213 0.79204 0.49163
 O1093 O 0.26404 0.29129 0.99716
 O1094 O 0.26119 0.28474 1.02350
 O1095 O 0.28778 0.25304 0.97672
 O1096 O 0.28477 0.22732 0.97461
 O1097 O 0.24636 0.27110 0.95556
 O1098 O 0.21926 0.26822 0.96110
 O1099 O 0.24697 0.20712 1.01361
 O1100 O 0.27339 0.21299 1.01082
 O1101 O 0.22540 0.24372 1.03581
 O1102 O 0.22491 0.27206 1.03243
 O1103 O 0.20674 0.22647 0.99500
 O1104 O 0.21270 0.22947 0.96733
 O1105 O 0.22872 0.20726 0.99473
 O1106 O 0.23069 0.21447 0.96640
 O1107 O 0.20513 0.24399 1.01467
 O1108 O 0.20942 0.27295 1.01508
 O1109 O 0.24501 0.22608 1.03471
 O1110 O 0.27275 0.23311 1.03037
 O1111 O 0.24533 0.29139 0.97869
 O1112 O 0.21813 0.28421 0.97955
 O1113 O 0.26607 0.25354 0.95464
 O1114 O 0.26538 0.22514 0.95920
 O1115 O 0.28629 0.27080 0.99623
 O1116 O 0.27970 0.26562 1.02377
 Zr1117 Zr 0.26369 0.26823 1.00541
 O1118 O 0.25038 0.25294 1.01926
 Zr1119 Zr 0.26566 0.24266 0.97646
 O1120 O 0.25280 0.22619 0.98924
 Zr1121 Zr 0.23688 0.26840 0.97798
 O1122 O 0.22254 0.25294 0.99052
 Zr1123 Zr 0.25568 0.22993 1.01307
 O1124 O 0.27026 0.24513 1.00028
 Zr1125 Zr 0.22671 0.25546 1.01436
 O1126 O 0.23984 0.27216 1.00186
 Zr1127 Zr 0.22903 0.22990 0.98550
 O1128 O 0.24198 0.24538 0.97134
 O1129 O 0.26046 0.26561 0.98170
 O1130 O 0.23197 0.23243 1.00926
 C1131 C 0.25598 0.29812 0.98666
 C1132 C 0.29365 0.26384 0.98518
 C1133 C 0.25769 0.26424 0.94854
 C1134 C 0.23623 0.20055 1.00567
 C1135 C 0.23336 0.23249 1.04158
 C1136 C 0.19950 0.23295 1.00639
 H1137 H 0.25258 0.25484 1.03033
 H1138 H 0.21157 0.25496 0.98796
 H1139 H 0.26687 0.27290 0.97551
 H1140 H 0.25607 0.21556 0.98632
 H1141 H 0.28304 0.21866 1.00808
 H1142 H 0.28267 0.21859 0.98177
 H1143 H 0.20263 0.27144 1.00602
 H1144 H 0.21851 0.28886 0.99004
 H1145 H 0.27276 0.22371 1.03703
 H1146 H 0.28711 0.27445 1.02346
 H1147 H 0.20582 0.23860 0.96865
 H1148 H 0.22022 0.25818 0.95554
 H1149 H 0.25040 0.28867 1.02309
 H1150 H 0.23456 0.27154 1.03852
 H1151 H 0.25574 0.22661 0.95322
 H1152 H 0.23967 0.20753 0.96810
 C1153 C 0.31554 0.34812 0.78732
 C1154 C 0.30909 0.36167 0.78112
 C1155 C 0.29545 0.36801 0.78745
 C1156 C 0.28817 0.36050 0.80001
 C1157 C 0.29456 0.34696 0.80620
 C1158 C 0.30839 0.34064 0.80001
 N1159 N 0.28947 0.38222 0.78121
 N1160 N 0.27744 0.38888 0.78681
 C1161 C 0.27172 0.40330 0.78080
 C1162 C 0.25911 0.41056 0.78819
 C1163 C 0.25386 0.42510 0.78318
 C1164 C 0.26116 0.43263 0.77059
 C1165 C 0.27356 0.42505 0.76293
 C1166 C 0.27880 0.41057 0.76799
 H1167 H 0.32616 0.34359 0.78225
 H1168 H 0.31483 0.36736 0.77144
 H1169 H 0.27762 0.36514 0.80512
 H1170 H 0.28870 0.34153 0.81595
 H1171 H 0.25354 0.40507 0.79808
 H1172 H 0.24432 0.43058 0.78936
 H1173 H 0.27948 0.43045 0.75320
 H1174 H 0.28854 0.40519 0.76204
 C1175 C 0.30561 -0.15494 0.28749
 C1176 C 0.30097 -0.14083 0.28104
 C1177 C 0.28898 -0.13220 0.28785
 C1178 C 0.28134 -0.13801 0.30109
 C1179 C 0.28590 -0.15216 0.30757
 C1180 C 0.29826 -0.16077 0.30099
 N1181 N 0.28516 -0.11738 0.28138
 N1182 N 0.27478 -0.10862 0.28731
 C1183 C 0.27135 -0.09360 0.28107
 C1184 C 0.26016 -0.08438 0.28849
 C1185 C 0.25705 -0.06938 0.28315
 C1186 C 0.26511 -0.06333 0.27022
 C1187 C 0.27617 -0.07276 0.26262
 C1188 C 0.27928 -0.08775 0.26800
 H1189 H 0.31510 -0.16115 0.28195
 H1190 H 0.30693 -0.13646 0.27082
 H1191 H 0.27198 -0.13153 0.30655
 H1192 H 0.27987 -0.15618 0.31789
 H1193 H 0.25399 -0.08875 0.29858
 H1194 H 0.24845 -0.06247 0.28929
 H1195 H 0.28261 -0.06850 0.25265
 H1196 H 0.28799 -0.09468 0.26206
 C1197 C 0.79062 0.85357 0.81122
 C1198 C 0.78449 0.86756 0.80585
 C1199 C 0.79174 0.87554 0.79368
 C1200 C 0.80516 0.86921 0.78670
 C1201 C 0.81135 0.85519 0.79209
 C1202 C 0.80422 0.84728 0.80452
 N1203 N 0.78553 0.89024 0.78905
 N1204 N 0.79139 0.89806 0.77794
 C1205 C 0.78555 0.91302 0.77363
 C1206 C 0.79255 0.92075 0.76118
 C1207 C 0.78776 0.93568 0.75711
 C1208 C 0.77581 0.94323 0.76548
 C1209 C 0.76856 0.93529 0.77783
 C1210 C 0.77339 0.92030 0.78188
 H1211 H 0.78477 0.84782 0.82079
 H1212 H 0.77416 0.87232 0.81132
 H1213 H 0.81098 0.87519 0.77727
 H1214 H 0.82181 0.85068 0.78666
 H1215 H 0.80193 0.91527 0.75474
 H1216 H 0.79362 0.94138 0.74751
 H1217 H 0.75936 0.94074 0.78454
 H1218 H 0.76780 0.91453 0.79159
 C1219 C 0.46053 0.89739 0.31344
 C1220 C 0.46620 0.88303 0.30832
 C1221 C 0.45973 0.87571 0.29545
 C1222 C 0.44748 0.88297 0.28761
 C1223 C 0.44175 0.89733 0.29271
 C1224 C 0.44815 0.90476 0.30576
 N1225 N 0.46566 0.86086 0.29071
 N1226 N 0.46045 0.85372 0.27893
 C1227 C 0.46610 0.83877 0.27420
 C1228 C 0.45983 0.83189 0.26099
 C1229 C 0.46473 0.81718 0.25617
 C1230 C 0.47607 0.80900 0.26453
 C1231 C 0.48247 0.81600 0.27776
 C1232 C 0.47753 0.83078 0.28256
 H1233 H 0.46586 0.90261 0.32350
 H1234 H 0.47564 0.87755 0.31446
 H1235 H 0.44227 0.87753 0.27761
 H1236 H 0.43225 0.90253 0.28642
 H1237 H 0.45101 0.83792 0.25446
 H1238 H 0.45950 0.81217 0.24594
 H1239 H 0.49117 0.81003 0.28449
 H1240 H 0.48254 0.83587 0.29285
 C1241 C -0.03177 0.90286 0.81222
 C1242 C -0.02596 0.88857 0.80707
 C1243 C -0.03268 0.88102 0.79444
 C1244 C -0.04510 0.88807 0.78671
 C1245 C -0.05089 0.90237 0.79180
 C1246 C -0.04442 0.90984 0.80474
 N1247 N -0.02699 0.86603 0.78997
 N1248 N -0.03319 0.85817 0.77917
 C1249 C -0.02770 0.84304 0.77494
 C1250 C -0.03535 0.83483 0.76329
 C1251 C -0.03052 0.81986 0.75917
 C1252 C -0.01788 0.81288 0.76667
 C1253 C -0.01016 0.82124 0.77832
 C1254 C -0.01503 0.83618 0.78242
 H1255 H -0.02648 0.90831 0.82218
 H1256 H -0.01636 0.88324 0.81309
 H1257 H -0.05045 0.88246 0.77688
 H1258 H -0.06062 0.90741 0.78575
 H1259 H -0.04515 0.84000 0.75747
 H1260 H -0.03673 0.81375 0.75017
 H1261 H -0.00041 0.81624 0.78436
 H1262 H -0.00894 0.84231 0.79149
 C1263 C -0.03793 -0.15602 -0.05652
 C1264 C -0.03142 -0.14247 -0.05047
 C1265 C -0.03808 -0.13514 -0.03755
 C1266 C -0.05135 -0.14168 -0.03055
 C1267 C -0.05790 -0.15530 -0.03655
 C1268 C -0.05136 -0.16264 -0.04973
 N1269 N -0.03134 -0.12093 -0.03212
 N1270 N -0.03687 -0.11328 -0.02069
 C1271 C -0.03015 -0.09885 -0.01574
 C1272 C -0.03726 -0.09051 -0.00367
 C1273 C -0.03153 -0.07596 0.00078
 C1274 C -0.01849 -0.06948 -0.00680
 C1275 C -0.01113 -0.07812 -0.01865
 C1276 C -0.01690 -0.09263 -0.02309
 H1277 H -0.03243 -0.16121 -0.06662
 H1278 H -0.02120 -0.13754 -0.05599
 H1279 H -0.05671 -0.13622 -0.02053
 H1280 H -0.06818 -0.15994 -0.03090
 H1281 H -0.04747 -0.09516 0.00210
 H1282 H -0.03751 -0.06966 0.00993
 H1283 H -0.00110 -0.07353 -0.02476
 H1284 H -0.01116 -0.09885 -0.03244
 C1285 C -0.05448 0.33735 0.46539
 C1286 C -0.04918 0.35140 0.47141
 C1287 C -0.03811 0.36015 0.46337
 C1288 C -0.03203 0.35451 0.44926
 C1289 C -0.03729 0.34037 0.44317
 C1290 C -0.04879 0.33167 0.45105
 N1291 N -0.03370 0.37488 0.46964
 N1292 N -0.02400 0.38387 0.46298
 C1293 C -0.02016 0.39872 0.46942
 C1294 C -0.00925 0.40806 0.46177
 C1295 C -0.00554 0.42276 0.46758
 C1296 C -0.01274 0.42840 0.48120
 C1297 C -0.02368 0.41894 0.48889
 C1298 C -0.02734 0.40424 0.48308
 H1299 H -0.06323 0.33109 0.47197
 H1300 H -0.05390 0.35562 0.48232
 H1301 H -0.02341 0.36111 0.44285
 H1302 H -0.03254 0.33645 0.43216
 H1303 H -0.00367 0.40397 0.45122
 H1304 H 0.00289 0.42974 0.46132
 H1305 H -0.02945 0.42290 0.49939
 H1306 H -0.03586 0.39725 0.48920
 C1307 C 0.45854 -0.14859 0.43472
 C1308 C 0.46570 -0.13531 0.44069
 C1309 C 0.45954 -0.12779 0.45375
 C1310 C 0.44617 -0.13383 0.46098
 C1311 C 0.43898 -0.14711 0.45507
 C1312 C 0.44497 -0.15464 0.44175
 N1313 N 0.46685 -0.11388 0.45918
 N1314 N 0.46158 -0.10622 0.47073
 C1315 C 0.46866 -0.09209 0.47590
 C1316 C 0.46178 -0.08388 0.48818
 C1317 C 0.46792 -0.06965 0.49300
 C1318 C 0.48114 -0.06338 0.48560
 C1319 C 0.48821 -0.07185 0.47346
 C1320 C 0.48202 -0.08605 0.46864
 H1321 H 0.46361 -0.15398 0.42450
 H1322 H 0.47601 -0.13077 0.43502
 H1323 H 0.44119 -0.12822 0.47112
 H1324 H 0.42863 -0.15133 0.46091
 H1325 H 0.45147 -0.08841 0.49387
 H1326 H 0.46216 -0.06346 0.50237
 H1327 H 0.49836 -0.06737 0.46745
 H1328 H 0.48756 -0.09218 0.45911
 C1329 C 0.43947 0.34566 -0.03936
 C1330 C 0.44546 0.35906 -0.03243
 C1331 C 0.45882 0.36617 -0.03841
 C1332 C 0.46634 0.35957 -0.05137
 C1333 C 0.46038 0.34620 -0.05836
 C1334 C 0.44675 0.33909 -0.05257
 N1335 N 0.46414 0.38036 -0.03152
 N1336 N 0.47627 0.38734 -0.03638
 C1337 C 0.48130 0.40188 -0.03005
 C1338 C 0.49446 0.40903 -0.03645
 C1339 C 0.49898 0.42381 -0.03150
 C1340 C 0.49040 0.43175 -0.01999
 C1341 C 0.47749 0.42428 -0.01318
 C1342 C 0.47296 0.40949 -0.01817
 H1343 H 0.42901 0.34062 -0.03444
 H1344 H 0.43954 0.36404 -0.02246
 H1345 H 0.47669 0.36486 -0.05623
 H1346 H 0.46643 0.34157 -0.06843
 H1347 H 0.50099 0.40329 -0.04559
 H1348 H 0.50899 0.42916 -0.03700
 H1349 H 0.47058 0.43005 -0.00433
 H1350 H 0.46274 0.40419 -0.01303
 C1351 C 0.78598 0.40486 0.44282
 C1352 C 0.78006 0.39048 0.44748
 C1353 C 0.78763 0.38173 0.45877
 C1354 C 0.80114 0.38766 0.46561
 C1355 C 0.80709 0.40207 0.46097
 C1356 C 0.79966 0.41077 0.44940
 N1357 N 0.78156 0.36675 0.46273
 N1358 N 0.78790 0.35803 0.47275
 C1359 C 0.78193 0.34291 0.47636
 C1360 C 0.78937 0.33399 0.48760
 C1361 C 0.78408 0.31904 0.49114
 C1362 C 0.77120 0.31273 0.48341
 C1363 C 0.76370 0.32179 0.47217
 C1364 C 0.76900 0.33674 0.46868
 H1365 H 0.77992 0.41123 0.43392
 H1366 H 0.76964 0.38603 0.44214
 H1367 H 0.80719 0.38109 0.47438
 H1368 H 0.81762 0.40627 0.46628
 H1369 H 0.79936 0.33861 0.49358
 H1370 H 0.79016 0.31241 0.49984
 H1371 H 0.75376 0.31732 0.46601
 H1372 H 0.76306 0.34342 0.45991
 C1373 C 0.81034 0.90681 -0.03540
 C1374 C 0.80486 0.89299 -0.02883
 C1375 C 0.79219 0.88524 -0.03522
 C1376 C 0.78479 0.89164 -0.04818
 C1377 C 0.79022 0.90546 -0.05479
 C1378 C 0.80321 0.91319 -0.04861
 N1379 N 0.78737 0.87069 -0.02868
 N1380 N 0.77610 0.86297 -0.03420
 C1381 C 0.77142 0.84819 -0.02814
 C1382 C 0.75915 0.84038 -0.03520
 C1383 C 0.75472 0.82561 -0.03017
 C1384 C 0.76252 0.81832 -0.01788
 C1385 C 0.77468 0.82633 -0.01058
 C1386 C 0.77912 0.84114 -0.01568
 H1387 H 0.82030 0.91234 -0.03018
 H1388 H 0.81065 0.88818 -0.01883
 H1389 H 0.77493 0.88587 -0.05333
 H1390 H 0.78431 0.90992 -0.06488
 H1391 H 0.75315 0.84569 -0.04481
 H1392 H 0.74529 0.81983 -0.03605
 H1393 H 0.78095 0.82107 -0.00112
 H1394 H 0.78866 0.84697 -0.01003
 C1395 C 0.78106 0.31050 0.34430
 C1396 C 0.77515 0.30544 0.35858
 C1397 C 0.78155 0.29251 0.36595
 C1398 C 0.79386 0.28446 0.35874
 C1399 C 0.79981 0.28950 0.34447
 C1400 C 0.79357 0.30267 0.33713
 N1401 N 0.77567 0.28809 0.38090
 N1402 N 0.78103 0.27652 0.38830
 C1403 C 0.77546 0.27241 0.40346
 C1404 C 0.78198 0.25960 0.41095
 C1405 C 0.77731 0.25569 0.42602
 C1406 C 0.76599 0.26458 0.43389
 C1407 C 0.75928 0.27731 0.42620
 C1408 C 0.76396 0.28119 0.41113
 H1409 H 0.77595 0.32066 0.33900
 H1410 H 0.76566 0.31174 0.36402
 H1411 H 0.79902 0.27442 0.36422
 H1412 H 0.80941 0.28317 0.33929
 H1413 H 0.79086 0.25276 0.40516
 H1414 H 0.78275 0.24583 0.43156
 H1415 H 0.75054 0.28442 0.43189
 H1416 H 0.75874 0.29116 0.40558
 C1417 C 0.78932 0.81313 -0.15093
 C1418 C 0.78232 0.80732 -0.13751
 C1419 C 0.78889 0.79486 -0.12961
 C1420 C 0.80254 0.78795 -0.13548
 C1421 C 0.80962 0.79373 -0.14901
 C1422 C 0.80320 0.80657 -0.15684
 N1423 N 0.78169 0.78995 -0.11541
 N1424 N 0.78687 0.77886 -0.10721
 C1425 C 0.77962 0.77471 -0.09276
 C1426 C 0.78592 0.76262 -0.08404
 C1427 C 0.77968 0.75892 -0.06948
 C1428 C 0.76697 0.76732 -0.06335
 C1429 C 0.76045 0.77925 -0.07232
 C1430 C 0.76670 0.78291 -0.08688
 H1431 H 0.78384 0.82294 -0.15652
 H1432 H 0.77181 0.81272 -0.13309
 H1433 H 0.80783 0.77826 -0.12952
 H1434 H 0.82022 0.78829 -0.15314
 H1435 H 0.79586 0.75622 -0.08842
 H1436 H 0.78502 0.74966 -0.06292
 H1437 H 0.75069 0.78596 -0.06799
 H1438 H 0.76161 0.79233 -0.09341
 C1439 C 0.30550 0.46445 0.90611
 C1440 C 0.29957 0.47090 0.89258
 C1441 C 0.28739 0.46367 0.88482
 C1442 C 0.28088 0.44998 0.89099
 C1443 C 0.28682 0.44346 0.90458
 C1444 C 0.29937 0.45052 0.91217
 N1445 N 0.28244 0.47011 0.87039
 N1446 N 0.27141 0.46429 0.86260
 C1447 C 0.26703 0.47043 0.84784
 C1448 C 0.25467 0.46356 0.84003
 C1449 C 0.25070 0.46856 0.82519
 C1450 C 0.25909 0.48056 0.81782
 C1451 C 0.27130 0.48770 0.82585
 C1452 C 0.27524 0.48269 0.84074
 H1453 H 0.31511 0.47028 0.91165
 H1454 H 0.30467 0.48145 0.88795
 H1455 H 0.27144 0.44417 0.88516
 H1456 H 0.28183 0.43275 0.90893
 H1457 H 0.24827 0.45411 0.84536
 H1458 H 0.24121 0.46277 0.81940
 H1459 H 0.27802 0.49695 0.82053
 H1460 H 0.28488 0.48818 0.84655
 C1461 C 0.29249 -0.05979 0.40065
 C1462 C 0.28618 -0.05371 0.38709
 C1463 C 0.29359 -0.04157 0.37920
 C1464 C 0.30741 -0.03538 0.38515
 C1465 C 0.31373 -0.04142 0.39877
 C1466 C 0.30639 -0.05378 0.40663
 N1467 N 0.28700 -0.03607 0.36504
 N1468 N 0.29320 -0.02540 0.35685
 C1469 C 0.28651 -0.02044 0.34251
 C1470 C 0.29430 -0.00936 0.33345
 C1471 C 0.28850 -0.00500 0.31898
 C1472 C 0.27474 -0.01167 0.31334
 C1473 C 0.26675 -0.02249 0.32269
 C1474 C 0.27257 -0.02684 0.33711
 H1475 H 0.28648 -0.06926 0.40639
 H1476 H 0.27553 -0.05858 0.38261
 H1477 H 0.31336 -0.02598 0.37924
 H1478 H 0.32445 -0.03651 0.40303
 H1479 H 0.30505 -0.00433 0.33748
 H1480 H 0.29497 0.00334 0.31210
 H1481 H 0.25612 -0.02787 0.31876
 H1482 H 0.26629 -0.03539 0.34389
 C1483 C -0.05452 -0.03659 -0.14913
 C1484 C -0.04972 -0.03102 -0.13471
 C1485 C -0.03783 -0.03847 -0.12667
 C1486 C -0.03052 -0.05147 -0.13336
 C1487 C -0.03526 -0.05707 -0.14776
 C1488 C -0.04747 -0.04983 -0.15582
 N1489 N -0.03367 -0.03290 -0.11161
 N1490 N -0.02332 -0.03952 -0.10350
 C1491 C -0.01940 -0.03418 -0.08829
 C1492 C -0.00820 -0.04226 -0.07986
 C1493 C -0.00451 -0.03766 -0.06477
 C1494 C -0.01200 -0.02482 -0.05787
 C1495 C -0.02312 -0.01662 -0.06649
 C1496 C -0.02679 -0.02125 -0.08154
 H1497 H -0.06390 -0.03061 -0.15490
 H1498 H -0.05543 -0.02096 -0.12967
 H1499 H -0.02126 -0.05742 -0.12739
 H1500 H -0.02941 -0.06722 -0.15242
 H1501 H -0.00244 -0.05226 -0.08494
 H1502 H 0.00409 -0.04424 -0.05849
 H1503 H -0.02913 -0.00668 -0.06157
 H1504 H -0.03550 -0.01481 -0.08782
 C1505 C -0.04184 0.43389 0.35287
 C1506 C -0.03436 0.43884 0.36628
 C1507 C -0.04017 0.45135 0.37487
 C1508 C -0.05358 0.45906 0.36979
 C1509 C -0.06116 0.45412 0.35637
 C1510 C -0.05546 0.44135 0.34775
 N1511 N -0.03250 0.45564 0.38891
 N1512 N -0.03698 0.46708 0.39717
 C1513 C -0.02967 0.47110 0.41147
 C1514 C -0.03539 0.48379 0.41987
 C1515 C -0.02922 0.48755 0.43429
 C1516 C -0.01714 0.47862 0.44065
 C1517 C -0.01114 0.46607 0.43201
 C1518 C -0.01736 0.46232 0.41753
 H1519 H -0.03696 0.42406 0.34666
 H1520 H -0.02404 0.43280 0.37008
 H1521 H -0.05831 0.46878 0.37628
 H1522 H -0.07154 0.46023 0.35288
 H1523 H -0.04486 0.49064 0.41533
 H1524 H -0.03414 0.49732 0.44057
 H1525 H -0.00191 0.45892 0.43658
 H1526 H -0.01275 0.45242 0.41124
 C1527 C 0.44366 -0.03885 0.34903
 C1528 C 0.44935 -0.03241 0.36272
 C1529 C 0.46092 -0.04004 0.37105
 C1530 C 0.46698 -0.05414 0.36539
 C1531 C 0.46131 -0.06059 0.35168
 C1532 C 0.44947 -0.05309 0.34341
 N1533 N 0.46593 -0.03345 0.38540
 N1534 N 0.47614 -0.03991 0.39378
 C1535 C 0.48074 -0.03343 0.40833
 C1536 C 0.49181 -0.04126 0.41715
 C1537 C 0.49606 -0.03558 0.43170
 C1538 C 0.48927 -0.02192 0.43768
 C1539 C 0.47830 -0.01397 0.42867
 C1540 C 0.47408 -0.01966 0.41413
 H1541 H 0.43457 -0.03272 0.34296
 H1542 H 0.44460 -0.02154 0.36697
 H1543 H 0.47594 -0.06025 0.37164
 H1544 H 0.46607 -0.07156 0.34769
 H1545 H 0.49700 -0.05190 0.41282
 H1546 H 0.50450 -0.04203 0.43833
 H1547 H 0.47282 -0.00344 0.43290
 H1548 H 0.46548 -0.01340 0.40754
 C1549 C 0.44117 0.46456 -0.15845
 C1550 C 0.44642 0.46987 -0.14411
 C1551 C 0.45953 0.46326 -0.13731
 C1552 C 0.46757 0.45139 -0.14517
 C1553 C 0.46238 0.44607 -0.15954
 C1554 C 0.44898 0.45246 -0.16636
 N1555 N 0.46420 0.46860 -0.12232
 N1556 N 0.47564 0.46276 -0.11514
 C1557 C 0.47997 0.46806 -0.10002
 C1558 C 0.49236 0.46088 -0.09247
 C1559 C 0.49654 0.46551 -0.07751
 C1560 C 0.48833 0.47746 -0.06985
 C1561 C 0.47599 0.48474 -0.07758
 C1562 C 0.47185 0.48009 -0.09249
 H1563 H 0.43087 0.46988 -0.16323
 H1564 H 0.44015 0.47905 -0.13816
 H1565 H 0.47777 0.44613 -0.14016
 H1566 H 0.46883 0.43680 -0.16516
 H1567 H 0.49871 0.45157 -0.09814
 H1568 H 0.50608 0.45964 -0.07191
 H1569 H 0.46941 0.49399 -0.07208
 H1570 H 0.46222 0.48585 -0.09807
 C1571 C 0.45593 0.81069 0.39521
 C1572 C 0.46159 0.80423 0.38141
 C1573 C 0.45334 0.79253 0.37384
 C1574 C 0.43933 0.78714 0.38035
 C1575 C 0.43364 0.79356 0.39423
 C1576 C 0.44184 0.80550 0.40177
 N1577 N 0.45938 0.78664 0.35946
 N1578 N 0.45255 0.77628 0.35147
 C1579 C 0.45894 0.77098 0.33696
 C1580 C 0.45082 0.75998 0.32822
 C1581 C 0.45656 0.75510 0.31375
 C1582 C 0.47057 0.76117 0.30779
 C1583 C 0.47878 0.77204 0.31675
 C1584 C 0.47305 0.77688 0.33115
 H1585 H 0.46259 0.81981 0.40068
 H1586 H 0.47241 0.80847 0.37650
 H1587 H 0.43274 0.77808 0.37469
 H1588 H 0.42275 0.78929 0.39894
 H1589 H 0.43993 0.75534 0.33255
 H1590 H 0.44990 0.74676 0.30715
 H1591 H 0.48960 0.77698 0.31257
 H1592 H 0.47959 0.78538 0.33766
 C1593 C -0.05915 0.78461 0.90399
 C1594 C -0.05358 0.77848 0.89001
 C1595 C -0.04101 0.78537 0.88233
 C1596 C -0.03378 0.79838 0.88896
 C1597 C -0.03929 0.80454 0.90301
 C1598 C -0.05220 0.79786 0.91066
 N1599 N -0.03619 0.77916 0.86763
 N1600 N -0.02516 0.78507 0.85968
 C1601 C -0.02073 0.77902 0.84479
 C1602 C -0.00877 0.78633 0.83650
 C1603 C -0.00459 0.78116 0.82167
 C1604 C -0.01233 0.76850 0.81484
 C1605 C -0.02421 0.76103 0.82332
 C1606 C -0.02838 0.76624 0.83815
 H1607 H -0.06905 0.77899 0.90944
 H1608 H -0.05924 0.76844 0.88502
 H1609 H -0.02399 0.80389 0.88322
 H1610 H -0.03354 0.81469 0.90769
 H1611 H -0.00280 0.79620 0.84148
 H1612 H 0.00460 0.78721 0.81551
 H1613 H -0.03044 0.75129 0.81842
 H1614 H -0.03769 0.76040 0.84434
 C1615 C 0.34165 0.78352 0.30927
 C1616 C 0.35530 0.77674 0.30348
 C1617 C 0.36285 0.78300 0.29047
 C1618 C 0.35642 0.79599 0.28307
 C1619 C 0.34279 0.80276 0.28880
 C1620 C 0.33532 0.79672 0.30209
 N1621 N 0.37726 0.77633 0.28533
 N1622 N 0.38497 0.78194 0.27397
 C1623 C 0.39960 0.77563 0.26906
 C1624 C 0.40774 0.78286 0.25694
 C1625 C 0.42241 0.77749 0.25237
 C1626 C 0.42920 0.76471 0.25988
 C1627 C 0.42083 0.75729 0.27188
 C1628 C 0.40619 0.76270 0.27643
 H1629 H 0.33621 0.77855 0.31949
 H1630 H 0.36015 0.76673 0.30930
 H1631 H 0.36202 0.80104 0.27297
 H1632 H 0.33825 0.81288 0.28293
 H1633 H 0.40278 0.79285 0.25118
 H1634 H 0.42851 0.78350 0.24312
 H1635 H 0.42569 0.74745 0.27796
 H1636 H 0.40013 0.75691 0.28585
 C1637 C -0.14764 0.81411 0.79149
 C1638 C -0.13371 0.80833 0.78538
 C1639 C -0.12628 0.79572 0.79232
 C1640 C -0.13306 0.78879 0.80551
 C1641 C -0.14706 0.79455 0.81165
 C1642 C -0.15449 0.80734 0.80474
 N1643 N -0.11182 0.79041 0.78583
 N1644 N -0.10411 0.77917 0.79149
 C1645 C -0.08955 0.77429 0.78484
 C1646 C -0.08133 0.76216 0.79181
 C1647 C -0.06686 0.75749 0.78587
 C1648 C -0.06034 0.76489 0.77279
 C1649 C -0.06876 0.77695 0.76571
 C1650 C -0.08319 0.78160 0.77167
 H1651 H -0.15300 0.82394 0.78582
 H1652 H -0.12861 0.81377 0.77522
 H1653 H -0.12753 0.77902 0.81109
 H1654 H -0.15198 0.78905 0.82186
 H1655 H -0.08607 0.75643 0.80197
 H1656 H -0.06072 0.74821 0.79166
 H1657 H -0.06412 0.78295 0.75565
 H1658 H -0.08929 0.79100 0.76604
 C1659 C 0.90759 0.29633 0.46816
 C1660 C 0.89373 0.29090 0.47470
 C1661 C 0.88494 0.27968 0.46703
 C1662 C 0.89047 0.27340 0.45297
 C1663 C 0.90436 0.27879 0.44641
 C1664 C 0.91289 0.29058 0.45376
 N1665 N 0.86999 0.27570 0.47321
 N1666 N 0.86106 0.26611 0.46649
 C1667 C 0.84574 0.26292 0.47220
 C1668 C 0.83649 0.25233 0.46417
 C1669 C 0.82109 0.24985 0.46871
 C1670 C 0.81463 0.25801 0.48139
 C1671 C 0.82409 0.26839 0.48965
 C1672 C 0.83950 0.27082 0.48510
 H1673 H 0.91390 0.30534 0.47420
 H1674 H 0.88958 0.29580 0.48555
 H1675 H 0.88386 0.26468 0.44684
 H1676 H 0.90812 0.27408 0.43535
 H1677 H 0.84116 0.24622 0.45417
 H1678 H 0.81416 0.24176 0.46208
 H1679 H 0.81952 0.27482 0.49949
 H1680 H 0.84643 0.27911 0.49148
 C1681 C 0.90168 0.78406 -0.05579
 C1682 C 0.88763 0.77799 -0.05034
 C1683 C 0.87945 0.78540 -0.03838
 C1684 C 0.88568 0.79890 -0.03162
 C1685 C 0.89979 0.80501 -0.03706
 C1686 C 0.90786 0.79776 -0.04935
 N1687 N 0.86463 0.77931 -0.03382
 N1688 N 0.85639 0.78541 -0.02311
 C1689 C 0.84130 0.77957 -0.01909
 C1690 C 0.83284 0.78696 -0.00730
 C1691 C 0.81771 0.78223 -0.00372
 C1692 C 0.81072 0.76996 -0.01192
 C1693 C 0.81940 0.76230 -0.02353
 C1694 C 0.83455 0.76706 -0.02710
 H1695 H 0.90757 0.77810 -0.06522
 H1696 H 0.88296 0.76760 -0.05564
 H1697 H 0.87954 0.80484 -0.02234
 H1698 H 0.90420 0.81555 -0.03184
 H1699 H 0.83789 0.79661 -0.00105
 H1700 H 0.81142 0.78840 0.00531
 H1701 H 0.81439 0.75284 -0.03009
 H1702 H 0.84087 0.76116 -0.03628
 C1703 C -0.15122 -0.03378 -0.05874
 C1704 C -0.13725 -0.02753 -0.05345
 C1705 C -0.13000 -0.03377 -0.04044
 C1706 C -0.13703 -0.04623 -0.03253
 C1707 C -0.15095 -0.05254 -0.03781
 C1708 C -0.15819 -0.04655 -0.05112
 N1709 N -0.11526 -0.02770 -0.03582
 N1710 N -0.10827 -0.03290 -0.02398
 C1711 C -0.09327 -0.02751 -0.01945
 C1712 C -0.08655 -0.03392 -0.00625
 C1713 C -0.07156 -0.02971 -0.00193
 C1714 C -0.06295 -0.01896 -0.01081
 C1715 C -0.06988 -0.01226 -0.02392
 C1716 C -0.08492 -0.01650 -0.02822
 H1717 H -0.15636 -0.02873 -0.06898
 H1718 H -0.13195 -0.01793 -0.05964
 H1719 H -0.13166 -0.05127 -0.02242
 H1720 H -0.15588 -0.06228 -0.03151
 H1721 H -0.09287 -0.04242 0.00058
 H1722 H -0.06664 -0.03511 0.00824
 H1723 H -0.06359 -0.00396 -0.03102
 H1724 H -0.08990 -0.01140 -0.03850
 C1725 C -0.15302 0.46492 0.44518
 C1726 C -0.13863 0.47019 0.45032
 C1727 C -0.13026 0.46161 0.46114
 C1728 C -0.13661 0.44777 0.46710
 C1729 C -0.15103 0.44248 0.46200
 C1730 C -0.15932 0.45090 0.45083
 N1731 N -0.11520 0.46697 0.46551
 N1732 N -0.10679 0.45952 0.47499
 C1733 C -0.09158 0.46466 0.47909
 C1734 C -0.08312 0.45592 0.48971
 C1735 C -0.06812 0.46036 0.49374
 C1736 C -0.06125 0.47370 0.48717
 C1737 C -0.06981 0.48251 0.47650
 C1738 C -0.08486 0.47804 0.47250
 H1739 H -0.15909 0.47175 0.43662
 H1740 H -0.13387 0.48088 0.44566
 H1741 H -0.13035 0.44094 0.47552
 H1742 H -0.15553 0.43165 0.46659
 H1743 H -0.08817 0.44557 0.49482
 H1744 H -0.06188 0.45327 0.50197
 H1745 H -0.06489 0.49282 0.47121
 H1746 H -0.09118 0.48497 0.46421
 C1747 C 0.35265 -0.06094 0.46000
 C1748 C 0.36638 -0.05519 0.46623
 C1749 C 0.37412 -0.04276 0.45923
 C1750 C 0.36784 -0.03587 0.44593
 C1751 C 0.35402 -0.04157 0.43965
 C1752 C 0.34627 -0.05431 0.44653
 N1753 N 0.38847 -0.03768 0.46575
 N1754 N 0.39663 -0.02680 0.45990
 C1755 C 0.41113 -0.02228 0.46656
 C1756 C 0.41999 -0.01070 0.45934
 C1757 C 0.43449 -0.00653 0.46520
 C1758 C 0.44037 -0.01390 0.47848
 C1759 C 0.43130 -0.02537 0.48585
 C1760 C 0.41684 -0.02953 0.47995
 H1761 H 0.34714 -0.07070 0.46577
 H1762 H 0.37112 -0.06057 0.47650
 H1763 H 0.37365 -0.02621 0.44032
 H1764 H 0.34955 -0.03608 0.42932
 H1765 H 0.41574 -0.00504 0.44900
 H1766 H 0.44115 0.00233 0.45921
 H1767 H 0.43545 -0.03131 0.49606
 H1768 H 0.41022 -0.03852 0.48577
 C1769 C 0.34795 0.46227 -0.05853
 C1770 C 0.36233 0.46813 -0.05409
 C1771 C 0.37079 0.46086 -0.04245
 C1772 C 0.36457 0.44772 -0.03498
 C1773 C 0.35012 0.44181 -0.03938
 C1774 C 0.34167 0.44889 -0.05138
 N1775 N 0.38583 0.46682 -0.03883
 N1776 N 0.39440 0.46076 -0.02855
 C1777 C 0.40960 0.46665 -0.02539
 C1778 C 0.41840 0.45954 -0.01387
 C1779 C 0.43344 0.46468 -0.01082
 C1780 C 0.43999 0.47707 -0.01931
 C1781 C 0.43104 0.48427 -0.03081
 C1782 C 0.41598 0.47912 -0.03382
 H1783 H 0.34189 0.46820 -0.06775
 H1784 H 0.36702 0.47827 -0.05991
 H1785 H 0.37093 0.44192 -0.02591
 H1786 H 0.34575 0.43155 -0.03352
 H1787 H 0.41362 0.44990 -0.00732
 H1788 H 0.43998 0.45883 -0.00190
 H1789 H 0.43570 0.49383 -0.03756
 H1790 H 0.40940 0.48480 -0.04282
 C1791 C 0.40394 0.44560 0.77943
 C1792 C 0.38933 0.44973 0.77393
 C1793 C 0.38001 0.46018 0.78221
 C1794 C 0.38564 0.46685 0.79596
 C1795 C 0.40028 0.46274 0.80149
 C1796 C 0.40950 0.45188 0.79340
 N1797 N 0.36471 0.46339 0.77673
 N1798 N 0.35562 0.47264 0.78388
 C1799 C 0.34015 0.47566 0.77883
 C1800 C 0.33122 0.48642 0.78712
 C1801 C 0.31597 0.48948 0.78284
 C1802 C 0.30928 0.48175 0.77014
 C1803 C 0.31830 0.47091 0.76178
 C1804 C 0.33365 0.46789 0.76608
 H1805 H 0.41073 0.43726 0.77284
 H1806 H 0.38512 0.44454 0.76332
 H1807 H 0.37864 0.47500 0.80256
 H1808 H 0.40421 0.46780 0.81226
 H1809 H 0.33609 0.49242 0.79698
 H1810 H 0.30939 0.49787 0.78959
 H1811 H 0.31352 0.46476 0.75196
 H1812 H 0.34036 0.45946 0.75954
 C1813 C 0.40556 -0.03802 0.30701
 C1814 C 0.39229 -0.03129 0.30074
 C1815 C 0.38389 -0.03904 0.28930
 C1816 C 0.38914 -0.05356 0.28389
 C1817 C 0.40248 -0.06032 0.29013
 C1818 C 0.41074 -0.05271 0.30192
 N1819 N 0.36979 -0.03215 0.28394
 N1820 N 0.36121 -0.03857 0.27386
 C1821 C 0.34682 -0.03174 0.26917
 C1822 C 0.33759 -0.03961 0.25847
 C1823 C 0.32299 -0.03381 0.25451
 C1824 C 0.31735 -0.01996 0.26122
 C1825 C 0.32686 -0.01185 0.27165
 C1826 C 0.34144 -0.01768 0.27560
 H1827 H 0.41164 -0.03177 0.31600
 H1828 H 0.38835 -0.02010 0.30500
 H1829 H 0.38282 -0.05977 0.27504
 H1830 H 0.40614 -0.07163 0.28594
 H1831 H 0.34159 -0.05046 0.25345
 H1832 H 0.31601 -0.04037 0.24644
 H1833 H 0.32292 -0.00116 0.27705
 H1834 H 0.34836 -0.01135 0.28390
 C1835 C 0.09291 0.53264 0.69309
 C1836 C 0.10700 0.52642 0.69795
 C1837 C 0.11572 0.53399 0.70922
 C1838 C 0.11008 0.54790 0.71580
 C1839 C 0.09596 0.55419 0.71093
 C1840 C 0.08725 0.54667 0.69943
 N1841 N 0.13035 0.52747 0.71351
 N1842 N 0.13882 0.53363 0.72382
 C1843 C 0.15358 0.52732 0.72795
 C1844 C 0.16192 0.53457 0.73971
 C1845 C 0.17649 0.52901 0.74390
 C1846 C 0.18307 0.51602 0.73634
 C1847 C 0.17462 0.50867 0.72453
 C1848 C 0.15997 0.51427 0.72038
 H1849 H 0.08655 0.52649 0.68423
 H1850 H 0.11121 0.51571 0.69281
 H1851 H 0.11665 0.55398 0.72456
 H1852 H 0.09195 0.56499 0.71605
 H1853 H 0.15713 0.54464 0.74560
 H1854 H 0.18263 0.53502 0.75301
 H1855 H 0.17935 0.49868 0.71846
 H1856 H 0.15372 0.50848 0.71120
 C1857 C 0.10071 0.03570 0.19526
 C1858 C 0.11464 0.02982 0.20090
 C1859 C 0.12246 0.03749 0.21277
 C1860 C 0.11599 0.05099 0.21932
 C1861 C 0.10197 0.05689 0.21377
 C1862 C 0.09423 0.04946 0.20147
 N1863 N 0.13718 0.03156 0.21749
 N1864 N 0.14559 0.03833 0.22748
 C1865 C 0.16050 0.03228 0.23154
 C1866 C 0.16972 0.04050 0.24199
 C1867 C 0.18462 0.03521 0.24556
 C1868 C 0.19050 0.02153 0.23871
 C1869 C 0.18107 0.01319 0.22840
 C1870 C 0.16623 0.01850 0.22484
 H1871 H 0.09517 0.02951 0.18588
 H1872 H 0.11953 0.01938 0.19580
 H1873 H 0.12184 0.05709 0.22856
 H1874 H 0.09741 0.06744 0.21895
 H1875 H 0.16544 0.05115 0.24719
 H1876 H 0.19157 0.04192 0.25353
 H1877 H 0.18519 0.00262 0.22291
 H1878 H 0.15934 0.01192 0.21673
 C1879 C 0.64970 0.71515 0.19336
 C1880 C 0.63542 0.72082 0.19865
 C1881 C 0.62690 0.71271 0.20987
 C1882 C 0.63301 0.69893 0.21609
 C1883 C 0.64739 0.69324 0.21084
 C1884 C 0.65580 0.70120 0.19925
 N1885 N 0.61189 0.71851 0.21424
 N1886 N 0.60310 0.71171 0.22405
 C1887 C 0.58792 0.71754 0.22779
 C1888 C 0.57868 0.70944 0.23848
 C1889 C 0.56354 0.71439 0.24181
 C1890 C 0.55734 0.72759 0.23445
 C1891 C 0.56678 0.73586 0.22391
 C1892 C 0.58191 0.73089 0.22061
 H1893 H 0.65586 0.72167 0.18449
 H1894 H 0.63084 0.73145 0.19378
 H1895 H 0.62661 0.69246 0.22481
 H1896 H 0.65174 0.68247 0.21561
 H1897 H 0.58315 0.69913 0.24408
 H1898 H 0.55663 0.70772 0.24997
 H1899 H 0.56241 0.74605 0.21803
 H1900 H 0.58882 0.73736 0.21229
 C1901 C 0.15873 0.69741 0.72030
 C1902 C 0.14490 0.70337 0.72639
 C1903 C 0.13637 0.71430 0.71809
 C1904 C 0.14212 0.71973 0.70378
 C1905 C 0.15604 0.71382 0.69766
 C1906 C 0.16433 0.70235 0.70572
 N1907 N 0.12153 0.71895 0.72409
 N1908 N 0.11272 0.72838 0.71701
 C1909 C 0.09758 0.73220 0.72287
 C1910 C 0.08841 0.74266 0.71461
 C1911 C 0.07324 0.74589 0.71951
 C1912 C 0.06694 0.73863 0.73278
 C1913 C 0.07631 0.72833 0.74120
 C1914 C 0.09149 0.72515 0.73631
 H1915 H 0.16487 0.68869 0.72689
 H1916 H 0.14058 0.69912 0.73744
 H1917 H 0.13570 0.72821 0.69716
 H1918 H 0.16002 0.71786 0.68642
 H1919 H 0.09296 0.74813 0.70421
 H1920 H 0.06636 0.75388 0.71272
 H1921 H 0.07187 0.72256 0.75148
 H1922 H 0.09835 0.71699 0.74289
 C1923 C 0.59417 0.19524 0.53059
 C1924 C 0.60830 0.20058 0.52455
 C1925 C 0.61625 0.21269 0.53183
 C1926 C 0.60974 0.21971 0.54509
 C1927 C 0.59559 0.21441 0.55114
 C1928 C 0.58773 0.20198 0.54407
 N1929 N 0.63113 0.21720 0.52585
 N1930 N 0.63931 0.22769 0.53222
 C1931 C 0.65441 0.23174 0.52643
 C1932 C 0.66305 0.24303 0.53422
 C1933 C 0.67813 0.24667 0.52928
 C1934 C 0.68482 0.23903 0.51642
 C1935 C 0.67598 0.22786 0.50848
 C1936 C 0.66094 0.22424 0.51343
 H1937 H 0.58843 0.18568 0.52482
 H1938 H 0.61321 0.19509 0.51432
 H1939 H 0.61567 0.22911 0.55091
 H1940 H 0.59097 0.21989 0.56151
 H1941 H 0.65815 0.24886 0.54427
 H1942 H 0.68460 0.25531 0.53568
 H1943 H 0.68074 0.22174 0.49853
 H1944 H 0.65450 0.21546 0.50721
 C1945 C 0.59308 0.68985 0.03194
 C1946 C 0.60722 0.69512 0.02584
 C1947 C 0.61457 0.70807 0.03223
 C1948 C 0.60753 0.71585 0.04482
 C1949 C 0.59338 0.71058 0.05097
 C1950 C 0.58602 0.69746 0.04465
 N1951 N 0.62929 0.71285 0.02595
 N1952 N 0.63647 0.72471 0.03104
 C1953 C 0.65134 0.72937 0.02510
 C1954 C 0.65835 0.74259 0.03134
 C1955 C 0.67311 0.74719 0.02635
 C1956 C 0.68123 0.73861 0.01495
 C1957 C 0.67405 0.72543 0.00850
 C1958 C 0.65923 0.72085 0.01353
 H1959 H 0.58777 0.67972 0.02675
 H1960 H 0.61252 0.68902 0.01616
 H1961 H 0.61301 0.72590 0.04998
 H1962 H 0.58829 0.71673 0.06074
 H1963 H 0.65240 0.74924 0.04027
 H1964 H 0.67824 0.75738 0.03162
 H1965 H 0.67997 0.71852 -0.00025
 H1966 H 0.65404 0.71056 0.00853
 C1967 C 0.15177 0.05942 0.04119
 C1968 C 0.13792 0.05367 0.03514
 C1969 C 0.13024 0.04125 0.04225
 C1970 C 0.13666 0.03447 0.05555
 C1971 C 0.15054 0.04019 0.06166
 C1972 C 0.15830 0.05283 0.05462
 N1973 N 0.11585 0.03597 0.03589
 N1974 N 0.10811 0.02479 0.04176
 C1975 C 0.09358 0.01980 0.03550
 C1976 C 0.08554 0.00766 0.04277
 C1977 C 0.07106 0.00288 0.03734
 C1978 C 0.06432 0.01018 0.02444
 C1979 C 0.07256 0.02223 0.01700
 C1980 C 0.08704 0.02700 0.02247
 H1981 H 0.15727 0.06913 0.03532
 H1982 H 0.13309 0.05900 0.02489
 H1983 H 0.13092 0.02483 0.06127
 H1984 H 0.15509 0.03472 0.07196
 H1985 H 0.09044 0.00201 0.05282
 H1986 H 0.06508 -0.00641 0.04339
 H1987 H 0.06773 0.02815 0.00709
 H1988 H 0.09302 0.03642 0.01663
 C1989 C 0.15176 0.55644 0.54041
 C1990 C 0.13824 0.55044 0.53394
 C1991 C 0.13076 0.53770 0.54067
 C1992 C 0.13710 0.53079 0.55396
 C1993 C 0.15067 0.53681 0.56051
 C1994 C 0.15809 0.54980 0.55387
 N1995 N 0.11653 0.53242 0.53402
 N1996 N 0.10914 0.52067 0.53913
 C1997 C 0.09465 0.51589 0.53263
 C1998 C 0.08728 0.50269 0.53859
 C1999 C 0.07276 0.49816 0.53310
 C2000 C 0.06526 0.50684 0.52153
 C2001 C 0.07285 0.51995 0.51534
 C2002 C 0.08742 0.52444 0.52082
 H2003 H 0.15712 0.56643 0.53492
 H2004 H 0.13346 0.55587 0.52372
 H2005 H 0.13148 0.52091 0.55939
 H2006 H 0.15522 0.53142 0.57085
 H2007 H 0.09271 0.49602 0.54769
 H2008 H 0.06729 0.48802 0.53819
 H2009 H 0.06743 0.52691 0.50644
 H2010 H 0.09288 0.53471 0.51602
 C2011 C 0.65357 0.05912 0.53922
 C2012 C 0.64012 0.05315 0.53258
 C2013 C 0.63269 0.04023 0.53903
 C2014 C 0.63905 0.03304 0.55213
 C2015 C 0.65258 0.03894 0.55880
 C2016 C 0.65995 0.05222 0.55255
 N2017 N 0.61845 0.03507 0.53235
 N2018 N 0.61053 0.02387 0.53793
 C2019 C 0.59602 0.01932 0.53134
 C2020 C 0.58731 0.00760 0.53852
 C2021 C 0.57264 0.00363 0.53296
 C2022 C 0.56644 0.01136 0.52004
 C2023 C 0.57543 0.02284 0.51260
 C2024 C 0.59007 0.02680 0.51820
 H2025 H 0.65882 0.06928 0.53393
 H2026 H 0.63531 0.05878 0.52247
 H2027 H 0.63349 0.02300 0.55731
 H2028 H 0.65707 0.03321 0.56898
 H2029 H 0.59177 0.00175 0.54866
 H2030 H 0.56605 -0.00527 0.53897
 H2031 H 0.57105 0.02903 0.50263
 H2032 H 0.59659 0.03589 0.51241
 C2033 C 0.64884 0.54176 0.06083
 C2034 C 0.63580 0.53507 0.05407
 C2035 C 0.62838 0.54239 0.04174
 C2036 C 0.63430 0.55652 0.03603
 C2037 C 0.64742 0.56326 0.04280
 C2038 C 0.65478 0.55600 0.05537
 N2039 N 0.61468 0.53533 0.03561
 N2040 N 0.60701 0.54109 0.02445
 C2041 C 0.59312 0.53379 0.01898
 C2042 C 0.58492 0.54060 0.00681
 C2043 C 0.57097 0.53408 0.00174
 C2044 C 0.56494 0.52060 0.00882
 C2045 C 0.57337 0.51366 0.02087
 C2046 C 0.58729 0.52017 0.02589
 H2047 H 0.65419 0.53578 0.07045
 H2048 H 0.63133 0.52418 0.05857
 H2049 H 0.62873 0.56240 0.02650
 H2050 H 0.65168 0.57422 0.03829
 H2051 H 0.58926 0.55111 0.00139
 H2052 H 0.56476 0.53978 -0.00752
 H2053 H 0.56911 0.50328 0.02660
 H2054 H 0.59338 0.51465 0.03532
 C2055 C 0.06176 0.03472 0.15635
 C2056 C 0.05630 0.02819 0.14264
 C2057 C 0.04410 0.03511 0.13467
 C2058 C 0.03708 0.04858 0.14079
 C2059 C 0.04249 0.05515 0.15459
 C2060 C 0.05508 0.04843 0.16248
 N2061 N 0.03945 0.02845 0.12022
 N2062 N 0.02883 0.03434 0.11194
 C2063 C 0.02461 0.02775 0.09731
 C2064 C 0.01301 0.03494 0.08867
 C2065 C 0.00898 0.02915 0.07412
 C2066 C 0.01652 0.01598 0.06790
 C2067 C 0.02808 0.00867 0.07670
 C2068 C 0.03210 0.01450 0.09127
 H2069 H 0.07139 0.02903 0.16200
 H2070 H 0.06177 0.01779 0.13805
 H2071 H 0.02757 0.05412 0.13482
 H2072 H 0.03695 0.06564 0.15887
 H2073 H 0.00718 0.04517 0.09318
 H2074 H 0.00003 0.03510 0.06770
 H2075 H 0.03415 -0.00147 0.07227
 H2076 H 0.04114 0.00873 0.09772
 C2077 C 0.03080 0.55067 0.65607
 C2078 C 0.02444 0.54385 0.64285
 C2079 C 0.03149 0.53084 0.63601
 C2080 C 0.04472 0.52437 0.64281
 C2081 C 0.05105 0.53112 0.65604
 C2082 C 0.04433 0.54451 0.66268
 N2083 N 0.02550 0.52498 0.62174
 N2084 N 0.03210 0.51401 0.61426
 C2085 C 0.02646 0.50878 0.59959
 C2086 C 0.03509 0.49783 0.59111
 C2087 C 0.03067 0.49367 0.57610
 C2088 C 0.01747 0.50041 0.56937
 C2089 C 0.00851 0.51093 0.57822
 C2090 C 0.01297 0.51509 0.59315
 H2091 H 0.02529 0.56093 0.66092
 H2092 H 0.01423 0.54894 0.63769
 H2093 H 0.05036 0.51429 0.63775
 H2094 H 0.06144 0.52601 0.66084
 H2095 H 0.04553 0.49289 0.59596
 H2096 H 0.03782 0.48554 0.56962
 H2097 H -0.00178 0.51629 0.57348
 H2098 H 0.00606 0.52352 0.59950
 C2099 C 0.56818 0.04150 0.64745
 C2100 C 0.56160 0.03427 0.63459
 C2101 C 0.54847 0.04054 0.62757
 C2102 C 0.54175 0.05411 0.63375
 C2103 C 0.54827 0.06139 0.64666
 C2104 C 0.56170 0.05528 0.65364
 N2105 N 0.54256 0.03318 0.61393
 N2106 N 0.53093 0.03841 0.60660
 C2107 C 0.52553 0.03121 0.59265
 C2108 C 0.51335 0.03812 0.58457
 C2109 C 0.50861 0.03207 0.57031
 C2110 C 0.51600 0.01891 0.56390
 C2111 C 0.52790 0.01170 0.57233
 C2112 C 0.53264 0.01780 0.58655
 H2113 H 0.57845 0.03631 0.65242
 H2114 H 0.56689 0.02382 0.62992
 H2115 H 0.53157 0.05919 0.62851
 H2116 H 0.54285 0.07191 0.65101
 H2117 H 0.50776 0.04846 0.58914
 H2118 H 0.49941 0.03793 0.56416
 H2119 H 0.53387 0.00158 0.56777
 H2120 H 0.54207 0.01221 0.59259
 C2121 C 0.56122 0.53610 0.14589
 C2122 C 0.55703 0.53017 0.13146
 C2123 C 0.54519 0.53714 0.12298
 C2124 C 0.53740 0.55014 0.12920
 C2125 C 0.54158 0.55611 0.14370
 C2126 C 0.55362 0.54920 0.15218
 N2127 N 0.54150 0.53087 0.10806
 N2128 N 0.53087 0.53654 0.09963
 C2129 C 0.52734 0.53030 0.08466
 C2130 C 0.51530 0.53697 0.07623
 C2131 C 0.51156 0.53129 0.06156
 C2132 C 0.51987 0.51876 0.05498
 C2133 C 0.53201 0.51207 0.06349
 C2134 C 0.53571 0.51777 0.07821
 H2135 H 0.57052 0.53043 0.15206
 H2136 H 0.56311 0.52015 0.12680
 H2137 H 0.52818 0.55573 0.12285
 H2138 H 0.53549 0.56620 0.14817
 H2139 H 0.50879 0.54664 0.08105
 H2140 H 0.50218 0.53679 0.05536
 H2141 H 0.53867 0.50245 0.05878
 H2142 H 0.54512 0.51243 0.08451
 C2143 C 0.21059 0.55930 0.60190
 C2144 C 0.21675 0.55404 0.61586
 C2145 C 0.21021 0.54129 0.62352
 C2146 C 0.19741 0.53367 0.61694
 C2147 C 0.19120 0.53893 0.60294
 C2148 C 0.19766 0.55188 0.59529
 N2149 N 0.21657 0.53659 0.63808
 N2150 N 0.21123 0.52510 0.64573
 C2151 C 0.21735 0.52061 0.66045
 C2152 C 0.21073 0.50792 0.66815
 C2153 C 0.21594 0.50354 0.68279
 C2154 C 0.22796 0.51181 0.69007
 C2155 C 0.23478 0.52445 0.68219
 C2156 C 0.22952 0.52882 0.66751
 H2157 H 0.21591 0.56928 0.59637
 H2158 H 0.22660 0.56001 0.62081
 H2159 H 0.19213 0.52378 0.62266
 H2160 H 0.18126 0.53293 0.59820
 H2161 H 0.20135 0.50151 0.66285
 H2162 H 0.21039 0.49376 0.68847
 H2163 H 0.24400 0.53111 0.68746
 H2164 H 0.23482 0.53870 0.66178
 C2165 C 0.21184 0.05882 0.09977
 C2166 C 0.21807 0.05322 0.11353
 C2167 C 0.21076 0.04121 0.12166
 C2168 C 0.19713 0.03460 0.11573
 C2169 C 0.19085 0.04015 0.10186
 C2170 C 0.19805 0.05247 0.09373
 N2171 N 0.21735 0.03630 0.13602
 N2172 N 0.21136 0.02578 0.14454
 C2173 C 0.21821 0.02147 0.15900
 C2174 C 0.21098 0.01016 0.16821
 C2175 C 0.21711 0.00614 0.18262
 C2176 C 0.23067 0.01339 0.18808
 C2177 C 0.23800 0.02461 0.17869
 C2178 C 0.23185 0.02862 0.16431
 H2179 H 0.21787 0.06824 0.09397
 H2180 H 0.22858 0.05838 0.11800
 H2181 H 0.19130 0.02527 0.12184
 H2182 H 0.18027 0.03490 0.09765
 H2183 H 0.20046 0.00458 0.16428
 H2184 H 0.21113 -0.00252 0.18954
 H2185 H 0.24842 0.03047 0.18251
 H2186 H 0.23768 0.03741 0.15743
 C2187 C 0.72483 0.19916 0.65637
 C2188 C 0.72917 0.20294 0.64119
 C2189 C 0.72112 0.21437 0.63302
 C2190 C 0.70875 0.22223 0.64033
 C2191 C 0.70438 0.21848 0.65554
 C2192 C 0.71228 0.20678 0.66369
 N2193 N 0.72556 0.21750 0.61729
 N2194 N 0.71862 0.22756 0.60906
 C2195 C 0.72302 0.23047 0.59326
 C2196 C 0.71523 0.24202 0.58502
 C2197 C 0.71923 0.24515 0.56959
 C2198 C 0.73113 0.23670 0.56209
 C2199 C 0.73886 0.22501 0.57040
 C2200 C 0.73487 0.22193 0.58585
 H2201 H 0.73120 0.19012 0.66228
 H2202 H 0.73874 0.19682 0.63569
 H2203 H 0.70235 0.23114 0.63425
 H2204 H 0.69468 0.22459 0.66080
 H2205 H 0.70604 0.24864 0.59059
 H2206 H 0.71298 0.25419 0.56354
 H2207 H 0.74808 0.21827 0.56502
 H2208 H 0.74104 0.21290 0.59196
 C2209 C 0.71044 0.69689 0.15244
 C2210 C 0.71608 0.70276 0.13840
 C2211 C 0.70794 0.71434 0.13054
 C2212 C 0.69415 0.72028 0.13704
 C2213 C 0.68849 0.71445 0.15113
 C2214 C 0.69649 0.70256 0.15891
 N2215 N 0.71371 0.71942 0.11579
 N2216 N 0.70677 0.72950 0.10758
 C2217 C 0.71270 0.73395 0.09265
 C2218 C 0.70458 0.74485 0.08383
 C2219 C 0.70985 0.74891 0.06896
 C2220 C 0.72336 0.74205 0.06270
 C2221 C 0.73156 0.73125 0.07171
 C2222 C 0.72631 0.72725 0.08651
 H2223 H 0.71693 0.68778 0.15812
 H2224 H 0.72673 0.69811 0.13348
 H2225 H 0.68766 0.72925 0.13116
 H2226 H 0.67772 0.71909 0.15578
 H2227 H 0.69405 0.75008 0.08842
 H2228 H 0.70323 0.75723 0.06232
 H2229 H 0.74203 0.72575 0.06731
 H2230 H 0.73281 0.71879 0.09308
 C2231 C 0.52974 0.69399 0.08999
 C2232 C 0.52348 0.69941 0.10396
 C2233 C 0.53157 0.71016 0.11292
 C2234 C 0.54596 0.71584 0.10754
 C2235 C 0.55226 0.71045 0.09348
 C2236 C 0.54431 0.69928 0.08466
 N2237 N 0.52515 0.71455 0.12767
 N2238 N 0.53184 0.72402 0.13677
 C2239 C 0.52541 0.72774 0.15171
 C2240 C 0.53322 0.73829 0.16119
 C2241 C 0.52764 0.74160 0.17611
 C2242 C 0.51411 0.73435 0.18186
 C2243 C 0.50615 0.72391 0.17220
 C2244 C 0.51174 0.72064 0.15727
 H2245 H 0.52323 0.68547 0.08349
 H2246 H 0.51238 0.69497 0.10798
 H2247 H 0.55243 0.72419 0.11430
 H2248 H 0.56350 0.71475 0.08972
 H2249 H 0.54377 0.74381 0.15706
 H2250 H 0.53409 0.74968 0.18321
 H2251 H 0.49571 0.71812 0.17622
 H2252 H 0.50548 0.71242 0.15017
 C2253 C 0.03639 0.68364 0.60034
 C2254 C 0.02979 0.68928 0.61409
 C2255 C 0.03545 0.70285 0.62094
 C2256 C 0.04776 0.71090 0.61374
 C2257 C 0.05443 0.70525 0.59998
 C2258 C 0.04889 0.69148 0.59317
 N2259 N 0.02886 0.70786 0.63542
 N2260 N 0.03328 0.72023 0.64216
 C2261 C 0.02715 0.72497 0.65693
 C2262 C 0.03271 0.73866 0.66359
 C2263 C 0.02779 0.74315 0.67841
 C2264 C 0.01718 0.73397 0.68689
 C2265 C 0.01129 0.72040 0.67998
 C2266 C 0.01624 0.71592 0.66513
 H2267 H 0.03181 0.67301 0.59545
 H2268 H 0.02033 0.68296 0.61954
 H2269 H 0.05236 0.72142 0.61883
 H2270 H 0.06400 0.71159 0.59477
 H2271 H 0.04112 0.74572 0.65739
 H2272 H 0.03258 0.75369 0.68332
 H2273 H 0.00313 0.71304 0.68618
 H2274 H 0.01177 0.70526 0.66020
 C2275 C 0.55395 0.59368 0.20897
 C2276 C 0.54771 0.60724 0.21538
 C2277 C 0.53638 0.61563 0.20750
 C2278 C 0.53107 0.61012 0.19313
 C2279 C 0.53730 0.59650 0.18667
 C2280 C 0.54895 0.58821 0.19446
 N2281 N 0.53097 0.62993 0.21414
 N2282 N 0.52072 0.63835 0.20776
 C2283 C 0.51590 0.65290 0.21434
 C2284 C 0.50463 0.66165 0.20674
 C2285 C 0.50031 0.67629 0.21236
 C2286 C 0.50725 0.68249 0.22573
 C2287 C 0.51835 0.67350 0.23354
 C2288 C 0.52264 0.65885 0.22791
 H2289 H 0.56284 0.58761 0.21536
 H2290 H 0.55190 0.61137 0.22644
 H2291 H 0.52230 0.61644 0.18682
 H2292 H 0.53319 0.59261 0.17549
 H2293 H 0.49937 0.65721 0.19628
 H2294 H 0.49172 0.68285 0.20602
 H2295 H 0.52393 0.67789 0.24385
 H2296 H 0.53140 0.65230 0.23400
 C2297 C 0.03399 0.59488 0.69309
 C2298 C 0.02851 0.60934 0.69812
 C2299 C 0.03647 0.61771 0.70944
 C2300 C 0.04999 0.61135 0.71587
 C2301 C 0.05550 0.59685 0.71085
 C2302 C 0.04761 0.58848 0.69931
 N2303 N 0.03073 0.63273 0.71390
 N2304 N 0.03731 0.64111 0.72407
 C2305 C 0.03160 0.65625 0.72819
 C2306 C 0.03939 0.66485 0.73947
 C2307 C 0.03441 0.67983 0.74343
 C2308 C 0.02149 0.68653 0.73611
 C2309 C 0.01359 0.67777 0.72487
 C2310 C 0.01859 0.66278 0.72095
 H2311 H 0.02757 0.58880 0.68422
 H2312 H 0.01809 0.61411 0.69308
 H2313 H 0.05635 0.61761 0.72465
 H2314 H 0.06602 0.59229 0.71590
 H2315 H 0.04944 0.65997 0.74513
 H2316 H 0.04079 0.68621 0.75212
 H2317 H 0.00362 0.68253 0.71899
 H2318 H 0.01236 0.65638 0.71217
 C2319 C 0.03461 0.15039 0.05881
 C2320 C 0.02899 0.13587 0.05433
 C2321 C 0.03665 0.12724 0.04287
 C2322 C 0.05000 0.13341 0.03568
 C2323 C 0.05567 0.14799 0.04011
 C2324 C 0.04813 0.15666 0.05188
 N2325 N 0.03077 0.11217 0.03905
 N2326 N 0.03722 0.10343 0.02895
 C2327 C 0.03133 0.08826 0.02549
 C2328 C 0.03898 0.07921 0.01432
 C2329 C 0.03376 0.06422 0.01093
 C2330 C 0.02072 0.05798 0.01871
 C2331 C 0.01299 0.06717 0.02987
 C2332 C 0.01824 0.08217 0.03324
 H2333 H 0.02835 0.15659 0.06785
 H2334 H 0.01868 0.13123 0.05993
 H2335 H 0.05611 0.12693 0.02675
 H2336 H 0.06606 0.15234 0.03443
 H2337 H 0.04909 0.08375 0.00830
 H2338 H 0.04003 0.05748 0.00230
 H2339 H 0.00295 0.06275 0.03610
 H2340 H 0.01213 0.08894 0.04195
 C2341 C 0.05846 0.64419 0.53981
 C2342 C 0.05337 0.62991 0.53404
 C2343 C 0.04134 0.62185 0.54148
 C2344 C 0.03419 0.62835 0.55469
 C2345 C 0.03924 0.64265 0.56047
 C2346 C 0.05154 0.65068 0.55318
 N2347 N 0.03693 0.60693 0.53562
 N2348 N 0.02641 0.59867 0.54199
 C2349 C 0.02246 0.58361 0.53613
 C2350 C 0.01100 0.57488 0.54376
 C2351 C 0.00732 0.55990 0.53861
 C2352 C 0.01509 0.55341 0.52571
 C2353 C 0.02647 0.56233 0.51799
 C2354 C 0.03012 0.57726 0.52314
 H2355 H 0.06792 0.65004 0.53388
 H2356 H 0.05895 0.62500 0.52385
 H2357 H 0.02485 0.62232 0.56063
 H2358 H 0.03364 0.64730 0.57077
 H2359 H 0.00503 0.57964 0.55380
 H2360 H -0.00149 0.55337 0.54485
 H2361 H 0.03269 0.55774 0.50801
 H2362 H 0.03903 0.58376 0.51703
 C2363 C 0.53312 0.15584 0.55231
 C2364 C 0.52731 0.14153 0.54736
 C2365 C 0.53501 0.13309 0.53576
 C2366 C 0.54843 0.13933 0.52877
 C2367 C 0.55423 0.15368 0.53365
 C2368 C 0.54677 0.16199 0.54566
 N2369 N 0.52934 0.11799 0.53177
 N2370 N 0.53623 0.10930 0.52193
 C2371 C 0.53077 0.09399 0.51843
 C2372 C 0.53916 0.08485 0.50785
 C2373 C 0.53456 0.06960 0.50473
 C2374 C 0.52142 0.06321 0.51218
 C2375 C 0.51289 0.07253 0.52263
 C2376 C 0.51752 0.08777 0.52574
 H2377 H 0.52703 0.16194 0.56153
 H2378 H 0.51695 0.13684 0.55282
 H2379 H 0.55457 0.13302 0.51973
 H2380 H 0.56476 0.15807 0.52826
 H2381 H 0.54941 0.08951 0.50217
 H2382 H 0.54140 0.06277 0.49661
 H2383 H 0.50272 0.06801 0.52858
 H2384 H 0.51084 0.09460 0.53398
 C2385 C 0.53043 0.65234 0.05151
 C2386 C 0.52428 0.63836 0.04607
 C2387 C 0.53135 0.63055 0.03366
 C2388 C 0.54452 0.63707 0.02644
 C2389 C 0.55071 0.65105 0.03187
 C2390 C 0.54385 0.65875 0.04460
 N2391 N 0.52537 0.61573 0.02910
 N2392 N 0.53136 0.60798 0.01798
 C2393 C 0.52587 0.59287 0.01378
 C2394 C 0.53310 0.58511 0.00143
 C2395 C 0.52872 0.56999 -0.00242
 C2396 C 0.51698 0.56230 0.00607
 C2397 C 0.50952 0.57026 0.01831
 C2398 C 0.51392 0.58542 0.02214
 H2399 H 0.52481 0.65795 0.06131
 H2400 H 0.51414 0.63344 0.05173
 H2401 H 0.55020 0.63123 0.01681
 H2402 H 0.56102 0.65567 0.02626
 H2403 H 0.54235 0.59073 -0.00506
 H2404 H 0.53475 0.56424 -0.01191
 H2405 H 0.50046 0.56469 0.02511
 H2406 H 0.50818 0.59119 0.03178
 C2407 C 0.71109 0.09972 0.56210
 C2408 C 0.71683 0.11395 0.55678
 C2409 C 0.70995 0.12143 0.54423
 C2410 C 0.69736 0.11439 0.53678
 C2411 C 0.69160 0.10013 0.54203
 C2412 C 0.69827 0.09263 0.55489
 N2413 N 0.71581 0.13627 0.53952
 N2414 N 0.70979 0.14408 0.52859
 C2415 C 0.71568 0.15902 0.52420
 C2416 C 0.70847 0.16718 0.51224
 C2417 C 0.71383 0.18190 0.50787
 C2418 C 0.72654 0.18870 0.51544
 C2419 C 0.73376 0.18041 0.52743
 C2420 C 0.72840 0.16573 0.53177
 H2421 H 0.71665 0.09440 0.57197
 H2422 H 0.72657 0.11927 0.56259
 H2423 H 0.69188 0.11996 0.52701
 H2424 H 0.68177 0.09512 0.53608
 H2425 H 0.69864 0.16214 0.50634
 H2426 H 0.70797 0.18796 0.49861
 H2427 H 0.74357 0.18527 0.53353
 H2428 H 0.73416 0.15966 0.54107
 C2429 C 0.70596 0.60529 0.06743
 C2430 C 0.71220 0.61942 0.06241
 C2431 C 0.70631 0.62685 0.04933
 C2432 C 0.69404 0.61991 0.04120
 C2433 C 0.68775 0.60576 0.04622
 C2434 C 0.69361 0.59829 0.05944
 N2435 N 0.71285 0.64147 0.04469
 N2436 N 0.70815 0.64876 0.03280
 C2437 C 0.71446 0.66347 0.02818
 C2438 C 0.70864 0.67062 0.01492
 C2439 C 0.71422 0.68511 0.01021
 C2440 C 0.72580 0.69280 0.01871
 C2441 C 0.73174 0.68552 0.03200
 C2442 C 0.72612 0.67097 0.03670
 H2443 H 0.71078 0.59991 0.07765
 H2444 H 0.72164 0.62465 0.06878
 H2445 H 0.68927 0.62544 0.03104
 H2446 H 0.67827 0.60072 0.03978
 H2447 H 0.69966 0.66497 0.00828
 H2448 H 0.70932 0.69034 -0.00006
 H2449 H 0.74061 0.69111 0.03884
 H2450 H 0.73080 0.66566 0.04703
 C2451 C 0.19429 0.65358 0.71930
 C2452 C 0.19834 0.63913 0.72540
 C2453 C 0.20920 0.62973 0.71777
 C2454 C 0.21630 0.63510 0.70401
 C2455 C 0.21227 0.64960 0.69788
 C2456 C 0.20107 0.65893 0.70537
 N2457 N 0.21247 0.61467 0.72400
 N2458 N 0.22211 0.60544 0.71756
 C2459 C 0.22520 0.59024 0.72352
 C2460 C 0.23628 0.58106 0.71595
 C2461 C 0.23946 0.56607 0.72118
 C2462 C 0.23154 0.55991 0.73416
 C2463 C 0.22038 0.56918 0.74179
 C2464 C 0.21724 0.58424 0.73653
 H2465 H 0.18567 0.66045 0.72544
 H2466 H 0.19281 0.63514 0.73600
 H2467 H 0.22477 0.62803 0.69790
 H2468 H 0.21771 0.65335 0.68715
 H2469 H 0.24244 0.58553 0.70589
 H2470 H 0.24809 0.55929 0.71494
 H2471 H 0.21406 0.56479 0.75179
 H2472 H 0.20856 0.59114 0.74255
 C2473 C 0.18708 0.14717 0.20665
 C2474 C 0.19392 0.13409 0.21329
 C2475 C 0.20602 0.12629 0.20568
 C2476 C 0.21141 0.13187 0.19128
 C2477 C 0.20459 0.14503 0.18460
 C2478 C 0.19226 0.15278 0.19217
 N2479 N 0.21228 0.11260 0.21273
 N2480 N 0.22304 0.10448 0.20653
 C2481 C 0.22874 0.09062 0.21377
 C2482 C 0.24008 0.08170 0.20614
 C2483 C 0.24526 0.06771 0.21257
 C2484 C 0.23919 0.06238 0.22682
 C2485 C 0.22804 0.07157 0.23461
 C2486 C 0.22287 0.08552 0.22816
 H2487 H 0.17766 0.15282 0.21286
 H2488 H 0.18966 0.12991 0.22439
 H2489 H 0.22077 0.12602 0.18516
 H2490 H 0.20887 0.14902 0.17344
 H2491 H 0.24470 0.08548 0.19505
 H2492 H 0.25380 0.06094 0.20621
 H2493 H 0.22306 0.06785 0.24557
 H2494 H 0.21411 0.09219 0.23433
 C2495 C 0.70996 1.16575 0.72252
 C2496 C 0.71471 1.15147 0.72850
 C2497 C 0.72499 1.14205 0.72010
 C2498 C 0.73105 1.14736 0.70586
 C2499 C 0.72634 1.16165 0.69986
 C2500 C 0.71546 1.17084 0.70795
 N2501 N 0.72841 1.12685 0.72581
 N2502 N 0.73702 1.11750 0.71821
 C2503 C 0.74009 1.10203 0.72337
 C2504 C 0.75008 1.09275 0.71451
 C2505 C 0.75306 1.07746 0.71888
 C2506 C 0.74601 1.07113 0.73225
 C2507 C 0.73591 1.08049 0.74114
 C2508 C 0.73298 1.09585 0.73676
 H2509 H 0.70164 1.17257 0.72911
 H2510 H 0.71001 1.14752 0.73950
 H2511 H 0.73909 1.14030 0.69918
 H2512 H 0.73084 1.16523 0.68865
 H2513 H 0.75552 1.09739 0.70412
 H2514 H 0.76083 1.07059 0.71169
 H2515 H 0.73032 1.07597 0.75150
 H2516 H 0.72513 1.10283 0.74374
 C2517 C 0.71177 0.65613 0.19199
 C2518 C 0.71877 0.64268 0.19767
 C2519 C 0.71283 0.63530 0.21087
 C2520 C 0.69978 0.64165 0.21851
 C2521 C 0.69269 0.65512 0.21280
 C2522 C 0.69855 0.66246 0.19939
 N2523 N 0.71994 0.62113 0.21586
 N2524 N 0.71553 0.61397 0.22803
 C2525 C 0.72225 0.59946 0.23263
 C2526 C 0.71668 0.59227 0.24609
 C2527 C 0.72204 0.57757 0.25031
 C2528 C 0.73314 0.56971 0.24109
 C2529 C 0.73913 0.57721 0.22783
 C2530 C 0.73373 0.59196 0.22362
 H2531 H 0.71664 0.66142 0.18165
 H2532 H 0.72879 0.63789 0.19166
 H2533 H 0.69494 0.63611 0.22873
 H2534 H 0.68257 0.65968 0.21879
 H2535 H 0.70786 0.59792 0.25313
 H2536 H 0.71718 0.57221 0.26063
 H2537 H 0.74763 0.57150 0.22044
 H2538 H 0.73823 0.59730 0.21314
 C2539 C 0.54918 0.10471 0.68339
 C2540 C 0.54275 0.11863 0.68883
 C2541 C 0.54930 0.12645 0.70139
 C2542 C 0.56246 0.12009 0.70855
 C2543 C 0.56896 0.10615 0.70310
 C2544 C 0.56242 0.09830 0.69040
 N2545 N 0.54254 0.14088 0.70637
 N2546 N 0.54764 0.14852 0.71790
 C2547 C 0.54107 0.16312 0.72266
 C2548 C 0.54741 0.17081 0.73541
 C2549 C 0.54181 0.18538 0.73999
 C2550 C 0.52968 0.19261 0.73187
 C2551 C 0.52311 0.18471 0.71922
 C2552 C 0.52875 0.17010 0.71465
 H2553 H 0.54380 0.09905 0.67360
 H2554 H 0.53264 0.12340 0.68319
 H2555 H 0.56777 0.12593 0.71828
 H2556 H 0.57912 0.10157 0.70879
 H2557 H 0.55689 0.16557 0.74169
 H2558 H 0.54717 0.19106 0.74978
 H2559 H 0.51381 0.18992 0.71267
 H2560 H 0.52364 0.16439 0.70475
 C2561 C 1.06224 0.09752 0.21367
 C2562 C 1.05637 0.11144 0.21967
 C2563 C 1.04307 0.11818 0.21340
 C2564 C 1.03558 0.11073 0.20103
 C2565 C 1.04146 0.09680 0.19497
 C2566 C 1.05492 0.09006 0.20118
 N2567 N 1.03770 0.13271 0.21955
 N2568 N 1.02552 0.13937 0.21463
 C2569 C 1.02040 0.15412 0.22050
 C2570 C 1.00693 0.16071 0.21445
 C2571 C 1.00201 0.17543 0.21929
 C2572 C 1.01053 0.18388 0.23031
 C2573 C 1.02391 0.17706 0.23662
 C2574 C 1.02881 0.16231 0.23176
 H2575 H 1.07262 0.09270 0.21877
 H2576 H 1.06226 0.11708 0.22918
 H2577 H 1.02528 0.11574 0.19596
 H2578 H 1.03552 0.09137 0.18537
 H2579 H 1.00036 0.15451 0.20577
 H2580 H 0.99166 0.18027 0.21417
 H2581 H 1.03077 0.18323 0.24510
 H2582 H 1.03928 0.15745 0.23661
 C2583 C 0.19082 0.59722 0.54016
 C2584 C 0.19613 0.61126 0.53398
 C2585 C 0.20788 0.61958 0.54134
 C2586 C 0.21455 0.61356 0.55487
 C2587 C 0.20926 0.59949 0.56107
 C2588 C 0.19720 0.59125 0.55387
 N2589 N 0.21239 0.63433 0.53512
 N2590 N 0.22276 0.64276 0.54132
 C2591 C 0.22676 0.65771 0.53521
 C2592 C 0.23821 0.66647 0.54257
 C2593 C 0.24191 0.68138 0.53728
 C2594 C 0.23416 0.68780 0.52450
 C2595 C 0.22280 0.67886 0.51702
 C2596 C 0.21913 0.66396 0.52231
 H2597 H 0.18155 0.59118 0.53427
 H2598 H 0.19092 0.61579 0.52355
 H2599 H 0.22367 0.61982 0.56076
 H2600 H 0.21444 0.59523 0.57163
 H2601 H 0.24414 0.66179 0.55255
 H2602 H 0.25071 0.68793 0.54335
 H2603 H 0.21661 0.68341 0.50714
 H2604 H 0.21022 0.65741 0.51642
 C2605 C 0.21343 0.09757 1.05952
 C2606 C 0.22011 0.11105 1.05341
 C2607 C 0.21356 0.11840 1.04060
 C2608 C 0.20031 0.11193 1.03372
 C2609 C 0.19358 0.09842 1.03983
 C2610 C 0.19998 0.09117 1.05291
 N2611 N 0.22024 0.13269 1.03524
 N2612 N 0.21495 0.14002 1.02363
 C2613 C 0.22128 0.15462 1.01870
 C2614 C 0.21476 0.16207 1.00594
 C2615 C 0.21992 0.17679 1.00142
 C2616 C 0.23176 0.18438 1.00966
 C2617 C 0.23856 0.17668 1.02228
 C2618 C 0.23337 0.16193 1.02676
 H2619 H 0.21871 0.09231 1.06957
 H2620 H 0.23030 0.11593 1.05881
 H2621 H 0.19503 0.11742 1.02380
 H2622 H 0.18326 0.09381 1.03445
 H2623 H 0.20542 0.15657 0.99965
 H2624 H 0.21439 0.18235 0.99167
 H2625 H 0.24765 0.18217 1.02891
 H2626 H 0.23859 0.15640 1.03670
 C2627 C 0.21652 0.69107 0.65687
 C2628 C 0.22274 0.69651 0.64284
 C2629 C 0.21667 0.70981 0.63580
 C2630 C 0.20437 0.71779 0.64309
 C2631 C 0.19814 0.71238 0.65711
 C2632 C 0.20406 0.69888 0.66413
 N2633 N 0.22289 0.71467 0.62110
 N2634 N 0.21771 0.72647 0.61391
 C2635 C 0.22359 0.73104 0.59898
 C2636 C 0.21677 0.74365 0.59142
 C2637 C 0.22152 0.74778 0.57642
 C2638 C 0.23328 0.73933 0.56870
 C2639 C 0.24042 0.72693 0.57654
 C2640 C 0.23562 0.72280 0.59152
 H2641 H 0.22139 0.68066 0.66192
 H2642 H 0.23221 0.69024 0.63734
 H2643 H 0.19946 0.72810 0.63788
 H2644 H 0.18857 0.71871 0.66236
 H2645 H 0.20749 0.75010 0.59705
 H2646 H 0.21575 0.75738 0.57077
 H2647 H 0.24949 0.72014 0.57097
 H2648 H 0.24111 0.71301 0.59712
 C2649 C 0.18046 0.20439 1.14424
 C2650 C 0.18563 0.21082 1.13027
 C2651 C 0.19860 0.20472 1.12257
 C2652 C 0.20649 0.19203 1.12906
 C2653 C 0.20134 0.18553 1.14309
 C2654 C 0.18819 0.19159 1.15090
 N2655 N 0.20335 0.21159 1.10815
 N2656 N 0.21502 0.20674 1.10038
 C2657 C 0.21955 0.21363 1.08589
 C2658 C 0.23242 0.20763 1.07791
 C2659 C 0.23699 0.21386 1.06362
 C2660 C 0.22874 0.22629 1.05701
 C2661 C 0.21585 0.23238 1.06512
 C2662 C 0.21129 0.22612 1.07943
 H2663 H 0.17032 0.20950 1.14975
 H2664 H 0.17946 0.22059 1.12538
 H2665 H 0.21657 0.18711 1.12329
 H2666 H 0.20766 0.17573 1.14774
 H2667 H 0.23887 0.19801 1.08274
 H2668 H 0.24695 0.20882 1.05772
 H2669 H 0.20919 0.24191 1.06038
 H2670 H 0.20127 0.23097 1.08538
 C2671 C 0.68624 0.54197 0.10350
 C2672 C 0.69180 0.53540 0.11718
 C2673 C 0.70415 0.54226 0.12504
 C2674 C 0.71109 0.55575 0.11895
 C2675 C 0.70554 0.56236 0.10528
 C2676 C 0.69297 0.55561 0.09744
 N2677 N 0.70908 0.53560 0.13939
 N2678 N 0.72020 0.54127 0.14718
 C2679 C 0.72476 0.53488 0.16177
 C2680 C 0.73691 0.54189 0.16983
 C2681 C 0.74111 0.53647 0.18448
 C2682 C 0.73317 0.52390 0.19134
 C2683 C 0.72117 0.51667 0.18304
 C2684 C 0.71700 0.52211 0.16839
 H2685 H 0.67656 0.53644 0.09779
 H2686 H 0.68635 0.52501 0.12177
 H2687 H 0.72066 0.56129 0.12484
 H2688 H 0.71102 0.57284 0.10095
 H2689 H 0.74297 0.55175 0.16485
 H2690 H 0.75038 0.54234 0.19053
 H2691 H 0.71481 0.50697 0.18795
 H2692 H 0.70757 0.51648 0.16238
 C2693 C 0.69165 1.03858 0.60064
 C2694 C 0.69755 1.03259 0.61446
 C2695 C 0.71034 1.03956 0.62153
 C2696 C 0.71737 1.05253 0.61449
 C2697 C 0.71150 1.05853 0.60070
 C2698 C 0.69849 1.05171 0.59367
 N2699 N 0.71573 1.03358 0.63600
 N2700 N 0.72714 1.03964 0.64306
 C2701 C 0.73239 1.03403 0.65773
 C2702 C 0.74483 1.04152 0.66487
 C2703 C 0.74987 1.03675 0.67946
 C2704 C 0.74250 1.02433 0.68718
 C2705 C 0.73012 1.01670 0.67985
 C2706 C 0.72510 1.02149 0.66526
 H2707 H 0.68164 1.03303 0.59555
 H2708 H 0.69204 1.02259 0.61978
 H2709 H 0.72728 1.05813 0.61971
 H2710 H 0.71709 1.06862 0.59567
 H2711 H 0.75052 1.05121 0.65917
 H2712 H 0.75941 1.04292 0.68476
 H2713 H 0.72415 1.00712 0.68545
 H2714 H 0.71544 1.01553 0.65998
 C2715 C 0.53479 0.19644 0.59281
 C2716 C 0.52963 0.20202 0.60718
 C2717 C 0.53753 0.21408 0.61456
 C2718 C 0.55049 0.22087 0.60722
 C2719 C 0.55566 0.21533 0.59283
 C2720 C 0.54800 0.20289 0.58556
 N2721 N 0.53255 0.21876 0.62975
 N2722 N 0.53949 0.22931 0.63736
 C2723 C 0.53479 0.23351 0.65277
 C2724 C 0.54296 0.24515 0.66053
 C2725 C 0.53910 0.24904 0.67583
 C2726 C 0.52696 0.24127 0.68365
 C2727 C 0.51866 0.22969 0.67572
 C2728 C 0.52252 0.22585 0.66043
 H2729 H 0.52858 0.18689 0.58753
 H2730 H 0.51963 0.19671 0.61273
 H2731 H 0.55677 0.23024 0.61271
 H2732 H 0.56584 0.22059 0.58758
 H2733 H 0.55246 0.25111 0.65476
 H2734 H 0.54574 0.25800 0.68158
 H2735 H 0.50924 0.22348 0.68136
 H2736 H 0.51605 0.21677 0.65467
 C2737 C 1.05153 0.21406 0.09267
 C2738 C 1.04517 0.22088 0.10599
 C2739 C 1.03260 0.21396 0.11368
 C2740 C 1.02606 0.20034 0.10761
 C2741 C 1.03235 0.19349 0.09426
 C2742 C 1.04541 0.20007 0.08675
 N2743 N 1.02732 0.22050 0.12806
 N2744 N 1.01654 0.21430 0.13613
 C2745 C 1.01191 0.22043 0.15090
 C2746 C 1.00060 0.21256 0.15959
 C2747 C 0.99679 0.21747 0.17461
 C2748 C 1.00426 0.23041 0.18118
 C2749 C 1.01527 0.23858 0.17220
 C2750 C 1.01908 0.23363 0.15722
 H2751 H 1.06147 0.21962 0.08725
 H2752 H 1.05029 0.23140 0.11058
 H2753 H 1.01629 0.19479 0.11334
 H2754 H 1.02717 0.18282 0.09009
 H2755 H 0.99502 0.20235 0.15485
 H2756 H 0.98824 0.21091 0.18117
 H2757 H 1.02124 0.24860 0.17687
 H2758 H 1.02786 0.23993 0.15072
 C2759 C 0.67032 0.20611 0.72243
 C2760 C 0.65610 0.21115 0.72849
 C2761 C 0.64693 0.22152 0.72016
 C2762 C 0.65241 0.22735 0.70590
 C2763 C 0.66664 0.22231 0.69980
 C2764 C 0.67559 0.21136 0.70785
 N2765 N 0.63175 0.22520 0.72596
 N2766 N 0.62273 0.23428 0.71872
 C2767 C 0.60724 0.23743 0.72393
 C2768 C 0.59836 0.24802 0.71558
 C2769 C 0.58296 0.25086 0.71978
 C2770 C 0.57609 0.24306 0.73245
 C2771 C 0.58510 0.23249 0.74094
 C2772 C 0.60058 0.22971 0.73673
 H2773 H 0.67694 0.19774 0.72901
 H2774 H 0.65201 0.20662 0.73951
 H2775 H 0.64552 0.23543 0.69925
 H2776 H 0.67037 0.22662 0.68857
 H2777 H 0.60336 0.25397 0.70566
 H2778 H 0.57640 0.25907 0.71294
 H2779 H 0.58018 0.22632 0.75076
 H2780 H 0.60724 0.22139 0.74332
 C2781 C 1.14407 0.18523 0.20668
 C2782 C 1.13039 0.19111 0.21328
 C2783 C 1.12249 0.20340 0.20626
 C2784 C 1.12857 0.20994 0.19257
 C2785 C 1.14225 0.20409 0.18594
 C2786 C 1.15012 0.19158 0.19286
 N2787 N 1.10817 0.20871 0.21300
 N2788 N 1.10024 0.21964 0.20707
 C2789 C 1.08570 0.22459 0.21363
 C2790 C 1.07727 0.23626 0.20618
 C2791 C 1.06266 0.24075 0.21182
 C2792 C 1.05621 0.23361 0.22508
 C2793 C 1.06491 0.22213 0.23272
 C2794 C 1.07949 0.21765 0.22706
 H2795 H 1.14981 0.17561 0.21233
 H2796 H 1.12581 0.18596 0.22383
 H2797 H 1.12267 0.21946 0.18690
 H2798 H 1.14656 0.20929 0.17531
 H2799 H 1.08193 0.24169 0.19582
 H2800 H 1.05630 0.24961 0.20563
 H2801 H 1.06034 0.21636 0.24295
 H2802 H 1.08578 0.20861 0.23304
 C2803 C 0.09676 0.68666 0.53913
 C2804 C 0.11049 0.69282 0.53299
 C2805 C 0.11778 0.70537 0.54019
 C2806 C 0.11100 0.71197 0.55355
 C2807 C 0.09721 0.70582 0.55973
 C2808 C 0.09001 0.69298 0.55267
 N2809 N 0.13228 0.71076 0.53393
 N2810 N 0.13984 0.72199 0.53981
 C2811 C 0.15458 0.72678 0.53358
 C2812 C 0.16247 0.73911 0.54058
 C2813 C 0.17721 0.74352 0.53524
 C2814 C 0.18436 0.73561 0.52277
 C2815 C 0.17625 0.72341 0.51559
 C2816 C 0.16151 0.71904 0.52093
 H2817 H 0.09155 0.67681 0.53333
 H2818 H 0.11561 0.68764 0.52269
 H2819 H 0.11645 0.72169 0.55933
 H2820 H 0.09234 0.71098 0.57016
 H2821 H 0.15727 0.74516 0.55035
 H2822 H 0.18311 0.75294 0.54108
 H2823 H 0.18136 0.71707 0.50596
 H2824 H 0.15567 0.70947 0.51530
 C2825 C 0.09332 0.21172 1.05460
 C2826 C 0.10739 0.21765 1.04907
 C2827 C 0.11600 0.20955 1.03787
 C2828 C 0.11025 0.19544 1.03202
 C2829 C 0.09612 0.18946 1.03756
 C2830 C 0.08756 0.19748 1.04903
 N2831 N 0.13068 0.21577 1.03304
 N2832 N 0.13930 0.20926 1.02288
 C2833 C 0.15411 0.21562 1.01859
 C2834 C 0.16298 0.20823 1.00708
 C2835 C 0.17765 0.21394 1.00295
 C2836 C 0.18373 0.22718 1.01035
 C2837 C 0.17473 0.23462 1.02186
 C2838 C 0.16006 0.22892 1.02592
 H2839 H 0.08707 0.21827 1.06339
 H2840 H 0.11172 0.22853 1.05365
 H2841 H 0.11673 0.18897 1.02334
 H2842 H 0.09203 0.17848 1.03302
 H2843 H 0.15855 0.19795 1.00137
 H2844 H 0.18428 0.20787 0.99409
 H2845 H 0.17903 0.24482 1.02780
 H2846 H 0.15345 0.23484 1.03489
 C2847 C 0.59705 0.53507 0.18972
 C2848 C 0.61066 0.52935 0.19627
 C2849 C 0.61726 0.53679 0.20902
 C2850 C 0.60989 0.54987 0.21549
 C2851 C 0.59623 0.55559 0.20900
 C2852 C 0.58978 0.54838 0.19589
 N2853 N 0.63177 0.53122 0.21469
 N2854 N 0.63894 0.53780 0.22573
 C2855 C 0.65376 0.53232 0.23074
 C2856 C 0.66152 0.54031 0.24249
 C2857 C 0.67642 0.53574 0.24693
 C2858 C 0.68379 0.52306 0.23962
 C2859 C 0.67578 0.51487 0.22805
 C2860 C 0.66094 0.51944 0.22366
 H2861 H 0.59237 0.52919 0.17969
 H2862 H 0.61626 0.51925 0.19120
 H2863 H 0.61479 0.55581 0.22537
 H2864 H 0.59093 0.56585 0.21406
 H2865 H 0.65611 0.55027 0.24802
 H2866 H 0.68225 0.54231 0.25587
 H2867 H 0.68104 0.50501 0.22221
 H2868 H 0.65519 0.51304 0.21455
 C2869 C 0.61004 1.04427 0.68438
 C2870 C 0.62393 1.03817 0.68995
 C2871 C 0.63160 1.04532 0.70225
 C2872 C 0.62511 1.05875 0.70904
 C2873 C 0.61118 1.06493 0.70344
 C2874 C 0.60349 1.05778 0.69099
 N2875 N 0.64600 1.03882 0.70736
 N2876 N 0.65359 1.04444 0.71864
 C2877 C 0.66813 1.03799 0.72348
 C2878 C 0.67573 1.04473 0.73606
 C2879 C 0.69013 1.03909 0.74082
 C2880 C 0.69729 1.02653 0.73304
 C2881 C 0.68952 1.01965 0.72050
 C2882 C 0.67508 1.02532 0.71576
 H2883 H 0.60451 1.03841 0.67479
 H2884 H 0.62880 1.02783 0.68461
 H2885 H 0.63084 1.06452 0.71856
 H2886 H 0.60648 1.07532 0.70881
 H2887 H 0.67053 1.05449 0.74211
 H2888 H 0.69573 1.04472 0.75051
 H2889 H 0.69469 1.01002 0.71420
 H2890 H 0.66944 1.01991 0.70597
 C2891 C 0.89500 0.45743 0.32004
 C2892 C 0.88121 0.46449 0.31532
 C2893 C 0.87338 0.45910 0.30224
 C2894 C 0.87957 0.44645 0.29386
 C2895 C 0.89337 0.43934 0.29859
 C2896 C 0.90126 0.44473 0.31176
 N2897 N 0.85917 0.46655 0.29783
 N2898 N 0.85160 0.46231 0.28595
 C2899 C 0.83730 0.46949 0.28145
 C2900 C 0.82980 0.46396 0.26825
 C2901 C 0.81567 0.47034 0.26364
 C2902 C 0.80868 0.48249 0.27217
 C2903 C 0.81633 0.48817 0.28538
 C2904 C 0.83052 0.48173 0.28999
 H2905 H 0.90072 0.46191 0.33024
 H2906 H 0.87658 0.47421 0.32190
 H2907 H 0.87374 0.44204 0.28371
 H2908 H 0.89782 0.42962 0.29191
 H2909 H 0.83489 0.45454 0.26157
 H2910 H 0.81017 0.46562 0.25343
 H2911 H 0.81128 0.49745 0.29226
 H2912 H 0.83609 0.48621 0.30026
 C2913 C 0.91048 0.94377 0.78753
 C2914 C 0.89718 0.94945 0.78037
 C2915 C 0.88949 0.96247 0.78634
 C2916 C 0.89543 0.97000 0.79949
 C2917 C 0.90874 0.96431 0.80672
 C2918 C 0.91633 0.95101 0.80091
 N2919 N 0.87535 0.96736 0.77924
 N2920 N 0.86788 0.97926 0.78392
 C2921 C 0.85339 0.98379 0.77734
 C2922 C 0.84597 0.99704 0.78314
 C2923 C 0.83131 1.00124 0.77784
 C2924 C 0.82373 0.99219 0.76660
 C2925 C 0.83140 0.97909 0.76046
 C2926 C 0.84612 0.97491 0.76579
 H2927 H 0.91602 0.93353 0.78269
 H2928 H 0.89271 0.94354 0.77026
 H2929 H 0.88965 0.98010 0.80434
 H2930 H 0.91293 0.97018 0.81697
 H2931 H 0.85145 1.00397 0.79204
 H2932 H 0.82580 1.01143 0.78282
 H2933 H 0.82591 0.97186 0.75182
 H2934 H 0.85164 0.96458 0.76114
 C2935 C 0.35719 0.28860 0.81049
 C2936 C 0.37162 0.28275 0.80580
 C2937 C 0.37975 0.28953 0.79346
 C2938 C 0.37319 0.30229 0.78570
 C2939 C 0.35873 0.30820 0.79040
 C2940 C 0.35058 0.30146 0.80291
 N2941 N 0.39470 0.28341 0.78926
 N2942 N 0.40263 0.28884 0.77799
 C2943 C 0.41769 0.28297 0.77385
 C2944 C 0.42544 0.28952 0.76115
 C2945 C 0.44028 0.28446 0.75694
 C2946 C 0.44776 0.27269 0.76540
 C2947 C 0.43988 0.26599 0.77811
 C2948 C 0.42496 0.27109 0.78231
 H2949 H 0.35130 0.28308 0.82016
 H2950 H 0.37654 0.27293 0.81188
 H2951 H 0.37927 0.30776 0.77611
 H2952 H 0.35399 0.31810 0.78430
 H2953 H 0.41997 0.29868 0.75455
 H2954 H 0.44593 0.28993 0.74708
 H2955 H 0.44530 0.25695 0.78491
 H2956 H 0.41919 0.26585 0.79221
 C2957 C 0.83922 0.30450 0.28126
 C2958 C 0.85316 0.29863 0.27534
 C2959 C 0.86165 0.28773 0.28373
 C2960 C 0.85581 0.28233 0.29801
 C2961 C 0.84180 0.28815 0.30396
 C2962 C 0.83348 0.29951 0.29576
 N2963 N 0.87643 0.28293 0.27774
 N2964 N 0.88524 0.27354 0.28487
 C2965 C 0.90022 0.26944 0.27879
 C2966 C 0.90944 0.25895 0.28696
 C2967 C 0.92432 0.25516 0.28155
 C2968 C 0.93024 0.26189 0.26784
 C2969 C 0.92087 0.27237 0.25963
 C2970 C 0.90601 0.27610 0.26503
 H2971 H 0.83309 0.31316 0.27458
 H2972 H 0.85755 0.30285 0.26430
 H2973 H 0.86220 0.27387 0.30469
 H2974 H 0.83770 0.28407 0.31515
 H2975 H 0.90512 0.25379 0.29761
 H2976 H 0.93123 0.24707 0.28819
 H2977 H 0.92503 0.27776 0.24903
 H2978 H 0.89913 0.28429 0.25852
 C2979 C 0.39612 0.81597 0.45683
 C2980 C 0.38239 0.81071 0.46381
 C2981 C 0.37463 0.79776 0.45790
 C2982 C 0.38080 0.79001 0.44487
 C2983 C 0.39453 0.79527 0.43783
 C2984 C 0.40234 0.80834 0.44371
 N2985 N 0.36043 0.79292 0.46521
 N2986 N 0.35287 0.78110 0.46064
 C2987 C 0.33853 0.77646 0.46781
 C2988 C 0.33090 0.76330 0.46219
 C2989 C 0.31667 0.75870 0.46858
 C2990 C 0.30976 0.76723 0.48078
 C2991 C 0.31757 0.78037 0.48652
 C2992 C 0.33183 0.78495 0.48011
 H2993 H 0.40178 0.82607 0.46168
 H2994 H 0.37774 0.81679 0.47383
 H2995 H 0.37499 0.77996 0.44007
 H2996 H 0.39899 0.78911 0.42777
 H2997 H 0.33594 0.75668 0.45271
 H2998 H 0.31099 0.74855 0.46382
 H2999 H 0.31259 0.78724 0.49586
 H3000 H 0.33750 0.79519 0.48465
 C3001 C 0.39965 0.28679 0.93674
 C3002 C 0.38552 0.28053 0.94178
 C3003 C 0.37753 0.28707 0.95439
 C3004 C 0.38397 0.29991 0.96211
 C3005 C 0.39813 0.30620 0.95708
 C3006 C 0.40608 0.29978 0.94425
 N3007 N 0.36277 0.28069 0.95878
 N3008 N 0.35471 0.28612 0.96999
 C3009 C 0.33977 0.27989 0.97401
 C3010 C 0.33141 0.28655 0.98631
 C3011 C 0.31654 0.28118 0.99012
 C3012 C 0.30974 0.26899 0.98165
 C3013 C 0.31830 0.26216 0.96943
 C3014 C 0.33317 0.26755 0.96564
 H3015 H 0.40543 0.28151 0.92685
 H3016 H 0.38067 0.27064 0.93574
 H3017 H 0.37800 0.30517 0.97189
 H3018 H 0.40274 0.31619 0.96314
 H3019 H 0.33636 0.29607 0.99283
 H3020 H 0.31030 0.28674 0.99959
 H3021 H 0.31345 0.25277 0.96265
 H3022 H 0.33941 0.26220 0.95607
 C3023 C 0.80566 0.46809 0.40656
 C3024 C 0.80008 0.47467 0.39291
 C3025 C 0.78790 0.46764 0.38494
 C3026 C 0.78096 0.45415 0.39102
 C3027 C 0.78649 0.44757 0.40469
 C3028 C 0.79909 0.45432 0.41247
 N3029 N 0.78334 0.47399 0.37037
 N3030 N 0.77280 0.46781 0.36219
 C3031 C 0.76874 0.47385 0.34733
 C3032 C 0.75707 0.46648 0.33890
 C3033 C 0.75332 0.47165 0.32406
 C3034 C 0.76125 0.48433 0.31738
 C3035 C 0.77286 0.49181 0.32597
 C3036 C 0.77657 0.48663 0.34081
 H3037 H 0.81532 0.47364 0.41228
 H3038 H 0.80550 0.48507 0.38833
 H3039 H 0.77149 0.44853 0.38505
 H3040 H 0.78114 0.43698 0.40893
 H3041 H 0.75100 0.45658 0.34379
 H3042 H 0.74433 0.46560 0.31777
 H3043 H 0.77919 0.50160 0.32121
 H3044 H 0.78568 0.49250 0.34710
 C3045 C 0.78893 0.94382 0.90286
 C3046 C 0.78290 0.94915 0.88884
 C3047 C 0.78934 0.96216 0.88147
 C3048 C 0.80178 0.96998 0.88844
 C3049 C 0.80783 0.96467 0.90243
 C3050 C 0.80158 0.95143 0.90975
 N3051 N 0.78343 0.96688 0.86674
 N3052 N 0.78902 0.97848 0.85943
 C3053 C 0.78360 0.98306 0.84447
 C3054 C 0.79066 0.99572 0.83710
 C3055 C 0.78629 1.00004 0.82216
 C3056 C 0.77470 0.99173 0.81429
 C3057 C 0.76740 0.97918 0.82187
 C3058 C 0.77182 0.97487 0.83683
 H3059 H 0.78382 0.93360 0.90817
 H3060 H 0.77332 0.94302 0.88358
 H3061 H 0.80697 0.98007 0.88298
 H3062 H 0.81753 0.97085 0.90740
 H3063 H 0.79977 1.00211 0.84287
 H3064 H 0.79216 1.00977 0.81671
 H3065 H 0.75845 0.97251 0.81617
 H3066 H 0.76619 0.96502 0.84230
 C3067 C 0.28199 0.80925 0.34936
 C3068 C 0.27547 0.80433 0.36343
 C3069 C 0.28129 0.79124 0.37101
 C3070 C 0.29366 0.78292 0.36422
 C3071 C 0.30021 0.78781 0.35014
 C3072 C 0.29454 0.80112 0.34260
 N3073 N 0.27478 0.78694 0.38576
 N3074 N 0.27967 0.77525 0.39330
 C3075 C 0.27358 0.77112 0.40825
 C3076 C 0.27989 0.75831 0.41590
 C3077 C 0.27485 0.75440 0.43084
 C3078 C 0.26333 0.76326 0.43844
 C3079 C 0.25676 0.77596 0.43058
 C3080 C 0.26185 0.77987 0.41562
 H3081 H 0.27730 0.81953 0.34389
 H3082 H 0.26596 0.81086 0.36855
 H3083 H 0.29838 0.77275 0.36985
 H3084 H 0.30982 0.78125 0.34528
 H3085 H 0.28894 0.75149 0.41035
 H3086 H 0.28019 0.74455 0.43650
 H3087 H 0.24792 0.78308 0.43610
 H3088 H 0.25680 0.78985 0.40994
 C3089 C 0.31299 0.28609 0.84642
 C3090 C 0.30635 0.27971 0.85980
 C3091 C 0.29346 0.28673 0.86685
 C3092 C 0.28698 0.30010 0.86017
 C3093 C 0.29359 0.30649 0.84673
 C3094 C 0.30679 0.29965 0.83981
 N3095 N 0.28762 0.28038 0.88107
 N3096 N 0.27628 0.28635 0.88853
 C3097 C 0.27109 0.28008 0.90306
 C3098 C 0.25893 0.28739 0.91110
 C3099 C 0.25429 0.28208 0.92576
 C3100 C 0.26180 0.26932 0.93261
 C3101 C 0.27378 0.26180 0.92431
 C3102 C 0.27838 0.26711 0.90969
 H3103 H 0.32310 0.28047 0.84138
 H3104 H 0.31143 0.26940 0.86486
 H3105 H 0.27700 0.30573 0.86543
 H3106 H 0.28851 0.31693 0.84195
 H3107 H 0.25324 0.29741 0.90612
 H3108 H 0.24504 0.28815 0.93182
 H3109 H 0.27980 0.25192 0.92919
 H3110 H 0.28781 0.26123 0.90371
 C3111 C 0.44170 0.28809 0.89794
 C3112 C 0.44795 0.28251 0.88401
 C3113 C 0.46068 0.28989 0.87705
 C3114 C 0.46730 0.30289 0.88433
 C3115 C 0.46107 0.30849 0.89832
 C3116 C 0.44810 0.30123 0.90523
 N3117 N 0.46634 0.28413 0.86246
 N3118 N 0.47769 0.29032 0.85520
 C3119 C 0.48296 0.28457 0.84045
 C3120 C 0.49538 0.29198 0.83296
 C3121 C 0.50046 0.28696 0.81833
 C3122 C 0.49316 0.27438 0.81091
 C3123 C 0.48076 0.26686 0.81857
 C3124 C 0.47571 0.27190 0.83319
 H3125 H 0.43175 0.28216 0.90291
 H3126 H 0.44275 0.27248 0.87850
 H3127 H 0.47717 0.30879 0.87916
 H3128 H 0.46630 0.31862 0.90360
 H3129 H 0.50105 0.30177 0.83842
 H3130 H 0.51001 0.29305 0.81279
 H3131 H 0.47484 0.25717 0.81321
 H3132 H 0.46606 0.26598 0.83873
 C3133 C 0.94254 0.27947 0.40326
 C3134 C 0.94689 0.27403 0.38860
 C3135 C 0.95775 0.28216 0.37961
 C3136 C 0.96447 0.29578 0.38558
 C3137 C 0.96015 0.30124 0.40030
 C3138 C 0.94902 0.29321 0.40927
 N3139 N 0.96143 0.27648 0.36439
 N3140 N 0.97099 0.28331 0.35536
 C3141 C 0.97429 0.27761 0.34006
 C3142 C 0.98493 0.28564 0.33071
 C3143 C 0.98816 0.28059 0.31561
 C3144 C 0.98075 0.26734 0.30956
 C3145 C 0.97011 0.25924 0.31903
 C3146 C 0.96691 0.26432 0.33414
 H3147 H 0.93398 0.27293 0.40983
 H3148 H 0.94165 0.26352 0.38413
 H3149 H 0.97292 0.30226 0.37883
 H3150 H 0.96537 0.31186 0.40456
 H3151 H 0.99067 0.29591 0.33512
 H3152 H 0.99639 0.28714 0.30865
 H3153 H 0.96417 0.24902 0.31477
 H3154 H 0.95861 0.25790 0.34114
 C3155 C 0.44699 0.40896 0.77742
 C3156 C 0.45309 0.39528 0.77115
 C3157 C 0.46514 0.38750 0.77858
 C3158 C 0.47147 0.39385 0.79215
 C3159 C 0.46539 0.40756 0.79845
 C3160 C 0.45288 0.41511 0.79131
 N3161 N 0.47016 0.37281 0.77260
 N3162 N 0.48069 0.36491 0.77917
 C3163 C 0.48528 0.34989 0.77370
 C3164 C 0.49706 0.34206 0.78147
 C3165 C 0.50137 0.32708 0.77697
 C3166 C 0.49389 0.31962 0.76457
 C3167 C 0.48212 0.32760 0.75667
 C3168 C 0.47785 0.34263 0.76119
 H3169 H 0.43741 0.41450 0.77156
 H3170 H 0.44815 0.39049 0.76068
 H3171 H 0.48084 0.38805 0.79809
 H3172 H 0.47022 0.41199 0.80912
 H3173 H 0.50281 0.34752 0.79117
 H3174 H 0.51047 0.32130 0.78334
 H3175 H 0.47613 0.32221 0.74708
 H3176 H 0.46864 0.34847 0.75505
 C3177 C 0.95625 0.39809 0.31039
 C3178 C 0.96229 0.38461 0.30368
 C3179 C 0.95393 0.37651 0.29250
 C3180 C 0.93942 0.38224 0.28780
 C3181 C 0.93332 0.39584 0.29451
 C3182 C 0.94161 0.40382 0.30603
 N3183 N 0.96033 0.36229 0.28659
 N3184 N 0.95358 0.35393 0.27651
 C3185 C 0.96018 0.33951 0.27125
 C3186 C 0.95229 0.33076 0.26016
 C3187 C 0.95809 0.31635 0.25530
 C3188 C 0.97195 0.31039 0.26150
 C3189 C 0.97996 0.31934 0.27249
 C3190 C 0.97415 0.33376 0.27731
 H3191 H 0.96304 0.40393 0.31914
 H3192 H 0.97348 0.38031 0.30738
 H3193 H 0.93274 0.37614 0.27914
 H3194 H 0.92203 0.39992 0.29089
 H3195 H 0.94151 0.33503 0.25542
 H3196 H 0.95157 0.30978 0.24686
 H3197 H 0.99063 0.31513 0.27753
 H3198 H 0.98048 0.34029 0.28592
 C3199 C 0.31252 0.89999 0.46126
 C3200 C 0.30666 0.88631 0.46773
 C3201 C 0.29432 0.87850 0.46077
 C3202 C 0.28768 0.88468 0.44729
 C3203 C 0.29353 0.89842 0.44079
 C3204 C 0.30612 0.90616 0.44764
 N3205 N 0.28911 0.86417 0.46747
 N3206 N 0.27811 0.85618 0.46181
 C3207 C 0.27339 0.84169 0.46856
 C3208 C 0.26124 0.83335 0.46185
 C3209 C 0.25671 0.81895 0.46789
 C3210 C 0.26431 0.81261 0.48080
 C3211 C 0.27642 0.82111 0.48761
 C3212 C 0.28091 0.83550 0.48156
 H3213 H 0.32219 0.90563 0.46689
 H3214 H 0.31186 0.88166 0.47812
 H3215 H 0.27811 0.87883 0.44171
 H3216 H 0.28833 0.90284 0.43031
 H3217 H 0.25536 0.83797 0.45181
 H3218 H 0.24737 0.81272 0.46231
 H3219 H 0.28256 0.81660 0.49753
 H3220 H 0.29036 0.84171 0.48696
 C3221 C 0.30943 0.40170 0.96419
 C3222 C 0.30382 0.38786 0.97063
 C3223 C 0.29033 0.38095 0.96496
 C3224 C 0.28234 0.38817 0.95279
 C3225 C 0.28793 0.40203 0.94631
 C3226 C 0.30162 0.40892 0.95187
 N3227 N 0.28533 0.36641 0.97142
 N3228 N 0.27315 0.35945 0.96687
 C3229 C 0.26844 0.34465 0.97295
 C3230 C 0.25520 0.33753 0.96695
 C3231 C 0.25086 0.32264 0.97178
 C3232 C 0.25971 0.31453 0.98278
 C3233 C 0.27276 0.32193 0.98915
 C3234 C 0.27711 0.33684 0.98427
 H3235 H 0.31998 0.40664 0.96880
 H3236 H 0.31011 0.38241 0.97997
 H3237 H 0.27188 0.38304 0.94817
 H3238 H 0.28161 0.40725 0.93686
 H3239 H 0.24842 0.34342 0.95824
 H3240 H 0.24074 0.31735 0.96662
 H3241 H 0.27988 0.31604 0.99759
 H3242 H 0.28740 0.34211 0.98910
 C3243 C 0.80247 0.34781 0.28186
 C3244 C 0.79783 0.36211 0.27582
 C3245 C 0.78585 0.37053 0.28293
 C3246 C 0.77825 0.36432 0.29603
 C3247 C 0.78288 0.35001 0.30211
 C3248 C 0.79519 0.34169 0.29521
 N3249 N 0.78205 0.38559 0.27702
 N3250 N 0.77132 0.39382 0.28306
 C3251 C 0.76774 0.40912 0.27767
 C3252 C 0.75560 0.41721 0.28486
 C3253 C 0.75216 0.43240 0.28047
 C3254 C 0.76088 0.43986 0.26874
 C3255 C 0.77299 0.43161 0.26137
 C3256 C 0.77640 0.41635 0.26580
 H3257 H 0.81196 0.34172 0.27621
 H3258 H 0.80377 0.36678 0.26572
 H3259 H 0.76892 0.37062 0.30173
 H3260 H 0.77701 0.34564 0.31237
 H3261 H 0.74889 0.41176 0.29404
 H3262 H 0.74276 0.43835 0.28642
 H3263 H 0.77995 0.43700 0.25234
 H3264 H 0.78590 0.41030 0.26010
   
