data_POSCAR
  _audit_creation_date              2014-09-24
  _audit_creation_method            'ToBaCCo'
  _symmetry_space_group_name_H-M    'P1'
  _symmetry_Int_Tables_number       1
  _symmetry_cell_setting            triclinic
  loop_
  _symmetry_equiv_pos_as_xyz
 x,y,z
_cell_length_a 59.3898
_cell_length_b 59.4399
_cell_length_c 59.3582
_cell_angle_alpha 94.478400
_cell_angle_beta 94.405600
_cell_angle_gamma 94.471100
loop_
  _atom_site_label
  _atom_site_type_symbol
  _atom_site_fract_x
  _atom_site_fract_y
  _atom_site_fract_z
C1 C 0.72032 0.67583 0.97200
 H2 H 0.73642 0.67445 0.96485
 C3 C 0.70420 0.68871 0.96195
 H4 H 0.70819 0.69740 0.94721
 C5 C 0.69519 0.66511 0.99914
 H6 H 0.69141 0.65537 1.01318
 C7 C 0.67866 0.67784 0.98973
 H8 H 0.66247 0.67787 0.99694
 N9 N 0.71549 0.66419 0.99011
 C10 C 0.77759 0.64582 1.02530
 H11 H 0.77211 0.62825 1.02678
 C12 C 0.79911 0.65454 1.03434
 H13 H 0.80999 0.64349 1.04285
 C14 C 0.77003 0.68115 1.01174
 H15 H 0.75865 0.69136 1.00276
 C16 C 0.79158 0.69059 1.02046
 H17 H 0.79658 0.70810 1.01810
 Zn18 Zn 0.73616 0.64380 1.00050
 N19 N 0.76370 0.65899 1.01394
 C20 C 0.76428 0.62564 0.96911
 N21 N 0.74254 0.62501 0.97487
 C22 C 0.72540 0.61320 0.96129
 C23 C 0.72989 0.60153 0.94091
 C24 C 0.76949 0.61434 0.94900
 C25 C 0.72196 0.63901 1.04317
 C26 C 0.71323 0.62853 1.06118
 C27 C 0.70804 0.59322 1.03753
 C28 C 0.71705 0.60447 1.01994
 N29 N 0.72354 0.62702 1.02302
 H30 H 0.77765 0.63550 0.97972
 H31 H 0.70816 0.61337 0.96599
 H32 H 0.71601 0.59250 0.93015
 H33 H 0.78694 0.61542 0.94478
 H34 H 0.72750 0.65688 1.04520
 H35 H 0.71219 0.63883 1.07689
 H36 H 0.70285 0.57529 1.03450
 H37 H 0.71879 0.59519 1.00386
 C38 C 0.80657 0.67710 1.03164
 C39 C 0.68288 0.68954 0.97061
 C40 C 0.70589 0.60524 1.05865
 C41 C 0.75219 0.60229 0.93441
 C42 C 0.73789 0.37212 0.49535
 H43 H 0.75456 0.37455 0.50435
 C44 C 0.72117 0.35743 0.50292
 H45 H 0.72522 0.34858 0.51777
 C46 C 0.71243 0.38132 0.46539
 H47 H 0.70899 0.39094 0.45100
 C48 C 0.69515 0.36682 0.47242
 H49 H 0.67859 0.36534 0.46317
 N50 N 0.73333 0.38360 0.47683
 C51 C 0.79899 0.40018 0.45145
 H52 H 0.79873 0.41831 0.45092
 C53 C 0.81748 0.38933 0.44418
 H54 H 0.83144 0.39931 0.43810
 C55 C 0.78085 0.36524 0.45979
 H56 H 0.76641 0.35584 0.46557
 C57 C 0.79898 0.35370 0.45269
 H58 H 0.79829 0.33551 0.45331
 Zn59 Zn 0.75685 0.40405 0.46886
 N60 N 0.78130 0.38811 0.45935
 C61 C 0.78815 0.42551 0.50402
 N62 N 0.76622 0.42371 0.49515
 C63 C 0.75000 0.43396 0.50613
 C64 C 0.75547 0.44610 0.52723
 C65 C 0.79440 0.43764 0.52494
 C66 C 0.74111 0.40823 0.42413
 C67 C 0.73353 0.41902 0.40528
 C68 C 0.73767 0.45453 0.42859
 C69 C 0.74519 0.44302 0.44702
 N70 N 0.74650 0.42024 0.44452
 H71 H 0.80073 0.41687 0.49536
 H72 H 0.73262 0.43196 0.49886
 H73 H 0.74218 0.45355 0.53599
 H74 H 0.81185 0.43829 0.53190
 H75 H 0.74263 0.39016 0.42258
 H76 H 0.72912 0.40904 0.38928
 H77 H 0.73655 0.47264 0.43098
 H78 H 0.74995 0.45230 0.46329
 C79 C 0.81769 0.36577 0.44484
 C80 C 0.69940 0.35469 0.49148
 C81 C 0.73159 0.44248 0.40738
 C82 C 0.77788 0.44770 0.53709
 C83 C 0.23675 -0.12774 -0.00577
 H84 H 0.25334 -0.12547 0.00339
 C85 C 0.21981 -0.14234 0.00158
 H86 H 0.22361 -0.15129 0.01642
 C87 C 0.21169 -0.11824 -0.03592
 H88 H 0.20849 -0.10853 -0.05029
 C89 C 0.19422 -0.13265 -0.02913
 H90 H 0.17776 -0.13398 -0.03856
 N91 N 0.23249 -0.11614 -0.02427
 C92 C 0.29828 -0.09977 -0.04948
 H93 H 0.29804 -0.08164 -0.05004
 C94 C 0.31675 -0.11066 -0.05675
 H95 H 0.33070 -0.10070 -0.06286
 C96 C 0.28011 -0.13467 -0.04105
 H97 H 0.26568 -0.14404 -0.03523
 C98 C 0.29823 -0.14625 -0.04815
 H99 H 0.29753 -0.16444 -0.04749
 Zn100 Zn 0.25619 -0.09577 -0.03203
 N101 N 0.28059 -0.11180 -0.04154
 C102 C 0.28755 -0.07455 0.00316
 N103 N 0.26561 -0.07625 -0.00566
 C104 C 0.24945 -0.06597 0.00540
 C105 C 0.25500 -0.05392 0.02653
 C106 C 0.29388 -0.06250 0.02410
 C107 C 0.24083 -0.09130 -0.07677
 C108 C 0.23329 -0.08045 -0.09559
 C109 C 0.23715 -0.04505 -0.07207
 C110 C 0.24465 -0.05666 -0.05371
 N111 N 0.24604 -0.07940 -0.05632
 H112 H 0.30008 -0.08319 -0.00557
 H113 H 0.23206 -0.06788 -0.00184
 H114 H 0.24176 -0.04643 0.03535
 H115 H 0.31134 -0.06192 0.03101
 H116 H 0.24245 -0.10935 -0.07840
 H117 H 0.22910 -0.09060 -0.11155
 H118 H 0.23604 -0.02695 -0.06932
 H119 H 0.24929 -0.04747 -0.03737
 C120 C 0.31693 -0.13422 -0.05605
 C121 C 0.19814 -0.14488 -0.01008
 C122 C 0.23108 -0.05693 -0.09350
 C123 C 0.27742 -0.05241 0.03633
 C124 C 0.22160 0.17611 0.47145
 H125 H 0.23769 0.17484 0.46425
 C126 C 0.20539 0.18896 0.46152
 H127 H 0.20931 0.19774 0.44681
 C128 C 0.19658 0.16512 0.49860
 H129 H 0.19288 0.15528 0.51260
 C130 C 0.17997 0.17782 0.48929
 H131 H 0.16379 0.17774 0.49655
 N132 N 0.21687 0.16433 0.48951
 C133 C 0.27915 0.14588 0.52431
 H134 H 0.27376 0.12826 0.52562
 C135 C 0.30065 0.15463 0.53341
 H136 H 0.31159 0.14355 0.54179
 C137 C 0.27140 0.18133 0.51114
 H138 H 0.25996 0.19156 0.50228
 C139 C 0.29293 0.19080 0.51992
 H140 H 0.29783 0.20837 0.51774
 Zn141 Zn 0.23762 0.14393 0.49970
 N142 N 0.26517 0.15911 0.51313
 C143 C 0.26569 0.12607 0.46810
 N144 N 0.24397 0.12532 0.47394
 C145 C 0.22683 0.11348 0.46038
 C146 C 0.23130 0.10187 0.43997
 C147 C 0.27088 0.11483 0.44794
 C148 C 0.22365 0.13883 0.54242
 C149 C 0.21510 0.12816 0.56041
 C150 C 0.20985 0.09301 0.53654
 C151 C 0.21869 0.10440 0.51895
 N152 N 0.22514 0.12697 0.52216
 H153 H 0.27905 0.13597 0.47868
 H154 H 0.20961 0.11357 0.46514
 H155 H 0.21742 0.09280 0.42924
 H156 H 0.28830 0.11598 0.44367
 H157 H 0.22912 0.15671 0.54456
 H158 H 0.21398 0.13810 0.57630
 H159 H 0.20465 0.07508 0.53368
 H160 H 0.22035 0.09522 0.50280
 C161 C 0.30799 0.17728 0.53096
 C162 C 0.18408 0.18963 0.47022
 C163 C 0.20794 0.10495 0.55763
 C164 C 0.25358 0.10272 0.43341
 C165 C 0.17615 0.47177 0.22173
 H166 H 0.17483 0.46460 0.23782
 C167 C 0.18903 0.46179 0.20553
 H168 H 0.19778 0.44709 0.20945
 C169 C 0.16529 0.49888 0.19669
 H170 H 0.15549 0.51289 0.19297
 C171 C 0.17802 0.48953 0.18008
 H172 H 0.17799 0.49676 0.16389
 N173 N 0.16442 0.48981 0.21697
 C174 C 0.14588 0.52465 0.27928
 H175 H 0.12825 0.52597 0.27388
 C176 C 0.15462 0.53373 0.30080
 H177 H 0.14352 0.54212 0.31175
 C178 C 0.18135 0.51147 0.27151
 H179 H 0.19160 0.50262 0.26005
 C180 C 0.19082 0.52024 0.29304
 H181 H 0.20840 0.51806 0.29794
 Zn182 Zn 0.14396 0.50003 0.23772
 N183 N 0.15912 0.51346 0.26529
 C184 C 0.12593 0.46852 0.26578
 N185 N 0.12529 0.47432 0.24405
 C186 C 0.11355 0.46075 0.22686
 C187 C 0.10197 0.44033 0.23129
 C188 C 0.11471 0.44837 0.27093
 C189 C 0.13891 0.54269 0.22375
 C190 C 0.12827 0.56064 0.21512
 C191 C 0.09312 0.53678 0.20973
 C192 C 0.10448 0.51923 0.21864
 N193 N 0.12704 0.52245 0.22520
 H194 H 0.13574 0.47913 0.27919
 H195 H 0.11370 0.46548 0.20964
 H196 H 0.09299 0.42957 0.21737
 H197 H 0.11579 0.44411 0.28836
 H198 H 0.15679 0.54484 0.22929
 H199 H 0.13823 0.57650 0.21403
 H200 H 0.07520 0.53390 0.20443
 H201 H 0.09528 0.50310 0.22026
 C202 C 0.17727 0.53127 0.30813
 C203 C 0.18977 0.47045 0.18420
 C204 C 0.10508 0.55783 0.20785
 C205 C 0.10274 0.43379 0.25357
 C206 C -0.12817 -0.00485 0.23641
 H207 H -0.12587 0.00398 0.25317
 C208 C -0.14281 0.00283 0.21973
 H209 H -0.15171 0.01759 0.22405
 C210 C -0.11876 -0.03450 0.21072
 H211 H -0.10908 -0.04882 0.20718
 C212 C -0.13319 -0.02737 0.19345
 H213 H -0.13447 -0.03658 0.17686
 N214 N -0.11659 -0.02325 0.23171
 C215 C -0.10004 -0.04903 0.29716
 H216 H -0.08188 -0.04947 0.29692
 C217 C -0.11091 -0.05651 0.31558
 H218 H -0.10091 -0.06264 0.32948
 C219 C -0.13502 -0.04074 0.27907
 H220 H -0.14443 -0.03491 0.26468
 C221 C -0.14658 -0.04805 0.29713
 H222 H -0.16480 -0.04753 0.29643
 Zn223 Zn -0.09614 -0.03131 0.25518
 N224 N -0.11211 -0.04107 0.27954
 C225 C -0.07480 0.00364 0.28680
 N226 N -0.07654 -0.00506 0.26480
 C227 C -0.06624 0.00606 0.24869
 C228 C -0.05414 0.02712 0.25436
 C229 C -0.06270 0.02451 0.29324
 C230 C -0.09174 -0.07586 0.23906
 C231 C -0.08084 -0.09457 0.23132
 C232 C -0.04540 -0.07113 0.23563
 C233 C -0.05702 -0.05284 0.24332
 N234 N -0.07982 -0.05547 0.24462
 H235 H -0.08344 -0.00515 0.29930
 H236 H -0.06817 -0.00108 0.23125
 H237 H -0.04664 0.03599 0.24115
 H238 H -0.06209 0.03133 0.31075
 H239 H -0.10983 -0.07751 0.24057
 H240 H -0.09075 -0.11057 0.22679
 H241 H -0.02728 -0.06863 0.23452
 H242 H -0.04781 -0.03657 0.24821
 C243 C -0.13451 -0.05599 0.31576
 C244 C -0.14542 -0.00833 0.19775
 C245 C -0.05736 -0.09233 0.22939
 C246 C -0.05261 0.03681 0.27684
 C247 C 0.37181 0.49505 0.73788
 H248 H 0.37422 0.50398 0.75459
 C249 C 0.35714 0.50268 0.72119
 H250 H 0.34829 0.51751 0.72531
 C251 C 0.38101 0.46519 0.71228
 H252 H 0.39063 0.45081 0.70878
 C253 C 0.36654 0.47229 0.69503
 H254 H 0.36507 0.46310 0.67843
 N255 N 0.38329 0.47656 0.73324
 C256 C 0.39991 0.45118 0.79885
 H257 H 0.41806 0.45068 0.79858
 C258 C 0.38906 0.44389 0.81735
 H259 H 0.39906 0.43782 0.83129
 C260 C 0.36492 0.45946 0.78075
 H261 H 0.35550 0.46522 0.76633
 C262 C 0.35338 0.45234 0.79889
 H263 H 0.33517 0.45292 0.79822
 Zn264 Zn 0.40376 0.46856 0.75671
 N265 N 0.38782 0.45905 0.78118
 C266 C 0.42524 0.50368 0.78805
 N267 N 0.42345 0.49479 0.76611
 C268 C 0.43375 0.50572 0.74988
 C269 C 0.44590 0.52679 0.75535
 C270 C 0.43739 0.52457 0.79430
 C271 C 0.40792 0.42389 0.74086
 C272 C 0.41874 0.40505 0.73329
 C273 C 0.45429 0.42831 0.73752
 C274 C 0.44276 0.44673 0.74502
 N275 N 0.41995 0.44425 0.74629
 H276 H 0.41659 0.49505 0.80065
 H277 H 0.43177 0.49844 0.73249
 H278 H 0.45339 0.53551 0.74205
 H279 H 0.43803 0.53155 0.81176
 H280 H 0.38984 0.42236 0.74235
 H281 H 0.40875 0.38908 0.72887
 H282 H 0.47242 0.43068 0.73644
 H283 H 0.45205 0.46297 0.74982
 C284 C 0.36547 0.44449 0.81757
 C285 C 0.35443 0.49134 0.69936
 C286 C 0.44223 0.40713 0.73141
 C287 C 0.44748 0.53668 0.77776
 C288 C 0.67771 0.97142 0.72127
 H289 H 0.67650 0.96417 0.73734
 C290 C 0.69059 0.96161 0.70498
 H291 H 0.69945 0.94694 0.70881
 C292 C 0.66654 0.99855 0.69639
 H293 H 0.65662 1.01249 0.69277
 C294 C 0.67927 0.98937 0.67969
 H295 H 0.67911 0.99666 0.66353
 N296 N 0.66582 0.98939 0.71664
 C297 C 0.64704 1.02376 0.77908
 H298 H 0.62941 1.02501 0.77363
 C299 C 0.65565 1.03276 0.80066
 H300 H 0.64435 1.04102 0.81148
 C301 C 0.68263 1.01091 0.77133
 H302 H 0.69298 1.00223 0.75984
 C303 C 0.69200 1.01959 0.79293
 H304 H 0.70962 1.01746 0.79772
 Zn305 Zn 0.64532 0.99938 0.73745
 N306 N 0.66039 1.01276 0.76507
 C307 C 0.62759 0.96755 0.76533
 N308 N 0.62677 0.97354 0.74366
 C309 C 0.61487 0.96012 0.72646
 C310 C 0.60321 0.93971 0.73082
 C311 C 0.61632 0.94740 0.77041
 C312 C 0.64002 1.04208 0.72367
 C313 C 0.62927 1.06001 0.71518
 C314 C 0.59420 1.03601 0.70978
 C315 C 0.60568 1.01847 0.71857
 N316 N 0.62825 1.02177 0.72506
 H317 H 0.63754 0.97803 0.77874
 H318 H 0.61490 0.96499 0.70928
 H319 H 0.59405 0.92911 0.71691
 H320 H 0.61751 0.94301 0.78780
 H321 H 0.65791 1.04429 0.72918
 H322 H 0.63915 1.07593 0.71413
 H323 H 0.57628 1.03307 0.70453
 H324 H 0.59655 1.00230 0.72016
 C325 C 0.67834 1.03038 0.80816
 C326 C 0.69117 0.97036 0.68369
 C327 C 0.60606 1.05713 0.70796
 C328 C 0.60410 0.93302 0.75305
 C329 C -0.00513 0.23768 -0.12746
 H330 H 0.00382 0.25436 -0.12501
 C331 C 0.00252 0.22100 -0.14214
 H332 H 0.01739 0.22510 -0.15098
 C333 C -0.03507 0.21215 -0.11833
 H334 H -0.04950 0.20867 -0.10873
 C335 C -0.02796 0.19491 -0.13281
 H336 H -0.03718 0.17835 -0.13431
 N337 N -0.02367 0.23307 -0.11600
 C338 C -0.04923 0.29854 -0.09929
 H339 H -0.04984 0.29823 -0.08114
 C340 C -0.05652 0.31701 -0.11013
 H341 H -0.06269 0.33089 -0.10011
 C342 C -0.04069 0.28056 -0.13428
 H343 H -0.03483 0.26620 -0.14371
 C344 C -0.04779 0.29868 -0.14581
 H345 H -0.04709 0.29806 -0.16401
 Zn346 Zn -0.03174 0.25649 -0.09548
 N347 N -0.04123 0.28094 -0.11139
 C348 C 0.00328 0.28783 -0.07384
 N349 N -0.00554 0.26589 -0.07572
 C350 C 0.00544 0.24969 -0.06549
 C351 C 0.02651 0.25518 -0.05333
 C352 C 0.02416 0.29410 -0.06169
 C353 C -0.07643 0.24062 -0.09142
 C354 C -0.09530 0.23289 -0.08071
 C355 C -0.07208 0.23693 -0.04510
 C356 C -0.05367 0.24461 -0.05657
 N357 N -0.05610 0.24602 -0.07935
 H358 H -0.00541 0.30041 -0.08243
 H359 H -0.00180 0.23231 -0.06752
 H360 H 0.03528 0.24190 -0.04590
 H361 H 0.03109 0.31156 -0.06098
 H362 H -0.07792 0.24226 -0.10948
 H363 H -0.11115 0.22857 -0.09098
 H364 H -0.06947 0.23583 -0.02697
 H365 H -0.03744 0.24941 -0.04725
 C366 C -0.05577 0.31729 -0.13371
 C367 C -0.00885 0.19921 -0.14488
 C368 C -0.09339 0.23069 -0.05715
 C369 C 0.03634 0.27759 -0.05169
 C370 C 0.47181 0.22124 0.17613
 H371 H 0.46459 0.23730 0.17490
 C372 C 0.46191 0.20499 0.18898
 H373 H 0.44720 0.20884 0.19779
 C374 C 0.49901 0.19635 0.16507
 H375 H 0.51303 0.19272 0.15522
 C376 C 0.48973 0.17970 0.17776
 H377 H 0.49702 0.16356 0.17765
 N378 N 0.48987 0.21658 0.16431
 C379 C 0.52459 0.27893 0.14593
 H380 H 0.52595 0.27357 0.12828
 C381 C 0.53359 0.30043 0.15473
 H382 H 0.54195 0.31142 0.14365
 C383 C 0.51139 0.27105 0.18139
 H384 H 0.50257 0.25956 0.19162
 C385 C 0.52007 0.29258 0.19091
 H386 H 0.51786 0.29743 0.20851
 Zn387 Zn 0.50001 0.23737 0.14389
 N388 N 0.51342 0.26489 0.15913
 C389 C 0.46838 0.26538 0.12610
 N390 N 0.47424 0.24368 0.12532
 C391 C 0.46069 0.22654 0.11350
 C392 C 0.44024 0.23096 0.10196
 C393 C 0.44820 0.27052 0.11492
 C394 C 0.54274 0.22355 0.13863
 C395 C 0.56071 0.21504 0.12788
 C396 C 0.53674 0.20962 0.09278
 C397 C 0.51918 0.21843 0.10425
 N398 N 0.52245 0.22495 0.12683
 H399 H 0.47897 0.27875 0.13597
 H400 H 0.46546 0.20934 0.11356
 H401 H 0.42952 0.21708 0.09290
 H402 H 0.44390 0.28792 0.11610
 H403 H 0.54492 0.22906 0.15652
 H404 H 0.57662 0.21399 0.13778
 H405 H 0.53383 0.20434 0.07485
 H406 H 0.50300 0.21999 0.09512
 C407 C 0.53106 0.30771 0.17740
 C408 C 0.47065 0.18372 0.18959
 C409 C 0.55786 0.20782 0.10466
 C410 C 0.43365 0.25321 0.10285
 C411 C 0.97106 0.72145 0.67782
 H412 H 0.96388 0.73753 0.67660
 C413 C 0.96116 0.70524 0.69072
 H414 H 0.94649 0.70914 0.69958
 C415 C 0.99814 0.69647 0.66668
 H416 H 1.01210 0.69278 0.65676
 C417 C 0.98888 0.67986 0.67942
 H418 H 0.99611 0.66369 0.67928
 N419 N 0.98906 0.71673 0.66594
 C420 C 1.02365 0.77903 0.64727
 H421 H 1.02485 0.77364 0.62960
 C422 C 1.03275 0.80052 0.65598
 H423 H 1.04103 0.81147 0.64481
 C424 C 1.01075 0.77124 0.68288
 H425 H 1.00201 0.75978 0.69320
 C426 C 1.01955 0.79276 0.69232
 H427 H 1.01750 0.79765 0.70995
 Zn428 Zn 0.99918 0.73747 0.64546
 N429 N 1.01259 0.76503 0.66059
 C430 C 0.96746 0.76539 0.62769
 N431 N 0.97340 0.74372 0.62687
 C432 C 0.95994 0.72657 0.61494
 C433 C 0.93955 0.73096 0.60329
 C434 C 0.94732 0.77050 0.61642
 C435 C 1.04188 0.72359 0.64026
 C436 C 1.05987 0.71510 0.62954
 C437 C 1.03599 0.70982 0.59438
 C438 C 1.01840 0.71861 0.60582
 N439 N 1.02162 0.72504 0.62843
 H440 H 0.97796 0.77876 0.63765
 H441 H 0.96477 0.70939 0.61497
 H442 H 0.92891 0.71708 0.59413
 H443 H 0.94298 0.78788 0.61761
 H444 H 1.04402 0.72906 0.65817
 H445 H 1.07576 0.71402 0.63947
 H446 H 1.03313 0.70463 0.57643
 H447 H 1.00226 0.72025 0.59665
 C448 C 1.03046 0.80784 0.67869
 C449 C 0.96984 0.68394 0.69131
 C450 C 1.05708 0.70796 0.60630
 C451 C 0.93290 0.75319 0.60419
 C452 C 0.49472 0.73823 0.37135
 H453 H 0.50371 0.75490 0.37358
 C454 C 0.50223 0.72139 0.35675
 H455 H 0.51703 0.72535 0.34777
 C456 C 0.46485 0.71289 0.38096
 H457 H 0.45052 0.70954 0.39072
 C458 C 0.47182 0.69550 0.36657
 H459 H 0.46259 0.67894 0.36531
 N460 N 0.47627 0.73379 0.38299
 C461 C 0.45111 0.79950 0.39940
 H462 H 0.45066 0.79933 0.41757
 C463 C 0.44384 0.81795 0.38851
 H464 H 0.43787 0.83188 0.39863
 C465 C 0.45927 0.78123 0.36443
 H466 H 0.46498 0.76676 0.35504
 C467 C 0.45216 0.79930 0.35282
 H468 H 0.45277 0.79839 0.33458
 Zn469 Zn 0.46843 0.75741 0.40339
 N470 N 0.45891 0.78178 0.38734
 C471 C 0.50368 0.78875 0.42456
 N472 N 0.49476 0.76685 0.42293
 C473 C 0.50573 0.75070 0.43328
 C474 C 0.52685 0.75622 0.44534
 C475 C 0.52462 0.79504 0.43661
 C476 C 0.42373 0.74179 0.40784
 C477 C 0.40493 0.73425 0.41875
 C478 C 0.42834 0.73846 0.45421
 C479 C 0.44673 0.74594 0.44258
 N480 N 0.44415 0.74719 0.41977
 H481 H 0.49503 0.80127 0.41585
 H482 H 0.49843 0.73334 0.43143
 H483 H 0.53559 0.74298 0.45288
 H484 H 0.53161 0.81246 0.43712
 H485 H 0.42213 0.74325 0.38974
 H486 H 0.38891 0.72983 0.40883
 H487 H 0.43080 0.73736 0.47234
 H488 H 0.46302 0.75069 0.45180
 C489 C 0.44436 0.81813 0.36483
 C490 C 0.49081 0.69962 0.35429
 C491 C 0.40710 0.73236 0.44225
 C492 C 0.53675 0.77859 0.44677
 C493 C 0.36595 -0.02331 0.27015
 C494 C 0.35346 -0.02931 0.24664
 C495 C 0.34223 -0.01215 0.23841
 C496 C 0.34434 0.00953 0.25471
 C497 C 0.38129 -0.00185 0.26759
 C498 C 0.37006 0.01536 0.25945
 C499 C 0.34774 -0.01546 0.28503
 C500 C 0.33648 0.00180 0.27721
 H501 H 0.35440 -0.04532 0.23687
 H502 H 0.33502 0.02347 0.24819
 H503 H 0.39952 -0.00077 0.27121
 H504 H 0.34486 -0.02234 0.30104
 C505 C 0.08749 1.04961 0.75191
 C506 C 0.09774 1.05621 0.73029
 C507 C 0.11197 1.04136 0.72195
 C508 C 0.11455 1.02093 0.73611
 C509 C 0.07598 1.02563 0.74573
 C510 C 0.09017 1.01056 0.73751
 C511 C 0.10782 1.04635 0.76843
 C512 C 0.12190 1.03120 0.76039
 H513 H 0.09399 1.07146 0.72238
 H514 H 0.12618 1.00880 0.72936
 H515 H 0.05841 1.02090 0.74813
 H516 H 0.10976 1.05408 0.78569
 C517 C 0.58676 0.54955 0.25139
 C518 C 0.59692 0.55627 0.22978
 C519 C 0.61119 0.54151 0.22134
 C520 C 0.61390 0.52105 0.23543
 C521 C 0.57532 0.52554 0.24516
 C522 C 0.58955 0.51056 0.23686
 C523 C 0.60713 0.54632 0.26785
 C524 C 0.62126 0.53125 0.25973
 H525 H 0.59309 0.57153 0.22193
 H526 H 0.62556 0.50899 0.22861
 H527 H 0.55777 0.52074 0.24760
 H528 H 0.60907 0.55398 0.28514
 C529 C 0.86503 0.47673 0.77128
 C530 C 0.85268 0.47075 0.74770
 C531 C 0.84145 0.48789 0.73945
 C532 C 0.84340 0.50953 0.75580
 C533 C 0.88035 0.49824 0.76885
 C534 C 0.86911 0.51544 0.76068
 C535 C 0.84671 0.48447 0.78607
 C536 C 0.83545 0.50172 0.77823
 H537 H 0.85374 0.45478 0.73790
 H538 H 0.83407 0.52346 0.74925
 H539 H 0.89856 0.49937 0.77258
 H540 H 0.84378 0.47755 0.80205
 C541 C 0.27027 0.36519 -0.02280
 C542 C 0.24673 0.35275 -0.02877
 C543 C 0.23850 0.34155 -0.01157
 C544 C 0.25481 0.34362 0.01011
 C545 C 0.26775 0.38054 -0.00130
 C546 C 0.25960 0.36933 0.01595
 C547 C 0.28509 0.34697 -0.01497
 C548 C 0.27727 0.33574 0.00232
 H549 H 0.23695 0.35374 -0.04477
 H550 H 0.24827 0.33432 0.02408
 H551 H 0.27139 0.39875 -0.00023
 H552 H 0.30109 0.34409 -0.02188
 C553 C 0.75157 0.08687 1.04897
 C554 C 0.73000 0.09714 1.05562
 C555 C 0.72169 0.11137 1.04076
 C556 C 0.73585 0.11393 1.02028
 C557 C 0.74536 0.07536 1.02497
 C558 C 0.73719 0.08955 1.00989
 C559 C 0.76813 0.10714 1.04568
 C560 C 0.76013 0.12123 1.03052
 H561 H 0.72209 0.09342 1.07090
 H562 H 0.72913 0.12555 1.00814
 H563 H 0.74773 0.05780 1.02024
 H564 H 0.78540 0.10903 1.05336
 C565 C 0.25112 0.58776 0.55008
 C566 C 0.22958 0.59802 0.55683
 C567 C 0.22121 0.61227 0.54203
 C568 C 0.23529 0.61487 0.52151
 C569 C 0.24483 0.57630 0.52607
 C570 C 0.23660 0.59051 0.51106
 C571 C 0.26766 0.60805 0.54678
 C572 C 0.25960 0.62216 0.53167
 H573 H 0.22172 0.59425 0.57213
 H574 H 0.22853 0.62652 0.50942
 H575 H 0.24718 0.55874 0.52129
 H576 H 0.28494 0.60995 0.55442
 C577 C 0.77120 0.86499 0.47622
 C578 C 0.74763 0.85283 0.47023
 C579 C 0.73917 0.84177 0.48740
 C580 C 0.75535 0.84377 0.50917
 C581 C 0.76876 0.88054 0.49769
 C582 C 0.76038 0.86946 0.51494
 C583 C 0.78584 0.84673 0.48428
 C584 C 0.77779 0.83564 0.50157
 H585 H 0.73808 0.85392 0.45411
 H586 H 0.74863 0.83458 0.52313
 H587 H 0.77258 0.89872 0.49885
 H588 H 0.80196 0.84384 0.47765
 C589 C -0.02286 0.27038 0.36565
 C590 C -0.02891 0.24688 0.35319
 C591 C -0.01176 0.23863 0.34190
 C592 C 0.00994 0.25489 0.34393
 C593 C -0.00136 0.26784 0.38094
 C594 C 0.01583 0.25966 0.36965
 C595 C -0.01505 0.28519 0.34739
 C596 C 0.00220 0.27736 0.33608
 H597 H -0.04492 0.23714 0.35420
 H598 H 0.02387 0.24835 0.33455
 H599 H -0.00025 0.27148 0.39918
 H600 H -0.02194 0.30118 0.34452
 C601 C 1.04894 0.74998 0.08454
 C602 C 1.05589 0.72872 0.09532
 C603 C 1.04129 0.72075 0.11000
 C604 C 1.02083 0.73488 0.11254
 C605 C 1.02486 0.74344 0.07356
 C606 C 1.01007 0.73562 0.08820
 C607 C 1.04598 0.76694 0.10464
 C608 C 1.03109 0.75928 0.11918
 H609 H 1.07107 0.72064 0.09162
 H610 H 1.00892 0.72845 0.12454
 H611 H 1.01995 0.74540 0.05592
 H612 H 1.05380 0.78414 0.10619
 C613 C 0.54995 0.25072 0.58733
 C614 C 0.55662 0.22916 0.59756
 C615 C 0.54180 0.22080 0.61183
 C616 C 0.52132 0.23490 0.61446
 C617 C 0.52595 0.24449 0.57586
 C618 C 0.51091 0.23627 0.59008
 C619 C 0.54668 0.26722 0.60768
 C620 C 0.53154 0.25918 0.62180
 H621 H 0.57190 0.22130 0.59378
 H622 H 0.50921 0.22815 0.62612
 H623 H 0.52119 0.24690 0.55829
 H624 H 0.55434 0.28449 0.60959
 C625 C 0.47661 0.77054 0.86494
 C626 C 0.47061 0.74704 0.85246
 C627 C 0.48781 0.73878 0.84128
 C628 C 0.50953 0.75502 0.84342
 C629 C 0.49802 0.76798 0.88035
 C630 C 0.51528 0.75979 0.86917
 C631 C 0.48455 0.78535 0.84672
 C632 C 0.50187 0.77750 0.83553
 H633 H 0.45459 0.73729 0.85342
 H634 H 0.52351 0.74846 0.83414
 H635 H 0.49903 0.77161 0.89858
 H636 H 0.47770 0.80134 0.84381
 N637 N 0.43057 -0.14594 0.31984
 C638 C 0.42297 -0.12800 0.33158
 N639 N 0.42253 -0.12794 0.35437
 N640 N 0.42952 -0.14531 0.36511
 C641 C 0.43716 -0.16344 0.35348
 N642 N 0.43756 -0.16332 0.33060
 C643 C 0.41483 -0.10956 0.32000
 C644 C 0.40755 -0.09413 0.31050
 C645 C 0.39827 -0.07587 0.29953
 N646 N 0.39979 -0.05479 0.31033
 N647 N 0.38999 -0.03811 0.30072
 C648 C 0.37832 -0.04193 0.27999
 N649 N 0.37699 -0.06306 0.26918
 N650 N 0.38679 -0.07974 0.27879
 N651 N 0.92171 0.37203 0.85538
 C652 C 0.92226 0.37209 0.83261
 N653 N 0.93007 0.35427 0.82085
 N654 N 0.93714 0.33690 0.83156
 C655 C 0.93660 0.33671 0.85440
 N656 N 0.92877 0.35466 0.86609
 C657 C 0.91404 0.39051 0.82108
 C658 C 0.90670 0.40593 0.81161
 C659 C 0.89737 0.42418 0.80067
 N660 N 0.88599 0.42033 0.77987
 N661 N 0.87618 0.43701 0.77027
 C662 C 0.87740 0.45811 0.78114
 N663 N 0.88896 0.46190 0.80192
 N664 N 0.89877 0.44522 0.81152
 N665 N -0.00184 1.14296 0.82634
 C666 C 0.01655 1.14748 0.81475
 N667 N 0.02634 1.16896 0.81607
 N668 N 0.01805 1.18541 0.82863
 C669 C -0.00031 1.18101 0.84039
 N670 N -0.01015 1.15944 0.83891
 C671 C 0.02647 1.12967 0.80229
 C672 C 0.03583 1.11518 0.79225
 C673 C 0.04822 1.09858 0.78087
 N674 N 0.06990 1.10411 0.77645
 N675 N 0.08203 1.08862 0.76693
 C676 C 0.07292 1.06703 0.76147
 N677 N 0.05112 1.06155 0.76582
 N678 N 0.03897 1.07707 0.77538
 N679 N 0.49753 0.64310 0.32593
 C680 C 0.51580 0.64748 0.31412
 N681 N 0.52559 0.66893 0.31515
 N682 N 0.51742 0.68552 0.32764
 C683 C 0.49919 0.68127 0.33962
 N684 N 0.48934 0.65972 0.33842
 C685 C 0.52564 0.62954 0.30178
 C686 C 0.53498 0.61499 0.29180
 C687 C 0.54741 0.59839 0.28048
 N688 N 0.56907 0.60396 0.27604
 N689 N 0.58122 0.58851 0.26650
 C690 C 0.57216 0.56690 0.26104
 N691 N 0.55037 0.56137 0.26542
 N692 N 0.53820 0.57686 0.27500
 N693 N 0.54138 0.36083 0.21506
 C694 C 0.55216 0.37486 0.20162
 N695 N 0.55643 0.36676 0.18056
 N696 N 0.55001 0.34536 0.17308
 C697 C 0.53910 0.33120 0.18637
 N698 N 0.53497 0.33937 0.20756
 C699 C 0.55849 0.39819 0.20918
 C700 C 0.56388 0.41793 0.21479
 C701 C 0.57044 0.44152 0.22080
 N702 N 0.55512 0.45562 0.22806
 N703 N 0.56114 0.47762 0.23311
 C704 C 0.58266 0.48629 0.23099
 N705 N 0.59792 0.47209 0.22369
 N706 N 0.59191 0.45010 0.21864
 N707 N 0.05613 0.86676 0.68160
 C708 C 0.05207 0.87492 0.70270
 N709 N 0.04134 0.86098 0.71625
 N710 N 0.03476 0.83954 0.70882
 C711 C 0.03868 0.83130 0.68758
 N712 N 0.04956 0.84536 0.67419
 C713 C 0.05854 0.89824 0.71017
 C714 C 0.06405 0.91797 0.71570
 C715 C 0.07072 0.94156 0.72162
 N716 N 0.09223 0.95002 0.71945
 N717 N 0.09835 0.97199 0.72444
 C718 C 0.08317 0.98630 0.73169
 N719 N 0.06161 0.97775 0.73383
 N720 N 0.05548 0.95576 0.72883
 N721 N 0.95612 0.62811 0.71261
 C722 C 0.93629 0.63103 0.72184
 N723 N 0.92771 0.65151 0.72170
 N724 N 0.93860 0.66850 0.71245
 C725 C 0.95844 0.66561 0.70300
 N726 N 0.96699 0.64508 0.70338
 C727 C 0.92406 0.61226 0.73057
 C728 C 0.91402 0.59598 0.73724
 C729 C 0.90237 0.57606 0.74446
 N730 N 0.87955 0.57220 0.74052
 N731 N 0.86893 0.55306 0.74603
 C732 C 0.88076 0.53709 0.75560
 N733 N 0.90361 0.54109 0.75962
 N734 N 0.91423 0.56022 0.75412
 N735 N 0.42861 0.15122 0.22003
 C736 C 0.43723 0.13077 0.22019
 N737 N 0.45706 0.12788 0.21092
 N738 N 0.46787 0.14485 0.20165
 C739 C 0.45928 0.16537 0.20127
 N740 N 0.43945 0.16822 0.21076
 C741 C 0.42506 0.11200 0.22897
 C742 C 0.41504 0.09574 0.23569
 C743 C 0.40339 0.07585 0.24297
 N744 N 0.41525 0.05999 0.25259
 N745 N 0.40461 0.04090 0.25817
 C746 C 0.38174 0.03696 0.25427
 N747 N 0.36992 0.05296 0.24473
 N748 N 0.38056 0.07206 0.23914
 N749 N 0.35450 0.42203 -0.12759
 C750 C 0.33171 0.42241 -0.12760
 N751 N 0.31997 0.43010 -0.14549
 N752 N 0.33070 0.43720 -0.16286
 C753 C 0.35356 0.43683 -0.16299
 N754 N 0.36522 0.42913 -0.14496
 C755 C 0.32015 0.41416 -0.10917
 C756 C 0.31065 0.40681 -0.09374
 C757 C 0.29969 0.39749 -0.07546
 N758 N 0.27892 0.38605 -0.07931
 N759 N 0.26930 0.37626 -0.06260
 C760 C 0.28012 0.37755 -0.04146
 N761 N 0.30087 0.38916 -0.03767
 N762 N 0.31049 0.39896 -0.05438
 N763 N 0.85445 0.92094 0.37031
 C764 C 0.83166 0.92126 0.37028
 N765 N 0.81993 0.92912 0.35247
 N766 N 0.83069 0.93644 0.33520
 C767 C 0.85355 0.93613 0.33509
 N768 N 0.86520 0.92826 0.35304
 C769 C 0.82008 0.91273 0.38857
 C770 C 0.81059 0.90510 0.40387
 C771 C 0.79964 0.89537 0.42195
 N772 N 0.79722 0.90805 0.44149
 N773 N 0.78787 0.89866 0.45859
 C774 C 0.78063 0.87627 0.45672
 N775 N 0.78303 0.86370 0.43707
 N776 N 0.79236 0.87308 0.41999
 N777 N 0.81650 0.02655 1.16828
 C778 C 0.81471 0.01638 1.14692
 N779 N 0.82591 -0.00227 1.14250
 N780 N 0.83857 -0.01046 1.15898
 C781 C 0.84058 -0.00025 1.18047
 N782 N 0.82915 0.01837 1.18473
 C783 C 0.80214 0.02615 1.12909
 C784 C 0.79200 0.03540 1.11459
 C785 C 0.78054 0.04771 1.09799
 N786 N 0.77512 0.03846 1.07645
 N787 N 0.76554 0.05056 1.06091
 C788 C 0.76110 0.07232 1.06641
 N789 N 0.76648 0.08141 1.08804
 N790 N 0.77602 0.06933 1.10354
 N791 N 0.31523 0.52634 0.66921
 C792 C 0.31398 0.51664 0.64768
 N793 N 0.32568 0.49836 0.64308
 N794 N 0.33827 0.49008 0.65955
 C795 C 0.33968 0.49983 0.68117
 N796 N 0.32781 0.51808 0.68564
 C797 C 0.30152 0.52656 0.62989
 C798 C 0.29147 0.53594 0.61543
 C799 C 0.28010 0.54837 0.59889
 N800 N 0.27453 0.53917 0.57735
 N801 N 0.26497 0.55136 0.56188
 C802 C 0.26070 0.57316 0.56744
 N803 N 0.26624 0.58221 0.58906
 N804 N 0.27576 0.57004 0.60450
 N805 N 0.18030 0.55689 0.36715
 C806 C 0.20135 0.55271 0.37530
 N807 N 0.21482 0.54191 0.36131
 N808 N 0.20737 0.53539 0.33985
 C809 C 0.18618 0.53943 0.33162
 N810 N 0.17286 0.55037 0.34573
 C811 C 0.20885 0.55913 0.39864
 C812 C 0.21443 0.56459 0.41839
 C813 C 0.22043 0.57121 0.44199
 N814 N 0.22761 0.55593 0.45616
 N815 N 0.23269 0.56201 0.47816
 C816 C 0.23068 0.58356 0.48678
 N817 N 0.22347 0.59879 0.47251
 N818 N 0.21839 0.59271 0.45051
 N819 N 0.71585 0.04162 0.85987
 C820 C 0.70202 0.05137 0.87420
 N821 N 0.68057 0.05450 0.86643
 N822 N 0.67309 0.04797 0.84503
 C823 C 0.68674 0.03803 0.83051
 N824 N 0.70835 0.03508 0.83841
 C825 C 0.70963 0.05787 0.89751
 C826 C 0.71525 0.06340 0.91724
 C827 C 0.72126 0.07009 0.94082
 N828 N 0.71920 0.09162 0.94928
 N829 N 0.72421 0.09774 0.97127
 C830 C 0.73137 0.08255 0.98560
 N831 N 0.73339 0.06098 0.97706
 N832 N 0.72838 0.05485 0.95505
 N833 N 0.72165 0.92847 0.65106
 C834 C 0.72171 0.93706 0.63056
 N835 N 0.71239 0.95683 0.62769
 N836 N 0.70315 0.96762 0.64472
 C837 C 0.70286 0.95905 0.66528
 N838 N 0.71240 0.93928 0.66812
 C839 C 0.73040 0.92487 0.61172
 C840 C 0.73704 0.91481 0.59542
 C841 C 0.74420 0.90307 0.57549
 N842 N 0.75387 0.91482 0.55954
 N843 N 0.75934 0.90410 0.54043
 C844 C 0.75529 0.88125 0.53655
 N845 N 0.74571 0.86954 0.55263
 N846 N 0.74022 0.88026 0.57175
 N847 N 0.22012 0.42821 0.15191
 C848 C 0.22038 0.43672 0.13139
 N849 N 0.21121 0.45655 0.12838
 N850 N 0.20194 0.46747 0.14531
 C851 C 0.20146 0.45898 0.16590
 N852 N 0.21084 0.43915 0.16886
 C853 C 0.22915 0.42444 0.11266
 C854 C 0.23588 0.41436 0.09641
 C855 C 0.24317 0.40268 0.07652
 N856 N 0.23928 0.37986 0.07273
 N857 N 0.24485 0.36921 0.05360
 C858 C 0.25444 0.38101 0.03758
 N859 N 0.25841 0.40385 0.04152
 N860 N 0.25285 0.41450 0.06064
 N861 N -0.14535 0.32030 0.43072
 C862 C -0.12745 0.33201 0.42297
 N863 N -0.12745 0.35476 0.42245
 N864 N -0.14483 0.36549 0.42949
 C865 C -0.16287 0.35385 0.43725
 N866 N -0.16273 0.33103 0.43775
 C867 C -0.10903 0.32043 0.41476
 C868 C -0.09362 0.31091 0.40742
 C869 C -0.07538 0.29990 0.39808
 N870 N -0.05427 0.31063 0.39957
 N871 N -0.03760 0.30098 0.38974
 C872 C -0.04147 0.28026 0.37808
 N873 N -0.06264 0.26952 0.37676
 N874 N -0.07931 0.27917 0.38659
 N875 N 0.35383 0.82026 0.92973
 C876 C 0.37175 0.83197 0.92201
 N877 N 0.37178 0.85473 0.92154
 N878 N 0.35441 0.86547 0.92860
 C879 C 0.33636 0.85384 0.93634
 N880 N 0.33646 0.83101 0.93679
 C881 C 0.39017 0.82040 0.91380
 C882 C 0.40561 0.81091 0.90647
 C883 C 0.42390 0.79995 0.89716
 N884 N 0.44499 0.81074 0.89868
 N885 N 0.46171 0.80114 0.88890
 C886 C 0.45793 0.78041 0.87726
 N887 N 0.43678 0.76960 0.87592
 N888 N 0.42006 0.77921 0.88570
 N889 N 1.16696 0.81591 0.02424
 C890 C 1.14569 0.81451 0.01390
 N891 N 1.14161 0.82614 -0.00454
 N892 N 1.15833 0.83882 -0.01236
 C893 C 1.17969 0.84037 -0.00199
 N894 N 1.18364 0.82858 0.01643
 C895 C 1.12761 0.80180 0.02317
 C896 C 1.11279 0.79146 0.03185
 C897 C 1.09568 0.77965 0.04330
 N898 N 1.07564 0.78853 0.04606
 N899 N 1.06059 0.77867 0.05851
 C900 C 1.06509 0.75962 0.06868
 N901 N 1.08512 0.75067 0.06565
 N902 N 1.10015 0.76052 0.05320
 N903 N 0.66913 0.31531 0.52630
 C904 C 0.64766 0.31400 0.51648
 N905 N 0.64314 0.32570 0.49819
 N906 N 0.65963 0.33838 0.49000
 C907 C 0.68119 0.33986 0.49988
 N908 N 0.68559 0.32798 0.51814
 C909 C 0.62985 0.30145 0.52631
 C910 C 0.61537 0.29132 0.53563
 C911 C 0.59882 0.27986 0.54801
 N912 N 0.57729 0.27435 0.53879
 N913 N 0.56180 0.26472 0.55095
 C914 C 0.56734 0.26031 0.57273
 N915 N 0.58895 0.26580 0.58180
 N916 N 0.60440 0.27539 0.56966
 N917 N 0.36696 0.18033 0.55659
 C918 C 0.37513 0.20135 0.55237
 N919 N 0.36118 0.21481 0.54157
 N920 N 0.33971 0.20736 0.53506
 C921 C 0.33147 0.18620 0.53912
 N922 N 0.34555 0.17290 0.55009
 C923 C 0.39848 0.20884 0.55876
 C924 C 0.41823 0.21438 0.56419
 C925 C 0.44184 0.22033 0.57080
 N926 N 0.45033 0.21825 0.59232
 N927 N 0.47233 0.22325 0.59838
 C928 C 0.48662 0.23043 0.58313
 N929 N 0.47804 0.23247 0.56156
 N930 N 0.45603 0.22746 0.55549
 N931 N 0.86000 0.71431 0.04166
 C932 C 0.87390 0.70087 0.05258
 N933 N 0.86560 0.67998 0.05707
 N934 N 0.84413 0.67266 0.05073
 C935 C 0.83011 0.68594 0.03967
 N936 N 0.83848 0.70697 0.03532
 C937 C 0.89731 0.70822 0.05872
 C938 C 0.91713 0.71368 0.06389
 C939 C 0.94081 0.71957 0.07010
 N940 N 0.94959 0.71796 0.09162
 N941 N 0.97165 0.72297 0.09731
 C942 C 0.98572 0.72969 0.08168
 N943 N 0.97685 0.73125 0.06012
 N944 N 0.95478 0.72624 0.05441
 N945 N 0.62723 0.71117 0.95669
 C946 C 0.63030 0.72030 0.93682
 N947 N 0.65082 0.71996 0.92829
 N948 N 0.66770 0.71064 0.93925
 C949 C 0.66467 0.70129 0.95911
 N950 N 0.64409 0.70185 0.96762
 C951 C 0.61164 0.72910 0.92452
 C952 C 0.59544 0.73584 0.91441
 C953 C 0.57561 0.74316 0.90268
 N954 N 0.55975 0.75288 0.91449
 N955 N 0.54071 0.75851 0.90379
 C956 C 0.53683 0.75455 0.88091
 N957 N 0.55283 0.74491 0.86913
 N958 N 0.57188 0.73927 0.87983
 N959 N 0.12826 0.21099 0.45649
 C960 C 0.13124 0.22023 0.43667
 N961 N 0.15175 0.22006 0.42811
 N962 N 0.16871 0.21079 0.43899
 C963 C 0.16577 0.20132 0.45881
 N964 N 0.14520 0.20172 0.46735
 C965 C 0.11250 0.22902 0.42446
 C966 C 0.09625 0.23575 0.41444
 C967 C 0.07635 0.24306 0.40283
 N968 N 0.07251 0.23922 0.37999
 N969 N 0.05341 0.24484 0.36940
 C970 C 0.03745 0.25445 0.38128
 N971 N 0.04144 0.25837 0.40415
 N972 N 0.06053 0.25275 0.41474
 N973 N 0.56338 0.08996 0.67932
 C974 C 0.57500 0.11055 0.67944
 N975 N 0.59651 0.11367 0.68918
 N976 N 0.60615 0.09676 0.69849
 C977 C 0.59471 0.07604 0.69837
 N978 N 0.57304 0.07302 0.68869
 C979 C 0.56557 0.12855 0.66806
 C980 C 0.55928 0.14417 0.65811
 C981 C 0.55383 0.16314 0.64577
 N982 N 0.56778 0.17027 0.63029
 N983 N 0.56373 0.18846 0.61941
 C984 C 0.54561 0.20026 0.62360
 N985 N 0.53156 0.19303 0.63908
 N986 N 0.53563 0.17479 0.65003
 N987 N 1.09587 0.61431 0.18872
 C988 C 1.07439 0.61125 0.17893
 N989 N 1.06265 0.59073 0.17890
 N990 N 1.07220 0.57378 0.18840
 C991 C 1.09385 0.57675 0.19812
 N992 N 1.10540 0.59741 0.19815
 C993 C 1.06507 0.62922 0.16740
 C994 C 1.05886 0.64478 0.15733
 C995 C 1.05346 0.66365 0.14480
 N996 N 1.03530 0.67539 0.14897
 N997 N 1.03121 0.69348 0.13778
 C998 C 1.04521 0.70045 0.12215
 N999 N 1.06330 0.68856 0.11806
 N1000 N 1.06736 0.67053 0.12918
 N1001 N 0.95306 0.85056 0.20513
 C1002 C 0.97555 0.85297 0.20246
 N1003 N 0.98736 0.87316 0.20897
 N1004 N 0.97700 0.89043 0.21787
 C1005 C 0.95441 0.88817 0.22048
 N1006 N 0.94270 0.86782 0.21403
 C1007 C 0.98630 0.83502 0.19114
 C1008 C 0.99522 0.82046 0.18068
 C1009 C 1.00570 0.80396 0.16700
 N1010 N 1.02439 0.81034 0.15659
 N1011 N 1.03292 0.79582 0.14199
 C1012 C 1.02308 0.77440 0.13724
 N1013 N 1.00452 0.76795 0.14795
 N1014 N 0.99594 0.78250 0.16256
 N1015 N 0.48683 0.37222 0.71143
 C1016 C 0.47491 0.35208 0.70491
 N1017 N 0.45239 0.34983 0.70743
 N1018 N 0.44209 0.36721 0.71620
 C1019 C 0.45391 0.38750 0.72267
 N1020 N 0.47653 0.38959 0.72020
 C1021 C 0.48564 0.33404 0.69370
 C1022 C 0.49462 0.31949 0.68331
 C1023 C 0.50531 0.30310 0.66970
 N1024 N 0.49532 0.28183 0.66447
 N1025 N 0.50415 0.26747 0.64986
 C1026 C 0.52321 0.27395 0.63994
 N1027 N 0.53328 0.29517 0.64549
 N1028 N 0.52450 0.30948 0.66010
 N1029 N 0.47110 0.59528 0.77229
 C1030 C 0.47302 0.60422 0.79414
 N1031 N 0.46753 0.59079 0.81065
 N1032 N 0.46014 0.56914 0.80548
 C1033 C 0.45791 0.56010 0.78360
 N1034 N 0.46374 0.57358 0.76712
 C1035 C 0.47827 0.62808 0.79967
 C1036 C 0.48124 0.64811 0.80517
 C1037 C 0.48301 0.67174 0.81281
 N1038 N 0.50313 0.68448 0.81443
 N1039 N 0.50464 0.70604 0.82299
 C1040 C 0.48609 0.71551 0.83026
 N1041 N 0.46599 0.70268 0.82840
 N1042 N 0.46448 0.68121 0.81985
 N1043 N -0.02891 0.09553 0.27196
 C1044 C -0.02704 0.10427 0.29388
 N1045 N -0.03262 0.09067 0.31023
 N1046 N -0.04003 0.06906 0.30485
 C1047 C -0.04220 0.06021 0.28291
 N1048 N -0.03630 0.07386 0.26658
 C1049 C -0.02170 0.12809 0.29964
 C1050 C -0.01865 0.14808 0.30533
 C1051 C -0.01679 0.17167 0.31316
 N1052 N 0.00335 0.18439 0.31471
 N1053 N 0.00493 0.20592 0.32337
 C1054 C -0.01356 0.21538 0.33081
 N1055 N -0.03367 0.20257 0.32903
 N1056 N -0.03525 0.18113 0.32038
 N1057 N 0.06822 0.37862 0.24828
 C1058 C 0.07133 0.37203 0.26959
 N1059 N 0.08470 0.38556 0.28545
 N1060 N 0.09472 0.40504 0.28022
 C1061 C 0.09168 0.41184 0.25895
 N1062 N 0.07831 0.39815 0.24302
 C1063 C 0.05927 0.35205 0.27614
 C1064 C 0.04888 0.33631 0.28336
 C1065 C 0.03602 0.31920 0.29387
 N1066 N 0.04579 0.30097 0.30137
 N1067 N 0.03468 0.28696 0.31403
 C1068 C 0.01354 0.29088 0.31976
 N1069 N 0.00376 0.30896 0.31190
 N1070 N 0.01480 0.32287 0.29923
 N1071 N 0.58580 0.88478 0.78479
 C1072 C 0.57201 0.87156 0.76903
 N1073 N 0.56872 0.87834 0.74781
 N1074 N 0.57906 0.89776 0.74255
 C1075 C 0.59285 0.91114 0.75839
 N1076 N 0.59606 0.90415 0.77956
 C1077 C 0.55969 0.85174 0.77563
 C1078 C 0.54913 0.83613 0.78288
 C1079 C 0.53612 0.81916 0.79342
 N1080 N 0.51496 0.82306 0.79884
 N1081 N 0.50379 0.80922 0.81149
 C1082 C 0.51336 0.79099 0.81928
 N1083 N 0.53444 0.78686 0.81350
 N1084 N 0.54569 0.80078 0.80086
 N1085 N 0.68575 0.59736 0.11303
 C1086 C 0.67800 0.57522 0.11060
 N1087 N 0.67987 0.56298 0.09067
 N1088 N 0.68921 0.57268 0.07370
 C1089 C 0.69692 0.59502 0.07595
 N1090 N 0.69503 0.60703 0.09611
 C1091 C 0.66682 0.56556 0.12864
 C1092 C 0.65700 0.55915 0.14431
 C1093 C 0.64477 0.55363 0.16338
 N1094 N 0.64919 0.53550 0.17505
 N1095 N 0.63836 0.53140 0.19339
 C1096 C 0.62285 0.54535 0.20070
 N1097 N 0.61849 0.56340 0.18887
 N1098 N 0.62925 0.56747 0.17058
 N1099 N 0.17939 1.06237 0.59070
 C1100 C 0.17943 1.07408 0.61127
 N1101 N 0.18909 1.09561 0.61428
 N1102 N 0.19838 1.10520 0.59730
 C1103 C 0.19833 1.09367 0.57661
 N1104 N 0.18874 1.07198 0.57368
 C1105 C 0.16808 1.06469 0.62934
 C1106 C 0.15817 1.05847 0.64503
 C1107 C 0.14585 1.05312 0.66408
 N1108 N 0.13043 1.06710 0.67121
 N1109 N 0.11957 1.06315 0.68947
 C1110 C 0.12374 1.04508 0.70135
 N1111 N 0.13916 1.03099 0.69412
 N1112 N 0.15009 1.03497 0.67580
 N1113 N 0.21163 0.98673 0.87340
 C1114 C 0.20529 0.97492 0.85316
 N1115 N 0.20801 0.95248 0.85077
 N1116 N 0.21676 0.94214 0.86812
 C1117 C 0.22303 0.95379 0.88861
 N1118 N 0.22039 0.97639 0.89075
 C1119 C 0.19406 0.98566 0.83515
 C1120 C 0.18364 0.99461 0.82061
 C1121 C 0.16998 1.00524 0.80424
 N1122 N 0.16473 0.99523 0.78295
 N1123 N 0.15006 1.00397 0.76862
 C1124 C 0.14008 1.02296 0.77514
 N1125 N 0.14565 1.03306 0.79637
 N1126 N 0.16032 1.02436 0.81066
 N1127 N 0.71147 0.48698 0.37249
 C1128 C 0.70494 0.47507 0.35233
 N1129 N 0.70751 0.45257 0.35006
 N1130 N 0.71634 0.44231 0.36743
 C1131 C 0.72280 0.45413 0.38775
 N1132 N 0.72029 0.47672 0.38986
 C1133 C 0.69364 0.48574 0.33432
 C1134 C 0.68318 0.49467 0.31979
 C1135 C 0.66946 0.50529 0.30344
 N1136 N 0.66417 0.49529 0.28216
 N1137 N 0.64946 0.50403 0.26787
 C1138 C 0.63948 0.52301 0.27443
 N1139 N 0.64509 0.53310 0.29566
 N1140 N 0.65980 0.52440 0.30991
 N1141 N 0.81081 0.46780 0.59120
 C1142 C 0.79434 0.47324 0.60471
 N1143 N 0.77248 0.47128 0.59582
 N1144 N 0.76729 0.46393 0.57410
 C1145 C 0.78374 0.45815 0.56054
 N1146 N 0.80562 0.46042 0.56953
 C1147 C 0.79990 0.47845 0.62861
 C1148 C 0.80544 0.48138 0.64866
 C1149 C 0.81310 0.48312 0.67230
 N1150 N 0.81456 0.50319 0.68514
 N1151 N 0.82309 0.50467 0.70672
 C1152 C 0.83049 0.48617 0.71614
 N1153 N 0.82880 0.46613 0.70322
 N1154 N 0.82027 0.46464 0.68172
 N1155 N 0.31063 -0.03240 0.09031
 C1156 C 0.29424 -0.02697 0.10393
 N1157 N 0.27234 -0.02893 0.09516
 N1158 N 0.26703 -0.03626 0.07344
 C1159 C 0.28340 -0.04202 0.05978
 N1160 N 0.30532 -0.03976 0.06865
 C1161 C 0.29995 -0.02174 0.12779
 C1162 C 0.30562 -0.01878 0.14781
 C1163 C 0.31346 -0.01700 0.17142
 N1164 N 0.31500 0.00308 0.18423
 N1165 N 0.32367 0.00460 0.20577
 C1166 C 0.33114 -0.01389 0.21515
 N1167 N 0.32936 -0.03395 0.20226
 N1168 N 0.32069 -0.03547 0.18080
 N1169 N 0.28556 0.08456 0.38523
 C1170 C 0.26978 0.07102 0.37178
 N1171 N 0.24848 0.06782 0.37840
 N1172 N 0.24316 0.07801 0.39789
 C1173 C 0.25902 0.09156 0.41150
 N1174 N 0.28027 0.09468 0.40467
 C1175 C 0.27639 0.05889 0.35184
 C1176 C 0.28365 0.04846 0.33613
 C1177 C 0.29421 0.03560 0.31905
 N1178 N 0.30164 0.04529 0.30071
 N1179 N 0.31433 0.03419 0.28672
 C1180 C 0.32017 0.01313 0.29075
 N1181 N 0.31238 0.00343 0.30894
 N1182 N 0.29967 0.01446 0.32284
 N1183 N 0.78427 0.58408 0.88633
 C1184 C 0.76848 0.57066 0.87278
 N1185 N 0.74713 0.56756 0.87931
 N1186 N 0.74178 0.57772 0.89880
 C1187 C 0.75766 0.59115 0.91251
 N1188 N 0.77895 0.59417 0.90577
 C1189 C 0.77512 0.55856 0.85282
 C1190 C 0.78242 0.54818 0.83711
 C1191 C 0.79303 0.53538 0.82002
 N1192 N 0.80056 0.54515 0.80177
 N1193 N 0.81329 0.53410 0.78779
 C1194 C 0.81908 0.51300 0.79174
 N1195 N 0.81119 0.50322 0.80984
 N1196 N 0.79844 0.51420 0.82373
 N1197 N 0.09012 0.67950 0.56359
 C1198 C 0.11067 0.67954 0.57529
 N1199 N 0.11369 0.68917 0.59686
 N1200 N 0.09673 0.69844 0.60649
 C1201 C 0.07605 0.69839 0.59497
 N1202 N 0.07312 0.68882 0.57325
 C1203 C 0.12873 0.66823 0.56585
 C1204 C 0.14440 0.65834 0.55956
 C1205 C 0.16343 0.64606 0.55411
 N1206 N 0.17060 0.63064 0.56806
 N1207 N 0.18883 0.61982 0.56401
 C1208 C 0.20064 0.62401 0.54587
 N1209 N 0.19337 0.63943 0.53181
 N1210 N 0.17508 0.65032 0.53589
 N1211 N 0.59078 0.17904 1.06204
 C1212 C 0.61136 0.17915 1.07370
 N1213 N 0.61445 0.18897 1.09519
 N1214 N 0.59752 0.19833 1.10480
 C1215 C 0.57681 0.19820 1.09332
 N1216 N 0.57382 0.18846 1.07167
 C1217 C 0.62937 0.16770 1.06432
 C1218 C 0.64499 0.15771 1.05807
 C1219 C 0.66397 0.14533 1.05266
 N1220 N 0.67104 0.12989 1.06663
 N1221 N 0.68925 0.11900 1.06263
 C1222 C 0.70113 0.12316 1.04453
 N1223 N 0.69395 0.13860 1.03045
 N1224 N 0.67569 0.14955 1.03447
 N1225 N 0.85089 0.20732 0.95190
 C1226 C 0.85311 0.20468 0.97440
 N1227 N 0.87323 0.21115 0.98634
 N1228 N 0.89064 0.21996 0.97610
 C1229 C 0.88868 0.22253 0.95345
 N1230 N 0.86830 0.21613 0.94166
 C1231 C 0.83504 0.19341 0.98505
 C1232 C 0.82047 0.18297 0.99396
 C1233 C 0.80407 0.16928 1.00457
 N1234 N 0.81046 0.15958 1.02368
 N1235 N 0.79615 0.14491 1.03237
 C1236 C 0.77492 0.13938 1.02226
 N1237 N 0.76844 0.14939 1.00328
 N1238 N 0.78280 0.16406 0.99454
 N1239 N 0.34986 0.70831 0.45262
 C1240 C 0.35221 0.70571 0.47513
 N1241 N 0.37239 0.71223 0.48697
 N1242 N 0.38971 0.72106 0.47662
 C1243 C 0.38753 0.72359 0.45401
 N1244 N 0.36718 0.71714 0.44227
 C1245 C 0.33424 0.69440 0.48588
 C1246 C 0.31974 0.68391 0.49486
 C1247 C 0.30341 0.67020 0.50552
 N1248 N 0.30991 0.66046 0.52458
 N1249 N 0.29564 0.64580 0.53334
 C1250 C 0.27436 0.64031 0.52335
 N1251 N 0.26779 0.65035 0.50441
 N1252 N 0.28209 0.66502 0.49561
 N1253 N 0.59088 0.81155 0.46661
 C1254 C 0.60434 0.79512 0.47221
 N1255 N 0.59541 0.77330 0.47043
 N1256 N 0.57370 0.76809 0.46309
 C1257 C 0.56019 0.78449 0.45715
 N1258 N 0.56922 0.80634 0.45925
 C1259 C 0.62821 0.80068 0.47748
 C1260 C 0.64825 0.80618 0.48049
 C1261 C 0.67191 0.81378 0.48234
 N1262 N 0.68461 0.81520 0.50248
 N1263 N 0.70623 0.82362 0.50407
 C1264 C 0.71580 0.83095 0.48559
 N1265 N 0.70301 0.82930 0.46547
 N1266 N 0.68148 0.82088 0.46388
 N1267 N 0.09506 0.27228 -0.02819
 C1268 C 0.10392 0.29413 -0.02618
 N1269 N 0.09039 0.31058 -0.03159
 N1270 N 0.06874 0.30535 -0.03896
 C1271 C 0.05978 0.28348 -0.04127
 N1272 N 0.07335 0.26705 -0.03555
 C1273 C 0.12778 0.29974 -0.02094
 C1274 C 0.14781 0.30533 -0.01799
 C1275 C 0.17143 0.31305 -0.01625
 N1276 N 0.18085 0.32018 -0.03479
 N1277 N 0.20232 0.32876 -0.03332
 C1278 C 0.21521 0.33054 -0.01325
 N1279 N 0.20580 0.32319 0.00530
 N1280 N 0.18424 0.31461 0.00384
 N1281 N 0.38537 0.28505 0.08495
 C1282 C 0.37189 0.26925 0.07144
 N1283 N 0.37853 0.24799 0.06820
 N1284 N 0.39806 0.24272 0.07830
 C1285 C 0.41170 0.25859 0.09180
 N1286 N 0.40485 0.27980 0.09497
 C1287 C 0.35192 0.27583 0.05938
 C1288 C 0.33619 0.28305 0.04899
 C1289 C 0.31909 0.29357 0.03615
 N1290 N 0.30086 0.30111 0.04594
 N1291 N 0.28686 0.31376 0.03484
 C1292 C 0.29079 0.31945 0.01367
 N1293 N 0.30887 0.31155 0.00387
 N1294 N 0.32277 0.29888 0.01490
 N1295 N 0.88472 0.78499 0.58591
 C1296 C 0.87145 0.76924 0.57214
 N1297 N 0.87818 0.74802 0.56888
 N1298 N 0.89760 0.74273 0.57919
 C1299 C 0.91103 0.75856 0.59295
 N1300 N 0.90409 0.77973 0.59615
 C1301 C 0.85164 0.77585 0.55982
 C1302 C 0.83606 0.78309 0.54922
 C1303 C 0.81913 0.79359 0.53613
 N1304 N 0.80084 0.80128 0.54569
 N1305 N 0.78699 0.81390 0.53436
 C1306 C 0.79114 0.81940 0.51318
 N1307 N 0.80928 0.81135 0.50362
 N1308 N 0.82303 0.79871 0.51488
   
