data_POSCAR
  _audit_creation_date              2014-09-24
  _audit_creation_method            'ToBaCCo'
  _symmetry_space_group_name_H-M    'P1'
  _symmetry_Int_Tables_number       1
  _symmetry_cell_setting            triclinic
  loop_
  _symmetry_equiv_pos_as_xyz
 x,y,z
_cell_length_a 45.7350
_cell_length_b 43.5446
_cell_length_c 43.6577
_cell_angle_alpha 89.946900
_cell_angle_beta 89.804200
_cell_angle_gamma 90.046600
loop_
  _atom_site_label
  _atom_site_type_symbol
  _atom_site_fract_x
  _atom_site_fract_y
  _atom_site_fract_z
C1 C 0.31185 0.31112 -0.01150
 C2 C 0.31285 0.31295 0.01967
 C3 C 0.29419 0.33506 0.03678
 C4 C 0.33365 0.29417 0.03781
 C5 C 0.33383 0.29348 -0.02948
 C6 C 0.28992 0.32865 -0.02943
 C7 C 0.29487 0.36656 0.02972
 C8 C 0.27613 0.38697 0.04470
 C9 C 0.25661 0.37625 0.06715
 C10 C 0.25675 0.34499 0.07509
 C11 C 0.27540 0.32453 0.05999
 C12 C 0.35294 0.30866 0.05815
 C13 C 0.37462 0.29174 0.07298
 C14 C 0.37726 0.26010 0.06771
 C15 C 0.35712 0.24528 0.04859
 C16 C 0.33536 0.26219 0.03382
 C17 C 0.32455 0.27298 -0.05213
 C18 C 0.34488 0.25754 -0.07039
 C19 C 0.37525 0.26252 -0.06690
 C20 C 0.38430 0.28249 -0.04317
 C21 C 0.36388 0.29822 -0.02526
 C22 C 0.25985 0.32628 -0.02298
 C23 C 0.23982 0.34497 -0.03834
 C24 C 0.24966 0.36590 -0.06051
 C25 C 0.27946 0.36726 -0.06795
 C26 C 0.29945 0.34875 -0.05254
 H27 H 0.30968 0.37524 0.01235
 H28 H 0.27664 0.41109 0.03862
 H29 H 0.24226 0.33646 0.09284
 H30 H 0.27482 0.30040 0.06598
 H31 H 0.35191 0.33325 0.06166
 H32 H 0.38985 0.30342 0.08793
 H33 H 0.32033 0.25050 0.01866
 H34 H 0.30144 0.26873 -0.05554
 H35 H 0.33666 0.24075 -0.08649
 H36 H 0.40720 0.28765 -0.03958
 H37 H 0.37158 0.31456 -0.00843
 H38 H 0.25203 0.31050 -0.00560
 H39 H 0.21681 0.34359 -0.03256
 H40 H 0.28728 0.38328 -0.08512
 H41 H 0.32250 0.35084 -0.05794
 H42 H 0.35864 0.22077 0.04470
 C43 C 0.68862 0.68828 -0.01710
 C44 C 0.68908 0.68998 0.01405
 C45 C 0.70985 0.67137 0.03238
 C46 C 0.66753 0.70860 0.03130
 C47 C 0.66865 0.70746 -0.03587
 C48 C 0.70780 0.66648 -0.03376
 C49 C 0.69899 0.65012 0.05376
 C50 C 0.71794 0.62988 0.06854
 C51 C 0.74800 0.63066 0.06218
 C52 C 0.75913 0.65298 0.04208
 C53 C 0.74017 0.67330 0.02733
 C54 C 0.63746 0.70268 0.02875
 C55 C 0.61734 0.71988 0.04567
 C56 C 0.62702 0.74309 0.06549
 C57 C 0.65708 0.74934 0.06760
 C58 C 0.67722 0.73190 0.05095
 C59 C 0.66773 0.73952 -0.03233
 C60 C 0.64820 0.75713 -0.04952
 C61 C 0.62973 0.74301 -0.07090
 C62 C 0.63094 0.71107 -0.07479
 C63 C 0.65037 0.69345 -0.05753
 C64 C 0.72893 0.67765 -0.05428
 C65 C 0.74840 0.65745 -0.06850
 C66 C 0.74681 0.62583 -0.06251
 C67 C 0.72507 0.61451 -0.04279
 C68 C 0.70567 0.63472 -0.02848
 H69 H 0.67571 0.64836 0.05804
 H70 H 0.70908 0.61292 0.08419
 H71 H 0.78236 0.65407 0.03724
 H72 H 0.74899 0.68989 0.01128
 H73 H 0.62966 0.68457 0.01387
 H74 H 0.59423 0.71488 0.04360
 H75 H 0.70035 0.73675 0.05312
 H76 H 0.68204 0.75087 -0.01619
 H77 H 0.64750 0.78177 -0.04624
 H78 H 0.61663 0.69981 -0.09102
 H79 H 0.65076 0.66878 -0.06065
 H80 H 0.73074 0.70206 -0.05870
 H81 H 0.76482 0.66643 -0.08405
 H82 H 0.72339 0.59012 -0.03824
 H83 H 0.68923 0.62571 -0.01297
 H84 H 0.66491 0.76753 0.08237
 C85 C 0.69048 0.31487 1.01016
 C86 C 0.68900 0.31425 0.97895
 C87 C 0.70956 0.33266 0.95997
 C88 C 0.66578 0.29711 0.96239
 C89 C 0.67139 0.29533 1.02973
 C90 C 0.71055 0.33639 1.02609
 C91 C 0.69857 0.35484 0.93973
 C92 C 0.71759 0.37478 0.92447
 C93 C 0.74782 0.37273 0.92923
 C94 C 0.75900 0.34954 0.94816
 C95 C 0.73997 0.32950 0.96333
 C96 C 0.63612 0.30122 0.96982
 C97 C 0.61449 0.28534 0.95380
 C98 C 0.62208 0.26582 0.92947
 C99 C 0.65168 0.26179 0.92194
 C100 C 0.67335 0.27745 0.93817
 C101 C 0.66925 0.26349 1.02483
 C102 C 0.65010 0.24570 1.04250
 C103 C 0.63327 0.25938 1.06567
 C104 C 0.63573 0.29105 1.07091
 C105 C 0.65477 0.30885 1.05320
 C106 C 0.73248 0.32506 1.04534
 C107 C 0.75236 0.34515 1.05910
 C108 C 0.75071 0.37710 1.05392
 C109 C 0.72775 0.38831 1.03555
 C110 C 0.70804 0.36818 1.02169
 H111 H 0.67521 0.35754 0.93675
 H112 H 0.70872 0.39250 0.90977
 H113 H 0.78233 0.34756 0.95179
 H114 H 0.74886 0.31216 0.97847
 H115 H 0.62970 0.31681 0.98794
 H116 H 0.59178 0.28846 0.96017
 H117 H 0.69607 0.27413 0.93193
 H118 H 0.68219 0.25252 1.00715
 H119 H 0.64845 0.22127 1.03820
 H120 H 0.62272 0.30198 1.08858
 H121 H 0.65604 0.33333 1.05735
 H122 H 0.73440 0.30061 1.04942
 H123 H 0.76856 0.33569 1.07447
 H124 H 0.72555 0.41265 1.03100
 H125 H 0.69096 0.37738 1.00722
 H126 H 0.65795 0.24670 0.90334
 C127 C 0.31787 0.67899 1.01346
 C128 C 0.31734 0.67804 0.98225
 C129 C 0.29851 0.65633 0.96520
 C130 C 0.33672 0.69802 0.96355
 C131 C 0.33932 0.69862 1.02983
 C132 C 0.29735 0.66074 1.03275
 C133 C 0.30046 0.62452 0.97013
 C134 C 0.28321 0.60431 0.95308
 C135 C 0.26407 0.61567 0.93073
 C136 C 0.26179 0.64749 0.92621
 C137 C 0.27914 0.66764 0.94307
 C138 C 0.35733 0.68464 0.94379
 C139 C 0.37778 0.70296 0.92853
 C140 C 0.37771 0.73488 0.93271
 C141 C 0.35626 0.74846 0.95126
 C142 C 0.33581 0.73013 0.96657
 C143 C 0.32950 0.72075 1.05073
 C144 C 0.34933 0.74059 1.06482
 C145 C 0.37944 0.73905 1.05787
 C146 C 0.38922 0.71569 1.03799
 C147 C 0.36941 0.69564 1.02428
 C148 C 0.26712 0.66074 1.02718
 C149 C 0.24822 0.64353 1.04565
 C150 C 0.25895 0.62704 1.07103
 C151 C 0.28929 0.62715 1.07645
 C152 C 0.30820 0.64386 1.05761
 H153 H 0.31554 0.61538 0.98688
 H154 H 0.28510 0.57982 0.95695
 H155 H 0.24681 0.65664 0.90935
 H156 H 0.27737 0.69211 0.93901
 H157 H 0.35826 0.65993 0.94111
 H158 H 0.39409 0.69225 0.91402
 H159 H 0.31979 0.74084 0.98143
 H160 H 0.30637 0.72316 1.05557
 H161 H 0.34090 0.75802 1.08016
 H162 H 0.41233 0.71246 1.03352
 H163 H 0.37751 0.67794 1.00906
 H164 H 0.25808 0.67424 1.00866
 H165 H 0.22502 0.64411 1.04078
 H166 H 0.29854 0.61362 1.09486
 H167 H 0.33144 0.64335 1.06226
 H168 H 0.35586 0.77311 0.95448
 C169 C -0.01832 0.30917 0.31151
 C170 C 0.01154 0.30951 0.31192
 C171 C 0.02865 0.28999 0.33318
 C172 C 0.02888 0.33039 0.29183
 C173 C -0.03478 0.33173 0.29268
 C174 C -0.03589 0.28704 0.33013
 C175 C 0.02508 0.29248 0.36505
 C176 C 0.04237 0.27492 0.38478
 C177 C 0.06358 0.25485 0.37290
 C178 C 0.06663 0.25189 0.34104
 C179 C 0.04959 0.26964 0.32135
 C180 C 0.05002 0.34973 0.30489
 C181 C 0.06637 0.36963 0.28652
 C182 C 0.06191 0.37047 0.25479
 C183 C 0.04090 0.35119 0.24156
 C184 C 0.02472 0.33099 0.25992
 C185 C -0.05439 0.32150 0.27030
 C186 C -0.06815 0.34250 0.25086
 C187 C -0.06227 0.37423 0.25316
 C188 C -0.04402 0.38435 0.27710
 C189 C -0.03044 0.36336 0.29658
 C190 C -0.02885 0.25563 0.33129
 C191 C -0.04495 0.23553 0.34980
 C192 C -0.06961 0.24596 0.36613
 C193 C -0.07696 0.27731 0.36437
 C194 C -0.06028 0.29755 0.34667
 H195 H 0.00921 0.30830 0.37456
 H196 H 0.03957 0.27734 0.40930
 H197 H 0.08252 0.23613 0.33146
 H198 H 0.05261 0.26745 0.29683
 H199 H 0.05365 0.34961 0.32939
 H200 H 0.08254 0.38442 0.29700
 H201 H 0.00896 0.31585 0.24928
 H202 H -0.05831 0.29716 0.26723
 H203 H -0.08228 0.33369 0.23305
 H204 H -0.04047 0.40862 0.28103
 H205 H -0.01617 0.37176 0.31447
 H206 H -0.01087 0.24658 0.31791
 H207 H -0.03874 0.21153 0.35043
 H208 H -0.09513 0.28639 0.37752
 H209 H -0.06620 0.32163 0.34628
 H210 H 0.03735 0.35152 0.21705
 C211 C -0.00744 0.69123 0.68581
 C212 C 0.02232 0.69088 0.68687
 C213 C 0.03967 0.71328 0.66877
 C214 C 0.03885 0.66736 0.70417
 C215 C -0.02592 0.67122 0.70564
 C216 C -0.02266 0.71143 0.66358
 C217 C 0.05752 0.70294 0.64474
 C218 C 0.07072 0.72401 0.62491
 C219 C 0.06635 0.75564 0.62901
 C220 C 0.05003 0.76602 0.65422
 C221 C 0.03664 0.74494 0.67392
 C222 C 0.03372 0.63590 0.69941
 C223 C 0.05002 0.61394 0.71525
 C224 C 0.07193 0.62313 0.73570
 C225 C 0.07689 0.65455 0.74063
 C226 C 0.06067 0.67649 0.72474
 C227 C -0.02070 0.66865 0.73722
 C228 C -0.03787 0.64924 0.75539
 C229 C -0.06147 0.63275 0.74273
 C230 C -0.06656 0.63558 0.71098
 C231 C -0.04916 0.65469 0.69280
 C232 C -0.04025 0.73558 0.67394
 C233 C -0.05291 0.75587 0.65302
 C234 C -0.04830 0.75236 0.62122
 C235 C -0.03148 0.72720 0.61107
 C236 C -0.01866 0.70712 0.63203
 H237 H 0.06010 0.67858 0.64053
 H238 H 0.08351 0.71565 0.60573
 H239 H 0.04688 0.79038 0.65798
 H240 H 0.02317 0.75325 0.69260
 H241 H 0.01729 0.62840 0.68324
 H242 H 0.04586 0.58978 0.71128
 H243 H 0.06498 0.70064 0.72864
 H244 H -0.00312 0.68143 0.74780
 H245 H -0.03208 0.64655 0.77928
 H246 H -0.08454 0.62361 0.70019
 H247 H -0.05371 0.65633 0.66852
 H248 H -0.04382 0.73896 0.69824
 H249 H -0.06702 0.77384 0.66174
 H250 H -0.02738 0.72357 0.58690
 H251 H -0.00529 0.68838 0.62368
 H252 H 0.09348 0.66201 0.75664
 C253 C 1.01218 0.69497 0.31220
 C254 C 0.98241 0.69492 0.31007
 C255 C 0.96392 0.71632 0.32824
 C256 C 0.96656 0.67256 0.29061
 C257 C 1.03076 0.67372 0.29387
 C258 C 1.02767 0.71614 0.33341
 C259 C 0.94227 0.70433 0.34773
 C260 C 0.92585 0.72378 0.36645
 C261 C 0.93060 0.75559 0.36578
 C262 C 0.95185 0.76776 0.34593
 C263 C 0.96816 0.74829 0.32698
 C264 C 0.96873 0.64083 0.29595
 C265 C 0.95277 0.62015 0.27808
 C266 C 0.93431 0.63092 0.25479
 C267 C 0.93269 0.66261 0.24907
 C268 C 0.94837 0.68328 0.26713
 C269 C 1.02766 0.67121 0.26197
 C270 C 1.04524 0.65094 0.24527
 C271 C 1.06725 0.63373 0.25989
 C272 C 1.07008 0.63626 0.29191
 C273 C 1.05216 0.65610 0.30862
 C274 C 1.04898 0.73631 0.32195
 C275 C 1.06248 0.75758 0.34127
 C276 C 1.05463 0.75949 0.37249
 C277 C 1.03438 0.73793 0.38410
 C278 C 1.02115 0.71648 0.36482
 H279 H 0.93865 0.67978 0.34907
 H280 H 0.90975 0.71399 0.38188
 H281 H 0.95584 0.79227 0.34522
 H282 H 0.98446 0.75806 0.31177
 H283 H 0.98249 0.63219 0.31416
 H284 H 0.95446 0.59577 0.28268
 H285 H 0.94648 0.70767 0.26270
 H286 H 1.01177 0.68508 0.24993
 H287 H 1.04240 0.64970 0.22068
 H288 H 1.08581 0.62236 0.30418
 H289 H 1.05479 0.65745 0.33323
 H290 H 1.05461 0.73611 0.29783
 H291 H 1.07814 0.77346 0.33140
 H292 H 1.02912 0.73724 0.40830
 H293 H 1.00557 0.70032 0.37435
 H294 H 0.91898 0.67132 0.23085
 C295 C 1.01353 0.30285 0.68826
 C296 C 0.98376 0.30381 0.68822
 C297 C 0.96610 0.28325 0.66839
 C298 C 0.96751 0.32676 0.70665
 C299 C 1.03096 0.32262 0.70899
 C300 C 1.02992 0.28330 0.66633
 C301 C 0.94541 0.29597 0.64836
 C302 C 0.92981 0.27717 0.62835
 C303 C 0.93457 0.24537 0.62817
 C304 C 0.95488 0.23248 0.64841
 C305 C 0.97031 0.25126 0.66866
 C306 C 0.97111 0.35832 0.70113
 C307 C 0.95521 0.37979 0.71814
 C308 C 0.93543 0.37001 0.74080
 C309 C 0.93246 0.33845 0.74680
 C310 C 0.94802 0.31697 0.72950
 C311 C 1.02591 0.32261 0.74078
 C312 C 1.04084 0.34318 0.75966
 C313 C 1.06119 0.36369 0.74700
 C314 C 1.06718 0.36281 0.71552
 C315 C 1.05217 0.34240 0.69662
 C316 C 1.04975 0.26136 0.67713
 C317 C 1.06398 0.24167 0.65669
 C318 C 1.05845 0.24335 0.62494
 C319 C 1.03964 0.26665 0.61427
 C320 C 1.02556 0.28634 0.63471
 H321 H 0.94181 0.32054 0.64777
 H322 H 0.91414 0.28738 0.61283
 H323 H 0.95862 0.20793 0.64860
 H324 H 0.98579 0.24093 0.68428
 H325 H 0.98599 0.36622 0.68346
 H326 H 0.95802 0.40403 0.71336
 H327 H 0.94513 0.29271 0.73411
 H328 H 1.01006 0.30707 0.75083
 H329 H 1.03626 0.34345 0.78402
 H330 H 1.08299 0.37845 0.70552
 H331 H 1.05646 0.34266 0.67221
 H332 H 1.05362 0.25895 0.70148
 H333 H 1.07842 0.22431 0.66592
 H334 H 1.03629 0.27017 0.58997
 H335 H 1.01107 0.30389 0.62589
 H336 H 0.91778 0.33047 0.76464
 C337 C 0.30997 -0.01424 0.30233
 C338 C 0.31215 0.01689 0.30249
 C339 C 0.33444 0.03364 0.28444
 C340 C 0.29485 0.03545 0.32430
 C341 C 0.28916 -0.02971 0.32337
 C342 C 0.32879 -0.03396 0.28266
 C343 C 0.36417 0.03112 0.29185
 C344 C 0.38501 0.04861 0.27609
 C345 C 0.37636 0.06889 0.25279
 C346 C 0.34670 0.07053 0.24473
 C347 C 0.32584 0.05339 0.26076
 C348 C 0.30421 0.03806 0.35470
 C349 C 0.28759 0.05440 0.37593
 C350 C 0.26205 0.06973 0.36677
 C351 C 0.25271 0.06713 0.33624
 C352 C 0.26897 0.04996 0.31514
 C353 C 0.26073 -0.03665 0.31362
 C354 C 0.24033 -0.04882 0.33429
 C355 C 0.24815 -0.05381 0.36494
 C356 C 0.27676 -0.04744 0.37449
 C357 C 0.29716 -0.03557 0.35381
 C358 C 0.33205 -0.02818 0.25118
 C359 C 0.35103 -0.04599 0.23339
 C360 C 0.36643 -0.07083 0.24637
 C361 C 0.36253 -0.07676 0.27790
 C362 C 0.34392 -0.05870 0.29568
 H363 H 0.37110 0.01604 0.31019
 H364 H 0.40782 0.04678 0.28243
 H365 H 0.33968 0.08550 0.22635
 H366 H 0.30301 0.05546 0.25465
 H367 H 0.32419 0.02698 0.36206
 H368 H 0.29476 0.05529 0.39953
 H369 H 0.26135 0.04789 0.29178
 H370 H 0.25426 -0.03208 0.29022
 H371 H 0.21834 -0.05381 0.32661
 H372 H 0.28313 -0.05142 0.39803
 H373 H 0.31904 -0.03032 0.36165
 H374 H 0.32025 -0.00957 0.24040
 H375 H 0.35440 -0.03951 0.20969
 H376 H 0.37356 -0.09581 0.28887
 H377 H 0.34179 -0.06384 0.31984
 H378 H 0.23288 0.07843 0.32877
 C379 C 0.68993 -0.01442 0.69575
 C380 C 0.68999 0.01699 0.69556
 C381 C 0.66766 0.03542 0.71208
 C382 C 0.71139 0.03429 0.67659
 C383 C 0.70958 -0.03163 0.67476
 C384 C 0.66896 -0.03289 0.71454
 C385 C 0.63767 0.03016 0.70754
 C386 C 0.61695 0.04595 0.72502
 C387 C 0.62593 0.06771 0.74669
 C388 C 0.65575 0.07419 0.75014
 C389 C 0.67652 0.05814 0.73290
 C390 C 0.70126 0.05335 0.65300
 C391 C 0.72092 0.06636 0.63221
 C392 C 0.75097 0.06056 0.63477
 C393 C 0.76133 0.04293 0.65936
 C394 C 0.74163 0.02990 0.68021
 C395 C 0.73121 -0.05107 0.68660
 C396 C 0.75068 -0.06598 0.66684
 C397 C 0.74860 -0.06171 0.63505
 C398 C 0.72638 -0.04305 0.62318
 C399 C 0.70698 -0.02814 0.64289
 C400 C 0.66225 -0.02507 0.74502
 C401 C 0.63958 -0.03999 0.76060
 C402 C 0.62420 -0.06419 0.74664
 C403 C 0.63310 -0.07413 0.71743
 C404 C 0.65479 -0.05827 0.70134
 H405 H 0.63038 0.01324 0.69107
 H406 H 0.59394 0.04094 0.72199
 H407 H 0.66291 0.09110 0.76669
 H408 H 0.69953 0.06276 0.73643
 H409 H 0.67803 0.05701 0.64988
 H410 H 0.71265 0.08018 0.61351
 H411 H 0.74984 0.01555 0.69853
 H412 H 0.73333 -0.05417 0.71111
 H413 H 0.76747 -0.08071 0.67628
 H414 H 0.72432 -0.03981 0.59868
 H415 H 0.69010 -0.01358 0.63338
 H416 H 0.67389 -0.00676 0.75649
 H417 H 0.63421 -0.03283 0.78370
 H418 H 0.62202 -0.09302 0.70623
 H419 H 0.65978 -0.06527 0.67811
 H420 H 0.78452 0.03864 0.66187
 C421 C 0.31038 1.01464 0.69206
 C422 C 0.30959 0.98328 0.69251
 C423 C 0.33080 0.96510 0.71072
 C424 C 0.28895 0.96602 0.67265
 C425 C 0.29264 1.03210 0.66966
 C426 C 0.33042 1.03263 0.71197
 C427 C 0.36102 0.97002 0.70743
 C428 C 0.38075 0.95468 0.72633
 C429 C 0.37061 0.93377 0.74839
 C430 C 0.34059 0.92757 0.75065
 C431 C 0.32077 0.94318 0.73190
 C432 C 0.29988 0.94518 0.65097
 C433 C 0.28129 0.93228 0.62915
 C434 C 0.25156 0.94028 0.62847
 C435 C 0.24024 0.95953 0.65137
 C436 C 0.25877 0.97213 0.67345
 C437 C 0.26964 1.05083 0.67975
 C438 C 0.25103 1.06475 0.65852
 C439 C 0.25540 1.06031 0.62696
 C440 C 0.27945 1.04292 0.61696
 C441 C 0.29780 1.02872 0.63814
 C442 C 0.33191 1.02723 0.74371
 C443 C 0.35280 1.04234 0.76154
 C444 C 0.37202 1.06348 0.74797
 C445 C 0.36977 1.06989 0.71663
 C446 C 0.34914 1.05459 0.69875
 H447 H 0.36925 0.98625 0.69068
 H448 H 0.40392 0.95934 0.72403
 H449 H 0.33251 0.91122 0.76737
 H450 H 0.29757 0.93882 0.73449
 H451 H 0.32302 0.93996 0.65010
 H452 H 0.29027 0.91686 0.61209
 H453 H 0.24979 0.98761 0.69043
 H454 H 0.26552 1.05375 0.70401
 H455 H 0.23288 1.07849 0.66668
 H456 H 0.28370 1.03993 0.59272
 H457 H 0.31572 1.01462 0.63003
 H458 H 0.31735 1.01084 0.75451
 H459 H 0.35420 1.03737 0.78580
 H460 H 0.38443 1.08629 0.70593
 H461 H 0.34838 1.05920 0.67438
 H462 H 0.21727 0.96555 0.65154
 C463 C 0.68552 1.00939 0.31149
 C464 C 0.68338 0.97825 0.31425
 C465 C 0.66312 0.96017 0.29481
 C466 C 0.70000 0.96122 0.33800
 C467 C 0.70736 1.02724 0.32929
 C468 C 0.66433 1.02726 0.29294
 C469 C 0.64266 0.94039 0.30856
 C470 C 0.62171 0.92550 0.29076
 C471 C 0.62096 0.93019 0.25901
 C472 C 0.64219 0.94879 0.24501
 C473 C 0.66325 0.96357 0.26279
 C474 C 0.69827 0.96995 0.36894
 C475 C 0.71535 0.95519 0.39088
 C476 C 0.73366 0.93076 0.38244
 C477 C 0.73487 0.92152 0.35167
 C478 C 0.71802 0.93655 0.32961
 C479 C 0.73697 1.01869 0.32966
 C480 C 0.75629 1.03254 0.35015
 C481 C 0.74646 1.05546 0.37044
 C482 C 0.71747 1.06602 0.36771
 C483 C 0.69808 1.05183 0.34760
 C484 C 0.67446 1.04843 0.27111
 C485 C 0.65467 1.06636 0.25463
 C486 C 0.62452 1.06362 0.26008
 C487 C 0.61431 1.04220 0.28157
 C488 C 0.63409 1.02434 0.29811
 H489 H 0.64228 0.93735 0.33319
 H490 H 0.60555 0.91099 0.30179
 H491 H 0.64205 0.95226 0.22045
 H492 H 0.67921 0.97826 0.25170
 H493 H 0.68412 0.98860 0.37596
 H494 H 0.71442 0.96288 0.41445
 H495 H 0.71952 0.92942 0.30590
 H496 H 0.74484 1.00050 0.31488
 H497 H 0.77890 1.02512 0.35036
 H498 H 0.70919 1.08394 0.38260
 H499 H 0.67543 1.05908 0.34743
 H500 H 0.69768 1.05112 0.26696
 H501 H 0.66282 1.08277 0.23800
 H502 H 0.59110 1.03989 0.28604
 H503 H 0.62585 1.00859 0.31531
 H504 H 0.74899 0.90279 0.34475
 O505 O 0.88034 0.85022 0.46910
 O506 O 0.84365 0.88818 0.53415
 O507 O 0.88781 0.84990 0.52851
 O508 O 0.83617 0.88746 0.47557
 O509 O 0.80607 0.84812 0.48064
 O510 O 0.85777 0.81044 0.53250
 O511 O 0.81425 0.84840 0.53916
 O512 O 0.84983 0.81112 0.47339
 Cu513 Cu 0.86518 0.87282 0.50147
 Cu514 Cu 0.82910 0.82549 0.50693
 C515 C 0.87087 0.82446 0.45976
 C516 C 0.82249 0.87493 0.54765
 C517 C 0.88148 0.82374 0.53963
 C518 C 0.81200 0.87436 0.46961
 O519 O 0.12332 0.15512 0.46453
 O520 O 0.16142 0.11256 0.52550
 O521 O 0.11824 0.15183 0.52399
 O522 O 0.16696 0.11617 0.46678
 O523 O 0.19662 0.15580 0.47023
 O524 O 0.15013 0.18936 0.53009
 O525 O 0.19360 0.15008 0.52912
 O526 O 0.15346 0.19414 0.47101
 Cu527 Cu 0.13923 0.13013 0.49470
 Cu528 Cu 0.17651 0.17622 0.50076
 C529 C 0.13192 0.18195 0.45737
 C530 C 0.18473 0.12350 0.53682
 C531 C 0.12583 0.17684 0.53662
 C532 C 0.19047 0.12976 0.45900
 O533 O 0.11109 0.86036 0.52880
 O534 O 0.15052 0.90162 0.46747
 O535 O 0.10874 0.86046 0.46890
 O536 O 0.15421 0.89933 0.52704
 O537 O 0.18619 0.86137 0.52429
 O538 O 0.14098 0.82294 0.46635
 O539 O 0.18266 0.86397 0.46505
 O540 O 0.14281 0.82250 0.52560
 Cu541 Cu 0.12790 0.88422 0.49824
 Cu542 Cu 0.16636 0.83895 0.49501
 C543 C 0.11992 0.83414 0.53744
 C544 C 0.17367 0.89012 0.45624
 C545 C 0.11688 0.83473 0.45809
 C546 C 0.17797 0.88683 0.53544
 O547 O 0.88427 0.14971 0.52673
 O548 O 0.84381 0.10520 0.46876
 O549 O 0.88222 0.14899 0.46626
 O550 O 0.84529 0.10626 0.52858
 O551 O 0.81002 0.14072 0.52880
 O552 O 0.84714 0.18362 0.46764
 O553 O 0.80860 0.13964 0.46992
 O554 O 0.84874 0.18396 0.52752
 Cu555 Cu 0.86759 0.12420 0.49750
 Cu556 Cu 0.82527 0.16560 0.49845
 C557 C 0.87288 0.17395 0.53769
 C558 C 0.81898 0.11454 0.45981
 C559 C 0.87048 0.17325 0.45577
 C560 C 0.82106 0.11603 0.53905
 O561 O 0.46959 0.87862 0.84406
 O562 O 0.53081 0.83666 0.87890
 O563 O 0.52641 0.88039 0.83872
 O564 O 0.47411 0.83323 0.88278
 O565 O 0.47145 0.80081 0.84394
 O566 O 0.52610 0.84596 0.80162
 O567 O 0.52865 0.80228 0.84189
 O568 O 0.46977 0.84660 0.80518
 Cu569 Cu 0.50028 0.86058 0.86493
 Cu570 Cu 0.49874 0.82041 0.81947
 C571 C 0.45977 0.87054 0.81818
 C572 C 0.54033 0.81240 0.86626
 C573 C 0.53519 0.87116 0.81264
 C574 C 0.46379 0.80908 0.87062
 O575 O 0.53541 0.16703 0.12260
 O576 O 0.47616 0.12643 0.16331
 O577 O 0.47851 0.16829 0.12077
 O578 O 0.53341 0.12681 0.16661
 O579 O 0.53098 0.16270 0.20191
 O580 O 0.47786 0.20516 0.15541
 O581 O 0.47459 0.16339 0.19778
 O582 O 0.53480 0.20319 0.15799
 Cu583 Cu 0.50598 0.14340 0.13988
 Cu584 Cu 0.50446 0.18731 0.18171
 C585 C 0.54549 0.19183 0.13360
 C586 C 0.46489 0.13823 0.18718
 C587 C 0.46903 0.19402 0.13023
 C588 C 0.54181 0.13780 0.19211
 O589 O 0.52720 0.12403 0.84215
 O590 O 0.46803 0.16748 0.87943
 O591 O 0.47019 0.12154 0.84081
 O592 O 0.52459 0.17009 0.88002
 O593 O 0.52496 0.20147 0.84030
 O594 O 0.46837 0.15498 0.80276
 O595 O 0.46823 0.20045 0.84096
 O596 O 0.52504 0.15477 0.80233
 Cu597 Cu 0.49756 0.14246 0.86447
 Cu598 Cu 0.49674 0.18117 0.81768
 C599 C 0.53579 0.13132 0.81549
 C600 C 0.45821 0.19154 0.86664
 C601 C 0.45996 0.13013 0.81516
 C602 C 0.53379 0.19431 0.86690
 O603 O 0.47308 0.83618 0.11389
 O604 O 0.52463 0.87995 0.16131
 O605 O 0.52972 0.83814 0.11905
 O606 O 0.46783 0.87777 0.15614
 O607 O 0.46668 0.84187 0.19195
 O608 O 0.52739 0.80178 0.15422
 O609 O 0.52316 0.84350 0.19645
 O610 O 0.47086 0.80022 0.14950
 Cu611 Cu 0.49901 0.86169 0.13404
 Cu612 Cu 0.49682 0.81819 0.17658
 C613 C 0.46333 0.81063 0.12352
 C614 C 0.53260 0.86927 0.18703
 C615 C 0.53920 0.81322 0.13047
 C616 C 0.45675 0.86646 0.18037
 O617 O 0.84460 0.47195 0.87880
 O618 O 0.88552 0.53229 0.83765
 O619 O 0.84551 0.53092 0.88083
 O620 O 0.88441 0.47167 0.83617
 O621 O 0.84962 0.47320 0.80136
 O622 O 0.81220 0.53379 0.84469
 O623 O 0.85169 0.53293 0.80166
 O624 O 0.80981 0.47452 0.84395
 Cu625 Cu 0.86873 0.50163 0.86171
 Cu626 Cu 0.82751 0.50381 0.81928
 C627 C 0.81979 0.46361 0.86879
 C628 C 0.87545 0.54295 0.81273
 C629 C 0.82205 0.54243 0.87047
 C630 C 0.87309 0.46162 0.81159
 O631 O 0.12315 0.53385 0.16879
 O632 O 0.16228 0.47468 0.12422
 O633 O 0.12000 0.47358 0.16464
 O634 O 0.16365 0.53435 0.12753
 O635 O 0.19681 0.53032 0.16375
 O636 O 0.15336 0.46957 0.20084
 O637 O 0.19519 0.47103 0.16087
 O638 O 0.15565 0.52934 0.20554
 Cu639 Cu 0.13883 0.50437 0.14272
 Cu640 Cu 0.17843 0.49977 0.18652
 C641 C 0.13321 0.54236 0.19454
 C642 C 0.18542 0.46272 0.13500
 C643 C 0.12959 0.46076 0.18872
 C644 C 0.18760 0.54300 0.13942
 O645 O 0.84384 0.53093 0.11272
 O646 O 0.88615 0.47321 0.15529
 O647 O 0.84602 0.47142 0.11248
 O648 O 0.88297 0.53298 0.15583
 O649 O 0.84838 0.53041 0.19108
 O650 O 0.81132 0.46967 0.14773
 O651 O 0.85141 0.47086 0.19043
 O652 O 0.80924 0.52895 0.14804
 Cu653 Cu 0.86830 0.50221 0.13059
 Cu654 Cu 0.82667 0.49967 0.17290
 C655 C 0.81912 0.53947 0.12289
 C656 C 0.87629 0.46262 0.18038
 C657 C 0.82210 0.46041 0.12256
 C658 C 0.87170 0.54243 0.18075
 O659 O 0.16462 0.52596 0.87510
 O660 O 0.11781 0.46747 0.83892
 O661 O 0.15816 0.46699 0.88132
 O662 O 0.12419 0.52668 0.83348
 O663 O 0.15747 0.51892 0.79773
 O664 O 0.19177 0.45972 0.84567
 O665 O 0.15158 0.46009 0.80347
 O666 O 0.19819 0.51824 0.83963
 Cu667 Cu 0.13776 0.49742 0.86077
 Cu668 Cu 0.17809 0.48846 0.81803
 C669 C 0.18945 0.53218 0.86347
 C670 C 0.12657 0.45419 0.81469
 C671 C 0.18121 0.45372 0.87195
 C672 C 0.13512 0.53321 0.80748
 C673 C 0.23255 0.44195 0.11703
 C674 C 0.24972 0.42154 0.10037
 C675 C 0.23694 0.39801 0.08319
 C676 C 0.20605 0.39529 0.08251
 C677 C 0.18847 0.41570 0.10006
 C678 C 0.20196 0.43960 0.11709
 C679 C 0.15803 0.41083 0.10044
 N680 N 0.14611 0.38830 0.08306
 N681 N 0.16250 0.37015 0.06551
 C682 C 0.19202 0.37289 0.06460
 H683 H 0.24332 0.45998 0.12985
 H684 H 0.27330 0.42393 0.10115
 H685 H 0.14352 0.42427 0.11462
 H686 H 0.20417 0.35760 0.04980
 C687 C 0.78806 0.58572 0.12238
 C688 C 0.77120 0.60791 0.10782
 C689 C 0.76746 0.60742 0.07604
 C690 C 0.78070 0.58378 0.05853
 C691 C 0.79765 0.56088 0.07338
 C692 C 0.80164 0.56223 0.10566
 C693 C 0.80891 0.53672 0.05543
 N694 N 0.80422 0.53624 0.02478
 N695 N 0.78874 0.55798 0.01084
 C696 C 0.77669 0.58159 0.02663
 H697 H 0.79065 0.58702 0.14701
 H698 H 0.76091 0.62566 0.12149
 H699 H 0.82087 0.51783 0.06532
 H700 H 0.76383 0.59817 0.01410
 C701 C 0.78860 0.41742 0.86910
 C702 C 0.77144 0.39533 0.88359
 C703 C 0.76748 0.39581 0.91535
 C704 C 0.78081 0.41927 0.93295
 C705 C 0.79805 0.44207 0.91819
 C706 C 0.80225 0.44076 0.88592
 C707 C 0.80938 0.46608 0.93623
 N708 N 0.80447 0.46650 0.96688
 N709 N 0.78873 0.44480 0.98074
 C710 C 0.77663 0.42132 0.96485
 H711 H 0.79132 0.41621 0.84447
 H712 H 0.76106 0.37770 0.86988
 H713 H 0.82159 0.48490 0.92642
 H714 H 0.76361 0.40472 0.97730
 C715 C 0.20740 0.55641 0.91093
 C716 C 0.22577 0.57582 0.92728
 C717 C 0.24621 0.59436 0.91216
 C718 C 0.24836 0.59310 0.87980
 C719 C 0.22911 0.57391 0.86294
 C720 C 0.20873 0.55487 0.87883
 C721 C 0.23073 0.57511 0.83073
 N722 N 0.25120 0.59279 0.81671
 N723 N 0.27013 0.60957 0.83262
 C724 C 0.26946 0.61028 0.86363
 H725 H 0.19219 0.54212 0.92363
 H726 H 0.22387 0.57657 0.95202
 H727 H 0.21582 0.56270 0.81636
 H728 H 0.28555 0.62416 0.87529
 C729 C 0.08534 0.19803 0.43377
 C730 C 0.06883 0.21621 0.41410
 C731 C 0.08237 0.23672 0.39379
 C732 C 0.11333 0.23879 0.39324
 C733 C 0.13022 0.21958 0.41264
 C734 C 0.11596 0.19969 0.43376
 C735 C 0.16090 0.22066 0.40971
 N736 N 0.17358 0.24097 0.39021
 N737 N 0.15774 0.26015 0.37329
 C738 C 0.12812 0.25983 0.37419
 H739 H 0.07401 0.18298 0.44963
 H740 H 0.04522 0.21426 0.41472
 H741 H 0.17501 0.20528 0.42221
 H742 H 0.11650 0.27615 0.36011
 C743 C 0.12133 0.79777 0.58065
 C744 C 0.10870 0.77873 0.60255
 C745 C 0.07840 0.77763 0.60638
 C746 C 0.06032 0.79639 0.58782
 C747 C 0.07317 0.81639 0.56571
 C748 C 0.10420 0.81664 0.56178
 C749 C 0.05417 0.83441 0.54778
 N750 N 0.02481 0.83218 0.55148
 N751 N 0.01291 0.81304 0.57175
 C752 C 0.02959 0.79500 0.58990
 H753 H 0.14493 0.79758 0.57834
 H754 H 0.12276 0.76443 0.61651
 H755 H 0.06191 0.85029 0.53079
 H756 H 0.01857 0.77953 0.60549
 C757 C 0.91554 0.80790 0.43248
 C758 C 0.92997 0.79128 0.40977
 C759 C 0.91425 0.77577 0.38706
 C760 C 0.88339 0.77849 0.38625
 C761 C 0.86866 0.79550 0.40931
 C762 C 0.88494 0.80942 0.43320
 C763 C 0.83809 0.79859 0.40715
 N764 N 0.82346 0.78504 0.38382
 N765 N 0.83728 0.76883 0.36238
 C766 C 0.86671 0.76518 0.36272
 H767 H 0.92835 0.81864 0.45036
 H768 H 0.95356 0.78952 0.41059
 H769 H 0.82568 0.81214 0.42332
 H770 H 0.87680 0.75232 0.34434
 C771 C 0.91804 0.19551 0.56010
 C772 C 0.93296 0.21276 0.58192
 C773 C 0.91807 0.22568 0.60682
 C774 C 0.88778 0.22011 0.61057
 C775 C 0.87259 0.20230 0.58857
 C776 C 0.88781 0.19071 0.56259
 C777 C 0.84279 0.19599 0.59396
 N778 N 0.82923 0.20750 0.61911
 N779 N 0.84343 0.22466 0.63943
 C780 C 0.87222 0.23128 0.63609
 H781 H 0.93009 0.18653 0.54066
 H782 H 0.95619 0.21669 0.57898
 H783 H 0.83019 0.18156 0.57890
 H784 H 0.88273 0.24485 0.65362
 C785 C 0.44228 0.08988 0.20518
 C786 C 0.42141 0.07321 0.22149
 C787 C 0.39838 0.08807 0.23661
 C788 C 0.39644 0.12058 0.23522
 C789 C 0.41712 0.13753 0.21766
 C790 C 0.44078 0.12199 0.20325
 C791 C 0.41289 0.16945 0.21473
 N792 N 0.39082 0.18346 0.23007
 N793 N 0.37254 0.16778 0.24799
 C794 C 0.37463 0.13690 0.25117
 H795 H 0.46007 0.07753 0.19432
 H796 H 0.42320 0.04841 0.22224
 H797 H 0.42644 0.18346 0.20004
 H798 H 0.35931 0.12553 0.26628
 C799 C 0.57403 0.12790 0.77545
 C800 C 0.59598 0.11309 0.75906
 C801 C 0.60398 0.08307 0.76624
 C802 C 0.58999 0.06770 0.79079
 C803 C 0.56668 0.08217 0.80693
 C804 C 0.55889 0.11311 0.79941
 C805 C 0.55200 0.06457 0.82942
 N806 N 0.56155 0.03600 0.83663
 N807 N 0.58438 0.02333 0.82257
 C808 C 0.59875 0.03808 0.79974
 H809 H 0.56888 0.15134 0.76914
 H810 H 0.60666 0.12510 0.74036
 H811 H 0.53277 0.07244 0.84120
 H812 H 0.61694 0.02652 0.78884
 C813 C 0.41869 0.87250 0.78163
 C814 C 0.39695 0.88728 0.76504
 C815 C 0.39169 0.91856 0.76904
 C816 C 0.40791 0.93515 0.79108
 C817 C 0.43075 0.92045 0.80760
 C818 C 0.43621 0.88846 0.80274
 C819 C 0.44742 0.93883 0.82769
 N820 N 0.44046 0.96877 0.83207
 N821 N 0.41825 0.98195 0.81755
 C822 C 0.40184 0.96624 0.79713
 H823 H 0.42201 0.84821 0.77757
 H824 H 0.38456 0.87431 0.74834
 H825 H 0.46607 0.93037 0.83991
 H826 H 0.38409 0.97817 0.78594
 C827 C 0.57627 0.86955 0.21988
 C828 C 0.59778 0.88415 0.23698
 C829 C 0.59757 0.91604 0.24059
 C830 C 0.57475 0.93359 0.22744
 C831 C 0.55258 0.91870 0.21025
 C832 C 0.55383 0.88638 0.20594
 C833 C 0.52939 0.93669 0.19899
 N834 N 0.52908 0.96744 0.20391
 N835 N 0.55015 0.98142 0.21959
 C836 C 0.57287 0.96558 0.23163
 H837 H 0.57749 0.84486 0.21707
 H838 H 0.61496 0.87048 0.24723
 H839 H 0.51115 0.92672 0.18692
 H840 H 0.58902 0.97811 0.24466
 C841 C 0.44060 0.21787 0.91293
 C842 C 0.42112 0.23644 0.92890
 C843 C 0.39524 0.24751 0.91520
 C844 C 0.39081 0.24109 0.88331
 C845 C 0.41048 0.22141 0.86739
 C846 C 0.43562 0.20997 0.88240
 C847 C 0.40439 0.21400 0.83668
 N848 N 0.38180 0.22766 0.82205
 N849 N 0.36502 0.24832 0.83599
 C850 C 0.36900 0.25585 0.86581
 H851 H 0.45993 0.20959 0.92462
 H852 H 0.42566 0.24023 0.95293
 H853 H 0.41738 0.19763 0.82404
 H854 H 0.35555 0.27394 0.87517
 C855 C 0.56455 0.79283 0.91277
 C856 C 0.58598 0.77612 0.92795
 C857 C 0.60837 0.76151 0.91164
 C858 C 0.60976 0.76474 0.87936
 C859 C 0.58801 0.78199 0.86381
 C860 C 0.56473 0.79547 0.88075
 C861 C 0.59106 0.78601 0.83194
 N862 N 0.61382 0.77294 0.81684
 N863 N 0.63393 0.75642 0.83139
 C864 C 0.63276 0.75198 0.86210
 H865 H 0.54728 0.80331 0.92620
 H866 H 0.58479 0.77407 0.95266
 H867 H 0.57610 0.79991 0.81885
 H868 H 0.65008 0.73893 0.87274
 C869 C 0.41768 0.78107 0.11969
 C870 C 0.39665 0.76463 0.10367
 C871 C 0.39956 0.75921 0.07204
 C872 C 0.42362 0.77284 0.05616
 C873 C 0.44554 0.78883 0.07277
 C874 C 0.44230 0.79306 0.10482
 C875 C 0.47011 0.79984 0.05660
 N876 N 0.47121 0.79756 0.02566
 N877 N 0.44953 0.78490 0.00984
 C878 C 0.42576 0.77269 0.02392
 H879 H 0.41470 0.78436 0.14411
 H880 H 0.37875 0.75472 0.11664
 H881 H 0.48852 0.81017 0.06807
 H882 H 0.40853 0.76359 0.00969
 C883 C 0.56750 0.21124 0.08555
 C884 C 0.58864 0.22746 0.06913
 C885 C 0.61255 0.24078 0.08404
 C886 C 0.61583 0.23661 0.11603
 C887 C 0.59438 0.21997 0.13277
 C888 C 0.56959 0.20786 0.11741
 C889 C 0.59907 0.21516 0.16422
 N890 N 0.62321 0.22680 0.17794
 N891 N 0.64315 0.24269 0.16229
 C892 C 0.64037 0.24789 0.13182
 H893 H 0.54892 0.20189 0.07334
 H894 H 0.58596 0.23028 0.04463
 H895 H 0.58420 0.20174 0.17791
 H896 H 0.65759 0.26036 0.12021
 C897 C 0.21532 0.12167 0.58326
 C898 C 0.23194 0.10656 0.60523
 C899 C 0.23544 0.07465 0.60436
 C900 C 0.22125 0.05751 0.58110
 C901 C 0.20525 0.07300 0.55788
 C902 C 0.20181 0.10548 0.55942
 C903 C 0.19408 0.05529 0.53356
 N904 N 0.19678 0.02428 0.53392
 N905 N 0.21012 0.00971 0.55673
 C906 C 0.22238 0.02521 0.58032
 H907 H 0.21309 0.14639 0.58489
 H908 H 0.24262 0.12002 0.62280
 H909 H 0.18368 0.06551 0.51392
 H910 H 0.23274 0.01207 0.59828
 C911 C 0.78411 0.11418 0.41710
 C912 C 0.76608 0.10012 0.39583
 C913 C 0.76511 0.06806 0.39291
 C914 C 0.78223 0.04978 0.41326
 C915 C 0.80085 0.06427 0.43509
 C916 C 0.80178 0.09696 0.43686
 C917 C 0.81660 0.04531 0.45538
 N918 N 0.81355 0.01439 0.45427
 N919 N 0.79549 0.00094 0.43462
 C920 C 0.77951 0.01748 0.41445
 H921 H 0.78430 0.13905 0.41795
 H922 H 0.75338 0.11471 0.38078
 H923 H 0.83092 0.05433 0.47259
 H924 H 0.76421 0.00508 0.40035
 C925 C 0.77576 0.88432 0.57435
 C926 C 0.75777 0.89986 0.59482
 C927 C 0.76906 0.92258 0.61399
 C928 C 0.79925 0.92973 0.61263
 C929 C 0.81787 0.91354 0.59208
 C930 C 0.80576 0.89096 0.57217
 C931 C 0.84797 0.92035 0.59276
 N932 N 0.85822 0.94274 0.61145
 N933 N 0.84054 0.95868 0.62974
 C934 C 0.81144 0.95296 0.63098
 H935 H 0.76583 0.86735 0.55952
 H936 H 0.73470 0.89417 0.59562
 H937 H 0.86369 0.90797 0.57918
 H938 H 0.79814 0.96671 0.64621
 C939 C 0.20160 0.88958 0.40787
 C940 C 0.21923 0.90302 0.38555
 C941 C 0.22666 0.93410 0.38722
 C942 C 0.21526 0.95235 0.41129
 C943 C 0.19726 0.93874 0.43418
 C944 C 0.19057 0.90684 0.43246
 C945 C 0.18760 0.95751 0.45847
 N946 N 0.19475 0.98774 0.45905
 N947 N 0.21101 1.00056 0.43716
 C948 C 0.22152 0.98393 0.41333
 H949 H 0.19675 0.86529 0.40609
 H950 H 0.22789 0.88883 0.36728
 H951 H 0.17483 0.94863 0.47729
 H952 H 0.23462 0.99557 0.39619
 C953 C 0.12144 0.40449 0.78847
 C954 C 0.10577 0.38252 0.77228
 C955 C 0.07601 0.38660 0.76637
 C956 C 0.06164 0.41336 0.77705
 C957 C 0.07766 0.43603 0.79329
 C958 C 0.10789 0.43131 0.79917
 C959 C 0.06301 0.46318 0.80177
 N960 N 0.03424 0.46673 0.79522
 N961 N 0.01916 0.44521 0.78047
 C962 C 0.03187 0.41874 0.77103
 H963 H 0.14450 0.40057 0.79253
 H964 H 0.11702 0.36228 0.76395
 H965 H 0.07403 0.48192 0.81303
 H966 H 0.01862 0.40234 0.75870
 C967 C 0.08808 0.57114 0.20665
 C968 C 0.07208 0.59372 0.22170
 C969 C 0.08530 0.61346 0.24296
 C970 C 0.11619 0.61165 0.24703
 C971 C 0.13265 0.58852 0.23160
 C972 C 0.11816 0.56748 0.21167
 C973 C 0.16326 0.58844 0.23567
 N974 N 0.17627 0.60998 0.25336
 N975 N 0.16099 0.63205 0.26699
 C976 C 0.13159 0.63386 0.26413
 H977 H 0.07652 0.55585 0.19132
 H978 H 0.04870 0.59454 0.21781
 H979 H 0.17740 0.57223 0.22461
 H980 H 0.12080 0.65332 0.27448
 C981 C 0.87960 0.41403 0.20922
 C982 C 0.89464 0.39201 0.22605
 C983 C 0.92452 0.39551 0.23287
 C984 C 0.93972 0.42128 0.22026
 C985 C 0.92408 0.44420 0.20386
 C986 C 0.89378 0.44028 0.19814
 C987 C 0.93943 0.47049 0.19400
 N988 N 0.96877 0.47232 0.19782
 N989 N 0.98381 0.44971 0.21086
 C990 C 0.97041 0.42421 0.22188
 H991 H 0.85650 0.41059 0.20493
 H992 H 0.88223 0.37285 0.23516
 H993 H 0.92854 0.48970 0.18338
 H994 H 0.98403 0.40626 0.23122
 C995 C 0.89927 0.56155 0.76566
 C996 C 0.91401 0.58355 0.74843
 C997 C 0.92138 0.61241 0.76084
 C998 C 0.91176 0.61931 0.79127
 C999 C 0.89740 0.59636 0.80904
 C1000 C 0.89148 0.56723 0.79607
 C1001 C 0.88796 0.60388 0.83879
 N1002 N 0.89178 0.63271 0.84970
 N1003 N 0.90399 0.65463 0.83269
 C1004 C 0.91368 0.64909 0.80384
 H1005 H 0.89444 0.53951 0.75531
 H1006 H 0.92087 0.57716 0.72554
 H1007 H 0.87694 0.58738 0.85322
 H1008 H 0.92181 0.66837 0.79079
 C1009 C 0.77438 0.56512 0.88390
 C1010 C 0.75606 0.58456 0.90027
 C1011 C 0.76732 0.60450 0.92226
 C1012 C 0.79770 0.60451 0.92834
 C1013 C 0.81672 0.58506 0.91126
 C1014 C 0.80475 0.56486 0.88881
 C1015 C 0.84695 0.58727 0.91712
 N1016 N 0.85695 0.60633 0.93929
 N1017 N 0.83895 0.62359 0.95596
 C1018 C 0.80970 0.62334 0.95126
 H1019 H 0.76449 0.54988 0.86728
 H1020 H 0.73282 0.58428 0.89547
 H1021 H 0.86301 0.57459 0.90431
 H1022 H 0.79611 0.63776 0.96557
 C1023 C 0.20667 0.40424 0.87736
 C1024 C 0.22297 0.38283 0.89361
 C1025 C 0.22927 0.38739 0.92457
 C1026 C 0.21861 0.41391 0.93968
 C1027 C 0.20227 0.43605 0.92306
 C1028 C 0.19628 0.43101 0.89151
 C1029 C 0.19386 0.46311 0.93842
 N1030 N 0.20055 0.46701 0.96841
 N1031 N 0.21541 0.44596 0.98406
 C1032 C 0.22480 0.41966 0.97072
 H1033 H 0.20250 0.40009 0.85329
 H1034 H 0.23131 0.36279 0.88176
 H1035 H 0.18248 0.48150 0.92702
 H1036 H 0.23718 0.40365 0.98447
 C1037 C 0.20252 0.56971 0.09198
 C1038 C 0.21928 0.59046 0.07527
 C1039 C 0.23989 0.60945 0.08966
 C1040 C 0.24132 0.60929 0.12229
 C1041 C 0.22394 0.58819 0.13945
 C1042 C 0.20511 0.56735 0.12389
 C1043 C 0.22516 0.58984 0.17168
 N1044 N 0.24231 0.61100 0.18556
 N1045 N 0.25805 0.63108 0.16954
 C1046 C 0.25787 0.63122 0.13853
 H1047 H 0.18802 0.55455 0.07952
 H1048 H 0.21735 0.59012 0.05053
 H1049 H 0.21213 0.57538 0.18623
 H1050 H 0.26995 0.64918 0.12702
 C1051 C 0.77563 0.44350 0.10014
 C1052 C 0.75841 0.42404 0.08259
 C1053 C 0.77020 0.39770 0.06858
 C1054 C 0.80092 0.39239 0.07119
 C1055 C 0.81836 0.41208 0.08969
 C1056 C 0.80547 0.43788 0.10417
 C1057 C 0.84819 0.40505 0.09320
 N1058 N 0.86017 0.38141 0.07738
 N1059 N 0.84436 0.36436 0.05831
 C1060 C 0.81533 0.36919 0.05445
 H1061 H 0.76544 0.46331 0.11073
 H1062 H 0.73523 0.42897 0.08136
 H1063 H 0.86216 0.41798 0.10837
 H1064 H 0.80402 0.35525 0.03781
 C1065 C 0.90614 0.77619 0.55542
 C1066 C 0.92383 0.75883 0.57456
 C1067 C 0.93790 0.77211 0.59990
 C1068 C 0.93582 0.80455 0.60395
 C1069 C 0.91720 0.82219 0.58469
 C1070 C 0.90203 0.80765 0.56035
 C1071 C 0.91422 0.85375 0.59088
 N1072 N 0.93052 0.86708 0.61307
 N1073 N 0.94954 0.85101 0.62957
 C1074 C 0.95293 0.82036 0.62563
 H1075 H 0.89508 0.76470 0.53674
 H1076 H 0.92483 0.73431 0.57051
 H1077 H 0.89919 0.86808 0.57843
 H1078 H 0.96941 0.80881 0.63906
 C1079 C 0.91502 0.18973 0.42786
 C1080 C 0.92965 0.20695 0.40572
 C1081 C 0.91428 0.22576 0.38515
 C1082 C 0.88314 0.22430 0.38504
 C1083 C 0.86822 0.20599 0.40714
 C1084 C 0.88444 0.18987 0.42980
 C1085 C 0.83756 0.20333 0.40479
 N1086 N 0.82301 0.21838 0.38236
 N1087 N 0.83695 0.23546 0.36169
 C1088 C 0.86641 0.23864 0.36202
 H1089 H 0.92787 0.17703 0.44438
 H1090 H 0.95334 0.20715 0.40617
 H1091 H 0.82492 0.18861 0.41965
 H1092 H 0.87643 0.25150 0.34360
 C1093 C 0.11936 0.20255 0.58634
 C1094 C 0.10295 0.21795 0.60833
 C1095 C 0.07293 0.22353 0.60411
 C1096 C 0.05902 0.21070 0.57782
 C1097 C 0.07603 0.19577 0.55494
 C1098 C 0.10651 0.19173 0.55940
 C1099 C 0.06183 0.18583 0.52812
 N1100 N 0.03238 0.18815 0.52574
 N1101 N 0.01616 0.19980 0.54824
 C1102 C 0.02837 0.21084 0.57424
 H1103 H 0.14258 0.19950 0.59021
 H1104 H 0.11445 0.22723 0.62790
 H1105 H 0.07366 0.17630 0.50896
 H1106 H 0.01392 0.21908 0.59205
 C1107 C 0.11338 0.80347 0.41116
 C1108 C 0.09840 0.78573 0.38987
 C1109 C 0.06800 0.78135 0.39205
 C1110 C 0.05232 0.79786 0.41506
 C1111 C 0.06775 0.81549 0.43723
 C1112 C 0.09871 0.81806 0.43532
 C1113 C 0.05146 0.82955 0.46075
 N1114 N 0.02187 0.82815 0.46067
 N1115 N 0.00736 0.81363 0.43866
 C1116 C 0.02150 0.79876 0.41576
 H1117 H 0.13693 0.80534 0.40903
 H1118 H 0.11119 0.77377 0.37270
 H1119 H 0.06172 0.84172 0.47920
 H1120 H 0.00844 0.78834 0.39800
 C1121 C 0.57960 0.87351 0.78066
 C1122 C 0.60104 0.88906 0.76417
 C1123 C 0.60075 0.92122 0.76182
 C1124 C 0.57663 0.93768 0.77445
 C1125 C 0.55458 0.92168 0.79108
 C1126 C 0.55672 0.88939 0.79497
 C1127 C 0.53020 0.93836 0.80167
 N1128 N 0.52792 0.96879 0.79565
 N1129 N 0.54824 0.98367 0.77959
 C1130 C 0.57237 0.96924 0.76871
 H1131 H 0.58126 0.84878 0.78280
 H1132 H 0.61881 0.87583 0.75435
 H1133 H 0.51241 0.92745 0.81372
 H1134 H 0.58740 0.98244 0.75482
 C1135 C 0.43601 0.88997 0.22658
 C1136 C 0.41392 0.90463 0.24281
 C1137 C 0.38698 0.91194 0.22903
 C1138 C 0.38221 0.90232 0.19813
 C1139 C 0.40525 0.88804 0.18139
 C1140 C 0.43234 0.88219 0.19584
 C1141 C 0.39987 0.87858 0.15111
 N1142 N 0.37297 0.88227 0.13876
 N1143 N 0.35101 0.89435 0.15476
 C1144 C 0.35456 0.90406 0.18401
 H1145 H 0.45654 0.88528 0.23800
 H1146 H 0.41872 0.91160 0.26607
 H1147 H 0.41654 0.86765 0.13732
 H1148 H 0.33541 0.91202 0.19614
 C1149 C 0.56507 0.08870 0.20648
 C1150 C 0.58459 0.07064 0.22289
 C1151 C 0.60369 0.08386 0.24398
 C1152 C 0.60283 0.11594 0.24911
 C1153 C 0.58317 0.13467 0.23217
 C1154 C 0.56381 0.12070 0.21060
 C1155 C 0.58427 0.16666 0.23734
 N1156 N 0.60270 0.17848 0.25854
 N1157 N 0.62031 0.16072 0.27500
 C1158 C 0.62096 0.12991 0.27108
 H1159 H 0.55058 0.07735 0.19050
 H1160 H 0.58495 0.04607 0.21892
 H1161 H 0.57113 0.18278 0.22493
 H1162 H 0.63559 0.11666 0.28529
 C1163 C 0.41126 0.12516 0.79173
 C1164 C 0.38996 0.10910 0.77561
 C1165 C 0.39480 0.07878 0.76635
 C1166 C 0.42168 0.06433 0.77340
 C1167 C 0.44332 0.08058 0.79007
 C1168 C 0.43789 0.11127 0.79933
 C1169 C 0.47014 0.06588 0.79578
 N1170 N 0.47472 0.03686 0.78558
 N1171 N 0.45439 0.02162 0.76997
 C1172 C 0.42807 0.03435 0.76349
 H1173 H 0.40693 0.14870 0.79830
 H1174 H 0.36962 0.12052 0.77000
 H1175 H 0.48764 0.07726 0.80784
 H1176 H 0.41246 0.02099 0.75053
 C1177 C 0.56355 0.79517 0.08326
 C1178 C 0.58423 0.77768 0.06765
 C1179 C 0.60560 0.76114 0.08356
 C1180 C 0.60626 0.76254 0.11602
 C1181 C 0.58573 0.78112 0.13192
 C1182 C 0.56359 0.79677 0.11533
 C1183 C 0.58846 0.78371 0.16395
 N1184 N 0.60909 0.76727 0.17897
 N1185 N 0.62729 0.74856 0.16420
 C1186 C 0.62654 0.74555 0.13332
 H1187 H 0.54691 0.80698 0.07015
 H1188 H 0.58349 0.77695 0.04285
 H1189 H 0.57483 0.79896 0.17724
 H1190 H 0.64170 0.72977 0.12269
 C1191 C 0.42342 0.22404 0.12896
 C1192 C 0.40115 0.23970 0.11401
 C1193 C 0.40132 0.24272 0.08212
 C1194 C 0.42484 0.23025 0.06493
 C1195 C 0.44773 0.21442 0.08018
 C1196 C 0.44666 0.21091 0.11253
 C1197 C 0.47144 0.20375 0.06249
 N1198 N 0.47168 0.20806 0.03172
 N1199 N 0.45005 0.22257 0.01743
 C1200 C 0.42674 0.23393 0.03295
 H1201 H 0.42228 0.22182 0.15366
 H1202 H 0.38347 0.24941 0.12744
 H1203 H 0.49009 0.19261 0.07269
 H1204 H 0.41015 0.24605 0.02015
 C1205 C 0.57836 0.19968 0.89820
 C1206 C 0.59990 0.21684 0.91277
 C1207 C 0.59914 0.24899 0.91239
 C1208 C 0.57617 0.26415 0.89673
 C1209 C 0.55375 0.24667 0.88253
 C1210 C 0.55531 0.21407 0.88274
 C1211 C 0.53017 0.26262 0.86926
 N1212 N 0.53015 0.29375 0.86866
 N1213 N 0.55194 0.31006 0.88058
 C1214 C 0.57494 0.29637 0.89450
 H1215 H 0.57989 0.17485 0.89874
 H1216 H 0.61724 0.20490 0.92472
 H1217 H 0.51150 0.25087 0.85978
 H1218 H 0.59206 0.31084 0.90354
 C1219 C 0.41339 0.79078 0.87857
 C1220 C 0.39252 0.77306 0.89376
 C1221 C 0.40053 0.75398 0.91815
 C1222 C 0.43007 0.75310 0.92782
 C1223 C 0.45123 0.77138 0.91255
 C1224 C 0.44267 0.79024 0.88774
 C1225 C 0.48043 0.76977 0.92237
 N1226 N 0.48773 0.75124 0.94612
 N1227 N 0.46781 0.73428 0.96068
 C1228 C 0.43924 0.73462 0.95243
 H1229 H 0.40666 0.80511 0.85955
 H1230 H 0.37000 0.77388 0.88616
 H1231 H 0.49749 0.78295 0.91132
 H1232 H 0.42401 0.72061 0.96530
 C1233 C 0.80165 0.90411 0.42273
 C1234 C 0.78277 0.91701 0.40137
 C1235 C 0.75243 0.91570 0.40558
 C1236 C 0.74087 0.90121 0.43208
 C1237 C 0.76012 0.88882 0.45433
 C1238 C 0.79080 0.88955 0.44906
 C1239 C 0.74786 0.87672 0.48142
 N1240 N 0.71841 0.87545 0.48492
 N1241 N 0.70038 0.88560 0.46331
 C1242 C 0.71056 0.89834 0.43702
 H1243 H 0.82497 0.90503 0.41837
 H1244 H 0.79194 0.92825 0.38137
 H1245 H 0.76121 0.86872 0.50013
 H1246 H 0.69484 0.90595 0.42023
 C1247 C 0.19016 0.89804 0.58927
 C1248 C 0.20791 0.91101 0.61173
 C1249 C 0.23240 0.92870 0.60368
 C1250 C 0.23844 0.93433 0.57225
 C1251 C 0.22080 0.92048 0.54946
 C1252 C 0.19657 0.90220 0.55819
 C1253 C 0.22791 0.92560 0.51853
 N1254 N 0.25055 0.94430 0.51103
 N1255 N 0.26656 0.95812 0.53239
 C1256 C 0.26128 0.95385 0.56268
 H1257 H 0.17162 0.88413 0.59619
 H1258 H 0.20285 0.90668 0.63561
 H1259 H 0.21564 0.91498 0.50029
 H1260 H 0.27470 0.96615 0.57891
 C1261 C 0.19820 0.09390 0.41576
 C1262 C 0.21506 0.07998 0.39314
 C1263 C 0.24465 0.08737 0.38952
 C1264 C 0.25741 0.10957 0.40914
 C1265 C 0.24082 0.12222 0.43366
 C1266 C 0.21042 0.11516 0.43624
 C1267 C 0.25575 0.14083 0.45498
 N1268 N 0.28408 0.14863 0.45010
 N1269 N 0.29876 0.13886 0.42565
 C1270 C 0.28640 0.11970 0.40499
 H1271 H 0.17525 0.08786 0.41721
 H1272 H 0.20495 0.06293 0.37853
 H1273 H 0.24583 0.14868 0.47594
 H1274 H 0.29936 0.11271 0.38547
 C1275 C 0.79056 0.11776 0.58557
 C1276 C 0.77381 0.10464 0.60872
 C1277 C 0.77123 0.07279 0.61129
 C1278 C 0.78614 0.05363 0.59015
 C1279 C 0.80339 0.06697 0.56640
 C1280 C 0.80544 0.09956 0.56406
 C1281 C 0.81679 0.04703 0.54520
 N1282 N 0.81342 0.01621 0.54792
 N1283 N 0.79731 0.00382 0.57016
 C1284 C 0.78345 0.02143 0.59124
 H1285 H 0.79159 0.14257 0.58431
 H1286 H 0.76234 0.11955 0.62458
 H1287 H 0.82964 0.05532 0.52627
 H1288 H 0.77026 0.01003 0.60839
 C1289 C 0.91697 0.56600 0.20077
 C1290 C 0.93198 0.58671 0.21926
 C1291 C 0.91696 0.60905 0.23617
 C1292 C 0.88603 0.61057 0.23422
 C1293 C 0.87077 0.59010 0.21462
 C1294 C 0.88641 0.56697 0.19849
 C1295 C 0.84034 0.59397 0.21150
 N1296 N 0.82615 0.61544 0.22838
 N1297 N 0.84026 0.63345 0.24802
 C1298 C 0.86963 0.63170 0.25159
 H1299 H 0.92935 0.54865 0.18860
 H1300 H 0.95561 0.58530 0.22038
 H1301 H 0.82766 0.58064 0.19549
 H1302 H 0.87979 0.64675 0.26811
 C1303 C 0.91829 0.43700 0.79240
 C1304 C 0.93327 0.41541 0.77484
 C1305 C 0.91815 0.39281 0.75843
 C1306 C 0.88715 0.39200 0.75988
 C1307 C 0.87192 0.41323 0.77875
 C1308 C 0.88769 0.43661 0.79435
 C1309 C 0.84139 0.40980 0.78174
 N1310 N 0.82712 0.38819 0.76518
 N1311 N 0.84123 0.36962 0.74600
 C1312 C 0.87068 0.37083 0.74270
 H1313 H 0.93077 0.45452 0.80418
 H1314 H 0.95694 0.41631 0.77407
 H1315 H 0.82867 0.42355 0.79740
 H1316 H 0.88082 0.35535 0.72654
 C1317 C 0.09017 0.55923 0.79025
 C1318 C 0.07479 0.58035 0.77268
 C1319 C 0.08937 0.59993 0.75235
 C1320 C 0.12016 0.59780 0.74925
 C1321 C 0.13606 0.57668 0.76762
 C1322 C 0.12074 0.55689 0.78817
 C1323 C 0.16678 0.57683 0.76505
 N1324 N 0.18023 0.59555 0.74455
 N1325 N 0.16517 0.61433 0.72647
 C1326 C 0.13564 0.61606 0.72807
 H1327 H 0.07793 0.54437 0.80556
 H1328 H 0.05125 0.58170 0.77526
 H1329 H 0.18045 0.56272 0.77919
 H1330 H 0.12459 0.63158 0.71264
 C1331 C 0.08267 0.43933 0.20734
 C1332 C 0.06629 0.41756 0.22337
 C1333 C 0.07965 0.39137 0.23557
 C1334 C 0.10979 0.38619 0.23021
 C1335 C 0.12643 0.40815 0.21362
 C1336 C 0.11285 0.43549 0.20309
 C1337 C 0.15602 0.40151 0.20753
 N1338 N 0.16806 0.37513 0.21814
 N1339 N 0.15253 0.35482 0.23419
 C1340 C 0.12383 0.35939 0.24052
 H1341 H 0.07187 0.45988 0.19914
 H1342 H 0.04319 0.42163 0.22714
 H1343 H 0.16960 0.41660 0.19393
 H1344 H 0.11219 0.34184 0.25319
   
