data_POSCAR
  _audit_creation_date              2014-09-24
  _audit_creation_method            'ToBaCCo'
  _symmetry_space_group_name_H-M    'P1'
  _symmetry_Int_Tables_number       1
  _symmetry_cell_setting            triclinic
  loop_
  _symmetry_equiv_pos_as_xyz
 x,y,z
_cell_length_a 33.6132
_cell_length_b 34.2787
_cell_length_c 40.4054
_cell_angle_alpha 89.898300
_cell_angle_beta 89.965600
_cell_angle_gamma 89.923200
loop_
  _atom_site_label
  _atom_site_type_symbol
  _atom_site_fract_x
  _atom_site_fract_y
  _atom_site_fract_z
B1 B 0.26772 0.23264 0.28466
 B2 B 0.22057 0.22417 0.27302
 B3 B 0.23468 0.26977 0.28242
 B4 B 0.28158 0.27600 0.26895
 B5 B 0.29643 0.23353 0.25068
 B6 B 0.25820 0.20101 0.25346
 B7 B 0.23290 0.26281 0.21588
 B8 B 0.28008 0.27124 0.22757
 B9 B 0.26585 0.22568 0.21803
 B10 B 0.21898 0.21935 0.23162
 B11 B 0.20424 0.26183 0.24981
 B12 B 0.24240 0.29430 0.24708
 B13 B 0.73565 0.76545 0.28416
 B14 B 0.78295 0.77632 0.27445
 B15 B 0.77078 0.73025 0.28444
 B16 B 0.72545 0.72076 0.26893
 B17 B 0.70945 0.76194 0.24896
 B18 B 0.74539 0.79657 0.25272
 B19 B 0.77689 0.73569 0.21774
 B20 B 0.72964 0.72418 0.22785
 B21 B 0.74148 0.77065 0.21749
 B22 B 0.78699 0.78013 0.23293
 B23 B 0.80301 0.73933 0.25317
 B24 B 0.76752 0.70446 0.24944
 B25 B 0.72833 0.23059 -0.27883
 B26 B 0.77512 0.21768 -0.26905
 B27 B 0.76535 0.26379 -0.28066
 B28 B 0.72054 0.27634 -0.26526
 B29 B 0.70266 0.23729 -0.24369
 B30 B 0.73683 0.20062 -0.24628
 B31 B 0.77170 0.26175 -0.21400
 B32 B 0.72493 0.27455 -0.22381
 B33 B 0.73478 0.22843 -0.21223
 B34 B 0.77957 0.21598 -0.22761
 B35 B 0.79743 0.25500 -0.24918
 B36 B 0.76325 0.29167 -0.24662
 B37 B 0.27601 0.76147 -0.28530
 B38 B 0.22923 0.77648 -0.27744
 B39 B 0.23802 0.72959 -0.28843
 B40 B 0.28131 0.71584 -0.27097
 B41 B 0.29901 0.75419 -0.24876
 B42 B 0.26676 0.79202 -0.25322
 B43 B 0.22738 0.73257 -0.22209
 B44 B 0.27424 0.71807 -0.22974
 B45 B 0.26530 0.76457 -0.21893
 B46 B 0.22205 0.77856 -0.23644
 B47 B 0.20426 0.73976 -0.25847
 B48 B 0.23694 0.70214 -0.25395
 B49 B 1.23509 1.27735 0.71758
 B50 B 1.21948 1.23159 0.72551
 B51 B 1.26725 1.23968 0.71415
 B52 B 1.28188 1.28193 0.73154
 B53 B 1.24308 1.29962 0.75413
 B54 B 1.20414 1.26846 0.74990
 B55 B 1.26473 1.22905 0.78050
 B56 B 1.27992 1.27485 0.77282
 B57 B 1.23251 1.26660 0.78397
 B58 B 1.21768 1.22443 0.76651
 B59 B 1.25691 1.20667 0.74415
 B60 B 1.29562 1.23825 0.74839
 B61 B 0.76643 0.72829 0.71680
 B62 B 0.78094 0.77397 0.72572
 B63 B 0.73379 0.76555 0.71376
 B64 B 0.71930 0.72257 0.73007
 B65 B 0.75814 0.70448 0.75246
 B66 B 0.79661 0.73663 0.74956
 B67 B 0.73480 0.77391 0.78026
 B68 B 0.72041 0.72821 0.77138
 B69 B 0.76749 0.73658 0.78328
 B70 B 0.78192 0.77960 0.76708
 B71 B 0.74315 0.79773 0.74457
 B72 B 0.70465 0.76551 0.74749
 B73 B 1.22319 0.73840 0.21823
 B74 B 1.27011 0.72534 0.22756
 B75 B 1.26044 0.77130 0.21548
 B76 B 1.21601 0.78456 0.23130
 B77 B 1.19821 0.74614 0.25366
 B78 B 1.23205 0.70907 0.25109
 B79 B 1.26812 0.77042 0.28201
 B80 B 1.22132 0.78366 0.27275
 B81 B 1.23086 0.73760 0.28478
 B82 B 1.27526 0.72439 0.26895
 B83 B 1.29307 0.76283 0.24660
 B84 B 1.25930 0.79982 0.24910
 B85 B 0.77143 1.26079 0.21717
 B86 B 0.72464 1.27366 0.22700
 B87 B 0.73439 1.22750 0.21555
 B88 B 0.77923 1.21490 0.23099
 B89 B 0.79713 1.25391 0.25242
 B90 B 0.76302 1.29064 0.24973
 B91 B 0.72789 1.22977 0.28219
 B92 B 0.77469 1.21669 0.27253
 B93 B 0.76497 1.26286 0.28384
 B94 B 0.72030 1.27545 0.26838
 B95 B 0.70230 1.23645 0.24702
 B96 B 0.73635 1.19969 0.24980
 O97 O 0.43903 1.06179 0.06036
 O98 O 0.39479 1.02766 0.02813
 C99 C 0.40329 1.05233 0.05166
 O100 O 0.55181 1.06751 -0.05720
 O101 O 0.59731 1.03245 -0.02674
 C102 C 0.58793 1.05787 -0.04954
 O103 O 0.44255 1.06993 -0.05685
 O104 O 0.39647 1.03176 -0.03002
 C105 C 0.40633 1.05897 -0.05105
 O106 O 0.54787 1.06005 0.06510
 O107 O 0.59522 1.02930 0.03345
 C108 C 0.58451 1.05235 0.05756
 Zr109 Zr 0.49426 1.04091 0.04403
 O110 O 0.49284 1.10194 0.05182
 O111 O 0.49181 1.02976 0.09546
 Zr112 Zr 0.49692 1.04849 -0.03853
 O113 O 0.49935 1.10976 -0.03218
 O114 O 0.49587 1.05548 -0.09054
 O115 O 0.45950 1.05225 0.00231
 O116 O 0.53074 1.05252 0.00389
 O117 O 0.54943 0.92346 0.05709
 O118 O 0.59604 0.96057 0.03002
 C119 C 0.58589 0.93301 0.05080
 O120 O 0.44495 0.92955 -0.06357
 O121 O 0.39753 0.96162 -0.03286
 C122 C 0.40831 0.93736 -0.05607
 O123 O 0.55445 0.93615 -0.06450
 O124 O 0.59850 0.96623 -0.02938
 C125 C 0.59019 0.94461 -0.05498
 O126 O 0.44088 0.91783 0.04969
 O127 O 0.39570 0.95792 0.02371
 C128 C 0.40483 0.92812 0.04233
 Zr129 Zr 0.49564 0.94395 0.03779
 O130 O 0.50035 0.88252 0.03426
 O131 O 0.48938 0.94057 0.08988
 Zr132 Zr 0.49868 0.95109 -0.04456
 O133 O 0.49784 0.88936 -0.04830
 O134 O 0.49922 0.95831 -0.09656
 Zr135 Zr 0.43567 0.99555 -0.00198
 Zr136 Zr 0.55722 0.99697 0.00119
 O137 O 0.53260 0.94076 -0.00297
 O138 O 0.46144 0.93953 -0.00480
 O139 O 0.53084 0.99230 0.04840
 O140 O 0.46306 0.99974 -0.04866
 O141 O 0.45942 0.99148 0.04610
 O142 O 0.53369 1.00077 -0.04712
 H143 H 0.54856 1.07547 0.00514
 H144 H 0.44653 1.00076 -0.06894
 H145 H 0.55094 0.91818 -0.00393
 H146 H 0.44099 0.98924 0.06517
 H147 H 0.50838 1.03192 -0.10011
 H148 H 0.49924 0.93174 -0.10623
 H149 H 0.52375 0.87888 -0.04084
 H150 H 0.48540 0.87452 0.01432
 H151 H 0.51018 0.95727 0.09982
 H152 H 0.49043 1.05557 0.10643
 H153 H 0.50500 1.11451 0.03229
 H154 H 0.47462 1.11787 -0.02076
 O155 O 1.04915 0.56950 0.55761
 O156 O 1.09629 0.53821 0.52618
 C157 C 1.08562 0.56356 0.54862
 O158 O 0.94981 0.42221 0.55689
 O159 O 0.90058 0.45623 0.52987
 C160 C 0.91273 0.43010 0.55115
 O161 O 1.05848 0.42990 0.55528
 O162 O 1.10075 0.46923 0.52540
 C163 C 1.09366 0.44159 0.54686
 O164 O 0.94057 0.56459 0.55882
 O165 O 0.89616 0.52598 0.53063
 C166 C 0.90488 0.55270 0.55241
 Zr167 Zr 0.99571 0.54538 0.54085
 O168 O 0.99791 0.53766 0.59274
 O169 O 0.99067 0.60666 0.54585
 Zr170 Zr 1.00209 0.44851 0.53952
 O171 O 1.00137 0.45151 0.59193
 O172 O 1.00515 0.38690 0.54215
 O173 O 1.03537 0.49916 0.54590
 O174 O 0.96388 0.49468 0.54714
 O175 O 0.93629 0.56641 0.44292
 O176 O 0.89407 0.52678 0.47257
 C177 C 0.90118 0.55424 0.45098
 O178 O 1.05391 0.43620 0.43470
 O179 O 1.09869 0.47075 0.46607
 C180 C 1.08978 0.44681 0.44211
 O181 O 0.94560 0.42555 0.44029
 O182 O 0.89853 0.45748 0.47145
 C183 C 0.90910 0.43274 0.44855
 O184 O 1.04530 0.56934 0.43725
 O185 O 1.09434 0.53865 0.46714
 C186 C 1.08234 0.56265 0.44410
 Zr187 Zr 0.99276 0.54720 0.45809
 O188 O 0.98946 0.54491 0.40585
 O189 O 0.99192 0.60897 0.45871
 Zr190 Zr 0.99917 0.44994 0.45685
 O191 O 0.99427 0.44941 0.40464
 O192 O 1.00689 0.38861 0.45770
 Zr193 Zr 1.05817 0.50168 0.49728
 Zr194 Zr 0.93669 0.49397 0.50022
 O195 O 0.96079 0.49655 0.45216
 O196 O 1.03155 0.50100 0.45005
 O197 O 0.95788 0.55191 0.50045
 O198 O 1.03618 0.44417 0.49705
 O199 O 1.02870 0.55585 0.49859
 O200 O 0.96520 0.43905 0.49893
 H201 H 0.94710 0.49330 0.56728
 H202 H 1.05543 0.42234 0.49560
 H203 H 0.94296 0.49600 0.43265
 H204 H 1.04473 0.58006 0.49793
 H205 H 1.01853 0.37746 0.52192
 H206 H 0.98488 0.37739 0.47094
 H207 H 1.00727 0.47339 0.39634
 H208 H 0.98744 0.57226 0.39801
 H209 H 0.97128 0.61708 0.47478
 H210 H 1.00265 0.61874 0.52600
 H211 H 0.99544 0.56404 0.60253
 H212 H 1.02516 0.46619 0.59918
 O213 O 1.07083 0.55725 0.05693
 O214 O 1.03242 0.60010 0.02699
 C215 C 1.06052 0.59219 0.04823
 O216 O 1.07250 0.44676 -0.05893
 O217 O 1.03769 0.40182 -0.02819
 C218 C 1.06300 0.41126 -0.05134
 O219 O 1.07505 0.55480 -0.05619
 O220 O 1.03485 0.59914 -0.02963
 C221 C 1.06412 0.59020 -0.04941
 O222 O 1.06845 0.45001 0.06319
 O223 O 1.03720 0.40360 0.03166
 C224 C 1.06073 0.41410 0.05569
 Zr225 Zr 1.04888 0.50264 0.04208
 O226 O 1.11178 0.49914 0.04362
 O227 O 1.04623 0.50918 0.09416
 Zr228 Zr 1.05238 0.50050 -0.04051
 O229 O 1.11523 0.49675 -0.03818
 O230 O 1.05499 0.50455 -0.09279
 O231 O 1.05749 0.53693 0.00024
 O232 O 1.05893 0.46723 0.00165
 O233 O 0.93245 0.44632 0.06061
 O234 O 0.96923 0.40164 0.03122
 C235 C 0.94356 0.41089 0.05416
 O236 O 0.93034 0.55032 -0.06247
 O237 O 0.96397 0.59678 -0.03275
 C238 C 0.93853 0.58625 -0.05539
 O239 O 0.93752 0.44338 -0.06323
 O240 O 0.96986 0.40031 -0.02890
 C241 C 0.94673 0.40837 -0.05391
 O242 O 0.92353 0.55355 0.05322
 O243 O 0.96159 0.59821 0.02500
 C244 C 0.93282 0.58899 0.04515
 Zr245 Zr 0.94914 0.50000 0.03940
 O246 O 0.88661 0.49302 0.03655
 O247 O 0.94565 0.50651 0.09142
 Zr248 Zr 0.95250 0.49776 -0.04311
 O249 O 0.88979 0.49156 -0.04154
 O250 O 0.95102 0.50004 -0.09542
 Zr251 Zr 0.99907 0.55954 -0.00194
 Zr252 Zr 1.00241 0.44082 0.00069
 O253 O 0.94446 0.46403 -0.00128
 O254 O 0.94193 0.53405 -0.00293
 O255 O 0.99980 0.46650 0.04812
 O256 O 1.00183 0.53308 -0.04886
 O257 O 0.99782 0.53580 0.04615
 O258 O 1.00369 0.46407 -0.04773
 H259 H 1.08275 0.45017 0.00243
 H260 H 1.00260 0.54977 -0.06890
 H261 H 0.92181 0.44554 -0.00137
 H262 H 0.99663 0.55379 0.06530
 H263 H 1.03998 0.48232 -0.10206
 H264 H 0.97404 0.48489 -0.10354
 H265 H 0.87827 0.51664 -0.03409
 H266 H 0.87592 0.51470 0.02300
 H267 H 0.96466 0.48788 0.10140
 H268 H 1.03144 0.48666 0.10327
 H269 H 1.12254 0.52076 0.03007
 H270 H 1.12496 0.51962 -0.02573
 O271 O 0.56891 0.94752 0.56117
 O272 O 0.53750 0.90291 0.52787
 C273 C 0.56117 0.91210 0.55224
 O274 O 0.42275 1.05021 0.55579
 O275 O 0.45989 1.09724 0.52970
 C276 C 0.43105 1.08631 0.54926
 O277 O 0.42948 0.94318 0.55654
 O278 O 0.46793 0.90083 0.52614
 C279 C 0.44015 0.90840 0.54772
 O280 O 0.57166 1.05488 0.55859
 O281 O 0.53285 1.09947 0.53089
 C282 C 0.56150 1.09030 0.55121
 Zr283 Zr 0.54879 1.00108 0.54258
 O284 O 0.54543 1.00415 0.59487
 O285 O 0.61161 0.99757 0.54494
 Zr286 Zr 0.44995 0.99805 0.54090
 O287 O 0.45598 0.99754 0.59294
 O288 O 0.38725 0.99578 0.54532
 O289 O 0.50025 0.96383 0.54726
 O290 O 0.49801 1.03418 0.54876
 O291 O 0.57410 1.05915 0.44671
 O292 O 0.53390 1.10160 0.47541
 C293 C 0.56321 1.09394 0.45529
 O294 O 0.43528 0.94803 0.43632
 O295 O 0.46970 0.90307 0.46744
 C296 C 0.44541 0.91257 0.44360
 O297 O 0.42534 1.05504 0.44456
 O298 O 0.46163 1.09954 0.47443
 C299 C 0.43357 1.09035 0.45363
 O300 O 0.57168 0.95184 0.43879
 O301 O 0.53857 0.90495 0.46859
 C302 C 0.56325 0.91582 0.44547
 Zr303 Zr 0.55096 1.00424 0.45943
 O304 O 0.55078 1.01186 0.40738
 O305 O 0.61386 1.00062 0.45931
 Zr306 Zr 0.45176 1.00150 0.45763
 O307 O 0.45430 1.00939 0.40565
 O308 O 0.38919 0.99506 0.45547
 Zr309 Zr 0.50224 0.94178 0.49852
 Zr310 Zr 0.49839 1.06036 0.50165
 O311 O 0.50039 1.03771 0.45332
 O312 O 0.50263 0.96788 0.45108
 O313 O 0.55679 1.03764 0.50202
 O314 O 0.44442 0.96543 0.49809
 O315 O 0.55851 0.96863 0.50024
 O316 O 0.44168 1.03414 0.50009
 H317 H 0.49696 1.05151 0.56835
 H318 H 0.42142 0.94748 0.49673
 H319 H 0.50020 1.05643 0.43460
 H320 H 0.58256 0.95189 0.50019
 H321 H 0.37669 0.98549 0.52427
 H322 H 0.37764 1.01230 0.47260
 H323 H 0.46958 0.98738 0.39622
 H324 H 0.53691 0.98927 0.39752
 H325 H 0.62400 1.02059 0.47476
 H326 H 0.62249 1.01770 0.52992
 H327 H 0.52909 0.98191 0.60257
 H328 H 0.42856 0.99749 0.60195
 O329 O 1.04829 1.09058 0.45625
 O330 O 1.02438 1.04520 0.41969
 C331 C 1.04199 1.07771 0.42660
 O332 O 1.09240 0.95751 0.54703
 O333 O 1.04656 0.98009 0.58450
 C334 C 1.07958 0.96263 0.57696
 O335 O 1.09348 0.96337 0.45523
 O336 O 1.04471 0.98281 0.41909
 C337 C 1.07933 0.96800 0.42563
 O338 O 1.04474 1.09233 0.54814
 O339 O 1.02473 1.04555 0.58516
 C340 C 1.03952 1.07943 0.57798
 Zr341 Zr 1.03465 1.06528 0.50230
 O342 O 1.09481 1.08323 0.50510
 O343 O 1.01654 1.12431 0.49906
 Zr344 Zr 1.06595 0.97183 0.50153
 O345 O 1.12728 0.98545 0.50184
 O346 O 1.07912 0.91157 0.49989
 O347 O 1.05746 1.02122 0.47236
 O348 O 1.05785 1.02074 0.53076
 O349 O 0.91480 1.04851 0.54934
 O350 O 0.96171 1.02530 0.58562
 C351 C 0.92844 1.04263 0.57891
 O352 O 0.94984 0.92051 0.45761
 O353 O 0.97723 0.96286 0.41994
 C354 C 0.95555 0.93309 0.42778
 O355 O 0.95835 0.91628 0.54892
 O356 O 0.98203 0.96150 0.58591
 C357 C 0.96355 0.92951 0.57858
 O358 O 0.91161 1.04508 0.45724
 O359 O 0.95884 1.02480 0.42008
 C360 C 0.92469 1.04002 0.42736
 Zr361 Zr 0.93968 1.03463 0.50306
 O362 O 0.87976 1.01608 0.50658
 O363 O 0.92077 1.09350 0.49977
 Zr364 Zr 0.97183 0.94121 0.50274
 O365 O 0.91530 0.91451 0.50557
 O366 O 0.99695 0.88470 0.49872
 Zr367 Zr 1.00214 1.00353 0.45289
 Zr368 Zr 1.00359 1.00316 0.55195
 O369 O 0.94888 0.98562 0.53150
 O370 O 0.94765 0.98570 0.47384
 O371 O 0.98502 1.05722 0.53230
 O372 O 1.02055 0.94972 0.47269
 O373 O 0.98444 1.05697 0.47390
 O374 O 1.02174 0.94917 0.53205
 H375 H 1.08010 1.02799 0.54560
 H376 H 1.02690 0.92833 0.45707
 H377 H 0.92618 0.97879 0.54601
 H378 H 0.97678 1.07901 0.45933
 H379 H 1.10849 0.90957 0.49877
 H380 H 1.00999 0.87859 0.52008
 H381 H 0.89558 0.93588 0.50660
 H382 H 0.87547 0.99617 0.48923
 H383 H 0.93074 1.10733 0.51955
 H384 H 0.99478 1.12811 0.51520
 H385 H 1.10873 1.07277 0.48542
 H386 H 1.12948 1.01358 0.50671
 O387 O 0.58323 0.44675 0.04877
 O388 O 0.54018 0.47485 0.08587
 C389 C 0.57162 0.45467 0.07858
 O390 O 0.56261 0.57817 -0.04428
 O391 O 0.53027 0.53778 -0.08071
 C392 C 0.55418 0.56626 -0.07383
 O393 O 0.56779 0.57579 0.04707
 O394 O 0.53355 0.53890 0.08494
 C395 C 0.55970 0.56499 0.07702
 O396 O 0.57857 0.43994 -0.04263
 O397 O 0.53791 0.47112 -0.07999
 C398 C 0.56750 0.44845 -0.07250
 Zr399 Zr 0.55578 0.45823 0.00317
 O400 O 0.61867 0.45721 0.00176
 O401 O 0.55508 0.39666 0.00552
 Zr402 Zr 0.54480 0.55626 0.00181
 O403 O 0.60666 0.56707 -0.00135
 O404 O 0.53204 0.61663 0.00264
 O405 O 0.55855 0.50861 0.03156
 O406 O 0.55770 0.50759 -0.02610
 O407 O 0.43813 0.42523 -0.04161
 O408 O 0.47087 0.46348 -0.07955
 C409 C 0.44657 0.43567 -0.07160
 O410 O 0.42039 0.56025 0.04825
 O411 O 0.46317 0.53213 0.08558
 C412 C 0.43188 0.55246 0.07811
 O413 O 0.42295 0.56299 -0.04332
 O414 O 0.46300 0.53045 -0.08017
 C415 C 0.43347 0.55326 -0.07301
 O416 O 0.43287 0.43219 0.04963
 O417 O 0.46994 0.46788 0.08636
 C418 C 0.44275 0.44255 0.07927
 Zr419 Zr 0.45746 0.44769 0.00388
 O420 O 0.39646 0.43304 0.00225
 O421 O 0.47003 0.38734 0.00852
 Zr422 Zr 0.44623 0.54582 0.00258
 O423 O 0.38343 0.54283 -0.00002
 O424 O 0.44308 0.60747 0.00507
 Zr425 Zr 0.50140 0.50289 0.05253
 Zr426 Zr 0.50066 0.50115 -0.04674
 O427 O 0.44393 0.49544 -0.02519
 O428 O 0.44393 0.49645 0.03236
 O429 O 0.50728 0.44479 -0.02642
 O430 O 0.49501 0.55869 0.03149
 O431 O 0.50762 0.44630 0.03315
 O432 O 0.49446 0.55810 -0.02789
 H433 H 0.58139 0.51005 -0.04055
 H434 H 0.49274 0.58140 0.04653
 H435 H 0.41994 0.49276 -0.03924
 H436 H 0.51007 0.42433 0.04902
 H437 H 0.55813 0.63002 0.00286
 H438 H 0.45606 0.61800 -0.01505
 H439 H 0.37493 0.52113 0.01451
 H440 H 0.38163 0.45789 0.00091
 H441 H 0.48068 0.37824 -0.01298
 H442 H 0.58330 0.38842 0.00653
 H443 H 0.62744 0.48404 -0.00334
 H444 H 0.62012 0.54682 0.01207
 C445 C 0.31249 1.15089 0.13713
 C446 C 0.33829 1.17277 0.15713
 C447 C 0.32340 1.19782 0.18143
 C448 C 0.28217 1.20157 0.18665
 C449 C 0.25632 1.18057 0.16573
 C450 C 0.27133 1.15578 0.14102
 C451 C 0.32925 1.12079 0.11463
 C452 C 0.32179 1.12090 0.08031
 C453 C 0.34322 1.09581 0.05913
 C454 C 0.37183 1.07016 0.07225
 C455 C 0.37671 1.06819 0.10673
 C456 C 0.35582 1.09319 0.12761
 H457 H 0.34445 1.21337 0.19677
 H458 H 0.22450 1.18191 0.16919
 H459 H 0.33953 1.09841 0.03260
 H460 H 0.39880 1.04885 0.11741
 H461 H 0.25084 1.13899 0.12608
 H462 H 0.30137 1.14197 0.06976
 H463 H 0.37021 1.16972 0.15446
 H464 H 0.36171 1.09216 0.15396
 C465 C 0.81409 0.65124 0.63791
 C466 C 0.83956 0.67443 0.65714
 C467 C 0.82432 0.70008 0.68080
 C468 C 0.78305 0.70330 0.68605
 C469 C 0.75752 0.68087 0.66596
 C470 C 0.77287 0.65543 0.64191
 C471 C 0.83130 0.62088 0.61588
 C472 C 0.82172 0.61863 0.58198
 C473 C 0.84315 0.59349 0.56089
 C474 C 0.87394 0.57018 0.57368
 C475 C 0.88112 0.57045 0.60791
 C476 C 0.86014 0.59545 0.62871
 H477 H 0.84516 0.71657 0.69563
 H478 H 0.72571 0.68159 0.66962
 H479 H 0.83762 0.59429 0.53450
 H480 H 0.90491 0.55291 0.61830
 H481 H 0.75262 0.63764 0.62758
 H482 H 0.79949 0.63795 0.57155
 H483 H 0.87153 0.67201 0.65434
 H484 H 0.86765 0.59612 0.65478
 C485 C 0.69184 0.83916 0.13280
 C486 C 0.71750 0.85663 0.15587
 C487 C 0.73487 0.83441 0.18133
 C488 C 0.72647 0.79421 0.18498
 C489 C 0.70221 0.77681 0.16089
 C490 C 0.68618 0.79854 0.13486
 C491 C 0.66731 0.86302 0.10921
 C492 C 0.62839 0.85090 0.10212
 C493 C 0.60360 0.87307 0.08205
 C494 C 0.61609 0.90897 0.06866
 C495 C 0.65531 0.92121 0.07486
 C496 C 0.68071 0.89844 0.09505
 H497 H 0.75356 0.84932 0.19906
 H498 H 0.69437 0.74654 0.16202
 H499 H 0.57381 0.86217 0.07779
 H500 H 0.66588 0.94870 0.06499
 H501 H 0.66796 0.78343 0.11692
 H502 H 0.61609 0.82472 0.11305
 H503 H 0.72268 0.88777 0.15532
 H504 H 0.71061 0.90869 0.09977
 C505 C 1.19286 0.35144 0.63356
 C506 C 1.19768 0.36709 0.66542
 C507 C 1.21141 0.34387 0.69158
 C508 C 1.22063 0.30407 0.68687
 C509 C 1.21649 0.28877 0.65481
 C510 C 1.20315 0.31206 0.62855
 C511 C 1.17341 0.37481 0.60673
 C512 C 1.14625 0.35668 0.58529
 C513 C 1.12316 0.37873 0.56354
 C514 C 1.12640 0.41954 0.56251
 C515 C 1.15527 0.43783 0.58211
 C516 C 1.17864 0.41561 0.60408
 H517 H 1.21390 0.35728 0.71570
 H518 H 1.22232 0.25851 0.64990
 H519 H 1.10072 0.36402 0.54892
 H520 H 1.15784 0.46933 0.58212
 H521 H 1.20028 0.29890 0.60434
 H522 H 1.14069 0.32563 0.58678
 H523 H 1.18940 0.39700 0.67055
 H524 H 1.19968 0.43053 0.61986
 C525 C 0.68427 1.15855 -0.13013
 C526 C 0.72527 1.15731 -0.13640
 C527 C 0.74204 1.18131 -0.16090
 C528 C 0.71824 1.20752 -0.17928
 C529 C 0.67759 1.21022 -0.17123
 C530 C 0.66090 1.18609 -0.14706
 C531 C 0.66448 1.12838 -0.10945
 C532 C 0.63308 1.10711 -0.12328
 C533 C 0.61068 1.08175 -0.10389
 C534 C 0.61877 1.07705 -0.07001
 C535 C 0.65190 1.09616 -0.05637
 C536 C 0.67481 1.12166 -0.07611
 H537 H 0.77320 1.17752 -0.16665
 H538 H 0.65805 1.22968 -0.18474
 H539 H 0.58553 1.06710 -0.11512
 H540 H 0.65850 1.09328 -0.03025
 H541 H 0.62916 1.18774 -0.14256
 H542 H 0.62504 1.11108 -0.14903
 H543 H 0.74384 1.13606 -0.12390
 H544 H 0.69916 1.13761 -0.06500
 C545 C 1.17859 0.66802 0.36605
 C546 C 1.21916 0.66416 0.35854
 C547 C 1.23687 0.68832 0.33463
 C548 C 1.21449 0.71720 0.31799
 C549 C 1.17458 0.72259 0.32745
 C550 C 1.15698 0.69847 0.35117
 C551 C 1.15719 0.63792 0.38580
 C552 C 1.12185 0.62234 0.37309
 C553 C 1.09932 0.59618 0.39157
 C554 C 1.11121 0.58478 0.42353
 C555 C 1.14780 0.59845 0.43577
 C556 C 1.17076 0.62482 0.41691
 H557 H 1.26739 0.68250 0.32777
 H558 H 1.15605 0.74403 0.31517
 H559 H 1.07170 0.58565 0.38108
 H560 H 1.15765 0.59026 0.46033
 H561 H 1.12570 0.70240 0.35674
 H562 H 1.11122 0.63090 0.34883
 H563 H 1.23645 0.64077 0.36946
 H564 H 1.19819 0.63614 0.42712
 C565 C 0.31362 0.83454 -0.13629
 C566 C 0.27298 0.83672 -0.14392
 C567 C 0.25671 0.81256 -0.16847
 C568 C 0.28063 0.78535 -0.18558
 C569 C 0.32074 0.78166 -0.17606
 C570 C 0.33693 0.80585 -0.15179
 C571 C 0.33340 0.86491 -0.11590
 C572 C 0.36615 0.88460 -0.12935
 C573 C 0.38826 0.91030 -0.11017
 C574 C 0.37851 0.91703 -0.07683
 C575 C 0.34415 0.89944 -0.06370
 C576 C 0.32156 0.87355 -0.08325
 H577 H 0.22597 0.81704 -0.17533
 H578 H 0.34039 0.76141 -0.18854
 H579 H 0.41427 0.92381 -0.12113
 H580 H 0.33617 0.90391 -0.03802
 H581 H 0.36835 0.80342 -0.14620
 H582 H 0.37535 0.87921 -0.15464
 H583 H 0.25447 0.85882 -0.13253
 H584 H 0.29616 0.85889 -0.07244
 C585 C 0.81477 0.33122 0.36697
 C586 C 0.77381 0.33245 0.36058
 C587 C 0.75732 0.30909 0.33560
 C588 C 0.78138 0.28357 0.31683
 C589 C 0.82201 0.28087 0.32492
 C590 C 0.83841 0.30433 0.34960
 C591 C 0.83430 0.36100 0.38811
 C592 C 0.86565 0.38267 0.37458
 C593 C 0.88762 0.40797 0.39421
 C594 C 0.87918 0.41228 0.42807
 C595 C 0.84614 0.39266 0.44146
 C596 C 0.82365 0.36717 0.42146
 H597 H 0.72615 0.31278 0.32990
 H598 H 0.84171 0.26182 0.31121
 H599 H 0.91255 0.42315 0.38309
 H600 H 0.83917 0.39535 0.46752
 H601 H 0.87012 0.30271 0.35419
 H602 H 0.87387 0.37919 0.34882
 H603 H 0.75505 0.35323 0.37339
 H604 H 0.79929 0.35095 0.43233
 C605 C 1.16298 0.31590 0.13470
 C606 C 1.15798 0.27631 0.14237
 C607 C 1.18205 0.25842 0.16641
 C608 C 1.21213 0.27958 0.18288
 C609 C 1.21849 0.31859 0.17335
 C610 C 1.19439 0.33639 0.14956
 C611 C 1.13296 0.33757 0.11482
 C612 C 1.11678 0.37193 0.12791
 C613 C 1.09126 0.39502 0.10913
 C614 C 1.08124 0.38463 0.07653
 C615 C 1.09521 0.34891 0.06395
 C616 C 1.12089 0.32540 0.08308
 H617 H 1.17518 0.22877 0.17347
 H618 H 1.24062 0.33632 0.18562
 H619 H 1.08037 0.42195 0.11984
 H620 H 1.08796 0.34023 0.03891
 H621 H 1.19909 0.36694 0.14388
 H622 H 1.12455 0.38140 0.15265
 H623 H 1.13377 0.25996 0.13147
 H624 H 1.13264 0.29871 0.07261
 C625 C 0.66478 0.81537 0.63063
 C626 C 0.69516 0.83699 0.64583
 C627 C 0.71922 0.82020 0.67022
 C628 C 0.71350 0.78126 0.68020
 C629 C 0.68438 0.75907 0.66351
 C630 C 0.66055 0.77586 0.63878
 C631 C 0.63428 0.83592 0.61053
 C632 C 0.62546 0.82547 0.57762
 C633 C 0.59924 0.84849 0.55851
 C634 C 0.58143 0.88184 0.57238
 C635 C 0.58828 0.89016 0.60597
 C636 C 0.61442 0.86770 0.62467
 H637 H 0.74072 0.83857 0.68258
 H638 H 0.67794 0.72945 0.67091
 H639 H 0.59471 0.84159 0.53265
 H640 H 0.57464 0.91537 0.61751
 H641 H 0.63695 0.75877 0.62777
 H642 H 0.64025 0.80076 0.56633
 H643 H 0.69891 0.86763 0.64000
 H644 H 0.61999 0.87581 0.65016
 C645 C 1.15607 0.68436 -0.13853
 C646 C 1.18035 0.66037 -0.15817
 C647 C 1.20260 0.67580 -0.18419
 C648 C 1.20196 0.71601 -0.19131
 C649 C 1.17692 0.74007 -0.17213
 C650 C 1.15415 0.72440 -0.14604
 C651 C 1.13303 0.66656 -0.11075
 C652 C 1.09221 0.67432 -0.10601
 C653 C 1.06962 0.65169 -0.08371
 C654 C 1.08765 0.62108 -0.06599
 C655 C 1.12890 0.61560 -0.06892
 C656 C 1.15128 0.63812 -0.09082
 H657 H 1.22041 0.65586 -0.19873
 H658 H 1.17446 0.77090 -0.17742
 H659 H 1.03777 0.65621 -0.08214
 H660 H 1.14358 0.59232 -0.05545
 H661 H 1.13541 0.74360 -0.13155
 H662 H 1.07731 0.69605 -0.12103
 H663 H 1.18173 0.62923 -0.15372
 H664 H 1.18275 0.63196 -0.09333
 C665 C 0.65823 1.18481 0.36773
 C666 C 0.68380 1.16020 0.34977
 C667 C 0.70579 1.17445 0.32301
 C668 C 0.70380 1.21404 0.31393
 C669 C 0.67770 1.23854 0.33173
 C670 C 0.65516 1.22408 0.35826
 C671 C 0.63413 1.16856 0.39542
 C672 C 0.59284 1.17539 0.39764
 C673 C 0.56934 1.15389 0.41996
 C674 C 0.58696 1.12554 0.44034
 C675 C 0.62852 1.12136 0.44008
 C676 C 0.65184 1.14264 0.41795
 H677 H 0.72414 1.15416 0.30929
 H678 H 0.67386 1.26878 0.32486
 H679 H 0.53728 1.15707 0.41931
 H680 H 0.64273 1.09954 0.45552
 H681 H 0.63540 1.24363 0.37143
 H682 H 0.57841 1.19519 0.38051
 H683 H 0.68604 1.12951 0.35591
 H684 H 0.68360 1.13733 0.41727
 C685 C 0.84365 0.69118 0.13017
 C686 C 0.86368 0.70258 0.15903
 C687 C 0.84266 0.71759 0.18605
 C688 C 0.80083 0.72148 0.18522
 C689 C 0.78131 0.71191 0.15558
 C690 C 0.80230 0.69698 0.12851
 C691 C 0.86504 0.66935 0.10369
 C692 C 0.84714 0.63640 0.08948
 C693 C 0.86872 0.61196 0.06858
 C694 C 0.90876 0.61979 0.06114
 C695 C 0.92613 0.65405 0.07339
 C696 C 0.90450 0.67854 0.09470
 H697 H 0.85953 0.72513 0.20791
 H698 H 0.74963 0.71439 0.15335
 H699 H 0.85457 0.58573 0.05941
 H700 H 0.95703 0.66056 0.06821
 H701 H 0.78591 0.68904 0.10647
 H702 H 0.81711 0.62805 0.09609
 H703 H 0.89546 0.69822 0.16139
 H704 H 0.91902 0.70395 0.10498
 C705 C 0.33270 1.19042 0.62794
 C706 C 0.35096 1.21736 0.64922
 C707 C 0.32935 1.23486 0.67491
 C708 C 0.28900 1.22540 0.68060
 C709 C 0.27049 1.20008 0.65809
 C710 C 0.29166 1.18364 0.63182
 C711 C 0.35675 1.16605 0.60456
 C712 C 0.34585 1.12702 0.59938
 C713 C 0.36925 1.10239 0.58024
 C714 C 0.40501 1.11544 0.56590
 C715 C 0.41571 1.15478 0.56995
 C716 C 0.39179 1.17987 0.58916
 H717 H 0.34510 1.25429 0.69142
 H718 H 0.23970 1.19233 0.66057
 H719 H 0.35960 1.07243 0.57755
 H720 H 0.44302 1.16576 0.55923
 H721 H 0.27592 1.16437 0.61518
 H722 H 0.31993 1.11462 0.61129
 H723 H 0.38247 1.22340 0.64729
 H724 H 0.40104 1.20987 0.59230
 C725 C 0.84740 0.31223 -0.13503
 C726 C 0.82071 0.33560 -0.15300
 C727 C 0.79527 0.31921 -0.17644
 C728 C 0.79564 0.27882 -0.18270
 C729 C 0.82129 0.25519 -0.16358
 C730 C 0.84665 0.27171 -0.13977
 C731 C 0.87822 0.33126 -0.11421
 C732 C 0.88290 0.32259 -0.08033
 C733 C 0.90812 0.34552 -0.06040
 C734 C 0.92898 0.37708 -0.07433
 C735 C 0.92654 0.38338 -0.10863
 C736 C 0.90147 0.36089 -0.12825
 H737 H 0.77638 0.33866 -0.19057
 H738 H 0.82331 0.22418 -0.16801
 H739 H 0.90917 0.34035 -0.03396
 H740 H 0.94248 0.40736 -0.12005
 H741 H 0.86718 0.25311 -0.12639
 H742 H 0.86532 0.29973 -0.06899
 H743 H 0.82049 0.36695 -0.14964
 H744 H 0.89896 0.36772 -0.15436
 C745 C 0.34544 0.82019 0.36007
 C746 C 0.34222 0.77956 0.35677
 C747 C 0.31634 0.76342 0.33319
 C748 C 0.29277 0.78759 0.31278
 C749 C 0.29480 0.82819 0.31756
 C750 C 0.32061 0.84418 0.34086
 C751 C 0.37633 0.83842 0.38132
 C752 C 0.39972 0.86849 0.36805
 C753 C 0.42480 0.89020 0.38827
 C754 C 0.42734 0.88244 0.42232
 C755 C 0.40639 0.85048 0.43542
 C756 C 0.38102 0.82846 0.41494
 H757 H 0.31617 0.73212 0.33009
 H758 H 0.27732 0.84800 0.30256
 H759 H 0.44074 0.91461 0.37756
 H760 H 0.40749 0.84430 0.46170
 H761 H 0.32199 0.87562 0.34326
 H762 H 0.39737 0.87626 0.34213
 H763 H 0.36112 0.76043 0.37122
 H764 H 0.36337 0.80528 0.42572
 C765 C 1.13084 1.16388 0.33284
 C766 C 1.16095 1.18555 0.34821
 C767 C 1.18987 1.20398 0.32935
 C768 C 1.18939 1.20097 0.29473
 C769 C 1.15941 1.17870 0.27944
 C770 C 1.13039 1.16033 0.29837
 C771 C 1.10122 1.14370 0.35321
 C772 C 1.09217 1.10440 0.34714
 C773 C 1.07002 1.08328 0.37008
 C774 C 1.05713 1.10127 0.39931
 C775 C 1.06332 1.14133 0.40396
 C776 C 1.08507 1.16247 0.38093
 H777 H 1.21219 1.22097 0.34207
 H778 H 1.15777 1.17569 0.25283
 H779 H 1.06553 1.05234 0.36612
 H780 H 1.05293 1.15587 0.42614
 H781 H 1.10736 1.14371 0.28608
 H782 H 1.10446 1.08939 0.32589
 H783 H 1.16237 1.18794 0.37491
 H784 H 1.09093 1.19305 0.38556
 C785 C 0.64020 0.65792 -0.16710
 C786 C 0.66447 0.68644 -0.15266
 C787 C 0.68914 0.70929 -0.17216
 C788 C 0.68972 0.70455 -0.20664
 C789 C 0.66380 0.67721 -0.22120
 C790 C 0.63924 0.65407 -0.20155
 C791 C 0.61825 0.63078 -0.14573
 C792 C 0.57827 0.62126 -0.15196
 C793 C 0.55716 0.59831 -0.12934
 C794 C 0.57599 0.58525 -0.10046
 C795 C 0.61642 0.59290 -0.09538
 C796 C 0.63745 0.61522 -0.11792
 H797 H 0.70867 0.72967 -0.15990
 H798 H 0.66314 0.67269 -0.24768
 H799 H 0.52595 0.59246 -0.13350
 H800 H 0.63157 0.58227 -0.07346
 H801 H 0.62075 0.63215 -0.21314
 H802 H 0.56305 0.63287 -0.17345
 H803 H 0.66511 0.69037 -0.12606
 H804 H 0.66860 0.62109 -0.11321
 C805 C 0.84065 1.13165 0.67175
 C806 C 0.84393 1.13135 0.70625
 C807 C 0.82383 1.15913 0.72497
 C808 C 0.80021 1.18782 0.70946
 C809 C 0.79783 1.18835 0.67479
 C810 C 0.81781 1.16056 0.65614
 C811 C 0.86167 1.10260 0.65163
 C812 C 0.84234 1.08565 0.62451
 C813 C 0.86379 1.06365 0.60188
 C814 C 0.90478 1.05808 0.60622
 C815 C 0.92348 1.07204 0.63486
 C816 C 0.90198 1.09437 0.65747
 H817 H 0.82655 1.15753 0.75161
 H818 H 0.77999 1.20976 0.66186
 H819 H 0.84870 1.05251 0.58019
 H820 H 0.95516 1.06809 0.63857
 H821 H 0.81557 1.16181 0.62942
 H822 H 0.81100 1.09089 0.62007
 H823 H 0.86147 1.10926 0.71872
 H824 H 0.91741 1.10723 0.67829
 C825 C 0.33894 0.64087 0.16875
 C826 C 0.34167 0.64071 0.20330
 C827 C 0.32003 0.66756 0.22187
 C828 C 0.29528 0.69521 0.20621
 C829 C 0.29295 0.69531 0.17152
 C830 C 0.31458 0.66852 0.15302
 C831 C 0.36178 0.61283 0.14879
 C832 C 0.34384 0.59526 0.12131
 C833 C 0.36654 0.57352 0.09935
 C834 C 0.40747 0.56867 0.10468
 C835 C 0.42496 0.58349 0.13351
 C836 C 0.40219 0.60567 0.15546
 H837 H 0.32276 0.66625 0.24852
 H838 H 0.27429 0.71593 0.15847
 H839 H 0.35239 0.56168 0.07748
 H840 H 0.45656 0.58008 0.13791
 H841 H 0.31256 0.66969 0.12628
 H842 H 0.31250 0.59954 0.11618
 H843 H 0.36014 0.61950 0.21595
 H844 H 0.41662 0.61900 0.17655
 C845 C 1.16624 0.86979 0.66923
 C846 C 1.20746 0.87181 0.67403
 C847 C 1.22742 0.84180 0.69014
 C848 C 1.20663 0.80896 0.70183
 C849 C 1.16502 0.80786 0.69834
 C850 C 1.14508 0.83776 0.68183
 C851 C 1.14599 0.89920 0.64861
 C852 C 1.10745 0.91224 0.65637
 C853 C 1.08644 0.93550 0.63400
 C854 C 1.10375 0.94573 0.60358
 C855 C 1.14324 0.93496 0.59698
 C856 C 1.16411 0.91184 0.61922
 H857 H 1.25919 0.84471 0.69365
 H858 H 1.14783 0.78359 0.70779
 H859 H 1.05600 0.94348 0.63964
 H860 H 1.15742 0.94274 0.57381
 H861 H 1.11329 0.83527 0.67813
 H862 H 1.09311 0.90332 0.67917
 H863 H 1.22436 0.89661 0.66516
 H864 H 1.19361 0.90196 0.61241
 C865 C 0.65856 0.36027 0.16853
 C866 C 0.68041 0.33084 0.15262
 C867 C 0.70062 0.30283 0.17102
 C868 C 0.69931 0.30362 0.20572
 C869 C 0.67659 0.33276 0.22152
 C870 C 0.65640 0.36075 0.20308
 C871 C 0.63794 0.39015 0.14885
 C872 C 0.59842 0.40056 0.15605
 C873 C 0.57729 0.42459 0.13438
 C874 C 0.59549 0.43802 0.10531
 C875 C 0.63588 0.43018 0.09962
 C876 C 0.65698 0.40652 0.12129
 H877 H 0.71787 0.28113 0.15793
 H878 H 0.67472 0.33465 0.24819
 H879 H 0.54611 0.43031 0.13912
 H880 H 0.65062 0.44085 0.07754
 H881 H 0.63979 0.38327 0.21585
 H882 H 0.58321 0.38828 0.17727
 H883 H 0.68184 0.32948 0.12586
 H884 H 0.68778 0.39975 0.11582
 C885 C 0.86106 0.84786 0.33634
 C886 C 0.83667 0.81931 0.35072
 C887 C 0.81164 0.79701 0.33121
 C888 C 0.81098 0.80222 0.29678
 C889 C 0.83597 0.83053 0.28237
 C890 C 0.86082 0.85316 0.30202
 C891 C 0.88528 0.87291 0.35766
 C892 C 0.92504 0.88173 0.34973
 C893 C 0.94839 0.90278 0.37202
 C894 C 0.93202 0.91436 0.40230
 C895 C 0.89193 0.90718 0.40935
 C896 C 0.86864 0.88695 0.38710
 H897 H 0.79239 0.77626 0.34339
 H898 H 0.83627 0.83567 0.25595
 H899 H 0.97933 0.90856 0.36634
 H900 H 0.87869 0.91698 0.43236
 H901 H 0.87912 0.87535 0.29051
 H902 H 0.93831 0.87120 0.32701
 H903 H 0.83673 0.81440 0.37721
 H904 H 0.83773 0.88164 0.39320
 C905 C 0.35984 0.34304 -0.16390
 C906 C 0.33483 0.31464 -0.15001
 C907 C 0.31014 0.29249 -0.17003
 C908 C 0.31041 0.29770 -0.20447
 C909 C 0.33697 0.32493 -0.21844
 C910 C 0.36139 0.34746 -0.19830
 C911 C 0.38209 0.36949 -0.14214
 C912 C 0.42168 0.37999 -0.14906
 C913 C 0.44281 0.40326 -0.12681
 C914 C 0.42454 0.41560 -0.09749
 C915 C 0.38454 0.40664 -0.09149
 C916 C 0.36342 0.38407 -0.11372
 H917 H 0.29010 0.27213 -0.15822
 H918 H 0.33831 0.32987 -0.24486
 H919 H 0.47363 0.41014 -0.13174
 H920 H 0.36972 0.41674 -0.06927
 H921 H 0.38029 0.36935 -0.20955
 H922 H 0.43658 0.36918 -0.17097
 H923 H 0.33369 0.31016 -0.12348
 H924 H 0.33253 0.37759 -0.10844
 C925 C 1.16359 0.31494 -0.13228
 C926 C 1.19408 0.33672 -0.14722
 C927 C 1.21796 0.32038 -0.17187
 C928 C 1.21206 0.28168 -0.18236
 C929 C 1.18285 0.25925 -0.16594
 C930 C 1.15909 0.27564 -0.14098
 C931 C 1.13348 0.33523 -0.11163
 C932 C 1.12491 0.32399 -0.07882
 C933 C 1.09952 0.34703 -0.05902
 C934 C 1.08241 0.38120 -0.07209
 C935 C 1.08884 0.39031 -0.10559
 C936 C 1.11411 0.36781 -0.12500
 H937 H 1.23956 0.33896 -0.18397
 H938 H 1.17641 0.22978 -0.17367
 H939 H 1.09514 0.33945 -0.03324
 H940 H 1.07556 0.41612 -0.11649
 H941 H 1.13542 0.25844 -0.13012
 H942 H 1.13931 0.29866 -0.06814
 H943 H 1.19810 0.36717 -0.14091
 H944 H 1.11945 0.37656 -0.15040
 C945 C 0.66281 0.81801 0.36399
 C946 C 0.65689 0.77892 0.35508
 C947 C 0.68122 0.76136 0.33106
 C948 C 0.71251 0.78230 0.31595
 C949 C 0.71906 0.82100 0.32613
 C950 C 0.69483 0.83842 0.34992
 C951 C 0.63337 0.83954 0.38445
 C952 C 0.61837 0.87494 0.37235
 C953 C 0.59382 0.89809 0.39185
 C954 C 0.58356 0.88674 0.42419
 C955 C 0.59638 0.85012 0.43584
 C956 C 0.62116 0.82655 0.41597
 H957 H 0.67399 0.73211 0.32314
 H958 H 0.74170 0.83881 0.31457
 H959 H 0.58376 0.92572 0.38182
 H960 H 0.58889 0.84067 0.46065
 H961 H 0.70004 0.86866 0.35633
 H962 H 0.62641 0.88518 0.34787
 H963 H 0.63199 0.76276 0.36516
 H964 H 0.63214 0.79913 0.42570
 C965 C 0.83587 0.68436 -0.13434
 C966 C 0.80446 0.66389 -0.14924
 C967 C 0.78082 0.68149 -0.17342
 C968 C 0.78758 0.72031 -0.18329
 C969 C 0.81747 0.74157 -0.16670
 C970 C 0.84117 0.72384 -0.14232
 C971 C 0.86571 0.66263 -0.11432
 C972 C 0.87826 0.67508 -0.08277
 C973 C 0.90397 0.65156 -0.06362
 C974 C 0.91747 0.61557 -0.07602
 C975 C 0.90684 0.60484 -0.10839
 C976 C 0.88134 0.62791 -0.12717
 H977 H 0.75876 0.66371 -0.18573
 H978 H 0.82448 0.77114 -0.17394
 H979 H 0.91170 0.66053 -0.03876
 H980 H 0.91738 0.57772 -0.11900
 H981 H 0.86539 0.74018 -0.13141
 H982 H 0.86690 0.70203 -0.07248
 H983 H 0.79953 0.63342 -0.14338
 H984 H 0.87319 0.61816 -0.15175
 C985 C 0.33268 1.18420 0.37127
 C986 C 0.33776 1.22338 0.36196
 C987 C 0.31588 1.23933 0.33567
 C988 C 0.28817 1.21659 0.31800
 C989 C 0.28270 1.17758 0.32783
 C990 C 0.30443 1.16172 0.35411
 C991 C 0.35813 1.16576 0.39727
 C992 C 0.34203 1.13729 0.41844
 C993 C 0.36672 1.11494 0.43879
 C994 C 0.40803 1.12084 0.43895
 C995 C 0.42407 1.15129 0.41995
 C996 C 0.39929 1.17356 0.39918
 H997 H 0.32196 1.26912 0.32853
 H998 H 0.26242 1.15873 0.31456
 H999 H 0.35372 1.09159 0.45331
 H1000 H 0.45593 1.15592 0.41931
 H1001 H 0.30024 1.13119 0.36005
 H1002 H 0.31044 1.13115 0.41829
 H1003 H 0.35912 1.24159 0.37468
 H1004 H 0.41274 1.19512 0.38310
 C1005 C 1.15318 0.68790 0.13512
 C1006 C 1.15074 0.72798 0.14212
 C1007 C 1.17342 0.74432 0.16783
 C1008 C 1.19888 0.72092 0.18727
 C1009 C 1.20027 0.68065 0.18059
 C1010 C 1.17818 0.66453 0.15477
 C1011 C 1.12968 0.66954 0.10798
 C1012 C 1.14791 0.64174 0.08747
 C1013 C 1.12529 0.61908 0.06590
 C1014 C 1.08383 0.62369 0.06401
 C1015 C 1.06569 0.65351 0.08248
 C1016 C 1.08852 0.67636 0.10433
 H1017 H 1.17039 0.77517 0.17274
 H1018 H 1.21836 0.66122 0.19544
 H1019 H 1.14000 0.59631 0.05189
 H1020 H 1.03371 0.65722 0.08184
 H1021 H 1.18004 0.63338 0.15059
 H1022 H 1.17960 0.63627 0.08922
 H1023 H 1.13151 0.74668 0.12757
 H1024 H 1.07364 0.69750 0.11991
 C1025 C 0.65805 1.18278 0.63735
 C1026 C 0.65638 1.22277 0.64474
 C1027 C 0.67943 1.23828 0.67053
 C1028 C 0.70443 1.21409 0.68971
 C1029 C 0.70532 1.17397 0.68246
 C1030 C 0.68287 1.15868 0.65652
 C1031 C 0.63367 1.16529 0.61043
 C1032 C 0.65083 1.13720 0.58960
 C1033 C 0.62722 1.11520 0.56833
 C1034 C 0.58585 1.12084 0.56709
 C1035 C 0.56882 1.15105 0.58579
 C1036 C 0.59265 1.17320 0.60737
 H1037 H 0.67689 1.26909 0.67579
 H1038 H 0.72316 1.15403 0.69704
 H1039 H 0.64106 1.09217 0.55402
 H1040 H 0.53693 1.15559 0.58551
 H1041 H 0.68419 1.12758 0.65195
 H1042 H 0.68240 1.13099 0.59088
 H1043 H 0.63737 1.24201 0.63051
 H1044 H 0.57863 1.19468 0.62318
 C1045 C 0.84633 0.31388 0.13825
 C1046 C 0.81907 0.33634 0.15645
 C1047 C 0.79415 0.31912 0.17991
 C1048 C 0.79519 0.27862 0.18587
 C1049 C 0.82114 0.25577 0.16642
 C1050 C 0.84627 0.27319 0.14271
 C1051 C 0.87635 0.33405 0.11699
 C1052 C 0.88396 0.32295 0.08398
 C1053 C 0.90839 0.34618 0.06343
 C1054 C 0.92553 0.38064 0.07580
 C1055 C 0.92021 0.38974 0.10939
 C1056 C 0.89609 0.36685 0.12964
 H1057 H 0.77498 0.33809 0.19421
 H1058 H 0.82337 0.22465 0.17045
 H1059 H 0.91188 0.33857 0.03759
 H1060 H 0.93348 0.41579 0.11975
 H1061 H 0.86702 0.25514 0.12909
 H1062 H 0.86938 0.29760 0.07364
 H1063 H 0.81786 0.36770 0.15323
 H1064 H 0.89179 0.37561 0.15514
 C1065 C 0.34943 0.80550 0.63076
 C1066 C 0.30902 0.79643 0.62616
 C1067 C 0.28605 0.78181 0.65227
 C1068 C 0.30270 0.77566 0.68377
 C1069 C 0.34366 0.78324 0.68784
 C1070 C 0.36662 0.79796 0.66178
 C1071 C 0.37229 0.82686 0.60478
 C1072 C 0.41331 0.82025 0.59969
 C1073 C 0.43556 0.84485 0.57884
 C1074 C 0.41709 0.87655 0.56311
 C1075 C 0.37584 0.88161 0.56663
 C1076 C 0.35372 0.85709 0.58708
 H1077 H 0.25491 0.77689 0.64787
 H1078 H 0.35816 0.77891 0.71145
 H1079 H 0.46739 0.84063 0.57671
 H1080 H 0.36096 0.90596 0.55475
 H1081 H 0.39746 0.80513 0.66644
 H1082 H 0.42842 0.79692 0.61272
 H1083 H 0.29481 0.80155 0.60251
 H1084 H 0.32246 0.86349 0.59061
 C1085 C 0.31341 1.15306 -0.13981
 C1086 C 0.27206 1.15621 -0.14408
 C1087 C 0.25625 1.18083 -0.16870
 C1088 C 0.28145 1.20335 -0.18910
 C1089 C 0.32277 1.20080 -0.18380
 C1090 C 0.33840 1.17620 -0.15955
 C1091 C 0.33155 1.12408 -0.11682
 C1092 C 0.36219 1.10004 -0.12865
 C1093 C 0.38418 1.07686 -0.10704
 C1094 C 0.37618 1.07688 -0.07295
 C1095 C 0.34375 1.09867 -0.06106
 C1096 C 0.32142 1.12215 -0.08298
 H1097 H 0.22442 1.18118 -0.17236
 H1098 H 0.34343 1.21744 -0.19873
 H1099 H 0.40889 1.06011 -0.11682
 H1100 H 0.33728 1.09937 -0.03481
 H1101 H 0.37040 1.17472 -0.15658
 H1102 H 0.37018 1.10034 -0.15463
 H1103 H 0.25213 1.13845 -0.12935
 H1104 H 0.29784 1.14040 -0.07327
 C1105 C 0.81366 0.65545 0.36672
 C1106 C 0.77290 0.66312 0.36334
 C1107 C 0.75924 0.68833 0.33838
 C1108 C 0.78611 0.70693 0.31666
 C1109 C 0.82711 0.70070 0.32157
 C1110 C 0.84063 0.67512 0.34609
 C1111 C 0.82849 0.62469 0.38948
 C1112 C 0.85017 0.59335 0.37636
 C1113 C 0.86995 0.56733 0.39723
 C1114 C 0.86878 0.57217 0.43170
 C1115 C 0.84498 0.60194 0.44510
 C1116 C 0.82458 0.62791 0.42404
 H1117 H 0.72755 0.69170 0.33529
 H1118 H 0.84894 0.71448 0.30572
 H1119 H 0.88884 0.54512 0.38636
 H1120 H 0.84465 0.60693 0.47155
 H1121 H 0.87229 0.66984 0.34843
 H1122 H 0.85345 0.59020 0.34982
 H1123 H 0.75157 0.64809 0.37888
 H1124 H 0.80809 0.65201 0.43465
 C1125 C 0.68172 1.15584 0.13581
 C1126 C 0.65928 1.18488 0.15177
 C1127 C 0.67680 1.20975 0.17490
 C1128 C 0.71743 1.20645 0.18284
 C1129 C 0.74050 1.17911 0.16508
 C1130 C 0.72286 1.15422 0.14169
 C1131 C 0.66091 1.12521 0.11620
 C1132 C 0.67304 1.11439 0.08408
 C1133 C 0.64988 1.08833 0.06515
 C1134 C 0.61454 1.07266 0.07828
 C1135 C 0.60435 1.08153 0.11118
 C1136 C 0.62708 1.10739 0.12978
 H1137 H 0.65782 1.23020 0.18785
 H1138 H 0.77173 1.17521 0.17056
 H1139 H 0.65831 1.08224 0.03981
 H1140 H 0.57762 1.06956 0.12222
 H1141 H 0.74088 1.13210 0.12979
 H1142 H 0.69922 1.12748 0.07312
 H1143 H 0.62758 1.18723 0.14738
 H1144 H 0.61757 1.11427 0.15472
 C1145 C 1.18984 0.66314 0.62590
 C1146 C 1.18208 0.70336 0.62915
 C1147 C 1.19821 0.72489 0.65523
 C1148 C 1.22409 0.70752 0.67821
 C1149 C 1.23453 0.66800 0.67317
 C1150 C 1.21741 0.64608 0.64765
 C1151 C 1.16564 0.63864 0.60277
 C1152 C 1.18048 0.60417 0.58798
 C1153 C 1.15539 0.57984 0.56910
 C1154 C 1.11508 0.58956 0.56490
 C1155 C 1.10108 0.62472 0.57860
 C1156 C 1.12566 0.64851 0.59734
 H1157 H 1.18964 0.75497 0.65731
 H1158 H 1.25444 0.65311 0.69005
 H1159 H 1.16709 0.55302 0.55883
 H1160 H 1.07035 0.63364 0.57562
 H1161 H 1.22415 0.61524 0.64625
 H1162 H 1.21124 0.59571 0.59136
 H1163 H 1.16224 0.71814 0.61216
 H1164 H 1.11246 0.67397 0.60875
 C1165 C 0.68529 0.84996 -0.14076
 C1166 C 0.72664 0.84523 -0.14367
 C1167 C 0.74263 0.82018 -0.16782
 C1168 C 0.71757 0.79882 -0.18913
 C1169 C 0.67615 0.80254 -0.18491
 C1170 C 0.66034 0.82769 -0.16117
 C1171 C 0.66733 0.87967 -0.11842
 C1172 C 0.63884 0.90544 -0.13135
 C1173 C 0.61654 0.92925 -0.11046
 C1174 C 0.62203 0.92802 -0.07602
 C1175 C 0.65268 0.90462 -0.06303
 C1176 C 0.67536 0.88061 -0.08420
 H1177 H 0.77457 0.81871 -0.17048
 H1178 H 0.65563 0.78665 -0.20048
 H1179 H 0.59315 0.94708 -0.12110
 H1180 H 0.65710 0.90279 -0.03653
 H1181 H 0.62831 0.83037 -0.15917
 H1182 H 0.63253 0.90585 -0.15764
 H1183 H 0.74654 0.86218 -0.12832
 H1184 H 0.69729 0.86105 -0.07366
 C1185 C 1.18469 0.34754 0.35980
 C1186 C 1.16014 0.32237 0.34159
 C1187 C 1.17627 0.29630 0.31871
 C1188 C 1.21760 0.29441 0.31327
 C1189 C 1.24236 0.31850 0.33265
 C1190 C 1.22609 0.34454 0.35589
 C1191 C 1.16618 0.37848 0.38058
 C1192 C 1.17627 0.38377 0.41413
 C1193 C 1.15369 0.40905 0.43429
 C1194 C 1.12106 0.42941 0.42095
 C1195 C 1.11332 0.42633 0.38691
 C1196 C 1.13553 0.40126 0.36702
 H1197 H 1.15594 0.27860 0.30441
 H1198 H 1.27418 0.31868 0.32890
 H1199 H 1.15987 0.41049 0.46056
 H1200 H 1.08837 0.44172 0.37599
 H1201 H 1.24568 0.36373 0.36952
 H1202 H 1.19990 0.36663 0.42514
 H1203 H 1.12811 0.32367 0.34440
 H1204 H 1.12762 0.39841 0.34115
 C1205 C 0.30878 0.83301 0.12731
 C1206 C 0.26873 0.83779 0.13646
 C1207 C 0.25280 0.81700 0.16333
 C1208 C 0.27652 0.79093 0.18182
 C1209 C 0.31651 0.78610 0.17234
 C1210 C 0.33227 0.80655 0.14543
 C1211 C 0.32719 0.85676 0.10032
 C1212 C 0.35600 0.83995 0.07954
 C1213 C 0.37891 0.86318 0.05850
 C1214 C 0.37330 0.90376 0.05729
 C1215 C 0.34226 0.92040 0.07577
 C1216 C 0.31939 0.89706 0.09721
 H1217 H 0.22221 0.82247 0.17017
 H1218 H 0.33618 0.76715 0.18623
 H1219 H 0.40263 0.84966 0.04440
 H1220 H 0.33777 0.95169 0.07561
 H1221 H 0.36348 0.80273 0.13965
 H1222 H 0.36213 0.80896 0.08066
 H1223 H 0.24981 0.85793 0.12306
 H1224 H 0.29752 0.91099 0.11294
 C1225 C 0.81742 0.33056 0.63570
 C1226 C 0.77675 0.33426 0.64302
 C1227 C 0.75937 0.31146 0.66812
 C1228 C 0.78220 0.28419 0.68622
 C1229 C 0.82237 0.27924 0.67737
 C1230 C 0.83956 0.30181 0.65239
 C1231 C 0.83844 0.35909 0.61395
 C1232 C 0.87417 0.37534 0.62524
 C1233 C 0.89661 0.39965 0.60500
 C1234 C 0.88423 0.40872 0.57265
 C1235 C 0.84728 0.39451 0.56166
 C1236 C 0.82444 0.36981 0.58228
 H1237 H 0.72858 0.31680 0.67441
 H1238 H 0.84126 0.25899 0.69067
 H1239 H 0.92446 0.41082 0.61457
 H1240 H 0.83699 0.40109 0.53688
 H1241 H 0.87089 0.29789 0.64703
 H1242 H 0.88517 0.36875 0.64982
 H1243 H 0.75900 0.35635 0.63076
 H1244 H 0.79675 0.35796 0.57307
 C1245 C 1.12461 1.16946 0.67245
 C1246 C 1.12307 1.21014 0.67589
 C1247 C 1.15350 1.22989 0.69208
 C1248 C 1.18624 1.20941 0.70508
 C1249 C 1.18673 1.16846 0.70290
 C1250 C 1.15650 1.14877 0.68643
 C1251 C 1.09549 1.14897 0.65147
 C1252 C 1.08248 1.11117 0.65955
 C1253 C 1.06149 1.08909 0.63643
 C1254 C 1.05339 1.10461 0.60498
 C1255 C 1.06331 1.14358 0.59813
 C1256 C 1.08428 1.16550 0.62110
 H1257 H 1.15102 1.26121 0.69462
 H1258 H 1.21088 1.15150 0.71329
 H1259 H 1.05385 1.05922 0.64243
 H1260 H 1.05690 1.15652 0.57425
 H1261 H 1.15880 1.11742 0.68374
 H1262 H 1.09012 1.09808 0.68312
 H1263 H 1.09842 1.22674 0.66587
 H1264 H 1.09406 1.19443 0.61407
 C1265 C 0.65320 0.64250 0.17439
 C1266 C 0.63656 0.67562 0.18915
 C1267 C 0.66075 0.70162 0.20619
 C1268 C 0.70203 0.69504 0.20827
 C1269 C 0.71791 0.66029 0.19538
 C1270 C 0.69376 0.63444 0.17834
 C1271 C 0.62972 0.61953 0.15109
 C1272 C 0.64504 0.61333 0.11932
 C1273 C 0.62204 0.59520 0.09554
 C1274 C 0.58339 0.58275 0.10315
 C1275 C 0.56833 0.58766 0.13525
 C1276 C 0.59134 0.60646 0.15912
 H1277 H 0.64720 0.72743 0.21672
 H1278 H 0.74919 0.65330 0.19780
 H1279 H 0.63449 0.59114 0.07104
 H1280 H 0.53858 0.57802 0.14151
 H1281 H 0.70693 0.60865 0.16737
 H1282 H 0.67437 0.62373 0.11255
 H1283 H 0.60527 0.68234 0.18614
 H1284 H 0.57919 0.61119 0.18362
 C1285 C 1.16223 0.87409 0.33249
 C1286 C 1.15815 0.87405 0.29800
 C1287 C 1.17575 0.84469 0.27918
 C1288 C 1.19777 0.81468 0.29450
 C1289 C 1.20101 0.81450 0.32915
 C1290 C 1.18343 0.84381 0.34792
 C1291 C 1.14339 0.90472 0.35277
 C1292 C 1.16338 0.91979 0.38040
 C1293 C 1.14330 0.94330 0.40296
 C1294 C 1.10298 0.95231 0.39812
 C1295 C 1.08406 0.94032 0.36888
 C1296 C 1.10411 0.91653 0.34639
 H1297 H 1.17259 0.84616 0.25256
 H1298 H 1.21784 0.79221 0.34195
 H1299 H 1.15874 0.95267 0.42509
 H1300 H 1.05294 0.94679 0.36458
 H1301 H 1.18625 0.84264 0.37460
 H1302 H 1.19404 0.91196 0.38532
 H1303 H 1.14194 0.89711 0.28554
 H1304 H 1.08803 0.90529 0.32525
 C1305 C 0.65685 0.35820 -0.16413
 C1306 C 0.65462 0.35953 -0.19869
 C1307 C 0.67578 0.33268 -0.21759
 C1308 C 0.69952 0.30398 -0.20223
 C1309 C 0.70115 0.30257 -0.16756
 C1310 C 0.67990 0.32925 -0.14873
 C1311 C 0.63518 0.38663 -0.14378
 C1312 C 0.65358 0.40217 -0.11563
 C1313 C 0.63170 0.42411 -0.09332
 C1314 C 0.59122 0.43135 -0.09902
 C1315 C 0.57356 0.41887 -0.12854
 C1316 C 0.59541 0.39627 -0.15079
 H1317 H 0.67372 0.33494 -0.24425
 H1318 H 0.71917 0.28122 -0.15476
 H1319 H 0.64612 0.43437 -0.07099
 H1320 H 0.54247 0.42461 -0.13341
 H1321 H 0.68141 0.32715 -0.12201
 H1322 H 0.68457 0.39614 -0.11029
 H1323 H 0.63712 0.38172 -0.21107
 H1324 H 0.58068 0.38466 -0.17246
 C1325 C 0.83752 1.12987 0.33366
 C1326 C 0.81688 1.16076 0.34858
 C1327 C 0.79798 1.18881 0.32932
 C1328 C 0.79930 1.18675 0.29462
 C1329 C 0.82073 1.15609 0.27973
 C1330 C 0.83970 1.12797 0.29908
 C1331 C 0.85756 1.10053 0.35448
 C1332 C 0.89675 1.08900 0.34749
 C1333 C 0.91790 1.06641 0.37021
 C1334 C 0.90013 1.05537 0.40026
 C1335 C 0.85994 1.06421 0.40592
 C1336 C 0.83879 1.08653 0.38315
 H1337 H 0.78138 1.21139 0.34186
 H1338 H 0.82239 1.15316 0.25311
 H1339 H 0.94890 1.06000 0.36528
 H1340 H 0.84539 1.05547 0.42868
 H1341 H 0.85547 1.10437 0.28702
 H1342 H 0.91185 1.09948 0.32553
 H1343 H 0.81544 1.16334 0.37527
 H1344 H 0.80822 1.09424 0.38861
 C1345 C 0.33944 0.63503 -0.16716
 C1346 C 0.31611 0.66443 -0.15275
 C1347 C 0.29519 0.69047 -0.17249
 C1348 C 0.29751 0.68802 -0.20708
 C1349 C 0.32074 0.65826 -0.22143
 C1350 C 0.34153 0.63203 -0.20162
 C1351 C 0.36231 0.60848 -0.14590
 C1352 C 0.40228 0.59976 -0.15309
 C1353 C 0.42542 0.57954 -0.13010
 C1354 C 0.40883 0.56858 -0.09970
 C1355 C 0.36826 0.57488 -0.09362
 C1356 C 0.34510 0.59441 -0.11666
 H1357 H 0.27722 0.71243 -0.16044
 H1358 H 0.32307 0.65494 -0.24798
 H1359 H 0.45659 0.57445 -0.13523
 H1360 H 0.35470 0.56567 -0.07057
 H1361 H 0.35905 0.60931 -0.21322
 H1362 H 0.41613 0.61035 -0.17558
 H1363 H 0.31452 0.66770 -0.12613
 H1364 H 0.31406 0.59980 -0.11107
 C1365 C 0.86814 0.83924 0.66647
 C1366 C 0.84057 0.81453 0.65099
 C1367 C 0.81305 0.79378 0.66967
 C1368 C 0.81272 0.79703 0.70427
 C1369 C 0.84147 0.82074 0.71974
 C1370 C 0.86893 0.84163 0.70099
 C1371 C 0.89352 0.86471 0.64623
 C1372 C 0.93434 0.86958 0.65299
 C1373 C 0.95800 0.89224 0.63184
 C1374 C 0.94067 0.90973 0.60403
 C1375 C 0.89975 0.90637 0.59841
 C1376 C 0.87635 0.88425 0.61936
 H1377 H 0.79185 0.77558 0.65683
 H1378 H 0.84266 0.82384 0.74636
 H1379 H 0.98965 0.89481 0.63634
 H1380 H 0.88595 0.92038 0.57725
 H1381 H 0.88982 0.86069 0.71338
 H1382 H 0.94800 0.85486 0.67383
 H1383 H 0.83989 0.81180 0.62430
 H1384 H 0.84480 0.88198 0.61428
 C1385 C 0.35825 0.34613 0.16876
 C1386 C 0.33455 0.31803 0.15310
 C1387 C 0.31087 0.29315 0.17171
 C1388 C 0.31051 0.29593 0.20634
 C1389 C 0.33613 0.32275 0.22194
 C1390 C 0.35978 0.34763 0.20326
 C1391 C 0.37933 0.37521 0.14886
 C1392 C 0.41932 0.38442 0.15523
 C1393 C 0.43992 0.40908 0.13373
 C1394 C 0.42052 0.42422 0.10587
 C1395 C 0.37991 0.41728 0.10101
 C1396 C 0.35940 0.39306 0.12245
 H1397 H 0.29175 0.27293 0.15879
 H1398 H 0.33719 0.32569 0.24857
 H1399 H 0.47135 0.41424 0.13761
 H1400 H 0.36445 0.42938 0.07981
 H1401 H 0.37794 0.36915 0.21574
 H1402 H 0.43502 0.37105 0.17572
 H1403 H 0.33361 0.31599 0.12636
 H1404 H 0.32821 0.38727 0.11781
   
