data_POSCAR
  _audit_creation_date              2014-09-24
  _audit_creation_method            'ToBaCCo'
  _symmetry_space_group_name_H-M    'P1'
  _symmetry_Int_Tables_number       1
  _symmetry_cell_setting            triclinic
  loop_
  _symmetry_equiv_pos_as_xyz
 x,y,z
_cell_length_a 65.1531
_cell_length_b 65.1107
_cell_length_c 65.0879
_cell_angle_alpha 90.018200
_cell_angle_beta 89.978500
_cell_angle_gamma 89.979800
loop_
  _atom_site_label
  _atom_site_type_symbol
  _atom_site_fract_x
  _atom_site_fract_y
  _atom_site_fract_z
O1 O 0.87507 0.15268 0.82131
 O2 O 0.89789 0.12586 0.81576
 O3 O 0.82175 0.12359 0.84662
 O4 O 0.81402 0.10380 0.87355
 O5 O 0.84675 0.17792 0.87534
 O6 O 0.87521 0.18383 0.89751
 O7 O 0.87600 0.07080 0.90247
 O8 O 0.85211 0.06563 0.87669
 O9 O 0.92815 0.09618 0.87580
 O10 O 0.93482 0.12519 0.85262
 O11 O 0.90330 0.12354 0.92797
 O12 O 0.87438 0.14620 0.93490
 O13 O 0.87605 0.09546 0.92724
 O14 O 0.85195 0.12507 0.93376
 O15 O 0.92799 0.12377 0.90336
 O16 O 0.93395 0.14768 0.87374
 O17 O 0.90359 0.07150 0.87628
 O18 O 0.87670 0.06806 0.84923
 O19 O 0.87558 0.17735 0.84610
 O20 O 0.89812 0.18340 0.87498
 O21 O 0.82206 0.15329 0.87534
 O22 O 0.81745 0.12400 0.89928
 O23 O 0.84632 0.12435 0.82184
 O24 O 0.87492 0.09950 0.81789
 Zr25 Zr 0.87425 0.12510 0.83809
 O26 O 0.89371 0.10616 0.85565
 Zr27 Zr 0.83828 0.12532 0.87433
 O28 O 0.85596 0.10583 0.89311
 Zr29 Zr 0.87441 0.16125 0.87418
 O30 O 0.89350 0.14366 0.89348
 Zr31 Zr 0.87578 0.08785 0.87514
 O32 O 0.85604 0.10531 0.85611
 Zr33 Zr 0.91172 0.12404 0.87547
 O34 O 0.89414 0.14323 0.85606
 Zr35 Zr 0.87556 0.12371 0.91144
 O36 O 0.85629 0.14343 0.89413
 O37 O 0.85527 0.14427 0.85521
 O38 O 0.89487 0.10471 0.89451
 C39 C 0.87579 0.17154 0.82719
 C40 C 0.82749 0.12348 0.82771
 C41 C 0.82788 0.17216 0.87583
 C42 C 0.87622 0.07658 0.92136
 C43 C 0.92247 0.07727 0.87631
 C44 C 0.92216 0.12351 0.92221
 H45 H 0.90218 0.09759 0.84640
 H46 H 0.90189 0.15295 0.90204
 H47 H 0.84647 0.15304 0.84645
 H48 H 0.84678 0.09706 0.90143
 H49 H 0.84268 0.06855 0.86513
 H50 H 0.81959 0.09072 0.87887
 H51 H 0.93163 0.15714 0.88541
 H52 H 0.90881 0.17865 0.86526
 H53 H 0.87971 0.05397 0.85418
 H54 H 0.87064 0.10408 0.80400
 H55 H 0.88437 0.15706 0.93135
 H56 H 0.86619 0.17880 0.90867
 H57 H 0.90906 0.13442 0.82149
 H58 H 0.93164 0.11455 0.84224
 H59 H 0.82131 0.13515 0.90887
 H60 H 0.84274 0.11321 0.93153
 O61 O 0.84667 0.67817 0.37493
 O62 O 0.87345 0.68372 0.39780
 O63 O 0.87580 0.65276 0.32162
 O64 O 0.89556 0.62581 0.31392
 O65 O 0.82147 0.62414 0.34667
 O66 O 0.81551 0.60204 0.37519
 O67 O 0.92847 0.59697 0.37602
 O68 O 0.93366 0.62268 0.35204
 O69 O 0.90305 0.62381 0.42817
 O70 O 0.87404 0.64697 0.43478
 O71 O 0.87576 0.57159 0.40337
 O72 O 0.85313 0.56461 0.37445
 O73 O 0.90383 0.57224 0.37610
 O74 O 0.87423 0.56571 0.35198
 O75 O 0.87553 0.59624 0.42804
 O76 O 0.85159 0.62583 0.43397
 O77 O 0.92777 0.62324 0.40356
 O78 O 0.93122 0.65020 0.37659
 O79 O 0.82200 0.65342 0.37549
 O80 O 0.81592 0.62459 0.39809
 O81 O 0.84611 0.62408 0.32197
 O82 O 0.87537 0.60012 0.31740
 O83 O 0.87502 0.67756 0.34619
 O84 O 0.89980 0.68155 0.37481
 Zr85 Zr 0.87422 0.66137 0.37416
 O86 O 0.89313 0.64383 0.39365
 Zr87 Zr 0.87404 0.62509 0.33821
 O88 O 0.89349 0.60632 0.35593
 Zr89 Zr 0.83808 0.62534 0.37437
 O90 O 0.85565 0.60606 0.39350
 Zr91 Zr 0.91144 0.62431 0.37573
 O92 O 0.89401 0.64332 0.35595
 Zr93 Zr 0.87524 0.62407 0.41172
 O94 O 0.85607 0.64347 0.39409
 Zr95 Zr 0.87560 0.58806 0.37558
 O96 O 0.85591 0.60534 0.35626
 O97 O 0.85508 0.64425 0.35518
 O98 O 0.89457 0.60500 0.39488
 C99 C 0.82781 0.67233 0.37566
 C100 C 0.87592 0.67167 0.32736
 C101 C 0.82726 0.62361 0.32779
 C102 C 0.92269 0.57809 0.37626
 C103 C 0.92192 0.62330 0.42241
 C104 C 0.87579 0.57738 0.42224
 H105 H 0.90168 0.65310 0.40211
 H106 H 0.84635 0.59752 0.40192
 H107 H 0.84634 0.65300 0.34635
 H108 H 0.90226 0.59798 0.34675
 H109 H 0.93076 0.63422 0.34257
 H110 H 0.90862 0.62047 0.31949
 H111 H 0.84215 0.61416 0.43165
 H112 H 0.82067 0.63431 0.40878
 H113 H 0.94530 0.64525 0.37959
 H114 H 0.89522 0.69544 0.37051
 H115 H 0.84226 0.56819 0.38444
 H116 H 0.82055 0.59085 0.36620
 H117 H 0.86481 0.67804 0.40895
 H118 H 0.88465 0.65735 0.43158
 H119 H 0.86422 0.59054 0.32127
 H120 H 0.88611 0.56789 0.34277
 O121 O 0.37455 0.15241 0.32166
 O122 O 0.39746 0.12556 0.31624
 O123 O 0.32129 0.12335 0.34710
 O124 O 0.31361 0.10360 0.37407
 O125 O 0.34628 0.17776 0.37565
 O126 O 0.37474 0.18380 0.39775
 O127 O 0.37554 0.07080 0.40320
 O128 O 0.35166 0.06553 0.37741
 O129 O 0.42770 0.09614 0.37630
 O130 O 0.43435 0.12502 0.35305
 O131 O 0.40290 0.12360 0.42842
 O132 O 0.37395 0.14632 0.43528
 O133 O 0.37561 0.09553 0.42783
 O134 O 0.35156 0.12518 0.43427
 O135 O 0.42755 0.12378 0.40378
 O136 O 0.43347 0.14762 0.37408
 O137 O 0.40314 0.07141 0.37695
 O138 O 0.37626 0.06783 0.34995
 O139 O 0.37507 0.17716 0.34638
 O140 O 0.39765 0.18329 0.37522
 O141 O 0.32161 0.15312 0.37572
 O142 O 0.31699 0.12396 0.39973
 O143 O 0.34586 0.12402 0.32231
 O144 O 0.37448 0.09921 0.31842
 Zr145 Zr 0.37379 0.12488 0.33855
 O146 O 0.39324 0.10600 0.35619
 Zr147 Zr 0.33783 0.12517 0.37480
 O148 O 0.35552 0.10578 0.39368
 Zr149 Zr 0.37395 0.16114 0.37451
 O150 O 0.39304 0.14362 0.39387
 Zr151 Zr 0.37533 0.08774 0.37577
 O152 O 0.35560 0.10512 0.35665
 Zr153 Zr 0.41126 0.12396 0.37592
 O154 O 0.39368 0.14308 0.35643
 Zr155 Zr 0.37514 0.12373 0.41192
 O156 O 0.35585 0.14336 0.39453
 O157 O 0.35481 0.14408 0.35561
 O158 O 0.39444 0.10468 0.39505
 C159 C 0.37525 0.17130 0.32747
 C160 C 0.32704 0.12316 0.32818
 C161 C 0.32742 0.17198 0.37616
 C162 C 0.37575 0.07658 0.42211
 C163 C 0.42197 0.07726 0.37689
 C164 C 0.42176 0.12357 0.42264
 H165 H 0.40170 0.09739 0.34696
 H166 H 0.40144 0.15295 0.40240
 H167 H 0.34599 0.15280 0.34682
 H168 H 0.34634 0.09704 0.40204
 H169 H 0.34222 0.06840 0.36583
 H170 H 0.31915 0.09059 0.37959
 H171 H 0.43116 0.15710 0.38574
 H172 H 0.40832 0.17854 0.36548
 H173 H 0.37925 0.05376 0.35497
 H174 H 0.37021 0.10375 0.30451
 H175 H 0.38400 0.15713 0.43173
 H176 H 0.36578 0.17878 0.40896
 H177 H 0.40856 0.13426 0.32189
 H178 H 0.43111 0.11442 0.34266
 H179 H 0.32089 0.13510 0.40932
 H180 H 0.34231 0.11333 0.43206
 O181 O 0.12465 0.34666 0.32135
 O182 O 0.10179 0.37353 0.31592
 O183 O 0.17796 0.37568 0.34670
 O184 O 0.18574 0.39539 0.37366
 O185 O 0.15288 0.32134 0.37535
 O186 O 0.12440 0.31541 0.39748
 O187 O 0.12387 0.42844 0.40275
 O188 O 0.14776 0.43360 0.37693
 O189 O 0.07164 0.40318 0.37597
 O190 O 0.06491 0.37423 0.35278
 O191 O 0.09645 0.37573 0.42810
 O192 O 0.12532 0.35298 0.43496
 O193 O 0.12377 0.40373 0.42744
 O194 O 0.14779 0.37405 0.43386
 O195 O 0.07176 0.37558 0.40351
 O196 O 0.06575 0.35170 0.37386
 O197 O 0.09627 0.42784 0.37654
 O198 O 0.12315 0.43128 0.34949
 O199 O 0.12408 0.32196 0.34611
 O200 O 0.10149 0.31593 0.37497
 O201 O 0.17760 0.34593 0.37534
 O202 O 0.18228 0.37515 0.39933
 O203 O 0.15339 0.37500 0.32193
 O204 O 0.12481 0.39984 0.31803
 Zr205 Zr 0.12546 0.37422 0.33820
 O206 O 0.10607 0.39318 0.35583
 Zr207 Zr 0.16144 0.37391 0.37442
 O208 O 0.14381 0.39340 0.39327
 Zr209 Zr 0.12525 0.33803 0.37421
 O210 O 0.10620 0.35563 0.39357
 Zr211 Zr 0.12404 0.41144 0.37536
 O212 O 0.14371 0.39397 0.35624
 Zr213 Zr 0.08802 0.37531 0.37562
 O214 O 0.10555 0.35610 0.35614
 Zr215 Zr 0.12418 0.37551 0.41156
 O216 O 0.14341 0.35579 0.39419
 O217 O 0.14442 0.35501 0.35527
 O218 O 0.10491 0.39458 0.39469
 C219 C 0.12391 0.32778 0.32720
 C220 C 0.17221 0.37585 0.32780
 C221 C 0.17175 0.32708 0.37583
 C222 C 0.12366 0.42263 0.42163
 C223 C 0.07743 0.42204 0.37651
 C224 C 0.07758 0.37580 0.42235
 H225 H 0.09762 0.40178 0.34660
 H226 H 0.09779 0.34634 0.40212
 H227 H 0.15322 0.34625 0.34648
 H228 H 0.15302 0.40213 0.40161
 H229 H 0.15718 0.43068 0.36534
 H230 H 0.18022 0.40846 0.37905
 H231 H 0.06805 0.34223 0.38551
 H232 H 0.09083 0.32070 0.36525
 H233 H 0.12020 0.44537 0.35449
 H234 H 0.12907 0.39526 0.30412
 H235 H 0.11527 0.34216 0.43142
 H236 H 0.13340 0.32042 0.40867
 H237 H 0.09067 0.36487 0.32160
 H238 H 0.06817 0.38480 0.34237
 H239 H 0.17840 0.36400 0.40892
 H240 H 0.15703 0.38589 0.43166
 O241 O 0.62467 0.84655 0.32126
 O242 O 0.60179 0.87336 0.31577
 O243 O 0.67795 0.87569 0.34656
 O244 O 0.68562 0.89554 0.37348
 O245 O 0.65300 0.82135 0.37526
 O246 O 0.62457 0.81535 0.39740
 O247 O 0.62364 0.92839 0.40255
 O248 O 0.64753 0.93359 0.37674
 O249 O 0.57151 0.90291 0.37588
 O250 O 0.56485 0.87396 0.35269
 O251 O 0.59640 0.87561 0.42800
 O252 O 0.62538 0.85295 0.43485
 O253 O 0.62362 0.90372 0.42729
 O254 O 0.64774 0.87413 0.43376
 O255 O 0.57171 0.87534 0.40341
 O256 O 0.56582 0.85139 0.37374
 O257 O 0.59606 0.92766 0.37638
 O258 O 0.62291 0.93117 0.34931
 O259 O 0.62420 0.82187 0.34602
 O260 O 0.60164 0.81579 0.37491
 O261 O 0.67766 0.84601 0.37525
 O262 O 0.68226 0.87527 0.39919
 O263 O 0.65338 0.87492 0.32179
 O264 O 0.62473 0.89974 0.31791
 Zr265 Zr 0.62544 0.87412 0.33808
 O266 O 0.60597 0.89302 0.35570
 Zr267 Zr 0.66141 0.87395 0.37428
 O268 O 0.64372 0.89339 0.39313
 Zr269 Zr 0.62533 0.83796 0.37412
 O270 O 0.60623 0.85551 0.39348
 Zr271 Zr 0.62388 0.91135 0.37519
 O272 O 0.64363 0.89394 0.35609
 Zr273 Zr 0.58798 0.87510 0.37551
 O274 O 0.60558 0.85596 0.35603
 Zr275 Zr 0.62414 0.87547 0.41144
 O276 O 0.64343 0.85580 0.39408
 O277 O 0.64445 0.85498 0.35516
 O278 O 0.60481 0.89445 0.39455
 C279 C 0.62399 0.82768 0.32711
 C280 C 0.67221 0.87579 0.32765
 C281 C 0.67186 0.82715 0.37574
 C282 C 0.62344 0.92260 0.42144
 C283 C 0.57723 0.92179 0.37640
 C284 C 0.57753 0.87560 0.42226
 H285 H 0.59748 0.90158 0.34646
 H286 H 0.59785 0.84619 0.40203
 H287 H 0.65326 0.84623 0.34638
 H288 H 0.65289 0.90216 0.40145
 H289 H 0.65695 0.93070 0.36516
 H290 H 0.68006 0.90857 0.37892
 H291 H 0.56811 0.84197 0.38544
 H292 H 0.59097 0.82050 0.36517
 H293 H 0.61991 0.94525 0.35429
 H294 H 0.62903 0.89518 0.30401
 H295 H 0.61533 0.84212 0.43135
 H296 H 0.63353 0.82041 0.40860
 H297 H 0.59066 0.86474 0.32148
 H298 H 0.56807 0.88453 0.34228
 H299 H 0.67839 0.86415 0.40880
 H300 H 0.65695 0.88599 0.43152
 O301 O 0.62491 0.65252 0.17824
 O302 O 0.60203 0.62572 0.18374
 O303 O 0.67818 0.62334 0.15288
 O304 O 0.68588 0.60353 0.12594
 O305 O 0.65323 0.67771 0.12422
 O306 O 0.62479 0.68371 0.10208
 O307 O 0.62387 0.57069 0.09694
 O308 O 0.64777 0.56546 0.12271
 O309 O 0.57175 0.59616 0.12370
 O310 O 0.56511 0.62515 0.14689
 O311 O 0.59663 0.62347 0.07154
 O312 O 0.62557 0.64607 0.06462
 O313 O 0.62384 0.59533 0.07224
 O314 O 0.64798 0.62493 0.06575
 O315 O 0.57194 0.62374 0.09616
 O316 O 0.56602 0.64767 0.12580
 O317 O 0.59630 0.57141 0.12318
 O318 O 0.62320 0.56790 0.15019
 O319 O 0.62442 0.67720 0.15347
 O320 O 0.60187 0.68330 0.12460
 O321 O 0.67790 0.65304 0.12419
 O322 O 0.68248 0.62377 0.10023
 O323 O 0.65361 0.62412 0.17766
 O324 O 0.62498 0.59934 0.18159
 Zr325 Zr 0.62568 0.62495 0.16141
 O326 O 0.60621 0.60605 0.14382
 Zr327 Zr 0.66165 0.62511 0.12517
 O328 O 0.64395 0.60566 0.10636
 Zr329 Zr 0.62556 0.66111 0.12538
 O330 O 0.60646 0.64356 0.10605
 Zr331 Zr 0.62412 0.58771 0.12431
 O332 O 0.64387 0.60513 0.14338
 Zr333 Zr 0.58821 0.62397 0.12404
 O334 O 0.60581 0.64312 0.14348
 Zr335 Zr 0.62436 0.62359 0.08807
 O336 O 0.64366 0.64326 0.10540
 O337 O 0.64468 0.64408 0.14432
 O338 O 0.60504 0.60461 0.10497
 C339 C 0.62421 0.67139 0.17239
 C340 C 0.67244 0.62323 0.17179
 C341 C 0.67209 0.67191 0.12371
 C342 C 0.62365 0.57641 0.07802
 C343 C 0.57747 0.57727 0.12319
 C344 C 0.57776 0.62349 0.07730
 H345 H 0.59774 0.59749 0.15308
 H346 H 0.59807 0.65288 0.09750
 H347 H 0.65350 0.65283 0.15309
 H348 H 0.65312 0.59688 0.09802
 H349 H 0.65721 0.56835 0.13427
 H350 H 0.68032 0.59048 0.12055
 H351 H 0.56835 0.65712 0.11413
 H352 H 0.59119 0.67858 0.13434
 H353 H 0.62019 0.55382 0.14522
 H354 H 0.62927 0.60390 0.19549
 H355 H 0.61560 0.65696 0.06819
 H356 H 0.63377 0.67866 0.09090
 H357 H 0.59090 0.63436 0.17804
 H358 H 0.56832 0.61455 0.15729
 H359 H 0.67862 0.63491 0.09064
 H360 H 0.65716 0.61303 0.06793
 O361 O 0.37454 0.84714 0.67851
 O362 O 0.39744 0.87397 0.68393
 O363 O 0.32126 0.87625 0.65318
 O364 O 0.31356 0.89604 0.62623
 O365 O 0.34623 0.82185 0.62453
 O366 O 0.37467 0.81583 0.60238
 O367 O 0.37549 0.92886 0.59706
 O368 O 0.35162 0.93410 0.62287
 O369 O 0.42767 0.90345 0.62387
 O370 O 0.43434 0.87451 0.64702
 O371 O 0.40279 0.87602 0.57171
 O372 O 0.37383 0.85334 0.56490
 O373 O 0.37552 0.90412 0.57237
 O374 O 0.35145 0.87451 0.56596
 O375 O 0.42748 0.87582 0.59630
 O376 O 0.43341 0.85193 0.62598
 O377 O 0.40311 0.92819 0.62330
 O378 O 0.37621 0.93174 0.65032
 O379 O 0.37504 0.82242 0.65376
 O380 O 0.39761 0.81630 0.62488
 O381 O 0.32155 0.84651 0.62452
 O382 O 0.31693 0.87571 0.60054
 O383 O 0.34584 0.87554 0.67794
 O384 O 0.37446 0.90034 0.68179
 Zr385 Zr 0.37376 0.87469 0.66165
 O386 O 0.39321 0.89357 0.64399
 Zr387 Zr 0.33778 0.87445 0.62545
 O388 O 0.35546 0.89386 0.60657
 Zr389 Zr 0.37390 0.83847 0.62565
 O390 O 0.39298 0.85599 0.60627
 Zr391 Zr 0.37529 0.91188 0.62446
 O392 O 0.35557 0.89448 0.64359
 Zr393 Zr 0.41122 0.87563 0.62420
 O394 O 0.39364 0.85650 0.64370
 Zr395 Zr 0.37506 0.87592 0.58827
 O396 O 0.35578 0.85627 0.60567
 O397 O 0.35477 0.85552 0.64459
 O398 O 0.39438 0.89494 0.60513
 C399 C 0.37524 0.82825 0.67267
 C400 C 0.32701 0.87641 0.67209
 C401 C 0.32737 0.82764 0.62405
 C402 C 0.37567 0.92303 0.57818
 C403 C 0.42194 0.92233 0.62335
 C404 C 0.42166 0.87603 0.57745
 H405 H 0.40168 0.90215 0.65322
 H406 H 0.40137 0.84667 0.59772
 H407 H 0.34596 0.84679 0.65338
 H408 H 0.34628 0.90261 0.59824
 H409 H 0.34218 0.93123 0.63445
 H410 H 0.31910 0.90906 0.62074
 H411 H 0.43111 0.84249 0.61430
 H412 H 0.40828 0.82105 0.63460
 H413 H 0.37919 0.94582 0.64532
 H414 H 0.37020 0.89579 0.69571
 H415 H 0.38389 0.84252 0.56842
 H416 H 0.36570 0.82086 0.59119
 H417 H 0.40854 0.86527 0.67825
 H418 H 0.43108 0.88506 0.65746
 H419 H 0.32080 0.86457 0.59094
 H420 H 0.34221 0.88636 0.56821
 O421 O 0.87496 0.34668 0.67852
 O422 O 0.89781 0.37350 0.68400
 O423 O 0.82163 0.37580 0.65328
 O424 O 0.81384 0.39556 0.62636
 O425 O 0.84661 0.32144 0.62454
 O426 O 0.87504 0.31549 0.60235
 O427 O 0.87574 0.42852 0.59730
 O428 O 0.85191 0.43371 0.62315
 O429 O 0.92798 0.40311 0.62392
 O430 O 0.93468 0.37412 0.64709
 O431 O 0.90306 0.37578 0.57180
 O432 O 0.87417 0.35311 0.56492
 O433 O 0.87578 0.40384 0.57256
 O434 O 0.85171 0.37420 0.56611
 O435 O 0.92778 0.37554 0.59637
 O436 O 0.93379 0.35162 0.62597
 O437 O 0.90339 0.42783 0.62345
 O438 O 0.87654 0.43129 0.65055
 O439 O 0.87546 0.32200 0.65374
 O440 O 0.89798 0.31592 0.62483
 O441 O 0.82191 0.34608 0.62459
 O442 O 0.81727 0.37535 0.60065
 O443 O 0.84623 0.37504 0.67802
 O444 O 0.87483 0.39985 0.68192
 Zr445 Zr 0.87414 0.37425 0.66172
 O446 O 0.89356 0.39318 0.64411
 Zr447 Zr 0.83812 0.37403 0.62555
 O448 O 0.85577 0.39350 0.60672
 Zr449 Zr 0.87426 0.33808 0.62566
 O450 O 0.89332 0.35566 0.60631
 Zr451 Zr 0.87560 0.41149 0.62465
 O452 O 0.85589 0.39404 0.64373
 Zr453 Zr 0.91155 0.37528 0.62428
 O454 O 0.89401 0.35610 0.64374
 Zr455 Zr 0.87535 0.37560 0.58838
 O456 O 0.85611 0.35590 0.60573
 O457 O 0.85514 0.35508 0.64465
 O458 O 0.89467 0.39461 0.60526
 C459 C 0.87568 0.32782 0.67265
 C460 C 0.82740 0.37592 0.67218
 C461 C 0.82774 0.32721 0.62408
 C462 C 0.87592 0.42272 0.57841
 C463 C 0.92223 0.42199 0.62342
 C464 C 0.92193 0.37580 0.57753
 H465 H 0.90203 0.40174 0.65335
 H466 H 0.90171 0.34636 0.59774
 H467 H 0.84634 0.34633 0.65343
 H468 H 0.84657 0.40227 0.59842
 H469 H 0.84249 0.43080 0.63473
 H470 H 0.81940 0.40864 0.62104
 H471 H 0.93146 0.34217 0.61430
 H472 H 0.90867 0.32067 0.63453
 H473 H 0.87953 0.44538 0.64559
 H474 H 0.87057 0.39528 0.69582
 H475 H 0.88417 0.34224 0.56846
 H476 H 0.86603 0.32052 0.59119
 H477 H 0.90895 0.36488 0.67827
 H478 H 0.93149 0.38473 0.65749
 H479 H 0.82110 0.36419 0.59105
 H480 H 0.84250 0.38608 0.56834
 O481 O 0.82140 0.87457 0.15271
 O482 O 0.81597 0.89741 0.12582
 O483 O 0.84674 0.82117 0.12370
 O484 O 0.87365 0.81339 0.10393
 O485 O 0.87534 0.84628 0.17804
 O486 O 0.89743 0.87475 0.18400
 O487 O 0.90275 0.87528 0.07092
 O488 O 0.87697 0.85138 0.06575
 O489 O 0.87598 0.92755 0.09622
 O490 O 0.85284 0.93432 0.12517
 O491 O 0.92808 0.90269 0.12362
 O492 O 0.93494 0.87383 0.14637
 O493 O 0.92739 0.87535 0.09561
 O494 O 0.93379 0.85130 0.12534
 O495 O 0.90352 0.92742 0.12380
 O496 O 0.87389 0.93345 0.14773
 O497 O 0.87656 0.90290 0.07153
 O498 O 0.84955 0.87602 0.06807
 O499 O 0.84611 0.87513 0.17743
 O500 O 0.87497 0.89771 0.18347
 O501 O 0.87537 0.82154 0.15342
 O502 O 0.89932 0.81683 0.12420
 O503 O 0.82200 0.84578 0.12437
 O504 O 0.81813 0.87436 0.09950
 Zr505 Zr 0.83825 0.87372 0.12514
 O506 O 0.85588 0.89312 0.10620
 Zr507 Zr 0.87443 0.83770 0.12544
 O508 O 0.89327 0.85532 0.10596
 Zr509 Zr 0.87420 0.87393 0.16136
 O510 O 0.89356 0.89296 0.14376
 Zr511 Zr 0.87538 0.87512 0.08793
 O512 O 0.85628 0.85544 0.10538
 Zr513 Zr 0.87564 0.91117 0.12409
 O514 O 0.85616 0.89365 0.14328
 Zr515 Zr 0.91154 0.87496 0.12386
 O516 O 0.89417 0.85574 0.14358
 O517 O 0.85529 0.85475 0.14436
 O518 O 0.89469 0.89425 0.10480
 C519 C 0.82722 0.87533 0.17159
 C520 C 0.82785 0.82693 0.12354
 C521 C 0.87584 0.82739 0.17228
 C522 C 0.92165 0.87548 0.07667
 C523 C 0.87653 0.92176 0.07734
 C524 C 0.92235 0.92158 0.12355
 H525 H 0.84665 0.90158 0.09760
 H526 H 0.90211 0.90137 0.15306
 H527 H 0.84651 0.84596 0.15312
 H528 H 0.90160 0.84610 0.09722
 H529 H 0.86539 0.84196 0.06865
 H530 H 0.87909 0.81890 0.09087
 H531 H 0.88556 0.93116 0.15717
 H532 H 0.86525 0.90838 0.17870
 H533 H 0.85455 0.87897 0.05398
 H534 H 0.80423 0.87010 0.10406
 H535 H 0.93137 0.88386 0.15722
 H536 H 0.90863 0.86577 0.17897
 H537 H 0.82165 0.90855 0.13446
 H538 H 0.84243 0.93105 0.11461
 H539 H 0.90890 0.82071 0.13534
 H540 H 0.93164 0.84209 0.11344
 O541 O 0.37478 0.34650 0.17856
 O542 O 0.39766 0.37334 0.18404
 O543 O 0.32155 0.37562 0.15310
 O544 O 0.31385 0.39533 0.12612
 O545 O 0.34663 0.32120 0.12452
 O546 O 0.37513 0.31522 0.10242
 O547 O 0.37581 0.42826 0.09717
 O548 O 0.35189 0.43347 0.12296
 O549 O 0.42798 0.40289 0.12404
 O550 O 0.43459 0.37394 0.14728
 O551 O 0.40325 0.37550 0.07188
 O552 O 0.37440 0.35280 0.06493
 O553 O 0.37593 0.40354 0.07247
 O554 O 0.35190 0.37387 0.06602
 O555 O 0.42788 0.37529 0.09654
 O556 O 0.43379 0.35141 0.12618
 O557 O 0.40339 0.42761 0.12342
 O558 O 0.37646 0.43112 0.15043
 O559 O 0.37536 0.32179 0.15381
 O560 O 0.39801 0.31571 0.12498
 O561 O 0.32193 0.34584 0.12447
 O562 O 0.31735 0.37505 0.10045
 O563 O 0.34607 0.37490 0.17791
 O564 O 0.37466 0.39968 0.18189
 Zr565 Zr 0.37403 0.37406 0.16171
 O566 O 0.39349 0.39298 0.14412
 Zr567 Zr 0.33813 0.37380 0.12542
 O568 O 0.35583 0.39325 0.10661
 Zr569 Zr 0.37428 0.33785 0.12570
 O570 O 0.39338 0.35541 0.10639
 Zr571 Zr 0.37559 0.41127 0.12456
 O572 O 0.35585 0.39383 0.14363
 Zr573 Zr 0.41155 0.37506 0.12438
 O574 O 0.39396 0.35589 0.14382
 Zr575 Zr 0.37548 0.37532 0.08835
 O576 O 0.35619 0.35564 0.10568
 O577 O 0.35509 0.35488 0.14460
 O578 O 0.39474 0.39436 0.10527
 C579 C 0.37550 0.32762 0.17272
 C580 C 0.32726 0.37578 0.17201
 C581 C 0.32776 0.32698 0.12401
 C582 C 0.37604 0.42244 0.07828
 C583 C 0.42223 0.42177 0.12347
 C584 C 0.42210 0.37554 0.07768
 H585 H 0.40193 0.40157 0.15338
 H586 H 0.40180 0.34610 0.09785
 H587 H 0.34626 0.34614 0.15337
 H588 H 0.34665 0.40199 0.09826
 H589 H 0.34245 0.43057 0.13452
 H590 H 0.31941 0.40839 0.12075
 H591 H 0.43149 0.34193 0.11452
 H592 H 0.40865 0.32046 0.13473
 H593 H 0.37945 0.44520 0.14544
 H594 H 0.37039 0.39512 0.19579
 H595 H 0.38439 0.34194 0.06852
 H596 H 0.36617 0.32025 0.09122
 H597 H 0.40878 0.36465 0.17838
 H598 H 0.43135 0.38456 0.15766
 H599 H 0.32122 0.36388 0.09089
 H600 H 0.34267 0.38573 0.06820
 O601 O 0.37463 0.65296 0.82148
 O602 O 0.39755 0.62614 0.81599
 O603 O 0.32140 0.62380 0.84688
 O604 O 0.31371 0.60405 0.87384
 O605 O 0.34636 0.67821 0.87551
 O606 O 0.37483 0.68418 0.89765
 O607 O 0.37570 0.57114 0.90281
 O608 O 0.35181 0.56593 0.87703
 O609 O 0.42785 0.59656 0.87594
 O610 O 0.43446 0.62555 0.85279
 O611 O 0.40300 0.62392 0.92817
 O612 O 0.37410 0.64658 0.93510
 O613 O 0.37574 0.59584 0.92753
 O614 O 0.35165 0.62549 0.93399
 O615 O 0.42767 0.62414 0.90353
 O616 O 0.43359 0.64806 0.87391
 O617 O 0.40330 0.57182 0.87653
 O618 O 0.37638 0.56833 0.84954
 O619 O 0.37516 0.67766 0.84625
 O620 O 0.39774 0.68374 0.87510
 O621 O 0.32170 0.65355 0.87553
 O622 O 0.31714 0.62431 0.89953
 O623 O 0.34595 0.62455 0.82208
 O624 O 0.37458 0.59978 0.81812
 Zr625 Zr 0.37390 0.62539 0.83831
 O626 O 0.39336 0.60647 0.85589
 Zr627 Zr 0.33795 0.62560 0.87458
 O628 O 0.35565 0.60615 0.89338
 Zr629 Zr 0.37404 0.66158 0.87434
 O630 O 0.39315 0.64401 0.89366
 Zr631 Zr 0.37547 0.58815 0.87543
 O632 O 0.35572 0.60559 0.85637
 Zr633 Zr 0.41138 0.62439 0.87567
 O634 O 0.39378 0.64356 0.85623
 Zr635 Zr 0.37525 0.62407 0.91166
 O636 O 0.35595 0.64375 0.89434
 O637 O 0.35490 0.64455 0.85541
 O638 O 0.39457 0.60506 0.89475
 C639 C 0.37534 0.67184 0.82733
 C640 C 0.32713 0.62366 0.82797
 C641 C 0.32750 0.67243 0.87601
 C642 C 0.37590 0.57695 0.92170
 C643 C 0.42213 0.57767 0.87647
 C644 C 0.42186 0.62390 0.92239
 H645 H 0.40183 0.59790 0.84663
 H646 H 0.40155 0.65332 0.90220
 H647 H 0.34608 0.65329 0.84665
 H648 H 0.34648 0.59739 0.90172
 H649 H 0.34236 0.56883 0.86547
 H650 H 0.31928 0.59100 0.87921
 H651 H 0.43126 0.65752 0.88558
 H652 H 0.40841 0.67899 0.86536
 H653 H 0.37938 0.55425 0.85451
 H654 H 0.37031 0.60435 0.80422
 H655 H 0.38406 0.65746 0.93152
 H656 H 0.36584 0.67915 0.90883
 H657 H 0.40865 0.63483 0.82166
 H658 H 0.43123 0.61497 0.84238
 H659 H 0.32098 0.63549 0.90910
 H660 H 0.34244 0.61361 0.93179
 O661 O 0.12455 0.65298 0.67858
 O662 O 0.10169 0.62613 0.68403
 O663 O 0.17788 0.62391 0.65324
 O664 O 0.18567 0.60418 0.62628
 O665 O 0.15284 0.67828 0.62461
 O666 O 0.12440 0.68423 0.60246
 O667 O 0.12379 0.57120 0.59719
 O668 O 0.14765 0.56601 0.62301
 O669 O 0.07155 0.59654 0.62395
 O670 O 0.06482 0.62549 0.64715
 O671 O 0.09642 0.62391 0.57183
 O672 O 0.12530 0.64667 0.56498
 O673 O 0.12374 0.59591 0.57249
 O674 O 0.14777 0.62558 0.56608
 O675 O 0.07171 0.62411 0.59642
 O676 O 0.06570 0.64803 0.62607
 O677 O 0.09615 0.57183 0.62339
 O678 O 0.12302 0.56836 0.65044
 O679 O 0.12401 0.67768 0.65384
 O680 O 0.10146 0.68374 0.62496
 O681 O 0.17756 0.65366 0.62461
 O682 O 0.18224 0.62443 0.60061
 O683 O 0.15329 0.62461 0.67801
 O684 O 0.12470 0.59979 0.68189
 Zr685 Zr 0.12537 0.62541 0.66174
 O686 O 0.10597 0.60648 0.64410
 Zr687 Zr 0.16138 0.62569 0.62553
 O688 O 0.14375 0.60623 0.60667
 Zr689 Zr 0.12520 0.66161 0.62573
 O690 O 0.10616 0.64404 0.60637
 Zr691 Zr 0.12394 0.58820 0.62458
 O692 O 0.14363 0.60565 0.64369
 Zr693 Zr 0.08795 0.62438 0.62431
 O694 O 0.10548 0.64356 0.64380
 Zr695 Zr 0.12414 0.62413 0.58838
 O696 O 0.14337 0.64383 0.60575
 O697 O 0.14435 0.64461 0.64468
 O698 O 0.10484 0.60509 0.60524
 C699 C 0.12382 0.67185 0.67275
 C700 C 0.17212 0.62375 0.67215
 C701 C 0.17171 0.67252 0.62413
 C702 C 0.12361 0.57702 0.57831
 C703 C 0.07731 0.57766 0.62340
 C704 C 0.07755 0.62385 0.57757
 H705 H 0.09751 0.59790 0.65334
 H706 H 0.09776 0.65334 0.59781
 H707 H 0.15314 0.65336 0.65346
 H708 H 0.15296 0.59748 0.59834
 H709 H 0.15706 0.56891 0.63459
 H710 H 0.18013 0.59111 0.62090
 H711 H 0.06800 0.65747 0.61439
 H712 H 0.09078 0.67898 0.63468
 H713 H 0.12005 0.55428 0.64545
 H714 H 0.12895 0.60435 0.69580
 H715 H 0.11523 0.65748 0.56851
 H716 H 0.13339 0.67920 0.59127
 H717 H 0.09057 0.63478 0.67834
 H718 H 0.06806 0.61491 0.65755
 H719 H 0.17838 0.63560 0.59103
 H720 H 0.15701 0.61373 0.56830
 O721 O 0.12478 0.15244 0.17844
 O722 O 0.10188 0.12562 0.18385
 O723 O 0.17811 0.12331 0.15315
 O724 O 0.18587 0.10355 0.12620
 O725 O 0.15317 0.17771 0.12449
 O726 O 0.12475 0.18370 0.10231
 O727 O 0.12395 0.07071 0.09699
 O728 O 0.14781 0.06546 0.12281
 O729 O 0.07176 0.09608 0.12378
 O730 O 0.06505 0.12505 0.14695
 O731 O 0.09670 0.12349 0.07165
 O732 O 0.12565 0.14617 0.06484
 O733 O 0.12395 0.09540 0.07235
 O734 O 0.14804 0.12501 0.06593
 O735 O 0.07197 0.12368 0.09622
 O736 O 0.06597 0.14758 0.12587
 O737 O 0.09633 0.07135 0.12322
 O738 O 0.12319 0.06783 0.15026
 O739 O 0.12430 0.17715 0.15369
 O740 O 0.10180 0.18326 0.12481
 O741 O 0.17785 0.15306 0.12450
 O742 O 0.18251 0.12384 0.10051
 O743 O 0.15349 0.12404 0.17789
 O744 O 0.12487 0.09925 0.18173
 Zr745 Zr 0.12559 0.12488 0.16158
 O746 O 0.10618 0.10598 0.14392
 Zr747 Zr 0.16163 0.12511 0.12541
 O748 O 0.14399 0.10569 0.10652
 Zr749 Zr 0.12550 0.16109 0.12559
 O750 O 0.10645 0.14355 0.10621
 Zr751 Zr 0.12413 0.08768 0.12440
 O752 O 0.14383 0.10509 0.14354
 Zr753 Zr 0.08819 0.12391 0.12413
 O754 O 0.10573 0.14306 0.14363
 Zr755 Zr 0.12441 0.12362 0.08823
 O756 O 0.14366 0.14328 0.10562
 O757 O 0.14461 0.14405 0.14454
 O758 O 0.10507 0.10460 0.10506
 C759 C 0.12408 0.17132 0.17260
 C760 C 0.17232 0.12316 0.17205
 C761 C 0.17203 0.17193 0.12402
 C762 C 0.12377 0.07647 0.07808
 C763 C 0.07750 0.07720 0.12325
 C764 C 0.07783 0.12346 0.07737
 H765 H 0.09770 0.09740 0.15315
 H766 H 0.09807 0.15286 0.09765
 H767 H 0.15340 0.15279 0.15334
 H768 H 0.15318 0.09693 0.09819
 H769 H 0.15723 0.06834 0.13439
 H770 H 0.18034 0.09052 0.12073
 H771 H 0.06830 0.15704 0.11421
 H772 H 0.09110 0.17850 0.13450
 H773 H 0.12022 0.05375 0.14526
 H774 H 0.12911 0.10381 0.19565
 H775 H 0.11561 0.15700 0.06836
 H776 H 0.13376 0.17868 0.09114
 H777 H 0.09079 0.13430 0.17816
 H778 H 0.06828 0.11447 0.15736
 H779 H 0.17865 0.13498 0.09091
 H780 H 0.15726 0.11315 0.06815
 O781 O 0.67853 0.37510 0.84719
 O782 O 0.68399 0.39791 0.87407
 O783 O 0.65328 0.32168 0.87617
 O784 O 0.62637 0.31392 0.89598
 O785 O 0.62465 0.34675 0.82185
 O786 O 0.60247 0.37522 0.81594
 O787 O 0.59727 0.37580 0.92898
 O788 O 0.62306 0.35193 0.93415
 O789 O 0.62394 0.42809 0.90371
 O790 O 0.64708 0.43484 0.87473
 O791 O 0.57186 0.40321 0.87628
 O792 O 0.56506 0.37431 0.85349
 O793 O 0.57259 0.37587 0.90428
 O794 O 0.56616 0.35184 0.87459
 O795 O 0.59640 0.42795 0.87612
 O796 O 0.62603 0.43396 0.85219
 O797 O 0.62342 0.40344 0.92838
 O798 O 0.65046 0.37657 0.93181
 O799 O 0.65381 0.37565 0.82248
 O800 O 0.62495 0.39816 0.81642
 O801 O 0.62465 0.32202 0.84647
 O802 O 0.60070 0.31733 0.87570
 O803 O 0.67800 0.34628 0.87549
 O804 O 0.68184 0.37488 0.90040
 Zr805 Zr 0.66172 0.37423 0.87476
 O806 O 0.64409 0.39365 0.89370
 Zr807 Zr 0.62558 0.33821 0.87445
 O808 O 0.60673 0.35585 0.89393
 Zr809 Zr 0.62574 0.37442 0.83855
 O810 O 0.60638 0.39347 0.85615
 Zr811 Zr 0.62461 0.37566 0.91198
 O812 O 0.64372 0.35596 0.89451
 Zr813 Zr 0.62429 0.41170 0.87583
 O814 O 0.64377 0.39415 0.85663
 Zr815 Zr 0.58843 0.37548 0.87604
 O816 O 0.60580 0.35623 0.85633
 O817 O 0.64468 0.35525 0.85554
 O818 O 0.60527 0.39478 0.89512
 C819 C 0.67270 0.37586 0.82831
 C820 C 0.67216 0.32744 0.87631
 C821 C 0.62417 0.32787 0.82761
 C822 C 0.57841 0.37598 0.92317
 C823 C 0.62343 0.42230 0.92259
 C824 C 0.57757 0.42210 0.87635
 H825 H 0.65331 0.40212 0.90230
 H826 H 0.59783 0.40188 0.84685
 H827 H 0.65347 0.34647 0.84677
 H828 H 0.59841 0.34663 0.90267
 H829 H 0.63464 0.34251 0.93125
 H830 H 0.62093 0.31944 0.90903
 H831 H 0.61435 0.43168 0.84275
 H832 H 0.63460 0.40888 0.82121
 H833 H 0.64547 0.37952 0.94591
 H834 H 0.69574 0.37060 0.89584
 H835 H 0.56857 0.38438 0.84269
 H836 H 0.59132 0.36620 0.82095
 H837 H 0.67828 0.40907 0.86549
 H838 H 0.65748 0.43161 0.88531
 H839 H 0.59112 0.32121 0.86456
 H840 H 0.56840 0.34258 0.88642
 O841 O 0.12445 0.84707 0.82165
 O842 O 0.10158 0.87392 0.81621
 O843 O 0.17772 0.87613 0.84707
 O844 O 0.18538 0.89590 0.87406
 O845 O 0.15271 0.82173 0.87562
 O846 O 0.12423 0.81575 0.89776
 O847 O 0.12344 0.92875 0.90315
 O848 O 0.14732 0.93399 0.87737
 O849 O 0.07126 0.90342 0.87628
 O850 O 0.06464 0.87448 0.85303
 O851 O 0.09605 0.87595 0.92841
 O852 O 0.12500 0.85321 0.93523
 O853 O 0.12336 0.90401 0.92782
 O854 O 0.14737 0.87438 0.93425
 O855 O 0.07140 0.87577 0.90378
 O856 O 0.06549 0.85193 0.87408
 O857 O 0.09584 0.92814 0.87689
 O858 O 0.12276 0.93166 0.84990
 O859 O 0.12391 0.82235 0.84637
 O860 O 0.10134 0.81621 0.87521
 O861 O 0.17739 0.84637 0.87568
 O862 O 0.18198 0.87556 0.89971
 O863 O 0.15317 0.87545 0.82228
 O864 O 0.12456 0.90027 0.81841
 Zr865 Zr 0.12522 0.87462 0.83853
 O866 O 0.10575 0.89351 0.85616
 Zr867 Zr 0.16116 0.87433 0.87477
 O868 O 0.14345 0.89374 0.89364
 Zr869 Zr 0.12504 0.83838 0.87449
 O870 O 0.10592 0.85591 0.89385
 Zr871 Zr 0.12365 0.91179 0.87574
 O872 O 0.14340 0.89438 0.85662
 Zr873 Zr 0.08771 0.87558 0.87591
 O874 O 0.10532 0.85644 0.85643
 Zr875 Zr 0.12382 0.87581 0.91189
 O876 O 0.14313 0.85616 0.89452
 O877 O 0.14419 0.85542 0.85559
 O878 O 0.10453 0.89487 0.89503
 C879 C 0.12373 0.82819 0.82747
 C880 C 0.17199 0.87630 0.82815
 C881 C 0.17158 0.82750 0.87612
 C882 C 0.12323 0.92291 0.92203
 C883 C 0.07700 0.92230 0.87683
 C884 C 0.07719 0.87598 0.92264
 H885 H 0.09730 0.90211 0.84693
 H886 H 0.09751 0.84659 0.90237
 H887 H 0.15301 0.84668 0.84680
 H888 H 0.15262 0.90248 0.90200
 H889 H 0.15677 0.93111 0.86580
 H890 H 0.17983 0.90892 0.87954
 H891 H 0.06780 0.84245 0.88572
 H892 H 0.09066 0.82099 0.86551
 H893 H 0.11977 0.94574 0.85490
 H894 H 0.12884 0.89572 0.80449
 H895 H 0.11493 0.84242 0.93170
 H896 H 0.13322 0.82076 0.90894
 H897 H 0.09046 0.86526 0.82188
 H898 H 0.06787 0.88510 0.84266
 H899 H 0.17808 0.86441 0.90929
 H900 H 0.15666 0.88618 0.93200
 O901 O 0.67834 0.12457 0.65294
 O902 O 0.68374 0.10172 0.62604
 O903 O 0.65308 0.17800 0.62397
 O904 O 0.62616 0.18582 0.60425
 O905 O 0.62449 0.15298 0.67835
 O906 O 0.60231 0.12454 0.68431
 O907 O 0.59699 0.12396 0.57125
 O908 O 0.62280 0.14782 0.56605
 O909 O 0.62369 0.07165 0.59649
 O910 O 0.64683 0.06487 0.62544
 O911 O 0.57163 0.09661 0.62398
 O912 O 0.56484 0.12549 0.64677
 O913 O 0.57233 0.12395 0.59599
 O914 O 0.56599 0.14800 0.62572
 O915 O 0.59615 0.07184 0.62410
 O916 O 0.62577 0.06576 0.64800
 O917 O 0.62314 0.09629 0.57181
 O918 O 0.65019 0.12314 0.56834
 O919 O 0.65365 0.12405 0.67769
 O920 O 0.62476 0.10155 0.68377
 O921 O 0.62449 0.17771 0.65374
 O922 O 0.60051 0.18243 0.62454
 O923 O 0.67780 0.15337 0.62462
 O924 O 0.68161 0.12477 0.59973
 Zr925 Zr 0.66150 0.12545 0.62539
 O926 O 0.64384 0.10606 0.60646
 Zr927 Zr 0.62538 0.16152 0.62575
 O928 O 0.60650 0.14392 0.60629
 Zr929 Zr 0.62555 0.12531 0.66166
 O930 O 0.60617 0.10629 0.64408
 Zr931 Zr 0.62436 0.12408 0.58822
 O932 O 0.64349 0.14374 0.60566
 Zr933 Zr 0.62405 0.08805 0.62437
 O934 O 0.64356 0.10556 0.64355
 Zr935 Zr 0.58821 0.12431 0.62421
 O936 O 0.60561 0.14352 0.64391
 O937 O 0.64449 0.14445 0.64464
 O938 O 0.60502 0.10499 0.60511
 C939 C 0.67253 0.12382 0.67183
 C940 C 0.67196 0.17222 0.62380
 C941 C 0.62403 0.17186 0.67260
 C942 C 0.57813 0.12381 0.57709
 C943 C 0.62315 0.07744 0.57761
 C944 C 0.57733 0.07771 0.62388
 H945 H 0.65305 0.09758 0.59786
 H946 H 0.59762 0.09789 0.65338
 H947 H 0.65329 0.15323 0.65339
 H948 H 0.59819 0.15314 0.59756
 H949 H 0.63439 0.15722 0.56894
 H950 H 0.62074 0.18031 0.59119
 H951 H 0.61411 0.06808 0.65746
 H952 H 0.63442 0.09084 0.67897
 H953 H 0.64519 0.12020 0.55425
 H954 H 0.69552 0.12901 0.60428
 H955 H 0.56838 0.11545 0.65760
 H956 H 0.59115 0.13357 0.67931
 H957 H 0.67804 0.09059 0.63468
 H958 H 0.65723 0.06810 0.61485
 H959 H 0.59095 0.17858 0.63572
 H960 H 0.56818 0.15723 0.61385
 C961 C 0.37648 0.78118 0.71933
 C962 C 0.37652 0.77594 0.69838
 C963 C 0.37622 0.79119 0.68328
 C964 C 0.37586 0.81210 0.68874
 C965 C 0.37588 0.81735 0.70971
 C966 C 0.37619 0.80208 0.72481
 C967 C 0.37662 0.76496 0.73534
 N968 N 0.37663 0.76993 0.75561
 N969 N 0.37664 0.75536 0.76997
 C970 C 0.37664 0.73517 0.76469
 N971 N 0.37665 0.73019 0.74442
 N972 N 0.37664 0.74476 0.73006
 C973 C 0.37651 0.71894 0.78069
 C974 C 0.37624 0.69804 0.77521
 C975 C 0.37595 0.68277 0.79030
 C976 C 0.37593 0.68801 0.81127
 C977 C 0.37627 0.70891 0.81674
 C978 C 0.37656 0.72417 0.80165
 H979 H 0.37674 0.76002 0.69358
 H980 H 0.37620 0.78655 0.66730
 H981 H 0.37559 0.83327 0.71449
 H982 H 0.37615 0.80669 0.74079
 H983 H 0.37620 0.69344 0.75922
 H984 H 0.37567 0.66684 0.78550
 H985 H 0.37625 0.71354 0.83272
 H986 H 0.37677 0.74009 0.80645
 C987 C 0.37651 0.21834 0.28078
 C988 C 0.37622 0.19744 0.27531
 C989 C 0.37590 0.18218 0.29043
 C990 C 0.37587 0.18745 0.31139
 C991 C 0.37623 0.20835 0.31684
 C992 C 0.37654 0.22359 0.30173
 C993 C 0.37667 0.23455 0.26476
 N994 N 0.37669 0.25475 0.27003
 N995 N 0.37671 0.26932 0.25566
 C996 C 0.37673 0.26433 0.23540
 N997 N 0.37674 0.24413 0.23013
 N998 N 0.37670 0.22957 0.24450
 C999 C 0.37663 0.28055 0.21938
 C1000 C 0.37671 0.27531 0.19843
 C1001 C 0.37644 0.29056 0.18333
 C1002 C 0.37608 0.31146 0.18879
 C1003 C 0.37607 0.31671 0.20976
 C1004 C 0.37634 0.30144 0.22486
 H1005 H 0.37619 0.19282 0.25933
 H1006 H 0.37561 0.16625 0.28565
 H1007 H 0.37620 0.21300 0.33281
 H1008 H 0.37676 0.23952 0.30652
 H1009 H 0.37693 0.25938 0.19363
 H1010 H 0.37645 0.28592 0.16735
 H1011 H 0.37578 0.33264 0.21454
 H1012 H 0.37627 0.30606 0.24084
 C1013 C 0.62279 0.78063 0.28045
 C1014 C 0.62305 0.80152 0.27498
 C1015 C 0.62335 0.81678 0.29009
 C1016 C 0.62338 0.81152 0.31105
 C1017 C 0.62303 0.79063 0.31650
 C1018 C 0.62274 0.77538 0.30140
 C1019 C 0.62267 0.76441 0.26444
 N1020 N 0.62267 0.74422 0.26970
 N1021 N 0.62270 0.72966 0.25532
 C1022 C 0.62273 0.73465 0.23506
 N1023 N 0.62270 0.75484 0.22980
 N1024 N 0.62268 0.76941 0.24418
 C1025 C 0.62290 0.71844 0.21904
 C1026 C 0.62289 0.72369 0.19810
 C1027 C 0.62322 0.70844 0.18299
 C1028 C 0.62358 0.68755 0.18845
 C1029 C 0.62353 0.68229 0.20941
 C1030 C 0.62319 0.69755 0.22451
 H1031 H 0.62309 0.80613 0.25900
 H1032 H 0.62362 0.83270 0.28531
 H1033 H 0.62306 0.78599 0.33248
 H1034 H 0.62254 0.75946 0.30619
 H1035 H 0.62267 0.73961 0.19331
 H1036 H 0.62326 0.71308 0.16702
 H1037 H 0.62381 0.66636 0.21419
 H1038 H 0.62321 0.69294 0.24049
 C1039 C 0.12265 0.28069 0.28057
 C1040 C 0.12296 0.30157 0.27508
 C1041 C 0.12327 0.31685 0.29017
 C1042 C 0.12327 0.31162 0.31113
 C1043 C 0.12288 0.29073 0.31661
 C1044 C 0.12257 0.27546 0.30152
 C1045 C 0.12252 0.26445 0.26457
 N1046 N 0.12250 0.24427 0.26985
 N1047 N 0.12252 0.22968 0.25550
 C1048 C 0.12256 0.23464 0.23523
 N1049 N 0.12256 0.25483 0.22995
 N1050 N 0.12254 0.26942 0.24430
 C1051 C 0.12273 0.21841 0.21923
 C1052 C 0.12272 0.22364 0.19828
 C1053 C 0.12306 0.20838 0.18319
 C1054 C 0.12343 0.18748 0.18866
 C1055 C 0.12336 0.18225 0.20962
 C1056 C 0.12302 0.19752 0.22472
 H1057 H 0.12303 0.30617 0.25909
 H1058 H 0.12358 0.33277 0.28538
 H1059 H 0.12288 0.28610 0.33259
 H1060 H 0.12233 0.25954 0.30633
 H1061 H 0.12251 0.23956 0.19348
 H1062 H 0.12311 0.21301 0.16721
 H1063 H 0.12365 0.16632 0.21442
 H1064 H 0.12303 0.19293 0.24071
 C1065 C 0.12250 0.71893 0.71940
 C1066 C 0.12247 0.72416 0.69845
 C1067 C 0.12279 0.70891 0.68335
 C1068 C 0.12317 0.68801 0.68881
 C1069 C 0.12313 0.68277 0.70977
 C1070 C 0.12279 0.69804 0.72487
 C1071 C 0.12235 0.73515 0.73541
 N1072 N 0.12233 0.73017 0.75567
 N1073 N 0.12232 0.74474 0.77004
 C1074 C 0.12234 0.76493 0.76477
 N1075 N 0.12234 0.76991 0.74451
 N1076 N 0.12234 0.75534 0.73014
 C1077 C 0.12248 0.78115 0.78079
 C1078 C 0.12278 0.80204 0.77532
 C1079 C 0.12310 0.81730 0.79043
 C1080 C 0.12311 0.81205 0.81139
 C1081 C 0.12274 0.79115 0.81684
 C1082 C 0.12243 0.77590 0.80173
 H1083 H 0.12224 0.74008 0.69365
 H1084 H 0.12283 0.71354 0.66737
 H1085 H 0.12342 0.66684 0.71456
 H1086 H 0.12283 0.69343 0.74086
 H1087 H 0.12284 0.80665 0.75934
 H1088 H 0.12340 0.83323 0.78566
 H1089 H 0.12275 0.78650 0.83281
 H1090 H 0.12219 0.75998 0.80652
 C1091 C 0.87711 0.21860 0.78059
 C1092 C 0.87682 0.19771 0.77510
 C1093 C 0.87648 0.18245 0.79019
 C1094 C 0.87644 0.18770 0.81115
 C1095 C 0.87681 0.20859 0.81663
 C1096 C 0.87714 0.22384 0.80154
 C1097 C 0.87726 0.23481 0.76460
 N1098 N 0.87727 0.25499 0.76988
 N1099 N 0.87725 0.26956 0.75552
 C1100 C 0.87723 0.26457 0.73525
 N1101 N 0.87725 0.24438 0.72997
 N1102 N 0.87726 0.22981 0.74434
 C1103 C 0.87706 0.28078 0.71925
 C1104 C 0.87708 0.27552 0.69831
 C1105 C 0.87673 0.29077 0.68322
 C1106 C 0.87635 0.31167 0.68870
 C1107 C 0.87641 0.31692 0.70965
 C1108 C 0.87677 0.30166 0.72475
 H1109 H 0.87679 0.19311 0.75911
 H1110 H 0.87619 0.16652 0.78539
 H1111 H 0.87678 0.21322 0.83261
 H1112 H 0.87737 0.23976 0.80635
 H1113 H 0.87731 0.25960 0.69351
 H1114 H 0.87668 0.28614 0.66724
 H1115 H 0.87611 0.33285 0.71445
 H1116 H 0.87675 0.30627 0.74073
 C1117 C 0.78074 0.37747 0.71917
 C1118 C 0.77531 0.37761 0.69826
 C1119 C 0.79042 0.37723 0.68302
 C1120 C 0.81134 0.37669 0.68831
 C1121 C 0.81676 0.37665 0.70922
 C1122 C 0.80165 0.37703 0.72445
 C1123 C 0.76472 0.37763 0.73536
 N1124 N 0.76995 0.37733 0.75556
 N1125 N 0.75558 0.37730 0.77011
 C1126 C 0.73535 0.37757 0.76510
 N1127 N 0.73012 0.37790 0.74490
 N1128 N 0.74449 0.37793 0.73035
 C1129 C 0.71933 0.37737 0.78130
 C1130 C 0.69841 0.37755 0.77603
 C1131 C 0.68332 0.37715 0.79127
 C1132 C 0.68875 0.37657 0.81217
 C1133 C 0.70968 0.37647 0.81744
 C1134 C 0.72479 0.37687 0.80219
 H1135 H 0.75935 0.37795 0.69363
 H1136 H 0.78567 0.37726 0.66707
 H1137 H 0.83270 0.37623 0.71389
 H1138 H 0.80641 0.37692 0.74039
 H1139 H 0.69365 0.37793 0.76010
 H1140 H 0.66736 0.37723 0.78662
 H1141 H 0.71445 0.37602 0.83337
 H1142 H 0.74075 0.37672 0.80682
 C1143 C 0.28037 0.62204 0.78108
 C1144 C 0.27498 0.62209 0.80200
 C1145 C 0.29012 0.62249 0.81721
 C1146 C 0.31103 0.62287 0.81187
 C1147 C 0.31642 0.62273 0.79094
 C1148 C 0.30128 0.62231 0.77575
 C1149 C 0.26432 0.62186 0.76492
 N1150 N 0.26952 0.62184 0.74470
 N1151 N 0.25512 0.62186 0.73018
 C1152 C 0.23489 0.62189 0.73524
 N1153 N 0.22969 0.62187 0.75546
 N1154 N 0.24410 0.62186 0.76998
 C1155 C 0.21884 0.62210 0.71908
 C1156 C 0.19793 0.62239 0.72440
 C1157 C 0.18281 0.62282 0.70919
 C1158 C 0.18821 0.62296 0.68826
 C1159 C 0.20913 0.62257 0.68294
 C1160 C 0.22425 0.62215 0.69816
 H1161 H 0.25903 0.62188 0.80668
 H1162 H 0.28540 0.62261 0.83316
 H1163 H 0.33236 0.62301 0.78624
 H1164 H 0.30601 0.62228 0.75980
 H1165 H 0.19319 0.62236 0.74034
 H1166 H 0.16686 0.62311 0.71388
 H1167 H 0.21386 0.62268 0.66699
 H1168 H 0.24020 0.62192 0.69349
 C1169 C 0.28035 0.12149 0.28122
 C1170 C 0.27492 0.12159 0.30213
 C1171 C 0.29003 0.12201 0.31737
 C1172 C 0.31095 0.12235 0.31207
 C1173 C 0.31637 0.12216 0.29115
 C1174 C 0.30127 0.12173 0.27593
 C1175 C 0.26433 0.12130 0.26502
 N1176 N 0.26957 0.12125 0.24482
 N1177 N 0.25520 0.12126 0.23026
 C1178 C 0.23496 0.12131 0.23528
 N1179 N 0.22972 0.12133 0.25548
 N1180 N 0.24409 0.12132 0.27004
 C1181 C 0.21896 0.12151 0.21907
 C1182 C 0.19803 0.12181 0.22434
 C1183 C 0.18294 0.12224 0.20910
 C1184 C 0.18838 0.12236 0.18819
 C1185 C 0.20931 0.12196 0.18291
 C1186 C 0.22441 0.12154 0.19816
 H1187 H 0.25896 0.12141 0.30678
 H1188 H 0.28528 0.12217 0.33332
 H1189 H 0.33232 0.12241 0.28647
 H1190 H 0.30603 0.12166 0.25999
 H1191 H 0.19326 0.12179 0.24028
 H1192 H 0.16699 0.12254 0.21376
 H1193 H 0.21408 0.12206 0.16697
 H1194 H 0.24037 0.12131 0.19353
 C1195 C 0.78075 0.12206 0.78080
 C1196 C 0.77535 0.12191 0.80172
 C1197 C 0.79049 0.12225 0.81694
 C1198 C 0.81140 0.12276 0.81161
 C1199 C 0.81679 0.12282 0.79068
 C1200 C 0.80166 0.12247 0.77547
 C1201 C 0.76471 0.12195 0.76463
 N1202 N 0.76991 0.12225 0.74442
 N1203 N 0.75551 0.12231 0.72989
 C1204 C 0.73528 0.12206 0.73495
 N1205 N 0.73008 0.12173 0.75516
 N1206 N 0.74448 0.12168 0.76968
 C1207 C 0.71924 0.12229 0.71877
 C1208 C 0.69832 0.12214 0.72408
 C1209 C 0.68320 0.12254 0.70886
 C1210 C 0.68861 0.12311 0.68795
 C1211 C 0.70954 0.12318 0.68264
 C1212 C 0.72466 0.12278 0.69787
 H1213 H 0.75940 0.12159 0.80639
 H1214 H 0.78576 0.12221 0.83289
 H1215 H 0.83273 0.12321 0.78598
 H1216 H 0.80640 0.12260 0.75953
 H1217 H 0.69357 0.12176 0.74001
 H1218 H 0.66725 0.12248 0.71354
 H1219 H 0.71429 0.12363 0.66670
 H1220 H 0.74062 0.12291 0.69321
 C1221 C 0.71897 0.87715 0.28069
 C1222 C 0.72436 0.87732 0.30160
 C1223 C 0.70922 0.87700 0.31684
 C1224 C 0.68831 0.87651 0.31153
 C1225 C 0.68292 0.87643 0.29060
 C1226 C 0.69806 0.87675 0.27538
 C1227 C 0.73502 0.87724 0.26450
 N1228 N 0.72982 0.87692 0.24429
 N1229 N 0.74422 0.87684 0.22975
 C1230 C 0.76445 0.87708 0.23479
 N1231 N 0.76965 0.87742 0.25500
 N1232 N 0.75525 0.87750 0.26954
 C1233 C 0.78050 0.87684 0.21860
 C1234 C 0.80142 0.87700 0.22388
 C1235 C 0.81654 0.87660 0.20865
 C1236 C 0.81113 0.87603 0.18774
 C1237 C 0.79020 0.87594 0.18245
 C1238 C 0.77508 0.87634 0.19769
 H1239 H 0.74031 0.87763 0.30626
 H1240 H 0.71395 0.87706 0.33279
 H1241 H 0.66698 0.87605 0.28591
 H1242 H 0.69332 0.87661 0.25944
 H1243 H 0.80617 0.87738 0.23981
 H1244 H 0.83249 0.87667 0.21331
 H1245 H 0.78546 0.87549 0.16652
 H1246 H 0.75913 0.87620 0.19305
 C1247 C 0.78084 0.71899 0.37701
 C1248 C 0.77557 0.69806 0.37710
 C1249 C 0.79080 0.68295 0.37675
 C1250 C 0.81168 0.68839 0.37630
 C1251 C 0.81695 0.70933 0.37628
 C1252 C 0.80172 0.72444 0.37663
 C1253 C 0.76467 0.73502 0.37719
 N1254 N 0.76969 0.75527 0.37708
 N1255 N 0.75516 0.76966 0.37711
 C1256 C 0.73497 0.76443 0.37724
 N1257 N 0.72995 0.74418 0.37737
 N1258 N 0.74449 0.72979 0.37734
 C1259 C 0.71880 0.78046 0.37710
 C1260 C 0.69792 0.77502 0.37701
 C1261 C 0.68269 0.79014 0.37667
 C1262 C 0.68798 0.81108 0.37641
 C1263 C 0.70887 0.81651 0.37659
 C1264 C 0.72408 0.80139 0.37693
 H1265 H 0.75966 0.69329 0.37739
 H1266 H 0.78615 0.66698 0.37678
 H1267 H 0.83287 0.71410 0.37592
 H1268 H 0.80635 0.74041 0.37655
 H1269 H 0.69329 0.75905 0.37713
 H1270 H 0.66677 0.78539 0.37653
 H1271 H 0.71353 0.83247 0.37640
 H1272 H 0.74000 0.80615 0.37700
 C1273 C 0.78085 0.28047 0.62256
 C1274 C 0.77554 0.30140 0.62262
 C1275 C 0.79074 0.31653 0.62303
 C1276 C 0.81164 0.31112 0.62338
 C1277 C 0.81695 0.29019 0.62323
 C1278 C 0.80174 0.27505 0.62283
 C1279 C 0.76469 0.26442 0.62233
 N1280 N 0.76974 0.24418 0.62243
 N1281 N 0.75523 0.22978 0.62238
 C1282 C 0.73503 0.23499 0.62222
 N1283 N 0.72999 0.25523 0.62210
 N1284 N 0.74450 0.26963 0.62215
 C1285 C 0.71888 0.21894 0.62234
 C1286 C 0.69798 0.22436 0.62229
 C1287 C 0.68277 0.20923 0.62264
 C1288 C 0.68807 0.18830 0.62306
 C1289 C 0.70897 0.18288 0.62301
 C1290 C 0.72418 0.19801 0.62266
 H1291 H 0.75962 0.30615 0.62242
 H1292 H 0.78606 0.33249 0.62313
 H1293 H 0.83288 0.28544 0.62351
 H1294 H 0.80640 0.25909 0.62279
 H1295 H 0.69333 0.24033 0.62205
 H1296 H 0.66684 0.21398 0.62268
 H1297 H 0.71365 0.16692 0.62333
 H1298 H 0.74010 0.19326 0.62270
 C1299 C 0.71902 0.71862 0.12219
 C1300 C 0.69813 0.72406 0.12247
 C1301 C 0.68291 0.70893 0.12287
 C1302 C 0.68821 0.68799 0.12300
 C1303 C 0.70911 0.68257 0.12264
 C1304 C 0.72431 0.69769 0.12224
 C1305 C 0.73518 0.73467 0.12199
 N1306 N 0.75537 0.72946 0.12181
 N1307 N 0.76988 0.74387 0.12178
 C1308 C 0.76483 0.76411 0.12192
 N1309 N 0.74464 0.76932 0.12206
 N1310 N 0.73013 0.75491 0.12210
 C1311 C 0.78098 0.78017 0.12206
 C1312 C 0.77567 0.80109 0.12238
 C1313 C 0.79086 0.81623 0.12275
 C1314 C 0.81176 0.81083 0.12280
 C1315 C 0.81709 0.78990 0.12238
 C1316 C 0.80188 0.77476 0.12201
 H1317 H 0.69348 0.74002 0.12244
 H1318 H 0.66699 0.71369 0.12315
 H1319 H 0.71377 0.66660 0.12273
 H1320 H 0.74024 0.69293 0.12203
 H1321 H 0.75974 0.80583 0.12243
 H1322 H 0.78617 0.83218 0.12308
 H1323 H 0.83302 0.78517 0.12242
 H1324 H 0.80655 0.75880 0.12176
 C1325 C 0.28088 0.28022 0.12262
 C1326 C 0.27557 0.30115 0.12269
 C1327 C 0.29076 0.31629 0.12304
 C1328 C 0.31166 0.31088 0.12333
 C1329 C 0.31698 0.28995 0.12317
 C1330 C 0.30177 0.27481 0.12282
 C1331 C 0.26473 0.26417 0.12247
 N1332 N 0.26978 0.24392 0.12249
 N1333 N 0.25528 0.22952 0.12250
 C1334 C 0.23508 0.23472 0.12249
 N1335 N 0.23003 0.25496 0.12245
 N1336 N 0.24454 0.26937 0.12244
 C1337 C 0.21893 0.21867 0.12266
 C1338 C 0.19804 0.22409 0.12282
 C1339 C 0.18283 0.20895 0.12317
 C1340 C 0.18814 0.18802 0.12336
 C1341 C 0.20904 0.18261 0.12313
 C1342 C 0.22424 0.19774 0.12278
 H1343 H 0.25964 0.30589 0.12254
 H1344 H 0.28608 0.33224 0.12316
 H1345 H 0.33291 0.28521 0.12340
 H1346 H 0.30644 0.25884 0.12278
 H1347 H 0.19338 0.24005 0.12273
 H1348 H 0.16690 0.21370 0.12335
 H1349 H 0.21372 0.16665 0.12328
 H1350 H 0.24016 0.19299 0.12266
 C1351 C 0.28054 0.71917 0.87739
 C1352 C 0.27526 0.69824 0.87729
 C1353 C 0.29047 0.68311 0.87694
 C1354 C 0.31137 0.68852 0.87669
 C1355 C 0.31666 0.70946 0.87687
 C1356 C 0.30143 0.72459 0.87722
 C1357 C 0.26437 0.73523 0.87756
 N1358 N 0.26940 0.75547 0.87759
 N1359 N 0.25488 0.76988 0.87760
 C1360 C 0.23468 0.76467 0.87757
 N1361 N 0.22965 0.74443 0.87757
 N1362 N 0.24418 0.73002 0.87756
 C1363 C 0.21851 0.78073 0.87743
 C1364 C 0.19762 0.77532 0.87724
 C1365 C 0.18240 0.79046 0.87691
 C1366 C 0.18769 0.81140 0.87677
 C1367 C 0.20859 0.81680 0.87704
 C1368 C 0.22380 0.80166 0.87736
 H1369 H 0.25934 0.69349 0.87742
 H1370 H 0.28581 0.66715 0.87680
 H1371 H 0.33259 0.71420 0.87667
 H1372 H 0.30608 0.74056 0.87730
 H1373 H 0.19297 0.75936 0.87729
 H1374 H 0.16647 0.78572 0.87670
 H1375 H 0.21326 0.83276 0.87692
 H1376 H 0.23972 0.80641 0.87751
 C1377 C 0.28052 0.21872 0.37749
 C1378 C 0.27522 0.19780 0.37742
 C1379 C 0.29042 0.18266 0.37709
 C1380 C 0.31132 0.18807 0.37683
 C1381 C 0.31662 0.20900 0.37699
 C1382 C 0.30141 0.22414 0.37732
 C1383 C 0.26437 0.23477 0.37761
 N1384 N 0.26943 0.25501 0.37760
 N1385 N 0.25492 0.26942 0.37756
 C1386 C 0.23473 0.26423 0.37752
 N1387 N 0.22967 0.24399 0.37756
 N1388 N 0.24418 0.22958 0.37760
 C1389 C 0.21859 0.28029 0.37732
 C1390 C 0.19769 0.27489 0.37711
 C1391 C 0.18250 0.29004 0.37672
 C1392 C 0.18783 0.31097 0.37653
 C1393 C 0.20873 0.31636 0.37681
 C1394 C 0.22391 0.30121 0.37720
 H1395 H 0.25930 0.19305 0.37755
 H1396 H 0.28575 0.16670 0.37697
 H1397 H 0.33255 0.21374 0.37678
 H1398 H 0.30607 0.24010 0.37737
 H1399 H 0.19303 0.25893 0.37719
 H1400 H 0.16656 0.28532 0.37650
 H1401 H 0.21342 0.33231 0.37667
 H1402 H 0.23984 0.30594 0.37736
 C1403 C 0.53084 0.62260 1.03058
 C1404 C 0.52555 0.62274 1.05151
 C1405 C 0.54076 0.62302 1.06664
 C1406 C 0.56165 0.62315 1.06121
 C1407 C 0.56695 0.62292 1.04026
 C1408 C 0.55173 0.62265 1.02514
 C1409 C 0.51467 0.62249 1.01454
 N1410 N 0.51970 0.62249 0.99428
 N1411 N 0.50517 0.62254 0.97989
 C1412 C 0.48498 0.62259 0.98513
 N1413 N 0.47995 0.62257 1.00538
 N1414 N 0.49448 0.62252 1.01978
 C1415 C 0.46881 0.62280 0.96910
 C1416 C 0.44792 0.62293 0.97455
 C1417 C 0.43269 0.62328 0.95942
 C1418 C 0.43798 0.62352 0.93848
 C1419 C 0.45888 0.62331 0.93304
 C1420 C 0.47409 0.62297 0.94816
 H1421 H 0.50963 0.62269 1.05628
 H1422 H 0.53609 0.62313 1.08261
 H1423 H 0.58288 0.62296 1.03551
 H1424 H 0.55637 0.62251 1.00916
 H1425 H 0.44328 0.62280 0.99052
 H1426 H 0.41676 0.62338 0.96418
 H1427 H 0.46354 0.62343 0.91707
 H1428 H 0.49001 0.62285 0.94339
 C1429 C 0.46880 0.12261 0.46925
 C1430 C 0.44792 0.12276 0.47475
 C1431 C 0.43266 0.12305 0.45966
 C1432 C 0.43790 0.12323 0.43870
 C1433 C 0.45878 0.12301 0.43322
 C1434 C 0.47403 0.12271 0.44830
 C1435 C 0.48502 0.12247 0.48523
 N1436 N 0.50519 0.12240 0.47993
 N1437 N 0.51977 0.12242 0.49427
 C1438 C 0.51482 0.12250 0.51454
 N1439 N 0.49465 0.12254 0.51985
 N1440 N 0.48007 0.12252 0.50550
 C1441 C 0.53105 0.12268 0.53052
 C1442 C 0.52583 0.12292 0.55148
 C1443 C 0.54109 0.12327 0.56654
 C1444 C 0.56197 0.12340 0.56104
 C1445 C 0.56720 0.12307 0.54008
 C1446 C 0.55192 0.12273 0.52501
 H1447 H 0.44333 0.12267 0.49073
 H1448 H 0.41674 0.12317 0.46445
 H1449 H 0.46341 0.12307 0.41723
 H1450 H 0.48994 0.12258 0.44348
 H1451 H 0.50992 0.12287 0.55630
 H1452 H 0.53647 0.12345 0.58253
 H1453 H 0.58311 0.12310 0.53527
 H1454 H 0.55651 0.12253 0.50902
 C1455 C 0.53060 0.87666 0.46906
 C1456 C 0.52531 0.87649 0.44812
 C1457 C 0.54051 0.87615 0.43298
 C1458 C 0.56141 0.87597 0.43838
 C1459 C 0.56671 0.87622 0.45932
 C1460 C 0.55150 0.87655 0.47447
 C1461 C 0.51443 0.87686 0.48512
 N1462 N 0.51947 0.87691 0.50537
 N1463 N 0.50495 0.87696 0.51978
 C1464 C 0.48475 0.87696 0.51458
 N1465 N 0.47972 0.87694 0.49433
 N1466 N 0.49424 0.87689 0.47992
 C1467 C 0.46858 0.87686 0.53065
 C1468 C 0.44769 0.87678 0.52524
 C1469 C 0.43247 0.87653 0.54039
 C1470 C 0.43778 0.87634 0.56133
 C1471 C 0.45868 0.87651 0.56673
 C1472 C 0.47388 0.87676 0.55158
 H1473 H 0.50938 0.87658 0.44337
 H1474 H 0.53584 0.87603 0.41701
 H1475 H 0.58265 0.87614 0.46405
 H1476 H 0.55615 0.87670 0.49043
 H1477 H 0.44304 0.87688 0.50927
 H1478 H 0.41654 0.87646 0.53565
 H1479 H 0.46335 0.87642 0.58269
 H1480 H 0.48981 0.87684 0.55633
 C1481 C 1.03071 0.37688 0.46913
 C1482 C 1.02540 0.37674 0.44820
 C1483 C 1.04059 0.37641 0.43306
 C1484 C 1.06149 0.37619 0.43846
 C1485 C 1.06681 0.37642 0.45940
 C1486 C 1.05160 0.37675 0.47454
 C1487 C 1.01457 0.37704 0.48519
 N1488 N 1.01962 0.37705 0.50543
 N1489 N 1.00511 0.37705 0.51985
 C1490 C 0.98492 0.37704 0.51466
 N1491 N 0.97986 0.37706 0.49442
 N1492 N 0.99437 0.37707 0.48000
 C1493 C 0.96878 0.37687 0.53072
 C1494 C 0.94788 0.37676 0.52532
 C1495 C 0.93268 0.37642 0.54048
 C1496 C 0.93802 0.37618 0.56141
 C1497 C 0.95892 0.37638 0.56680
 C1498 C 0.97410 0.37671 0.55165
 H1499 H 1.00947 0.37686 0.44346
 H1500 H 1.03591 0.37630 0.41710
 H1501 H 1.08274 0.37631 0.46413
 H1502 H 1.05626 0.37687 0.49051
 H1503 H 0.94322 0.37689 0.50936
 H1504 H 0.91675 0.37633 0.53576
 H1505 H 0.96361 0.37626 0.58276
 H1506 H 0.99003 0.37682 0.55638
 C1507 C -0.03205 0.87665 1.03073
 C1508 C -0.02682 0.87651 1.05167
 C1509 C -0.04204 0.87614 1.06678
 C1510 C -0.06301 0.87589 1.06140
 C1511 C -0.06819 0.87612 1.04037
 C1512 C -0.05292 0.87649 1.02527
 C1513 C -0.01584 0.87687 1.01471
 N1514 N -0.02081 0.87690 0.99445
 N1515 N -0.00625 0.87695 0.98008
 C1516 C 0.01393 0.87696 0.98534
 N1517 N 0.01890 0.87696 1.00560
 N1518 N 0.00434 0.87691 1.01997
 C1519 C 0.03014 0.87685 0.96932
 C1520 C 0.05103 0.87676 0.97479
 C1521 C 0.06629 0.87649 0.95967
 C1522 C 0.06104 0.87630 0.93872
 C1523 C 0.04015 0.87648 0.93327
 C1524 C 0.02490 0.87675 0.94837
 H1525 H -0.01090 0.87665 1.05645
 H1526 H -0.03726 0.87603 1.08272
 H1527 H -0.08407 0.87600 1.03545
 H1528 H -0.05752 0.87662 1.00929
 H1529 H 0.05563 0.87686 0.99077
 H1530 H 0.08221 0.87641 0.96445
 H1531 H 0.03551 0.87640 0.91729
 H1532 H 0.00899 0.87684 0.94358
 C1533 C -0.03095 0.12247 -0.03102
 C1534 C -0.05185 0.12261 -0.02560
 C1535 C -0.06705 0.12293 -0.04075
 C1536 C -0.06174 0.12313 -0.06169
 C1537 C -0.04083 0.12291 -0.06710
 C1538 C -0.02564 0.12259 -0.05196
 C1539 C -0.01480 0.12231 -0.01496
 N1540 N 0.00539 0.12227 -0.02017
 N1541 N 0.01990 0.12227 -0.00575
 C1542 C 0.01484 0.12231 0.01450
 N1543 N -0.00535 0.12232 0.01970
 N1544 N -0.01986 0.12232 0.00528
 C1545 C 0.03099 0.12247 0.03056
 C1546 C 0.02566 0.12264 0.05149
 C1547 C 0.04084 0.12295 0.06664
 C1548 C 0.06174 0.12310 0.06125
 C1549 C 0.06708 0.12285 0.04032
 C1550 C 0.05189 0.12254 0.02516
 H1551 H -0.05651 0.12250 -0.00964
 H1552 H -0.08299 0.12303 -0.03601
 H1553 H -0.03615 0.12301 -0.08306
 H1554 H -0.00971 0.12247 -0.05671
 H1555 H 0.00973 0.12256 0.05623
 H1556 H 0.03614 0.12308 0.08260
 H1557 H 0.08302 0.12291 0.03559
 H1558 H 0.05656 0.12240 0.00919
 C1559 C 0.12246 1.03064 1.03166
 C1560 C 0.12265 1.05158 1.02646
 C1561 C 0.12307 1.06665 1.04173
 C1562 C 0.12332 1.06123 1.06270
 C1563 C 0.12303 1.04020 1.06785
 C1564 C 0.12261 1.02514 1.05254
 C1565 C 0.12220 1.01467 1.01539
 N1566 N 0.12216 0.99440 1.02032
 N1567 N 0.12209 0.98008 1.00570
 C1568 C 0.12205 0.98540 0.98551
 N1569 N 0.12206 1.00567 0.98059
 N1570 N 0.12213 1.01999 0.99521
 C1571 C 0.12216 0.96944 0.96924
 C1572 C 0.12223 0.97496 0.94835
 C1573 C 0.12254 0.95990 0.93303
 C1574 C 0.12281 0.93894 0.93823
 C1575 C 0.12264 0.93343 0.95912
 C1576 C 0.12232 0.94848 0.97442
 H1577 H 0.12252 1.05639 1.01054
 H1578 H 0.12322 1.08259 1.03697
 H1579 H 0.12314 1.03525 1.08374
 H1580 H 0.12245 1.00915 1.05711
 H1581 H 0.12208 0.99095 0.94378
 H1582 H 0.12260 0.96472 0.91711
 H1583 H 0.12278 0.91745 0.96372
 H1584 H 0.12226 0.94365 0.99034
 C1585 C 0.12248 0.46920 0.46878
 C1586 C 0.12258 0.47471 0.44789
 C1587 C 0.12294 0.45963 0.43259
 C1588 C 0.12322 0.43868 0.43781
 C1589 C 0.12303 0.43319 0.45871
 C1590 C 0.12267 0.44826 0.47399
 C1591 C 0.12230 0.48518 0.48504
 N1592 N 0.12228 0.47987 0.50523
 N1593 N 0.12227 0.49420 0.51983
 C1594 C 0.12229 0.51447 0.51489
 N1595 N 0.12228 0.51978 0.49471
 N1596 N 0.12228 0.50545 0.48010
 C1597 C 0.12247 0.53045 0.53115
 C1598 C 0.12265 0.55139 0.52594
 C1599 C 0.12300 0.56646 0.54123
 C1600 C 0.12319 0.56097 0.56212
 C1601 C 0.12291 0.54001 0.56735
 C1602 C 0.12256 0.52494 0.55205
 H1603 H 0.12242 0.49069 0.44330
 H1604 H 0.12302 0.46443 0.41666
 H1605 H 0.12318 0.41721 0.46332
 H1606 H 0.12257 0.44344 0.48991
 H1607 H 0.12256 0.55621 0.51002
 H1608 H 0.12315 0.58244 0.53661
 H1609 H 0.12298 0.53521 0.58327
 H1610 H 0.12240 0.50896 0.55663
 C1611 C 0.37721 0.46904 1.03115
 C1612 C 0.37705 0.44809 1.02592
 C1613 C 0.37670 0.43302 1.04120
 C1614 C 0.37649 0.43850 1.06210
 C1615 C 0.37675 0.45946 1.06734
 C1616 C 0.37710 0.47454 1.05205
 C1617 C 0.37738 0.48503 1.01490
 N1618 N 0.37737 0.50530 1.01986
 N1619 N 0.37735 0.51964 1.00526
 C1620 C 0.37734 0.51434 0.98507
 N1621 N 0.37738 0.49408 0.98011
 N1622 N 0.37740 0.47974 0.99470
 C1623 C 0.37714 0.53033 0.96882
 C1624 C 0.37705 0.52484 0.94792
 C1625 C 0.37667 0.53993 0.93263
 C1626 C 0.37636 0.56089 0.93787
 C1627 C 0.37655 0.56636 0.95878
 C1628 C 0.37693 0.55128 0.97405
 H1629 H 0.37716 0.44328 1.01000
 H1630 H 0.37656 0.41704 1.03657
 H1631 H 0.37666 0.46426 1.08327
 H1632 H 0.37725 0.49052 1.05664
 H1633 H 0.37724 0.50886 0.94332
 H1634 H 0.37660 0.53513 0.91670
 H1635 H 0.37637 0.58233 0.96341
 H1636 H 0.37701 0.55609 0.98997
 C1637 C 0.87693 0.53076 0.46927
 C1638 C 0.87679 0.52528 0.44837
 C1639 C 0.87643 0.54038 0.43312
 C1640 C 0.87619 0.56132 0.43839
 C1641 C 0.87641 0.56679 0.45930
 C1642 C 0.87677 0.55170 0.47454
 C1643 C 0.87714 0.51476 0.48548
 N1644 N 0.87720 0.52001 0.50568
 N1645 N 0.87723 0.50565 0.52024
 C1646 C 0.87720 0.48539 0.51523
 N1647 N 0.87717 0.48014 0.49503
 N1648 N 0.87714 0.49450 0.48047
 C1649 C 0.87705 0.46939 0.53142
 C1650 C 0.87684 0.44845 0.52614
 C1651 C 0.87650 0.43335 0.54137
 C1652 C 0.87635 0.43880 0.56228
 C1653 C 0.87666 0.45974 0.56758
 C1654 C 0.87700 0.47485 0.55233
 H1655 H 0.87692 0.50931 0.44375
 H1656 H 0.87632 0.53561 0.41718
 H1657 H 0.87629 0.58276 0.46394
 H1658 H 0.87690 0.55648 0.49047
 H1659 H 0.87689 0.44368 0.51021
 H1660 H 0.87632 0.41739 0.53671
 H1661 H 0.87662 0.46450 0.58352
 H1662 H 0.87718 0.49082 0.55696
 C1663 C 0.87775 1.02987 -0.03170
 C1664 C 0.87780 1.02444 -0.05262
 C1665 C 0.87731 1.03956 -0.06784
 C1666 C 0.87675 1.06049 -0.06252
 C1667 C 0.87680 1.06591 -0.04161
 C1668 C 0.87729 1.05079 -0.02639
 C1669 C 0.87806 1.01384 -0.01553
 N1670 N 0.87783 1.01907 0.00468
 N1671 N 0.87791 1.00469 0.01922
 C1672 C 0.87823 0.98444 0.01419
 N1673 N 0.87850 0.97921 -0.00602
 N1674 N 0.87842 0.99360 -0.02056
 C1675 C 0.87807 0.96842 0.03037
 C1676 C 0.87828 0.94749 0.02509
 C1677 C 0.87784 0.93238 0.04031
 C1678 C 0.87718 0.93782 0.06122
 C1679 C 0.87711 0.95876 0.06651
 C1680 C 0.87755 0.97387 0.05127
 H1681 H 0.87817 1.00848 -0.05727
 H1682 H 0.87736 1.03482 -0.08379
 H1683 H 0.87644 1.08187 -0.03692
 H1684 H 0.87726 1.05555 -0.01045
 H1685 H 0.87871 0.94272 0.00915
 H1686 H 0.87797 0.91641 0.03565
 H1687 H 0.87667 0.96352 0.08244
 H1688 H 0.87741 0.98984 0.05591
 C1689 C 0.62192 -0.03070 0.46844
 C1690 C 0.62189 -0.02526 0.44754
 C1691 C 0.62238 -0.04038 0.43229
 C1692 C 0.62290 -0.06131 0.43758
 C1693 C 0.62283 -0.06674 0.45849
 C1694 C 0.62235 -0.05162 0.47372
 C1695 C 0.62162 -0.01467 0.48464
 N1696 N 0.62183 -0.01990 0.50485
 N1697 N 0.62175 -0.00552 0.51940
 C1698 C 0.62146 0.01473 0.51439
 N1699 N 0.62121 0.01996 0.49419
 N1700 N 0.62129 0.00558 0.47963
 C1701 C 0.62161 0.03076 0.53060
 C1702 C 0.62143 0.05169 0.52533
 C1703 C 0.62187 0.06680 0.54057
 C1704 C 0.62250 0.06136 0.56147
 C1705 C 0.62253 0.04042 0.56675
 C1706 C 0.62210 0.02531 0.55150
 H1707 H 0.62154 -0.00929 0.44290
 H1708 H 0.62234 -0.03563 0.41634
 H1709 H 0.62317 -0.08270 0.46316
 H1710 H 0.62236 -0.05639 0.48966
 H1711 H 0.62103 0.05646 0.50940
 H1712 H 0.62176 0.08277 0.53592
 H1713 H 0.62295 0.03566 0.58268
 H1714 H 0.62222 0.00933 0.55612
 C1715 C 0.46877 1.03044 0.37858
 C1716 C 0.47414 1.05135 0.37818
 C1717 C 0.45898 1.06654 0.37769
 C1718 C 0.43808 1.06118 0.37758
 C1719 C 0.43271 1.04027 0.37812
 C1720 C 0.44787 1.02509 0.37861
 C1721 C 0.48484 1.01432 0.37878
 N1722 N 0.47969 0.99410 0.37880
 N1723 N 0.49413 0.97961 0.37874
 C1724 C 0.51434 0.98471 0.37865
 N1725 N 0.51949 1.00493 0.37868
 N1726 N 0.50506 1.01941 0.37874
 C1727 C 0.53042 0.96859 0.37833
 C1728 C 0.55131 0.97395 0.37823
 C1729 C 0.56647 0.95878 0.37765
 C1730 C 0.56112 0.93786 0.37714
 C1731 C 0.54021 0.93250 0.37735
 C1732 C 0.52505 0.94767 0.37794
 H1733 H 0.49008 1.05604 0.37818
 H1734 H 0.46368 1.08249 0.37735
 H1735 H 0.41677 1.03556 0.37812
 H1736 H 0.44316 1.00915 0.37894
 H1737 H 0.55602 0.98989 0.37855
 H1738 H 0.58241 0.96349 0.37757
 H1739 H 0.53552 0.91655 0.37703
 H1740 H 0.50911 0.94298 0.37802
 C1741 C -0.03087 -0.03157 0.12218
 C1742 C -0.05178 -0.02622 0.12255
 C1743 C -0.06692 -0.04141 0.12299
 C1744 C -0.06155 -0.06233 0.12309
 C1745 C -0.04064 -0.06768 0.12265
 C1746 C -0.02549 -0.05248 0.12220
 C1747 C -0.01481 -0.01543 0.12188
 N1748 N 0.00541 -0.02051 0.12157
 N1749 N 0.01983 -0.00601 0.12148
 C1750 C 0.01465 0.01421 0.12168
 N1751 N -0.00557 0.01929 0.12195
 N1752 N -0.01998 0.00479 0.12205
 C1753 C 0.03072 0.03035 0.12180
 C1754 C 0.02533 0.05126 0.12226
 C1755 C 0.04048 0.06646 0.12267
 C1756 C 0.06139 0.06111 0.12262
 C1757 C 0.06677 0.04020 0.12202
 C1758 C 0.05163 0.02501 0.12162
 H1759 H -0.05650 -0.01028 0.12252
 H1760 H -0.08286 -0.03670 0.12327
 H1761 H -0.03592 -0.08363 0.12265
 H1762 H -0.00955 -0.05717 0.12191
 H1763 H 0.00938 0.05594 0.12239
 H1764 H 0.03576 0.08240 0.12307
 H1765 H 0.08272 0.03550 0.12191
 H1766 H 0.05635 0.00907 0.12123
 C1767 C 0.53065 0.53047 0.12156
 C1768 C 0.52528 0.55139 0.12193
 C1769 C 0.54044 0.56657 0.12241
 C1770 C 0.56135 0.56120 0.12253
 C1771 C 0.56671 0.54028 0.12202
 C1772 C 0.55156 0.52511 0.12155
 C1773 C 0.51458 0.51434 0.12135
 N1774 N 0.51973 0.49412 0.12132
 N1775 N 0.50531 0.47963 0.12136
 C1776 C 0.48509 0.48473 0.12142
 N1777 N 0.47993 0.50495 0.12140
 N1778 N 0.49436 0.51944 0.12136
 C1779 C 0.46902 0.46860 0.12170
 C1780 C 0.44811 0.47395 0.12176
 C1781 C 0.43296 0.45877 0.12229
 C1782 C 0.43833 0.43785 0.12279
 C1783 C 0.45925 0.43250 0.12261
 C1784 C 0.47440 0.44769 0.12208
 H1785 H 0.50934 0.55608 0.12193
 H1786 H 0.53574 0.58252 0.12274
 H1787 H 0.58265 0.53556 0.12203
 H1788 H 0.55627 0.50917 0.12123
 H1789 H 0.44339 0.48989 0.12145
 H1790 H 0.41702 0.46348 0.12235
 H1791 H 0.46396 0.41655 0.12292
 H1792 H 0.49034 0.44300 0.12202
 C1793 C -0.03101 0.46885 0.62167
 C1794 C -0.05192 0.47418 0.62173
 C1795 C -0.06706 0.45900 0.62225
 C1796 C -0.06167 0.43808 0.62273
 C1797 C -0.04076 0.43274 0.62254
 C1798 C -0.02561 0.44794 0.62202
 C1799 C -0.01495 0.48499 0.62142
 N1800 N 0.00528 0.47992 0.62138
 N1801 N 0.01969 0.49442 0.62138
 C1802 C 0.01451 0.51464 0.62141
 N1803 N -0.00571 0.51971 0.62140
 N1804 N -0.02013 0.50521 0.62140
 C1805 C 0.03057 0.53078 0.62166
 C1806 C 0.02517 0.55169 0.62204
 C1807 C 0.04031 0.56689 0.62255
 C1808 C 0.06122 0.56156 0.62271
 C1809 C 0.06662 0.54065 0.62221
 C1810 C 0.05148 0.52546 0.62170
 H1811 H -0.05664 0.49012 0.62144
 H1812 H -0.08300 0.46370 0.62231
 H1813 H -0.03603 0.41679 0.62284
 H1814 H -0.00966 0.44326 0.62196
 H1815 H 0.00922 0.55637 0.62200
 H1816 H 0.03558 0.58284 0.62287
 H1817 H 0.08256 0.53596 0.62225
 H1818 H 0.05621 0.50952 0.62139
 C1819 C 0.46900 0.53084 0.87785
 C1820 C 0.47435 0.55175 0.87742
 C1821 C 0.45918 0.56694 0.87703
 C1822 C 0.43827 0.56159 0.87705
 C1823 C 0.43292 0.54066 0.87761
 C1824 C 0.44809 0.52549 0.87800
 C1825 C 0.48509 0.51470 0.87799
 N1826 N 0.47995 0.49448 0.87818
 N1827 N 0.49440 0.47999 0.87811
 C1828 C 0.51461 0.48508 0.87786
 N1829 N 0.51975 0.50531 0.87771
 N1830 N 0.50531 0.51979 0.87777
 C1831 C 0.53071 0.46895 0.87761
 C1832 C 0.55161 0.47430 0.87730
 C1833 C 0.56678 0.45912 0.87690
 C1834 C 0.56144 0.43819 0.87679
 C1835 C 0.54053 0.43284 0.87717
 C1836 C 0.52536 0.44803 0.87757
 H1837 H 0.49029 0.55645 0.87733
 H1838 H 0.46387 0.58289 0.87667
 H1839 H 0.41698 0.53595 0.87770
 H1840 H 0.44339 0.50954 0.87835
 H1841 H 0.55631 0.49025 0.87734
 H1842 H 0.58271 0.46384 0.87667
 H1843 H 0.53584 0.41688 0.87715
 H1844 H 0.50942 0.44333 0.87782
 C1845 C 0.62218 0.53044 1.03177
 C1846 C 0.62242 0.55135 1.02649
 C1847 C 0.62289 0.56648 1.04170
 C1848 C 0.62314 0.56113 1.06269
 C1849 C 0.62280 0.54012 1.06792
 C1850 C 0.62233 0.52501 1.05266
 C1851 C 0.62189 0.51440 1.01557
 N1852 N 0.62169 0.49415 1.02058
 N1853 N 0.62162 0.47977 1.00602
 C1854 C 0.62174 0.48500 0.98582
 N1855 N 0.62190 0.50525 0.98081
 N1856 N 0.62197 0.51964 0.99536
 C1857 C 0.62190 0.46898 0.96961
 C1858 C 0.62231 0.47443 0.94871
 C1859 C 0.62274 0.45932 0.93346
 C1860 C 0.62278 0.43837 0.93873
 C1861 C 0.62223 0.43293 0.95964
 C1862 C 0.62180 0.44804 0.97488
 H1863 H 0.62229 0.55611 1.01055
 H1864 H 0.62308 0.58241 1.03689
 H1865 H 0.62292 0.53522 1.08382
 H1866 H 0.62213 0.50904 1.05730
 H1867 H 0.62237 0.49040 0.94409
 H1868 H 0.62310 0.46408 0.91752
 H1869 H 0.62219 0.41696 0.96429
 H1870 H 0.62146 0.44327 0.99081
 C1871 C 0.37691 1.03078 0.46856
 C1872 C 0.37676 1.02526 0.44768
 C1873 C 0.37640 1.04031 0.43236
 C1874 C 0.37618 1.06135 0.43750
 C1875 C 0.37643 1.06679 0.45848
 C1876 C 0.37679 1.05172 0.47375
 C1877 C 0.37708 1.01481 0.48484
 N1878 N 0.37713 1.02013 0.50503
 N1879 N 0.37713 1.00581 0.51964
 C1880 C 0.37706 0.98554 0.51471
 N1881 N 0.37703 0.98022 0.49453
 N1882 N 0.37704 0.99454 0.47991
 C1883 C 0.37687 0.96957 0.53099
 C1884 C 0.37664 0.94862 0.52579
 C1885 C 0.37628 0.93356 0.54108
 C1886 C 0.37612 0.93907 0.56198
 C1887 C 0.37644 0.96003 0.56719
 C1888 C 0.37680 0.97509 0.55188
 H1889 H 0.37687 1.00927 0.44311
 H1890 H 0.37628 1.03535 0.41647
 H1891 H 0.37633 1.08274 0.46323
 H1892 H 0.37692 1.05655 0.48967
 H1893 H 0.37671 0.94378 0.50987
 H1894 H 0.37609 0.91758 0.53647
 H1895 H 0.37639 0.96485 0.58312
 H1896 H 0.37700 0.99108 0.55646
 C1897 C -0.03123 0.62199 0.46920
 C1898 C -0.05212 0.62243 0.47462
 C1899 C -0.06732 0.62279 0.45947
 C1900 C -0.06199 0.62273 0.43853
 C1901 C -0.04110 0.62215 0.43313
 C1902 C -0.02591 0.62179 0.44827
 C1903 C -0.01509 0.62190 0.48527
 N1904 N 0.00511 0.62172 0.48007
 N1905 N 0.01961 0.62184 0.49448
 C1906 C 0.01455 0.62214 0.51473
 N1907 N -0.00564 0.62229 0.51993
 N1908 N -0.02015 0.62217 0.50551
 C1909 C 0.03070 0.62246 0.53079
 C1910 C 0.02537 0.62281 0.55171
 C1911 C 0.04056 0.62326 0.56686
 C1912 C 0.06146 0.62339 0.56146
 C1913 C 0.06679 0.62296 0.54052
 C1914 C 0.05159 0.62251 0.52538
 H1915 H -0.05679 0.62256 0.49058
 H1916 H -0.08325 0.62317 0.46420
 H1917 H -0.03641 0.62203 0.41716
 H1918 H -0.00999 0.62142 0.44353
 H1919 H 0.00944 0.62276 0.55646
 H1920 H 0.03587 0.62353 0.58282
 H1921 H 0.08273 0.62299 0.53579
 H1922 H 0.05626 0.62223 0.50941
 C1923 C 0.46916 0.37674 1.03109
 C1924 C 0.47438 0.37659 1.05204
 C1925 C 0.45913 0.37620 1.06712
 C1926 C 0.43825 0.37595 1.06163
 C1927 C 0.43302 0.37618 1.04067
 C1928 C 0.44829 0.37656 1.02559
 C1929 C 0.48537 0.37698 1.01510
 N1930 N 0.48041 0.37700 0.99484
 N1931 N 0.49499 0.37707 0.98049
 C1932 C 0.51515 0.37712 0.98577
 N1933 N 0.52012 0.37714 1.00604
 N1934 N 0.50554 0.37707 1.02039
 C1935 C 0.53137 0.37701 0.96979
 C1936 C 0.55224 0.37697 0.97528
 C1937 C 0.56751 0.37666 0.96018
 C1938 C 0.56226 0.37638 0.93923
 C1939 C 0.54138 0.37653 0.93375
 C1940 C 0.52614 0.37684 0.94884
 H1941 H 0.49029 0.37674 1.05684
 H1942 H 0.46375 0.37610 1.08310
 H1943 H 0.41710 0.37604 1.03588
 H1944 H 0.44370 0.37669 1.00960
 H1945 H 0.55684 0.37713 0.99126
 H1946 H 0.58342 0.37662 0.96497
 H1947 H 0.53676 0.37638 0.91778
 H1948 H 0.51023 0.37689 0.94404
 C1949 C 0.46877 -0.03087 0.62199
 C1950 C 0.44787 -0.02551 0.62183
 C1951 C 0.43271 -0.04067 0.62220
 C1952 C 0.43806 -0.06159 0.62275
 C1953 C 0.45897 -0.06697 0.62276
 C1954 C 0.47413 -0.05179 0.62239
 C1955 C 0.48486 -0.01475 0.62190
 N1956 N 0.50508 -0.01987 0.62214
 N1957 N 0.51952 -0.00539 0.62227
 C1958 C 0.51438 0.01483 0.62216
 N1959 N 0.49417 0.01994 0.62188
 N1960 N 0.47972 0.00547 0.62176
 C1961 C 0.53047 0.03094 0.62248
 C1962 C 0.52512 0.05187 0.62256
 C1963 C 0.54029 0.06704 0.62302
 C1964 C 0.56120 0.06165 0.62342
 C1965 C 0.56653 0.04072 0.62327
 C1966 C 0.55136 0.02556 0.62281
 H1967 H 0.44317 -0.00956 0.62149
 H1968 H 0.41677 -0.03595 0.62211
 H1969 H 0.46366 -0.08292 0.62312
 H1970 H 0.49007 -0.05649 0.62250
 H1971 H 0.50919 0.05658 0.62230
 H1972 H 0.53561 0.08299 0.62307
 H1973 H 0.58247 0.03598 0.62351
 H1974 H 0.55606 0.00961 0.62274
 C1975 C -0.03063 0.53113 0.37780
 C1976 C -0.02520 0.55203 0.37780
 C1977 C -0.04031 0.56726 0.37731
 C1978 C -0.06123 0.56197 0.37681
 C1979 C -0.06665 0.54106 0.37690
 C1980 C -0.05154 0.52584 0.37739
 C1981 C -0.01461 0.51494 0.37810
 N1982 N -0.01984 0.49475 0.37790
 N1983 N -0.00546 0.48020 0.37797
 C1984 C 0.01477 0.48522 0.37824
 N1985 N 0.02000 0.50541 0.37848
 N1986 N 0.00562 0.51996 0.37841
 C1987 C 0.03078 0.46903 0.37807
 C1988 C 0.05170 0.47430 0.37824
 C1989 C 0.06680 0.45907 0.37779
 C1990 C 0.06137 0.43817 0.37716
 C1991 C 0.04044 0.43289 0.37714
 C1992 C 0.02534 0.44814 0.37758
 H1993 H -0.00925 0.55667 0.37813
 H1994 H -0.03557 0.58320 0.37732
 H1995 H -0.08260 0.53639 0.37658
 H1996 H -0.05630 0.50991 0.37740
 H1997 H 0.05647 0.49022 0.37864
 H1998 H 0.08276 0.46372 0.37789
 H1999 H 0.03568 0.41697 0.37672
 H2000 H 0.00938 0.44351 0.37747
 C2001 C -0.03146 1.03113 0.87808
 C2002 C -0.02610 1.05203 0.87763
 C2003 C -0.04124 1.06724 0.87708
 C2004 C -0.06223 1.06197 0.87696
 C2005 C -0.06753 1.04098 0.87754
 C2006 C -0.05236 1.02581 0.87808
 C2007 C -0.01538 1.01498 0.87839
 N2008 N -0.02054 0.99477 0.87849
 N2009 N -0.00612 0.98026 0.87856
 C2010 C 0.01411 0.98534 0.87854
 N2011 N 0.01927 1.00555 0.87849
 N2012 N 0.00484 1.02006 0.87842
 C2013 C 0.03018 0.96919 0.87837
 C2014 C 0.05109 0.97451 0.87837
 C2015 C 0.06625 0.95932 0.87794
 C2016 C 0.06088 0.93841 0.87748
 C2017 C 0.03997 0.93307 0.87761
 C2018 C 0.02481 0.94827 0.87805
 H2019 H -0.01015 1.05670 0.87763
 H2020 H -0.03638 1.08315 0.87671
 H2021 H -0.08343 1.03614 0.87755
 H2022 H -0.05707 1.00987 0.87846
 H2023 H 0.05581 0.99046 0.87865
 H2024 H 0.08219 0.96402 0.87791
 H2025 H 0.03526 0.91712 0.87733
 H2026 H 0.00887 0.94359 0.87807
 C2027 C 0.78060 0.62200 0.28080
 C2028 C 0.77516 0.62232 0.30171
 C2029 C 0.79026 0.62275 0.31695
 C2030 C 0.81119 0.62286 0.31166
 C2031 C 0.81662 0.62246 0.29074
 C2032 C 0.80152 0.62203 0.27552
 C2033 C 0.76457 0.62176 0.26462
 N2034 N 0.76980 0.62154 0.24441
 N2035 N 0.75541 0.62148 0.22987
 C2036 C 0.73518 0.62163 0.23491
 N2037 N 0.72996 0.62182 0.25512
 N2038 N 0.74434 0.62188 0.26965
 C2039 C 0.71915 0.62175 0.21873
 C2040 C 0.69824 0.62210 0.22404
 C2041 C 0.68312 0.62246 0.20882
 C2042 C 0.68852 0.62248 0.18790
 C2043 C 0.70944 0.62203 0.18258
 C2044 C 0.72457 0.62167 0.19781
 H2045 H 0.75920 0.62230 0.30636
 H2046 H 0.78551 0.62306 0.33289
 H2047 H 0.83258 0.62254 0.28608
 H2048 H 0.80628 0.62179 0.25958
 H2049 H 0.69349 0.62217 0.23998
 H2050 H 0.66717 0.62281 0.21351
 H2051 H 0.71418 0.62204 0.16663
 H2052 H 0.74052 0.62140 0.19315
 C2053 C 0.28027 0.87800 0.71908
 C2054 C 0.27486 0.87796 0.69817
 C2055 C 0.28999 0.87757 0.68292
 C2056 C 0.31091 0.87719 0.68822
 C2057 C 0.31631 0.87732 0.70914
 C2058 C 0.30119 0.87772 0.72437
 C2059 C 0.26423 0.87817 0.73528
 N2060 N 0.26943 0.87816 0.75549
 N2061 N 0.25504 0.87815 0.77003
 C2062 C 0.23481 0.87814 0.76500
 N2063 N 0.22960 0.87818 0.74479
 N2064 N 0.24400 0.87819 0.73025
 C2065 C 0.21876 0.87794 0.78119
 C2066 C 0.19784 0.87768 0.77589
 C2067 C 0.18271 0.87726 0.79111
 C2068 C 0.18810 0.87710 0.81203
 C2069 C 0.20902 0.87745 0.81734
 C2070 C 0.22416 0.87786 0.80211
 H2071 H 0.25891 0.87817 0.69352
 H2072 H 0.28525 0.87746 0.66698
 H2073 H 0.33226 0.87703 0.71382
 H2074 H 0.30594 0.87774 0.74031
 H2075 H 0.19310 0.87773 0.75995
 H2076 H 0.16677 0.87699 0.78642
 H2077 H 0.21375 0.87731 0.83329
 H2078 H 0.24011 0.87806 0.80677
 C2079 C 0.21894 0.37749 0.28088
 C2080 C 0.22434 0.37744 0.30179
 C2081 C 0.20921 0.37701 0.31701
 C2082 C 0.18830 0.37663 0.31169
 C2083 C 0.18291 0.37678 0.29077
 C2084 C 0.19803 0.37720 0.27556
 C2085 C 0.23499 0.37768 0.26471
 N2086 N 0.22980 0.37769 0.24450
 N2087 N 0.24421 0.37769 0.22998
 C2088 C 0.26443 0.37768 0.23504
 N2089 N 0.26962 0.37771 0.25525
 N2090 N 0.25521 0.37771 0.26977
 C2091 C 0.28048 0.37748 0.21888
 C2092 C 0.30138 0.37721 0.22422
 C2093 C 0.31652 0.37677 0.20902
 C2094 C 0.31115 0.37660 0.18810
 C2095 C 0.29025 0.37697 0.18275
 C2096 C 0.27510 0.37741 0.19796
 H2097 H 0.24029 0.37765 0.30646
 H2098 H 0.21394 0.37690 0.33296
 H2099 H 0.16696 0.37649 0.28608
 H2100 H 0.19330 0.37724 0.25962
 H2101 H 0.30610 0.37726 0.24016
 H2102 H 0.33246 0.37649 0.21373
 H2103 H 0.28554 0.37684 0.16680
 H2104 H 0.25915 0.37761 0.19328
 C2105 C 0.87748 0.71852 0.28057
 C2106 C 0.87755 0.69761 0.27516
 C2107 C 0.87715 0.68240 0.29031
 C2108 C 0.87669 0.68774 0.31124
 C2109 C 0.87672 0.70866 0.31664
 C2110 C 0.87712 0.72385 0.30150
 C2111 C 0.87764 0.73468 0.26452
 N2112 N 0.87747 0.75488 0.26973
 N2113 N 0.87744 0.76940 0.25533
 C2114 C 0.87758 0.76435 0.23508
 N2115 N 0.87778 0.74414 0.22987
 N2116 N 0.87781 0.72962 0.24427
 C2117 C 0.87737 0.78050 0.21903
 C2118 C 0.87735 0.77519 0.19810
 C2119 C 0.87695 0.79039 0.18297
 C2120 C 0.87656 0.81130 0.18838
 C2121 C 0.87666 0.81662 0.20932
 C2122 C 0.87706 0.80141 0.22446
 H2123 H 0.87783 0.69294 0.25920
 H2124 H 0.87713 0.66646 0.28559
 H2125 H 0.87637 0.71337 0.33260
 H2126 H 0.87706 0.73979 0.30624
 H2127 H 0.87759 0.75925 0.19335
 H2128 H 0.87688 0.78570 0.16700
 H2129 H 0.87636 0.83256 0.21406
 H2130 H 0.87707 0.80607 0.24043
 C2131 C 0.62280 0.28091 0.78086
 C2132 C 0.62298 0.30182 0.77543
 C2133 C 0.62333 0.31705 0.79056
 C2134 C 0.62351 0.31175 0.81151
 C2135 C 0.62325 0.29084 0.81692
 C2136 C 0.62290 0.27562 0.80179
 C2137 C 0.62263 0.26473 0.76482
 N2138 N 0.62261 0.24453 0.77004
 N2139 N 0.62260 0.22998 0.75565
 C2140 C 0.62260 0.23501 0.73539
 N2141 N 0.62259 0.25521 0.73017
 N2142 N 0.62261 0.26975 0.74456
 C2143 C 0.62274 0.21882 0.71935
 C2144 C 0.62282 0.22411 0.69842
 C2145 C 0.62314 0.20889 0.68329
 C2146 C 0.62339 0.18798 0.68870
 C2147 C 0.62323 0.18268 0.70965
 C2148 C 0.62291 0.19792 0.72478
 H2149 H 0.62291 0.30646 0.75945
 H2150 H 0.62354 0.33299 0.78582
 H2151 H 0.62338 0.28617 0.83289
 H2152 H 0.62276 0.25969 0.80655
 H2153 H 0.62269 0.24004 0.69366
 H2154 H 0.62326 0.21356 0.66732
 H2155 H 0.62343 0.16674 0.71439
 H2156 H 0.62285 0.19328 0.74075
 C2157 C 0.78099 0.21897 0.87739
 C2158 C 0.77568 0.19804 0.87733
 C2159 C 0.79087 0.18289 0.87692
 C2160 C 0.81178 0.18827 0.87656
 C2161 C 0.81709 0.20920 0.87669
 C2162 C 0.80189 0.22436 0.87710
 C2163 C 0.76484 0.23505 0.87762
 N2164 N 0.76991 0.25529 0.87752
 N2165 N 0.75540 0.26972 0.87758
 C2166 C 0.73520 0.26454 0.87776
 N2167 N 0.73014 0.24430 0.87789
 N2168 N 0.74465 0.22988 0.87782
 C2169 C 0.71905 0.28062 0.87766
 C2170 C 0.69815 0.27524 0.87774
 C2171 C 0.68295 0.29039 0.87742
 C2172 C 0.68827 0.31132 0.87701
 C2173 C 0.70918 0.31670 0.87702
 C2174 C 0.72437 0.30154 0.87735
 H2175 H 0.75975 0.19331 0.87755
 H2176 H 0.78619 0.16693 0.87682
 H2177 H 0.83303 0.21393 0.87640
 H2178 H 0.80656 0.24032 0.87713
 H2179 H 0.69349 0.25928 0.87799
 H2180 H 0.66701 0.28567 0.87741
 H2181 H 0.71387 0.33265 0.87670
 H2182 H 0.74030 0.30627 0.87728
 C2183 C 0.28048 0.78089 0.62271
 C2184 C 0.27517 0.80182 0.62282
 C2185 C 0.29036 0.81696 0.62315
 C2186 C 0.31126 0.81155 0.62339
 C2187 C 0.31658 0.79061 0.62320
 C2188 C 0.30138 0.77548 0.62287
 C2189 C 0.26434 0.76483 0.62256
 N2190 N 0.26940 0.74459 0.62254
 N2191 N 0.25490 0.73018 0.62255
 C2192 C 0.23470 0.73537 0.62259
 N2193 N 0.22964 0.75561 0.62258
 N2194 N 0.24414 0.77003 0.62257
 C2195 C 0.21856 0.71931 0.62275
 C2196 C 0.19766 0.72471 0.62294
 C2197 C 0.18247 0.70956 0.62329
 C2198 C 0.18780 0.68863 0.62346
 C2199 C 0.20871 0.68324 0.62320
 C2200 C 0.22389 0.69838 0.62285
 H2201 H 0.25924 0.80656 0.62270
 H2202 H 0.28568 0.83292 0.62330
 H2203 H 0.33251 0.78587 0.62339
 H2204 H 0.30604 0.75951 0.62279
 H2205 H 0.19299 0.74067 0.62287
 H2206 H 0.16653 0.71429 0.62350
 H2207 H 0.21340 0.66728 0.62333
 H2208 H 0.23982 0.69365 0.62270
   
