data_POSCAR
  _audit_creation_date              2014-09-24
  _audit_creation_method            'ToBaCCo'
  _symmetry_space_group_name_H-M    'P1'
  _symmetry_Int_Tables_number       1
  _symmetry_cell_setting            triclinic
  loop_
  _symmetry_equiv_pos_as_xyz
 x,y,z
_cell_length_a 95.0378
_cell_length_b 95.2588
_cell_length_c 96.1342
_cell_angle_alpha 89.895600
_cell_angle_beta 90.024000
_cell_angle_gamma 89.927900
loop_
  _atom_site_label
  _atom_site_type_symbol
  _atom_site_fract_x
  _atom_site_fract_y
  _atom_site_fract_z
N1 N 0.35691 0.31875 0.32862
 N2 N 0.35680 0.32859 0.31903
 C3 C 0.36759 0.32639 0.31020
 C4 C 0.37489 0.31451 0.31448
 C5 C 0.36776 0.30998 0.32624
 H6 H 0.36985 0.33288 0.30126
 H7 H 0.37026 0.30101 0.33268
 Cu8 Cu 0.34254 0.34329 0.31896
 Cu9 Cu 0.34292 0.31790 0.34340
 Cu10 Cu 0.31688 0.34338 0.34308
 N11 N 0.32762 0.35732 0.31880
 N12 N 0.31763 0.35726 0.32824
 C13 C 0.30875 0.36799 0.32578
 C14 C 0.31337 0.37524 0.31414
 C15 C 0.32540 0.36811 0.30999
 H16 H 0.29957 0.37026 0.33201
 H17 H 0.33213 0.37066 0.30129
 N18 N 0.31790 0.32849 0.35727
 N19 N 0.32783 0.31881 0.35744
 C20 C 0.32566 0.31020 0.36836
 C21 C 0.31376 0.31465 0.37544
 C22 C 0.30915 0.32629 0.36807
 H23 H 0.33232 0.30140 0.37100
 H24 H 0.30002 0.33265 0.37031
 H25 H 0.32717 0.32773 0.33217
 H26 H 0.33820 0.33908 0.34364
 N27 N 0.35491 0.81772 -0.17269
 N28 N 0.35636 0.82887 -0.18059
 C29 C 0.36791 0.82737 -0.18853
 C30 C 0.37412 0.81449 -0.18553
 C31 C 0.36545 0.80868 -0.17537
 H32 H 0.37136 0.83508 -0.19603
 H33 H 0.36652 0.79860 -0.17032
 Cu34 Cu 0.34265 0.84400 -0.18021
 Cu35 Cu 0.33904 0.81555 -0.16004
 Cu36 Cu 0.32044 0.84622 -0.15335
 N37 N 0.32729 0.85749 -0.18016
 N38 N 0.31873 0.85853 -0.16950
 C39 C 0.30974 0.86923 -0.17172
 C40 C 0.31275 0.87526 -0.18458
 C41 C 0.32398 0.86738 -0.18960
 H42 H 0.30177 0.87238 -0.16434
 H43 H 0.32961 0.86882 -0.19924
 N44 N 0.31933 0.82944 -0.14140
 N45 N 0.32616 0.81769 -0.14410
 C46 C 0.32316 0.80820 -0.13414
 C47 C 0.31389 0.81422 -0.12476
 C48 C 0.31170 0.82770 -0.12974
 H49 H 0.32741 0.79767 -0.13378
 H50 H 0.30513 0.83573 -0.12516
 H51 H 0.32496 0.83098 -0.16712
 H52 H 0.34011 0.83641 -0.15603
 N53 N 0.85778 0.32087 -0.17048
 N54 N 0.85640 0.32936 -0.18118
 C55 C 0.86630 0.32624 -0.19070
 C56 C 0.87438 0.31521 -0.18568
 C57 C 0.86863 0.31210 -0.17278
 H58 H 0.86755 0.33167 -0.20050
 H59 H 0.87222 0.30427 -0.16543
 Cu60 Cu 0.84235 0.34419 -0.18121
 Cu61 Cu 0.84576 0.32236 -0.15414
 Cu62 Cu 0.81461 0.34054 -0.16004
 N63 N 0.82695 0.35763 -0.18138
 N64 N 0.81621 0.35630 -0.17290
 C65 C 0.80706 0.36684 -0.17522
 C66 C 0.81232 0.37532 -0.18582
 C67 C 0.82502 0.36902 -0.18943
 H68 H 0.79723 0.36801 -0.16970
 H69 H 0.83242 0.37246 -0.19724
 N70 N 0.81733 0.32758 -0.14425
 N71 N 0.82929 0.32098 -0.14182
 C72 C 0.82793 0.31318 -0.13021
 C73 C 0.81444 0.31497 -0.12500
 C74 C 0.80805 0.32421 -0.13422
 H75 H 0.83620 0.30670 -0.12592
 H76 H 0.79742 0.32822 -0.13372
 H77 H 0.82991 0.32657 -0.16753
 H78 H 0.83560 0.34182 -0.15677
 N79 N 0.85535 0.81773 0.32721
 N80 N 0.85330 0.82555 0.31612
 C81 C 0.86380 0.82328 0.30700
 C82 C 0.87291 0.81342 0.31264
 C83 C 0.86717 0.81015 0.32549
 H84 H 0.86464 0.82833 0.29695
 H85 H 0.87132 0.80287 0.33310
 Cu86 Cu 0.83716 0.83801 0.31457
 Cu87 Cu 0.84237 0.81765 0.34288
 Cu88 Cu 0.81492 0.84148 0.34145
 N89 N 0.82462 0.85408 0.31616
 N90 N 0.81643 0.85572 0.32703
 C91 C 0.80906 0.86769 0.32561
 C92 C 0.81267 0.87392 0.31301
 C93 C 0.82262 0.86487 0.30732
 H94 H 0.80127 0.87123 0.33300
 H95 H 0.82819 0.86606 0.29759
 N96 N 0.81747 0.82825 0.35698
 N97 N 0.82797 0.81921 0.35757
 C98 C 0.82654 0.81130 0.36911
 C99 C 0.81454 0.81556 0.37614
 C100 C 0.80911 0.82639 0.36812
 H101 H 0.83362 0.80293 0.37205
 H102 H 0.79955 0.83223 0.37002
 H103 H 0.82485 0.82421 0.33236
 H104 H 0.83621 0.83830 0.33983
 N105 N 0.64503 0.68332 0.32749
 N106 N 0.64314 0.67222 0.31962
 C107 C 0.63157 0.67412 0.31178
 C108 C 0.62587 0.68715 0.31486
 C109 C 0.63474 0.69269 0.32491
 H110 H 0.62760 0.66657 0.30438
 H111 H 0.63395 0.70286 0.32983
 Cu112 Cu 0.65624 0.65657 0.32000
 Cu113 Cu 0.66112 0.68494 0.33996
 Cu114 Cu 0.67873 0.65366 0.34662
 N115 N 0.67102 0.64244 0.32003
 N116 N 0.67978 0.64126 0.33054
 C117 C 0.68848 0.63035 0.32825
 C118 C 0.68502 0.62436 0.31555
 C119 C 0.67387 0.63237 0.31065
 H120 H 0.69652 0.62691 0.33545
 H121 H 0.66821 0.63098 0.30100
 N122 N 0.68056 0.67039 0.35846
 N123 N 0.67419 0.68239 0.35571
 C124 C 0.67769 0.69180 0.36554
 C125 C 0.68678 0.68547 0.37494
 C126 C 0.68836 0.67187 0.37005
 H127 H 0.67383 0.70247 0.36580
 H128 H 0.69463 0.66358 0.37461
 H129 H 0.67453 0.66903 0.33278
 H130 H 0.65937 0.66414 0.34410
 N131 N 0.64505 0.18335 -0.17262
 N132 N 0.64385 0.17251 -0.18096
 C133 C 0.63206 0.17394 -0.18859
 C134 C 0.62552 0.18640 -0.18489
 C135 C 0.63411 0.19208 -0.17469
 H136 H 0.62859 0.16650 -0.19634
 H137 H 0.63275 0.20199 -0.16938
 Cu138 Cu 0.65835 0.15812 -0.18168
 Cu139 Cu 0.66117 0.18563 -0.16033
 Cu140 Cu 0.68024 0.15501 -0.15454
 N141 N 0.67238 0.14329 -0.18090
 N142 N 0.68111 0.14224 -0.17036
 C143 C 0.68955 0.13107 -0.17230
 C144 C 0.68593 0.12466 -0.18480
 C145 C 0.67493 0.13281 -0.18991
 H146 H 0.69752 0.12780 -0.16495
 H147 H 0.66918 0.13136 -0.19949
 N148 N 0.68146 0.17161 -0.14237
 N149 N 0.67437 0.18330 -0.14472
 C150 C 0.67740 0.19263 -0.13466
 C151 C 0.68696 0.18658 -0.12557
 C152 C 0.68932 0.17325 -0.13083
 H153 H 0.67296 0.20306 -0.13404
 H154 H 0.69611 0.16525 -0.12649
 H155 H 0.67575 0.17084 -0.16786
 H156 H 0.66055 0.16461 -0.15726
 N157 N 0.14352 0.68284 -0.17107
 N158 N 0.14367 0.67303 -0.18065
 C159 C 0.13280 0.67514 -0.18941
 C160 C 0.12543 0.68694 -0.18511
 C161 C 0.13260 0.69152 -0.17340
 H162 H 0.13040 0.66851 -0.19820
 H163 H 0.13017 0.70057 -0.16708
 Cu164 Cu 0.15815 0.65855 -0.18071
 Cu165 Cu 0.15745 0.68369 -0.15624
 Cu166 Cu 0.18307 0.65773 -0.15590
 N167 N 0.17249 0.64394 -0.18032
 N168 N 0.18221 0.64371 -0.17060
 C169 C 0.19082 0.63270 -0.17277
 C170 C 0.18629 0.62557 -0.18451
 C171 C 0.17459 0.63305 -0.18900
 H172 H 0.19978 0.63020 -0.16631
 H173 H 0.16804 0.63073 -0.19789
 N174 N 0.18216 0.67285 -0.14193
 N175 N 0.17243 0.68274 -0.14210
 C176 C 0.17462 0.69148 -0.13133
 C177 C 0.18630 0.68691 -0.12397
 C178 C 0.19079 0.67504 -0.13104
 H179 H 0.16822 0.70057 -0.12909
 H180 H 0.19962 0.66841 -0.12840
 H181 H 0.17343 0.67368 -0.16694
 H182 H 0.16184 0.66242 -0.15592
 N183 N 0.14265 0.18159 0.33034
 N184 N 0.14400 0.17341 0.31944
 C185 C 0.13398 0.17669 0.31009
 C186 C 0.12580 0.18751 0.31541
 C187 C 0.13167 0.19030 0.32835
 H188 H 0.13267 0.17142 0.30024
 H189 H 0.12818 0.19794 0.33590
 Cu190 Cu 0.15818 0.15870 0.31892
 Cu191 Cu 0.15486 0.17978 0.34655
 Cu192 Cu 0.18558 0.16087 0.34067
 N193 N 0.17276 0.14436 0.31923
 N194 N 0.18345 0.14522 0.32786
 C195 C 0.19217 0.13431 0.32570
 C196 C 0.18665 0.12612 0.31513
 C197 C 0.17430 0.13285 0.31128
 H198 H 0.20195 0.13266 0.33123
 H199 H 0.16698 0.12960 0.30331
 N200 N 0.18311 0.17361 0.35658
 N201 N 0.17136 0.18060 0.35896
 C202 C 0.17293 0.18824 0.37062
 C203 C 0.18629 0.18587 0.37591
 C204 C 0.19241 0.17650 0.36672
 H205 H 0.16490 0.19499 0.37494
 H206 H 0.20292 0.17217 0.36730
 H207 H 0.17082 0.17560 0.33330
 H208 H 0.16449 0.16017 0.34351
 N209 N 0.64361 0.31827 0.67094
 N210 N 0.64342 0.32831 0.68028
 C211 C 0.63252 0.32617 0.68898
 C212 C 0.62546 0.31414 0.68487
 C213 C 0.63285 0.30943 0.67335
 H214 H 0.62990 0.33293 0.69761
 H215 H 0.63068 0.30019 0.66722
 Cu216 Cu 0.65750 0.34316 0.68027
 Cu217 Cu 0.65778 0.31733 0.65637
 Cu218 Cu 0.68357 0.34296 0.65654
 N219 N 0.67239 0.35719 0.68042
 N220 N 0.68254 0.35702 0.67115
 C221 C 0.69136 0.36777 0.67360
 C222 C 0.68653 0.37515 0.68506
 C223 C 0.67444 0.36808 0.68911
 H224 H 0.70065 0.36996 0.66751
 H225 H 0.66756 0.37072 0.69766
 N226 N 0.68284 0.32788 0.64258
 N227 N 0.67300 0.31814 0.64249
 C228 C 0.67528 0.30946 0.63169
 C229 C 0.68715 0.31392 0.62459
 C230 C 0.69164 0.32565 0.63184
 H231 H 0.66867 0.30062 0.62911
 H232 H 0.70070 0.33208 0.62952
 H233 H 0.67324 0.32748 0.66766
 H234 H 0.66230 0.33854 0.65576
 N235 N 0.64460 0.81777 1.17102
 N236 N 0.64476 0.82745 1.18073
 C237 C 0.63401 0.82515 1.18956
 C238 C 0.62668 0.81337 1.18517
 C239 C 0.63377 0.80899 1.17334
 H240 H 0.63161 0.83169 1.19842
 H241 H 0.63131 0.80007 1.16686
 Cu242 Cu 0.65890 0.84222 1.18066
 Cu243 Cu 0.65834 0.81729 1.15599
 Cu244 Cu 0.68358 0.84355 1.15565
 N245 N 0.67336 0.85667 1.18061
 N246 N 0.68272 0.85735 1.17056
 C247 C 0.69116 0.86846 1.17272
 C248 C 0.68696 0.87506 1.18484
 C249 C 0.67565 0.86727 1.18959
 H250 H 0.69987 0.87138 1.16609
 H251 H 0.66943 0.86933 1.19878
 N252 N 0.68271 0.82861 1.14153
 N253 N 0.67312 0.81861 1.14168
 C254 C 0.67544 0.80991 1.13090
 C255 C 0.68709 0.81460 1.12358
 C256 C 0.69139 0.82651 1.13066
 H257 H 0.66909 0.80081 1.12859
 H258 H 0.70031 0.83307 1.12823
 H259 H 0.67426 0.82739 1.16666
 H260 H 0.66243 0.83857 1.15580
 N261 N 0.14355 0.31741 1.17070
 N262 N 0.14372 0.32721 1.18029
 C263 C 0.13282 0.32518 1.18900
 C264 C 0.12538 0.31345 1.18466
 C265 C 0.13256 0.30882 1.17298
 H266 H 0.13043 0.33182 1.19779
 H267 H 0.13009 0.29981 1.16662
 Cu268 Cu 0.15825 0.34161 1.18043
 Cu269 Cu 0.15751 0.31647 1.15593
 Cu270 Cu 0.18313 0.34233 1.15557
 N271 N 0.17255 0.35621 1.17994
 N272 N 0.18225 0.35640 1.17021
 C273 C 0.19081 0.36743 1.17230
 C274 C 0.18628 0.37462 1.18400
 C275 C 0.17463 0.36715 1.18856
 H276 H 0.19975 0.36992 1.16581
 H277 H 0.16809 0.36952 1.19743
 N278 N 0.18225 0.32717 1.14167
 N279 N 0.17252 0.31731 1.14183
 C280 C 0.17475 0.30852 1.13111
 C281 C 0.18647 0.31303 1.12379
 C282 C 0.19093 0.32491 1.13084
 H283 H 0.16836 0.29944 1.12887
 H284 H 0.19978 0.33150 1.12822
 H285 H 0.17349 0.32642 1.16664
 H286 H 0.16188 0.33773 1.15564
 N287 N 0.14392 0.81801 0.66961
 N288 N 0.14398 0.82782 0.67919
 C289 C 0.13308 0.82571 0.68789
 C290 C 0.12575 0.81391 0.68354
 C291 C 0.13299 0.80934 0.67187
 H292 H 0.13062 0.83231 0.69669
 H293 H 0.13062 0.80029 0.66553
 Cu294 Cu 0.15842 0.84229 0.67940
 Cu295 Cu 0.15803 0.81712 0.65495
 Cu296 Cu 0.18389 0.84277 0.65519
 N297 N 0.17295 0.85665 0.67940
 N298 N 0.18290 0.85674 0.66992
 C299 C 0.19157 0.86763 0.67228
 C300 C 0.18684 0.87482 0.68390
 C301 C 0.17497 0.86751 0.68813
 H302 H 0.20069 0.87002 0.66602
 H303 H 0.16823 0.86996 0.69685
 N304 N 0.18308 0.82775 0.64115
 N305 N 0.17322 0.81802 0.64104
 C306 C 0.17549 0.80936 0.63021
 C307 C 0.18737 0.81382 0.62313
 C308 C 0.19188 0.82553 0.63040
 H309 H 0.16888 0.80053 0.62763
 H310 H 0.20096 0.83194 0.62812
 H311 H 0.17384 0.82696 0.66604
 H312 H 0.16262 0.83835 0.65473
 N313 N 0.35666 0.68123 0.67108
 N314 N 0.35644 0.67141 0.68070
 C315 C 0.36717 0.67356 0.68960
 C316 C 0.37455 0.68537 0.68535
 C317 C 0.36752 0.68993 0.67352
 H318 H 0.36934 0.66709 0.69859
 H319 H 0.37010 0.69887 0.66709
 Cu320 Cu 0.34212 0.65683 0.68069
 Cu321 Cu 0.34273 0.68216 0.65623
 Cu322 Cu 0.31662 0.65678 0.65644
 N323 N 0.32725 0.64280 0.68076
 N324 N 0.31731 0.64288 0.67126
 C325 C 0.30847 0.63213 0.67363
 C326 C 0.31306 0.62484 0.68527
 C327 C 0.32504 0.63197 0.68952
 H328 H 0.29933 0.62986 0.66734
 H329 H 0.33174 0.62940 0.69824
 N330 N 0.31770 0.67169 0.64228
 N331 N 0.32767 0.68131 0.64213
 C332 C 0.32556 0.68991 0.63118
 C333 C 0.31367 0.68550 0.62406
 C334 C 0.30900 0.67391 0.63144
 H335 H 0.33226 0.69866 0.62854
 H336 H 0.29986 0.66758 0.62917
 H337 H 0.32689 0.67246 0.66735
 H338 H 0.33796 0.66103 0.65599
 N339 N 0.35661 0.18173 1.17265
 N340 N 0.35589 0.17233 1.18264
 C341 C 0.36653 0.17449 1.19164
 C342 C 0.37434 0.18589 1.18708
 C343 C 0.36768 0.19019 1.17496
 H344 H 0.36839 0.16827 1.20087
 H345 H 0.37072 0.19873 1.16820
 Cu346 Cu 0.34118 0.15813 1.18286
 Cu347 Cu 0.34320 0.18230 1.15736
 Cu348 Cu 0.31748 0.15657 1.15686
 N349 N 0.32683 0.14359 1.18223
 N350 N 0.31773 0.14293 1.17196
 C351 C 0.30915 0.13189 1.17400
 C352 C 0.31302 0.12527 1.18625
 C353 C 0.32430 0.13301 1.19118
 H354 H 0.30059 0.12904 1.16716
 H355 H 0.33033 0.13096 1.20051
 N356 N 0.31894 0.17131 1.14255
 N357 N 0.32870 0.18114 1.14276
 C358 C 0.32677 0.18976 1.13181
 C359 C 0.31521 0.18518 1.12430
 C360 C 0.31055 0.17342 1.13145
 H361 H 0.33319 0.19884 1.12960
 H362 H 0.30169 0.16686 1.12879
 H363 H 0.32669 0.17284 1.16776
 H364 H 0.33874 0.16107 1.15778
 N365 N 0.85740 0.67990 1.17165
 N366 N 0.85591 0.67195 1.18273
 C367 C 0.86614 0.67502 1.19192
 C368 C 0.87453 0.68548 1.18629
 C369 C 0.86864 0.68830 1.17339
 H370 H 0.86737 0.67001 1.20194
 H371 H 0.87236 0.69570 1.16569
 Cu372 Cu 0.84105 0.65803 1.18386
 Cu373 Cu 0.84506 0.67823 1.15557
 Cu374 Cu 0.81413 0.65979 1.16149
 N375 N 0.82689 0.64337 1.18311
 N376 N 0.81626 0.64415 1.17441
 C377 C 0.80767 0.63314 1.17650
 C378 C 0.81324 0.62490 1.18709
 C379 C 0.82549 0.63177 1.19099
 H380 H 0.79805 0.63142 1.17077
 H381 H 0.83276 0.62876 1.19911
 N382 N 0.81682 0.67234 1.14543
 N383 N 0.82866 0.67916 1.14306
 C384 C 0.82726 0.68673 1.13131
 C385 C 0.81392 0.68450 1.12594
 C386 C 0.80762 0.67528 1.13518
 H387 H 0.83539 0.69334 1.12696
 H388 H 0.79708 0.67107 1.13457
 H389 H 0.82877 0.67465 1.16870
 H390 H 0.83521 0.65886 1.15917
 N391 N 0.85646 0.18090 0.67232
 N392 N 0.85595 0.17151 0.68233
 C393 C 0.86671 0.17372 0.69116
 C394 C 0.87440 0.18514 0.68648
 C395 C 0.86754 0.18942 0.67446
 H396 H 0.86871 0.16755 0.70039
 H397 H 0.87042 0.19800 0.66768
 Cu398 Cu 0.84129 0.15730 0.68288
 Cu399 Cu 0.84268 0.18147 0.65734
 Cu400 Cu 0.81678 0.15589 0.65764
 N401 N 0.82693 0.14278 0.68263
 N402 N 0.81739 0.14227 0.67275
 C403 C 0.80883 0.13127 0.67506
 C404 C 0.81322 0.12445 0.68706
 C405 C 0.82476 0.13209 0.69156
 H406 H 0.80015 0.12840 0.66839
 H407 H 0.83106 0.13009 0.70071
 N408 N 0.81792 0.17059 0.64323
 N409 N 0.82780 0.18031 0.64311
 C410 C 0.82568 0.18884 0.63212
 C411 C 0.81388 0.18432 0.62494
 C412 C 0.80927 0.17269 0.63233
 H413 H 0.83230 0.19768 0.62954
 H414 H 0.80017 0.16632 0.63005
 H415 H 0.82644 0.17211 0.66822
 H416 H 0.83809 0.16026 0.65788
 N417 N 0.31769 0.35727 0.67162
 N418 N 0.32749 0.35713 0.68125
 C419 C 0.32526 0.36785 0.69008
 C420 C 0.31341 0.37517 0.68578
 C421 C 0.30889 0.36810 0.67399
 H422 H 0.33175 0.37008 0.69903
 H423 H 0.29994 0.37064 0.66753
 Cu424 Cu 0.34230 0.34302 0.68135
 Cu425 Cu 0.31707 0.34340 0.65675
 Cu426 Cu 0.34288 0.31764 0.65707
 N427 N 0.35646 0.32826 0.68155
 N428 N 0.35665 0.31839 0.67204
 C429 C 0.36751 0.30967 0.67455
 C430 C 0.37457 0.31430 0.68631
 C431 C 0.36720 0.32614 0.69046
 H432 H 0.37011 0.30071 0.66817
 H433 H 0.36943 0.33272 0.69932
 N434 N 0.32805 0.31864 0.64278
 N435 N 0.31823 0.32845 0.64263
 C436 C 0.30967 0.32624 0.63168
 C437 C 0.31429 0.31445 0.62456
 C438 C 0.32598 0.30995 0.63195
 H439 H 0.30076 0.33279 0.62907
 H440 H 0.33246 0.30091 0.62971
 H441 H 0.32696 0.32765 0.66791
 H442 H 0.33832 0.33886 0.65660
 N443 N 0.31758 0.85790 0.17183
 N444 N 0.32723 0.85761 0.18162
 C445 C 0.32485 0.86822 0.19056
 C446 C 0.31312 0.87560 0.18609
 C447 C 0.30879 0.86873 0.17415
 H448 H 0.33130 0.87055 0.19953
 H449 H 0.29983 0.87132 0.16771
 Cu450 Cu 0.34208 0.84354 0.18157
 Cu451 Cu 0.31701 0.84416 0.15688
 Cu452 Cu 0.34301 0.81861 0.15687
 N453 N 0.35648 0.82900 0.18156
 N454 N 0.35681 0.81933 0.17185
 C455 C 0.36775 0.81067 0.17422
 C456 C 0.37472 0.81512 0.18609
 C457 C 0.36722 0.82681 0.19045
 H458 H 0.37047 0.80187 0.16767
 H459 H 0.36935 0.83321 0.19948
 N460 N 0.32811 0.81964 0.14263
 N461 N 0.31820 0.82935 0.14266
 C462 C 0.30955 0.82716 0.13178
 C463 C 0.31420 0.81550 0.12451
 C464 C 0.32602 0.81103 0.13173
 H465 H 0.30042 0.83351 0.12945
 H466 H 0.33266 0.80218 0.12923
 H467 H 0.32697 0.82828 0.16781
 H468 H 0.33830 0.83978 0.15676
 N469 N 0.81709 0.35672 0.17131
 N470 N 0.82675 0.35645 0.18107
 C471 C 0.82447 0.36718 0.18990
 C472 C 0.81271 0.37458 0.18546
 C473 C 0.80833 0.36758 0.17359
 H474 H 0.83097 0.36946 0.19884
 H475 H 0.79941 0.37011 0.16709
 Cu476 Cu 0.84134 0.34210 0.18129
 Cu477 Cu 0.81658 0.34302 0.15632
 Cu478 Cu 0.84285 0.31773 0.15605
 N479 N 0.85615 0.32798 0.18089
 N480 N 0.85669 0.31851 0.17099
 C481 C 0.86781 0.31003 0.17322
 C482 C 0.87467 0.31439 0.18519
 C483 C 0.86693 0.32585 0.18975
 H484 H 0.87069 0.30138 0.16655
 H485 H 0.86888 0.33208 0.19892
 N486 N 0.82787 0.31870 0.14187
 N487 N 0.81785 0.32829 0.14203
 C488 C 0.80917 0.32611 0.13117
 C489 C 0.81392 0.31457 0.12378
 C490 C 0.82582 0.31016 0.13091
 H491 H 0.79998 0.33239 0.12892
 H492 H 0.83255 0.30142 0.12828
 H493 H 0.82659 0.32697 0.16696
 H494 H 0.83795 0.33887 0.15637
 N495 N 0.81701 0.85697 0.67110
 N496 N 0.82662 0.85673 0.68092
 C497 C 0.82430 0.86747 0.68971
 C498 C 0.81257 0.87487 0.68520
 C499 C 0.80825 0.86785 0.67332
 H500 H 0.83075 0.86975 0.69868
 H501 H 0.79933 0.87035 0.66679
 Cu502 Cu 0.84118 0.84236 0.68131
 Cu503 Cu 0.81652 0.84314 0.65621
 Cu504 Cu 0.84266 0.81771 0.65637
 N505 N 0.85596 0.82820 0.68109
 N506 N 0.85646 0.81861 0.67131
 C507 C 0.86757 0.81015 0.67359
 C508 C 0.87448 0.81465 0.68548
 C509 C 0.86677 0.82617 0.68994
 H510 H 0.87043 0.80144 0.66698
 H511 H 0.86880 0.83252 0.69902
 N512 N 0.82776 0.81855 0.64214
 N513 N 0.81782 0.82823 0.64206
 C514 C 0.80923 0.82594 0.63115
 C515 C 0.81395 0.81423 0.62399
 C516 C 0.82574 0.80985 0.63130
 H517 H 0.80023 0.83238 0.62861
 H518 H 0.83231 0.80090 0.62900
 H519 H 0.82636 0.82719 0.66709
 H520 H 0.83785 0.83890 0.65641
 N521 N 0.68085 0.64373 0.67112
 N522 N 0.67093 0.64389 0.68064
 C523 C 0.67298 0.63308 0.68946
 C524 C 0.68483 0.62570 0.68526
 C525 C 0.68952 0.63282 0.67355
 H526 H 0.66639 0.63084 0.69834
 H527 H 0.69853 0.63027 0.66719
 Cu528 Cu 0.65632 0.65823 0.68064
 Cu529 Cu 0.68187 0.65775 0.65638
 Cu530 Cu 0.65651 0.68392 0.65657
 N531 N 0.64237 0.67320 0.68074
 N532 N 0.64252 0.68321 0.67133
 C533 C 0.63179 0.69211 0.67374
 C534 C 0.62445 0.68746 0.68533
 C535 C 0.63152 0.67541 0.68948
 H536 H 0.62958 0.70131 0.66753
 H537 H 0.62889 0.66865 0.69813
 N538 N 0.67151 0.68285 0.64249
 N539 N 0.68114 0.67287 0.64237
 C540 C 0.68979 0.67499 0.63147
 C541 C 0.68542 0.68689 0.62435
 C542 C 0.67378 0.69157 0.63168
 H543 H 0.69855 0.66826 0.62885
 H544 H 0.66746 0.70071 0.62939
 H545 H 0.67209 0.67350 0.66756
 H546 H 0.66069 0.66261 0.65600
 N547 N 0.68247 0.14336 0.17092
 N548 N 0.67237 0.14320 0.18023
 C549 C 0.67447 0.13232 0.18896
 C550 C 0.68655 0.12524 0.18489
 C551 C 0.69132 0.13260 0.17338
 H552 H 0.66764 0.12968 0.19755
 H553 H 0.70060 0.13041 0.16726
 Cu554 Cu 0.65744 0.15724 0.18006
 Cu555 Cu 0.68342 0.15741 0.15625
 Cu556 Cu 0.65756 0.18305 0.15602
 N557 N 0.64332 0.17209 0.18005
 N558 N 0.64343 0.18212 0.17065
 C559 C 0.63265 0.19096 0.17308
 C560 C 0.62533 0.18626 0.18467
 C561 C 0.63247 0.17424 0.18880
 H562 H 0.63042 0.20019 0.16692
 H563 H 0.62992 0.16748 0.19747
 N564 N 0.67275 0.18221 0.14209
 N565 N 0.68262 0.17246 0.14222
 C566 C 0.69141 0.17466 0.13147
 C567 C 0.68690 0.18637 0.12414
 C568 C 0.67502 0.19087 0.13123
 H569 H 0.70048 0.16822 0.12919
 H570 H 0.66840 0.19971 0.12861
 H571 H 0.67307 0.17294 0.16731
 H572 H 0.66211 0.16186 0.15551
 N573 N 0.17975 0.64267 0.17000
 N574 N 0.17174 0.64429 0.18101
 C575 C 0.17457 0.63402 0.19022
 C576 C 0.18495 0.62545 0.18468
 C577 C 0.18796 0.63128 0.17180
 H578 H 0.16949 0.63290 0.20021
 H579 H 0.19538 0.62746 0.16417
 Cu580 Cu 0.15812 0.65947 0.18204
 Cu581 Cu 0.17846 0.65514 0.15395
 Cu582 Cu 0.16108 0.68662 0.16018
 N583 N 0.14384 0.67406 0.18125
 N584 N 0.14508 0.68480 0.17274
 C585 C 0.13424 0.69367 0.17478
 C586 C 0.12568 0.68816 0.18512
 C587 C 0.13213 0.67568 0.18894
 H588 H 0.13289 0.70350 0.16930
 H589 H 0.12864 0.66831 0.19677
 N590 N 0.17377 0.68371 0.14424
 N591 N 0.18006 0.67164 0.14166
 C592 C 0.18775 0.67292 0.12998
 C593 C 0.18620 0.68646 0.12487
 C594 C 0.17722 0.69297 0.13423
 H595 H 0.19401 0.66457 0.12556
 H596 H 0.17347 0.70368 0.13385
 H597 H 0.17537 0.67131 0.16728
 H598 H 0.15941 0.66571 0.15746
 N599 N 0.18129 0.14306 0.67124
 N600 N 0.17156 0.14337 0.68095
 C601 C 0.17363 0.13256 0.68975
 C602 C 0.18534 0.12506 0.68540
 C603 C 0.18989 0.13208 0.67359
 H604 H 0.16723 0.13044 0.69878
 H605 H 0.19876 0.12938 0.66710
 Cu606 Cu 0.15728 0.15800 0.68102
 Cu607 Cu 0.18226 0.15704 0.65640
 Cu608 Cu 0.15687 0.18323 0.65666
 N609 N 0.14300 0.17263 0.68110
 N610 N 0.14296 0.18250 0.67153
 C611 C 0.13213 0.19129 0.67389
 C612 C 0.12491 0.18672 0.68556
 C613 C 0.13214 0.17480 0.68983
 H614 H 0.12974 0.20037 0.66757
 H615 H 0.12966 0.16817 0.69860
 N616 N 0.17180 0.18213 0.64248
 N617 N 0.18143 0.17214 0.64233
 C618 C 0.19009 0.17430 0.63145
 C619 C 0.18571 0.18621 0.62435
 C620 C 0.17409 0.19088 0.63171
 H621 H 0.19890 0.16764 0.62887
 H622 H 0.16782 0.20008 0.62950
 H623 H 0.17273 0.17303 0.66728
 H624 H 0.16109 0.16193 0.65624
 N625 N 0.31876 0.64232 0.32745
 N626 N 0.32848 0.64257 0.31774
 C627 C 0.32631 0.63180 0.30894
 C628 C 0.31458 0.62437 0.31334
 C629 C 0.31009 0.63141 0.32516
 H630 H 0.33272 0.62964 0.29991
 H631 H 0.30123 0.62878 0.33170
 Cu632 Cu 0.34301 0.65694 0.31760
 Cu633 Cu 0.31793 0.65625 0.34227
 Cu634 Cu 0.34354 0.68216 0.34195
 N635 N 0.35722 0.67164 0.31743
 N636 N 0.35737 0.68141 0.32705
 C637 C 0.36818 0.69018 0.32464
 C638 C 0.37526 0.68571 0.31285
 C639 C 0.36796 0.67387 0.30856
 H640 H 0.37074 0.69906 0.33113
 H641 H 0.37022 0.66742 0.29961
 N642 N 0.32866 0.68115 0.35617
 N643 N 0.31892 0.67130 0.35632
 C644 C 0.31029 0.67354 0.36721
 C645 C 0.31479 0.68538 0.37428
 C646 C 0.32649 0.68990 0.36693
 H647 H 0.30142 0.66696 0.36983
 H648 H 0.33289 0.69898 0.36916
 H649 H 0.32761 0.67211 0.33120
 H650 H 0.33913 0.66089 0.34237
 N651 N 0.31855 0.14234 0.82788
 N652 N 0.32928 0.14159 0.81932
 C653 C 0.32728 0.13082 0.81050
 C654 C 0.31458 0.12440 0.81370
 C655 C 0.30936 0.13208 0.82482
 H656 H 0.33459 0.12789 0.80240
 H657 H 0.29967 0.13032 0.83041
 Cu658 Cu 0.34503 0.15454 0.82062
 Cu659 Cu 0.31740 0.15633 0.84254
 Cu660 Cu 0.34316 0.18191 0.84275
 N661 N 0.35800 0.17026 0.81945
 N662 N 0.35726 0.18087 0.82812
 C663 C 0.36752 0.19009 0.82510
 C664 C 0.37518 0.18503 0.81388
 C665 C 0.36876 0.17238 0.81059
 H666 H 0.36927 0.19971 0.83076
 H667 H 0.37165 0.16520 0.80239
 N668 N 0.32797 0.18109 0.85666
 N669 N 0.31811 0.17136 0.85654
 C670 C 0.30932 0.17355 0.86730
 C671 C 0.31383 0.18525 0.87459
 C672 C 0.32571 0.18973 0.86751
 H673 H 0.30027 0.16711 0.86960
 H674 H 0.33235 0.19853 0.87012
 H675 H 0.32858 0.17097 0.83106
 H676 H 0.33864 0.16075 0.84443
 N677 N 0.81884 0.64305 0.82816
 N678 N 0.82848 0.64327 0.81838
 C679 C 0.82617 0.63256 0.80955
 C680 C 0.81442 0.62520 0.81403
 C681 C 0.81008 0.63222 0.82590
 H682 H 0.83249 0.63037 0.80048
 H683 H 0.80126 0.62961 0.83251
 Cu684 Cu 0.84312 0.65754 0.81820
 Cu685 Cu 0.81825 0.65688 0.84306
 Cu686 Cu 0.84389 0.68273 0.84266
 N687 N 0.85731 0.67225 0.81798
 N688 N 0.85756 0.68203 0.82760
 C689 C 0.86838 0.69077 0.82511
 C690 C 0.87535 0.68627 0.81325
 C691 C 0.86799 0.67447 0.80903
 H692 H 0.87102 0.69965 0.83157
 H693 H 0.87016 0.66799 0.80007
 N694 N 0.82914 0.68165 0.85703
 N695 N 0.81941 0.67179 0.85720
 C696 C 0.81089 0.67391 0.86819
 C697 C 0.81544 0.68570 0.87533
 C698 C 0.82706 0.69030 0.86791
 H699 H 0.80207 0.66729 0.87083
 H700 H 0.83347 0.69937 0.87016
 H701 H 0.82791 0.67277 0.83194
 H702 H 0.83949 0.66150 0.84300
 N703 N 0.81754 0.14333 0.32840
 N704 N 0.82704 0.14362 0.31847
 C705 C 0.82472 0.13284 0.30973
 C706 C 0.81311 0.12537 0.31440
 C707 C 0.80887 0.13239 0.32631
 H708 H 0.83109 0.13055 0.30071
 H709 H 0.80006 0.12983 0.33294
 Cu710 Cu 0.84150 0.15807 0.31794
 Cu711 Cu 0.81710 0.15714 0.34329
 Cu712 Cu 0.84306 0.18264 0.34299
 N713 N 0.85623 0.17225 0.31815
 N714 N 0.85674 0.18181 0.32797
 C715 C 0.86780 0.19029 0.32568
 C716 C 0.87467 0.18586 0.31375
 C717 C 0.86699 0.17434 0.30927
 H718 H 0.87067 0.19897 0.33232
 H719 H 0.86901 0.16803 0.30016
 N720 N 0.82828 0.18173 0.35732
 N721 N 0.81841 0.17202 0.35744
 C722 C 0.80990 0.17423 0.36842
 C723 C 0.81460 0.18593 0.37559
 C724 C 0.82630 0.19039 0.36820
 H725 H 0.80097 0.16773 0.37102
 H726 H 0.83283 0.19936 0.37049
 H727 H 0.82674 0.17314 0.33236
 H728 H 0.83841 0.16143 0.34288
 N729 N 0.68029 0.35750 0.33134
 N730 N 0.67162 0.35655 0.32075
 C731 C 0.67474 0.36663 0.31143
 C732 C 0.68597 0.37443 0.31646
 C733 C 0.68917 0.36827 0.32918
 H734 H 0.66906 0.36824 0.30182
 H735 H 0.69724 0.37139 0.33647
 Cu736 Cu 0.65654 0.34278 0.32060
 Cu737 Cu 0.67892 0.34504 0.34736
 Cu738 Cu 0.66061 0.31426 0.34069
 N739 N 0.64310 0.32743 0.32013
 N740 N 0.64471 0.31629 0.32806
 C741 C 0.63425 0.30716 0.32546
 C742 C 0.62556 0.31289 0.31535
 C743 C 0.63154 0.32578 0.31222
 H744 H 0.63323 0.29702 0.33043
 H745 H 0.62776 0.33342 0.30478
 N746 N 0.67357 0.31645 0.35653
 N747 N 0.68033 0.32823 0.35920
 C748 C 0.68811 0.32651 0.37077
 C749 C 0.68608 0.31300 0.37572
 C750 C 0.67676 0.30695 0.36643
 H751 H 0.69467 0.33456 0.37531
 H752 H 0.67261 0.29639 0.36680
 H753 H 0.67444 0.32981 0.33351
 H754 H 0.65932 0.33509 0.34474
 N755 N 0.68155 0.85580 0.83001
 N756 N 0.67181 0.85565 0.82031
 C757 C 0.67385 0.86662 0.81168
 C758 C 0.68553 0.87407 0.81620
 C759 C 0.69010 0.86684 0.82789
 H760 H 0.66729 0.86901 0.80282
 H761 H 0.69907 0.86929 0.83435
 Cu762 Cu 0.65753 0.84100 0.81986
 Cu763 Cu 0.68251 0.84167 0.84464
 Cu764 Cu 0.65695 0.81575 0.84433
 N765 N 0.64306 0.82654 0.81999
 N766 N 0.64295 0.81669 0.82957
 C767 C 0.63201 0.80806 0.82730
 C768 C 0.62478 0.81269 0.81564
 C769 C 0.63214 0.82449 0.81129
 H770 H 0.62960 0.79902 0.83366
 H771 H 0.62970 0.83116 0.80251
 N772 N 0.67200 0.81659 0.85841
 N773 N 0.68171 0.82647 0.85854
 C774 C 0.69042 0.82419 0.86937
 C775 C 0.68601 0.81229 0.87643
 C776 C 0.67428 0.80778 0.86914
 H777 H 0.69925 0.83081 0.87196
 H778 H 0.66791 0.79867 0.87140
 H779 H 0.67286 0.82579 0.83358
 H780 H 0.66127 0.83701 0.84463
 N781 N 0.18167 0.35646 0.82851
 N782 N 0.17192 0.35605 0.81883
 C783 C 0.17388 0.36686 0.80998
 C784 C 0.18552 0.37445 0.81433
 C785 C 0.19016 0.36749 0.82615
 H786 H 0.16739 0.36896 0.80099
 H787 H 0.19899 0.37027 0.83267
 Cu788 Cu 0.15764 0.34143 0.81876
 Cu789 Cu 0.18270 0.34267 0.84344
 Cu790 Cu 0.15704 0.31685 0.84392
 N791 N 0.14314 0.32704 0.81936
 N792 N 0.14297 0.31747 0.82921
 C793 C 0.13197 0.30884 0.82717
 C794 C 0.12478 0.31321 0.81537
 C795 C 0.13221 0.32483 0.81072
 H796 H 0.12951 0.29998 0.83375
 H797 H 0.12983 0.33127 0.80176
 N798 N 0.17218 0.31799 0.85788
 N799 N 0.18196 0.32780 0.85769
 C800 C 0.19080 0.32570 0.86845
 C801 C 0.18641 0.31398 0.87581
 C802 C 0.17454 0.30940 0.86877
 H803 H 0.19986 0.33216 0.87065
 H804 H 0.16803 0.30050 0.87141
 H805 H 0.17295 0.32653 0.83284
 H806 H 0.16144 0.33810 0.84362
 N807 N 0.18013 0.85816 0.33037
 N808 N 0.17191 0.85695 0.31945
 C809 C 0.17529 0.86695 0.31012
 C810 C 0.18616 0.87494 0.31554
 C811 C 0.18892 0.86905 0.32845
 H812 H 0.16995 0.86853 0.30031
 H813 H 0.19675 0.87237 0.33592
 Cu814 Cu 0.15691 0.84309 0.31905
 Cu815 Cu 0.17843 0.84577 0.34643
 Cu816 Cu 0.16052 0.81480 0.33946
 N817 N 0.14340 0.82780 0.31848
 N818 N 0.14482 0.81675 0.32657
 C819 C 0.13434 0.80766 0.32395
 C820 C 0.12580 0.81333 0.31366
 C821 C 0.13192 0.82614 0.31046
 H822 H 0.13318 0.79760 0.32905
 H823 H 0.12827 0.83374 0.30291
 N824 N 0.17316 0.81712 0.35553
 N825 N 0.17976 0.82897 0.35831
 C826 C 0.18745 0.82728 0.36995
 C827 C 0.18551 0.81373 0.37484
 C828 C 0.17634 0.80762 0.36543
 H829 H 0.19392 0.83536 0.37455
 H830 H 0.17235 0.79700 0.36570
 H831 H 0.17449 0.83037 0.33259
 H832 H 0.15901 0.83563 0.34332
 C833 C 0.24447 1.00031 0.25622
 C834 C 0.25504 1.00036 0.24675
 C835 C 0.26052 1.01361 0.24083
 C836 C 0.26063 0.98710 0.24095
 C837 C 0.23899 0.98695 0.26190
 C838 C 0.23877 1.01350 0.26213
 C839 C 0.25219 1.02159 0.23173
 C840 C 0.25739 1.03404 0.22599
 C841 C 0.27102 1.03872 0.22929
 C842 C 0.27929 1.03071 0.23849
 C843 C 0.27408 1.01827 0.24420
 C844 C 0.25256 0.97936 0.23149
 C845 C 0.25783 0.96691 0.22584
 C846 C 0.27133 0.96206 0.22947
 C847 C 0.27934 0.96986 0.23904
 C848 C 0.27400 0.98223 0.24477
 C849 C 0.24642 0.97993 0.27240
 C850 C 0.24129 0.96735 0.27789
 C851 C 0.22857 0.96161 0.27302
 C852 C 0.22126 0.96866 0.26235
 C853 C 0.22647 0.98118 0.25679
 C854 C 0.24751 1.02257 0.26970
 C855 C 0.24213 1.03499 0.27531
 C856 C 0.22786 1.03852 0.27354
 C857 C 0.21913 1.02935 0.26602
 C858 C 0.22454 1.01696 0.26038
 H859 H 0.24168 1.01814 0.22906
 H860 H 0.25072 1.04007 0.21907
 H861 H 0.28987 1.03397 0.24113
 H862 H 0.28060 1.01239 0.25136
 H863 H 0.24219 0.98298 0.22847
 H864 H 0.25129 0.96104 0.21871
 H865 H 0.28030 0.98795 0.25222
 H866 H 0.25621 0.98420 0.27632
 H867 H 0.24733 0.96207 0.28590
 H868 H 0.21138 0.96462 0.25844
 H869 H 0.22074 0.98633 0.24849
 H870 H 0.25850 1.02001 0.27128
 H871 H 0.24915 1.04189 0.28093
 H872 H 0.20806 1.03166 0.26464
 H873 H 0.21760 1.01017 0.25456
 H874 H 0.28983 0.96652 0.24194
 C875 C 0.24400 0.50009 0.75547
 C876 C 0.25405 0.50007 0.74536
 C877 C 0.25963 0.51330 0.73935
 C878 C 0.26001 0.48683 0.73972
 C879 C 0.23791 0.48687 0.76101
 C880 C 0.23856 0.51335 0.76158
 C881 C 0.25066 0.52316 0.73305
 C882 C 0.25614 0.53551 0.72736
 C883 C 0.27069 0.53817 0.72781
 C884 C 0.27963 0.52818 0.73398
 C885 C 0.27415 0.51585 0.73964
 C886 C 0.25958 0.48438 0.72535
 C887 C 0.26521 0.47205 0.71981
 C888 C 0.27148 0.46198 0.72853
 C889 C 0.27210 0.46455 0.74292
 C890 C 0.26645 0.47690 0.74846
 C891 C 0.23841 0.48420 0.77535
 C892 C 0.23280 0.47182 0.78078
 C893 C 0.22645 0.46191 0.77197
 C894 C 0.22573 0.46472 0.75762
 C895 C 0.23138 0.47712 0.75219
 C896 C 0.24764 0.52306 0.76788
 C897 C 0.24230 0.53547 0.77360
 C898 C 0.22778 0.53833 0.77317
 C899 C 0.21872 0.52847 0.76702
 C900 C 0.22406 0.51609 0.76133
 H901 H 0.23944 0.52127 0.73252
 H902 H 0.24900 0.54305 0.72273
 H903 H 0.29090 0.52983 0.73426
 H904 H 0.28125 0.50829 0.74434
 H905 H 0.25481 0.49200 0.71842
 H906 H 0.26481 0.47049 0.70866
 H907 H 0.26712 0.47872 0.75956
 H908 H 0.24328 0.49167 0.78233
 H909 H 0.23328 0.47007 0.79190
 H910 H 0.22095 0.45724 0.75059
 H911 H 0.23068 0.47910 0.74112
 H912 H 0.25884 0.52103 0.76838
 H913 H 0.24953 0.54289 0.77821
 H914 H 0.20747 0.53026 0.76675
 H915 H 0.21688 0.50865 0.75664
 H916 H 0.27682 0.45695 0.74989
 C917 C 0.74495 -0.00005 0.24511
 C918 C 0.75533 -0.00011 0.25482
 C919 C 0.76096 -0.01351 0.26032
 C920 C 0.76085 0.01305 0.26100
 C921 C 0.73931 0.01316 0.23907
 C922 C 0.73945 -0.01338 0.23942
 C923 C 0.75363 -0.02074 0.27073
 C924 C 0.75896 -0.03330 0.27612
 C925 C 0.77188 -0.03874 0.27137
 C926 C 0.77909 -0.03146 0.26079
 C927 C 0.77358 -0.01906 0.25520
 C928 C 0.75182 0.02241 0.26789
 C929 C 0.75705 0.03485 0.27359
 C930 C 0.77144 0.03812 0.27255
 C931 C 0.78047 0.02864 0.26578
 C932 C 0.77523 0.01624 0.26009
 C933 C 0.74829 0.02278 0.23246
 C934 C 0.74291 0.03521 0.22679
 C935 C 0.72844 0.03820 0.22754
 C936 C 0.71948 0.02847 0.23405
 C937 C 0.72486 0.01607 0.23972
 C938 C 0.74645 -0.01997 0.22841
 C939 C 0.74122 -0.03246 0.22284
 C940 C 0.72878 -0.03849 0.22809
 C941 C 0.72192 -0.03187 0.23928
 C942 C 0.72727 -0.01948 0.24496
 H943 H 0.74376 -0.01665 0.27464
 H944 H 0.75289 -0.03876 0.28396
 H945 H 0.78913 -0.03517 0.25695
 H946 H 0.77922 -0.01378 0.24694
 H947 H 0.74071 0.02008 0.26882
 H948 H 0.74983 0.04200 0.27866
 H949 H 0.78243 0.00925 0.25482
 H950 H 0.75946 0.02066 0.23169
 H951 H 0.75009 0.04254 0.22193
 H952 H 0.70825 0.03037 0.23460
 H953 H 0.71771 0.00883 0.24473
 H954 H 0.75597 -0.01544 0.22415
 H955 H 0.74696 -0.03741 0.21445
 H956 H 0.71225 -0.03610 0.24350
 H957 H 0.72187 -0.01460 0.25361
 H958 H 0.79163 0.03076 0.26501
 C959 C 0.74376 0.50055 0.74529
 C960 C 0.75361 0.50058 0.75560
 C961 C 0.75914 0.48736 0.76182
 C962 C 0.75960 0.51387 0.76109
 C963 C 0.73776 0.51378 0.73960
 C964 C 0.73842 0.48731 0.73910
 C965 C 0.75009 0.47706 0.76722
 C966 C 0.75555 0.46464 0.77286
 C967 C 0.77018 0.46240 0.77345
 C968 C 0.77919 0.47294 0.76838
 C969 C 0.77373 0.48525 0.76263
 C970 C 0.75903 0.51660 0.77541
 C971 C 0.76478 0.52892 0.78080
 C972 C 0.77131 0.53873 0.77199
 C973 C 0.77201 0.53591 0.75765
 C974 C 0.76625 0.52356 0.75225
 C975 C 0.73837 0.51635 0.72524
 C976 C 0.73278 0.52870 0.71967
 C977 C 0.72637 0.53870 0.72835
 C978 C 0.72559 0.53602 0.74272
 C979 C 0.73119 0.52364 0.74829
 C980 C 0.74759 0.47755 0.73298
 C981 C 0.74234 0.46513 0.72725
 C982 C 0.72781 0.46230 0.72750
 C983 C 0.71867 0.47221 0.73345
 C984 C 0.72391 0.48461 0.73914
 H985 H 0.73880 0.47860 0.76702
 H986 H 0.74830 0.45672 0.77658
 H987 H 0.79050 0.47174 0.76897
 H988 H 0.78092 0.49313 0.75870
 H989 H 0.75407 0.50918 0.78241
 H990 H 0.76429 0.53069 0.79192
 H991 H 0.76702 0.52153 0.74120
 H992 H 0.74327 0.50881 0.71835
 H993 H 0.73332 0.53035 0.70854
 H994 H 0.72079 0.54356 0.74967
 H995 H 0.73040 0.52174 0.75937
 H996 H 0.75880 0.47955 0.73266
 H997 H 0.74964 0.45766 0.72279
 H998 H 0.70741 0.47043 0.73357
 H999 H 0.71666 0.49208 0.74370
 H1000 H 0.77691 0.54330 0.75059
 C1001 C 0.24440 0.50004 0.24348
 C1002 C 0.25447 0.50004 0.25357
 C1003 C 0.26001 0.48679 0.25962
 C1004 C 0.26051 0.51325 0.25917
 C1005 C 0.23831 0.51327 0.23789
 C1006 C 0.23889 0.48679 0.23746
 C1007 C 0.25102 0.47702 0.26598
 C1008 C 0.25646 0.46463 0.27169
 C1009 C 0.27099 0.46186 0.27121
 C1010 C 0.27996 0.47176 0.26497
 C1011 C 0.27452 0.48413 0.25929
 C1012 C 0.26013 0.51574 0.27354
 C1013 C 0.26580 0.52804 0.27905
 C1014 C 0.27208 0.53807 0.27030
 C1015 C 0.27262 0.53548 0.25591
 C1016 C 0.26692 0.52316 0.25040
 C1017 C 0.23846 0.51571 0.22350
 C1018 C 0.23278 0.52805 0.21801
 C1019 C 0.22676 0.53819 0.22680
 C1020 C 0.22643 0.53563 0.24121
 C1021 C 0.23208 0.52324 0.24670
 C1022 C 0.24791 0.47701 0.23114
 C1023 C 0.24250 0.46462 0.22549
 C1024 C 0.22798 0.46184 0.22598
 C1025 C 0.21899 0.47174 0.23217
 C1026 C 0.22439 0.48412 0.23780
 H1027 H 0.23981 0.47900 0.26654
 H1028 H 0.24929 0.45717 0.27636
 H1029 H 0.29122 0.47004 0.26466
 H1030 H 0.28163 0.49161 0.25455
 H1031 H 0.25535 0.50816 0.28049
 H1032 H 0.26545 0.52961 0.29020
 H1033 H 0.26753 0.52133 0.23930
 H1034 H 0.24308 0.50808 0.21651
 H1035 H 0.23295 0.52958 0.20684
 H1036 H 0.22193 0.54327 0.24825
 H1037 H 0.23162 0.52144 0.25781
 H1038 H 0.25911 0.47899 0.23058
 H1039 H 0.24970 0.45715 0.22085
 H1040 H 0.20773 0.47000 0.23250
 H1041 H 0.21725 0.49160 0.24252
 H1042 H 0.27734 0.54305 0.24892
 C1043 C 0.74400 0.99940 0.75644
 C1044 C 0.75408 0.99936 0.74636
 C1045 C 0.76025 1.01254 0.74082
 C1046 C 0.75949 0.98611 0.74024
 C1047 C 0.73843 0.98614 0.76244
 C1048 C 0.73802 1.01266 0.76210
 C1049 C 0.75975 1.01522 0.72648
 C1050 C 0.76539 1.02758 0.72105
 C1051 C 0.77176 1.03748 0.72985
 C1052 C 0.77249 1.03467 0.74420
 C1053 C 0.76682 1.02228 0.74964
 C1054 C 0.75042 0.97645 0.73385
 C1055 C 0.75576 0.96409 0.72803
 C1056 C 0.77028 0.96124 0.72843
 C1057 C 0.77933 0.97104 0.73468
 C1058 C 0.77399 0.98336 0.74048
 C1059 C 0.74742 0.97629 0.76874
 C1060 C 0.74197 0.96392 0.77443
 C1061 C 0.72743 0.96123 0.77400
 C1062 C 0.71847 0.97120 0.76782
 C1063 C 0.72392 0.98355 0.76215
 C1064 C 0.73769 1.01475 0.77654
 C1065 C 0.73213 1.02709 0.78209
 C1066 C 0.72678 1.03766 0.77333
 C1067 C 0.72695 1.03547 0.75885
 C1068 C 0.73238 1.02302 0.75331
 H1069 H 0.75484 1.00777 0.71950
 H1070 H 0.76489 1.02934 0.70993
 H1071 H 0.77729 1.04213 0.75123
 H1072 H 0.76751 1.02029 0.76072
 H1073 H 0.73922 0.97849 0.73335
 H1074 H 0.74853 0.95671 0.72334
 H1075 H 0.78117 0.99076 0.74523
 H1076 H 0.75864 0.97821 0.76927
 H1077 H 0.74914 0.95640 0.77905
 H1078 H 0.70720 0.96953 0.76754
 H1079 H 0.71681 0.99109 0.75746
 H1080 H 0.74183 1.00682 0.78352
 H1081 H 0.73188 1.02827 0.79329
 H1082 H 0.72303 1.04342 0.75178
 H1083 H 0.73221 1.02151 0.74215
 H1084 H 0.79058 0.96926 0.73493
 C1085 C 0.74456 0.49946 0.25636
 C1086 C 0.75452 0.49940 0.24616
 C1087 C 0.76055 0.51260 0.24049
 C1088 C 0.75995 0.48614 0.24009
 C1089 C 0.73912 0.48623 0.26253
 C1090 C 0.73855 0.51272 0.26188
 C1091 C 0.76007 0.51510 0.22612
 C1092 C 0.76572 0.52740 0.22055
 C1093 C 0.77204 0.53742 0.22925
 C1094 C 0.77269 0.53481 0.24364
 C1095 C 0.76704 0.52247 0.24921
 C1096 C 0.75085 0.47638 0.23388
 C1097 C 0.75619 0.46401 0.22812
 C1098 C 0.77073 0.46123 0.22839
 C1099 C 0.77980 0.47113 0.23446
 C1100 C 0.77446 0.48348 0.24019
 C1101 C 0.74822 0.47640 0.26868
 C1102 C 0.74289 0.46397 0.27436
 C1103 C 0.72836 0.46122 0.27408
 C1104 C 0.71927 0.47122 0.26811
 C1105 C 0.72460 0.48362 0.26245
 C1106 C 0.73901 0.51534 0.27622
 C1107 C 0.73344 0.52775 0.28163
 C1108 C 0.72720 0.53776 0.27280
 C1109 C 0.72656 0.53502 0.25844
 C1110 C 0.73213 0.52258 0.25304
 H1111 H 0.75524 0.50754 0.21921
 H1112 H 0.76529 0.52900 0.20941
 H1113 H 0.77743 0.54237 0.25060
 H1114 H 0.76773 0.52062 0.26031
 H1115 H 0.73963 0.47836 0.23349
 H1116 H 0.74895 0.45654 0.22357
 H1117 H 0.78165 0.49095 0.24481
 H1118 H 0.75944 0.47834 0.26906
 H1119 H 0.75015 0.45644 0.27883
 H1120 H 0.70801 0.46952 0.26797
 H1121 H 0.71741 0.49115 0.25787
 H1122 H 0.74379 0.50780 0.28323
 H1123 H 0.73386 0.52943 0.29276
 H1124 H 0.72187 0.54256 0.25138
 H1125 H 0.73144 0.52064 0.24196
 H1126 H 0.79106 0.46940 0.23460
 C1127 C 0.24454 -0.00029 0.74474
 C1128 C 0.25462 -0.00034 0.75482
 C1129 C 0.26005 -0.01361 0.76097
 C1130 C 0.26075 0.01287 0.76029
 C1131 C 0.23850 0.01298 0.73917
 C1132 C 0.23906 -0.01350 0.73863
 C1133 C 0.25094 -0.02337 0.76719
 C1134 C 0.25625 -0.03577 0.77297
 C1135 C 0.27077 -0.03860 0.77271
 C1136 C 0.27987 -0.02870 0.76664
 C1137 C 0.27456 -0.01631 0.76088
 C1138 C 0.26042 0.01550 0.77463
 C1139 C 0.26610 0.02786 0.77999
 C1140 C 0.27231 0.03782 0.77111
 C1141 C 0.27283 0.03507 0.75675
 C1142 C 0.26715 0.02267 0.75139
 C1143 C 0.23890 0.01558 0.72482
 C1144 C 0.23326 0.02796 0.71936
 C1145 C 0.22701 0.03796 0.72814
 C1146 C 0.22644 0.03525 0.74252
 C1147 C 0.23209 0.02285 0.74799
 C1148 C 0.24812 -0.02326 0.73234
 C1149 C 0.24276 -0.03561 0.72658
 C1150 C 0.22823 -0.03838 0.72695
 C1151 C 0.21919 -0.02851 0.73313
 C1152 C 0.22456 -0.01616 0.73884
 H1153 H 0.23973 -0.02136 0.76758
 H1154 H 0.24898 -0.04323 0.77751
 H1155 H 0.29113 -0.03046 0.76649
 H1156 H 0.28177 -0.00885 0.75625
 H1157 H 0.25565 0.00800 0.78167
 H1158 H 0.26576 0.02957 0.79111
 H1159 H 0.26774 0.02072 0.74031
 H1160 H 0.24368 0.00804 0.71785
 H1161 H 0.23365 0.02963 0.70822
 H1162 H 0.22175 0.04279 0.74955
 H1163 H 0.23146 0.02093 0.75907
 H1164 H 0.25933 -0.02128 0.73187
 H1165 H 0.24999 -0.04306 0.72196
 H1166 H 0.20793 -0.03024 0.73337
 H1167 H 0.21739 -0.00869 0.74352
 H1168 H 0.27749 0.04258 0.74965
 C1169 C 0.25623 0.24408 0.99964
 C1170 C 0.24615 0.25426 0.99970
 C1171 C 0.24014 0.25978 1.01285
 C1172 C 0.24054 0.26040 0.98662
 C1173 C 0.26164 0.23797 0.98649
 C1174 C 0.26239 0.23849 1.01272
 C1175 C 0.23372 0.25082 1.02256
 C1176 C 0.22808 0.25624 1.03486
 C1177 C 0.22868 0.27073 1.03761
 C1178 C 0.23496 0.27967 1.02776
 C1179 C 0.24058 0.27425 1.01549
 C1180 C 0.22602 0.26008 0.98408
 C1181 C 0.22052 0.26576 0.97184
 C1182 C 0.22944 0.27200 0.96195
 C1183 C 0.24398 0.27251 0.96461
 C1184 C 0.24948 0.26680 0.97687
 C1185 C 0.27612 0.23828 0.98373
 C1186 C 0.28142 0.23268 0.97139
 C1187 C 0.27233 0.22655 0.96160
 C1188 C 0.25783 0.22604 0.96448
 C1189 C 0.25254 0.23167 0.97684
 C1190 C 0.26890 0.24741 1.02239
 C1191 C 0.27457 0.24195 1.03469
 C1192 C 0.27391 0.22747 1.03748
 C1193 C 0.26758 0.21856 1.02766
 C1194 C 0.26194 0.22402 1.01538
 H1195 H 0.23308 0.23965 1.02060
 H1196 H 0.22336 0.24910 1.04229
 H1197 H 0.23536 0.29089 1.02948
 H1198 H 0.24537 0.28134 1.00805
 H1199 H 0.21894 0.25531 0.99154
 H1200 H 0.20926 0.26543 0.97018
 H1201 H 0.26070 0.26735 0.97877
 H1202 H 0.28332 0.24298 0.99111
 H1203 H 0.29265 0.23300 0.96957
 H1204 H 0.25057 0.22144 0.95710
 H1205 H 0.24134 0.23113 0.97889
 H1206 H 0.26955 0.25858 1.02042
 H1207 H 0.27932 0.24906 1.04209
 H1208 H 0.26714 0.20734 1.02941
 H1209 H 0.25708 0.21696 1.00798
 H1210 H 0.25111 0.27720 0.95715
 C1211 C 0.25578 0.74416 0.49875
 C1212 C 0.24563 0.75428 0.49872
 C1213 C 0.24014 0.76037 0.51185
 C1214 C 0.23949 0.75988 0.48561
 C1215 C 0.26193 0.73863 0.48566
 C1216 C 0.26130 0.73807 0.51190
 C1217 C 0.22565 0.75994 0.51458
 C1218 C 0.22028 0.76556 0.52688
 C1219 C 0.22929 0.77184 0.53665
 C1220 C 0.24379 0.77246 0.53380
 C1221 C 0.24916 0.76681 0.52148
 C1222 C 0.23354 0.75092 0.47562
 C1223 C 0.22786 0.75641 0.46334
 C1224 C 0.22784 0.77098 0.46090
 C1225 C 0.23354 0.77991 0.47107
 C1226 C 0.23929 0.77441 0.48329
 C1227 C 0.26832 0.74761 0.47593
 C1228 C 0.27394 0.74220 0.46361
 C1229 C 0.27333 0.72772 0.46085
 C1230 C 0.26714 0.71876 0.47073
 C1231 C 0.26156 0.72416 0.48303
 C1232 C 0.27578 0.73850 0.51463
 C1233 C 0.28115 0.73296 0.52700
 C1234 C 0.27214 0.72676 0.53683
 C1235 C 0.25764 0.72612 0.53396
 C1236 C 0.25227 0.73168 0.52158
 H1237 H 0.21851 0.75514 0.50720
 H1238 H 0.20904 0.76516 0.52868
 H1239 H 0.25099 0.77717 0.54116
 H1240 H 0.26035 0.76745 0.51944
 H1241 H 0.23331 0.73968 0.47733
 H1242 H 0.22362 0.74924 0.45569
 H1243 H 0.24368 0.78152 0.49093
 H1244 H 0.26891 0.75878 0.47788
 H1245 H 0.27860 0.74935 0.45617
 H1246 H 0.26675 0.70754 0.46900
 H1247 H 0.25679 0.71706 0.49047
 H1248 H 0.28292 0.74326 0.50722
 H1249 H 0.29239 0.73338 0.52880
 H1250 H 0.25044 0.72147 0.54137
 H1251 H 0.24108 0.73104 0.51955
 H1252 H 0.23342 0.79119 0.46967
 C1253 C 0.24581 0.74519 0.00043
 C1254 C 0.25598 0.75527 0.00038
 C1255 C 0.26208 0.76084 -0.01277
 C1256 C 0.26147 0.76139 0.01350
 C1257 C 0.24019 0.73915 0.01356
 C1258 C 0.23964 0.73971 -0.01267
 C1259 C 0.26800 0.75185 -0.02276
 C1260 C 0.27351 0.75730 -0.03513
 C1261 C 0.27338 0.77186 -0.03767
 C1262 C 0.26773 0.78082 -0.02748
 C1263 C 0.26216 0.77536 -0.01517
 C1264 C 0.27596 0.76098 0.01623
 C1265 C 0.28133 0.76666 0.02851
 C1266 C 0.27231 0.77298 0.03825
 C1267 C 0.25781 0.77356 0.03541
 C1268 C 0.25243 0.76786 0.02312
 C1269 C 0.22565 0.73938 0.01603
 C1270 C 0.22014 0.73375 0.02828
 C1271 C 0.22906 0.72768 0.03830
 C1272 C 0.24362 0.72726 0.03572
 C1273 C 0.24913 0.73289 0.02343
 C1274 C 0.23316 0.74871 -0.02232
 C1275 C 0.22746 0.74333 -0.03462
 C1276 C 0.22807 0.72886 -0.03741
 C1277 C 0.23437 0.71987 -0.02760
 C1278 C 0.24004 0.72524 -0.01533
 H1279 H 0.26831 0.74063 -0.02099
 H1280 H 0.27771 0.75010 -0.04278
 H1281 H 0.26774 0.79209 -0.02896
 H1282 H 0.25779 0.78249 -0.00754
 H1283 H 0.28310 0.75616 0.00887
 H1284 H 0.29257 0.76626 0.03030
 H1285 H 0.24124 0.76848 0.02109
 H1286 H 0.21857 0.74403 0.00849
 H1287 H 0.20886 0.73400 0.02984
 H1288 H 0.25076 0.72271 0.04327
 H1289 H 0.26037 0.73237 0.02161
 H1290 H 0.23255 0.75988 -0.02034
 H1291 H 0.22273 0.75051 -0.04202
 H1292 H 0.23477 0.70865 -0.02936
 H1293 H 0.24487 0.71813 -0.00793
 H1294 H 0.25061 0.77830 0.04276
 C1295 C 0.24552 0.24502 0.50012
 C1296 C 0.25554 0.25524 0.50013
 C1297 C 0.26101 0.26144 0.48702
 C1298 C 0.26157 0.26081 0.51327
 C1299 C 0.23949 0.23943 0.51325
 C1300 C 0.23992 0.23892 0.48701
 C1301 C 0.27552 0.26117 0.48437
 C1302 C 0.28087 0.26682 0.47206
 C1303 C 0.27183 0.27296 0.46220
 C1304 C 0.25731 0.27343 0.46498
 C1305 C 0.25195 0.26776 0.47731
 C1306 C 0.26804 0.25189 0.52301
 C1307 C 0.27356 0.25733 0.53536
 C1308 C 0.27279 0.27180 0.53814
 C1309 C 0.26647 0.28071 0.52827
 C1310 C 0.26097 0.27527 0.51594
 C1311 C 0.23293 0.24833 0.52290
 C1312 C 0.22725 0.24287 0.53518
 C1313 C 0.22796 0.22839 0.53798
 C1314 C 0.23438 0.21949 0.52820
 C1315 C 0.24004 0.22496 0.51593
 C1316 C 0.22535 0.23868 0.48474
 C1317 C 0.21984 0.23298 0.47253
 C1318 C 0.22880 0.22736 0.46232
 C1319 C 0.24341 0.22740 0.46472
 C1320 C 0.24891 0.23305 0.47699
 H1321 H 0.28269 0.25645 0.49179
 H1322 H 0.29212 0.26652 0.47031
 H1323 H 0.25008 0.27802 0.45754
 H1324 H 0.24074 0.26825 0.47928
 H1325 H 0.26880 0.24073 0.52104
 H1326 H 0.27830 0.25020 0.54280
 H1327 H 0.25613 0.28233 0.50850
 H1328 H 0.23221 0.25951 0.52092
 H1329 H 0.22244 0.24998 0.54256
 H1330 H 0.23487 0.20827 0.52995
 H1331 H 0.24494 0.21792 0.50855
 H1332 H 0.21821 0.24301 0.49240
 H1333 H 0.20853 0.23283 0.47116
 H1334 H 0.25060 0.22320 0.45704
 H1335 H 0.26018 0.23286 0.47866
 H1336 H 0.26594 0.29192 0.53001
 C1337 C 0.75659 0.74334 1.00043
 C1338 C 0.74650 0.75351 1.00041
 C1339 C 0.74098 0.75970 1.01348
 C1340 C 0.74038 0.75903 0.98728
 C1341 C 0.76267 0.73784 0.98729
 C1342 C 0.76211 0.73716 1.01356
 C1343 C 0.72646 0.75949 1.01606
 C1344 C 0.72102 0.76529 1.02824
 C1345 C 0.73000 0.77154 1.03806
 C1346 C 0.74454 0.77194 1.03537
 C1347 C 0.74998 0.76609 1.02316
 C1348 C 0.73387 0.75007 0.97766
 C1349 C 0.72810 0.75548 0.96538
 C1350 C 0.72868 0.76996 0.96257
 C1351 C 0.73505 0.77891 0.97232
 C1352 C 0.74079 0.77350 0.98457
 C1353 C 0.76912 0.74685 0.97763
 C1354 C 0.77473 0.74150 0.96529
 C1355 C 0.77408 0.72704 0.96243
 C1356 C 0.76781 0.71804 0.97223
 C1357 C 0.76222 0.72339 0.98456
 C1358 C 0.77667 0.73688 1.01594
 C1359 C 0.78208 0.73117 1.02820
 C1360 C 0.77303 0.72556 1.03836
 C1361 C 0.75845 0.72565 1.03586
 C1362 C 0.75304 0.73130 1.02353
 H1363 H 0.71933 0.75472 1.00865
 H1364 H 0.70976 0.76505 1.02991
 H1365 H 0.75171 0.77663 1.04278
 H1366 H 0.76120 0.76656 1.02125
 H1367 H 0.73324 0.73890 0.97967
 H1368 H 0.72333 0.74833 0.95803
 H1369 H 0.74566 0.78059 0.99193
 H1370 H 0.76977 0.75801 0.97965
 H1371 H 0.77943 0.74869 0.95790
 H1372 H 0.76737 0.70684 0.97043
 H1373 H 0.75740 0.71627 0.99195
 H1374 H 0.78385 0.74120 1.00831
 H1375 H 0.79337 0.73100 1.02967
 H1376 H 0.75119 0.72149 1.04350
 H1377 H 0.74179 0.73113 1.02177
 H1378 H 0.73544 0.79013 0.97055
 C1379 C 0.75569 0.24416 0.50031
 C1380 C 0.74550 0.25425 0.50027
 C1381 C 0.73997 0.26034 0.51338
 C1382 C 0.73937 0.25979 0.48713
 C1383 C 0.76189 0.23868 0.48724
 C1384 C 0.76117 0.23804 0.51346
 C1385 C 0.72548 0.25996 0.51605
 C1386 C 0.72007 0.26563 0.52832
 C1387 C 0.72906 0.27192 0.53810
 C1388 C 0.74358 0.27249 0.53530
 C1389 C 0.74898 0.26679 0.52302
 C1390 C 0.73346 0.25079 0.47716
 C1391 C 0.72783 0.25623 0.46483
 C1392 C 0.72781 0.27079 0.46234
 C1393 C 0.73346 0.27977 0.47249
 C1394 C 0.73916 0.27432 0.48475
 C1395 C 0.76832 0.24768 0.47757
 C1396 C 0.77401 0.24231 0.46527
 C1397 C 0.77344 0.22783 0.46247
 C1398 C 0.76720 0.21884 0.47230
 C1399 C 0.76155 0.22421 0.48458
 C1400 C 0.77567 0.23838 0.51617
 C1401 C 0.78104 0.23269 0.52846
 C1402 C 0.77203 0.22642 0.53825
 C1403 C 0.75752 0.22589 0.53542
 C1404 C 0.75214 0.23161 0.52311
 H1405 H 0.71836 0.25515 0.50867
 H1406 H 0.70883 0.26526 0.53007
 H1407 H 0.75076 0.27721 0.54268
 H1408 H 0.76018 0.26740 0.52103
 H1409 H 0.73324 0.23956 0.47891
 H1410 H 0.72363 0.24902 0.45719
 H1411 H 0.74352 0.28146 0.49238
 H1412 H 0.76888 0.25886 0.47954
 H1413 H 0.77870 0.24948 0.45785
 H1414 H 0.76683 0.20763 0.47054
 H1415 H 0.75675 0.21709 0.49198
 H1416 H 0.78282 0.24317 0.50879
 H1417 H 0.79229 0.23303 0.53024
 H1418 H 0.75032 0.22118 0.54280
 H1419 H 0.74095 0.23103 0.52110
 H1420 H 0.73334 0.29104 0.47104
 C1421 C 0.74543 0.24513 -0.00073
 C1422 C 0.75554 0.25526 -0.00071
 C1423 C 0.76166 0.26091 -0.01379
 C1424 C 0.76105 0.26130 0.01244
 C1425 C 0.73988 0.23905 0.01241
 C1426 C 0.73934 0.23955 -0.01385
 C1427 C 0.76797 0.25203 -0.02363
 C1428 C 0.77362 0.25758 -0.03589
 C1429 C 0.77317 0.27212 -0.03846
 C1430 C 0.76706 0.28098 -0.02846
 C1431 C 0.76141 0.27543 -0.01624
 C1432 C 0.77555 0.26087 0.01514
 C1433 C 0.78094 0.26645 0.02745
 C1434 C 0.77194 0.27268 0.03727
 C1435 C 0.75743 0.27329 0.03445
 C1436 C 0.75204 0.26769 0.02212
 C1437 C 0.72539 0.23950 0.01508
 C1438 C 0.71998 0.23394 0.02741
 C1439 C 0.72895 0.22770 0.03727
 C1440 C 0.74346 0.22704 0.03446
 C1441 C 0.74888 0.23263 0.02212
 C1442 C 0.73334 0.24852 -0.02384
 C1443 C 0.72775 0.24304 -0.03615
 C1444 C 0.72790 0.22848 -0.03861
 C1445 C 0.73365 0.21954 -0.02843
 C1446 C 0.73929 0.22503 -0.01618
 H1447 H 0.76849 0.24082 -0.02182
 H1448 H 0.77820 0.25049 -0.04343
 H1449 H 0.76678 0.29223 -0.03002
 H1450 H 0.75672 0.28246 -0.00870
 H1451 H 0.78268 0.25611 0.00773
 H1452 H 0.79219 0.26606 0.02921
 H1453 H 0.74084 0.26832 0.02012
 H1454 H 0.71827 0.24429 0.00765
 H1455 H 0.70873 0.23437 0.02916
 H1456 H 0.75064 0.22236 0.04189
 H1457 H 0.76008 0.23197 0.02013
 H1458 H 0.73300 0.25974 -0.02212
 H1459 H 0.72347 0.25021 -0.04381
 H1460 H 0.73367 0.20827 -0.02986
 H1461 H 0.74372 0.21792 -0.00854
 H1462 H 0.75024 0.27796 0.04186
 C1463 C 0.74499 0.74481 0.49958
 C1464 C 0.75510 0.75495 0.49968
 C1465 C 0.76078 0.76110 0.48665
 C1466 C 0.76103 0.76050 0.51287
 C1467 C 0.73879 0.73927 0.51266
 C1468 C 0.73954 0.73875 0.48640
 C1469 C 0.77534 0.76090 0.48427
 C1470 C 0.78093 0.76675 0.47216
 C1471 C 0.77208 0.77303 0.46222
 C1472 C 0.75750 0.77340 0.46470
 C1473 C 0.75190 0.76752 0.47684
 C1474 C 0.76743 0.75156 0.52264
 C1475 C 0.77301 0.75702 0.53496
 C1476 C 0.77236 0.77151 0.53767
 C1477 C 0.76610 0.78042 0.52777
 C1478 C 0.76055 0.77497 0.51547
 C1479 C 0.73228 0.74824 0.52228
 C1480 C 0.72660 0.74284 0.53459
 C1481 C 0.72725 0.72836 0.53743
 C1482 C 0.73358 0.71940 0.52765
 C1483 C 0.73924 0.72481 0.51536
 C1484 C 0.72502 0.73890 0.48378
 C1485 C 0.71966 0.73326 0.47148
 C1486 C 0.72871 0.72725 0.46157
 C1487 C 0.74325 0.72690 0.46432
 C1488 C 0.74861 0.73255 0.47665
 H1489 H 0.78237 0.75612 0.49179
 H1490 H 0.79222 0.76652 0.47066
 H1491 H 0.75042 0.77811 0.45720
 H1492 H 0.74066 0.76801 0.47860
 H1493 H 0.76811 0.74039 0.52071
 H1494 H 0.77772 0.74990 0.54243
 H1495 H 0.75578 0.78204 0.50800
 H1496 H 0.73162 0.75941 0.52027
 H1497 H 0.72185 0.75000 0.54196
 H1498 H 0.73401 0.70818 0.52944
 H1499 H 0.74409 0.71771 0.50799
 H1500 H 0.71784 0.74351 0.49124
 H1501 H 0.70840 0.73346 0.46979
 H1502 H 0.75049 0.72240 0.45686
 H1503 H 0.75983 0.73210 0.47859
 H1504 H 0.76567 0.79165 0.52946
 C1505 C 1.00005 0.25551 0.24510
 C1506 C 1.00010 0.24553 0.25528
 C1507 C 1.01339 0.24017 0.26147
 C1508 C 0.98686 0.23938 0.26075
 C1509 C 0.98676 0.26142 0.23943
 C1510 C 1.01331 0.26103 0.23903
 C1511 C 1.01609 0.22569 0.26148
 C1512 C 1.02852 0.22042 0.26721
 C1513 C 1.03848 0.22952 0.27314
 C1514 C 1.03564 0.24402 0.27335
 C1515 C 1.02318 0.24929 0.26761
 C1516 C 0.97715 0.23279 0.25189
 C1517 C 0.96477 0.22703 0.25727
 C1518 C 0.96193 0.22767 0.27161
 C1519 C 0.97179 0.23407 0.28046
 C1520 C 0.98415 0.23982 0.27508
 C1521 C 0.97680 0.26781 0.24816
 C1522 C 0.96438 0.27339 0.24261
 C1523 C 0.96176 0.27276 0.22822
 C1524 C 0.97185 0.26650 0.21951
 C1525 C 0.98424 0.26095 0.22507
 C1526 C 1.01588 0.27552 0.23916
 C1527 C 1.02825 0.28092 0.23347
 C1528 C 1.03825 0.27193 0.22741
 C1529 C 1.03557 0.25742 0.22712
 C1530 C 1.02318 0.25202 0.23284
 H1531 H 1.00860 0.21847 0.25693
 H1532 H 1.03027 0.20919 0.26713
 H1533 H 1.04314 0.25129 0.27780
 H1534 H 1.02117 0.26048 0.26793
 H1535 H 0.97918 0.23213 0.24083
 H1536 H 0.95734 0.22221 0.25021
 H1537 H 0.99158 0.24472 0.28210
 H1538 H 0.97865 0.26849 0.25925
 H1539 H 0.95677 0.27808 0.24957
 H1540 H 0.97025 0.26607 0.20837
 H1541 H 0.99187 0.25618 0.21815
 H1542 H 1.00832 0.28264 0.24377
 H1543 H 1.02991 0.29216 0.23363
 H1544 H 1.04312 0.25024 0.22259
 H1545 H 1.02128 0.24082 0.23244
 H1546 H 0.97001 0.23450 0.29158
 C1547 C 0.50041 0.25560 0.74531
 C1548 C 0.50024 0.24546 0.75532
 C1549 C 0.51341 0.23980 0.76150
 C1550 C 0.48688 0.23943 0.76067
 C1551 C 0.48722 0.26178 0.73969
 C1552 C 0.51375 0.26106 0.73937
 C1553 C 0.51583 0.22528 0.76140
 C1554 C 0.52809 0.21972 0.76722
 C1555 C 0.53815 0.22858 0.77334
 C1556 C 0.53561 0.24313 0.77362
 C1557 C 0.52332 0.24868 0.76780
 C1558 C 0.47708 0.23316 0.75169
 C1559 C 0.46462 0.22746 0.75697
 C1560 C 0.46178 0.22786 0.77132
 C1561 C 0.47172 0.23398 0.78028
 C1562 C 0.48416 0.23966 0.77501
 C1563 C 0.47734 0.26820 0.74848
 C1564 C 0.46495 0.27388 0.74299
 C1565 C 0.46228 0.27330 0.72861
 C1566 C 0.47233 0.26709 0.71984
 C1567 C 0.48470 0.26144 0.72533
 C1568 C 0.51642 0.27553 0.73963
 C1569 C 0.52882 0.28090 0.73397
 C1570 C 0.53876 0.27191 0.72783
 C1571 C 0.53600 0.25742 0.72742
 C1572 C 0.52357 0.25204 0.73311
 H1573 H 0.50825 0.21824 0.75672
 H1574 H 0.52962 0.20845 0.76708
 H1575 H 0.54320 0.25022 0.77819
 H1576 H 0.52152 0.25990 0.76821
 H1577 H 0.47911 0.23266 0.74062
 H1578 H 0.45713 0.22286 0.74981
 H1579 H 0.49166 0.24432 0.78211
 H1580 H 0.47922 0.26878 0.75957
 H1581 H 0.45737 0.27855 0.75000
 H1582 H 0.47068 0.26672 0.70870
 H1583 H 0.49228 0.25666 0.71837
 H1584 H 0.50891 0.28267 0.74430
 H1585 H 0.53054 0.29213 0.73422
 H1586 H 0.54349 0.25023 0.72282
 H1587 H 0.52159 0.24086 0.73259
 H1588 H 0.46996 0.23421 0.79140
 C1589 C -0.00054 0.24467 0.74570
 C1590 C -0.00065 0.25475 0.75573
 C1591 C -0.01398 0.26079 0.76114
 C1592 C 0.01257 0.26029 0.76186
 C1593 C 0.01280 0.23922 0.73974
 C1594 C -0.01373 0.23856 0.74010
 C1595 C -0.02386 0.26703 0.75218
 C1596 C -0.03634 0.27267 0.75749
 C1597 C -0.03910 0.27228 0.77186
 C1598 C -0.02906 0.26623 0.78080
 C1599 C -0.01662 0.26059 0.77549
 C1600 C 0.01519 0.27476 0.76151
 C1601 C 0.02755 0.28019 0.76721
 C1602 C 0.03748 0.27125 0.77347
 C1603 C 0.03473 0.25675 0.77400
 C1604 C 0.02236 0.25132 0.76828
 C1605 C 0.01555 0.22476 0.74010
 C1606 C 0.02798 0.21941 0.73446
 C1607 C 0.03785 0.22842 0.72824
 C1608 C 0.03500 0.24291 0.72776
 C1609 C 0.02256 0.24825 0.73342
 C1610 C -0.02360 0.23211 0.74889
 C1611 C -0.03597 0.22642 0.74341
 C1612 C -0.03863 0.22700 0.72903
 C1613 C -0.02862 0.23328 0.72025
 C1614 C -0.01627 0.23895 0.72573
 H1615 H -0.02190 0.26752 0.74110
 H1616 H -0.04390 0.27720 0.75034
 H1617 H -0.03075 0.26602 0.79194
 H1618 H -0.00905 0.25597 0.78259
 H1619 H 0.00769 0.28185 0.75672
 H1620 H 0.02926 0.29142 0.76685
 H1621 H 0.02041 0.24013 0.76885
 H1622 H 0.00808 0.21762 0.74482
 H1623 H 0.02978 0.20818 0.73480
 H1624 H 0.04246 0.25011 0.72313
 H1625 H 0.02052 0.25943 0.73285
 H1626 H -0.02172 0.23150 0.75999
 H1627 H -0.04353 0.22171 0.75043
 H1628 H -0.03026 0.23367 0.70911
 H1629 H -0.00872 0.24376 0.71877
 H1630 H 0.04223 0.24961 0.77871
 C1631 C 0.50022 0.24430 0.24572
 C1632 C 0.50016 0.25435 0.25579
 C1633 C 0.48685 0.26039 0.26128
 C1634 C 0.51340 0.25990 0.26187
 C1635 C 0.51352 0.23887 0.23962
 C1636 C 0.48698 0.23821 0.24020
 C1637 C 0.47701 0.26681 0.25241
 C1638 C 0.46459 0.27251 0.25779
 C1639 C 0.46182 0.27196 0.27215
 C1640 C 0.47179 0.26568 0.28101
 C1641 C 0.48420 0.26001 0.27563
 C1642 C 0.51587 0.27441 0.26181
 C1643 C 0.52823 0.27985 0.26748
 C1644 C 0.53836 0.27089 0.27341
 C1645 C 0.53578 0.25635 0.27364
 C1646 C 0.52338 0.25091 0.26798
 C1647 C 0.51626 0.22440 0.23986
 C1648 C 0.52866 0.21908 0.23413
 C1649 C 0.53853 0.22811 0.22793
 C1650 C 0.53568 0.24260 0.22753
 C1651 C 0.52326 0.24793 0.23329
 C1652 C 0.47715 0.23179 0.24906
 C1653 C 0.46470 0.22619 0.24366
 C1654 C 0.46192 0.22684 0.22930
 C1655 C 0.47191 0.23307 0.22046
 C1656 C 0.48434 0.23864 0.22586
 H1657 H 0.47898 0.26743 0.24133
 H1658 H 0.45707 0.27722 0.25071
 H1659 H 0.47008 0.26531 0.29214
 H1660 H 0.49172 0.25522 0.28266
 H1661 H 0.50824 0.28153 0.25727
 H1662 H 0.52979 0.29111 0.26738
 H1663 H 0.52155 0.23970 0.26836
 H1664 H 0.50881 0.21724 0.24457
 H1665 H 0.53044 0.20785 0.23438
 H1666 H 0.54311 0.24982 0.22288
 H1667 H 0.52123 0.25911 0.23280
 H1668 H 0.47912 0.23114 0.26014
 H1669 H 0.45717 0.22151 0.25073
 H1670 H 0.47018 0.23349 0.20934
 H1671 H 0.49186 0.24342 0.21885
 H1672 H 0.54341 0.24917 0.27806
 C1673 C 1.00051 0.75588 0.74401
 C1674 C 1.00052 0.74577 0.75404
 C1675 C 1.01379 0.74020 0.76008
 C1676 C 0.98725 0.73974 0.75959
 C1677 C 0.98724 0.76199 0.73852
 C1678 C 1.01377 0.76135 0.73791
 C1679 C 1.01640 0.72571 0.75981
 C1680 C 1.02876 0.72025 0.76552
 C1681 C 1.03870 0.72917 0.77173
 C1682 C 1.03599 0.74368 0.77214
 C1683 C 1.02362 0.74914 0.76640
 C1684 C 0.97739 0.73334 0.75075
 C1685 C 0.96498 0.72770 0.75619
 C1686 C 0.96225 0.72827 0.77056
 C1687 C 0.97224 0.73452 0.77937
 C1688 C 0.98463 0.74015 0.77393
 C1689 C 0.97744 0.76843 0.74739
 C1690 C 0.96499 0.77410 0.74200
 C1691 C 0.96217 0.77348 0.72765
 C1692 C 0.97212 0.76721 0.71880
 C1693 C 0.98455 0.76158 0.72418
 C1694 C 1.01646 0.77581 0.73818
 C1695 C 1.02883 0.78118 0.73245
 C1696 C 1.03872 0.77219 0.72623
 C1697 C 1.03592 0.75770 0.72580
 C1698 C 1.02354 0.75233 0.73156
 H1699 H 1.00888 0.71863 0.75509
 H1700 H 1.03045 0.70901 0.76525
 H1701 H 1.04350 0.75081 0.77678
 H1702 H 1.02168 0.76034 0.76691
 H1703 H 0.97932 0.73273 0.73967
 H1704 H 0.95744 0.72301 0.74915
 H1705 H 0.99217 0.74493 0.78092
 H1706 H 0.97944 0.76906 0.75846
 H1707 H 0.95748 0.77880 0.74907
 H1708 H 0.97036 0.76680 0.70768
 H1709 H 0.99205 0.75678 0.71716
 H1710 H 1.00899 0.78295 0.74292
 H1711 H 1.03058 0.79241 0.73273
 H1712 H 1.04339 0.75052 0.72114
 H1713 H 1.02155 0.74115 0.73105
 H1714 H 0.97055 0.73491 0.79050
 C1715 C 0.50064 0.75616 0.24483
 C1716 C 0.50060 0.74617 0.25498
 C1717 C 0.51384 0.74069 0.26119
 C1718 C 0.48730 0.74007 0.26038
 C1719 C 0.48739 0.76226 0.23924
 C1720 C 0.51394 0.76153 0.23872
 C1721 C 0.51637 0.72618 0.26128
 C1722 C 0.52873 0.72080 0.26704
 C1723 C 0.53882 0.72981 0.27290
 C1724 C 0.53616 0.74434 0.27301
 C1725 C 0.52375 0.74973 0.26726
 C1726 C 0.47759 0.73360 0.25144
 C1727 C 0.46516 0.72785 0.25673
 C1728 C 0.46228 0.72838 0.27107
 C1729 C 0.47213 0.73469 0.27999
 C1730 C 0.48453 0.74042 0.27470
 C1731 C 0.47750 0.76864 0.24805
 C1732 C 0.46507 0.77427 0.24260
 C1733 C 0.46235 0.77369 0.22823
 C1734 C 0.47239 0.76749 0.21943
 C1735 C 0.48480 0.76188 0.22488
 C1736 C 0.51671 0.77598 0.23891
 C1737 C 0.52919 0.78123 0.23328
 C1738 C 0.53909 0.77212 0.22723
 C1739 C 0.53618 0.75766 0.22685
 C1740 C 0.52370 0.75241 0.23251
 H1741 H 0.50879 0.71902 0.25678
 H1742 H 0.53034 0.70954 0.26704
 H1743 H 0.54375 0.75156 0.27739
 H1744 H 0.52188 0.76094 0.26753
 H1745 H 0.47965 0.73301 0.24038
 H1746 H 0.45774 0.72311 0.24960
 H1747 H 0.49196 0.74524 0.28178
 H1748 H 0.47942 0.76925 0.25914
 H1749 H 0.45750 0.77892 0.24964
 H1750 H 0.47070 0.76711 0.20830
 H1751 H 0.49237 0.75712 0.21790
 H1752 H 0.50925 0.78319 0.24355
 H1753 H 0.53102 0.79244 0.23351
 H1754 H 0.54364 0.75039 0.22230
 H1755 H 0.52164 0.74124 0.23206
 H1756 H 0.47031 0.73504 0.29111
 C1757 C -0.00036 0.74634 0.24400
 C1758 C -0.00030 0.75632 0.25414
 C1759 C -0.01354 0.76244 0.25975
 C1760 C 0.01303 0.76163 0.26025
 C1761 C 0.01288 0.74083 0.23785
 C1762 C -0.01365 0.74027 0.23854
 C1763 C -0.02359 0.76861 0.25093
 C1764 C -0.03604 0.77415 0.25640
 C1765 C -0.03860 0.77376 0.27081
 C1766 C -0.02836 0.76785 0.27961
 C1767 C -0.01595 0.76228 0.27414
 C1768 C 0.01574 0.77610 0.26021
 C1769 C 0.02821 0.78130 0.26586
 C1770 C 0.03820 0.77215 0.27174
 C1771 C 0.03536 0.75766 0.27197
 C1772 C 0.02285 0.75246 0.26633
 C1773 C 0.01543 0.72633 0.23792
 C1774 C 0.02778 0.72092 0.23219
 C1775 C 0.03782 0.72991 0.22618
 C1776 C 0.03514 0.74443 0.22591
 C1777 C 0.02275 0.74984 0.23165
 C1778 C -0.02352 0.73400 0.24746
 C1779 C -0.03592 0.72828 0.24210
 C1780 C -0.03860 0.72859 0.22771
 C1781 C -0.02858 0.73468 0.21881
 C1782 C -0.01622 0.74043 0.22418
 H1783 H -0.02181 0.76908 0.23981
 H1784 H -0.04375 0.77856 0.24934
 H1785 H -0.02988 0.76765 0.29077
 H1786 H -0.00827 0.75771 0.28113
 H1787 H 0.00823 0.78335 0.25569
 H1788 H 0.02997 0.79253 0.26576
 H1789 H 0.02082 0.74128 0.26668
 H1790 H 0.00788 0.71920 0.24253
 H1791 H 0.02942 0.70967 0.23233
 H1792 H 0.04270 0.75162 0.22141
 H1793 H 0.02085 0.76105 0.23127
 H1794 H -0.02160 0.73353 0.25856
 H1795 H -0.04347 0.72372 0.24922
 H1796 H -0.03021 0.73484 0.20767
 H1797 H -0.00866 0.74508 0.21711
 H1798 H 0.04288 0.75035 0.27636
 C1799 C 0.49897 0.74543 0.74549
 C1800 C 0.49893 0.75539 0.75564
 C1801 C 0.48564 0.76142 0.76115
 C1802 C 0.51219 0.76079 0.76182
 C1803 C 0.51227 0.73998 0.73942
 C1804 C 0.48573 0.73941 0.73988
 C1805 C 0.47587 0.76800 0.75232
 C1806 C 0.46344 0.77366 0.75773
 C1807 C 0.46061 0.77288 0.77207
 C1808 C 0.47051 0.76645 0.78088
 C1809 C 0.48292 0.76083 0.77547
 C1810 C 0.51486 0.77527 0.76169
 C1811 C 0.52728 0.78056 0.76739
 C1812 C 0.53723 0.77149 0.77345
 C1813 C 0.53442 0.75699 0.77378
 C1814 C 0.52199 0.75170 0.76805
 C1815 C 0.51494 0.72550 0.73959
 C1816 C 0.52736 0.72016 0.73393
 C1817 C 0.53731 0.72920 0.72787
 C1818 C 0.53452 0.74370 0.72752
 C1819 C 0.52208 0.74904 0.73322
 C1820 C 0.47588 0.73288 0.74864
 C1821 C 0.46354 0.72717 0.74313
 C1822 C 0.46087 0.72782 0.72875
 C1823 C 0.47084 0.73420 0.72001
 C1824 C 0.48317 0.73989 0.72552
 H1825 H 0.47789 0.76876 0.74126
 H1826 H 0.45597 0.77850 0.75068
 H1827 H 0.46874 0.76592 0.79199
 H1828 H 0.49040 0.75591 0.78247
 H1829 H 0.50737 0.78246 0.75705
 H1830 H 0.52903 0.79179 0.76719
 H1831 H 0.52000 0.74051 0.76846
 H1832 H 0.50742 0.71834 0.74420
 H1833 H 0.52910 0.70893 0.73413
 H1834 H 0.54202 0.75091 0.72297
 H1835 H 0.52010 0.76023 0.73278
 H1836 H 0.47779 0.73219 0.75973
 H1837 H 0.45601 0.72236 0.75012
 H1838 H 0.46920 0.73464 0.70887
 H1839 H 0.49070 0.74476 0.71858
 H1840 H 0.54192 0.74974 0.77832
 C1841 C 0.41158 0.29603 0.29583
 C1842 C 0.40684 0.30917 0.29116
 C1843 C 0.39483 0.31515 0.29724
 C1844 C 0.38754 0.30809 0.30795
 C1845 C 0.39246 0.29484 0.31243
 C1846 C 0.40446 0.28879 0.30643
 C1847 C 0.42428 0.28975 0.28957
 C1848 C 0.42908 0.27666 0.29434
 C1849 C 0.44127 0.27083 0.28850
 C1850 C 0.44867 0.27801 0.27796
 C1851 C 0.44362 0.29108 0.27322
 C1852 C 0.43144 0.29702 0.27901
 C1853 C 0.40953 0.27566 0.31085
 C1854 C 0.42163 0.26970 0.30492
 C1855 C 0.41426 0.31611 0.28054
 C1856 C 0.42635 0.31013 0.27457
 H1857 H 0.40413 0.26996 0.31901
 H1858 H 0.42522 0.25958 0.30868
 H1859 H 0.41071 0.32626 0.27683
 H1860 H 0.43177 0.31585 0.26643
 H1861 H 0.39131 0.32536 0.29370
 H1862 H 0.38698 0.28917 0.32054
 H1863 H 0.44496 0.26068 0.29209
 H1864 H 0.44933 0.29676 0.26524
 C1865 C 0.41047 0.79670 0.79617
 C1866 C 0.40581 0.80995 0.79176
 C1867 C 0.39379 0.81583 0.79789
 C1868 C 0.38631 0.80857 0.80840
 C1869 C 0.39127 0.79523 0.81266
 C1870 C 0.40330 0.78928 0.80660
 C1871 C 0.42314 0.79049 0.78977
 C1872 C 0.42785 0.77726 0.79426
 C1873 C 0.43999 0.77149 0.78829
 C1874 C 0.44744 0.77885 0.77792
 C1875 C 0.44247 0.79204 0.77342
 C1876 C 0.43033 0.79793 0.77935
 C1877 C 0.40830 0.77603 0.81076
 C1878 C 0.42037 0.77012 0.80469
 C1879 C 0.41327 0.81707 0.78128
 C1880 C 0.42531 0.81116 0.77517
 H1881 H 0.40286 0.77017 0.81879
 H1882 H 0.42388 0.75989 0.80823
 H1883 H 0.40977 0.82731 0.77776
 H1884 H 0.43076 0.81701 0.76714
 H1885 H 0.39038 0.82606 0.79435
 H1886 H 0.38590 0.78935 0.82069
 H1887 H 0.44363 0.76124 0.79166
 H1888 H 0.44821 0.79785 0.76555
 C1889 C -0.08936 0.29636 0.79542
 C1890 C -0.09428 0.30934 0.79046
 C1891 C -0.10622 0.31540 0.79659
 C1892 C -0.11321 0.30860 0.80764
 C1893 C -0.10814 0.29553 0.81241
 C1894 C -0.09623 0.28937 0.80634
 C1895 C -0.07670 0.29004 0.78914
 C1896 C -0.07171 0.27712 0.79418
 C1897 C -0.05953 0.27127 0.78835
 C1898 C -0.05230 0.27828 0.77760
 C1899 C -0.05754 0.29118 0.77258
 C1900 C -0.06973 0.29711 0.77833
 C1901 C -0.09099 0.27639 0.81102
 C1902 C -0.07895 0.27037 0.80504
 C1903 C -0.08708 0.31606 0.77956
 C1904 C -0.07501 0.31006 0.77360
 H1905 H -0.09621 0.27088 0.81942
 H1906 H -0.07521 0.26038 0.80901
 H1907 H -0.09077 0.32609 0.77565
 H1908 H -0.06973 0.31563 0.76527
 H1909 H -0.10987 0.32550 0.79288
 H1910 H -0.11346 0.29009 0.82079
 H1911 H -0.05570 0.26125 0.79215
 H1912 H -0.05196 0.29674 0.76443
 C1913 C -0.08958 0.79634 0.29444
 C1914 C -0.09511 0.80899 0.28926
 C1915 C -0.10741 0.81452 0.29521
 C1916 C -0.11413 0.80752 0.30631
 C1917 C -0.10839 0.79484 0.31135
 C1918 C -0.09615 0.78920 0.30544
 C1919 C -0.07664 0.79049 0.28826
 C1920 C -0.07112 0.77785 0.29345
 C1921 C -0.05877 0.77238 0.28761
 C1922 C -0.05187 0.77949 0.27670
 C1923 C -0.05762 0.79214 0.27157
 C1924 C -0.07000 0.79769 0.27732
 C1925 C -0.09033 0.77654 0.31032
 C1926 C -0.07804 0.77096 0.30442
 C1927 C -0.08820 0.81587 0.27828
 C1928 C -0.07585 0.81032 0.27242
 H1929 H -0.09532 0.77092 0.31879
 H1930 H -0.07389 0.76119 0.30851
 H1931 H -0.09234 0.82564 0.27419
 H1932 H -0.07083 0.81598 0.26399
 H1933 H -0.11161 0.82433 0.29130
 H1934 H -0.11350 0.78925 0.31975
 H1935 H -0.05458 0.76253 0.29149
 H1936 H -0.05232 0.79779 0.26330
 C1937 C 0.58917 0.70597 0.29667
 C1938 C 0.59588 0.69481 0.28984
 C1939 C 0.60788 0.68873 0.29583
 C1940 C 0.61323 0.69375 0.30857
 C1941 C 0.60639 0.70503 0.31524
 C1942 C 0.59433 0.71115 0.30935
 C1943 C 0.57645 0.71229 0.29047
 C1944 C 0.56965 0.72337 0.29736
 C1945 C 0.55743 0.72921 0.29151
 C1946 C 0.55201 0.72399 0.27887
 C1947 C 0.55910 0.71298 0.27205
 C1948 C 0.57129 0.70706 0.27782
 C1949 C 0.58727 0.72230 0.31591
 C1950 C 0.57514 0.72830 0.31002
 C1951 C 0.59044 0.68992 0.27715
 C1952 C 0.57836 0.69595 0.27124
 H1953 H 0.59113 0.72639 0.32570
 H1954 H 0.56999 0.73684 0.31545
 H1955 H 0.59554 0.68133 0.27176
 H1956 H 0.57448 0.69184 0.26146
 H1957 H 0.61309 0.68020 0.29048
 H1958 H 0.61030 0.70892 0.32509
 H1959 H 0.55197 0.73757 0.29691
 H1960 H 0.55516 0.70904 0.26222
 C1961 C 0.58830 0.20454 0.79729
 C1962 C 0.59329 0.20956 0.81009
 C1963 C 0.60544 0.20356 0.81592
 C1964 C 0.61257 0.19260 0.80903
 C1965 C 0.60734 0.18768 0.79621
 C1966 C 0.59523 0.19362 0.79029
 C1967 C 0.57556 0.21082 0.79111
 C1968 C 0.57057 0.20578 0.77831
 C1969 C 0.55841 0.21172 0.77251
 C1970 C 0.55121 0.22260 0.77943
 C1971 C 0.55641 0.22758 0.79223
 C1972 C 0.56858 0.22171 0.79812
 C1973 C 0.58994 0.18888 0.77749
 C1974 C 0.57782 0.19486 0.77159
 C1975 C 0.58603 0.22048 0.81681
 C1976 C 0.57388 0.22645 0.81093
 H1977 H 0.59520 0.18047 0.77198
 H1978 H 0.57407 0.19088 0.76171
 H1979 H 0.58976 0.22444 0.82671
 H1980 H 0.56859 0.23483 0.81646
 H1981 H 0.60923 0.20737 0.82584
 H1982 H 0.61275 0.17938 0.79070
 H1983 H 0.55460 0.20795 0.76257
 H1984 H 0.55084 0.23582 0.79772
 C1985 C 1.08868 0.70534 0.79623
 C1986 C 1.09324 0.71010 0.80928
 C1987 C 1.10524 0.70405 0.81533
 C1988 C 1.11271 0.69331 0.80842
 C1989 C 1.10794 0.68871 0.79530
 C1990 C 1.09594 0.69467 0.78918
 C1991 C 1.07601 0.71160 0.78987
 C1992 C 1.07139 0.70676 0.77686
 C1993 C 1.05926 0.71264 0.77093
 C1994 C 1.05176 0.72328 0.77790
 C1995 C 1.05662 0.72808 0.79090
 C1996 C 1.06873 0.72225 0.79694
 C1997 C 1.09103 0.69016 0.77614
 C1998 C 1.07896 0.69610 0.77009
 C1999 C 1.08569 0.72079 0.81604
 C2000 C 1.07365 0.72676 0.80997
 H2001 H 1.09654 0.68195 0.77058
 H2002 H 1.07550 0.69229 0.76005
 H2003 H 1.08911 0.72456 0.82611
 H2004 H 1.06812 0.73496 0.81555
 H2005 H 1.10863 0.70767 0.82545
 H2006 H 1.11356 0.68056 0.78977
 H2007 H 1.05569 0.70901 0.76085
 H2008 H 1.05082 0.73614 0.79642
 C2009 C 1.08908 0.20623 0.29693
 C2010 C 1.09398 0.21124 0.30977
 C2011 C 1.10605 0.20519 0.31571
 C2012 C 1.11321 0.19416 0.30893
 C2013 C 1.10814 0.18938 0.29598
 C2014 C 1.09609 0.19535 0.28996
 C2015 C 1.07629 0.21241 0.29072
 C2016 C 1.07133 0.20729 0.27795
 C2017 C 1.05906 0.21306 0.27218
 C2018 C 1.05172 0.22383 0.27912
 C2019 C 1.05693 0.22893 0.29188
 C2020 C 1.06921 0.22323 0.29774
 C2021 C 1.09087 0.19059 0.27714
 C2022 C 1.07869 0.19646 0.27123
 C2023 C 1.08665 0.22214 0.31644
 C2024 C 1.07447 0.22803 0.31054
 H2025 H 1.09619 0.18220 0.27164
 H2026 H 1.07498 0.19243 0.26136
 H2027 H 1.09032 0.22611 0.32635
 H2028 H 1.06911 0.23637 0.31606
 H2029 H 1.10976 0.20908 0.32562
 H2030 H 1.11342 0.18096 0.29055
 H2031 H 1.05526 0.20920 0.26227
 H2032 H 1.05128 0.23711 0.29737
 C2033 C 0.58881 0.29563 0.70350
 C2034 C 0.59599 0.30635 0.71054
 C2035 C 0.60797 0.31233 0.70443
 C2036 C 0.61280 0.30770 0.69134
 C2037 C 0.60543 0.29690 0.68446
 C2038 C 0.59345 0.29083 0.69049
 C2039 C 0.57615 0.28936 0.70984
 C2040 C 0.56894 0.27868 0.70277
 C2041 C 0.55682 0.27287 0.70878
 C2042 C 0.55187 0.27772 0.72173
 C2043 C 0.55932 0.28838 0.72871
 C2044 C 0.57146 0.29425 0.72281
 C2045 C 0.58596 0.28010 0.68375
 C2046 C 0.57392 0.27413 0.68978
 C2047 C 0.59102 0.31090 0.72354
 C2048 C 0.57896 0.30495 0.72957
 H2049 H 0.58942 0.27631 0.67369
 H2050 H 0.56844 0.26590 0.68421
 H2051 H 0.59647 0.31915 0.72909
 H2052 H 0.57545 0.30880 0.73959
 H2053 H 0.61352 0.32053 0.70995
 H2054 H 0.60887 0.29325 0.67437
 H2055 H 0.55106 0.26479 0.70326
 H2056 H 0.55571 0.29206 0.73876
 C2057 C 0.58972 0.79517 0.20349
 C2058 C 0.59698 0.80576 0.21063
 C2059 C 0.60908 0.81162 0.20464
 C2060 C 0.61395 0.80700 0.19156
 C2061 C 0.60651 0.79630 0.18460
 C2062 C 0.59441 0.79035 0.19051
 C2063 C 0.57691 0.78907 0.20968
 C2064 C 0.56960 0.77852 0.20251
 C2065 C 0.55733 0.77287 0.20837
 C2066 C 0.55232 0.77777 0.22127
 C2067 C 0.55985 0.78830 0.22836
 C2068 C 0.57215 0.79399 0.22261
 C2069 C 0.58685 0.77974 0.18366
 C2070 C 0.57466 0.77392 0.18956
 C2071 C 0.59195 0.81034 0.22360
 C2072 C 0.57974 0.80455 0.22948
 H2073 H 0.59036 0.77593 0.17363
 H2074 H 0.56912 0.76579 0.18391
 H2075 H 0.59746 0.81850 0.22923
 H2076 H 0.57618 0.80843 0.23948
 H2077 H 0.61467 0.81973 0.21024
 H2078 H 0.60998 0.79263 0.17452
 H2079 H 0.55152 0.76489 0.20276
 H2080 H 0.55618 0.79200 0.23837
 C2081 C 1.08843 0.29539 0.20314
 C2082 C 1.09311 0.29049 0.19019
 C2083 C 1.10517 0.29643 0.18420
 C2084 C 1.11260 0.30720 0.19107
 C2085 C 1.10771 0.31195 0.20410
 C2086 C 1.09564 0.30610 0.21016
 C2087 C 1.07571 0.28924 0.20945
 C2088 C 1.07097 0.29422 0.22236
 C2089 C 1.05878 0.28844 0.22824
 C2090 C 1.05134 0.27775 0.22130
 C2091 C 1.05632 0.27281 0.20839
 C2092 C 1.06848 0.27854 0.20241
 C2093 C 1.09062 0.31076 0.22311
 C2094 C 1.07849 0.30492 0.22910
 C2095 C 1.08561 0.27976 0.18346
 C2096 C 1.07350 0.27388 0.18947
 H2097 H 1.09609 0.31901 0.22864
 H2098 H 1.07495 0.30885 0.23908
 H2099 H 1.08911 0.27588 0.17345
 H2100 H 1.06802 0.26565 0.18392
 H2101 H 1.10865 0.29268 0.17416
 H2102 H 1.11329 0.32014 0.20960
 H2103 H 1.05513 0.29217 0.23825
 H2104 H 1.05057 0.26471 0.20290
 C2105 C 1.08892 0.79566 0.70203
 C2106 C 1.09350 0.79092 0.68898
 C2107 C 1.10554 0.79690 0.68299
 C2108 C 1.11303 0.80757 0.68996
 C2109 C 1.10826 0.81215 0.70308
 C2110 C 1.09621 0.80625 0.70915
 C2111 C 1.07620 0.78948 0.70832
 C2112 C 1.07156 0.79431 0.72132
 C2113 C 1.05937 0.78853 0.72718
 C2114 C 1.05182 0.77798 0.72013
 C2115 C 1.05671 0.77317 0.70714
 C2116 C 1.06888 0.77892 0.70117
 C2117 C 1.09129 0.81075 0.72218
 C2118 C 1.07917 0.80489 0.72816
 C2119 C 1.08592 0.78031 0.68216
 C2120 C 1.07382 0.77441 0.68815
 H2121 H 1.09683 0.81891 0.72780
 H2122 H 1.07570 0.80869 0.73821
 H2123 H 1.08935 0.77655 0.67208
 H2124 H 1.06826 0.76628 0.68252
 H2125 H 1.10895 0.79329 0.67287
 H2126 H 1.11389 0.82024 0.70866
 H2127 H 1.05579 0.79215 0.73725
 H2128 H 1.05088 0.76518 0.70157
 C2129 C 0.41100 0.70376 0.70443
 C2130 C 0.40390 0.71110 0.69387
 C2131 C 0.39198 0.70506 0.68771
 C2132 C 0.38714 0.69175 0.69200
 C2133 C 0.39442 0.68457 0.70266
 C2134 C 0.40635 0.69053 0.70890
 C2135 C 0.42360 0.71003 0.71087
 C2136 C 0.43075 0.70267 0.72139
 C2137 C 0.44283 0.70861 0.72736
 C2138 C 0.44780 0.72177 0.72280
 C2139 C 0.44041 0.72904 0.71231
 C2140 C 0.42832 0.72321 0.70630
 C2141 C 0.41375 0.68350 0.71949
 C2142 C 0.42574 0.68947 0.72563
 C2143 C 0.40888 0.72432 0.68965
 C2144 C 0.42089 0.73027 0.69576
 H2145 H 0.41027 0.67328 0.72304
 H2146 H 0.43116 0.68368 0.73373
 H2147 H 0.40349 0.73009 0.68152
 H2148 H 0.42441 0.74046 0.69216
 H2149 H 0.38650 0.71081 0.67965
 H2150 H 0.39096 0.67430 0.70605
 H2151 H 0.44854 0.70287 0.73531
 H2152 H 0.44404 0.73926 0.70888
 C2153 C 0.41129 0.20368 0.20570
 C2154 C 0.40643 0.19056 0.21029
 C2155 C 0.39431 0.18481 0.20423
 C2156 C 0.38706 0.19208 0.19361
 C2157 C 0.39210 0.20528 0.18921
 C2158 C 0.40421 0.21111 0.19520
 C2159 C 0.42411 0.20971 0.21193
 C2160 C 0.42903 0.22278 0.20725
 C2161 C 0.44131 0.22839 0.21307
 C2162 C 0.44870 0.22101 0.22350
 C2163 C 0.44353 0.20796 0.22816
 C2164 C 0.43125 0.20225 0.22239
 C2165 C 0.40939 0.22421 0.19085
 C2166 C 0.42160 0.22994 0.19677
 C2167 C 0.41384 0.18343 0.22081
 C2168 C 0.42604 0.18917 0.22675
 H2169 H 0.40401 0.23005 0.18277
 H2170 H 0.42528 0.24004 0.19308
 H2171 H 0.41020 0.17329 0.22445
 H2172 H 0.43145 0.18330 0.23480
 H2173 H 0.39069 0.17462 0.20768
 H2174 H 0.38662 0.21110 0.18119
 H2175 H 0.44510 0.23852 0.20955
 H2176 H 0.44923 0.20214 0.23606
 C2177 C -0.08875 0.70416 0.20436
 C2178 C -0.09568 0.71104 0.19340
 C2179 C -0.10770 0.70489 0.18753
 C2180 C -0.11281 0.69197 0.19258
 C2181 C -0.10572 0.68525 0.20363
 C2182 C -0.09367 0.69128 0.20954
 C2183 C -0.07605 0.71051 0.21050
 C2184 C -0.06904 0.70357 0.22138
 C2185 C -0.05687 0.70958 0.22707
 C2186 C -0.05170 0.72244 0.22193
 C2187 C -0.05895 0.72931 0.21108
 C2188 C -0.07110 0.72337 0.20529
 C2189 C -0.08641 0.68466 0.22047
 C2190 C -0.07429 0.69070 0.22629
 C2191 C -0.09045 0.72393 0.18852
 C2192 C -0.07837 0.73000 0.19437
 H2193 H -0.09010 0.67472 0.22455
 H2194 H -0.06898 0.68523 0.23468
 H2195 H -0.09572 0.72936 0.18008
 H2196 H -0.07467 0.73993 0.19028
 H2197 H -0.11310 0.71025 0.17914
 H2198 H -0.10942 0.67524 0.20753
 H2199 H -0.05128 0.70412 0.23529
 H2200 H -0.05517 0.73930 0.20718
 C2201 C -0.08876 0.20324 0.70505
 C2202 C -0.09589 0.21059 0.69451
 C2203 C -0.10792 0.20464 0.68850
 C2204 C -0.11286 0.19141 0.69292
 C2205 C -0.10555 0.18421 0.70353
 C2206 C -0.09351 0.19008 0.70963
 C2207 C -0.07606 0.20941 0.71136
 C2208 C -0.06891 0.20204 0.72187
 C2209 C -0.05676 0.20791 0.72775
 C2210 C -0.05173 0.22102 0.72313
 C2211 C -0.05911 0.22830 0.71264
 C2212 C -0.07127 0.22254 0.70671
 C2213 C -0.08609 0.18302 0.72018
 C2214 C -0.07400 0.18890 0.72621
 C2215 C -0.09081 0.22374 0.69020
 C2216 C -0.07871 0.22962 0.69619
 H2217 H -0.08964 0.17285 0.72381
 H2218 H -0.06857 0.18310 0.73430
 H2219 H -0.09622 0.22953 0.68209
 H2220 H -0.07512 0.23976 0.69252
 H2221 H -0.11345 0.21040 0.68046
 H2222 H -0.10909 0.17400 0.70700
 H2223 H -0.05106 0.20216 0.73571
 H2224 H -0.05542 0.23848 0.70915
 C2225 C 0.29481 0.41185 0.29550
 C2226 C 0.30551 0.40464 0.28841
 C2227 C 0.31151 0.39266 0.29452
 C2228 C 0.30692 0.38788 0.30765
 C2229 C 0.29613 0.39528 0.31457
 C2230 C 0.29005 0.40725 0.30854
 C2231 C 0.28853 0.42451 0.28917
 C2232 C 0.27786 0.43176 0.29629
 C2233 C 0.27204 0.44388 0.29029
 C2234 C 0.27685 0.44878 0.27731
 C2235 C 0.28750 0.44131 0.27028
 C2236 C 0.29338 0.42917 0.27617
 C2237 C 0.27933 0.41476 0.31534
 C2238 C 0.27334 0.42680 0.30931
 C2239 C 0.31002 0.40959 0.27538
 C2240 C 0.30406 0.42165 0.26936
 H2241 H 0.27556 0.41132 0.32541
 H2242 H 0.26513 0.43230 0.31491
 H2243 H 0.31827 0.40411 0.26980
 H2244 H 0.30788 0.42514 0.25932
 H2245 H 0.31970 0.38709 0.28898
 H2246 H 0.29252 0.39188 0.32470
 H2247 H 0.26398 0.44965 0.29585
 H2248 H 0.29114 0.44491 0.26020
 C2249 C 0.29407 -0.08898 0.79683
 C2250 C 0.30489 -0.09608 0.78985
 C2251 C 0.31090 -0.10804 0.79596
 C2252 C 0.30627 -0.11297 0.80909
 C2253 C 0.29521 -0.10570 0.81581
 C2254 C 0.28912 -0.09372 0.80975
 C2255 C 0.28789 -0.07624 0.79054
 C2256 C 0.27712 -0.06906 0.79757
 C2257 C 0.27143 -0.05684 0.79163
 C2258 C 0.27649 -0.05176 0.77879
 C2259 C 0.28723 -0.05919 0.77185
 C2260 C 0.29297 -0.07141 0.77769
 C2261 C 0.27826 -0.08631 0.81643
 C2262 C 0.27237 -0.07419 0.81044
 C2263 C 0.30960 -0.09100 0.77693
 C2264 C 0.30375 -0.07888 0.77096
 H2265 H 0.27432 -0.08986 0.82640
 H2266 H 0.26406 -0.06876 0.81598
 H2267 H 0.31794 -0.09641 0.77142
 H2268 H 0.30775 -0.07527 0.76102
 H2269 H 0.31924 -0.11334 0.79041
 H2270 H 0.29132 -0.10917 0.82581
 H2271 H 0.26329 -0.05112 0.79712
 H2272 H 0.29106 -0.05548 0.76188
 C2273 C 0.79406 0.41181 0.79668
 C2274 C 0.80628 0.40614 0.79074
 C2275 C 0.81232 0.39408 0.79662
 C2276 C 0.80617 0.38749 0.80833
 C2277 C 0.79378 0.39336 0.81404
 C2278 C 0.78776 0.40554 0.80832
 C2279 C 0.78779 0.42461 0.79062
 C2280 C 0.77569 0.43044 0.79669
 C2281 C 0.76991 0.44275 0.79102
 C2282 C 0.77609 0.44918 0.77929
 C2283 C 0.78812 0.44302 0.77325
 C2284 C 0.79407 0.43082 0.77893
 C2285 C 0.77559 0.41162 0.81405
 C2286 C 0.76968 0.42388 0.80836
 C2287 C 0.81225 0.41264 0.77902
 C2288 C 0.80622 0.42475 0.77318
 H2289 H 0.77062 0.40689 0.82305
 H2290 H 0.76034 0.42825 0.81315
 H2291 H 0.82167 0.40835 0.77431
 H2292 H 0.81116 0.42945 0.76415
 H2293 H 0.82171 0.38985 0.79186
 H2294 H 0.78883 0.38870 0.82306
 H2295 H 0.76077 0.44746 0.79589
 H2296 H 0.79284 0.44768 0.76408
 C2297 C 0.79565 -0.08907 0.29545
 C2298 C 0.80394 -0.09796 0.28720
 C2299 C 0.80981 -0.11009 0.29314
 C2300 C 0.80715 -0.11363 0.30718
 C2301 C 0.79869 -0.10452 0.31524
 C2302 C 0.79306 -0.09220 0.30948
 C2303 C 0.78952 -0.07626 0.28927
 C2304 C 0.78150 -0.06721 0.29762
 C2305 C 0.77584 -0.05495 0.29175
 C2306 C 0.77788 -0.05183 0.27753
 C2307 C 0.78584 -0.06119 0.26929
 C2308 C 0.79182 -0.07330 0.27515
 C2309 C 0.78491 -0.08292 0.31749
 C2310 C 0.77930 -0.07060 0.31168
 C2311 C 0.80609 -0.09459 0.27312
 C2312 C 0.80006 -0.08252 0.26717
 H2313 H 0.78288 -0.08518 0.32835
 H2314 H 0.77311 -0.06371 0.31824
 H2315 H 0.81243 -0.10139 0.26661
 H2316 H 0.80194 -0.08036 0.25626
 H2317 H 0.81610 -0.11689 0.28662
 H2318 H 0.79663 -0.10676 0.32609
 H2319 H 0.77003 -0.04778 0.29833
 H2320 H 0.78731 -0.05914 0.25831
 C2321 C 0.29459 0.58813 0.70368
 C2322 C 0.30528 0.59529 0.71081
 C2323 C 0.31126 0.60730 0.70477
 C2324 C 0.30665 0.61216 0.69167
 C2325 C 0.29588 0.60480 0.68470
 C2326 C 0.28982 0.59280 0.69066
 C2327 C 0.28831 0.57547 0.70996
 C2328 C 0.27763 0.56829 0.70281
 C2329 C 0.27178 0.55618 0.70876
 C2330 C 0.27659 0.55122 0.72174
 C2331 C 0.28725 0.55861 0.72879
 C2332 C 0.29315 0.57074 0.72294
 C2333 C 0.27911 0.58534 0.68382
 C2334 C 0.27312 0.57330 0.68979
 C2335 C 0.30980 0.59028 0.72383
 C2336 C 0.30384 0.57821 0.72979
 H2337 H 0.27535 0.58884 0.67375
 H2338 H 0.26491 0.56784 0.68416
 H2339 H 0.31804 0.59571 0.72944
 H2340 H 0.30766 0.57467 0.73982
 H2341 H 0.31943 0.61283 0.71036
 H2342 H 0.29225 0.60827 0.67459
 H2343 H 0.26371 0.55046 0.70319
 H2344 H 0.29089 0.55497 0.73886
 C2345 C 0.29445 1.08875 0.20477
 C2346 C 0.30260 1.09779 0.21300
 C2347 C 0.30864 1.10973 0.20689
 C2348 C 0.30654 1.11268 0.19267
 C2349 C 0.29826 1.10351 0.18460
 C2350 C 0.29223 1.09151 0.19059
 C2351 C 0.28821 1.07609 0.21111
 C2352 C 0.28018 1.06697 0.20285
 C2353 C 0.27444 1.05484 0.20888
 C2354 C 0.27671 1.05181 0.22306
 C2355 C 0.28468 1.06117 0.23121
 C2356 C 0.29049 1.07331 0.22528
 C2357 C 0.28408 1.08216 0.18267
 C2358 C 0.27817 1.07009 0.18869
 C2359 C 0.30456 1.09470 0.22717
 C2360 C 0.29860 1.08267 0.23320
 H2361 H 0.28229 1.08417 0.17172
 H2362 H 0.27201 1.06313 0.18220
 H2363 H 0.31079 1.10162 0.23364
 H2364 H 0.30041 1.08065 0.24415
 H2365 H 0.31484 1.11676 0.21326
 H2366 H 0.29667 1.10556 0.17363
 H2367 H 0.26848 1.04762 0.20248
 H2368 H 0.28632 1.05903 0.24217
 C2369 C 0.79563 0.58756 0.20515
 C2370 C 0.80871 0.59246 0.20984
 C2371 C 0.81445 0.60459 0.20385
 C2372 C 0.80721 0.61189 0.19324
 C2373 C 0.79409 0.60673 0.18865
 C2374 C 0.78827 0.59459 0.19457
 C2375 C 0.78953 0.57482 0.21144
 C2376 C 0.77646 0.56990 0.20672
 C2377 C 0.77074 0.55774 0.21267
 C2378 C 0.77801 0.55048 0.22326
 C2379 C 0.79108 0.55562 0.22792
 C2380 C 0.79690 0.56778 0.22203
 C2381 C 0.77520 0.58936 0.19014
 C2382 C 0.76939 0.57723 0.19611
 C2383 C 0.81578 0.58513 0.22045
 C2384 C 0.80997 0.57300 0.22645
 H2385 H 0.76940 0.59470 0.18198
 H2386 H 0.75929 0.57354 0.19238
 H2387 H 0.82589 0.58881 0.22417
 H2388 H 0.81577 0.56767 0.23460
 H2389 H 0.82455 0.60828 0.20751
 H2390 H 0.78833 0.61213 0.18054
 H2391 H 0.76059 0.55397 0.20915
 H2392 H 0.79684 0.55002 0.23593
 C2393 C 0.79523 1.08772 0.70587
 C2394 C 0.78774 1.09488 0.69546
 C2395 C 0.79364 1.10690 0.68938
 C2396 C 0.80698 1.11177 0.69361
 C2397 C 0.81432 1.10444 0.70411
 C2398 C 0.80850 1.09241 0.71027
 C2399 C 0.78912 1.07502 0.71222
 C2400 C 0.79664 1.06781 0.72259
 C2401 C 0.79085 1.05563 0.72847
 C2402 C 0.77766 1.05063 0.72399
 C2403 C 0.77022 1.05808 0.71366
 C2404 C 0.77590 1.07027 0.70773
 C2405 C 0.81570 1.08495 0.72070
 C2406 C 0.80987 1.07286 0.72675
 C2407 C 0.77449 1.08986 0.69131
 C2408 C 0.76867 1.07775 0.69734
 H2409 H 0.82595 1.08846 0.72419
 H2410 H 0.81580 1.06739 0.73473
 H2411 H 0.76859 1.09530 0.68330
 H2412 H 0.75846 1.07420 0.69380
 H2413 H 0.78778 1.11244 0.68143
 H2414 H 0.82462 1.10793 0.70743
 H2415 H 0.79672 1.04988 0.73630
 H2416 H 0.75998 1.05441 0.71028
 C2417 C 0.70348 0.58797 0.29663
 C2418 C 0.71072 0.59490 0.30733
 C2419 C 0.70468 0.60684 0.31343
 C2420 C 0.69149 0.61187 0.30890
 C2421 C 0.68444 0.60480 0.29807
 C2422 C 0.69037 0.59284 0.29192
 C2423 C 0.70969 0.57529 0.29031
 C2424 C 0.70239 0.56828 0.27970
 C2425 C 0.70824 0.55611 0.27387
 C2426 C 0.72127 0.55092 0.27863
 C2427 C 0.72851 0.55819 0.28920
 C2428 C 0.72275 0.57036 0.29510
 C2429 C 0.68341 0.58559 0.28123
 C2430 C 0.68932 0.57351 0.27522
 C2431 C 0.72383 0.58971 0.31176
 C2432 C 0.72974 0.57765 0.30574
 H2433 H 0.67329 0.58924 0.27750
 H2434 H 0.68357 0.56820 0.26704
 H2435 H 0.72953 0.59498 0.31999
 H2436 H 0.73984 0.57396 0.30951
 H2437 H 0.71031 0.61222 0.32163
 H2438 H 0.67425 0.60843 0.29453
 H2439 H 0.70251 0.55051 0.26587
 H2440 H 0.73864 0.55439 0.29280
 C2441 C 0.70358 1.08820 0.79716
 C2442 C 0.70977 1.09395 0.80911
 C2443 C 0.70387 1.10603 0.81509
 C2444 C 0.69189 1.11252 0.80914
 C2445 C 0.68596 1.10656 0.79701
 C2446 C 0.69169 1.09440 0.79107
 C2447 C 0.70963 1.07539 0.79095
 C2448 C 0.70329 1.06951 0.77912
 C2449 C 0.70895 1.05721 0.77338
 C2450 C 0.72095 1.05084 0.77930
 C2451 C 0.72725 1.05703 0.79108
 C2452 C 0.72158 1.06923 0.79700
 C2453 C 0.68569 1.08826 0.77918
 C2454 C 0.69137 1.07601 0.77333
 C2455 C 0.72175 1.08749 0.81486
 C2456 C 0.72757 1.07537 0.80888
 H2457 H 0.67649 1.09293 0.77438
 H2458 H 0.68638 1.07158 0.76420
 H2459 H 0.72666 1.09184 0.82406
 H2460 H 0.73680 1.07072 0.81365
 H2461 H 0.70878 1.11034 0.82428
 H2462 H 0.67674 1.11113 0.79220
 H2463 H 0.70386 1.05248 0.76446
 H2464 H 0.73662 1.05240 0.79561
 C2465 C 0.20445 0.58864 0.79716
 C2466 C 0.20929 0.59327 0.81016
 C2467 C 0.20333 0.60533 0.81609
 C2468 C 0.19260 0.61281 0.80912
 C2469 C 0.18793 0.60799 0.79604
 C2470 C 0.19380 0.59592 0.79003
 C2471 C 0.21060 0.57590 0.79092
 C2472 C 0.20567 0.57121 0.77797
 C2473 C 0.21142 0.55900 0.77216
 C2474 C 0.22203 0.55147 0.77922
 C2475 C 0.22693 0.55639 0.79215
 C2476 C 0.22122 0.56859 0.79807
 C2477 C 0.18921 0.59096 0.77705
 C2478 C 0.19504 0.57881 0.77112
 C2479 C 0.21995 0.58569 0.81699
 C2480 C 0.22582 0.57357 0.81104
 H2481 H 0.18100 0.59648 0.77143
 H2482 H 0.19115 0.57531 0.76111
 H2483 H 0.22379 0.58915 0.82703
 H2484 H 0.23400 0.56802 0.81667
 H2485 H 0.20702 0.60877 0.82617
 H2486 H 0.17979 0.61360 0.79045
 H2487 H 0.20772 0.55539 0.76212
 H2488 H 0.23496 0.55058 0.79773
 C2489 C 0.20445 1.08890 0.29733
 C2490 C 0.20860 1.09307 0.31072
 C2491 C 0.20277 1.10528 0.31649
 C2492 C 0.19278 1.11323 0.30901
 C2493 C 0.18873 1.10883 0.29560
 C2494 C 0.19457 1.09671 0.28970
 C2495 C 0.21058 1.07610 0.29119
 C2496 C 0.20646 1.07196 0.27778
 C2497 C 0.21225 1.05975 0.27201
 C2498 C 0.22204 1.05164 0.27958
 C2499 C 0.22609 1.05600 0.29301
 C2500 C 0.22040 1.06823 0.29885
 C2501 C 0.19073 1.09225 0.27630
 C2502 C 0.19660 1.08009 0.27043
 C2503 C 0.21847 1.08494 0.31806
 C2504 C 0.22426 1.07271 0.31224
 H2505 H 0.18314 1.09821 0.27029
 H2506 H 0.19335 1.07702 0.26007
 H2507 H 0.22174 1.08803 0.32841
 H2508 H 0.23182 1.06673 0.31826
 H2509 H 0.20588 1.10846 0.32686
 H2510 H 0.18120 1.11493 0.28966
 H2511 H 0.20923 1.05662 0.26160
 H2512 H 0.23347 1.04975 0.29899
 C2513 C 0.70467 0.41196 0.70351
 C2514 C 0.69394 0.40476 0.71055
 C2515 C 0.68808 0.39271 0.70451
 C2516 C 0.69285 0.38785 0.69148
 C2517 C 0.70367 0.39524 0.68460
 C2518 C 0.70961 0.40728 0.69057
 C2519 C 0.71080 0.42470 0.70976
 C2520 C 0.72149 0.43193 0.70268
 C2521 C 0.72716 0.44413 0.70861
 C2522 C 0.72215 0.44913 0.72147
 C2523 C 0.71148 0.44166 0.72846
 C2524 C 0.70576 0.42944 0.72265
 C2525 C 0.72035 0.41478 0.68381
 C2526 C 0.72620 0.42690 0.68977
 C2527 C 0.68925 0.40978 0.72348
 C2528 C 0.69506 0.42191 0.72943
 H2529 H 0.72426 0.41128 0.67381
 H2530 H 0.73443 0.43239 0.68419
 H2531 H 0.68098 0.40431 0.72903
 H2532 H 0.69109 0.42546 0.73939
 H2533 H 0.67988 0.38714 0.71002
 H2534 H 0.70742 0.39177 0.67455
 H2535 H 0.73525 0.44990 0.70308
 H2536 H 0.70769 0.44532 0.73845
 C2537 C 0.70506 -0.08830 0.20336
 C2538 C 0.69814 -0.09814 0.21183
 C2539 C 0.69212 -0.11007 0.20571
 C2540 C 0.69320 -0.11228 0.19126
 C2541 C 0.70028 -0.10236 0.18295
 C2542 C 0.70614 -0.09029 0.18893
 C2543 C 0.71125 -0.07565 0.20972
 C2544 C 0.71795 -0.06571 0.20122
 C2545 C 0.72365 -0.05361 0.20728
 C2546 C 0.72287 -0.05147 0.22178
 C2547 C 0.71623 -0.06168 0.23015
 C2548 C 0.71031 -0.07373 0.22416
 C2549 C 0.71299 -0.08014 0.18077
 C2550 C 0.71875 -0.06803 0.18680
 C2551 C 0.69739 -0.09584 0.22625
 C2552 C 0.70343 -0.08387 0.23231
 H2553 H 0.71386 -0.08154 0.16962
 H2554 H 0.72390 -0.06043 0.18013
 H2555 H 0.69212 -0.10336 0.23291
 H2556 H 0.70262 -0.08251 0.24348
 H2557 H 0.68682 -0.11772 0.21220
 H2558 H 0.70103 -0.10390 0.17181
 H2559 H 0.72848 -0.04575 0.20066
 H2560 H 0.71574 -0.06032 0.24133
 C2561 C 0.20444 0.41160 0.20214
 C2562 C 0.19382 0.40438 0.20931
 C2563 C 0.18793 0.39230 0.20336
 C2564 C 0.19257 0.38742 0.19029
 C2565 C 0.20326 0.39486 0.18326
 C2566 C 0.20923 0.40694 0.18914
 C2567 C 0.21063 0.42434 0.20833
 C2568 C 0.22123 0.43159 0.20114
 C2569 C 0.22699 0.44377 0.20702
 C2570 C 0.22216 0.44873 0.21997
 C2571 C 0.21157 0.44126 0.22707
 C2572 C 0.20576 0.42906 0.22129
 C2573 C 0.21988 0.41446 0.18226
 C2574 C 0.22578 0.42657 0.18816
 C2575 C 0.18928 0.40939 0.22230
 C2576 C 0.19514 0.42152 0.22819
 H2577 H 0.22367 0.41097 0.17222
 H2578 H 0.23395 0.43207 0.18250
 H2579 H 0.18109 0.40390 0.22795
 H2580 H 0.19130 0.42505 0.23820
 H2581 H 0.17982 0.38672 0.20899
 H2582 H 0.20692 0.39139 0.17318
 H2583 H 0.23502 0.44953 0.20141
 H2584 H 0.20791 0.44489 0.23712
 C2585 C 0.20486 -0.08838 0.70250
 C2586 C 0.19422 -0.09570 0.70955
 C2587 C 0.18839 -0.10773 0.70345
 C2588 C 0.19311 -0.11246 0.69036
 C2589 C 0.20383 -0.10495 0.68346
 C2590 C 0.20974 -0.09293 0.68949
 C2591 C 0.21099 -0.07570 0.70884
 C2592 C 0.22163 -0.06837 0.70178
 C2593 C 0.22735 -0.05625 0.70781
 C2594 C 0.22245 -0.05143 0.72078
 C2595 C 0.21181 -0.05897 0.72775
 C2596 C 0.20604 -0.07111 0.72182
 C2597 C 0.22042 -0.08533 0.68274
 C2598 C 0.22626 -0.07326 0.68878
 C2599 C 0.18960 -0.09083 0.72256
 C2600 C 0.19540 -0.07873 0.72859
 H2601 H 0.22429 -0.08874 0.67270
 H2602 H 0.23446 -0.06769 0.68321
 H2603 H 0.18140 -0.09639 0.72813
 H2604 H 0.19151 -0.07531 0.73862
 H2605 H 0.18027 -0.11340 0.70898
 H2606 H 0.20754 -0.10833 0.67337
 H2607 H 0.23540 -0.05042 0.70230
 H2608 H 0.20811 -0.05544 0.73782
 C2609 C 0.29535 0.29657 0.41213
 C2610 C 0.30598 0.28925 0.40506
 C2611 C 0.31193 0.29518 0.39306
 C2612 C 0.30735 0.30837 0.38812
 C2613 C 0.29663 0.31553 0.39538
 C2614 C 0.29060 0.30967 0.40737
 C2615 C 0.28913 0.29042 0.42480
 C2616 C 0.27852 0.29776 0.43191
 C2617 C 0.27276 0.29194 0.44405
 C2618 C 0.27759 0.27890 0.44911
 C2619 C 0.28817 0.27165 0.44177
 C2620 C 0.29397 0.27736 0.42962
 C2621 C 0.27994 0.31669 0.41474
 C2622 C 0.27400 0.31084 0.42679
 C2623 C 0.31047 0.27615 0.41014
 C2624 C 0.30458 0.27031 0.42222
 H2625 H 0.27617 0.32682 0.41117
 H2626 H 0.26583 0.31661 0.43218
 H2627 H 0.31866 0.27038 0.40477
 H2628 H 0.30839 0.26021 0.42582
 H2629 H 0.32005 0.28944 0.38759
 H2630 H 0.29302 0.32570 0.39185
 H2631 H 0.26473 0.29766 0.44971
 H2632 H 0.29181 0.26152 0.44548
 C2633 C 0.29626 0.79565 -0.08803
 C2634 C 0.30866 0.79004 -0.09370
 C2635 C 0.31433 0.79608 -0.10578
 C2636 C 0.30775 0.80772 -0.11212
 C2637 C 0.29531 0.81320 -0.10626
 C2638 C 0.28950 0.80717 -0.09425
 C2639 C 0.29029 0.78939 -0.07529
 C2640 C 0.27788 0.79499 -0.06964
 C2641 C 0.27231 0.78908 -0.05746
 C2642 C 0.27912 0.77774 -0.05083
 C2643 C 0.29153 0.77220 -0.05672
 C2644 C 0.29714 0.77798 -0.06896
 C2645 C 0.27707 0.81245 -0.08832
 C2646 C 0.27134 0.80645 -0.07624
 C2647 C 0.31518 0.77857 -0.08711
 C2648 C 0.30954 0.77265 -0.07494
 H2649 H 0.27173 0.82132 -0.09304
 H2650 H 0.26175 0.81086 -0.07198
 H2651 H 0.32476 0.77414 -0.09138
 H2652 H 0.31493 0.76385 -0.07017
 H2653 H 0.32397 0.79185 -0.11008
 H2654 H 0.29007 0.82204 -0.11111
 H2655 H 0.26263 0.79328 -0.05318
 H2656 H 0.29697 0.76360 -0.05164
 C2657 C 0.79658 0.29625 -0.08837
 C2658 C 0.80954 0.29134 -0.09340
 C2659 C 0.81531 0.29745 -0.10539
 C2660 C 0.80824 0.30845 -0.11235
 C2661 C 0.79521 0.31319 -0.10712
 C2662 C 0.78935 0.30714 -0.09515
 C2663 C 0.79050 0.28991 -0.07572
 C2664 C 0.77758 0.29490 -0.07065
 C2665 C 0.77191 0.28894 -0.05854
 C2666 C 0.77908 0.27810 -0.05148
 C2667 C 0.79200 0.27317 -0.05678
 C2668 C 0.79776 0.27906 -0.06889
 C2669 C 0.77641 0.31181 -0.08979
 C2670 C 0.77062 0.30578 -0.07775
 C2671 C 0.81647 0.28042 -0.08631
 C2672 C 0.81069 0.27439 -0.07427
 H2673 H 0.77072 0.32020 -0.09493
 H2674 H 0.76064 0.30972 -0.07394
 H2675 H 0.82648 0.27652 -0.09010
 H2676 H 0.81641 0.26602 -0.06910
 H2677 H 0.82526 0.29356 -0.10927
 H2678 H 0.78965 0.32168 -0.11223
 H2679 H 0.76187 0.29267 -0.05466
 H2680 H 0.79768 0.26496 -0.05134
 C2681 C 0.79640 0.79746 0.41291
 C2682 C 0.80720 0.79029 0.40594
 C2683 C 0.81317 0.79631 0.39400
 C2684 C 0.80841 0.80940 0.38899
 C2685 C 0.79759 0.81646 0.39620
 C2686 C 0.79154 0.81052 0.40814
 C2687 C 0.79005 0.79114 0.42544
 C2688 C 0.77923 0.79830 0.43242
 C2689 C 0.77328 0.79228 0.44437
 C2690 C 0.77811 0.77922 0.44936
 C2691 C 0.78892 0.77216 0.44217
 C2692 C 0.79493 0.77808 0.43021
 C2693 C 0.78071 0.81738 0.41541
 C2694 C 0.77465 0.81138 0.42734
 C2695 C 0.81178 0.77722 0.41101
 C2696 C 0.80575 0.77122 0.42294
 H2697 H 0.77686 0.82748 0.41184
 H2698 H 0.76633 0.81702 0.43263
 H2699 H 0.82011 0.77157 0.40572
 H2700 H 0.80961 0.76113 0.42652
 H2701 H 0.82138 0.79066 0.38856
 H2702 H 0.79387 0.82658 0.39260
 H2703 H 0.76508 0.79786 0.44993
 H2704 H 0.79258 0.76202 0.44582
 C2705 C 0.70553 0.29573 0.58800
 C2706 C 0.71020 0.30889 0.59261
 C2707 C 0.70419 0.31478 0.60458
 C2708 C 0.69357 0.30760 0.61197
 C2709 C 0.68908 0.29435 0.60717
 C2710 C 0.69500 0.28839 0.59520
 C2711 C 0.71173 0.28954 0.57535
 C2712 C 0.70696 0.27643 0.57068
 C2713 C 0.71277 0.27067 0.55857
 C2714 C 0.72325 0.27793 0.55112
 C2715 C 0.72799 0.29104 0.55602
 C2716 C 0.72223 0.29691 0.56812
 C2717 C 0.69057 0.27525 0.59025
 C2718 C 0.69645 0.26937 0.57820
 C2719 C 0.72075 0.31593 0.58511
 C2720 C 0.72667 0.31004 0.57308
 H2721 H 0.68246 0.26947 0.59572
 H2722 H 0.69269 0.25923 0.57471
 H2723 H 0.72445 0.32610 0.58856
 H2724 H 0.73475 0.31583 0.56759
 H2725 H 0.70773 0.32500 0.60800
 H2726 H 0.68104 0.28860 0.61273
 H2727 H 0.70919 0.26050 0.55497
 H2728 H 0.73593 0.29677 0.55026
 C2729 C 0.70590 0.79599 1.08739
 C2730 C 0.71057 0.80917 1.09194
 C2731 C 0.70439 0.81522 1.10375
 C2732 C 0.69362 0.80817 1.11105
 C2733 C 0.68912 0.79491 1.10629
 C2734 C 0.69521 0.78879 1.09448
 C2735 C 0.71229 0.78962 1.07492
 C2736 C 0.70752 0.77648 1.07032
 C2737 C 0.71348 0.77056 1.05836
 C2738 C 0.72412 0.77768 1.05099
 C2739 C 0.72888 0.79080 1.05584
 C2740 C 0.72296 0.79684 1.06779
 C2741 C 0.69079 0.77562 1.08961
 C2742 C 0.69684 0.76957 1.07772
 C2743 C 0.72130 0.81606 1.08455
 C2744 C 0.72740 0.81000 1.07269
 H2745 H 0.68254 0.76995 1.09500
 H2746 H 0.69308 0.75942 1.07428
 H2747 H 0.72500 0.82625 1.08795
 H2748 H 0.73562 0.81568 1.06728
 H2749 H 0.70795 0.82544 1.10714
 H2750 H 0.68095 0.78925 1.11176
 H2751 H 0.70990 0.76038 1.05480
 H2752 H 0.73695 0.79642 1.05015
 C2753 C 0.20476 0.29450 1.08734
 C2754 C 0.21210 0.30506 1.09445
 C2755 C 0.20610 0.31104 1.10638
 C2756 C 0.19282 0.30658 1.11120
 C2757 C 0.18564 0.29594 1.10390
 C2758 C 0.19156 0.28987 1.09198
 C2759 C 0.21099 0.28823 1.07475
 C2760 C 0.20363 0.27770 1.06760
 C2761 C 0.20953 0.27188 1.05554
 C2762 C 0.22267 0.27657 1.05061
 C2763 C 0.22994 0.28708 1.05798
 C2764 C 0.22415 0.29295 1.07005
 C2765 C 0.18452 0.27929 1.08456
 C2766 C 0.19045 0.27330 1.07258
 C2767 C 0.22529 0.30944 1.08948
 C2768 C 0.23121 0.30350 1.07748
 H2769 H 0.17433 0.27562 1.08804
 H2770 H 0.18466 0.26520 1.06716
 H2771 H 0.23107 0.31757 1.09488
 H2772 H 0.24137 0.30722 1.07397
 H2773 H 0.21186 0.31910 1.11188
 H2774 H 0.17539 0.29243 1.10734
 H2775 H 0.20378 0.26392 1.04985
 H2776 H 0.24014 0.29062 1.05436
 C2777 C 0.20580 0.79560 0.58659
 C2778 C 0.21046 0.80877 0.59119
 C2779 C 0.20443 0.81467 0.60314
 C2780 C 0.19381 0.80749 0.61052
 C2781 C 0.18934 0.79424 0.60574
 C2782 C 0.19527 0.78826 0.59378
 C2783 C 0.21201 0.78941 0.57394
 C2784 C 0.20725 0.77629 0.56929
 C2785 C 0.21304 0.77053 0.55716
 C2786 C 0.22351 0.77782 0.54970
 C2787 C 0.22825 0.79092 0.55460
 C2788 C 0.22250 0.79678 0.56671
 C2789 C 0.19086 0.77511 0.58885
 C2790 C 0.19674 0.76922 0.57681
 C2791 C 0.22101 0.81582 0.58369
 C2792 C 0.22693 0.80992 0.57166
 H2793 H 0.18275 0.76933 0.59432
 H2794 H 0.19300 0.75908 0.57333
 H2795 H 0.22470 0.82599 0.58713
 H2796 H 0.23501 0.81571 0.56617
 H2797 H 0.20796 0.82490 0.60656
 H2798 H 0.18129 0.78848 0.61130
 H2799 H 0.20947 0.76036 0.55357
 H2800 H 0.23617 0.79667 0.54884
 C2801 C 0.29549 0.70343 0.58716
 C2802 C 0.30604 0.71079 0.59429
 C2803 C 0.31191 0.70492 0.60636
 C2804 C 0.30735 0.69174 0.61131
 C2805 C 0.29672 0.68454 0.60399
 C2806 C 0.29076 0.69033 0.59193
 C2807 C 0.28934 0.70951 0.57441
 C2808 C 0.27883 0.70211 0.56725
 C2809 C 0.27312 0.70787 0.55504
 C2810 C 0.27791 0.72090 0.54996
 C2811 C 0.28840 0.72821 0.55735
 C2812 C 0.29416 0.72256 0.56957
 C2813 C 0.28019 0.68326 0.58450
 C2814 C 0.27432 0.68905 0.57237
 C2815 C 0.31052 0.72387 0.58918
 C2816 C 0.30468 0.72966 0.57703
 H2817 H 0.27643 0.67314 0.58808
 H2818 H 0.26622 0.68324 0.56695
 H2819 H 0.31864 0.72968 0.59460
 H2820 H 0.30847 0.73975 0.57342
 H2821 H 0.31997 0.71068 0.61188
 H2822 H 0.29312 0.67437 0.60752
 H2823 H 0.26518 0.70209 0.54935
 H2824 H 0.29201 0.73833 0.55363
 C2825 C 0.29738 0.20364 1.08750
 C2826 C 0.31057 0.20821 1.09223
 C2827 C 0.31636 0.20214 1.10424
 C2828 C 0.30905 0.19157 1.11156
 C2829 C 0.29579 0.18716 1.10663
 C2830 C 0.28993 0.19314 1.09462
 C2831 C 0.29128 0.20992 1.07483
 C2832 C 0.27813 0.20527 1.07006
 C2833 C 0.27245 0.21115 1.05791
 C2834 C 0.27983 0.22160 1.05053
 C2835 C 0.29296 0.22623 1.05554
 C2836 C 0.29875 0.22040 1.06768
 C2837 C 0.27675 0.18883 1.08957
 C2838 C 0.27095 0.19478 1.07749
 C2839 C 0.31772 0.21874 1.08481
 C2840 C 0.31191 0.22473 1.07275
 H2841 H 0.27088 0.18074 1.09498
 H2842 H 0.26079 0.19112 1.07392
 H2843 H 0.32791 0.22236 1.08835
 H2844 H 0.31779 0.23280 1.06733
 H2845 H 0.32660 0.20560 1.10776
 H2846 H 0.28994 0.17915 1.11213
 H2847 H 0.26225 0.20766 1.05424
 H2848 H 0.29879 0.23415 1.04985
 C2849 C 0.79619 0.70221 1.08882
 C2850 C 0.80770 0.70882 1.09519
 C2851 C 0.81346 0.70297 1.10732
 C2852 C 0.80776 0.69063 1.11313
 C2853 C 0.79616 0.68418 1.10661
 C2854 C 0.79037 0.68990 1.09442
 C2855 C 0.79016 0.70826 1.07600
 C2856 C 0.77873 0.70157 1.06955
 C2857 C 0.77313 0.70729 1.05728
 C2858 C 0.77884 0.71964 1.05148
 C2859 C 0.79024 0.72625 1.05819
 C2860 C 0.79597 0.72058 1.07041
 C2861 C 0.77891 0.68353 1.08769
 C2862 C 0.77320 0.68926 1.07546
 C2863 C 0.81321 0.72116 1.08930
 C2864 C 0.80743 0.72695 1.07714
 H2865 H 0.77433 0.67402 1.09190
 H2866 H 0.76439 0.68400 1.07058
 H2867 H 0.82208 0.72637 1.09413
 H2868 H 0.81201 0.73646 1.07293
 H2869 H 0.82228 0.70813 1.11228
 H2870 H 0.79176 0.67462 1.11087
 H2871 H 0.76449 0.70200 1.05212
 H2872 H 0.79458 0.73587 1.05396
 C2873 C 0.79556 0.20252 0.58824
 C2874 C 0.80614 0.20982 0.59539
 C2875 C 0.81206 0.20384 0.60738
 C2876 C 0.80752 0.19062 0.61224
 C2877 C 0.79686 0.18347 0.60489
 C2878 C 0.79085 0.18938 0.59290
 C2879 C 0.78935 0.20874 0.57558
 C2880 C 0.77880 0.20142 0.56839
 C2881 C 0.77304 0.20731 0.55627
 C2882 C 0.77782 0.22040 0.55131
 C2883 C 0.78834 0.22762 0.55873
 C2884 C 0.79415 0.22184 0.57086
 C2885 C 0.78025 0.18238 0.58545
 C2886 C 0.77432 0.18830 0.57340
 C2887 C 0.81060 0.22295 0.59039
 C2888 C 0.80472 0.22885 0.57833
 H2889 H 0.77651 0.17223 0.58894
 H2890 H 0.76620 0.18255 0.56795
 H2891 H 0.81875 0.22869 0.59583
 H2892 H 0.80850 0.23898 0.57480
 H2893 H 0.82013 0.20957 0.61291
 H2894 H 0.79329 0.17327 0.60837
 H2895 H 0.76506 0.20161 0.55054
 H2896 H 0.79195 0.23778 0.55510
 C2897 C 0.70521 0.70362 0.41153
 C2898 C 0.71027 0.69070 0.40660
 C2899 C 0.70426 0.68484 0.39461
 C2900 C 0.69324 0.69179 0.38755
 C2901 C 0.68836 0.70478 0.39267
 C2902 C 0.69430 0.71073 0.40464
 C2903 C 0.71141 0.70977 0.42420
 C2904 C 0.70627 0.72264 0.42918
 C2905 C 0.71209 0.72837 0.44131
 C2906 C 0.72293 0.72131 0.44849
 C2907 C 0.72804 0.70846 0.44327
 C2908 C 0.72229 0.70263 0.43113
 C2909 C 0.68949 0.72362 0.40991
 C2910 C 0.69538 0.72948 0.42197
 C2911 C 0.72121 0.68389 0.41379
 C2912 C 0.72712 0.68975 0.42584
 H2913 H 0.68107 0.72922 0.40469
 H2914 H 0.69133 0.73942 0.42570
 H2915 H 0.72522 0.67392 0.41009
 H2916 H 0.73550 0.68413 0.43109
 H2917 H 0.70824 0.67493 0.39079
 H2918 H 0.67984 0.71024 0.38749
 H2919 H 0.70822 0.73835 0.44513
 H2920 H 0.73626 0.70286 0.44879
 C2921 C 0.70468 0.20480 -0.08877
 C2922 C 0.71150 0.19341 -0.09513
 C2923 C 0.70566 0.18748 -0.10716
 C2924 C 0.69313 0.19291 -0.11288
 C2925 C 0.68648 0.20440 -0.10638
 C2926 C 0.69218 0.21035 -0.09430
 C2927 C 0.71071 0.21099 -0.07604
 C2928 C 0.70381 0.22229 -0.06961
 C2929 C 0.70951 0.22804 -0.05742
 C2930 C 0.72203 0.22258 -0.05168
 C2931 C 0.72886 0.21131 -0.05838
 C2932 C 0.72322 0.20545 -0.07053
 C2933 C 0.68561 0.22169 -0.08759
 C2934 C 0.69131 0.22755 -0.07545
 C2935 C 0.72403 0.18818 -0.08932
 C2936 C 0.72980 0.19411 -0.07723
 H2937 H 0.67595 0.22606 -0.09175
 H2938 H 0.68588 0.23626 -0.07058
 H2939 H 0.72942 0.17942 -0.09414
 H2940 H 0.73946 0.18974 -0.07308
 H2941 H 0.71097 0.17876 -0.11212
 H2942 H 0.67676 0.20859 -0.11057
 H2943 H 0.70407 0.23657 -0.05227
 H2944 H 0.73861 0.20717 -0.05420
 C2945 C 0.20439 0.70527 -0.08734
 C2946 C 0.21179 0.69475 -0.09447
 C2947 C 0.20586 0.68882 -0.10645
 C2948 C 0.19258 0.69329 -0.11132
 C2949 C 0.18534 0.70389 -0.10400
 C2950 C 0.19119 0.70992 -0.09202
 C2951 C 0.21055 0.71150 -0.07470
 C2952 C 0.20313 0.72200 -0.06754
 C2953 C 0.20897 0.72778 -0.05543
 C2954 C 0.22211 0.72307 -0.05046
 C2955 C 0.22944 0.71260 -0.05785
 C2956 C 0.22371 0.70677 -0.06997
 C2957 C 0.18409 0.72046 -0.08460
 C2958 C 0.18996 0.72640 -0.07257
 C2959 C 0.22498 0.69036 -0.08946
 C2960 C 0.23083 0.69627 -0.07741
 H2961 H 0.17390 0.72414 -0.08811
 H2962 H 0.18412 0.73449 -0.06714
 H2963 H 0.23080 0.68226 -0.09488
 H2964 H 0.24100 0.69255 -0.07387
 H2965 H 0.21166 0.68079 -0.11196
 H2966 H 0.17509 0.70741 -0.10747
 H2967 H 0.20319 0.73571 -0.04973
 H2968 H 0.23964 0.70906 -0.05421
 C2969 C 0.20475 0.20379 0.41249
 C2970 C 0.19318 0.21045 0.40622
 C2971 C 0.18715 0.20452 0.39429
 C2972 C 0.19266 0.19206 0.38857
 C2973 C 0.20431 0.18555 0.39499
 C2974 C 0.21037 0.19136 0.40698
 C2975 C 0.21107 0.20994 0.42510
 C2976 C 0.22256 0.20321 0.43146
 C2977 C 0.22841 0.20900 0.44356
 C2978 C 0.22286 0.22144 0.44929
 C2979 C 0.21142 0.22811 0.44265
 C2980 C 0.20545 0.22238 0.43060
 C2981 C 0.22190 0.18495 0.41360
 C2982 C 0.22788 0.19076 0.42564
 C2983 C 0.18788 0.22291 0.41201
 C2984 C 0.19393 0.22879 0.42398
 H2985 H 0.22632 0.17533 0.40946
 H2986 H 0.23674 0.18546 0.43044
 H2987 H 0.17896 0.22816 0.40727
 H2988 H 0.18950 0.23840 0.42813
 H2989 H 0.17830 0.20971 0.38938
 H2990 H 0.20857 0.17589 0.39081
 H2991 H 0.23708 0.20368 0.44865
 H2992 H 0.20722 0.23781 0.44682
 C2993 C 0.29524 0.41190 0.70447
 C2994 C 0.28787 0.40486 0.69393
 C2995 C 0.29382 0.39283 0.68790
 C2996 C 0.30707 0.38783 0.69231
 C2997 C 0.31427 0.39506 0.70296
 C2998 C 0.30840 0.40708 0.70906
 C2999 C 0.28907 0.42460 0.71078
 C3000 C 0.29645 0.43166 0.72130
 C3001 C 0.29059 0.44380 0.72719
 C3002 C 0.27747 0.44891 0.72257
 C3003 C 0.27019 0.44163 0.71204
 C3004 C 0.27594 0.42948 0.70611
 C3005 C 0.31547 0.41442 0.71963
 C3006 C 0.30959 0.42650 0.72565
 C3007 C 0.27473 0.41002 0.68958
 C3008 C 0.26887 0.42212 0.69556
 H3009 H 0.32564 0.41080 0.72327
 H3010 H 0.31540 0.43185 0.73375
 H3011 H 0.26893 0.40468 0.68146
 H3012 H 0.25872 0.42577 0.69188
 H3013 H 0.28806 0.38740 0.67983
 H3014 H 0.32449 0.39149 0.70644
 H3015 H 0.29636 0.44942 0.73514
 H3016 H 0.26002 0.44539 0.70853
 C3017 C 0.29478 0.91212 0.20475
 C3018 C 0.30325 0.90319 0.21284
 C3019 C 0.30922 0.89126 0.20668
 C3020 C 0.30670 0.88817 0.19257
 C3021 C 0.29808 0.89721 0.18465
 C3022 C 0.29215 0.90923 0.19068
 C3023 C 0.28861 0.92478 0.21113
 C3024 C 0.28030 0.93381 0.20300
 C3025 C 0.27463 0.94594 0.20906
 C3026 C 0.27713 0.94903 0.22319
 C3027 C 0.28539 0.93974 0.23121
 C3028 C 0.29121 0.92765 0.22521
 C3029 C 0.28371 0.91847 0.18290
 C3030 C 0.27791 0.93057 0.18895
 C3031 C 0.30558 0.90640 0.22691
 C3032 C 0.29964 0.91840 0.23300
 H3033 H 0.28161 0.91637 0.17202
 H3034 H 0.27151 0.93745 0.18256
 H3035 H 0.31208 0.89958 0.23326
 H3036 H 0.30173 0.92050 0.24388
 H3037 H 0.31569 0.88432 0.21293
 H3038 H 0.29617 0.89504 0.17376
 H3039 H 0.26849 0.95309 0.20271
 H3040 H 0.28721 0.94187 0.24213
 C3041 C 0.79427 0.41120 0.20408
 C3042 C 0.80506 0.40403 0.21109
 C3043 C 0.81101 0.39205 0.20498
 C3044 C 0.80628 0.38723 0.19193
 C3045 C 0.79539 0.39460 0.18509
 C3046 C 0.78936 0.40657 0.19112
 C3047 C 0.78804 0.42386 0.21041
 C3048 C 0.77728 0.43108 0.20338
 C3049 C 0.77151 0.44320 0.20938
 C3050 C 0.77650 0.44814 0.22228
 C3051 C 0.78723 0.44069 0.22922
 C3052 C 0.79305 0.42855 0.22333
 C3053 C 0.77854 0.41405 0.18441
 C3054 C 0.77260 0.42609 0.19044
 C3055 C 0.80973 0.40900 0.22404
 C3056 C 0.80383 0.42106 0.23006
 H3057 H 0.77465 0.41058 0.17439
 H3058 H 0.76431 0.43156 0.18490
 H3059 H 0.81805 0.40355 0.22956
 H3060 H 0.80777 0.42457 0.24004
 H3061 H 0.81927 0.38653 0.21048
 H3062 H 0.79165 0.39115 0.17503
 H3063 H 0.76338 0.44896 0.20389
 H3064 H 0.79100 0.44431 0.23924
 C3065 C 0.79396 0.91136 0.70393
 C3066 C 0.78918 0.90685 0.69087
 C3067 C 0.79527 0.89491 0.68480
 C3068 C 0.80608 0.88748 0.69169
 C3069 C 0.81067 0.89219 0.70484
 C3070 C 0.80467 0.90412 0.71098
 C3071 C 0.78768 0.92397 0.71031
 C3072 C 0.79256 0.92854 0.72332
 C3073 C 0.78670 0.94064 0.72926
 C3074 C 0.77606 0.94817 0.72227
 C3075 C 0.77119 0.94335 0.70928
 C3076 C 0.77700 0.93126 0.70324
 C3077 C 0.80921 0.90896 0.72403
 C3078 C 0.80326 0.92097 0.73009
 C3079 C 0.77844 0.91440 0.68412
 C3080 C 0.77245 0.92639 0.69020
 H3081 H 0.81747 0.90346 0.72958
 H3082 H 0.80710 0.92439 0.74014
 H3083 H 0.77465 0.91102 0.67404
 H3084 H 0.76422 0.93193 0.68463
 H3085 H 0.79163 0.89155 0.67467
 H3086 H 0.81887 0.88661 0.71037
 H3087 H 0.79038 0.94416 0.73934
 H3088 H 0.76312 0.94917 0.70376
 C3089 C 0.70284 0.58890 0.70411
 C3090 C 0.68965 0.59373 0.70862
 C3091 C 0.68383 0.60577 0.70245
 C3092 C 0.69109 0.61300 0.69183
 C3093 C 0.70436 0.60798 0.68751
 C3094 C 0.71026 0.59594 0.69359
 C3095 C 0.70895 0.57618 0.71048
 C3096 C 0.72209 0.57129 0.70590
 C3097 C 0.72779 0.55911 0.71188
 C3098 C 0.72044 0.55181 0.72235
 C3099 C 0.70731 0.55693 0.72690
 C3100 C 0.70150 0.56911 0.72097
 C3101 C 0.72343 0.59077 0.68934
 C3102 C 0.72924 0.57866 0.69539
 C3103 C 0.68253 0.58639 0.71917
 C3104 C 0.68835 0.57429 0.72524
 H3105 H 0.72927 0.59612 0.68124
 H3106 H 0.73940 0.57500 0.69177
 H3107 H 0.67235 0.59002 0.72274
 H3108 H 0.68250 0.56893 0.73332
 H3109 H 0.67361 0.60936 0.70588
 H3110 H 0.71017 0.61341 0.67947
 H3111 H 0.73799 0.55536 0.70844
 H3112 H 0.70149 0.55130 0.73483
 C3113 C 0.70490 0.08844 0.20340
 C3114 C 0.70958 0.09298 0.19030
 C3115 C 0.70358 0.10502 0.18432
 C3116 C 0.69294 0.11254 0.19133
 C3117 C 0.68841 0.10782 0.20450
 C3118 C 0.69434 0.09578 0.21057
 C3119 C 0.71110 0.07572 0.20968
 C3120 C 0.70634 0.07113 0.22274
 C3121 C 0.71216 0.05894 0.22859
 C3122 C 0.72264 0.05133 0.22147
 C3123 C 0.72736 0.05617 0.20842
 C3124 C 0.72161 0.06835 0.20247
 C3125 C 0.68992 0.09090 0.22366
 C3126 C 0.69581 0.07879 0.22964
 C3127 C 0.72014 0.08535 0.18342
 C3128 C 0.72605 0.07324 0.18940
 H3129 H 0.68179 0.09648 0.22931
 H3130 H 0.69206 0.07537 0.23973
 H3131 H 0.72386 0.08874 0.17330
 H3132 H 0.73415 0.06764 0.18372
 H3133 H 0.70713 0.10838 0.17416
 H3134 H 0.68035 0.11350 0.21011
 H3135 H 0.70859 0.05542 0.23872
 H3136 H 0.73528 0.05030 0.20278
 C3137 C 0.20307 0.58855 0.20304
 C3138 C 0.19026 0.59374 0.20816
 C3139 C 0.18441 0.60584 0.20216
 C3140 C 0.19125 0.61272 0.19107
 C3141 C 0.20412 0.60734 0.18608
 C3142 C 0.21008 0.59527 0.19204
 C3143 C 0.20923 0.57578 0.20927
 C3144 C 0.22202 0.57056 0.20412
 C3145 C 0.22777 0.55836 0.20999
 C3146 C 0.22078 0.55132 0.22089
 C3147 C 0.20798 0.55676 0.22597
 C3148 C 0.20216 0.56899 0.22019
 C3149 C 0.22290 0.58977 0.18722
 C3150 C 0.22878 0.57763 0.19316
 C3151 C 0.18351 0.58668 0.21914
 C3152 C 0.18936 0.57451 0.22504
 H3153 H 0.22843 0.59487 0.17875
 H3154 H 0.23867 0.57372 0.18910
 H3155 H 0.17361 0.59058 0.22317
 H3156 H 0.18379 0.56937 0.23346
 H3157 H 0.17445 0.60974 0.20602
 H3158 H 0.20958 0.61258 0.17766
 H3159 H 0.23772 0.55437 0.20614
 H3160 H 0.20243 0.55134 0.23422
 C3161 C 0.20346 0.08828 0.70418
 C3162 C 0.19034 0.09316 0.70881
 C3163 C 0.18450 0.10521 0.70269
 C3164 C 0.19167 0.11240 0.69199
 C3165 C 0.20488 0.10733 0.68755
 C3166 C 0.21080 0.09528 0.69359
 C3167 C 0.20963 0.07558 0.71056
 C3168 C 0.22271 0.07064 0.70584
 C3169 C 0.22839 0.05841 0.71173
 C3170 C 0.22109 0.05112 0.72226
 C3171 C 0.20805 0.05632 0.72696
 C3172 C 0.20226 0.06854 0.72113
 C3173 C 0.22391 0.09008 0.68922
 C3174 C 0.22977 0.07796 0.69524
 C3175 C 0.18330 0.08585 0.71944
 C3176 C 0.18916 0.07376 0.72550
 H3177 H 0.22970 0.09541 0.68108
 H3178 H 0.23987 0.07426 0.69151
 H3179 H 0.17318 0.08952 0.72314
 H3180 H 0.18336 0.06841 0.73362
 H3181 H 0.17426 0.10878 0.70612
 H3182 H 0.21059 0.11267 0.67936
 H3183 H 0.23851 0.05459 0.70816
 H3184 H 0.20225 0.05068 0.73491
 C3185 C 0.29622 0.58782 0.29457
 C3186 C 0.28895 0.59483 0.30520
 C3187 C 0.29499 0.60676 0.31128
 C3188 C 0.30823 0.61172 0.30684
 C3189 C 0.31535 0.60450 0.29614
 C3190 C 0.30939 0.59256 0.28997
 C3191 C 0.28994 0.57523 0.28818
 C3192 C 0.29723 0.56818 0.27757
 C3193 C 0.29127 0.55614 0.27162
 C3194 C 0.27815 0.55110 0.27626
 C3195 C 0.27095 0.55837 0.28686
 C3196 C 0.27680 0.57043 0.29285
 C3197 C 0.31636 0.58525 0.27932
 C3198 C 0.31038 0.57327 0.27322
 C3199 C 0.27579 0.58975 0.30955
 C3200 C 0.26982 0.57776 0.30348
 H3201 H 0.32654 0.58879 0.27567
 H3202 H 0.31612 0.56793 0.26506
 H3203 H 0.27007 0.59507 0.31774
 H3204 H 0.25967 0.57417 0.30718
 H3205 H 0.28928 0.61219 0.31940
 H3206 H 0.32557 0.60804 0.29264
 H3207 H 0.29696 0.55052 0.26360
 H3208 H 0.26077 0.55468 0.29037
 C3209 C 0.29611 0.08799 0.79475
 C3210 C 0.30924 0.09279 0.79008
 C3211 C 0.31519 0.10474 0.79622
 C3212 C 0.30812 0.11190 0.80700
 C3213 C 0.29489 0.10692 0.81145
 C3214 C 0.28886 0.09499 0.80540
 C3215 C 0.28989 0.07532 0.78847
 C3216 C 0.27683 0.07045 0.79327
 C3217 C 0.27106 0.05828 0.78742
 C3218 C 0.27827 0.05096 0.77688
 C3219 C 0.29131 0.05609 0.77210
 C3220 C 0.29718 0.06825 0.77789
 C3221 C 0.27576 0.08985 0.80985
 C3222 C 0.26984 0.07779 0.80388
 C3223 C 0.31620 0.08547 0.77941
 C3224 C 0.31027 0.07341 0.77342
 H3225 H 0.27005 0.09517 0.81805
 H3226 H 0.25975 0.07414 0.80766
 H3227 H 0.32633 0.08907 0.77570
 H3228 H 0.31601 0.06806 0.76526
 H3229 H 0.32535 0.10833 0.79262
 H3230 H 0.28922 0.11223 0.81966
 H3231 H 0.26093 0.05453 0.79104
 H3232 H 0.29701 0.05044 0.76410
 C3233 C 0.79575 0.58866 0.79558
 C3234 C 0.78847 0.59592 0.80603
 C3235 C 0.79459 0.60788 0.81198
 C3236 C 0.80793 0.61260 0.80758
 C3237 C 0.81505 0.60516 0.79703
 C3238 C 0.80901 0.59319 0.79101
 C3239 C 0.78940 0.57601 0.78936
 C3240 C 0.79671 0.56870 0.77895
 C3241 C 0.79069 0.55660 0.77318
 C3242 C 0.77748 0.55177 0.77780
 C3243 C 0.77026 0.55931 0.78820
 C3244 C 0.77619 0.57143 0.79402
 C3245 C 0.81599 0.58562 0.78054
 C3246 C 0.80995 0.57359 0.77461
 C3247 C 0.77522 0.59105 0.81036
 C3248 C 0.76919 0.57901 0.80446
 H3249 H 0.82623 0.58901 0.77691
 H3250 H 0.81570 0.56804 0.76660
 H3251 H 0.76949 0.59657 0.81841
 H3252 H 0.75898 0.57558 0.80814
 H3253 H 0.78888 0.61349 0.81997
 H3254 H 0.82535 0.60853 0.79358
 H3255 H 0.79640 0.55078 0.76532
 H3256 H 0.76002 0.55579 0.79170
 C3257 C 0.79472 0.08854 0.29625
 C3258 C 0.80495 0.09606 0.28882
 C3259 C 0.81088 0.10810 0.29477
 C3260 C 0.80669 0.11266 0.30809
 C3261 C 0.79636 0.10496 0.31536
 C3262 C 0.79035 0.09290 0.30949
 C3263 C 0.78853 0.07579 0.29007
 C3264 C 0.77835 0.06822 0.29754
 C3265 C 0.77264 0.05600 0.29170
 C3266 C 0.77710 0.05132 0.27851
 C3267 C 0.78723 0.05915 0.27113
 C3268 C 0.79300 0.07137 0.27688
 C3269 C 0.78010 0.08508 0.31662
 C3270 C 0.77420 0.07295 0.31075
 C3271 C 0.80908 0.09135 0.27559
 C3272 C 0.80320 0.07921 0.26972
 H3273 H 0.77663 0.08834 0.32685
 H3274 H 0.76636 0.06720 0.31662
 H3275 H 0.81696 0.09706 0.26974
 H3276 H 0.80673 0.07591 0.25952
 H3277 H 0.81870 0.11391 0.28895
 H3278 H 0.79305 0.10820 0.32564
 H3279 H 0.76498 0.04997 0.29752
 H3280 H 0.79058 0.05575 0.26090
 C3281 C 0.70488 0.41088 0.29787
 C3282 C 0.69399 0.40390 0.29087
 C3283 C 0.68796 0.39193 0.29691
 C3284 C 0.69269 0.38691 0.30992
 C3285 C 0.70373 0.39403 0.31673
 C3286 C 0.70984 0.40601 0.31076
 C3287 C 0.71111 0.42359 0.29165
 C3288 C 0.72194 0.43064 0.29871
 C3289 C 0.72768 0.44285 0.29284
 C3290 C 0.72261 0.44804 0.28004
 C3291 C 0.71183 0.44074 0.27306
 C3292 C 0.70603 0.42853 0.27883
 C3293 C 0.72075 0.41330 0.31747
 C3294 C 0.72669 0.42541 0.31155
 C3295 C 0.68927 0.40909 0.27799
 C3296 C 0.69519 0.42120 0.27208
 H3297 H 0.72469 0.40966 0.32742
 H3298 H 0.73504 0.43074 0.31710
 H3299 H 0.68088 0.40379 0.27247
 H3300 H 0.69119 0.42490 0.26216
 H3301 H 0.67955 0.38664 0.29145
 H3302 H 0.70757 0.39039 0.32670
 H3303 H 0.73586 0.44848 0.29836
 H3304 H 0.70801 0.44455 0.26312
 C3305 C 0.70373 0.91106 0.79799
 C3306 C 0.69301 0.90393 0.79088
 C3307 C 0.68710 0.89186 0.79687
 C3308 C 0.69182 0.88688 0.80989
 C3309 C 0.70262 0.89423 0.81685
 C3310 C 0.70861 0.90629 0.81094
 C3311 C 0.70995 0.92378 0.79176
 C3312 C 0.72066 0.93093 0.79888
 C3313 C 0.72646 0.94309 0.79297
 C3314 C 0.72156 0.94814 0.78005
 C3315 C 0.71086 0.94077 0.77303
 C3316 C 0.70501 0.92859 0.77884
 C3317 C 0.71936 0.91372 0.81775
 C3318 C 0.72529 0.92582 0.81182
 C3319 C 0.68839 0.90903 0.77794
 C3320 C 0.69428 0.92116 0.77202
 H3321 H 0.72322 0.91015 0.82776
 H3322 H 0.73354 0.93124 0.81743
 H3323 H 0.68012 0.90362 0.77234
 H3324 H 0.69039 0.92475 0.76203
 H3325 H 0.67890 0.88636 0.79129
 H3326 H 0.70635 0.89068 0.82689
 H3327 H 0.73457 0.94878 0.79853
 H3328 H 0.70715 0.94446 0.76300
 C3329 C 0.20323 0.41143 0.79572
 C3330 C 0.19000 0.40667 0.79129
 C3331 C 0.18427 0.39456 0.79737
 C3332 C 0.19166 0.38721 0.80782
 C3333 C 0.20497 0.39215 0.81207
 C3334 C 0.21078 0.40425 0.80607
 C3335 C 0.20927 0.42422 0.78945
 C3336 C 0.22245 0.42903 0.79398
 C3337 C 0.22806 0.44128 0.78812
 C3338 C 0.22059 0.44873 0.77782
 C3339 C 0.20742 0.44368 0.77331
 C3340 C 0.20170 0.43144 0.77913
 C3341 C 0.22399 0.40934 0.81026
 C3342 C 0.22972 0.42152 0.80432
 C3343 C 0.18275 0.41416 0.78091
 C3344 C 0.18850 0.42633 0.77493
 H3345 H 0.22993 0.40388 0.81824
 H3346 H 0.23991 0.42512 0.80789
 H3347 H 0.17253 0.41061 0.77740
 H3348 H 0.18254 0.43181 0.76699
 H3349 H 0.17399 0.39102 0.79403
 H3350 H 0.21089 0.38660 0.81997
 H3351 H 0.23828 0.44499 0.79152
 H3352 H 0.20153 0.44944 0.76551
 C3353 C 0.20512 0.91138 0.29723
 C3354 C 0.19807 0.90173 0.28870
 C3355 C 0.19196 0.88979 0.29472
 C3356 C 0.19291 0.88742 0.30917
 C3357 C 0.20017 0.89715 0.31754
 C3358 C 0.20623 0.90918 0.31164
 C3359 C 0.21135 0.92409 0.29099
 C3360 C 0.21821 0.93384 0.29957
 C3361 C 0.22389 0.94603 0.29362
 C3362 C 0.22284 0.94848 0.27919
 C3363 C 0.21605 0.93847 0.27073
 C3364 C 0.21023 0.92630 0.27659
 C3365 C 0.21327 0.91913 0.31986
 C3366 C 0.21913 0.93127 0.31393
 C3367 C 0.19722 0.90427 0.27431
 C3368 C 0.20322 0.91633 0.26836
 H3369 H 0.21419 0.91756 0.33099
 H3370 H 0.22440 0.93871 0.32066
 H3371 H 0.19183 0.89690 0.26760
 H3372 H 0.20228 0.91791 0.25723
 H3373 H 0.18654 0.88232 0.28814
 H3374 H 0.20087 0.89556 0.32867
 H3375 H 0.22887 0.95374 0.30028
 H3376 H 0.21536 0.94012 0.25960
 C3377 C 0.41163 0.29650 0.70492
 C3378 C 0.40675 0.30962 0.70946
 C3379 C 0.39460 0.31536 0.70341
 C3380 C 0.38731 0.30808 0.69286
 C3381 C 0.39236 0.29485 0.68853
 C3382 C 0.40451 0.28904 0.69450
 C3383 C 0.42448 0.29048 0.71114
 C3384 C 0.42942 0.27741 0.70650
 C3385 C 0.44173 0.27180 0.71234
 C3386 C 0.44909 0.27918 0.72273
 C3387 C 0.44393 0.29224 0.72733
 C3388 C 0.43163 0.29796 0.72154
 C3389 C 0.40973 0.27594 0.69019
 C3390 C 0.42198 0.27023 0.69609
 C3391 C 0.41418 0.31678 0.71991
 C3392 C 0.42640 0.31105 0.72585
 H3393 H 0.40433 0.27008 0.68217
 H3394 H 0.42568 0.26012 0.69244
 H3395 H 0.41052 0.32692 0.72351
 H3396 H 0.43182 0.31692 0.73386
 H3397 H 0.39099 0.32556 0.70684
 H3398 H 0.38688 0.28902 0.68055
 H3399 H 0.44554 0.26167 0.70886
 H3400 H 0.44962 0.29807 0.73520
 C3401 C 0.41173 0.79712 0.20462
 C3402 C 0.40685 0.81021 0.20926
 C3403 C 0.39473 0.81602 0.20322
 C3404 C 0.38747 0.80885 0.19259
 C3405 C 0.39252 0.79567 0.18814
 C3406 C 0.40465 0.78978 0.19410
 C3407 C 0.42457 0.79103 0.21082
 C3408 C 0.42951 0.77800 0.20609
 C3409 C 0.44180 0.77233 0.21190
 C3410 C 0.44915 0.77961 0.22238
 C3411 C 0.44397 0.79263 0.22707
 C3412 C 0.43169 0.79840 0.22131
 C3413 C 0.40986 0.77671 0.18970
 C3414 C 0.42208 0.77092 0.19559
 C3415 C 0.41425 0.81726 0.21981
 C3416 C 0.42646 0.81145 0.22573
 H3417 H 0.40448 0.77093 0.18159
 H3418 H 0.42578 0.76085 0.19185
 H3419 H 0.41059 0.82736 0.22349
 H3420 H 0.43186 0.81725 0.23381
 H3421 H 0.39110 0.82618 0.20674
 H3422 H 0.38705 0.78992 0.18010
 H3423 H 0.44560 0.76222 0.20835
 H3424 H 0.44965 0.79839 0.23501
 C3425 C 0.91152 0.29637 0.20399
 C3426 C 0.90453 0.28904 0.19340
 C3427 C 0.89248 0.29496 0.18731
 C3428 C 0.88740 0.30815 0.19172
 C3429 C 0.89459 0.31532 0.20240
 C3430 C 0.90664 0.30948 0.20857
 C3431 C 0.92425 0.29023 0.21037
 C3432 C 0.93128 0.29758 0.22093
 C3433 C 0.94346 0.29176 0.22685
 C3434 C 0.94863 0.27870 0.22223
 C3435 C 0.94137 0.27143 0.21169
 C3436 C 0.92918 0.27716 0.20571
 C3437 C 0.91394 0.31651 0.21918
 C3438 C 0.92605 0.31066 0.22526
 C3439 C 0.90974 0.27594 0.18908
 C3440 C 0.92185 0.27010 0.19513
 H3441 H 0.91029 0.32664 0.22281
 H3442 H 0.93138 0.31645 0.23339
 H3443 H 0.90443 0.27017 0.18092
 H3444 H 0.92555 0.26000 0.19146
 H3445 H 0.88706 0.28922 0.17922
 H3446 H 0.89095 0.32550 0.20587
 H3447 H 0.94907 0.29750 0.23483
 H3448 H 0.94516 0.26130 0.20820
 C3449 C 0.91153 0.79681 0.70404
 C3450 C 0.90670 0.80996 0.70857
 C3451 C 0.89456 0.81574 0.70250
 C3452 C 0.88726 0.80846 0.69197
 C3453 C 0.89228 0.79524 0.68763
 C3454 C 0.90440 0.78938 0.69361
 C3455 C 0.92435 0.79074 0.71028
 C3456 C 0.92923 0.77764 0.70566
 C3457 C 0.94152 0.77200 0.71149
 C3458 C 0.94894 0.77936 0.72186
 C3459 C 0.94381 0.79244 0.72646
 C3460 C 0.93153 0.79820 0.72068
 C3461 C 0.90956 0.77625 0.68933
 C3462 C 0.92177 0.77048 0.69525
 C3463 C 0.91414 0.81709 0.71902
 C3464 C 0.92634 0.81131 0.72498
 H3465 H 0.90414 0.77041 0.68129
 H3466 H 0.92542 0.76036 0.69161
 H3467 H 0.91052 0.82725 0.72262
 H3468 H 0.93178 0.81717 0.73299
 H3469 H 0.89096 0.82595 0.70592
 H3470 H 0.88677 0.78941 0.67966
 H3471 H 0.94528 0.76184 0.70802
 H3472 H 0.94954 0.79826 0.73432
 C3473 C 0.58864 0.29459 0.29724
 C3474 C 0.59378 0.28933 0.30991
 C3475 C 0.60588 0.29532 0.31578
 C3476 C 0.61280 0.30654 0.30909
 C3477 C 0.60746 0.31167 0.29637
 C3478 C 0.59540 0.30573 0.29040
 C3479 C 0.57590 0.28836 0.29105
 C3480 C 0.57076 0.29366 0.27839
 C3481 C 0.55858 0.28778 0.27260
 C3482 C 0.55150 0.27675 0.27941
 C3483 C 0.55687 0.27151 0.29207
 C3484 C 0.56907 0.27729 0.29793
 C3485 C 0.58997 0.31070 0.27771
 C3486 C 0.57786 0.30475 0.27180
 C3487 C 0.58668 0.27821 0.31648
 C3488 C 0.57453 0.27230 0.31060
 H3489 H 0.59511 0.31927 0.27232
 H3490 H 0.57400 0.30892 0.26202
 H3491 H 0.59053 0.27406 0.32627
 H3492 H 0.56936 0.26377 0.31603
 H3493 H 0.60976 0.29134 0.32562
 H3494 H 0.61272 0.32018 0.29102
 H3495 H 0.55466 0.29175 0.26275
 H3496 H 0.55141 0.26315 0.29748
 C3497 C 0.58776 0.79462 0.79732
 C3498 C 0.59251 0.78969 0.81026
 C3499 C 0.60461 0.79561 0.81618
 C3500 C 0.61199 0.80642 0.80927
 C3501 C 0.60704 0.81118 0.79624
 C3502 C 0.59494 0.80533 0.79024
 C3503 C 0.57496 0.78852 0.79111
 C3504 C 0.57014 0.79354 0.77822
 C3505 C 0.55787 0.78784 0.77244
 C3506 C 0.55042 0.77719 0.77946
 C3507 C 0.55549 0.77218 0.79233
 C3508 C 0.56774 0.77784 0.79822
 C3509 C 0.58984 0.81002 0.77732
 C3510 C 0.57765 0.80423 0.77141
 C3511 C 0.58503 0.77896 0.81704
 C3512 C 0.57286 0.77313 0.81112
 H3513 H 0.59530 0.81827 0.77174
 H3514 H 0.57405 0.80819 0.76145
 H3515 H 0.58859 0.77505 0.82703
 H3516 H 0.56738 0.76491 0.81672
 H3517 H 0.60813 0.79185 0.82622
 H3518 H 0.61258 0.81937 0.79070
 H3519 H 0.55416 0.79162 0.76245
 H3520 H 0.54973 0.76411 0.79789
 C3521 C 0.08781 0.29487 0.79725
 C3522 C 0.09249 0.29017 0.81030
 C3523 C 0.10457 0.29618 0.81617
 C3524 C 0.11200 0.30684 0.80909
 C3525 C 0.10711 0.31137 0.79597
 C3526 C 0.09503 0.30545 0.79002
 C3527 C 0.07505 0.28866 0.79108
 C3528 C 0.07031 0.29346 0.77807
 C3529 C 0.05809 0.28763 0.77232
 C3530 C 0.05061 0.27709 0.77947
 C3531 C 0.05559 0.27233 0.79246
 C3532 C 0.06779 0.27811 0.79833
 C3533 C 0.09001 0.30991 0.77699
 C3534 C 0.07786 0.30402 0.77112
 C3535 C 0.08496 0.27957 0.81724
 C3536 C 0.07282 0.27364 0.81135
 H3537 H 0.09550 0.31806 0.77130
 H3538 H 0.07431 0.30780 0.76107
 H3539 H 0.08846 0.27584 0.82731
 H3540 H 0.06732 0.26552 0.81706
 H3541 H 0.10805 0.29260 0.82629
 H3542 H 0.11269 0.31945 0.79029
 H3543 H 0.05444 0.29123 0.76224
 H3544 H 0.04981 0.26435 0.79812
 C3545 C 0.08883 0.79521 0.29548
 C3546 C 0.09390 0.78994 0.30817
 C3547 C 0.10602 0.79586 0.31406
 C3548 C 0.11304 0.80702 0.30737
 C3549 C 0.10778 0.81215 0.29462
 C3550 C 0.09569 0.80628 0.28863
 C3551 C 0.07604 0.78909 0.28927
 C3552 C 0.07095 0.79442 0.27661
 C3553 C 0.05870 0.78870 0.27084
 C3554 C 0.05147 0.77778 0.27768
 C3555 C 0.05681 0.77247 0.29033
 C3556 C 0.06909 0.77811 0.29618
 C3557 C 0.09033 0.81128 0.27593
 C3558 C 0.07817 0.80544 0.27001
 C3559 C 0.08669 0.77889 0.31474
 C3560 C 0.07449 0.77308 0.30885
 H3561 H 0.09554 0.81980 0.27053
 H3562 H 0.07435 0.80963 0.26023
 H3563 H 0.09049 0.77472 0.32454
 H3564 H 0.06923 0.76461 0.31429
 H3565 H 0.10984 0.79188 0.32392
 H3566 H 0.11311 0.82062 0.28926
 H3567 H 0.05480 0.79270 0.26100
 H3568 H 0.05124 0.76419 0.29576
 C3569 C 0.58765 0.70581 0.70380
 C3570 C 0.59230 0.71065 0.69080
 C3571 C 0.60435 0.70466 0.68483
 C3572 C 0.61177 0.69388 0.69176
 C3573 C 0.60693 0.68921 0.70484
 C3574 C 0.59488 0.69512 0.71089
 C3575 C 0.57490 0.71198 0.71007
 C3576 C 0.57019 0.70703 0.72302
 C3577 C 0.55796 0.71281 0.72885
 C3578 C 0.55046 0.72344 0.72182
 C3579 C 0.55543 0.72836 0.70889
 C3580 C 0.56763 0.72263 0.70295
 C3581 C 0.58989 0.69052 0.72388
 C3582 C 0.57775 0.69637 0.72984
 C3583 C 0.58475 0.72135 0.68400
 C3584 C 0.57263 0.72724 0.68997
 H3585 H 0.59539 0.68228 0.72946
 H3586 H 0.57423 0.69248 0.73984
 H3587 H 0.58823 0.72518 0.67396
 H3588 H 0.56711 0.73544 0.68437
 H3589 H 0.60780 0.70833 0.67473
 H3590 H 0.61253 0.68104 0.71040
 H3591 H 0.55432 0.70909 0.73888
 H3592 H 0.54963 0.73641 0.70333
 C3593 C 0.58867 0.20465 0.20345
 C3594 C 0.59325 0.20952 0.19043
 C3595 C 0.60524 0.20350 0.18436
 C3596 C 0.61268 0.19268 0.19120
 C3597 C 0.60792 0.18799 0.20431
 C3598 C 0.59593 0.19392 0.21046
 C3599 C 0.57599 0.21085 0.20983
 C3600 C 0.57136 0.20589 0.22280
 C3601 C 0.55919 0.21169 0.22874
 C3602 C 0.55166 0.22235 0.22178
 C3603 C 0.55655 0.22728 0.20883
 C3604 C 0.56869 0.22154 0.20279
 C3605 C 0.59102 0.18931 0.22348
 C3606 C 0.57894 0.19519 0.22954
 C3607 C 0.58569 0.22026 0.18372
 C3608 C 0.57363 0.22617 0.18979
 H3609 H 0.59653 0.18104 0.22900
 H3610 H 0.57548 0.19128 0.23956
 H3611 H 0.58911 0.22412 0.17367
 H3612 H 0.56809 0.23441 0.18425
 H3613 H 0.60864 0.20720 0.17425
 H3614 H 0.61353 0.17979 0.20981
 H3615 H 0.55562 0.20796 0.23879
 H3616 H 0.55073 0.23536 0.20332
 C3617 C 0.08836 0.70630 0.20271
 C3618 C 0.09344 0.71138 0.18995
 C3619 C 0.10564 0.70542 0.18422
 C3620 C 0.11274 0.69444 0.19115
 C3621 C 0.10744 0.68950 0.20395
 C3622 C 0.09528 0.69539 0.20977
 C3623 C 0.07554 0.71250 0.20879
 C3624 C 0.07046 0.70738 0.22153
 C3625 C 0.05822 0.71322 0.22722
 C3626 C 0.05100 0.72408 0.22023
 C3627 C 0.05630 0.72915 0.20748
 C3628 C 0.06856 0.72338 0.20171
 C3629 C 0.08991 0.69058 0.22253
 C3630 C 0.07771 0.69648 0.22832
 C3631 C 0.08618 0.72229 0.18317
 C3632 C 0.07395 0.72818 0.18895
 H3633 H 0.09517 0.68217 0.22809
 H3634 H 0.07390 0.69245 0.23817
 H3635 H 0.08997 0.72631 0.17331
 H3636 H 0.06867 0.73656 0.18337
 H3637 H 0.10949 0.70927 0.17432
 H3638 H 0.11282 0.68118 0.20951
 H3639 H 0.05434 0.70939 0.23712
 H3640 H 0.05074 0.73738 0.20195
 C3641 C 0.08813 0.20506 0.70409
 C3642 C 0.09271 0.20985 0.69105
 C3643 C 0.10476 0.20385 0.68507
 C3644 C 0.11225 0.19314 0.69204
 C3645 C 0.10748 0.18854 0.70517
 C3646 C 0.09543 0.19444 0.71121
 C3647 C 0.07544 0.21128 0.71041
 C3648 C 0.07080 0.20639 0.72340
 C3649 C 0.05857 0.21213 0.72923
 C3650 C 0.05099 0.22268 0.72217
 C3651 C 0.05587 0.22755 0.70919
 C3652 C 0.06809 0.22187 0.70325
 C3653 C 0.09052 0.18990 0.72424
 C3654 C 0.07841 0.19576 0.73024
 C3655 C 0.08509 0.22048 0.68421
 C3656 C 0.07300 0.22639 0.69022
 H3657 H 0.09608 0.18172 0.72984
 H3658 H 0.07493 0.19188 0.74026
 H3659 H 0.08851 0.22428 0.67414
 H3660 H 0.06739 0.23453 0.68457
 H3661 H 0.10811 0.20740 0.67490
 H3662 H 0.11305 0.18034 0.71072
 H3663 H 0.05497 0.20841 0.73928
 H3664 H 0.05000 0.23552 0.70358
 C3665 C 0.41197 0.70422 0.29438
 C3666 C 0.40738 0.69103 0.28978
 C3667 C 0.39535 0.68503 0.29580
 C3668 C 0.38791 0.69214 0.30636
 C3669 C 0.39268 0.70542 0.31076
 C3670 C 0.40470 0.71149 0.30484
 C3671 C 0.42470 0.71051 0.28821
 C3672 C 0.42936 0.72365 0.29292
 C3673 C 0.44156 0.72950 0.28716
 C3674 C 0.44912 0.72230 0.27678
 C3675 C 0.44422 0.70918 0.27208
 C3676 C 0.43202 0.70322 0.27779
 C3677 C 0.40963 0.72466 0.30921
 C3678 C 0.42175 0.73064 0.30335
 C3679 C 0.41496 0.68407 0.27930
 C3680 C 0.42706 0.69006 0.27341
 H3681 H 0.40411 0.73038 0.31726
 H3682 H 0.42523 0.74079 0.30706
 H3683 H 0.41152 0.67388 0.27565
 H3684 H 0.43262 0.68432 0.26539
 H3685 H 0.39192 0.67479 0.29233
 H3686 H 0.38708 0.71113 0.31875
 H3687 H 0.44515 0.73969 0.29070
 H3688 H 0.45005 0.70349 0.26421
 C3689 C 0.41152 0.20379 0.79486
 C3690 C 0.40447 0.21094 0.80553
 C3691 C 0.39254 0.20482 0.81160
 C3692 C 0.38764 0.19160 0.80714
 C3693 C 0.39484 0.18465 0.79631
 C3694 C 0.40678 0.19069 0.79015
 C3695 C 0.42419 0.21009 0.78857
 C3696 C 0.43132 0.20290 0.77796
 C3697 C 0.44350 0.20884 0.77219
 C3698 C 0.44858 0.22184 0.77702
 C3699 C 0.44119 0.22896 0.78758
 C3700 C 0.42901 0.22313 0.79341
 C3701 C 0.41414 0.18384 0.77945
 C3702 C 0.42620 0.18984 0.77346
 C3703 C 0.40954 0.22402 0.81001
 C3704 C 0.42161 0.23001 0.80405
 H3705 H 0.41059 0.17373 0.77571
 H3706 H 0.43160 0.18418 0.76527
 H3707 H 0.40419 0.22965 0.81824
 H3708 H 0.42522 0.24008 0.80786
 H3709 H 0.38719 0.21041 0.81984
 H3710 H 0.39130 0.17450 0.79270
 H3711 H 0.44920 0.20321 0.76418
 H3712 H 0.44491 0.23906 0.79124
 C3713 C 0.91201 0.70453 0.79443
 C3714 C 0.90727 0.69137 0.78989
 C3715 C 0.89526 0.68547 0.79603
 C3716 C 0.88798 0.69263 0.80665
 C3717 C 0.89289 0.70589 0.81100
 C3718 C 0.90490 0.71186 0.80495
 C3719 C 0.92472 0.71072 0.78812
 C3720 C 0.92953 0.72383 0.79276
 C3721 C 0.94172 0.72958 0.78687
 C3722 C 0.94911 0.72230 0.77641
 C3723 C 0.94406 0.70922 0.77179
 C3724 C 0.93188 0.70336 0.77764
 C3725 C 0.90998 0.72500 0.80925
 C3726 C 0.92209 0.73088 0.80327
 C3727 C 0.91469 0.68433 0.77935
 C3728 C 0.92678 0.69023 0.77332
 H3729 H 0.90458 0.73077 0.81736
 H3730 H 0.92568 0.74101 0.80693
 H3731 H 0.91115 0.67417 0.77575
 H3732 H 0.93222 0.68443 0.76526
 H3733 H 0.89175 0.67525 0.79259
 H3734 H 0.88741 0.71163 0.81906
 H3735 H 0.94542 0.73973 0.79037
 H3736 H 0.94977 0.70347 0.76387
 C3737 C 0.91155 0.20393 0.29521
 C3738 C 0.90687 0.19073 0.29071
 C3739 C 0.89478 0.18487 0.29676
 C3740 C 0.88739 0.19212 0.30725
 C3741 C 0.89226 0.20540 0.31156
 C3742 C 0.90432 0.21133 0.30560
 C3743 C 0.92431 0.21009 0.28898
 C3744 C 0.92903 0.22325 0.29357
 C3745 C 0.94126 0.22899 0.28774
 C3746 C 0.94877 0.22167 0.27741
 C3747 C 0.94381 0.20852 0.27284
 C3748 C 0.93159 0.20267 0.27862
 C3749 C 0.90932 0.22452 0.30985
 C3750 C 0.92147 0.23038 0.30394
 C3751 C 0.91441 0.18363 0.28030
 C3752 C 0.92656 0.18950 0.27435
 H3753 H 0.90382 0.23034 0.31786
 H3754 H 0.92501 0.24054 0.30756
 H3755 H 0.91092 0.17343 0.27673
 H3756 H 0.93208 0.18365 0.26638
 H3757 H 0.89128 0.17462 0.29337
 H3758 H 0.88667 0.21121 0.31949
 H3759 H 0.94489 0.23920 0.29118
 H3760 H 0.94961 0.20274 0.26501
 C3761 C 0.29631 0.29581 0.58799
 C3762 C 0.30948 0.29119 0.59275
 C3763 C 0.31531 0.29732 0.60469
 C3764 C 0.30806 0.30800 0.61190
 C3765 C 0.29481 0.31246 0.60694
 C3766 C 0.28890 0.30640 0.59500
 C3767 C 0.29017 0.28946 0.57539
 C3768 C 0.27703 0.29415 0.57058
 C3769 C 0.27133 0.28822 0.55849
 C3770 C 0.27868 0.27768 0.55120
 C3771 C 0.29179 0.27300 0.55628
 C3772 C 0.29760 0.27888 0.56835
 C3773 C 0.27573 0.31075 0.58992
 C3774 C 0.26990 0.30473 0.57791
 C3775 C 0.31659 0.28055 0.58546
 C3776 C 0.31074 0.27450 0.57347
 H3777 H 0.26989 0.31891 0.59524
 H3778 H 0.25974 0.30842 0.57432
 H3779 H 0.32676 0.27689 0.58903
 H3780 H 0.31659 0.26636 0.56814
 H3781 H 0.32553 0.29380 0.60823
 H3782 H 0.28900 0.32055 0.61236
 H3783 H 0.26115 0.29174 0.55479
 H3784 H 0.29760 0.26501 0.55067
 C3785 C 0.29585 0.79708 0.08802
 C3786 C 0.30644 0.78980 0.09524
 C3787 C 0.31238 0.79586 0.10715
 C3788 C 0.30785 0.80913 0.11188
 C3789 C 0.29720 0.81625 0.10445
 C3790 C 0.29116 0.81028 0.09254
 C3791 C 0.28963 0.79079 0.07543
 C3792 C 0.27909 0.79810 0.06817
 C3793 C 0.27333 0.79216 0.05610
 C3794 C 0.27810 0.77903 0.05127
 C3795 C 0.28861 0.77181 0.05876
 C3796 C 0.29442 0.77765 0.07084
 C3797 C 0.28057 0.81726 0.08502
 C3798 C 0.27462 0.81127 0.07305
 C3799 C 0.31088 0.77662 0.09038
 C3800 C 0.30498 0.77065 0.07838
 H3801 H 0.27685 0.82745 0.08840
 H3802 H 0.26650 0.81702 0.06753
 H3803 H 0.31904 0.77089 0.09586
 H3804 H 0.30876 0.76049 0.07495
 H3805 H 0.32046 0.79015 0.11273
 H3806 H 0.29365 0.82650 0.10781
 H3807 H 0.26536 0.79787 0.05032
 H3808 H 0.29222 0.76163 0.05521
 C3809 C 0.79558 0.29641 0.08716
 C3810 C 0.80621 0.28911 0.09429
 C3811 C 0.81215 0.29508 0.10625
 C3812 C 0.80757 0.30828 0.11111
 C3813 C 0.79686 0.31542 0.10379
 C3814 C 0.79083 0.30954 0.09183
 C3815 C 0.78934 0.29023 0.07453
 C3816 C 0.77874 0.29756 0.06738
 C3817 C 0.77295 0.29170 0.05529
 C3818 C 0.77775 0.27864 0.05031
 C3819 C 0.78833 0.27139 0.05770
 C3820 C 0.79417 0.27715 0.06981
 C3821 C 0.78018 0.31654 0.08441
 C3822 C 0.77423 0.31065 0.07239
 C3823 C 0.81070 0.27600 0.08929
 C3824 C 0.80478 0.27012 0.07725
 H3825 H 0.77642 0.32668 0.08791
 H3826 H 0.76607 0.31642 0.06697
 H3827 H 0.81889 0.27025 0.09470
 H3828 H 0.80859 0.26001 0.07372
 H3829 H 0.82027 0.28935 0.11177
 H3830 H 0.79326 0.32561 0.10725
 H3831 H 0.76495 0.29742 0.04959
 H3832 H 0.79196 0.26125 0.05406
 C3833 C 0.79595 0.79554 0.58745
 C3834 C 0.78853 0.80611 0.59448
 C3835 C 0.79444 0.81216 0.60642
 C3836 C 0.80772 0.80775 0.61134
 C3837 C 0.81499 0.79710 0.60411
 C3838 C 0.80915 0.79097 0.59218
 C3839 C 0.78980 0.78920 0.57485
 C3840 C 0.79724 0.77865 0.56779
 C3841 C 0.79142 0.77275 0.55573
 C3842 C 0.77828 0.77740 0.55070
 C3843 C 0.77093 0.78792 0.55800
 C3844 C 0.77664 0.79386 0.57007
 C3845 C 0.81627 0.78037 0.58485
 C3846 C 0.81042 0.77431 0.57286
 C3847 C 0.77534 0.81044 0.58942
 C3848 C 0.76950 0.80443 0.57742
 H3849 H 0.82647 0.77674 0.58839
 H3850 H 0.81628 0.76619 0.56751
 H3851 H 0.76950 0.81859 0.59476
 H3852 H 0.75933 0.80811 0.57384
 H3853 H 0.78861 0.82023 0.61185
 H3854 H 0.82523 0.79362 0.60762
 H3855 H 0.79722 0.76478 0.55010
 H3856 H 0.76073 0.79143 0.55431
 C3857 C 0.29676 0.70398 0.41085
 C3858 C 0.30991 0.70862 0.40609
 C3859 C 0.31574 0.70253 0.39414
 C3860 C 0.30851 0.69185 0.38691
 C3861 C 0.29527 0.68740 0.39184
 C3862 C 0.28936 0.69341 0.40381
 C3863 C 0.29064 0.71026 0.42350
 C3864 C 0.27754 0.70553 0.42832
 C3865 C 0.27186 0.71139 0.44046
 C3866 C 0.27921 0.72189 0.44777
 C3867 C 0.29229 0.72661 0.44269
 C3868 C 0.29807 0.72080 0.43057
 C3869 C 0.27622 0.68903 0.40890
 C3870 C 0.27041 0.69498 0.42095
 C3871 C 0.31700 0.71922 0.41342
 C3872 C 0.31118 0.72521 0.42545
 H3873 H 0.27039 0.68090 0.40355
 H3874 H 0.26028 0.69126 0.42455
 H3875 H 0.32716 0.72291 0.40984
 H3876 H 0.31701 0.73333 0.43081
 H3877 H 0.32595 0.70605 0.39061
 H3878 H 0.28948 0.67932 0.38640
 H3879 H 0.26170 0.70784 0.44418
 H3880 H 0.29808 0.73457 0.44833
 C3881 C 0.29555 0.20320 0.91135
 C3882 C 0.29081 0.19011 0.90662
 C3883 C 0.29679 0.18430 0.89459
 C3884 C 0.30744 0.19150 0.88727
 C3885 C 0.31200 0.20468 0.89218
 C3886 C 0.30611 0.21055 0.90421
 C3887 C 0.28941 0.20929 0.92407
 C3888 C 0.29425 0.22233 0.92886
 C3889 C 0.28851 0.22798 0.94106
 C3890 C 0.27802 0.22067 0.94847
 C3891 C 0.27320 0.20766 0.94343
 C3892 C 0.27888 0.20190 0.93125
 C3893 C 0.31061 0.22363 0.90928
 C3894 C 0.30478 0.22941 0.92140
 C3895 C 0.28023 0.18304 0.91406
 C3896 C 0.27437 0.18884 0.92616
 H3897 H 0.31875 0.22942 0.90386
 H3898 H 0.30859 0.23949 0.92498
 H3899 H 0.27648 0.17293 0.91051
 H3900 H 0.26626 0.18303 0.93160
 H3901 H 0.29320 0.17414 0.89108
 H3902 H 0.32008 0.21044 0.88668
 H3903 H 0.29215 0.23808 0.94476
 H3904 H 0.26524 0.20190 0.94915
 C3905 C 0.79752 0.70381 0.91219
 C3906 C 0.81066 0.70852 0.90746
 C3907 C 0.81646 0.70258 0.89540
 C3908 C 0.80922 0.69201 0.88806
 C3909 C 0.79599 0.68748 0.89298
 C3910 C 0.79011 0.69333 0.90503
 C3911 C 0.79142 0.70993 0.92493
 C3912 C 0.77832 0.70514 0.92971
 C3913 C 0.77265 0.71086 0.94192
 C3914 C 0.77999 0.72129 0.94933
 C3915 C 0.79308 0.72605 0.94430
 C3916 C 0.79885 0.72038 0.93212
 C3917 C 0.77699 0.68887 0.91010
 C3918 C 0.77119 0.69467 0.92223
 C3919 C 0.81776 0.71902 0.91491
 C3920 C 0.81196 0.72486 0.92703
 H3921 H 0.77116 0.68080 0.90467
 H3922 H 0.76107 0.69090 0.92581
 H3923 H 0.82792 0.72275 0.91137
 H3924 H 0.81780 0.73291 0.93248
 H3925 H 0.82667 0.70614 0.89189
 H3926 H 0.79019 0.67948 0.88745
 H3927 H 0.76250 0.70727 0.94560
 H3928 H 0.79888 0.73395 0.95002
 C3929 C 0.79680 0.20429 0.41237
 C3930 C 0.80997 0.20889 0.40764
 C3931 C 0.81575 0.20287 0.39561
 C3932 C 0.80844 0.19232 0.38830
 C3933 C 0.79518 0.18789 0.39324
 C3934 C 0.78934 0.19382 0.40526
 C3935 C 0.79072 0.21051 0.42507
 C3936 C 0.77759 0.20582 0.42985
 C3937 C 0.77194 0.21163 0.44201
 C3938 C 0.77933 0.22205 0.44939
 C3939 C 0.79244 0.22673 0.44436
 C3940 C 0.79820 0.22096 0.43221
 C3941 C 0.77618 0.18946 0.41033
 C3942 C 0.77041 0.19536 0.42242
 C3943 C 0.81714 0.21939 0.41505
 C3944 C 0.81135 0.22532 0.42713
 H3945 H 0.77031 0.18139 0.40492
 H3946 H 0.76026 0.19166 0.42601
 H3947 H 0.82732 0.22303 0.41150
 H3948 H 0.81723 0.23337 0.43255
 H3949 H 0.82598 0.20636 0.39209
 H3950 H 0.78933 0.17990 0.38774
 H3951 H 0.76176 0.20811 0.44570
 H3952 H 0.79826 0.23463 0.45005
 C3953 C 0.70422 0.29449 0.41225
 C3954 C 0.71085 0.30604 0.40597
 C3955 C 0.70487 0.31204 0.39402
 C3956 C 0.69240 0.30652 0.38829
 C3957 C 0.68597 0.29485 0.39468
 C3958 C 0.69180 0.28883 0.40670
 C3959 C 0.71037 0.28826 0.42493
 C3960 C 0.70366 0.27682 0.43132
 C3961 C 0.70945 0.27106 0.44349
 C3962 C 0.72188 0.27665 0.44925
 C3963 C 0.72854 0.28804 0.44257
 C3964 C 0.72280 0.29392 0.43046
 C3965 C 0.68543 0.27733 0.41334
 C3966 C 0.69124 0.27144 0.42546
 C3967 C 0.72330 0.31138 0.41178
 C3968 C 0.72919 0.30541 0.42381
 H3969 H 0.67583 0.27288 0.40918
 H3970 H 0.68596 0.26262 0.43028
 H3971 H 0.72853 0.32027 0.40701
 H3972 H 0.73879 0.30986 0.42797
 H3973 H 0.71001 0.32091 0.38912
 H3974 H 0.67631 0.29058 0.39046
 H3975 H 0.70413 0.26243 0.44862
 H3976 H 0.73822 0.29228 0.44677
 C3977 C 0.70448 0.79372 0.91285
 C3978 C 0.69125 0.78911 0.90830
 C3979 C 0.68526 0.79519 0.89639
 C3980 C 0.69241 0.80582 0.88901
 C3981 C 0.70573 0.81026 0.89375
 C3982 C 0.71179 0.80427 0.90567
 C3983 C 0.71078 0.78744 0.92544
 C3984 C 0.72397 0.79215 0.93005
 C3985 C 0.72983 0.78628 0.94211
 C3986 C 0.72259 0.77579 0.94957
 C3987 C 0.70941 0.77111 0.94472
 C3988 C 0.70344 0.77693 0.93267
 C3989 C 0.72501 0.80864 0.91056
 C3990 C 0.73099 0.80269 0.92255
 C3991 C 0.68423 0.77854 0.91579
 C3992 C 0.69023 0.77255 0.92777
 H3993 H 0.73076 0.81677 0.90510
 H3994 H 0.74118 0.80640 0.92600
 H3995 H 0.67401 0.77489 0.91239
 H3996 H 0.68445 0.76446 0.93326
 H3997 H 0.67498 0.79170 0.89300
 H3998 H 0.71146 0.81832 0.88820
 H3999 H 0.74005 0.78982 0.94567
 H4000 H 0.70369 0.76316 0.95048
 C4001 C 0.20528 0.29580 0.91224
 C4002 C 0.20987 0.30898 0.90754
 C4003 C 0.20368 0.31487 0.89563
 C4004 C 0.19298 0.30768 0.88840
 C4005 C 0.18857 0.29442 0.89329
 C4006 C 0.19466 0.28846 0.90520
 C4007 C 0.21166 0.28961 0.92482
 C4008 C 0.20698 0.27648 0.92958
 C4009 C 0.21295 0.27071 0.94164
 C4010 C 0.22351 0.27799 0.94895
 C4011 C 0.22818 0.29109 0.94395
 C4012 C 0.22226 0.29697 0.93190
 C4013 C 0.19032 0.27530 0.91022
 C4014 C 0.19637 0.26941 0.92221
 C4015 C 0.22052 0.31602 0.91488
 C4016 C 0.22661 0.31012 0.92685
 H4017 H 0.18215 0.26952 0.90487
 H4018 H 0.19268 0.25926 0.92577
 H4019 H 0.22416 0.32620 0.91136
 H4020 H 0.23477 0.31591 0.93222
 H4021 H 0.20716 0.32509 0.89213
 H4022 H 0.18046 0.28866 0.88785
 H4023 H 0.20943 0.26054 0.94531
 H4024 H 0.23620 0.29683 0.94959
 C4025 C 0.20388 0.79502 0.41114
 C4026 C 0.19144 0.78938 0.40563
 C4027 C 0.18551 0.79548 0.39369
 C4028 C 0.19188 0.80722 0.38735
 C4029 C 0.20435 0.81274 0.39306
 C4030 C 0.21043 0.80665 0.40492
 C4031 C 0.21013 0.78869 0.42372
 C4032 C 0.22258 0.79433 0.42922
 C4033 C 0.22842 0.78836 0.44124
 C4034 C 0.22183 0.77691 0.44788
 C4035 C 0.20937 0.77134 0.44215
 C4036 C 0.20349 0.77718 0.43006
 C4037 C 0.22291 0.81197 0.41070
 C4038 C 0.22890 0.80590 0.42263
 C4039 C 0.18513 0.77780 0.41222
 C4040 C 0.19104 0.77183 0.42424
 H4041 H 0.22808 0.82092 0.40597
 H4042 H 0.23851 0.81034 0.42677
 H4043 H 0.17552 0.77336 0.40808
 H4044 H 0.18581 0.76295 0.42903
 H4045 H 0.17584 0.79122 0.38949
 H4046 H 0.20944 0.82166 0.38821
 H4047 H 0.23812 0.79259 0.44541
 H4048 H 0.20410 0.76265 0.44724
 C4049 C 0.70354 0.70499 0.58754
 C4050 C 0.69038 0.70972 0.59220
 C4051 C 0.68452 0.70379 0.60424
 C4052 C 0.69172 0.69318 0.61164
 C4053 C 0.70496 0.68862 0.60679
 C4054 C 0.71090 0.69447 0.59475
 C4055 C 0.70970 0.71112 0.57483
 C4056 C 0.72282 0.70632 0.57011
 C4057 C 0.72856 0.71207 0.55794
 C4058 C 0.72127 0.72256 0.55049
 C4059 C 0.70815 0.72733 0.55544
 C4060 C 0.70231 0.72162 0.56760
 C4061 C 0.72406 0.69000 0.58975
 C4062 C 0.72991 0.69581 0.57764
 C4063 C 0.68331 0.72027 0.58470
 C4064 C 0.68918 0.72612 0.57261
 H4065 H 0.72986 0.68190 0.59523
 H4066 H 0.74006 0.69203 0.57412
 H4067 H 0.67315 0.72402 0.58819
 H4068 H 0.68337 0.73421 0.56713
 H4069 H 0.67430 0.70738 0.60769
 H4070 H 0.71073 0.68059 0.61237
 H4071 H 0.73874 0.70848 0.55431
 H4072 H 0.70239 0.73527 0.54970
 C4073 C 0.70533 0.20432 0.08741
 C4074 C 0.69475 0.21171 0.09449
 C4075 C 0.68880 0.20583 0.10651
 C4076 C 0.69332 0.19262 0.11146
 C4077 C 0.70399 0.18540 0.10419
 C4078 C 0.71003 0.19120 0.09218
 C4079 C 0.71156 0.21041 0.07470
 C4080 C 0.72211 0.20300 0.06759
 C4081 C 0.72788 0.20876 0.05544
 C4082 C 0.72313 0.22182 0.05036
 C4083 C 0.71260 0.22915 0.05770
 C4084 C 0.70678 0.22349 0.06987
 C4085 C 0.72063 0.18411 0.08480
 C4086 C 0.72657 0.18991 0.07272
 C4087 C 0.69031 0.22482 0.08938
 C4088 C 0.69622 0.23060 0.07728
 H4089 H 0.72435 0.17397 0.08838
 H4090 H 0.73470 0.18408 0.06733
 H4091 H 0.68217 0.23063 0.09476
 H4092 H 0.69245 0.24071 0.07367
 H4093 H 0.68072 0.21161 0.11198
 H4094 H 0.70756 0.17521 0.10773
 H4095 H 0.73586 0.20297 0.04978
 H4096 H 0.70902 0.23929 0.05398
 C4097 C 0.20492 0.70427 0.08822
 C4098 C 0.19396 0.71145 0.09494
 C4099 C 0.18790 0.70559 0.10691
 C4100 C 0.19271 0.69262 0.11220
 C4101 C 0.20374 0.68558 0.10529
 C4102 C 0.20987 0.69136 0.09330
 C4103 C 0.21127 0.71036 0.07557
 C4104 C 0.22219 0.70315 0.06881
 C4105 C 0.22810 0.70892 0.05671
 C4106 C 0.22311 0.72178 0.05135
 C4107 C 0.21221 0.72890 0.05836
 C4108 C 0.20624 0.72323 0.07045
 C4109 C 0.22085 0.68447 0.08627
 C4110 C 0.22690 0.69026 0.07424
 C4111 C 0.18925 0.72434 0.08952
 C4112 C 0.19529 0.73013 0.07749
 H4113 H 0.22478 0.67450 0.09009
 H4114 H 0.23532 0.68459 0.06912
 H4115 H 0.18081 0.72999 0.09462
 H4116 H 0.19132 0.74007 0.07364
 H4117 H 0.17936 0.71110 0.11197
 H4118 H 0.20767 0.67568 0.10923
 H4119 H 0.23635 0.70327 0.05131
 H4120 H 0.20843 0.73889 0.05444
 C4121 C 0.20399 0.20464 0.58779
 C4122 C 0.19076 0.20926 0.59237
 C4123 C 0.18482 0.20319 0.60430
 C4124 C 0.19203 0.19257 0.61168
 C4125 C 0.20531 0.18808 0.60689
 C4126 C 0.21133 0.19407 0.59495
 C4127 C 0.21023 0.21091 0.57518
 C4128 C 0.22341 0.20618 0.57052
 C4129 C 0.22921 0.21202 0.55842
 C4130 C 0.22192 0.22251 0.55098
 C4131 C 0.20875 0.22721 0.55587
 C4132 C 0.20285 0.22142 0.56796
 C4133 C 0.22453 0.18967 0.59001
 C4134 C 0.23047 0.19563 0.57801
 C4135 C 0.18370 0.21983 0.58489
 C4136 C 0.18966 0.22582 0.57290
 H4137 H 0.23029 0.18150 0.59543
 H4138 H 0.24065 0.19191 0.57453
 H4139 H 0.17347 0.22347 0.58830
 H4140 H 0.18386 0.23393 0.56743
 H4141 H 0.17454 0.20669 0.60769
 H4142 H 0.21106 0.18000 0.61242
 H4143 H 0.23942 0.20848 0.55484
 H4144 H 0.20299 0.23515 0.55012
   
