data_POSCAR
  _audit_creation_date              2014-09-24
  _audit_creation_method            'ToBaCCo'
  _symmetry_space_group_name_H-M    'P1'
  _symmetry_Int_Tables_number       1
  _symmetry_cell_setting            triclinic
  loop_
  _symmetry_equiv_pos_as_xyz
 x,y,z
_cell_length_a 33.2279
_cell_length_b 33.1924
_cell_length_c 33.1465
_cell_angle_alpha 89.563100
_cell_angle_beta 90.331400
_cell_angle_gamma 90.207500
loop_
  _atom_site_label
  _atom_site_type_symbol
  _atom_site_fract_x
  _atom_site_fract_y
  _atom_site_fract_z
C1 C 0.12514 -0.00489 0.24832
 C2 C 0.37021 -0.00495 0.75257
 C3 C 0.87407 0.50656 0.25305
 C4 C 0.62929 0.49457 0.75713
 C5 C 0.25235 0.13104 1.00267
 C6 C 0.75506 0.37469 1.00545
 C7 C 0.25266 0.87712 0.49231
 C8 C 0.75332 0.62654 0.50469
 C9 C -0.00525 0.25442 0.12749
 C10 C 0.00716 0.74340 0.36751
 C11 C 0.49529 0.25098 0.87666
 C12 C 0.49812 0.75027 0.62220
 C13 C 0.87335 0.99452 0.74730
 C14 C 0.37475 0.50011 0.25589
 C15 C 0.62474 1.00419 0.24843
 C16 C 0.11615 0.49437 0.74340
 C17 C 0.75661 0.88276 -0.00221
 C18 C 0.25462 0.37773 0.49504
 C19 C 0.25415 0.62331 -0.01043
 C20 C 0.74905 0.12630 0.50428
 C21 C 1.00244 0.75130 0.87236
 C22 C 0.49697 0.25388 0.38197
 C23 C 0.99661 0.24244 0.62190
 C24 C 0.50816 0.74916 0.13124
 O25 O -0.01994 0.89473 0.96015
 O26 O -0.00777 0.88868 1.02920
 O27 O -0.10779 0.99454 0.95889
 O28 O -0.10874 1.05925 0.97342
 O29 O -0.00441 0.99394 0.87527
 O30 O 0.06604 1.00929 0.88487
 O31 O -0.00620 1.09243 1.07442
 O32 O -0.06944 1.06513 1.07240
 O33 O 0.07244 0.98982 1.08922
 O34 O 0.08156 0.92777 1.05203
 O35 O 0.09746 1.07866 1.00088
 O36 O 0.06840 1.09346 0.93129
 O37 O 0.03349 1.11584 1.02370
 O38 O 0.02382 1.12578 0.95474
 O39 O 0.11504 1.02073 1.03311
 O40 O 0.11452 0.95043 1.00656
 O41 O 0.01619 1.02266 1.10923
 O42 O -0.05390 1.00039 1.09865
 O43 O 0.01762 0.92440 0.91100
 O44 O 0.08098 0.95450 0.90956
 O45 O -0.06276 1.02259 0.89554
 O46 O -0.06785 1.08661 0.93263
 O47 O -0.08850 0.93401 0.98477
 O48 O -0.06135 0.92286 1.05254
 Zr49 Zr -0.02787 0.94290 1.00173
 O50 O 0.00547 0.97373 1.04648
 Zr51 Zr -0.05486 1.02942 0.95820
 O52 O -0.02220 1.06309 1.00084
 Zr53 Zr 0.02794 0.98331 0.92895
 O54 O 0.06439 1.01402 0.97048
 Zr55 Zr -0.01787 1.03189 1.05599
 O56 O -0.05438 0.99942 1.01436
 Zr57 Zr 0.06432 0.98382 1.02648
 O58 O 0.03217 0.95006 0.98308
 Zr59 Zr 0.03771 1.06965 0.98201
 O60 O 0.00358 1.04076 0.93670
 O61 O -0.03127 0.97286 0.94646
 O62 O 0.04157 1.04107 1.03820
 C63 C 0.00009 0.89379 0.92682
 C64 C -0.11524 0.95835 0.97075
 C65 C -0.03917 1.00929 0.86816
 C66 C 0.01451 1.12054 1.05680
 C67 C 0.04981 1.00478 1.11650
 C68 C 0.12266 1.05633 1.02010
 H69 H 0.00489 0.95756 1.07165
 H70 H 0.09172 1.01687 0.95918
 H71 H -0.04738 0.95753 0.92652
 H72 H -0.03550 1.08942 1.00431
 H73 H -0.09299 1.05037 1.06146
 H74 H -0.10339 1.07411 0.99862
 H75 H 0.12793 0.96614 0.98497
 H76 H 0.08941 0.93635 0.93186
 H77 H -0.05382 1.01584 1.12416
 H78 H -0.07679 0.89828 1.04523
 H79 H 0.09301 1.07730 0.92731
 H80 H 0.05590 1.03682 0.87946
 H81 H 0.02088 0.88545 1.02195
 H82 H 0.05999 0.91890 1.07056
 H83 H -0.04591 1.09306 0.91352
 H84 H -0.00529 1.13040 0.95852
 O85 O 0.47236 0.48761 0.39097
 O86 O 0.53908 0.49562 0.38502
 O87 O 0.46286 0.39382 0.48505
 O88 O 0.47441 0.38769 0.55099
 O89 O 0.38672 0.50055 0.48190
 O90 O 0.39833 0.56660 0.51009
 O91 O 0.58377 0.47381 0.58730
 O92 O 0.57877 0.41574 0.55342
 O93 O 0.60409 0.56524 0.50051
 O94 O 0.57174 0.58215 0.43531
 O95 O 0.51421 0.58939 0.58400
 O96 O 0.45455 0.56538 0.60251
 O97 O 0.53888 0.51567 0.61715
 O98 O 0.46174 0.50778 0.62015
 O99 O 0.54690 0.60935 0.52730
 O100 O 0.52603 0.61384 0.45539
 O101 O 0.62096 0.50462 0.52758
 O102 O 0.60696 0.43959 0.49190
 O103 O 0.42892 0.53150 0.41992
 O104 O 0.42705 0.58963 0.46036
 O105 O 0.40273 0.44063 0.51101
 O106 O 0.43798 0.42948 0.57819
 O107 O 0.49324 0.41408 0.42705
 O108 O 0.56230 0.44056 0.41747
 Zr109 Zr 0.51242 0.47392 0.43884
 O110 O 0.55880 0.50247 0.47191
 Zr111 Zr 0.46527 0.44403 0.52237
 O112 O 0.51073 0.46949 0.55839
 Zr113 Zr 0.44251 0.53135 0.48140
 O114 O 0.48574 0.56115 0.51670
 Zr115 Zr 0.56569 0.47267 0.52730
 O116 O 0.52152 0.44185 0.49316
 Zr117 Zr 0.54191 0.56091 0.48768
 O118 O 0.49754 0.53450 0.45031
 Zr119 Zr 0.49623 0.52961 0.57105
 O120 O 0.44820 0.50272 0.53782
 O121 O 0.45663 0.47225 0.46694
 O122 O 0.55217 0.53206 0.54284
 C123 C 0.44311 0.51297 0.38943
 C124 C 0.47596 0.38731 0.44944
 C125 C 0.37731 0.46517 0.49484
 C126 C 0.56936 0.49164 0.61811
 C127 C 0.62987 0.54058 0.51588
 C128 C 0.53210 0.61613 0.56215
 H129 H 0.58423 0.50232 0.45659
 H130 H 0.47531 0.58859 0.52120
 H131 H 0.43673 0.45869 0.44926
 H132 H 0.51304 0.45274 0.58307
 H133 H 0.56698 0.39518 0.53532
 H134 H 0.50329 0.38649 0.55816
 H135 H 0.50456 0.62749 0.47063
 H136 H 0.44886 0.59845 0.44208
 H137 H 0.63217 0.43625 0.50772
 H138 H 0.55412 0.42570 0.39285
 H139 H 0.43723 0.57823 0.58176
 H140 H 0.39109 0.55236 0.53541
 H141 H 0.54097 0.52523 0.38773
 H142 H 0.59092 0.56126 0.42664
 H143 H 0.41790 0.45070 0.58365
 H144 H 0.47380 0.48211 0.62945
 O145 O 0.53362 0.02843 0.39047
 O146 O 0.46498 0.01535 0.38283
 O147 O 0.53261 0.11480 0.49080
 O148 O 0.51159 0.11517 0.55425
 O149 O 0.61594 0.01227 0.49564
 O150 O 0.60647 -0.05968 0.50481
 O151 O 0.41386 0.00901 0.58509
 O152 O 0.41816 0.07412 0.56064
 O153 O 0.40238 -0.06374 0.47998
 O154 O 0.44543 -0.07355 0.41902
 O155 O 0.49264 -0.09309 0.57207
 O156 O 0.55986 -0.06044 0.58892
 O157 O 0.46466 -0.03066 0.60838
 O158 O 0.53192 -0.01926 0.62209
 O159 O 0.46047 -0.10985 0.51399
 O160 O 0.48337 -0.11046 0.44648
 O161 O 0.38132 -0.00831 0.51350
 O162 O 0.39308 0.06101 0.49406
 O163 O 0.58348 -0.00693 0.42168
 O164 O 0.58493 -0.07111 0.44910
 O165 O 0.59318 0.07098 0.52164
 O166 O 0.55536 0.07491 0.58353
 O167 O 0.50686 0.09618 0.43006
 O168 O 0.44033 0.06831 0.41651
 Zr169 Zr 0.49087 0.03516 0.43785
 O170 O 0.44592 0.00112 0.46750
 Zr171 Zr 0.53103 0.06181 0.52586
 O172 O 0.48862 0.02772 0.55837
 Zr173 Zr 0.56335 -0.01990 0.47958
 O174 O 0.52145 -0.05753 0.50841
 Zr175 Zr 0.43458 0.02366 0.52573
 O176 O 0.47613 0.06102 0.49420
 Zr177 Zr 0.46592 -0.05789 0.47744
 O178 O 0.51013 -0.02485 0.44512
 Zr179 Zr 0.50822 -0.03214 0.56420
 O180 O 0.55335 0.00345 0.53708
 O181 O 0.54508 0.03915 0.46935
 O182 O 0.45260 -0.03613 0.53460
 C183 C 0.56774 0.00983 0.39048
 C184 C 0.52111 0.12257 0.45452
 C185 C 0.62148 0.04715 0.51135
 C186 C 0.43081 -0.01311 0.61261
 C187 C 0.37454 -0.04082 0.49385
 C188 C 0.47453 -0.11845 0.54920
 H189 H 0.42150 0.00206 0.45035
 H190 H 0.53327 -0.08472 0.51101
 H191 H 0.56539 0.05573 0.45500
 H192 H 0.48420 0.04014 0.58498
 H193 H 0.42845 0.09824 0.54620
 H194 H 0.49005 0.10765 0.57337
 H195 H 0.51066 -0.11763 0.45609
 H196 H 0.56326 -0.07946 0.43028
 H197 H 0.36774 0.06215 0.50971
 H198 H 0.44813 0.08413 0.39222
 H199 H 0.56492 -0.08514 0.57322
 H200 H 0.61176 -0.05065 0.53273
 H201 H 0.47376 -0.01278 0.37879
 H202 H 0.42504 -0.05348 0.41060
 H203 H 0.57293 0.05206 0.59127
 H204 H 0.52869 0.00996 0.62653
 O205 O -0.09923 0.43817 0.98260
 O206 O -0.06712 0.42858 0.92429
 O207 O -0.00513 0.41155 1.07250
 O208 O 0.05204 0.43757 1.09301
 O209 O -0.08503 0.51510 1.08266
 O210 O -0.08525 0.57979 1.05653
 O211 O 0.11279 0.51500 0.97682
 O212 O 0.10883 0.45050 0.99528
 O213 O 0.02463 0.53665 0.88951
 O214 O -0.04375 0.53009 0.88167
 O215 O 0.03601 0.61782 0.98852
 O216 O 0.01932 0.61627 1.05572
 O217 O 0.09511 0.57168 1.01049
 O218 O 0.05899 0.57574 1.07936
 O219 O 0.00497 0.60090 0.92989
 O220 O -0.06644 0.57222 0.91719
 O221 O 0.07422 0.49407 0.90956
 O222 O 0.06770 0.42629 0.94224
 O223 O -0.11926 0.49659 1.01152
 O224 O -0.10855 0.56901 1.00033
 O225 O -0.03378 0.47975 1.11132
 O226 O 0.04189 0.49515 1.11271
 O227 O -0.03913 0.39392 1.01564
 O228 O -0.01071 0.39780 0.94508
 Zr229 Zr -0.03674 0.44579 0.97781
 O230 O 0.00300 0.48012 0.94210
 Zr231 Zr 0.00811 0.47292 1.06327
 O232 O 0.05243 0.50468 1.03022
 Zr233 Zr -0.06563 0.52853 1.02478
 O234 O -0.02432 0.56563 0.99434
 Zr235 Zr 0.05903 0.48241 0.97119
 O236 O 0.01980 0.44607 1.00674
 Zr237 Zr -0.01481 0.54072 0.93760
 O238 O -0.05838 0.50481 0.96707
 Zr239 Zr 0.03286 0.56421 1.02214
 O240 O -0.01085 0.53297 1.05708
 O241 O -0.04757 0.46929 1.03457
 O242 O 0.04218 0.54265 0.96388
 C243 C -0.12655 0.46227 0.99508
 C244 C -0.02381 0.38571 1.05057
 C245 C -0.06849 0.49703 1.11256
 C246 C 0.12117 0.54889 0.99345
 C247 C 0.05605 0.51573 0.88260
 C248 C 0.02292 0.62633 0.95307
 H249 H 0.00479 0.46722 0.91537
 H250 H -0.03541 0.59320 0.99285
 H251 H -0.06748 0.45280 1.04956
 H252 H 0.07835 0.50332 1.04497
 H253 H 0.09763 0.42723 1.01035
 H254 H 0.07387 0.43368 1.07331
 H255 H -0.06805 0.59771 0.93239
 H256 H -0.11595 0.55897 0.97324
 H257 H 0.09381 0.42722 0.92790
 H258 H -0.02732 0.37318 0.94891
 H259 H -0.00942 0.62226 1.05079
 H260 H -0.06338 0.58681 1.07566
 H261 H -0.07747 0.45367 0.91179
 H262 H -0.04185 0.50086 0.87646
 H263 H 0.02756 0.51908 1.12288
 H264 H 0.08381 0.55953 1.08194
 O265 O 0.00968 0.37732 0.50437
 O266 O -0.01276 0.38372 0.43952
 O267 O 0.11090 0.45522 0.51618
 O268 O 0.12506 0.51917 0.51757
 O269 O 0.00991 0.45667 0.60589
 O270 O -0.05530 0.48305 0.60408
 O271 O 0.03238 0.58553 0.42379
 O272 O 0.08593 0.54676 0.41859
 O273 O -0.06961 0.51545 0.40175
 O274 O -0.09579 0.45479 0.42284
 O275 O -0.07142 0.58607 0.50634
 O276 O -0.03941 0.58945 0.56645
 O277 O 0.00022 0.61166 0.47802
 O278 O 0.01852 0.59982 0.55459
 O279 O -0.10661 0.53894 0.47153
 O280 O -0.11634 0.46358 0.47953
 O281 O -0.00716 0.53558 0.38234
 O282 O 0.05331 0.49195 0.38488
 O283 O -0.02086 0.39905 0.56139
 O284 O -0.08268 0.44115 0.56540
 O285 O 0.07238 0.47784 0.58789
 O286 O 0.09045 0.54678 0.56028
 O287 O 0.07887 0.40878 0.47738
 O288 O 0.04172 0.41327 0.41275
 Zr289 Zr 0.01941 0.42948 0.47032
 O290 O -0.00931 0.47361 0.43496
 Zr291 Zr 0.06590 0.49792 0.52747
 O292 O 0.04164 0.54459 0.49197
 Zr293 Zr -0.02401 0.46259 0.55285
 O294 O -0.05218 0.51049 0.52141
 Zr295 Zr 0.02815 0.52428 0.43363
 O296 O 0.05812 0.47954 0.46706
 Zr297 Zr -0.06297 0.49342 0.46144
 O298 O -0.03743 0.44404 0.49385
 Zr299 Zr -0.01411 0.56116 0.51569
 O300 O 0.01133 0.51572 0.55359
 O301 O 0.03143 0.44592 0.52971
 O302 O -0.02682 0.54468 0.45655
 C303 C -0.00590 0.37113 0.53920
 C304 C 0.11048 0.42327 0.49458
 C305 C 0.04684 0.46458 0.61393
 C306 C 0.01962 0.61505 0.44445
 C307 C -0.04453 0.52909 0.37532
 C308 C -0.10418 0.57249 0.49070
 H309 H -0.01416 0.46294 0.40757
 H310 H -0.07718 0.51684 0.53603
 H311 H 0.04597 0.42497 0.54537
 H312 H 0.06105 0.56723 0.49134
 H313 H 0.10543 0.52528 0.42559
 H314 H 0.12473 0.53271 0.49090
 H315 H -0.12438 0.47511 0.50570
 H316 H -0.08974 0.42162 0.54404
 H317 H 0.05708 0.51087 0.36189
 H318 H 0.05448 0.38632 0.41469
 H319 H -0.05592 0.56878 0.58032
 H320 H -0.04278 0.50904 0.61160
 H321 H -0.04110 0.38525 0.44839
 H322 H -0.07668 0.43431 0.41317
 H323 H 0.07247 0.55155 0.58346
 H324 H 0.04149 0.61110 0.53930
 O325 O 0.61099 0.96765 0.02722
 O326 O 0.61632 1.03438 0.01701
 O327 O 0.50930 0.96509 0.11492
 O328 O 0.44441 0.98007 0.11321
 O329 O 0.51228 0.87888 0.01363
 O330 O 0.50047 0.88519 -0.05696
 O331 O 0.41202 1.07548 0.00911
 O332 O 0.44084 1.07715 0.07173
 O333 O 0.51422 1.08867 -0.07216
 O334 O 0.57714 1.05368 -0.07876
 O335 O 0.42713 1.00032 -0.09457
 O336 O 0.41354 0.93158 -0.06463
 O337 O 0.39019 1.02454 -0.03101
 O338 O 0.38174 0.95344 -0.01919
 O339 O 0.48615 1.02936 -0.11328
 O340 O 0.55829 1.00454 -0.10794
 O341 O 0.47522 1.10770 -0.01964
 O342 O 0.50319 1.10515 0.05095
 O343 O 0.58444 0.91638 -0.00974
 O344 O 0.55375 0.90944 -0.07174
 O345 O 0.48280 0.90102 0.07093
 O346 O 0.41887 0.93718 0.07395
 O347 O 0.56955 0.99104 0.09565
 O348 O 0.57794 1.06004 0.06564
 Zr349 Zr 0.56140 1.00686 0.03424
 O350 O 0.53088 1.04947 -0.00239
 Zr351 Zr 0.47579 0.96285 0.06083
 O352 O 0.44186 1.00335 0.02564
 Zr353 Zr 0.52421 0.93134 -0.02006
 O354 O 0.49297 0.97059 -0.05903
 Zr355 Zr 0.47249 1.05836 0.01995
 O356 O 0.50460 1.01927 0.05934
 Zr357 Zr 0.52212 1.02684 -0.06076
 O358 O 0.55600 0.98598 -0.02546
 Zr359 Zr 0.43656 0.98251 -0.03395
 O360 O 0.46612 0.93930 0.00269
 O361 O 0.53308 0.95095 0.03890
 O362 O 0.46450 1.03837 -0.03912
 C363 C 0.61412 0.93525 0.00630
 C364 C 0.54522 0.97737 0.12263
 C365 C 0.49561 0.87305 0.04800
 C366 C 0.38479 1.05765 -0.01214
 C367 C 0.49307 1.11451 -0.05324
 C368 C 0.45014 1.01726 -0.12083
 H369 H 0.54614 1.07511 -0.00296
 H370 H 0.49083 0.95825 -0.08600
 H371 H 0.54865 0.93167 0.05573
 H372 H 0.41541 1.00688 0.03861
 H373 H 0.45701 1.06849 0.09543
 H374 H 0.43112 1.00595 0.10688
 H375 H 0.54259 0.98372 -0.12240
 H376 H 0.57070 0.93181 -0.08198
 H377 H 0.48679 1.12996 0.04846
 H378 H 0.60047 1.05387 0.08447
 H379 H 0.43082 0.92673 -0.08831
 H380 H 0.47193 0.88167 -0.04926
 H381 H 0.61836 1.03129 -0.01257
 H382 H 0.58530 1.07312 -0.05774
 H383 H 0.41243 0.91828 0.05184
 H384 H 0.37472 0.96132 0.00860
 O385 O 0.39422 0.53311 0.03286
 O386 O 0.38392 0.46838 0.01784
 O387 O 0.49370 0.51467 0.12361
 O388 O 0.55919 0.50602 0.12405
 O389 O 0.50007 0.61413 0.02782
 O390 O 0.51349 0.61200 -0.04224
 O391 O 0.57999 0.40822 0.01484
 O392 O 0.55473 0.40892 0.07789
 O393 O 0.48445 0.40954 -0.06732
 O394 O 0.42662 0.44818 -0.07842
 O395 O 0.57788 0.49633 -0.08488
 O396 O 0.59791 0.55848 -0.04531
 O397 O 0.61245 0.45899 -0.01822
 O398 O 0.62774 0.52526 -0.00505
 O399 O 0.51705 0.47350 -0.10635
 O400 O 0.44578 0.50012 -0.10007
 O401 O 0.51195 0.38318 -0.01015
 O402 O 0.48801 0.38901 0.05867
 O403 O 0.42479 0.58362 -0.00228
 O404 O 0.46092 0.59296 -0.06169
 O405 O 0.52420 0.58585 0.08559
 O406 O 0.58662 0.54515 0.08690
 O407 O 0.43030 0.50372 0.10039
 O408 O 0.41792 0.43737 0.06842
 Zr409 Zr 0.43996 0.49024 0.03936
 O410 O 0.46740 0.44743 0.00222
 Zr411 Zr 0.52816 0.52472 0.07136
 O412 O 0.55935 0.48308 0.03608
 Zr413 Zr 0.48511 0.56512 -0.00937
 O414 O 0.51471 0.52522 -0.04835
 Zr415 Zr 0.52346 0.43206 0.02693
 O416 O 0.49433 0.47153 0.06644
 Zr417 Zr 0.48093 0.47189 -0.05460
 O418 O 0.44925 0.51370 -0.01905
 Zr419 Zr 0.56943 0.50606 -0.02233
 O420 O 0.54192 0.55009 0.01469
 O421 O 0.47271 0.54317 0.04817
 O422 O 0.53636 0.45331 -0.03133
 C423 C 0.39348 0.56584 0.01209
 C424 C 0.45603 0.50778 0.12906
 C425 C 0.51562 0.61625 0.06327
 C426 C 0.61128 0.42366 -0.00172
 C427 C 0.49597 0.37973 -0.04511
 C428 C 0.55312 0.48567 -0.11289
 H429 H 0.44951 0.42364 0.00019
 H430 H 0.51841 0.53980 -0.07418
 H431 H 0.45807 0.56252 0.06529
 H432 H 0.58477 0.47601 0.05005
 H433 H 0.53992 0.41805 0.10198
 H434 H 0.56696 0.47766 0.11980
 H435 H 0.46266 0.52114 -0.11297
 H436 H 0.44143 0.57366 -0.07341
 H437 H 0.50212 0.36272 0.05828
 H438 H 0.39441 0.44444 0.08526
 H439 H 0.58201 0.56787 -0.06887
 H440 H 0.54188 0.61284 -0.03306
 H441 H 0.38327 0.47385 -0.01155
 H442 H 0.41355 0.43219 -0.05684
 H443 H 0.59396 0.56639 0.06709
 H444 H 0.62963 0.52205 0.02458
 O445 O -0.12053 0.01689 0.50459
 O446 O -0.12211 -0.04909 0.48357
 O447 O -0.03717 0.01092 0.60680
 O448 O 0.02822 0.00330 0.61750
 O449 O -0.02963 0.10608 0.51171
 O450 O 0.00092 0.10569 0.44568
 O451 O 0.07688 -0.09086 0.51046
 O452 O 0.04514 -0.09223 0.57155
 O453 O -0.00850 -0.09920 0.42026
 O454 O -0.06932 -0.06034 0.40103
 O455 O 0.08074 -0.00584 0.41401
 O456 O 0.08866 0.05957 0.45149
 O457 O 0.10844 -0.03669 0.48227
 O458 O 0.11302 0.03333 0.50039
 O459 O 0.02809 -0.04030 0.38699
 O460 O -0.04028 -0.01457 0.37446
 O461 O 0.01370 -0.12326 0.48076
 O462 O -0.01810 -0.11728 0.54678
 O463 O -0.09062 0.07089 0.47422
 O464 O -0.04847 0.07884 0.41646
 O465 O -0.00548 0.08215 0.57148
 O466 O 0.05890 0.04674 0.58400
 O467 O -0.09195 -0.01401 0.57392
 O468 O -0.09566 -0.07779 0.53999
 Zr469 Zr -0.07284 -0.02312 0.51508
 O470 O -0.03602 -0.06319 0.48421
 Zr471 Zr 0.00559 0.02074 0.56029
 O472 O 0.04592 -0.01790 0.53066
 Zr473 Zr -0.02893 0.05628 0.47303
 O474 O 0.00999 0.01928 0.43955
 Zr475 Zr 0.01718 -0.07249 0.51736
 O476 O -0.02155 -0.03574 0.55082
 Zr477 Zr -0.01729 -0.03711 0.42990
 O478 O -0.05793 0.00185 0.45873
 Zr479 Zr 0.06178 0.00603 0.47382
 O480 O 0.02486 0.04726 0.50567
 O481 O -0.04706 0.03245 0.52828
 O482 O 0.03553 -0.04972 0.46154
 C483 C -0.12161 0.05151 0.48710
 C484 C -0.07315 -0.00389 0.60605
 C485 C -0.01904 0.11056 0.54872
 C486 C 0.10833 -0.07283 0.49678
 C487 C 0.00200 -0.12793 0.44424
 C488 C 0.06356 -0.02538 0.38519
 H489 H -0.05152 -0.08836 0.48031
 H490 H 0.01674 0.03305 0.41393
 H491 H -0.06591 0.04964 0.54345
 H492 H 0.06986 -0.02263 0.54788
 H493 H 0.02720 -0.08424 0.59383
 H494 H 0.04324 -0.02200 0.61359
 H495 H -0.02450 0.00964 0.36696
 H496 H -0.06459 0.05709 0.40392
 H497 H -0.00221 -0.14249 0.54841
 H498 H -0.12298 -0.07316 0.55099
 H499 H 0.07382 0.06763 0.42678
 H500 H 0.02608 0.11003 0.46121
 H501 H -0.12155 -0.03836 0.45564
 H502 H -0.08043 -0.08194 0.41848
 H503 H 0.06793 0.06742 0.56432
 H504 H 0.11419 0.02448 0.52892
 O505 O 0.83807 0.24183 0.18390
 O506 O 0.80014 0.18435 0.17332
 O507 O 0.76056 0.34066 0.17512
 O508 O 0.69607 0.35607 0.20191
 O509 O 0.83583 0.33242 0.27698
 O510 O 0.83767 0.29361 0.33655
 O511 O 0.62984 0.25121 0.26869
 O512 O 0.63173 0.26659 0.20437
 O513 O 0.70660 0.14626 0.27498
 O514 O 0.77290 0.13300 0.26505
 O515 O 0.71028 0.23537 0.36853
 O516 O 0.73887 0.30090 0.37492
 O517 O 0.65465 0.27161 0.32920
 O518 O 0.69838 0.33216 0.34279
 O519 O 0.73619 0.17683 0.34536
 O520 O 0.80257 0.15974 0.30987
 O521 O 0.65890 0.18087 0.23989
 O522 O 0.66532 0.22588 0.17415
 O523 O 0.86367 0.25986 0.24502
 O524 O 0.85666 0.24052 0.31496
 O525 O 0.78639 0.36784 0.24527
 O526 O 0.71623 0.37699 0.25777
 O527 O 0.77876 0.28130 0.14692
 O528 O 0.74632 0.21444 0.14380
 Zr529 Zr 0.77604 0.23909 0.19491
 O530 O 0.73269 0.20447 0.22584
 Zr531 Zr 0.74200 0.32453 0.23313
 O532 O 0.69588 0.29405 0.26365
 Zr533 Zr 0.81323 0.27316 0.28133
 O534 O 0.77016 0.24162 0.31569
 Zr535 Zr 0.68140 0.24003 0.23432
 O536 O 0.72349 0.27375 0.20021
 Zr537 Zr 0.75208 0.18966 0.28467
 O538 O 0.79804 0.21948 0.25163
 Zr539 Zr 0.71716 0.27566 0.32050
 O540 O 0.76254 0.30969 0.29141
 O541 O 0.79409 0.29129 0.22445
 O542 O 0.69909 0.22225 0.29244
 C543 C 0.86754 0.24836 0.20820
 C544 C 0.77223 0.31943 0.14534
 C545 C 0.82053 0.36538 0.26331
 C546 C 0.62552 0.26330 0.30507
 C547 C 0.67322 0.14825 0.25531
 C548 C 0.72109 0.19873 0.37338
 H549 H 0.72695 0.18018 0.20970
 H550 H 0.78224 0.23532 0.34230
 H551 H 0.81517 0.30665 0.20989
 H552 H 0.67237 0.31213 0.26528
 H553 H 0.63635 0.29604 0.20495
 H554 H 0.68608 0.33796 0.18044
 H555 H 0.80879 0.17241 0.33611
 H556 H 0.85826 0.21345 0.30277
 H557 H 0.67238 0.19734 0.16958
 H558 H 0.76408 0.21728 0.11996
 H559 H 0.76389 0.28656 0.38240
 H560 H 0.81808 0.31301 0.34752
 H561 H 0.81455 0.17147 0.19621
 H562 H 0.77147 0.13333 0.23524
 H563 H 0.72566 0.37854 0.28609
 H564 H 0.67625 0.34214 0.32535
 O565 O 0.75227 0.68378 0.65783
 O566 O 0.81398 0.67271 0.68871
 O567 O 0.66706 0.66078 0.75467
 O568 O 0.64812 0.68751 0.81067
 O569 O 0.65920 0.77511 0.67893
 O570 O 0.69866 0.83389 0.67593
 O571 O 0.76845 0.75339 0.87326
 O572 O 0.74062 0.69017 0.86506
 O573 O 0.85854 0.76821 0.78775
 O574 O 0.86228 0.75709 0.71334
 O575 O 0.77018 0.85806 0.79598
 O576 O 0.69938 0.86363 0.77605
 O577 O 0.74363 0.81422 0.85361
 O578 O 0.67677 0.83022 0.82054
 O579 O 0.82593 0.83698 0.76312
 O580 O 0.83860 0.81015 0.69720
 O581 O 0.82889 0.73111 0.83728
 O582 O 0.79639 0.66478 0.82651
 O583 O 0.72398 0.74338 0.63916
 O584 O 0.74849 0.81131 0.64739
 O585 O 0.63150 0.73597 0.72811
 O586 O 0.63213 0.74677 0.80156
 O587 O 0.72164 0.64186 0.71860
 O588 O 0.79119 0.63796 0.74303
 Zr589 Zr 0.76177 0.69025 0.72041
 O590 O 0.79988 0.71820 0.76282
 Zr591 Zr 0.67958 0.72217 0.76733
 O592 O 0.71441 0.75128 0.81172
 Zr593 Zr 0.72082 0.77670 0.69339
 O594 O 0.75706 0.80865 0.73478
 Zr595 Zr 0.76988 0.72239 0.81822
 O596 O 0.73340 0.69040 0.77723
 Zr597 Zr 0.81147 0.77789 0.74523
 O598 O 0.77691 0.74842 0.70011
 Zr599 Zr 0.72948 0.80959 0.79174
 O600 O 0.69085 0.78205 0.74894
 O601 O 0.70632 0.71815 0.71089
 O602 O 0.78445 0.78148 0.80158
 C603 C 0.73771 0.70808 0.63106
 C604 C 0.68786 0.63443 0.73560
 C605 C 0.62904 0.75887 0.69682
 C606 C 0.75800 0.78986 0.88043
 C607 C 0.85925 0.74899 0.82168
 C608 C 0.80570 0.86376 0.78198
 H609 H 0.82491 0.70240 0.76573
 H610 H 0.76150 0.83608 0.72384
 H611 H 0.68858 0.70390 0.69151
 H612 H 0.69984 0.75137 0.83764
 H613 H 0.72799 0.66625 0.85248
 H614 H 0.66554 0.68628 0.83491
 H615 H 0.81905 0.83062 0.68778
 H616 H 0.77491 0.79873 0.64215
 H617 H 0.80797 0.66358 0.85414
 H618 H 0.78725 0.61558 0.72367
 H619 H 0.71287 0.87511 0.75203
 H620 H 0.68181 0.84336 0.69847
 H621 H 0.82494 0.69720 0.67549
 H622 H 0.86918 0.73003 0.72393
 H623 H 0.62821 0.77477 0.79186
 H624 H 0.67016 0.81110 0.84258
 O625 O 0.22794 0.17103 0.83237
 O626 O 0.16857 0.16439 0.79054
 O627 O 0.31766 0.15292 0.73554
 O628 O 0.33021 0.18519 0.67695
 O629 O 0.33874 0.24914 0.82285
 O630 O 0.30353 0.31129 0.83809
 O631 O 0.22846 0.28287 0.63340
 O632 O 0.24919 0.21612 0.62735
 O633 O 0.13570 0.27478 0.72345
 O634 O 0.13923 0.25551 0.79989
 O635 O 0.23682 0.36488 0.73373
 O636 O 0.30988 0.35486 0.75293
 O637 O 0.25985 0.33366 0.66684
 O638 O 0.32368 0.33732 0.69826
 O639 O 0.17587 0.34194 0.75431
 O640 O 0.15828 0.31159 0.81108
 O641 O 0.16198 0.25396 0.66408
 O642 O 0.18898 0.18844 0.65707
 O643 O 0.26841 0.21892 0.85975
 O644 O 0.25685 0.28538 0.86660
 O645 O 0.36011 0.21745 0.76648
 O646 O 0.36224 0.23862 0.69989
 O647 O 0.25912 0.13261 0.76432
 O648 O 0.19328 0.13648 0.74445
 Zr649 Zr 0.22531 0.18515 0.77016
 O650 O 0.19141 0.22461 0.73393
 Zr651 Zr 0.30992 0.21606 0.72861
 O652 O 0.27972 0.25905 0.69250
 Zr653 Zr 0.27672 0.25954 0.81219
 O654 O 0.24270 0.30234 0.77997
 Zr655 Zr 0.22129 0.23891 0.67971
 O656 O 0.25265 0.19405 0.71331
 Zr657 Zr 0.18558 0.27986 0.76351
 O658 O 0.21729 0.23927 0.80162
 Zr659 Zr 0.27114 0.31268 0.72476
 O660 O 0.30684 0.27206 0.75823
 O661 O 0.28351 0.20396 0.78431
 O662 O 0.21311 0.29389 0.70889
 C663 C 0.24507 0.18835 0.86248
 C664 C 0.29371 0.12542 0.74915
 C665 C 0.36650 0.23448 0.80043
 C666 C 0.24449 0.31829 0.63505
 C667 C 0.13223 0.26211 0.68692
 C668 C 0.20043 0.37049 0.74505
 H669 H 0.16555 0.21057 0.72910
 H670 H 0.24063 0.32691 0.79650
 H671 H 0.29898 0.18464 0.80121
 H672 H 0.29494 0.26384 0.66737
 H673 H 0.25773 0.18825 0.63389
 H674 H 0.32157 0.20087 0.65295
 H675 H 0.18002 0.31842 0.83039
 H676 H 0.22719 0.28247 0.86665
 H677 H 0.18027 0.19448 0.62899
 H678 H 0.19844 0.13777 0.71509
 H679 H 0.29551 0.36607 0.77636
 H680 H 0.32559 0.31997 0.82004
 H681 H 0.15973 0.18284 0.81203
 H682 H 0.12422 0.23573 0.78337
 H683 H 0.36618 0.26649 0.70958
 H684 H 0.33274 0.31859 0.67712
 O685 O 0.26023 0.63355 0.21355
 O686 O 0.19288 0.64050 0.23025
 O687 O 0.27838 0.73161 0.12933
 O688 O 0.27999 0.79811 0.12777
 O689 O 0.36418 0.71321 0.23146
 O690 O 0.36057 0.72398 0.30062
 O691 O 0.18647 0.84720 0.23012
 O692 O 0.18215 0.82069 0.16835
 O693 O 0.15854 0.75330 0.31296
 O694 O 0.17793 0.68788 0.32469
 O695 O 0.26191 0.82199 0.33520
 O696 O 0.32483 0.82925 0.30899
 O697 O 0.24213 0.86376 0.26675
 O698 O 0.31771 0.85268 0.25406
 O699 O 0.22630 0.76709 0.35549
 O700 O 0.23298 0.69129 0.34907
 O701 O 0.14173 0.78759 0.25578
 O702 O 0.14509 0.76154 0.18658
 O703 O 0.31684 0.65004 0.24874
 O704 O 0.32145 0.67838 0.31719
 O705 O 0.34898 0.74818 0.17434
 O706 O 0.32213 0.81765 0.16769
 O707 O 0.24264 0.67630 0.14864
 O708 O 0.17446 0.68122 0.17708
 Zr709 Zr 0.22935 0.68873 0.20933
 O710 O 0.19337 0.72669 0.24473
 Zr711 Zr 0.28836 0.76528 0.18199
 O712 O 0.25344 0.80625 0.21465
 Zr713 Zr 0.31015 0.71149 0.26355
 O714 O 0.27799 0.75152 0.30019
 Zr715 Zr 0.19409 0.78526 0.22044
 O716 O 0.22767 0.74677 0.18279
 Zr717 Zr 0.21762 0.73294 0.30290
 O718 O 0.25077 0.69042 0.26921
 Zr719 Zr 0.27511 0.80953 0.27418
 O720 O 0.31282 0.77078 0.24043
 O721 O 0.28928 0.70695 0.20463
 O722 O 0.21516 0.79163 0.27978
 C723 C 0.29409 0.62455 0.23023
 C724 C 0.26015 0.69818 0.12189
 C725 C 0.37382 0.72956 0.19772
 C726 C 0.20926 0.87296 0.24799
 C727 C 0.13327 0.77253 0.29052
 C728 C 0.24475 0.80037 0.36255
 H729 H 0.16566 0.71574 0.24549
 H730 H 0.29133 0.75167 0.32692
 H731 H 0.30563 0.68899 0.18758
 H732 H 0.25437 0.83251 0.20041
 H733 H 0.18842 0.80372 0.14478
 H734 H 0.25394 0.81212 0.13027
 H735 H 0.25820 0.70091 0.36183
 H736 H 0.29931 0.65853 0.32007
 H737 H 0.12316 0.78174 0.18623
 H738 H 0.17567 0.65578 0.16161
 H739 H 0.33578 0.80523 0.32299
 H740 H 0.36833 0.75225 0.29487
 H741 H 0.20057 0.63533 0.25872
 H742 H 0.16391 0.67632 0.30105
 H743 H 0.34353 0.82009 0.18844
 H744 H 0.30587 0.86707 0.23062
 O745 O 0.32725 0.82330 0.76487
 O746 O 0.32791 0.78535 0.82058
 O747 O 0.33810 0.73483 0.66848
 O748 O 0.30282 0.68417 0.64425
 O749 O 0.25468 0.83353 0.65983
 O750 O 0.18868 0.84409 0.68532
 O751 O 0.20772 0.63191 0.75151
 O752 O 0.27153 0.62335 0.73218
 O753 O 0.20814 0.71445 0.84684
 O754 O 0.22681 0.78258 0.85642
 O755 O 0.12596 0.72692 0.74471
 O756 O 0.13067 0.75313 0.68046
 O757 O 0.16101 0.66468 0.71320
 O758 O 0.16283 0.71111 0.65097
 O759 O 0.14791 0.74663 0.80641
 O760 O 0.18550 0.81114 0.82449
 O761 O 0.23699 0.65881 0.82019
 O762 O 0.30393 0.65318 0.78945
 O763 O 0.27672 0.85812 0.73403
 O764 O 0.20550 0.86273 0.74270
 O765 O 0.27815 0.77721 0.62953
 O766 O 0.24968 0.70795 0.62148
 O767 O 0.36005 0.75474 0.73022
 O768 O 0.34773 0.72591 0.79778
 Zr769 Zr 0.30747 0.76316 0.76428
 O770 O 0.26509 0.72785 0.79488
 Zr771 Zr 0.27520 0.73231 0.67471
 O772 O 0.23305 0.69354 0.70223
 Zr773 Zr 0.23512 0.81323 0.71645
 O774 O 0.18952 0.77829 0.74380
 Zr775 Zr 0.25161 0.67653 0.76067
 O776 O 0.29674 0.71047 0.73070
 Zr777 Zr 0.20987 0.75769 0.80023
 O778 O 0.25413 0.79568 0.77442
 Zr779 Zr 0.17935 0.72531 0.71099
 O780 O 0.22048 0.76343 0.68013
 O781 O 0.28948 0.78361 0.70763
 O782 O 0.19654 0.70541 0.76851
 C783 C 0.31020 0.85628 0.75365
 C784 C 0.36614 0.74253 0.69413
 C785 C 0.26900 0.81472 0.62950
 C786 C 0.17524 0.63291 0.73032
 C787 C 0.22406 0.67943 0.85007
 C788 C 0.11999 0.73571 0.78180
 H789 H 0.27747 0.72131 0.82128
 H790 H 0.16466 0.79437 0.74597
 H791 H 0.31043 0.80065 0.69482
 H792 H 0.22920 0.66960 0.68502
 H793 H 0.29821 0.62959 0.72054
 H794 H 0.29725 0.65967 0.66040
 H795 H 0.16188 0.81902 0.80796
 H796 H 0.21205 0.86184 0.77185
 H797 H 0.29752 0.62600 0.80034
 H798 H 0.37523 0.73771 0.79709
 H799 H 0.13171 0.78209 0.68714
 H800 H 0.18004 0.82648 0.66287
 H801 H 0.30535 0.80061 0.83232
 H802 H 0.25309 0.77075 0.86406
 H803 H 0.22819 0.72657 0.61242
 H804 H 0.17541 0.68506 0.64420
 O805 O 0.24586 0.17875 0.15936
 O806 O 0.30075 0.15748 0.18711
 O807 O 0.15911 0.17030 0.25814
 O808 O 0.15028 0.19659 0.31773
 O809 O 0.15840 0.26945 0.17717
 O810 O 0.19859 0.33323 0.17792
 O811 O 0.28066 0.25565 0.36827
 O812 O 0.24906 0.19522 0.36641
 O813 O 0.36329 0.25956 0.27311
 O814 O 0.36549 0.25437 0.20668
 O815 O 0.27969 0.35679 0.28853
 O816 O 0.21175 0.36785 0.27450
 O817 O 0.25550 0.31646 0.34906
 O818 O 0.18631 0.33437 0.31832
 O819 O 0.33196 0.33311 0.25208
 O820 O 0.33080 0.29651 0.17991
 O821 O 0.33722 0.22713 0.32775
 O822 O 0.29835 0.16364 0.32378
 O823 O 0.23238 0.24275 0.13893
 O824 O 0.23701 0.30853 0.14075
 O825 O 0.13090 0.24546 0.23509
 O826 O 0.13830 0.25611 0.30910
 O827 O 0.21086 0.13976 0.22631
 O828 O 0.28494 0.13486 0.24724
 Zr829 Zr 0.25559 0.18578 0.22146
 O830 O 0.29950 0.21465 0.25729
 Zr831 Zr 0.18042 0.22778 0.27101
 O832 O 0.22101 0.25465 0.31165
 Zr833 Zr 0.21992 0.27479 0.19220
 O834 O 0.26032 0.30696 0.22936
 Zr835 Zr 0.27536 0.22266 0.31499
 O836 O 0.23197 0.19165 0.27977
 Zr837 Zr 0.31311 0.27344 0.23682
 O838 O 0.27386 0.24230 0.19749
 Zr839 Zr 0.23711 0.31101 0.28823
 O840 O 0.19385 0.28541 0.24889
 O841 O 0.20242 0.21808 0.21309
 O842 O 0.29133 0.28046 0.29503
 C843 C 0.24182 0.20591 0.13188
 C844 C 0.17570 0.13940 0.24262
 C845 C 0.12810 0.26085 0.19955
 C846 C 0.27116 0.29229 0.37536
 C847 C 0.36672 0.24111 0.30711
 C848 C 0.31431 0.36086 0.27246
 H849 H 0.32387 0.19762 0.25810
 H850 H 0.26559 0.33364 0.21695
 H851 H 0.18352 0.20404 0.19467
 H852 H 0.20852 0.25650 0.33857
 H853 H 0.23348 0.17172 0.35665
 H854 H 0.17095 0.19030 0.33836
 H855 H 0.32622 0.32596 0.18007
 H856 H 0.26649 0.31226 0.14271
 H857 H 0.31235 0.16274 0.35028
 H858 H 0.27393 0.10990 0.23507
 H859 H 0.21712 0.37334 0.24567
 H860 H 0.17702 0.33932 0.19742
 H861 H 0.31981 0.17903 0.17913
 H862 H 0.36344 0.22474 0.20442
 H863 H 0.13313 0.28324 0.29764
 H864 H 0.18248 0.31875 0.34356
 O865 O 0.81603 0.65839 0.23957
 O866 O 0.82724 0.69313 0.17807
 O867 O 0.84350 0.74744 0.32900
 O868 O 0.81899 0.80427 0.35213
 O869 O 0.73011 0.67538 0.33290
 O870 O 0.66814 0.67955 0.29646
 O871 O 0.75152 0.87638 0.23379
 O872 O 0.81465 0.86582 0.26294
 O873 O 0.73464 0.79734 0.14105
 O874 O 0.74100 0.72845 0.12981
 O875 O 0.64505 0.80070 0.23340
 O876 O 0.64168 0.78018 0.30260
 O877 O 0.69103 0.85741 0.25948
 O878 O 0.67834 0.82146 0.32705
 O879 O 0.66495 0.77197 0.17486
 O880 O 0.69375 0.70394 0.15866
 O881 O 0.77527 0.84281 0.17224
 O882 O 0.84044 0.82902 0.20592
 O883 O 0.75588 0.64064 0.26697
 O884 O 0.68814 0.65322 0.24337
 O885 O 0.77109 0.72020 0.36453
 O886 O 0.75908 0.79467 0.36916
 O887 O 0.86080 0.71403 0.27207
 O888 O 0.86465 0.74458 0.20466
 Zr889 Zr 0.81196 0.72171 0.23283
 O890 O 0.78460 0.76732 0.19790
 Zr891 Zr 0.78263 0.76395 0.31883
 O892 O 0.75452 0.81171 0.28693
 Zr893 Zr 0.72520 0.69563 0.27326
 O894 O 0.69412 0.74010 0.24045
 Zr895 Zr 0.78233 0.82096 0.23109
 O896 O 0.81368 0.77659 0.26488
 Zr897 Zr 0.72431 0.75271 0.18609
 O898 O 0.75309 0.70451 0.21712
 Zr899 Zr 0.69535 0.79500 0.27175
 O900 O 0.72199 0.74870 0.30738
 O901 O 0.78433 0.70995 0.28784
 O902 O 0.72260 0.80725 0.21660
 C903 C 0.79101 0.63204 0.25360
 C904 C 0.86871 0.72784 0.30722
 C905 C 0.74880 0.68834 0.36419
 C906 C 0.71530 0.88408 0.24487
 C907 C 0.75618 0.82974 0.14127
 C908 C 0.63832 0.78829 0.19740
 H909 H 0.80007 0.77110 0.17274
 H910 H 0.66651 0.72974 0.23618
 H911 H 0.79837 0.68898 0.30392
 H912 H 0.75538 0.83671 0.30294
 H913 H 0.83812 0.85224 0.27547
 H914 H 0.81929 0.82992 0.33679
 H915 H 0.66962 0.69798 0.17503
 H916 H 0.70071 0.64804 0.21691
 H917 H 0.84246 0.85713 0.19574
 H918 H 0.88608 0.72386 0.20626
 H919 H 0.63115 0.75500 0.29070
 H920 H 0.66187 0.69928 0.31775
 H921 H 0.80279 0.67908 0.16824
 H922 H 0.77073 0.72849 0.12887
 H923 H 0.73158 0.78401 0.37359
 H924 H 0.69641 0.84459 0.33233
 O925 O 0.66258 0.23829 0.83577
 O926 O 0.68785 0.17397 0.83553
 O927 O 0.76812 0.31356 0.85504
 O928 O 0.82653 0.32530 0.82597
 O929 O 0.68299 0.34229 0.76082
 O930 O 0.67220 0.31735 0.69408
 O931 O 0.86627 0.22020 0.73858
 O932 O 0.86750 0.23063 0.80545
 O933 O 0.76692 0.13658 0.72336
 O934 O 0.69541 0.13847 0.73936
 O935 O 0.78132 0.23455 0.64448
 O936 O 0.76664 0.30337 0.64538
 O937 O 0.84445 0.25747 0.68487
 O938 O 0.81030 0.32574 0.68178
 O939 O 0.74406 0.17974 0.66177
 O940 O 0.67683 0.17340 0.69408
 O941 O 0.82526 0.15350 0.75513
 O942 O 0.82594 0.17606 0.82581
 O943 O 0.64252 0.27613 0.78179
 O944 O 0.64065 0.26529 0.70985
 O945 O 0.74022 0.35901 0.79456
 O946 O 0.81038 0.35551 0.77123
 O947 O 0.73335 0.25767 0.87451
 O948 O 0.74819 0.18555 0.86459
 Zr949 Zr 0.72311 0.22522 0.82068
 O950 O 0.75661 0.18852 0.78168
 Zr951 Zr 0.77520 0.30669 0.79292
 O952 O 0.81116 0.27291 0.75424
 Zr953 Zr 0.69219 0.28200 0.74354
 O954 O 0.72462 0.24778 0.70148
 Zr955 Zr 0.81460 0.21287 0.77428
 O956 O 0.78241 0.24792 0.81618
 Zr957 Zr 0.73147 0.18877 0.72345
 O958 O 0.69503 0.22188 0.76351
 Zr959 Zr 0.78372 0.26966 0.69708
 O960 O 0.74937 0.30763 0.73477
 O961 O 0.71729 0.28457 0.80101
 O962 O 0.79018 0.21000 0.71611
 C963 C 0.63598 0.25857 0.81583
 C964 C 0.75204 0.29087 0.88196
 C965 C 0.70549 0.36746 0.77993
 C966 C 0.87211 0.23961 0.70533
 C967 C 0.80207 0.12816 0.73727
 C968 C 0.76435 0.20072 0.63618
 H969 H 0.75785 0.16103 0.79334
 H970 H 0.71072 0.24838 0.67505
 H971 H 0.70162 0.30085 0.82023
 H972 H 0.83784 0.28612 0.75340
 H973 H 0.85879 0.24160 0.83168
 H974 H 0.84896 0.30764 0.81803
 H975 H 0.67156 0.19393 0.67294
 H976 H 0.63425 0.23716 0.71767
 H977 H 0.85155 0.16142 0.82167
 H978 H 0.73294 0.18816 0.89010
 H979 H 0.73699 0.30199 0.64330
 H980 H 0.69472 0.33564 0.68699
 H981 H 0.67110 0.16785 0.81154
 H982 H 0.70558 0.12780 0.76541
 H983 H 0.79613 0.36693 0.74747
 H984 H 0.83469 0.32901 0.69874
 N985 N 0.03504 0.99668 1.18754
 N986 N 0.05374 0.99145 1.22250
 C987 C 0.09369 0.99006 1.21511
 C988 C 0.09870 0.99539 1.17378
 N989 N 0.06139 0.99940 1.15793
 H990 H 0.12662 0.99846 1.15738
 N991 N 0.61161 0.44998 0.65990
 N992 N 0.62682 0.44836 0.69668
 C993 C 0.61172 0.47976 0.71727
 C994 C 0.58656 0.50109 0.69115
 N995 N 0.58778 0.48154 0.65580
 H996 H 0.57170 0.52952 0.69642
 N997 N 0.42556 -0.05146 0.67304
 N998 N 0.41278 -0.04910 0.71037
 C999 C 0.39051 -0.01540 0.71302
 C1000 C 0.39011 0.00314 0.67494
 N1001 N 0.41253 -0.02076 0.65099
 H1002 H 0.37689 0.03169 0.66628
 N1003 N -0.13213 0.49627 1.14557
 N1004 N -0.14804 0.50085 1.18150
 C1005 C -0.11745 0.50372 1.20828
 C1006 C -0.08159 0.49927 1.18716
 N1007 N -0.09247 0.49499 1.14811
 H1008 H -0.05102 0.50001 1.19847
 N1009 N -0.03485 0.54018 0.30311
 N1010 N -0.05497 0.53356 0.26903
 C1011 C -0.09267 0.52307 0.27975
 C1012 C -0.09517 0.52462 0.32125
 N1013 N -0.05856 0.53473 0.33476
 H1014 H -0.12028 0.51518 0.33980
 N1015 N 0.45909 1.02863 -0.19292
 N1016 N 0.43926 1.02261 -0.22720
 C1017 C 0.40164 1.01063 -0.21742
 C1018 C 0.39905 1.01045 -0.17564
 N1019 N 0.43561 1.02112 -0.16159
 H1020 H 0.37396 1.00048 -0.15736
 N1021 N 0.53866 0.48807 -0.18459
 N1022 N 0.55709 0.49313 -0.21953
 C1023 C 0.59649 0.49949 -0.21154
 C1024 C 0.60137 0.49792 -0.16976
 N1025 N 0.56473 0.49011 -0.15434
 H1026 H 0.62920 0.49925 -0.15267
 N1027 N 0.07938 -0.06496 0.32702
 N1028 N 0.09382 -0.06014 0.29028
 C1029 C 0.10800 -0.02205 0.28748
 C1030 C 0.10243 -0.00388 0.32473
 N1031 N 0.08450 -0.03180 0.34832
 H1032 H 0.10837 0.02703 0.33311
 N1033 N 0.18992 1.05448 1.04926
 N1034 N 0.22474 1.07344 1.04493
 C1035 C 0.21893 1.10339 1.01759
 C1036 C 0.17911 1.10213 1.00557
 N1037 N 0.16229 1.07154 1.02602
 H1038 H 0.16381 1.12021 0.98305
 N1039 N 0.70277 0.53128 0.52677
 N1040 N 0.73657 0.55286 0.52441
 C1041 C 0.72572 0.59122 0.51602
 C1042 C 0.68406 0.59218 0.51370
 N1043 N 0.67090 0.55438 0.52002
 H1044 H 0.66539 0.61772 0.50566
 N1045 N 0.64775 0.36360 0.01691
 N1046 N 0.68506 0.35054 0.02067
 C1047 C 0.70964 0.37997 0.00688
 C1048 C 0.68549 0.41163 -0.00643
 N1049 N 0.64722 0.40007 0.00061
 H1050 H 0.69446 0.44030 -0.01927
 N1051 N 0.14637 -0.13286 0.51153
 N1052 N 0.18356 -0.14658 0.51091
 C1053 C 0.20750 -0.11666 0.49699
 C1054 C 0.18294 -0.08366 0.48851
 N1055 N 0.14515 -0.09524 0.49830
 H1056 H 0.19135 -0.05447 0.47648
 N1057 N 0.30246 -0.02821 0.49604
 N1058 N 0.26815 -0.04840 0.49274
 C1059 C 0.27695 -0.08587 0.47984
 C1060 C 0.31857 -0.08738 0.47512
 N1061 N 0.33320 -0.05142 0.48652
 H1062 H 0.33660 -0.11409 0.47066
 N1063 N -0.19886 0.47201 1.00158
 N1064 N -0.23208 0.44983 1.00218
 C1065 C -0.22212 0.41202 0.99109
 C1066 C -0.18100 0.41218 0.98397
 N1067 N -0.16772 0.44973 0.99131
 H1068 H -0.16192 0.38615 0.97994
 N1069 N -0.13872 0.62910 0.51953
 N1070 N -0.17532 0.64307 0.52560
 C1071 C -0.20161 0.61754 0.50787
 C1072 C -0.17901 0.58731 0.48967
 N1073 N -0.13990 0.59581 0.49787
 H1074 H -0.18991 0.56195 0.47239
 N1075 N 0.31724 1.05532 -0.03703
 N1076 N 0.28212 1.07293 -0.03304
 C1077 C 0.28729 1.10380 -0.00728
 C1078 C 0.32754 1.10453 0.00460
 N1079 N 0.34497 1.07364 -0.01500
 H1080 H 0.34233 1.12485 0.02536
 N1081 N 0.03992 1.18824 1.05544
 N1082 N 0.03480 1.22383 1.07197
 C1083 C 0.00724 1.21922 1.10129
 C1084 C -0.00452 1.17871 1.10207
 N1085 N 0.01695 1.16057 1.07291
 H1086 H -0.02672 1.16426 1.12113
 N1087 N 0.55044 0.68589 0.55350
 N1088 N 0.53981 0.72181 0.56645
 C1089 C 0.51327 0.71592 0.59662
 C1090 C 0.50867 0.67470 0.60227
 N1091 N 0.53258 0.65719 0.57481
 H1092 H 0.48939 0.65909 0.62351
 N1093 N 0.06416 0.66102 0.41089
 N1094 N 0.06203 0.69381 0.38819
 C1095 C 0.02411 0.70772 0.39101
 C1096 C 0.00313 0.68223 0.41687
 N1097 N 0.02932 0.65380 0.42870
 H1098 H -0.02875 0.68241 0.42344
 N1099 N 0.45049 1.17034 -0.06653
 N1100 N 0.45042 1.20539 -0.08502
 C1101 C 0.48676 1.21076 -0.10255
 C1102 C 0.50943 1.17648 -0.09430
 N1103 N 0.48540 1.15253 -0.07155
 H1104 H 0.54003 1.16972 -0.10242
 N1105 N 0.49063 0.30896 -0.03240
 N1106 N 0.48982 0.27448 -0.05169
 C1107 C 0.48813 0.28300 -0.09158
 C1108 C 0.48765 0.32475 -0.09594
 N1109 N 0.48976 0.33943 -0.05824
 H1110 H 0.48891 0.34248 -0.12344
 N1111 N -0.01753 -0.19717 0.45397
 N1112 N -0.01792 -0.23158 0.43425
 C1113 C -0.00230 -0.22403 0.39743
 C1114 C 0.00704 -0.18343 0.39497
 N1115 N -0.00255 -0.16820 0.43094
 H1116 H 0.02084 -0.16694 0.37034
 N1117 N 0.45191 -0.18820 0.54403
 N1118 N 0.45818 -0.22336 0.56215
 C1119 C 0.48322 -0.21665 0.59373
 C1120 C 0.49179 -0.17583 0.59438
 N1121 N 0.47162 -0.15930 0.56310
 H1122 H 0.51154 -0.15975 0.61476
 N1123 N -0.05133 0.31732 1.04984
 N1124 N -0.04728 0.28259 1.06947
 C1125 C -0.01989 0.28821 1.09925
 C1126 C -0.00736 0.32818 1.09698
 N1127 N -0.02771 0.34517 1.06589
 H1128 H 0.01500 0.34323 1.11539
 N1129 N 0.79744 0.37552 0.10639
 N1130 N 0.79310 0.39131 0.06995
 C1131 C 0.77047 0.36542 0.04799
 C1132 C 0.76136 0.33277 0.07267
 N1133 N 0.77902 0.34027 0.10841
 H1134 H 0.74163 0.30755 0.06638
 N1135 N 0.29250 0.87387 0.59423
 N1136 N 0.28891 0.89101 0.55835
 C1137 C 0.26910 0.86495 0.53395
 C1138 C 0.26070 0.83076 0.55682
 N1139 N 0.27601 0.83768 0.59382
 H1140 H 0.24235 0.80505 0.54866
 N1141 N 0.72403 0.71697 0.55865
 N1142 N 0.72775 0.69676 0.52441
 C1143 C 0.74323 0.66034 0.53404
 C1144 C 0.74855 0.65903 0.57557
 N1145 N 0.73642 0.69485 0.58975
 H1146 H 0.76059 0.63445 0.59353
 N1147 N 0.25723 0.22137 0.06170
 N1148 N 0.26342 0.20229 0.02735
 C1149 C 0.26108 0.16226 0.03510
 C1150 C 0.25344 0.15785 0.07608
 N1151 N 0.25039 0.19515 0.09110
 H1152 H 0.24746 0.13041 0.09283
 N1153 N 0.20544 0.19018 0.92309
 N1154 N 0.20713 0.17705 0.96085
 C1155 C 0.23943 0.15258 0.96386
 C1156 C 0.25794 0.15198 0.92641
 N1157 N 0.23524 0.17484 0.90196
 H1158 H 0.28572 0.13750 0.91786
 N1159 N 0.72151 0.63162 0.40031
 N1160 N 0.72138 0.61475 0.43642
 C1161 C 0.74429 0.63788 0.46085
 C1162 C 0.75918 0.66978 0.43766
 N1163 N 0.74393 0.66459 0.40016
 H1164 H 0.77921 0.69378 0.44699
 N1165 N 0.24728 0.78599 0.43434
 N1166 N 0.25197 0.80466 0.46920
 C1167 C 0.25728 0.84422 0.46101
 C1168 C 0.25479 0.84907 0.41930
 N1169 N 0.24856 0.81208 0.40400
 H1170 H 0.25508 0.87694 0.40213
 N1171 N 0.75374 0.27934 0.95463
 N1172 N 0.75724 0.30051 0.98818
 C1173 C 0.76214 0.33961 0.97737
 C1174 C 0.76064 0.34155 0.93573
 N1175 N 0.75543 0.30359 0.92289
 H1176 H 0.76042 0.36827 0.91678
 N1177 N 0.87657 0.40395 0.29022
 N1178 N 0.89077 0.44120 0.28941
 C1179 C 0.86491 0.46377 0.26715
 C1180 C 0.83445 0.43855 0.25386
 N1181 N 0.84298 0.40171 0.26884
 H1182 H 0.80959 0.44588 0.23390
 N1183 N 0.35621 0.89537 0.79463
 N1184 N 0.37117 0.93223 0.79691
 C1185 C 0.35309 0.95483 0.76797
 C1186 C 0.32632 0.92976 0.74756
 N1187 N 0.32959 0.89311 0.76496
 H1188 H 0.30917 0.93663 0.72051
 N1189 N 0.21875 0.94442 0.26255
 N1190 N 0.19820 0.97854 0.26034
 C1191 C 0.16306 0.97080 0.24105
 C1192 C 0.16299 0.92994 0.23204
 N1193 N 0.19776 0.91466 0.24636
 H1194 H 0.13791 0.91228 0.22082
 N1195 N 0.71579 0.43854 0.79292
 N1196 N 0.69688 0.47310 0.78679
 C1197 C 0.65942 0.46396 0.77358
 C1198 C 0.65573 0.42243 0.77324
 N1199 N 0.69174 0.40788 0.78438
 H1200 H 0.63041 0.40461 0.76282
 N1201 N 0.69396 0.56759 0.71038
 N1202 N 0.68090 0.53067 0.71681
 C1203 C 0.65214 0.53247 0.74530
 C1204 C 0.64767 0.57273 0.75599
 N1205 N 0.67452 0.59346 0.73319
 H1206 H 0.62784 0.58538 0.77833
 N1207 N 0.11516 0.10251 0.25769
 N1208 N 0.10156 0.06530 0.26131
 C1209 C 0.13180 0.04035 0.25128
 C1210 C 0.16465 0.06420 0.24021
 N1211 N 0.15277 0.10276 0.24488
 H1212 H 0.19394 0.05468 0.22995
 N1213 N 0.27953 0.05411 0.75459
 N1214 N 0.29815 0.01898 0.75500
 C1215 C 0.33743 0.02642 0.74796
 C1216 C 0.34215 0.06785 0.74308
 N1217 N 0.30529 0.08386 0.74776
 H1218 H 0.36987 0.08463 0.73921
 N1219 N 0.78176 0.56109 0.27208
 N1220 N 0.80261 0.52703 0.27316
 C1221 C 0.83916 0.53557 0.25768
 C1222 C 0.83984 0.57597 0.24699
 N1223 N 0.80358 0.59075 0.25637
 H1224 H 0.86469 0.59298 0.23437
 N1225 N 0.93559 0.22198 0.21298
 N1226 N 0.96912 0.22146 0.19156
 C1227 C 0.96189 0.24220 0.15700
 C1228 C 0.92228 0.25518 0.15802
 N1229 N 0.90730 0.24220 0.19338
 H1230 H 0.90637 0.27380 0.13630
 N1231 N 0.43513 0.72130 0.70599
 N1232 N 0.47022 0.72125 0.68725
 C1233 C 0.46412 0.73712 0.65002
 C1234 C 0.42352 0.74651 0.64668
 N1235 N 0.40689 0.73650 0.68216
 H1236 H 0.40797 0.76151 0.62209
 N1237 N 0.43775 0.22907 0.78836
 N1238 N 0.47257 0.23616 0.80634
 C1239 C 0.46459 0.25222 0.84274
 C1240 C 0.42298 0.25427 0.84646
 N1241 N 0.40766 0.23893 0.81220
 H1242 H 0.40577 0.26288 0.87263
 N1243 N 0.93263 0.69353 0.30616
 N1244 N 0.96962 0.69735 0.32052
 C1245 C 0.96943 0.72872 0.34615
 C1246 C 0.93050 0.74378 0.34739
 N1247 N 0.90865 0.72087 0.32199
 H1248 H 0.91969 0.76990 0.36336
 N1249 N 0.06131 0.77768 0.27866
 N1250 N 0.02734 0.76868 0.29751
 C1251 C 0.03705 0.75909 0.33604
 C1252 C 0.07835 0.76401 0.34025
 N1253 N 0.09233 0.77475 0.30372
 H1254 H 0.09682 0.75819 0.36662
 N1255 N 0.57645 0.29777 0.82230
 N1256 N 0.53994 0.29614 0.83725
 C1257 C 0.53606 0.26113 0.85791
 C1258 C 0.57289 0.24102 0.85511
 N1259 N 0.59693 0.26527 0.83252
 H1260 H 0.58120 0.21169 0.86652
 N1261 N 0.56498 0.79399 0.69678
 N1262 N 0.53004 0.79308 0.67729
 C1263 C 0.53312 0.76483 0.64830
 C1264 C 0.57142 0.74839 0.65106
 N1265 N 0.58996 0.76741 0.68130
 H1266 H 0.58417 0.72375 0.63424
 N1267 N 0.06392 0.29562 0.20143
 N1268 N 0.02865 0.29541 0.18256
 C1269 C 0.03099 0.26818 0.15254
 C1270 C 0.06948 0.25179 0.15383
 N1271 N 0.08872 0.26974 0.18452
 H1272 H 0.08171 0.22761 0.13602
 N1273 N -0.02988 1.00069 0.79622
 N1274 N -0.05199 0.99733 0.76310
 C1275 C -0.09049 1.00511 0.77329
 C1276 C -0.09102 1.01360 0.81411
 N1277 N -0.05280 1.01012 0.82719
 H1278 H -0.11708 1.01777 0.83306
 N1279 N 0.40175 0.55429 0.34613
 N1280 N 0.38333 0.55263 0.31081
 C1281 C 0.39497 0.51818 0.29299
 C1282 C 0.42158 0.49873 0.31900
 N1283 N 0.42458 0.52216 0.35166
 H1284 H 0.43421 0.46888 0.31609
 N1285 N 0.62675 -0.01142 0.35599
 N1286 N 0.64187 -0.01537 0.31966
 C1287 C 0.61474 -0.00059 0.29307
 C1288 C 0.58211 0.01375 0.31521
 N1289 N 0.59107 0.00604 0.35440
 H1290 H 0.55505 0.02815 0.30402
 N1291 N 0.04776 0.53709 0.81423
 N1292 N 0.06122 0.53090 0.77759
 C1293 C 0.09208 0.50483 0.78065
 C1294 C 0.09722 0.49519 0.82151
 N1295 N 0.06872 0.51633 0.84125
 H1296 H 0.11899 0.47506 0.83521
 N1297 N 0.03437 0.45190 0.68492
 N1298 N 0.05130 0.46012 0.72019
 C1299 C 0.08853 0.47453 0.71243
 C1300 C 0.09420 0.47348 0.67109
 N1301 N 0.05947 0.46013 0.65507
 H1302 H 0.11947 0.48537 0.65424
 N1303 N 0.53622 0.96670 0.19544
 N1304 N 0.55571 0.97392 0.22980
 C1305 C 0.59179 0.98976 0.21974
 C1306 C 0.59378 0.99142 0.17804
 N1307 N 0.55865 0.97695 0.16400
 H1308 H 0.61806 1.00339 0.15983
 N1309 N 0.46568 0.48709 0.19870
 N1310 N 0.44462 0.48237 0.23217
 C1311 C 0.40657 0.49420 0.22389
 C1312 C 0.40512 0.50616 0.18376
 N1313 N 0.44260 0.50172 0.16950
 H1314 H 0.37977 0.51811 0.16692
 N1315 N -0.12332 -0.03916 0.64476
 N1316 N -0.13684 -0.04244 0.68199
 C1317 C -0.11417 -0.01793 0.70522
 C1318 C -0.08684 0.00173 0.68009
 N1319 N -0.09350 -0.01274 0.64291
 H1320 H -0.06599 0.02569 0.68760
 N1321 N -0.18689 0.96801 0.95837
 N1322 N -0.22156 0.94961 0.96581
 C1323 C -0.21269 0.91356 0.98278
 C1324 C -0.17119 0.91040 0.98492
 N1325 N -0.15631 0.94497 0.96958
 H1326 H -0.15374 0.88608 0.99805
 N1327 N 0.30606 0.47276 0.47528
 N1328 N 0.27264 0.45055 0.47405
 C1329 C 0.28266 0.41340 0.48756
 C1330 C 0.32320 0.41379 0.49710
 N1331 N 0.33664 0.45119 0.48940
 H1332 H 0.34093 0.38921 0.50934
 N1333 N 0.34077 0.56450 -0.03695
 N1334 N 0.30396 0.57785 -0.04333
 C1335 C 0.29427 0.60133 -0.01176
 C1336 C 0.32709 0.60185 0.01462
 N1337 N 0.35527 0.57864 -0.00268
 H1338 H 0.33026 0.61723 0.04312
 N1339 N -0.18733 0.05348 0.45586
 N1340 N -0.22188 0.07270 0.45954
 C1341 C -0.21651 0.10127 0.48796
 C1342 C -0.17708 0.09877 0.50162
 N1343 N -0.16017 0.06890 0.48060
 H1344 H -0.16274 0.11520 0.52589
 N1345 N 0.69084 0.03910 0.53407
 N1346 N 0.72473 0.06027 0.53470
 C1347 C 0.71668 0.09671 0.51791
 C1348 C 0.67630 0.09704 0.50743
 N1349 N 0.66171 0.06072 0.51753
 H1350 H 0.65948 0.12021 0.49167
 N1351 N 0.19200 0.53379 0.99238
 N1352 N 0.22736 0.55201 0.99217
 C1353 C 0.22066 0.59209 0.99364
 C1354 C 0.17924 0.59773 0.99528
 N1355 N 0.16270 0.56051 0.99411
 H1356 H 0.16292 0.62589 0.99552
 N1357 N 0.15070 0.37194 0.46317
 N1358 N 0.18856 0.36028 0.46091
 C1359 C 0.21077 0.38538 0.48411
 C1360 C 0.18465 0.41275 0.50128
 N1361 N 0.14763 0.40306 0.48754
 H1362 H 0.19171 0.43636 0.52256
 N1363 N 0.66158 0.91570 -0.04361
 N1364 N 0.69859 0.90218 -0.04730
 C1365 C 0.71433 0.89874 -0.00985
 C1366 C 0.68534 0.91178 0.01734
 N1367 N 0.65300 0.92171 -0.00527
 H1368 H 0.68718 0.91311 0.04992
 N1369 N 0.02512 0.85732 0.87046
 N1370 N 0.02784 0.82072 0.85579
 C1371 C 0.00895 0.79563 0.88168
 C1372 C -0.00627 0.81884 0.91306
 N1373 N 0.00474 0.85721 0.90462
 H1374 H -0.02364 0.80893 0.93883
 N1375 N 0.44979 0.31938 0.45376
 N1376 N 0.45544 0.28357 0.43760
 C1377 C 0.48237 0.28849 0.40762
 C1378 C 0.49281 0.32898 0.40576
 N1379 N 0.47166 0.34704 0.43497
 H1380 H 0.51456 0.34356 0.38629
 N1381 N 0.01831 0.30346 0.53497
 N1382 N 0.02071 0.26989 0.55625
 C1383 C 0.00040 0.27582 0.59080
 C1384 C -0.01467 0.31486 0.59002
 N1385 N -0.00275 0.33082 0.55439
 H1386 H -0.03165 0.33017 0.61302
 N1387 N 0.48660 0.80133 0.03803
 N1388 N 0.48806 0.76770 0.05961
 C1389 C 0.49428 0.77828 0.09853
 C1390 C 0.49567 0.81982 0.10000
 N1391 N 0.49146 0.83270 0.06184
 H1392 H 0.50259 0.83881 0.12552
 N1393 N 0.55349 0.67854 0.06346
 N1394 N 0.55360 0.71358 0.08217
 C1395 C 0.52425 0.71203 0.11027
 C1396 C 0.50603 0.67449 0.10789
 N1397 N 0.52504 0.65502 0.07842
 H1398 H 0.47972 0.66344 0.12364
 N1399 N -0.05409 0.17380 0.55446
 N1400 N -0.05123 0.20830 0.57384
 C1401 C -0.01875 0.20604 0.59852
 C1402 C -0.00175 0.16825 0.59352
 N1403 N -0.02478 0.14941 0.56585
 H1404 H 0.02549 0.15625 0.60689
 N1405 N 0.54348 0.19235 0.45981
 N1406 N 0.53737 0.22752 0.44167
 C1407 C 0.51225 0.22084 0.41017
 C1408 C 0.50356 0.18002 0.40951
 N1409 N 0.52363 0.16348 0.44080
 H1410 H 0.48375 0.16398 0.38913
 N1411 N 0.03845 0.69808 0.96142
 N1412 N 0.03285 0.73257 0.94153
 C1413 C 0.01656 0.72282 0.90549
 C1414 C 0.01302 0.68143 0.90383
 N1415 N 0.02670 0.66713 0.93914
 H1416 H -0.00016 0.66370 0.87981
 N1417 N 0.27201 0.68624 0.90280
 N1418 N 0.28085 0.67265 0.93915
 C1419 C 0.25205 0.64575 0.94943
 C1420 C 0.22507 0.64286 0.91714
 N1421 N 0.23891 0.66892 0.88904
 H1422 H 0.19863 0.62396 0.91424
 N1423 N 0.69737 0.20018 0.44239
 N1424 N 0.70515 0.18286 0.47765
 C1425 C 0.73226 0.15346 0.47101
 C1426 C 0.74045 0.15326 0.42996
 N1427 N 0.71789 0.18258 0.41336
 H1428 H 0.76190 0.13506 0.41388
 N1429 N 0.28405 0.28456 0.44776
 N1430 N 0.27994 0.30622 0.48101
 C1431 C 0.26992 0.34383 0.46892
 C1432 C 0.26894 0.34460 0.42737
 N1433 N 0.27712 0.30715 0.41534
 H1434 H 0.25931 0.36924 0.40803
 N1435 N 0.76749 0.78319 0.95389
 N1436 N 0.76727 0.80682 0.98613
 C1437 C 0.76202 0.84498 0.97259
 C1438 C 0.75968 0.84374 0.93103
 N1439 N 0.76261 0.80499 0.92059
 H1440 H 0.75532 0.86874 0.91029
 N1441 N 0.78386 0.88551 0.10339
 N1442 N 0.78568 0.89986 0.06619
 C1443 C 0.76332 0.87531 0.04271
 C1444 C 0.74693 0.84547 0.06741
 N1445 N 0.76084 0.85294 0.10492
 H1446 H 0.72732 0.82081 0.05892
 N1447 N 0.25895 0.38132 0.60304
 N1448 N 0.26401 0.39747 0.56707
 C1449 C 0.25566 0.36862 0.53982
 C1450 C 0.24369 0.33412 0.56072
 N1451 N 0.24677 0.34349 0.60009
 H1452 H 0.23439 0.30530 0.54875
 N1453 N 0.79281 0.20250 0.56874
 N1454 N 0.78996 0.18342 0.53389
 C1455 C 0.76310 0.15316 0.53877
 C1456 C 0.74949 0.15455 0.57835
 N1457 N 0.76878 0.18577 0.59585
 H1458 H 0.72704 0.13560 0.59259
 N1459 N 0.25815 0.71295 0.05085
 N1460 N 0.25530 0.69463 0.01581
 C1461 C 0.25315 0.65455 0.02312
 C1462 C 0.25427 0.64905 0.06474
 N1463 N 0.25780 0.68630 0.08060
 H1464 H 0.25402 0.62096 0.08154
 N1465 N 0.12604 0.59195 0.69557
 N1466 N 0.11085 0.55515 0.69685
 C1467 C 0.13014 0.53494 0.72675
 C1468 C 0.15728 0.56132 0.74442
 N1469 N 0.15378 0.59624 0.72393
 H1470 H 0.17610 0.55624 0.77073
 N1471 N 0.61919 0.11035 0.22406
 N1472 N 0.60667 0.07277 0.21981
 C1473 C 0.63216 0.04892 0.24100
 C1474 C 0.66060 0.07377 0.25914
 N1475 N 0.65128 0.11176 0.24778
 H1476 H 0.68509 0.06511 0.27901
 N1477 N 0.79217 0.05936 0.71660
 N1478 N 0.80943 0.02375 0.71989
 C1479 C 0.84439 0.02898 0.74020
 C1480 C 0.84817 0.06960 0.74902
 N1481 N 0.81490 0.08730 0.73361
 H1482 H 0.87235 0.08466 0.76497
 N1483 N 0.28260 0.55199 0.22744
 N1484 N 0.30276 0.51820 0.23450
 C1485 C 0.34171 0.52854 0.24058
 C1486 C 0.34461 0.56999 0.23597
 N1487 N 0.30716 0.58345 0.22872
 H1488 H 0.37094 0.58879 0.24045
 N1489 N 0.32194 0.42180 0.30956
 N1490 N 0.33538 0.45895 0.30533
 C1491 C 0.35582 0.46079 0.27034
 C1492 C 0.35451 0.42257 0.25309
 N1493 N 0.33305 0.39924 0.27889
 H1494 H 0.36564 0.41350 0.22393
 N1495 N 0.80598 0.93241 0.80686
 N1496 N 0.82270 0.96759 0.79785
 C1497 C 0.85054 0.96088 0.76911
 C1498 C 0.85103 0.91980 0.76185
 N1499 N 0.82253 0.90336 0.78556
 H1500 H 0.86841 0.90374 0.73967
 N1501 N 0.72165 0.95676 0.22977
 N1502 N 0.69868 0.98956 0.22964
 C1503 C 0.66121 0.97756 0.24001
 C1504 C 0.66223 0.93632 0.24635
 N1505 N 0.70028 0.92453 0.24013
 H1506 H 0.63770 0.91706 0.25608
 N1507 N 0.21115 0.44284 0.74348
 N1508 N 0.19018 0.47661 0.74468
 C1509 C 0.15134 0.46630 0.75094
 C1510 C 0.14939 0.42461 0.75356
 N1511 N 0.18714 0.41131 0.74817
 H1512 H 0.12274 0.40586 0.75554
 N1513 N 0.04686 0.72529 0.77603
 N1514 N 0.01441 0.72909 0.79899
 C1515 C 0.02758 0.74064 0.83579
 C1516 C 0.06893 0.74332 0.83461
 N1517 N 0.07979 0.73385 0.79707
 H1518 H 0.08903 0.75265 0.85866
 N1519 N 0.55745 0.28873 0.29872
 N1520 N 0.52331 0.28825 0.31910
 C1521 C 0.53019 0.26744 0.35369
 C1522 C 0.57010 0.25559 0.35389
 N1523 N 0.58563 0.26917 0.31913
 H1524 H 0.58584 0.23708 0.37584
 N1525 N 0.56790 0.80754 0.20164
 N1526 N 0.53287 0.79647 0.18591
 C1527 C 0.54064 0.76939 0.15671
 C1528 C 0.58196 0.76495 0.15472
 N1529 N 0.59772 0.78927 0.18299
 H1530 H 0.59904 0.74463 0.13616
 N1531 N 0.07948 0.21255 0.68551
 N1532 N 0.04529 0.20440 0.66664
 C1533 C 0.03776 0.23543 0.64117
 C1534 C 0.06884 0.26344 0.64577
 N1535 N 0.09367 0.24806 0.67401
 H1536 H 0.07212 0.29268 0.63146
 N1537 N 0.94389 0.24493 0.71631
 N1538 N 0.97735 0.24881 0.69529
 C1539 C 0.96699 0.25070 0.65575
 C1540 C 0.92533 0.24862 0.65361
 N1541 N 0.91250 0.24399 0.69176
 H1542 H 0.90640 0.24737 0.62698
 N1543 N 0.44284 0.70806 0.20776
 N1544 N 0.47881 0.71333 0.19164
 C1545 C 0.47385 0.73708 0.15876
 C1546 C 0.43329 0.74599 0.15512
 N1547 N 0.41515 0.72721 0.18621
 H1548 H 0.41853 0.76451 0.13248
 N1549 N 0.43281 0.21052 0.30536
 N1550 N 0.46748 0.21235 0.32517
 C1551 C 0.46257 0.23857 0.35577
 C1552 C 0.42337 0.25264 0.35396
 N1553 N 0.40623 0.23448 0.32230
 H1554 H 0.40916 0.27535 0.37223
 N1555 N 0.89712 0.72725 0.87963
 N1556 N 0.93428 0.72627 0.89365
 C1557 C 0.95779 0.74470 0.86600
 C1558 C 0.93327 0.75801 0.83459
 N1559 N 0.89577 0.74605 0.84435
 H1560 H 0.94180 0.77425 0.80752
   
