data_POSCAR
  _audit_creation_date              2014-09-24
  _audit_creation_method            'ToBaCCo'
  _symmetry_space_group_name_H-M    'P1'
  _symmetry_Int_Tables_number       1
  _symmetry_cell_setting            triclinic
  loop_
  _symmetry_equiv_pos_as_xyz
 x,y,z
_cell_length_a 65.2238
_cell_length_b 65.3534
_cell_length_c 65.6010
_cell_angle_alpha 89.920400
_cell_angle_beta 89.893900
_cell_angle_gamma 89.972400
loop_
  _atom_site_label
  _atom_site_type_symbol
  _atom_site_fract_x
  _atom_site_fract_y
  _atom_site_fract_z
N1 N 0.37433 0.31752 0.33239
 N2 N 0.37366 0.33133 0.31785
 C3 C 0.38885 0.32762 0.30444
 C4 C 0.39960 0.31045 0.31079
 C5 C 0.38991 0.30453 0.32869
 H6 H 0.39141 0.33641 0.29072
 H7 H 0.39333 0.29127 0.33794
 Cu8 Cu 0.35223 0.35202 0.31690
 Cu9 Cu 0.35393 0.31639 0.35403
 Cu10 Cu 0.31645 0.35396 0.35396
 N11 N 0.33152 0.37345 0.31770
 N12 N 0.31767 0.37424 0.33223
 C13 C 0.30465 0.38977 0.32839
 C14 C 0.31060 0.39928 0.31041
 C15 C 0.32781 0.38849 0.30416
 H16 H 0.29135 0.39325 0.33759
 H17 H 0.33662 0.39092 0.29042
 N18 N 0.31773 0.33210 0.37465
 N19 N 0.33199 0.31779 0.37464
 C20 C 0.32802 0.30442 0.38977
 C21 C 0.31035 0.31051 0.39985
 C22 C 0.30432 0.32820 0.38979
 H23 H 0.33696 0.29082 0.39269
 H24 H 0.29074 0.33718 0.39276
 H25 H 0.33045 0.33041 0.33817
 H26 H 0.34756 0.34743 0.35346
 N27 N 0.37506 0.81870 -0.16750
 N28 N 0.37311 0.83123 -0.18304
 C29 C 0.38719 0.82645 -0.19728
 C30 C 0.39867 0.80991 -0.19040
 C31 C 0.39046 0.80551 -0.17130
 H32 H 0.38857 0.83424 -0.21173
 H33 H 0.39496 0.79344 -0.16097
 Cu34 Cu 0.35196 0.85219 -0.18351
 Cu35 Cu 0.35710 0.82012 -0.14374
 Cu36 Cu 0.31629 0.85412 -0.14664
 N37 N 0.33121 0.87356 -0.18303
 N38 N 0.31724 0.87414 -0.16862
 C39 C 0.30412 0.88956 -0.17244
 C40 C 0.31004 0.89921 -0.19041
 C41 C 0.32746 0.88859 -0.19656
 H42 H 0.29092 0.89295 -0.16307
 H43 H 0.33644 0.89112 -0.21017
 N44 N 0.31842 0.83282 -0.12553
 N45 N 0.33404 0.82006 -0.12421
 C46 C 0.33045 0.80675 -0.10892
 C47 C 0.31164 0.81134 -0.10014
 C48 C 0.30455 0.82802 -0.11110
 H49 H 0.34051 0.79421 -0.10500
 H50 H 0.28995 0.83563 -0.10931
 H51 H 0.33255 0.83045 -0.16055
 H52 H 0.34741 0.85050 -0.14662
 N53 N 0.87418 0.31819 -0.16799
 N54 N 0.87389 0.33244 -0.18211
 C55 C 0.88879 0.32854 -0.19581
 C56 C 0.89901 0.31085 -0.19000
 C57 C 0.88925 0.30477 -0.17219
 H58 H 0.89153 0.33759 -0.20933
 H59 H 0.89226 0.29115 -0.16334
 Cu60 Cu 0.85316 0.35390 -0.18207
 Cu61 Cu 0.85393 0.31703 -0.14619
 Cu62 Cu 0.81630 0.35452 -0.14611
 N63 N 0.83154 0.37446 -0.18210
 N64 N 0.81732 0.37473 -0.16791
 C65 C 0.80384 0.38975 -0.17202
 C66 C 0.80977 0.39951 -0.18993
 C67 C 0.82756 0.38932 -0.19578
 H68 H 0.79035 0.39274 -0.16294
 H69 H 0.83665 0.39201 -0.20929
 N70 N 0.81784 0.33275 -0.12536
 N71 N 0.83212 0.31846 -0.12541
 C72 C 0.82819 0.30507 -0.11029
 C73 C 0.81051 0.31113 -0.10019
 C74 C 0.80446 0.32882 -0.11020
 H75 H 0.83708 0.29143 -0.10743
 H76 H 0.79087 0.33778 -0.10722
 H77 H 0.83077 0.33146 -0.16225
 H78 H 0.84724 0.34790 -0.14578
 N79 N 0.87411 0.81826 0.33248
 N80 N 0.87381 0.83251 0.31835
 C81 C 0.88889 0.82878 0.30479
 C82 C 0.89923 0.81117 0.31069
 C83 C 0.88938 0.80501 0.32842
 H84 H 0.89167 0.83785 0.29129
 H85 H 0.89247 0.79145 0.33732
 Cu86 Cu 0.85264 0.85351 0.31834
 Cu87 Cu 0.85374 0.81697 0.35427
 Cu88 Cu 0.81608 0.85459 0.35436
 N89 N 0.83147 0.87452 0.31832
 N90 N 0.81728 0.87488 0.33254
 C91 C 0.80390 0.89001 0.32845
 C92 C 0.80984 0.89971 0.31050
 C93 C 0.82758 0.88942 0.30465
 H94 H 0.79044 0.89309 0.33754
 H95 H 0.83664 0.89202 0.29109
 N96 N 0.81756 0.83270 0.37507
 N97 N 0.83181 0.81837 0.37499
 C98 C 0.82787 0.80497 0.39010
 C99 C 0.81022 0.81106 0.40023
 C100 C 0.80418 0.82877 0.39024
 H101 H 0.83675 0.79132 0.39294
 H102 H 0.79060 0.83774 0.39323
 H103 H 0.83035 0.83130 0.33853
 H104 H 0.84695 0.84780 0.35470
 N105 N 0.62627 0.68273 0.33206
 N106 N 0.62701 0.66883 0.31764
 C107 C 0.61206 0.67260 0.30402
 C108 C 0.60132 0.68985 0.31016
 C109 C 0.61082 0.69580 0.32811
 H110 H 0.60956 0.66373 0.29037
 H111 H 0.60732 0.70910 0.33725
 Cu112 Cu 0.64815 0.64787 0.31757
 Cu113 Cu 0.64636 0.68367 0.35405
 Cu114 Cu 0.68416 0.64612 0.35398
 N115 N 0.66928 0.62689 0.31750
 N116 N 0.68324 0.62615 0.33189
 C117 C 0.69634 0.61074 0.32788
 C118 C 0.69032 0.60125 0.30994
 C119 C 0.67302 0.61198 0.30385
 H120 H 0.70965 0.60721 0.33700
 H121 H 0.66408 0.60947 0.29025
 N122 N 0.68240 0.66774 0.37493
 N123 N 0.66805 0.68199 0.37494
 C124 C 0.67179 0.69520 0.39022
 C125 C 0.68940 0.68909 0.40037
 C126 C 0.69561 0.67154 0.39022
 H127 H 0.66279 0.70874 0.39318
 H128 H 0.70922 0.66261 0.39319
 H129 H 0.67006 0.66966 0.33838
 H130 H 0.65322 0.65277 0.35405
 N131 N 0.62618 0.18213 -0.16793
 N132 N 0.62632 0.16777 -0.18191
 C133 C 0.61138 0.17165 -0.19552
 C134 C 0.60126 0.18942 -0.18977
 C135 C 0.61115 0.19558 -0.17213
 H136 H 0.60849 0.16248 -0.20889
 H137 H 0.60816 0.20922 -0.16333
 Cu138 Cu 0.64673 0.14600 -0.18175
 Cu139 Cu 0.64632 0.18313 -0.14614
 Cu140 Cu 0.68373 0.14552 -0.14593
 N141 N 0.66849 0.12557 -0.18178
 N142 N 0.68276 0.12537 -0.16769
 C143 C 0.69634 0.11046 -0.17190
 C144 C 0.69044 0.10072 -0.18977
 C145 C 0.67255 0.11079 -0.19550
 H146 H 0.70986 0.10753 -0.16289
 H147 H 0.66347 0.10813 -0.20898
 N148 N 0.68218 0.16723 -0.12517
 N149 N 0.66796 0.18158 -0.12529
 C150 C 0.67181 0.19491 -0.11014
 C151 C 0.68937 0.18875 -0.09995
 C152 C 0.69544 0.17106 -0.10994
 H153 H 0.66294 0.20857 -0.10733
 H154 H 0.70899 0.16207 -0.10691
 H155 H 0.66934 0.16845 -0.16235
 H156 H 0.65283 0.15222 -0.14557
 N157 N 0.12581 0.68271 -0.16811
 N158 N 0.12640 0.66870 -0.18244
 C159 C 0.11139 0.67245 -0.19600
 C160 C 0.10077 0.68979 -0.18992
 C161 C 0.11040 0.69583 -0.17207
 H162 H 0.10881 0.66352 -0.20959
 H163 H 0.10702 0.70921 -0.16300
 Cu164 Cu 0.14751 0.64769 -0.18255
 Cu165 Cu 0.14604 0.68375 -0.14625
 Cu166 Cu 0.18370 0.64608 -0.14635
 N167 N 0.16861 0.62668 -0.18265
 N168 N 0.18263 0.62600 -0.16832
 C169 C 0.19578 0.61064 -0.17237
 C170 C 0.18974 0.60113 -0.19028
 C171 C 0.17237 0.61178 -0.19630
 H172 H 0.20917 0.60720 -0.16332
 H173 H 0.16341 0.60926 -0.20989
 N174 N 0.18211 0.66778 -0.12550
 N175 N 0.16786 0.68212 -0.12549
 C176 C 0.17179 0.69540 -0.11031
 C177 C 0.18943 0.68924 -0.10025
 C178 C 0.19545 0.67159 -0.11033
 H179 H 0.16289 0.70902 -0.10737
 H180 H 0.20902 0.66259 -0.10740
 H181 H 0.16957 0.66963 -0.16204
 H182 H 0.15278 0.65289 -0.14617
 N183 N 0.12555 0.18211 0.33245
 N184 N 0.12701 0.16902 0.31736
 C185 C 0.11197 0.17280 0.30384
 C186 C 0.10045 0.18926 0.31072
 C187 C 0.10955 0.19467 0.32904
 H188 H 0.11015 0.16467 0.28963
 H189 H 0.10547 0.20735 0.33879
 Cu190 Cu 0.14942 0.14946 0.31554
 Cu191 Cu 0.14580 0.18330 0.35416
 Cu192 Cu 0.18324 0.14578 0.35423
 N193 N 0.16892 0.12702 0.31743
 N194 N 0.18199 0.12554 0.33256
 C195 C 0.19447 0.10947 0.32923
 C196 C 0.18901 0.10034 0.31094
 C197 C 0.17262 0.11193 0.30398
 H198 H 0.20712 0.10534 0.33901
 H199 H 0.16449 0.11011 0.28977
 N200 N 0.18194 0.16766 0.37482
 N201 N 0.16767 0.18196 0.37480
 C202 C 0.17161 0.19532 0.38990
 C203 C 0.18929 0.18923 0.39995
 C204 C 0.19532 0.17155 0.38992
 H205 H 0.16265 0.20890 0.39284
 H206 H 0.20886 0.16252 0.39290
 H207 H 0.17013 0.17006 0.33873
 H208 H 0.15224 0.15230 0.35239
 N209 N 0.62603 0.31762 0.66807
 N210 N 0.62658 0.33167 0.68235
 C211 C 0.61159 0.32794 0.69598
 C212 C 0.60100 0.31058 0.68996
 C213 C 0.61063 0.30451 0.67209
 H214 H 0.60896 0.33690 0.70955
 H215 H 0.60727 0.29111 0.66307
 Cu216 Cu 0.64772 0.35260 0.68242
 Cu217 Cu 0.64621 0.31655 0.64614
 Cu218 Cu 0.68396 0.35408 0.64610
 N219 N 0.66879 0.37358 0.68233
 N220 N 0.68291 0.37414 0.66803
 C221 C 0.69606 0.38948 0.67202
 C222 C 0.68993 0.39908 0.68987
 C223 C 0.67252 0.38851 0.69593
 H224 H 0.70949 0.39284 0.66297
 H225 H 0.66349 0.39115 0.70949
 N226 N 0.68230 0.33240 0.62528
 N227 N 0.66798 0.31815 0.62530
 C228 C 0.67177 0.30493 0.61003
 C229 C 0.68938 0.31106 0.59987
 C230 C 0.69556 0.32861 0.60999
 H231 H 0.66278 0.29139 0.60709
 H232 H 0.70915 0.33755 0.60699
 H233 H 0.66976 0.33063 0.66186
 H234 H 0.65303 0.34742 0.64599
 N235 N 0.62588 0.81779 1.16731
 N236 N 0.62677 0.83143 1.18195
 C237 C 0.61161 0.82776 1.19541
 C238 C 0.60062 0.81079 1.18899
 C239 C 0.61016 0.80495 1.17098
 H240 H 0.60923 0.83642 1.20922
 H241 H 0.60655 0.79183 1.16165
 Cu242 Cu 0.64845 0.85187 1.18305
 Cu243 Cu 0.64632 0.81654 1.14571
 Cu244 Cu 0.68402 0.85380 1.14571
 N245 N 0.66912 0.87332 1.18196
 N246 N 0.68286 0.87415 1.16733
 C247 C 0.69579 0.88976 1.17099
 C248 C 0.68991 0.89930 1.18897
 C249 C 0.67282 0.88842 1.19539
 H250 H 0.70897 0.89333 1.16165
 H251 H 0.66409 0.89082 1.20918
 N252 N 0.68268 0.83191 1.12512
 N253 N 0.66830 0.81773 1.12513
 C254 C 0.67227 0.80425 1.11013
 C255 C 0.69006 0.81013 1.10013
 C256 C 0.69616 0.82781 1.11010
 H257 H 0.66324 0.79072 1.10724
 H258 H 0.70984 0.83666 1.10717
 H259 H 0.66997 0.83033 1.16150
 H260 H 0.65286 0.84762 1.14642
 N261 N 0.12561 0.31820 1.16769
 N262 N 0.12699 0.33141 1.18269
 C263 C 0.11195 0.32770 1.19627
 C264 C 0.10052 0.31115 1.18955
 C265 C 0.10965 0.30562 1.17124
 H266 H 0.11004 0.33597 1.21038
 H267 H 0.10567 0.29281 1.16164
 Cu268 Cu 0.14928 0.35106 1.18436
 Cu269 Cu 0.14591 0.31692 1.14596
 Cu270 Cu 0.18343 0.35436 1.14579
 N271 N 0.16900 0.37327 1.18251
 N272 N 0.18219 0.37463 1.16743
 C273 C 0.19477 0.39059 1.17080
 C274 C 0.18926 0.39975 1.18909
 C275 C 0.17273 0.38832 1.19598
 H276 H 0.20753 0.39460 1.16107
 H277 H 0.16451 0.39021 1.21016
 N278 N 0.18213 0.33246 1.12524
 N279 N 0.16784 0.31819 1.12530
 C280 C 0.17182 0.30478 1.11022
 C281 C 0.18953 0.31082 1.10015
 C282 C 0.19556 0.32850 1.11014
 H283 H 0.16284 0.29122 1.10731
 H284 H 0.20912 0.33749 1.10714
 H285 H 0.17009 0.33023 1.16137
 H286 H 0.15235 0.34794 1.14751
 N287 N 0.12560 0.81779 0.66768
 N288 N 0.12627 0.83164 0.68215
 C289 C 0.11121 0.82783 0.69570
 C290 C 0.10050 0.81061 0.68946
 C291 C 0.11013 0.80472 0.67153
 H292 H 0.10870 0.83659 0.70943
 H293 H 0.10673 0.79146 0.66233
 Cu294 Cu 0.14760 0.85247 0.68251
 Cu295 Cu 0.14587 0.81669 0.64585
 Cu296 Cu 0.18363 0.85406 0.64589
 N297 N 0.16865 0.87359 0.68219
 N298 N 0.18260 0.87419 0.66773
 C299 C 0.19581 0.88950 0.67160
 C300 C 0.18992 0.89909 0.68953
 C301 C 0.17254 0.88852 0.69576
 H302 H 0.20915 0.89283 0.66240
 H303 H 0.16375 0.89104 0.70949
 N304 N 0.18206 0.83237 0.62510
 N305 N 0.16770 0.81816 0.62509
 C306 C 0.17163 0.80481 0.60996
 C307 C 0.18937 0.81081 0.59994
 C308 C 0.19547 0.82842 0.60999
 H309 H 0.16268 0.79123 0.60707
 H310 H 0.20915 0.83727 0.60712
 H311 H 0.16949 0.83057 0.66170
 H312 H 0.15269 0.84755 0.64606
 N313 N 0.37438 0.68211 0.66783
 N314 N 0.37312 0.66876 0.68275
 C315 C 0.38816 0.67245 0.69626
 C316 C 0.39945 0.68914 0.68957
 C317 C 0.39023 0.69478 0.67137
 H318 H 0.39017 0.66405 0.71030
 H319 H 0.39411 0.70769 0.66182
 Cu320 Cu 0.35097 0.64894 0.68441
 Cu321 Cu 0.35422 0.68331 0.64609
 Cu322 Cu 0.31688 0.64575 0.64592
 N323 N 0.33132 0.62666 0.68254
 N324 N 0.31807 0.62543 0.66755
 C325 C 0.30546 0.60949 0.67094
 C326 C 0.31104 0.60016 0.68912
 C327 C 0.32763 0.61150 0.69595
 H328 H 0.29263 0.60562 0.66131
 H329 H 0.33593 0.60945 0.71003
 N330 N 0.31822 0.66765 0.62534
 N331 N 0.33246 0.68195 0.62539
 C332 C 0.32856 0.69536 0.61030
 C333 C 0.31093 0.68928 0.60020
 C334 C 0.30487 0.67158 0.61020
 H335 H 0.33750 0.70896 0.60741
 H336 H 0.29131 0.66261 0.60723
 H337 H 0.33012 0.66982 0.66153
 H338 H 0.34795 0.65226 0.64758
 N339 N 0.37428 0.18278 1.16771
 N340 N 0.37373 0.16866 1.18197
 C341 C 0.38868 0.17239 1.19559
 C342 C 0.39922 0.18984 1.18961
 C343 C 0.38960 0.19595 1.17176
 H344 H 0.39130 0.16338 1.20915
 H345 H 0.39291 0.20942 1.16278
 Cu346 Cu 0.35263 0.14763 1.18200
 Cu347 Cu 0.35415 0.18389 1.14578
 Cu348 Cu 0.31648 0.14627 1.14577
 N349 N 0.33154 0.12659 1.18200
 N350 N 0.31747 0.12608 1.16771
 C351 C 0.30421 0.11082 1.17180
 C352 C 0.31021 0.10120 1.18970
 C353 C 0.32770 0.11168 1.19566
 H354 H 0.29076 0.10756 1.16279
 H355 H 0.33664 0.10907 1.20926
 N356 N 0.31812 0.16804 1.12492
 N357 N 0.33242 0.18232 1.12494
 C358 C 0.32863 0.19562 1.10971
 C359 C 0.31103 0.18953 1.09956
 C360 C 0.30488 0.17191 1.10967
 H361 H 0.33762 0.20918 1.10676
 H362 H 0.29129 0.16299 1.10670
 H363 H 0.33065 0.16972 1.16150
 H364 H 0.34744 0.15305 1.14559
 N365 N 0.87431 0.68205 1.16745
 N366 N 0.87356 0.66829 1.18205
 C367 C 0.88809 0.67255 1.19595
 C368 C 0.89858 0.68997 1.18979
 C369 C 0.88936 0.69551 1.17154
 H370 H 0.89057 0.66377 1.20968
 H371 H 0.89288 0.70864 1.16213
 Cu372 Cu 0.85290 0.64684 1.18202
 Cu373 Cu 0.85568 0.68132 1.14423
 Cu374 Cu 0.81247 0.65098 1.15109
 N375 N 0.83183 0.62575 1.18127
 N376 N 0.81595 0.62758 1.16913
 C377 C 0.80256 0.61244 1.17307
 C378 C 0.81037 0.60040 1.18864
 C379 C 0.82907 0.60932 1.19339
 H380 H 0.78770 0.61111 1.16593
 H381 H 0.83944 0.60481 1.20540
 N382 N 0.81532 0.67086 1.12869
 N383 N 0.83172 0.68235 1.12596
 C384 C 0.82874 0.69446 1.10960
 C385 C 0.80956 0.69026 1.10149
 C386 C 0.80158 0.67516 1.11405
 H387 H 0.83963 0.70570 1.10425
 H388 H 0.78670 0.66801 1.11290
 H389 H 0.83305 0.67243 1.16334
 H390 H 0.84326 0.65184 1.14648
 N391 N 0.87460 0.18202 0.66736
 N392 N 0.87300 0.16905 0.68258
 C393 C 0.88807 0.17271 0.69606
 C394 C 0.89976 0.18899 0.68903
 C395 C 0.89073 0.19440 0.67065
 H396 H 0.88977 0.16468 0.71035
 H397 H 0.89494 0.20697 0.66080
 Cu398 Cu 0.85035 0.14986 0.68463
 Cu399 Cu 0.85434 0.18336 0.64568
 Cu400 Cu 0.81685 0.14592 0.64578
 N401 N 0.83115 0.12723 0.68268
 N402 N 0.81815 0.12565 0.66751
 C403 C 0.80577 0.10952 0.67088
 C404 C 0.81121 0.10047 0.68926
 C405 C 0.82751 0.11216 0.69620
 H406 H 0.79319 0.10530 0.66107
 H407 H 0.83557 0.11046 0.71047
 N408 N 0.81812 0.16784 0.62514
 N409 N 0.83241 0.18210 0.62511
 C410 C 0.82841 0.19557 0.61008
 C411 C 0.81067 0.18959 0.60012
 C412 C 0.80465 0.17186 0.61013
 H413 H 0.83737 0.20915 0.60716
 H414 H 0.79105 0.16293 0.60724
 H415 H 0.82993 0.17034 0.66108
 H416 H 0.84790 0.15242 0.64776
 N417 N 0.31772 0.37411 0.66781
 N418 N 0.33155 0.37337 0.68232
 C419 C 0.32789 0.38851 0.69573
 C420 C 0.31073 0.39933 0.68942
 C421 C 0.30476 0.38970 0.67155
 H422 H 0.33670 0.39100 0.70943
 H423 H 0.29146 0.39315 0.66238
 Cu424 Cu 0.35221 0.35192 0.68318
 Cu425 Cu 0.31650 0.35378 0.64616
 Cu426 Cu 0.35396 0.31621 0.64621
 N427 N 0.37359 0.33118 0.68237
 N428 N 0.37430 0.31736 0.66789
 C429 C 0.38985 0.30435 0.67166
 C430 C 0.39949 0.31029 0.68953
 C431 C 0.38873 0.32748 0.69581
 H432 H 0.39326 0.29104 0.66251
 H433 H 0.39124 0.33630 0.70949
 N434 N 0.33206 0.31758 0.62557
 N435 N 0.31780 0.33189 0.62555
 C436 C 0.30439 0.32797 0.61047
 C437 C 0.31040 0.31026 0.60046
 C438 C 0.32810 0.30419 0.61050
 H439 H 0.29084 0.33698 0.60749
 H440 H 0.33705 0.29061 0.60757
 H441 H 0.33041 0.33025 0.66198
 H442 H 0.34752 0.34721 0.64660
 N443 N 0.31721 0.87411 0.16770
 N444 N 0.33118 0.87347 0.18208
 C445 C 0.32744 0.88849 0.19561
 C446 C 0.31012 0.89916 0.18947
 C447 C 0.30410 0.88954 0.17162
 H448 H 0.33637 0.89109 0.20920
 H449 H 0.29071 0.89292 0.16254
 Cu450 Cu 0.35215 0.85232 0.18236
 Cu451 Cu 0.31629 0.85400 0.14576
 Cu452 Cu 0.35392 0.81635 0.14589
 N453 N 0.37328 0.83131 0.18226
 N454 N 0.37396 0.81732 0.16792
 C455 C 0.38934 0.80420 0.17196
 C456 C 0.39889 0.81024 0.18986
 C457 C 0.38823 0.82758 0.19589
 H458 H 0.39274 0.79080 0.16294
 H459 H 0.39079 0.83653 0.20947
 N460 N 0.33229 0.81803 0.12495
 N461 N 0.31799 0.83232 0.12491
 C462 C 0.30482 0.82859 0.10957
 C463 C 0.31102 0.81103 0.09942
 C464 C 0.32857 0.80485 0.10964
 H465 H 0.29128 0.83759 0.10654
 H466 H 0.33755 0.79129 0.10669
 H467 H 0.33026 0.83037 0.16158
 H468 H 0.34720 0.84718 0.14592
 N469 N 0.81747 0.37411 0.16753
 N470 N 0.83146 0.37344 0.18189
 C471 C 0.82768 0.38836 0.19552
 C472 C 0.81031 0.39901 0.18944
 C473 C 0.80432 0.38948 0.17152
 H474 H 0.83657 0.39086 0.20915
 H475 H 0.79096 0.39290 0.16243
 Cu476 Cu 0.85251 0.35237 0.18185
 Cu477 Cu 0.81634 0.35397 0.14563
 Cu478 Cu 0.85397 0.31628 0.14561
 N479 N 0.87358 0.33131 0.18182
 N480 N 0.87418 0.31734 0.16746
 C481 C 0.88962 0.30424 0.17136
 C482 C 0.89928 0.31027 0.18920
 C483 C 0.88862 0.32758 0.19534
 H484 H 0.89302 0.29091 0.16225
 H485 H 0.89122 0.33650 0.20894
 N486 N 0.83215 0.31788 0.12486
 N487 N 0.81786 0.33219 0.12486
 C488 C 0.80454 0.32835 0.10967
 C489 C 0.81063 0.31071 0.09960
 C490 C 0.82827 0.30459 0.10968
 H491 H 0.79097 0.33733 0.10670
 H492 H 0.83723 0.29102 0.10673
 H493 H 0.83047 0.33047 0.16134
 H494 H 0.84729 0.34718 0.14544
 N495 N 0.81684 0.87453 0.66817
 N496 N 0.83092 0.87398 0.68245
 C497 C 0.82710 0.88887 0.69609
 C498 C 0.80965 0.89938 0.69011
 C499 C 0.80361 0.88981 0.67223
 H500 H 0.83609 0.89148 0.70965
 H501 H 0.79017 0.89313 0.66322
 Cu502 Cu 0.85209 0.85305 0.68248
 Cu503 Cu 0.81591 0.85446 0.64621
 Cu504 Cu 0.85376 0.81699 0.64618
 N505 N 0.87323 0.83208 0.68242
 N506 N 0.87387 0.81805 0.66813
 C507 C 0.88921 0.80488 0.67222
 C508 C 0.89873 0.81092 0.69014
 C509 C 0.88813 0.82832 0.69610
 H510 H 0.89259 0.79146 0.66323
 H511 H 0.89066 0.83727 0.70969
 N512 N 0.83202 0.81857 0.62533
 N513 N 0.81765 0.83279 0.62534
 C514 C 0.80438 0.82892 0.61013
 C515 C 0.81057 0.81134 0.60002
 C516 C 0.82824 0.80530 0.61011
 H517 H 0.79074 0.83781 0.60720
 H518 H 0.83726 0.79176 0.60715
 H519 H 0.83013 0.83101 0.66193
 H520 H 0.84684 0.84783 0.64606
 N521 N 0.68237 0.62593 0.66833
 N522 N 0.66902 0.62708 0.68329
 C523 C 0.67292 0.61208 0.69683
 C524 C 0.68972 0.60093 0.69010
 C525 C 0.69523 0.61021 0.67187
 H526 H 0.66452 0.60991 0.71087
 H527 H 0.70811 0.60639 0.66222
 Cu528 Cu 0.64851 0.64871 0.68447
 Cu529 Cu 0.68322 0.64597 0.64641
 Cu530 Cu 0.64575 0.68351 0.64654
 N531 N 0.62687 0.66920 0.68340
 N532 N 0.62573 0.68260 0.66852
 C533 C 0.61000 0.69544 0.67213
 C534 C 0.60070 0.68985 0.69034
 C535 C 0.61186 0.67305 0.69698
 H536 H 0.60616 0.70833 0.66254
 H537 H 0.60968 0.66460 0.71097
 N538 N 0.66737 0.68191 0.62561
 N539 N 0.68162 0.66760 0.62554
 C540 C 0.69496 0.67148 0.61034
 C541 C 0.68892 0.68917 0.60032
 C542 C 0.67127 0.69527 0.61045
 H543 H 0.70856 0.66252 0.60738
 H544 H 0.66239 0.70893 0.60762
 H545 H 0.66967 0.66988 0.66209
 H546 H 0.65214 0.65251 0.64768
 N547 N 0.68290 0.12562 0.16778
 N548 N 0.66953 0.12679 0.18272
 C549 C 0.67339 0.11182 0.19629
 C550 C 0.69019 0.10064 0.18961
 C551 C 0.69575 0.10990 0.17137
 H552 H 0.66496 0.10967 0.21031
 H553 H 0.70861 0.10601 0.16172
 Cu554 Cu 0.64901 0.14838 0.18383
 Cu555 Cu 0.68371 0.14556 0.14576
 Cu556 Cu 0.64617 0.18306 0.14582
 N557 N 0.62737 0.16887 0.18276
 N558 N 0.62620 0.18224 0.16785
 C559 C 0.61049 0.19510 0.17149
 C560 C 0.60124 0.18956 0.18975
 C561 C 0.61241 0.17275 0.19637
 H562 H 0.60663 0.20797 0.16189
 H563 H 0.61026 0.16433 0.21039
 N564 N 0.66773 0.18139 0.12484
 N565 N 0.68202 0.16711 0.12481
 C566 C 0.69532 0.17094 0.10956
 C567 C 0.68922 0.18858 0.09948
 C568 C 0.67158 0.19469 0.10962
 H569 H 0.70892 0.16200 0.10661
 H570 H 0.66268 0.20833 0.10675
 H571 H 0.67017 0.16948 0.16136
 H572 H 0.65266 0.15204 0.14702
 N573 N 0.18302 0.62622 0.16792
 N574 N 0.16893 0.62685 0.18224
 C575 C 0.17261 0.61188 0.19587
 C576 C 0.19000 0.60124 0.18985
 C577 C 0.19614 0.61083 0.17197
 H578 H 0.16356 0.60928 0.20943
 H579 H 0.20958 0.60742 0.16293
 Cu580 Cu 0.14780 0.64784 0.18214
 Cu581 Cu 0.18412 0.64633 0.14590
 Cu582 Cu 0.14634 0.68388 0.14578
 N583 N 0.12665 0.66882 0.18204
 N584 N 0.12607 0.68283 0.16768
 C585 C 0.11062 0.69591 0.17161
 C586 C 0.10092 0.68984 0.18946
 C587 C 0.11157 0.67251 0.19558
 H588 H 0.10725 0.70930 0.16253
 H589 H 0.10892 0.66355 0.20918
 N590 N 0.16818 0.68231 0.12497
 N591 N 0.18252 0.66806 0.12500
 C592 C 0.19586 0.67193 0.10977
 C593 C 0.18973 0.68954 0.09965
 C594 C 0.17204 0.69560 0.10974
 H595 H 0.20949 0.66303 0.10685
 H596 H 0.16305 0.70916 0.10677
 H597 H 0.16992 0.66980 0.16154
 H598 H 0.15322 0.65302 0.14572
 N599 N 0.18253 0.12539 0.66825
 N600 N 0.16906 0.12650 0.68311
 C601 C 0.17290 0.11154 0.69670
 C602 C 0.18978 0.10044 0.69010
 C603 C 0.19541 0.10972 0.67190
 H604 H 0.16439 0.10935 0.71066
 H605 H 0.20836 0.10591 0.66234
 Cu606 Cu 0.14847 0.14802 0.68411
 Cu607 Cu 0.18337 0.14533 0.64623
 Cu608 Cu 0.14580 0.18281 0.64623
 N609 N 0.12694 0.16859 0.68313
 N610 N 0.12583 0.18200 0.66825
 C611 C 0.11016 0.19490 0.67191
 C612 C 0.10087 0.18933 0.69013
 C613 C 0.11197 0.17248 0.69673
 H614 H 0.10636 0.20782 0.66234
 H615 H 0.10977 0.16402 0.71072
 N616 N 0.16737 0.18112 0.62527
 N617 N 0.18169 0.16687 0.62527
 C618 C 0.19500 0.17072 0.61003
 C619 C 0.18886 0.18833 0.59992
 C620 C 0.17120 0.19440 0.61004
 H621 H 0.20865 0.16183 0.60713
 H622 H 0.16226 0.20800 0.60715
 H623 H 0.16975 0.16920 0.66186
 H624 H 0.15233 0.15180 0.64736
 N625 N 0.31728 0.62557 0.33207
 N626 N 0.33070 0.62671 0.31717
 C627 C 0.32691 0.61168 0.30369
 C628 C 0.31011 0.60051 0.31039
 C629 C 0.30448 0.60982 0.32855
 H630 H 0.33539 0.60951 0.28970
 H631 H 0.29156 0.60599 0.33814
 Cu632 Cu 0.35110 0.64840 0.31587
 Cu633 Cu 0.31630 0.64561 0.35393
 Cu634 Cu 0.35383 0.68303 0.35386
 N635 N 0.37286 0.66874 0.31711
 N636 N 0.37397 0.68210 0.33199
 C637 C 0.38974 0.69489 0.32842
 C638 C 0.39911 0.68932 0.31025
 C639 C 0.38794 0.67255 0.30359
 H640 H 0.39353 0.70779 0.33799
 H641 H 0.39017 0.66412 0.28962
 N642 N 0.33212 0.68150 0.37471
 N643 N 0.31783 0.66724 0.37474
 C644 C 0.30448 0.67110 0.38993
 C645 C 0.31057 0.68872 0.39999
 C646 C 0.32824 0.69480 0.38988
 H647 H 0.29087 0.66216 0.39289
 H648 H 0.33717 0.70840 0.39276
 H649 H 0.32987 0.66949 0.33826
 H650 H 0.34735 0.65201 0.35266
 N651 N 0.31744 0.12552 0.83227
 N652 N 0.33075 0.12678 0.81730
 C653 C 0.32697 0.11178 0.80378
 C654 C 0.31027 0.10050 0.81054
 C655 C 0.30469 0.10972 0.82876
 H656 H 0.33536 0.10971 0.78973
 H657 H 0.29185 0.10579 0.83843
 Cu658 Cu 0.35101 0.14857 0.81587
 Cu659 Cu 0.31648 0.14554 0.85415
 Cu660 Cu 0.35402 0.18295 0.85409
 N661 N 0.37295 0.16866 0.81730
 N662 N 0.37417 0.18196 0.83223
 C663 C 0.39001 0.19467 0.82869
 C664 C 0.39931 0.18910 0.81048
 C665 C 0.38804 0.17243 0.80378
 H666 H 0.39389 0.20751 0.83828
 H667 H 0.39014 0.16405 0.78976
 N668 N 0.33229 0.18145 0.87491
 N669 N 0.31803 0.16717 0.87497
 C670 C 0.30464 0.17106 0.89011
 C671 C 0.31065 0.18875 0.90010
 C672 C 0.32834 0.19482 0.89002
 H673 H 0.29104 0.16212 0.89306
 H674 H 0.33722 0.20846 0.89284
 H675 H 0.32997 0.16953 0.83855
 H676 H 0.34757 0.15193 0.85269
 N677 N 0.81746 0.62545 0.83195
 N678 N 0.83108 0.62650 0.81724
 C679 C 0.82758 0.61134 0.80384
 C680 C 0.81074 0.60016 0.81041
 C681 C 0.80481 0.60959 0.82842
 H682 H 0.83620 0.60917 0.78994
 H683 H 0.79180 0.60578 0.83790
 Cu684 Cu 0.85097 0.64859 0.81570
 Cu685 Cu 0.81612 0.64568 0.85359
 Cu686 Cu 0.85685 0.67931 0.85673
 N687 N 0.87295 0.66856 0.81744
 N688 N 0.87533 0.68040 0.83342
 C689 C 0.89127 0.69308 0.83012
 C690 C 0.89933 0.68903 0.81094
 C691 C 0.88728 0.67330 0.80344
 H692 H 0.89617 0.70473 0.84071
 H693 H 0.88837 0.66622 0.78860
 N694 N 0.83350 0.67984 0.87583
 N695 N 0.81784 0.66719 0.87440
 C696 C 0.80376 0.67218 0.88855
 C697 C 0.81080 0.68889 0.89948
 C698 C 0.82977 0.69330 0.89092
 H699 H 0.78913 0.66463 0.89024
 H700 H 0.83988 0.70575 0.89490
 H701 H 0.83214 0.66959 0.83969
 H702 H 0.84741 0.64885 0.85255
 N703 N 0.81764 0.12533 0.33233
 N704 N 0.83191 0.12566 0.31818
 C705 C 0.82816 0.11066 0.30463
 C706 C 0.81054 0.10031 0.31056
 C707 C 0.80437 0.11012 0.32829
 H708 H 0.83723 0.10792 0.29112
 H709 H 0.79079 0.10699 0.33722
 Cu710 Cu 0.85305 0.14668 0.31805
 Cu711 Cu 0.81640 0.14560 0.35408
 Cu712 Cu 0.85401 0.18317 0.35404
 N713 N 0.87409 0.16781 0.31815
 N714 N 0.87437 0.18201 0.33230
 C715 C 0.88955 0.19534 0.32821
 C716 C 0.89938 0.18928 0.31046
 C717 C 0.88911 0.17166 0.30456
 H718 H 0.89260 0.20889 0.33711
 H719 H 0.89187 0.16267 0.29103
 N720 N 0.83212 0.18170 0.37473
 N721 N 0.81782 0.16743 0.37475
 C722 C 0.80447 0.17129 0.38995
 C723 C 0.81057 0.18890 0.40001
 C724 C 0.82823 0.19500 0.38990
 H725 H 0.79088 0.16234 0.39293
 H726 H 0.83718 0.20857 0.39282
 H727 H 0.83073 0.16887 0.33814
 H728 H 0.84732 0.15228 0.35437
 N729 N 0.68165 0.37473 0.33233
 N730 N 0.66851 0.37337 0.31726
 C731 C 0.67218 0.38851 0.30382
 C732 C 0.68864 0.39999 0.31071
 C733 C 0.69415 0.39078 0.32898
 H734 H 0.66400 0.39041 0.28965
 H735 H 0.70689 0.39477 0.33867
 Cu736 Cu 0.64911 0.35089 0.31526
 Cu737 Cu 0.68303 0.35427 0.35386
 Cu738 Cu 0.64572 0.31666 0.35366
 N739 N 0.62680 0.33127 0.31702
 N740 N 0.62542 0.31802 0.33203
 C741 C 0.60945 0.30547 0.32856
 C742 C 0.60030 0.31106 0.31030
 C743 C 0.61175 0.32761 0.30352
 H744 H 0.60547 0.29264 0.33818
 H745 H 0.60985 0.33591 0.28940
 N746 N 0.66764 0.31786 0.37423
 N747 N 0.68187 0.33219 0.37430
 C748 C 0.69530 0.32818 0.38935
 C749 C 0.68932 0.31040 0.39928
 C750 C 0.67164 0.30437 0.38923
 H751 H 0.70881 0.33722 0.39237
 H752 H 0.66271 0.29076 0.39212
 H753 H 0.66991 0.33011 0.33825
 H754 H 0.65200 0.34770 0.35208
 N755 N 0.68194 0.87433 0.83221
 N756 N 0.66860 0.87317 0.81730
 C757 C 0.67235 0.88828 0.80384
 C758 C 0.68905 0.89954 0.81057
 C759 C 0.69466 0.89017 0.82872
 H760 H 0.66393 0.89047 0.78985
 H761 H 0.70750 0.89405 0.83834
 Cu762 Cu 0.64831 0.85138 0.81599
 Cu763 Cu 0.68289 0.85422 0.85405
 Cu764 Cu 0.64557 0.81660 0.85402
 N765 N 0.62661 0.83098 0.81730
 N766 N 0.62550 0.81755 0.83216
 C767 C 0.60973 0.80477 0.82864
 C768 C 0.60036 0.81043 0.81052
 C769 C 0.61153 0.82722 0.80383
 H770 H 0.60591 0.79186 0.83821
 H771 H 0.60931 0.83571 0.78988
 N772 N 0.66721 0.81819 0.87484
 N773 N 0.68140 0.83255 0.87486
 C774 C 0.69471 0.82876 0.89006
 C775 C 0.68872 0.81108 0.90013
 C776 C 0.67113 0.80488 0.89003
 H777 H 0.70825 0.83779 0.89298
 H778 H 0.66228 0.79122 0.89293
 H779 H 0.66944 0.83022 0.83839
 H780 H 0.65181 0.84758 0.85278
 N781 N 0.18208 0.37421 0.83202
 N782 N 0.16874 0.37307 0.81711
 C783 C 0.17260 0.38809 0.80358
 C784 C 0.18937 0.39926 0.81027
 C785 C 0.19491 0.38995 0.82847
 H786 H 0.16420 0.39026 0.78957
 H787 H 0.20778 0.39377 0.83807
 Cu788 Cu 0.14838 0.35135 0.81587
 Cu789 Cu 0.18298 0.35414 0.85392
 Cu790 Cu 0.14557 0.31658 0.85383
 N791 N 0.12680 0.33082 0.81696
 N792 N 0.12562 0.31745 0.83187
 C793 C 0.10991 0.30461 0.82829
 C794 C 0.10066 0.31018 0.81008
 C795 C 0.11183 0.32697 0.80341
 H796 H 0.10605 0.29174 0.83790
 H797 H 0.10967 0.33541 0.78941
 N798 N 0.16711 0.31820 0.87474
 N799 N 0.18138 0.33248 0.87476
 C800 C 0.19469 0.32858 0.88995
 C801 C 0.18859 0.31091 0.90000
 C802 C 0.17096 0.30485 0.88991
 H803 H 0.20831 0.33749 0.89286
 H804 H 0.16203 0.29124 0.89279
 H805 H 0.16954 0.33024 0.83825
 H806 H 0.15194 0.34762 0.85266
 N807 N 0.18214 0.87423 0.33234
 N808 N 0.16776 0.87404 0.31834
 C809 C 0.17157 0.88900 0.30471
 C810 C 0.18930 0.89921 0.31046
 C811 C 0.19549 0.88936 0.32817
 H812 H 0.16242 0.89183 0.29128
 H813 H 0.20910 0.89242 0.33702
 Cu814 Cu 0.14655 0.85311 0.31875
 Cu815 Cu 0.18345 0.85382 0.35406
 Cu816 Cu 0.14583 0.81609 0.35400
 N817 N 0.12572 0.83181 0.31824
 N818 N 0.12552 0.81740 0.33222
 C819 C 0.11043 0.80404 0.32801
 C820 C 0.10063 0.81026 0.31030
 C821 C 0.11082 0.82801 0.30457
 H822 H 0.10735 0.79042 0.33686
 H823 H 0.10800 0.83719 0.29117
 N824 N 0.16774 0.81752 0.37468
 N825 N 0.18203 0.83182 0.37469
 C826 C 0.19531 0.82795 0.38991
 C827 C 0.18920 0.81032 0.39999
 C828 C 0.17159 0.80422 0.38989
 H829 H 0.20883 0.83696 0.39294
 H830 H 0.16258 0.79069 0.39291
 H831 H 0.16903 0.83066 0.33815
 H832 H 0.15262 0.84689 0.35488
 C833 C 0.26308 0.95689 0.23666
 C834 C 0.24989 0.94633 0.24976
 C835 C 0.23671 0.95667 0.26301
 C836 C 0.23667 0.97829 0.26336
 C837 C 0.24995 0.98925 0.25008
 C838 C 0.26320 0.97852 0.23664
 C839 C 0.27628 0.98967 0.22368
 C840 C 0.27629 1.01100 0.22385
 C841 C 0.26323 1.02193 0.23698
 C842 C 0.24997 1.01096 0.25025
 C843 C 0.22367 0.98922 0.27653
 C844 C 0.22367 1.01053 0.27669
 C845 C 0.23669 1.02168 0.26368
 C846 C 0.23675 1.04329 0.26367
 C847 C 0.24995 1.05389 0.25060
 C848 C 0.26312 1.04356 0.23731
 H849 H 0.28662 0.98197 0.21330
 H850 H 0.28664 1.01887 0.21358
 H851 H 0.21335 0.98135 0.28684
 H852 H 0.21335 1.01822 0.28711
 H853 H 0.24992 0.92972 0.24969
 H854 H 0.24992 1.07050 0.25073
 C855 C 0.26340 0.45658 0.73688
 C856 C 0.25029 0.44615 0.75015
 C857 C 0.23703 0.45664 0.76321
 C858 C 0.23682 0.47826 0.76320
 C859 C 0.25010 0.48906 0.74983
 C860 C 0.26345 0.47819 0.73660
 C861 C 0.27654 0.48918 0.72353
 C862 C 0.27647 0.51048 0.72339
 C863 C 0.26331 0.52155 0.73631
 C864 C 0.25002 0.51077 0.74967
 C865 C 0.22363 0.48933 0.77609
 C866 C 0.22354 0.51065 0.77592
 C867 C 0.23664 0.52165 0.76287
 C868 C 0.23665 0.54328 0.76252
 C869 C 0.24984 0.55368 0.74929
 C870 C 0.26312 0.54315 0.73629
 H871 H 0.28697 0.48137 0.71330
 H872 H 0.28684 0.51823 0.71305
 H873 H 0.21325 0.48157 0.78641
 H874 H 0.21307 0.51846 0.78610
 H875 H 0.25036 0.42954 0.75027
 H876 H 0.24981 0.57028 0.74915
 C877 C 0.76318 -0.04381 0.26324
 C878 C 0.75011 -0.05422 0.24999
 C879 C 0.73715 -0.04369 0.23667
 C880 C 0.73710 -0.02207 0.23652
 C881 C 0.75026 -0.01129 0.24995
 C882 C 0.76338 -0.02218 0.26337
 C883 C 0.77633 -0.01120 0.27650
 C884 C 0.77638 0.01013 0.27652
 C885 C 0.76348 0.02122 0.26338
 C886 C 0.75031 0.01043 0.24996
 C887 C 0.72419 -0.01098 0.22340
 C888 C 0.72424 0.01034 0.22340
 C889 C 0.73719 0.02132 0.23653
 C890 C 0.73736 0.04293 0.23668
 C891 C 0.75043 0.05335 0.24993
 C892 C 0.76343 0.04285 0.26321
 H893 H 0.78656 -0.01903 0.28689
 H894 H 0.78663 0.01787 0.28691
 H895 H 0.71392 -0.01872 0.21300
 H896 H 0.71402 0.01817 0.21299
 H897 H 0.75003 -0.07082 0.25002
 H898 H 0.75046 0.06996 0.24991
 C899 C 0.76320 0.45644 0.76333
 C900 C 0.74992 0.44603 0.75031
 C901 C 0.73690 0.45653 0.73704
 C902 C 0.73697 0.47814 0.73670
 C903 C 0.75030 0.48893 0.74995
 C904 C 0.76349 0.47805 0.76332
 C905 C 0.77656 0.48903 0.77632
 C906 C 0.77668 0.51035 0.77622
 C907 C 0.76371 0.52142 0.76314
 C908 C 0.75040 0.51064 0.74987
 C909 C 0.72396 0.48921 0.72366
 C910 C 0.72403 0.51054 0.72361
 C911 C 0.73713 0.52153 0.73657
 C912 C 0.73728 0.54315 0.73673
 C913 C 0.75052 0.55355 0.74982
 C914 C 0.76367 0.54302 0.76293
 H915 H 0.78679 0.48121 0.78672
 H916 H 0.78702 0.51810 0.78653
 H917 H 0.71355 0.48147 0.71341
 H918 H 0.71369 0.51836 0.71331
 H919 H 0.74975 0.42942 0.75046
 H920 H 0.75056 0.57016 0.74983
 C921 C 0.26321 0.45639 0.26274
 C922 C 0.25013 0.44602 0.24946
 C923 C 0.23690 0.45658 0.23645
 C924 C 0.23671 0.47819 0.23647
 C925 C 0.24992 0.48894 0.24987
 C926 C 0.26322 0.47801 0.26309
 C927 C 0.27623 0.48896 0.27619
 C928 C 0.27612 0.51028 0.27639
 C929 C 0.26303 0.52139 0.26346
 C930 C 0.24984 0.51065 0.25004
 C931 C 0.22363 0.48931 0.22353
 C932 C 0.22356 0.51063 0.22368
 C933 C 0.23656 0.52158 0.23679
 C934 C 0.23656 0.54319 0.23716
 C935 C 0.24961 0.55355 0.25047
 C936 C 0.26281 0.54300 0.26351
 H937 H 0.28662 0.48112 0.28641
 H938 H 0.28640 0.51800 0.28678
 H939 H 0.21332 0.48159 0.21316
 H940 H 0.21320 0.51847 0.21344
 H941 H 0.25021 0.42941 0.24930
 H942 H 0.24955 0.57016 0.25062
 C943 C 0.73633 0.95742 0.76380
 C944 C 0.74940 0.94678 0.75069
 C945 C 0.76265 0.95705 0.73744
 C946 C 0.76295 0.97866 0.73713
 C947 C 0.74977 0.98969 0.75040
 C948 C 0.73641 0.97904 0.76383
 C949 C 0.72347 0.99027 0.77683
 C950 C 0.72365 1.01159 0.77666
 C951 C 0.73680 1.02243 0.76352
 C952 C 0.74998 1.01140 0.75027
 C953 C 0.77614 0.98950 0.72404
 C954 C 0.77637 1.01081 0.72394
 C955 C 0.76342 1.02204 0.73692
 C956 C 0.76360 1.04365 0.73701
 C957 C 0.75054 1.05432 0.75013
 C958 C 0.73717 1.04405 0.76328
 H959 H 0.71311 0.98263 0.78725
 H960 H 0.71340 1.01953 0.78696
 H961 H 0.78643 0.98157 0.71377
 H962 H 0.78683 1.01844 0.71360
 H963 H 0.74925 0.93017 0.75078
 H964 H 0.75077 1.07092 0.75008
 C965 C 0.76318 0.45643 0.23700
 C966 C 0.74994 0.44610 0.25025
 C967 C 0.73681 0.45670 0.26335
 C968 C 0.73683 0.47832 0.26340
 C969 C 0.75013 0.48902 0.24997
 C970 C 0.76335 0.47806 0.23668
 C971 C 0.77639 0.48897 0.22351
 C972 C 0.77642 0.51029 0.22332
 C973 C 0.76343 0.52145 0.23632
 C974 C 0.75018 0.51074 0.24980
 C975 C 0.72383 0.48948 0.27639
 C976 C 0.72389 0.51079 0.27624
 C977 C 0.73695 0.52170 0.26308
 C978 C 0.73705 0.54332 0.26269
 C979 C 0.75015 0.55365 0.24933
 C980 C 0.76331 0.54306 0.23625
 H981 H 0.78669 0.48109 0.21320
 H982 H 0.78673 0.51798 0.21287
 H983 H 0.71346 0.48180 0.28679
 H984 H 0.71356 0.51867 0.28651
 H985 H 0.74984 0.42950 0.25033
 H986 H 0.75014 0.57026 0.24914
 C987 C 0.26364 -0.04376 0.76302
 C988 C 0.25051 -0.05419 0.74985
 C989 C 0.23732 -0.04368 0.73676
 C990 C 0.23715 -0.02207 0.73669
 C991 C 0.25038 -0.01127 0.75005
 C992 C 0.26368 -0.02215 0.76330
 C993 C 0.27665 -0.01117 0.77641
 C994 C 0.27655 0.01015 0.77655
 C995 C 0.26349 0.02122 0.76357
 C996 C 0.25029 0.01043 0.75018
 C997 C 0.22409 -0.01099 0.72371
 C998 C 0.22403 0.01032 0.72381
 C999 C 0.23701 0.02130 0.73691
 C1000 C 0.23702 0.04291 0.73721
 C1001 C 0.25008 0.05334 0.75046
 C1002 C 0.26327 0.04283 0.76355
 H1003 H 0.28700 -0.01899 0.78669
 H1004 H 0.28682 0.01790 0.78693
 H1005 H 0.21379 -0.01874 0.71335
 H1006 H 0.21368 0.01814 0.71353
 H1007 H 0.25054 -0.07079 0.74981
 H1008 H 0.25001 0.06994 0.75055
 C1009 C 0.26273 0.23673 0.95647
 C1010 C 0.24942 0.24983 0.94609
 C1011 C 0.23631 0.26307 0.95656
 C1012 C 0.23634 0.26331 0.97810
 C1013 C 0.24978 0.25008 0.98885
 C1014 C 0.26306 0.23674 0.97801
 C1015 C 0.27625 0.22376 0.98895
 C1016 C 0.27643 0.22387 1.01018
 C1017 C 0.26340 0.23695 1.02121
 C1018 C 0.24995 0.25019 1.01047
 C1019 C 0.22330 0.27639 0.98913
 C1020 C 0.22346 0.27649 1.01038
 C1021 C 0.23667 0.26352 1.02132
 C1022 C 0.23700 0.26350 1.04286
 C1023 C 0.25034 0.25042 1.05322
 C1024 C 0.26346 0.23720 1.04274
 H1025 H 0.28657 0.21339 0.98116
 H1026 H 0.28689 0.21360 1.01790
 H1027 H 0.21285 0.28667 0.98141
 H1028 H 0.21313 0.28684 1.01817
 H1029 H 0.24929 0.24974 0.92955
 H1030 H 0.25049 0.25050 1.06977
 C1031 C 0.26306 0.73640 0.45690
 C1032 C 0.24982 0.74955 0.44649
 C1033 C 0.23670 0.76279 0.45694
 C1034 C 0.23666 0.76300 0.47848
 C1035 C 0.25004 0.74972 0.48925
 C1036 C 0.26332 0.73636 0.47843
 C1037 C 0.27645 0.72334 0.48940
 C1038 C 0.27655 0.72342 0.51064
 C1039 C 0.26352 0.73652 0.52165
 C1040 C 0.25013 0.74980 0.51087
 C1041 C 0.22362 0.77610 0.48948
 C1042 C 0.22371 0.77616 0.51072
 C1043 C 0.23684 0.76314 0.52169
 C1044 C 0.23708 0.76309 0.54322
 C1045 C 0.25034 0.74997 0.55363
 C1046 C 0.26348 0.73675 0.54318
 H1047 H 0.28676 0.71296 0.48163
 H1048 H 0.28695 0.71311 0.51838
 H1049 H 0.21322 0.78641 0.48174
 H1050 H 0.21338 0.78653 0.51849
 H1051 H 0.24974 0.74949 0.42995
 H1052 H 0.25042 0.75002 0.57017
 C1053 C 0.23749 0.73666 -0.04373
 C1054 C 0.25080 0.74968 -0.05423
 C1055 C 0.26401 0.76287 -0.04388
 C1056 C 0.26404 0.76319 -0.02235
 C1057 C 0.25065 0.74998 -0.01147
 C1058 C 0.23731 0.73665 -0.02218
 C1059 C 0.22418 0.72368 -0.01111
 C1060 C 0.22416 0.72378 0.01014
 C1061 C 0.23724 0.73687 0.02104
 C1062 C 0.25059 0.75012 0.01016
 C1063 C 0.27706 0.77634 -0.01145
 C1064 C 0.27698 0.77650 0.00979
 C1065 C 0.26389 0.76351 0.02087
 C1066 C 0.26369 0.76352 0.04240
 C1067 C 0.25048 0.75039 0.05292
 C1068 C 0.23734 0.73712 0.04258
 H1069 H 0.21382 0.71333 -0.01879
 H1070 H 0.21377 0.71351 0.01796
 H1071 H 0.28744 0.78662 -0.01927
 H1072 H 0.28729 0.78692 0.01747
 H1073 H 0.25084 0.74961 -0.07078
 H1074 H 0.25044 0.75048 0.06946
 C1075 C 0.23664 0.23633 0.54341
 C1076 C 0.24976 0.24954 0.55385
 C1077 C 0.26291 0.26280 0.54344
 C1078 C 0.26307 0.26298 0.52189
 C1079 C 0.24981 0.24964 0.51109
 C1080 C 0.23653 0.23624 0.52188
 C1081 C 0.22353 0.22315 0.51089
 C1082 C 0.22354 0.22319 0.48965
 C1083 C 0.23656 0.23633 0.47865
 C1084 C 0.24983 0.24968 0.48945
 C1085 C 0.27608 0.27613 0.51089
 C1086 C 0.27610 0.27618 0.48965
 C1087 C 0.26310 0.26308 0.47865
 C1088 C 0.26298 0.26299 0.45711
 C1089 C 0.24986 0.24977 0.44669
 C1090 C 0.23671 0.23652 0.45711
 H1091 H 0.21322 0.21274 0.51864
 H1092 H 0.21325 0.21282 0.48190
 H1093 H 0.28638 0.28651 0.51865
 H1094 H 0.28640 0.28658 0.48188
 H1095 H 0.24973 0.24950 0.57040
 H1096 H 0.24988 0.24980 0.43015
 C1097 C 0.76346 0.73729 0.95603
 C1098 C 0.75018 0.75055 0.94582
 C1099 C 0.73694 0.76352 0.95646
 C1100 C 0.73691 0.76342 0.97799
 C1101 C 0.75034 0.75003 0.98858
 C1102 C 0.76366 0.73687 0.97757
 C1103 C 0.77676 0.72366 0.98836
 C1104 C 0.77682 0.72339 1.00960
 C1105 C 0.76379 0.73634 1.02079
 C1106 C 0.75041 0.74977 1.01020
 C1107 C 0.72384 0.77632 0.98919
 C1108 C 0.72393 0.77609 1.01042
 C1109 C 0.73708 0.76294 1.02121
 C1110 C 0.73726 0.76255 1.04274
 C1111 C 0.75046 0.74922 1.05295
 C1112 C 0.76367 0.73620 1.04233
 H1113 H 0.78708 0.71340 0.98043
 H1114 H 0.78717 0.71292 1.01720
 H1115 H 0.71342 0.78672 0.98160
 H1116 H 0.71358 0.78632 1.01835
 H1117 H 0.75008 0.75072 0.92927
 H1118 H 0.75048 0.74900 1.06949
 C1119 C 0.73681 0.26352 0.54289
 C1120 C 0.75002 0.25043 0.55338
 C1121 C 0.76318 0.23715 0.54303
 C1122 C 0.76327 0.23687 0.52150
 C1123 C 0.74991 0.25011 0.51063
 C1124 C 0.73661 0.26350 0.52136
 C1125 C 0.72350 0.27649 0.51031
 C1126 C 0.72345 0.27635 0.48907
 C1127 C 0.73651 0.26322 0.47814
 C1128 C 0.74986 0.24996 0.48900
 C1129 C 0.77633 0.22373 0.51056
 C1130 C 0.77628 0.22359 0.48933
 C1131 C 0.76316 0.23657 0.47828
 C1132 C 0.76297 0.23655 0.45675
 C1133 C 0.74978 0.24966 0.44625
 C1134 C 0.73662 0.26295 0.45660
 H1135 H 0.71315 0.28688 0.51802
 H1136 H 0.71308 0.28665 0.48126
 H1137 H 0.78671 0.21345 0.51837
 H1138 H 0.78662 0.21319 0.48161
 H1139 H 0.75004 0.25054 0.56993
 H1140 H 0.74977 0.24955 0.42971
 C1141 C 0.73681 0.23663 -0.04337
 C1142 C 0.74985 0.24994 -0.05385
 C1143 C 0.76294 0.26321 -0.04347
 C1144 C 0.76312 0.26333 -0.02194
 C1145 C 0.74993 0.24990 -0.01109
 C1146 C 0.73670 0.23648 -0.02184
 C1147 C 0.72377 0.22329 -0.01081
 C1148 C 0.72379 0.22328 0.01043
 C1149 C 0.73676 0.23645 0.02137
 C1150 C 0.74996 0.24988 0.01053
 C1151 C 0.77607 0.27651 -0.01100
 C1152 C 0.77611 0.27649 0.01024
 C1153 C 0.76319 0.26329 0.02128
 C1154 C 0.76311 0.26310 0.04282
 C1155 C 0.75005 0.24979 0.05329
 C1156 C 0.73693 0.23656 0.04290
 H1157 H 0.71350 0.21286 -0.01852
 H1158 H 0.71355 0.21282 0.01822
 H1159 H 0.78630 0.28698 -0.01879
 H1160 H 0.78638 0.28693 0.01796
 H1161 H 0.74982 0.24995 -0.07039
 H1162 H 0.75010 0.24974 0.06983
 C1163 C 0.76278 0.76328 0.45720
 C1164 C 0.74967 0.75000 0.44687
 C1165 C 0.73660 0.73674 0.45738
 C1166 C 0.73650 0.73666 0.47892
 C1167 C 0.74976 0.75009 0.48962
 C1168 C 0.76298 0.76346 0.47873
 C1169 C 0.77599 0.77663 0.48962
 C1170 C 0.77604 0.77668 0.51086
 C1171 C 0.76306 0.76358 0.52195
 C1172 C 0.74979 0.75016 0.51125
 C1173 C 0.72353 0.72356 0.49001
 C1174 C 0.72355 0.72364 0.51125
 C1175 C 0.73655 0.73682 0.52214
 C1176 C 0.73671 0.73703 0.54367
 C1177 C 0.74985 0.75029 0.55401
 C1178 C 0.76297 0.76350 0.54349
 H1179 H 0.78626 0.78702 0.48179
 H1180 H 0.78635 0.78710 0.51853
 H1181 H 0.71324 0.71312 0.48233
 H1182 H 0.71327 0.71326 0.51908
 H1183 H 0.74964 0.74997 0.43032
 H1184 H 0.74987 0.75034 0.57055
 C1185 C 1.04339 0.23690 0.26330
 C1186 C 1.05395 0.25013 0.25024
 C1187 C 1.04353 0.26327 0.23700
 C1188 C 1.02187 0.26327 0.23667
 C1189 C 1.01094 0.25000 0.24994
 C1190 C 1.02173 0.23676 0.26334
 C1191 C 1.01061 0.22376 0.27636
 C1192 C 0.98924 0.22378 0.27630
 C1193 C 0.97826 0.23677 0.26317
 C1194 C 0.98919 0.24998 0.24984
 C1195 C 1.01088 0.27628 0.22356
 C1196 C 0.98952 0.27624 0.22344
 C1197 C 0.97840 0.26320 0.23644
 C1198 C 0.95674 0.26309 0.23652
 C1199 C 0.94619 0.24997 0.24968
 C1200 C 0.95660 0.23687 0.26293
 H1201 H 1.01835 0.21345 0.28674
 H1202 H 0.98139 0.21350 0.28665
 H1203 H 1.01871 0.28663 0.21328
 H1204 H 0.98178 0.28655 0.21307
 H1205 H 1.07059 0.25018 0.25035
 H1206 H 0.92955 0.24997 0.24961
 C1207 C 0.54354 0.23674 0.76329
 C1208 C 0.55400 0.25011 0.75032
 C1209 C 0.54351 0.26334 0.73727
 C1210 C 0.52186 0.26334 0.73703
 C1211 C 0.51101 0.24992 0.75021
 C1212 C 0.52188 0.23657 0.76343
 C1213 C 0.51083 0.22340 0.77635
 C1214 C 0.48947 0.22338 0.77636
 C1215 C 0.47841 0.23649 0.76342
 C1216 C 0.48926 0.24986 0.75018
 C1217 C 0.51080 0.27649 0.72411
 C1218 C 0.48944 0.27639 0.72405
 C1219 C 0.47840 0.26317 0.73693
 C1220 C 0.45674 0.26296 0.73701
 C1221 C 0.44626 0.24974 0.75013
 C1222 C 0.45675 0.23657 0.76326
 H1223 H 0.51864 0.21300 0.78659
 H1224 H 0.48167 0.21296 0.78661
 H1225 H 0.51859 0.28699 0.71394
 H1226 H 0.48164 0.28681 0.71382
 H1227 H 0.57064 0.25020 0.75037
 H1228 H 0.42962 0.24971 0.75012
 C1229 C -0.04354 0.23676 0.73639
 C1230 C -0.05418 0.24999 0.74934
 C1231 C -0.04384 0.26318 0.76252
 C1232 C -0.02217 0.26324 0.76290
 C1233 C -0.01118 0.24993 0.74975
 C1234 C -0.02189 0.23664 0.73641
 C1235 C -0.01071 0.22357 0.72351
 C1236 C 0.01064 0.22355 0.72369
 C1237 C 0.02156 0.23661 0.73676
 C1238 C 0.01057 0.24990 0.74994
 C1239 C -0.01124 0.27628 0.77599
 C1240 C 0.01012 0.27623 0.77619
 C1241 C 0.02130 0.26316 0.76329
 C1242 C 0.04296 0.26302 0.76330
 C1243 C 0.05356 0.24983 0.75029
 C1244 C 0.04320 0.23668 0.73710
 H1245 H -0.01840 0.21323 0.71316
 H1246 H 0.01854 0.21320 0.71347
 H1247 H -0.01914 0.28664 0.78620
 H1248 H 0.01783 0.28655 0.78655
 H1249 H -0.07082 0.24998 0.74919
 H1250 H 0.07020 0.24982 0.75040
 C1251 C 0.54356 0.23686 0.23682
 C1252 C 0.55401 0.25011 0.24986
 C1253 C 0.54349 0.26323 0.26302
 C1254 C 0.52184 0.26319 0.26332
 C1255 C 0.51101 0.24988 0.25008
 C1256 C 0.52190 0.23667 0.23674
 C1257 C 0.51086 0.22360 0.22377
 C1258 C 0.48949 0.22356 0.22383
 C1259 C 0.47842 0.23659 0.23685
 C1260 C 0.48926 0.24982 0.25015
 C1261 C 0.51077 0.27616 0.27639
 C1262 C 0.48942 0.27608 0.27649
 C1263 C 0.47839 0.26302 0.26351
 C1264 C 0.45674 0.26288 0.26342
 C1265 C 0.44626 0.24977 0.25028
 C1266 C 0.45675 0.23669 0.23707
 H1267 H 0.51868 0.21330 0.21344
 H1268 H 0.48171 0.21321 0.21356
 H1269 H 0.51853 0.28653 0.28666
 H1270 H 0.48161 0.28637 0.28683
 H1271 H 0.57065 0.25020 0.24979
 H1272 H 0.42962 0.24978 0.25032
 C1273 C 1.04304 0.73686 0.76292
 C1274 C 1.05345 0.74997 0.74964
 C1275 C 1.04291 0.76328 0.73670
 C1276 C 1.02124 0.76354 0.73682
 C1277 C 1.01045 0.75028 0.75022
 C1278 C 1.02138 0.73690 0.76336
 C1279 C 1.01039 0.72385 0.77646
 C1280 C 0.98903 0.72398 0.77672
 C1281 C 0.97791 0.73715 0.76388
 C1282 C 0.98870 0.75041 0.75048
 C1283 C 1.01012 0.77671 0.72398
 C1284 C 0.98876 0.77682 0.72423
 C1285 C 0.97777 0.76377 0.73733
 C1286 C 0.95610 0.76378 0.73776
 C1287 C 0.94570 0.75067 0.75105
 C1288 C 0.95626 0.73739 0.76401
 H1289 H 1.01823 0.71340 0.78661
 H1290 H 0.98129 0.71364 0.78709
 H1291 H 1.01788 0.78706 0.71363
 H1292 H 0.98091 0.78726 0.71406
 H1293 H 1.07009 0.74988 0.74944
 H1294 H 0.92906 0.75072 0.75123
 C1295 C 0.54361 0.73696 0.26294
 C1296 C 0.55403 0.75012 0.24970
 C1297 C 0.54348 0.76335 0.23668
 C1298 C 0.52182 0.76352 0.23672
 C1299 C 0.51102 0.75023 0.25009
 C1300 C 0.52195 0.73691 0.26329
 C1301 C 0.51095 0.72381 0.27633
 C1302 C 0.48958 0.72383 0.27648
 C1303 C 0.47847 0.73692 0.26356
 C1304 C 0.48927 0.75024 0.25022
 C1305 C 0.51070 0.77663 0.22382
 C1306 C 0.48934 0.77663 0.22395
 C1307 C 0.47834 0.76352 0.23697
 C1308 C 0.45668 0.76338 0.23724
 C1309 C 0.44626 0.75019 0.25043
 C1310 C 0.45681 0.73700 0.26350
 H1311 H 0.51879 0.71339 0.28652
 H1312 H 0.48183 0.71345 0.28680
 H1313 H 0.51845 0.78702 0.21351
 H1314 H 0.48149 0.78702 0.21372
 H1315 H 0.57067 0.75009 0.24956
 H1316 H 0.42962 0.75015 0.25050
 C1317 C -0.04379 0.73735 0.23671
 C1318 C -0.05421 0.75053 0.24990
 C1319 C -0.04367 0.76362 0.26302
 C1320 C -0.02200 0.76364 0.26312
 C1321 C -0.01120 0.75036 0.24977
 C1322 C -0.02212 0.73717 0.23648
 C1323 C -0.01111 0.72405 0.22348
 C1324 C 0.01026 0.72392 0.22348
 C1325 C 0.02138 0.73691 0.23645
 C1326 C 0.01057 0.75023 0.24975
 C1327 C -0.01089 0.77659 0.27613
 C1328 C 0.01047 0.77648 0.27611
 C1329 C 0.02148 0.76341 0.26307
 C1330 C 0.04315 0.76318 0.26291
 C1331 C 0.05357 0.74995 0.24980
 C1332 C 0.04305 0.73686 0.23664
 H1333 H -0.01896 0.71374 0.21322
 H1334 H 0.01802 0.71350 0.21322
 H1335 H -0.01864 0.78693 0.28647
 H1336 H 0.01832 0.78673 0.28643
 H1337 H -0.07085 0.75059 0.24998
 H1338 H 0.07021 0.74984 0.24983
 C1339 C 0.45616 0.73679 0.73708
 C1340 C 0.44553 0.74983 0.75022
 C1341 C 0.45588 0.76299 0.76343
 C1342 C 0.47754 0.76318 0.76367
 C1343 C 0.48853 0.75001 0.75036
 C1344 C 0.47780 0.73678 0.73697
 C1345 C 0.48897 0.72385 0.72393
 C1346 C 0.51032 0.72391 0.72400
 C1347 C 0.52125 0.73690 0.73712
 C1348 C 0.51028 0.75007 0.75043
 C1349 C 0.48848 0.77623 0.77672
 C1350 C 0.50985 0.77630 0.77679
 C1351 C 0.52102 0.76332 0.76379
 C1352 C 0.54268 0.76328 0.76368
 C1353 C 0.55328 0.75019 0.75056
 C1354 C 0.54290 0.73705 0.73736
 H1355 H 0.48127 0.71356 0.71354
 H1356 H 0.51821 0.71366 0.71367
 H1357 H 0.48059 0.78653 0.78701
 H1358 H 0.51756 0.78664 0.78712
 H1359 H 0.42889 0.74975 0.75016
 H1360 H 0.56992 0.75024 0.75060
 C1361 C 0.42517 0.28172 0.30783
 C1362 C 0.41608 0.29945 0.29959
 C1363 C 0.42210 0.30589 0.27997
 C1364 C 0.43600 0.29437 0.26854
 C1365 C 0.44431 0.27635 0.27656
 C1366 C 0.43914 0.27025 0.29637
 H1367 H 0.42116 0.27633 0.32291
 H1368 H 0.41565 0.31945 0.27306
 H1369 H 0.43984 0.29919 0.25320
 H1370 H 0.44543 0.25627 0.30269
 C1371 C 0.42039 0.80556 0.77928
 C1372 C 0.41429 0.79933 0.79900
 C1373 C 0.42373 0.78183 0.80748
 C1374 C 0.43800 0.77048 0.79623
 C1375 C 0.44325 0.77646 0.77641
 C1376 C 0.43461 0.79418 0.76812
 H1377 H 0.41395 0.81896 0.77205
 H1378 H 0.41980 0.77640 0.82255
 H1379 H 0.44446 0.75667 0.80273
 H1380 H 0.43848 0.79888 0.75274
 C1381 C -0.07583 0.28180 0.80673
 C1382 C -0.08474 0.29968 0.79860
 C1383 C -0.07864 0.30619 0.77903
 C1384 C -0.06468 0.29470 0.76761
 C1385 C -0.05643 0.27661 0.77558
 C1386 C -0.06184 0.27035 0.79528
 H1387 H -0.07993 0.27632 0.82174
 H1388 H -0.08501 0.31984 0.77220
 H1389 H -0.06071 0.29961 0.75233
 H1390 H -0.05569 0.25629 0.80153
 C1391 C -0.07563 0.78208 0.30735
 C1392 C -0.08439 0.80009 0.29935
 C1393 C -0.07809 0.80678 0.27991
 C1394 C -0.06415 0.79530 0.26844
 C1395 C -0.05609 0.77706 0.27625
 C1396 C -0.06166 0.77064 0.29585
 H1397 H -0.07986 0.77647 0.32229
 H1398 H -0.08431 0.82054 0.27318
 H1399 H -0.06009 0.80031 0.25322
 H1400 H -0.05568 0.75644 0.30198
 C1401 C 0.57935 0.69462 0.27904
 C1402 C 0.58480 0.70072 0.29889
 C1403 C 0.57499 0.71793 0.30739
 C1404 C 0.56082 0.72922 0.29601
 C1405 C 0.55616 0.72348 0.27599
 C1406 C 0.56526 0.70597 0.26768
 H1407 H 0.58640 0.68148 0.27190
 H1408 H 0.57855 0.72301 0.32266
 H1409 H 0.55399 0.74283 0.30255
 H1410 H 0.56186 0.70144 0.25217
 C1411 C 0.57870 0.19395 0.77949
 C1412 C 0.58480 0.20043 0.79902
 C1413 C 0.57562 0.21808 0.80732
 C1414 C 0.56141 0.22940 0.79603
 C1415 C 0.55605 0.22323 0.77633
 C1416 C 0.56453 0.20532 0.76822
 H1417 H 0.58529 0.18048 0.77253
 H1418 H 0.57968 0.22350 0.82234
 H1419 H 0.55510 0.24335 0.80238
 H1420 H 0.56064 0.20050 0.75292
 C1421 C 1.07453 0.71793 0.80730
 C1422 C 1.08424 0.70066 0.79883
 C1423 C 1.07869 0.69448 0.77904
 C1424 C 1.06458 0.70582 0.76769
 C1425 C 1.05558 0.72339 0.77597
 C1426 C 1.06035 0.72922 0.79593
 H1427 H 1.07818 0.72309 0.82253
 H1428 H 1.08566 0.68129 0.77193
 H1429 H 1.06110 0.70123 0.75222
 H1430 H 1.05359 0.74288 0.80244
 C1431 C 1.07724 0.19340 0.28039
 C1432 C 1.08395 0.20030 0.29958
 C1433 C 1.07555 0.21853 0.30743
 C1434 C 1.06162 0.23002 0.29596
 C1435 C 1.05576 0.22344 0.27654
 C1436 C 1.06335 0.20492 0.26895
 H1437 H 1.08309 0.17939 0.27384
 H1438 H 1.08013 0.22435 0.32215
 H1439 H 1.05590 0.24437 0.30196
 H1440 H 1.05895 0.19971 0.25391
 C1441 C 0.57922 0.30568 0.72122
 C1442 C 0.58452 0.29971 0.70128
 C1443 C 0.57462 0.28261 0.69272
 C1444 C 0.56049 0.27129 0.70413
 C1445 C 0.55597 0.27691 0.72423
 C1446 C 0.56516 0.29430 0.73261
 H1447 H 0.58639 0.31870 0.72841
 H1448 H 0.57809 0.27763 0.67738
 H1449 H 0.55358 0.25776 0.69756
 H1450 H 0.56188 0.29870 0.74820
 C1451 C 0.57515 0.78199 0.19218
 C1452 C 0.58411 0.79983 0.20025
 C1453 C 0.57796 0.80642 0.21976
 C1454 C 0.56406 0.79494 0.23127
 C1455 C 0.55586 0.77681 0.22343
 C1456 C 0.56119 0.77055 0.20372
 H1457 H 0.57926 0.77646 0.17719
 H1458 H 0.58429 0.82009 0.22653
 H1459 H 0.56014 0.79987 0.24654
 H1460 H 0.55503 0.75648 0.19754
 C1461 C 1.07844 0.30623 0.22066
 C1462 C 1.08409 0.30011 0.20084
 C1463 C 1.07471 0.28264 0.19246
 C1464 C 1.06082 0.27108 0.20395
 C1465 C 1.05601 0.27683 0.22394
 C1466 C 1.06461 0.29462 0.23211
 H1467 H 1.08509 0.31961 0.22767
 H1468 H 1.07843 0.27750 0.17724
 H1469 H 1.05429 0.25731 0.19748
 H1470 H 1.06101 0.29921 0.24758
 C1471 C 1.07750 0.80633 0.72001
 C1472 C 1.08394 0.79964 0.70063
 C1473 C 1.07511 0.78173 0.69254
 C1474 C 1.06098 0.77036 0.70393
 C1475 C 1.05533 0.77675 0.72350
 C1476 C 1.06341 0.79492 0.73137
 H1477 H 1.08374 0.82004 0.72679
 H1478 H 1.07945 0.77611 0.67766
 H1479 H 1.05495 0.75623 0.69775
 H1480 H 1.05926 0.79992 0.74656
 C1481 C 0.42194 0.69362 0.72033
 C1482 C 0.41587 0.70016 0.70079
 C1483 C 0.42479 0.71803 0.69265
 C1484 C 0.43863 0.72953 0.70415
 C1485 C 0.44387 0.72331 0.72389
 C1486 C 0.43573 0.70516 0.73180
 H1487 H 0.41565 0.67992 0.72715
 H1488 H 0.42071 0.72353 0.67765
 H1489 H 0.44476 0.74362 0.69793
 H1490 H 0.43961 0.70027 0.74710
 C1491 C 0.42530 0.21810 0.19256
 C1492 C 0.41566 0.20072 0.20094
 C1493 C 0.42121 0.19441 0.22071
 C1494 C 0.43529 0.20568 0.23211
 C1495 C 0.44426 0.22331 0.22392
 C1496 C 0.43946 0.22932 0.20400
 H1497 H 0.42163 0.22338 0.17738
 H1498 H 0.41425 0.18116 0.22776
 H1499 H 0.43875 0.20100 0.24757
 H1500 H 0.44617 0.24305 0.19757
 C1501 C -0.07950 0.69497 0.22089
 C1502 C -0.08504 0.70104 0.20104
 C1503 C -0.07537 0.71830 0.19246
 C1504 C -0.06118 0.72963 0.20374
 C1505 C -0.05636 0.72386 0.22373
 C1506 C -0.06537 0.70634 0.23214
 H1507 H -0.08646 0.68181 0.22809
 H1508 H -0.07904 0.72340 0.17721
 H1509 H -0.05445 0.74327 0.19714
 H1510 H -0.06189 0.70183 0.24764
 C1511 C -0.07725 0.19321 0.71947
 C1512 C -0.08373 0.19998 0.70013
 C1513 C -0.07520 0.21810 0.69214
 C1514 C -0.06139 0.22965 0.70363
 C1515 C -0.05579 0.22324 0.72320
 C1516 C -0.06348 0.20481 0.73093
 H1517 H -0.08319 0.17928 0.72611
 H1518 H -0.07961 0.22381 0.67731
 H1519 H -0.05558 0.24394 0.69754
 H1520 H -0.05928 0.19973 0.74608
 C1521 C 0.30604 0.42146 0.27938
 C1522 C 0.29960 0.41565 0.29906
 C1523 C 0.28189 0.42489 0.30726
 C1524 C 0.27049 0.43885 0.29575
 C1525 C 0.27662 0.44388 0.27590
 C1526 C 0.29458 0.43535 0.26789
 H1527 H 0.31957 0.41488 0.27248
 H1528 H 0.27649 0.42102 0.32237
 H1529 H 0.25654 0.44526 0.30205
 H1530 H 0.29942 0.43904 0.25251
 C1531 C 0.28137 -0.07654 0.80686
 C1532 C 0.29972 -0.08498 0.79909
 C1533 C 0.30693 -0.07786 0.78005
 C1534 C 0.29559 -0.06374 0.76872
 C1535 C 0.27698 -0.05623 0.77623
 C1536 C 0.27010 -0.06238 0.79548
 H1537 H 0.27522 -0.08115 0.82146
 H1538 H 0.32100 -0.08352 0.77342
 H1539 H 0.30100 -0.05913 0.75378
 H1540 H 0.25566 -0.05672 0.80140
 C1541 C 0.80664 0.42257 0.78060
 C1542 C 0.79926 0.41515 0.79946
 C1543 C 0.78064 0.42322 0.80701
 C1544 C 0.76937 0.43738 0.79562
 C1545 C 0.77649 0.44393 0.77659
 C1546 C 0.79530 0.43673 0.76927
 H1547 H 0.82088 0.41716 0.77412
 H1548 H 0.77433 0.41835 0.82145
 H1549 H 0.75476 0.44277 0.80138
 H1550 H 0.80090 0.44161 0.75449
 C1551 C 0.80667 -0.07746 0.28085
 C1552 C 0.79931 -0.08474 0.29977
 C1553 C 0.78065 -0.07668 0.30723
 C1554 C 0.76930 -0.06270 0.29569
 C1555 C 0.77641 -0.05630 0.27659
 C1556 C 0.79526 -0.06349 0.26937
 H1557 H 0.82096 -0.08283 0.27446
 H1558 H 0.77435 -0.08142 0.32173
 H1559 H 0.75467 -0.05729 0.30139
 H1560 H 0.80086 -0.05871 0.25455
 C1561 C 0.30657 0.57727 0.71965
 C1562 C 0.29999 0.58364 0.70021
 C1563 C 0.28203 0.57493 0.69208
 C1564 C 0.27045 0.56102 0.70350
 C1565 C 0.27670 0.55550 0.72315
 C1566 C 0.29495 0.56340 0.73104
 H1567 H 0.32035 0.58337 0.72644
 H1568 H 0.27649 0.57923 0.67716
 H1569 H 0.25629 0.55506 0.69729
 H1570 H 0.29987 0.55928 0.74626
 C1571 C 0.30576 1.07881 0.22065
 C1572 C 0.29921 1.08480 0.20108
 C1573 C 0.28149 1.07560 0.19294
 C1574 C 0.27022 1.06144 0.20440
 C1575 C 0.27649 1.05617 0.22413
 C1576 C 0.29443 1.06472 0.23208
 H1577 H 0.31928 1.08539 0.22750
 H1578 H 0.27599 1.07961 0.17792
 H1579 H 0.25625 1.05506 0.19815
 H1580 H 0.29935 1.06090 0.24738
 C1581 C 0.80666 0.57704 0.21892
 C1582 C 0.79957 0.58377 0.19979
 C1583 C 0.78128 0.57539 0.19205
 C1584 C 0.76992 0.56137 0.20355
 C1585 C 0.77671 0.55539 0.22289
 C1586 C 0.79526 0.56304 0.23039
 H1587 H 0.82057 0.58313 0.22547
 H1588 H 0.77542 0.58000 0.17733
 H1589 H 0.75550 0.55569 0.19767
 H1590 H 0.80053 0.55870 0.24544
 C1591 C 0.80722 1.07727 0.71965
 C1592 C 0.80026 1.08393 0.70043
 C1593 C 0.78201 1.07551 0.69264
 C1594 C 0.77053 1.06164 0.70421
 C1595 C 0.77713 1.05586 0.72367
 C1596 C 0.79568 1.06345 0.73120
 H1597 H 0.82127 1.08311 0.72614
 H1598 H 0.77615 1.08007 0.67792
 H1599 H 0.75614 1.05595 0.69828
 H1600 H 0.80091 1.05914 0.74627
 C1601 C 0.69483 0.57916 0.27890
 C1602 C 0.70109 0.58468 0.29868
 C1603 C 0.71835 0.57488 0.30712
 C1604 C 0.72954 0.56064 0.29574
 C1605 C 0.72364 0.55590 0.27579
 C1606 C 0.70608 0.56499 0.26754
 H1607 H 0.68165 0.58619 0.27181
 H1608 H 0.72355 0.57850 0.32233
 H1609 H 0.74319 0.55381 0.30222
 H1610 H 0.70145 0.56154 0.25207
 C1611 C 0.69360 1.07770 0.78078
 C1612 C 0.70105 1.08522 0.79953
 C1613 C 0.71981 1.07736 0.80690
 C1614 C 0.73115 1.06332 0.79544
 C1615 C 0.72394 1.05666 0.77652
 C1616 C 0.70500 1.06366 0.76938
 H1617 H 0.67924 1.08293 0.77447
 H1618 H 0.72619 1.08231 0.82125
 H1619 H 0.74585 1.05807 0.80105
 H1620 H 0.69934 1.05869 0.75469
 C1621 C 0.19442 0.57917 0.77860
 C1622 C 0.20057 0.58461 0.79843
 C1623 C 0.21776 0.57476 0.80694
 C1624 C 0.22898 0.56051 0.79558
 C1625 C 0.22317 0.55582 0.77559
 C1626 C 0.20569 0.56499 0.76727
 H1627 H 0.18130 0.58629 0.77146
 H1628 H 0.22290 0.57833 0.82218
 H1629 H 0.24260 0.55365 0.80211
 H1630 H 0.20114 0.56162 0.75176
 C1631 C 0.19318 1.07718 0.28060
 C1632 C 0.19999 1.08376 0.29988
 C1633 C 0.21810 1.07517 0.30786
 C1634 C 0.22962 1.06125 0.29642
 C1635 C 0.22319 1.05557 0.27689
 C1636 C 0.20474 1.06329 0.26919
 H1637 H 0.17924 1.08313 0.27397
 H1638 H 0.22381 1.07962 0.32266
 H1639 H 0.24390 1.05541 0.30250
 H1640 H 0.19962 1.05902 0.25408
 C1641 C 0.69462 0.42090 0.72100
 C1642 C 0.70075 0.41555 0.70112
 C1643 C 0.71794 0.42540 0.69256
 C1644 C 0.72920 0.43954 0.70394
 C1645 C 0.72340 0.44412 0.72398
 C1646 C 0.70592 0.43497 0.73234
 H1647 H 0.68152 0.41377 0.72818
 H1648 H 0.72306 0.42188 0.67728
 H1649 H 0.74281 0.44641 0.69739
 H1650 H 0.70139 0.43829 0.74789
 C1651 C 0.69396 -0.07781 0.21950
 C1652 C 0.70087 -0.08424 0.20019
 C1653 C 0.71901 -0.07558 0.19229
 C1654 C 0.73039 -0.06165 0.20382
 C1655 C 0.72380 -0.05605 0.22336
 C1656 C 0.70538 -0.06393 0.23100
 H1657 H 0.68004 -0.08387 0.22612
 H1658 H 0.72479 -0.07991 0.17746
 H1659 H 0.74467 -0.05571 0.19779
 H1660 H 0.70017 -0.05978 0.24613
 C1661 C 0.19340 0.42278 0.21948
 C1662 C 0.20027 0.41622 0.20020
 C1663 C 0.21847 0.42471 0.19225
 C1664 C 0.22997 0.43857 0.20373
 C1665 C 0.22343 0.44427 0.22324
 C1666 C 0.20494 0.43660 0.23092
 H1667 H 0.17942 0.41687 0.22611
 H1668 H 0.22424 0.42024 0.17746
 H1669 H 0.24431 0.44435 0.19767
 H1670 H 0.19977 0.44087 0.24603
 C1671 C 0.19403 -0.07782 0.71993
 C1672 C 0.20098 -0.08450 0.70071
 C1673 C 0.21920 -0.07603 0.69279
 C1674 C 0.23058 -0.06199 0.70417
 C1675 C 0.22391 -0.05608 0.72358
 C1676 C 0.20545 -0.06382 0.73128
 H1677 H 0.18008 -0.08378 0.72657
 H1678 H 0.22505 -0.08057 0.67805
 H1679 H 0.24493 -0.05621 0.69813
 H1680 H 0.20023 -0.05947 0.74635
 C1681 C 0.28034 0.30674 0.42377
 C1682 C 0.29919 0.29936 0.41626
 C1683 C 0.30676 0.28068 0.42392
 C1684 C 0.29535 0.26927 0.43795
 C1685 C 0.27628 0.27638 0.44471
 C1686 C 0.26896 0.29529 0.43780
 H1687 H 0.27399 0.32106 0.41845
 H1688 H 0.32122 0.27449 0.41874
 H1689 H 0.30109 0.25459 0.44307
 H1690 H 0.25415 0.30087 0.44282
 C1691 C 0.28168 0.80711 -0.07633
 C1692 C 0.30042 0.79974 -0.08411
 C1693 C 0.30777 0.78072 -0.07711
 C1694 C 0.29625 0.76904 -0.06338
 C1695 C 0.27731 0.77622 -0.05631
 C1696 C 0.27020 0.79540 -0.06262
 H1697 H 0.27556 0.82172 -0.08108
 H1698 H 0.32209 0.77450 -0.08265
 H1699 H 0.30182 0.75415 -0.05869
 H1700 H 0.25551 0.80105 -0.05733
 C1701 C 0.78005 0.30689 -0.07696
 C1702 C 0.79924 0.29987 -0.08395
 C1703 C 0.80703 0.28142 -0.07597
 C1704 C 0.79554 0.26988 -0.06211
 C1705 C 0.77616 0.27664 -0.05587
 C1706 C 0.76859 0.29531 -0.06312
 H1707 H 0.77350 0.32101 -0.08255
 H1708 H 0.82176 0.27552 -0.08075
 H1709 H 0.80148 0.25538 -0.05670
 H1710 H 0.75355 0.30062 -0.05848
 C1711 C 0.77997 0.80701 0.42378
 C1712 C 0.79902 0.79985 0.41655
 C1713 C 0.80672 0.78129 0.42438
 C1714 C 0.79527 0.76979 0.43830
 C1715 C 0.77601 0.77668 0.44475
 C1716 C 0.76855 0.79547 0.43769
 H1717 H 0.77352 0.82123 0.41834
 H1718 H 0.82135 0.77529 0.41945
 H1719 H 0.80114 0.75522 0.44360
 H1720 H 0.75362 0.80090 0.44252
 C1721 C 0.69292 0.28128 0.57584
 C1722 C 0.70049 0.29995 0.58345
 C1723 C 0.71936 0.30730 0.57596
 C1724 C 0.73078 0.29583 0.56202
 C1725 C 0.72347 0.27692 0.55520
 C1726 C 0.70437 0.26984 0.56189
 H1727 H 0.67845 0.27511 0.58101
 H1728 H 0.72570 0.32162 0.58123
 H1729 H 0.74560 0.30138 0.55702
 H1730 H 0.69864 0.25516 0.55681
 C1731 C 0.71996 0.80627 1.07608
 C1732 C 0.70123 0.79884 1.08384
 C1733 C 0.69377 0.78002 1.07648
 C1734 C 0.70512 0.76860 1.06242
 C1735 C 0.72403 0.77582 1.05535
 C1736 C 0.73127 0.79482 1.06201
 H1737 H 0.72623 0.82069 1.08117
 H1738 H 0.67942 0.77375 1.08189
 H1739 H 0.69942 0.75385 1.05748
 H1740 H 0.74596 0.80050 1.05675
 C1741 C 0.21967 0.30700 1.07640
 C1742 C 0.20074 0.29967 1.08379
 C1743 C 0.19317 0.28105 1.07607
 C1744 C 0.20459 0.26970 1.06201
 C1745 C 0.22369 0.27680 1.05532
 C1746 C 0.23106 0.29561 1.06236
 H1747 H 0.22606 0.32123 1.08181
 H1748 H 0.17869 0.27486 1.08121
 H1749 H 0.19885 0.25505 1.05683
 H1750 H 0.24592 0.30115 1.05744
 C1751 C 0.21956 0.80687 0.57631
 C1752 C 0.20064 0.79955 0.58372
 C1753 C 0.19314 0.78084 0.57616
 C1754 C 0.20465 0.76936 0.56229
 C1755 C 0.22376 0.77644 0.55561
 C1756 C 0.23104 0.79535 0.56244
 H1757 H 0.22587 0.82121 0.58154
 H1758 H 0.17864 0.77468 0.58129
 H1759 H 0.19893 0.75467 0.55721
 H1760 H 0.24587 0.80092 0.55747
 C1761 C 0.28110 0.69294 0.57620
 C1762 C 0.29980 0.70046 0.58385
 C1763 C 0.30719 0.71930 0.57643
 C1764 C 0.29576 0.73071 0.56246
 C1765 C 0.27684 0.72343 0.55554
 C1766 C 0.26970 0.70438 0.56222
 H1767 H 0.27488 0.67850 0.58134
 H1768 H 0.32152 0.72561 0.58175
 H1769 H 0.30135 0.74551 0.55750
 H1770 H 0.25500 0.69868 0.55709
 C1771 C 0.28127 0.19319 1.07542
 C1772 C 0.29991 0.20074 1.08319
 C1773 C 0.30723 0.21967 1.07590
 C1774 C 0.29574 0.23116 1.06203
 C1775 C 0.27685 0.22387 1.05506
 C1776 C 0.26982 0.20470 1.06154
 H1777 H 0.27514 0.17866 1.08041
 H1778 H 0.32153 0.22601 1.08127
 H1779 H 0.30127 0.24602 1.05719
 H1780 H 0.25516 0.19897 1.05632
 C1781 C 0.80734 0.71851 1.07547
 C1782 C 0.79906 0.70066 1.08426
 C1783 C 0.78002 0.69347 1.07716
 C1784 C 0.76903 0.70446 1.06254
 C1785 C 0.77694 0.72271 1.05461
 C1786 C 0.79632 0.72947 1.06080
 H1787 H 0.82192 0.72455 1.08045
 H1788 H 0.77321 0.67969 1.08327
 H1789 H 0.75399 0.69917 1.05798
 H1790 H 0.80249 0.74369 1.05491
 C1791 C 0.78058 0.19349 0.57643
 C1792 C 0.79943 0.20084 0.58386
 C1793 C 0.80694 0.21958 0.57625
 C1794 C 0.79551 0.23099 0.56226
 C1795 C 0.77648 0.22384 0.55551
 C1796 C 0.76918 0.20493 0.56244
 H1797 H 0.77425 0.17916 0.58175
 H1798 H 0.82137 0.22579 0.58142
 H1799 H 0.80121 0.24570 0.55715
 H1800 H 0.75438 0.19935 0.55748
 C1801 C 0.71930 0.69289 0.42431
 C1802 C 0.70046 0.70023 0.41679
 C1803 C 0.69286 0.71892 0.42439
 C1804 C 0.70424 0.73037 0.43834
 C1805 C 0.72332 0.72330 0.44508
 C1806 C 0.73065 0.70438 0.43826
 H1807 H 0.72568 0.67857 0.41905
 H1808 H 0.67840 0.72509 0.41921
 H1809 H 0.69848 0.74507 0.44340
 H1810 H 0.74547 0.69883 0.44326
 C1811 C 0.71951 0.19274 -0.07636
 C1812 C 0.70054 0.19997 -0.08368
 C1813 C 0.69291 0.21862 -0.07603
 C1814 C 0.70437 0.23015 -0.06222
 C1815 C 0.72356 0.22320 -0.05568
 C1816 C 0.73094 0.20431 -0.06255
 H1817 H 0.72590 0.17845 -0.08166
 H1818 H 0.67834 0.22467 -0.08103
 H1819 H 0.69857 0.24480 -0.05708
 H1820 H 0.74582 0.19884 -0.05767
 C1821 C 0.21959 0.69295 -0.07664
 C1822 C 0.20073 0.70041 -0.08402
 C1823 C 0.19337 0.71920 -0.07646
 C1824 C 0.20497 0.73061 -0.06264
 C1825 C 0.22404 0.72339 -0.05602
 C1826 C 0.23116 0.70440 -0.06284
 H1827 H 0.22580 0.67855 -0.08189
 H1828 H 0.17892 0.72546 -0.08155
 H1829 H 0.19937 0.74536 -0.05758
 H1830 H 0.24596 0.69873 -0.05793
 C1831 C 0.21936 0.19298 0.42367
 C1832 C 0.20047 0.20035 0.41630
 C1833 C 0.19291 0.21900 0.42402
 C1834 C 0.20433 0.23034 0.43803
 C1835 C 0.22341 0.22320 0.44470
 C1836 C 0.23075 0.20435 0.43768
 H1837 H 0.22574 0.17871 0.41826
 H1838 H 0.17845 0.22521 0.41890
 H1839 H 0.19859 0.24500 0.44321
 H1840 H 0.24559 0.19878 0.44258
 C1841 C 0.30628 0.42179 0.72018
 C1842 C 0.29974 0.41579 0.70064
 C1843 C 0.28196 0.42491 0.69248
 C1844 C 0.27059 0.43894 0.70395
 C1845 C 0.27681 0.44413 0.72369
 C1846 C 0.29485 0.43574 0.73162
 H1847 H 0.31986 0.41530 0.72703
 H1848 H 0.27647 0.42090 0.67747
 H1849 H 0.25659 0.44529 0.69770
 H1850 H 0.29976 0.43959 0.74690
 C1851 C 0.30554 0.92139 0.22042
 C1852 C 0.29926 0.91572 0.20069
 C1853 C 0.28188 0.92533 0.19227
 C1854 C 0.27063 0.93957 0.20361
 C1855 C 0.27660 0.94449 0.22350
 C1856 C 0.29425 0.93556 0.23173
 H1857 H 0.31877 0.91445 0.22751
 H1858 H 0.27660 0.92155 0.17712
 H1859 H 0.25688 0.94623 0.19716
 H1860 H 0.29889 0.93909 0.24717
 C1861 C 0.78153 0.42451 0.19268
 C1862 C 0.79935 0.41543 0.20076
 C1863 C 0.80601 0.42151 0.22025
 C1864 C 0.79464 0.43553 0.23170
 C1865 C 0.77654 0.44388 0.22383
 C1866 C 0.77021 0.43857 0.20416
 H1867 H 0.77597 0.42046 0.17771
 H1868 H 0.81965 0.41507 0.22702
 H1869 H 0.79964 0.43945 0.24693
 H1870 H 0.75617 0.44486 0.19796
 C1871 C 0.80497 0.92135 0.72121
 C1872 C 0.79872 0.91580 0.70144
 C1873 C 0.78134 0.92543 0.69305
 C1874 C 0.77007 0.93959 0.70446
 C1875 C 0.77602 0.94441 0.72437
 C1876 C 0.79366 0.93545 0.73258
 H1877 H 0.81822 0.91440 0.72826
 H1878 H 0.77611 0.92176 0.67786
 H1879 H 0.75635 0.94632 0.69801
 H1880 H 0.79832 0.93896 0.74803
 C1881 C 0.69418 0.57798 0.72060
 C1882 C 0.70073 0.58432 0.70112
 C1883 C 0.71852 0.57537 0.69279
 C1884 C 0.72994 0.56120 0.70404
 C1885 C 0.72373 0.55566 0.72372
 C1886 C 0.70565 0.56386 0.73182
 H1887 H 0.68055 0.58429 0.72755
 H1888 H 0.72403 0.57964 0.67783
 H1889 H 0.74399 0.55506 0.69768
 H1890 H 0.70076 0.55978 0.74708
 C1891 C 0.71919 0.07535 0.19263
 C1892 C 0.70113 0.08404 0.20068
 C1893 C 0.69426 0.07744 0.21996
 C1894 C 0.70565 0.06335 0.23128
 C1895 C 0.72398 0.05543 0.22349
 C1896 C 0.73054 0.06121 0.20399
 H1897 H 0.72496 0.07984 0.17783
 H1898 H 0.68041 0.08353 0.22669
 H1899 H 0.70049 0.05907 0.24641
 H1900 H 0.74479 0.05529 0.19786
 C1901 C 0.19446 0.57916 0.22095
 C1902 C 0.20075 0.58466 0.20114
 C1903 C 0.21798 0.57480 0.19267
 C1904 C 0.22911 0.56050 0.20406
 C1905 C 0.22317 0.55577 0.22404
 C1906 C 0.20564 0.56493 0.23231
 H1907 H 0.18131 0.58626 0.22807
 H1908 H 0.22321 0.57841 0.17744
 H1909 H 0.24275 0.55363 0.19756
 H1910 H 0.20098 0.56150 0.24780
 C1911 C 0.19403 0.07760 0.72067
 C1912 C 0.20071 0.08388 0.70122
 C1913 C 0.21858 0.07494 0.69305
 C1914 C 0.22994 0.06084 0.70443
 C1915 C 0.22359 0.05538 0.72408
 C1916 C 0.20544 0.06356 0.73203
 H1917 H 0.18033 0.08390 0.72751
 H1918 H 0.22419 0.07918 0.67811
 H1919 H 0.24405 0.05470 0.69820
 H1920 H 0.20044 0.05952 0.74727
 C1921 C 0.30594 0.57746 0.28000
 C1922 C 0.29919 0.58391 0.29937
 C1923 C 0.28125 0.57509 0.30754
 C1924 C 0.26987 0.56099 0.29623
 C1925 C 0.27629 0.55536 0.27665
 C1926 C 0.29453 0.56339 0.26873
 H1927 H 0.31969 0.58366 0.27317
 H1928 H 0.27558 0.57946 0.32240
 H1929 H 0.25571 0.55498 0.30245
 H1930 H 0.29957 0.55923 0.25355
 C1931 C 0.30634 0.07725 0.78027
 C1932 C 0.29939 0.08388 0.79950
 C1933 C 0.28131 0.07521 0.80752
 C1934 C 0.27002 0.06105 0.79619
 C1935 C 0.27666 0.05524 0.77674
 C1936 C 0.29501 0.06314 0.76897
 H1937 H 0.32021 0.08333 0.77356
 H1938 H 0.27547 0.07974 0.82227
 H1939 H 0.25576 0.05515 0.80229
 H1940 H 0.30021 0.05885 0.75387
 C1941 C 0.80695 0.57700 0.78007
 C1942 C 0.79990 0.58360 0.79928
 C1943 C 0.78169 0.57506 0.80712
 C1944 C 0.77034 0.56111 0.79563
 C1945 C 0.77704 0.55537 0.77619
 C1946 C 0.79555 0.56308 0.76860
 H1947 H 0.82094 0.58296 0.77352
 H1948 H 0.77578 0.57954 0.82186
 H1949 H 0.75598 0.55529 0.80160
 H1950 H 0.80084 0.55879 0.75354
 C1951 C 0.80645 0.07739 0.28003
 C1952 C 0.79955 0.08387 0.29932
 C1953 C 0.78148 0.07515 0.30730
 C1954 C 0.77018 0.06103 0.29592
 C1955 C 0.77681 0.05528 0.27644
 C1956 C 0.79512 0.06330 0.26868
 H1957 H 0.82026 0.08358 0.27331
 H1958 H 0.77569 0.07954 0.32212
 H1959 H 0.75593 0.05508 0.30202
 H1960 H 0.80030 0.05909 0.25355
 C1961 C 0.71753 0.42540 0.30778
 C1962 C 0.69971 0.41648 0.29956
 C1963 C 0.69331 0.42259 0.27998
 C1964 C 0.70500 0.43636 0.26853
 C1965 C 0.72314 0.44444 0.27651
 C1966 C 0.72917 0.43922 0.29631
 H1967 H 0.72291 0.42131 0.32282
 H1968 H 0.67963 0.41634 0.27312
 H1969 H 0.70021 0.44027 0.25321
 H1970 H 0.74322 0.44534 0.30261
 C1971 C 0.69320 0.92282 0.78027
 C1972 C 0.69990 0.91630 0.79962
 C1973 C 0.71774 0.92520 0.80784
 C1974 C 0.72908 0.93944 0.79657
 C1975 C 0.72273 0.94512 0.77699
 C1976 C 0.70458 0.93702 0.76904
 H1977 H 0.67953 0.91656 0.77341
 H1978 H 0.72337 0.92078 0.82269
 H1979 H 0.74320 0.94548 0.80281
 H1980 H 0.69961 0.94119 0.75385
 C1981 C 0.21830 0.42462 0.80735
 C1982 C 0.20039 0.41581 0.79918
 C1983 C 0.19379 0.42221 0.77976
 C1984 C 0.20531 0.43621 0.76843
 C1985 C 0.22350 0.44424 0.77635
 C1986 C 0.22978 0.43867 0.79598
 H1987 H 0.22385 0.42031 0.82226
 H1988 H 0.18007 0.41602 0.77294
 H1989 H 0.20037 0.44033 0.75321
 H1990 H 0.24391 0.44469 0.80221
 C1991 C 0.21807 0.92472 0.30729
 C1992 C 0.20034 0.91559 0.29912
 C1993 C 0.19384 0.92161 0.27954
 C1994 C 0.20526 0.93565 0.26813
 C1995 C 0.22325 0.94410 0.27613
 C1996 C 0.22944 0.93881 0.29586
 H1997 H 0.22349 0.92073 0.32235
 H1998 H 0.18029 0.91509 0.27268
 H1999 H 0.20039 0.93952 0.25282
 H2000 H 0.24342 0.94511 0.30214
 C2001 C 0.42508 0.28154 0.69260
 C2002 C 0.41594 0.29928 0.70077
 C2003 C 0.42190 0.30577 0.72034
 C2004 C 0.43586 0.29435 0.73178
 C2005 C 0.44428 0.27636 0.72383
 C2006 C 0.43911 0.27017 0.70407
 H2007 H 0.42108 0.27608 0.67758
 H2008 H 0.41539 0.31932 0.72720
 H2009 H 0.43968 0.29923 0.74708
 H2010 H 0.44547 0.25620 0.69782
 C2011 C 0.42511 0.78207 0.19278
 C2012 C 0.41538 0.79937 0.20119
 C2013 C 0.42089 0.80559 0.22098
 C2014 C 0.43505 0.79433 0.23235
 C2015 C 0.44411 0.77678 0.22412
 C2016 C 0.43933 0.77085 0.20419
 H2017 H 0.42147 0.77685 0.17758
 H2018 H 0.41387 0.81878 0.22805
 H2019 H 0.43851 0.79896 0.24781
 H2020 H 0.44612 0.75719 0.19772
 C2021 C 0.92182 0.30588 0.21996
 C2022 C 0.91584 0.29938 0.20039
 C2023 C 0.92511 0.28176 0.19214
 C2024 C 0.93920 0.27042 0.20356
 C2025 C 0.94435 0.27656 0.22333
 C2026 C 0.93586 0.29450 0.23134
 H2027 H 0.91524 0.31938 0.22687
 H2028 H 0.92115 0.27636 0.17709
 H2029 H 0.94560 0.25650 0.19725
 H2030 H 0.93966 0.29934 0.24666
 C2031 C 0.92480 0.78265 0.69319
 C2032 C 0.91509 0.79998 0.70156
 C2033 C 0.92049 0.80614 0.72140
 C2034 C 0.93450 0.79478 0.73286
 C2035 C 0.94355 0.77720 0.72465
 C2036 C 0.93888 0.77134 0.70467
 H2037 H 0.92125 0.77749 0.67795
 H2038 H 0.91348 0.81935 0.72845
 H2039 H 0.93789 0.79938 0.74835
 H2040 H 0.94565 0.75767 0.69822
 C2041 C 0.57805 0.30634 0.27939
 C2042 C 0.58386 0.30006 0.29910
 C2043 C 0.57464 0.28244 0.30744
 C2044 C 0.56080 0.27089 0.29599
 C2045 C 0.55586 0.27679 0.27608
 C2046 C 0.56427 0.29474 0.26796
 H2047 H 0.58456 0.31986 0.27242
 H2048 H 0.57848 0.27717 0.32259
 H2049 H 0.55443 0.25699 0.30240
 H2050 H 0.56057 0.29944 0.25256
 C2051 C 0.57729 0.80627 0.78013
 C2052 C 0.58369 0.79956 0.79951
 C2053 C 0.57477 0.78173 0.80772
 C2054 C 0.56061 0.77039 0.79643
 C2055 C 0.55504 0.77676 0.77682
 C2056 C 0.56318 0.79490 0.76886
 H2057 H 0.58357 0.81994 0.77327
 H2058 H 0.57910 0.77610 0.82261
 H2059 H 0.55452 0.75629 0.80267
 H2060 H 0.55907 0.79989 0.75366
 C2061 C 0.07516 0.28140 0.80726
 C2062 C 0.08402 0.29928 0.79907
 C2063 C 0.07757 0.30601 0.77971
 C2064 C 0.06342 0.29466 0.76847
 C2065 C 0.05532 0.27650 0.77643
 C2066 C 0.06097 0.27009 0.79599
 H2067 H 0.07956 0.27573 0.82211
 H2068 H 0.08382 0.31970 0.77286
 H2069 H 0.05927 0.29967 0.75328
 H2070 H 0.05493 0.25596 0.80222
 C2071 C 0.07501 0.78162 0.30719
 C2072 C 0.08425 0.79929 0.29897
 C2073 C 0.07833 0.80580 0.27937
 C2074 C 0.06426 0.79447 0.26799
 C2075 C 0.05569 0.77656 0.27603
 C2076 C 0.06090 0.77033 0.29578
 H2077 H 0.07893 0.77618 0.32226
 H2078 H 0.08496 0.81929 0.27247
 H2079 H 0.06047 0.79935 0.25266
 H2080 H 0.05450 0.75640 0.30209
 C2081 C 0.57763 0.69407 0.72082
 C2082 C 0.58409 0.70080 0.70143
 C2083 C 0.57525 0.71870 0.69330
 C2084 C 0.56110 0.73006 0.70465
 C2085 C 0.55546 0.72366 0.72425
 C2086 C 0.56353 0.70547 0.73214
 H2087 H 0.58383 0.68033 0.72761
 H2088 H 0.57961 0.72435 0.67842
 H2089 H 0.55504 0.74418 0.69844
 H2090 H 0.55935 0.70042 0.74732
 C2091 C 0.57825 0.19384 0.22029
 C2092 C 0.58467 0.20053 0.20088
 C2093 C 0.57584 0.21844 0.19275
 C2094 C 0.56170 0.22981 0.20410
 C2095 C 0.55606 0.22342 0.22370
 C2096 C 0.56415 0.20525 0.23161
 H2097 H 0.58448 0.18012 0.22710
 H2098 H 0.58020 0.22408 0.17786
 H2099 H 0.55565 0.24393 0.19789
 H2100 H 0.56001 0.20023 0.24682
 C2101 C 0.07871 0.69447 0.22050
 C2102 C 0.08431 0.70067 0.20068
 C2103 C 0.07459 0.71793 0.19218
 C2104 C 0.06035 0.72919 0.20355
 C2105 C 0.05553 0.72334 0.22353
 C2106 C 0.06454 0.70578 0.23183
 H2107 H 0.08571 0.68131 0.22763
 H2108 H 0.07828 0.72311 0.17695
 H2109 H 0.05361 0.74286 0.19703
 H2110 H 0.06105 0.70119 0.24732
 C2111 C 0.07811 0.19379 0.72078
 C2112 C 0.08432 0.20032 0.70126
 C2113 C 0.07529 0.21806 0.69299
 C2114 C 0.06117 0.22945 0.70434
 C2115 C 0.05577 0.22325 0.72405
 C2116 C 0.06405 0.20522 0.73210
 H2117 H 0.08449 0.18019 0.72769
 H2118 H 0.07947 0.22355 0.67799
 H2119 H 0.05494 0.24345 0.69801
 H2120 H 0.06005 0.20034 0.74739
 C2121 C 0.42486 0.71792 0.30759
 C2122 C 0.41575 0.70030 0.29920
 C2123 C 0.42192 0.69396 0.27961
 C2124 C 0.43602 0.70547 0.26837
 C2125 C 0.44438 0.72338 0.27654
 C2126 C 0.43901 0.72938 0.29632
 H2127 H 0.42072 0.72326 0.32263
 H2128 H 0.41546 0.68049 0.27259
 H2129 H 0.43997 0.70075 0.25303
 H2130 H 0.44525 0.74331 0.30274
 C2131 C 0.42225 0.19344 0.77991
 C2132 C 0.41589 0.20006 0.79934
 C2133 C 0.42474 0.21793 0.80747
 C2134 C 0.43879 0.22937 0.79605
 C2135 C 0.44431 0.22308 0.77641
 C2136 C 0.43625 0.20492 0.76852
 H2137 H 0.41604 0.17973 0.77312
 H2138 H 0.42046 0.22350 0.82239
 H2139 H 0.44485 0.24347 0.80226
 H2140 H 0.44035 0.19996 0.75330
 C2141 C 0.92399 0.71853 0.80796
 C2142 C 0.91573 0.70035 0.79991
 C2143 C 0.92252 0.69368 0.78064
 C2144 C 0.93640 0.70536 0.76933
 C2145 C 0.94390 0.72380 0.77713
 C2146 C 0.93792 0.73018 0.79662
 H2147 H 0.91925 0.72418 0.82272
 H2148 H 0.91681 0.67968 0.77398
 H2149 H 0.94087 0.70032 0.75424
 H2150 H 0.94355 0.74449 0.80275
 C2151 C 0.92206 0.19377 0.27969
 C2152 C 0.91572 0.20041 0.29912
 C2153 C 0.92447 0.21838 0.30715
 C2154 C 0.93847 0.22983 0.29569
 C2155 C 0.94407 0.22346 0.27609
 C2156 C 0.93603 0.20525 0.26826
 H2157 H 0.91584 0.18003 0.27294
 H2158 H 0.92021 0.22396 0.32207
 H2159 H 0.94449 0.24398 0.30185
 H2160 H 0.94015 0.20026 0.25306
 C2161 C 0.28030 0.30644 0.57676
 C2162 C 0.29919 0.29909 0.58416
 C2163 C 0.30673 0.28040 0.57650
 C2164 C 0.29529 0.26900 0.56254
 C2165 C 0.27621 0.27613 0.55585
 C2166 C 0.26889 0.29501 0.56280
 H2167 H 0.27394 0.32074 0.58211
 H2168 H 0.32119 0.27420 0.58163
 H2169 H 0.30101 0.25432 0.55742
 H2170 H 0.25405 0.30058 0.55789
 C2171 C 0.30757 0.78132 0.07525
 C2172 C 0.29996 0.79996 0.08295
 C2173 C 0.28109 0.80731 0.07550
 C2174 C 0.26969 0.79583 0.06158
 C2175 C 0.27701 0.77693 0.05470
 C2176 C 0.29614 0.76988 0.06132
 H2177 H 0.32206 0.77516 0.08035
 H2178 H 0.27472 0.82161 0.08081
 H2179 H 0.25486 0.80139 0.05663
 H2180 H 0.30191 0.75522 0.05618
 C2181 C 0.80691 0.28076 0.07580
 C2182 C 0.79944 0.29953 0.08330
 C2183 C 0.78061 0.30694 0.07580
 C2184 C 0.76919 0.29545 0.06190
 C2185 C 0.77642 0.27647 0.05516
 C2186 C 0.79545 0.26931 0.06192
 H2187 H 0.82133 0.27452 0.08100
 H2188 H 0.77433 0.32132 0.08100
 H2189 H 0.75440 0.30107 0.05688
 H2190 H 0.80113 0.25457 0.05691
 C2191 C 0.78058 0.80750 0.57621
 C2192 C 0.79939 0.80011 0.58375
 C2193 C 0.80685 0.78129 0.57633
 C2194 C 0.79535 0.76977 0.56253
 C2195 C 0.77631 0.77690 0.55576
 C2196 C 0.76911 0.79594 0.56240
 H2197 H 0.77432 0.82192 0.58132
 H2198 H 0.82127 0.77507 0.58155
 H2199 H 0.80101 0.75500 0.55759
 H2200 H 0.75434 0.80155 0.55736
 C2201 C 0.30701 0.71849 0.42406
 C2202 C 0.29935 0.69992 0.41630
 C2203 C 0.28033 0.69272 0.42356
 C2204 C 0.26890 0.70423 0.43747
 C2205 C 0.27633 0.72302 0.44450
 C2206 C 0.29554 0.72996 0.43797
 H2207 H 0.32159 0.72454 0.41905
 H2208 H 0.27389 0.67850 0.41815
 H2209 H 0.25398 0.69879 0.44230
 H2210 H 0.30136 0.74456 0.44319
 C2211 C 0.30691 0.21865 0.92399
 C2212 C 0.29930 0.20006 0.91625
 C2213 C 0.28019 0.19294 0.92334
 C2214 C 0.26863 0.20455 0.93707
 C2215 C 0.27603 0.22335 0.94409
 C2216 C 0.29533 0.23022 0.93773
 H2217 H 0.32157 0.22464 0.91912
 H2218 H 0.27378 0.17871 0.91794
 H2219 H 0.25366 0.19914 0.94180
 H2220 H 0.30114 0.24481 0.94297
 C2221 C 0.80706 0.71939 0.92260
 C2222 C 0.79955 0.70053 0.91544
 C2223 C 0.78068 0.69331 0.92307
 C2224 C 0.76931 0.70497 0.93688
 C2225 C 0.77663 0.72397 0.94345
 C2226 C 0.79564 0.73103 0.93644
 H2227 H 0.82145 0.72552 0.91715
 H2228 H 0.77441 0.67883 0.91815
 H2229 H 0.75454 0.69944 0.94207
 H2230 H 0.80136 0.74581 0.94127
 C2231 C 0.78051 0.19271 0.42380
 C2232 C 0.79940 0.20006 0.41635
 C2233 C 0.80694 0.21875 0.42394
 C2234 C 0.79544 0.23023 0.43781
 C2235 C 0.77631 0.22316 0.44446
 C2236 C 0.76905 0.20422 0.43767
 H2237 H 0.77421 0.17837 0.41857
 H2238 H 0.82143 0.22491 0.41881
 H2239 H 0.80115 0.24492 0.44289
 H2240 H 0.75421 0.19867 0.44265
 C2241 C 0.71940 0.30651 0.42298
 C2242 C 0.70050 0.29920 0.41562
 C2243 C 0.69290 0.28056 0.42336
 C2244 C 0.70428 0.26918 0.43742
 C2245 C 0.72335 0.27628 0.44411
 C2246 C 0.73074 0.29510 0.43704
 H2247 H 0.72582 0.32075 0.41754
 H2248 H 0.67843 0.27440 0.41824
 H2249 H 0.69850 0.25454 0.44263
 H2250 H 0.74558 0.30064 0.44195
 C2251 C 0.69262 0.78120 0.92408
 C2252 C 0.70002 0.79993 0.91639
 C2253 C 0.71894 0.80732 0.92363
 C2254 C 0.73056 0.79584 0.93739
 C2255 C 0.72342 0.77687 0.94430
 C2256 C 0.70427 0.76974 0.93785
 H2257 H 0.67810 0.77500 0.91911
 H2258 H 0.72517 0.82168 0.91829
 H2259 H 0.74542 0.80143 0.94217
 H2260 H 0.69866 0.75501 0.94300
 C2261 C 0.21859 0.30706 0.92380
 C2262 C 0.19981 0.29963 0.91624
 C2263 C 0.19243 0.28076 0.92362
 C2264 C 0.20395 0.26924 0.93743
 C2265 C 0.22294 0.27643 0.94424
 C2266 C 0.23007 0.29550 0.93762
 H2267 H 0.22479 0.32152 0.91869
 H2268 H 0.17804 0.27451 0.91838
 H2269 H 0.19835 0.25443 0.94237
 H2270 H 0.24481 0.30115 0.94269
 C2271 C 0.19287 0.78039 0.42391
 C2272 C 0.20033 0.79918 0.41639
 C2273 C 0.21911 0.80662 0.42392
 C2274 C 0.23054 0.79514 0.43785
 C2275 C 0.22335 0.77613 0.44460
 C2276 C 0.20435 0.76895 0.43783
 H2277 H 0.17848 0.77413 0.41869
 H2278 H 0.22537 0.82101 0.41871
 H2279 H 0.24530 0.80078 0.44288
 H2280 H 0.19871 0.75418 0.44285
 C2281 C 0.71921 0.69320 0.57682
 C2282 C 0.70022 0.70045 0.58411
 C2283 C 0.69269 0.71916 0.57648
 C2284 C 0.70425 0.73069 0.56267
 C2285 C 0.72342 0.72368 0.55612
 C2286 C 0.73073 0.70477 0.56301
 H2287 H 0.72555 0.67888 0.58213
 H2288 H 0.67813 0.72526 0.58150
 H2289 H 0.69851 0.74537 0.55752
 H2290 H 0.74562 0.69926 0.55813
 C2291 C 0.71960 0.19274 0.07612
 C2292 C 0.70048 0.19984 0.08323
 C2293 C 0.69280 0.21840 0.07540
 C2294 C 0.70434 0.22997 0.06160
 C2295 C 0.72366 0.22313 0.05528
 C2296 C 0.73110 0.20434 0.06233
 H2297 H 0.72605 0.17852 0.08157
 H2298 H 0.67813 0.22437 0.08027
 H2299 H 0.69848 0.24454 0.05630
 H2300 H 0.74608 0.19895 0.05760
 C2301 C 0.21958 0.69319 0.07550
 C2302 C 0.20091 0.70075 0.08329
 C2303 C 0.19361 0.71969 0.07601
 C2304 C 0.20511 0.73114 0.06208
 C2305 C 0.22399 0.72382 0.05504
 C2306 C 0.23104 0.70467 0.06155
 H2307 H 0.22570 0.67866 0.08050
 H2308 H 0.17931 0.72605 0.08142
 H2309 H 0.19957 0.74600 0.05722
 H2310 H 0.24569 0.69891 0.05629
 C2311 C 0.21899 0.19228 0.57620
 C2312 C 0.20011 0.19961 0.58367
 C2313 C 0.19264 0.21842 0.57621
 C2314 C 0.20420 0.22999 0.56244
 C2315 C 0.22331 0.22292 0.55575
 C2316 C 0.23052 0.20389 0.56243
 H2317 H 0.22524 0.17786 0.58134
 H2318 H 0.17815 0.22457 0.58135
 H2319 H 0.19852 0.24474 0.55744
 H2320 H 0.24533 0.19832 0.55741
   
