data_POSCAR
  _audit_creation_date              2014-09-24
  _audit_creation_method            'ToBaCCo'
  _symmetry_space_group_name_H-M    'P1'
  _symmetry_Int_Tables_number       1
  _symmetry_cell_setting            triclinic
  loop_
  _symmetry_equiv_pos_as_xyz
 x,y,z
_cell_length_a 50.3473
_cell_length_b 50.3628
_cell_length_c 50.3470
_cell_angle_alpha 90.026200
_cell_angle_beta 90.026100
_cell_angle_gamma 89.999900
loop_
  _atom_site_label
  _atom_site_type_symbol
  _atom_site_fract_x
  _atom_site_fract_y
  _atom_site_fract_z
O1 O 0.27299 1.02533 0.02548
 O2 O 0.27294 0.97393 -0.02644
 O3 O 0.27261 1.02563 -0.02622
 O4 O 0.27261 0.97365 0.02527
 O5 O 0.22881 0.97371 0.02520
 O6 O 0.22880 1.02558 -0.02617
 O7 O 0.22918 0.97389 -0.02649
 O8 O 0.22918 1.02538 0.02552
 Cu9 Cu 0.27718 0.99963 -0.00048
 Cu10 Cu 0.22461 0.99964 -0.00049
 C11 C 0.25112 1.03418 0.03441
 C12 C 0.25109 0.96503 -0.03542
 C13 C 0.25067 1.03451 -0.03500
 C14 C 0.25068 0.96478 0.03405
 O15 O 0.72949 0.52579 0.52593
 O16 O 0.72946 0.47429 0.47393
 O17 O 0.72913 0.47409 0.52565
 O18 O 0.72911 0.52600 0.47421
 O19 O 0.77292 0.52605 0.47416
 O20 O 0.77293 0.47403 0.52570
 O21 O 0.77327 0.47433 0.47398
 O22 O 0.77329 0.52574 0.52589
 Cu23 Cu 0.72491 0.50004 0.49993
 Cu24 Cu 0.77749 0.50004 0.49993
 C25 C 0.75142 0.53459 0.53482
 C26 C 0.75139 0.46549 0.46505
 C27 C 0.75100 0.46515 0.53450
 C28 C 0.75098 0.53493 0.46536
 O29 O 0.77077 0.97430 1.02690
 O30 O 0.77085 1.02578 0.97488
 O31 O 0.77112 1.02601 1.02659
 O32 O 0.77121 0.97407 0.97518
 O33 O 0.72741 0.97402 0.97505
 O34 O 0.72736 1.02606 1.02657
 O35 O 0.72705 1.02573 0.97484
 O36 O 0.72701 0.97434 1.02677
 Cu37 Cu 0.77536 1.00004 1.00090
 Cu38 Cu 0.72283 1.00004 1.00080
 C39 C 0.74885 0.96544 1.03579
 C40 C 0.74894 1.03457 0.96595
 C41 C 0.74926 1.03500 1.03545
 C42 C 0.74936 0.96513 0.96629
 O43 O 0.27069 0.47440 0.52597
 O44 O 0.27065 0.52582 0.47398
 O45 O 0.27103 0.52607 0.52568
 O46 O 0.27104 0.47413 0.47428
 O47 O 0.22723 0.47406 0.47421
 O48 O 0.22722 0.52611 0.52573
 O49 O 0.22684 0.52575 0.47402
 O50 O 0.22689 0.47442 0.52592
 Cu51 Cu 0.27524 0.50011 0.49998
 Cu52 Cu 0.22265 0.50008 0.49997
 C53 C 0.24877 0.46560 0.53485
 C54 C 0.24871 0.53459 0.46510
 C55 C 0.24915 0.53500 0.53453
 C56 C 0.24917 0.46518 0.46543
 O57 O 1.02576 0.22866 0.02524
 O58 O 0.97358 0.22874 -0.02611
 O59 O 1.02528 0.22835 -0.02645
 O60 O 0.97407 0.22825 0.02559
 O61 O 0.97399 0.27204 0.02573
 O62 O 1.02532 0.27214 -0.02643
 O63 O 0.97362 0.27249 -0.02598
 O64 O 1.02570 0.27245 0.02527
 Cu65 Cu 0.99967 0.22412 -0.00044
 Cu66 Cu 0.99965 0.27667 -0.00034
 C67 C 1.03467 0.25058 0.03405
 C68 C 0.96461 0.25065 -0.03489
 C69 C 1.03410 0.25022 -0.03537
 C70 C 0.96524 0.25010 0.03459
 O71 O 0.52606 0.77270 0.52578
 O72 O 0.47397 0.77270 0.47453
 O73 O 0.47433 0.77232 0.52626
 O74 O 0.52570 0.77234 0.47405
 O75 O 0.52565 0.72855 0.47407
 O76 O 0.47439 0.72853 0.52618
 O77 O 0.47392 0.72891 0.47446
 O78 O 0.52611 0.72891 0.52579
 Cu79 Cu 0.50001 0.77690 0.50016
 Cu80 Cu 0.50002 0.72434 0.50012
 C81 C 0.53502 0.75083 0.53458
 C82 C 0.46501 0.75084 0.46571
 C83 C 0.46557 0.75039 0.53516
 C84 C 0.53447 0.75042 0.46512
 O85 O 0.02614 0.77130 -0.02643
 O86 O -0.02605 0.77137 0.02490
 O87 O 0.02566 0.77167 0.02529
 O88 O -0.02558 0.77172 -0.02682
 O89 O -0.02569 0.72798 -0.02690
 O90 O 0.02567 0.72788 0.02531
 O91 O -0.02606 0.72758 0.02482
 O92 O 0.02605 0.72755 -0.02641
 Cu93 Cu 0.00005 0.77589 -0.00077
 Cu94 Cu -0.00001 0.72337 -0.00080
 C95 C 0.03510 0.74939 -0.03525
 C96 C -0.03499 0.74946 0.03365
 C97 C 0.03446 0.74980 0.03425
 C98 C -0.03449 0.74989 -0.03585
 O99 O 0.52621 0.27111 0.47443
 O100 O 0.47405 0.27114 0.52570
 O101 O 0.52575 0.27151 0.52612
 O102 O 0.47451 0.27149 0.47400
 O103 O 0.47445 0.22770 0.47395
 O104 O 0.52579 0.22771 0.52618
 O105 O 0.47409 0.22735 0.52565
 O106 O 0.52615 0.22732 0.47447
 Cu107 Cu 0.50013 0.27570 0.50006
 Cu108 Cu 0.50012 0.22313 0.50006
 C109 C 0.53511 0.24918 0.46567
 C110 C 0.46513 0.24922 0.53445
 C111 C 0.53456 0.24964 0.53509
 C112 C 0.46569 0.24963 0.46503
 O113 O 1.02536 0.02552 0.27303
 O114 O 0.97396 -0.02639 0.27304
 O115 O 1.02567 -0.02619 0.27249
 O116 O 0.97364 0.02531 0.27252
 O117 O 0.97368 0.02521 0.22871
 O118 O 1.02555 -0.02613 0.22869
 O119 O 0.97385 -0.02648 0.22928
 O120 O 1.02538 0.02556 0.22923
 Cu121 Cu 0.99966 -0.00044 0.27715
 Cu122 Cu 0.99961 -0.00046 0.22459
 C123 C 1.03419 0.03445 0.25117
 C124 C 0.96502 -0.03540 0.25120
 C125 C 1.03452 -0.03497 0.25053
 C126 C 0.96476 0.03408 0.25057
 O127 O 0.52583 0.52610 0.72980
 O128 O 0.47436 0.47408 0.72976
 O129 O 0.47412 0.52578 0.72926
 O130 O 0.52606 0.47441 0.72923
 O131 O 0.52616 0.47432 0.77304
 O132 O 0.47406 0.52585 0.77307
 O133 O 0.47444 0.47415 0.77357
 O134 O 0.52578 0.52602 0.77360
 Cu135 Cu 0.50009 0.50009 0.72513
 Cu136 Cu 0.50011 0.50009 0.77771
 C137 C 0.53463 0.53496 0.75175
 C138 C 0.46560 0.46521 0.75170
 C139 C 0.46518 0.53464 0.75112
 C140 C 0.53502 0.46554 0.75108
 O141 O 0.97390 1.02661 0.77069
 O142 O 1.02543 0.97455 0.77072
 O143 O 1.02561 1.02624 0.77119
 O144 O 0.97373 0.97491 0.77129
 O145 O 0.97359 0.97477 0.72749
 O146 O 1.02563 1.02625 0.72738
 O147 O 1.02530 0.97455 0.72692
 O148 O 0.97391 1.02647 0.72693
 Cu149 Cu 0.99967 1.00059 0.77535
 Cu150 Cu 0.99960 1.00051 0.72280
 C151 C 0.96503 1.03551 0.74877
 C152 C 1.03418 0.96564 0.74878
 C153 C 1.03453 1.03506 0.74931
 C154 C 0.96477 0.96602 0.74946
 O155 O 0.47437 0.52602 0.27038
 O156 O 0.52585 0.47401 0.27036
 O157 O 0.52607 0.52571 0.27090
 O158 O 0.47415 0.47433 0.27091
 O159 O 0.47404 0.47423 0.22711
 O160 O 0.52611 0.52578 0.22709
 O161 O 0.52575 0.47407 0.22656
 O162 O 0.47440 0.52593 0.22657
 Cu163 Cu 0.50011 0.50002 0.27502
 Cu164 Cu 0.50007 0.50000 0.22244
 C165 C 0.46557 0.53488 0.24844
 C166 C 0.53460 0.46513 0.24841
 C167 C 0.53500 0.53457 0.24904
 C168 C 0.46518 0.46546 0.24906
 O169 O 0.25025 0.18079 0.21322
 O170 O 0.27836 0.17251 0.25142
 O171 O 0.18085 0.21337 0.25091
 O172 O 0.17078 0.24793 0.27634
 O173 O 0.21396 0.24979 0.18019
 O174 O 0.24865 0.27942 0.17344
 O175 O 0.25093 0.28616 0.31888
 O176 O 0.22057 0.25144 0.32632
 O177 O 0.31929 0.25099 0.28582
 O178 O 0.32640 0.22056 0.25353
 O179 O 0.28635 0.31863 0.25091
 O180 O 0.24890 0.32741 0.22161
 O181 O 0.25061 0.31823 0.28704
 O182 O 0.21956 0.32573 0.24857
 O183 O 0.31848 0.28683 0.25125
 O184 O 0.32275 0.25123 0.21676
 O185 O 0.28738 0.25091 0.31796
 O186 O 0.25061 0.21992 0.32635
 O187 O 0.25045 0.21264 0.18112
 O188 O 0.28274 0.24969 0.17643
 O189 O 0.18184 0.25021 0.21213
 O190 O 0.17551 0.28142 0.24979
 O191 O 0.21267 0.18123 0.25036
 O192 O 0.24967 0.17402 0.28015
 Zr193 Zr 0.24881 0.20227 0.24911
 O194 O 0.27387 0.22519 0.27338
 Zr195 Zr 0.20239 0.24909 0.24870
 O196 O 0.22510 0.27354 0.27407
 Zr197 Zr 0.24941 0.24877 0.20223
 O198 O 0.27363 0.27399 0.22520
 Zr199 Zr 0.25093 0.25043 0.29731
 O200 O 0.22542 0.22565 0.27475
 Zr201 Zr 0.29733 0.25078 0.25038
 O202 O 0.27489 0.22511 0.22559
 Zr203 Zr 0.25041 0.29726 0.25085
 O204 O 0.22585 0.27450 0.22537
 O205 O 0.22446 0.22433 0.22426
 O206 O 0.27548 0.27549 0.27545
 C207 C 0.25093 0.18837 0.18890
 C208 C 0.18841 0.18903 0.25126
 C209 C 0.18964 0.25056 0.18782
 C210 C 0.25078 0.31048 0.31131
 C211 C 0.31169 0.25098 0.31016
 C212 C 0.31070 0.31109 0.25113
 H213 H 0.28527 0.21316 0.28391
 H214 H 0.28469 0.28496 0.21324
 H215 H 0.21308 0.21292 0.21300
 H216 H 0.21313 0.28424 0.28537
 H217 H 0.20669 0.23881 0.32042
 H218 H 0.17703 0.25689 0.29266
 H219 H 0.34097 0.25533 0.22300
 H220 H 0.27698 0.24414 0.15841
 H221 H 0.26485 0.20711 0.32202
 H222 H 0.23687 0.18019 0.29374
 H223 H 0.26198 0.32286 0.20768
 H224 H 0.23728 0.29373 0.18067
 H225 H 0.29180 0.17671 0.23774
 H226 H 0.32316 0.20802 0.23877
 H227 H 0.18050 0.29355 0.23514
 H228 H 0.20758 0.32289 0.26387
 O229 O 0.74978 0.81941 0.21330
 O230 O 0.72171 0.82765 0.25154
 O231 O 0.81922 0.78675 0.25087
 O232 O 0.82933 0.75217 0.27622
 O233 O 0.78596 0.75040 0.18012
 O234 O 0.75124 0.72081 0.17336
 O235 O 0.74923 0.71394 0.31882
 O236 O 0.77963 0.74865 0.32627
 O237 O 0.68082 0.74917 0.28589
 O238 O 0.67368 0.77964 0.25365
 O239 O 0.71367 0.68154 0.25082
 O240 O 0.75105 0.67276 0.22149
 O241 O 0.74949 0.68190 0.28693
 O242 O 0.78047 0.67443 0.24839
 O243 O 0.68156 0.71336 0.25125
 O244 O 0.67723 0.74898 0.21683
 O245 O 0.71279 0.74922 0.31800
 O246 O 0.74961 0.78019 0.32638
 O247 O 0.74951 0.78759 0.18114
 O248 O 0.71717 0.75055 0.17645
 O249 O 0.81815 0.74994 0.21202
 O250 O 0.82452 0.71869 0.24963
 O251 O 0.78742 0.81891 0.25041
 O252 O 0.75048 0.82613 0.28024
 Zr253 Zr 0.75126 0.79789 0.24915
 O254 O 0.72624 0.77496 0.27343
 Zr255 Zr 0.79766 0.75105 0.24863
 O256 O 0.77499 0.72660 0.27399
 Zr257 Zr 0.75055 0.75143 0.20220
 O258 O 0.72637 0.72621 0.22517
 Zr259 Zr 0.74921 0.74969 0.29730
 O260 O 0.77469 0.77448 0.27474
 Zr261 Zr 0.70273 0.74940 0.25042
 O262 O 0.72513 0.77507 0.22564
 Zr263 Zr 0.74962 0.70290 0.25076
 O264 O 0.77413 0.72567 0.22529
 O265 O 0.77556 0.77584 0.22425
 O266 O 0.72461 0.72466 0.27543
 C267 C 0.74906 0.81185 0.18896
 C268 C 0.81167 0.81110 0.25127
 C269 C 0.81031 0.74961 0.18771
 C270 C 0.74937 0.68962 0.31122
 C271 C 0.68846 0.74916 0.31023
 C272 C 0.68933 0.68910 0.25108
 H273 H 0.71487 0.78699 0.28399
 H274 H 0.71528 0.71524 0.21321
 H275 H 0.78692 0.78725 0.21299
 H276 H 0.78697 0.71588 0.28526
 H277 H 0.79351 0.76127 0.32037
 H278 H 0.82311 0.74322 0.29254
 H279 H 0.65902 0.74490 0.22309
 H280 H 0.72289 0.75611 0.15843
 H281 H 0.73536 0.79300 0.32210
 H282 H 0.76329 0.81993 0.29382
 H283 H 0.73798 0.67735 0.20756
 H284 H 0.76261 0.70648 0.18056
 H285 H 0.70827 0.82348 0.23784
 H286 H 0.67689 0.79218 0.23890
 H287 H 0.81951 0.70659 0.23496
 H288 H 0.79246 0.67723 0.26371
 O289 O 0.75001 0.18097 0.78693
 O290 O 0.72184 0.17269 0.74873
 O291 O 0.81939 0.21349 0.74919
 O292 O 0.82947 0.24802 0.72376
 O293 O 0.78631 0.25000 0.81991
 O294 O 0.75164 0.27965 0.82667
 O295 O 0.74934 0.28624 0.68121
 O296 O 0.77970 0.25148 0.67380
 O297 O 0.68097 0.25112 0.71430
 O298 O 0.67386 0.22073 0.74659
 O299 O 0.71393 0.31879 0.74918
 O300 O 0.75139 0.32760 0.77846
 O301 O 0.74967 0.31835 0.71304
 O302 O 0.78074 0.32587 0.75152
 O303 O 0.68180 0.28699 0.74887
 O304 O 0.67752 0.25144 0.78336
 O305 O 0.71287 0.25099 0.68215
 O306 O 0.74962 0.21999 0.67375
 O307 O 0.74982 0.21286 0.81902
 O308 O 0.71753 0.24994 0.82368
 O309 O 0.81843 0.25037 0.78797
 O310 O 0.82476 0.28154 0.75031
 O311 O 0.78757 0.18136 0.74976
 O312 O 0.75056 0.17410 0.72001
 Zr313 Zr 0.75143 0.20241 0.75103
 O314 O 0.72639 0.22532 0.72674
 Zr315 Zr 0.79787 0.24922 0.75140
 O316 O 0.77517 0.27365 0.72603
 Zr317 Zr 0.75086 0.24897 0.79789
 O318 O 0.72665 0.27417 0.77491
 Zr319 Zr 0.74933 0.25053 0.70279
 O320 O 0.77483 0.22576 0.72537
 Zr321 Zr 0.70294 0.25094 0.74974
 O322 O 0.72537 0.22529 0.77454
 Zr323 Zr 0.74986 0.29741 0.74924
 O324 O 0.77441 0.27466 0.77472
 O325 O 0.77580 0.22450 0.77585
 O326 O 0.72479 0.27562 0.72465
 C327 C 0.74934 0.18858 0.81126
 C328 C 0.81183 0.18915 0.74884
 C329 C 0.81064 0.25075 0.81229
 C330 C 0.74950 0.31057 0.68876
 C331 C 0.68857 0.25108 0.68996
 C332 C 0.68958 0.31125 0.74897
 H333 H 0.71498 0.21328 0.71622
 H334 H 0.71560 0.28516 0.78686
 H335 H 0.78717 0.21310 0.78712
 H336 H 0.78714 0.28434 0.71472
 H337 H 0.79357 0.23884 0.67970
 H338 H 0.82323 0.25697 0.70744
 H339 H 0.65930 0.25553 0.77711
 H340 H 0.72329 0.24440 0.84170
 H341 H 0.73541 0.20717 0.67811
 H342 H 0.76333 0.18027 0.70640
 H343 H 0.73833 0.32306 0.79241
 H344 H 0.76300 0.29395 0.81943
 H345 H 0.70845 0.17687 0.76246
 H346 H 0.67710 0.20820 0.76135
 H347 H 0.81978 0.29369 0.76496
 H348 H 0.79270 0.32302 0.73620
 O349 O 0.25009 0.81916 0.78696
 O350 O 0.27821 0.82747 0.74882
 O351 O 0.18071 0.78659 0.74914
 O352 O 0.17065 0.75203 0.72371
 O353 O 0.21375 0.75017 0.81992
 O354 O 0.24844 0.72052 0.82671
 O355 O 0.25085 0.71384 0.68127
 O356 O 0.22050 0.74855 0.67379
 O357 O 0.31919 0.74900 0.71443
 O358 O 0.32626 0.77943 0.74676
 O359 O 0.28623 0.68134 0.74929
 O360 O 0.24876 0.67255 0.77852
 O361 O 0.25050 0.68176 0.71310
 O362 O 0.21943 0.67424 0.75153
 O363 O 0.31835 0.71315 0.74900
 O364 O 0.32259 0.74873 0.78351
 O365 O 0.28730 0.74909 0.68225
 O366 O 0.25052 0.78010 0.67383
 O367 O 0.25025 0.78732 0.81906
 O368 O 0.28253 0.75026 0.82380
 O369 O 0.18166 0.74975 0.78793
 O370 O 0.17538 0.71853 0.75025
 O371 O 0.21253 0.81874 0.74976
 O372 O 0.24955 0.82596 0.72003
 Zr373 Zr 0.24867 0.79770 0.75107
 O374 O 0.27375 0.77479 0.72682
 Zr375 Zr 0.20224 0.75088 0.75139
 O376 O 0.22498 0.72645 0.72605
 Zr377 Zr 0.24923 0.75119 0.79794
 O378 O 0.27348 0.72599 0.77499
 Zr379 Zr 0.25083 0.74956 0.70285
 O380 O 0.22529 0.77433 0.72539
 Zr381 Zr 0.29719 0.74920 0.74985
 O382 O 0.27472 0.77485 0.77462
 Zr383 Zr 0.25028 0.70272 0.74930
 O384 O 0.22570 0.72546 0.77474
 O385 O 0.22430 0.77563 0.77587
 O386 O 0.27537 0.72449 0.72474
 C387 C 0.25075 0.81158 0.81128
 C388 C 0.18827 0.81093 0.74881
 C389 C 0.18943 0.74940 0.81226
 C390 C 0.25068 0.68952 0.68883
 C391 C 0.31161 0.74901 0.69008
 C392 C 0.31057 0.68889 0.74910
 H393 H 0.28516 0.78683 0.71632
 H394 H 0.28452 0.71501 0.78696
 H395 H 0.21291 0.78704 0.78712
 H396 H 0.21303 0.71574 0.71472
 H397 H 0.20660 0.76116 0.67968
 H398 H 0.17692 0.74310 0.70739
 H399 H 0.34083 0.74465 0.77729
 H400 H 0.27675 0.75579 0.84181
 H401 H 0.26477 0.79288 0.67816
 H402 H 0.23676 0.81979 0.70642
 H403 H 0.26181 0.67712 0.79248
 H404 H 0.23707 0.70622 0.81946
 H405 H 0.29165 0.82326 0.76251
 H406 H 0.32302 0.79195 0.76154
 H407 H 0.18035 0.70642 0.76491
 H408 H 0.20746 0.67709 0.73620
 O409 O 0.24977 0.31911 0.71350
 O410 O 0.22168 0.32741 0.75168
 O411 O 0.31911 0.28639 0.75122
 O412 O 0.32919 0.25180 0.77652
 O413 O 0.28596 0.25009 0.68038
 O414 O 0.25124 0.22052 0.67354
 O415 O 0.24897 0.21370 0.81897
 O416 O 0.27937 0.24837 0.82650
 O417 O 0.18066 0.24899 0.78589
 O418 O 0.17360 0.27946 0.75364
 O419 O 0.21352 0.18134 0.75095
 O420 O 0.25093 0.17249 0.72166
 O421 O 0.24926 0.18166 0.78707
 O422 O 0.28030 0.17414 0.74860
 O423 O 0.18144 0.21319 0.75131
 O424 O 0.17719 0.24877 0.71685
 O425 O 0.21257 0.24898 0.81807
 O426 O 0.24939 0.27994 0.82654
 O427 O 0.24953 0.28728 0.68134
 O428 O 0.21719 0.25027 0.67656
 O429 O 0.31808 0.24961 0.71235
 O430 O 0.32437 0.21834 0.74997
 O431 O 0.28734 0.31858 0.75067
 O432 O 0.25036 0.32586 0.78042
 Zr433 Zr 0.25118 0.29761 0.74934
 O434 O 0.22611 0.27472 0.77356
 Zr435 Zr 0.29754 0.25072 0.74890
 O436 O 0.27482 0.22630 0.77422
 Zr437 Zr 0.25052 0.25114 0.70238
 O438 O 0.22628 0.22595 0.72529
 Zr439 Zr 0.24902 0.24944 0.79746
 O440 O 0.27456 0.27419 0.77496
 Zr441 Zr 0.20263 0.24919 0.75048
 O442 O 0.22509 0.27483 0.72575
 Zr443 Zr 0.24948 0.20265 0.75092
 O444 O 0.27406 0.22537 0.72550
 O445 O 0.27550 0.27553 0.72449
 O446 O 0.22444 0.22444 0.77553
 C447 C 0.24907 0.31154 0.68916
 C448 C 0.31157 0.31073 0.75160
 C449 C 0.31028 0.24928 0.68803
 C450 C 0.24910 0.18940 0.81135
 C451 C 0.18827 0.24895 0.81023
 C452 C 0.18920 0.18893 0.75118
 H453 H 0.21472 0.28676 0.78410
 H454 H 0.21521 0.21500 0.71331
 H455 H 0.28690 0.28693 0.71325
 H456 H 0.28677 0.21558 0.78551
 H457 H 0.29328 0.26098 0.82063
 H458 H 0.32291 0.24292 0.79286
 H459 H 0.15896 0.24471 0.72308
 H460 H 0.22295 0.25584 0.65856
 H461 H 0.23514 0.29275 0.82225
 H462 H 0.26314 0.31965 0.79402
 H463 H 0.23787 0.17708 0.70772
 H464 H 0.26258 0.20618 0.68076
 H465 H 0.20823 0.32325 0.73798
 H466 H 0.17683 0.29198 0.73887
 H467 H 0.31940 0.20626 0.73527
 H468 H 0.29227 0.17693 0.76395
 O469 O 0.75059 0.68110 0.71370
 O470 O 0.77880 0.67281 0.75184
 O471 O 0.68124 0.71356 0.75157
 O472 O 0.67108 0.74808 0.77694
 O473 O 0.71419 0.75009 0.68081
 O474 O 0.74883 0.77977 0.67405
 O475 O 0.75127 0.78630 0.81952
 O476 O 0.72098 0.75152 0.82695
 O477 O 0.81964 0.75128 0.78631
 O478 O 0.82674 0.72089 0.75397
 O479 O 0.78653 0.81890 0.75156
 O480 O 0.74908 0.82773 0.72236
 O481 O 0.75085 0.81841 0.78773
 O482 O 0.71971 0.82589 0.74927
 O483 O 0.81870 0.78714 0.75181
 O484 O 0.82301 0.75163 0.71726
 O485 O 0.78778 0.75111 0.81850
 O486 O 0.75104 0.72002 0.82687
 O487 O 0.75071 0.71298 0.68164
 O488 O 0.78296 0.75010 0.67697
 O489 O 0.68210 0.75042 0.71279
 O490 O 0.67581 0.78161 0.75052
 O491 O 0.71309 0.68146 0.75091
 O492 O 0.75013 0.67421 0.78059
 Zr493 Zr 0.74919 0.70252 0.74961
 O494 O 0.77424 0.72543 0.77391
 Zr495 Zr 0.70270 0.74929 0.74933
 O496 O 0.72539 0.77371 0.77473
 Zr497 Zr 0.74966 0.74909 0.70280
 O498 O 0.77386 0.77430 0.72579
 Zr499 Zr 0.75129 0.75060 0.79790
 O500 O 0.72579 0.72583 0.77531
 Zr501 Zr 0.79762 0.75108 0.75090
 O502 O 0.77520 0.72543 0.72609
 Zr503 Zr 0.75063 0.79749 0.75150
 O504 O 0.72609 0.77475 0.72600
 O505 O 0.72477 0.72459 0.72483
 O506 O 0.77577 0.77572 0.77604
 C507 C 0.75123 0.68871 0.68938
 C508 C 0.68884 0.68924 0.75188
 C509 C 0.68987 0.75081 0.68846
 C510 C 0.75107 0.81062 0.81199
 C511 C 0.81207 0.75123 0.81066
 C512 C 0.81087 0.81138 0.75174
 H513 H 0.78567 0.71340 0.78440
 H514 H 0.78488 0.78531 0.71383
 H515 H 0.71339 0.71318 0.71357
 H516 H 0.71343 0.78438 0.78606
 H517 H 0.70709 0.73890 0.82104
 H518 H 0.67737 0.75690 0.79333
 H519 H 0.84124 0.75573 0.72350
 H520 H 0.77720 0.74455 0.65895
 H521 H 0.76534 0.70728 0.82255
 H522 H 0.73738 0.68036 0.79424
 H523 H 0.76207 0.82316 0.70835
 H524 H 0.73745 0.79406 0.68131
 H525 H 0.79219 0.67703 0.73812
 H526 H 0.82351 0.70838 0.73917
 H527 H 0.68070 0.79372 0.73583
 H528 H 0.70780 0.82307 0.76464
 O529 O 0.24961 0.68095 0.28636
 O530 O 0.22155 0.67258 0.24815
 O531 O 0.31900 0.71359 0.24873
 O532 O 0.32913 0.74815 0.22341
 O533 O 0.28578 0.75000 0.31945
 O534 O 0.25105 0.77962 0.32615
 O535 O 0.24895 0.78616 0.18071
 O536 O 0.27934 0.75147 0.17329
 O537 O 0.18059 0.75099 0.21368
 O538 O 0.17348 0.72055 0.24596
 O539 O 0.21343 0.81866 0.24862
 O540 O 0.25079 0.82756 0.27793
 O541 O 0.24920 0.81826 0.21254
 O542 O 0.28022 0.82584 0.25106
 O543 O 0.18134 0.78682 0.24825
 O544 O 0.17704 0.75127 0.28273
 O545 O 0.21254 0.75091 0.18158
 O546 O 0.24937 0.71989 0.17327
 O547 O 0.24933 0.71283 0.31847
 O548 O 0.21700 0.74986 0.32313
 O549 O 0.31794 0.75043 0.28755
 O550 O 0.32425 0.78165 0.24988
 O551 O 0.28721 0.68141 0.24926
 O552 O 0.25027 0.67409 0.21946
 Zr553 Zr 0.25106 0.70239 0.25049
 O554 O 0.22601 0.72523 0.22617
 Zr555 Zr 0.29744 0.74927 0.25095
 O556 O 0.27474 0.77364 0.22554
 Zr557 Zr 0.25036 0.74893 0.29737
 O558 O 0.22615 0.77408 0.27435
 Zr559 Zr 0.24897 0.75047 0.20227
 O560 O 0.27448 0.72576 0.22489
 Zr561 Zr 0.20251 0.75081 0.24915
 O562 O 0.22494 0.72521 0.27398
 Zr563 Zr 0.24938 0.79734 0.24873
 O564 O 0.27393 0.77466 0.27426
 O565 O 0.27536 0.72450 0.27536
 O566 O 0.22437 0.77551 0.22411
 C567 C 0.24889 0.68856 0.31069
 C568 C 0.31145 0.68925 0.24837
 C569 C 0.31011 0.75078 0.31186
 C570 C 0.24907 0.81048 0.18827
 C571 C 0.18822 0.75097 0.18935
 C572 C 0.18910 0.81108 0.24837
 H573 H 0.21464 0.71317 0.21563
 H574 H 0.21507 0.78506 0.28630
 H575 H 0.28674 0.71312 0.28664
 H576 H 0.28671 0.78434 0.21425
 H577 H 0.29325 0.73890 0.17922
 H578 H 0.32286 0.75697 0.20703
 H579 H 0.15882 0.75533 0.27645
 H580 H 0.22275 0.74433 0.34115
 H581 H 0.23507 0.70714 0.17751
 H582 H 0.26305 0.68027 0.20587
 H583 H 0.23777 0.82297 0.29189
 H584 H 0.26244 0.79392 0.31894
 H585 H 0.20809 0.67678 0.26182
 H586 H 0.17670 0.70804 0.26075
 H587 H 0.31928 0.79374 0.26457
 H588 H 0.29218 0.82303 0.23574
 O589 O 0.75029 0.31875 0.28632
 O590 O 0.77839 0.32695 0.24809
 O591 O 0.68085 0.28614 0.24869
 O592 O 0.67066 0.25156 0.22339
 O593 O 0.71406 0.24980 0.31945
 O594 O 0.74874 0.22019 0.32623
 O595 O 0.75075 0.21328 0.18077
 O596 O 0.72036 0.24801 0.17333
 O597 O 0.81915 0.24846 0.21374
 O598 O 0.82634 0.27892 0.24599
 O599 O 0.78623 0.18088 0.24874
 O600 O 0.74886 0.17211 0.27806
 O601 O 0.75046 0.18125 0.21265
 O602 O 0.71943 0.17382 0.25117
 O603 O 0.81837 0.21267 0.24833
 O604 O 0.82275 0.24827 0.28278
 O605 O 0.78719 0.24852 0.18163
 O606 O 0.75042 0.27951 0.17323
 O607 O 0.75054 0.28694 0.31846
 O608 O 0.78284 0.24987 0.32315
 O609 O 0.68188 0.24936 0.28754
 O610 O 0.67547 0.21810 0.24992
 O611 O 0.71269 0.31827 0.24920
 O612 O 0.74962 0.32549 0.21942
 Zr613 Zr 0.74880 0.29724 0.25047
 O614 O 0.77378 0.27428 0.22618
 Zr615 Zr 0.70235 0.25043 0.25095
 O616 O 0.72498 0.22595 0.22558
 Zr617 Zr 0.74946 0.25079 0.29739
 O618 O 0.77361 0.22554 0.27442
 Zr619 Zr 0.75078 0.24903 0.20230
 O620 O 0.72534 0.27385 0.22487
 Zr621 Zr 0.79726 0.24872 0.24920
 O622 O 0.77490 0.27442 0.27399
 Zr623 Zr 0.75032 0.20226 0.24881
 O624 O 0.72584 0.22505 0.27430
 O625 O 0.72448 0.27521 0.27535
 O626 O 0.77535 0.22399 0.22417
 C627 C 0.75101 0.31120 0.31066
 C628 C 0.68843 0.31047 0.24831
 C629 C 0.68973 0.24903 0.31184
 C630 C 0.75060 0.18897 0.18837
 C631 C 0.81150 0.24845 0.18942
 C632 C 0.81057 0.18843 0.24848
 H633 H 0.78517 0.28630 0.21563
 H634 H 0.78468 0.21457 0.28638
 H635 H 0.71313 0.28663 0.28661
 H636 H 0.71299 0.21524 0.21430
 H637 H 0.70650 0.26066 0.17923
 H638 H 0.67688 0.24265 0.20704
 H639 H 0.84097 0.24417 0.27651
 H640 H 0.77713 0.25547 0.34116
 H641 H 0.76467 0.29232 0.17753
 H642 H 0.73683 0.31929 0.20582
 H643 H 0.76193 0.17669 0.29199
 H644 H 0.73737 0.20586 0.31902
 H645 H 0.79181 0.32280 0.26182
 H646 H 0.82315 0.29147 0.26076
 H647 H 0.68045 0.20601 0.26460
 H648 H 0.70747 0.17660 0.23583
 C649 C 0.27550 0.08436 0.08502
 C650 C 0.25153 0.09428 0.09497
 C651 C 0.22740 0.08455 0.08516
 C652 C 0.22722 0.06497 0.06545
 C653 C 0.25123 0.05488 0.05530
 C654 C 0.27538 0.06480 0.06532
 C655 C 0.25169 0.11446 0.11521
 C656 C 0.25177 0.13138 0.13214
 C657 C 0.25175 0.15121 0.15195
 C658 C 0.25152 0.16817 0.16884
 H659 H 0.29428 0.09176 0.09247
 H660 H 0.20873 0.09210 0.09273
 H661 H 0.20831 0.05777 0.05818
 H662 H 0.29420 0.05746 0.05794
 C663 C 0.77580 0.58478 0.58542
 C664 C 0.75183 0.59469 0.59537
 C665 C 0.72771 0.58496 0.58557
 C666 C 0.72753 0.56538 0.56586
 C667 C 0.75154 0.55529 0.55571
 C668 C 0.77569 0.56522 0.56572
 C669 C 0.75199 0.61487 0.61562
 C670 C 0.75208 0.63178 0.63257
 C671 C 0.75205 0.65159 0.65239
 C672 C 0.75182 0.66853 0.66929
 H673 H 0.79459 0.59219 0.59287
 H674 H 0.70903 0.59250 0.59314
 H675 H 0.70861 0.55818 0.55859
 H676 H 0.79450 0.55788 0.55833
 C677 C 0.77254 0.91596 0.08552
 C678 C 0.74844 0.90619 0.09525
 C679 C 0.72448 0.91611 0.08529
 C680 C 0.72458 0.93572 0.06564
 C681 C 0.74873 0.94576 0.05560
 C682 C 0.77274 0.93558 0.06586
 C683 C 0.74828 0.88594 0.11544
 C684 C 0.74819 0.86898 0.13232
 C685 C 0.74823 0.84909 0.15207
 C686 C 0.74845 0.83209 0.16893
 H687 H 0.79121 0.90841 0.09310
 H688 H 0.70570 0.90867 0.09270
 H689 H 0.70567 0.94295 0.05836
 H690 H 0.79175 0.94270 0.05875
 C691 C 0.27254 0.41532 0.58559
 C692 C 0.24843 0.40558 0.59538
 C693 C 0.22444 0.41547 0.58542
 C694 C 0.22454 0.43501 0.56573
 C695 C 0.24868 0.44493 0.55573
 C696 C 0.27270 0.43487 0.56589
 C697 C 0.24829 0.38543 0.61560
 C698 C 0.24821 0.36852 0.63251
 C699 C 0.24826 0.34870 0.65228
 C700 C 0.24848 0.33174 0.66915
 H701 H 0.29122 0.40779 0.59317
 H702 H 0.20567 0.40806 0.59287
 H703 H 0.20571 0.44233 0.55834
 H704 H 0.29161 0.44208 0.55862
 C705 C 0.72465 0.08471 0.91526
 C706 C 0.74864 0.09461 0.90532
 C707 C 0.77274 0.08488 0.91519
 C708 C 0.77288 0.06534 0.93491
 C709 C 0.74886 0.05526 0.94504
 C710 C 0.72473 0.06517 0.93497
 C711 C 0.74851 0.11476 0.88505
 C712 C 0.74845 0.13165 0.86809
 C713 C 0.74850 0.15146 0.84825
 C714 C 0.74874 0.16839 0.83134
 H715 H 0.70588 0.09210 0.90777
 H716 H 0.79143 0.09241 0.90764
 H717 H 0.79179 0.05814 0.94222
 H718 H 0.70590 0.05785 0.94233
 C719 C 0.22431 0.58470 0.41452
 C720 C 0.24828 0.59461 0.40457
 C721 C 0.27241 0.58490 0.41437
 C722 C 0.27260 0.56535 0.43407
 C723 C 0.24859 0.55526 0.44422
 C724 C 0.22444 0.56516 0.43421
 C725 C 0.24811 0.61476 0.38434
 C726 C 0.24802 0.63165 0.36741
 C727 C 0.24806 0.65145 0.34762
 C728 C 0.24828 0.66839 0.33074
 H729 H 0.20552 0.59209 0.40706
 H730 H 0.29108 0.59244 0.40679
 H731 H 0.29152 0.55815 0.44134
 H732 H 0.20562 0.55782 0.44159
 C733 C 0.27538 0.91571 0.91503
 C734 C 0.25141 0.90580 0.90510
 C735 C 0.22732 0.91557 0.91487
 C736 C 0.22714 0.93518 0.93454
 C737 C 0.25117 0.94535 0.94477
 C738 C 0.27532 0.93531 0.93469
 C739 C 0.25154 0.88558 0.88490
 C740 C 0.25161 0.86862 0.86799
 C741 C 0.25157 0.84876 0.84822
 C742 C 0.25134 0.83179 0.83134
 H743 H 0.29415 0.90827 0.90759
 H744 H 0.20864 0.90801 0.90730
 H745 H 0.20815 0.94230 0.94169
 H746 H 0.29424 0.94254 0.94196
 C747 C 0.77572 0.41528 0.41447
 C748 C 0.75174 0.40537 0.40451
 C749 C 0.72762 0.41511 0.41431
 C750 C 0.72747 0.43470 0.43401
 C751 C 0.75148 0.44478 0.44416
 C752 C 0.77562 0.43485 0.43416
 C753 C 0.75187 0.38517 0.38428
 C754 C 0.75194 0.36824 0.36736
 C755 C 0.75188 0.34840 0.34757
 C756 C 0.75163 0.33142 0.33070
 H757 H 0.79449 0.40786 0.40702
 H758 H 0.70894 0.40757 0.40674
 H759 H 0.70855 0.44191 0.44128
 H760 H 0.79445 0.44219 0.44154
 C761 C 0.08545 0.27492 0.08409
 C762 C 0.09547 0.25096 0.09392
 C763 C 0.08565 0.22685 0.08419
 C764 C 0.06586 0.22668 0.06469
 C765 C 0.05564 0.25068 0.05468
 C766 C 0.06567 0.27481 0.06460
 C767 C 0.11579 0.25112 0.11404
 C768 C 0.13278 0.25123 0.13090
 C769 C 0.15263 0.25124 0.15069
 C770 C 0.16956 0.25108 0.16762
 H771 H 0.09291 0.29370 0.09149
 H772 H 0.09327 0.20817 0.09168
 H773 H 0.05858 0.20777 0.05748
 H774 H 0.05824 0.29363 0.05732
 C775 C 0.58575 0.77520 0.58466
 C776 C 0.59574 0.75123 0.59453
 C777 C 0.58592 0.72712 0.58481
 C778 C 0.56617 0.72694 0.56528
 C779 C 0.55597 0.75094 0.55523
 C780 C 0.56600 0.77508 0.56514
 C781 C 0.61603 0.75140 0.61467
 C782 C 0.63300 0.75150 0.63156
 C783 C 0.65285 0.75151 0.65136
 C784 C 0.66977 0.75134 0.66829
 H785 H 0.59321 0.79398 0.59206
 H786 H 0.59353 0.70845 0.59232
 H787 H 0.55888 0.70803 0.55808
 H788 H 0.55859 0.79389 0.55783
 C789 C 0.08498 0.72503 0.91576
 C790 C 0.09503 0.74898 0.90595
 C791 C 0.08519 0.77308 0.91565
 C792 C 0.06537 0.77328 0.93509
 C793 C 0.05503 0.74928 0.94518
 C794 C 0.06517 0.72513 0.93521
 C795 C 0.11541 0.74881 0.88589
 C796 C 0.13245 0.74871 0.86907
 C797 C 0.15236 0.74870 0.84933
 C798 C 0.16931 0.74888 0.83243
 H799 H 0.09246 0.70626 0.90838
 H800 H 0.09284 0.79174 0.90817
 H801 H 0.05818 0.79228 0.94217
 H802 H 0.05783 0.70622 0.94237
 C803 C 0.58582 0.22476 0.41568
 C804 C 0.59581 0.24872 0.40580
 C805 C 0.58600 0.27284 0.41549
 C806 C 0.56625 0.27304 0.43500
 C807 C 0.55605 0.24905 0.44505
 C808 C 0.56607 0.22490 0.43518
 C809 C 0.61607 0.24853 0.38568
 C810 C 0.63302 0.24841 0.36879
 C811 C 0.65282 0.24837 0.34899
 C812 C 0.66970 0.24853 0.33205
 H813 H 0.59328 0.20597 0.40830
 H814 H 0.59361 0.29150 0.40796
 H815 H 0.55897 0.29196 0.44218
 H816 H 0.55866 0.20609 0.44250
 C817 C 0.91414 0.77322 0.08391
 C818 C 0.90429 0.74912 0.09362
 C819 C 0.91425 0.72515 0.08370
 C820 C 0.93399 0.72524 0.06418
 C821 C 0.94405 0.74937 0.05430
 C822 C 0.93389 0.77338 0.06438
 C823 C 0.88401 0.74898 0.11378
 C824 C 0.86706 0.74889 0.13068
 C825 C 0.84725 0.74890 0.15051
 C826 C 0.83036 0.74908 0.16748
 H827 H 0.90657 0.79190 0.09145
 H828 H 0.90677 0.70637 0.09107
 H829 H 0.94137 0.70642 0.05685
 H830 H 0.94120 0.79228 0.05721
 C831 C 0.41436 0.22486 0.58439
 C832 C 0.40437 0.24883 0.59425
 C833 C 0.41420 0.27295 0.58458
 C834 C 0.43398 0.27312 0.56510
 C835 C 0.44417 0.24912 0.55505
 C836 C 0.43414 0.22497 0.56491
 C837 C 0.38407 0.24867 0.61434
 C838 C 0.36709 0.24857 0.63119
 C839 C 0.34725 0.24856 0.65095
 C840 C 0.33034 0.24875 0.66787
 H841 H 0.40689 0.20608 0.59175
 H842 H 0.40659 0.29161 0.59210
 H843 H 0.44127 0.29203 0.55793
 H844 H 0.44155 0.20616 0.55760
 C845 C 0.91479 0.27504 0.91610
 C846 C 0.90480 0.25110 0.90618
 C847 C 0.91464 0.22699 0.91584
 C848 C 0.93442 0.22678 0.93534
 C849 C 0.94470 0.25077 0.94552
 C850 C 0.93456 0.27493 0.93559
 C851 C 0.88449 0.25129 0.88607
 C852 C 0.86750 0.25141 0.86920
 C853 C 0.84765 0.25144 0.84941
 C854 C 0.83072 0.25127 0.83248
 H855 H 0.90730 0.29382 0.90874
 H856 H 0.90703 0.20834 0.90828
 H857 H 0.94162 0.20777 0.94239
 H858 H 0.94186 0.29383 0.94283
 C859 C 0.41421 0.77521 0.41572
 C860 C 0.40420 0.75125 0.40583
 C861 C 0.41405 0.72713 0.41550
 C862 C 0.43383 0.72695 0.43501
 C863 C 0.44403 0.75095 0.44508
 C864 C 0.43398 0.77509 0.43521
 C865 C 0.38390 0.75142 0.38571
 C866 C 0.36692 0.75152 0.36883
 C867 C 0.34708 0.75152 0.34902
 C868 C 0.33017 0.75133 0.33207
 H869 H 0.40673 0.79400 0.40836
 H870 H 0.40644 0.70847 0.40797
 H871 H 0.44113 0.70804 0.44217
 H872 H 0.44140 0.79391 0.44254
 C873 C 0.08435 0.08506 0.27567
 C874 C 0.09428 0.09507 0.25173
 C875 C 0.08457 0.08528 0.22758
 C876 C 0.06500 0.06556 0.22734
 C877 C 0.05489 0.05536 0.25132
 C878 C 0.06479 0.06535 0.27549
 C879 C 0.11445 0.11533 0.25197
 C880 C 0.13137 0.13228 0.25213
 C881 C 0.15121 0.15209 0.25217
 C882 C 0.16818 0.16898 0.25195
 H883 H 0.09172 0.09248 0.29448
 H884 H 0.09212 0.09289 0.20893
 H885 H 0.05782 0.05831 0.20841
 H886 H 0.05745 0.05794 0.29429
 C887 C 0.58504 0.58570 0.72822
 C888 C 0.59474 0.59544 0.75238
 C889 C 0.58479 0.58545 0.77631
 C890 C 0.56521 0.56578 0.77611
 C891 C 0.55533 0.55583 0.75192
 C892 C 0.56545 0.56602 0.72796
 C893 C 0.61493 0.61564 0.75264
 C894 C 0.63185 0.63255 0.75281
 C895 C 0.65169 0.65233 0.75283
 C896 C 0.66865 0.66920 0.75260
 H897 H 0.59262 0.59330 0.70957
 H898 H 0.59217 0.59285 0.79513
 H899 H 0.55785 0.55837 0.79491
 H900 H 0.55827 0.55879 0.70901
 C901 C 0.91567 0.08541 0.77238
 C902 C 0.90593 0.09516 0.74825
 C903 C 0.91582 0.08512 0.72432
 C904 C 0.93537 0.06540 0.72446
 C905 C 0.94538 0.05536 0.74863
 C906 C 0.93522 0.06568 0.77262
 C907 C 0.88576 0.11543 0.74804
 C908 C 0.86885 0.13238 0.74790
 C909 C 0.84902 0.15220 0.74789
 C910 C 0.83205 0.16910 0.74813
 H911 H 0.90814 0.09305 0.79103
 H912 H 0.90841 0.09252 0.70552
 H913 H 0.94258 0.05807 0.70556
 H914 H 0.94233 0.05857 0.79164
 C915 C 0.41547 0.58543 0.22392
 C916 C 0.40555 0.59545 0.24786
 C917 C 0.41524 0.58570 0.27202
 C918 C 0.43479 0.56598 0.27226
 C919 C 0.44489 0.55577 0.24828
 C920 C 0.43501 0.56572 0.22410
 C921 C 0.38539 0.61568 0.24762
 C922 C 0.36848 0.63261 0.24746
 C923 C 0.34865 0.65239 0.24743
 C924 C 0.33168 0.66924 0.24766
 H925 H 0.40809 0.59284 0.20511
 H926 H 0.40768 0.59333 0.29067
 H927 H 0.44198 0.55875 0.29120
 H928 H 0.44236 0.55829 0.20530
 C929 C 0.08456 0.91479 0.77237
 C930 C 0.09421 0.90497 0.74822
 C931 C 0.08424 0.91496 0.72428
 C932 C 0.06471 0.93469 0.72446
 C933 C 0.05487 0.94472 0.74863
 C934 C 0.06502 0.93453 0.77260
 C935 C 0.11436 0.88468 0.74799
 C936 C 0.13126 0.86772 0.74785
 C937 C 0.15108 0.84789 0.74784
 C938 C 0.16804 0.83099 0.74808
 H939 H 0.09214 0.90720 0.79102
 H940 H 0.09157 0.90750 0.70547
 H941 H 0.05734 0.94208 0.70565
 H942 H 0.05787 0.94181 0.79154
 C943 C 0.58490 0.41426 0.27196
 C944 C 0.59454 0.40447 0.24779
 C945 C 0.58460 0.41449 0.22386
 C946 C 0.56510 0.43423 0.22405
 C947 C 0.55526 0.44422 0.24824
 C948 C 0.56538 0.43401 0.27221
 C949 C 0.61465 0.38419 0.24754
 C950 C 0.63152 0.36723 0.24738
 C951 C 0.65130 0.34740 0.24735
 C952 C 0.66824 0.33051 0.24759
 H953 H 0.59247 0.40663 0.29060
 H954 H 0.59194 0.40706 0.20505
 H955 H 0.55774 0.44166 0.20526
 H956 H 0.55824 0.44126 0.29116
 C957 C 0.91584 0.91501 0.27569
 C958 C 0.90587 0.90500 0.25177
 C959 C 0.91556 0.91475 0.22764
 C960 C 0.93513 0.93446 0.22738
 C961 C 0.94536 0.94476 0.25136
 C962 C 0.93540 0.93471 0.27554
 C963 C 0.88568 0.88475 0.25201
 C964 C 0.86875 0.86781 0.25217
 C965 C 0.84890 0.84801 0.25220
 C966 C 0.83192 0.83114 0.25198
 H967 H 0.90847 0.90759 0.29450
 H968 H 0.90797 0.90714 0.20899
 H969 H 0.94220 0.94159 0.20835
 H970 H 0.94267 0.94202 0.29443
 C971 C 0.41556 0.41460 0.77620
 C972 C 0.40563 0.40458 0.75226
 C973 C 0.41528 0.41436 0.72810
 C974 C 0.43482 0.43409 0.72787
 C975 C 0.44493 0.44430 0.75185
 C976 C 0.43508 0.43432 0.77603
 C977 C 0.38549 0.38433 0.75248
 C978 C 0.36859 0.36739 0.75262
 C979 C 0.34877 0.34760 0.75262
 C980 C 0.33181 0.33074 0.75236
 H981 H 0.40821 0.40717 0.79500
 H982 H 0.40771 0.40673 0.70945
 H983 H 0.44197 0.44134 0.70893
 H984 H 0.44244 0.44175 0.79483
 C985 C 0.08442 0.27394 0.91387
 C986 C 0.09413 0.24982 0.90405
 C987 C 0.08419 0.22586 0.91398
 C988 C 0.06464 0.22598 0.93368
 C989 C 0.05476 0.25013 0.94371
 C990 C 0.06486 0.27412 0.93358
 C991 C 0.11431 0.24962 0.88383
 C992 C 0.13124 0.24940 0.86692
 C993 C 0.15109 0.24914 0.84714
 C994 C 0.16805 0.24899 0.83028
 H995 H 0.09199 0.29261 0.90631
 H996 H 0.09157 0.20708 0.90652
 H997 H 0.05730 0.20717 0.94105
 H998 H 0.05768 0.29304 0.94087
 C999 C 0.58455 0.72603 0.41438
 C1000 C 0.59446 0.74997 0.40438
 C1001 C 0.58476 0.77410 0.41422
 C1002 C 0.56522 0.77429 0.43397
 C1003 C 0.55513 0.75030 0.44416
 C1004 C 0.56502 0.72616 0.43412
 C1005 C 0.61462 0.74977 0.38409
 C1006 C 0.63152 0.74956 0.36711
 C1007 C 0.65133 0.74932 0.34726
 C1008 C 0.66827 0.74918 0.33034
 H1009 H 0.59192 0.70724 0.40692
 H1010 H 0.59229 0.79276 0.40663
 H1011 H 0.55805 0.79321 0.44126
 H1012 H 0.55770 0.70735 0.44152
 C1013 C 0.91633 0.77431 0.91448
 C1014 C 0.90638 0.75038 0.90450
 C1015 C 0.91609 0.72627 0.91428
 C1016 C 0.93567 0.72604 0.93399
 C1017 C 0.94587 0.75002 0.94427
 C1018 C 0.93590 0.77419 0.93419
 C1019 C 0.88616 0.75060 0.88427
 C1020 C 0.86921 0.75083 0.86735
 C1021 C 0.84933 0.75108 0.84757
 C1022 C 0.83233 0.75121 0.83070
 H1023 H 0.90894 0.79310 0.90705
 H1024 H 0.90851 0.70762 0.90667
 H1025 H 0.94274 0.70703 0.94114
 H1026 H 0.94315 0.79308 0.94149
 C1027 C 0.41565 0.27405 0.41428
 C1028 C 0.40573 0.25010 0.40426
 C1029 C 0.41542 0.22597 0.41408
 C1030 C 0.43494 0.22577 0.43385
 C1031 C 0.44504 0.24975 0.44406
 C1032 C 0.43517 0.27391 0.43404
 C1033 C 0.38558 0.25032 0.38397
 C1034 C 0.36868 0.25055 0.36700
 C1035 C 0.34886 0.25081 0.34716
 C1036 C 0.33191 0.25095 0.33024
 H1037 H 0.40829 0.29284 0.40683
 H1038 H 0.40787 0.20732 0.40646
 H1039 H 0.44211 0.20685 0.44112
 H1040 H 0.44251 0.29271 0.44146
 C1041 C 0.08448 0.77415 0.08507
 C1042 C 0.09434 0.75018 0.09509
 C1043 C 0.08463 0.72607 0.08524
 C1044 C 0.06514 0.72590 0.06544
 C1045 C 0.05509 0.74989 0.05523
 C1046 C 0.06499 0.77403 0.06529
 C1047 C 0.11446 0.75037 0.11542
 C1048 C 0.13132 0.75057 0.13242
 C1049 C 0.15110 0.75081 0.15230
 C1050 C 0.16803 0.75094 0.16924
 H1051 H 0.09186 0.79293 0.09255
 H1052 H 0.09214 0.70740 0.09285
 H1053 H 0.05795 0.70699 0.05814
 H1054 H 0.05769 0.79285 0.05787
 C1055 C 0.58461 0.27409 0.58585
 C1056 C 0.59452 0.25014 0.59586
 C1057 C 0.58482 0.22601 0.58605
 C1058 C 0.56530 0.22580 0.56628
 C1059 C 0.55521 0.24978 0.55606
 C1060 C 0.56509 0.27393 0.56609
 C1061 C 0.61467 0.25037 0.61616
 C1062 C 0.63157 0.25061 0.63313
 C1063 C 0.65139 0.25088 0.65297
 C1064 C 0.66835 0.25104 0.66988
 H1065 H 0.59197 0.29288 0.59330
 H1066 H 0.59237 0.20736 0.59366
 H1067 H 0.55812 0.20688 0.55900
 H1068 H 0.55776 0.29274 0.55867
 C1069 C 0.91501 0.27363 0.08556
 C1070 C 0.90535 0.24948 0.09531
 C1071 C 0.91526 0.22555 0.08525
 C1072 C 0.93476 0.22575 0.06550
 C1073 C 0.94461 0.24992 0.05553
 C1074 C 0.93452 0.27388 0.06579
 C1075 C 0.88524 0.24921 0.11560
 C1076 C 0.86837 0.24894 0.13257
 C1077 C 0.84860 0.24865 0.15241
 C1078 C 0.83168 0.24849 0.16933
 H1079 H 0.90747 0.29227 0.09321
 H1080 H 0.90792 0.20674 0.09266
 H1081 H 0.94210 0.20696 0.05804
 H1082 H 0.94168 0.29282 0.05856
 C1083 C 0.41556 0.72596 0.58592
 C1084 C 0.40565 0.74990 0.59596
 C1085 C 0.41533 0.77403 0.58615
 C1086 C 0.43484 0.77423 0.56637
 C1087 C 0.44493 0.75026 0.55614
 C1088 C 0.43506 0.72611 0.56616
 C1089 C 0.38551 0.74967 0.61628
 C1090 C 0.36862 0.74945 0.63326
 C1091 C 0.34880 0.74919 0.65310
 C1092 C 0.33185 0.74905 0.67001
 H1093 H 0.40820 0.70716 0.59336
 H1094 H 0.40780 0.79268 0.59378
 H1095 H 0.44200 0.79316 0.55911
 H1096 H 0.44238 0.70730 0.55872
 C1097 C 0.22623 0.08519 0.91498
 C1098 C 0.25018 0.09521 0.90510
 C1099 C 0.27432 0.08540 0.91478
 C1100 C 0.27453 0.06564 0.93427
 C1101 C 0.25054 0.05543 0.94434
 C1102 C 0.22638 0.06544 0.93446
 C1103 C 0.24995 0.11552 0.88501
 C1104 C 0.24970 0.13252 0.86817
 C1105 C 0.24940 0.15238 0.84842
 C1106 C 0.24921 0.16931 0.83152
 H1107 H 0.20743 0.09264 0.90761
 H1108 H 0.29298 0.09303 0.90725
 H1109 H 0.29346 0.05837 0.94145
 H1110 H 0.20757 0.05802 0.94178
 C1111 C 0.72654 0.58554 0.41518
 C1112 C 0.75049 0.59553 0.40525
 C1113 C 0.77463 0.58573 0.41497
 C1114 C 0.77484 0.56602 0.43454
 C1115 C 0.75085 0.55583 0.44465
 C1116 C 0.72669 0.56583 0.43474
 C1117 C 0.75027 0.61580 0.38508
 C1118 C 0.75002 0.63276 0.36818
 C1119 C 0.74972 0.65260 0.34836
 C1120 C 0.74951 0.66952 0.33141
 H1121 H 0.70774 0.59297 0.40781
 H1122 H 0.79329 0.59332 0.40743
 H1123 H 0.79376 0.55876 0.44173
 H1124 H 0.70788 0.55844 0.44208
 C1125 C 0.77356 0.08473 0.08463
 C1126 C 0.74960 0.09474 0.09448
 C1127 C 0.72550 0.08492 0.08473
 C1128 C 0.72532 0.06516 0.06521
 C1129 C 0.74934 0.05487 0.05509
 C1130 C 0.77349 0.06498 0.06512
 C1131 C 0.74978 0.11506 0.11460
 C1132 C 0.75000 0.13205 0.13147
 C1133 C 0.75027 0.15193 0.15125
 C1134 C 0.75047 0.16886 0.16818
 H1135 H 0.79234 0.09220 0.09205
 H1136 H 0.70683 0.09254 0.09223
 H1137 H 0.70632 0.05799 0.05809
 H1138 H 0.79241 0.05768 0.05794
 C1139 C 0.27358 0.58560 0.58473
 C1140 C 0.24962 0.59557 0.59466
 C1141 C 0.22549 0.58578 0.58494
 C1142 C 0.22528 0.56607 0.56535
 C1143 C 0.24928 0.55590 0.55524
 C1144 C 0.27343 0.56590 0.56515
 C1145 C 0.24984 0.61582 0.61486
 C1146 C 0.25008 0.63275 0.63179
 C1147 C 0.25037 0.65256 0.65164
 C1148 C 0.25057 0.66945 0.66861
 H1149 H 0.29237 0.59304 0.59211
 H1150 H 0.20682 0.59336 0.59250
 H1151 H 0.20636 0.55881 0.55816
 H1152 H 0.29225 0.55851 0.55780
 C1153 C 0.77385 0.91453 0.91616
 C1154 C 0.74991 0.90454 0.90618
 C1155 C 0.72576 0.91433 0.91585
 C1156 C 0.72553 0.93405 0.93543
 C1157 C 0.74951 0.94423 0.94559
 C1158 C 0.77368 0.93424 0.93572
 C1159 C 0.75016 0.88429 0.88599
 C1160 C 0.75042 0.86736 0.86906
 C1161 C 0.75073 0.84756 0.84921
 C1162 C 0.75094 0.83067 0.83223
 H1163 H 0.79266 0.90710 0.90881
 H1164 H 0.70711 0.90674 0.90826
 H1165 H 0.70660 0.94130 0.94259
 H1166 H 0.79248 0.94164 0.94311
 C1167 C 0.27362 0.41455 0.41530
 C1168 C 0.24967 0.40453 0.40537
 C1169 C 0.22553 0.41432 0.41507
 C1170 C 0.22532 0.43406 0.43462
 C1171 C 0.24930 0.44427 0.44473
 C1172 C 0.27346 0.43427 0.43484
 C1173 C 0.24989 0.38426 0.38520
 C1174 C 0.25014 0.36730 0.36830
 C1175 C 0.25044 0.34746 0.34848
 C1176 C 0.25065 0.33056 0.33153
 H1177 H 0.29242 0.40712 0.40792
 H1178 H 0.20686 0.40671 0.40751
 H1179 H 0.20639 0.44131 0.44180
 H1180 H 0.29227 0.44169 0.44219
 C1181 C 0.27433 0.91405 0.08445
 C1182 C 0.25019 0.90429 0.09416
 C1183 C 0.22624 0.91426 0.08421
 C1184 C 0.22639 0.93394 0.06464
 C1185 C 0.25055 0.94391 0.05475
 C1186 C 0.27454 0.93373 0.06487
 C1187 C 0.24996 0.88407 0.11434
 C1188 C 0.24971 0.86716 0.13127
 C1189 C 0.24941 0.84739 0.15110
 C1190 C 0.24920 0.83052 0.16806
 H1191 H 0.29299 0.90646 0.09202
 H1192 H 0.20744 0.90684 0.09159
 H1193 H 0.20758 0.94133 0.05729
 H1194 H 0.29347 0.94098 0.05769
 C1195 C 0.77468 0.41435 0.58490
 C1196 C 0.75055 0.40456 0.59462
 C1197 C 0.72659 0.41455 0.58468
 C1198 C 0.72673 0.43426 0.56512
 C1199 C 0.75088 0.44425 0.55522
 C1200 C 0.77487 0.43406 0.56533
 C1201 C 0.75033 0.38429 0.61480
 C1202 C 0.75010 0.36735 0.63172
 C1203 C 0.74981 0.34753 0.65156
 C1204 C 0.74962 0.33064 0.66853
 H1205 H 0.79334 0.40675 0.59245
 H1206 H 0.70779 0.40713 0.59206
 H1207 H 0.70792 0.44165 0.55778
 H1208 H 0.79380 0.44131 0.55814
 C1209 C 0.08514 0.08512 0.77383
 C1210 C 0.09516 0.09504 0.74990
 C1211 C 0.08538 0.08536 0.72573
 C1212 C 0.06564 0.06582 0.72548
 C1213 C 0.05543 0.05573 0.74946
 C1214 C 0.06542 0.06560 0.77364
 C1215 C 0.11543 0.11516 0.75018
 C1216 C 0.13239 0.13204 0.75050
 C1217 C 0.15222 0.15182 0.75087
 C1218 C 0.16912 0.16875 0.75110
 H1219 H 0.09258 0.09248 0.79264
 H1220 H 0.09300 0.09292 0.70709
 H1221 H 0.05838 0.05865 0.70655
 H1222 H 0.05800 0.05826 0.79244
 C1223 C 0.58574 0.58511 0.22555
 C1224 C 0.59549 0.59481 0.24972
 C1225 C 0.58549 0.58480 0.27364
 C1226 C 0.56584 0.56519 0.27341
 C1227 C 0.55588 0.55531 0.24922
 C1228 C 0.56607 0.56549 0.22527
 C1229 C 0.61570 0.61504 0.25004
 C1230 C 0.63260 0.63200 0.25038
 C1231 C 0.65239 0.65188 0.25077
 C1232 C 0.66926 0.66887 0.25100
 H1233 H 0.59334 0.59272 0.20691
 H1234 H 0.59289 0.59216 0.29246
 H1235 H 0.55844 0.55780 0.29220
 H1236 H 0.55884 0.55832 0.20632
 C1237 C 0.08540 0.91467 0.27397
 C1238 C 0.09511 0.90502 0.24978
 C1239 C 0.08505 0.91497 0.22588
 C1240 C 0.06533 0.93451 0.22612
 C1241 C 0.05541 0.94435 0.25033
 C1242 C 0.06567 0.93422 0.27428
 C1243 C 0.11537 0.88488 0.24944
 C1244 C 0.13232 0.86799 0.24908
 C1245 C 0.15214 0.84820 0.24867
 C1246 C 0.16904 0.83126 0.24843
 H1247 H 0.09307 0.90709 0.29260
 H1248 H 0.09243 0.90763 0.20704
 H1249 H 0.05787 0.94188 0.20735
 H1250 H 0.05847 0.94137 0.29324
 C1251 C 0.58589 0.41509 0.77454
 C1252 C 0.59563 0.40543 0.75035
 C1253 C 0.58558 0.41542 0.72645
 C1254 C 0.56588 0.43498 0.72669
 C1255 C 0.55593 0.44484 0.75089
 C1256 C 0.56617 0.43467 0.77483
 C1257 C 0.61588 0.38524 0.75002
 C1258 C 0.63282 0.36831 0.74968
 C1259 C 0.65263 0.34846 0.74928
 C1260 C 0.66952 0.33149 0.74905
 H1261 H 0.59352 0.40749 0.79316
 H1262 H 0.59297 0.40809 0.70762
 H1263 H 0.55844 0.44237 0.70791
 H1264 H 0.55896 0.44182 0.79379
 C1265 C 0.91403 0.08457 0.27405
 C1266 C 0.90429 0.09422 0.24987
 C1267 C 0.91428 0.08420 0.22596
 C1268 C 0.93394 0.06462 0.22618
 C1269 C 0.94389 0.05478 0.25039
 C1270 C 0.93371 0.06497 0.27434
 C1271 C 0.88410 0.11443 0.24955
 C1272 C 0.86721 0.13137 0.24920
 C1273 C 0.84745 0.15122 0.24879
 C1274 C 0.83060 0.16820 0.24855
 H1275 H 0.90643 0.09220 0.29268
 H1276 H 0.90688 0.09154 0.20713
 H1277 H 0.94134 0.05721 0.20740
 H1278 H 0.94094 0.05783 0.29329
 C1279 C 0.41459 0.58476 0.72654
 C1280 C 0.40456 0.59474 0.75045
 C1281 C 0.41432 0.58507 0.77463
 C1282 C 0.43404 0.56550 0.77490
 C1283 C 0.44426 0.55534 0.75095
 C1284 C 0.43430 0.56520 0.72676
 C1285 C 0.38430 0.61493 0.75014
 C1286 C 0.36735 0.63185 0.74981
 C1287 C 0.34754 0.65169 0.74942
 C1288 C 0.33064 0.66866 0.74918
 H1289 H 0.40719 0.59210 0.70771
 H1290 H 0.40669 0.59266 0.79326
 H1291 H 0.44127 0.55834 0.79385
 H1292 H 0.44173 0.55782 0.70797
 C1293 C 0.91441 0.91584 0.77417
 C1294 C 0.90440 0.90578 0.75028
 C1295 C 0.91407 0.91542 0.72607
 C1296 C 0.93371 0.93506 0.72575
 C1297 C 0.94392 0.94529 0.74968
 C1298 C 0.93403 0.93546 0.77390
 C1299 C 0.88426 0.88552 0.75064
 C1300 C 0.86741 0.86854 0.75100
 C1301 C 0.84770 0.84864 0.75142
 C1302 C 0.83088 0.83163 0.75167
 H1303 H 0.90706 0.90850 0.79301
 H1304 H 0.90645 0.90776 0.70746
 H1305 H 0.94089 0.94220 0.70678
 H1306 H 0.94146 0.94290 0.79267
 C1307 C 0.41466 0.41531 0.27368
 C1308 C 0.40462 0.40530 0.24977
 C1309 C 0.41434 0.41497 0.22559
 C1310 C 0.43404 0.43456 0.22530
 C1311 C 0.44428 0.44474 0.24925
 C1312 C 0.43435 0.43489 0.27345
 C1313 C 0.38438 0.38509 0.25009
 C1314 C 0.36745 0.36816 0.25044
 C1315 C 0.34765 0.34830 0.25083
 C1316 C 0.33077 0.33132 0.25106
 H1317 H 0.40729 0.40797 0.29251
 H1318 H 0.40670 0.40735 0.20696
 H1319 H 0.44125 0.44171 0.20635
 H1320 H 0.44179 0.44228 0.29223
   
