data_POSCAR
  _audit_creation_date              2014-09-24
  _audit_creation_method            'ToBaCCo'
  _symmetry_space_group_name_H-M    'P1'
  _symmetry_Int_Tables_number       1
  _symmetry_cell_setting            triclinic
  loop_
  _symmetry_equiv_pos_as_xyz
 x,y,z
_cell_length_a 54.0850
_cell_length_b 54.0176
_cell_length_c 54.1501
_cell_angle_alpha 89.965500
_cell_angle_beta 90.026600
_cell_angle_gamma 90.030800
loop_
  _atom_site_label
  _atom_site_type_symbol
  _atom_site_fract_x
  _atom_site_fract_y
  _atom_site_fract_z
N1 N 0.34757 1.34779 0.34780
 N2 N 0.35155 0.85143 0.85114
 N3 N 0.84932 1.34971 0.84853
 N4 N 0.84766 0.84844 0.34671
 N5 N 0.65036 0.65018 0.35049
 N6 N 0.65147 0.15238 0.84836
 N7 N 1.14979 0.64968 0.85060
 N8 N 1.15171 0.15176 0.34843
 N9 N 0.64987 1.35008 0.65032
 N10 N 0.65013 0.84923 1.15016
 N11 N 1.15084 1.34991 1.15077
 N12 N 1.15213 0.84788 0.65225
 N13 N 0.35008 0.65011 0.65113
 N14 N 0.34899 0.14956 1.15031
 N15 N 0.84745 0.65176 1.15258
 N16 N 0.84966 0.15032 0.65105
 N17 N 1.34909 0.34906 0.65123
 N18 N 1.34957 0.84979 1.15121
 N19 N 0.84961 0.34938 1.15082
 N20 N 0.84837 0.84908 0.65186
 N21 N 0.64950 0.64952 0.64941
 N22 N 0.65131 1.15048 1.14993
 N23 N 0.15236 0.65172 1.15230
 N24 N 0.15022 1.15057 0.64934
 N25 N 1.34907 0.65044 0.34839
 N26 N 1.34841 1.15116 0.84798
 N27 N 0.84865 0.65165 0.84836
 N28 N 0.85044 1.14884 0.34995
 N29 N 0.65181 0.34854 0.34894
 N30 N 0.65048 0.84850 0.84939
 N31 N 0.14824 0.35176 0.85206
 N32 N 0.15080 0.84930 0.34903
 O33 O 0.97627 0.91100 0.87726
 O34 O 0.97628 0.88232 0.84829
 C35 C 0.96789 0.90246 0.85707
 C36 C 0.94768 0.91566 0.84408
 C37 C 0.93922 0.90728 0.82104
 H38 H 0.94859 0.89200 0.81213
 O39 O 1.02497 1.08962 0.87618
 O40 O 1.02520 1.11852 0.84739
 C41 C 1.03354 1.09836 0.85614
 C42 C 1.05376 1.08518 0.84327
 C43 C 1.06244 1.09346 0.82025
 H44 H 1.05398 1.10944 0.81160
 O45 O 0.87677 0.97678 0.91048
 O46 O 0.84795 0.97689 0.88166
 C47 C 0.85655 0.96850 0.90183
 C48 C 0.84337 0.94839 0.91497
 C49 C 0.82021 0.94013 0.90665
 H50 H 0.81129 0.94970 0.89151
 O51 O 1.12303 1.02467 0.91095
 O52 O 1.15208 1.02479 0.88238
 C53 C 1.14316 1.03322 0.90239
 C54 C 1.15599 1.05349 0.91565
 C55 C 1.17894 1.06234 0.90732
 H56 H 1.18734 1.05412 0.89114
 O57 O 0.90989 0.87712 0.97497
 O58 O 0.88094 0.84836 0.97470
 C59 C 0.90109 0.85710 0.96635
 C60 C 0.91416 0.84424 0.94604
 C61 C 0.90527 0.82162 0.93684
 H62 H 0.88916 0.81305 0.94512
 O63 O 1.08874 1.12292 0.97674
 O64 O 1.11754 1.15183 0.97689
 C65 C 1.09741 1.14312 0.96842
 C66 C 1.08436 1.15618 0.94817
 C67 C 1.09250 1.17951 0.94011
 H68 H 1.10734 1.18861 0.94998
 O69 O 0.91109 1.02459 0.87638
 O70 O 0.88248 1.02461 0.84735
 C71 C 0.90261 1.03295 0.85614
 C72 C 0.91613 1.05287 0.84301
 C73 C 0.90831 1.06109 0.81966
 H74 H 0.89216 1.05274 0.81130
 O75 O 1.08959 0.97612 0.87716
 O76 O 1.11850 0.97603 0.84846
 C77 C 1.09836 0.96757 0.85716
 C78 C 1.08532 0.94716 0.84433
 C79 C 1.09385 0.93830 0.82148
 H80 H 1.10970 0.94690 0.81274
 O81 O 1.02415 0.87654 0.91112
 O82 O 1.02415 0.84773 0.88229
 C83 C 1.03256 0.85640 0.90242
 C84 C 1.05283 0.84340 0.91548
 C85 C 1.06149 0.82041 0.90703
 H86 H 1.05245 0.81152 0.89153
 O87 O 0.97629 1.12315 0.90967
 O88 O 0.97639 1.15210 0.88095
 C89 C 0.96777 1.14324 0.90091
 C90 C 0.94733 1.15611 0.91386
 C91 C 0.93796 1.17861 0.90479
 H92 H 0.94582 1.18649 0.88817
 O93 O 0.87766 1.09015 0.97527
 O94 O 0.84893 1.11910 0.97534
 C95 C 0.85764 1.09902 0.96677
 C96 C 0.84475 1.08617 0.94629
 C97 C 0.82215 1.09516 0.93713
 H98 H 0.81400 1.11149 0.94536
 O99 O 1.12344 0.91055 0.97544
 O100 O 1.15240 0.88183 0.97540
 C101 C 1.14356 0.90190 0.96695
 C102 C 1.15648 0.91517 0.94677
 C103 C 1.17941 0.90675 0.93792
 H104 H 1.18759 0.89034 0.94597
 O105 O 0.97689 1.08900 0.87612
 O106 O 0.97705 1.11778 0.84721
 C107 C 0.96869 1.09756 0.85587
 C108 C 0.94872 1.08419 0.84272
 C109 C 0.94109 1.09171 0.81910
 H110 H 0.95107 1.10641 0.80986
 O111 O 1.02456 0.91056 0.87742
 O112 O 1.02457 0.88186 0.84848
 C113 C 1.03310 0.90189 0.85736
 C114 C 1.05353 0.91492 0.84457
 C115 C 1.06250 0.90620 0.82186
 H116 H 1.05386 0.89033 0.81316
 O117 O 1.12353 0.97641 0.91095
 O118 O 1.15259 0.97649 0.88239
 C119 C 1.14378 0.96809 0.90246
 C120 C 1.15676 0.94786 0.91561
 C121 C 1.17999 0.93965 0.90749
 H122 H 1.18911 0.94944 0.89262
 O123 O 0.87731 1.02502 0.91027
 O124 O 0.84854 1.02519 0.88139
 C125 C 0.85730 1.03362 0.90149
 C126 C 0.84452 1.05409 0.91447
 C127 C 0.82174 1.06308 0.90584
 H128 H 0.81281 1.05398 0.89042
 O129 O 0.91182 1.12371 0.97545
 O130 O 0.88319 1.15277 0.97550
 C131 C 0.90322 1.14389 0.96701
 C132 C 0.91614 1.15665 0.94648
 C133 C 0.90747 1.17947 0.93756
 H134 H 0.89235 1.18854 0.94700
 O135 O 1.08956 0.87665 0.97571
 O136 O 1.11837 0.84778 0.97572
 C137 C 1.09821 0.85648 0.96734
 C138 C 1.08497 0.84343 0.94723
 C139 C 1.09340 0.82045 0.93850
 H140 H 1.10945 0.81191 0.94690
 O141 O 1.08976 1.02441 0.87659
 O142 O 1.11867 1.02437 0.84788
 C143 C 1.09853 1.03280 0.85649
 C144 C 1.08550 1.05303 0.84342
 C145 C 1.09392 1.06152 0.82039
 H146 H 1.10937 1.05237 0.81154
 O147 O 0.91086 0.97625 0.87688
 O148 O 0.88220 0.97622 0.84791
 C149 C 0.90222 0.96769 0.85680
 C150 C 0.91537 0.94731 0.84403
 C151 C 0.90692 0.93837 0.82115
 H152 H 0.89074 0.94661 0.81272
 O153 O 1.02461 1.12298 0.91046
 O154 O 1.02485 1.15204 0.88184
 C155 C 1.03315 1.14316 0.90196
 C156 C 1.05326 1.15607 0.91541
 C157 C 1.06213 1.17909 0.90718
 H158 H 1.05412 1.18738 0.89083
 O159 O 0.97587 0.87669 0.91074
 O160 O 0.97585 0.84789 0.88190
 C161 C 0.96733 0.85663 0.90194
 C162 C 0.94678 0.84381 0.91477
 C163 C 0.93785 0.82097 0.90609
 H164 H 0.94658 0.81213 0.89040
 O165 O 1.12291 1.08927 0.97671
 O166 O 1.15184 1.11804 0.97688
 C167 C 1.14308 1.09796 0.96836
 C168 C 1.15605 1.08496 0.94806
 C169 C 1.17918 1.09332 0.93968
 H170 H 1.18818 1.10854 0.94910
 O171 O 0.87620 0.91111 0.97517
 O172 O 0.84711 0.88249 0.97493
 C173 C 0.85604 0.90260 0.96662
 C174 C 0.84324 0.91596 0.94643
 C175 C 0.82032 0.90760 0.93748
 H176 H 0.81194 0.89131 0.94561
 Cu177 Cu 1.00021 0.89656 0.89704
 Cu178 Cu 1.00019 0.86207 0.86233
 Cu179 Cu 1.00067 1.10333 0.89600
 Cu180 Cu 1.00087 1.13806 0.86150
 Cu181 Cu 0.89689 1.00066 0.89638
 Cu182 Cu 0.86241 1.00073 0.86167
 Cu183 Cu 1.10356 1.00040 0.89676
 Cu184 Cu 1.13837 1.00041 0.86240
 C185 C 0.93584 0.93589 0.85527
 H186 H 0.94214 0.94231 0.87314
 C187 C 0.91873 0.91834 0.80947
 C188 C 1.06527 1.06482 0.85457
 H189 H 1.05890 1.05857 0.87249
 C190 C 1.08252 1.08174 0.80866
 C191 C 0.85455 0.93643 0.93511
 H192 H 0.87250 0.94261 0.94151
 C193 C 0.80855 0.91959 0.91762
 C194 C 1.14477 1.06484 0.93611
 H195 H 1.12685 1.05843 0.94234
 C196 C 1.19077 1.08222 0.91924
 C197 C 0.93500 0.85511 0.93496
 H198 H 0.94165 0.87281 0.94162
 C199 C 0.91705 0.80986 0.91696
 C200 C 1.06448 1.14481 0.93595
 H201 H 1.05817 1.12677 0.94202
 C202 C 1.08171 1.19110 0.91947
 C203 C 0.93640 1.06449 0.85432
 H204 H 0.94215 1.05866 0.87259
 C205 C 0.92075 1.08043 0.80738
 C206 C 1.06497 0.93551 0.85558
 H207 H 1.05844 0.94206 0.87331
 C208 C 1.08260 0.91778 0.81020
 C209 C 1.06453 0.85461 0.93575
 H210 H 1.05818 0.87251 0.94214
 C211 C 1.08178 0.80880 0.91839
 C212 C 0.93632 1.14532 0.93474
 H213 H 0.94303 1.12767 0.94147
 C214 C 0.91806 1.19057 0.91654
 C215 C 0.85570 1.06556 0.93490
 H216 H 0.87337 1.05885 0.94152
 C217 C 0.81042 1.08372 0.91694
 C218 C 1.14535 0.93577 0.93551
 H219 H 1.12739 0.94198 0.94181
 C220 C 1.19144 0.91891 0.91830
 O221 O 1.02340 0.90916 1.12223
 O222 O 1.02325 0.88017 1.15091
 C223 C 1.03175 0.90035 1.14233
 C224 C 1.05194 0.91346 1.15545
 C225 C 1.06072 0.90481 1.17833
 H226 H 1.05242 0.88854 1.18656
 O227 O 0.97590 1.08884 1.12357
 O228 O 0.97578 1.11753 1.15253
 C229 C 0.96739 1.09743 1.14368
 C230 C 0.94707 1.08423 1.15645
 C231 C 0.93829 1.09259 1.17938
 H232 H 0.94728 1.10810 1.18834
 O233 O 0.87728 1.02420 1.08859
 O234 O 0.84829 1.02424 1.11721
 C235 C 0.85720 1.03277 1.09721
 C236 C 0.84449 1.05330 1.08419
 C237 C 0.82166 1.06222 1.09273
 H238 H 0.81273 1.05321 1.10823
 O239 O 1.12254 0.97510 1.08986
 O240 O 1.15133 0.97485 1.11871
 C241 C 1.14265 0.96657 1.09853
 C242 C 1.15574 0.94651 1.08521
 C243 C 1.17860 0.93759 1.09379
 H244 H 1.18670 0.94560 1.11024
 O245 O 1.08979 0.87678 1.02387
 O246 O 1.11867 0.84797 1.02395
 C247 C 1.09856 0.85670 1.03238
 C248 C 1.08546 0.84367 1.05259
 C249 C 1.09436 0.82101 1.06169
 H250 H 1.11067 0.81261 1.05366
 O251 O 0.91176 1.12359 1.02367
 O252 O 0.88316 1.15267 1.02371
 C253 C 0.90320 1.14376 1.03214
 C254 C 0.91627 1.15655 1.05252
 C255 C 0.90807 1.17971 1.06095
 H256 H 0.89301 1.18887 1.05145
 O257 O 0.91061 0.97537 1.12227
 O258 O 0.88176 0.97529 1.15102
 C259 C 0.90182 0.96675 1.14225
 C260 C 0.91468 0.94611 1.15495
 C261 C 0.90605 0.93713 1.17773
 H262 H 0.89034 0.94585 1.18657
 O263 O 1.08862 1.02314 1.12400
 O264 O 1.11730 1.02291 1.15297
 C265 C 1.09724 1.03143 1.14421
 C266 C 1.08419 1.05174 1.15715
 C267 C 1.09270 1.06049 1.18008
 H268 H 1.10833 1.05171 1.18905
 O269 O 0.97545 0.87547 1.08776
 O270 O 0.97527 0.84630 1.11627
 C271 C 0.96697 0.85524 1.09620
 C272 C 0.94666 0.84249 1.08296
 C273 C 0.93779 0.81949 1.09124
 H274 H 0.94648 0.81032 1.10679
 O275 O 1.02425 1.12292 1.09013
 O276 O 1.02418 1.15177 1.11893
 C277 C 1.03271 1.14302 1.09890
 C278 C 1.05307 1.15596 1.08591
 C279 C 1.06215 1.17868 1.09469
 H280 H 1.05397 1.18689 1.11099
 O281 O 0.87623 0.91080 1.02339
 O282 O 0.84717 0.88215 1.02321
 C283 C 0.85609 0.90214 1.03181
 C284 C 0.84329 0.91516 1.05221
 C285 C 0.82057 0.90641 1.06126
 H286 H 0.81227 0.89014 1.05303
 O287 O 1.12251 1.08888 1.02496
 O288 O 1.15146 1.11765 1.02514
 C289 C 1.14261 1.09752 1.03352
 C290 C 1.15541 1.08435 1.05387
 C291 C 1.17830 1.09284 1.06274
 H292 H 1.18720 1.10848 1.05390
 O293 O 1.02413 1.08889 1.12371
 O294 O 1.02409 1.11760 1.15265
 C295 C 1.03258 1.09753 1.14383
 C296 C 1.05284 1.08438 1.15673
 C297 C 1.06200 1.09319 1.17935
 H298 H 1.05388 1.10941 1.18787
 O299 O 0.97510 0.90928 1.12165
 O300 O 0.97486 0.88025 1.15030
 C301 C 0.96645 0.90043 1.14160
 C302 C 0.94606 0.91347 1.15445
 C303 C 0.93690 0.90457 1.17704
 H304 H 0.94525 0.88847 1.18558
 O305 O 1.12225 1.02343 1.08993
 O306 O 1.15107 1.02324 1.11875
 C307 C 1.14235 1.03184 1.09870
 C308 C 1.15532 1.05223 1.08573
 C309 C 1.17822 1.06100 1.09432
 H310 H 1.18674 1.05244 1.11030
 O311 O 0.87656 0.97588 1.08859
 O312 O 0.84758 0.97588 1.11722
 C313 C 0.85633 0.96750 1.09713
 C314 C 0.84332 0.94727 1.08397
 C315 C 0.82040 0.93852 1.09250
 H316 H 0.81153 0.94768 1.10791
 O317 O 1.08901 1.12313 1.02492
 O318 O 1.11785 1.15201 1.02504
 C319 C 1.09772 1.14326 1.03341
 C320 C 1.08470 1.15616 1.05372
 C321 C 1.09326 1.17908 1.06249
 H322 H 1.10862 1.18804 1.05328
 O323 O 0.90982 0.87670 1.02315
 O324 O 0.88088 0.84792 1.02296
 C325 C 0.90102 0.85654 1.03147
 C326 C 0.91408 0.84336 1.05160
 C327 C 0.90514 0.82064 1.06053
 H328 H 0.88888 0.81225 1.05236
 O329 O 1.08816 0.97487 1.12316
 O330 O 1.11681 0.97459 1.15215
 C331 C 1.09672 0.96625 1.14323
 C332 C 1.08355 0.94583 1.15592
 C333 C 1.09179 0.93716 1.17893
 H334 H 1.10699 0.94649 1.18804
 O335 O 0.91062 1.02373 1.12296
 O336 O 0.88175 1.02368 1.15170
 C337 C 0.90191 1.03210 1.14309
 C338 C 0.91505 1.05228 1.15619
 C339 C 0.90646 1.06099 1.17909
 H340 H 0.89037 1.05251 1.18749
 O341 O 0.97602 1.12285 1.08982
 O342 O 0.97588 1.15170 1.11862
 C343 C 0.96756 1.14299 1.09846
 C344 C 0.94751 1.15608 1.08514
 C345 C 0.93879 1.17908 1.09354
 H346 H 0.94697 1.18735 1.10982
 O347 O 1.02366 0.87568 1.08803
 O348 O 1.02353 0.84653 1.11656
 C349 C 1.03210 0.85549 1.09661
 C350 C 1.05262 0.84281 1.08367
 C351 C 1.06148 0.81987 1.09211
 H352 H 1.05266 0.81071 1.10759
 O353 O 1.12337 0.91094 1.02363
 O354 O 1.15239 0.88227 1.02365
 C355 C 1.14353 0.90236 1.03207
 C356 C 1.15633 0.91542 1.05245
 C357 C 1.17941 0.90713 1.06096
 H358 H 1.18857 0.89214 1.05138
 O359 O 0.87772 1.08981 1.02357
 O360 O 0.84899 1.11876 1.02367
 C361 C 0.85766 1.09857 1.03208
 C362 C 0.84469 1.08546 1.05237
 C363 C 0.82190 1.09418 1.06128
 H364 H 0.81351 1.11035 1.05293
 Cu365 Cu 0.99943 0.89531 1.10207
 Cu366 Cu 0.99920 0.86040 1.13639
 Cu367 Cu 1.00007 1.10300 1.10392
 Cu368 Cu 0.99994 1.13754 1.13860
 Cu369 Cu 0.89593 0.89681 0.99919
 Cu370 Cu 0.86111 0.86235 0.99892
 Cu371 Cu 1.10365 0.89661 0.99964
 Cu372 Cu 1.13837 0.86208 0.99968
 Cu373 Cu 0.89759 1.10390 0.99950
 Cu374 Cu 0.86319 1.13873 0.99959
 Cu375 Cu 1.10291 1.10316 1.00082
 Cu376 Cu 1.13758 1.13776 1.00098
 Cu377 Cu 0.89667 0.99980 1.10275
 Cu378 Cu 0.86194 0.99977 1.13716
 Cu379 Cu 1.10253 0.99917 1.10385
 Cu380 Cu 1.13701 0.99886 1.13854
 C381 C 1.06342 0.93407 1.14449
 H382 H 1.05711 0.94054 1.12663
 C383 C 1.08065 0.91655 1.19025
 C384 C 0.93549 1.06390 1.14515
 H385 H 0.94195 1.05756 1.12731
 C386 C 0.91795 1.08115 1.19082
 C387 C 0.85573 1.06489 1.06384
 H388 H 0.87349 1.05832 1.05735
 C389 C 0.81024 1.08269 1.08147
 C390 C 1.14483 0.93536 1.06447
 H391 H 1.12694 0.94173 1.05810
 C392 C 1.19067 0.91792 1.08177
 C393 C 1.06451 0.85437 1.06365
 H394 H 1.05788 0.87212 1.05711
 C395 C 1.08236 0.80904 1.08127
 C396 C 0.93620 1.14504 1.06453
 H397 H 0.94248 1.12708 1.05825
 C398 C 0.91909 1.19110 1.08155
 C399 C 0.93490 0.93434 1.14363
 H400 H 0.94154 0.94102 1.12597
 C401 C 0.91698 0.91633 1.18880
 C402 C 1.06399 1.06358 1.14584
 H403 H 1.05742 1.05704 1.12811
 C404 C 1.08175 1.08124 1.19110
 C405 C 0.93492 0.85407 1.06286
 H406 H 0.94155 0.87188 1.05648
 C407 C 0.91702 0.80864 1.08017
 C408 C 1.06439 1.14493 1.06535
 H409 H 1.05782 1.12716 1.05880
 C410 C 1.08223 1.19047 1.08308
 C411 C 0.85444 0.93568 1.06361
 H412 H 0.87221 0.94219 1.05707
 C413 C 0.80890 0.91797 1.08140
 C414 C 1.14419 1.06390 1.06535
 H415 H 1.12637 1.05747 1.05883
 C416 C 1.18984 1.08131 1.08297
 O417 O 0.97554 0.41064 0.37667
 O418 O 0.97539 0.38189 0.34777
 C419 C 0.96707 0.40206 0.35653
 C420 C 0.94702 0.41549 0.34355
 C421 C 0.93816 0.40721 0.32058
 H422 H 0.94624 0.39092 0.31221
 O423 O 1.02479 0.59004 0.37754
 O424 O 1.02510 0.61898 0.34880
 C425 C 1.03334 0.59874 0.35748
 C426 C 1.05340 0.58544 0.34444
 C427 C 1.06244 0.59422 0.32175
 H428 H 1.05439 0.61053 0.31330
 O429 O 0.87746 0.47639 0.41024
 O430 O 0.84862 0.47664 0.38144
 C431 C 0.85737 0.46797 0.40143
 C432 C 0.84439 0.44754 0.41436
 C433 C 0.82153 0.43870 0.40569
 H434 H 0.81336 0.44702 0.38943
 O435 O 1.12283 0.52411 0.41046
 O436 O 1.15174 0.52420 0.38176
 C437 C 1.14292 0.53267 0.40179
 C438 C 1.15582 0.55297 0.41496
 C439 C 1.17858 0.56207 0.40633
 H440 H 1.18671 0.55408 0.38990
 O441 O 0.91037 0.37674 0.47546
 O442 O 0.88150 0.34790 0.47534
 C443 C 0.90165 0.35661 0.46701
 C444 C 0.91477 0.34360 0.44684
 C445 C 0.90643 0.32050 0.43835
 H446 H 0.89094 0.31158 0.44740
 O447 O 1.08982 0.62268 0.47688
 O448 O 1.11874 0.65148 0.47713
 C449 C 1.09857 0.64291 0.46867
 C450 C 1.08554 0.65619 0.44860
 C451 C 1.09393 0.67942 0.44049
 H452 H 1.10917 0.68825 0.45000
 O453 O 0.91149 0.52499 0.37694
 O454 O 0.88277 0.52532 0.34802
 C455 C 0.90289 0.53362 0.35687
 C456 C 0.91607 0.55401 0.34413
 C457 C 0.90773 0.56285 0.32119
 H458 H 0.89211 0.55416 0.31212
 O459 O 1.08930 0.47544 0.37684
 O460 O 1.11808 0.47539 0.34801
 C461 C 1.09800 0.46691 0.35679
 C462 C 1.08482 0.44661 0.34391
 C463 C 1.09322 0.43779 0.32098
 H464 H 1.10939 0.44608 0.31258
 O465 O 1.02351 0.37662 0.41070
 O466 O 1.02352 0.34772 0.38195
 C467 C 1.03188 0.35644 0.40210
 C468 C 1.05205 0.34341 0.41531
 C469 C 1.06047 0.32024 0.40710
 H470 H 1.05103 0.31122 0.39195
 O471 O 0.97693 0.62431 0.41153
 O472 O 0.97726 0.65335 0.38288
 C473 C 0.96872 0.64458 0.40292
 C474 C 0.94848 0.65766 0.41591
 C475 C 0.93987 0.68058 0.40725
 H476 H 0.94914 0.68940 0.39186
 O477 O 0.87790 0.59042 0.47576
 O478 O 0.84904 0.61924 0.47570
 C479 C 0.85784 0.59914 0.46723
 C480 C 0.84495 0.58603 0.44691
 C481 C 0.82215 0.59468 0.43795
 H482 H 0.81390 0.61098 0.44614
 O483 O 1.12260 0.41048 0.47577
 O484 O 1.15132 0.38152 0.47579
 C485 C 1.14263 0.40166 0.46730
 C486 C 1.15559 0.41468 0.44699
 C487 C 1.17824 0.40579 0.43794
 H488 H 1.18674 0.38959 0.44615
 O489 O 0.97651 0.59051 0.37767
 O490 O 0.97675 0.61943 0.34890
 C491 C 0.96808 0.59938 0.35763
 C492 C 0.94767 0.58646 0.34471
 C493 C 0.93866 0.59537 0.32206
 H494 H 0.94694 0.61153 0.31354
 O495 O 1.02374 0.41055 0.37684
 O496 O 1.02368 0.38181 0.34793
 C497 C 1.03215 0.40191 0.35672
 C498 C 1.05246 0.41501 0.34382
 C499 C 1.06087 0.40672 0.32074
 H500 H 1.05145 0.39149 0.31175
 O501 O 1.12305 0.47584 0.41080
 O502 O 1.15201 0.47582 0.38215
 C503 C 1.14324 0.46744 0.40226
 C504 C 1.15613 0.44717 0.41546
 C505 C 1.17907 0.43835 0.40707
 H506 H 1.18809 0.44704 0.39144
 O507 O 0.87769 0.52477 0.41087
 O508 O 0.84883 0.52505 0.38209
 C509 C 0.85759 0.53334 0.40224
 C510 C 0.84473 0.55368 0.41536
 C511 C 0.82173 0.56232 0.40696
 H512 H 0.81271 0.55299 0.39172
 O513 O 0.91145 0.62462 0.47603
 O514 O 0.88275 0.65360 0.47596
 C515 C 0.90285 0.64481 0.46758
 C516 C 0.91610 0.65775 0.44738
 C517 C 0.90753 0.68056 0.43823
 H518 H 0.89126 0.68897 0.44631
 O519 O 1.08875 0.37660 0.47574
 O520 O 1.11736 0.34753 0.47584
 C521 C 1.09736 0.35642 0.46730
 C522 C 1.08424 0.34352 0.44699
 C523 C 1.09276 0.32061 0.43815
 H524 H 1.10901 0.31234 0.44642
 O525 O 1.08896 0.52374 0.37667
 O526 O 1.11771 0.52377 0.34780
 C527 C 1.09759 0.53217 0.35655
 C528 C 1.08451 0.55255 0.34372
 C529 C 1.09288 0.56128 0.32074
 H530 H 1.10836 0.55242 0.31164
 O531 O 0.91151 0.47673 0.37665
 O532 O 0.88279 0.47705 0.34773
 C533 C 0.90286 0.46849 0.35645
 C534 C 0.91585 0.44821 0.34343
 C535 C 0.90753 0.43996 0.32030
 H536 H 0.89244 0.44957 0.31131
 O537 O 1.02512 0.62377 0.41149
 O538 O 1.02549 0.65285 0.38289
 C539 C 1.03378 0.64389 0.40295
 C540 C 1.05404 0.65661 0.41628
 C541 C 1.06293 0.67966 0.40815
 H542 H 1.05472 0.68828 0.39206
 O543 O 0.97533 0.37664 0.41040
 O544 O 0.97528 0.34772 0.38166
 C545 C 0.96687 0.35649 0.40173
 C546 C 0.94666 0.34352 0.41489
 C547 C 0.93806 0.32041 0.40664
 H548 H 0.94661 0.31174 0.39077
 O549 O 1.12329 0.58836 0.47654
 O550 O 1.15230 0.61707 0.47671
 C551 C 1.14342 0.59705 0.46812
 C552 C 1.15621 0.58416 0.44763
 C553 C 1.17921 0.59264 0.43906
 H554 H 1.18828 0.60773 0.44860
 O555 O 0.87698 0.41111 0.47531
 O556 O 0.84797 0.38240 0.47510
 C557 C 0.85684 0.40255 0.46678
 C558 C 0.84403 0.41579 0.44651
 C559 C 0.82093 0.40760 0.43796
 H560 H 0.81182 0.39244 0.44736
 Cu561 Cu 0.99952 0.39650 0.39653
 Cu562 Cu 0.99948 0.36189 0.36192
 Cu563 Cu 1.00082 0.60425 0.39742
 Cu564 Cu 1.00118 0.63905 0.36296
 Cu565 Cu 0.89740 0.50070 0.39658
 Cu566 Cu 0.86285 0.50106 0.36194
 Cu567 Cu 1.10315 0.49977 0.39656
 Cu568 Cu 1.13779 0.49979 0.36204
 C569 C 0.93581 0.43608 0.35473
 H570 H 0.94218 0.44224 0.37267
 C571 C 0.91840 0.41934 0.30876
 C572 C 1.06449 0.56451 0.35521
 H573 H 1.05803 0.55800 0.37300
 C574 C 1.08199 0.58213 0.30983
 C575 C 0.85543 0.43600 0.43482
 H576 H 0.87331 0.44233 0.44126
 C577 C 0.80955 0.41876 0.41741
 C578 C 1.14484 0.56410 0.43567
 H579 H 1.12704 0.55756 0.44210
 C580 C 1.19052 0.58189 0.41828
 C581 C 0.93504 0.35483 0.43514
 H582 H 0.94134 0.37281 0.44137
 C583 C 0.91794 0.30876 0.41826
 C584 C 1.06538 0.64511 0.43660
 H585 H 1.05896 0.62711 0.44265
 C586 C 1.08287 0.69127 0.42017
 C587 C 0.93630 0.56571 0.35555
 H588 H 0.94276 0.55908 0.37330
 C589 C 0.91888 0.58353 0.31022
 C590 C 1.06436 0.43516 0.35509
 H591 H 1.05808 0.44152 0.37299
 C592 C 1.08134 0.41785 0.30919
 C593 C 1.06383 0.35471 0.43549
 H594 H 1.05752 0.37264 0.44182
 C595 C 1.08096 0.30870 0.41825
 C596 C 0.93668 0.64656 0.43618
 H597 H 0.94308 0.62874 0.44277
 C598 C 0.91928 0.69213 0.41811
 C599 C 0.85602 0.56544 0.43555
 H600 H 0.87385 0.55899 0.44200
 C601 C 0.81031 0.58293 0.41800
 C602 C 1.14475 0.43545 0.43569
 H603 H 1.12699 0.44205 0.44217
 C604 C 1.19006 0.41764 0.41816
 O605 O 1.02348 0.41072 0.62342
 O606 O 1.02327 0.38183 0.65222
 C607 C 1.03179 0.40196 0.64357
 C608 C 1.05203 0.41496 0.65665
 C609 C 1.06007 0.40678 0.67993
 H610 H 1.05023 0.39186 0.68896
 O611 O 0.97576 0.58870 0.62347
 O612 O 0.97579 0.61731 0.65250
 C613 C 0.96725 0.59730 0.64356
 C614 C 0.94674 0.58424 0.65619
 C615 C 0.93792 0.59258 0.67913
 H616 H 0.94663 0.60827 0.68805
 O617 O 0.87644 0.52399 0.58809
 O618 O 0.84733 0.52406 0.61659
 C619 C 0.85627 0.53247 0.59656
 C620 C 0.84354 0.55291 0.58345
 C621 C 0.82041 0.56135 0.59162
 H622 H 0.81118 0.55155 0.60642
 O623 O 1.12284 0.47514 0.58976
 O624 O 1.15174 0.47486 0.61850
 C625 C 1.14290 0.46651 0.59840
 C626 C 1.15570 0.44619 0.58521
 C627 C 1.17845 0.43710 0.59383
 H628 H 1.18673 0.44523 0.61013
 O629 O 1.08846 0.37684 0.52400
 O630 O 1.11707 0.34777 0.52412
 C631 C 1.09700 0.35666 0.53251
 C632 C 1.08378 0.34379 0.55278
 C633 C 1.09218 0.32080 0.56156
 H634 H 1.10815 0.31219 0.55309
 O635 O 0.91166 0.62402 0.52421
 O636 O 0.88296 0.65301 0.52425
 C637 C 0.90300 0.64412 0.53274
 C638 C 0.91595 0.65678 0.55329
 C639 C 0.90731 0.67956 0.56230
 H640 H 0.89202 0.68861 0.55308
 O641 O 0.90980 0.47578 0.62253
 O642 O 0.88090 0.47586 0.65124
 C643 C 0.90107 0.46742 0.64265
 C644 C 0.91438 0.44744 0.65587
 C645 C 0.90637 0.43921 0.67916
 H646 H 0.89019 0.44758 0.68741
 O647 O 1.08922 0.52334 0.62384
 O648 O 1.11794 0.52317 0.65276
 C649 C 1.09786 0.53169 0.64400
 C650 C 1.08469 0.55192 0.65696
 C651 C 1.09306 0.56059 0.67996
 H652 H 1.10903 0.55207 0.68855
 O653 O 0.97485 0.37732 0.58956
 O654 O 0.97462 0.34838 0.61829
 C655 C 0.96617 0.35728 0.59827
 C656 C 0.94572 0.34449 0.58524
 C657 C 0.93640 0.32191 0.59415
 H658 H 0.94432 0.31393 0.61069
 O659 O 1.02433 0.62251 0.59007
 O660 O 1.02449 0.65133 0.61889
 C661 C 1.03295 0.64254 0.59883
 C662 C 1.05341 0.65532 0.58580
 C663 C 1.06244 0.67819 0.59430
 H664 H 1.05416 0.68667 0.61041
 O665 O 0.87641 0.41081 0.52341
 O666 O 0.84740 0.38211 0.52320
 C667 C 0.85616 0.40222 0.53164
 C668 C 0.84306 0.41538 0.55172
 C669 C 0.81988 0.40709 0.55997
 H670 H 0.81095 0.39184 0.55054
 O671 O 1.12360 0.58817 0.52477
 O672 O 1.15261 0.61688 0.52490
 C673 C 1.14379 0.59673 0.53321
 C674 C 1.15670 0.58357 0.55345
 C675 C 1.17974 0.59194 0.56198
 H676 H 1.18879 0.60709 0.55251
 O677 O 1.02402 0.58855 0.62382
 O678 O 1.02410 0.61721 0.65280
 C679 C 1.03246 0.59709 0.64399
 C680 C 1.05268 0.58387 0.65692
 C681 C 1.06128 0.59222 0.67993
 H682 H 1.05225 0.60773 0.68882
 O683 O 0.97538 0.41132 0.62324
 O684 O 0.97518 0.38251 0.65213
 C685 C 0.96697 0.40276 0.64341
 C686 C 0.94693 0.41614 0.65640
 C687 C 0.93914 0.40861 0.67996
 H688 H 0.94906 0.39392 0.68927
 O689 O 1.12330 0.52344 0.59027
 O690 O 1.15219 0.52329 0.61902
 C691 C 1.14343 0.53184 0.59898
 C692 C 1.15642 0.55212 0.58588
 C693 C 1.17922 0.56112 0.59452
 H694 H 1.18740 0.55299 0.61087
 O695 O 0.87603 0.47569 0.58861
 O696 O 0.84697 0.47571 0.61716
 C697 C 0.85585 0.46724 0.59717
 C698 C 0.84295 0.44700 0.58394
 C699 C 0.81993 0.43820 0.59220
 H700 H 0.81144 0.44649 0.60830
 O701 O 1.08958 0.62200 0.52502
 O702 O 1.11850 0.65080 0.52521
 C703 C 1.09832 0.64209 0.53353
 C704 C 1.08522 0.65510 0.55375
 C705 C 1.09372 0.67813 0.56225
 H706 H 1.10909 0.68699 0.55297
 O707 O 0.91041 0.37703 0.52368
 O708 O 0.88152 0.34821 0.52359
 C709 C 0.90160 0.35694 0.53214
 C710 C 0.91444 0.34411 0.55267
 C711 C 0.90580 0.32121 0.56145
 H712 H 0.89066 0.31218 0.55198
 O713 O 1.08932 0.47507 0.62378
 O714 O 1.11805 0.47480 0.65269
 C715 C 1.09795 0.46645 0.64384
 C716 C 1.08464 0.44622 0.65665
 C717 C 1.09289 0.43735 0.67962
 H718 H 1.10919 0.44545 0.68792
 O719 O 0.90985 0.52406 0.62239
 O720 O 0.88087 0.52419 0.65103
 C721 C 0.90107 0.53257 0.64241
 C722 C 0.91421 0.55276 0.65547
 C723 C 0.90556 0.56150 0.67831
 H724 H 0.88964 0.55286 0.68687
 O725 O 0.97603 0.62297 0.59004
 O726 O 0.97609 0.65172 0.61892
 C727 C 0.96761 0.64309 0.59880
 C728 C 0.94736 0.65618 0.58575
 C729 C 0.93819 0.67878 0.59475
 H730 H 0.94623 0.68679 0.61123
 O731 O 1.02322 0.37712 0.58925
 O732 O 1.02305 0.34811 0.61791
 C733 C 1.03156 0.35691 0.59786
 C734 C 1.05182 0.34391 0.58474
 C735 C 1.06050 0.32092 0.59322
 H736 H 1.05156 0.31207 0.60880
 O737 O 1.12272 0.41043 0.52401
 O738 O 1.15146 0.38149 0.52407
 C739 C 1.14280 0.40166 0.53249
 C740 C 1.15576 0.41465 0.55285
 C741 C 1.17870 0.40607 0.56152
 H742 H 1.18762 0.39074 0.55223
 O743 O 0.87742 0.59049 0.52398
 O744 O 0.84858 0.61932 0.52401
 C745 C 0.85729 0.59916 0.53241
 C746 C 0.84419 0.58584 0.55249
 C747 C 0.82136 0.59446 0.56143
 H748 H 0.81336 0.61102 0.55351
 Cu749 Cu 0.99926 0.39698 0.60346
 Cu750 Cu 0.99901 0.36226 0.63798
 Cu751 Cu 1.00003 0.60283 0.60395
 Cu752 Cu 1.00013 0.63728 0.63868
 Cu753 Cu 0.89646 0.39678 0.49948
 Cu754 Cu 0.86170 0.36225 0.49929
 Cu755 Cu 1.10277 0.39648 0.49988
 Cu756 Cu 1.13718 0.36167 0.49999
 Cu757 Cu 0.89748 0.60451 0.49999
 Cu758 Cu 0.86295 0.63919 0.49998
 Cu759 Cu 1.10369 0.60240 0.50079
 Cu760 Cu 1.13846 0.63692 0.50102
 Cu761 Cu 0.89593 0.49984 0.60254
 Cu762 Cu 0.86109 0.49998 0.63687
 Cu763 Cu 1.10329 0.49929 0.60403
 Cu764 Cu 1.13789 0.49901 0.63863
 C765 C 1.06417 0.43493 0.64537
 H766 H 1.05809 0.44126 0.62738
 C767 C 1.08065 0.41769 0.69156
 C768 C 0.93492 0.56414 0.64466
 H769 H 0.94144 0.55778 0.62685
 C770 C 0.91731 0.58136 0.69025
 C771 C 0.85509 0.56502 0.56362
 H772 H 0.87299 0.55865 0.55730
 C773 C 0.80922 0.58231 0.58099
 C774 C 1.14458 0.43492 0.56462
 H775 H 1.12679 0.44150 0.55819
 C776 C 1.19018 0.41708 0.58209
 C777 C 1.06345 0.35507 0.56436
 H778 H 1.05710 0.37297 0.55793
 C779 C 1.08068 0.30923 0.58178
 C780 C 0.93619 0.64541 0.56494
 H781 H 0.94280 0.62773 0.55823
 C782 C 0.91816 0.69067 0.58314
 C783 C 0.93471 0.43582 0.64471
 H784 H 0.94060 0.44165 0.62650
 C785 C 0.91872 0.41986 0.69152
 C786 C 1.06435 0.56355 0.64572
 H787 H 1.05803 0.55723 0.62781
 C788 C 1.08149 0.58076 0.69157
 C789 C 0.93465 0.35540 0.56446
 H790 H 0.94135 0.37310 0.55785
 C791 C 0.91651 0.30996 0.58234
 C792 C 1.06487 0.64401 0.56544
 H793 H 1.05836 0.62614 0.55909
 C794 C 1.08261 0.68979 0.58263
 C795 C 0.85427 0.43555 0.56361
 H796 H 0.87225 0.44189 0.55746
 C797 C 0.80820 0.41823 0.58032
 C798 C 1.14537 0.56342 0.56528
 H799 H 1.12752 0.55699 0.55887
 C800 C 1.19112 0.58103 0.58267
 O801 O 0.58886 1.02420 0.62346
 O802 O 0.61769 1.02422 0.65228
 C803 C 0.59756 1.03264 0.64355
 C804 C 0.58449 1.05295 0.65642
 C805 C 0.59284 1.06154 0.67942
 H806 H 0.60811 1.05222 0.68843
 O807 O 0.41039 0.97562 0.62281
 O808 O 0.38160 0.97544 0.65163
 C809 C 0.40173 0.96707 0.64289
 C810 C 0.41501 0.94690 0.65589
 C811 C 0.40660 0.93804 0.67881
 H812 H 0.39020 0.94611 0.68695
 O813 O 0.52398 1.12300 0.58882
 O814 O 0.52392 1.15198 0.61749
 C815 C 0.53239 1.14318 0.59744
 C816 C 0.55278 1.15608 0.58443
 C817 C 0.56151 1.17903 0.59295
 H818 H 0.55219 1.18801 0.60820
 O819 O 0.47575 0.87697 0.58957
 O820 O 0.47567 0.84803 0.61830
 C821 C 0.46718 0.85688 0.59828
 C822 C 0.44683 0.84397 0.58520
 C823 C 0.43751 0.82141 0.59417
 H824 H 0.44534 0.81352 0.61080
 O825 O 0.62330 1.08877 0.52396
 O826 O 0.65217 1.11762 0.52405
 C827 C 0.64342 1.09745 0.53241
 C828 C 0.65632 1.08436 0.55272
 C829 C 0.67939 1.09272 0.56121
 H830 H 0.68845 1.10784 0.55170
 O831 O 0.37753 0.91004 0.52361
 O832 O 0.34872 0.88114 0.52354
 C833 C 0.35746 0.90123 0.53209
 C834 C 0.34455 0.91418 0.55250
 C835 C 0.32200 0.90511 0.56173
 H836 H 0.31391 0.88867 0.55363
 O837 O 0.47596 1.08885 0.62278
 O838 O 0.47586 1.11770 0.65158
 C839 C 0.46751 1.09750 0.64287
 C840 C 0.44726 1.08433 0.65581
 C841 C 0.43873 1.09271 0.67881
 H842 H 0.44808 1.10800 0.68775
 O843 O 0.52445 0.91043 0.62323
 O844 O 0.52447 0.88149 0.65198
 C845 C 0.53301 0.90156 0.64322
 C846 C 0.55345 0.91447 0.65606
 C847 C 0.56271 0.90540 0.67855
 H848 H 0.55455 0.88915 0.68701
 O849 O 0.62253 0.97599 0.58949
 O850 O 0.65150 0.97591 0.61817
 C851 C 0.64265 0.96749 0.59810
 C852 C 0.65552 0.94721 0.58495
 C853 C 0.67831 0.93828 0.59357
 H854 H 0.68701 0.94684 0.60945
 O855 O 0.37646 1.02391 0.58901
 O856 O 0.34750 1.02376 0.61767
 C857 C 0.35629 1.03230 0.59764
 C858 C 0.34339 1.05266 0.58459
 C859 C 0.32047 1.06144 0.59306
 H860 H 0.31158 1.05248 0.60860
 O861 O 0.41060 1.12292 0.52400
 O862 O 0.38185 1.15186 0.52396
 C863 C 0.40197 1.14310 0.53238
 C864 C 0.41513 1.15608 0.55258
 C865 C 0.40687 1.17923 0.56100
 H866 H 0.39160 1.18822 0.55168
 O867 O 0.58879 0.87729 0.52377
 O868 O 0.61758 0.84839 0.52380
 C869 C 0.59742 0.85709 0.53213
 C870 C 0.58425 0.84397 0.55225
 C871 C 0.59248 0.82075 0.56049
 H872 H 0.60754 0.81176 0.55087
 O873 O 0.41046 1.02394 0.62269
 O874 O 0.38167 1.02386 0.65151
 C875 C 0.40176 1.03238 0.64278
 C876 C 0.41492 1.05268 0.65572
 C877 C 0.40640 1.06161 0.67856
 H878 H 0.39017 1.05337 0.68691
 O879 O 0.58914 0.97597 0.62373
 O880 O 0.61797 0.97592 0.65254
 C881 C 0.59786 0.96748 0.64381
 C882 C 0.58488 0.94704 0.65661
 C883 C 0.59349 0.93806 0.67940
 H884 H 0.60915 0.94676 0.68838
 O885 O 0.52405 0.87694 0.58917
 O886 O 0.52404 0.84789 0.61780
 C887 C 0.53250 0.85677 0.59776
 C888 C 0.55275 0.84390 0.58456
 C889 C 0.56169 0.82099 0.59299
 H890 H 0.55356 0.81269 0.60928
 O891 O 0.47569 1.12304 0.58921
 O892 O 0.47560 1.15202 0.61788
 C893 C 0.46716 1.14316 0.59785
 C894 C 0.44686 1.15604 0.58471
 C895 C 0.43809 1.17902 0.59311
 H896 H 0.44645 1.18744 0.60922
 O897 O 0.37656 1.08916 0.52407
 O898 O 0.34769 1.11797 0.52402
 C899 C 0.35644 1.09785 0.53248
 C900 C 0.34346 1.08472 0.55271
 C901 C 0.32056 1.09327 0.56147
 H902 H 0.31207 1.10933 0.55301
 O903 O 0.62278 0.91120 0.52382
 O904 O 0.65168 0.88242 0.52384
 C905 C 0.64291 0.90253 0.53227
 C906 C 0.65581 0.91561 0.55261
 C907 C 0.67876 0.90712 0.56136
 H908 H 0.68756 0.89134 0.55270
 O909 O 0.47624 0.91112 0.62316
 O910 O 0.47623 0.88231 0.65203
 C911 C 0.46789 0.90251 0.64332
 C912 C 0.44768 0.91568 0.65627
 C913 C 0.43946 0.90756 0.67948
 H914 H 0.44923 0.89267 0.68862
 O915 O 0.52418 1.08955 0.62310
 O916 O 0.52411 1.11841 0.65189
 C917 C 0.53262 1.09831 0.64318
 C918 C 0.55289 1.08524 0.65616
 C919 C 0.56173 1.09382 0.67901
 H920 H 0.55345 1.11006 0.68730
 O921 O 0.37696 0.97560 0.58857
 O922 O 0.34802 0.97536 0.61724
 C923 C 0.35688 0.96698 0.59717
 C924 C 0.34418 0.94648 0.58412
 C925 C 0.32145 0.93740 0.59278
 H926 H 0.31249 0.94653 0.60816
 O927 O 0.62288 1.02430 0.58984
 O928 O 0.65185 1.02430 0.61850
 C929 C 0.64303 1.03277 0.59846
 C930 C 0.65600 1.05300 0.58525
 C931 C 0.67884 1.06198 0.59382
 H932 H 0.68703 1.05388 0.61018
 O933 O 0.41153 0.87630 0.52349
 O934 O 0.38282 0.84729 0.52341
 C935 C 0.40287 0.85613 0.53192
 C936 C 0.41575 0.84337 0.55246
 C937 C 0.40713 0.82049 0.56128
 H938 H 0.39206 0.81138 0.55177
 O939 O 0.58964 1.12287 0.52414
 O940 O 0.61837 1.15184 0.52423
 C941 C 0.59831 1.14299 0.53267
 C942 C 0.58519 1.15587 0.55297
 C943 C 0.59391 1.17863 0.56205
 H944 H 0.61026 1.18686 0.55394
 Cu945 Cu 0.60296 1.00013 0.60376
 Cu946 Cu 0.63768 1.00009 0.63825
 Cu947 Cu 0.39645 0.99980 0.60291
 Cu948 Cu 0.36179 0.99958 0.63738
 Cu949 Cu 0.49997 1.10323 0.60310
 Cu950 Cu 0.49985 1.13794 0.63758
 Cu951 Cu 0.50011 0.89675 0.60340
 Cu952 Cu 0.50006 0.86201 0.63791
 C953 C 0.56431 1.06471 0.64512
 H954 H 0.55791 1.05830 0.62727
 C955 C 0.58170 1.08207 0.69085
 C956 C 0.43560 0.93562 0.64482
 H957 H 0.44180 0.94191 0.62686
 C958 C 0.41874 0.91841 0.69088
 C959 C 0.56454 1.14483 0.56422
 H960 H 0.55803 1.12703 0.55768
 C961 C 0.58218 1.19043 0.58202
 C962 C 0.43586 0.85476 0.56430
 H963 H 0.44253 0.87246 0.55766
 C964 C 0.41770 0.80937 0.58230
 C965 C 0.64496 1.06427 0.56463
 H966 H 0.62708 1.05784 0.55827
 C967 C 0.69077 1.08182 0.58190
 C968 C 0.35541 0.93494 0.56377
 H969 H 0.37305 0.94171 0.55712
 C970 C 0.31025 0.91659 0.58188
 C971 C 0.43544 1.06410 0.64459
 H972 H 0.44180 1.05768 0.62674
 C973 C 0.41819 1.08164 0.69030
 C974 C 0.56460 0.93535 0.64530
 H975 H 0.55794 0.94208 0.62766
 C976 C 0.58256 0.91721 0.69031
 C977 C 0.64450 0.93585 0.56435
 H978 H 0.62668 0.94234 0.55788
 C979 C 0.69005 0.91829 0.58190
 C980 C 0.35459 1.06428 0.56425
 H981 H 0.37243 1.05783 0.55784
 C982 C 0.30891 1.08176 0.58164
 C983 C 0.43533 1.14480 0.56435
 H984 H 0.44167 1.12685 0.55808
 C985 C 0.41813 1.19083 0.58135
 C986 C 0.56412 0.85519 0.56414
 H987 H 0.55775 0.87316 0.55792
 C988 C 0.58153 0.80913 0.58104
 O989 O 0.58939 0.97666 0.37622
 O990 O 0.61820 0.97671 0.34742
 C991 C 0.59808 0.96827 0.35611
 C992 C 0.58500 0.94799 0.34315
 C993 C 0.59320 0.93967 0.31999
 H994 H 0.60835 0.94916 0.31096
 O995 O 0.41099 1.02425 0.37640
 O996 O 0.38219 1.02421 0.34756
 C997 C 0.40229 1.03270 0.35630
 C998 C 0.41538 1.05303 0.34337
 C999 C 0.40687 1.06183 0.32048
 H1000 H 0.39085 1.05334 0.31197
 O1001 O 0.47548 1.12321 0.41043
 O1002 O 0.47546 1.15235 0.38189
 C1003 C 0.46694 1.14335 0.40183
 C1004 C 0.44658 1.15614 0.41495
 C1005 C 0.43768 1.17906 0.40649
 H1006 H 0.44589 1.18737 0.39025
 O1007 O 0.52423 0.87698 0.41005
 O1008 O 0.52437 0.84809 0.38130
 C1009 C 0.53268 0.85682 0.40145
 C1010 C 0.55279 0.84385 0.41482
 C1011 C 0.56163 0.82081 0.40660
 H1012 H 0.55342 0.81230 0.39045
 O1013 O 0.62268 0.91119 0.47552
 O1014 O 0.65154 0.88237 0.47555
 C1015 C 0.64276 0.90246 0.46704
 C1016 C 0.65566 0.91546 0.44668
 C1017 C 0.67844 0.90672 0.43782
 H1018 H 0.68714 0.89092 0.44656
 O1019 O 0.37669 1.08898 0.47588
 O1020 O 0.34779 1.11777 0.47579
 C1021 C 0.35656 1.09763 0.46741
 C1022 C 0.34370 1.08452 0.44710
 C1023 C 0.32075 1.09297 0.43834
 H1024 H 0.31173 1.10859 0.44706
 O1025 O 0.52421 1.08994 0.37670
 O1026 O 0.52422 1.11895 0.34803
 C1027 C 0.53272 1.09881 0.35670
 C1028 C 0.55311 1.08586 0.34378
 C1029 C 0.56175 1.09438 0.32084
 H1030 H 0.55275 1.10996 0.31201
 O1031 O 0.47666 0.91140 0.37595
 O1032 O 0.47675 0.88280 0.34690
 C1033 C 0.46842 0.90296 0.35567
 C1034 C 0.44842 0.91637 0.34262
 C1035 C 0.44070 0.90889 0.31902
 H1036 H 0.45067 0.89424 0.30972
 O1037 O 0.62335 1.02467 0.41029
 O1038 O 0.65234 1.02471 0.38166
 C1039 C 0.64356 1.03307 0.40175
 C1040 C 0.65658 1.05317 0.41503
 C1041 C 0.67964 1.06180 0.40675
 H1042 H 0.68823 1.05331 0.39080
 O1043 O 0.37732 0.97590 0.41043
 O1044 O 0.34839 0.97581 0.38172
 C1045 C 0.35720 0.96739 0.40180
 C1046 C 0.34437 0.94696 0.41486
 C1047 C 0.32148 0.93816 0.40633
 H1048 H 0.31251 0.94743 0.39102
 O1049 O 0.58934 1.12277 0.47588
 O1050 O 0.61809 1.15174 0.47593
 C1051 C 0.59800 1.14293 0.46745
 C1052 C 0.58487 1.15595 0.44725
 C1053 C 0.59364 1.17874 0.43836
 H1054 H 0.60979 1.18728 0.44661
 O1055 O 0.41150 0.87641 0.47525
 O1056 O 0.38278 0.84742 0.47516
 C1057 C 0.40283 0.85630 0.46671
 C1058 C 0.41571 0.84363 0.44613
 C1059 C 0.40701 0.82084 0.43715
 H1060 H 0.39188 0.81174 0.44658
 O1061 O 0.41097 0.97597 0.37636
 O1062 O 0.38219 0.97589 0.34750
 C1063 C 0.40235 0.96754 0.35621
 C1064 C 0.41578 0.94760 0.34307
 C1065 C 0.40787 0.93940 0.31975
 H1066 H 0.39168 0.94774 0.31145
 O1067 O 0.58946 1.02495 0.37651
 O1068 O 0.61829 1.02507 0.34772
 C1069 C 0.59819 1.03351 0.35647
 C1070 C 0.58508 1.05388 0.34363
 C1071 C 0.59346 1.06266 0.32068
 H1072 H 0.60938 1.05414 0.31205
 O1073 O 0.47594 0.87719 0.40945
 O1074 O 0.47595 0.84842 0.38059
 C1075 C 0.46735 0.85718 0.40059
 C1076 C 0.44689 0.84428 0.41349
 C1077 C 0.43747 0.82182 0.40437
 H1078 H 0.44533 0.81399 0.38773
 O1079 O 0.52374 1.12346 0.41092
 O1080 O 0.52378 1.15263 0.38240
 C1081 C 0.53214 1.14373 0.40248
 C1082 C 0.55237 1.15659 0.41576
 C1083 C 0.56111 1.17967 0.40753
 H1084 H 0.55239 1.18880 0.39197
 O1085 O 0.37758 0.91023 0.47531
 O1086 O 0.34875 0.88135 0.47521
 C1087 C 0.35751 0.90149 0.46678
 C1088 C 0.34460 0.91460 0.44645
 C1089 C 0.32189 0.90581 0.43736
 H1090 H 0.31368 0.88945 0.44551
 O1091 O 0.62356 1.08926 0.47580
 O1092 O 0.65242 1.11812 0.47587
 C1093 C 0.64368 1.09802 0.46739
 C1094 C 0.65662 1.08499 0.44710
 C1095 C 0.67966 1.09339 0.43854
 H1096 H 0.68858 1.10891 0.44756
 O1097 O 0.52478 0.91087 0.37624
 O1098 O 0.52493 0.88215 0.34732
 C1099 C 0.53334 0.90224 0.35617
 C1100 C 0.55355 0.91551 0.34330
 C1101 C 0.56223 0.90723 0.32030
 H1102 H 0.55393 0.89105 0.31188
 O1103 O 0.47597 1.08949 0.37650
 O1104 O 0.47590 1.11848 0.34781
 C1105 C 0.46754 1.09825 0.35642
 C1106 C 0.44731 1.08509 0.34342
 C1107 C 0.43859 1.09358 0.32050
 H1108 H 0.44754 1.10918 0.31166
 O1109 O 0.37719 1.02425 0.41021
 O1110 O 0.34826 1.02423 0.38150
 C1111 C 0.35708 1.03273 0.40153
 C1112 C 0.34417 1.05305 0.41460
 C1113 C 0.32149 1.06214 0.40580
 H1114 H 0.31294 1.05397 0.38964
 O1115 O 0.62302 0.97643 0.41027
 O1116 O 0.65199 0.97639 0.38162
 C1117 C 0.64313 0.96793 0.40166
 C1118 C 0.65593 0.94755 0.41479
 C1119 C 0.67880 0.93864 0.40632
 H1120 H 0.68752 0.94715 0.39043
 O1121 O 0.58877 0.87729 0.47567
 O1122 O 0.61754 0.84837 0.47575
 C1123 C 0.59740 0.85709 0.46734
 C1124 C 0.58427 0.84399 0.44721
 C1125 C 0.59256 0.82079 0.43901
 H1126 H 0.60773 0.81185 0.44854
 O1127 O 0.41054 1.12298 0.47586
 O1128 O 0.38178 1.15191 0.47581
 C1129 C 0.40191 1.14316 0.46744
 C1130 C 0.41504 1.15618 0.44723
 C1131 C 0.40678 1.17936 0.43888
 H1132 H 0.39166 1.18838 0.44838
 Cu1133 Cu 0.60341 1.00068 0.39619
 Cu1134 Cu 0.63811 1.00073 0.36171
 Cu1135 Cu 0.39700 1.00008 0.39623
 Cu1136 Cu 0.36233 1.00001 0.36170
 Cu1137 Cu 0.60357 1.10303 0.49993
 Cu1138 Cu 0.63814 1.13775 0.50004
 Cu1139 Cu 0.60290 0.89717 0.49971
 Cu1140 Cu 0.63750 0.86252 0.49975
 Cu1141 Cu 0.39647 1.10311 0.49995
 Cu1142 Cu 0.36188 1.13777 0.49988
 Cu1143 Cu 0.39740 0.89614 0.49942
 Cu1144 Cu 0.36288 0.86140 0.49932
 Cu1145 Cu 0.49986 1.10362 0.39649
 Cu1146 Cu 0.49985 1.13853 0.36216
 Cu1147 Cu 0.50040 0.89696 0.39583
 Cu1148 Cu 0.50050 0.86244 0.36114
 C1149 C 0.56497 0.93598 0.35449
 H1150 H 0.55868 0.94217 0.37244
 C1151 C 0.58202 0.91922 0.30842
 C1152 C 0.43575 1.06464 0.35456
 H1153 H 0.44216 1.05820 0.37239
 C1154 C 0.41834 1.08210 0.30889
 C1155 C 0.43517 1.14490 0.43538
 H1156 H 0.44156 1.12696 0.44165
 C1157 C 0.41783 1.19094 0.41838
 C1158 C 0.56417 0.85519 0.43522
 H1159 H 0.55785 0.87320 0.44134
 C1160 C 0.58153 0.80909 0.41859
 C1161 C 0.64465 0.93600 0.43515
 H1162 H 0.62688 0.94258 0.44161
 C1163 C 0.69013 0.91820 0.41768
 C1164 C 0.35507 1.06430 0.43533
 H1165 H 0.37284 1.05778 0.44188
 C1166 C 0.30972 1.08191 0.41768
 C1167 C 0.56476 1.06546 0.35490
 H1168 H 0.55841 1.05901 0.37274
 C1169 C 0.58191 1.08290 0.30914
 C1170 C 0.43611 0.93600 0.35430
 H1171 H 0.44193 0.94181 0.37254
 C1172 C 0.42029 0.92012 0.30741
 C1173 C 0.64536 1.06473 0.43537
 H1174 H 0.62743 1.05839 0.44164
 C1175 C 0.69131 1.08191 0.41837
 C1176 C 0.35561 0.93526 0.43513
 H1177 H 0.37338 0.94182 0.44168
 C1178 C 0.31011 0.91747 0.41732
 C1179 C 0.56415 1.14508 0.43589
 H1180 H 0.55764 1.12721 0.44226
 C1181 C 0.58175 1.19067 0.41868
 C1182 C 0.43589 0.85499 0.43440
 H1183 H 0.44263 0.87262 0.44117
 C1184 C 0.41757 0.80981 0.41610
 O1185 O 0.47559 0.41164 0.87643
 O1186 O 0.47560 0.38298 0.84745
 C1187 C 0.46710 0.40302 0.85632
 C1188 C 0.44675 0.41620 0.84352
 C1189 C 0.43781 0.40781 0.82063
 H1190 H 0.44607 0.39165 0.81217
 O1191 O 0.52467 0.58960 0.87744
 O1192 O 0.52493 0.61868 0.84883
 C1193 C 0.53326 0.59845 0.85746
 C1194 C 0.55358 0.58543 0.84453
 C1195 C 0.56191 0.59372 0.82140
 H1196 H 0.55226 0.60876 0.81238
 O1197 O 0.37684 0.47710 0.91075
 O1198 O 0.34789 0.47730 0.88205
 C1199 C 0.35664 0.46878 0.90212
 C1200 C 0.34366 0.44846 0.91514
 C1201 C 0.32037 0.44033 0.90705
 H1202 H 0.31123 0.45020 0.89224
 O1203 O 0.62401 0.52409 0.91110
 O1204 O 0.65302 0.52421 0.88250
 C1205 C 0.64423 0.53251 0.90261
 C1206 C 0.65720 0.55258 0.91605
 C1207 C 0.68011 0.56162 0.90773
 H1208 H 0.68855 0.55356 0.89149
 O1209 O 0.41084 0.37697 0.97517
 O1210 O 0.38192 0.34817 0.97490
 C1211 C 0.40212 0.35689 0.96662
 C1212 C 0.41520 0.34404 0.94629
 C1213 C 0.40661 0.32120 0.93736
 H1214 H 0.39121 0.31222 0.94648
 O1215 O 0.58970 0.62189 0.97664
 O1216 O 0.61848 0.65083 0.97692
 C1217 C 0.59843 0.64208 0.96832
 C1218 C 0.58531 0.65526 0.94821
 C1219 C 0.59382 0.67832 0.93976
 H1220 H 0.60984 0.68688 0.94824
 O1221 O 0.41076 0.52528 0.87688
 O1222 O 0.38204 0.52547 0.84796
 C1223 C 0.40220 0.53375 0.85673
 C1224 C 0.41574 0.55367 0.84366
 C1225 C 0.40806 0.56184 0.82025
 H1226 H 0.39194 0.55349 0.81183
 O1227 O 0.58975 0.47648 0.87683
 O1228 O 0.61856 0.47643 0.84803
 C1229 C 0.59837 0.46809 0.85669
 C1230 C 0.58500 0.44803 0.84361
 C1231 C 0.59334 0.43935 0.82062
 H1232 H 0.60956 0.44763 0.81228
 O1233 O 0.52398 0.37788 0.91017
 O1234 O 0.52418 0.34906 0.88136
 C1235 C 0.53257 0.35782 0.90148
 C1236 C 0.55285 0.34491 0.91468
 C1237 C 0.56183 0.32204 0.90615
 H1238 H 0.55369 0.31369 0.88989
 O1239 O 0.47591 0.62311 0.91092
 O1240 O 0.47607 0.65224 0.88238
 C1241 C 0.46747 0.64329 0.90231
 C1242 C 0.44722 0.65623 0.91548
 C1243 C 0.43834 0.67916 0.90698
 H1244 H 0.44639 0.68730 0.89058
 O1245 O 0.37705 0.59008 0.97622
 O1246 O 0.34830 0.61901 0.97630
 C1247 C 0.35700 0.59893 0.96775
 C1248 C 0.34407 0.58602 0.94736
 C1249 C 0.32117 0.59463 0.93861
 H1250 H 0.31264 0.61060 0.94717
 O1251 O 0.62316 0.41110 0.97647
 O1252 O 0.65194 0.38219 0.97638
 C1253 C 0.64329 0.40240 0.96805
 C1254 C 0.65632 0.41548 0.94781
 C1255 C 0.67938 0.40705 0.93938
 H1256 H 0.68834 0.39188 0.94889
 O1257 O 0.47654 0.58939 0.87692
 O1258 O 0.47677 0.61836 0.84820
 C1259 C 0.46838 0.59810 0.85672
 C1260 C 0.44842 0.58485 0.84347
 C1261 C 0.44094 0.59236 0.81979
 H1262 H 0.45101 0.60701 0.81058
 O1263 O 0.52383 0.41188 0.87638
 O1264 O 0.52390 0.38321 0.84740
 C1265 C 0.53227 0.40334 0.85622
 C1266 C 0.55253 0.41655 0.84334
 C1267 C 0.56089 0.40839 0.82019
 H1268 H 0.55142 0.39324 0.81112
 O1269 O 0.62342 0.47586 0.91080
 O1270 O 0.65242 0.47581 0.88219
 C1271 C 0.64350 0.46729 0.90217
 C1272 C 0.65627 0.44691 0.91533
 C1273 C 0.67908 0.43786 0.90683
 H1274 H 0.68734 0.44596 0.89051
 O1275 O 0.37700 0.52538 0.91077
 O1276 O 0.34813 0.52562 0.88200
 C1277 C 0.35692 0.53395 0.90211
 C1278 C 0.34407 0.55424 0.91526
 C1279 C 0.32114 0.56304 0.90682
 H1280 H 0.31226 0.55415 0.89124
 O1281 O 0.41143 0.62346 0.97671
 O1282 O 0.38282 0.65253 0.97677
 C1283 C 0.40291 0.64371 0.96837
 C1284 C 0.41605 0.65664 0.94812
 C1285 C 0.40792 0.67986 0.93981
 H1286 H 0.39304 0.68903 0.94954
 O1287 O 0.58876 0.37765 0.97608
 O1288 O 0.61744 0.34865 0.97594
 C1289 C 0.59737 0.35754 0.96753
 C1290 C 0.58431 0.34474 0.94713
 C1291 C 0.59273 0.32172 0.93859
 H1292 H 0.60793 0.31271 0.94799
 O1293 O 0.59020 0.52479 0.87732
 O1294 O 0.61901 0.52488 0.84853
 C1295 C 0.59899 0.53343 0.85735
 C1296 C 0.58597 0.55391 0.84460
 C1297 C 0.59447 0.56291 0.82178
 H1298 H 0.61077 0.55474 0.81355
 O1299 O 0.41069 0.47704 0.87689
 O1300 O 0.38189 0.47719 0.84805
 C1301 C 0.40199 0.46869 0.85675
 C1302 C 0.41506 0.44845 0.84371
 C1303 C 0.40664 0.44005 0.82065
 H1304 H 0.39134 0.44942 0.81179
 O1305 O 0.52416 0.62311 0.91166
 O1306 O 0.52440 0.65236 0.88324
 C1307 C 0.53263 0.64339 0.90333
 C1308 C 0.55278 0.65618 0.91678
 C1309 C 0.56123 0.67951 0.90900
 H1310 H 0.55236 0.68882 0.89364
 O1311 O 0.47568 0.37752 0.90998
 O1312 O 0.47579 0.34872 0.88114
 C1313 C 0.46726 0.35740 0.90120
 C1314 C 0.44691 0.34439 0.91415
 C1315 C 0.43780 0.32172 0.90523
 H1316 H 0.44598 0.31360 0.88889
 O1317 O 0.62372 0.58812 0.97699
 O1318 O 0.65259 0.61696 0.97735
 C1319 C 0.64394 0.59685 0.96880
 C1320 C 0.65708 0.58389 0.94859
 C1321 C 0.68013 0.59244 0.94026
 H1322 H 0.68900 0.60771 0.94972
 O1323 O 0.37698 0.41084 0.97491
 O1324 O 0.34793 0.38218 0.97468
 C1325 C 0.35685 0.40227 0.96633
 C1326 C 0.34395 0.41564 0.94619
 C1327 C 0.32096 0.40732 0.93737
 H1328 H 0.31274 0.39092 0.94540
 Cu1329 Cu 0.49977 0.39759 0.89613
 Cu1330 Cu 0.49991 0.36310 0.86144
 Cu1331 Cu 0.50029 0.60341 0.89710
 Cu1332 Cu 0.50057 0.63836 0.86281
 Cu1333 Cu 0.39670 0.50119 0.89671
 Cu1334 Cu 0.36207 0.50140 0.86213
 Cu1335 Cu 0.60395 0.50030 0.89687
 Cu1336 Cu 0.63866 0.50032 0.86241
 C1337 C 0.43532 0.43661 0.85482
 H1338 H 0.44177 0.44288 0.87270
 C1339 C 0.41775 0.41962 0.80899
 C1340 C 0.56549 0.56528 0.85578
 H1341 H 0.55918 0.55884 0.87365
 C1342 C 0.58251 0.58276 0.80988
 C1343 C 0.35510 0.43625 0.93498
 H1344 H 0.37311 0.44240 0.94126
 C1345 C 0.30887 0.41960 0.91786
 C1346 C 0.64595 0.56375 0.93658
 H1347 H 0.62805 0.55724 0.94278
 C1348 C 0.69176 0.58158 0.91972
 C1349 C 0.43557 0.35530 0.93477
 H1350 H 0.44215 0.37303 0.94142
 C1351 C 0.41766 0.30991 0.91672
 C1352 C 0.56471 0.64439 0.93666
 H1353 H 0.55839 0.62634 0.94268
 C1354 C 0.58177 0.69055 0.92034
 C1355 C 0.43597 0.56523 0.85504
 H1356 H 0.44162 0.55941 0.87334
 C1357 C 0.42065 0.58109 0.80799
 C1358 C 0.56449 0.43659 0.85473
 H1359 H 0.55827 0.44283 0.87269
 C1360 C 0.58139 0.41954 0.80871
 C1361 C 0.56416 0.35604 0.93525
 H1362 H 0.55771 0.37391 0.94163
 C1363 C 0.58179 0.31027 0.91799
 C1364 C 0.43596 0.64516 0.93608
 H1365 H 0.44228 0.62720 0.94235
 C1366 C 0.41872 0.69125 0.91907
 C1367 C 0.35525 0.56569 0.93568
 H1368 H 0.37308 0.55920 0.94209
 C1369 C 0.30956 0.58327 0.91833
 C1370 C 0.64510 0.43565 0.93589
 H1371 H 0.62725 0.44214 0.94221
 C1372 C 0.69089 0.41796 0.91876
 O1373 O 0.52364 0.40918 1.12313
 O1374 O 0.52345 0.38010 1.15173
 C1375 C 0.53200 0.40026 1.14317
 C1376 C 0.55221 0.41326 1.15632
 C1377 C 0.56108 0.40436 1.17903
 H1378 H 0.55286 0.38811 1.18743
 O1379 O 0.47614 0.58823 1.12403
 O1380 O 0.47619 0.61689 1.15302
 C1381 C 0.46789 0.59668 1.14429
 C1382 C 0.44792 0.58322 1.15734
 C1383 C 0.44007 0.59078 1.18085
 H1384 H 0.44992 0.60556 1.19010
 O1385 O 0.37716 0.52407 1.08952
 O1386 O 0.34817 0.52396 1.11814
 C1387 C 0.35707 0.53258 1.09820
 C1388 C 0.34427 0.55304 1.08523
 C1389 C 0.32159 0.56210 1.09401
 H1390 H 0.31296 0.55381 1.11007
 O1391 O 0.62226 0.47486 1.09092
 O1392 O 0.65108 0.47462 1.11973
 C1393 C 0.64232 0.46628 1.09961
 C1394 C 0.65525 0.44605 1.08640
 C1395 C 0.67799 0.43695 1.09507
 H1396 H 0.68615 0.44497 1.11147
 O1397 O 0.58903 0.37674 1.02428
 O1398 O 0.61773 0.34776 1.02411
 C1399 C 0.59762 0.35646 1.03254
 C1400 C 0.58442 0.34326 1.05258
 C1401 C 0.59303 0.32030 1.06126
 H1402 H 0.60912 0.31189 1.05283
 O1403 O 0.41092 0.62333 1.02490
 O1404 O 0.38226 0.65235 1.02499
 C1405 C 0.40227 0.64343 1.03346
 C1406 C 0.41518 0.65609 1.05404
 C1407 C 0.40657 0.67892 1.06296
 H1408 H 0.39145 0.68802 1.05352
 O1409 O 0.41052 0.47513 1.12296
 O1410 O 0.38159 0.47492 1.15164
 C1411 C 0.40166 0.46643 1.14288
 C1412 C 0.41455 0.44589 1.15563
 C1413 C 0.40571 0.43677 1.17826
 H1414 H 0.38966 0.44510 1.18690
 O1415 O 0.58857 0.52311 1.12482
 O1416 O 0.61723 0.52293 1.15381
 C1417 C 0.59721 0.53148 1.14497
 C1418 C 0.58420 0.55187 1.15777
 C1419 C 0.59253 0.56053 1.18078
 H1420 H 0.60815 0.55173 1.18972
 O1421 O 0.47525 0.37595 1.08887
 O1422 O 0.47500 0.34673 1.11732
 C1423 C 0.46666 0.35576 1.09731
 C1424 C 0.44635 0.34305 1.08401
 C1425 C 0.43752 0.31999 1.09218
 H1426 H 0.44596 0.31119 1.10806
 O1427 O 0.52384 0.62251 1.08995
 O1428 O 0.52396 0.65146 1.11864
 C1429 C 0.53234 0.64266 1.09854
 C1430 C 0.55259 0.65554 1.08529
 C1431 C 0.56141 0.67858 1.09355
 H1432 H 0.55306 0.68715 1.10958
 O1433 O 0.37687 0.41105 1.02311
 O1434 O 0.34780 0.38241 1.02290
 C1435 C 0.35662 0.40250 1.03138
 C1436 C 0.34363 0.41568 1.05156
 C1437 C 0.32039 0.40751 1.05981
 H1438 H 0.31134 0.39234 1.05036
 O1439 O 0.62312 0.58798 1.02519
 O1440 O 0.65201 0.61680 1.02553
 C1441 C 0.64318 0.59664 1.03383
 C1442 C 0.65591 0.58351 1.05422
 C1443 C 0.67887 0.59188 1.06304
 H1444 H 0.68797 0.60749 1.05434
 O1445 O 0.52423 0.58892 1.12406
 O1446 O 0.52432 0.61773 1.15290
 C1447 C 0.53272 0.59762 1.14415
 C1448 C 0.55287 0.58445 1.15715
 C1449 C 0.56161 0.59301 1.18002
 H1450 H 0.55304 0.60894 1.18864
 O1451 O 0.47546 0.40963 1.12291
 O1452 O 0.47518 0.38058 1.15155
 C1453 C 0.46693 0.40086 1.14294
 C1454 C 0.44672 0.41404 1.15587
 C1455 C 0.43790 0.40553 1.17876
 H1456 H 0.44649 0.38976 1.18768
 O1457 O 0.62222 0.52318 1.09092
 O1458 O 0.65104 0.52305 1.11975
 C1459 C 0.64231 0.53162 1.09969
 C1460 C 0.65529 0.55196 1.08668
 C1461 C 0.67798 0.56097 1.09553
 H1462 H 0.68649 0.55273 1.11169
 O1463 O 0.37693 0.47575 1.08892
 O1464 O 0.34786 0.47558 1.11746
 C1465 C 0.35672 0.46729 1.09736
 C1466 C 0.34374 0.44721 1.08393
 C1467 C 0.32066 0.43854 1.09212
 H1468 H 0.31223 0.44684 1.10825
 O1469 O 0.58919 0.62192 1.02482
 O1470 O 0.61796 0.65086 1.02507
 C1471 C 0.59774 0.64213 1.03326
 C1472 C 0.58442 0.65526 1.05325
 C1473 C 0.59269 0.67846 1.06151
 H1474 H 0.60800 0.68736 1.05217
 O1475 O 0.41037 0.37677 1.02336
 O1476 O 0.38145 0.34798 1.02314
 C1477 C 0.40154 0.35663 1.03171
 C1478 C 0.41448 0.34352 1.05198
 C1479 C 0.40591 0.32046 1.06042
 H1480 H 0.39035 0.31171 1.05133
 O1481 O 0.58818 0.47488 1.12448
 O1482 O 0.61684 0.47463 1.15346
 C1483 C 0.59673 0.46631 1.14458
 C1484 C 0.58355 0.44592 1.15724
 C1485 C 0.59178 0.43709 1.18022
 H1486 H 0.60727 0.44587 1.18942
 O1487 O 0.41079 0.52347 1.12355
 O1488 O 0.38195 0.52331 1.15232
 C1489 C 0.40213 0.53175 1.14371
 C1490 C 0.41547 0.55174 1.15693
 C1491 C 0.40742 0.56001 1.18017
 H1492 H 0.39124 0.55162 1.18843
 O1493 O 0.47549 0.62258 1.09065
 O1494 O 0.47552 0.65140 1.11947
 C1495 C 0.46693 0.64261 1.09948
 C1496 C 0.44646 0.65550 1.08658
 C1497 C 0.43715 0.67801 1.09565
 H1498 H 0.44509 0.68589 1.11223
 O1499 O 0.52352 0.37581 1.08890
 O1500 O 0.52335 0.34659 1.11736
 C1501 C 0.53191 0.35558 1.09741
 C1502 C 0.55231 0.34283 1.08434
 C1503 C 0.56121 0.31991 1.09278
 H1504 H 0.55233 0.31092 1.10831
 O1505 O 0.62274 0.41087 1.02472
 O1506 O 0.65153 0.38198 1.02460
 C1507 C 0.64279 0.40204 1.03319
 C1508 C 0.65560 0.41483 1.05375
 C1509 C 0.67853 0.40626 1.06242
 H1510 H 0.68756 0.39109 1.05299
 O1511 O 0.37708 0.58937 1.02439
 O1512 O 0.34828 0.61826 1.02451
 C1513 C 0.35694 0.59802 1.03280
 C1514 C 0.34397 0.58479 1.05296
 C1515 C 0.32102 0.59323 1.06171
 H1516 H 0.31206 0.60896 1.05308
 Cu1517 Cu 0.49948 0.39555 1.10309
 Cu1518 Cu 0.49920 0.36055 1.13734
 Cu1519 Cu 0.49992 0.60272 1.10425
 Cu1520 Cu 0.49999 0.63731 1.13887
 Cu1521 Cu 0.39667 0.39677 0.99916
 Cu1522 Cu 0.36187 0.36229 0.99890
 Cu1523 Cu 0.60307 0.39700 1.00042
 Cu1524 Cu 0.63755 0.36225 1.00023
 Cu1525 Cu 0.39699 0.60366 1.00055
 Cu1526 Cu 0.36255 0.63846 1.00065
 Cu1527 Cu 0.60356 0.60207 1.00088
 Cu1528 Cu 0.63815 0.63676 1.00127
 Cu1529 Cu 0.39676 0.49964 1.10338
 Cu1530 Cu 0.36198 0.49942 1.13776
 Cu1531 Cu 0.60243 0.49902 1.10489
 Cu1532 Cu 0.63696 0.49877 1.13958
 C1533 C 0.56350 0.43412 1.14564
 H1534 H 0.55715 0.44074 1.12785
 C1535 C 0.58068 0.41632 1.19105
 C1536 C 0.43577 0.56342 1.14573
 H1537 H 0.44169 0.55756 1.12754
 C1538 C 0.41967 0.57947 1.19244
 C1539 C 0.35525 0.56444 1.06462
 H1540 H 0.37302 0.55792 1.05809
 C1541 C 0.30990 0.58201 1.08223
 C1542 C 0.64429 0.43494 1.06566
 H1543 H 0.62651 0.44152 1.05919
 C1544 C 0.68987 0.41710 1.08317
 C1545 C 0.56390 0.35423 1.06408
 H1546 H 0.55739 0.37209 1.05772
 C1547 C 0.58158 0.30852 1.08138
 C1548 C 0.43537 0.64472 1.06574
 H1549 H 0.44204 0.62707 1.05901
 C1550 C 0.41724 0.69001 1.08393
 C1551 C 0.43514 0.43447 1.14465
 H1552 H 0.44172 0.44104 1.12693
 C1553 C 0.41740 0.41678 1.18989
 C1554 C 0.56418 0.56377 1.14627
 H1555 H 0.55782 0.55735 1.12841
 C1556 C 0.58137 0.58115 1.19195
 C1557 C 0.43485 0.35454 1.06376
 H1558 H 0.44133 0.37247 1.05757
 C1559 C 0.41730 0.30856 1.08051
 C1560 C 0.56415 0.64412 1.06504
 H1561 H 0.55783 0.62611 1.05890
 C1562 C 0.58147 0.69023 1.08177
 C1563 C 0.35499 0.43575 1.06354
 H1564 H 0.37301 0.44199 1.05743
 C1565 C 0.30877 0.41873 1.08016
 C1566 C 0.64445 0.56329 1.06594
 H1567 H 0.62668 0.55682 1.05934
 C1568 C 0.68984 0.58074 1.08369
 C1569 C 1.12068 1.12136 1.28230
 C1570 C 1.13053 1.10581 1.30071
 C1571 C 1.14018 1.11572 1.32252
 C1572 C 1.14075 1.14145 1.32629
 C1573 C 1.13093 1.15700 1.30795
 C1574 C 1.12076 1.14710 1.28641
 C1575 C 1.11066 1.11089 1.25884
 C1576 C 1.11265 1.12419 1.23653
 C1577 C 1.10303 1.11459 1.21460
 C1578 C 1.09174 1.09125 1.21435
 C1579 C 1.08999 1.07766 1.23632
 C1580 C 1.09911 1.08749 1.25841
 H1581 H 1.14749 1.10328 1.33641
 H1582 H 1.13126 1.17691 1.31024
 H1583 H 1.10469 1.12521 1.19771
 H1584 H 1.08118 1.05965 1.23641
 H1585 H 1.11287 1.15971 1.27302
 H1586 H 1.12193 1.14193 1.23586
 H1587 H 1.13124 1.08596 1.29816
 H1588 H 1.09676 1.07685 1.27519
 C1589 C 1.11932 0.61895 0.78423
 C1590 C 1.13992 0.60797 0.79559
 C1591 C 1.14972 0.61782 0.81736
 C1592 C 1.13924 0.63903 0.82835
 C1593 C 1.11819 0.64958 0.81715
 C1594 C 1.10845 0.63973 0.79537
 C1595 C 1.10943 0.60905 0.76062
 C1596 C 1.10189 0.62527 0.74177
 C1597 C 1.09281 0.61607 0.71944
 C1598 C 1.09101 0.59043 0.71543
 C1599 C 1.09854 0.57418 0.73427
 C1600 C 1.10766 0.58339 0.75663
 H1601 H 1.16567 0.60883 0.82541
 H1602 H 1.10917 0.66557 0.82508
 H1603 H 1.08761 0.62907 0.70512
 H1604 H 1.09709 0.55434 0.73183
 H1605 H 1.09225 0.64832 0.78731
 H1606 H 1.10345 0.64511 0.74412
 H1607 H 1.14881 0.59202 0.78737
 H1608 H 1.11303 0.57043 0.77092
 C1609 C 0.62005 1.12094 0.78293
 C1610 C 0.63797 1.10795 0.79646
 C1611 C 0.64789 1.11801 0.81806
 C1612 C 0.64044 1.14154 0.82647
 C1613 C 0.62226 1.15437 0.81287
 C1614 C 0.61210 1.14412 0.79147
 C1615 C 0.61011 1.11061 0.75964
 C1616 C 0.58459 1.11073 0.75491
 C1617 C 0.57532 1.10123 0.73275
 C1618 C 0.59142 1.09170 0.71471
 C1619 C 0.61700 1.09171 0.71951
 C1620 C 0.62621 1.10090 0.74178
 H1621 H 0.66151 1.10732 0.82809
 H1622 H 0.61605 1.17255 0.81849
 H1623 H 0.55551 1.10114 0.72986
 H1624 H 0.63000 1.08504 0.70586
 H1625 H 0.59846 1.15460 0.78121
 H1626 H 0.57179 1.11791 0.76851
 H1627 H 0.64418 1.08989 0.79039
 H1628 H 0.64600 1.10094 0.74485
 C1629 C 0.61926 0.61970 1.28435
 C1630 C 0.63667 0.60627 1.29819
 C1631 C 0.64648 0.61603 1.31999
 C1632 C 0.63940 0.63965 1.32841
 C1633 C 0.62168 0.65290 1.31466
 C1634 C 0.61169 0.64301 1.29303
 C1635 C 0.60935 0.60970 1.26073
 C1636 C 0.60468 0.62560 1.24068
 C1637 C 0.59545 0.61632 1.21846
 C1638 C 0.59093 0.59089 1.21566
 C1639 C 0.59573 0.57490 1.23553
 C1640 C 0.60472 0.58422 1.25789
 H1641 H 0.65982 0.60507 1.33012
 H1642 H 0.61564 0.67110 1.32037
 H1643 H 0.59225 0.62897 1.20327
 H1644 H 0.59217 0.55524 1.23387
 H1645 H 0.59794 0.65367 1.28312
 H1646 H 0.60854 0.64522 1.24199
 H1647 H 0.64314 0.58838 1.29194
 H1648 H 0.60773 0.57149 1.27304
 C1649 C 0.87731 0.87732 1.28002
 C1650 C 0.85646 0.86179 1.27953
 C1651 C 0.84661 0.85242 1.30149
 C1652 C 0.85770 0.85814 1.32416
 C1653 C 0.87857 0.87347 1.32476
 C1654 C 0.88822 0.88318 1.30285
 C1655 C 0.88766 0.88733 1.25675
 C1656 C 0.89331 0.91263 1.25457
 C1657 C 0.90273 0.92210 1.23245
 C1658 C 0.90706 0.90636 1.21228
 C1659 C 0.90165 0.88103 1.21455
 C1660 C 0.89186 0.87164 1.23652
 H1661 H 0.83040 0.84067 1.30090
 H1662 H 0.88722 0.87797 1.34223
 H1663 H 0.90685 0.94168 1.23114
 H1664 H 0.90466 0.86857 1.19917
 H1665 H 0.90440 0.89497 1.30367
 H1666 H 0.89008 0.92511 1.26988
 H1667 H 0.84760 0.85719 1.26218
 H1668 H 0.88779 0.85204 1.23781
 C1669 C 0.88138 0.38406 0.78515
 C1670 C 0.85591 0.38589 0.78952
 C1671 C 0.84548 0.37492 0.81042
 C1672 C 0.86039 0.36223 0.82760
 C1673 C 0.88611 0.36157 0.82371
 C1674 C 0.89645 0.37200 0.80245
 C1675 C 0.89190 0.39355 0.76189
 C1676 C 0.88984 0.41865 0.75568
 C1677 C 0.89901 0.42732 0.73313
 C1678 C 0.90985 0.41091 0.71605
 C1679 C 0.91175 0.38570 0.72248
 C1680 C 0.90313 0.37719 0.74527
 H1681 H 0.82563 0.37582 0.81282
 H1682 H 0.89816 0.35256 0.83690
 H1683 H 0.89765 0.44691 0.72916
 H1684 H 0.91935 0.37232 0.70971
 H1685 H 0.91620 0.37060 0.79942
 H1686 H 0.88125 0.43153 0.76837
 H1687 H 0.84400 0.39506 0.77628
 H1688 H 0.90456 0.35768 0.74965
 C1689 C 0.38099 0.87994 0.78400
 C1690 C 0.37136 0.85572 0.78517
 C1691 C 0.36215 0.84623 0.80732
 C1692 C 0.36180 0.86091 0.82861
 C1693 C 0.37100 0.88511 0.82763
 C1694 C 0.38080 0.89446 0.80563
 C1695 C 0.39101 0.88996 0.76034
 C1696 C 0.38906 0.91530 0.75458
 C1697 C 0.39835 0.92458 0.73233
 C1698 C 0.40939 0.90871 0.71495
 C1699 C 0.41120 0.88337 0.72065
 C1700 C 0.40245 0.87420 0.74312
 H1701 H 0.35475 0.82760 0.80779
 H1702 H 0.37086 0.89657 0.84402
 H1703 H 0.39693 0.94426 0.72885
 H1704 H 0.41910 0.87040 0.70765
 H1705 H 0.38846 0.91297 0.80571
 H1706 H 0.38005 0.92804 0.76709
 H1707 H 0.37051 0.84414 0.76890
 H1708 H 0.40480 0.85468 0.74696
 C1709 C 0.37753 0.37829 1.28127
 C1710 C 0.35179 0.37707 1.28494
 C1711 C 0.34202 0.36708 1.30663
 C1712 C 0.35770 0.35854 1.32548
 C1713 C 0.38340 0.36016 1.32209
 C1714 C 0.39321 0.36969 1.30018
 C1715 C 0.38792 0.38821 1.25775
 C1716 C 0.41051 0.40123 1.25752
 C1717 C 0.42028 0.41028 1.23538
 C1718 C 0.40743 0.40692 1.21318
 C1719 C 0.38490 0.39417 1.21322
 C1720 C 0.37534 0.38467 1.23524
 H1721 H 0.32214 0.36587 1.30865
 H1722 H 0.39591 0.35382 1.33637
 H1723 H 0.43767 0.42024 1.23559
 H1724 H 0.37487 0.39130 1.19614
 H1725 H 0.41309 0.36990 1.29796
 H1726 H 0.42052 0.40475 1.27446
 H1727 H 0.33909 0.38394 1.27110
 H1728 H 0.35825 0.37428 1.23449
 C1729 C 0.88286 1.11626 0.71401
 C1730 C 0.89760 1.12850 0.69655
 C1731 C 0.88689 1.13886 0.67544
 C1732 C 0.86112 1.13794 0.67186
 C1733 C 0.84655 1.12509 0.68921
 C1734 C 0.85736 1.11419 0.70996
 C1735 C 0.89376 1.10675 0.73709
 C1736 C 0.90504 1.12312 0.75369
 C1737 C 0.91380 1.11461 0.77642
 C1738 C 0.91199 1.08938 0.78281
 C1739 C 0.90119 1.07294 0.76571
 C1740 C 0.89188 1.08162 0.74322
 H1741 H 0.89868 1.14800 0.66210
 H1742 H 0.82668 1.12400 0.68706
 H1743 H 0.92140 1.12799 0.78921
 H1744 H 0.89992 1.05334 0.76964
 H1745 H 0.84570 1.10488 0.72332
 H1746 H 0.90634 1.14266 0.74936
 H1747 H 0.91737 1.13008 0.69933
 H1748 H 0.88326 1.06872 0.73055
 C1749 C 0.87940 0.62264 0.21884
 C1750 C 0.86989 0.60671 0.20059
 C1751 C 0.85990 0.61621 0.17875
 C1752 C 0.85866 0.64189 0.17480
 C1753 C 0.86810 0.65783 0.19301
 C1754 C 0.87860 0.64834 0.21459
 C1755 C 0.88980 0.61257 0.24232
 C1756 C 0.88746 0.62587 0.26458
 C1757 C 0.89726 0.61653 0.28656
 C1758 C 0.90909 0.59349 0.28687
 C1759 C 0.91130 0.57996 0.26494
 C1760 C 0.90200 0.58952 0.24280
 H1761 H 0.85289 0.60350 0.16497
 H1762 H 0.86723 0.67770 0.19059
 H1763 H 0.89523 0.62708 0.30344
 H1764 H 0.92052 0.56216 0.26492
 H1765 H 0.88618 0.66124 0.22787
 H1766 H 0.87771 0.64334 0.26519
 H1767 H 0.86973 0.58686 0.20327
 H1768 H 0.90465 0.57893 0.22606
 C1769 C 0.37835 1.12028 0.21705
 C1770 C 0.38392 1.10915 0.19421
 C1771 C 0.37411 1.11867 0.17228
 C1772 C 0.35866 1.13944 0.17283
 C1773 C 0.35287 1.15051 0.19548
 C1774 C 0.36261 1.14102 0.21742
 C1775 C 0.38898 1.11043 0.24038
 C1776 C 0.39709 1.12665 0.25899
 C1777 C 0.40675 1.11746 0.28110
 C1778 C 0.40859 1.09182 0.28512
 C1779 C 0.40066 1.07558 0.26644
 C1780 C 0.39097 1.08478 0.24432
 H1781 H 0.37874 1.11008 0.15483
 H1782 H 0.34086 1.16653 0.19604
 H1783 H 0.41241 1.13047 0.29522
 H1784 H 0.40205 1.05574 0.26889
 H1785 H 0.35764 1.14977 0.23469
 H1786 H 0.39610 1.14651 0.25642
 H1787 H 0.39620 1.09336 0.19327
 H1788 H 0.38467 1.07179 0.23045
 C1789 C 0.38322 0.61635 0.71426
 C1790 C 0.35770 0.61435 0.71025
 C1791 C 0.34691 0.62513 0.68944
 C1792 C 0.36151 0.63779 0.67198
 C1793 C 0.38729 0.63863 0.67551
 C1794 C 0.39799 0.62839 0.69669
 C1795 C 0.39409 0.60699 0.73740
 C1796 C 0.39220 0.58189 0.74365
 C1797 C 0.40141 0.57335 0.76623
 C1798 C 0.41209 0.58989 0.78330
 C1799 C 0.41397 0.61508 0.77677
 C1800 C 0.40531 0.62346 0.75395
 H1801 H 0.32704 0.62410 0.68732
 H1802 H 0.39910 0.64762 0.66210
 H1803 H 0.40012 0.55377 0.77026
 H1804 H 0.42151 0.62853 0.78952
 H1805 H 0.41777 0.62992 0.69945
 H1806 H 0.38365 0.56892 0.73101
 H1807 H 0.34603 0.60519 0.72370
 H1808 H 0.40662 0.64298 0.74951
 C1809 C 1.12122 0.87856 0.71838
 C1810 C 1.11340 0.85536 0.70961
 C1811 C 1.12337 0.84539 0.68802
 C1812 C 1.14133 0.85844 0.67439
 C1813 C 1.14874 0.88193 0.68295
 C1814 C 1.13894 0.89177 0.70470
 C1815 C 1.11119 0.88873 0.74188
 C1816 C 1.10688 0.91428 0.74462
 C1817 C 1.09770 0.92375 0.76683
 C1818 C 1.09237 0.90786 0.78665
 C1819 C 1.09656 0.88237 0.78394
 C1820 C 1.10598 0.87293 0.76187
 H1821 H 1.11708 0.82730 0.68220
 H1822 H 1.16228 0.89274 0.67293
 H1823 H 1.09441 0.94346 0.76841
 H1824 H 1.09295 0.86978 0.79909
 H1825 H 1.14562 0.90957 0.71102
 H1826 H 1.11029 0.92695 0.72951
 H1827 H 1.09943 0.84487 0.71939
 H1828 H 1.10957 0.85325 0.76065
 C1829 C 1.12007 0.37900 0.21698
 C1830 C 1.13310 0.35644 0.21710
 C1831 C 1.14290 0.34682 0.19529
 C1832 C 1.14020 0.35968 0.17301
 C1833 C 1.12738 0.38219 0.17266
 C1834 C 1.11728 0.39175 0.19445
 C1835 C 1.10960 0.38912 0.24031
 C1836 C 1.10959 0.41475 0.24494
 C1837 C 1.10022 0.42410 0.26712
 C1838 C 1.09081 0.40806 0.28530
 C1839 C 1.09077 0.38246 0.28061
 C1840 C 1.09988 0.37314 0.25836
 H1841 H 1.15298 0.32951 0.19579
 H1842 H 1.12515 0.39222 0.15549
 H1843 H 1.10026 0.44394 0.26997
 H1844 H 1.08404 0.36950 0.29430
 H1845 H 1.10707 0.40895 0.19357
 H1846 H 1.11720 0.42759 0.23160
 H1847 H 1.13609 0.34636 0.23413
 H1848 H 1.09920 0.35335 0.25531
 C1849 C 0.61930 0.88086 0.21575
 C1850 C 0.61110 0.85775 0.20722
 C1851 C 0.62102 0.84745 0.18574
 C1852 C 0.63924 0.86016 0.17208
 C1853 C 0.64692 0.88364 0.18046
 C1854 C 0.63721 0.89375 0.20212
 C1855 C 0.60964 0.89121 0.23914
 C1856 C 0.62594 0.90084 0.25687
 C1857 C 0.61699 0.90995 0.27928
 C1858 C 0.59148 0.90991 0.28435
 C1859 C 0.57516 0.90053 0.26639
 C1860 C 0.58417 0.89113 0.24409
 H1861 H 0.61462 0.82933 0.18013
 H1862 H 0.66055 0.89425 0.17037
 H1863 H 0.63015 0.91653 0.29285
 H1864 H 0.55538 0.90061 0.26948
 H1865 H 0.64361 0.91176 0.20817
 H1866 H 0.64570 0.90078 0.25362
 H1867 H 0.59744 0.84735 0.21754
 H1868 H 0.57121 0.88403 0.23059
 C1869 C 0.61920 0.38157 0.71605
 C1870 C 0.60599 0.36375 0.70258
 C1871 C 0.61579 0.35382 0.68088
 C1872 C 0.63927 0.36117 0.67229
 C1873 C 0.65230 0.37930 0.68579
 C1874 C 0.64231 0.38945 0.70731
 C1875 C 0.60917 0.39143 0.73951
 C1876 C 0.60953 0.41695 0.74440
 C1877 C 0.60029 0.42613 0.76670
 C1878 C 0.59078 0.40993 0.78472
 C1879 C 0.59058 0.38436 0.77975
 C1880 C 0.59952 0.37525 0.75735
 H1881 H 0.60495 0.34027 0.67091
 H1882 H 0.67044 0.38545 0.68002
 H1883 H 0.60037 0.44593 0.76972
 H1884 H 0.58395 0.37127 0.79338
 H1885 H 0.65295 0.40303 0.71750
 H1886 H 0.61668 0.42982 0.73082
 H1887 H 0.58798 0.35759 0.70880
 H1888 H 0.59939 0.35545 0.75416
 C1889 C 1.28190 1.11954 1.12245
 C1890 C 1.30479 1.10912 1.11577
 C1891 C 1.32686 1.11886 1.12511
 C1892 C 1.32636 1.13909 1.14125
 C1893 C 1.30365 1.14938 1.14820
 C1894 C 1.28159 1.13971 1.13888
 C1895 C 1.25844 1.10966 1.11213
 C1896 C 1.23953 1.12586 1.10467
 C1897 C 1.21737 1.11666 1.09510
 C1898 C 1.21359 1.09102 1.09278
 C1899 C 1.23251 1.07480 1.10017
 C1900 C 1.25472 1.08402 1.10969
 H1901 H 1.34435 1.11088 1.11957
 H1902 H 1.30314 1.16499 1.16072
 H1903 H 1.20304 1.12962 1.08984
 H1904 H 1.23020 1.05496 1.09842
 H1905 H 1.26427 1.14791 1.14465
 H1906 H 1.24195 1.14572 1.10604
 H1907 H 1.30564 1.09377 1.10295
 H1908 H 1.26886 1.07106 1.11547
 C1909 C 1.28330 0.62056 0.62154
 C1910 C 1.30550 0.60696 0.62034
 C1911 C 1.32738 0.61662 0.63016
 C1912 C 1.32760 0.64018 0.64093
 C1913 C 1.30568 0.65390 0.64204
 C1914 C 1.28370 0.64413 0.63266
 C1915 C 1.25986 0.61028 0.61129
 C1916 C 1.24215 0.62601 0.60054
 C1917 C 1.21992 0.61655 0.59144
 C1918 C 1.21493 0.59101 0.59235
 C1919 C 1.23276 0.57521 0.60280
 C1920 C 1.25484 0.58474 0.61231
 H1921 H 1.34426 0.60590 0.62914
 H1922 H 1.30560 0.67203 0.65058
 H1923 H 1.20651 0.62940 0.58397
 H1924 H 1.22975 0.55541 0.60355
 H1925 H 1.26696 0.65493 0.63449
 H1926 H 1.24546 0.64571 0.59899
 H1927 H 1.30608 0.58899 0.61155
 H1928 H 1.26782 0.57205 0.62076
 C1929 C 0.78297 1.12097 0.62107
 C1930 C 0.80514 1.10734 0.61994
 C1931 C 0.82699 1.11690 0.62993
 C1932 C 0.82718 1.14041 0.64081
 C1933 C 0.80528 1.15417 0.64187
 C1934 C 0.78334 1.14448 0.63232
 C1935 C 0.75956 1.11080 0.61065
 C1936 C 0.74195 1.12660 0.59984
 C1937 C 0.71972 1.11723 0.59065
 C1938 C 0.71463 1.09171 0.59153
 C1939 C 0.73240 1.07583 0.60198
 C1940 C 0.75447 1.08527 0.61158
 H1941 H 0.84386 1.10617 0.62893
 H1942 H 0.80519 1.17226 0.65048
 H1943 H 0.70637 1.13013 0.58315
 H1944 H 0.72932 1.05604 0.60269
 H1945 H 0.76661 1.15531 0.63409
 H1946 H 0.74533 1.14629 0.59835
 H1947 H 0.80574 1.08940 0.61106
 H1948 H 0.76738 1.07252 0.62005
 C1949 C 0.78129 0.61981 1.12315
 C1950 C 0.79992 0.62881 1.10736
 C1951 C 0.82175 0.63875 1.11698
 C1952 C 0.82531 0.64045 1.14262
 C1953 C 0.80677 0.63146 1.15842
 C1954 C 0.78519 0.62101 1.14883
 C1955 C 0.75779 0.60958 1.11295
 C1956 C 0.73534 0.61260 1.12580
 C1957 C 0.71332 0.60295 1.11636
 C1958 C 0.71318 0.59055 1.09366
 C1959 C 0.73531 0.58766 1.08057
 C1960 C 0.75747 0.59685 1.09024
 H1961 H 0.83580 0.64542 1.10438
 H1962 H 0.80892 0.63268 1.17826
 H1963 H 0.69629 0.60547 1.12657
 H1964 H 0.73546 0.57800 1.06305
 H1965 H 0.77160 0.61383 1.16163
 H1966 H 0.73462 0.62277 1.14299
 H1967 H 0.79752 0.62863 1.08752
 H1968 H 0.77436 0.59370 1.08001
 C1969 C 1.28450 0.88104 0.87973
 C1970 C 1.28556 0.87139 0.85557
 C1971 C 1.30769 0.86213 0.84606
 C1972 C 1.32905 0.86174 0.86065
 C1973 C 1.32818 0.87096 0.88477
 C1974 C 1.30621 0.88082 0.89415
 C1975 C 1.26086 0.89111 0.88978
 C1976 C 1.25519 0.88915 0.91508
 C1977 C 1.23295 0.89847 0.92438
 C1978 C 1.21550 0.90955 0.90858
 C1979 C 1.22113 0.91136 0.88328
 C1980 C 1.24359 0.90259 0.87409
 H1981 H 1.30807 0.85471 0.82749
 H1982 H 1.34464 0.87079 0.89617
 H1983 H 1.22953 0.89705 0.94402
 H1984 H 1.20807 0.91929 0.87037
 H1985 H 1.30637 0.88848 0.91261
 H1986 H 1.26775 0.88012 0.92776
 H1987 H 1.26922 0.87057 0.84407
 H1988 H 1.24736 0.90495 0.85461
 C1989 C 1.28128 0.37780 0.37891
 C1990 C 1.28557 0.35210 0.37890
 C1991 C 1.30713 0.34232 0.36864
 C1992 C 1.32532 0.35798 0.35867
 C1993 C 1.32135 0.38368 0.35911
 C1994 C 1.29950 0.39345 0.36884
 C1995 C 1.25782 0.38814 0.38911
 C1996 C 1.25737 0.41158 0.40053
 C1997 C 1.23527 0.42131 0.40976
 C1998 C 1.21335 0.40759 0.40827
 C1999 C 1.21364 0.38419 0.39717
 C2000 C 1.23556 0.37467 0.38742
 H2001 H 1.30957 0.32243 0.36840
 H2002 H 1.33511 0.39620 0.35169
 H2003 H 1.23533 0.43939 0.41841
 H2004 H 1.19677 0.37347 0.39569
 H2005 H 1.29680 0.41328 0.36806
 H2006 H 1.27411 0.42234 0.40266
 H2007 H 1.27233 0.33941 0.38693
 H2008 H 1.23491 0.35689 0.37826
 C2009 C 0.78173 0.87901 0.37831
 C2010 C 0.79130 0.85640 0.38687
 C2011 C 0.81283 0.84648 0.37667
 C2012 C 0.82557 0.85897 0.35769
 C2013 C 0.81611 0.88183 0.34942
 C2014 C 0.79447 0.89165 0.35953
 C2015 C 0.75837 0.88913 0.38868
 C2016 C 0.75538 0.91475 0.39228
 C2017 C 0.73325 0.92421 0.40171
 C2018 C 0.71372 0.90824 0.40792
 C2019 C 0.71670 0.88266 0.40445
 C2020 C 0.73873 0.87322 0.39486
 H2021 H 0.81930 0.82886 0.38362
 H2022 H 0.82532 0.89217 0.33499
 H2023 H 0.73151 0.94399 0.40444
 H2024 H 0.70178 0.86998 0.40871
 H2025 H 0.78746 0.90896 0.35228
 H2026 H 0.77026 0.92749 0.38809
 H2027 H 0.78220 0.84636 0.40161
 H2028 H 0.74018 0.85346 0.39187
 C2029 C 0.78296 0.37877 0.87944
 C2030 C 0.80514 0.39245 0.88037
 C2031 C 0.82688 0.38297 0.87010
 C2032 C 0.82698 0.35949 0.85915
 C2033 C 0.80509 0.34566 0.85834
 C2034 C 0.78325 0.35526 0.86817
 C2035 C 0.75963 0.38894 0.89001
 C2036 C 0.74202 0.37314 0.90084
 C2037 C 0.71982 0.38252 0.91008
 C2038 C 0.71476 0.40805 0.90920
 C2039 C 0.73255 0.42392 0.89877
 C2040 C 0.75458 0.41448 0.88912
 H2041 H 0.84374 0.39375 0.87091
 H2042 H 0.80493 0.32759 0.84970
 H2043 H 0.70646 0.36962 0.91757
 H2044 H 0.72952 0.44371 0.89808
 H2045 H 0.76652 0.34439 0.86655
 H2046 H 0.74536 0.35344 0.90230
 H2047 H 0.80582 0.41036 0.88926
 H2048 H 0.76747 0.42723 0.88063
 C2049 C 0.71714 0.87790 1.12052
 C2050 C 0.69470 0.88044 1.10755
 C2051 C 0.67277 0.87071 1.11717
 C2052 C 0.67280 0.85864 1.14004
 C2053 C 0.69500 0.85596 1.15306
 C2054 C 0.71702 0.86535 1.14333
 C2055 C 0.74053 0.88839 1.11041
 C2056 C 0.75852 0.89841 1.12629
 C2057 C 0.78061 0.90795 1.11690
 C2058 C 0.78519 0.90807 1.09133
 C2059 C 0.76709 0.89831 1.07542
 C2060 C 0.74512 0.88847 1.08484
 H2061 H 0.65564 0.87293 1.10704
 H2062 H 0.69520 0.84648 1.17068
 H2063 H 0.79425 0.91493 1.12977
 H2064 H 0.76982 0.89837 1.05562
 H2065 H 0.73396 0.86255 1.15360
 H2066 H 0.75552 0.89907 1.14603
 H2067 H 0.69396 0.89031 1.09017
 H2068 H 0.73188 0.88063 1.07205
 C2069 C 0.71591 0.37910 0.61893
 C2070 C 0.69333 0.39181 0.61624
 C2071 C 0.67159 0.38225 0.62649
 C2072 C 0.67202 0.35976 0.63935
 C2073 C 0.69434 0.34690 0.64191
 C2074 C 0.71611 0.35653 0.63196
 C2075 C 0.73922 0.38930 0.60842
 C2076 C 0.75732 0.37338 0.59871
 C2077 C 0.77959 0.38277 0.58964
 C2078 C 0.78426 0.40838 0.58969
 C2079 C 0.76601 0.42436 0.59905
 C2080 C 0.74382 0.41494 0.60840
 H2081 H 0.65438 0.39227 0.62438
 H2082 H 0.69489 0.32962 0.65203
 H2083 H 0.79333 0.36984 0.58295
 H2084 H 0.76884 0.44421 0.59910
 H2085 H 0.73317 0.34649 0.63487
 H2086 H 0.75430 0.35358 0.59804
 H2087 H 0.69239 0.40901 0.60603
 H2088 H 0.73044 0.42774 0.61599
 C2089 C 0.21898 0.87642 0.62206
 C2090 C 0.19648 0.87874 0.60914
 C2091 C 0.17459 0.86916 0.61900
 C2092 C 0.17470 0.85747 0.64207
 C2093 C 0.19696 0.85504 0.65506
 C2094 C 0.21893 0.86427 0.64509
 C2095 C 0.24233 0.88673 0.61167
 C2096 C 0.26038 0.89700 0.62731
 C2097 C 0.28236 0.90652 0.61767
 C2098 C 0.28677 0.90640 0.59207
 C2099 C 0.26866 0.89628 0.57640
 C2100 C 0.24679 0.88645 0.58608
 H2101 H 0.15745 0.87115 0.60886
 H2102 H 0.19724 0.84580 0.67281
 H2103 H 0.29603 0.91374 0.63038
 H2104 H 0.27128 0.89612 0.55658
 H2105 H 0.23591 0.86164 0.65535
 H2106 H 0.25749 0.89792 0.64707
 H2107 H 0.19568 0.88830 0.59159
 H2108 H 0.23351 0.87839 0.57347
 C2109 C 0.21618 0.38115 1.11881
 C2110 C 0.20778 0.38926 1.14194
 C2111 C 0.18637 0.37921 1.15235
 C2112 C 0.17265 0.36096 1.13973
 C2113 C 0.18089 0.35339 1.11622
 C2114 C 0.20248 0.36322 1.10600
 C2115 C 0.23953 0.39090 1.10835
 C2116 C 0.25726 0.37462 1.09867
 C2117 C 0.27965 0.38365 1.08949
 C2118 C 0.28469 0.40921 1.08949
 C2119 C 0.26672 0.42550 1.09890
 C2120 C 0.24445 0.41642 1.10839
 H2121 H 0.18087 0.38551 1.17049
 H2122 H 0.17075 0.33974 1.10568
 H2123 H 0.29323 0.37051 1.08289
 H2124 H 0.26978 0.44530 1.09880
 H2125 H 0.20844 0.35689 1.08799
 H2126 H 0.25404 0.35483 1.09876
 H2127 H 0.21816 0.40293 1.15227
 H2128 H 0.23093 0.42935 1.11553
 C2129 C 0.71865 1.12382 0.87780
 C2130 C 0.69628 1.12139 0.89091
 C2131 C 0.67430 1.13105 0.88134
 C2132 C 0.67419 1.14293 0.85837
 C2133 C 0.69631 1.14549 0.84519
 C2134 C 0.71838 1.13617 0.85487
 C2135 C 0.74210 1.11344 0.88789
 C2136 C 0.76003 1.10334 0.87203
 C2137 C 0.78213 1.09381 0.88142
 C2138 C 0.78677 1.09377 0.90698
 C2139 C 0.76875 1.10366 0.92288
 C2140 C 0.74678 1.11350 0.91345
 H2141 H 0.65725 1.12894 0.89159
 H2142 H 0.69641 1.15483 0.82750
 H2143 H 0.79570 1.08675 0.86855
 H2144 H 0.77152 1.10367 0.94268
 H2145 H 0.73526 1.13889 0.84449
 H2146 H 0.75696 1.10259 0.85229
 H2147 H 0.69564 1.11167 0.90837
 H2148 H 0.73360 1.12141 0.92624
 C2149 C 0.71784 0.62188 0.37944
 C2150 C 0.69561 0.61951 0.39279
 C2151 C 0.67352 0.62904 0.38335
 C2152 C 0.67316 0.64071 0.36028
 C2153 C 0.69513 0.64317 0.34686
 C2154 C 0.71732 0.63400 0.35640
 C2155 C 0.74143 0.61171 0.38940
 C2156 C 0.75927 0.60159 0.37346
 C2157 C 0.78155 0.59237 0.38270
 C2158 C 0.78646 0.59263 0.40821
 C2159 C 0.76851 0.60250 0.42420
 C2160 C 0.74637 0.61206 0.41491
 H2161 H 0.65658 0.62702 0.39381
 H2162 H 0.69504 0.65239 0.32909
 H2163 H 0.79505 0.58531 0.36976
 H2164 H 0.77149 0.60273 0.44397
 H2165 H 0.73408 0.63668 0.34582
 H2166 H 0.75601 0.60061 0.35376
 H2167 H 0.69517 0.60995 0.41035
 H2168 H 0.73325 0.61999 0.42775
 C2169 C 0.21834 1.12108 0.37816
 C2170 C 0.21449 1.12217 0.35247
 C2171 C 0.19280 1.13229 0.34278
 C2172 C 0.17410 1.14106 0.35850
 C2173 C 0.17768 1.13960 0.38416
 C2174 C 0.19961 1.12997 0.39387
 C2175 C 0.24185 1.11095 0.38844
 C2176 C 0.24213 1.09820 0.41116
 C2177 C 0.26427 1.08896 0.42083
 C2178 C 0.28641 1.09183 0.40774
 C2179 C 0.28630 1.10429 0.38507
 C2180 C 0.26432 1.11400 0.37563
 H2181 H 0.19066 1.13337 0.32293
 H2182 H 0.16352 1.14611 0.39670
 H2183 H 0.26409 1.07925 0.43833
 H2184 H 0.30335 1.10681 0.37486
 H2185 H 0.20197 1.12988 0.41372
 H2186 H 0.22523 1.09503 0.42137
 H2187 H 0.22816 1.11508 0.33973
 H2188 H 0.26506 1.12419 0.35843
 C2189 C 0.21716 0.62205 0.88017
 C2190 C 0.21725 0.63792 0.85955
 C2191 C 0.19509 0.64707 0.84995
 C2192 C 0.17251 0.64053 0.86078
 C2193 C 0.17223 0.62495 0.88144
 C2194 C 0.19439 0.61575 0.89108
 C2195 C 0.24073 0.61196 0.89005
 C2196 C 0.24465 0.60995 0.91564
 C2197 C 0.26693 0.60059 0.92484
 C2198 C 0.28576 0.59300 0.90865
 C2199 C 0.28180 0.59496 0.88307
 C2200 C 0.25955 0.60430 0.87388
 H2201 H 0.19544 0.65920 0.83403
 H2202 H 0.15484 0.61976 0.88986
 H2203 H 0.26935 0.59911 0.94464
 H2204 H 0.29606 0.58956 0.87012
 H2205 H 0.19368 0.60335 0.90678
 H2206 H 0.23060 0.61592 0.92857
 H2207 H 0.23447 0.64344 0.85096
 H2208 H 0.25701 0.60532 0.85407
 C2209 C 1.12133 1.28256 1.12259
 C2210 C 1.14431 1.28288 1.13486
 C2211 C 1.15400 1.30500 1.14406
 C2212 C 1.14080 1.32714 1.14147
 C2213 C 1.11778 1.32698 1.12967
 C2214 C 1.10818 1.30494 1.12013
 C2215 C 1.11124 1.25906 1.11231
 C2216 C 1.08566 1.25431 1.11249
 C2217 C 1.07624 1.23226 1.10279
 C2218 C 1.09217 1.21422 1.09293
 C2219 C 1.11774 1.21894 1.09284
 C2220 C 1.12713 1.24112 1.10223
 H2221 H 1.17174 1.30495 1.15334
 H2222 H 1.10750 1.34405 1.12753
 H2223 H 1.05643 1.22942 1.10290
 H2224 H 1.13064 1.20536 1.08579
 H2225 H 1.09067 1.30554 1.11046
 H2226 H 1.07286 1.26750 1.12040
 H2227 H 1.15472 1.26600 1.13760
 H2228 H 1.14688 1.24424 1.10139
 C2229 C 1.12255 0.78181 0.62131
 C2230 C 1.11007 0.80452 0.61845
 C2231 C 1.11983 0.82628 0.62852
 C2232 C 1.14230 0.82573 0.64137
 C2233 C 1.15492 0.80328 0.64411
 C2234 C 1.14509 0.78150 0.63433
 C2235 C 1.11215 0.75850 0.61094
 C2236 C 1.12789 0.74017 0.60134
 C2237 C 1.11831 0.71797 0.59228
 C2238 C 1.09268 0.71359 0.59220
 C2239 C 1.07688 0.73201 0.60152
 C2240 C 1.08650 0.75415 0.61087
 H2241 H 1.10998 0.84358 0.62630
 H2242 H 1.17218 0.80265 0.65424
 H2243 H 1.13110 0.70408 0.58564
 H2244 H 1.05703 0.72940 0.60149
 H2245 H 1.15496 0.76434 0.63738
 H2246 H 1.14770 0.74299 0.60072
 H2247 H 1.09290 0.80555 0.60823
 H2248 H 1.07383 0.76769 0.61839
 C2249 C 0.62139 1.28269 0.62111
 C2250 C 0.63349 1.28309 0.64416
 C2251 C 0.64271 1.30523 0.65380
 C2252 C 0.64031 1.32732 0.64047
 C2253 C 0.62865 1.32709 0.61739
 C2254 C 0.61908 1.30503 0.60786
 C2255 C 0.61119 1.25914 0.61102
 C2256 C 0.61157 1.25434 0.58549
 C2257 C 0.60196 1.23225 0.57607
 C2258 C 0.59198 1.21422 0.59195
 C2259 C 0.59170 1.21898 0.61748
 C2260 C 0.60099 1.24120 0.62686
 H2261 H 0.65191 1.30522 0.67156
 H2262 H 0.62668 1.34410 0.60700
 H2263 H 0.60222 1.22938 0.55629
 H2264 H 0.58456 1.20541 0.63035
 H2265 H 0.60955 1.30558 0.59029
 H2266 H 0.61957 1.26753 0.57273
 H2267 H 0.63611 1.26624 0.65467
 H2268 H 0.60000 1.24436 0.64657
 C2269 C 0.62080 0.78276 1.11984
 C2270 C 0.60828 0.80541 1.11670
 C2271 C 0.61794 0.82729 1.12659
 C2272 C 0.64035 0.82692 1.13956
 C2273 C 0.65300 0.80453 1.14261
 C2274 C 0.64326 0.78263 1.13300
 C2275 C 0.61055 0.75933 1.10960
 C2276 C 0.62641 0.74101 1.10020
 C2277 C 0.61698 0.71869 1.09127
 C2278 C 0.59137 0.71418 1.09114
 C2279 C 0.57544 0.73259 1.10026
 C2280 C 0.58492 0.75486 1.10947
 H2281 H 0.60807 0.84455 1.12413
 H2282 H 0.67020 0.80403 1.15282
 H2283 H 0.62986 0.70481 1.08478
 H2284 H 0.55561 0.72987 1.10019
 H2285 H 0.65316 0.76552 1.13626
 H2286 H 0.64621 0.74392 1.09963
 H2287 H 0.59116 0.80628 1.10638
 H2288 H 0.57215 0.76840 1.11683
 C2289 C 0.87836 1.28199 0.87709
 C2290 C 0.88009 1.28725 0.85180
 C2291 C 0.87024 1.30921 0.84232
 C2292 C 0.85921 1.32671 0.85812
 C2293 C 0.85751 1.32125 0.88348
 C2294 C 0.86679 1.29900 0.89283
 C2295 C 0.88849 1.25871 0.88708
 C2296 C 0.87291 1.24165 0.89880
 C2297 C 0.88242 1.21949 0.90812
 C2298 C 0.90789 1.21421 0.90647
 C2299 C 0.92346 1.23163 0.89490
 C2300 C 0.91379 1.25351 0.88505
 H2301 H 0.87119 1.31249 0.82263
 H2302 H 0.84910 1.33429 0.89610
 H2303 H 0.86969 1.20638 0.91627
 H2304 H 0.94318 1.22855 0.89367
 H2305 H 0.86530 1.29521 0.91242
 H2306 H 0.85328 1.24532 0.90034
 H2307 H 0.88870 1.27414 0.83936
 H2308 H 0.92611 1.26662 0.87621
 C2309 C 0.87963 0.78315 0.37694
 C2310 C 0.88285 0.80617 0.38871
 C2311 C 0.87251 0.82767 0.37868
 C2312 C 0.85894 0.82654 0.35667
 C2313 C 0.85583 0.80377 0.34474
 C2314 C 0.86596 0.78225 0.35482
 C2315 C 0.89028 0.76011 0.38765
 C2316 C 0.89982 0.74156 0.37217
 C2317 C 0.90917 0.71960 0.38206
 C2318 C 0.90950 0.71570 0.40774
 C2319 C 0.90019 0.73434 0.42327
 C2320 C 0.89064 0.75626 0.41334
 H2321 H 0.87500 0.84522 0.38800
 H2322 H 0.84514 0.80265 0.32788
 H2323 H 0.91581 0.70551 0.36950
 H2324 H 0.90039 0.73205 0.44313
 H2325 H 0.86268 0.76483 0.34550
 H2326 H 0.90017 0.74401 0.35233
 H2327 H 0.89355 0.80761 0.40555
 H2328 H 0.88317 0.77002 0.42580
 C2329 C 0.37967 1.28287 0.37912
 C2330 C 0.37047 1.30159 0.39448
 C2331 C 0.36045 1.32312 0.38423
 C2332 C 0.35894 1.32599 0.35844
 C2333 C 0.36821 1.30709 0.34317
 C2334 C 0.37871 1.28582 0.35344
 C2335 C 0.38957 1.25988 0.38981
 C2336 C 0.37353 1.24266 0.40061
 C2337 C 0.38267 1.22031 0.40984
 C2338 C 0.40815 1.21498 0.40889
 C2339 C 0.42419 1.23265 0.39838
 C2340 C 0.41492 1.25478 0.38869
 H2341 H 0.35367 1.33748 0.39640
 H2342 H 0.36702 1.30866 0.32327
 H2343 H 0.36964 1.20702 0.41724
 H2344 H 0.44393 1.22947 0.39773
 H2345 H 0.38560 1.27140 0.34137
 H2346 H 0.35385 1.24630 0.40138
 H2347 H 0.37113 1.29953 0.41437
 H2348 H 0.42753 1.26800 0.38045
 C2349 C 0.38016 0.78433 0.88088
 C2350 C 0.39462 0.80606 0.88058
 C2351 C 0.38524 0.82804 0.87067
 C2352 C 0.36107 0.82891 0.86147
 C2353 C 0.34645 0.80753 0.86192
 C2354 C 0.35597 0.78539 0.87124
 C2355 C 0.39021 0.76069 0.89103
 C2356 C 0.37449 0.74344 0.90255
 C2357 C 0.38368 0.72098 0.91140
 C2358 C 0.40900 0.71532 0.90963
 C2359 C 0.42483 0.73274 0.89851
 C2360 C 0.41553 0.75498 0.88911
 H2361 H 0.39666 0.84451 0.87044
 H2362 H 0.32785 0.80791 0.85453
 H2363 H 0.37075 0.70794 0.91937
 H2364 H 0.44449 0.72930 0.89712
 H2365 H 0.34443 0.76904 0.87048
 H2366 H 0.35499 0.74725 0.90487
 H2367 H 0.41310 0.80623 0.88822
 H2368 H 0.42823 0.76752 0.88005
 C2369 C 1.12115 0.71665 0.88016
 C2370 C 1.11504 0.69373 0.89094
 C2371 C 1.12460 0.67170 0.88132
 C2372 C 1.14036 0.67227 0.86083
 C2373 C 1.14671 0.69501 0.85015
 C2374 C 1.13719 0.71704 0.85972
 C2375 C 1.11073 0.74008 0.89004
 C2376 C 1.10288 0.75888 0.87389
 C2377 C 1.09336 0.78106 0.88309
 C2378 C 1.09144 0.78498 0.90867
 C2379 C 1.09916 0.76614 0.92485
 C2380 C 1.10867 0.74392 0.91563
 H2381 H 1.11954 0.65418 0.88961
 H2382 H 1.15896 0.69558 0.83435
 H2383 H 1.08785 0.79532 0.87015
 H2384 H 1.09771 0.76853 0.94465
 H2385 H 1.14255 0.73439 0.85124
 H2386 H 1.10394 0.75638 0.85408
 H2387 H 1.10253 0.69280 0.90651
 H2388 H 1.11476 0.72988 0.92855
 C2389 C 1.12042 0.21680 0.38027
 C2390 C 1.14613 0.21383 0.37938
 C2391 C 1.15639 0.19253 0.36895
 C2392 C 1.14108 0.17361 0.35970
 C2393 C 1.11527 0.17651 0.36114
 C2394 C 1.10503 0.19807 0.37109
 C2395 C 1.10973 0.23980 0.39012
 C2396 C 1.11079 0.24492 0.41544
 C2397 C 1.10105 0.26704 0.42466
 C2398 C 1.09053 0.28468 0.40861
 C2399 C 1.08965 0.27934 0.38316
 C2400 C 1.09893 0.25700 0.37406
 H2401 H 1.17631 0.19095 0.36781
 H2402 H 1.10306 0.16214 0.35437
 H2403 H 1.10166 0.27022 0.44439
 H2404 H 1.08226 0.29260 0.37012
 H2405 H 1.08512 0.20014 0.37169
 H2406 H 1.11903 0.23172 0.42807
 H2407 H 1.15823 0.22825 0.38626
 H2408 H 1.09820 0.25335 0.35441
 C2409 C 0.62111 0.71652 0.38104
 C2410 C 0.64381 0.71662 0.36832
 C2411 C 0.65356 0.69473 0.35873
 C2412 C 0.64070 0.67239 0.36136
 C2413 C 0.61809 0.67205 0.37394
 C2414 C 0.60841 0.69391 0.38383
 C2415 C 0.61078 0.73996 0.39115
 C2416 C 0.58516 0.74450 0.39084
 C2417 C 0.57563 0.76679 0.39990
 C2418 C 0.59148 0.78515 0.40930
 C2419 C 0.61707 0.78056 0.40960
 C2420 C 0.62656 0.75822 0.40084
 H2421 H 0.67092 0.69522 0.34878
 H2422 H 0.60804 0.65484 0.37605
 H2423 H 0.55581 0.76957 0.39964
 H2424 H 0.62991 0.79440 0.41631
 H2425 H 0.59110 0.69306 0.39382
 H2426 H 0.57247 0.73101 0.38324
 H2427 H 0.65386 0.73369 0.36533
 H2428 H 0.64633 0.75525 0.40175
 C2429 C 0.62179 0.21838 0.87926
 C2430 C 0.60924 0.19567 0.88193
 C2431 C 0.61904 0.17394 0.87187
 C2432 C 0.64161 0.17451 0.85924
 C2433 C 0.65432 0.19694 0.85670
 C2434 C 0.64445 0.21870 0.86646
 C2435 C 0.61136 0.24166 0.88961
 C2436 C 0.62707 0.25990 0.89947
 C2437 C 0.61748 0.28207 0.90854
 C2438 C 0.59186 0.28651 0.90837
 C2439 C 0.57609 0.26818 0.89878
 C2440 C 0.58573 0.24606 0.88942
 H2441 H 0.60912 0.15664 0.87394
 H2442 H 0.67166 0.19760 0.84674
 H2443 H 0.63024 0.29590 0.91540
 H2444 H 0.55625 0.27084 0.89861
 H2445 H 0.65439 0.23586 0.86357
 H2446 H 0.64686 0.25703 0.90029
 H2447 H 0.59197 0.19464 0.89197
 H2448 H 0.57309 0.23259 0.88170
 C2449 C 0.87718 0.71757 1.12003
 C2450 C 0.85147 0.71361 1.12096
 C2451 C 0.84179 0.69216 1.13164
 C2452 C 0.85753 0.67380 1.14114
 C2453 C 0.88322 0.67742 1.13973
 C2454 C 0.89292 0.69914 1.12956
 C2455 C 0.88745 0.74095 1.10952
 C2456 C 0.91042 0.74115 1.09723
 C2457 C 0.92016 0.76321 1.08783
 C2458 C 0.90689 0.78535 1.09004
 C2459 C 0.88393 0.78531 1.10197
 C2460 C 0.87442 0.76341 1.11186
 H2461 H 0.82191 0.68997 1.13262
 H2462 H 0.89578 0.66351 1.14677
 H2463 H 0.93789 0.76298 1.07855
 H2464 H 0.87359 0.80236 1.10401
 H2465 H 0.91278 0.70160 1.12961
 H2466 H 0.92080 0.72424 1.09459
 H2467 H 0.83871 0.72702 1.11336
 H2468 H 0.85703 0.76424 1.12169
 C2469 C 0.87771 0.21820 0.62189
 C2470 C 0.86609 0.20103 0.60635
 C2471 C 0.85714 0.17872 0.61590
 C2472 C 0.85925 0.17337 0.64126
 C2473 C 0.87032 0.19103 0.65686
 C2474 C 0.87983 0.21306 0.64718
 C2475 C 0.88760 0.24150 0.61169
 C2476 C 0.91289 0.24684 0.61348
 C2477 C 0.92234 0.26879 0.60358
 C2478 C 0.90656 0.28616 0.59222
 C2479 C 0.88112 0.28069 0.59072
 C2480 C 0.87181 0.25845 0.60009
 H2481 H 0.84868 0.16554 0.60343
 H2482 H 0.87156 0.18783 0.67655
 H2483 H 0.94206 0.27199 0.60464
 H2484 H 0.86825 0.29375 0.58268
 H2485 H 0.88851 0.22629 0.65946
 H2486 H 0.92536 0.23381 0.62220
 H2487 H 0.86431 0.20473 0.58677
 H2488 H 0.85219 0.25466 0.59872
 C2489 C 0.37840 0.71787 0.62195
 C2490 C 0.38046 0.71274 0.64725
 C2491 C 0.37082 0.69078 0.65693
 C2492 C 0.35969 0.67315 0.64134
 C2493 C 0.35761 0.67850 0.61598
 C2494 C 0.36668 0.70075 0.60642
 C2495 C 0.38844 0.74111 0.61176
 C2496 C 0.37277 0.75805 0.59997
 C2497 C 0.38220 0.78024 0.59060
 C2498 C 0.40764 0.78566 0.59227
 C2499 C 0.42329 0.76832 0.60384
 C2500 C 0.41372 0.74642 0.61374
 H2501 H 0.37204 0.68759 0.67663
 H2502 H 0.34909 0.66535 0.60352
 H2503 H 0.36941 0.79328 0.58242
 H2504 H 0.44301 0.77150 0.60506
 H2505 H 0.36495 0.70444 0.58684
 H2506 H 0.35315 0.75429 0.59846
 H2507 H 0.38919 0.72594 0.65953
 H2508 H 0.42610 0.73340 0.62262
 C2509 C 0.37915 0.21587 1.11880
 C2510 C 0.39057 0.20454 1.13916
 C2511 C 0.38090 0.18280 1.14930
 C2512 C 0.35940 0.17182 1.13943
 C2513 C 0.34833 0.18301 1.11865
 C2514 C 0.35803 0.20475 1.10855
 C2515 C 0.38898 0.23939 1.10852
 C2516 C 0.37279 0.25834 1.10113
 C2517 C 0.38197 0.28068 1.09189
 C2518 C 0.40758 0.28459 1.08983
 C2519 C 0.42380 0.26561 1.09710
 C2520 C 0.41460 0.24325 1.10633
 H2521 H 0.39027 0.17477 1.16503
 H2522 H 0.33206 0.17510 1.11012
 H2523 H 0.36903 0.29511 1.08685
 H2524 H 0.44361 0.26797 1.09542
 H2525 H 0.34907 0.21279 1.09256
 H2526 H 0.35298 0.25611 1.10297
 H2527 H 0.40677 0.21275 1.14761
 H2528 H 0.42754 0.22888 1.11153
 C2529 C 1.12018 1.11967 0.71583
 C2530 C 1.14082 1.10886 0.70443
 C2531 C 1.15046 1.11874 0.68262
 C2532 C 1.13982 1.13989 0.67166
 C2533 C 1.11877 1.15034 0.68293
 C2534 C 1.10914 1.14039 0.70472
 C2535 C 1.11044 1.10960 0.73943
 C2536 C 1.08485 1.10783 0.74356
 C2537 C 1.07577 1.09868 0.76595
 C2538 C 1.09209 1.09110 0.78470
 C2539 C 1.11768 1.09282 0.78052
 C2540 C 1.12675 1.10194 0.75814
 H2541 H 1.16634 1.10975 0.67447
 H2542 H 1.10973 1.16639 0.67509
 H2543 H 1.05596 1.09726 0.76850
 H2544 H 1.13073 1.08757 0.79476
 H2545 H 1.09330 1.14925 0.71316
 H2546 H 1.07183 1.11327 0.72937
 H2547 H 1.14946 1.09258 0.71231
 H2548 H 1.14656 1.10347 0.75568
 C2549 C 1.12113 0.62182 0.21855
 C2550 C 1.13060 0.60611 0.20010
 C2551 C 1.14035 0.61587 0.17826
 C2552 C 1.14138 0.64159 0.17450
 C2553 C 1.13198 0.65730 0.19290
 C2554 C 1.12171 0.64756 0.21447
 C2555 C 1.11098 0.61150 0.24202
 C2556 C 1.11334 0.62469 0.26434
 C2557 C 1.10364 0.61521 0.28629
 C2558 C 1.09189 0.59211 0.28653
 C2559 C 1.08973 0.57864 0.26455
 C2560 C 1.09893 0.58835 0.24243
 H2561 H 1.14734 0.60332 0.16434
 H2562 H 1.13270 0.67720 0.19064
 H2563 H 1.10564 0.62572 0.30321
 H2564 H 1.08057 0.56080 0.26446
 H2565 H 1.11414 0.66030 0.22790
 H2566 H 1.12300 0.64223 0.26501
 H2567 H 1.13092 0.58624 0.20263
 H2568 H 1.09628 0.57782 0.22564
 C2569 C 0.62035 1.12065 0.21652
 C2570 C 0.64061 1.10913 0.20510
 C2571 C 0.65057 1.11870 0.18327
 C2572 C 0.64063 1.14019 0.17231
 C2573 C 0.61997 1.15135 0.18361
 C2574 C 0.61004 1.14175 0.20542
 C2575 C 0.61018 1.11090 0.24010
 C2576 C 0.60283 1.12722 0.25893
 C2577 C 0.59355 1.11813 0.28123
 C2578 C 0.59139 1.09251 0.28525
 C2579 C 0.59867 1.07618 0.26641
 C2580 C 0.60796 1.08528 0.24407
 H2581 H 0.66620 1.10925 0.17514
 H2582 H 0.61138 1.16762 0.17573
 H2583 H 0.58850 1.13117 0.29555
 H2584 H 0.59693 1.05636 0.26884
 H2585 H 0.59412 1.15078 0.21351
 H2586 H 0.60472 1.14704 0.25661
 H2587 H 0.64909 1.09293 0.21329
 H2588 H 0.61312 1.07225 0.22980
 C2589 C 0.62027 0.62113 0.71670
 C2590 C 0.62022 0.60664 0.69505
 C2591 C 0.63000 0.61594 0.67301
 C2592 C 0.63939 0.64006 0.67201
 C2593 C 0.63928 0.65471 0.69332
 C2594 C 0.63011 0.64527 0.71551
 C2595 C 0.61026 0.61116 0.74039
 C2596 C 0.59904 0.62699 0.75770
 C2597 C 0.59028 0.61784 0.78018
 C2598 C 0.59187 0.59246 0.78581
 C2599 C 0.60269 0.57654 0.76834
 C2600 C 0.61199 0.58579 0.74608
 H2601 H 0.62994 0.60450 0.65659
 H2602 H 0.64683 0.67328 0.69283
 H2603 H 0.58253 0.63084 0.79325
 H2604 H 0.60392 0.55684 0.77174
 H2605 H 0.63113 0.65682 0.73179
 H2606 H 0.59686 0.64654 0.75392
 H2607 H 0.61241 0.58820 0.69498
 H2608 H 0.62083 0.57300 0.73351
 C2609 C 0.87964 0.87863 0.71769
 C2610 C 0.86675 0.85597 0.71800
 C2611 C 0.85684 0.84616 0.69630
 C2612 C 0.85929 0.85894 0.67394
 C2613 C 0.87198 0.88153 0.67339
 C2614 C 0.88220 0.89126 0.69506
 C2615 C 0.89018 0.88898 0.74090
 C2616 C 0.89015 0.91464 0.74535
 C2617 C 0.89962 0.92421 0.76742
 C2618 C 0.90915 0.90834 0.78569
 C2619 C 0.90920 0.88270 0.78119
 C2620 C 0.90003 0.87318 0.75905
 H2621 H 0.84684 0.82880 0.69695
 H2622 H 0.87399 0.89150 0.65616
 H2623 H 0.89954 0.94406 0.77011
 H2624 H 0.91601 0.86986 0.79496
 H2625 H 0.89230 0.90853 0.69402
 H2626 H 0.88245 0.92736 0.73194
 H2627 H 0.86393 0.84597 0.73510
 H2628 H 0.90074 0.85337 0.75616
 C2629 C 0.87891 0.38079 0.21668
 C2630 C 0.89175 0.38307 0.19416
 C2631 C 0.88210 0.37283 0.17248
 C2632 C 0.85938 0.36039 0.17290
 C2633 C 0.84638 0.35826 0.19515
 C2634 C 0.85611 0.36819 0.21687
 C2635 C 0.88922 0.39127 0.23994
 C2636 C 0.87344 0.40137 0.25793
 C2637 C 0.88291 0.41041 0.28015
 C2638 C 0.90847 0.40996 0.28488
 C2639 C 0.92432 0.40020 0.26675
 C2640 C 0.91481 0.39087 0.24461
 H2641 H 0.89223 0.37461 0.15533
 H2642 H 0.82892 0.34847 0.19571
 H2643 H 0.87007 0.41740 0.29379
 H2644 H 0.94413 0.39984 0.26963
 H2645 H 0.84595 0.36559 0.23389
 H2646 H 0.85369 0.40238 0.25485
 H2647 H 0.90914 0.39295 0.19323
 H2648 H 0.92750 0.38296 0.23134
 C2649 C 0.38247 0.88431 0.21403
 C2650 C 0.35696 0.88617 0.20995
 C2651 C 0.34624 0.87515 0.18922
 C2652 C 0.36092 0.86239 0.17194
 C2653 C 0.38669 0.86170 0.17553
 C2654 C 0.39731 0.87218 0.19662
 C2655 C 0.39327 0.89382 0.23715
 C2656 C 0.39130 0.91894 0.24330
 C2657 C 0.40059 0.92761 0.26579
 C2658 C 0.41146 0.91119 0.28287
 C2659 C 0.41332 0.88597 0.27648
 C2660 C 0.40458 0.87747 0.25374
 H2661 H 0.32637 0.87606 0.18706
 H2662 H 0.39856 0.85262 0.16224
 H2663 H 0.39927 0.94720 0.26973
 H2664 H 0.42096 0.87260 0.28925
 H2665 H 0.41709 0.87075 0.19943
 H2666 H 0.38265 0.93182 0.23062
 H2667 H 0.34522 0.89540 0.22329
 H2668 H 0.40594 0.85794 0.24940
 C2669 C 0.37835 0.38052 0.71709
 C2670 C 0.35579 0.36749 0.71737
 C2671 C 0.34610 0.35749 0.69567
 C2672 C 0.35888 0.35999 0.67334
 C2673 C 0.38137 0.37284 0.67282
 C2674 C 0.39099 0.38314 0.69449
 C2675 C 0.38861 0.39113 0.74032
 C2676 C 0.41423 0.39121 0.74481
 C2677 C 0.42372 0.40068 0.76690
 C2678 C 0.40782 0.41012 0.78516
 C2679 C 0.38222 0.41010 0.78061
 C2680 C 0.37276 0.40090 0.75844
 H2681 H 0.32881 0.34739 0.69628
 H2682 H 0.39133 0.37492 0.65561
 H2683 H 0.44355 0.40068 0.76964
 H2684 H 0.36935 0.41684 0.79435
 H2685 H 0.40818 0.39336 0.69348
 H2686 H 0.42698 0.38356 0.73144
 H2687 H 0.34579 0.36462 0.73444
 H2688 H 0.35298 0.40154 0.75550
 C2689 C 1.11908 0.87895 1.28288
 C2690 C 1.11127 0.85594 1.29201
 C2691 C 1.12151 0.84627 1.31366
 C2692 C 1.13966 0.85954 1.32690
 C2693 C 1.14694 0.88292 1.31791
 C2694 C 1.13692 0.89239 1.29609
 C2695 C 1.10910 0.88866 1.25932
 C2696 C 1.12517 0.89817 1.24133
 C2697 C 1.11595 0.90702 1.21892
 C2698 C 1.09038 0.90690 1.21411
 C2699 C 1.07430 0.89742 1.23222
 C2700 C 1.08359 0.88826 1.25454
 H2701 H 1.11541 0.82820 1.31975
 H2702 H 1.16050 0.89394 1.32766
 H2703 H 1.12894 0.91361 1.20521
 H2704 H 1.05449 0.89737 1.22930
 H2705 H 1.14302 0.91035 1.28957
 H2706 H 1.14496 0.89831 1.24442
 H2707 H 1.09768 0.84512 1.28204
 H2708 H 1.07081 0.88120 1.26823
 C2709 C 1.11812 0.37970 0.78498
 C2710 C 1.11826 0.39429 0.80656
 C2711 C 1.12828 0.38512 0.82854
 C2712 C 1.13775 0.36104 0.82956
 C2713 C 1.13740 0.34627 0.80833
 C2714 C 1.12797 0.35558 0.78619
 C2715 C 1.10802 0.38959 0.76130
 C2716 C 1.09670 0.37371 0.74408
 C2717 C 1.08800 0.38277 0.72154
 C2718 C 1.08977 0.40810 0.71576
 C2719 C 1.10062 0.42408 0.73318
 C2720 C 1.10986 0.41493 0.75549
 H2721 H 1.12840 0.39665 0.84490
 H2722 H 1.14499 0.32773 0.80883
 H2723 H 1.08021 0.36973 0.70852
 H2724 H 1.10197 0.44376 0.72966
 H2725 H 1.12885 0.34395 0.76995
 H2726 H 1.09444 0.35419 0.74797
 H2727 H 1.11043 0.41272 0.80661
 H2728 H 1.11876 0.42775 0.76800
 C2729 C 0.62149 0.87755 0.78174
 C2730 C 0.62051 0.85197 0.78673
 C2731 C 0.63020 0.84241 0.80868
 C2732 C 0.64043 0.85822 0.82658
 C2733 C 0.64144 0.88374 0.82162
 C2734 C 0.63230 0.89325 0.79944
 C2735 C 0.61143 0.88778 0.75818
 C2736 C 0.60092 0.91164 0.75738
 C2737 C 0.59181 0.92134 0.73524
 C2738 C 0.59246 0.90717 0.71360
 C2739 C 0.60261 0.88332 0.71425
 C2740 C 0.61226 0.87382 0.73623
 H2741 H 0.62971 0.82260 0.81164
 H2742 H 0.64938 0.89637 0.83496
 H2743 H 0.58387 0.93974 0.73505
 H2744 H 0.60342 0.87223 0.69760
 H2745 H 0.63401 0.91293 0.79612
 H2746 H 0.59940 0.92279 0.77390
 H2747 H 0.61207 0.83925 0.77380
 H2748 H 0.62067 0.85565 0.73585
 C2749 C 0.62020 0.37744 1.28245
 C2750 C 0.62945 0.39345 1.30078
 C2751 C 0.63939 0.38401 1.32267
 C2752 C 0.64083 0.35834 1.32659
 C2753 C 0.63171 0.34233 1.30828
 C2754 C 0.62125 0.35175 1.28665
 C2755 C 0.60977 0.38744 1.25897
 C2756 C 0.61239 0.37424 1.23669
 C2757 C 0.60255 0.38350 1.21470
 C2758 C 0.59039 0.40637 1.21442
 C2759 C 0.58789 0.41979 1.23639
 C2760 C 0.59723 0.41030 1.25853
 H2761 H 0.64618 0.39676 1.33652
 H2762 H 0.63275 0.32246 1.31069
 H2763 H 0.60482 0.37305 1.19779
 H2764 H 0.57843 0.43746 1.23642
 H2765 H 0.61389 0.33880 1.27330
 H2766 H 0.62240 0.35691 1.23607
 H2767 H 0.62942 0.41330 1.29812
 H2768 H 0.59437 0.42080 1.27530
 C2769 C 0.87864 1.11935 1.28288
 C2770 C 0.88427 1.10804 1.30563
 C2771 C 0.87486 1.11766 1.32768
 C2772 C 0.85978 1.13871 1.32732
 C2773 C 0.85392 1.14994 1.30476
 C2774 C 0.86324 1.14035 1.28271
 C2775 C 0.88892 1.10946 1.25942
 C2776 C 0.89709 1.12567 1.24082
 C2777 C 0.90655 1.11648 1.21866
 C2778 C 0.90816 1.09084 1.21457
 C2779 C 0.90010 1.07460 1.23320
 C2780 C 0.89060 1.08381 1.25538
 H2781 H 0.87952 1.10892 1.34506
 H2782 H 0.84216 1.16615 1.30435
 H2783 H 0.91229 1.12949 1.20456
 H2784 H 0.90131 1.05475 1.23070
 H2785 H 0.85822 1.14924 1.26550
 H2786 H 0.89635 1.14553 1.24346
 H2787 H 0.89629 1.09205 1.30642
 H2788 H 0.88424 1.07083 1.26924
 C2789 C 0.87873 0.62007 0.78228
 C2790 C 0.85588 0.61194 0.79160
 C2791 C 0.84612 0.62211 0.81320
 C2792 C 0.85902 0.64063 0.82625
 C2793 C 0.88212 0.64842 0.81707
 C2794 C 0.89178 0.63836 0.79535
 C2795 C 0.88868 0.60982 0.75881
 C2796 C 0.91420 0.60571 0.75584
 C2797 C 0.92351 0.59647 0.73360
 C2798 C 0.90750 0.59094 0.71394
 C2799 C 0.88202 0.59489 0.71691
 C2800 C 0.87272 0.60431 0.73905
 H2801 H 0.82830 0.61554 0.81948
 H2802 H 0.89278 0.66246 0.82654
 H2803 H 0.94321 0.59335 0.73185
 H2804 H 0.86931 0.59114 0.70190
 H2805 H 0.90928 0.64529 0.78855
 H2806 H 0.92696 0.60937 0.77080
 H2807 H 0.84553 0.59758 0.78225
 H2808 H 0.85305 0.60771 0.74050
 C2809 C 0.37912 1.12138 0.78203
 C2810 C 0.38176 1.10877 0.80466
 C2811 C 0.37170 1.11856 0.82636
 C2812 C 0.35908 1.14118 0.82584
 C2813 C 0.35652 1.15391 0.80347
 C2814 C 0.36629 1.14406 0.78174
 C2815 C 0.38958 1.11102 0.75880
 C2816 C 0.39944 1.12682 0.74065
 C2817 C 0.40862 1.11729 0.71852
 C2818 C 0.40854 1.09165 0.71404
 C2819 C 0.39896 1.07579 0.73229
 C2820 C 0.38951 1.08536 0.75435
 H2821 H 0.37381 1.10863 0.84361
 H2822 H 0.34659 1.17130 0.80284
 H2823 H 0.41545 1.13013 0.70477
 H2824 H 0.39887 1.05593 0.72960
 H2825 H 0.36341 1.15404 0.76464
 H2826 H 0.40019 1.14663 0.74354
 H2827 H 0.39183 1.09149 0.80568
 H2828 H 0.38180 1.07265 0.76776
 C2829 C 0.38168 0.61576 1.28555
 C2830 C 0.39661 0.62793 1.30290
 C2831 C 0.38608 0.63848 1.32398
 C2832 C 0.36032 0.63784 1.32763
 C2833 C 0.34556 0.62505 1.31041
 C2834 C 0.35618 0.61396 1.28968
 C2835 C 0.39241 0.60615 1.26245
 C2836 C 0.40367 0.62244 1.24576
 C2837 C 0.41244 0.61382 1.22309
 C2838 C 0.41068 0.58855 1.21687
 C2839 C 0.39983 0.57220 1.23403
 C2840 C 0.39049 0.58099 1.25645
 H2841 H 0.39801 0.64757 1.33723
 H2842 H 0.32569 0.62416 1.31262
 H2843 H 0.42005 0.62714 1.21025
 H2844 H 0.39857 0.55258 1.23021
 H2845 H 0.34439 0.60471 1.27639
 H2846 H 0.40499 0.64200 1.24998
 H2847 H 0.41638 0.62931 1.30004
 H2848 H 0.38188 0.56816 1.26920
 C2849 C 1.12005 1.28461 0.88208
 C2850 C 1.10552 1.30627 0.88183
 C2851 C 1.11478 1.32829 0.87187
 C2852 C 1.13890 1.32926 0.86258
 C2853 C 1.15362 1.30796 0.86305
 C2854 C 1.14421 1.28578 0.87242
 C2855 C 1.11006 1.26090 0.89212
 C2856 C 1.12581 1.24362 0.90355
 C2857 C 1.11668 1.22106 0.91221
 C2858 C 1.09137 1.21531 0.91032
 C2859 C 1.07551 1.23277 0.89934
 C2860 C 1.08476 1.25512 0.89014
 H2861 H 1.10329 1.34470 0.87164
 H2862 H 1.17218 1.30842 0.85558
 H2863 H 1.12964 1.20800 0.92009
 H2864 H 1.05586 1.22928 0.89788
 H2865 H 1.15580 1.26948 0.87163
 H2866 H 1.14530 1.24748 0.90592
 H2867 H 1.08706 1.30636 0.88951
 H2868 H 1.07203 1.26767 0.88114
 C2869 C 1.12204 0.78355 0.38139
 C2870 C 1.10938 0.80620 0.38392
 C2871 C 1.11887 0.82785 0.37335
 C2872 C 1.14122 0.82725 0.36034
 C2873 C 1.15404 0.80488 0.35797
 C2874 C 1.14449 0.78320 0.36824
 C2875 C 1.11184 0.76031 0.39211
 C2876 C 1.12773 0.74218 0.40188
 C2877 C 1.11833 0.71991 0.41100
 C2878 C 1.09275 0.71528 0.41094
 C2879 C 1.07680 0.73358 0.40159
 C2880 C 1.08623 0.75577 0.39218
 H2881 H 1.10888 0.84510 0.37532
 H2882 H 1.17123 0.80421 0.34774
 H2883 H 1.13123 0.70614 0.41770
 H2884 H 1.05697 0.73079 0.40155
 H2885 H 1.15448 0.76607 0.36545
 H2886 H 1.14751 0.74517 0.40250
 H2887 H 1.09227 0.80725 0.39422
 H2888 H 1.07345 0.76917 0.38455
 C2889 C 0.62173 1.28245 0.38059
 C2890 C 0.60610 1.30096 0.37103
 C2891 C 0.61592 1.32281 0.36126
 C2892 C 0.64161 1.32650 0.36028
 C2893 C 0.65725 1.30812 0.36992
 C2894 C 0.64744 1.28653 0.38020
 C2895 C 0.61134 1.25887 0.39051
 C2896 C 0.62451 1.23650 0.38806
 C2897 C 0.61493 1.21441 0.39746
 C2898 C 0.59176 1.21409 0.40898
 C2899 C 0.57833 1.23612 0.41124
 C2900 C 0.58813 1.25837 0.40234
 H2901 H 0.60343 1.33674 0.35411
 H2902 H 0.67713 1.31036 0.36928
 H2903 H 0.62542 1.19746 0.39542
 H2904 H 0.56045 1.23614 0.42024
 H2905 H 0.66010 1.27306 0.38787
 H2906 H 0.64210 1.23590 0.37857
 H2907 H 0.58626 1.29844 0.37059
 H2908 H 0.57762 1.27519 0.40503
 C2909 C 0.62025 0.78335 0.88293
 C2910 C 0.60478 0.80042 0.87078
 C2911 C 0.61450 0.82212 0.86053
 C2912 C 0.64003 0.82696 0.86149
 C2913 C 0.65536 0.81025 0.87422
 C2914 C 0.64559 0.78891 0.88499
 C2915 C 0.61025 0.75960 0.89286
 C2916 C 0.62495 0.73806 0.89292
 C2917 C 0.61574 0.71578 0.90219
 C2918 C 0.59147 0.71433 0.91106
 C2919 C 0.57655 0.73553 0.91080
 C2920 C 0.58592 0.75803 0.90205
 H2921 H 0.60210 0.83492 0.85142
 H2922 H 0.67507 0.81344 0.87555
 H2923 H 0.62742 0.69949 0.90200
 H2924 H 0.55777 0.73473 0.91771
 H2925 H 0.65802 0.77671 0.89484
 H2926 H 0.64348 0.73822 0.88542
 H2927 H 0.58522 0.79683 0.86860
 H2928 H 0.57415 0.77420 0.90275
 C2929 C 0.88115 1.28375 1.11978
 C2930 C 0.88879 1.29219 1.14306
 C2931 C 0.87863 1.31369 1.15318
 C2932 C 0.86075 1.32746 1.14011
 C2933 C 0.85364 1.31917 1.11647
 C2934 C 0.86357 1.29749 1.10654
 C2935 C 0.89100 1.26032 1.10961
 C2936 C 0.87486 1.24257 1.09971
 C2937 C 0.88396 1.22016 1.09066
 C2938 C 0.90948 1.21512 1.09100
 C2939 C 0.92564 1.23306 1.10073
 C2940 C 0.91647 1.25536 1.11009
 H2941 H 0.88454 1.31922 1.17144
 H2942 H 0.84029 1.32936 1.10561
 H2943 H 0.87091 1.20659 1.08385
 H2944 H 0.94542 1.22999 1.10091
 H2945 H 0.85761 1.29149 1.08841
 H2946 H 0.85510 1.24582 1.09947
 H2947 H 0.90218 1.28179 1.15372
 H2948 H 0.92931 1.26888 1.11743
 C2949 C 0.87833 0.78212 0.62328
 C2950 C 0.85524 0.78223 0.63533
 C2951 C 0.84537 0.80423 0.64461
 C2952 C 0.85850 0.82645 0.64232
 C2953 C 0.88163 0.82651 0.63074
 C2954 C 0.89139 0.80459 0.62112
 C2955 C 0.88862 0.75875 0.61293
 C2956 C 0.91421 0.75413 0.61330
 C2957 C 0.92381 0.73223 0.60347
 C2958 C 0.90805 0.71422 0.59326
 C2959 C 0.88245 0.71879 0.59301
 C2960 C 0.87289 0.74082 0.60254
 H2961 H 0.82757 0.80400 0.65376
 H2962 H 0.89187 0.84363 0.62885
 H2963 H 0.94364 0.72950 0.60373
 H2964 H 0.86968 0.70521 0.58570
 H2965 H 0.90899 0.80535 0.61163
 H2966 H 0.92689 0.76732 0.62145
 H2967 H 0.84488 0.76527 0.63784
 H2968 H 0.85314 0.74384 0.60155
 C2969 C 0.38036 1.28342 0.61991
 C2970 C 0.38839 1.29201 0.64301
 C2971 C 0.37832 1.31351 0.65322
 C2972 C 0.36014 1.32714 0.64041
 C2973 C 0.35266 1.31870 0.61694
 C2974 C 0.36250 1.29702 0.60693
 C2975 C 0.39015 1.26001 0.60964
 C2976 C 0.37394 1.24215 0.60005
 C2977 C 0.38300 1.21976 0.59089
 C2978 C 0.40855 1.21485 0.59081
 C2979 C 0.42478 1.23292 0.60021
 C2980 C 0.41566 1.25519 0.60967
 H2981 H 0.38455 1.31916 0.67134
 H2982 H 0.33907 1.32877 0.60626
 H2983 H 0.36991 1.20610 0.58433
 H2984 H 0.44457 1.22996 0.60006
 H2985 H 0.35624 1.29092 0.58893
 H2986 H 0.35416 1.24529 0.60014
 H2987 H 0.40202 1.28171 0.65347
 H2988 H 0.42854 1.26880 0.61676
 C2989 C 0.37806 0.78175 1.12299
 C2990 C 0.38007 0.78719 1.14822
 C2991 C 0.37039 0.80926 1.15759
 C2992 C 0.35926 0.82667 1.14175
 C2993 C 0.35727 0.82102 1.11645
 C2994 C 0.36638 0.79867 1.10721
 C2995 C 0.38806 0.75837 1.11311
 C2996 C 0.37235 0.74132 1.10154
 C2997 C 0.38175 0.71908 1.09233
 C2998 C 0.40720 0.71370 1.09393
 C2999 C 0.42288 0.73110 1.10537
 C3000 C 0.41334 0.75307 1.11511
 H3001 H 0.37155 0.81268 1.17725
 H3002 H 0.34878 0.83400 1.10379
 H3003 H 0.36893 0.70598 1.08427
 H3004 H 0.44260 0.72795 1.10655
 H3005 H 0.36468 0.79474 1.08767
 H3006 H 0.35273 0.74506 1.10003
 H3007 H 0.38877 0.77415 1.16070
 H3008 H 0.42575 0.76617 1.12384
 C3009 C 0.87785 0.71853 0.87753
 C3010 C 0.86287 0.71891 0.85632
 C3011 C 0.85341 0.69689 0.84663
 C3012 C 0.85844 0.67427 0.85825
 C3013 C 0.87320 0.67379 0.87950
 C3014 C 0.88304 0.69575 0.88898
 C3015 C 0.88794 0.74185 0.88773
 C3016 C 0.91314 0.74384 0.89369
 C3017 C 0.92268 0.76601 0.90303
 C3018 C 0.90707 0.78639 0.90699
 C3019 C 0.88183 0.78432 0.90124
 C3020 C 0.87239 0.76231 0.89151
 H3021 H 0.84208 0.69739 0.83015
 H3022 H 0.87718 0.65636 0.88856
 H3023 H 0.94218 0.76719 0.90742
 H3024 H 0.86949 0.79986 0.90399
 H3025 H 0.89440 0.69504 0.90545
 H3026 H 0.92550 0.72834 0.89079
 H3027 H 0.85879 0.73622 0.84708
 H3028 H 0.85287 0.76115 0.88718
 C3029 C 0.88051 0.21557 0.38058
 C3030 C 0.89186 0.20412 0.36027
 C3031 C 0.88224 0.18222 0.35043
 C3032 C 0.86087 0.17122 0.36057
 C3033 C 0.84994 0.18252 0.38133
 C3034 C 0.85958 0.20440 0.39112
 C3035 C 0.89020 0.23929 0.39052
 C3036 C 0.87385 0.25814 0.39779
 C3037 C 0.88286 0.28060 0.40687
 C3038 C 0.90844 0.28473 0.40891
 C3039 C 0.92481 0.26588 0.40167
 C3040 C 0.91579 0.24340 0.39258
 H3041 H 0.89153 0.17409 0.33472
 H3042 H 0.83380 0.17459 0.39009
 H3043 H 0.86980 0.29492 0.41187
 H3044 H 0.94460 0.26843 0.40332
 H3045 H 0.85070 0.21252 0.40710
 H3046 H 0.85406 0.25572 0.39601
 H3047 H 0.90793 0.21236 0.35163
 H3048 H 0.92884 0.22911 0.38745
 C3049 C 0.37789 0.71834 0.37674
 C3050 C 0.37981 0.71296 0.35149
 C3051 C 0.37003 0.69094 0.34208
 C3052 C 0.35887 0.67352 0.35790
 C3053 C 0.35696 0.67912 0.38321
 C3054 C 0.36618 0.70141 0.39249
 C3055 C 0.38801 0.74166 0.38667
 C3056 C 0.37242 0.75870 0.39838
 C3057 C 0.38193 0.78087 0.40768
 C3058 C 0.40740 0.78619 0.40601
 C3059 C 0.42296 0.76881 0.39443
 C3060 C 0.41330 0.74691 0.38461
 H3061 H 0.37113 0.68755 0.32241
 H3062 H 0.34845 0.66613 0.39585
 H3063 H 0.36920 0.79395 0.41584
 H3064 H 0.44269 0.77192 0.39320
 H3065 H 0.36455 0.70530 0.41204
 H3066 H 0.35280 0.75500 0.39994
 H3067 H 0.38854 0.72600 0.33903
 H3068 H 0.42563 0.73383 0.37578
 C3069 C 0.37829 0.21827 0.87638
 C3070 C 0.35532 0.21812 0.86408
 C3071 C 0.34553 0.19608 0.85477
 C3072 C 0.35862 0.17387 0.85727
 C3073 C 0.38165 0.17386 0.86907
 C3074 C 0.39134 0.19582 0.87872
 C3075 C 0.38846 0.24166 0.88685
 C3076 C 0.41405 0.24631 0.88677
 C3077 C 0.42353 0.26825 0.89668
 C3078 C 0.40766 0.28626 0.90666
 C3079 C 0.38206 0.28164 0.90665
 C3080 C 0.37262 0.25958 0.89705
 H3081 H 0.32778 0.19626 0.84551
 H3082 H 0.39184 0.15674 0.87115
 H3083 H 0.44336 0.27101 0.89664
 H3084 H 0.36921 0.29522 0.91378
 H3085 H 0.40884 0.19509 0.88839
 H3086 H 0.42682 0.23314 0.87879
 H3087 H 0.34498 0.23506 0.86144
 H3088 H 0.35285 0.25653 0.89782
 C3089 C 1.12229 0.71781 1.12064
 C3090 C 1.14801 0.71388 1.12134
 C3091 C 1.15780 0.69236 1.13173
 C3092 C 1.14216 0.67386 1.14116
 C3093 C 1.11646 0.67744 1.13997
 C3094 C 1.10664 0.69924 1.13010
 C3095 C 1.11191 0.74126 1.11041
 C3096 C 1.08885 0.74152 1.09827
 C3097 C 1.07909 0.76363 1.08901
 C3098 C 1.09241 0.78575 1.09121
 C3099 C 1.11543 0.78566 1.10304
 C3100 C 1.12497 0.76372 1.11279
 H3101 H 1.17769 0.69021 1.13253
 H3102 H 1.10397 0.66342 1.14696
 H3103 H 1.06131 0.76343 1.07979
 H3104 H 1.12583 0.80269 1.10506
 H3105 H 1.08679 0.70165 1.13031
 H3106 H 1.07843 0.72463 1.09561
 H3107 H 1.16069 0.72740 1.11377
 H3108 H 1.14244 0.76450 1.12252
 C3109 C 1.12080 0.21730 0.61987
 C3110 C 1.13718 0.21783 0.64006
 C3111 C 1.14700 0.19590 0.64956
 C3112 C 1.14061 0.17309 0.63907
 C3113 C 1.12451 0.17236 0.61884
 C3114 C 1.11466 0.19430 0.60928
 C3115 C 1.11008 0.24063 0.61005
 C3116 C 1.10764 0.24438 0.58447
 C3117 C 1.09793 0.26654 0.57529
 C3118 C 1.09038 0.28541 0.59148
 C3119 C 1.09262 0.28156 0.61706
 C3120 C 1.10235 0.25944 0.62623
 H3121 H 1.15949 0.19658 0.66518
 H3122 H 1.11939 0.15479 0.61071
 H3123 H 1.09623 0.26888 0.55550
 H3124 H 1.08723 0.29584 0.63000
 H3125 H 1.10189 0.19326 0.59391
 H3126 H 1.11362 0.23033 0.57153
 H3127 H 1.14256 0.23524 0.64838
 H3128 H 1.10370 0.25699 0.64603
 C3129 C 0.62052 0.71634 0.61947
 C3130 C 0.60630 0.69446 0.61953
 C3131 C 0.61579 0.67257 0.62954
 C3132 C 0.63983 0.67196 0.63908
 C3133 C 0.65421 0.69351 0.63887
 C3134 C 0.64458 0.71555 0.62946
 C3135 C 0.61036 0.73988 0.60920
 C3136 C 0.62605 0.75730 0.59791
 C3137 C 0.61676 0.77969 0.58898
 C3138 C 0.59136 0.78510 0.59047
 C3139 C 0.57557 0.76749 0.60133
 C3140 C 0.58497 0.74532 0.61080
 H3141 H 0.60457 0.65596 0.62956
 H3142 H 0.67271 0.69331 0.64652
 H3143 H 0.62966 0.79288 0.58121
 H3144 H 0.55586 0.77074 0.60249
 H3145 H 0.65592 0.73203 0.63040
 H3146 H 0.64562 0.75370 0.59583
 H3147 H 0.58793 0.69410 0.61162
 H3148 H 0.57228 0.73264 0.61967
 C3149 C 0.62228 0.21700 1.11967
 C3150 C 0.63914 0.21772 1.13945
 C3151 C 0.64889 0.19585 1.14915
 C3152 C 0.64191 0.17292 1.13930
 C3153 C 0.62534 0.17202 1.11946
 C3154 C 0.61561 0.19391 1.10965
 C3155 C 0.61152 0.24026 1.10977
 C3156 C 0.60882 0.24382 1.08420
 C3157 C 0.59900 0.26591 1.07496
 C3158 C 0.59153 0.28484 1.09111
 C3159 C 0.59405 0.28119 1.11668
 C3160 C 0.60395 0.25917 1.12590
 H3161 H 0.66172 0.19667 1.16448
 H3162 H 0.61976 0.15436 1.11183
 H3163 H 0.59711 0.26814 1.05517
 H3164 H 0.58872 0.29554 1.12957
 H3165 H 0.60249 0.19276 1.09459
 H3166 H 0.61467 0.22966 1.07131
 H3167 H 0.64489 0.23523 1.14733
 H3168 H 0.60553 0.25686 1.14571
 C3169 C 1.28304 1.12015 0.88014
 C3170 C 1.29680 1.13808 0.89288
 C3171 C 1.31838 1.14786 0.88258
 C3172 C 1.32655 1.14023 0.85907
 C3173 C 1.31274 1.12203 0.84649
 C3174 C 1.29134 1.11203 0.85698
 C3175 C 1.25978 1.11033 0.89073
 C3176 C 1.24205 1.12654 0.90055
 C3177 C 1.21974 1.11743 0.90985
 C3178 C 1.21478 1.09185 0.90983
 C3179 C 1.23276 1.07564 0.90031
 C3180 C 1.25494 1.08480 0.89071
 H3181 H 1.32859 1.16149 0.89309
 H3182 H 1.31817 1.11570 0.82834
 H3183 H 1.20616 1.13051 0.91655
 H3184 H 1.22977 1.05582 0.90040
 H3185 H 1.28092 1.09836 0.84669
 H3186 H 1.24522 1.14634 0.90047
 H3187 H 1.29092 1.14442 0.91091
 H3188 H 1.26846 1.07191 0.88348
 C3189 C 1.28257 0.62125 0.37898
 C3190 C 1.30473 0.60757 0.37994
 C3191 C 1.32651 0.61710 0.36979
 C3192 C 1.32668 0.64063 0.35892
 C3193 C 1.30481 0.65446 0.35808
 C3194 C 1.28292 0.64481 0.36779
 C3195 C 1.25921 0.61104 0.38945
 C3196 C 1.24163 0.62679 0.40036
 C3197 C 1.21943 0.61736 0.40959
 C3198 C 1.21434 0.59184 0.40862
 C3199 C 1.23207 0.57602 0.39806
 C3200 C 1.25411 0.58551 0.38844
 H3201 H 1.34336 0.60631 0.37063
 H3202 H 1.30469 0.67257 0.34949
 H3203 H 1.20611 0.63022 0.41718
 H3204 H 1.22900 0.55624 0.39729
 H3205 H 1.26620 0.65568 0.36616
 H3206 H 1.24501 0.64647 0.40192
 H3207 H 1.30536 0.58961 0.38878
 H3208 H 1.26698 0.57281 0.37988
 C3209 C 0.78353 1.11940 0.37874
 C3210 C 0.80643 1.10892 0.38532
 C3211 C 0.82845 1.11845 0.37564
 C3212 C 0.82786 1.13848 0.35925
 C3213 C 0.80514 1.14881 0.35238
 C3214 C 0.78313 1.13937 0.36206
 C3215 C 0.76014 1.10973 0.38936
 C3216 C 0.74139 1.12609 0.39685
 C3217 C 0.71919 1.11706 0.40649
 C3218 C 0.71522 1.09146 0.40883
 C3219 C 0.73402 1.07509 0.40151
 C3220 C 0.75627 1.08413 0.39193
 H3221 H 0.84596 1.11046 0.38113
 H3222 H 0.80457 1.16429 0.33969
 H3223 H 0.70495 1.13013 0.41171
 H3224 H 0.73156 1.05527 0.40329
 H3225 H 0.76579 1.14759 0.35636
 H3226 H 0.74393 1.14592 0.39538
 H3227 H 0.80734 1.09371 0.39832
 H3228 H 0.77029 1.07106 0.38614
 C3229 C 0.78326 0.62199 0.88053
 C3230 C 0.80606 0.60970 0.88326
 C3231 C 0.82760 0.61952 0.87281
 C3232 C 0.82672 0.64184 0.85968
 C3233 C 0.80418 0.65429 0.85708
 C3234 C 0.78262 0.64441 0.86728
 C3235 C 0.76016 0.61147 0.89121
 C3236 C 0.74190 0.62714 0.90102
 C3237 C 0.71983 0.61744 0.91025
 C3238 C 0.71552 0.59176 0.91023
 C3239 C 0.73392 0.57603 0.90074
 C3240 C 0.75593 0.58577 0.89127
 H3241 H 0.84497 0.60980 0.87493
 H3242 H 0.80326 0.67142 0.84673
 H3243 H 0.70595 0.63016 0.91705
 H3244 H 0.73134 0.55615 0.90069
 H3245 H 0.76537 0.65414 0.86436
 H3246 H 0.74464 0.64698 0.90163
 H3247 H 0.80732 0.59261 0.89363
 H3248 H 0.76945 0.57316 0.88360
 C3249 C 1.28291 0.87888 1.12092
 C3250 C 1.28333 0.85530 1.13205
 C3251 C 1.30528 0.84568 1.14167
 C3252 C 1.32712 0.85957 1.14078
 C3253 C 1.32687 0.88313 1.12998
 C3254 C 1.30503 0.89264 1.11994
 C3255 C 1.25949 0.88903 1.11051
 C3256 C 1.25430 0.91453 1.11161
 C3257 C 1.23221 0.92394 1.10202
 C3258 C 1.21453 0.90807 1.09141
 C3259 C 1.21971 0.88258 1.09038
 C3260 C 1.24196 0.87323 1.09956
 H3261 H 1.30522 0.82755 1.15021
 H3262 H 1.34370 0.89397 1.12912
 H3263 H 1.22906 0.94371 1.10286
 H3264 H 1.20643 0.86967 1.08277
 H3265 H 1.30559 0.91063 1.11115
 H3266 H 1.26714 0.92727 1.12019
 H3267 H 1.26664 0.84438 1.13371
 H3268 H 1.24540 0.85357 1.09795
 C3269 C 1.28208 0.37828 0.62211
 C3270 C 1.28228 0.35539 0.63460
 C3271 C 1.30428 0.34582 0.64416
 C3272 C 1.32640 0.35905 0.64171
 C3273 C 1.32636 0.38199 0.62969
 C3274 C 1.30444 0.39147 0.61980
 C3275 C 1.25870 0.38829 0.61153
 C3276 C 1.25395 0.41389 0.61154
 C3277 C 1.23196 0.42323 0.60169
 C3278 C 1.21398 0.40721 0.59184
 C3279 C 1.21873 0.38161 0.59182
 C3280 C 1.24085 0.37230 0.60137
 H3281 H 1.30414 0.32813 0.65358
 H3282 H 1.34342 0.39229 0.62763
 H3283 H 1.22910 0.44306 0.60172
 H3284 H 1.20520 0.36866 0.58475
 H3285 H 1.30513 0.40891 0.60998
 H3286 H 1.26707 0.42676 0.61947
 H3287 H 1.26539 0.34496 0.63722
 H3288 H 1.24400 0.35253 0.60065
 C3289 C 0.78214 0.87994 0.62110
 C3290 C 0.79073 0.88756 0.64440
 C3291 C 0.81236 0.87761 0.65439
 C3292 C 0.82622 0.85990 0.64127
 C3293 C 0.81787 0.85273 0.61769
 C3294 C 0.79607 0.86249 0.60782
 C3295 C 0.75857 0.88988 0.61092
 C3296 C 0.75585 0.89437 0.58545
 C3297 C 0.73357 0.90345 0.57597
 C3298 C 0.71365 0.90852 0.59178
 C3299 C 0.71631 0.90412 0.61719
 C3300 C 0.73845 0.89478 0.62664
 H3301 H 0.81802 0.88371 0.67256
 H3302 H 0.82808 0.83939 0.60683
 H3303 H 0.73201 0.90690 0.55633
 H3304 H 0.70108 0.90752 0.62972
 H3305 H 0.78991 0.85596 0.58995
 H3306 H 0.77105 0.89119 0.57285
 H3307 H 0.78076 0.90132 0.65496
 H3308 H 0.73964 0.89103 0.64624
 C3309 C 0.78220 0.37834 1.12231
 C3310 C 0.80440 0.39185 1.12027
 C3311 C 0.82646 0.38243 1.12990
 C3312 C 0.82682 0.35920 1.14134
 C3313 C 0.80488 0.34561 1.14348
 C3314 C 0.78273 0.35514 1.13421
 C3315 C 0.75866 0.38834 1.11206
 C3316 C 0.74092 0.37239 1.10167
 C3317 C 0.71868 0.38169 1.09237
 C3318 C 0.71371 0.40724 1.09286
 C3319 C 0.73156 0.42322 1.10300
 C3320 C 0.75366 0.41389 1.11261
 H3321 H 0.84337 0.39301 1.12811
 H3322 H 0.80497 0.32772 1.15250
 H3323 H 0.70525 0.36875 1.08509
 H3324 H 0.72854 0.44303 1.10341
 H3325 H 0.76599 0.34443 1.13662
 H3326 H 0.74424 0.35267 1.10053
 H3327 H 0.80485 0.40955 1.11089
 H3328 H 0.76668 0.42673 1.12076
 C3329 C 0.71834 1.12209 1.12030
 C3330 C 0.69553 1.11670 1.10897
 C3331 C 0.67350 1.12614 1.11866
 C3332 C 0.67392 1.14100 1.13982
 C3333 C 0.69653 1.14659 1.15111
 C3334 C 0.71857 1.13725 1.14144
 C3335 C 0.74178 1.11184 1.11026
 C3336 C 0.76046 1.10349 1.12628
 C3337 C 0.78258 1.09402 1.11694
 C3338 C 0.78656 1.09257 1.09133
 C3339 C 0.76786 1.10083 1.07528
 C3340 C 0.74573 1.11036 1.08464
 H3341 H 0.65608 1.12167 1.10986
 H3342 H 0.69700 1.15820 1.16740
 H3343 H 0.79673 1.08813 1.12981
 H3344 H 0.77027 1.09976 1.05546
 H3345 H 0.73582 1.14209 1.15036
 H3346 H 0.75791 1.10408 1.14610
 H3347 H 0.69467 1.10485 1.09288
 H3348 H 0.73182 1.11687 1.07179
 C3349 C 0.71652 0.62034 0.62027
 C3350 C 0.71550 0.62967 0.64456
 C3351 C 0.69338 0.63875 0.65427
 C3352 C 0.67197 0.63928 0.63975
 C3353 C 0.67280 0.63038 0.61550
 C3354 C 0.69477 0.62070 0.60592
 C3355 C 0.74013 0.61039 0.61004
 C3356 C 0.74574 0.61259 0.58475
 C3357 C 0.76790 0.60325 0.57527
 C3358 C 0.78532 0.59190 0.59089
 C3359 C 0.77979 0.58992 0.61621
 C3360 C 0.75742 0.59871 0.62557
 H3361 H 0.69305 0.64595 0.67292
 H3362 H 0.65632 0.63068 0.60414
 H3363 H 0.77126 0.60484 0.55564
 H3364 H 0.79286 0.58180 0.62900
 H3365 H 0.69457 0.61328 0.58737
 H3366 H 0.73317 0.62180 0.57221
 H3367 H 0.73187 0.63039 0.65603
 H3368 H 0.75371 0.59617 0.64503
 C3369 C 0.21706 1.12188 0.61963
 C3370 C 0.19415 1.11593 0.60880
 C3371 C 0.17218 1.12558 0.61841
 C3372 C 0.17278 1.14130 0.63894
 C3373 C 0.19551 1.14754 0.64965
 C3374 C 0.21748 1.13793 0.64010
 C3375 C 0.24041 1.11126 0.60983
 C3376 C 0.25911 1.10331 0.62603
 C3377 C 0.28121 1.09358 0.61688
 C3378 C 0.28514 1.09155 0.59131
 C3379 C 0.26639 1.09936 0.57509
 C3380 C 0.24427 1.10908 0.58425
 H3381 H 0.15467 1.12057 0.61010
 H3382 H 0.19611 1.15973 0.66551
 H3383 H 0.29539 1.08800 0.62986
 H3384 H 0.26880 1.09783 0.55530
 H3385 H 0.23482 1.14318 0.64862
 H3386 H 0.25659 1.10445 0.64583
 H3387 H 0.19318 1.10341 0.59321
 H3388 H 0.23031 1.11524 0.57129
 C3389 C 0.21852 0.62055 1.12219
 C3390 C 0.21483 0.62157 1.14790
 C3391 C 0.19324 0.63174 1.15772
 C3392 C 0.17450 0.64065 1.14210
 C3393 C 0.17786 0.63913 1.11643
 C3394 C 0.19969 0.62944 1.10658
 C3395 C 0.24203 0.61060 1.11177
 C3396 C 0.24225 0.59788 1.08905
 C3397 C 0.26440 0.58883 1.07926
 C3398 C 0.28660 0.59188 1.09221
 C3399 C 0.28656 0.60433 1.11487
 C3400 C 0.26456 0.61384 1.12445
 H3401 H 0.19124 0.63283 1.17758
 H3402 H 0.16365 0.64574 1.10398
 H3403 H 0.26418 0.57911 1.06177
 H3404 H 0.30365 0.60696 1.12499
 H3405 H 0.20192 0.62938 1.08673
 H3406 H 0.22531 0.59459 1.07895
 H3407 H 0.22859 0.61445 1.16055
 H3408 H 0.26533 0.62401 1.14164
 C3409 C 0.71651 0.88014 0.87845
 C3410 C 0.71637 0.86870 0.85508
 C3411 C 0.69462 0.85867 0.84545
 C3412 C 0.67269 0.85943 0.85916
 C3413 C 0.67263 0.87055 0.88250
 C3414 C 0.69428 0.88103 0.89199
 C3415 C 0.73977 0.89086 0.88864
 C3416 C 0.74476 0.89007 0.91414
 C3417 C 0.76680 0.89975 0.92357
 C3418 C 0.78463 0.91011 0.90774
 C3419 C 0.77961 0.91093 0.88227
 C3420 C 0.75740 0.90168 0.87289
 H3421 H 0.69489 0.84988 0.82749
 H3422 H 0.65573 0.87130 0.89318
 H3423 H 0.76981 0.89911 0.94333
 H3424 H 0.79300 0.91836 0.86940
 H3425 H 0.69350 0.89005 0.90981
 H3426 H 0.73183 0.88160 0.92685
 H3427 H 0.73315 0.86709 0.84432
 H3428 H 0.75409 0.90308 0.85323
 C3429 C 0.71734 0.38071 0.37882
 C3430 C 0.69886 0.37170 0.39458
 C3431 C 0.67715 0.36164 0.38480
 C3432 C 0.67383 0.35991 0.35908
 C3433 C 0.69250 0.36899 0.34340
 C3434 C 0.71396 0.37952 0.35320
 C3435 C 0.74053 0.39057 0.38905
 C3436 C 0.75779 0.37448 0.39969
 C3437 C 0.78020 0.38359 0.40874
 C3438 C 0.78557 0.40910 0.40778
 C3439 C 0.76794 0.42518 0.39731
 C3440 C 0.74573 0.41595 0.38780
 H3441 H 0.66299 0.35501 0.39728
 H3442 H 0.69060 0.36761 0.32354
 H3443 H 0.79347 0.37052 0.41607
 H3444 H 0.77117 0.44495 0.39662
 H3445 H 0.72819 0.38625 0.34082
 H3446 H 0.75409 0.35478 0.40054
 H3447 H 0.70126 0.37252 0.41442
 H3448 H 0.73249 0.42859 0.37967
 C3449 C 0.21802 0.87815 0.37813
 C3450 C 0.19570 0.88054 0.39130
 C3451 C 0.17368 0.87090 0.38178
 C3452 C 0.17349 0.85909 0.35879
 C3453 C 0.19556 0.85663 0.34552
 C3454 C 0.21766 0.86593 0.35514
 C3455 C 0.24154 0.88836 0.38824
 C3456 C 0.25949 0.89849 0.37241
 C3457 C 0.28167 0.90781 0.38181
 C3458 C 0.28638 0.90761 0.40736
 C3459 C 0.26835 0.89768 0.42323
 C3460 C 0.24629 0.88804 0.41379
 H3461 H 0.15668 0.87290 0.39214
 H3462 H 0.19561 0.84729 0.32783
 H3463 H 0.29526 0.91491 0.36896
 H3464 H 0.27118 0.89747 0.44302
 H3465 H 0.23450 0.86325 0.34470
 H3466 H 0.25638 0.89943 0.35268
 H3467 H 0.19513 0.89017 0.40881
 H3468 H 0.23309 0.88008 0.42654
 C3469 C 0.21541 0.38188 0.87997
 C3470 C 0.21416 0.37219 0.85583
 C3471 C 0.19199 0.36277 0.84654
 C3472 C 0.17077 0.36227 0.86132
 C3473 C 0.17183 0.37157 0.88541
 C3474 C 0.19384 0.38158 0.89457
 C3475 C 0.23912 0.39201 0.88983
 C3476 C 0.24500 0.39004 0.91508
 C3477 C 0.26733 0.39934 0.92422
 C3478 C 0.28468 0.41038 0.90830
 C3479 C 0.27883 0.41225 0.88305
 C3480 C 0.25628 0.40350 0.87402
 H3481 H 0.19146 0.35530 0.82799
 H3482 H 0.15549 0.37132 0.89695
 H3483 H 0.27090 0.39789 0.94383
 H3484 H 0.29180 0.42019 0.87005
 H3485 H 0.19382 0.38928 0.91301
 H3486 H 0.23254 0.38100 0.92785
 H3487 H 0.23039 0.37144 0.84419
 H3488 H 0.25234 0.40587 0.85457
   
