data_POSCAR
  _audit_creation_date              2014-09-24
  _audit_creation_method            'ToBaCCo'
  _symmetry_space_group_name_H-M    'P1'
  _symmetry_Int_Tables_number       1
  _symmetry_cell_setting            triclinic
  loop_
  _symmetry_equiv_pos_as_xyz
 x,y,z
_cell_length_a 59.6783
_cell_length_b 59.7978
_cell_length_c 59.9850
_cell_angle_alpha 91.822700
_cell_angle_beta 92.027800
_cell_angle_gamma 92.005700
loop_
  _atom_site_label
  _atom_site_type_symbol
  _atom_site_fract_x
  _atom_site_fract_y
  _atom_site_fract_z
N1 N 0.17625 0.22711 0.23289
 N2 N 0.18275 0.20931 0.24326
 C3 C 0.16916 0.20552 0.26028
 C4 C 0.15323 0.22183 0.26061
 C5 C 0.15832 0.23525 0.24293
 H6 H 0.17081 0.19195 0.27162
 H7 H 0.14948 0.24969 0.23749
 Cu8 Cu 0.20812 0.19266 0.23326
 Cu9 Cu 0.19120 0.23826 0.20695
 Cu10 Cu 0.23703 0.20932 0.18929
 N11 N 0.23410 0.17688 0.22343
 N12 N 0.24531 0.18349 0.20623
 C13 C 0.26222 0.16965 0.20282
 C14 C 0.26164 0.15339 0.21876
 C15 C 0.24354 0.15857 0.23158
 H16 H 0.27408 0.17141 0.18974
 H17 H 0.23748 0.14952 0.24560
 N18 N 0.22603 0.23585 0.17437
 N19 N 0.20857 0.24686 0.18106
 C20 C 0.20510 0.26389 0.16736
 C21 C 0.22115 0.26363 0.15124
 C22 C 0.23413 0.24560 0.15626
 H23 H 0.19191 0.27568 0.16907
 H24 H 0.24822 0.23976 0.14719
 H25 H 0.20334 0.20796 0.19627
 H26 H 0.22223 0.22603 0.21532
 N27 N 0.67456 0.72631 0.73346
 N28 N 0.68097 0.70841 0.74374
 C29 C 0.66724 0.70451 0.76062
 C30 C 0.65131 0.72083 0.76095
 C31 C 0.65656 0.73439 0.74342
 H32 H 0.66879 0.69084 0.77186
 H33 H 0.64779 0.74888 0.73803
 Cu34 Cu 0.70638 0.69181 0.73377
 Cu35 Cu 0.68974 0.73768 0.70775
 Cu36 Cu 0.73557 0.70872 0.69013
 N37 N 0.73236 0.67598 0.72396
 N38 N 0.74365 0.68271 0.70686
 C39 C 0.76055 0.66887 0.70341
 C40 C 0.75987 0.65247 0.71920
 C41 C 0.74172 0.65758 0.73199
 H42 H 0.77246 0.67074 0.69039
 H43 H 0.73558 0.64844 0.74591
 N44 N 0.72478 0.73543 0.67541
 N45 N 0.70735 0.74647 0.68208
 C46 C 0.70407 0.76366 0.66853
 C47 C 0.72022 0.76346 0.65251
 C48 C 0.73305 0.74529 0.65745
 H49 H 0.69093 0.77550 0.67026
 H50 H 0.74716 0.73944 0.64841
 H51 H 0.70181 0.70744 0.69691
 H52 H 0.72066 0.72532 0.71618
 N53 N 0.31516 0.75112 0.74376
 N54 N 0.31088 0.76978 0.75471
 C55 C 0.32553 0.77259 0.77231
 C56 C 0.33980 0.75473 0.77238
 C57 C 0.33254 0.74146 0.75397
 H58 H 0.32608 0.78685 0.78386
 H59 H 0.33959 0.72609 0.74803
 Cu60 Cu 0.28708 0.78890 0.74430
 Cu61 Cu 0.29904 0.74117 0.71624
 Cu62 Cu 0.25589 0.77389 0.69811
 N63 N 0.26208 0.80665 0.73409
 N64 N 0.24995 0.80038 0.71615
 C65 C 0.23394 0.81522 0.71259
 C66 C 0.23596 0.83198 0.72917
 C67 C 0.25415 0.82585 0.74257
 H68 H 0.22193 0.81383 0.69870
 H69 H 0.26114 0.83461 0.75738
 N70 N 0.26431 0.74653 0.68196
 N71 N 0.28076 0.73397 0.68875
 C72 C 0.28302 0.71718 0.67353
 C73 C 0.26720 0.71929 0.65627
 C74 C 0.25566 0.73812 0.66233
 H75 H 0.29559 0.70467 0.67471
 H76 H 0.24242 0.74568 0.65282
 H77 H 0.28977 0.77244 0.70677
 H78 H 0.26981 0.75635 0.72411
 N79 N 0.81676 0.24981 0.24431
 N80 N 0.81172 0.26775 0.25602
 C81 C 0.82641 0.27058 0.27356
 C82 C 0.84162 0.25347 0.27284
 C83 C 0.83473 0.24060 0.25396
 H84 H 0.82625 0.28440 0.28559
 H85 H 0.84241 0.22589 0.24722
 Cu86 Cu 0.78710 0.28629 0.24666
 Cu87 Cu 0.80068 0.24030 0.21664
 Cu88 Cu 0.75798 0.27368 0.19855
 N89 N 0.76344 0.30521 0.23562
 N90 N 0.75221 0.30009 0.21682
 C91 C 0.73714 0.31580 0.21288
 C92 C 0.73891 0.33179 0.23012
 C93 C 0.75582 0.32446 0.24430
 H94 H 0.72561 0.31545 0.19857
 H95 H 0.76227 0.33264 0.25964
 N96 N 0.76619 0.24631 0.18224
 N97 N 0.78244 0.23351 0.18904
 C98 C 0.78453 0.21671 0.17380
 C99 C 0.76881 0.21906 0.15650
 C100 C 0.75750 0.23804 0.16257
 H101 H 0.79689 0.20401 0.17502
 H102 H 0.74433 0.24575 0.15307
 H103 H 0.79152 0.27207 0.20857
 H104 H 0.77090 0.25474 0.22398
 N105 N 0.80837 0.73688 0.26448
 N106 N 0.80248 0.71814 0.25342
 C107 C 0.81757 0.71408 0.23780
 C108 C 0.83390 0.73116 0.23904
 C109 C 0.82743 0.74538 0.25620
 H110 H 0.81660 0.69985 0.22620
 H111 H 0.83603 0.76065 0.26241
 Cu112 Cu 0.77581 0.70073 0.26064
 Cu113 Cu 0.79086 0.74852 0.28889
 Cu114 Cu 0.74288 0.71740 0.30161
 N115 N 0.74913 0.68333 0.26785
 N116 N 0.73617 0.68988 0.28385
 C117 C 0.71949 0.67437 0.28589
 C118 C 0.72215 0.65709 0.27029
 C119 C 0.74119 0.66349 0.25916
 H120 H 0.70670 0.67545 0.29815
 H121 H 0.74912 0.65412 0.24612
 N122 N 0.75259 0.74566 0.31760
 N123 N 0.77086 0.75741 0.31293
 C124 C 0.77336 0.77508 0.32744
 C125 C 0.75584 0.77448 0.34203
 C126 C 0.74301 0.75556 0.33514
 H127 H 0.78726 0.78717 0.32768
 H128 H 0.72802 0.74910 0.34261
 H129 H 0.77729 0.71801 0.29803
 H130 H 0.76045 0.73409 0.27768
 N131 N 0.30938 0.23484 -0.23400
 N132 N 0.30543 0.21450 -0.24240
 C133 C 0.32036 0.21014 -0.25808
 C134 C 0.33472 0.22879 -0.25969
 C135 C 0.32710 0.24415 -0.24400
 H136 H 0.32055 0.19447 -0.26751
 H137 H 0.33375 0.26090 -0.24008
 Cu138 Cu 0.28130 0.19534 -0.23221
 Cu139 Cu 0.29105 0.24753 -0.21076
 Cu140 Cu 0.24311 0.21653 -0.19840
 N141 N 0.25264 0.18002 -0.22832
 N142 N 0.23765 0.18820 -0.21511
 C143 C 0.21989 0.17365 -0.21489
 C144 C 0.22398 0.15537 -0.22882
 C145 C 0.24497 0.16011 -0.23704
 H146 H 0.20526 0.17611 -0.20511
 H147 H 0.25435 0.14962 -0.24805
 N148 N 0.25184 0.24552 -0.18334
 N149 N 0.27018 0.25723 -0.18784
 C150 C 0.27226 0.27524 -0.17375
 C151 C 0.25437 0.27489 -0.15958
 C152 C 0.24177 0.25577 -0.16631
 H153 H 0.28624 0.28723 -0.17333
 H154 H 0.22673 0.24930 -0.15894
 H155 H 0.27783 0.21821 -0.19824
 H156 H 0.26270 0.22967 -0.22298
 N157 N 0.68027 0.26394 -0.25098
 N158 N 0.68677 0.28065 -0.26317
 C159 C 0.67125 0.28321 -0.27971
 C160 C 0.65399 0.26717 -0.27777
 C161 C 0.66057 0.25522 -0.25930
 H162 H 0.67228 0.29612 -0.29187
 H163 H 0.65152 0.24162 -0.25181
 Cu164 Cu 0.71440 0.29778 -0.25495
 Cu165 Cu 0.69674 0.25552 -0.22413
 Cu166 Cu 0.74543 0.28662 -0.20910
 N167 N 0.74176 0.31525 -0.24669
 N168 N 0.75376 0.31083 -0.22867
 C169 C 0.77122 0.32569 -0.22629
 C170 C 0.77018 0.34035 -0.24375
 C171 C 0.75119 0.33309 -0.25636
 H172 H 0.78342 0.32602 -0.21253
 H173 H 0.74444 0.34045 -0.27126
 N174 N 0.73407 0.26139 -0.19167
 N175 N 0.71560 0.24956 -0.19755
 C176 C 0.71208 0.23381 -0.18241
 C177 C 0.72908 0.23573 -0.16610
 C178 C 0.74277 0.25341 -0.17258
 H179 H 0.69816 0.22175 -0.18329
 H180 H 0.75781 0.26015 -0.16391
 H181 H 0.71145 0.28682 -0.21641
 H182 H 0.72812 0.26705 -0.23321
 N183 N 0.17844 0.77136 0.25382
 N184 N 0.18685 0.78525 0.23952
 C185 C 0.17265 0.78584 0.22157
 C186 C 0.15433 0.77151 0.22485
 C187 C 0.15870 0.76267 0.24557
 H188 H 0.17524 0.79622 0.20740
 H189 H 0.14805 0.75128 0.25444
 Cu190 Cu 0.21471 0.80217 0.24704
 Cu191 Cu 0.19272 0.76657 0.28282
 Cu192 Cu 0.24669 0.78944 0.29190
 N193 N 0.24295 0.81831 0.25453
 N194 N 0.25541 0.81324 0.27201
 C195 C 0.27332 0.82758 0.27401
 C196 C 0.27210 0.84264 0.25683
 C197 C 0.25251 0.83602 0.24478
 H198 H 0.28588 0.82731 0.28741
 H199 H 0.24524 0.84381 0.23038
 N200 N 0.23378 0.76585 0.31041
 N201 N 0.21305 0.75772 0.30723
 C202 C 0.20898 0.74217 0.32241
 C203 C 0.22805 0.74034 0.33600
 C204 C 0.24344 0.75571 0.32785
 H205 H 0.19327 0.73279 0.32330
 H206 H 0.26047 0.75918 0.33402
 H207 H 0.21376 0.79544 0.28695
 H208 H 0.22425 0.77127 0.27031
 N209 N 0.48235 0.42975 0.48847
 N210 N 0.46499 0.43633 0.49951
 C211 C 0.46164 0.42250 0.51647
 C212 C 0.47768 0.40631 0.51596
 C213 C 0.49052 0.41144 0.49790
 H214 H 0.44826 0.42383 0.52806
 H215 H 0.50484 0.40263 0.49214
 Cu216 Cu 0.44811 0.46197 0.49028
 Cu217 Cu 0.49307 0.44548 0.46272
 Cu218 Cu 0.46387 0.49176 0.44653
 N219 N 0.43194 0.48811 0.48118
 N220 N 0.43842 0.49980 0.46423
 C221 C 0.42464 0.51690 0.46147
 C222 C 0.40851 0.51589 0.47749
 C223 C 0.41366 0.49733 0.48970
 H224 H 0.42598 0.52890 0.44844
 H225 H 0.40482 0.49112 0.50379
 N226 N 0.49006 0.48100 0.43076
 N227 N 0.50132 0.46355 0.43713
 C228 C 0.51829 0.46051 0.42327
 C229 C 0.51766 0.47673 0.40732
 C230 C 0.49949 0.48939 0.41257
 H231 H 0.53002 0.44720 0.42442
 H232 H 0.49370 0.50378 0.40388
 H233 H 0.48115 0.47637 0.47189
 H234 H 0.46255 0.45800 0.45288
 N235 N -0.01554 -0.06972 0.98759
 N236 N -0.03246 -0.06283 0.99911
 C237 C -0.03569 -0.07666 1.01606
 C238 C -0.02000 -0.09316 1.01512
 C239 C -0.00751 -0.08823 0.99676
 H240 H -0.04875 -0.07510 1.02797
 H241 H 0.00650 -0.09730 0.99063
 Cu242 Cu -0.04902 -0.03675 0.99065
 Cu243 Cu -0.00518 -0.05401 0.96170
 Cu244 Cu -0.03468 -0.00784 0.94580
 N245 N -0.06587 -0.01123 0.98109
 N246 N -0.05993 0.00019 0.96376
 C247 C -0.07407 0.01698 0.96091
 C248 C -0.08986 0.01602 0.97726
 C249 C -0.08416 -0.00217 0.98974
 H250 H -0.07318 0.02876 0.94764
 H251 H -0.09261 -0.00821 1.00414
 N252 N -0.00865 -0.01854 0.92974
 N253 N 0.00273 -0.03595 0.93598
 C254 C 0.01957 -0.03894 0.92195
 C255 C 0.01871 -0.02272 0.90601
 C256 C 0.00056 -0.01011 0.91146
 H257 H 0.03135 -0.05221 0.92298
 H258 H -0.00536 0.00426 0.90283
 H259 H -0.01661 -0.02293 0.97080
 H260 H -0.03599 -0.04150 0.95278
 N261 N 1.03092 0.58970 0.97184
 N262 N 1.04998 0.58720 0.98297
 C263 C 1.05187 0.60270 0.99986
 C264 C 1.03287 0.61547 0.99926
 C265 C 1.02007 0.60670 0.98117
 H266 H 1.06570 0.60422 1.01201
 H267 H 1.00396 0.61221 0.97518
 Cu268 Cu 1.06963 0.56318 0.97440
 Cu269 Cu 1.02089 0.57051 0.94643
 Cu270 Cu 1.05638 0.52919 0.92962
 N271 N 1.08938 0.53961 0.96495
 N272 N 1.08426 0.52687 0.94709
 C273 C 1.09990 0.51143 0.94473
 C274 C 1.11567 0.51440 0.96212
 C275 C 1.10845 0.53250 0.97465
 H276 H 1.09910 0.49815 0.93203
 H277 H 1.11618 0.53955 0.98999
 N278 N 1.02732 0.53411 0.91427
 N279 N 1.01363 0.54956 0.92107
 C280 C 0.99481 0.54825 0.90802
 C281 C 0.99668 0.53118 0.89217
 C282 C 1.01757 0.52263 0.89657
 H283 H 0.98085 0.55912 0.90973
 H284 H 1.02492 0.50879 0.88780
 H285 H 1.03832 0.54250 0.95518
 H286 H 1.05269 0.56273 0.93683
 N287 N 0.53247 0.08971 0.47240
 N288 N 0.55174 0.08761 0.48328
 C289 C 0.55339 0.10296 0.50033
 C290 C 0.53403 0.11521 0.50007
 C291 C 0.52127 0.10629 0.48202
 H292 H 0.56737 0.10477 0.51229
 H293 H 0.50498 0.11147 0.47621
 Cu294 Cu 0.57224 0.06454 0.47407
 Cu295 Cu 0.52273 0.07067 0.44685
 Cu296 Cu 0.55833 0.02962 0.42991
 N297 N 0.59136 0.04022 0.46511
 N298 N 0.58609 0.02724 0.44747
 C299 C 0.60156 0.01158 0.44536
 C300 C 0.61737 0.01468 0.46270
 C301 C 0.61034 0.03304 0.47495
 H302 H 0.60066 -0.00186 0.43285
 H303 H 0.61818 0.04030 0.49015
 N304 N 0.52935 0.03458 0.41446
 N305 N 0.51563 0.04996 0.42132
 C306 C 0.49684 0.04870 0.40824
 C307 C 0.49874 0.03171 0.39232
 C308 C 0.51965 0.02317 0.39669
 H309 H 0.48284 0.05952 0.41001
 H310 H 0.52703 0.00938 0.38787
 H311 H 0.54088 0.04312 0.45580
 H312 H 0.55448 0.06319 0.43671
 N313 N -0.03666 0.09710 0.54258
 N314 N -0.05416 0.09100 0.52959
 C315 C -0.05600 0.10531 0.51285
 C316 C -0.03865 0.12127 0.51534
 C317 C -0.02670 0.11554 0.53447
 H318 H -0.06844 0.10357 0.49930
 H319 H -0.01164 0.12383 0.54171
 Cu320 Cu -0.07217 0.06407 0.53460
 Cu321 Cu -0.02796 0.07980 0.56842
 Cu322 Cu -0.04451 0.02400 0.56056
 N323 N -0.08438 0.03359 0.53500
 N324 N -0.07325 0.01794 0.54493
 C325 C -0.08488 -0.00166 0.54228
 C326 C -0.10456 0.00180 0.53006
 C327 C -0.10361 0.02450 0.52573
 H328 H -0.07941 -0.01713 0.54914
 H329 H -0.11582 0.03377 0.51645
 N330 N -0.02119 0.03471 0.58280
 N331 N -0.01527 0.05600 0.58645
 C332 C -0.00018 0.05777 0.60374
 C333 C 0.00347 0.03648 0.61148
 C334 C -0.01018 0.02238 0.59765
 H335 H 0.00731 0.07345 0.61029
 H336 H -0.01247 0.00444 0.59850
 H337 H -0.03446 0.05411 0.54671
 H338 H -0.05409 0.05521 0.57025
 N339 N 0.46611 0.59321 0.04257
 N340 N 0.44703 0.58868 0.03145
 C341 C 0.44456 0.60341 0.01513
 C342 C 0.46314 0.61800 0.01593
 C343 C 0.47646 0.61100 0.03363
 H344 H 0.43078 0.60280 0.00291
 H345 H 0.49271 0.61795 0.03928
 Cu346 Cu 0.42795 0.56285 0.03768
 Cu347 Cu 0.47677 0.57477 0.06679
 Cu348 Cu 0.44764 0.52440 0.07206
 N349 N 0.41443 0.53284 0.03784
 N350 N 0.42254 0.51779 0.05109
 C351 C 0.41044 0.49852 0.04789
 C352 C 0.39375 0.50156 0.03175
 C353 C 0.39676 0.52365 0.02578
 H354 H 0.41328 0.48355 0.05706
 H355 H 0.38695 0.53238 0.01354
 N356 N 0.47336 0.53407 0.09182
 N357 N 0.48450 0.55334 0.09007
 C358 C 0.50130 0.55478 0.10577
 C359 C 0.50071 0.53540 0.11790
 C360 C 0.48269 0.52277 0.10857
 H361 H 0.51339 0.56864 0.10786
 H362 H 0.47676 0.50649 0.11360
 H363 H 0.46258 0.54676 0.05062
 H364 H 0.44672 0.55929 0.07407
 N365 N 0.53439 -0.08708 0.03041
 N366 N 0.55036 -0.08053 0.01731
 C367 C 0.54929 -0.09351 -0.00145
 C368 C 0.53177 -0.10911 -0.00004
 C369 C 0.52273 -0.10460 0.02049
 H370 H 0.56050 -0.09186 -0.01511
 H371 H 0.50844 -0.11310 0.02746
 Cu372 Cu 0.57090 -0.05556 0.02579
 Cu373 Cu 0.52914 -0.07136 0.05852
 Cu374 Cu 0.56425 -0.02525 0.07312
 N375 N 0.59064 -0.02997 0.03428
 N376 N 0.58812 -0.01810 0.05276
 C377 C 0.60375 -0.00122 0.05412
 C378 C 0.61667 -0.00254 0.03538
 C379 C 0.60782 -0.02105 0.02324
 H380 H 0.60526 0.01135 0.06750
 H381 H 0.61346 -0.02753 0.00746
 N382 N 0.53920 -0.03532 0.09148
 N383 N 0.52632 -0.05324 0.08617
 C384 C 0.51042 -0.05535 0.10139
 C385 C 0.51322 -0.03786 0.11697
 C386 C 0.53165 -0.02549 0.11016
 H387 H 0.49698 -0.06798 0.10052
 H388 H 0.53873 -0.01017 0.11797
 H389 H 0.54230 -0.04053 0.04941
 H390 H 0.56167 -0.05893 0.06485
 N391 N 1.03405 0.41388 0.53034
 N392 N 1.05008 0.42054 0.51737
 C393 C 1.04918 0.40763 0.49857
 C394 C 1.03170 0.39196 0.49980
 C395 C 1.02251 0.39635 0.52029
 H396 H 1.06050 0.40937 0.48502
 H397 H 1.00818 0.38779 0.52712
 Cu398 Cu 1.07052 0.44553 0.52596
 Cu399 Cu 1.02865 0.42947 0.55850
 Cu400 Cu 1.06350 0.47575 0.57332
 N401 N 1.09000 0.47124 0.53455
 N402 N 1.08738 0.48311 0.55302
 C403 C 1.10289 0.50010 0.55438
 C404 C 1.11584 0.49885 0.53563
 C405 C 1.10714 0.48026 0.52353
 H406 H 1.10428 0.51273 0.56771
 H407 H 1.11284 0.47379 0.50778
 N408 N 1.03847 0.46544 0.59161
 N409 N 1.02569 0.44748 0.58620
 C410 C 1.00977 0.44520 0.60137
 C411 C 1.01244 0.46262 0.61705
 C412 C 1.03083 0.47514 0.61034
 H413 H 0.99641 0.43249 0.60042
 H414 H 1.03781 0.49046 0.61823
 H415 H 1.04170 0.46038 0.54948
 H416 H 1.06113 0.44204 0.56495
 C417 C 0.36436 0.02411 0.23693
 C418 C 0.35063 0.00202 0.23572
 C419 C 0.36267 -0.01638 0.23982
 C420 C 0.38777 -0.01109 0.24477
 C421 C 0.37641 0.02470 0.25995
 C422 C 0.38863 0.00640 0.26416
 C423 C 0.38339 0.02054 0.22066
 C424 C 0.39554 0.00212 0.22470
 H425 H 0.33262 0.00122 0.23257
 H426 H 0.39767 -0.02607 0.24813
 H427 H 0.37678 0.03931 0.27113
 H428 H 0.38756 0.03168 0.20750
 C429 C 0.14009 -0.03413 0.74619
 C430 C 0.15393 -0.01201 0.74750
 C431 C 0.14190 0.00638 0.75218
 C432 C 0.11681 0.00107 0.75509
 C433 C 0.12816 -0.03489 0.76833
 C434 C 0.11603 -0.01661 0.77317
 C435 C 0.12127 -0.03002 0.72872
 C436 C 0.10912 -0.01168 0.73336
 H437 H 0.17181 -0.01111 0.74491
 H438 H 0.10696 0.01605 0.75880
 H439 H 0.12854 -0.04934 0.77876
 H440 H 0.11890 -0.03910 0.71293
 C441 C 0.64169 0.46560 0.24948
 C442 C 0.65542 0.48773 0.25114
 C443 C 0.64322 0.50606 0.25550
 C444 C 0.61812 0.50067 0.25800
 C445 C 0.62924 0.46468 0.27137
 C446 C 0.61706 0.48298 0.27606
 C447 C 0.62293 0.46944 0.23186
 C448 C 0.61076 0.48787 0.23618
 H449 H 0.67335 0.48873 0.24886
 H450 H 0.60820 0.51564 0.26158
 H451 H 0.62910 0.45009 0.28162
 H452 H 0.61940 0.45883 0.21717
 C453 C 0.86274 0.52320 0.73659
 C454 C 0.84901 0.50111 0.73525
 C455 C 0.86102 0.48269 0.73935
 C456 C 0.88612 0.48797 0.74441
 C457 C 0.87470 0.52371 0.75965
 C458 C 0.88689 0.50539 0.76385
 C459 C 0.88183 0.51968 0.72038
 C460 C 0.89399 0.50126 0.72441
 H461 H 0.83101 0.50034 0.73209
 H462 H 0.89601 0.47298 0.74776
 H463 H 0.87501 0.53828 0.77087
 H464 H 0.88605 0.53083 0.70725
 C465 C 0.23889 0.36716 0.02283
 C466 C 0.23721 0.35349 0.00084
 C467 C 0.24083 0.36554 -0.01763
 C468 C 0.24589 0.39059 -0.01244
 C469 C 0.26200 0.37920 0.02297
 C470 C 0.26574 0.39143 0.00462
 C471 C 0.22244 0.38616 0.01958
 C472 C 0.22600 0.39829 0.00110
 H473 H 0.23411 0.33551 0.00015
 H474 H 0.24893 0.40056 -0.02741
 H475 H 0.27356 0.37964 0.03733
 H476 H 0.20951 0.39030 0.03100
 C477 C 0.74957 0.13710 -0.03359
 C478 C 0.75080 0.15084 -0.01158
 C479 C 0.75538 0.13881 0.00682
 C480 C 0.75850 0.11384 0.00160
 C481 C 0.77190 0.12523 -0.03421
 C482 C 0.77678 0.11319 -0.01587
 C483 C 0.73226 0.11801 -0.02981
 C484 C 0.73678 0.10602 -0.01133
 H485 H 0.74813 0.16867 -0.01073
 H486 H 0.76223 0.10402 0.01659
 H487 H 0.78230 0.12539 -0.04863
 H488 H 0.71748 0.11423 -0.04032
 C489 C 0.24860 0.63814 0.46580
 C490 C 0.24986 0.65186 0.48785
 C491 C 0.25455 0.63981 0.50620
 C492 C 0.25764 0.61484 0.50095
 C493 C 0.27093 0.62630 0.46513
 C494 C 0.27584 0.61418 0.48341
 C495 C 0.23122 0.61913 0.46972
 C496 C 0.23587 0.60708 0.48812
 H497 H 0.24704 0.66966 0.48878
 H498 H 0.26139 0.60503 0.51593
 H499 H 0.28134 0.62659 0.45071
 H500 H 0.21595 0.61584 0.45985
 C501 C 0.73935 0.86699 0.52436
 C502 C 0.73793 0.85327 0.50240
 C503 C 0.74187 0.86526 0.48396
 C504 C 0.74695 0.89031 0.48915
 C505 C 0.76251 0.87895 0.52480
 C506 C 0.76657 0.89114 0.50650
 C507 C 0.72301 0.88603 0.52083
 C508 C 0.72691 0.89812 0.50239
 H509 H 0.73473 0.83531 0.50170
 H510 H 0.75022 0.90020 0.47418
 H511 H 0.77384 0.87940 0.53934
 H512 H 0.70994 0.89027 0.53204
 C513 C 0.02468 0.23848 0.36414
 C514 C 0.00260 0.23716 0.35037
 C515 C -0.01591 0.24102 0.36228
 C516 C -0.01074 0.24589 0.38725
 C517 C 0.02510 0.26149 0.37621
 C518 C 0.00668 0.26547 0.38827
 C519 C 0.02112 0.22199 0.38301
 C520 C 0.00256 0.22582 0.39501
 H521 H 0.00185 0.23395 0.33248
 H522 H -0.02583 0.24908 0.39701
 H523 H 0.03975 0.27275 0.37682
 H524 H 0.03241 0.20892 0.38722
 C525 C -0.03431 0.74877 0.13900
 C526 C -0.01220 0.75011 0.15275
 C527 C 0.00632 0.75416 0.14072
 C528 C 0.00112 0.75670 0.11570
 C529 C -0.03473 0.77073 0.12652
 C530 C -0.01625 0.77509 0.11447
 C531 C -0.03071 0.73099 0.12047
 C532 C -0.01211 0.73500 0.10844
 H533 H -0.01138 0.74799 0.17063
 H534 H 0.01623 0.76003 0.10589
 H535 H -0.04912 0.78128 0.12630
 H536 H -0.04159 0.71642 0.11697
 C537 C 0.46436 0.24758 0.63928
 C538 C 0.48639 0.24915 0.65318
 C539 C 0.50496 0.25352 0.64131
 C540 C 0.49988 0.25613 0.61627
 C541 C 0.46374 0.26959 0.62693
 C542 C 0.48223 0.27429 0.61501
 C543 C 0.46841 0.22991 0.62074
 C544 C 0.48702 0.23429 0.60882
 H545 H 0.48712 0.24684 0.67103
 H546 H 0.51501 0.25972 0.60657
 H547 H 0.44921 0.27996 0.62679
 H548 H 0.45812 0.21492 0.61737
 C549 C 0.52289 0.73711 0.86472
 C550 C 0.50068 0.73584 0.85120
 C551 C 0.48228 0.73961 0.86331
 C552 C 0.48772 0.74439 0.88828
 C553 C 0.52342 0.76007 0.87687
 C554 C 0.50512 0.76401 0.88914
 C555 C 0.51956 0.72056 0.88356
 C556 C 0.50117 0.72430 0.89582
 H557 H 0.49979 0.73283 0.83328
 H558 H 0.47275 0.74753 0.89823
 H559 H 0.53802 0.77138 0.87728
 H560 H 0.53093 0.70751 0.88757
 C561 C 0.09913 0.22865 0.30527
 C562 C 0.10475 0.24631 0.29141
 C563 C 0.12252 0.24403 0.27695
 C564 C 0.13462 0.22421 0.27618
 C565 C 0.12870 0.20665 0.29024
 C566 C 0.11097 0.20879 0.30480
 C567 C 0.08040 0.23095 0.32045
 C568 C 0.07465 0.21326 0.33422
 C569 C 0.05672 0.21549 0.34855
 C570 C 0.04467 0.23542 0.34936
 C571 C 0.05050 0.25272 0.33493
 C572 C 0.06841 0.25070 0.32067
 C573 C 0.10474 0.19141 0.31881
 C574 C 0.08687 0.19360 0.33326
 C575 C 0.09243 0.26589 0.29222
 C576 C 0.07452 0.26803 0.30657
 H577 H 0.11371 0.17597 0.31859
 H578 H 0.08260 0.17979 0.34376
 H579 H 0.09661 0.27965 0.28161
 H580 H 0.06539 0.28337 0.30663
 H581 H 0.12691 0.25778 0.26645
 H582 H 0.13763 0.19121 0.28975
 H583 H 0.05208 0.20147 0.35852
 H584 H 0.04097 0.26782 0.33479
 C585 C 0.59704 0.72742 0.80543
 C586 C 0.60259 0.74510 0.79157
 C587 C 0.62040 0.74288 0.77714
 C588 C 0.63260 0.72312 0.77642
 C589 C 0.62671 0.70554 0.79045
 C590 C 0.60895 0.70761 0.80498
 C591 C 0.57833 0.72968 0.82064
 C592 C 0.57266 0.71197 0.83443
 C593 C 0.55479 0.71416 0.84882
 C594 C 0.54274 0.73408 0.84974
 C595 C 0.54845 0.75139 0.83527
 C596 C 0.56629 0.74939 0.82090
 C597 C 0.60279 0.69021 0.81900
 C598 C 0.58494 0.69235 0.83345
 C599 C 0.59019 0.76463 0.79237
 C600 C 0.57230 0.76672 0.80676
 H601 H 0.61182 0.67481 0.81878
 H602 H 0.58073 0.67853 0.84397
 H603 H 0.59431 0.77839 0.78174
 H604 H 0.56313 0.78204 0.80683
 H605 H 0.62474 0.75664 0.76663
 H606 H 0.63571 0.69014 0.78999
 H607 H 0.55023 0.70010 0.85877
 H608 H 0.53890 0.76649 0.83520
 C609 C 0.39803 0.74550 0.81490
 C610 C 0.39303 0.73053 0.79678
 C611 C 0.37377 0.73340 0.78333
 C612 C 0.35950 0.75123 0.78765
 C613 C 0.36462 0.76590 0.80620
 C614 C 0.38391 0.76313 0.81983
 C615 C 0.41878 0.74301 0.82857
 C616 C 0.42417 0.75830 0.84639
 C617 C 0.44455 0.75649 0.85859
 C618 C 0.45953 0.73979 0.85271
 C619 C 0.45345 0.72418 0.83529
 C620 C 0.43319 0.72577 0.82309
 C621 C 0.38961 0.77785 0.83807
 C622 C 0.40938 0.77547 0.85112
 C623 C 0.40763 0.71319 0.79216
 C624 C 0.42739 0.71086 0.80510
 H625 H 0.37883 0.79150 0.84214
 H626 H 0.41328 0.78737 0.86482
 H627 H 0.40392 0.70151 0.77824
 H628 H 0.43838 0.69747 0.80076
 H629 H 0.37031 0.72192 0.76925
 H630 H 0.35385 0.77961 0.80993
 H631 H 0.44923 0.76866 0.87186
 H632 H 0.46476 0.71107 0.83091
 C633 C -0.10056 0.24549 0.31428
 C634 C -0.10579 0.22999 0.29668
 C635 C -0.12526 0.23242 0.28338
 C636 C -0.13952 0.25043 0.28723
 C637 C -0.13412 0.26557 0.30542
 C638 C -0.11466 0.26320 0.31890
 C639 C -0.07961 0.24346 0.32775
 C640 C -0.07407 0.25924 0.34511
 C641 C -0.05357 0.25781 0.35717
 C642 C -0.03861 0.24101 0.35158
 C643 C -0.04476 0.22497 0.33458
 C644 C -0.06519 0.22614 0.32257
 C645 C -0.10879 0.27843 0.33668
 C646 C -0.08886 0.27648 0.34956
 C647 C -0.09120 0.21255 0.29240
 C648 C -0.07122 0.21068 0.30510
 H649 H -0.11956 0.29215 0.34050
 H650 H -0.08484 0.28875 0.36291
 H651 H -0.09509 0.20042 0.27888
 H652 H -0.06025 0.19720 0.30102
 H653 H -0.12884 0.22034 0.26982
 H654 H -0.14469 0.27945 0.30905
 H655 H -0.04882 0.27030 0.37013
 H656 H -0.03342 0.21180 0.33044
 C657 C -0.10953 0.73808 0.19724
 C658 C -0.12144 0.71747 0.19759
 C659 C -0.13975 0.71527 0.21146
 C660 C -0.14628 0.73353 0.22490
 C661 C -0.13392 0.75404 0.22451
 C662 C -0.11554 0.75640 0.21069
 C663 C -0.09043 0.74055 0.18245
 C664 C -0.07846 0.76112 0.18216
 C665 C -0.06036 0.76337 0.16805
 C666 C -0.05435 0.74541 0.15385
 C667 C -0.06631 0.72467 0.15490
 C668 C -0.08443 0.72224 0.16901
 C669 C -0.10311 0.77674 0.20995
 C670 C -0.08486 0.77905 0.19596
 C671 C -0.11486 0.69945 0.18401
 C672 C -0.09665 0.70179 0.16998
 H673 H -0.10755 0.79101 0.22026
 H674 H -0.07573 0.79503 0.19589
 H675 H -0.12389 0.68342 0.18418
 H676 H -0.09216 0.68749 0.15975
 H677 H -0.14877 0.69928 0.21176
 H678 H -0.13872 0.76827 0.23465
 H679 H -0.05089 0.77917 0.16806
 H680 H -0.06156 0.71019 0.14522
 C681 C 0.38904 0.23647 0.69740
 C682 C 0.38430 0.25402 0.71237
 C683 C 0.36624 0.25145 0.72655
 C684 C 0.35287 0.23141 0.72597
 C685 C 0.35810 0.21398 0.71070
 C686 C 0.37608 0.21644 0.69645
 C687 C 0.40801 0.23909 0.68245
 C688 C 0.41278 0.22151 0.66750
 C689 C 0.43087 0.22402 0.65337
 C690 C 0.44420 0.24407 0.65395
 C691 C 0.43918 0.26137 0.66939
 C692 C 0.42110 0.25904 0.68352
 C693 C 0.38135 0.19920 0.68126
 C694 C 0.39939 0.20168 0.66705
 C695 C 0.39776 0.27381 0.71290
 C696 C 0.41588 0.27626 0.69875
 H697 H 0.37146 0.18363 0.68035
 H698 H 0.40288 0.18796 0.65560
 H699 H 0.39430 0.28751 0.72438
 H700 H 0.42586 0.29177 0.69973
 H701 H 0.36283 0.26515 0.73800
 H702 H 0.34833 0.19840 0.70968
 H703 H 0.43444 0.21009 0.64238
 H704 H 0.44947 0.27670 0.67037
 C705 C 0.59231 0.25953 0.68531
 C706 C 0.60791 0.27631 0.67967
 C707 C 0.62860 0.27859 0.69164
 C708 C 0.63373 0.26427 0.70932
 C709 C 0.61782 0.24719 0.71424
 C710 C 0.59717 0.24486 0.70245
 C711 C 0.57028 0.25750 0.67332
 C712 C 0.55455 0.24099 0.67940
 C713 C 0.53341 0.23957 0.66853
 C714 C 0.52784 0.25453 0.65172
 C715 C 0.54395 0.27067 0.64541
 C716 C 0.56521 0.27233 0.65632
 C717 C 0.58113 0.22830 0.70777
 C718 C 0.56016 0.22642 0.69645
 C719 C 0.60235 0.29070 0.66238
 C720 C 0.58138 0.28874 0.65090
 H721 H 0.58471 0.21685 0.72096
 H722 H 0.54816 0.21359 0.70124
 H723 H 0.61423 0.30373 0.65781
 H724 H 0.57773 0.30031 0.63783
 H725 H 0.64039 0.29173 0.68726
 H726 H 0.62112 0.23570 0.72740
 H727 H 0.52125 0.22681 0.67317
 H728 H 0.53971 0.28231 0.63257
 C729 C 0.09318 0.76152 0.18542
 C730 C 0.10838 0.77887 0.18023
 C731 C 0.12868 0.78179 0.19276
 C732 C 0.13372 0.76755 0.21043
 C733 C 0.11845 0.74988 0.21491
 C734 C 0.09814 0.74689 0.20261
 C735 C 0.07141 0.75894 0.17302
 C736 C 0.05600 0.74200 0.17877
 C737 C 0.03495 0.74023 0.16770
 C738 C 0.02921 0.75526 0.15102
 C739 C 0.04507 0.77173 0.14492
 C740 C 0.06620 0.77378 0.15606
 C741 C 0.08249 0.72981 0.20749
 C742 C 0.06174 0.72743 0.19579
 C743 C 0.10273 0.79319 0.16291
 C744 C 0.08202 0.79067 0.15102
 H745 H 0.08617 0.71839 0.22068
 H746 H 0.04999 0.71425 0.20029
 H747 H 0.11432 0.80662 0.15868
 H748 H 0.07825 0.80222 0.13796
 H749 H 0.14017 0.79549 0.18909
 H750 H 0.12214 0.73852 0.22812
 H751 H 0.02295 0.72725 0.17217
 H752 H 0.04067 0.78341 0.13216
 C753 C 0.30552 0.09864 0.22614
 C754 C 0.30568 0.11075 0.20650
 C755 C 0.29133 0.12865 0.20418
 C756 C 0.27685 0.13448 0.22134
 C757 C 0.27693 0.12206 0.24093
 C758 C 0.29120 0.10411 0.24340
 C759 C 0.32059 0.07980 0.22866
 C760 C 0.32029 0.06758 0.24822
 C761 C 0.33456 0.04966 0.25049
 C762 C 0.34946 0.04401 0.23359
 C763 C 0.34910 0.05625 0.21382
 C764 C 0.33483 0.07423 0.21137
 C765 C 0.29141 0.09151 0.26277
 C766 C 0.30569 0.07351 0.26512
 C767 C 0.32013 0.10466 0.18952
 C768 C 0.33444 0.08669 0.19190
 H769 H 0.28042 0.09555 0.27620
 H770 H 0.30531 0.06418 0.28030
 H771 H 0.32038 0.11386 0.17424
 H772 H 0.34531 0.08255 0.17840
 H773 H 0.29134 0.13781 0.18891
 H774 H 0.26607 0.12637 0.25437
 H775 H 0.33412 0.04000 0.26547
 H776 H 0.35941 0.05182 0.20006
 C777 C 0.80388 0.59777 0.72629
 C778 C 0.80437 0.61031 0.70693
 C779 C 0.78996 0.62816 0.70470
 C780 C 0.77510 0.63355 0.72168
 C781 C 0.77486 0.62071 0.74098
 C782 C 0.78919 0.60280 0.74335
 C783 C 0.81899 0.57895 0.72869
 C784 C 0.81836 0.56630 0.74795
 C785 C 0.83265 0.54837 0.75009
 C786 C 0.84785 0.54312 0.73335
 C787 C 0.84789 0.55585 0.71391
 C788 C 0.83360 0.57383 0.71159
 C789 C 0.78910 0.58978 0.76245
 C790 C 0.80342 0.57181 0.76469
 C791 C 0.81921 0.60469 0.69014
 C792 C 0.83356 0.58675 0.69242
 H793 H 0.77784 0.59349 0.77574
 H794 H 0.80280 0.56216 0.77965
 H795 H 0.81972 0.61423 0.67510
 H796 H 0.84474 0.58297 0.67907
 H797 H 0.79024 0.63765 0.68964
 H798 H 0.76370 0.62466 0.75427
 H799 H 0.83197 0.53840 0.76485
 H800 H 0.85853 0.55182 0.70029
 C801 C 0.81228 0.39879 0.74647
 C802 C 0.79407 0.39355 0.73156
 C803 C 0.78069 0.37424 0.73462
 C804 C 0.78521 0.36020 0.75256
 C805 C 0.80384 0.36560 0.76718
 C806 C 0.81738 0.38490 0.76424
 C807 C 0.82591 0.41952 0.74375
 C808 C 0.84384 0.42509 0.75895
 C809 C 0.85609 0.44538 0.75685
 C810 C 0.85017 0.46009 0.73992
 C811 C 0.83257 0.45389 0.72446
 C812 C 0.82032 0.43369 0.72635
 C813 C 0.83569 0.39082 0.77891
 C814 C 0.84869 0.41057 0.77631
 C815 C 0.78932 0.40793 0.71408
 C816 C 0.80222 0.42768 0.71153
 H817 H 0.83985 0.38024 0.79267
 H818 H 0.86246 0.41465 0.78817
 H819 H 0.77532 0.40405 0.70244
 H820 H 0.79778 0.43849 0.69803
 H821 H 0.76658 0.37049 0.72314
 H822 H 0.80775 0.35504 0.78099
 H823 H 0.86946 0.45017 0.76893
 H824 H 0.82814 0.46501 0.71121
 C825 C 0.31405 -0.10033 0.24682
 C826 C 0.29593 -0.10560 0.23184
 C827 C 0.28244 -0.12480 0.23495
 C828 C 0.28666 -0.13877 0.25311
 C829 C 0.30538 -0.13336 0.26770
 C830 C 0.31901 -0.11414 0.26467
 C831 C 0.32772 -0.07962 0.24408
 C832 C 0.34555 -0.07399 0.25938
 C833 C 0.35777 -0.05368 0.25732
 C834 C 0.35190 -0.03901 0.24035
 C835 C 0.33443 -0.04528 0.22477
 C836 C 0.32223 -0.06551 0.22661
 C837 C 0.33726 -0.10818 0.27940
 C838 C 0.35030 -0.08846 0.27681
 C839 C 0.29132 -0.09132 0.21423
 C840 C 0.30424 -0.07159 0.21168
 H841 H 0.34133 -0.11870 0.29325
 H842 H 0.36400 -0.08434 0.28873
 H843 H 0.27739 -0.09524 0.20252
 H844 H 0.29989 -0.06084 0.19809
 H845 H 0.26849 -0.12843 0.22327
 H846 H 0.30928 -0.14370 0.28168
 H847 H 0.37106 -0.04883 0.26948
 H848 H 0.33005 -0.03419 0.21148
 C849 C 0.19571 -0.11150 0.73595
 C850 C 0.21376 -0.11407 0.75117
 C851 C 0.22710 -0.13286 0.74895
 C852 C 0.22256 -0.14910 0.73155
 C853 C 0.20424 -0.14601 0.71647
 C854 C 0.19082 -0.12737 0.71862
 C855 C 0.18158 -0.09186 0.73825
 C856 C 0.16339 -0.08945 0.72315
 C857 C 0.14983 -0.07089 0.72550
 C858 C 0.15450 -0.05449 0.74269
 C859 C 0.17282 -0.05743 0.75776
 C860 C 0.18639 -0.07599 0.75561
 C861 C 0.17252 -0.12435 0.70376
 C862 C 0.15901 -0.10574 0.70601
 C863 C 0.21808 -0.09779 0.76835
 C864 C 0.20463 -0.07908 0.77053
 H865 H 0.16856 -0.13651 0.69029
 H866 H 0.14504 -0.10410 0.69422
 H867 H 0.23195 -0.09953 0.78024
 H868 H 0.20853 -0.06695 0.78404
 H869 H 0.24097 -0.13460 0.76079
 H870 H 0.20008 -0.15803 0.70299
 H871 H 0.13564 -0.06977 0.71403
 H872 H 0.17641 -0.04521 0.77127
 C873 C 0.69893 0.38968 0.23764
 C874 C 0.71200 0.38278 0.25593
 C875 C 0.72525 0.36398 0.25337
 C876 C 0.72546 0.35209 0.23270
 C877 C 0.71244 0.35953 0.21448
 C878 C 0.69915 0.37826 0.21687
 C879 C 0.68464 0.40915 0.24034
 C880 C 0.67152 0.41599 0.22208
 C881 C 0.65773 0.43433 0.22479
 C882 C 0.65661 0.44566 0.24574
 C883 C 0.67064 0.43894 0.26360
 C884 C 0.68443 0.42059 0.26109
 C885 C 0.68597 0.38572 0.19890
 C886 C 0.67241 0.40428 0.20146
 C887 C 0.71141 0.39473 0.27644
 C888 C 0.69790 0.41335 0.27896
 H889 H 0.68604 0.37709 0.18275
 H890 H 0.66244 0.40942 0.18720
 H891 H 0.72143 0.38962 0.29068
 H892 H 0.69789 0.42206 0.29508
 H893 H 0.73505 0.35848 0.26756
 H894 H 0.71262 0.35086 0.19837
 H895 H 0.64828 0.43971 0.21038
 H896 H 0.67068 0.44794 0.27957
 C897 C 0.68557 0.59402 0.26210
 C898 C 0.68014 0.60899 0.27940
 C899 C 0.69177 0.62982 0.28181
 C900 C 0.70877 0.63568 0.26706
 C901 C 0.71350 0.62053 0.24947
 C902 C 0.70212 0.59969 0.24702
 C903 C 0.67401 0.57180 0.25993
 C904 C 0.67995 0.55666 0.24297
 C905 C 0.66957 0.53529 0.24147
 C906 C 0.65329 0.52902 0.25672
 C907 C 0.64706 0.54456 0.27330
 C908 C 0.65756 0.56597 0.27511
 C909 C 0.70725 0.58425 0.22997
 C910 C 0.69638 0.56307 0.22801
 C911 C 0.66341 0.60267 0.29414
 C912 C 0.65228 0.58155 0.29200
 H913 H 0.71996 0.58847 0.21820
 H914 H 0.70102 0.55155 0.21479
 H915 H 0.65900 0.61407 0.30755
 H916 H 0.63963 0.57730 0.30382
 H917 H 0.68782 0.64118 0.29541
 H918 H 0.72622 0.62469 0.23774
 H919 H 0.67411 0.52352 0.22841
 H920 H 0.63460 0.53975 0.28514
 C921 C 0.18571 0.09361 0.76062
 C922 C 0.18002 0.10856 0.77786
 C923 C 0.19216 0.12905 0.78095
 C924 C 0.20997 0.13452 0.76701
 C925 C 0.21499 0.11948 0.74947
 C926 C 0.20304 0.09898 0.74629
 C927 C 0.17367 0.07168 0.75783
 C928 C 0.17985 0.05655 0.74096
 C929 C 0.16901 0.03541 0.73892
 C930 C 0.15217 0.02928 0.75365
 C931 C 0.14573 0.04484 0.77012
 C932 C 0.15658 0.06606 0.77239
 C933 C 0.20840 0.08358 0.72930
 C934 C 0.19701 0.06270 0.72669
 C935 C 0.16261 0.10249 0.79191
 C936 C 0.15107 0.08162 0.78921
 H937 H 0.22171 0.08757 0.71811
 H938 H 0.20185 0.05118 0.71357
 H939 H 0.15800 0.11387 0.80526
 H940 H 0.13792 0.07752 0.80055
 H941 H 0.18810 0.14036 0.79455
 H942 H 0.22833 0.12350 0.73835
 H943 H 0.17375 0.02367 0.72592
 H944 H 0.13288 0.04016 0.78159
 C945 C 0.22847 0.30802 0.09701
 C946 C 0.20844 0.30751 0.10857
 C947 C 0.20615 0.29302 0.12633
 C948 C 0.22370 0.27905 0.13253
 C949 C 0.24368 0.27979 0.12067
 C950 C 0.24613 0.29421 0.10288
 C951 C 0.23097 0.32321 0.07830
 C952 C 0.25090 0.32355 0.06662
 C953 C 0.25312 0.33791 0.04878
 C954 C 0.23579 0.35227 0.04273
 C955 C 0.21563 0.35120 0.05440
 C956 C 0.21324 0.33687 0.07228
 C957 C 0.26588 0.29507 0.09082
 C958 C 0.26821 0.30946 0.07295
 C959 C 0.19105 0.32142 0.10206
 C960 C 0.19339 0.33582 0.08420
 H961 H 0.27963 0.28448 0.09518
 H962 H 0.28369 0.30958 0.06404
 H963 H 0.17548 0.32115 0.11082
 H964 H 0.17956 0.34624 0.07970
 H965 H 0.19059 0.29250 0.13507
 H966 H 0.25742 0.26932 0.12530
 H967 H 0.26837 0.33788 0.03949
 H968 H 0.20152 0.36097 0.04951
 C969 C 0.72817 0.80802 0.59853
 C970 C 0.70821 0.80788 0.61022
 C971 C 0.70573 0.79337 0.62793
 C972 C 0.72301 0.77900 0.63395
 C973 C 0.74293 0.77942 0.62199
 C974 C 0.74557 0.79385 0.60425
 C975 C 0.73084 0.82319 0.57984
 C976 C 0.75069 0.82314 0.56802
 C977 C 0.75308 0.83746 0.55018
 C978 C 0.73600 0.85215 0.54425
 C979 C 0.71594 0.85152 0.55608
 C980 C 0.71338 0.83722 0.57397
 C981 C 0.76525 0.79434 0.59206
 C982 C 0.76775 0.80871 0.57421
 C983 C 0.69109 0.82217 0.60387
 C984 C 0.69361 0.83657 0.58603
 H985 H 0.77880 0.78347 0.59631
 H986 H 0.78315 0.80853 0.56519
 H987 H 0.67558 0.82220 0.61273
 H988 H 0.67998 0.84728 0.58165
 H989 H 0.69022 0.79312 0.63676
 H990 H 0.75648 0.76867 0.62648
 H991 H 0.76826 0.83716 0.54079
 H992 H 0.70202 0.86161 0.55135
 C993 C 0.74698 0.81682 0.40010
 C994 C 0.73201 0.79854 0.39530
 C995 C 0.73471 0.78515 0.37607
 C996 C 0.75236 0.78970 0.36166
 C997 C 0.76698 0.80843 0.36657
 C998 C 0.76441 0.82199 0.38582
 C999 C 0.74472 0.83041 0.42081
 C1000 C 0.76002 0.84838 0.42598
 C1001 C 0.75844 0.86053 0.44629
 C1002 C 0.74191 0.85450 0.46139
 C1003 C 0.72628 0.83691 0.45555
 C1004 C 0.72768 0.82473 0.43537
 C1005 C 0.77915 0.84037 0.39131
 C1006 C 0.77699 0.85333 0.41104
 C1007 C 0.71488 0.79371 0.41007
 C1008 C 0.71275 0.80659 0.42977
 H1009 H 0.79264 0.84460 0.38041
 H1010 H 0.78891 0.86714 0.41479
 H1011 H 0.70319 0.77967 0.40651
 H1012 H 0.69952 0.80209 0.44089
 H1013 H 0.72323 0.77095 0.37272
 H1014 H 0.78056 0.81238 0.35571
 H1015 H 0.77063 0.87392 0.45076
 H1016 H 0.71329 0.83241 0.46695
 C1017 C 0.24528 0.31739 -0.10171
 C1018 C 0.26244 0.32280 -0.11621
 C1019 C 0.26501 0.30924 -0.13545
 C1020 C 0.25067 0.29025 -0.14012
 C1021 C 0.23322 0.28549 -0.12554
 C1022 C 0.23053 0.29890 -0.10631
 C1023 C 0.24311 0.33093 -0.08095
 C1024 C 0.22639 0.32499 -0.06614
 C1025 C 0.22514 0.33709 -0.04590
 C1026 C 0.24063 0.35485 -0.04024
 C1027 C 0.25683 0.36114 -0.05559
 C1028 C 0.25825 0.34907 -0.07596
 C1029 C 0.21367 0.29383 -0.09132
 C1030 C 0.21163 0.30666 -0.07156
 C1031 C 0.27697 0.34139 -0.11092
 C1032 C 0.27491 0.35430 -0.09115
 H1033 H 0.20215 0.27962 -0.09471
 H1034 H 0.19863 0.30197 -0.06026
 H1035 H 0.29024 0.34581 -0.12201
 H1036 H 0.28667 0.36827 -0.08755
 H1037 H 0.27840 0.31336 -0.14648
 H1038 H 0.22196 0.27110 -0.12871
 H1039 H 0.21238 0.33240 -0.03432
 H1040 H 0.26892 0.37466 -0.05126
 C1041 C 0.73712 0.19463 -0.10914
 C1042 C 0.71661 0.19388 -0.12134
 C1043 C 0.71404 0.20749 -0.13978
 C1044 C 0.73183 0.22179 -0.14617
 C1045 C 0.75224 0.22248 -0.13352
 C1046 C 0.75497 0.20893 -0.11500
 C1047 C 0.73999 0.18009 -0.08989
 C1048 C 0.76047 0.18087 -0.07766
 C1049 C 0.76312 0.16694 -0.05945
 C1050 C 0.74567 0.15190 -0.05358
 C1051 C 0.72500 0.15186 -0.06585
 C1052 C 0.72216 0.16578 -0.08407
 C1053 C 0.77522 0.20927 -0.10229
 C1054 C 0.77791 0.19551 -0.08391
 C1055 C 0.69908 0.17945 -0.11491
 C1056 C 0.70180 0.16565 -0.09659
 H1057 H 0.78913 0.22024 -0.10661
 H1058 H 0.79382 0.19626 -0.07459
 H1059 H 0.68313 0.17875 -0.12418
 H1060 H 0.68787 0.15473 -0.09225
 H1061 H 0.69812 0.20693 -0.14902
 H1062 H 0.76612 0.23329 -0.13818
 H1063 H 0.77887 0.16770 -0.04983
 H1064 H 0.71086 0.14146 -0.06134
 C1065 C 0.23672 0.69645 0.39077
 C1066 C 0.21726 0.69420 0.37696
 C1067 C 0.21458 0.70852 0.35909
 C1068 C 0.23117 0.72512 0.35492
 C1069 C 0.25065 0.72707 0.36900
 C1070 C 0.25348 0.71278 0.38694
 C1071 C 0.23955 0.68145 0.40966
 C1072 C 0.25893 0.68377 0.42355
 C1073 C 0.26145 0.66956 0.44154
 C1074 C 0.24487 0.65292 0.44576
 C1075 C 0.22546 0.65098 0.43151
 C1076 C 0.22276 0.66517 0.41350
 C1077 C 0.27271 0.71455 0.40119
 C1078 C 0.27538 0.70030 0.41919
 C1079 C 0.20082 0.67768 0.38131
 C1080 C 0.20351 0.66342 0.39927
 H1081 H 0.28580 0.72707 0.39843
 H1082 H 0.29045 0.70225 0.42979
 H1083 H 0.18571 0.67577 0.37077
 H1084 H 0.19040 0.65093 0.40204
 H1085 H 0.19957 0.70656 0.34847
 H1086 H 0.26355 0.73973 0.36620
 H1087 H 0.27637 0.67141 0.45240
 H1088 H 0.21219 0.63878 0.43416
 C1089 C 0.25983 0.68227 0.59371
 C1090 C 0.27731 0.67727 0.60882
 C1091 C 0.27943 0.68902 0.62950
 C1092 C 0.26423 0.70571 0.63507
 C1093 C 0.24646 0.70997 0.61982
 C1094 C 0.24431 0.69848 0.59911
 C1095 C 0.25801 0.67065 0.57162
 C1096 C 0.24088 0.67619 0.55634
 C1097 C 0.23969 0.66576 0.53510
 C1098 C 0.25542 0.64986 0.52907
 C1099 C 0.27215 0.64403 0.54474
 C1100 C 0.27365 0.65456 0.56605
 C1101 C 0.22712 0.70320 0.58355
 C1102 C 0.22546 0.69227 0.56249
 C1103 C 0.29251 0.66089 0.60275
 C1104 C 0.29069 0.64970 0.58176
 H1105 H 0.21500 0.71565 0.58756
 H1106 H 0.21212 0.69660 0.55086
 H1107 H 0.30605 0.65681 0.61426
 H1108 H 0.30286 0.63732 0.57770
 H1109 H 0.29315 0.68541 0.64095
 H1110 H 0.23438 0.72242 0.62376
 H1111 H 0.22651 0.67000 0.52323
 H1112 H 0.28437 0.63187 0.54012
 C1113 C 0.76105 0.18180 0.09410
 C1114 C 0.74586 0.19840 0.09931
 C1115 C 0.74816 0.21002 0.11994
 C1116 C 0.76570 0.20546 0.13533
 C1117 C 0.78056 0.18839 0.12994
 C1118 C 0.77832 0.17654 0.10933
 C1119 C 0.75909 0.17003 0.07209
 C1120 C 0.77442 0.15358 0.06670
 C1121 C 0.77283 0.14291 0.04545
 C1122 C 0.75630 0.14896 0.02965
 C1123 C 0.74085 0.16520 0.03552
 C1124 C 0.74216 0.17579 0.05669
 C1125 C 0.79320 0.15980 0.10345
 C1126 C 0.79127 0.14849 0.08253
 C1127 C 0.72887 0.20336 0.08362
 C1128 C 0.72708 0.19227 0.06265
 H1129 H 0.80659 0.15552 0.11506
 H1130 H 0.80321 0.13583 0.07861
 H1131 H 0.71702 0.21612 0.08747
 H1132 H 0.71390 0.19678 0.05092
 H1133 H 0.73636 0.22279 0.12372
 H1134 H 0.79412 0.18455 0.14149
 H1135 H 0.78484 0.13050 0.04097
 H1136 H 0.72781 0.16962 0.02358
 C1137 C 0.48320 0.35115 0.55956
 C1138 C 0.47247 0.37048 0.56674
 C1139 C 0.47097 0.38853 0.55248
 C1140 C 0.48014 0.38741 0.53117
 C1141 C 0.49121 0.36801 0.52439
 C1142 C 0.49264 0.34975 0.53848
 C1143 C 0.48415 0.33183 0.57423
 C1144 C 0.49431 0.31222 0.56686
 C1145 C 0.49433 0.29357 0.58055
 C1146 C 0.48415 0.29449 0.60139
 C1147 C 0.47463 0.31456 0.60872
 C1148 C 0.47441 0.33318 0.59516
 C1149 C 0.50300 0.32999 0.53180
 C1150 C 0.50378 0.31153 0.54573
 C1151 C 0.46323 0.37130 0.58795
 C1152 C 0.46422 0.35297 0.60194
 H1153 H 0.51035 0.32868 0.51558
 H1154 H 0.51168 0.29654 0.53982
 H1155 H 0.45497 0.38615 0.59370
 H1156 H 0.45667 0.35421 0.61808
 H1157 H 0.46269 0.40343 0.55803
 H1158 H 0.49818 0.36687 0.50798
 H1159 H 0.50147 0.27817 0.57463
 H1160 H 0.46712 0.31560 0.62490
 C1161 C -0.01465 0.85172 0.05878
 C1162 C -0.02487 0.87129 0.06610
 C1163 C -0.02627 0.88932 0.05183
 C1164 C -0.01753 0.88794 0.03034
 C1165 C -0.00693 0.86832 0.02340
 C1166 C -0.00559 0.85007 0.03753
 C1167 C -0.01383 0.83244 0.07349
 C1168 C -0.00416 0.81260 0.06601
 C1169 C -0.00428 0.79400 0.07976
 C1170 C -0.01414 0.79520 0.10075
 C1171 C -0.02316 0.81546 0.10818
 C1172 C -0.02322 0.83405 0.09458
 C1173 C 0.00428 0.83008 0.03074
 C1174 C 0.00495 0.81166 0.04471
 C1175 C -0.03377 0.87236 0.08746
 C1176 C -0.03292 0.85406 0.10148
 H1177 H 0.01133 0.82857 0.01438
 H1178 H 0.01247 0.79648 0.03871
 H1179 H -0.04164 0.88740 0.09331
 H1180 H -0.04020 0.85549 0.11773
 H1181 H -0.03415 0.90441 0.05751
 H1182 H -0.00028 0.86699 0.00686
 H1183 H 0.00249 0.77843 0.07379
 H1184 H -0.03041 0.81670 0.12447
 C1185 C 0.01446 0.66841 0.04428
 C1186 C 0.03704 0.66260 0.04367
 C1187 C 0.04310 0.64524 0.02896
 C1188 C 0.02673 0.63384 0.01489
 C1189 C 0.00419 0.64002 0.01579
 C1190 C -0.00203 0.65722 0.03043
 C1191 C 0.00788 0.68633 0.05995
 C1192 C -0.01480 0.69171 0.06085
 C1193 C -0.02112 0.70816 0.07629
 C1194 C -0.00498 0.71917 0.09083
 C1195 C 0.01779 0.71402 0.08934
 C1196 C 0.02429 0.69744 0.07400
 C1197 C -0.02450 0.66330 0.03160
 C1198 C -0.03078 0.68024 0.04657
 C1199 C 0.05303 0.67424 0.05786
 C1200 C 0.04677 0.69136 0.07274
 H1201 H -0.03737 0.65478 0.02096
 H1202 H -0.04831 0.68428 0.04710
 H1203 H 0.07052 0.66999 0.05754
 H1204 H 0.05961 0.69978 0.08350
 H1205 H 0.06051 0.64077 0.02836
 H1206 H -0.00869 0.63126 0.00540
 H1207 H -0.03862 0.71227 0.07714
 H1208 H 0.03025 0.72226 0.10066
 C1209 C 0.51479 0.16785 0.54506
 C1210 C 0.53747 0.16238 0.54450
 C1211 C 0.54381 0.14508 0.52984
 C1212 C 0.52761 0.13340 0.51579
 C1213 C 0.50496 0.13922 0.51669
 C1214 C 0.49847 0.15636 0.53125
 C1215 C 0.50792 0.18575 0.56061
 C1216 C 0.48516 0.19082 0.56142
 C1217 C 0.47857 0.20726 0.57673
 C1218 C 0.49451 0.21856 0.59128
 C1219 C 0.51737 0.21372 0.58988
 C1220 C 0.52416 0.19716 0.57465
 C1221 C 0.47590 0.16211 0.53235
 C1222 C 0.46936 0.17905 0.54720
 C1223 C 0.55327 0.17430 0.55867
 C1224 C 0.54674 0.19139 0.57347
 H1225 H 0.46316 0.15335 0.52175
 H1226 H 0.45175 0.18283 0.54766
 H1227 H 0.57083 0.17030 0.55841
 H1228 H 0.55944 0.20002 0.58421
 H1229 H 0.56130 0.14089 0.52926
 H1230 H 0.49219 0.13024 0.50633
 H1231 H 0.46099 0.21111 0.57751
 H1232 H 0.52970 0.22219 0.60120
 C1233 C -0.02173 0.16958 0.46695
 C1234 C -0.04416 0.16214 0.46855
 C1235 C -0.04970 0.14681 0.48486
 C1236 C -0.03298 0.13895 0.49953
 C1237 C -0.01067 0.14713 0.49812
 C1238 C -0.00491 0.16229 0.48171
 C1239 C -0.01562 0.18481 0.44910
 C1240 C 0.00695 0.19157 0.44698
 C1241 C 0.01279 0.20528 0.42942
 C1242 C -0.00377 0.21224 0.41411
 C1243 C -0.02639 0.20580 0.41678
 C1244 C -0.03240 0.19188 0.43416
 C1245 C 0.01741 0.16984 0.47936
 C1246 C 0.02325 0.18420 0.46226
 C1247 C -0.06053 0.16983 0.45349
 C1248 C -0.05475 0.18449 0.43662
 H1249 H 0.03054 0.16435 0.49064
 H1250 H 0.04071 0.18938 0.46086
 H1251 H -0.07791 0.16427 0.45460
 H1252 H -0.06785 0.18983 0.42522
 H1253 H -0.06696 0.14085 0.48597
 H1254 H 0.00235 0.14107 0.50918
 H1255 H 0.03019 0.21051 0.42765
 H1256 H -0.03916 0.21098 0.40492
 C1257 C 0.47883 0.66679 0.96745
 C1258 C 0.45643 0.65960 0.96979
 C1259 C 0.45132 0.64405 0.98605
 C1260 C 0.46845 0.63564 0.99989
 C1261 C 0.49078 0.64348 0.99763
 C1262 C 0.49607 0.65894 0.98135
 C1263 C 0.48442 0.68243 0.94977
 C1264 C 0.50691 0.68906 0.94702
 C1265 C 0.51224 0.70319 0.92963
 C1266 C 0.49527 0.71061 0.91502
 C1267 C 0.47273 0.70429 0.91836
 C1268 C 0.46722 0.69002 0.93563
 C1269 C 0.51834 0.66634 0.97835
 C1270 C 0.52367 0.68113 0.96146
 C1271 C 0.43963 0.66782 0.95555
 C1272 C 0.44493 0.68279 0.93878
 H1273 H 0.53180 0.66043 0.98898
 H1274 H 0.54108 0.68620 0.95954
 H1275 H 0.42226 0.66245 0.95722
 H1276 H 0.43150 0.68853 0.92801
 H1277 H 0.43405 0.63842 0.98778
 H1278 H 0.50415 0.63707 1.00800
 H1279 H 0.52959 0.70833 0.92741
 H1280 H 0.45962 0.70982 0.90706
 C1281 C 0.51372 0.83894 0.95122
 C1282 C 0.52453 0.85875 0.94461
 C1283 C 0.52989 0.87584 0.96058
 C1284 C 0.52459 0.87327 0.98307
 C1285 C 0.51315 0.85356 0.98933
 C1286 C 0.50784 0.83622 0.97346
 C1287 C 0.50930 0.82037 0.93471
 C1288 C 0.49941 0.80015 0.94148
 C1289 C 0.49675 0.78200 0.92606
 C1290 C 0.50421 0.78401 0.90418
 C1291 C 0.51315 0.80472 0.89744
 C1292 C 0.51593 0.82289 0.91268
 C1293 C 0.49736 0.81598 0.97947
 C1294 C 0.49326 0.79824 0.96376
 C1295 C 0.53028 0.86087 0.92225
 C1296 C 0.52603 0.84323 0.90654
 H1297 H 0.49267 0.81368 0.99655
 H1298 H 0.48555 0.78276 0.96920
 H1299 H 0.53850 0.87613 0.91694
 H1300 H 0.53112 0.84538 0.88955
 H1301 H 0.53833 0.89108 0.95550
 H1302 H 0.50908 0.85138 1.00660
 H1303 H 0.49010 0.76603 0.93144
 H1304 H 0.51868 0.80643 0.88054
 C1305 C 0.01439 0.34017 0.45069
 C1306 C 0.00822 0.33734 0.47283
 C1307 C 0.01325 0.35464 0.48881
 C1308 C 0.02470 0.37442 0.48276
 C1309 C 0.03026 0.37711 0.46036
 C1310 C 0.02521 0.36005 0.44428
 C1311 C 0.01026 0.32165 0.43408
 C1312 C 0.01720 0.32426 0.41216
 C1313 C 0.01469 0.30613 0.39684
 C1314 C 0.00568 0.28539 0.40339
 C1315 C -0.00207 0.28327 0.42515
 C1316 C 0.00034 0.30137 0.44065
 C1317 C 0.03125 0.36227 0.42203
 C1318 C 0.02730 0.34467 0.40622
 C1319 C -0.00228 0.31704 0.47864
 C1320 C -0.00612 0.29935 0.46283
 H1321 H 0.03949 0.37760 0.41688
 H1322 H 0.03264 0.34689 0.38933
 H1323 H -0.00719 0.31465 0.49563
 H1324 H -0.01385 0.28382 0.46810
 H1325 H 0.00899 0.35236 0.50602
 H1326 H 0.03871 0.39240 0.45543
 H1327 H 0.02044 0.30791 0.38002
 H1328 H -0.00877 0.26728 0.43038
 C1329 C 0.35319 0.55925 0.48383
 C1330 C 0.37253 0.56677 0.47324
 C1331 C 0.39066 0.55261 0.47155
 C1332 C 0.38960 0.53105 0.48035
 C1333 C 0.37022 0.52394 0.49132
 C1334 C 0.35189 0.53794 0.49297
 C1335 C 0.33377 0.57380 0.48492
 C1336 C 0.31415 0.56609 0.49494
 C1337 C 0.29539 0.57965 0.49508
 C1338 C 0.29619 0.60070 0.48516
 C1339 C 0.31625 0.60837 0.47576
 C1340 C 0.33501 0.59494 0.47544
 C1341 C 0.33212 0.53094 0.50320
 C1342 C 0.31357 0.54475 0.50413
 C1343 C 0.37325 0.58819 0.46428
 C1344 C 0.35481 0.60206 0.46539
 H1345 H 0.33088 0.51454 0.51033
 H1346 H 0.29856 0.53858 0.51193
 H1347 H 0.38811 0.59421 0.45614
 H1348 H 0.35597 0.61836 0.45805
 H1349 H 0.40556 0.55843 0.46336
 H1350 H 0.36912 0.50735 0.49802
 H1351 H 0.27999 0.57346 0.50211
 H1352 H 0.31719 0.62470 0.46845
 C1353 C 0.85457 0.05891 -0.01579
 C1354 C 0.85347 0.03754 -0.00677
 C1355 C 0.87189 0.02369 -0.00861
 C1356 C 0.89113 0.03100 -0.01970
 C1357 C 0.89198 0.05260 -0.02839
 C1358 C 0.87378 0.06662 -0.02647
 C1359 C 0.83505 0.07332 -0.01449
 C1360 C 0.83610 0.09453 -0.02385
 C1361 C 0.81725 0.10780 -0.02339
 C1362 C 0.79726 0.09990 -0.01404
 C1363 C 0.79665 0.07882 -0.00418
 C1364 C 0.81553 0.06541 -0.00443
 C1365 C 0.87431 0.08810 -0.03529
 C1366 C 0.85580 0.10184 -0.03397
 C1367 C 0.83381 0.03035 0.00354
 C1368 C 0.81515 0.04402 0.00465
 H1369 H 0.88908 0.09427 -0.04350
 H1370 H 0.85679 0.11819 -0.04122
 H1371 H 0.83272 0.01390 0.01058
 H1372 H 0.80023 0.03769 0.01248
 H1373 H 0.87098 0.00705 -0.00199
 H1374 H 0.90679 0.05854 -0.03666
 H1375 H 0.81806 0.12417 -0.03062
 H1376 H 0.78131 0.07249 0.00287
 C1377 C 0.67024 0.04182 0.01631
 C1378 C 0.65904 0.02763 0.00016
 C1379 C 0.64167 0.01314 0.00659
 C1380 C 0.63532 0.01278 0.02900
 C1381 C 0.64676 0.02716 0.04502
 C1382 C 0.66430 0.04170 0.03875
 C1383 C 0.68830 0.05737 0.00950
 C1384 C 0.69939 0.07178 0.02556
 C1385 C 0.71601 0.08710 0.01881
 C1386 C 0.72118 0.08823 -0.00387
 C1387 C 0.71024 0.07329 -0.01964
 C1388 C 0.69377 0.05785 -0.01307
 C1389 C 0.67594 0.05621 0.05440
 C1390 C 0.69320 0.07097 0.04793
 C1391 C 0.66525 0.02835 -0.02219
 C1392 C 0.68231 0.04322 -0.02869
 H1393 H 0.67157 0.05628 0.07178
 H1394 H 0.70158 0.08203 0.06050
 H1395 H 0.65672 0.01746 -0.03480
 H1396 H 0.68640 0.04343 -0.04614
 H1397 H 0.63286 0.00249 -0.00602
 H1398 H 0.64216 0.02697 0.06232
 H1399 H 0.72422 0.09872 0.03099
 H1400 H 0.71436 0.07390 -0.03708
 C1401 C 0.16916 0.54333 0.51624
 C1402 C 0.16331 0.54326 0.53872
 C1403 C 0.14582 0.52872 0.54510
 C1404 C 0.13434 0.51429 0.52915
 C1405 C 0.14057 0.51462 0.50671
 C1406 C 0.15789 0.52910 0.50017
 C1407 C 0.18719 0.55883 0.50931
 C1408 C 0.19258 0.55922 0.48672
 C1409 C 0.20909 0.57455 0.48005
 C1410 C 0.22017 0.58947 0.49575
 C1411 C 0.21505 0.58847 0.51845
 C1412 C 0.19839 0.57326 0.52531
 C1413 C 0.16398 0.52976 0.47778
 C1414 C 0.18102 0.54460 0.47117
 C1415 C 0.17502 0.55781 0.55429
 C1416 C 0.19227 0.57253 0.54770
 H1417 H 0.15539 0.51884 0.46524
 H1418 H 0.18506 0.54474 0.45370
 H1419 H 0.17074 0.55791 0.57169
 H1420 H 0.20073 0.58359 0.56022
 H1421 H 0.14130 0.52855 0.56243
 H1422 H 0.13174 0.50393 0.49415
 H1423 H 0.21314 0.57510 0.46259
 H1424 H 0.22334 0.60010 0.53056
 C1425 C 0.16686 0.46843 -0.02204
 C1426 C 0.15905 0.48260 -0.00510
 C1427 C 0.14293 0.49825 -0.01050
 C1428 C 0.13435 0.49953 -0.03259
 C1429 C 0.14279 0.48553 -0.04944
 C1430 C 0.15901 0.46992 -0.04425
 C1431 C 0.18305 0.45126 -0.01629
 C1432 C 0.19053 0.43681 -0.03317
 C1433 C 0.20524 0.41993 -0.02746
 C1434 C 0.21207 0.41726 -0.00505
 C1435 C 0.20479 0.43220 0.01159
 C1436 C 0.19025 0.44923 0.00606
 C1437 C 0.16717 0.45542 -0.06074
 C1438 C 0.18269 0.43917 -0.05530
 C1439 C 0.16707 0.48039 0.01700
 C1440 C 0.18239 0.46396 0.02249
 H1441 H 0.16128 0.45645 -0.07796
 H1442 H 0.18834 0.42813 -0.06846
 H1443 H 0.16121 0.49122 0.03022
 H1444 H 0.18790 0.46260 0.03978
 H1445 H 0.13647 0.50877 0.00264
 H1446 H 0.13655 0.48655 -0.06654
 H1447 H 0.21066 0.40835 -0.04029
 H1448 H 0.21030 0.43046 0.02883
 C1449 C 0.66841 0.96864 0.47882
 C1450 C 0.66063 0.98291 0.49569
 C1451 C 0.64457 0.99861 0.49020
 C1452 C 0.63601 0.99980 0.46810
 C1453 C 0.64443 0.98569 0.45132
 C1454 C 0.66060 0.97006 0.45659
 C1455 C 0.68451 0.95141 0.48467
 C1456 C 0.69195 0.93684 0.46786
 C1457 C 0.70652 0.91987 0.47367
 C1458 C 0.71322 0.91722 0.49612
 C1459 C 0.70602 0.93229 0.51268
 C1460 C 0.69163 0.94942 0.50704
 C1461 C 0.66873 0.95546 0.44017
 C1462 C 0.68417 0.93916 0.44571
 C1463 C 0.66860 0.98075 0.51781
 C1464 C 0.68382 0.96427 0.52340
 H1465 H 0.66288 0.95645 0.42294
 H1466 H 0.68979 0.92805 0.43259
 H1467 H 0.66277 0.99167 0.53098
 H1468 H 0.68927 0.96294 0.54071
 H1469 H 0.63813 1.00922 0.50328
 H1470 H 0.63821 0.98665 0.43420
 H1471 H 0.71189 0.90821 0.46090
 H1472 H 0.71145 0.93056 0.52995
 C1473 C 0.84200 0.95332 0.51422
 C1474 C 0.86228 0.94638 0.52382
 C1475 C 0.87982 0.96221 0.52841
 C1476 C 0.87718 0.98497 0.52377
 C1477 C 0.85680 0.99153 0.51373
 C1478 C 0.83915 0.97577 0.50897
 C1479 C 0.82318 0.93687 0.51024
 C1480 C 0.80265 0.94389 0.50122
 C1481 C 0.78440 0.92844 0.49874
 C1482 C 0.78658 0.90631 0.50562
 C1483 C 0.80749 0.89938 0.51390
 C1484 C 0.82583 0.91461 0.51633
 C1485 C 0.81852 0.98207 0.49950
 C1486 C 0.80058 0.96640 0.49569
 C1487 C 0.86448 0.92382 0.52909
 C1488 C 0.84654 0.90821 0.52545
 H1489 H 0.81611 0.99933 0.49529
 H1490 H 0.78486 0.97204 0.48869
 H1491 H 0.88008 0.91826 0.53645
 H1492 H 0.84878 0.89106 0.53014
 H1493 H 0.89534 0.95670 0.53589
 H1494 H 0.85440 1.00889 0.51002
 H1495 H 0.76826 0.93393 0.49264
 H1496 H 0.80926 0.88230 0.51905
 C1497 C 0.34122 0.45338 0.01260
 C1498 C 0.36155 0.44619 0.02187
 C1499 C 0.37891 0.46198 0.02728
 C1500 C 0.37602 0.48491 0.02380
 C1501 C 0.35577 0.49177 0.01380
 C1502 C 0.33823 0.47606 0.00830
 C1503 C 0.32242 0.43699 0.00821
 C1504 C 0.30176 0.44427 -0.00023
 C1505 C 0.28346 0.42887 -0.00283
 C1506 C 0.28574 0.40655 0.00344
 C1507 C 0.30680 0.39936 0.01101
 C1508 C 0.32517 0.41453 0.01353
 C1509 C 0.31751 0.48260 -0.00075
 C1510 C 0.29959 0.46698 -0.00495
 C1511 C 0.36390 0.42343 0.02621
 C1512 C 0.34599 0.40786 0.02214
 H1513 H 0.31498 0.50002 -0.00423
 H1514 H 0.28376 0.47282 -0.01149
 H1515 H 0.37955 0.41768 0.03327
 H1516 H 0.34832 0.39055 0.02621
 H1517 H 0.39452 0.45638 0.03455
 H1518 H 0.35330 0.50935 0.01110
 H1519 H 0.26720 0.43453 -0.00841
 H1520 H 0.30862 0.38213 0.01569
 C1521 C 0.56140 0.48308 0.35252
 C1522 C 0.56873 0.47229 0.37177
 C1523 C 0.55443 0.47053 0.38970
 C1524 C 0.53292 0.47951 0.38856
 C1525 C 0.52599 0.49066 0.36927
 C1526 C 0.54014 0.49235 0.35112
 C1527 C 0.57612 0.48426 0.33331
 C1528 C 0.56861 0.49447 0.31378
 C1529 C 0.58234 0.49468 0.29522
 C1530 C 0.60335 0.48465 0.29615
 C1531 C 0.61083 0.47509 0.31614
 C1532 C 0.59724 0.47467 0.33467
 C1533 C 0.53333 0.50279 0.33145
 C1534 C 0.54730 0.50379 0.31309
 C1535 C 0.59013 0.46321 0.37260
 C1536 C 0.60416 0.46443 0.35438
 H1537 H 0.51697 0.51003 0.33014
 H1538 H 0.54128 0.51175 0.29816
 H1539 H 0.59599 0.45492 0.38740
 H1540 H 0.62044 0.45701 0.35562
 H1541 H 0.56009 0.46220 0.40454
 H1542 H 0.50944 0.49750 0.36812
 H1543 H 0.57631 0.50187 0.27988
 H1544 H 0.62715 0.46772 0.31720
 C1545 C 0.06166 -0.01635 0.85058
 C1546 C 0.04039 -0.00706 0.84949
 C1547 C 0.02652 -0.00876 0.86784
 C1548 C 0.03372 -0.01993 0.88703
 C1549 C 0.05523 -0.02890 0.88786
 C1550 C 0.06927 -0.02714 0.86971
 C1551 C 0.07608 -0.01518 0.83113
 C1552 C 0.09720 -0.02478 0.83217
 C1553 C 0.11050 -0.02439 0.81342
 C1554 C 0.10271 -0.01485 0.79353
 C1555 C 0.08170 -0.00479 0.79293
 C1556 C 0.06827 -0.00497 0.81171
 C1557 C 0.09067 -0.03621 0.87023
 C1558 C 0.10442 -0.03501 0.85179
 C1559 C 0.03330 0.00339 0.82992
 C1560 C 0.04698 0.00438 0.81134
 H1561 H 0.09676 -0.04450 0.88494
 H1562 H 0.12071 -0.04243 0.85279
 H1563 H 0.01693 0.01065 0.82886
 H1564 H 0.04074 0.01235 0.79650
 H1565 H 0.00995 -0.00192 0.86693
 H1566 H 0.06111 -0.03724 0.90262
 H1567 H 0.12682 -0.03178 0.81423
 H1568 H 0.07543 0.00239 0.77767
 C1569 C 0.04629 0.01689 0.66612
 C1570 C 0.03249 0.00075 0.65437
 C1571 C 0.01847 0.00735 0.63675
 C1572 C 0.01818 0.02993 0.63061
 C1573 C 0.03206 0.04596 0.64277
 C1574 C 0.04617 0.03950 0.66054
 C1575 C 0.06146 0.00985 0.68435
 C1576 C 0.07559 0.02589 0.69594
 C1577 C 0.09059 0.01893 0.71271
 C1578 C 0.09169 -0.00391 0.71754
 C1579 C 0.07704 -0.01965 0.70609
 C1580 C 0.06193 -0.01288 0.68946
 C1581 C 0.06035 0.05512 0.67269
 C1582 C 0.07479 0.04844 0.69009
 C1583 C 0.03312 -0.02177 0.66028
 C1584 C 0.04762 -0.02848 0.67751
 H1585 H 0.06043 0.07264 0.66861
 H1586 H 0.08559 0.06100 0.69887
 H1587 H 0.02249 -0.03437 0.65134
 H1588 H 0.04780 -0.04606 0.68135
 H1589 H 0.00795 -0.00529 0.62786
 H1590 H 0.03213 0.06338 0.63838
 H1591 H 0.10201 0.03109 0.72130
 H1592 H 0.07766 -0.03722 0.70992
 C1593 C 0.54594 0.51581 0.17042
 C1594 C 0.53210 0.49957 0.15885
 C1595 C 0.51734 0.50617 0.14183
 C1596 C 0.51633 0.52884 0.13620
 C1597 C 0.53036 0.54495 0.14802
 C1598 C 0.54519 0.53851 0.16520
 C1599 C 0.56178 0.50883 0.18811
 C1600 C 0.57584 0.52500 0.19959
 C1601 C 0.59134 0.51814 0.21594
 C1602 C 0.59300 0.49529 0.22053
 C1603 C 0.57845 0.47939 0.20915
 C1604 C 0.56285 0.48605 0.19291
 C1605 C 0.55938 0.55424 0.17719
 C1606 C 0.57442 0.54760 0.19410
 C1607 C 0.53343 0.47699 0.16436
 C1608 C 0.54856 0.47034 0.18109
 H1609 H 0.55895 0.57181 0.17339
 H1610 H 0.58517 0.56026 0.20280
 H1611 H 0.52279 0.46431 0.15555
 H1612 H 0.54920 0.45272 0.18468
 H1613 H 0.50696 0.49349 0.13276
 H1614 H 0.52968 0.56245 0.14399
 H1615 H 0.60266 0.53045 0.22445
 H1616 H 0.57943 0.46180 0.21281
 C1617 C 0.46646 -0.02153 0.16700
 C1618 C 0.46807 -0.04389 0.15958
 C1619 C 0.48389 -0.04923 0.14370
 C1620 C 0.49802 -0.03238 0.13521
 C1621 C 0.49660 -0.01013 0.14335
 C1622 C 0.48071 -0.00458 0.15910
 C1623 C 0.44908 -0.01564 0.18282
 C1624 C 0.44692 0.00685 0.18957
 C1625 C 0.42970 0.01250 0.20375
 C1626 C 0.41469 -0.00415 0.21114
 C1627 C 0.41748 -0.02670 0.20478
 C1628 C 0.43455 -0.03253 0.19042
 C1629 C 0.47837 0.01766 0.16667
 C1630 C 0.46174 0.02329 0.18162
 C1631 C 0.45349 -0.06038 0.16783
 C1632 C 0.43704 -0.05480 0.18303
 H1633 H 0.48927 0.03089 0.16073
 H1634 H 0.46029 0.04069 0.18679
 H1635 H 0.45462 -0.07771 0.16229
 H1636 H 0.42597 -0.06799 0.18877
 H1637 H 0.48502 -0.06645 0.13779
 H1638 H 0.50722 0.00300 0.13683
 H1639 H 0.42787 0.02986 0.20892
 H1640 H 0.40586 -0.03955 0.21029
 C1641 C 0.96542 0.47834 0.66703
 C1642 C 0.96718 0.45605 0.65948
 C1643 C 0.98309 0.45091 0.64363
 C1644 C 0.99716 0.46789 0.63530
 C1645 C 0.99561 0.49007 0.64358
 C1646 C 0.97963 0.49542 0.65931
 C1647 C 0.94793 0.48402 0.68282
 C1648 C 0.94564 0.50645 0.68970
 C1649 C 0.92830 0.51192 0.70381
 C1650 C 0.91329 0.49514 0.71098
 C1651 C 0.91625 0.47265 0.70454
 C1652 C 0.93345 0.46700 0.69024
 C1653 C 0.97716 0.51759 0.66704
 C1654 C 0.96043 0.52302 0.68195
 C1655 C 0.95265 0.43941 0.66757
 C1656 C 0.93611 0.44479 0.68272
 H1657 H 0.98804 0.53091 0.66125
 H1658 H 0.95888 0.54038 0.68724
 H1659 H 0.95391 0.42213 0.66192
 H1660 H 0.92509 0.43150 0.68834
 H1661 H 0.98433 0.43374 0.63761
 H1662 H 1.00618 0.50331 0.63719
 H1663 H 0.92635 0.52923 0.70907
 H1664 H 0.90467 0.45970 0.70991
 C1665 C 0.94836 0.51358 0.83950
 C1666 C 0.94143 0.52413 0.85920
 C1667 C 0.95724 0.52927 0.87655
 C1668 C 0.97991 0.52409 0.87432
 C1669 C 0.98649 0.51292 0.85470
 C1670 C 0.97077 0.50778 0.83713
 C1671 C 0.93201 0.50930 0.82072
 C1672 C 0.93909 0.49960 0.80064
 C1673 C 0.92381 0.49703 0.78231
 C1674 C 0.90178 0.50445 0.78399
 C1675 C 0.89474 0.51325 0.80452
 C1676 C 0.90982 0.51588 0.82288
 C1677 C 0.97710 0.49754 0.81701
 C1678 C 0.96154 0.49354 0.79906
 C1679 C 0.91892 0.52984 0.86096
 C1680 C 0.90337 0.52579 0.84309
 H1681 H 0.99433 0.49293 0.81496
 H1682 H 0.96723 0.48602 0.78369
 H1683 H 0.91336 0.53790 0.87612
 H1684 H 0.88627 0.53087 0.84495
 H1685 H 0.95188 0.53750 0.89170
 H1686 H 1.00389 0.50895 0.85275
 H1687 H 0.92941 0.49048 0.76648
 H1688 H 0.87771 0.51874 0.80595
 C1689 C 0.45028 0.01428 0.33972
 C1690 C 0.47265 0.00836 0.33732
 C1691 C 0.48842 0.01343 0.35486
 C1692 C 0.48193 0.02463 0.37450
 C1693 C 0.45928 0.02990 0.37677
 C1694 C 0.44343 0.02485 0.35944
 C1695 C 0.43388 0.01012 0.32095
 C1696 C 0.41174 0.01685 0.32315
 C1697 C 0.39663 0.01432 0.30481
 C1698 C 0.40358 0.00547 0.28426
 C1699 C 0.42556 -0.00208 0.28255
 C1700 C 0.44088 0.00039 0.30086
 C1701 C 0.42096 0.03070 0.36123
 C1702 C 0.40537 0.02677 0.34338
 C1703 C 0.47889 -0.00193 0.31718
 C1704 C 0.46328 -0.00582 0.29925
 H1705 H 0.41547 0.03878 0.37642
 H1706 H 0.38831 0.03196 0.34527
 H1707 H 0.49607 -0.00664 0.31510
 H1708 H 0.46890 -0.01338 0.28387
 H1709 H 0.50580 0.00937 0.35288
 H1710 H 0.45397 0.03814 0.39193
 H1711 H 0.37964 0.01992 0.30627
 H1712 H 0.43110 -0.00867 0.26671
   
