data_POSCAR
  _audit_creation_date              2014-09-24
  _audit_creation_method            'ToBaCCo'
  _symmetry_space_group_name_H-M    'P1'
  _symmetry_Int_Tables_number       1
  _symmetry_cell_setting            triclinic
  loop_
  _symmetry_equiv_pos_as_xyz
 x,y,z
_cell_length_a 59.5803
_cell_length_b 59.6730
_cell_length_c 59.6210
_cell_angle_alpha 90.034100
_cell_angle_beta 90.057100
_cell_angle_gamma 90.013300
loop_
  _atom_site_label
  _atom_site_type_symbol
  _atom_site_fract_x
  _atom_site_fract_y
  _atom_site_fract_z
C1 C 0.24286 1.06305 0.00166
 C2 C 0.24671 1.05216 0.02222
 C3 C 0.24959 1.02873 0.02214
 C4 C 0.24796 1.01625 0.00201
 C5 C 0.24373 1.02784 -0.01824
 C6 C 0.24174 1.05129 -0.01872
 C7 C 0.25077 0.99123 0.00199
 C8 C 0.25845 0.97998 -0.01746
 C9 C 0.26033 0.95657 -0.01796
 C10 C 0.25522 0.94432 0.00134
 C11 C 0.24785 0.95488 0.02095
 C12 C 0.24550 0.97831 0.02119
 H13 H 0.24097 1.08109 0.00147
 H14 H 0.25351 1.02034 0.03773
 H15 H 0.24165 1.01865 -0.03373
 H16 H 0.26335 0.98924 -0.03225
 H17 H 0.25679 0.92624 0.00101
 H18 H 0.23894 0.98619 0.03614
 C19 C 0.75131 0.56324 0.50342
 C20 C 0.74671 0.55241 0.52376
 C21 C 0.74590 0.52887 0.52423
 C22 C 0.75018 0.51615 0.50465
 C23 C 0.75524 0.52768 0.48456
 C24 C 0.75536 0.55114 0.48374
 C25 C 0.74927 0.49102 0.50496
 C26 C 0.74433 0.47895 0.48511
 C27 C 0.74444 0.45548 0.48486
 C28 C 0.74868 0.44392 0.50479
 C29 C 0.75320 0.45527 0.52484
 C30 C 0.75364 0.47881 0.52486
 H31 H 0.75163 0.58137 0.50287
 H32 H 0.74143 0.52066 0.53976
 H33 H 0.75947 0.51857 0.46947
 H34 H 0.74007 0.48762 0.46977
 H35 H 0.74859 0.42577 0.50469
 H36 H 0.75803 0.48737 0.54023
 C37 C 0.75594 1.00184 1.06580
 C38 C 0.75678 0.98147 1.05404
 C39 C 0.75546 0.98202 1.03052
 C40 C 0.75198 1.00239 1.01885
 C41 C 0.75050 1.02250 1.03138
 C42 C 0.75296 1.02248 1.05485
 C43 C 0.74983 1.00256 0.99372
 C44 C 0.75517 1.02196 0.98111
 C45 C 0.75324 1.02201 0.95764
 C46 C 0.74640 1.00245 0.94665
 C47 C 0.74128 0.98294 0.95857
 C48 C 0.74261 0.98318 0.98204
 H49 H 0.75742 1.00160 1.08389
 H50 H 0.75743 0.96650 1.02140
 H51 H 0.74709 1.03819 1.02300
 H52 H 0.76143 1.03690 0.98924
 H53 H 0.74519 1.00236 0.92853
 H54 H 0.73760 0.96825 0.99098
 C55 C 0.25113 0.50232 0.56328
 C56 C 0.25431 0.48230 0.55149
 C57 C 0.25404 0.48275 0.52797
 C58 C 0.24972 0.50286 0.51613
 C59 C 0.24631 0.52277 0.52861
 C60 C 0.24731 0.52263 0.55216
 C61 C 0.24863 0.50291 0.49093
 C62 C 0.25318 0.52262 0.47849
 C63 C 0.25222 0.52253 0.45495
 C64 C 0.24714 0.50252 0.44378
 C65 C 0.24275 0.48273 0.45553
 C66 C 0.24313 0.48310 0.47904
 H67 H 0.25162 0.50210 0.58143
 H68 H 0.25758 0.46736 0.51909
 H69 H 0.24237 0.53835 0.52025
 H70 H 0.25804 0.53794 0.48686
 H71 H 0.24663 0.50234 0.42562
 H72 H 0.23870 0.46792 0.48787
 C73 C 1.06424 0.24519 -0.00222
 C74 C 1.05330 0.24922 0.01826
 C75 C 1.02971 0.24963 0.01849
 C76 C 1.01705 0.24490 -0.00103
 C77 C 1.02865 0.24051 -0.02124
 C78 C 1.05220 0.24090 -0.02198
 C79 C 0.99188 0.24425 -0.00005
 C80 C 0.97870 0.24893 -0.01927
 C81 C 0.95507 0.24833 -0.01831
 C82 C 0.94480 0.24347 0.00232
 C83 C 0.95737 0.23882 0.02154
 C84 C 0.98081 0.23895 0.02026
 H85 H 1.08240 0.24528 -0.00287
 H86 H 1.02124 0.25388 0.03394
 H87 H 1.01955 0.23620 -0.03634
 H88 H 0.98671 0.25357 -0.03486
 H89 H 0.92668 0.24337 0.00365
 H90 H 0.99021 0.23442 0.03510
 C91 C 0.56144 0.75116 0.49730
 C92 C 0.54976 0.75577 0.51714
 C93 C 0.52625 0.75586 0.51679
 C94 C 0.51425 0.75070 0.49700
 C95 C 0.52650 0.74595 0.47723
 C96 C 0.55010 0.74634 0.47725
 C97 C 0.48910 0.75029 0.49717
 C98 C 0.47667 0.75542 0.47762
 C99 C 0.45311 0.75541 0.47795
 C100 C 0.44194 0.75043 0.49798
 C101 C 0.45374 0.74537 0.51762
 C102 C 0.47727 0.74506 0.51708
 H103 H 0.57961 0.75127 0.49750
 H104 H 0.51741 0.76036 0.53197
 H105 H 0.51784 0.74142 0.46193
 H106 H 0.48515 0.76005 0.46227
 H107 H 0.42377 0.75058 0.49831
 H108 H 0.48619 0.74035 0.53216
 C109 C 0.00067 0.75142 -0.06304
 C110 C 0.02096 0.74849 -0.05154
 C111 C 0.02088 0.74861 -0.02804
 C112 C 0.00090 0.75253 -0.01588
 C113 C -0.01930 0.75574 -0.02800
 C114 C -0.01970 0.75473 -0.05161
 C115 C 0.00121 0.75325 0.00931
 C116 C -0.01824 0.74798 0.02193
 C117 C -0.01800 0.74868 0.04554
 C118 C 0.00218 0.75413 0.05643
 C119 C 0.02163 0.75932 0.04448
 C120 C 0.02106 0.75912 0.02100
 H121 H 0.00086 0.75114 -0.08119
 H122 H 0.03647 0.74525 -0.01938
 H123 H -0.03471 0.75941 -0.01919
 H124 H -0.03345 0.74278 0.01351
 H125 H 0.00295 0.75431 0.07458
 H126 H 0.03606 0.76404 0.01208
 C127 C 0.50262 0.24935 0.43912
 C128 C 0.52297 0.25351 0.45018
 C129 C 0.52334 0.25394 0.47372
 C130 C 0.50367 0.24966 0.48627
 C131 C 0.48351 0.24507 0.47454
 C132 C 0.48280 0.24532 0.45103
 C133 C 0.50404 0.25015 0.51144
 C134 C 0.48431 0.25523 0.52360
 C135 C 0.48419 0.25507 0.54709
 C136 C 0.50412 0.25051 0.55859
 C137 C 0.52406 0.24579 0.54715
 C138 C 0.52395 0.24545 0.52359
 H139 H 0.50220 0.24931 0.42096
 H140 H 0.53890 0.25812 0.48209
 H141 H 0.46832 0.24092 0.48352
 H142 H 0.46899 0.25971 0.51498
 H143 H 0.50411 0.25057 0.57676
 H144 H 0.53924 0.24092 0.51496
 C145 C 1.05529 -0.00454 0.24554
 C146 C 1.04443 0.01564 0.25085
 C147 C 1.02079 0.01589 0.25134
 C148 C 1.00813 -0.00348 0.24584
 C149 C 1.01978 -0.02335 0.24019
 C150 C 1.04328 -0.02394 0.24020
 C151 C 0.98291 -0.00285 0.24565
 C152 C 0.97011 -0.02257 0.24908
 C153 C 0.94647 -0.02214 0.24828
 C154 C 0.93574 -0.00143 0.24494
 C155 C 0.94793 0.01837 0.24177
 C156 C 0.97142 0.01750 0.24176
 H157 H 1.07345 -0.00533 0.24548
 H158 H 1.01238 0.03111 0.25643
 H159 H 1.01081 -0.03827 0.23513
 H160 H 0.97844 -0.03825 0.25269
 H161 H 0.91759 -0.00058 0.24479
 H162 H 0.98057 0.03273 0.23821
 C163 C 0.55691 0.49765 0.74998
 C164 C 0.54504 0.51747 0.74603
 C165 C 0.52153 0.51695 0.74620
 C166 C 0.50973 0.49695 0.75111
 C167 C 0.52227 0.47720 0.75524
 C168 C 0.54584 0.47745 0.75447
 C169 C 0.48452 0.49690 0.75205
 C170 C 0.47211 0.47707 0.74795
 C171 C 0.44854 0.47715 0.74873
 C172 C 0.43733 0.49732 0.75309
 C173 C 0.44907 0.51726 0.75694
 C174 C 0.47260 0.51685 0.75688
 H175 H 0.57508 0.49797 0.74964
 H176 H 0.51263 0.53218 0.74210
 H177 H 0.51394 0.46172 0.75965
 H178 H 0.48055 0.46164 0.74361
 H179 H 0.41916 0.49753 0.75339
 H180 H 0.48143 0.53214 0.76094
 C181 C 1.00164 1.05536 0.73569
 C182 C 0.98122 1.04602 0.74288
 C183 C 0.98037 1.02278 0.74717
 C184 C 0.99946 1.00899 0.74378
 C185 C 1.01951 1.01912 0.73613
 C186 C 1.02077 1.04223 0.73255
 C187 C 0.99870 0.98421 0.74823
 C188 C 1.01862 0.97229 0.75333
 C189 C 1.01856 0.94888 0.75601
 C190 C 0.99790 0.93760 0.75514
 C191 C 0.97778 0.94890 0.75060
 C192 C 0.97831 0.97213 0.74685
 H193 H 1.00295 1.07323 0.73287
 H194 H 0.96501 1.01564 0.75362
 H195 H 1.03425 1.00921 0.73253
 H196 H 1.03432 0.98114 0.75534
 H197 H 0.99743 0.91965 0.75774
 H198 H 0.96289 0.98050 0.74227
 C199 C 0.49788 0.55626 0.24767
 C200 C 0.47788 0.54568 0.25393
 C201 C 0.47746 0.52223 0.25600
 C202 C 0.49687 0.50931 0.25152
 C203 C 0.51669 0.52059 0.24484
 C204 C 0.51737 0.54400 0.24330
 C205 C 0.49672 0.48427 0.25400
 C206 C 0.51688 0.47262 0.25860
 C207 C 0.51735 0.44918 0.25983
 C208 C 0.49723 0.43729 0.25760
 C209 C 0.47681 0.44826 0.25360
 C210 C 0.47668 0.47173 0.25154
 H211 H 0.49834 0.57436 0.24632
 H212 H 0.46216 0.51432 0.26169
 H213 H 0.53164 0.51134 0.24042
 H214 H 0.53235 0.48163 0.26146
 H215 H 0.49749 0.41919 0.25883
 H216 H 0.46105 0.47999 0.24747
 O217 O 0.24391 0.18966 0.22704
 O218 O 0.26904 0.18388 0.25877
 O219 O 0.18485 0.21710 0.25822
 O220 O 0.17801 0.24433 0.28194
 O221 O 0.21343 0.24912 0.20001
 O222 O 0.24469 0.27229 0.19341
 O223 O 0.24408 0.27902 0.31653
 O224 O 0.21800 0.24951 0.32245
 O225 O 0.30137 0.24823 0.28937
 O226 O 0.30877 0.22382 0.26065
 O227 O 0.27426 0.30630 0.26018
 O228 O 0.24505 0.31117 0.23215
 O229 O 0.24419 0.30586 0.28941
 O230 O 0.21543 0.30923 0.25856
 O231 O 0.30108 0.27914 0.25935
 O232 O 0.30751 0.24652 0.23309
 O233 O 0.27472 0.24857 0.31666
 O234 O 0.24339 0.22300 0.32326
 O235 O 0.24450 0.21690 0.20037
 O236 O 0.26976 0.24826 0.19468
 O237 O 0.18567 0.24847 0.22620
 O238 O 0.18187 0.27576 0.25723
 O239 O 0.21200 0.19012 0.25828
 O240 O 0.24161 0.18454 0.28451
 Zr241 Zr 0.24259 0.20769 0.25757
 O242 O 0.26358 0.22697 0.27850
 Zr243 Zr 0.20324 0.24727 0.25708
 O244 O 0.22257 0.26788 0.27855
 Zr245 Zr 0.24335 0.24715 0.21833
 O246 O 0.26379 0.26824 0.23774
 Zr247 Zr 0.24419 0.24855 0.29855
 O248 O 0.22293 0.22771 0.27901
 Zr249 Zr 0.28346 0.24857 0.25917
 O250 O 0.26469 0.22712 0.23799
 Zr251 Zr 0.24401 0.28796 0.25912
 O252 O 0.22326 0.26881 0.23754
 O253 O 0.22213 0.22646 0.23652
 O254 O 0.26506 0.26953 0.28015
 C255 C 0.24484 0.19629 0.20654
 C256 C 0.19138 0.19654 0.25885
 C257 C 0.19270 0.24957 0.20582
 C258 C 0.24391 0.29956 0.31000
 C259 C 0.29524 0.24815 0.31000
 C260 C 0.29481 0.29976 0.25972
 H261 H 0.27310 0.21678 0.28747
 H262 H 0.27289 0.27775 0.22767
 H263 H 0.21258 0.21699 0.22677
 H264 H 0.21248 0.27718 0.28787
 H265 H 0.20619 0.23918 0.31698
 H266 H 0.18094 0.25597 0.29340
 H267 H 0.30549 0.25968 0.22321
 H268 H 0.28094 0.23695 0.19943
 H269 H 0.25500 0.21179 0.31946
 H270 H 0.23058 0.19026 0.29553
 H271 H 0.24787 0.32636 0.23828
 H272 H 0.23617 0.28522 0.19937
 H273 H 0.26303 0.16890 0.25469
 H274 H 0.30189 0.20986 0.25493
 H275 H 0.16643 0.27077 0.25348
 H276 H 0.21984 0.32426 0.26412
 O277 O 0.74998 0.80024 0.21390
 O278 O 0.72389 0.80582 0.24474
 O279 O 0.80843 0.77378 0.24556
 O280 O 0.81537 0.74647 0.26917
 O281 O 0.78134 0.74166 0.18627
 O282 O 0.75012 0.71810 0.17943
 O283 O 0.75022 0.71103 0.30209
 O284 O 0.77495 0.74116 0.30895
 O285 O 0.69174 0.73986 0.27494
 O286 O 0.68484 0.76561 0.24669
 O287 O 0.72017 0.68337 0.24541
 O288 O 0.74985 0.67892 0.21792
 O289 O 0.74985 0.68371 0.27542
 O290 O 0.77918 0.68118 0.24473
 O291 O 0.69305 0.71021 0.24373
 O292 O 0.68641 0.74310 0.21848
 O293 O 0.71869 0.73959 0.30198
 O294 O 0.74885 0.76665 0.30951
 O295 O 0.75043 0.77382 0.18636
 O296 O 0.72476 0.74250 0.18046
 O297 O 0.80818 0.74235 0.21347
 O298 O 0.81235 0.71523 0.24433
 O299 O 0.78085 0.80034 0.24566
 O300 O 0.75051 0.80523 0.27131
 Zr301 Zr 0.75058 0.78226 0.24417
 O302 O 0.72953 0.76267 0.26459
 Zr303 Zr 0.79046 0.74331 0.24397
 O304 O 0.77124 0.72226 0.26488
 Zr305 Zr 0.75104 0.74331 0.20432
 O306 O 0.73062 0.72180 0.22346
 Zr307 Zr 0.74922 0.74136 0.28449
 O308 O 0.77039 0.76259 0.26566
 Zr309 Zr 0.71021 0.74095 0.24481
 O310 O 0.72905 0.76276 0.22400
 Zr311 Zr 0.75026 0.70199 0.24505
 O312 O 0.77100 0.72169 0.22388
 O313 O 0.77165 0.76400 0.22328
 O314 O 0.72879 0.72014 0.26582
 C315 C 0.74995 0.79426 0.19320
 C316 C 0.80158 0.79426 0.24634
 C317 C 0.80187 0.74129 0.19287
 C318 C 0.75035 0.69041 0.29593
 C319 C 0.69812 0.73927 0.29554
 C320 C 0.69958 0.68969 0.24418
 H321 H 0.71972 0.77256 0.27357
 H322 H 0.72180 0.71226 0.21313
 H323 H 0.78135 0.77362 0.21386
 H324 H 0.78140 0.71309 0.27427
 H325 H 0.78663 0.75173 0.30371
 H326 H 0.81232 0.73490 0.28065
 H327 H 0.68937 0.73067 0.20790
 H328 H 0.71375 0.75404 0.18506
 H329 H 0.73648 0.77716 0.30610
 H330 H 0.76136 0.79960 0.28256
 H331 H 0.74722 0.66365 0.22394
 H332 H 0.75885 0.70533 0.18544
 H333 H 0.72987 0.82087 0.24091
 H334 H 0.69142 0.77947 0.24042
 H335 H 0.82774 0.72046 0.24074
 H336 H 0.77495 0.66610 0.25024
 O337 O 0.75351 0.19235 0.78415
 O338 O 0.72773 0.18583 0.75271
 O339 O 0.81107 0.22031 0.75283
 O340 O 0.81737 0.24754 0.72850
 O341 O 0.78288 0.25236 0.81083
 O342 O 0.75048 0.27498 0.81736
 O343 O 0.75143 0.28127 0.69491
 O344 O 0.77789 0.25185 0.68883
 O345 O 0.69432 0.24915 0.72135
 O346 O 0.68770 0.22434 0.75033
 O347 O 0.72018 0.30755 0.75138
 O348 O 0.74958 0.31329 0.77902
 O349 O 0.74979 0.30833 0.72181
 O350 O 0.77898 0.31204 0.75235
 O351 O 0.69361 0.28012 0.75157
 O352 O 0.68792 0.24778 0.77777
 O353 O 0.72131 0.25044 0.69441
 O354 O 0.75231 0.22556 0.68746
 O355 O 0.75265 0.21931 0.81114
 O356 O 0.72640 0.24961 0.81674
 O357 O 0.81019 0.25194 0.78413
 O358 O 0.81345 0.27902 0.75335
 O359 O 0.78461 0.19264 0.75318
 O360 O 0.75513 0.18667 0.72675
 Zr361 Zr 0.75385 0.21000 0.75353
 O362 O 0.73252 0.22880 0.73257
 Zr363 Zr 0.79239 0.25028 0.75364
 O364 O 0.77271 0.27061 0.73242
 Zr365 Zr 0.75260 0.24947 0.79284
 O366 O 0.73156 0.26997 0.77335
 Zr367 Zr 0.75157 0.25072 0.71259
 O368 O 0.77314 0.23017 0.73192
 Zr369 Zr 0.71211 0.24999 0.75183
 O370 O 0.73146 0.22906 0.77316
 Zr371 Zr 0.75086 0.29015 0.75198
 O372 O 0.77213 0.27144 0.77340
 O373 O 0.77404 0.22927 0.77440
 O374 O 0.73021 0.27129 0.73092
 C375 C 0.75303 0.19876 0.80473
 C376 C 0.80506 0.19956 0.75271
 C377 C 0.80352 0.25310 0.80458
 C378 C 0.75066 0.30186 0.70129
 C379 C 0.70076 0.24943 0.70078
 C380 C 0.69970 0.30079 0.75159
 H381 H 0.72324 0.21841 0.72357
 H382 H 0.72228 0.27930 0.78344
 H383 H 0.78390 0.22012 0.78413
 H384 H 0.78260 0.28013 0.72312
 H385 H 0.78952 0.24118 0.69402
 H386 H 0.81436 0.25931 0.71721
 H387 H 0.69028 0.26055 0.78808
 H388 H 0.71527 0.23837 0.81167
 H389 H 0.74175 0.21358 0.69187
 H390 H 0.76611 0.19245 0.71573
 H391 H 0.74630 0.32841 0.77294
 H392 H 0.75949 0.28770 0.81168
 H393 H 0.73401 0.17102 0.75699
 H394 H 0.69458 0.21099 0.75737
 H395 H 0.82904 0.27419 0.75665
 H396 H 0.77421 0.32698 0.74687
 O397 O 0.25826 0.81478 0.78209
 O398 O 0.28279 0.81983 0.75001
 O399 O 0.19863 0.78745 0.75234
 O400 O 0.19133 0.76069 0.72805
 O401 O 0.22617 0.75649 0.81057
 O402 O 0.25720 0.73250 0.81712
 O403 O 0.25592 0.72421 0.69420
 O404 O 0.23063 0.75439 0.68790
 O405 O 0.31452 0.75318 0.72054
 O406 O 0.32172 0.77959 0.74838
 O407 O 0.28623 0.69756 0.75113
 O408 O 0.25708 0.69309 0.77891
 O409 O 0.25633 0.69768 0.72164
 O410 O 0.22740 0.69528 0.75271
 O411 O 0.31394 0.72386 0.75158
 O412 O 0.32075 0.75704 0.77689
 O413 O 0.28719 0.75283 0.69386
 O414 O 0.25714 0.77988 0.68650
 O415 O 0.25880 0.78807 0.80933
 O416 O 0.28269 0.75613 0.81578
 O417 O 0.19912 0.75611 0.78359
 O418 O 0.19436 0.72928 0.75281
 O419 O 0.22555 0.81468 0.75193
 O420 O 0.25489 0.81888 0.72445
 Zr421 Zr 0.25605 0.79639 0.75194
 O422 O 0.27683 0.77640 0.73134
 Zr423 Zr 0.21647 0.75722 0.75298
 O424 O 0.23519 0.73601 0.73189
 Zr425 Zr 0.25635 0.75748 0.79202
 O426 O 0.27649 0.73587 0.77278
 Zr427 Zr 0.25692 0.75486 0.71175
 O428 O 0.23608 0.77636 0.73081
 Zr429 Zr 0.29657 0.75475 0.75090
 O430 O 0.27795 0.77677 0.77177
 Zr431 Zr 0.25632 0.71608 0.75174
 O432 O 0.23599 0.73580 0.77304
 O433 O 0.23552 0.77812 0.77336
 O434 O 0.27752 0.73384 0.73042
 C435 C 0.25964 0.80853 0.80266
 C436 C 0.20493 0.80807 0.75200
 C437 C 0.20557 0.75556 0.80414
 C438 C 0.25581 0.70375 0.70097
 C439 C 0.30783 0.75227 0.70006
 C440 C 0.30696 0.70345 0.75160
 H441 H 0.28656 0.78615 0.72211
 H442 H 0.28546 0.72638 0.78301
 H443 H 0.22625 0.78779 0.78316
 H444 H 0.22488 0.72674 0.72274
 H445 H 0.21936 0.76549 0.69295
 H446 H 0.19402 0.74897 0.71661
 H447 H 0.31842 0.74423 0.78716
 H448 H 0.29436 0.76673 0.81060
 H449 H 0.26901 0.79086 0.69017
 H450 H 0.24339 0.81321 0.71388
 H451 H 0.25958 0.67779 0.77291
 H452 H 0.24822 0.71979 0.81134
 H453 H 0.27695 0.83498 0.75367
 H454 H 0.31529 0.79335 0.75502
 H455 H 0.17902 0.73464 0.75638
 H456 H 0.23145 0.68021 0.74703
 O457 O 0.24893 0.30135 0.71372
 O458 O 0.22247 0.30634 0.74436
 O459 O 0.30722 0.27486 0.74589
 O460 O 0.31398 0.24714 0.76953
 O461 O 0.28153 0.24424 0.68598
 O462 O 0.25099 0.21940 0.67841
 O463 O 0.24729 0.21102 0.80073
 O464 O 0.27307 0.24050 0.80834
 O465 O 0.19041 0.23941 0.77310
 O466 O 0.18365 0.26560 0.74511
 O467 O 0.22001 0.18377 0.74277
 O468 O 0.25079 0.18017 0.71610
 O469 O 0.24780 0.18401 0.77375
 O470 O 0.27875 0.18193 0.74456
 O471 O 0.19253 0.21028 0.74120
 O472 O 0.18595 0.24366 0.71652
 O473 O 0.21700 0.23978 0.80051
 O474 O 0.24723 0.26667 0.80870
 O475 O 0.24982 0.27518 0.68594
 O476 O 0.22511 0.24336 0.67905
 O477 O 0.30789 0.24493 0.71366
 O478 O 0.31161 0.21637 0.74361
 O479 O 0.27953 0.30132 0.74534
 O480 O 0.24886 0.30550 0.77132
 Zr481 Zr 0.24934 0.28299 0.74380
 O482 O 0.22812 0.26293 0.76358
 Zr483 Zr 0.28957 0.24432 0.74380
 O484 O 0.27023 0.22281 0.76416
 Zr485 Zr 0.25084 0.24446 0.70349
 O486 O 0.23031 0.22256 0.72200
 Zr487 Zr 0.24773 0.24157 0.78351
 O488 O 0.26903 0.26324 0.76537
 Zr489 Zr 0.20931 0.24125 0.74322
 O490 O 0.22833 0.26349 0.72302
 Zr491 Zr 0.24981 0.20268 0.74367
 O492 O 0.27075 0.22278 0.72306
 O493 O 0.27081 0.26508 0.72312
 O494 O 0.22782 0.22044 0.76420
 C495 C 0.24917 0.29556 0.69297
 C496 C 0.30029 0.29531 0.74613
 C497 C 0.30195 0.24471 0.69293
 C498 C 0.24699 0.19047 0.79433
 C499 C 0.19655 0.23894 0.79379
 C500 C 0.19938 0.18984 0.74125
 H501 H 0.21808 0.27261 0.77255
 H502 H 0.22179 0.21309 0.71135
 H503 H 0.28039 0.27502 0.71394
 H504 H 0.28013 0.21354 0.77372
 H505 H 0.28489 0.25112 0.80355
 H506 H 0.31115 0.23498 0.78044
 H507 H 0.18917 0.23139 0.70582
 H508 H 0.21375 0.25459 0.68356
 H509 H 0.23495 0.27725 0.80521
 H510 H 0.26018 0.30019 0.78226
 H511 H 0.24793 0.16478 0.72169
 H512 H 0.26059 0.20713 0.68413
 H513 H 0.22843 0.32149 0.74089
 H514 H 0.19024 0.27968 0.73935
 H515 H 0.32701 0.22186 0.74048
 H516 H 0.27421 0.16675 0.74954
 O517 O 0.74162 0.69539 0.72490
 O518 O 0.76685 0.68930 0.75657
 O519 O 0.68252 0.72198 0.75551
 O520 O 0.67586 0.74844 0.78073
 O521 O 0.71078 0.75561 0.69862
 O522 O 0.74229 0.77823 0.69203
 O523 O 0.74115 0.78344 0.81539
 O524 O 0.71558 0.75356 0.82100
 O525 O 0.79884 0.75439 0.78775
 O526 O 0.80614 0.72917 0.75924
 O527 O 0.77156 0.81167 0.75931
 O528 O 0.74226 0.81696 0.73157
 O529 O 0.74130 0.81072 0.78868
 O530 O 0.71252 0.81423 0.75765
 O531 O 0.79839 0.78454 0.75780
 O532 O 0.80500 0.75221 0.73152
 O533 O 0.77226 0.75406 0.81510
 O534 O 0.74144 0.72735 0.82137
 O535 O 0.74137 0.72280 0.69837
 O536 O 0.76728 0.75404 0.69319
 O537 O 0.68311 0.75421 0.72490
 O538 O 0.67901 0.78051 0.75649
 O539 O 0.70987 0.69518 0.75524
 O540 O 0.73918 0.68959 0.78230
 Zr541 Zr 0.74030 0.71300 0.75559
 O542 O 0.76125 0.73208 0.77674
 Zr543 Zr 0.70075 0.75232 0.75566
 O544 O 0.71999 0.77278 0.77732
 Zr545 Zr 0.74079 0.75291 0.71675
 O546 O 0.76112 0.77385 0.73642
 Zr547 Zr 0.74171 0.75327 0.79703
 O548 O 0.72051 0.73254 0.77731
 Zr549 Zr 0.78090 0.75398 0.75757
 O550 O 0.76225 0.73271 0.73614
 Zr551 Zr 0.74131 0.79324 0.75809
 O552 O 0.72064 0.77421 0.73633
 O553 O 0.71976 0.73199 0.73480
 O554 O 0.76241 0.77459 0.77881
 C555 C 0.74185 0.70213 0.70443
 C556 C 0.68920 0.70144 0.75526
 C557 C 0.69007 0.75591 0.70455
 C558 C 0.74089 0.80407 0.80917
 C559 C 0.79277 0.75450 0.80839
 C560 C 0.79212 0.80513 0.75857
 H561 H 0.77093 0.72194 0.78560
 H562 H 0.77016 0.78352 0.72643
 H563 H 0.71021 0.72279 0.72480
 H564 H 0.70982 0.78188 0.78675
 H565 H 0.70398 0.74298 0.81555
 H566 H 0.67858 0.76007 0.79226
 H567 H 0.80259 0.76516 0.72146
 H568 H 0.77818 0.74233 0.69764
 H569 H 0.75338 0.71651 0.81753
 H570 H 0.72785 0.69503 0.79315
 H571 H 0.74490 0.83207 0.73801
 H572 H 0.73432 0.79134 0.69834
 H573 H 0.76087 0.67435 0.75236
 H574 H 0.79955 0.71545 0.75266
 H575 H 0.66358 0.77534 0.75297
 H576 H 0.71669 0.82915 0.76367
 O577 O 0.24992 0.69312 0.28162
 O578 O 0.22408 0.68631 0.25024
 O579 O 0.30768 0.72034 0.25053
 O580 O 0.31404 0.74694 0.22524
 O581 O 0.27959 0.75363 0.30754
 O582 O 0.24726 0.77619 0.31379
 O583 O 0.24714 0.78063 0.19109
 O584 O 0.27467 0.75166 0.18545
 O585 O 0.19115 0.75123 0.21806
 O586 O 0.18468 0.72467 0.24658
 O587 O 0.21725 0.80784 0.24560
 O588 O 0.24602 0.81404 0.27464
 O589 O 0.24697 0.80811 0.21762
 O590 O 0.27604 0.81224 0.24842
 O591 O 0.19057 0.78060 0.24792
 O592 O 0.18463 0.74861 0.27444
 O593 O 0.21816 0.75025 0.19111
 O594 O 0.24936 0.72455 0.18481
 O595 O 0.24926 0.72043 0.30830
 O596 O 0.22302 0.75099 0.31339
 O597 O 0.30688 0.75249 0.28082
 O598 O 0.31037 0.77898 0.24960
 O599 O 0.28103 0.69283 0.25067
 O600 O 0.25148 0.68658 0.22435
 Zr601 Zr 0.25035 0.71034 0.25076
 O602 O 0.22909 0.72891 0.22948
 Zr603 Zr 0.28913 0.75040 0.25035
 O604 O 0.26962 0.77053 0.22875
 Zr605 Zr 0.24930 0.75039 0.28958
 O606 O 0.22838 0.77077 0.26976
 Zr607 Zr 0.24841 0.75037 0.20925
 O608 O 0.26984 0.73003 0.22891
 Zr609 Zr 0.20891 0.75047 0.24856
 O610 O 0.22809 0.72977 0.27018
 Zr611 Zr 0.24788 0.79043 0.24807
 O612 O 0.26899 0.77194 0.26980
 O613 O 0.27060 0.72982 0.27139
 O614 O 0.22731 0.77119 0.22746
 C615 C 0.24950 0.69978 0.30213
 C616 C 0.30153 0.69963 0.25060
 C617 C 0.30024 0.75415 0.30125
 C618 C 0.24654 0.80132 0.19719
 C619 C 0.19761 0.75117 0.19749
 C620 C 0.19674 0.80114 0.24604
 H621 H 0.21966 0.71857 0.22057
 H622 H 0.21909 0.78035 0.27960
 H623 H 0.28038 0.72080 0.28132
 H624 H 0.27949 0.77989 0.21926
 H625 H 0.28631 0.74100 0.19059
 H626 H 0.31129 0.75870 0.21387
 H627 H 0.18711 0.76142 0.28468
 H628 H 0.21197 0.73956 0.30858
 H629 H 0.23789 0.71325 0.18879
 H630 H 0.26246 0.69215 0.21321
 H631 H 0.24259 0.82896 0.26817
 H632 H 0.25596 0.78896 0.30776
 H633 H 0.23023 0.67155 0.25481
 H634 H 0.19102 0.71172 0.25478
 H635 H 0.32594 0.77408 0.25289
 H636 H 0.27130 0.82711 0.24272
 O637 O 0.75674 0.31601 0.28216
 O638 O 0.78298 0.32153 0.25112
 O639 O 0.69889 0.28871 0.25044
 O640 O 0.69191 0.26174 0.22621
 O641 O 0.72562 0.25721 0.30914
 O642 O 0.75686 0.23314 0.31583
 O643 O 0.75735 0.22662 0.19288
 O644 O 0.73226 0.25683 0.18644
 O645 O 0.81550 0.25582 0.22085
 O646 O 0.82199 0.28178 0.24928
 O647 O 0.78697 0.19956 0.24863
 O648 O 0.75803 0.19453 0.27732
 O649 O 0.75754 0.19985 0.22010
 O650 O 0.72837 0.19654 0.25079
 O651 O 0.81456 0.22594 0.25047
 O652 O 0.82056 0.25843 0.27741
 O653 O 0.78868 0.25489 0.19366
 O654 O 0.75849 0.28265 0.18620
 O655 O 0.75661 0.28886 0.30898
 O656 O 0.78215 0.25763 0.31518
 O657 O 0.69890 0.25795 0.28181
 O658 O 0.69504 0.23036 0.25095
 O659 O 0.72568 0.31609 0.25089
 O660 O 0.75596 0.32094 0.22448
 Zr661 Zr 0.75626 0.29802 0.25162
 O662 O 0.77749 0.27845 0.23110
 Zr663 Zr 0.71681 0.25854 0.25142
 O664 O 0.73603 0.23777 0.23039
 Zr665 Zr 0.75605 0.25852 0.29114
 O666 O 0.77672 0.23729 0.27202
 Zr667 Zr 0.75800 0.25706 0.21088
 O668 O 0.73670 0.27816 0.22989
 Zr669 Zr 0.79698 0.25672 0.25083
 O670 O 0.77789 0.27835 0.27167
 Zr671 Zr 0.75696 0.21778 0.25039
 O672 O 0.73606 0.23699 0.27160
 O673 O 0.73547 0.27921 0.27225
 O674 O 0.77833 0.23606 0.22977
 C675 C 0.75674 0.30945 0.30270
 C676 C 0.70510 0.30936 0.25049
 C677 C 0.70509 0.25727 0.30246
 C678 C 0.75742 0.20610 0.19948
 C679 C 0.80921 0.25455 0.20028
 C680 C 0.80768 0.20554 0.24901
 H681 H 0.78732 0.28839 0.22219
 H682 H 0.78563 0.22763 0.28215
 H683 H 0.72580 0.28873 0.28179
 H684 H 0.72596 0.22853 0.22097
 H685 H 0.72064 0.26749 0.19164
 H686 H 0.69502 0.25024 0.21466
 H687 H 0.81839 0.24511 0.28704
 H688 H 0.79340 0.26888 0.31045
 H689 H 0.77125 0.29274 0.18941
 H690 H 0.74494 0.31529 0.21340
 H691 H 0.76104 0.17940 0.27113
 H692 H 0.74770 0.22062 0.30993
 H693 H 0.77694 0.33657 0.25490
 H694 H 0.81549 0.29525 0.25644
 H695 H 0.67965 0.23553 0.25462
 H696 H 0.73280 0.18154 0.24519
 C697 C 0.24883 0.09059 0.07997
 N698 N 0.24631 0.10012 0.05953
 N699 N 0.24574 0.08761 0.04113
 C700 C 0.24771 0.06496 0.04217
 N701 N 0.25036 0.05535 0.06274
 N702 N 0.25087 0.06793 0.08132
 C703 C 0.24907 0.10517 0.09988
 N704 N 0.24975 0.09690 0.12112
 N705 N 0.24944 0.11077 0.13874
 C706 C 0.24845 0.13335 0.13566
 N707 N 0.24786 0.14147 0.11445
 N708 N 0.24813 0.12768 0.09695
 C709 C 0.24779 0.14919 0.15456
 N710 N 0.24725 0.17150 0.15025
 N711 N 0.24636 0.18631 0.16688
 C712 C 0.24595 0.17945 0.18855
 N713 N 0.24650 0.15709 0.19298
 N714 N 0.24741 0.14220 0.17625
 C715 C 0.73931 0.59308 0.58077
 N716 N 0.73681 0.60156 0.55985
 N717 N 0.73861 0.58842 0.54195
 C718 C 0.74295 0.56620 0.54413
 N719 N 0.74508 0.55756 0.56514
 N720 N 0.74331 0.57078 0.58315
 C721 C 0.73877 0.60842 0.60007
 N722 N 0.74179 0.60105 0.62142
 N723 N 0.74216 0.61555 0.63850
 C724 C 0.73963 0.63788 0.63476
 N725 N 0.73653 0.64513 0.61344
 N726 N 0.73611 0.63070 0.59645
 C727 C 0.74048 0.65427 0.65315
 N728 N 0.73951 0.67649 0.64844
 N729 N 0.74019 0.69165 0.66480
 C730 C 0.74185 0.68518 0.68654
 N731 N 0.74284 0.66293 0.69132
 N732 N 0.74222 0.64773 0.67490
 C733 C 0.75880 0.92259 0.09046
 N734 N 0.75745 0.92185 0.06770
 N735 N 0.75726 0.94079 0.05574
 C736 C 0.75835 0.96115 0.06608
 N737 N 0.75998 0.96157 0.08880
 N738 N 0.76022 0.94279 0.10069
 C739 C 0.75789 0.90234 0.10444
 N740 N 0.75827 0.90467 0.12705
 N741 N 0.75676 0.88691 0.14036
 C742 C 0.75480 0.86603 0.13165
 N743 N 0.75451 0.86354 0.10896
 N744 N 0.75599 0.88143 0.09556
 C745 C 0.75296 0.84690 0.14703
 N746 N 0.75235 0.82536 0.13960
 N747 N 0.75111 0.80840 0.15418
 C748 C 0.75033 0.81246 0.17662
 N749 N 0.75082 0.83398 0.18389
 N750 N 0.75210 0.85083 0.16941
 C751 C 0.25896 0.42305 0.58916
 N752 N 0.26266 0.44333 0.59870
 N753 N 0.26182 0.46193 0.58650
 C754 C 0.25726 0.46112 0.56421
 N755 N 0.25394 0.44073 0.55450
 N756 N 0.25476 0.42202 0.56676
 C757 C 0.25828 0.40305 0.60351
 N758 N 0.25445 0.38223 0.59503
 N759 N 0.25294 0.36455 0.60868
 C760 C 0.25507 0.36714 0.63125
 N761 N 0.25897 0.38792 0.63959
 N762 N 0.26055 0.40549 0.62601
 C763 C 0.25297 0.34817 0.64681
 N764 N 0.25297 0.35212 0.66921
 N765 N 0.25139 0.33531 0.68373
 C766 C 0.24977 0.31383 0.67647
 N767 N 0.24972 0.30978 0.65402
 N768 N 0.25121 0.32669 0.63942
 C769 C 0.76217 0.07836 0.91671
 N770 N 0.76573 0.05740 0.90873
 N771 N 0.76370 0.03970 0.92207
 C772 C 0.75808 0.04216 0.94399
 N773 N 0.75504 0.06321 0.95219
 N774 N 0.75702 0.08102 0.93876
 C775 C 0.76227 0.09730 0.90097
 N776 N 0.75762 0.11854 0.90774
 N777 N 0.75639 0.13516 0.89280
 C778 C 0.75962 0.13105 0.87060
 N779 N 0.76439 0.10986 0.86395
 N780 N 0.76569 0.09333 0.87883
 C781 C 0.75758 0.14887 0.85375
 N782 N 0.75876 0.14367 0.83162
 N783 N 0.75698 0.15956 0.81607
 C784 C 0.75396 0.18128 0.82204
 N785 N 0.75274 0.18654 0.84420
 N786 N 0.75444 0.17060 0.85979
 C787 C 0.25914 0.57946 0.41430
 N788 N 0.25359 0.58179 0.43630
 N789 N 0.25218 0.56385 0.44964
 C790 C 0.25622 0.54297 0.44140
 N791 N 0.26222 0.54087 0.41955
 N792 N 0.26367 0.55869 0.40630
 C793 C 0.25883 0.59846 0.39861
 N794 N 0.26250 0.59463 0.37649
 N795 N 0.26104 0.61118 0.36165
 C796 C 0.25587 0.63227 0.36831
 N797 N 0.25237 0.63626 0.39050
 N798 N 0.25375 0.61961 0.40540
 C799 C 0.25379 0.65009 0.35143
 N800 N 0.25066 0.67185 0.35738
 N801 N 0.24905 0.68775 0.34173
 C802 C 0.25035 0.68242 0.31959
 N803 N 0.25335 0.66066 0.31372
 N804 N 0.25505 0.64483 0.32932
 C805 C 0.27249 0.91883 0.92408
 N806 N 0.26468 0.94017 0.92236
 N807 N 0.26178 0.95271 0.94068
 C808 C 0.26653 0.94432 0.96136
 N809 N 0.27485 0.92320 0.96288
 N810 N 0.27779 0.91074 0.94464
 C811 C 0.27316 0.90371 0.90465
 N812 N 0.27869 0.88188 0.90775
 N813 N 0.27743 0.86732 0.89091
 C814 C 0.27062 0.87400 0.87027
 N815 N 0.26537 0.89592 0.86699
 N816 N 0.26654 0.91053 0.88392
 C817 C 0.26803 0.85732 0.85233
 N818 N 0.26318 0.86346 0.83093
 N819 N 0.26049 0.84797 0.81500
 C820 C 0.26236 0.82582 0.81998
 N821 N 0.26715 0.81976 0.84138
 N822 N 0.26996 0.83520 0.85723
 C823 C 0.73990 0.41681 0.42634
 N824 N 0.74492 0.43899 0.42497
 N825 N 0.74549 0.45165 0.44344
 C826 C 0.74112 0.44256 0.46390
 N827 N 0.73564 0.42052 0.46503
 N828 N 0.73503 0.40792 0.44667
 C829 C 0.74139 0.40191 0.40680
 N830 N 0.73867 0.37955 0.40973
 N831 N 0.74135 0.36543 0.39270
 C832 C 0.74683 0.37311 0.37203
 N833 N 0.74936 0.39554 0.36893
 N834 N 0.74677 0.40971 0.38608
 C835 C 0.75021 0.35701 0.35373
 N836 N 0.75317 0.36376 0.33217
 N837 N 0.75568 0.34869 0.31581
 C838 C 0.75550 0.32640 0.32050
 N839 N 0.75273 0.31976 0.34207
 N840 N 0.75014 0.33476 0.35835
 C841 C 0.09102 0.25544 0.07613
 N842 N 0.06825 0.25552 0.07722
 N843 N 0.05597 0.25397 0.05853
 C844 C 0.06597 0.25216 0.03806
 N845 N 0.08876 0.25231 0.03719
 N846 N 0.10099 0.25395 0.05577
 C847 C 0.10507 0.25609 0.09639
 N848 N 0.12771 0.25657 0.09419
 N849 N 0.14092 0.25618 0.11216
 C850 C 0.13206 0.25524 0.13308
 N851 N 0.10936 0.25488 0.13539
 N852 N 0.09608 0.25529 0.11733
 C853 C 0.14725 0.25411 0.15248
 N854 N 0.13950 0.25265 0.17388
 N855 N 0.15382 0.25123 0.19108
 C856 C 0.17635 0.25118 0.18741
 N857 N 0.18395 0.25267 0.16603
 N858 N 0.16971 0.25410 0.14894
 C859 C 0.58707 0.76432 0.57628
 N860 N 0.56477 0.75970 0.57736
 N861 N 0.55267 0.75758 0.55862
 C862 C 0.56246 0.75991 0.53814
 N863 N 0.58468 0.76482 0.53722
 N864 N 0.59672 0.76700 0.55587
 C865 C 0.60116 0.76512 0.59648
 N866 N 0.62347 0.76903 0.59437
 N867 N 0.63688 0.76846 0.61219
 C868 C 0.62854 0.76396 0.63285
 N869 N 0.60615 0.76024 0.63510
 N870 N 0.59267 0.76079 0.61719
 C871 C 0.64401 0.76231 0.65198
 N872 N 0.63657 0.75849 0.67319
 N873 N 0.65112 0.75654 0.69014
 C874 C 0.67356 0.75821 0.68638
 N875 N 0.68087 0.76204 0.66519
 N876 N 0.66639 0.76407 0.64835
 C877 C 0.07989 0.74388 0.91013
 N878 N 0.08113 0.74855 0.93241
 N879 N 0.06252 0.74943 0.94486
 C880 C 0.04202 0.74572 0.93547
 N881 N 0.04099 0.74073 0.91328
 N882 N 0.05950 0.73982 0.90089
 C883 C 0.09977 0.74436 0.89556
 N884 N 0.09717 0.74105 0.87321
 N885 N 0.11459 0.74251 0.85939
 C886 C 0.13537 0.74732 0.86733
 N887 N 0.13813 0.75047 0.88976
 N888 N 0.12060 0.74906 0.90365
 C889 C 0.15407 0.74956 0.85143
 N890 N 0.17559 0.75271 0.85838
 N891 N 0.19217 0.75470 0.84344
 C892 C 0.18774 0.75375 0.82107
 N893 N 0.16624 0.75067 0.81426
 N894 N 0.14977 0.74860 0.82912
 C895 C 0.58056 0.26072 0.41032
 N896 N 0.58262 0.25651 0.43263
 N897 N 0.56442 0.25479 0.44558
 C898 C 0.54352 0.25717 0.43665
 N899 N 0.54166 0.26170 0.41442
 N900 N 0.55976 0.26345 0.40155
 C901 C 0.60006 0.26120 0.39528
 N902 N 0.59675 0.26412 0.37296
 N903 N 0.61392 0.26359 0.35875
 C904 C 0.63511 0.26013 0.36627
 N905 N 0.63855 0.25735 0.38865
 N906 N 0.62129 0.25782 0.40292
 C907 C 0.65364 0.25911 0.35007
 N908 N 0.67534 0.25704 0.35678
 N909 N 0.69186 0.25626 0.34168
 C910 C 0.68719 0.25741 0.31938
 N911 N 0.66550 0.25939 0.31277
 N912 N 0.64906 0.26023 0.32781
 C913 C 0.92585 0.73833 0.08476
 N914 N 0.92387 0.73884 0.06204
 N915 N 0.94200 0.74169 0.04915
 C916 C 0.96270 0.74433 0.05853
 N917 N 0.96441 0.74353 0.08123
 N918 N 0.94646 0.74055 0.09403
 C919 C 0.90637 0.73650 0.09970
 N920 N 0.90988 0.73522 0.12213
 N921 N 0.89274 0.73501 0.13635
 C922 C 0.87135 0.73613 0.12873
 N923 N 0.86768 0.73720 0.10623
 N924 N 0.88493 0.73740 0.09193
 C925 C 0.85289 0.73700 0.14499
 N926 N 0.83110 0.73834 0.13838
 N927 N 0.81472 0.73967 0.15358
 C928 C 0.81960 0.73979 0.17587
 N929 N 0.84136 0.73842 0.18238
 N930 N 0.85767 0.73705 0.16724
 C931 C 0.42595 0.26084 0.58595
 N932 N 0.44642 0.26541 0.59477
 N933 N 0.46472 0.26438 0.58211
 C934 C 0.46337 0.25878 0.56009
 N935 N 0.44278 0.25472 0.55107
 N936 N 0.42438 0.25571 0.56380
 C937 C 0.40644 0.25978 0.60089
 N938 N 0.38567 0.25438 0.59313
 N939 N 0.36852 0.25205 0.60734
 C940 C 0.37164 0.25489 0.62975
 N941 N 0.39235 0.26043 0.63738
 N942 N 0.40940 0.26283 0.62323
 C943 C 0.35330 0.25168 0.64581
 N944 N 0.35775 0.25224 0.66812
 N945 N 0.34139 0.24957 0.68303
 C946 C 0.31992 0.24626 0.67621
 N947 N 0.31541 0.24564 0.65387
 N948 N 0.33185 0.24822 0.63891
 C949 C 0.91407 0.25765 0.92658
 N950 N 0.90544 0.25571 0.94746
 N951 N 0.91880 0.25303 0.96506
 C952 C 0.94146 0.25225 0.96272
 N953 N 0.95020 0.25457 0.94173
 N954 N 0.93674 0.25713 0.92396
 C955 C 0.89857 0.25923 0.90750
 N956 N 0.90581 0.25824 0.88591
 N957 N 0.89107 0.25829 0.86902
 C958 C 0.86865 0.25932 0.87318
 N959 N 0.86154 0.26053 0.89472
 N960 N 0.87620 0.26046 0.91153
 C961 C 0.85201 0.25830 0.85504
 N962 N 0.82981 0.25842 0.86008
 N963 N 0.81442 0.25684 0.84398
 C964 C 0.82065 0.25506 0.82218
 N965 N 0.84288 0.25502 0.81707
 N966 N 0.85831 0.25658 0.83322
 C967 C 0.41238 0.76518 0.42145
 N968 N 0.40467 0.76957 0.44236
 N969 N 0.41797 0.76719 0.46009
 C970 C 0.43956 0.76035 0.45772
 N971 N 0.44752 0.75646 0.43670
 N972 N 0.43414 0.75880 0.41887
 C973 C 0.39663 0.76570 0.40251
 N974 N 0.40317 0.76027 0.38137
 N975 N 0.38817 0.75928 0.36477
 C976 C 0.36612 0.76356 0.36877
 N977 N 0.35969 0.76915 0.38984
 N978 N 0.37465 0.77020 0.40637
 C979 C 0.34920 0.76142 0.35099
 N980 N 0.32706 0.76313 0.35608
 N981 N 0.31148 0.76075 0.34024
 C982 C 0.31747 0.75662 0.31868
 N983 N 0.33962 0.75498 0.31355
 N984 N 0.35522 0.75726 0.32944
 C985 C 0.08357 0.07200 0.26065
 N986 N 0.09291 0.05143 0.25857
 N987 N 0.08015 0.03341 0.25579
 C988 C 0.05741 0.03499 0.25506
 N989 N 0.04798 0.05565 0.25755
 N990 N 0.06083 0.07384 0.26020
 C991 C 0.09845 0.09158 0.26236
 N992 N 0.09055 0.11294 0.26156
 N993 N 0.10475 0.13027 0.26181
 C994 C 0.12730 0.12679 0.26286
 N995 N 0.13505 0.10546 0.26386
 N996 N 0.12093 0.08824 0.26358
 C997 C 0.14349 0.14536 0.26224
 N998 N 0.16577 0.14072 0.26247
 N999 N 0.18087 0.15708 0.26141
 C1000 C 0.17431 0.17880 0.26005
 N1001 N 0.15198 0.18355 0.25987
 N1002 N 0.13681 0.16710 0.26091
 C1003 C 0.58292 0.57645 0.74061
 N1004 N 0.56076 0.57756 0.74591
 N1005 N 0.54836 0.55893 0.74684
 C1006 C 0.55769 0.53857 0.74255
 N1007 N 0.57972 0.53768 0.73683
 N1008 N 0.59205 0.55621 0.73586
 C1009 C 0.59755 0.59624 0.74155
 N1010 N 0.61992 0.59364 0.73826
 N1011 N 0.63384 0.61090 0.74041
 C1012 C 0.62599 0.63150 0.74591
 N1013 N 0.60355 0.63426 0.74900
 N1014 N 0.58956 0.61689 0.74693
 C1015 C 0.64195 0.65002 0.74885
 N1016 N 0.63500 0.67149 0.75205
 N1017 N 0.64996 0.68800 0.75439
 C1018 C 0.67233 0.68355 0.75379
 N1019 N 0.67916 0.66209 0.75073
 N1020 N 0.66427 0.64567 0.74830
 C1021 C 0.92684 0.08846 0.74992
 N1022 N 0.94742 0.09642 0.74466
 N1023 N 0.96476 0.08263 0.74257
 C1024 C 0.96245 0.06020 0.74572
 N1025 N 0.94176 0.05217 0.75120
 N1026 N 0.92425 0.06605 0.75320
 C1027 C 0.90804 0.10432 0.75151
 N1028 N 0.88649 0.09736 0.75420
 N1029 N 0.86976 0.11224 0.75479
 C1030 C 0.87403 0.13454 0.75273
 N1031 N 0.89556 0.14140 0.75018
 N1032 N 0.91220 0.12658 0.74954
 C1033 C 0.85591 0.15123 0.75291
 N1034 N 0.86093 0.17339 0.75159
 N1035 N 0.84473 0.18875 0.75148
 C1036 C 0.82286 0.18253 0.75260
 N1037 N 0.81780 0.16035 0.75391
 N1038 N 0.83403 0.14496 0.75406
 C1039 C 0.42190 0.58759 0.26113
 N1040 N 0.44297 0.59539 0.26461
 N1041 N 0.46053 0.58177 0.26309
 C1042 C 0.45783 0.55975 0.25807
 N1043 N 0.43665 0.55174 0.25509
 N1044 N 0.41899 0.56545 0.25657
 C1045 C 0.40313 0.60353 0.26079
 N1046 N 0.38175 0.59682 0.25655
 N1047 N 0.36523 0.61185 0.25504
 C1048 C 0.36956 0.63408 0.25759
 N1049 N 0.39089 0.64069 0.26194
 N1050 N 0.40734 0.62571 0.26351
 C1051 C 0.35175 0.65094 0.25539
 N1052 N 0.35695 0.67308 0.25606
 N1053 N 0.34098 0.68858 0.25420
 C1054 C 0.31919 0.68250 0.25160
 N1055 N 0.31397 0.66034 0.25089
 N1056 N 0.32997 0.64483 0.25268
 C1057 C 0.07693 0.91170 0.76039
 N1058 N 0.07799 0.93433 0.75810
 N1059 N 0.05920 0.94653 0.75725
 C1060 C 0.03865 0.93657 0.75859
 N1061 N 0.03787 0.91397 0.76122
 N1062 N 0.05653 0.90183 0.76212
 C1063 C 0.09711 0.89751 0.75998
 N1064 N 0.09471 0.87497 0.76133
 N1065 N 0.11245 0.86154 0.76005
 C1066 C 0.13336 0.87007 0.75736
 N1067 N 0.13592 0.89269 0.75613
 N1068 N 0.11806 0.90620 0.75738
 C1069 C 0.15247 0.85457 0.75556
 N1070 N 0.17405 0.86188 0.75414
 N1071 N 0.19096 0.84723 0.75276
 C1072 C 0.18681 0.82481 0.75265
 N1073 N 0.16525 0.81766 0.75396
 N1074 N 0.14845 0.83222 0.75539
 C1075 C 0.57721 0.41230 0.26354
 N1076 N 0.57786 0.43464 0.25922
 N1077 N 0.55894 0.44663 0.25872
 C1078 C 0.53873 0.43671 0.26252
 N1079 N 0.53829 0.41447 0.26720
 N1080 N 0.55711 0.40253 0.26771
 C1081 C 0.59739 0.39822 0.26238
 N1082 N 0.59526 0.37572 0.26458
 N1083 N 0.61296 0.36237 0.26247
 C1084 C 0.63357 0.37095 0.25810
 N1085 N 0.63587 0.39353 0.25606
 N1086 N 0.61804 0.40695 0.25809
 C1087 C 0.65260 0.35556 0.25538
 N1088 N 0.67410 0.36297 0.25351
 N1089 N 0.69102 0.34841 0.25158
 C1090 C 0.68694 0.32598 0.25129
 N1091 N 0.66545 0.31873 0.25298
 N1092 N 0.64864 0.33320 0.25499
 C1093 C 0.90734 0.92074 0.25247
 N1094 N 0.89793 0.94135 0.25128
 N1095 N 0.91065 0.95960 0.25022
 C1096 C 0.93341 0.95819 0.25037
 N1097 N 0.94289 0.93745 0.25183
 N1098 N 0.93010 0.91907 0.25281
 C1099 C 0.89262 0.90093 0.25272
 N1100 N 0.90088 0.87969 0.25215
 N1101 N 0.88695 0.86214 0.25159
 C1102 C 0.86433 0.86526 0.25158
 N1103 N 0.85621 0.88647 0.25226
 N1104 N 0.87006 0.90392 0.25280
 C1105 C 0.84848 0.84638 0.25046
 N1106 N 0.82611 0.85060 0.25012
 N1107 N 0.81135 0.83393 0.24883
 C1108 C 0.81833 0.81233 0.24781
 N1109 N 0.84074 0.80800 0.24818
 N1110 N 0.85557 0.82474 0.24946
 C1111 C 0.40859 0.41955 0.74221
 N1112 N 0.39991 0.44027 0.73898
 N1113 N 0.41285 0.45834 0.74045
 C1114 C 0.43506 0.45654 0.74519
 N1115 N 0.44392 0.43571 0.74803
 N1116 N 0.43090 0.41753 0.74659
 C1117 C 0.39341 0.40013 0.74211
 N1118 N 0.40096 0.37893 0.74568
 N1119 N 0.38657 0.36178 0.74642
 C1120 C 0.36417 0.36528 0.74374
 N1121 N 0.35675 0.38644 0.74011
 N1122 N 0.37107 0.40350 0.73931
 C1123 C 0.34789 0.34682 0.74488
 N1124 N 0.32561 0.35138 0.74384
 N1125 N 0.31054 0.33495 0.74458
 C1126 C 0.31715 0.31328 0.74639
 N1127 N 0.33947 0.30865 0.74749
 N1128 N 0.35459 0.32514 0.74681
 C1129 C 0.08965 0.23229 0.91899
 N1130 N 0.09884 0.22846 0.93943
 N1131 N 0.08669 0.23067 0.95797
 C1132 C 0.06477 0.23677 0.95694
 N1133 N 0.05536 0.24022 0.93641
 N1134 N 0.06760 0.23807 0.91776
 C1135 C 0.10413 0.23139 0.89903
 N1136 N 0.09634 0.23638 0.87818
 N1137 N 0.11029 0.23673 0.86064
 C1138 C 0.13249 0.23217 0.86341
 N1139 N 0.14011 0.22703 0.88421
 N1140 N 0.12623 0.22664 0.90164
 C1141 C 0.14859 0.23359 0.84478
 N1142 N 0.17083 0.23169 0.84921
 N1143 N 0.18589 0.23341 0.83288
 C1144 C 0.17936 0.23702 0.81139
 N1145 N 0.15706 0.23881 0.80681
 N1146 N 0.14192 0.23720 0.82326
 C1147 C 0.58954 0.73677 0.41964
 N1148 N 0.59828 0.73413 0.44046
 N1149 N 0.58552 0.73665 0.45855
 C1150 C 0.56343 0.74188 0.45669
 N1151 N 0.55450 0.74416 0.43579
 N1152 N 0.56734 0.74169 0.41758
 C1153 C 0.60455 0.73544 0.40009
 N1154 N 0.59708 0.73913 0.37886
 N1155 N 0.61138 0.73896 0.36161
 C1156 C 0.63363 0.73518 0.36503
 N1157 N 0.64097 0.73137 0.38622
 N1158 N 0.62673 0.73149 0.40338
 C1159 C 0.64997 0.73587 0.34655
 N1160 N 0.67220 0.73414 0.35119
 N1161 N 0.68737 0.73520 0.33488
 C1162 C 0.68096 0.73799 0.31323
 N1163 N 0.65869 0.73963 0.30848
 N1164 N 0.64345 0.73865 0.32487
 C1165 C 0.92173 0.75882 0.91133
 N1166 N 0.92087 0.75927 0.93411
 N1167 N 0.93973 0.75829 0.94623
 C1168 C 0.96014 0.75673 0.93604
 N1169 N 0.96074 0.75645 0.91326
 N1170 N 0.94202 0.75750 0.90121
 C1171 C 0.90143 0.75918 0.89727
 N1172 N 0.90376 0.75928 0.87466
 N1173 N 0.88588 0.75889 0.86134
 C1174 C 0.86488 0.75834 0.87004
 N1175 N 0.86240 0.75833 0.89273
 N1176 N 0.88040 0.75874 0.90614
 C1177 C 0.84560 0.75744 0.85464
 N1178 N 0.82404 0.75665 0.86207
 N1179 N 0.80700 0.75566 0.84749
 C1180 C 0.81100 0.75538 0.82503
 N1181 N 0.83253 0.75618 0.81775
 N1182 N 0.84946 0.75718 0.83224
 C1183 C 0.42317 0.23937 0.41387
 N1184 N 0.42230 0.24374 0.43623
 N1185 N 0.44115 0.24499 0.44832
 C1186 C 0.46153 0.24196 0.43848
 N1187 N 0.46220 0.23726 0.41621
 N1188 N 0.44346 0.23597 0.40419
 C1189 C 0.40297 0.23952 0.39968
 N1190 N 0.40521 0.23651 0.37725
 N1191 N 0.38749 0.23770 0.36376
 C1192 C 0.36676 0.24193 0.37210
 N1193 N 0.36437 0.24479 0.39461
 N1194 N 0.38220 0.24366 0.40817
 C1195 C 0.34770 0.24380 0.35653
 N1196 N 0.32622 0.24632 0.36382
 N1197 N 0.30933 0.24786 0.34914
 C1198 C 0.31339 0.24706 0.32670
 N1199 N 0.33485 0.24464 0.31956
 N1200 N 0.35164 0.24302 0.33415
 C1201 C 0.07909 0.76748 0.08406
 N1202 N 0.05870 0.77429 0.09144
 N1203 N 0.04074 0.77269 0.07832
 C1204 C 0.04237 0.76426 0.05724
 N1205 N 0.06292 0.75806 0.04953
 N1206 N 0.08098 0.75962 0.06273
 C1207 C 0.09793 0.76668 0.09994
 N1208 N 0.11857 0.75929 0.09370
 N1209 N 0.13490 0.75706 0.10888
 C1210 C 0.13107 0.76194 0.13082
 N1211 N 0.11051 0.76946 0.13695
 N1212 N 0.09428 0.77180 0.12181
 C1213 C 0.14849 0.75871 0.14796
 N1214 N 0.14319 0.76060 0.17001
 N1215 N 0.15877 0.75778 0.18577
 C1216 C 0.18027 0.75299 0.18007
 N1217 N 0.18561 0.75108 0.15799
 N1218 N 0.16997 0.75377 0.14221
 C1219 C 0.58108 0.23831 0.58770
 N1220 N 0.56041 0.23268 0.59528
 N1221 N 0.54259 0.23425 0.58199
 C1222 C 0.54460 0.24146 0.56050
 N1223 N 0.56540 0.24657 0.55263
 N1224 N 0.58334 0.24505 0.56602
 C1225 C 0.59997 0.23865 0.60357
 N1226 N 0.62098 0.24477 0.59717
 N1227 N 0.63749 0.24626 0.61227
 C1228 C 0.63348 0.24185 0.63428
 N1229 N 0.61253 0.23564 0.64057
 N1230 N 0.59613 0.23406 0.62551
 C1231 C 0.65116 0.24412 0.65134
 N1232 N 0.64591 0.24218 0.67341
 N1233 N 0.66168 0.24415 0.68911
 C1234 C 0.68334 0.24809 0.68336
 N1235 N 0.68864 0.25005 0.66127
 N1236 N 0.67282 0.24818 0.64553
 C1237 C 0.91989 0.23246 0.08049
 N1238 N 0.91175 0.22508 0.06058
 N1239 N 0.92419 0.22613 0.04214
 C1240 C 0.94534 0.23456 0.04279
 N1241 N 0.95381 0.24135 0.06287
 N1242 N 0.94128 0.24034 0.08141
 C1243 C 0.90467 0.23390 0.09979
 N1244 N 0.91156 0.24209 0.11993
 N1245 N 0.89688 0.24502 0.13658
 C1246 C 0.87480 0.24006 0.13355
 N1247 N 0.86805 0.23172 0.11350
 N1248 N 0.88269 0.22869 0.09697
 C1249 C 0.85809 0.24423 0.15113
 N1250 N 0.83592 0.24270 0.14612
 N1251 N 0.82044 0.24641 0.16174
 C1252 C 0.82652 0.25173 0.18301
 N1253 N 0.84871 0.25328 0.18809
 N1254 N 0.86425 0.24971 0.17238
 C1255 C 0.41535 0.73796 0.57606
 N1256 N 0.43742 0.74358 0.57756
 N1257 N 0.45002 0.74512 0.55910
 C1258 C 0.44096 0.74116 0.53851
 N1259 N 0.41904 0.73510 0.53723
 N1260 N 0.40652 0.73351 0.55559
 C1261 C 0.40047 0.73828 0.59571
 N1262 N 0.37822 0.73442 0.59284
 N1263 N 0.36406 0.73615 0.60997
 C1264 C 0.37156 0.74179 0.63069
 N1265 N 0.39389 0.74544 0.63371
 N1266 N 0.40811 0.74378 0.61649
 C1267 C 0.35538 0.74454 0.64906
 N1268 N 0.36215 0.74840 0.67049
 N1269 N 0.34707 0.75097 0.68684
 C1270 C 0.32473 0.74995 0.68228
 N1271 N 0.31805 0.74615 0.66086
 N1272 N 0.33307 0.74348 0.64459
 C1273 C 0.23694 0.08735 0.92229
 N1274 N 0.23941 0.06472 0.92161
 N1275 N 0.24047 0.05287 0.94060
 C1276 C 0.23924 0.06321 0.96096
 N1277 N 0.23650 0.08580 0.96135
 N1278 N 0.23535 0.09758 0.94250
 C1279 C 0.23696 0.10124 0.90193
 N1280 N 0.23457 0.12372 0.90406
 N1281 N 0.23566 0.13702 0.88625
 C1282 C 0.23921 0.12842 0.86551
 N1283 N 0.24145 0.10585 0.86320
 N1284 N 0.24037 0.09246 0.88115
 C1285 C 0.24117 0.14389 0.84643
 N1286 N 0.24389 0.13659 0.82498
 N1287 N 0.24581 0.15127 0.80815
 C1288 C 0.24520 0.17369 0.81229
 N1289 N 0.24251 0.18082 0.83371
 N1290 N 0.24053 0.16624 0.85040
 C1291 C 0.76170 0.58752 0.42389
 N1292 N 0.76549 0.59733 0.44405
 N1293 N 0.76413 0.58553 0.46289
 C1294 C 0.75897 0.56339 0.46242
 N1295 N 0.75558 0.55341 0.44217
 N1296 N 0.75689 0.56527 0.42323
 C1297 C 0.76139 0.60150 0.40363
 N1298 N 0.75667 0.59287 0.38304
 N1299 N 0.75520 0.60628 0.36516
 C1300 C 0.75828 0.62875 0.36735
 N1301 N 0.76312 0.63723 0.38789
 N1302 N 0.76466 0.62388 0.40565
 C1303 C 0.75590 0.64418 0.34832
 N1304 N 0.75655 0.66655 0.35219
 N1305 N 0.75449 0.68104 0.33542
 C1306 C 0.75174 0.67380 0.31404
 N1307 N 0.75105 0.65137 0.31003
 N1308 N 0.75302 0.63678 0.32692
 C1309 C 0.75276 0.08016 0.09332
 N1310 N 0.75070 0.08159 0.07064
 N1311 N 0.75057 0.06304 0.05804
 C1312 C 0.75251 0.04241 0.06765
 N1313 N 0.75447 0.04129 0.09032
 N1314 N 0.75457 0.05967 0.10284
 C1315 C 0.75330 0.09999 0.10793
 N1316 N 0.75506 0.09697 0.13039
 N1317 N 0.75585 0.11439 0.14424
 C1318 C 0.75495 0.13561 0.13621
 N1319 N 0.75318 0.13878 0.11368
 N1320 N 0.75237 0.12124 0.09974
 C1321 C 0.75582 0.15439 0.15212
 N1322 N 0.75523 0.17610 0.14525
 N1323 N 0.75588 0.19274 0.16023
 C1324 C 0.75714 0.18820 0.18256
 N1325 N 0.75778 0.16652 0.18930
 N1326 N 0.75715 0.14997 0.17439
 C1327 C 0.24356 0.58033 0.59230
 N1328 N 0.24777 0.58224 0.56997
 N1329 N 0.24829 0.56405 0.55688
 C1330 C 0.24466 0.54333 0.56570
 N1331 N 0.24007 0.54166 0.58793
 N1332 N 0.23952 0.55973 0.60093
 C1333 C 0.24456 0.59967 0.60755
 N1334 N 0.24212 0.59631 0.62992
 N1335 N 0.24397 0.61326 0.64428
 C1336 C 0.24832 0.63429 0.63688
 N1337 N 0.25063 0.63778 0.61446
 N1338 N 0.24885 0.62074 0.60003
 C1339 C 0.25068 0.65261 0.65320
 N1340 N 0.25316 0.67424 0.64657
 N1341 N 0.25500 0.69061 0.66173
 C1342 C 0.25455 0.68589 0.68403
 N1343 N 0.25219 0.66425 0.69059
 N1344 N 0.25028 0.64795 0.67548
 C1345 C 0.73031 0.92534 0.91993
 N1346 N 0.72530 0.94595 0.91183
 N1347 N 0.72788 0.96407 0.92454
 C1348 C 0.73553 0.96237 0.94592
 N1349 N 0.73999 0.94165 0.95429
 N1350 N 0.73746 0.92344 0.94150
 C1351 C 0.72994 0.90606 0.90463
 N1352 N 0.73591 0.88519 0.91154
 N1353 N 0.73717 0.86833 0.89685
 C1354 C 0.73267 0.87185 0.87477
 N1355 N 0.72654 0.89265 0.86800
 N1356 N 0.72520 0.90941 0.88264
 C1357 C 0.73503 0.85393 0.85807
 N1358 N 0.73363 0.85898 0.83594
 N1359 N 0.73581 0.84307 0.82046
 C1360 C 0.73944 0.82147 0.82651
 N1361 N 0.74086 0.81635 0.84868
 N1362 N 0.73879 0.83233 0.86421
 C1363 C 0.23485 0.42425 0.41726
 N1364 N 0.23066 0.44471 0.40837
 N1365 N 0.23244 0.46309 0.42083
 C1366 C 0.23846 0.46185 0.44275
 N1367 N 0.24220 0.44128 0.45186
 N1368 N 0.24045 0.42279 0.43932
 C1369 C 0.23480 0.40455 0.40247
 N1370 N 0.23968 0.38368 0.41021
 N1371 N 0.24084 0.36634 0.39607
 C1372 C 0.23730 0.36935 0.37374
 N1373 N 0.23230 0.39017 0.36615
 N1374 N 0.23107 0.40740 0.38022
 C1375 C 0.23930 0.35084 0.35761
 N1376 N 0.23829 0.35531 0.33534
 N1377 N 0.24004 0.33893 0.32033
 C1378 C 0.24282 0.31738 0.32697
 N1379 N 0.24385 0.31281 0.34929
 N1380 N 0.24220 0.32928 0.36437
 C1381 C 0.23787 0.91308 0.07655
 N1382 N 0.23543 0.90524 0.05536
 N1383 N 0.23785 0.91882 0.03789
 C1384 C 0.24277 0.94084 0.04079
 N1385 N 0.24471 0.94889 0.06205
 N1386 N 0.24234 0.93522 0.07964
 C1387 C 0.23728 0.89720 0.09536
 N1388 N 0.24096 0.90392 0.11682
 N1389 N 0.24182 0.88893 0.13341
 C1390 C 0.23914 0.86672 0.12907
 N1391 N 0.23531 0.86009 0.10765
 N1392 N 0.23440 0.87503 0.09114
 C1393 C 0.24097 0.84988 0.14694
 N1394 N 0.24029 0.82772 0.14180
 N1395 N 0.24223 0.81227 0.15778
 C1396 C 0.24491 0.81840 0.17954
 N1397 N 0.24554 0.84058 0.18472
 N1398 N 0.24368 0.85605 0.16870
 C1399 C 0.76034 0.41466 0.58170
 N1400 N 0.75368 0.43634 0.58401
 N1401 N 0.75223 0.44974 0.56612
 C1402 C 0.75734 0.44188 0.54532
 N1403 N 0.76447 0.42038 0.54327
 N1404 N 0.76596 0.40707 0.56105
 C1405 C 0.75996 0.39881 0.60054
 N1406 N 0.76448 0.37687 0.59663
 N1407 N 0.76293 0.36183 0.61300
 C1408 C 0.75681 0.36813 0.63396
 N1409 N 0.75246 0.39013 0.63802
 N1410 N 0.75393 0.40522 0.62155
 C1411 C 0.75471 0.35112 0.65162
 N1412 N 0.75082 0.35695 0.67329
 N1413 N 0.74926 0.34125 0.68913
 C1414 C 0.75139 0.31919 0.68383
 N1415 N 0.75513 0.31341 0.66215
 N1416 N 0.75677 0.32908 0.64636
 C1417 C 0.08017 0.07811 0.72242
 N1418 N 0.06038 0.08567 0.71415
 N1419 N 0.04177 0.07360 0.71632
 C1420 C 0.04215 0.05343 0.72682
 N1421 N 0.06212 0.04547 0.73448
 N1422 N 0.08081 0.05762 0.73234
 C1423 C 0.09956 0.09326 0.72292
 N1424 N 0.11947 0.08695 0.73208
 N1425 N 0.13611 0.10176 0.73442
 C1426 C 0.13328 0.12340 0.72789
 N1427 N 0.11347 0.12956 0.71854
 N1428 N 0.09696 0.11478 0.71609
 C1429 C 0.15071 0.14035 0.73164
 N1430 N 0.14564 0.16236 0.72907
 N1431 N 0.16111 0.17806 0.73252
 C1432 C 0.18228 0.17235 0.73862
 N1433 N 0.18742 0.15031 0.74121
 N1434 N 0.17185 0.13457 0.73791
 C1435 C 0.57615 0.58122 0.23340
 N1436 N 0.55579 0.58975 0.22794
 N1437 N 0.53731 0.57751 0.23025
 C1438 C 0.53837 0.55619 0.23807
 N1439 N 0.55884 0.54739 0.24303
 N1440 N 0.57742 0.55970 0.24076
 C1441 C 0.59585 0.59601 0.23313
 N1442 N 0.61647 0.58877 0.23969
 N1443 N 0.63368 0.60306 0.24096
 C1444 C 0.63078 0.62507 0.23584
 N1445 N 0.61024 0.63216 0.22912
 N1446 N 0.59314 0.61793 0.22778
 C1447 C 0.64904 0.64144 0.23820
 N1448 N 0.64443 0.66358 0.23605
 N1449 N 0.66056 0.67882 0.23824
 C1450 C 0.68198 0.67253 0.24263
 N1451 N 0.68670 0.65034 0.24479
 N1452 N 0.67046 0.63504 0.24271
 C1453 C 0.08267 0.91880 0.23071
 N1454 N 0.09001 0.93925 0.22415
 N1455 N 0.07697 0.95718 0.22625
 C1456 C 0.05600 0.95544 0.23495
 N1457 N 0.04832 0.93483 0.24093
 N1458 N 0.06146 0.91681 0.23888
 C1459 C 0.09851 0.89995 0.23091
 N1460 N 0.09246 0.87935 0.23850
 N1461 N 0.10769 0.86305 0.24031
 C1462 C 0.12949 0.86686 0.23477
 N1463 N 0.13541 0.88737 0.22701
 N1464 N 0.12022 0.90358 0.22511
 C1465 C 0.14674 0.84957 0.23778
 N1466 N 0.16874 0.85493 0.23527
 N1467 N 0.18464 0.83954 0.23819
 C1468 C 0.17914 0.81818 0.24368
 N1469 N 0.15712 0.81277 0.24616
 N1470 N 0.14120 0.82822 0.24337
 C1471 C 0.58687 0.42066 0.76074
 N1472 N 0.59478 0.44143 0.76538
 N1473 N 0.58142 0.45919 0.76411
 C1474 C 0.55953 0.45703 0.75817
 N1475 N 0.55139 0.43613 0.75399
 N1476 N 0.56484 0.41824 0.75524
 C1477 C 0.60267 0.40174 0.76034
 N1478 N 0.59595 0.38052 0.75545
 N1479 N 0.61095 0.36393 0.75410
 C1480 C 0.63316 0.36806 0.75744
 N1481 N 0.63975 0.38923 0.76239
 N1482 N 0.62482 0.40572 0.76382
 C1483 C 0.65013 0.35030 0.75547
 N1484 N 0.67224 0.35569 0.75650
 N1485 N 0.68793 0.33991 0.75495
 C1486 C 0.68215 0.31808 0.75236
 N1487 N 0.66001 0.31262 0.75128
 N1488 N 0.64427 0.32846 0.75274
 C1489 C 0.91134 0.07823 0.23648
 N1490 N 0.93348 0.07883 0.24200
 N1491 N 0.94542 0.05991 0.24307
 C1492 C 0.93563 0.03976 0.23873
 N1493 N 0.91362 0.03938 0.23288
 N1494 N 0.90175 0.05819 0.23177
 C1495 C 0.89724 0.09842 0.23688
 N1496 N 0.87497 0.09644 0.23265
 N1497 N 0.86147 0.11409 0.23418
 C1498 C 0.86967 0.13448 0.23999
 N1499 N 0.89204 0.13662 0.24405
 N1500 N 0.90560 0.11886 0.24256
 C1501 C 0.85408 0.15338 0.24243
 N1502 N 0.86137 0.17458 0.24657
 N1503 N 0.84671 0.19137 0.24878
 C1504 C 0.82428 0.18745 0.24710
 N1505 N 0.81712 0.16626 0.24303
 N1506 N 0.83171 0.14959 0.24073
 C1507 C 0.41125 0.57634 0.76245
 N1508 N 0.43362 0.57746 0.75810
 N1509 N 0.44593 0.55878 0.75705
 C1510 C 0.43632 0.53835 0.76029
 N1511 N 0.41406 0.53744 0.76501
 N1512 N 0.40180 0.55601 0.76609
 C1513 C 0.39684 0.59631 0.76192
 N1514 N 0.37437 0.59385 0.76451
 N1515 N 0.36071 0.61139 0.76293
 C1516 C 0.36896 0.63214 0.75871
 N1517 N 0.39150 0.63474 0.75628
 N1518 N 0.40522 0.61710 0.75779
 C1519 C 0.35332 0.65104 0.75648
 N1520 N 0.36064 0.67249 0.75417
 N1521 N 0.34598 0.68933 0.75241
 C1522 C 0.32353 0.68524 0.75275
 N1523 N 0.31632 0.66380 0.75493
 N1524 N 0.33091 0.64705 0.75677
 C1525 C 0.91867 0.91046 0.74962
 N1526 N 0.91740 0.93317 0.75112
 N1527 N 0.93606 0.94562 0.75099
 C1528 C 0.95662 0.93578 0.74942
 N1529 N 0.95765 0.91313 0.74766
 N1530 N 0.93913 0.90077 0.74774
 C1531 C 0.89872 0.89599 0.75073
 N1532 N 0.90151 0.87346 0.74999
 N1533 N 0.88401 0.85976 0.75155
 C1534 C 0.86295 0.86799 0.75391
 N1535 N 0.86001 0.89059 0.75459
 N1536 N 0.87763 0.90438 0.75306
 C1537 C 0.84408 0.85221 0.75569
 N1538 N 0.82241 0.85924 0.75701
 N1539 N 0.80569 0.84437 0.75820
 C1540 C 0.81010 0.82200 0.75816
 N1541 N 0.83175 0.81511 0.75696
 N1542 N 0.84838 0.82990 0.75575
 C1543 C 0.41892 0.40811 0.25084
 N1544 N 0.41698 0.43063 0.25383
 N1545 N 0.43524 0.44366 0.25416
 C1546 C 0.45605 0.43461 0.25156
 N1547 N 0.45774 0.41217 0.24827
 N1548 N 0.43962 0.39922 0.24790
 C1549 C 0.39943 0.39299 0.25170
 N1550 N 0.40280 0.37058 0.24991
 N1551 N 0.38572 0.35634 0.25138
 C1552 C 0.36452 0.36389 0.25471
 N1553 N 0.36102 0.38635 0.25641
 N1554 N 0.37820 0.40067 0.25498
 C1555 C 0.34606 0.34763 0.25650
 N1556 N 0.32432 0.35424 0.25843
 N1557 N 0.30788 0.33907 0.25969
 C1558 C 0.31264 0.31679 0.25917
 N1559 N 0.33437 0.31028 0.25736
 N1560 N 0.35073 0.32538 0.25605
   
