data_POSCAR
  _audit_creation_date              2014-09-24
  _audit_creation_method            'ToBaCCo'
  _symmetry_space_group_name_H-M    'P1'
  _symmetry_Int_Tables_number       1
  _symmetry_cell_setting            triclinic
  loop_
  _symmetry_equiv_pos_as_xyz
 x,y,z
_cell_length_a 62.9030
_cell_length_b 62.9562
_cell_length_c 63.1082
_cell_angle_alpha 91.850700
_cell_angle_beta 91.884300
_cell_angle_gamma 91.908600
loop_
  _atom_site_label
  _atom_site_type_symbol
  _atom_site_fract_x
  _atom_site_fract_y
  _atom_site_fract_z
N1 N 0.17555 0.22416 0.23065
 N2 N 0.18147 0.20726 0.24076
 C3 C 0.16835 0.20398 0.25687
 C4 C 0.15359 0.21964 0.25669
 C5 C 0.15849 0.23219 0.23995
 H6 H 0.16939 0.19120 0.26786
 H7 H 0.15023 0.24605 0.23490
 Cu8 Cu 0.20562 0.19119 0.23181
 Cu9 Cu 0.19025 0.23442 0.20617
 Cu10 Cu 0.23399 0.20662 0.19040
 N11 N 0.23048 0.17611 0.22306
 N12 N 0.24151 0.18224 0.20685
 C13 C 0.25770 0.16908 0.20412
 C14 C 0.25666 0.15404 0.21944
 C15 C 0.23930 0.15883 0.23122
 H16 H 0.26929 0.17029 0.19189
 H17 H 0.23356 0.15032 0.24462
 N18 N 0.22387 0.23169 0.17579
 N19 N 0.20720 0.24229 0.18179
 C20 C 0.20420 0.25841 0.16861
 C21 C 0.21973 0.25780 0.15377
 C22 C 0.23193 0.24079 0.15864
 H23 H 0.19165 0.26969 0.16962
 H24 H 0.24557 0.23542 0.15023
 H25 H 0.20189 0.20549 0.19648
 H26 H 0.21951 0.22270 0.21479
 N27 N 0.67573 0.72455 0.73100
 N28 N 0.68194 0.70792 0.74137
 C29 C 0.66883 0.70461 0.75748
 C30 C 0.65377 0.71999 0.75704
 C31 C 0.65849 0.73240 0.74014
 H32 H 0.67006 0.69201 0.76865
 H33 H 0.65000 0.74603 0.73487
 Cu34 Cu 0.70644 0.69223 0.73267
 Cu35 Cu 0.69031 0.73474 0.70641
 Cu36 Cu 0.73410 0.70698 0.69060
 N37 N 0.73099 0.67683 0.72364
 N38 N 0.74174 0.68270 0.70716
 C39 C 0.75778 0.66941 0.70425
 C40 C 0.75693 0.65453 0.71973
 C41 C 0.73984 0.65956 0.73179
 H42 H 0.76914 0.67042 0.69179
 H43 H 0.73429 0.65121 0.74538
 N44 N 0.72384 0.73197 0.67592
 N45 N 0.70716 0.74255 0.68193
 C46 C 0.70411 0.75864 0.66873
 C47 C 0.71960 0.75803 0.65385
 C48 C 0.73185 0.74104 0.65873
 H49 H 0.69156 0.76992 0.66976
 H50 H 0.74549 0.73571 0.65032
 H51 H 0.70209 0.70576 0.69709
 H52 H 0.71980 0.72347 0.71480
 N53 N 0.32059 0.77098 0.73648
 N54 N 0.31481 0.78833 0.74661
 C55 C 0.32785 0.79206 0.76381
 C56 C 0.34240 0.77617 0.76433
 C57 C 0.33746 0.76309 0.74684
 H58 H 0.32696 0.80533 0.77503
 H59 H 0.34562 0.74898 0.74195
 Cu60 Cu 0.29083 0.80421 0.73620
 Cu61 Cu 0.30605 0.75999 0.71050
 Cu62 Cu 0.26332 0.78814 0.69161
 N63 N 0.26681 0.81985 0.72550
 N64 N 0.25609 0.81347 0.70805
 C65 C 0.24012 0.82678 0.70443
 C66 C 0.24103 0.84220 0.72047
 C67 C 0.25803 0.83745 0.73359
 H68 H 0.22864 0.82522 0.69129
 H69 H 0.26340 0.84604 0.74801
 N70 N 0.27312 0.76212 0.67725
 N71 N 0.28938 0.75138 0.68449
 C72 C 0.29224 0.73458 0.67124
 C73 C 0.27707 0.73483 0.65504
 C74 C 0.26522 0.75241 0.65919
 H75 H 0.30452 0.72310 0.67308
 H76 H 0.25196 0.75776 0.64966
 H77 H 0.29518 0.78885 0.70069
 H78 H 0.27679 0.77246 0.71666
 N79 N 0.82186 0.27067 0.23647
 N80 N 0.81595 0.28790 0.24675
 C81 C 0.82898 0.29162 0.26398
 C82 C 0.84363 0.27582 0.26434
 C83 C 0.83879 0.26282 0.24676
 H84 H 0.82797 0.30479 0.27530
 H85 H 0.84703 0.24880 0.24177
 Cu86 Cu 0.79180 0.30361 0.23649
 Cu87 Cu 0.80732 0.25970 0.21047
 Cu88 Cu 0.76455 0.28785 0.19168
 N89 N 0.76793 0.31941 0.22573
 N90 N 0.75731 0.31315 0.20820
 C91 C 0.74139 0.32650 0.20458
 C92 C 0.74219 0.34183 0.22069
 C93 C 0.75911 0.33697 0.23386
 H94 H 0.72996 0.32502 0.19139
 H95 H 0.76438 0.34546 0.24837
 N96 N 0.77435 0.26186 0.17727
 N97 N 0.79062 0.25113 0.18446
 C98 C 0.79345 0.23433 0.17119
 C99 C 0.77823 0.23458 0.15504
 C100 C 0.76639 0.25216 0.15923
 H101 H 0.80573 0.22284 0.17301
 H102 H 0.75309 0.25750 0.14976
 H103 H 0.79639 0.28861 0.20089
 H104 H 0.77799 0.27198 0.21663
 N105 N 0.82034 0.72638 0.26729
 N106 N 0.81335 0.70906 0.25669
 C107 C 0.82641 0.70510 0.24062
 C108 C 0.84227 0.72077 0.24134
 C109 C 0.83804 0.73402 0.25836
 H110 H 0.82444 0.69200 0.22913
 H111 H 0.84700 0.74828 0.26365
 Cu112 Cu 0.78759 0.69376 0.26472
 Cu113 Cu 0.80571 0.73817 0.29146
 Cu114 Cu 0.76009 0.71090 0.30635
 N115 N 0.76222 0.67833 0.27359
 N116 N 0.75153 0.68518 0.28988
 C117 C 0.73490 0.67168 0.29274
 C118 C 0.73525 0.65563 0.27743
 C119 C 0.75272 0.66018 0.26554
 H120 H 0.72351 0.67331 0.30512
 H121 H 0.75814 0.65089 0.25218
 N122 N 0.77125 0.73721 0.32105
 N123 N 0.78868 0.74759 0.31545
 C124 C 0.79219 0.76475 0.32860
 C125 C 0.77620 0.76505 0.34298
 C126 C 0.76323 0.74748 0.33788
 H127 H 0.80541 0.77610 0.32787
 H128 H 0.74909 0.74253 0.34595
 H129 H 0.79217 0.70963 0.30039
 H130 H 0.77575 0.72605 0.28246
 N131 N 0.32091 0.22633 -0.23295
 N132 N 0.31413 0.20883 -0.24338
 C133 C 0.32724 0.20486 -0.25942
 C134 C 0.34291 0.22074 -0.25881
 C135 C 0.33852 0.23410 -0.24193
 H136 H 0.32543 0.19164 -0.27078
 H137 H 0.34732 0.24850 -0.23674
 Cu138 Cu 0.28858 0.19328 -0.23517
 Cu139 Cu 0.30615 0.23813 -0.20886
 Cu140 Cu 0.26049 0.21081 -0.19413
 N141 N 0.26297 0.17803 -0.22663
 N142 N 0.25204 0.18505 -0.21057
 C143 C 0.23530 0.17163 -0.20787
 C144 C 0.23582 0.15547 -0.22305
 C145 C 0.25351 0.15987 -0.23470
 H146 H 0.22374 0.17338 -0.19568
 H147 H 0.25911 0.15045 -0.24788
 N148 N 0.27155 0.23715 -0.17942
 N149 N 0.28900 0.24754 -0.18495
 C150 C 0.29246 0.26469 -0.17178
 C151 C 0.27642 0.26498 -0.15746
 C152 C 0.26347 0.24741 -0.16261
 H153 H 0.30569 0.27604 -0.17243
 H154 H 0.24932 0.24242 -0.15458
 H155 H 0.29266 0.20967 -0.19966
 H156 H 0.27634 0.22572 -0.21804
 N157 N 0.67673 0.27272 -0.23764
 N158 N 0.68408 0.28896 -0.24816
 C159 C 0.67090 0.29204 -0.26498
 C160 C 0.65459 0.27689 -0.26486
 C161 C 0.65862 0.26489 -0.24739
 H162 H 0.67288 0.30440 -0.27632
 H163 H 0.64906 0.25162 -0.24208
 Cu164 Cu 0.71002 0.30459 -0.23864
 Cu165 Cu 0.69105 0.26305 -0.21202
 Cu166 Cu 0.73732 0.29087 -0.19481
 N167 N 0.73599 0.32003 -0.22888
 N168 N 0.74658 0.31462 -0.21167
 C169 C 0.76371 0.32788 -0.20838
 C170 C 0.76376 0.34222 -0.22441
 C171 C 0.74604 0.33693 -0.23714
 H172 H 0.77517 0.32723 -0.19528
 H173 H 0.74084 0.34491 -0.25122
 N174 N 0.72544 0.26638 -0.17993
 N175 N 0.70784 0.25574 -0.18648
 C176 C 0.70416 0.23972 -0.17326
 C177 C 0.72017 0.24045 -0.15781
 C178 C 0.73339 0.25742 -0.16240
 H179 H 0.69098 0.22824 -0.17483
 H180 H 0.74783 0.26265 -0.15372
 H181 H 0.70525 0.29211 -0.20286
 H182 H 0.72126 0.27379 -0.21924
 N183 N 0.17749 0.77347 0.26274
 N184 N 0.18466 0.78994 0.25245
 C185 C 0.17148 0.79302 0.23563
 C186 C 0.15535 0.77767 0.23549
 C187 C 0.15952 0.76553 0.25284
 H188 H 0.17333 0.80553 0.22443
 H189 H 0.15011 0.75206 0.25794
 Cu190 Cu 0.21034 0.80587 0.26221
 Cu191 Cu 0.19189 0.76368 0.28826
 Cu192 Cu 0.23808 0.79150 0.30557
 N193 N 0.23647 0.82106 0.27187
 N194 N 0.24724 0.81542 0.28890
 C195 C 0.26446 0.82858 0.29214
 C196 C 0.26435 0.84308 0.27625
 C197 C 0.24648 0.83801 0.26367
 H198 H 0.27605 0.82774 0.30510
 H199 H 0.24115 0.84615 0.24973
 N200 N 0.22629 0.76686 0.32029
 N201 N 0.20871 0.75623 0.31371
 C202 C 0.20503 0.74016 0.32687
 C203 C 0.22104 0.74084 0.34232
 C204 C 0.23425 0.75785 0.33779
 H205 H 0.19182 0.72872 0.32527
 H206 H 0.24866 0.76309 0.34651
 H207 H 0.20596 0.79269 0.29777
 H208 H 0.22196 0.77479 0.28089
 N209 N 0.47608 0.42477 0.47913
 N210 N 0.45949 0.42984 0.49017
 C211 C 0.45733 0.41609 0.50596
 C212 C 0.47338 0.40177 0.50464
 C213 C 0.48501 0.40764 0.48750
 H214 H 0.44500 0.41637 0.51751
 H215 H 0.49886 0.39998 0.48155
 Cu216 Cu 0.44229 0.45385 0.48270
 Cu217 Cu 0.48473 0.44068 0.45466
 Cu218 Cu 0.45469 0.48384 0.44144
 N219 N 0.42571 0.47832 0.47533
 N220 N 0.43069 0.48997 0.45916
 C221 C 0.41678 0.50569 0.45743
 C222 C 0.40243 0.50372 0.47335
 C223 C 0.40844 0.48626 0.48445
 H224 H 0.41703 0.51760 0.44546
 H225 H 0.40075 0.47985 0.49804
 N226 N 0.47956 0.47514 0.42542
 N227 N 0.49100 0.45870 0.43046
 C228 C 0.50671 0.45676 0.41659
 C229 C 0.50501 0.47272 0.40225
 C230 C 0.48772 0.48409 0.40819
 H231 H 0.51849 0.44464 0.41679
 H232 H 0.48154 0.49779 0.40047
 H233 H 0.47248 0.46926 0.46455
 H234 H 0.45501 0.45160 0.44659
 N235 N -0.02365 -0.07482 0.97869
 N236 N -0.04008 -0.06960 0.98990
 C237 C -0.04224 -0.08338 1.00566
 C238 C -0.02635 -0.09786 1.00416
 C239 C -0.01481 -0.09206 0.98693
 H240 H -0.05445 -0.08301 1.01733
 H241 H -0.00110 -0.09985 0.98084
 Cu242 Cu -0.05706 -0.04538 0.98265
 Cu243 Cu -0.01503 -0.05892 0.95419
 Cu244 Cu -0.04507 -0.01571 0.94104
 N245 N -0.07384 -0.02109 0.97515
 N246 N -0.06903 -0.00956 0.95884
 C247 C -0.08303 0.00606 0.95705
 C248 C -0.09728 0.00416 0.97306
 C249 C -0.09111 -0.01316 0.98429
 H250 H -0.08291 0.01787 0.94498
 H251 H -0.09869 -0.01950 0.99798
 N252 N -0.02025 -0.02444 0.92496
 N253 N -0.00882 -0.04090 0.92998
 C254 C 0.00687 -0.04285 0.91607
 C255 C 0.00515 -0.02689 0.90174
 C256 C -0.01212 -0.01550 0.90772
 H257 H 0.01864 -0.05498 0.91624
 H258 H -0.01829 -0.00178 0.90002
 H259 H -0.02704 -0.03022 0.96402
 H260 H -0.04479 -0.04792 0.94639
 N261 N 1.03270 0.57952 0.97774
 N262 N 1.05028 0.57520 0.98842
 C263 C 1.05362 0.58981 1.00439
 C264 C 1.03728 0.60387 1.00351
 C265 C 1.02428 0.59696 0.98652
 H266 H 1.06677 0.59013 1.01589
 H267 H 1.00972 0.60399 0.98108
 Cu268 Cu 1.06673 0.55068 0.98044
 Cu269 Cu 1.02185 0.56220 0.95338
 Cu270 Cu 1.05127 0.51896 0.93848
 N271 N 1.08330 0.52651 0.97168
 N272 N 1.07707 0.51421 0.95523
 C273 C 1.09094 0.49858 0.95272
 C274 C 1.10664 0.50131 0.96837
 C275 C 1.10142 0.51907 0.98020
 H276 H 1.08958 0.48602 0.94060
 H277 H 1.11002 0.52584 0.99407
 N278 N 1.02475 0.52634 0.92349
 N279 N 1.01350 0.54281 0.92918
 C280 C 0.99652 0.54385 0.91571
 C281 C 0.99723 0.52726 0.90101
 C282 C 1.01522 0.51647 0.90626
 H283 H 0.98467 0.55588 0.91634
 H284 H 1.02102 0.50264 0.89797
 H285 H 1.03523 0.53420 0.96231
 H286 H 1.05105 0.55140 0.94464
 N287 N 0.53244 0.07979 0.47798
 N288 N 0.55000 0.07547 0.48866
 C289 C 0.55333 0.09007 0.50465
 C290 C 0.53699 0.10413 0.50376
 C291 C 0.52401 0.09722 0.48676
 H292 H 0.56648 0.09039 0.51615
 H293 H 0.50944 0.10425 0.48132
 Cu294 Cu 0.56650 0.05098 0.48069
 Cu295 Cu 0.52160 0.06246 0.45362
 Cu296 Cu 0.55109 0.01930 0.43866
 N297 N 0.58312 0.02686 0.47185
 N298 N 0.57692 0.01459 0.45538
 C299 C 0.59083 -0.00099 0.45282
 C300 C 0.60652 0.00173 0.46848
 C301 C 0.60126 0.01945 0.48036
 H302 H 0.58950 -0.01353 0.44068
 H303 H 0.60984 0.02620 0.49425
 N304 N 0.52453 0.02663 0.42371
 N305 N 0.51326 0.04307 0.42942
 C306 C 0.49627 0.04407 0.41597
 C307 C 0.49699 0.02749 0.40127
 C308 C 0.51501 0.01674 0.40649
 H309 H 0.48438 0.05608 0.41661
 H310 H 0.52084 0.00293 0.39819
 H311 H 0.53502 0.03447 0.46253
 H312 H 0.55082 0.05173 0.44489
 N313 N -0.02760 0.08448 0.52665
 N314 N -0.04379 0.07752 0.51432
 C315 C -0.04661 0.09108 0.49847
 C316 C -0.03141 0.10728 0.50111
 C317 C -0.01954 0.10270 0.51904
 H318 H -0.05860 0.08923 0.48581
 H319 H -0.00596 0.11178 0.52586
 Cu320 Cu -0.05944 0.05127 0.51986
 Cu321 Cu -0.01800 0.06915 0.55137
 Cu322 Cu -0.04616 0.02260 0.56199
 N323 N -0.07532 0.02540 0.52628
 N324 N -0.07002 0.01423 0.54279
 C325 C -0.08370 -0.00258 0.54381
 C326 C -0.09823 -0.00180 0.52706
 C327 C -0.09260 0.01607 0.51624
 H328 H -0.08331 -0.01431 0.55595
 H329 H -0.10067 0.02192 0.50231
 N330 N -0.02155 0.03364 0.57959
 N331 N -0.01079 0.05137 0.57560
 C332 C 0.00515 0.05446 0.59031
 C333 C 0.00422 0.03793 0.60408
 C334 C -0.01276 0.02501 0.59691
 H335 H 0.01669 0.06761 0.59090
 H336 H -0.01814 0.01033 0.60375
 H337 H -0.02878 0.03935 0.54038
 H338 H -0.04725 0.05488 0.55692
 N339 N 0.47233 0.58440 0.02687
 N340 N 0.45578 0.57775 0.01485
 C341 C 0.45299 0.59130 -0.00101
 C342 C 0.46855 0.60718 0.00130
 C343 C 0.48062 0.60241 0.01905
 H344 H 0.44076 0.58966 -0.01346
 H345 H 0.49449 0.61123 0.02561
 Cu346 Cu 0.43971 0.55187 0.02083
 Cu347 Cu 0.48204 0.56895 0.05147
 Cu348 Cu 0.45391 0.52233 0.06200
 N349 N 0.42428 0.52558 0.02672
 N350 N 0.42996 0.51406 0.04285
 C351 C 0.41653 0.49703 0.04361
 C352 C 0.40178 0.49801 0.02708
 C353 C 0.40702 0.51623 0.01664
 H354 H 0.41722 0.48501 0.05546
 H355 H 0.39870 0.52232 0.00298
 N356 N 0.47858 0.53330 0.07956
 N357 N 0.48932 0.55106 0.07562
 C358 C 0.50524 0.55416 0.09035
 C359 C 0.50432 0.53759 0.10408
 C360 C 0.48736 0.52466 0.09688
 H361 H 0.51672 0.56735 0.09101
 H362 H 0.48196 0.50999 0.10372
 H363 H 0.47080 0.53937 0.04020
 H364 H 0.45296 0.55471 0.05761
 N365 N 0.52551 -0.07653 0.02550
 N366 N 0.54204 -0.07069 0.01457
 C367 C 0.54331 -0.08399 -0.00247
 C368 C 0.52669 -0.09878 -0.00207
 C369 C 0.51569 -0.09371 0.01581
 H370 H 0.55551 -0.08322 -0.01413
 H371 H 0.50180 -0.10206 0.02148
 Cu372 Cu 0.56053 -0.04662 0.02408
 Cu373 Cu 0.51826 -0.06180 0.05170
 Cu374 Cu 0.55101 -0.01882 0.06897
 N375 N 0.57881 -0.02252 0.03386
 N376 N 0.57504 -0.01169 0.05144
 C377 C 0.58990 0.00414 0.05443
 C378 C 0.60360 0.00304 0.03786
 C379 C 0.59620 -0.01394 0.02507
 H380 H 0.59059 0.01566 0.06755
 H381 H 0.60292 -0.01947 0.01042
 N382 N 0.52592 -0.02857 0.08444
 N383 N 0.51349 -0.04495 0.07782
 C384 C 0.49767 -0.04751 0.09147
 C385 C 0.50035 -0.03208 0.10734
 C386 C 0.51828 -0.02027 0.10252
 H387 H 0.48497 -0.05952 0.08991
 H388 H 0.52506 -0.00656 0.11139
 H389 H 0.53181 -0.03253 0.04478
 H390 H 0.54880 -0.05070 0.06020
 N391 N 1.02526 0.42367 0.52512
 N392 N 1.04150 0.42979 0.51391
 C393 C 1.04275 0.41648 0.49688
 C394 C 1.02642 0.40140 0.49757
 C395 C 1.01562 0.40630 0.51561
 H396 H 1.05475 0.41745 0.48503
 H397 H 1.00197 0.39772 0.52151
 Cu398 Cu 1.05974 0.45420 0.52295
 Cu399 Cu 1.01816 0.43833 0.55138
 Cu400 Cu 1.05089 0.48129 0.56854
 N401 N 1.07829 0.47797 0.53311
 N402 N 1.07480 0.48851 0.55093
 C403 C 1.08984 0.50415 0.55407
 C404 C 1.10337 0.50322 0.53734
 C405 C 1.09568 0.48653 0.52432
 H406 H 1.09077 0.51544 0.56738
 H407 H 1.10221 0.48118 0.50951
 N408 N 1.02591 0.47150 0.58413
 N409 N 1.01348 0.45511 0.57754
 C410 C 0.99771 0.45253 0.59124
 C411 C 1.00042 0.46797 0.60710
 C412 C 1.01832 0.47979 0.60223
 H413 H 0.98500 0.44052 0.58969
 H414 H 1.02510 0.49353 0.61105
 H415 H 1.03135 0.46778 0.54450
 H416 H 1.04885 0.44951 0.55926
 C417 C 0.35953 0.02130 0.24325
 C418 C 0.34681 0.00051 0.24615
 C419 C 0.35927 -0.01639 0.24968
 C420 C 0.38333 -0.01108 0.24996
 C421 C 0.37405 0.02415 0.26317
 C422 C 0.38648 0.00720 0.26664
 C423 C 0.37447 0.01652 0.22517
 C424 C 0.38693 -0.00040 0.22872
 H425 H 0.32953 -0.00064 0.24590
 H426 H 0.39346 -0.02491 0.25280
 H427 H 0.37466 0.03838 0.27342
 H428 H 0.37554 0.02600 0.21113
 C429 C 0.13750 -0.02716 0.74789
 C430 C 0.15081 -0.00668 0.75277
 C431 C 0.13891 0.01064 0.75657
 C432 C 0.11472 0.00599 0.75522
 C433 C 0.12306 -0.02952 0.76681
 C434 C 0.11114 -0.01218 0.77062
 C435 C 0.12258 -0.02197 0.72922
 C436 C 0.11069 -0.00462 0.73308
 H437 H 0.16809 -0.00582 0.75258
 H438 H 0.10503 0.02012 0.75837
 H439 H 0.12219 -0.04366 0.77621
 H440 H 0.12167 -0.03103 0.71424
 C441 C 0.63732 0.47290 0.24835
 C442 C 0.65054 0.49343 0.25325
 C443 C 0.63855 0.51070 0.25703
 C444 C 0.61438 0.50595 0.25564
 C445 C 0.62285 0.47048 0.26724
 C446 C 0.61086 0.48776 0.27104
 C447 C 0.62241 0.47803 0.22965
 C448 C 0.61043 0.49533 0.23349
 H449 H 0.66782 0.49437 0.25308
 H450 H 0.60462 0.52003 0.25878
 H451 H 0.62205 0.45634 0.27665
 H452 H 0.62159 0.46900 0.21466
 C453 C 0.85969 0.52163 0.74305
 C454 C 0.84694 0.50087 0.74593
 C455 C 0.85936 0.48393 0.74944
 C456 C 0.88343 0.48919 0.74972
 C457 C 0.87423 0.52444 0.76296
 C458 C 0.88663 0.50745 0.76641
 C459 C 0.87462 0.51684 0.72496
 C460 C 0.88705 0.49989 0.72849
 H461 H 0.82965 0.49974 0.74568
 H462 H 0.89353 0.47533 0.75254
 H463 H 0.87488 0.53866 0.77322
 H464 H 0.87571 0.52633 0.71093
 C465 C 0.24320 0.36070 0.02126
 C466 C 0.24608 0.34800 0.00054
 C467 C 0.24960 0.36043 -0.01635
 C468 C 0.24987 0.38448 -0.01109
 C469 C 0.26318 0.37523 0.02407
 C470 C 0.26663 0.38765 0.00713
 C471 C 0.22505 0.37562 0.01650
 C472 C 0.22858 0.38807 -0.00040
 H473 H 0.24588 0.33073 -0.00058
 H474 H 0.25269 0.39459 -0.02490
 H475 H 0.27349 0.37587 0.03826
 H476 H 0.21101 0.37672 0.02600
 C477 C 0.74822 0.13606 -0.02670
 C478 C 0.75315 0.14933 -0.00627
 C479 C 0.75699 0.13741 0.01100
 C480 C 0.75562 0.11324 0.00635
 C481 C 0.76718 0.12163 -0.02908
 C482 C 0.77103 0.10969 -0.01180
 C483 C 0.72948 0.12115 -0.02151
 C484 C 0.73338 0.10924 -0.00422
 H485 H 0.75303 0.16659 -0.00541
 H486 H 0.75879 0.10352 0.02042
 H487 H 0.77659 0.12079 -0.04320
 H488 H 0.71445 0.12025 -0.03054
 C489 C 0.24837 0.63612 0.47331
 C490 C 0.25321 0.64937 0.49377
 C491 C 0.25697 0.63744 0.51104
 C492 C 0.25561 0.61328 0.50637
 C493 C 0.26734 0.62169 0.47101
 C494 C 0.27111 0.60974 0.48830
 C495 C 0.22961 0.62121 0.47841
 C496 C 0.23343 0.60928 0.49571
 H497 H 0.25303 0.66664 0.49465
 H498 H 0.25873 0.60356 0.52046
 H499 H 0.27679 0.62083 0.45691
 H500 H 0.21461 0.62031 0.46931
 C501 C 0.74299 0.86110 0.52149
 C502 C 0.74592 0.84837 0.50080
 C503 C 0.74945 0.86079 0.48390
 C504 C 0.74969 0.88484 0.48912
 C505 C 0.76295 0.87565 0.52431
 C506 C 0.76642 0.88805 0.50736
 C507 C 0.72483 0.87599 0.51668
 C508 C 0.72837 0.88842 0.49977
 H509 H 0.74574 0.83110 0.49970
 H510 H 0.75252 0.89494 0.47530
 H511 H 0.77325 0.87630 0.53851
 H512 H 0.71078 0.87710 0.52616
 C513 C 0.02143 0.24314 0.36020
 C514 C 0.00071 0.24623 0.34748
 C515 C -0.01624 0.24984 0.35983
 C516 C -0.01102 0.25000 0.38383
 C517 C 0.02439 0.26304 0.37475
 C518 C 0.00739 0.26659 0.38709
 C519 C 0.01645 0.22499 0.37503
 C520 C -0.00051 0.22862 0.38740
 H521 H -0.00039 0.24604 0.33024
 H522 H -0.02489 0.25290 0.39387
 H523 H 0.03870 0.27323 0.37543
 H524 H 0.02588 0.21089 0.37615
 C525 C -0.02662 0.74817 0.13659
 C526 C -0.00611 0.75313 0.14981
 C527 C 0.01120 0.75699 0.13791
 C528 C 0.00651 0.75561 0.11381
 C529 C -0.02904 0.76711 0.12218
 C530 C -0.01172 0.77099 0.11026
 C531 C -0.02141 0.72947 0.12172
 C532 C -0.00407 0.73338 0.10984
 H533 H -0.00522 0.75297 0.16703
 H534 H 0.02063 0.75880 0.10411
 H535 H -0.04323 0.77648 0.12132
 H536 H -0.03046 0.71444 0.12083
 C537 C 0.47325 0.24804 0.63738
 C538 C 0.49375 0.25299 0.65061
 C539 C 0.51106 0.25687 0.63871
 C540 C 0.50638 0.25551 0.61461
 C541 C 0.47082 0.26699 0.62298
 C542 C 0.48814 0.27089 0.61107
 C543 C 0.47847 0.22935 0.62250
 C544 C 0.49580 0.23328 0.61061
 H545 H 0.49464 0.25281 0.66783
 H546 H 0.52049 0.25873 0.60492
 H547 H 0.45662 0.27634 0.62211
 H548 H 0.46940 0.21433 0.62157
 C549 C 0.52139 0.74312 0.86036
 C550 C 0.50063 0.74619 0.84769
 C551 C 0.48371 0.74979 0.86010
 C552 C 0.48900 0.74994 0.88409
 C553 C 0.52436 0.76303 0.87490
 C554 C 0.50740 0.76655 0.88729
 C555 C 0.51647 0.72497 0.87519
 C556 C 0.49954 0.72857 0.88761
 H557 H 0.49949 0.74602 0.83046
 H558 H 0.47516 0.75283 0.89418
 H559 H 0.53865 0.77325 0.87553
 H560 H 0.52589 0.71086 0.87625
 C561 C 0.09513 0.22892 0.32957
 C562 C 0.09615 0.21102 0.31222
 C563 C 0.10427 0.22752 0.29673
 C564 C 0.10354 0.24537 0.31384
 C565 C 0.07230 0.23313 0.32184
 C566 C 0.08043 0.24962 0.30634
 C567 C 0.07302 0.21529 0.30473
 C568 C 0.08143 0.23173 0.28902
 C569 C 0.12197 0.22456 0.28261
 C570 C 0.13645 0.22225 0.27085
 C571 C 0.05442 0.23645 0.33564
 C572 C 0.03960 0.23937 0.34683
 H573 H 0.10052 0.22781 0.34641
 H574 H 0.10283 0.19512 0.31447
 H575 H 0.11630 0.25769 0.31742
 H576 H 0.07375 0.26552 0.30408
 H577 H 0.06026 0.20296 0.30115
 H578 H 0.07603 0.23285 0.27218
 C579 C 0.59306 0.72274 0.82857
 C580 C 0.59192 0.70959 0.80735
 C581 C 0.60430 0.72768 0.79693
 C582 C 0.60573 0.74078 0.81792
 C583 C 0.57226 0.73322 0.82198
 C584 C 0.58465 0.75130 0.81155
 C585 C 0.57083 0.72013 0.80099
 C586 C 0.58350 0.73816 0.79035
 C587 C 0.62204 0.72477 0.78285
 C588 C 0.63657 0.72252 0.77114
 C589 C 0.55436 0.73649 0.83576
 C590 C 0.53953 0.73938 0.84695
 H591 H 0.59676 0.71644 0.84445
 H592 H 0.59512 0.69242 0.80545
 H593 H 0.62029 0.74923 0.82470
 H594 H 0.58145 0.76848 0.81344
 H595 H 0.55627 0.71168 0.79420
 H596 H 0.57978 0.74446 0.77448
 C597 C 0.40951 0.77703 0.83565
 C598 C 0.40973 0.78556 0.81287
 C599 C 0.39296 0.76829 0.80573
 C600 C 0.39239 0.75980 0.82827
 C601 C 0.42692 0.76159 0.82969
 C602 C 0.41014 0.74433 0.82254
 C603 C 0.42743 0.77008 0.80714
 C604 C 0.41041 0.75287 0.79983
 C605 C 0.37448 0.77161 0.79164
 C606 C 0.35967 0.77392 0.77944
 C607 C 0.44643 0.75757 0.84200
 C608 C 0.46310 0.75407 0.85094
 H609 H 0.40937 0.78690 0.85054
 H610 H 0.40937 0.80255 0.80872
 H611 H 0.37774 0.75563 0.83679
 H612 H 0.41051 0.72733 0.82667
 H613 H 0.44204 0.77426 0.79858
 H614 H 0.41061 0.74299 0.78495
 C615 C -0.07775 0.25073 0.30731
 C616 C -0.10103 0.24651 0.31365
 C617 C -0.10678 0.26820 0.30503
 C618 C -0.08374 0.27245 0.29853
 C619 C -0.07291 0.26159 0.32917
 C620 C -0.07865 0.28330 0.32056
 C621 C -0.09592 0.25732 0.33573
 C622 C -0.10201 0.27911 0.32688
 C623 C -0.12522 0.27146 0.29088
 C624 C -0.14001 0.27371 0.27864
 C625 C -0.05346 0.25760 0.34158
 C626 C -0.03682 0.25412 0.35059
 H627 H -0.06758 0.23900 0.29940
 H628 H -0.11042 0.23141 0.31062
 H629 H -0.07890 0.27871 0.28309
 H630 H -0.06925 0.29839 0.32356
 H631 H -0.10073 0.25107 0.35117
 H632 H -0.11221 0.29085 0.33473
 C633 C -0.07471 0.73061 0.19811
 C634 C -0.09151 0.74698 0.20415
 C635 C -0.10905 0.72956 0.20041
 C636 C -0.09250 0.71313 0.19458
 C637 C -0.07760 0.73651 0.17478
 C638 C -0.09512 0.71908 0.17101
 C639 C -0.09414 0.75293 0.18062
 C640 C -0.11195 0.73545 0.17707
 C641 C -0.12648 0.72599 0.21485
 C642 C -0.14076 0.72340 0.22687
 C643 C -0.05989 0.74055 0.16079
 C644 C -0.04506 0.74397 0.14964
 H645 H -0.05919 0.72867 0.20660
 H646 H -0.09020 0.75840 0.21794
 H647 H -0.09202 0.69673 0.20049
 H648 H -0.09640 0.70766 0.15722
 H649 H -0.09462 0.76933 0.17472
 H650 H -0.12746 0.73739 0.16859
 C651 C 0.42507 0.23044 0.69885
 C652 C 0.40826 0.24680 0.70486
 C653 C 0.39072 0.22939 0.70107
 C654 C 0.40727 0.21296 0.69528
 C655 C 0.42223 0.23633 0.67551
 C656 C 0.40471 0.21891 0.67171
 C657 C 0.40568 0.25276 0.68132
 C658 C 0.38787 0.23528 0.67774
 C659 C 0.37326 0.22583 0.71549
 C660 C 0.35897 0.22325 0.72751
 C661 C 0.43996 0.24038 0.66156
 C662 C 0.45480 0.24381 0.65042
 H663 H 0.44056 0.22849 0.70738
 H664 H 0.40954 0.25823 0.71865
 H665 H 0.40774 0.19655 0.70119
 H666 H 0.40346 0.20749 0.65791
 H667 H 0.40522 0.26916 0.67542
 H668 H 0.37237 0.23723 0.66921
 C669 C 0.58772 0.25111 0.66965
 C670 C 0.60303 0.27098 0.67079
 C671 C 0.60335 0.27038 0.69513
 C672 C 0.58837 0.25057 0.69419
 C673 C 0.56873 0.26580 0.67062
 C674 C 0.56912 0.26521 0.69496
 C675 C 0.58369 0.28563 0.67154
 C676 C 0.58435 0.28506 0.69608
 C677 C 0.62227 0.27280 0.70930
 C678 C 0.63755 0.27472 0.72132
 C679 C 0.54888 0.26299 0.65787
 C680 C 0.53196 0.26039 0.64847
 H681 H 0.58891 0.23713 0.65863
 H682 H 0.61722 0.27338 0.66103
 H683 H 0.59047 0.23619 0.70367
 H684 H 0.55497 0.26281 0.70478
 H685 H 0.58157 0.30000 0.66206
 H686 H 0.58315 0.29903 0.70711
 C687 C 0.09067 0.77368 0.16224
 C688 C 0.09326 0.78875 0.18217
 C689 C 0.10341 0.77073 0.19440
 C690 C 0.10117 0.75571 0.17472
 C691 C 0.06885 0.76605 0.16983
 C692 C 0.07902 0.74805 0.18207
 C693 C 0.07113 0.78106 0.18952
 C694 C 0.08155 0.76311 0.20193
 C695 C 0.12226 0.77324 0.20865
 C696 C 0.13746 0.77526 0.22076
 C697 C 0.04901 0.76319 0.15706
 C698 C 0.03210 0.76054 0.14767
 H699 H 0.09420 0.77799 0.14578
 H700 H 0.09933 0.80551 0.18239
 H701 H 0.11374 0.74530 0.16880
 H702 H 0.07297 0.73128 0.18188
 H703 H 0.05858 0.79149 0.19548
 H704 H 0.07798 0.75878 0.21838
 C705 C 0.30241 0.07750 0.24751
 C706 C 0.30986 0.10121 0.24803
 C707 C 0.29617 0.10434 0.22785
 C708 C 0.28850 0.08090 0.22728
 C709 C 0.32113 0.07222 0.23346
 C710 C 0.30744 0.07534 0.21327
 C711 C 0.32881 0.09565 0.23403
 C712 C 0.31489 0.09907 0.21379
 C713 C 0.28218 0.12214 0.22480
 C714 C 0.27057 0.13673 0.22234
 C715 C 0.33489 0.05428 0.23672
 C716 C 0.34608 0.03944 0.23957
 H717 H 0.29745 0.06841 0.26141
 H718 H 0.31069 0.11205 0.26228
 H719 H 0.27177 0.07506 0.22447
 H720 H 0.30661 0.06449 0.19903
 H721 H 0.34554 0.10148 0.23684
 H722 H 0.31984 0.10816 0.19989
 C723 C 0.80266 0.57785 0.74748
 C724 C 0.81011 0.60156 0.74805
 C725 C 0.79638 0.60474 0.72790
 C726 C 0.78871 0.58131 0.72729
 C727 C 0.82135 0.57260 0.73338
 C728 C 0.80762 0.57578 0.71323
 C729 C 0.82903 0.59603 0.73399
 C730 C 0.81507 0.59950 0.71379
 C731 C 0.78240 0.62256 0.72493
 C732 C 0.77081 0.63718 0.72255
 C733 C 0.83510 0.55465 0.73659
 C734 C 0.84628 0.53980 0.73940
 H735 H 0.79772 0.56873 0.76137
 H736 H 0.81097 0.61237 0.76232
 H737 H 0.77197 0.57547 0.72450
 H738 H 0.80677 0.56496 0.69896
 H739 H 0.84577 0.60186 0.73678
 H740 H 0.82000 0.60863 0.69990
 C741 C 0.80872 0.42021 0.74730
 C742 C 0.81640 0.39710 0.74659
 C743 C 0.80479 0.39304 0.76719
 C744 C 0.79695 0.41589 0.76793
 C745 C 0.82878 0.42707 0.76068
 C746 C 0.81717 0.42301 0.78128
 C747 C 0.83668 0.40425 0.75992
 C748 C 0.82484 0.39985 0.78061
 C749 C 0.79076 0.37451 0.77053
 C750 C 0.77866 0.35962 0.77298
 C751 C 0.84113 0.44661 0.75682
 C752 C 0.85012 0.46330 0.75349
 H753 H 0.80223 0.42878 0.73355
 H754 H 0.81590 0.38624 0.73236
 H755 H 0.78048 0.42051 0.77127
 H756 H 0.81764 0.43387 0.79552
 H757 H 0.85317 0.39969 0.75660
 H758 H 0.83128 0.39126 0.79437
 C759 C 0.33511 -0.09102 0.27593
 C760 C 0.31257 -0.09086 0.28518
 C761 C 0.30475 -0.10720 0.26782
 C762 C 0.32705 -0.10772 0.25861
 C763 C 0.32876 -0.07324 0.26111
 C764 C 0.32093 -0.08959 0.24376
 C765 C 0.30645 -0.07279 0.27032
 C766 C 0.29847 -0.08938 0.25303
 C767 C 0.29067 -0.12567 0.27124
 C768 C 0.27851 -0.14050 0.27375
 C769 C 0.34110 -0.05372 0.25718
 C770 C 0.35007 -0.03703 0.25379
 H771 H 0.35033 -0.09147 0.28528
 H772 H 0.30896 -0.09158 0.30225
 H773 H 0.33535 -0.12231 0.25384
 H774 H 0.32453 -0.08886 0.22669
 H775 H 0.29811 -0.05822 0.27510
 H776 H 0.28325 -0.08888 0.24366
 C777 C 0.18726 -0.09016 0.75395
 C778 C 0.18078 -0.11147 0.74215
 C779 C 0.20122 -0.10976 0.72954
 C780 C 0.20790 -0.08872 0.74129
 C781 C 0.17566 -0.07822 0.73641
 C782 C 0.19610 -0.07651 0.72380
 C783 C 0.16896 -0.09925 0.72466
 C784 C 0.18963 -0.09782 0.71199
 C785 C 0.21559 -0.12726 0.72595
 C786 C 0.22751 -0.14162 0.72325
 C787 C 0.16170 -0.06047 0.74039
 C788 C 0.15056 -0.04562 0.74375
 H789 H 0.18612 -0.08682 0.77125
 H790 H 0.17465 -0.12605 0.74966
 H791 H 0.22407 -0.08456 0.74807
 H792 H 0.20224 -0.06193 0.71629
 H793 H 0.15279 -0.10338 0.71787
 H794 H 0.19078 -0.10116 0.69469
 C795 C 0.67960 0.41192 0.21494
 C796 C 0.70383 0.41269 0.22033
 C797 C 0.70151 0.39068 0.22999
 C798 C 0.67750 0.38962 0.22455
 C799 C 0.67576 0.42205 0.23690
 C800 C 0.67344 0.40005 0.24656
 C801 C 0.69977 0.42310 0.24233
 C802 C 0.69767 0.40084 0.25194
 C803 C 0.71595 0.37324 0.22638
 C804 C 0.72789 0.35892 0.22365
 C805 C 0.66169 0.43972 0.24088
 C806 C 0.65047 0.45451 0.24424
 H807 H 0.67199 0.41668 0.19978
 H808 H 0.71647 0.41772 0.20950
 H809 H 0.66852 0.37566 0.21716
 H810 H 0.66080 0.39504 0.25739
 H811 H 0.70877 0.43707 0.24970
 H812 H 0.70528 0.39610 0.26711
 C813 C 0.66826 0.58806 0.25207
 C814 C 0.67050 0.60250 0.27246
 C815 C 0.69478 0.60315 0.27034
 C816 C 0.69274 0.58904 0.25001
 C817 C 0.67035 0.56846 0.26577
 C818 C 0.69464 0.56918 0.26366
 C819 C 0.67237 0.58255 0.28612
 C820 C 0.69685 0.58354 0.28403
 C821 C 0.70889 0.62213 0.27282
 C822 C 0.72081 0.63749 0.27488
 C823 C 0.65764 0.54857 0.26301
 C824 C 0.64828 0.53162 0.26046
 H825 H 0.65633 0.58971 0.23891
 H826 H 0.66075 0.61644 0.27611
 H827 H 0.70128 0.59190 0.23519
 H828 H 0.70444 0.55527 0.26002
 H829 H 0.66383 0.57967 0.30093
 H830 H 0.70878 0.58186 0.29718
 C831 C 0.16880 0.08790 0.75155
 C832 C 0.17106 0.10235 0.77194
 C833 C 0.19534 0.10300 0.76980
 C834 C 0.19328 0.08888 0.74947
 C835 C 0.17089 0.06831 0.76527
 C836 C 0.19518 0.06902 0.76314
 C837 C 0.17294 0.08241 0.78561
 C838 C 0.19742 0.08339 0.78349
 C839 C 0.20945 0.12197 0.77228
 C840 C 0.22138 0.13733 0.77436
 C841 C 0.15815 0.04844 0.76252
 C842 C 0.14873 0.03152 0.75999
 H843 H 0.15686 0.08955 0.73841
 H844 H 0.16131 0.11630 0.77559
 H845 H 0.20181 0.09172 0.73465
 H846 H 0.20498 0.05510 0.75949
 H847 H 0.16441 0.07955 0.80043
 H848 H 0.20935 0.08172 0.79664
 C849 C 0.23151 0.33027 0.09523
 C850 C 0.21233 0.31449 0.09742
 C851 C 0.22782 0.29742 0.10419
 C852 C 0.24695 0.31297 0.10229
 C853 C 0.23342 0.32236 0.07212
 C854 C 0.24890 0.30529 0.07890
 C855 C 0.21429 0.30681 0.07401
 C856 C 0.22973 0.28952 0.08107
 C857 C 0.22482 0.28343 0.12197
 C858 C 0.22245 0.27179 0.13652
 C859 C 0.23669 0.33610 0.05421
 C860 C 0.23954 0.34728 0.03938
 H861 H 0.23228 0.34719 0.10082
 H862 H 0.19726 0.31810 0.10525
 H863 H 0.26034 0.31533 0.11413
 H864 H 0.26397 0.30167 0.07107
 H865 H 0.20091 0.30445 0.06217
 H866 H 0.22897 0.27261 0.07547
 C867 C 0.73147 0.79835 0.57035
 C868 C 0.74683 0.79720 0.58993
 C869 C 0.72763 0.79771 0.60433
 C870 C 0.71221 0.79864 0.58502
 C871 C 0.73320 0.82273 0.57231
 C872 C 0.71399 0.82325 0.58670
 C873 C 0.74861 0.82180 0.59162
 C874 C 0.72935 0.82210 0.60630
 C875 C 0.72465 0.78368 0.62208
 C876 C 0.72230 0.77203 0.63661
 C877 C 0.73646 0.83650 0.55443
 C878 C 0.73931 0.84769 0.53961
 H879 H 0.73238 0.78876 0.55535
 H880 H 0.76029 0.78633 0.59147
 H881 H 0.69722 0.78894 0.58253
 H882 H 0.70053 0.83412 0.58514
 H883 H 0.76360 0.83149 0.59411
 H884 H 0.72845 0.83168 0.62130
 C885 C 0.77363 0.80965 0.42748
 C886 C 0.75603 0.79876 0.41284
 C887 C 0.76797 0.80631 0.39346
 C888 C 0.78565 0.81703 0.40785
 C889 C 0.76121 0.83027 0.42733
 C890 C 0.77317 0.83788 0.40799
 C891 C 0.74356 0.81953 0.41293
 C892 C 0.75555 0.82691 0.39326
 C893 C 0.77136 0.79225 0.37503
 C894 C 0.77377 0.78009 0.36024
 C895 C 0.75718 0.84260 0.44676
 C896 C 0.75369 0.85157 0.46336
 H897 H 0.78103 0.80268 0.44175
 H898 H 0.74903 0.78252 0.41466
 H899 H 0.80299 0.81583 0.40555
 H900 H 0.78017 0.85413 0.40623
 H901 H 0.72621 0.82070 0.41521
 H902 H 0.74817 0.83384 0.37896
 C903 C 0.27154 0.33817 -0.09309
 C904 C 0.28561 0.31838 -0.09360
 C905 C 0.26806 0.30614 -0.10693
 C906 C 0.25405 0.32568 -0.10676
 C907 C 0.26127 0.33002 -0.07301
 C908 C 0.24375 0.31776 -0.08636
 C909 C 0.27528 0.31047 -0.07322
 C910 C 0.25780 0.29807 -0.08681
 C911 C 0.27148 0.29212 -0.12538
 C912 C 0.27393 0.27999 -0.14018
 C913 C 0.25726 0.34230 -0.05353
 C914 C 0.25380 0.35124 -0.03691
 H915 H 0.27714 0.35480 -0.09544
 H916 H 0.30286 0.31845 -0.09678
 H917 H 0.24537 0.33176 -0.12078
 H918 H 0.22649 0.31766 -0.08318
 H919 H 0.28397 0.30435 -0.05923
 H920 H 0.25220 0.28144 -0.08440
 C921 C 0.71841 0.19001 -0.07852
 C922 C 0.73438 0.20726 -0.08595
 C923 C 0.72942 0.19977 -0.10905
 C924 C 0.71339 0.18274 -0.10190
 C925 C 0.73651 0.17422 -0.07761
 C926 C 0.73155 0.16672 -0.10070
 C927 C 0.75252 0.19127 -0.08477
 C928 C 0.74752 0.18399 -0.10813
 C929 C 0.72575 0.21414 -0.12650
 C930 C 0.72303 0.22609 -0.14080
 C931 C 0.74059 0.16027 -0.05991
 C932 C 0.74402 0.14913 -0.04510
 H933 H 0.70649 0.19233 -0.06614
 H934 H 0.73549 0.22408 -0.08007
 H935 H 0.69725 0.17941 -0.10913
 H936 H 0.73043 0.14989 -0.10656
 H937 H 0.76866 0.19462 -0.07754
 H938 H 0.75945 0.18168 -0.12050
 C939 C 0.22969 0.69736 0.42515
 C940 C 0.24654 0.70451 0.40928
 C941 C 0.23011 0.70002 0.39099
 C942 C 0.21320 0.69307 0.40660
 C943 C 0.23697 0.67440 0.42242
 C944 C 0.22053 0.66989 0.40415
 C945 C 0.25388 0.68135 0.40681
 C946 C 0.23739 0.67706 0.38825
 C947 C 0.22654 0.71444 0.37357
 C948 C 0.22387 0.72644 0.35929
 C949 C 0.24093 0.66040 0.44011
 C950 C 0.24427 0.64922 0.45491
 H951 H 0.22657 0.70555 0.44052
 H952 H 0.25719 0.71891 0.41120
 H953 H 0.19643 0.69807 0.40633
 H954 H 0.20988 0.65548 0.40226
 H955 H 0.27064 0.67637 0.40710
 H956 H 0.24052 0.66887 0.37289
 C957 C 0.25918 0.69275 0.57006
 C958 C 0.24876 0.68833 0.59142
 C959 C 0.27017 0.69402 0.60299
 C960 C 0.28061 0.69862 0.58188
 C961 C 0.26566 0.66943 0.56852
 C962 C 0.28707 0.67512 0.58007
 C963 C 0.25519 0.66480 0.58961
 C964 C 0.27666 0.67071 0.60150
 C965 C 0.27261 0.70822 0.62184
 C966 C 0.27462 0.72024 0.63708
 C967 C 0.26291 0.65664 0.54874
 C968 C 0.26038 0.64722 0.53188
 H969 H 0.25196 0.70169 0.55693
 H970 H 0.23304 0.69394 0.59628
 H971 H 0.29107 0.71268 0.57888
 H972 H 0.30279 0.66952 0.57520
 H973 H 0.24472 0.65074 0.59257
 H974 H 0.28388 0.66183 0.61467
 C975 C 0.74870 0.18300 0.07771
 C976 C 0.75468 0.17521 0.10009
 C977 C 0.77103 0.19384 0.10297
 C978 C 0.76508 0.20181 0.08088
 C979 C 0.76619 0.16935 0.06846
 C980 C 0.78253 0.18799 0.07137
 C981 C 0.77214 0.16132 0.09053
 C982 C 0.78854 0.18020 0.09375
 C983 C 0.77362 0.20800 0.12184
 C984 C 0.77571 0.22000 0.13708
 C985 C 0.76326 0.15660 0.04868
 C986 C 0.76058 0.14719 0.03182
 H987 H 0.73228 0.18400 0.07091
 H988 H 0.74324 0.17012 0.11212
 H989 H 0.76221 0.21859 0.07707
 H990 H 0.79397 0.19310 0.05936
 H991 H 0.77501 0.14453 0.09427
 H992 H 0.80497 0.17923 0.10055
 C993 C 0.46689 0.33342 0.56772
 C994 C 0.48157 0.35366 0.56805
 C995 C 0.48250 0.35165 0.54376
 C996 C 0.46778 0.33165 0.54325
 C997 C 0.48667 0.31980 0.56945
 C998 C 0.48760 0.31777 0.54516
 C999 C 0.50140 0.33979 0.56998
 C1000 C 0.50230 0.33806 0.54545
 C1001 C 0.47968 0.36949 0.52964
 C1002 C 0.47697 0.38420 0.51817
 C1003 C 0.48825 0.30216 0.58400
 C1004 C 0.48870 0.28782 0.59621
 H1005 H 0.45234 0.33134 0.57702
 H1006 H 0.47905 0.36859 0.57733
 H1007 H 0.45392 0.32847 0.53213
 H1008 H 0.49011 0.30282 0.53590
 H1009 H 0.51526 0.34295 0.58111
 H1010 H 0.51684 0.34017 0.53613
 C1011 C -0.03341 0.83275 0.06606
 C1012 C -0.01957 0.85357 0.06730
 C1013 C -0.01730 0.85190 0.04314
 C1014 C -0.03118 0.83132 0.04171
 C1015 C -0.01315 0.81999 0.06874
 C1016 C -0.01088 0.81829 0.04458
 C1017 C 0.00074 0.84056 0.07019
 C1018 C 0.00299 0.83916 0.04578
 C1019 C -0.02011 0.86977 0.02906
 C1020 C -0.02279 0.88452 0.01763
 C1021 C -0.01158 0.80231 0.08325
 C1022 C -0.01114 0.78794 0.09543
 H1023 H -0.04838 0.82995 0.07455
 H1024 H -0.02319 0.86826 0.07651
 H1025 H -0.04435 0.82769 0.02987
 H1026 H -0.00727 0.80359 0.03539
 H1027 H 0.01390 0.84417 0.08204
 H1028 H 0.01793 0.84200 0.03727
 C1029 C 0.00164 0.67768 0.05007
 C1030 C 0.02164 0.67715 0.03641
 C1031 C 0.02555 0.65449 0.04364
 C1032 C 0.00563 0.65478 0.05709
 C1033 C 0.01562 0.68636 0.06904
 C1034 C 0.01952 0.66369 0.07626
 C1035 C 0.03555 0.68611 0.05562
 C1036 C 0.03954 0.66314 0.06261
 C1037 C 0.03046 0.63653 0.02947
 C1038 C 0.03389 0.62166 0.01771
 C1039 C 0.00942 0.70374 0.08332
 C1040 C 0.00364 0.71754 0.09527
 H1041 H -0.01400 0.68384 0.04505
 H1042 H 0.02257 0.68249 0.01986
 H1043 H -0.00663 0.64172 0.05757
 H1044 H 0.01859 0.65834 0.09280
 H1045 H 0.04779 0.69919 0.05516
 H1046 H 0.05518 0.65694 0.06761
 C1047 C 0.50722 0.18336 0.54643
 C1048 C 0.53007 0.17820 0.53990
 C1049 C 0.52525 0.15463 0.54404
 C1050 C 0.50250 0.15954 0.55035
 C1051 C 0.51538 0.18642 0.56957
 C1052 C 0.51058 0.16284 0.57368
 C1053 C 0.53815 0.18154 0.56330
 C1054 C 0.53342 0.15768 0.56719
 C1055 C 0.53014 0.13673 0.52979
 C1056 C 0.53357 0.12189 0.51799
 C1057 C 0.50923 0.20374 0.58394
 C1058 C 0.50348 0.21750 0.59596
 H1059 H 0.49639 0.19411 0.53803
 H1060 H 0.53815 0.18432 0.52584
 H1061 H 0.48788 0.15031 0.54489
 H1062 H 0.50249 0.15670 0.58773
 H1063 H 0.55275 0.19080 0.56878
 H1064 H 0.54423 0.14692 0.57557
 C1065 C -0.02067 0.16180 0.42652
 C1066 C -0.00431 0.15535 0.44379
 C1067 C -0.02191 0.15571 0.46008
 C1068 C -0.03835 0.16193 0.44303
 C1069 C -0.01533 0.18531 0.43233
 C1070 C -0.03295 0.18571 0.44861
 C1071 C 0.00109 0.17907 0.44939
 C1072 C -0.01658 0.17920 0.46593
 C1073 C -0.02532 0.13885 0.47519
 C1074 C -0.02806 0.12462 0.48723
 C1075 C -0.01103 0.20135 0.41659
 C1076 C -0.00671 0.21406 0.40339
 H1077 H -0.02233 0.15482 0.41014
 H1078 H 0.00744 0.14270 0.44197
 H1079 H -0.05461 0.15468 0.44058
 H1080 H -0.04468 0.19838 0.45039
 H1081 H 0.01736 0.18631 0.45184
 H1082 H -0.01492 0.18616 0.48231
 C1083 C 0.48578 0.68904 0.95663
 C1084 C 0.46492 0.67541 0.95814
 C1085 C 0.47820 0.65548 0.96016
 C1086 C 0.49898 0.66884 0.95890
 C1087 C 0.48477 0.68514 0.93246
 C1088 C 0.49803 0.66519 0.93451
 C1089 C 0.46399 0.67178 0.93370
 C1090 C 0.47721 0.65161 0.93598
 C1091 C 0.47477 0.63863 0.97527
 C1092 C 0.47199 0.62444 0.98735
 C1093 C 0.48906 0.70122 0.91675
 C1094 C 0.49336 0.71397 0.90358
 H1095 H 0.48932 0.70463 0.96494
 H1096 H 0.45126 0.67941 0.96805
 H1097 H 0.51333 0.66744 0.96941
 H1098 H 0.51168 0.66115 0.92461
 H1099 H 0.44965 0.67318 0.92318
 H1100 H 0.47367 0.63603 0.92764
 C1101 C 0.50814 0.81635 0.95394
 C1102 C 0.52889 0.83019 0.95717
 C1103 C 0.51567 0.85025 0.95643
 C1104 C 0.49494 0.83670 0.95343
 C1105 C 0.51040 0.81734 0.92983
 C1106 C 0.49716 0.83738 0.92905
 C1107 C 0.53110 0.83091 0.93286
 C1108 C 0.51792 0.85122 0.93231
 C1109 C 0.51914 0.86853 0.97120
 C1110 C 0.52243 0.88350 0.98337
 C1111 C 0.50826 0.79907 0.91488
 C1112 C 0.50738 0.78416 0.90241
 H1113 H 0.50408 0.80180 0.96265
 H1114 H 0.54198 0.82743 0.96889
 H1115 H 0.48011 0.83932 0.96206
 H1116 H 0.48408 0.84011 0.91732
 H1117 H 0.54595 0.82832 0.92424
 H1118 H 0.52199 0.86575 0.92359
 C1119 C 0.03109 0.33082 0.43282
 C1120 C 0.01806 0.35122 0.43209
 C1121 C 0.01554 0.35032 0.45617
 C1122 C 0.02862 0.33017 0.45710
 C1123 C 0.01033 0.31738 0.42960
 C1124 C 0.00781 0.31646 0.45368
 C1125 C -0.00276 0.33752 0.42864
 C1126 C -0.00525 0.33691 0.45299
 C1127 C 0.01898 0.36862 0.47093
 C1128 C 0.02222 0.38362 0.48306
 C1129 C 0.00822 0.29911 0.41466
 C1130 C 0.00735 0.28420 0.40219
 H1131 H 0.04602 0.32812 0.42436
 H1132 H 0.02232 0.36571 0.42338
 H1133 H 0.04156 0.32736 0.46896
 H1134 H 0.00355 0.30196 0.46238
 H1135 H -0.01570 0.34031 0.41677
 H1136 H -0.02015 0.33964 0.46146
 C1137 C 0.33329 0.56588 0.46714
 C1138 C 0.35382 0.56669 0.48138
 C1139 C 0.35199 0.54240 0.48296
 C1140 C 0.33169 0.54140 0.46868
 C1141 C 0.32005 0.56804 0.48709
 C1142 C 0.31819 0.54375 0.48867
 C1143 C 0.34034 0.56906 0.50138
 C1144 C 0.33878 0.54451 0.50294
 C1145 C 0.36990 0.52835 0.48008
 C1146 C 0.38471 0.51701 0.47723
 C1147 C 0.30239 0.58261 0.48859
 C1148 C 0.28804 0.59484 0.48896
 H1149 H 0.33086 0.57482 0.45242
 H1150 H 0.36864 0.57600 0.47834
 H1151 H 0.32830 0.52990 0.45519
 H1152 H 0.30335 0.53446 0.49171
 H1153 H 0.34371 0.58057 0.51486
 H1154 H 0.34125 0.53556 0.51764
 C1155 C 0.83197 0.05804 0.00547
 C1156 C 0.83102 0.03648 -0.00720
 C1157 C 0.85216 0.04267 -0.01728
 C1158 C 0.85342 0.06399 -0.00465
 C1159 C 0.82012 0.06819 -0.01311
 C1160 C 0.84128 0.07434 -0.02318
 C1161 C 0.81888 0.04687 -0.02574
 C1162 C 0.84028 0.05284 -0.03583
 C1163 C 0.87012 0.02869 -0.02018
 C1164 C 0.88496 0.01740 -0.02305
 C1165 C 0.80240 0.08268 -0.01158
 C1166 C 0.78801 0.09485 -0.01118
 H1167 H 0.82836 0.06033 0.02247
 H1168 H 0.82698 0.02074 -0.00066
 H1169 H 0.86781 0.07089 0.00399
 H1170 H 0.84534 0.09006 -0.02973
 H1171 H 0.80449 0.03996 -0.03439
 H1172 H 0.84386 0.05058 -0.05284
 C1173 C 0.66368 0.06888 0.00567
 C1174 C 0.66319 0.04434 0.00311
 C1175 C 0.65442 0.04287 0.02547
 C1176 C 0.65467 0.06722 0.02812
 C1177 C 0.68634 0.06828 0.01546
 C1178 C 0.67760 0.06684 0.03784
 C1179 C 0.68610 0.04393 0.01281
 C1180 C 0.67707 0.04223 0.03529
 C1181 C 0.63643 0.02872 0.03050
 C1182 C 0.62149 0.01705 0.03412
 C1183 C 0.70372 0.08261 0.00924
 C1184 C 0.71753 0.09461 0.00347
 H1185 H 0.65835 0.07999 -0.00658
 H1186 H 0.65707 0.03496 -0.01113
 H1187 H 0.64155 0.07665 0.03445
 H1188 H 0.68374 0.07624 0.05206
 H1189 H 0.69922 0.03451 0.00647
 H1190 H 0.68237 0.03111 0.04754
 C1191 C 0.18784 0.55084 0.53154
 C1192 C 0.16670 0.55816 0.54093
 C1193 C 0.15433 0.54291 0.52510
 C1194 C 0.17517 0.53536 0.51581
 C1195 C 0.18629 0.56832 0.51518
 C1196 C 0.17390 0.55307 0.49939
 C1197 C 0.16545 0.57587 0.52447
 C1198 C 0.15283 0.56041 0.50875
 C1199 C 0.13631 0.52879 0.53008
 C1200 C 0.12133 0.51716 0.53366
 C1201 C 0.20371 0.58264 0.50903
 C1202 C 0.21754 0.59464 0.50331
 H1203 H 0.20244 0.54706 0.54083
 H1204 H 0.16353 0.56010 0.55807
 H1205 H 0.17897 0.51854 0.51229
 H1206 H 0.17704 0.55111 0.48224
 H1207 H 0.16165 0.59269 0.52798
 H1208 H 0.13825 0.56421 0.49943
 C1209 C 0.17056 0.44162 0.00223
 C1210 C 0.17443 0.46435 -0.00583
 C1211 C 0.15535 0.46068 -0.02150
 C1212 C 0.15125 0.43817 -0.01348
 C1213 C 0.18509 0.43301 -0.01492
 C1214 C 0.16601 0.42935 -0.03058
 C1215 C 0.18924 0.45550 -0.02294
 C1216 C 0.16987 0.45208 -0.03868
 C1217 C 0.13840 0.47570 -0.02500
 C1218 C 0.12409 0.48763 -0.02792
 C1219 C 0.20121 0.41729 -0.01069
 C1220 C 0.21396 0.40409 -0.00646
 H1221 H 0.17101 0.43713 0.01911
 H1222 H 0.17769 0.47890 0.00431
 H1223 H 0.13547 0.43121 -0.00960
 H1224 H 0.16273 0.41479 -0.04072
 H1225 H 0.20504 0.46243 -0.02681
 H1226 H 0.16938 0.45657 -0.05555
 C1227 C 0.67975 0.94298 0.46365
 C1228 C 0.65573 0.93909 0.46742
 C1229 C 0.65523 0.96110 0.47862
 C1230 C 0.67898 0.96526 0.47480
 C1231 C 0.68495 0.93341 0.48522
 C1232 C 0.68445 0.95541 0.49643
 C1233 C 0.66118 0.92930 0.48903
 C1234 C 0.66045 0.95151 0.50017
 C1235 C 0.63829 0.97613 0.47511
 C1236 C 0.62399 0.98806 0.47218
 C1237 C 0.70104 0.91768 0.48946
 C1238 C 0.71378 0.90446 0.49369
 H1239 H 0.68787 0.93929 0.44868
 H1240 H 0.64372 0.93254 0.45546
 H1241 H 0.68610 0.98023 0.46892
 H1242 H 0.69647 0.96195 0.50840
 H1243 H 0.65403 0.91434 0.49490
 H1244 H 0.65234 0.95517 0.51516
 C1245 C 0.83186 0.93242 0.53024
 C1246 C 0.85146 0.93290 0.51605
 C1247 C 0.85033 0.95721 0.51552
 C1248 C 0.83098 0.95692 0.52975
 C1249 C 0.81728 0.93067 0.51020
 C1250 C 0.81612 0.95498 0.50967
 C1251 C 0.83661 0.93093 0.49595
 C1252 C 0.83577 0.95551 0.49546
 C1253 C 0.86872 0.97189 0.51909
 C1254 C 0.88383 0.98391 0.52252
 C1255 C 0.79896 0.91572 0.50808
 C1256 C 0.78403 0.90322 0.50725
 H1257 H 0.83005 0.92275 0.54452
 H1258 H 0.86619 0.92398 0.51873
 H1259 H 0.82886 0.96776 0.54370
 H1260 H 0.80138 0.96388 0.50700
 H1261 H 0.83869 0.92007 0.48202
 H1262 H 0.83761 0.96519 0.48120
 C1263 C 0.31955 0.45185 -0.00055
 C1264 C 0.32767 0.46209 0.02100
 C1265 C 0.35052 0.45683 0.01536
 C1266 C 0.34272 0.44683 -0.00615
 C1267 C 0.31750 0.43026 0.01000
 C1268 C 0.34035 0.42499 0.00436
 C1269 C 0.32534 0.44029 0.03149
 C1270 C 0.34843 0.43524 0.02590
 C1271 C 0.36889 0.47155 0.01898
 C1272 C 0.38394 0.48362 0.02246
 C1273 C 0.29919 0.41531 0.00786
 C1274 C 0.28425 0.40281 0.00702
 H1275 H 0.30746 0.45849 -0.01146
 H1276 H 0.32267 0.47751 0.02789
 H1277 H 0.35011 0.44969 -0.02159
 H1278 H 0.34533 0.40956 -0.00252
 H1279 H 0.31799 0.43745 0.04695
 H1280 H 0.36050 0.42857 0.03681
 C1281 C 0.57329 0.49707 0.34208
 C1282 C 0.54967 0.50340 0.34202
 C1283 C 0.54379 0.48211 0.35195
 C1284 C 0.56717 0.47576 0.35228
 C1285 C 0.56934 0.48635 0.32002
 C1286 C 0.56342 0.46508 0.32998
 C1287 C 0.54596 0.49271 0.31964
 C1288 C 0.53985 0.47140 0.32988
 C1289 C 0.52975 0.47923 0.36983
 C1290 C 0.51839 0.47644 0.38460
 C1291 C 0.58384 0.48793 0.30234
 C1292 C 0.59601 0.48836 0.28798
 H1293 H 0.58719 0.50766 0.34692
 H1294 H 0.54385 0.51914 0.34717
 H1295 H 0.57576 0.46875 0.36587
 H1296 H 0.56922 0.44933 0.32486
 H1297 H 0.53739 0.49972 0.30604
 H1298 H 0.52596 0.46080 0.32504
 C1299 C 0.07026 -0.03153 0.83530
 C1300 C 0.06829 -0.01501 0.85377
 C1301 C 0.04394 -0.01757 0.85143
 C1302 C 0.04573 -0.03412 0.83320
 C1303 C 0.06954 -0.01345 0.81953
 C1304 C 0.04519 -0.01601 0.81717
 C1305 C 0.06778 0.00312 0.83775
 C1306 C 0.04317 0.00054 0.83569
 C1307 C 0.02989 -0.02041 0.86931
 C1308 C 0.01852 -0.02318 0.88408
 C1309 C 0.08407 -0.01193 0.80188
 C1310 C 0.09627 -0.01154 0.78754
 H1311 H 0.08155 -0.04472 0.83499
 H1312 H 0.07766 -0.01464 0.86901
 H1313 H 0.03653 -0.04947 0.83151
 H1314 H 0.03583 -0.01638 0.80193
 H1315 H 0.07699 0.01847 0.83943
 H1316 H 0.03186 0.01370 0.83604
 C1317 C 0.07097 0.00630 0.66336
 C1318 C 0.04648 0.00290 0.66252
 C1319 C 0.04436 0.02554 0.65450
 C1320 C 0.06866 0.02903 0.65509
 C1321 C 0.06981 0.01531 0.68621
 C1322 C 0.06772 0.03796 0.67822
 C1323 C 0.04551 0.01181 0.68561
 C1324 C 0.04316 0.03457 0.67733
 C1325 C 0.03016 0.03065 0.63663
 C1326 C 0.01840 0.03428 0.62181
 C1327 C 0.08413 0.00897 0.70350
 C1328 C 0.09610 0.00312 0.71726
 H1329 H 0.08255 -0.00539 0.65779
 H1330 H 0.03761 -0.01148 0.65588
 H1331 H 0.07803 0.03616 0.64235
 H1332 H 0.07661 0.05232 0.68488
 H1333 H 0.03614 0.00468 0.69835
 H1334 H 0.03156 0.04626 0.68287
 C1335 C 0.55441 0.53367 0.18715
 C1336 C 0.56180 0.54022 0.16500
 C1337 C 0.54435 0.52530 0.15461
 C1338 C 0.53673 0.51884 0.17646
 C1339 C 0.56970 0.51515 0.18644
 C1340 C 0.55225 0.50026 0.17602
 C1341 C 0.57731 0.52161 0.16459
 C1342 C 0.55965 0.50679 0.15394
 C1343 C 0.53019 0.53037 0.13670
 C1344 C 0.51846 0.53397 0.12185
 C1345 C 0.58396 0.50887 0.20381
 C1346 C 0.59588 0.50305 0.21762
 H1347 H 0.55241 0.54466 0.20100
 H1348 H 0.56558 0.55671 0.16025
 H1349 H 0.51988 0.51776 0.18114
 H1350 H 0.54845 0.48376 0.18074
 H1351 H 0.59416 0.52268 0.15990
 H1352 H 0.56168 0.49579 0.14011
 C1353 C 0.42925 -0.00810 0.16237
 C1354 C 0.45275 0.00006 0.16341
 C1355 C 0.45945 -0.02204 0.15572
 C1356 C 0.43616 -0.03026 0.15445
 C1357 C 0.43178 -0.01526 0.18534
 C1358 C 0.43846 -0.03738 0.17767
 C1359 C 0.45508 -0.00703 0.18662
 C1360 C 0.46203 -0.02922 0.17868
 C1361 C 0.47452 -0.02560 0.13887
 C1362 C 0.48652 -0.02849 0.12466
 C1363 C 0.41608 -0.01089 0.20140
 C1364 C 0.40291 -0.00656 0.21412
 H1365 H 0.41559 0.00061 0.15582
 H1366 H 0.45878 0.01542 0.15736
 H1367 H 0.42854 -0.03984 0.14102
 H1368 H 0.43242 -0.05272 0.18371
 H1369 H 0.46268 0.00256 0.20005
 H1370 H 0.47571 -0.03793 0.18518
 C1371 C 0.92935 0.49211 0.66213
 C1372 C 0.95286 0.50026 0.66315
 C1373 C 0.95955 0.47814 0.65549
 C1374 C 0.93624 0.46993 0.65423
 C1375 C 0.93189 0.48498 0.68511
 C1376 C 0.93855 0.46285 0.67746
 C1377 C 0.95519 0.49319 0.68638
 C1378 C 0.96212 0.47098 0.67846
 C1379 C 0.97460 0.47453 0.63863
 C1380 C 0.98660 0.47159 0.62442
 C1381 C 0.91619 0.48937 0.70116
 C1382 C 0.90302 0.49372 0.71389
 H1383 H 0.91570 0.50083 0.65558
 H1384 H 0.95890 0.51560 0.65710
 H1385 H 0.92861 0.46035 0.64082
 H1386 H 0.93249 0.44752 0.68352
 H1387 H 0.96280 0.50279 0.69980
 H1388 H 0.97579 0.46227 0.68497
 C1389 C 0.94317 0.49295 0.82597
 C1390 C 0.96242 0.50903 0.82752
 C1391 C 0.95595 0.51586 0.84993
 C1392 C 0.93695 0.49983 0.84870
 C1393 C 0.92932 0.51044 0.81706
 C1394 C 0.92287 0.51727 0.83947
 C1395 C 0.94832 0.52645 0.81832
 C1396 C 0.94208 0.53331 0.84098
 C1397 C 0.97069 0.51945 0.86822
 C1398 C 0.98279 0.52284 0.88323
 C1399 C 0.91433 0.50824 0.79883
 C1400 C 0.90181 0.50736 0.78396
 H1401 H 0.94343 0.47633 0.81958
 H1402 H 0.97886 0.50569 0.82282
 H1403 H 0.93245 0.48894 0.86142
 H1404 H 0.90643 0.52061 0.84419
 H1405 H 0.95284 0.53736 0.80561
 H1406 H 0.94178 0.54994 0.84734
 C1407 C 0.42702 -0.00120 0.33828
 C1408 C 0.45117 -0.00548 0.33822
 C1409 C 0.45570 0.01590 0.35023
 C1410 C 0.43182 0.02021 0.35058
 C1411 C 0.42913 0.01033 0.31733
 C1412 C 0.43369 0.03169 0.32937
 C1413 C 0.45300 0.00602 0.31695
 C1414 C 0.45777 0.02742 0.32927
 C1415 C 0.47042 0.01957 0.36852
 C1416 C 0.48253 0.02302 0.38351
 C1417 C 0.41416 0.00808 0.29908
 C1418 C 0.40166 0.00715 0.28420
 H1419 H 0.41422 -0.01301 0.34176
 H1420 H 0.45853 -0.02072 0.34209
 H1421 H 0.42328 0.02610 0.36460
 H1422 H 0.42635 0.04695 0.32553
 H1423 H 0.46153 0.00014 0.30292
 H1424 H 0.47057 0.03924 0.32577
   
