data_POSCAR
  _audit_creation_date              2014-09-24
  _audit_creation_method            'ToBaCCo'
  _symmetry_space_group_name_H-M    'P1'
  _symmetry_Int_Tables_number       1
  _symmetry_cell_setting            triclinic
  loop_
  _symmetry_equiv_pos_as_xyz
 x,y,z
_cell_length_a 47.8162
_cell_length_b 47.8803
_cell_length_c 47.0717
_cell_angle_alpha 89.808800
_cell_angle_beta 89.636400
_cell_angle_gamma 89.671600
loop_
  _atom_site_label
  _atom_site_type_symbol
  _atom_site_fract_x
  _atom_site_fract_y
  _atom_site_fract_z
C1 C 0.37845 1.36262 0.33517
 N2 N 0.35557 1.37907 0.33959
 C3 C 0.33663 1.37265 0.36014
 N4 N 0.34084 1.34948 0.37661
 C5 C 0.36378 1.33302 0.37238
 N6 N 0.38225 1.33964 0.35146
 C7 C 0.36225 0.85515 0.83208
 N8 N 0.34022 0.87180 0.83927
 C9 C 0.32352 0.86516 0.86170
 N10 N 0.32904 0.84159 0.87700
 C11 C 0.35096 0.82483 0.86993
 N12 N 0.36740 0.83166 0.84733
 C13 C 0.83716 1.35248 0.81383
 N14 N 0.85273 1.32862 0.81456
 C15 C 0.85011 1.31024 0.83628
 N16 N 0.83106 1.31522 0.85723
 C17 C 0.81502 1.33872 0.85673
 N18 N 0.81842 1.35751 0.83509
 C19 C 0.86331 0.85622 0.32947
 N20 N 0.84027 0.87155 0.33627
 C21 C 0.82422 0.86475 0.35898
 N22 N 0.83112 0.84215 0.37510
 C23 C 0.85416 0.82663 0.36864
 N24 N 0.87017 0.83372 0.34571
 C25 C 0.64081 0.65803 0.31964
 N26 N 0.63459 0.67792 0.33906
 C27 C 0.65087 0.68140 0.36233
 N28 N 0.67387 0.66492 0.36585
 C29 C 0.68037 0.64486 0.34635
 N30 N 0.66380 0.64160 0.32331
 C31 C 0.62785 0.13810 0.83489
 N32 N 0.62348 0.15982 0.85285
 C33 C 0.64011 0.16330 0.87596
 N34 N 0.66140 0.14495 0.88081
 C35 C 0.66598 0.12316 0.86277
 N36 N 0.64922 0.12002 0.84001
 C37 C 1.13299 0.64485 0.82770
 N38 N 1.15583 0.62838 0.83200
 C39 C 1.17353 0.63346 0.85367
 N40 N 1.16861 0.65559 0.87106
 C41 C 1.14594 0.67232 0.86709
 N42 N 1.12813 0.66692 0.84526
 C43 C 1.15594 0.14424 0.31079
 N44 N 1.18075 0.13343 0.31898
 C45 C 1.19169 0.13950 0.34447
 N46 N 1.17812 0.15769 0.36185
 C47 C 1.15381 0.16997 0.35359
 N48 N 1.14224 0.16286 0.32805
 C49 C 0.64321 1.34642 0.68016
 N50 N 0.64018 1.32327 0.66389
 C51 C 0.65787 1.31822 0.64180
 N52 N 0.67874 1.33624 0.63611
 C53 C 0.68210 1.35971 0.65180
 N54 N 0.66425 1.36479 0.67396
 C55 C 0.64556 0.86662 1.17532
 N56 N 0.66781 0.87095 1.15774
 C57 C 0.66995 0.85686 1.13272
 N58 N 0.64991 0.83841 1.12553
 C59 C 0.62792 0.83350 1.14315
 N60 N 0.62584 0.84758 1.16803
 C61 C 1.14691 1.34533 1.16363
 N62 N 1.17241 1.35689 1.15740
 C63 C 1.18890 1.34522 1.13668
 N64 N 1.17990 1.32238 1.12271
 C65 C 1.15458 1.31140 1.12819
 N66 N 1.13812 1.32286 1.14865
 C67 C 1.14186 0.84457 0.66842
 N68 N 1.16645 0.85761 0.66145
 C69 C 1.18378 0.84595 0.64144
 N70 N 1.17657 0.82162 0.62907
 C71 C 1.15212 0.80914 0.63524
 N72 N 1.13470 0.82067 0.65485
 C73 C 0.34287 0.64165 0.68030
 N74 N 0.32156 0.63686 0.66224
 C75 C 0.31637 0.65444 0.64016
 N76 N 0.33260 0.67741 0.63659
 C77 C 0.35412 0.68256 0.65469
 N78 N 0.35920 0.66456 0.67649
 C79 C 0.34356 0.14340 1.18062
 N80 N 0.35880 0.16690 1.17670
 C81 C 0.35302 0.18486 1.15529
 N82 N 0.33123 0.17952 1.13761
 C83 C 0.31534 0.15621 1.14146
 N84 N 0.32171 0.13818 1.16307
 C85 C 0.87000 0.64255 1.16756
 N86 N 0.84802 0.62498 1.16347
 C87 C 0.82954 0.62995 1.14211
 N88 N 0.83330 0.65249 1.12478
 C89 C 0.85528 0.66979 1.12860
 N90 N 0.87325 0.66485 1.15021
 C91 C 0.85062 0.16221 0.68912
 N92 N 0.85956 0.18801 0.68189
 C93 C 0.85200 0.19995 0.65722
 N94 N 0.83406 0.18659 0.63987
 C95 C 0.82336 0.16133 0.64722
 N96 N 0.83223 0.14855 0.67179
 C97 C 1.34718 0.36084 0.67823
 N98 N 1.32542 0.36384 0.65995
 C99 C 1.32268 0.34606 0.63753
 N100 N 1.34187 0.32535 0.63355
 C101 C 1.36364 0.32220 0.65181
 N102 N 1.36592 0.33980 0.67403
 C103 C 1.34476 0.86588 1.17954
 N104 N 1.32140 0.86909 1.16364
 C105 C 1.31650 0.85200 1.14121
 N106 N 1.33514 0.83135 1.13497
 C107 C 1.35855 0.82764 1.15100
 N108 N 1.36320 0.84503 1.17321
 C109 C 0.85162 0.36797 1.17154
 N110 N 0.86974 0.34675 1.16515
 C111 C 0.86370 0.32842 1.14411
 N112 N 0.83946 0.33134 1.12951
 C113 C 0.82150 0.35244 1.13548
 N114 N 0.82754 0.37062 1.15664
 C115 C 0.86941 0.84947 0.67015
 N116 N 0.87368 0.82719 0.65300
 C117 C 0.85597 0.82186 0.63125
 N118 N 0.83351 0.83883 0.62705
 C119 C 0.82893 0.86126 0.64424
 N120 N 0.84691 0.86642 0.66578
 C121 C 0.63406 0.64235 0.67434
 N122 N 0.62797 0.66514 0.65839
 C123 C 0.64423 0.67216 0.63571
 N124 N 0.66700 0.65617 0.62919
 C125 C 0.67335 0.63322 0.64518
 N126 N 0.65684 0.62651 0.66772
 C127 C 0.63544 1.12377 1.16636
 N128 N 0.62950 1.14950 1.15501
 C129 C 0.63995 1.15655 1.12879
 N130 N 0.65666 1.13809 1.11476
 C131 C 0.66262 1.11268 1.12609
 N132 N 0.65178 1.10567 1.15162
 C133 C 0.14928 0.63244 1.15536
 N134 N 0.16623 0.62057 1.13542
 C135 C 0.17348 0.63471 1.11151
 N136 N 0.16379 0.66081 1.10755
 C137 C 0.14662 0.67318 1.12668
 N138 N 0.13924 0.65909 1.15100
 C139 C 0.13027 1.14113 0.66628
 N140 N 0.12443 1.16375 0.64965
 C141 C 0.14266 1.17162 0.62869
 N142 N 0.16663 1.15688 0.62482
 C143 C 0.17251 1.13426 0.64119
 N144 N 0.15430 1.12648 0.66180
 C145 C 1.35834 0.64271 0.33654
 N146 N 1.37338 0.66623 0.34156
 C147 C 1.36638 0.68345 0.36334
 N148 N 1.34404 0.67716 0.38014
 C149 C 1.32906 0.65369 0.37551
 N150 N 1.33622 0.63660 0.35360
 C151 C 1.35401 1.14103 0.83472
 N152 N 1.36977 1.16388 0.84034
 C153 C 1.36329 1.18095 0.86236
 N154 N 1.34062 1.17506 0.87899
 C155 C 1.32476 1.15222 0.87368
 N156 N 1.33154 1.13535 0.85145
 C157 C 0.86586 0.63972 0.82801
 N158 N 0.87069 0.66203 0.84487
 C159 C 0.85368 0.66759 0.86748
 N160 N 0.83154 0.65060 0.87298
 C161 C 0.82652 0.62820 0.85598
 N162 N 0.84360 0.62306 0.83354
 C163 C 0.85563 1.15882 0.31520
 N164 N 0.86376 1.17903 0.33334
 C165 C 0.84895 1.18442 0.35751
 N166 N 0.82585 1.16886 0.36366
 C167 C 0.81754 1.14850 0.34539
 N168 N 0.83228 1.14391 0.32122
 C169 C 0.64329 0.34752 0.32301
 N170 N 0.66580 0.36437 0.32589
 C171 C 0.68439 0.36008 0.34699
 N172 N 0.68079 0.33828 0.36527
 C173 C 0.65852 0.32097 0.36251
 N174 N 0.63977 0.32576 0.34125
 C175 C 0.62626 0.85482 0.82752
 N176 N 0.64847 0.87176 0.83240
 C177 C 0.66658 0.86583 0.85372
 N178 N 0.66246 0.84271 0.87008
 C179 C 0.64037 0.82575 0.86533
 N180 N 0.62248 0.83182 0.84386
 C181 C 0.13482 0.34571 0.82375
 N182 N 0.15588 0.36365 0.83000
 C183 C 0.17352 0.35826 0.85192
 N184 N 0.16986 0.33468 0.86786
 C185 C 0.14880 0.31664 0.86185
 N186 N 0.13158 0.32233 0.83965
 C187 C 0.14333 0.87318 0.32989
 N188 N 0.16558 0.87812 0.34684
 C189 C 0.17255 0.85991 0.36793
 N190 N 0.15723 0.83630 0.37170
 C191 C 0.13492 0.83106 0.35469
 N192 N 0.12814 0.84955 0.33395
 O193 O 1.08974 1.03326 1.14374
 O194 O 1.12098 1.03392 1.17795
 C195 C 1.09870 1.04346 1.16684
 C196 C 1.08298 1.06691 1.18029
 C197 C 1.09141 1.07899 1.20617
 H198 H 1.10952 1.07076 1.21713
 O199 O 0.88788 0.97599 1.13339
 O200 O 0.85289 0.97770 1.16416
 C201 C 0.87658 0.96811 1.15655
 C202 C 0.89089 0.94694 1.17424
 C203 C 0.88062 0.93990 1.20131
 H204 H 0.86245 0.95078 1.20973
 O205 O 1.01700 1.13842 1.09552
 O206 O 1.01532 1.17227 1.12721
 C207 C 1.02579 1.16153 1.10478
 C208 C 1.04848 1.17605 1.08944
 C209 C 1.05561 1.20325 1.09712
 H210 H 1.04417 1.21373 1.11398
 O211 O 0.96546 0.86409 1.10588
 O212 O 0.96353 0.83344 1.14096
 C213 C 0.95629 0.84142 1.11629
 C214 C 0.93730 0.82401 1.09941
 C215 C 0.93204 0.79635 1.10743
 H216 H 0.94212 0.78770 1.12609
 O217 O 1.13543 1.10150 1.02866
 O218 O 1.16694 1.13490 1.02853
 C219 C 1.15725 1.11242 1.03912
 C220 C 1.17071 1.09866 1.06413
 C221 C 1.19666 1.10758 1.07524
 H222 H 1.20762 1.12469 1.06515
 O223 O 0.86021 0.89071 1.02419
 O224 O 0.82936 0.85665 1.02561
 C225 C 0.83803 0.88012 1.03448
 C226 C 0.82285 0.89523 1.05740
 C227 C 0.80004 0.88300 1.07191
 H228 H 0.79262 0.86253 1.06589
 O229 O 0.96003 1.10331 1.13285
 O230 O 0.95768 1.13685 1.16480
 C231 C 0.94867 1.11402 1.15467
 C232 C 0.92427 1.09998 1.16764
 C233 C 0.91163 1.11028 1.19259
 H234 H 0.92046 1.12837 1.20274
 O235 O 1.01606 0.90556 1.14562
 O236 O 1.01373 0.87523 1.18092
 C237 C 1.02385 0.89730 1.16995
 C238 C 1.04551 0.91289 1.18539
 C239 C 1.05326 0.90438 1.21266
 H240 H 1.04229 0.88722 1.22276
 O241 O 1.12685 0.97603 1.10694
 O242 O 1.15825 0.97632 1.14101
 C243 C 1.14877 0.96591 1.11813
 C244 C 1.16315 0.94137 1.10509
 C245 C 1.18863 0.93216 1.11630
 H246 H 1.19796 0.94373 1.13355
 O247 O 0.85134 1.02614 1.08762
 O248 O 0.81589 1.02754 1.11781
 C249 C 0.82768 1.03592 1.09513
 C250 C 0.81463 1.05825 1.07789
 C251 C 0.78662 1.06648 1.08231
 H252 H 0.77422 1.05561 1.09806
 O253 O 0.89765 1.14203 1.01590
 O254 O 0.86496 1.17462 1.01307
 C255 C 0.88718 1.16514 1.02405
 C256 C 0.90055 1.18070 1.04714
 C257 C 0.89110 1.20744 1.05468
 H258 H 0.87456 1.21726 1.04251
 O259 O 1.09162 0.85471 1.03761
 O260 O 1.12422 0.82211 1.03996
 C261 C 1.10135 0.83252 1.04889
 C262 C 1.08634 0.81987 1.07352
 C263 C 1.09479 0.79427 1.08586
 H264 H 1.11163 0.78259 1.07600
 O265 O 0.88741 1.02988 1.12817
 O266 O 0.85208 1.03132 1.15852
 C267 C 0.87546 1.04051 1.14977
 C268 C 0.88851 1.06402 1.16480
 C269 C 0.87625 1.07441 1.18970
 H270 H 0.85758 1.06460 1.19816
 O271 O 1.08939 0.97889 1.14685
 O272 O 1.12070 0.97940 1.18103
 C273 C 1.09818 0.97002 1.17072
 C274 C 1.08234 0.94799 1.18599
 C275 C 1.09028 0.93873 1.21330
 H276 H 1.10764 0.94856 1.22386
 O277 O 1.01909 0.86341 1.11132
 O278 O 1.01689 0.83315 1.14672
 C279 C 1.02771 0.84125 1.12346
 C280 C 1.05052 0.82478 1.11036
 C281 C 1.05898 0.79927 1.12231
 H282 H 1.04842 0.79139 1.14111
 O283 O 0.96324 1.14288 1.09536
 O284 O 0.96153 1.17641 1.12738
 C285 C 0.95372 1.16627 1.10396
 C286 C 0.93293 1.18130 1.08666
 C287 C 0.92330 1.20812 1.09420
 H288 H 0.93214 1.21822 1.11252
 O289 O 0.86130 1.10214 1.01586
 O290 O 0.82847 1.13464 1.01310
 C291 C 0.83764 1.11178 1.02332
 C292 C 0.82021 1.09599 1.04352
 C293 C 0.79232 1.10379 1.04791
 H294 H 0.78374 1.12149 1.03640
 O295 O 1.12812 0.89452 1.03792
 O296 O 1.16111 0.86229 1.04050
 C297 C 1.15060 0.88540 1.04892
 C298 C 1.16425 0.90179 1.07193
 C299 C 1.18991 0.89296 1.08381
 H300 H 1.19989 0.87418 1.07592
 O301 O 0.96165 0.90372 1.14334
 O302 O 0.95938 0.87334 1.17859
 C303 C 0.95060 0.89536 1.16644
 C304 C 0.92704 0.91120 1.17901
 C305 C 0.91664 0.90443 1.20612
 H306 H 0.92693 0.88809 1.21803
 O307 O 1.01439 1.10405 1.13781
 O308 O 1.01220 1.13749 1.16988
 C309 C 1.02239 1.11457 1.16112
 C310 C 1.04466 1.10079 1.17763
 C311 C 1.05270 1.11188 1.20379
 H312 H 1.04137 1.12951 1.21269
 O313 O 0.85441 0.97129 1.09102
 O314 O 0.81956 0.97295 1.12189
 C315 C 0.83177 0.96143 1.10092
 C316 C 0.82010 0.93536 1.08937
 C317 C 0.79790 0.92261 1.10373
 H318 H 0.78856 0.93263 1.12215
 O319 O 1.12964 1.03107 1.10605
 O320 O 1.16108 1.03127 1.14008
 C321 C 1.15220 1.04044 1.11641
 C322 C 1.16795 1.06278 1.10134
 C323 C 1.19378 1.07164 1.11170
 H324 H 1.20254 1.06126 1.13015
 O325 O 0.90002 0.85424 1.02475
 O326 O 0.86950 0.81986 1.02508
 C327 C 0.89128 0.83128 1.03489
 C328 C 0.90600 0.81857 1.05917
 C329 C 0.90068 0.79092 1.06759
 H330 H 0.88675 0.77822 1.05511
 O331 O 1.09496 1.13738 1.02367
 O332 O 1.12598 1.17126 1.02342
 C333 C 1.10311 1.16097 1.03247
 C334 C 1.08616 1.17604 1.05405
 C335 C 1.09317 1.20328 1.06230
 H336 H 1.11033 1.21383 1.05180
 Cu337 Cu 1.10578 1.00485 1.12254
 Cu338 Cu 1.14355 1.00528 1.16323
 Cu339 Cu 0.87370 1.00075 1.10679
 Cu340 Cu 0.83139 1.00262 1.14348
 Cu341 Cu 0.98868 1.11870 1.11231
 Cu342 Cu 0.98670 1.15898 1.15070
 Cu343 Cu 0.99072 0.88736 1.12305
 Cu344 Cu 0.98802 0.85087 1.16549
 C345 C 1.05954 1.07808 1.16630
 H346 H 1.05329 1.06963 1.14600
 C347 C 1.07621 1.10164 1.21792
 C348 C 0.91423 0.93264 1.16340
 H349 H 0.92199 0.93767 1.14233
 C350 C 0.89327 0.91864 1.21747
 C351 C 1.06363 1.16263 1.06767
 H352 H 1.05833 1.14145 1.06187
 C353 C 1.07806 1.21681 1.08407
 C354 C 0.92448 0.83486 1.07508
 H355 H 0.92832 0.85635 1.06896
 C356 C 0.91378 0.77970 1.09176
 C357 C 1.15675 1.07621 1.07744
 H358 H 1.13668 1.06947 1.06953
 C359 C 1.20841 1.09390 1.09912
 C360 C 0.83249 0.92162 1.06618
 H361 H 0.85017 0.93114 1.05551
 C362 C 0.78787 0.89668 1.09535
 C363 C 0.91265 1.07671 1.15405
 H364 H 0.92201 1.06884 1.13462
 C365 C 0.88754 1.09740 1.20381
 C366 C 1.05984 0.93497 1.17235
 H367 H 1.05403 0.94141 1.15110
 C368 C 1.07570 0.91675 1.22671
 C369 C 1.15117 0.92618 1.08271
 H370 H 1.13130 0.93300 1.07412
 C371 C 1.20224 0.90818 1.10606
 C372 C 0.83111 1.07296 1.05820
 H373 H 0.85281 1.06707 1.05496
 C374 C 0.77528 1.08922 1.06703
 C375 C 0.92168 1.16800 1.06296
 H376 H 0.92870 1.14717 1.05739
 C377 C 0.90221 1.22137 1.07821
 C378 C 1.06411 0.83474 1.08596
 H379 H 1.05768 0.85459 1.07695
 C380 C 1.08112 0.78384 1.11050
 O381 O 1.10548 0.96595 0.86260
 O382 O 1.14083 0.96505 0.83228
 C383 C 1.11721 0.95610 0.84043
 C384 C 1.10365 0.93376 0.82398
 C385 C 1.11644 0.92366 0.79923
 H386 H 1.13582 0.93294 0.79188
 O387 O 0.89372 1.01932 0.85901
 O388 O 0.86118 1.01855 0.82601
 C389 C 0.88403 1.02810 0.83555
 C390 C 0.89906 1.04985 0.81914
 C391 C 0.88865 1.05824 0.79274
 H392 H 0.87031 1.04819 0.78411
 O393 O 0.97240 1.13267 0.88523
 O394 O 0.97388 1.16336 0.85024
 C395 C 0.96399 1.15538 0.87394
 C396 C 0.94218 1.17197 0.88876
 C397 C 0.93473 1.19931 0.88023
 H398 H 0.94509 1.20908 0.86227
 O399 O 1.02888 0.86129 0.89748
 O400 O 1.02989 0.82807 0.86516
 C401 C 1.03816 0.83798 0.88879
 C402 C 1.05857 0.82201 0.90625
 C403 C 1.06545 0.79463 0.89871
 H404 H 1.05559 0.78529 0.88039
 O405 O 1.13118 0.89325 0.98279
 O406 O 1.16392 0.86073 0.98513
 C407 C 1.15458 0.88341 0.97461
 C408 C 1.17106 0.89803 0.95233
 C409 C 1.19789 0.88830 0.94538
 H410 H 1.20659 0.87071 0.95695
 O411 O 0.86211 1.10080 0.96164
 O412 O 0.82963 1.13370 0.95918
 C413 C 0.83911 1.10999 0.95190
 C414 C 0.82236 1.09256 0.93297
 C415 C 0.79384 1.09807 0.93021
 H416 H 0.78450 1.11539 0.94174
 O417 O 1.02599 1.08916 0.85072
 O418 O 1.02729 1.11917 0.81515
 C419 C 1.03658 1.09733 0.82733
 C420 C 1.06092 1.08209 0.81508
 C421 C 1.07149 1.08917 0.78807
 H422 H 1.06041 1.10454 0.77556
 O423 O 0.97593 0.89841 0.85538
 O424 O 0.97687 0.86591 0.82234
 C425 C 0.96664 0.88845 0.83237
 C426 C 0.94299 0.90294 0.81809
 C427 C 0.93554 0.89686 0.78983
 H428 H 0.94772 0.88189 0.77771
 O429 O 1.14104 1.02149 0.90259
 O430 O 1.17602 1.01985 0.87189
 C431 C 1.16463 1.03032 0.89380
 C432 C 1.17878 1.05345 0.90862
 C433 C 1.20563 1.06174 0.90013
 H434 H 1.21636 1.05034 0.88342
 O435 O 0.85467 0.96498 0.89753
 O436 O 0.82231 0.96395 0.86440
 C437 C 0.83224 0.95485 0.88759
 C438 C 0.81835 0.93174 0.90304
 C439 C 0.79102 0.92298 0.89643
 H440 H 0.77940 0.93394 0.88017
 O441 O 1.09845 1.13379 0.96822
 O442 O 1.12946 1.16766 0.96751
 C443 C 1.10786 1.15611 0.95715
 C444 C 1.09382 1.16830 0.93165
 C445 C 1.10259 1.19413 0.92024
 H446 H 1.11910 1.20544 0.93064
 O447 O 0.90043 0.85390 0.96904
 O448 O 0.86946 0.81997 0.96909
 C449 C 0.89164 0.83095 0.95913
 C450 C 0.90716 0.81751 0.93532
 C451 C 0.89974 0.79082 0.92539
 H452 H 0.88308 0.77960 0.93596
 O453 O 0.89536 0.96558 0.86076
 O454 O 0.86337 0.96477 0.82720
 C455 C 0.88662 0.95635 0.83725
 C456 C 0.90380 0.93599 0.82113
 C457 C 0.89724 0.93023 0.79291
 H458 H 0.87965 0.94080 0.78307
 O459 O 1.10382 1.02010 0.86237
 O460 O 1.13864 1.01893 0.83145
 C461 C 1.11487 1.02840 0.83928
 C462 C 1.09978 1.04918 0.82143
 C463 C 1.11002 1.05661 0.79444
 H464 H 1.12907 1.04692 0.78655
 O465 O 0.97478 0.85887 0.89338
 O466 O 0.97591 0.82634 0.86033
 C467 C 0.96579 0.83599 0.88333
 C468 C 0.94331 0.82040 0.89834
 C469 C 0.93567 0.79378 0.88893
 H470 H 0.94661 0.78463 0.87097
 O471 O 1.02629 1.12729 0.88927
 O472 O 1.02801 1.15796 0.85427
 C473 C 1.03673 1.14914 0.87829
 C474 C 1.05928 1.16450 0.89334
 C475 C 1.06844 1.19021 0.88260
 H476 H 1.05871 1.19871 0.86369
 O477 O 0.86046 0.89047 0.96947
 O478 O 0.82903 0.85691 0.97044
 C479 C 0.83777 0.88007 0.96072
 C480 C 0.82151 0.89507 0.93894
 C481 C 0.79436 0.88673 0.93243
 H482 H 0.78520 0.86930 0.94385
 O483 O 1.13857 1.09784 0.97357
 O484 O 1.17007 1.13128 0.97286
 C485 C 1.16149 1.10770 0.96432
 C486 C 1.17753 1.09167 0.94279
 C487 C 1.20441 1.09999 0.93376
 H488 H 1.21404 1.11789 0.94355
 O489 O 1.03116 0.89543 0.85458
 O490 O 1.03246 0.86278 0.82174
 C491 C 1.04202 0.88518 0.83206
 C492 C 1.06677 0.89910 0.81896
 C493 C 1.07997 0.88911 0.79383
 H494 H 1.07137 0.87134 0.78282
 O495 O 0.97047 1.09016 0.85109
 O496 O 0.97142 1.12076 0.81606
 C497 C 0.96067 1.09928 0.82778
 C498 C 0.93601 1.08503 0.81498
 C499 C 0.92428 1.09396 0.78892
 H500 H 0.93354 1.11119 0.77733
 O501 O 0.85438 1.01972 0.89695
 O502 O 0.82158 1.01883 0.86422
 C503 C 0.83161 1.02906 0.88681
 C504 C 0.81776 1.05279 0.90127
 C505 C 0.78905 1.05904 0.89793
 H506 H 0.77616 1.04604 0.88461
 O507 O 1.13905 0.96671 0.90585
 O508 O 1.17425 0.96522 0.87540
 C509 C 1.16233 0.95639 0.89796
 C510 C 1.17518 0.93343 0.91488
 C511 C 1.20208 0.92311 0.90814
 H512 H 1.21374 0.93279 0.89106
 O513 O 1.09346 0.85469 0.98122
 O514 O 1.12588 0.82188 0.98320
 C515 C 1.10398 0.83208 0.97177
 C516 C 1.09081 0.81845 0.94663
 C517 C 1.09803 0.79102 0.93799
 H518 H 1.11305 0.77895 0.95009
 O519 O 0.90127 1.13826 0.96067
 O520 O 0.86871 1.17102 0.95820
 C521 C 0.89179 1.16061 0.94982
 C522 C 0.90748 1.17437 0.92685
 C523 C 0.90103 1.20175 0.91895
 H524 H 0.88513 1.21330 0.93061
 Cu525 Cu 1.11895 0.99372 0.88654
 Cu526 Cu 1.16102 0.99228 0.84986
 Cu527 Cu 0.87746 0.99243 0.88222
 Cu528 Cu 0.83881 0.99133 0.84215
 Cu529 Cu 1.11382 1.11431 0.99864
 Cu530 Cu 1.15114 1.15476 0.99804
 Cu531 Cu 1.10760 0.87721 1.00970
 Cu532 Cu 1.14692 0.83842 1.01238
 Cu533 Cu 0.88421 1.11772 0.98873
 Cu534 Cu 0.84478 1.15699 0.98560
 Cu535 Cu 0.88354 0.87557 0.99677
 Cu536 Cu 0.84632 0.83478 0.99750
 Cu537 Cu 0.99837 1.10662 0.87232
 Cu538 Cu 1.00052 1.14310 0.83027
 Cu539 Cu 1.00254 0.88199 0.87813
 Cu540 Cu 1.00404 0.84265 0.83907
 C541 C 1.07873 0.92168 0.83345
 H542 H 1.06915 0.92933 0.85285
 C543 C 1.10501 0.90154 0.78387
 C544 C 0.92298 1.06297 0.82991
 H545 H 0.93109 1.05637 0.85030
 C546 C 0.90057 1.08039 0.77778
 C547 C 0.92831 1.15980 0.91204
 H548 H 0.93325 1.13856 0.91831
 C549 C 0.91432 1.21429 0.89573
 C550 C 1.07103 0.83366 0.93045
 H551 H 1.06562 0.85484 0.93644
 C552 C 1.08498 0.77898 0.91414
 C553 C 1.15992 0.92080 0.93717
 H554 H 1.13904 0.92822 0.94225
 C555 C 1.21355 0.90040 0.92336
 C556 C 0.83413 1.06975 0.91885
 H557 H 0.85626 1.06544 0.92128
 C558 C 0.77701 1.08160 0.91299
 C559 C 1.07507 1.06190 0.83144
 H560 H 1.06724 1.05664 0.85241
 C561 C 1.09618 1.07660 0.77758
 C562 C 0.92695 0.92261 0.83348
 H563 H 0.93212 0.92711 0.85536
 C564 C 0.91274 0.91082 0.77714
 C565 C 1.16506 1.06829 0.93017
 H566 H 1.14419 1.06208 0.93653
 C567 C 1.21861 1.08498 0.91229
 C568 C 0.83323 0.91770 0.92439
 H569 H 0.85437 0.92402 0.92931
 C570 C 0.77885 0.90041 0.91133
 C571 C 1.07201 1.15373 0.91805
 H572 H 1.06522 1.13378 0.92643
 C573 C 1.08991 1.20524 0.89569
 C574 C 0.92908 0.83201 0.92169
 H575 H 0.93475 0.85266 0.92892
 C576 C 0.91400 0.77878 0.90211
 O577 O 1.10226 0.52053 0.63679
 O578 O 1.13528 0.51876 0.66929
 C579 C 1.11237 0.52880 0.66020
 C580 C 1.09746 0.55042 0.67691
 C581 C 1.10739 0.55870 0.70352
 H582 H 1.12592 0.54873 0.71210
 O583 O 0.89170 0.46858 0.63285
 O584 O 0.85747 0.46748 0.66447
 C585 C 0.88079 0.45823 0.65521
 C586 C 0.89546 0.43488 0.66990
 C587 C 0.88340 0.42106 0.69355
 H588 H 0.86320 0.42771 0.70162
 O589 O 1.02613 0.62621 0.60397
 O590 O 1.02568 0.65827 0.63755
 C591 C 1.03505 0.64898 0.61401
 C592 C 1.05643 0.66505 0.59829
 C593 C 1.06218 0.69241 0.60659
 H594 H 1.05067 0.70173 0.62412
 O595 O 0.97375 0.36199 0.59683
 O596 O 0.97191 0.32834 0.62893
 C597 C 0.96400 0.33882 0.60545
 C598 C 0.94320 0.32419 0.58788
 C599 C 0.93299 0.29784 0.59595
 H600 H 0.94050 0.28782 0.61513
 O601 O 1.14152 0.59773 0.52664
 O602 O 1.17310 0.63100 0.52920
 C603 C 1.16371 0.60760 0.53738
 C604 C 1.17823 0.59177 0.55997
 C605 C 1.20391 0.60091 0.57111
 H606 H 1.21365 0.61939 0.56239
 O607 O 0.86510 0.39768 0.51752
 O608 O 0.83419 0.36371 0.51581
 C609 C 0.84256 0.38650 0.52643
 C610 C 0.82605 0.39998 0.54950
 C611 C 0.80096 0.38810 0.55932
 H612 H 0.79338 0.36917 0.54952
 O613 O 0.97108 0.58896 0.64276
 O614 O 0.97068 0.62051 0.67678
 C615 C 0.96097 0.59841 0.66582
 C616 C 0.93700 0.58387 0.67915
 C617 C 0.92779 0.59037 0.70681
 H618 H 0.93922 0.60545 0.71917
 O619 O 1.02586 0.39777 0.63977
 O620 O 1.02472 0.36453 0.67225
 C621 C 1.03484 0.38720 0.66283
 C622 C 1.05804 0.40136 0.67764
 C623 C 1.06675 0.39390 0.70533
 H624 H 1.05580 0.37774 0.71698
 O625 O 1.13842 0.46605 0.59509
 O626 O 1.17136 0.46475 0.62765
 C627 C 1.16113 0.45591 0.60453
 C628 C 1.17594 0.43338 0.58897
 C629 C 1.20323 0.42635 0.59672
 H630 H 1.21349 0.43819 0.61322
 O631 O 0.85642 0.52528 0.59411
 O632 O 0.82193 0.52514 0.62538
 C633 C 0.83349 0.53543 0.60331
 C634 C 0.82098 0.55996 0.58838
 C635 C 0.79437 0.57071 0.59590
 H636 H 0.78225 0.56034 0.61224
 O637 O 0.90530 0.63866 0.52464
 O638 O 0.87431 0.67295 0.52485
 C639 C 0.89603 0.66139 0.53502
 C640 C 0.91025 0.67381 0.55975
 C641 C 0.90355 0.70096 0.56915
 H642 H 0.88861 0.71343 0.55739
 O643 O 1.09866 0.35481 0.51955
 O644 O 1.13085 0.32170 0.52025
 C645 C 1.10808 0.33211 0.52978
 C646 C 1.09260 0.31872 0.55369
 C647 C 1.09867 0.29125 0.56301
 H648 H 1.11449 0.27903 0.55209
 O649 O 0.89340 0.52230 0.63390
 O650 O 0.85945 0.52161 0.66583
 C651 C 0.88304 0.53055 0.65728
 C652 C 0.89866 0.55079 0.67455
 C653 C 0.88989 0.55722 0.70217
 H654 H 0.87163 0.54697 0.71104
 O655 O 1.10131 0.46662 0.63573
 O656 O 1.13439 0.46520 0.66820
 C657 C 1.11107 0.45695 0.65881
 C658 C 1.09527 0.43586 0.67498
 C659 C 1.10320 0.42891 0.70260
 H660 H 1.12068 0.43962 0.71220
 O661 O 1.02762 0.36286 0.59772
 O662 O 1.02567 0.32930 0.62988
 C663 C 1.03587 0.33933 0.60704
 C664 C 1.05728 0.32301 0.59133
 C665 C 1.06311 0.29559 0.59976
 H666 H 1.05171 0.28658 0.61750
 O667 O 0.97238 0.62873 0.60505
 O668 O 0.97197 0.66035 0.63905
 C669 C 0.96336 0.65165 0.61522
 C670 C 0.94287 0.66855 0.59912
 C671 C 0.93620 0.69568 0.60799
 H672 H 0.94625 0.70419 0.62661
 O673 O 0.86580 0.60195 0.52233
 O674 O 0.83470 0.63615 0.52253
 C675 C 0.84305 0.61250 0.53155
 C676 C 0.82616 0.59742 0.55319
 C677 C 0.79961 0.60752 0.56073
 H678 H 0.79141 0.62593 0.55013
 O679 O 1.13967 0.39041 0.52069
 O680 O 1.17206 0.35749 0.52135
 C681 C 1.16227 0.38039 0.53081
 C682 C 1.17683 0.39573 0.55387
 C683 C 1.20419 0.38839 0.56275
 H684 H 1.21522 0.37124 0.55266
 O685 O 0.97092 0.40028 0.63551
 O686 O 0.96974 0.36660 0.66752
 C687 C 0.96001 0.38932 0.65749
 C688 C 0.93485 0.40198 0.67093
 C689 C 0.92266 0.38880 0.69442
 H690 H 0.93285 0.37064 0.70360
 O691 O 1.02608 0.58972 0.64433
 O692 O 1.02581 0.62134 0.67828
 C693 C 1.03578 0.59917 0.66747
 C694 C 1.05972 0.58470 0.68098
 C695 C 1.07007 0.59303 0.70762
 H696 H 1.05941 0.60943 0.71922
 O697 O 0.85640 0.47044 0.59175
 O698 O 0.82199 0.46961 0.62313
 C699 C 0.83346 0.46034 0.60060
 C700 C 0.82102 0.43656 0.58528
 C701 C 0.79594 0.42439 0.59482
 H702 H 0.78484 0.43381 0.61242
 O703 O 1.14037 0.52086 0.59733
 O704 O 1.17325 0.51901 0.62995
 C705 C 1.16329 0.52960 0.60743
 C706 C 1.17805 0.55301 0.59361
 C707 C 1.20373 0.56206 0.60420
 H708 H 1.21335 0.55077 0.62163
 O709 O 0.90673 0.36250 0.51562
 O710 O 0.87564 0.32873 0.51353
 C711 C 0.89773 0.33900 0.52395
 C712 C 0.91210 0.32391 0.54696
 C713 C 0.90309 0.29719 0.55463
 H714 H 0.88708 0.28688 0.54235
 O715 O 1.10039 0.63318 0.52695
 O716 O 1.13175 0.66666 0.52955
 C717 C 1.10899 0.65563 0.53804
 C718 C 1.09254 0.66860 0.56140
 C719 C 1.09833 0.69589 0.57049
 H720 H 1.11434 0.70789 0.55971
 Cu721 Cu 1.11733 0.49368 0.61280
 Cu722 Cu 1.15705 0.49166 0.65188
 Cu723 Cu 0.87769 0.49676 0.60983
 Cu724 Cu 0.83653 0.49611 0.64769
 Cu725 Cu 0.99880 0.60488 0.62095
 Cu726 Cu 0.99853 0.64319 0.66146
 Cu727 Cu 0.99976 0.38436 0.61449
 Cu728 Cu 0.99794 0.34401 0.65309
 C729 C 1.07348 0.56331 0.66601
 H730 H 1.06591 0.55711 0.64533
 C731 C 1.09404 0.58000 0.71906
 C732 C 0.92130 0.42520 0.65896
 H733 H 0.93048 0.43515 0.64046
 C734 C 0.89699 0.39775 0.70571
 C735 C 1.07141 0.65333 0.57541
 H736 H 1.06707 0.63210 0.56897
 C737 C 1.08314 0.70780 0.59316
 C738 C 0.93259 0.33709 0.56328
 H739 H 0.93949 0.35785 0.55743
 C740 C 0.91284 0.28445 0.57932
 C741 C 1.16563 0.56774 0.57128
 H742 H 1.14560 0.56095 0.56326
 C743 C 1.21675 0.58604 0.59342
 C744 C 0.83572 0.42435 0.56247
 H745 H 0.85525 0.43339 0.55531
 C746 C 0.78578 0.39997 0.58203
 C747 C 0.92236 0.56398 0.66333
 H748 H 0.92906 0.55920 0.64185
 C749 C 0.90414 0.57697 0.71844
 C750 C 1.07252 0.42238 0.66284
 H751 H 1.06654 0.42786 0.64137
 C752 C 1.08935 0.40805 0.71796
 C753 C 1.16298 0.41829 0.56727
 H754 H 1.14184 0.42381 0.56119
 C755 C 1.21753 0.40404 0.58408
 C756 C 0.83655 0.57350 0.56689
 H757 H 0.85717 0.56578 0.56121
 C758 C 0.78354 0.59460 0.58198
 C759 C 0.93002 0.65787 0.57483
 H760 H 0.93503 0.63684 0.56798
 C761 C 0.91661 0.71202 0.59332
 C762 C 1.07181 0.33432 0.56809
 H763 H 1.06725 0.35556 0.56156
 C764 C 1.08363 0.27956 0.58605
 O765 O 1.10952 0.47593 0.35029
 O766 O 1.14476 0.47635 0.31986
 C767 C 1.12115 0.46697 0.32779
 C768 C 1.10761 0.44468 0.31128
 C769 C 1.11991 0.43495 0.28616
 H770 H 1.13867 0.44497 0.27818
 O771 O 0.90471 0.53054 0.35618
 O772 O 0.87315 0.53159 0.32219
 C773 C 0.89609 0.54005 0.33267
 C774 C 0.91284 0.56087 0.31695
 C775 C 0.90684 0.56590 0.28848
 H776 H 0.89040 0.55415 0.27826
 O777 O 0.98123 0.63835 0.39271
 O778 O 0.98120 0.67164 0.36022
 C779 C 0.97182 0.66143 0.38330
 C780 C 0.94965 0.67666 0.39905
 C781 C 0.94193 0.70363 0.39043
 H782 H 0.95271 0.71332 0.37266
 O783 O 1.03672 0.36513 0.38494
 O784 O 1.03527 0.33414 0.35046
 C785 C 1.04499 0.34227 0.37407
 C786 C 1.06646 0.32511 0.38861
 C787 C 1.07647 0.30060 0.37596
 H788 H 1.06782 0.29396 0.35586
 O789 O 1.13684 0.39518 0.46555
 O790 O 1.16966 0.36266 0.46598
 C791 C 1.16007 0.38586 0.45657
 C792 C 1.17646 0.40188 0.43515
 C793 C 1.20403 0.39380 0.42970
 H794 H 1.21286 0.37636 0.44143
 O795 O 0.86777 0.60352 0.46717
 O796 O 0.83644 0.63752 0.46758
 C797 C 0.84548 0.61449 0.45766
 C798 C 0.82987 0.60049 0.43477
 C799 C 0.80297 0.60965 0.42785
 H800 H 0.79357 0.62668 0.43975
 O801 O 1.03717 0.60173 0.35301
 O802 O 1.03687 0.63534 0.32091
 C803 C 1.04705 0.61266 0.33049
 C804 C 1.07125 0.59963 0.31566
 C805 C 1.08222 0.61223 0.29123
 H806 H 1.07214 0.63077 0.28270
 O807 O 0.98336 0.40800 0.34879
 O808 O 0.98260 0.37704 0.31425
 C809 C 0.97335 0.39938 0.32555
 C810 C 0.95001 0.41453 0.31171
 C811 C 0.94225 0.40688 0.28428
 H812 H 0.95451 0.39131 0.27299
 O813 O 1.14500 0.52772 0.39429
 O814 O 1.18040 0.52804 0.36404
 C815 C 1.16874 0.53685 0.38667
 C816 C 1.18281 0.55827 0.40390
 C817 C 1.21060 0.56528 0.39808
 H818 H 1.22194 0.55430 0.38147
 O819 O 0.86296 0.47685 0.39165
 O820 O 0.83079 0.47781 0.35832
 C821 C 0.84028 0.46779 0.38136
 C822 C 0.82573 0.44492 0.39648
 C823 C 0.79795 0.43722 0.39043
 H824 H 0.78624 0.44830 0.37426
 O825 O 1.10344 0.63661 0.47140
 O826 O 1.13519 0.66970 0.47400
 C827 C 1.11319 0.65985 0.46298
 C828 C 1.09937 0.67548 0.43974
 C829 C 1.10809 0.70253 0.43312
 H830 H 1.12423 0.71210 0.44584
 O831 O 0.90594 0.36398 0.45994
 O832 O 0.87456 0.33048 0.45822
 C833 C 0.89695 0.34150 0.44901
 C834 C 0.91231 0.32819 0.42503
 C835 C 0.90346 0.30227 0.41432
 H836 H 0.88595 0.29196 0.42434
 O837 O 0.90229 0.47678 0.35326
 O838 O 0.87053 0.47752 0.31950
 C839 C 0.89333 0.46798 0.32955
 C840 C 0.90991 0.44660 0.31371
 C841 C 0.90202 0.43783 0.28627
 H842 H 0.88360 0.44673 0.27643
 O843 O 1.11189 0.53032 0.35074
 O844 O 1.14690 0.53131 0.32015
 C845 C 1.12343 0.54085 0.32874
 C846 C 1.10914 0.56485 0.31411
 C847 C 1.11975 0.57782 0.28905
 H848 H 1.13872 0.57000 0.27917
 O849 O 0.98221 0.36671 0.38446
 O850 O 0.98101 0.33576 0.34990
 C851 C 0.97188 0.34482 0.37359
 C852 C 0.94876 0.32992 0.38834
 C853 C 0.93955 0.30409 0.37807
 H854 H 0.94990 0.29488 0.35978
 O855 O 1.03544 0.63979 0.39203
 O856 O 1.03554 0.67357 0.36010
 C857 C 1.04470 0.66311 0.38316
 C858 C 1.06655 0.67747 0.40008
 C859 C 1.07596 0.70472 0.39344
 H860 H 1.06686 0.71588 0.37572
 O861 O 0.86697 0.40186 0.46266
 O862 O 0.83546 0.36839 0.46131
 C863 C 0.84430 0.39206 0.45319
 C864 C 0.82812 0.40822 0.43238
 C865 C 0.80034 0.40143 0.42702
 H866 H 0.79050 0.38463 0.43885
 O867 O 1.14209 0.59860 0.47160
 O868 O 1.17423 0.63136 0.47398
 C869 C 1.16519 0.60877 0.46330
 C870 C 1.18125 0.59404 0.44081
 C871 C 1.20911 0.60119 0.43429
 H872 H 1.21927 0.61751 0.44619
 O873 O 1.03831 0.40326 0.34528
 O874 O 1.03744 0.37227 0.31081
 C875 C 1.04789 0.39399 0.32176
 C876 C 1.07198 0.40847 0.30795
 C877 C 1.08482 0.39867 0.28261
 H878 H 1.07643 0.38047 0.27223
 O879 O 0.98209 0.60166 0.35224
 O880 O 0.98173 0.63454 0.31936
 C881 C 0.97238 0.61161 0.32925
 C882 C 0.94961 0.59627 0.31463
 C883 C 0.94239 0.60181 0.28605
 H884 H 0.95359 0.61752 0.27400
 O885 O 0.86344 0.53148 0.39179
 O886 O 0.83131 0.53293 0.35845
 C887 C 0.84111 0.54200 0.38168
 C888 C 0.82724 0.56536 0.39723
 C889 C 0.80024 0.57531 0.39012
 H890 H 0.78874 0.56551 0.37315
 O891 O 1.14510 0.47308 0.39143
 O892 O 1.18068 0.47327 0.36143
 C893 C 1.16852 0.46308 0.38328
 C894 C 1.18123 0.43914 0.39935
 C895 C 1.20906 0.43015 0.39404
 H896 H 1.22165 0.44101 0.37840
 O897 O 1.10305 0.35331 0.46354
 O898 O 1.13512 0.32013 0.46363
 C899 C 1.11318 0.33088 0.45307
 C900 C 1.09970 0.31857 0.42746
 C901 C 1.10952 0.29369 0.41436
 H902 H 1.12674 0.28217 0.42366
 O903 O 0.90684 0.64082 0.46876
 O904 O 0.87568 0.67493 0.46906
 C905 C 0.89809 0.66419 0.45932
 C906 C 0.91373 0.67845 0.43616
 C907 C 0.90609 0.70552 0.42697
 H908 H 0.88938 0.71650 0.43785
 Cu909 Cu 1.12440 0.50181 0.37462
 Cu910 Cu 1.16674 0.50229 0.33835
 Cu911 Cu 0.88622 0.50362 0.37680
 Cu912 Cu 0.84820 0.50517 0.33625
 Cu913 Cu 1.11868 0.61325 0.49895
 Cu914 Cu 1.15661 0.65315 0.50185
 Cu915 Cu 1.11620 0.37632 0.49252
 Cu916 Cu 1.15504 0.33720 0.49265
 Cu917 Cu 0.88975 0.61800 0.49570
 Cu918 Cu 0.85223 0.65888 0.49601
 Cu919 Cu 0.88941 0.38483 0.48911
 Cu920 Cu 0.85197 0.34430 0.48696
 Cu921 Cu 1.00900 0.61696 0.37558
 Cu922 Cu 1.00871 0.65699 0.33676
 Cu923 Cu 1.01046 0.38900 0.36918
 Cu924 Cu 1.00893 0.35181 0.32785
 C925 C 1.08349 0.43167 0.32171
 H926 H 1.07421 0.43910 0.34135
 C927 C 1.10899 0.41203 0.27156
 C928 C 0.93458 0.57570 0.32983
 H929 H 0.93939 0.57160 0.35192
 C930 C 0.92116 0.58616 0.27293
 C931 C 0.93567 0.66432 0.42212
 H932 H 0.94141 0.64336 0.42867
 C933 C 0.92019 0.71823 0.40397
 C934 C 1.07790 0.33370 0.41444
 H935 H 1.07036 0.35292 0.42393
 C936 C 1.09778 0.28464 0.38841
 C937 C 1.16520 0.42480 0.42013
 H938 H 1.14380 0.43115 0.42430
 C939 C 1.22055 0.40749 0.40947
 C940 C 0.84172 0.57819 0.41962
 H941 H 0.86259 0.57113 0.42501
 C942 C 0.78795 0.59743 0.40574
 C943 C 1.08465 0.57593 0.32677
 H944 H 1.07633 0.56659 0.34600
 C945 C 1.10616 0.60177 0.27763
 C946 C 0.93400 0.43471 0.32621
 H947 H 0.93992 0.44060 0.34753
 C948 C 0.91828 0.41787 0.27152
 C949 C 1.16836 0.57250 0.42549
 H950 H 1.14679 0.56717 0.42995
 C951 C 1.22388 0.58670 0.41288
 C952 C 0.84051 0.43017 0.41745
 H953 H 0.86210 0.43533 0.42177
 C954 C 0.78517 0.41557 0.40613
 C955 C 1.07845 0.66321 0.42335
 H956 H 1.07185 0.64217 0.42844
 C957 C 1.09683 0.71739 0.41016
 C958 C 0.93513 0.34174 0.41203
 H959 H 0.94185 0.36183 0.41991
 C960 C 0.91696 0.29004 0.39075
 O961 O 0.60616 1.02561 0.63776
 O962 O 0.63710 1.02240 0.67222
 C963 C 0.61536 1.03364 0.66162
 C964 C 0.60086 1.05629 0.67729
 C965 C 0.60857 1.06222 0.70523
 H966 H 0.62480 1.04981 0.71525
 O967 O 0.39838 0.98558 0.64661
 O968 O 0.36644 0.98898 0.68048
 C969 C 0.38822 0.97736 0.67008
 C970 C 0.40161 0.95377 0.68513
 C971 C 0.39260 0.94635 0.71243
 H972 H 0.37622 0.95846 0.72270
 O973 O 0.53518 1.14012 0.60324
 O974 O 0.53751 1.17294 0.63595
 C975 C 0.54565 1.16257 0.61251
 C976 C 0.56760 1.17695 0.59618
 C977 C 0.57363 1.20476 0.60222
 H978 H 0.56145 1.21581 0.61818
 O979 O 0.46206 0.86701 0.60826
 O980 O 0.46018 0.83543 0.64239
 C981 C 0.45087 0.84550 0.61918
 C982 C 0.42640 0.83299 0.60467
 C983 C 0.41581 0.80646 0.61222
 H984 H 0.42604 0.79443 0.62868
 O985 O 0.65131 1.10049 0.53220
 O986 O 0.68454 1.13214 0.53207
 C987 C 0.67411 1.10982 0.54218
 C988 C 0.68773 1.09430 0.56606
 C989 C 0.71228 1.10376 0.57969
 H990 H 0.72209 1.12270 0.57220
 O991 O 0.34985 0.91737 0.53653
 O992 O 0.31577 0.88659 0.53698
 C993 C 0.32680 0.90867 0.54669
 C994 C 0.31364 0.92398 0.57080
 C995 C 0.28818 0.91532 0.58313
 H996 H 0.27700 0.89805 0.57384
 O997 O 0.47969 1.10613 0.64474
 O998 O 0.48266 1.13883 0.67746
 C999 C 0.47153 1.11676 0.66805
 C1000 C 0.44834 1.10386 0.68406
 C1001 C 0.44064 1.11415 0.71080
 H1002 H 0.45264 1.13087 0.72016
 O1003 O 0.51988 0.90302 0.64302
 O1004 O 0.51864 0.87234 0.67805
 C1005 C 0.52934 0.89390 0.66640
 C1006 C 0.55317 0.90853 0.67979
 C1007 C 0.56041 0.90309 0.70826
 H1008 H 0.54832 0.88835 0.72069
 O1009 O 0.64335 0.96888 0.60074
 O1010 O 0.67470 0.96593 0.63478
 C1011 C 0.66490 0.95735 0.61142
 C1012 C 0.67765 0.93304 0.59678
 C1013 C 0.70478 0.92313 0.60323
 H1014 H 0.71723 0.93408 0.61868
 O1015 O 0.36451 1.04245 0.60801
 O1016 O 0.33203 1.04633 0.64127
 C1017 C 0.34271 1.05424 0.61778
 C1018 C 0.33016 1.07756 0.60160
 C1019 C 0.30427 1.08925 0.60965
 H1020 H 0.29339 1.08098 0.62801
 O1021 O 0.41333 1.14690 0.52837
 O1022 O 0.38253 1.18138 0.52696
 C1023 C 0.40465 1.17048 0.53699
 C1024 C 0.41969 1.18510 0.55961
 C1025 C 0.41238 1.21249 0.56639
 H1026 H 0.39676 1.22333 0.55382
 O1027 O 0.59108 0.85619 0.53451
 O1028 O 0.62172 0.82160 0.53452
 C1029 C 0.59964 0.83300 0.54440
 C1030 C 0.58399 0.81962 0.56803
 C1031 C 0.59201 0.79330 0.57871
 H1032 H 0.60916 0.78234 0.56859
 O1033 O 0.40078 1.03970 0.64847
 O1034 O 0.36861 1.04334 0.68206
 C1035 C 0.39204 1.05037 0.67163
 C1036 C 0.40916 1.07164 0.68598
 C1037 C 0.40148 1.08232 0.71279
 H1038 H 0.38320 1.07407 0.72339
 O1039 O 0.60161 0.97162 0.63648
 O1040 O 0.63286 0.96884 0.67065
 C1041 C 0.60954 0.96168 0.66016
 C1042 C 0.59174 0.94188 0.67631
 C1043 C 0.59797 0.93665 0.70482
 H1044 H 0.61523 0.94744 0.71472
 O1045 O 0.51663 0.86189 0.60792
 O1046 O 0.51518 0.83069 0.64243
 C1047 C 0.52507 0.83903 0.61881
 C1048 C 0.54728 0.82257 0.60427
 C1049 C 0.55557 0.79630 0.61469
 H1050 H 0.54482 0.78748 0.63294
 O1051 O 0.48139 1.14468 0.60610
 O1052 O 0.48360 1.17766 0.63857
 C1053 C 0.47344 1.16823 0.61566
 C1054 C 0.45214 1.18416 0.59942
 C1055 C 0.44363 1.21153 0.60683
 H1056 H 0.45260 1.22172 0.62511
 O1057 O 0.37187 1.11262 0.53024
 O1058 O 0.34117 1.14719 0.52893
 C1059 C 0.34970 1.12431 0.53949
 C1060 C 0.33380 1.11156 0.56308
 C1061 C 0.30798 1.12292 0.57130
 H1062 H 0.29938 1.14054 0.55969
 O1063 O 0.63246 0.89119 0.53296
 O1064 O 0.66315 0.85659 0.53284
 C1065 C 0.65505 0.88025 0.54185
 C1066 C 0.67219 0.89523 0.56274
 C1067 C 0.69920 0.88584 0.56898
 H1068 H 0.70748 0.86763 0.55812
 O1069 O 0.46550 0.90548 0.64667
 O1070 O 0.46391 0.87427 0.68117
 C1071 C 0.45582 0.89730 0.67050
 C1072 C 0.43452 0.91453 0.68552
 C1073 C 0.42507 0.90728 0.71296
 H1074 H 0.43432 0.88949 0.72362
 O1075 O 0.53401 1.10243 0.64258
 O1076 O 0.53709 1.13477 0.67566
 C1077 C 0.54479 1.11142 0.66530
 C1078 C 0.56670 1.09445 0.67940
 C1079 C 0.57493 1.10022 0.70741
 H1080 H 0.56469 1.11694 0.71888
 O1081 O 0.35771 0.98876 0.61080
 O1082 O 0.32556 0.99238 0.64441
 C1083 C 0.33426 0.98166 0.62137
 C1084 C 0.31744 0.96003 0.60721
 C1085 C 0.29182 0.95148 0.61892
 H1086 H 0.28362 0.96169 0.63776
 O1087 O 0.64647 1.02390 0.60081
 O1088 O 0.67727 1.02076 0.63534
 C1089 C 0.66901 1.03191 0.61235
 C1090 C 0.68508 1.05537 0.59980
 C1091 C 0.70950 1.06483 0.61285
 H1092 H 0.71745 1.05369 0.63121
 O1093 O 0.38627 0.87676 0.53706
 O1094 O 0.35218 0.84595 0.53688
 C1095 C 0.37541 0.85436 0.54648
 C1096 C 0.38974 0.83787 0.56887
 C1097 C 0.37976 0.81145 0.57642
 H1098 H 0.36178 0.80313 0.56544
 O1099 O 0.61181 1.13778 0.53049
 O1100 O 0.64450 1.17007 0.52968
 C1101 C 0.62142 1.16078 0.53930
 C1102 C 0.60539 1.17635 0.56112
 C1103 C 0.61189 1.20414 0.56820
 H1104 H 0.62896 1.21473 0.55753
 Cu1105 Cu 0.62155 0.99770 0.61520
 Cu1106 Cu 0.65866 0.99406 0.65658
 Cu1107 Cu 0.38353 1.01384 0.62512
 Cu1108 Cu 0.34492 1.01809 0.66544
 Cu1109 Cu 0.50719 1.12001 0.62092
 Cu1110 Cu 0.51061 1.15927 0.66035
 Cu1111 Cu 0.49106 0.88733 0.62301
 Cu1112 Cu 0.48937 0.85004 0.66442
 C1113 C 0.57971 1.07235 0.66457
 H1114 H 0.57373 1.06795 0.64288
 C1115 C 0.59589 1.08400 0.72048
 C1116 C 0.42274 0.93792 0.67190
 H1117 H 0.42957 0.94342 0.65063
 C1118 C 0.40391 0.92312 0.72647
 C1119 C 0.58316 1.16297 0.57530
 H1120 H 0.57836 1.14139 0.57063
 C1121 C 0.59572 1.21839 0.58867
 C1122 C 0.41316 0.84836 0.58291
 H1123 H 0.42083 0.86887 0.57715
 C1124 C 0.39244 0.79549 0.59787
 C1125 C 0.67468 1.06995 0.57629
 H1126 H 0.65565 1.06271 0.56646
 C1127 C 0.72336 1.08894 0.60333
 C1128 C 0.32792 0.94647 0.58300
 H1129 H 0.34784 0.95291 0.57414
 C1130 C 0.27727 0.92892 0.60746
 C1131 C 0.43276 1.08238 0.67198
 H1132 H 0.43848 1.07466 0.65112
 C1133 C 0.41726 1.10372 0.72538
 C1134 C 0.56900 0.92807 0.66396
 H1135 H 0.56399 0.93215 0.64191
 C1136 C 0.58276 0.91736 0.72084
 C1137 C 0.66172 0.91895 0.57644
 H1138 H 0.64072 0.92612 0.57169
 C1139 C 0.71575 0.89949 0.58903
 C1140 C 0.34463 1.08872 0.57812
 H1141 H 0.36474 1.08007 0.57195
 C1142 C 0.29295 1.11185 0.59427
 C1143 C 0.43985 1.17125 0.57581
 H1144 H 0.44544 1.14996 0.57036
 C1145 C 0.42372 1.22573 0.59001
 C1146 C 0.56147 0.83389 0.58081
 H1147 H 0.55546 0.85433 0.57294
 C1148 C 0.57794 0.78146 0.60221
 O1149 O 0.60372 0.97068 0.36497
 O1150 O 0.63647 0.96652 0.33207
 C1151 C 0.61294 0.95919 0.34247
 C1152 C 0.59620 0.93676 0.32884
 C1153 C 0.60359 0.92615 0.30186
 H1154 H 0.62122 0.93499 0.29056
 O1155 O 0.40294 1.03328 0.36003
 O1156 O 0.37036 1.03613 0.32719
 C1157 C 0.39368 1.04390 0.33714
 C1158 C 0.40988 1.06604 0.32251
 C1159 C 0.40048 1.07766 0.29673
 H1160 H 0.38187 1.06937 0.28707
 O1161 O 0.48430 1.14069 0.39824
 O1162 O 0.48644 1.17306 0.36483
 C1163 C 0.47637 1.16404 0.38806
 C1164 C 0.45476 1.18053 0.40308
 C1165 C 0.44773 1.20757 0.39392
 H1166 H 0.45889 1.21676 0.37612
 O1167 O 0.51940 0.86104 0.40555
 O1168 O 0.51674 0.82807 0.37309
 C1169 C 0.52687 0.83725 0.39596
 C1170 C 0.54834 0.82055 0.41083
 C1171 C 0.55650 0.79431 0.40041
 H1172 H 0.54587 0.78562 0.38221
 O1173 O 0.63010 0.89257 0.47812
 O1174 O 0.66102 0.85818 0.47818
 C1175 C 0.65256 0.88169 0.46874
 C1176 C 0.66939 0.89648 0.44694
 C1177 C 0.69645 0.88697 0.44074
 H1178 H 0.70480 0.86904 0.45206
 O1179 O 0.37309 1.10908 0.47506
 O1180 O 0.34216 1.14346 0.47429
 C1181 C 0.35066 1.11977 0.46566
 C1182 C 0.33426 1.10487 0.44423
 C1183 C 0.30709 1.11386 0.43815
 H1184 H 0.29794 1.13117 0.44983
 O1185 O 0.53655 1.09862 0.35979
 O1186 O 0.53831 1.13103 0.32643
 C1187 C 0.54667 1.10792 0.33662
 C1188 C 0.56910 1.09230 0.32185
 C1189 C 0.57826 1.10084 0.29491
 H1190 H 0.56697 1.11745 0.28438
 O1191 O 0.46922 0.90370 0.36474
 O1192 O 0.46751 0.87031 0.33265
 C1193 C 0.45970 0.89401 0.34158
 C1194 C 0.43879 0.90992 0.32512
 C1195 C 0.43158 0.90137 0.29776
 H1196 H 0.44243 0.88377 0.28821
 O1197 O 0.64587 1.02372 0.40144
 O1198 O 0.67910 1.02026 0.36900
 C1199 C 0.66943 1.03140 0.39157
 C1200 C 0.68512 1.05379 0.40662
 C1201 C 0.71211 1.06234 0.39786
 H1202 H 0.72223 1.05252 0.37980
 O1203 O 0.36096 0.98174 0.39939
 O1204 O 0.32847 0.98432 0.36643
 C1205 C 0.33739 0.97434 0.38974
 C1206 C 0.32026 0.95379 0.40564
 C1207 C 0.29389 0.94605 0.39562
 H1208 H 0.28584 0.95563 0.37641
 O1209 O 0.61386 1.13748 0.47519
 O1210 O 0.64682 1.16946 0.47394
 C1211 C 0.62397 1.15973 0.46455
 C1212 C 0.60885 1.17384 0.44084
 C1213 C 0.61630 1.20086 0.43118
 H1214 H 0.63320 1.21193 0.44127
 O1215 O 0.38838 0.87783 0.48189
 O1216 O 0.35438 0.84688 0.48181
 C1217 C 0.37788 0.85546 0.47244
 C1218 C 0.39289 0.83926 0.45021
 C1219 C 0.38352 0.81256 0.44307
 H1220 H 0.36568 0.80384 0.45424
 O1221 O 0.39908 0.97908 0.36006
 O1222 O 0.36697 0.98136 0.32673
 C1223 C 0.38898 0.97029 0.33692
 C1224 C 0.40324 0.94660 0.32260
 C1225 C 0.39563 0.93729 0.29531
 H1226 H 0.37908 0.94786 0.28385
 O1227 O 0.60850 1.02484 0.36167
 O1228 O 0.64125 1.02133 0.32872
 C1229 C 0.61904 1.03281 0.33817
 C1230 C 0.60520 1.05606 0.32247
 C1231 C 0.61462 1.06529 0.29556
 H1232 H 0.63230 1.05499 0.28551
 O1233 O 0.46512 0.86934 0.40759
 O1234 O 0.46281 0.83600 0.37551
 C1235 C 0.45377 0.84733 0.39829
 C1236 C 0.42968 0.83507 0.41397
 C1237 C 0.41979 0.80828 0.40712
 H1238 H 0.43044 0.79643 0.39078
 O1239 O 0.53861 1.13548 0.40001
 O1240 O 0.54026 1.16785 0.36661
 C1241 C 0.54911 1.15773 0.38993
 C1242 C 0.57185 1.17235 0.40506
 C1243 C 0.57920 1.19925 0.39635
 H1244 H 0.56772 1.20912 0.37921
 O1245 O 0.35004 0.91586 0.48044
 O1246 O 0.31574 0.88529 0.48072
 C1247 C 0.32723 0.90685 0.47025
 C1248 C 0.31483 0.92098 0.44516
 C1249 C 0.28851 0.91312 0.43451
 H1250 H 0.27636 0.89752 0.44568
 O1251 O 0.64881 1.09619 0.47713
 O1252 O 0.68235 1.12762 0.47619
 C1253 C 0.67184 1.10490 0.46722
 C1254 C 0.68616 1.08893 0.44447
 C1255 C 0.71324 1.09617 0.43621
 H1256 H 0.72413 1.11257 0.44740
 O1257 O 0.52387 0.90190 0.36922
 O1258 O 0.52181 0.86884 0.33682
 C1259 C 0.53306 0.89094 0.34650
 C1260 C 0.55714 0.90371 0.33116
 C1261 C 0.56481 0.89374 0.30429
 H1262 H 0.55274 0.87715 0.29477
 O1263 O 0.48170 1.10126 0.36060
 O1264 O 0.48384 1.13377 0.32738
 C1265 C 0.47275 1.11182 0.33754
 C1266 C 0.44866 1.09906 0.32280
 C1267 C 0.43901 1.11031 0.29705
 H1268 H 0.45002 1.12770 0.28744
 O1269 O 0.36591 1.03540 0.39998
 O1270 O 0.33283 1.03838 0.36763
 C1271 C 0.34366 1.04659 0.39077
 C1272 C 0.33072 1.06957 0.40719
 C1273 C 0.30360 1.07910 0.40110
 H1274 H 0.29169 1.06892 0.38466
 O1275 O 0.64111 0.96922 0.40415
 O1276 O 0.67449 0.96523 0.37186
 C1277 C 0.66315 0.95727 0.39505
 C1278 C 0.67508 0.93341 0.41128
 C1279 C 0.70220 0.92335 0.40532
 H1280 H 0.71479 0.93398 0.38954
 O1281 O 0.59202 0.85429 0.47910
 O1282 O 0.62267 0.81970 0.47899
 C1283 C 0.60055 0.83093 0.46951
 C1284 C 0.58486 0.81738 0.44650
 C1285 C 0.59312 0.79120 0.43562
 H1286 H 0.61042 0.78013 0.44525
 O1287 O 0.41154 1.14710 0.47317
 O1288 O 0.38059 1.18144 0.47208
 C1289 C 0.40284 1.17013 0.46285
 C1290 C 0.41858 1.18354 0.43954
 C1291 C 0.41165 1.21061 0.43015
 H1292 H 0.39526 1.22209 0.44098
 Cu1293 Cu 0.62162 0.99766 0.38625
 Cu1294 Cu 0.66117 0.99291 0.34720
 Cu1295 Cu 0.38558 1.00698 0.38300
 Cu1296 Cu 0.34640 1.01032 0.34361
 Cu1297 Cu 0.62821 1.11494 0.50399
 Cu1298 Cu 0.66795 1.15294 0.50285
 Cu1299 Cu 0.60813 0.87685 0.50626
 Cu1300 Cu 0.64516 0.83549 0.50608
 Cu1301 Cu 0.39564 1.12544 0.50172
 Cu1302 Cu 0.35849 1.16684 0.50040
 Cu1303 Cu 0.37178 0.90029 0.50912
 Cu1304 Cu 0.33103 0.86320 0.50909
 Cu1305 Cu 0.51001 1.11565 0.38294
 Cu1306 Cu 0.51252 1.15459 0.34293
 Cu1307 Cu 0.49457 0.88723 0.39001
 Cu1308 Cu 0.49200 0.84763 0.35137
 C1309 C 0.57282 0.92541 0.34321
 H1310 H 0.56710 0.93313 0.36407
 C1311 C 0.58782 0.90463 0.28942
 C1312 C 0.43408 1.07675 0.33521
 H1313 H 0.44115 1.06825 0.35529
 C1314 C 0.41490 1.10000 0.28387
 C1315 C 0.44023 1.16880 0.42602
 H1316 H 0.44536 1.14779 0.43296
 C1317 C 0.42614 1.22277 0.40718
 C1318 C 0.56235 0.83170 0.43409
 H1319 H 0.55631 0.85212 0.44193
 C1320 C 0.57903 0.77959 0.41234
 C1321 C 0.65889 0.91991 0.43233
 H1322 H 0.63788 0.92726 0.43692
 C1323 C 0.71300 0.90005 0.42009
 C1324 C 0.34588 1.08251 0.42895
 H1325 H 0.36704 1.07571 0.43351
 C1326 C 0.29182 1.10146 0.41649
 C1327 C 0.58242 1.06984 0.33529
 H1328 H 0.57533 1.06346 0.35622
 C1329 C 0.60134 1.08794 0.28165
 C1330 C 0.42485 0.93270 0.33718
 H1331 H 0.43044 0.93914 0.35843
 C1332 C 0.41003 0.91461 0.28275
 C1333 C 0.67242 1.06741 0.42996
 H1334 H 0.65143 1.06175 0.43647
 C1335 C 0.72621 1.08339 0.41295
 C1336 C 0.33041 0.94138 0.43058
 H1337 H 0.35086 0.94716 0.43829
 C1338 C 0.27792 0.92568 0.40964
 C1339 C 0.58651 1.15986 0.42754
 H1340 H 0.58081 1.13902 0.43435
 C1341 C 0.60118 1.21371 0.40897
 C1342 C 0.41616 0.85032 0.43571
 H1343 H 0.42342 0.87104 0.44099
 C1344 C 0.39667 0.79687 0.42170
 O1345 O 0.59876 0.53203 1.13487
 O1346 O 0.63175 0.53203 1.16739
 C1347 C 0.60911 0.54198 1.15741
 C1348 C 0.59546 0.56581 1.17210
 C1349 C 0.60460 0.57329 1.19913
 H1350 H 0.62064 0.56082 1.20940
 O1351 O 0.41247 0.48324 1.14754
 O1352 O 0.38140 0.48577 1.18229
 C1353 C 0.40347 0.47515 1.17148
 C1354 C 0.41811 0.45267 1.18674
 C1355 C 0.41153 0.44750 1.21518
 H1356 H 0.39669 0.46100 1.22607
 O1357 O 0.52742 0.65141 1.09793
 O1358 O 0.52900 0.68533 1.12946
 C1359 C 0.53702 0.67467 1.10618
 C1360 C 0.55830 0.68877 1.08867
 C1361 C 0.56603 0.71655 1.09384
 H1362 H 0.55513 0.72819 1.11017
 O1363 O 0.47400 0.36176 1.10857
 O1364 O 0.47180 0.33095 1.14340
 C1365 C 0.46275 0.34050 1.11986
 C1366 C 0.43874 0.32756 1.10506
 C1367 C 0.42916 0.30040 1.11168
 H1368 H 0.43927 0.28825 1.12816
 O1369 O 0.63544 0.60528 1.02630
 O1370 O 0.66842 0.63725 1.02365
 C1371 C 0.65851 0.61509 1.03470
 C1372 C 0.67412 0.60029 1.05724
 C1373 C 0.70116 0.60861 1.06432
 H1374 H 0.71049 0.62612 1.05318
 O1375 O 0.36042 0.41141 1.03811
 O1376 O 0.32765 0.37936 1.04139
 C1377 C 0.33846 0.40200 1.04997
 C1378 C 0.32611 0.41708 1.07463
 C1379 C 0.30034 0.40889 1.08658
 H1380 H 0.28867 0.39234 1.07661
 O1381 O 0.47640 0.61406 1.14146
 O1382 O 0.47815 0.64763 1.17338
 C1383 C 0.46851 0.62451 1.16495
 C1384 C 0.44757 0.60980 1.18235
 C1385 C 0.44044 0.61957 1.20941
 H1386 H 0.45111 0.63763 1.21783
 O1387 O 0.53121 0.39856 1.14271
 O1388 O 0.53022 0.36863 1.17841
 C1389 C 0.54048 0.39026 1.16645
 C1390 C 0.56333 0.40622 1.17993
 C1391 C 0.57375 0.39854 1.20677
 H1392 H 0.56465 0.38097 1.21789
 O1393 O 0.63610 0.47538 1.09719
 O1394 O 0.66914 0.47625 1.12965
 C1395 C 0.65883 0.46589 1.10721
 C1396 C 0.67334 0.44210 1.09344
 C1397 C 0.70094 0.43598 1.10089
 H1398 H 0.71175 0.44949 1.11560
 O1399 O 0.37344 0.53550 1.10768
 O1400 O 0.34154 0.53741 1.14178
 C1401 C 0.35047 0.54480 1.11735
 C1402 C 0.33339 0.56356 1.09979
 C1403 C 0.30476 0.56571 1.10508
 H1404 H 0.29561 0.55373 1.12235
 O1405 O 0.40155 0.64243 1.02535
 O1406 O 0.36784 0.67402 1.02430
 C1407 C 0.39088 0.66523 1.03422
 C1408 C 0.40470 0.68152 1.05685
 C1409 C 0.39353 0.70733 1.06512
 H1410 H 0.37553 0.71565 1.05397
 O1411 O 0.60096 0.34889 1.03548
 O1412 O 0.63367 0.31636 1.03632
 C1413 C 0.61094 0.32644 1.04602
 C1414 C 0.59589 0.31297 1.07030
 C1415 C 0.60453 0.28725 1.08246
 H1416 H 0.62241 0.27638 1.07356
 O1417 O 0.40781 0.53867 1.15129
 O1418 O 0.37517 0.54093 1.18453
 C1419 C 0.39785 0.54967 1.17387
 C1420 C 0.41267 0.57328 1.18704
 C1421 C 0.40538 0.58345 1.21422
 H1422 H 0.38906 0.57315 1.22623
 O1423 O 0.60032 0.47692 1.13877
 O1424 O 0.63341 0.47757 1.17118
 C1425 C 0.61064 0.46774 1.16188
 C1426 C 0.59679 0.44474 1.17775
 C1427 C 0.60665 0.43687 1.20460
 H1428 H 0.62359 0.44847 1.21408
 O1429 O 0.52856 0.35637 1.10897
 O1430 O 0.52678 0.32587 1.14410
 C1431 C 0.53688 0.33373 1.12043
 C1432 C 0.55918 0.31694 1.10653
 C1433 C 0.56795 0.29148 1.11832
 H1434 H 0.55735 0.28348 1.13705
 O1435 O 0.47338 0.64946 1.10021
 O1436 O 0.47412 0.68342 1.13169
 C1437 C 0.46365 0.67236 1.10959
 C1438 C 0.43967 0.68538 1.09438
 C1439 C 0.42782 0.71124 1.10270
 H1440 H 0.43669 0.72242 1.12039
 O1441 O 0.36524 0.60254 1.02703
 O1442 O 0.33118 0.63383 1.02669
 C1443 C 0.34215 0.61164 1.03673
 C1444 C 0.32865 0.59615 1.06026
 C1445 C 0.29977 0.59834 1.06590
 H1446 H 0.28715 0.61191 1.05275
 O1447 O 0.63479 0.39081 1.03337
 O1448 O 0.66867 0.35939 1.03419
 C1449 C 0.65818 0.38254 1.04268
 C1450 C 0.67307 0.40054 1.06322
 C1451 C 0.70070 0.39451 1.07146
 H1452 H 0.71134 0.37644 1.06274
 O1453 O 0.47761 0.40076 1.14670
 O1454 O 0.47602 0.37034 1.18195
 C1455 C 0.46848 0.39341 1.17102
 C1456 C 0.44897 0.41201 1.18659
 C1457 C 0.44175 0.40676 1.21519
 H1458 H 0.45096 0.38907 1.22606
 O1459 O 0.53010 0.61243 1.13599
 O1460 O 0.53233 0.64560 1.16827
 C1461 C 0.54087 0.62226 1.15833
 C1462 C 0.56332 0.60588 1.17260
 C1463 C 0.57332 0.61333 1.19966
 H1464 H 0.56460 0.63138 1.21036
 O1465 O 0.36978 0.48283 1.11488
 O1466 O 0.33766 0.48505 1.14872
 C1467 C 0.34677 0.47454 1.12574
 C1468 C 0.33049 0.45242 1.11168
 C1469 C 0.30463 0.44413 1.12310
 H1470 H 0.29635 0.45435 1.14189
 O1471 O 0.63980 0.53035 1.09855
 O1472 O 0.67271 0.53065 1.13115
 C1473 C 0.66267 0.54002 1.10814
 C1474 C 0.67685 0.56316 1.09282
 C1475 C 0.70409 0.57198 1.09997
 H1476 H 0.71553 0.56098 1.11633
 O1477 O 0.39713 0.37071 1.03683
 O1478 O 0.36384 0.33905 1.03896
 C1479 C 0.38736 0.34804 1.04696
 C1480 C 0.40291 0.33165 1.06840
 C1481 C 0.39451 0.30434 1.07444
 H1482 H 0.37750 0.29519 1.06258
 O1483 O 0.59874 0.64518 1.02286
 O1484 O 0.63147 0.67737 1.01984
 C1485 C 0.60857 0.66867 1.03014
 C1486 C 0.59339 0.68570 1.05122
 C1487 C 0.60099 0.71343 1.05642
 H1488 H 0.61778 0.72278 1.04416
 Cu1489 Cu 0.61551 0.50370 1.11407
 Cu1490 Cu 0.65492 0.50409 1.15310
 Cu1491 Cu 0.39443 0.51044 1.12759
 Cu1492 Cu 0.35643 0.51216 1.16793
 Cu1493 Cu 0.50169 0.62860 1.11566
 Cu1494 Cu 0.50368 0.66894 1.15386
 Cu1495 Cu 0.50280 0.38216 1.12310
 Cu1496 Cu 0.50105 0.34577 1.16539
 C1497 C 0.57461 0.58202 1.15903
 H1498 H 0.56754 0.57628 1.13804
 C1499 C 0.59402 0.59689 1.21300
 C1500 C 0.43713 0.43514 1.17263
 H1501 H 0.44204 0.43903 1.15047
 C1502 C 0.42283 0.42454 1.22952
 C1503 C 0.57187 0.67370 1.06719
 H1504 H 0.56629 0.65211 1.06350
 C1505 C 0.58757 0.72902 1.07776
 C1506 C 0.42527 0.34297 1.08342
 H1507 H 0.43183 0.36409 1.07858
 C1508 C 0.40712 0.28867 1.09595
 C1509 C 0.66224 0.57745 1.07139
 H1510 H 0.64125 0.57104 1.06600
 C1511 C 0.71644 0.59474 1.08551
 C1512 C 0.34094 0.43896 1.08735
 H1513 H 0.36101 0.44514 1.07865
 C1514 C 0.28959 0.42222 1.11108
 C1515 C 0.43388 0.58651 1.17150
 H1516 H 0.43925 0.57913 1.15041
 C1517 C 0.41940 0.60673 1.22557
 C1518 C 0.57498 0.42941 1.16566
 H1519 H 0.56744 0.43527 1.14481
 C1520 C 0.59558 0.41379 1.21917
 C1521 C 0.65958 0.42448 1.07436
 H1522 H 0.63814 0.42915 1.06865
 C1523 C 0.71467 0.41231 1.09038
 C1524 C 0.34521 0.57851 1.07722
 H1525 H 0.36748 0.57673 1.07317
 C1526 C 0.28765 0.58269 1.08828
 C1527 C 0.42788 0.67087 1.07136
 H1528 H 0.43635 0.65079 1.06503
 C1529 C 0.40456 0.72234 1.08797
 C1530 C 0.57299 0.32723 1.08242
 H1531 H 0.56639 0.34711 1.07360
 C1532 C 0.59037 0.27625 1.10657
 O1533 O 0.60322 0.46550 0.86866
 O1534 O 0.63650 0.46441 0.83599
 C1535 C 0.61330 0.45561 0.84574
 C1536 C 0.59814 0.43365 0.83008
 C1537 C 0.60691 0.42642 0.80274
 H1538 H 0.62441 0.43738 0.79319
 O1539 O 0.39373 0.52286 0.85820
 O1540 O 0.36124 0.52305 0.82520
 C1541 C 0.38435 0.53196 0.83472
 C1542 C 0.40080 0.55324 0.81892
 C1543 C 0.39300 0.56266 0.79161
 H1544 H 0.37464 0.55420 0.78148
 O1545 O 0.47179 0.63134 0.89305
 O1546 O 0.47234 0.66196 0.85793
 C1547 C 0.46265 0.65366 0.88170
 C1548 C 0.44049 0.66997 0.89634
 C1549 C 0.43258 0.69640 0.88630
 H1550 H 0.44302 0.70502 0.86777
 O1551 O 0.52543 0.35796 0.90479
 O1552 O 0.52332 0.32448 0.87287
 C1553 C 0.53343 0.33423 0.89563
 C1554 C 0.55505 0.31784 0.91104
 C1555 C 0.56147 0.29056 0.90250
 H1556 H 0.54990 0.28135 0.88520
 O1557 O 0.63848 0.38645 0.97880
 O1558 O 0.67159 0.35424 0.97895
 C1559 C 0.66164 0.37698 0.96926
 C1560 C 0.67678 0.39302 0.94687
 C1561 C 0.70383 0.38516 0.93726
 H1562 H 0.71407 0.36692 0.94612
 O1563 O 0.36336 0.60100 0.97189
 O1564 O 0.33012 0.63314 0.97175
 C1565 C 0.34003 0.61016 0.96278
 C1566 C 0.32403 0.59446 0.94136
 C1567 C 0.29652 0.60249 0.93537
 H1568 H 0.28695 0.61951 0.94715
 O1569 O 0.52708 0.59092 0.85744
 O1570 O 0.52821 0.62147 0.82229
 C1571 C 0.53755 0.59946 0.83415
 C1572 C 0.56141 0.58401 0.82143
 C1573 C 0.57166 0.59082 0.79417
 H1574 H 0.56106 0.60671 0.78185
 O1575 O 0.47226 0.39825 0.86453
 O1576 O 0.47152 0.36482 0.83248
 C1577 C 0.46241 0.38801 0.84182
 C1578 C 0.43944 0.40240 0.82641
 C1579 C 0.43136 0.39277 0.79966
 H1580 H 0.44300 0.37580 0.78988
 O1581 O 0.64245 0.52068 0.90511
 O1582 O 0.67587 0.51928 0.87262
 C1583 C 0.66548 0.52975 0.89506
 C1584 C 0.67956 0.55326 0.90941
 C1585 C 0.70761 0.56051 0.90334
 H1586 H 0.71975 0.54837 0.88826
 O1587 O 0.35423 0.47133 0.89934
 O1588 O 0.32134 0.47027 0.86681
 C1589 C 0.33118 0.46177 0.89034
 C1590 C 0.31651 0.44031 0.90774
 C1591 C 0.29119 0.42784 0.89905
 H1592 H 0.28169 0.43441 0.87934
 O1593 O 0.59842 0.63960 0.96809
 O1594 O 0.63096 0.67198 0.96503
 C1595 C 0.60818 0.66146 0.95651
 C1596 C 0.59272 0.67436 0.93278
 C1597 C 0.59876 0.70157 0.92330
 H1598 H 0.61467 0.71345 0.93401
 O1599 O 0.39648 0.37201 0.98143
 O1600 O 0.36343 0.34017 0.98416
 C1601 C 0.38604 0.34920 0.97306
 C1602 C 0.39992 0.33292 0.95008
 C1603 C 0.38922 0.30684 0.94271
 H1604 H 0.37131 0.29872 0.95423
 O1605 O 0.39426 0.46897 0.86218
 O1606 O 0.36209 0.46828 0.82884
 C1607 C 0.38484 0.45894 0.83930
 C1608 C 0.40077 0.43614 0.82517
 C1609 C 0.39279 0.42585 0.79842
 H1610 H 0.37496 0.43497 0.78775
 O1611 O 0.60326 0.51970 0.86708
 O1612 O 0.63664 0.51824 0.83454
 C1613 C 0.61348 0.52797 0.84356
 C1614 C 0.59855 0.54918 0.82644
 C1615 C 0.60833 0.55606 0.79921
 H1616 H 0.62657 0.54541 0.79064
 O1617 O 0.47081 0.36213 0.90539
 O1618 O 0.46856 0.32849 0.87364
 C1619 C 0.45959 0.33989 0.89643
 C1620 C 0.43551 0.32788 0.91259
 C1621 C 0.42411 0.30171 0.90541
 H1622 H 0.43348 0.28984 0.88830
 O1623 O 0.52600 0.63171 0.89334
 O1624 O 0.52629 0.66233 0.85819
 C1625 C 0.53521 0.65404 0.88210
 C1626 C 0.55667 0.67053 0.89672
 C1627 C 0.56273 0.69769 0.88757
 H1628 H 0.55112 0.70671 0.87005
 O1629 O 0.35588 0.40810 0.98196
 O1630 O 0.32292 0.37631 0.98599
 C1631 C 0.33262 0.39793 0.97405
 C1632 C 0.31727 0.41009 0.94966
 C1633 C 0.29197 0.39830 0.94103
 H1634 H 0.28284 0.38168 0.95367
 O1635 O 0.63666 0.60127 0.97180
 O1636 O 0.66944 0.63347 0.96916
 C1637 C 0.65990 0.60984 0.96207
 C1638 C 0.67627 0.59223 0.94247
 C1639 C 0.70426 0.59857 0.93705
 H1640 H 0.71385 0.61605 0.94779
 O1641 O 0.52735 0.39522 0.86441
 O1642 O 0.52663 0.36191 0.83226
 C1643 C 0.53713 0.38439 0.84178
 C1644 C 0.56136 0.39829 0.82744
 C1645 C 0.57111 0.39074 0.79995
 H1646 H 0.56071 0.37442 0.78825
 O1647 O 0.47221 0.59104 0.85641
 O1648 O 0.47358 0.62156 0.82124
 C1649 C 0.46345 0.59972 0.83252
 C1650 C 0.44053 0.58516 0.81791
 C1651 C 0.43313 0.59339 0.79046
 H1652 H 0.44538 0.60914 0.77951
 O1653 O 0.35732 0.52530 0.89876
 O1654 O 0.32403 0.52531 0.86657
 C1655 C 0.33462 0.53518 0.88917
 C1656 C 0.32103 0.55854 0.90471
 C1657 C 0.29356 0.56742 0.89850
 H1658 H 0.28179 0.55687 0.88220
 O1659 O 0.64024 0.46579 0.90869
 O1660 O 0.67340 0.46489 0.87592
 C1661 C 0.66299 0.45576 0.89902
 C1662 C 0.67736 0.43263 0.91393
 C1663 C 0.70441 0.42513 0.90551
 H1664 H 0.71501 0.43742 0.88936
 O1665 O 0.59768 0.35086 0.98015
 O1666 O 0.63030 0.31816 0.97977
 C1667 C 0.60738 0.32822 0.97027
 C1668 C 0.59171 0.31446 0.94706
 C1669 C 0.59816 0.28715 0.93783
 H1670 H 0.61461 0.27550 0.94826
 O1671 O 0.40150 0.63915 0.96976
 O1672 O 0.36833 0.67132 0.96860
 C1673 C 0.39110 0.66111 0.95891
 C1674 C 0.40554 0.67402 0.93425
 C1675 C 0.39778 0.70051 0.92389
 H1676 H 0.38153 0.71205 0.93484
 Cu1677 Cu 0.61910 0.49318 0.89087
 Cu1678 Cu 0.65900 0.49153 0.85159
 Cu1679 Cu 0.37802 0.49711 0.88284
 Cu1680 Cu 0.33885 0.49667 0.84355
 Cu1681 Cu 0.61384 0.61972 0.99755
 Cu1682 Cu 0.65339 0.65831 0.99413
 Cu1683 Cu 0.61471 0.37215 1.00682
 Cu1684 Cu 0.65421 0.33370 1.00753
 Cu1685 Cu 0.38634 0.61819 0.99858
 Cu1686 Cu 0.34612 0.65639 0.99781
 Cu1687 Cu 0.38055 0.39402 1.00947
 Cu1688 Cu 0.34115 0.35570 1.01287
 Cu1689 Cu 0.49921 0.60805 0.87852
 Cu1690 Cu 0.50011 0.64477 0.83625
 Cu1691 Cu 0.49926 0.38177 0.88782
 Cu1692 Cu 0.49738 0.34162 0.84963
 C1693 C 0.57523 0.41978 0.84214
 H1694 H 0.56846 0.42552 0.86334
 C1695 C 0.59387 0.40521 0.78745
 C1696 C 0.42460 0.56477 0.83183
 H1697 H 0.43035 0.55845 0.85314
 C1698 C 0.40935 0.58279 0.77733
 C1699 C 0.42699 0.65906 0.92039
 H1700 H 0.43289 0.63851 0.92806
 C1701 C 0.41135 0.71190 0.89982
 C1702 C 0.57006 0.32949 0.93349
 H1703 H 0.56523 0.35067 0.93999
 C1704 C 0.58288 0.27504 0.91548
 C1705 C 0.66381 0.41679 0.93490
 H1706 H 0.64282 0.42266 0.94141
 C1707 C 0.71773 0.40146 0.91655
 C1708 C 0.33605 0.57228 0.92621
 H1709 H 0.35737 0.56608 0.93083
 C1710 C 0.28120 0.58943 0.91403
 C1711 C 0.57494 0.56305 0.83730
 H1712 H 0.56748 0.55795 0.85845
 C1713 C 0.59529 0.57689 0.78297
 C1714 C 0.42421 0.42430 0.83890
 H1715 H 0.43022 0.43164 0.85972
 C1716 C 0.40813 0.40406 0.78554
 C1717 C 0.66418 0.56931 0.92904
 H1718 H 0.64247 0.56442 0.93336
 C1719 C 0.72007 0.58311 0.91758
 C1720 C 0.32910 0.43130 0.93316
 H1721 H 0.34882 0.44014 0.93974
 C1722 C 0.27878 0.40658 0.91579
 C1723 C 0.57157 0.65910 0.91944
 H1724 H 0.56703 0.63801 0.92640
 C1725 C 0.58366 0.71341 0.90061
 C1726 C 0.42321 0.34323 0.93508
 H1727 H 0.43147 0.36350 0.94062
 C1728 C 0.40087 0.29107 0.92056
 C1729 C 1.14550 1.13440 1.28515
 C1730 C 1.11903 1.13619 1.27666
 C1731 C 1.11103 1.12070 1.25087
 C1732 C 1.08442 1.11595 1.24441
 H1733 H 1.10336 1.14688 1.28941
 H1734 H 1.12739 1.11282 1.23694
 H1735 H 1.15982 1.12185 1.27244
 H1736 H 1.06808 1.12484 1.25773
 C1737 C 1.11426 0.63931 0.80344
 C1738 C 1.11741 0.61626 0.78764
 C1739 C 1.10103 0.61080 0.76175
 C1740 C 1.10637 0.58749 0.74690
 H1741 H 1.13325 0.60103 0.79349
 H1742 H 1.08602 0.62618 0.75447
 H1743 H 1.09822 0.65451 0.79818
 H1744 H 1.12216 0.57327 0.75508
 C1745 C 0.61134 1.13511 0.81069
 C1746 C 0.61492 1.11343 0.79314
 C1747 C 0.60028 1.11090 0.76591
 C1748 C 0.60580 1.08855 0.74980
 H1749 H 0.62997 1.09720 0.79841
 H1750 H 0.58672 1.12761 0.75877
 H1751 H 0.59577 1.15095 0.80586
 H1752 H 0.61994 1.07281 0.75823
 C1753 C 0.62277 0.65478 1.29465
 C1754 C 0.62301 0.63129 1.27957
 C1755 C 0.60609 0.62785 1.25379
 C1756 C 0.60585 0.60289 1.24127
 H1757 H 0.63631 0.61408 1.28626
 H1758 H 0.59557 0.64571 1.24448
 H1759 H 0.60871 0.67170 1.28894
 H1760 H 0.61721 0.58595 1.25146
 C1761 C 0.87926 0.86282 1.30541
 C1762 C 0.87295 0.88462 1.28863
 C1763 C 0.88839 0.89026 1.26212
 C1764 C 0.88082 0.91185 1.24563
 H1765 H 0.85555 0.89828 1.29398
 H1766 H 0.90503 0.87611 1.25606
 H1767 H 0.89688 0.84947 1.29996
 H1768 H 0.86367 0.92503 1.25283
 C1769 C 0.84082 0.37196 0.79175
 C1770 C 0.85869 0.36700 0.77028
 C1771 C 0.86537 0.38736 0.74757
 C1772 C 0.88499 0.38007 0.72856
 H1773 H 0.86977 0.34717 0.76961
 H1774 H 0.85568 0.40784 0.74727
 H1775 H 0.82925 0.39148 0.79236
 H1776 H 0.89430 0.35943 0.73066
 C1777 C 0.37989 0.86152 0.80721
 C1778 C 0.37835 0.88603 0.79378
 C1779 C 0.39425 0.89136 0.76748
 C1780 C 0.39227 0.91630 0.75486
 H1781 H 0.36452 0.90223 0.80184
 H1782 H 0.40600 0.87444 0.75788
 H1783 H 0.39421 0.84554 0.79959
 H1784 H 0.37956 0.93226 0.76510
 C1785 C 0.39737 0.36814 1.31327
 C1786 C 0.39594 0.39138 1.29769
 C1787 C 0.41332 0.39516 1.27217
 C1788 C 0.41256 0.41970 1.25876
 H1789 H 0.38079 0.40754 1.30300
 H1790 H 0.42431 0.37737 1.26331
 H1791 H 0.41347 0.35274 1.30858
 H1792 H 0.40088 0.43662 1.26865
 C1793 C 0.86231 1.15087 0.71371
 C1794 C 0.86339 1.12389 0.72067
 C1795 C 0.88045 1.11559 0.74552
 C1796 C 0.88667 1.08900 0.75110
 H1797 H 0.85363 1.10826 0.70746
 H1798 H 0.88775 1.13162 0.75986
 H1799 H 0.87408 1.16527 0.72677
 H1800 H 0.87827 1.07285 0.73755
 C1801 C 0.88887 0.63904 0.18981
 C1802 C 0.88973 0.61623 0.20602
 C1803 C 0.90814 0.61448 0.23098
 C1804 C 0.91221 0.58974 0.24323
 H1805 H 0.87628 0.59869 0.20132
 H1806 H 0.91566 0.63342 0.24083
 H1807 H 0.90368 0.65563 0.19381
 H1808 H 0.90375 0.57143 0.23286
 C1809 C 0.35056 1.12403 0.20412
 C1810 C 0.37412 1.12717 0.21904
 C1811 C 0.38136 1.10958 0.24376
 C1812 C 0.40552 1.11408 0.25734
 H1813 H 0.38852 1.14368 0.21322
 H1814 H 0.36662 1.09405 0.25103
 H1815 H 0.33627 1.10726 0.20929
 H1816 H 0.41918 1.13018 0.24893
 C1817 C 0.34730 0.62224 0.70417
 C1818 C 0.37246 0.61822 0.71548
 C1819 C 0.37661 0.59975 0.74025
 C1820 C 0.40255 0.59452 0.74912
 H1821 H 0.39032 0.62911 0.70656
 H1822 H 0.35869 0.59255 0.75236
 H1823 H 0.32963 0.61030 0.71195
 H1824 H 0.41984 0.60288 0.73676
 C1825 C 1.12273 0.85499 0.69092
 C1826 C 1.13107 0.87071 0.71263
 C1827 C 1.11190 0.87771 0.73659
 C1828 C 1.12167 0.89168 0.75894
 H1829 H 1.15264 0.87754 0.71336
 H1830 H 1.09009 0.87179 0.73571
 H1831 H 1.10148 0.84721 0.69097
 H1832 H 1.14353 0.89767 0.75838
 C1833 C 1.12958 0.35505 0.18566
 C1834 C 1.13626 0.37554 0.20354
 C1835 C 1.11747 0.38298 0.22761
 C1836 C 1.12507 0.40271 0.24599
 H1837 H 1.15600 0.38636 0.20104
 H1838 H 1.09782 0.37215 0.23021
 H1839 H 1.10982 0.34444 0.18889
 H1840 H 1.14488 0.41302 0.24199
 C1841 C 0.64318 0.88226 0.20228
 C1842 C 0.62025 0.88067 0.21860
 C1843 C 0.61739 0.89552 0.24593
 C1844 C 0.59364 0.89277 0.26087
 H1845 H 0.60296 0.86783 0.21175
 H1846 H 0.63468 0.90763 0.25387
 H1847 H 0.66041 0.89538 0.20867
 H1848 H 0.57737 0.87981 0.25194
 C1849 C 0.62494 0.35027 0.70332
 C1850 C 0.62470 0.37317 0.71949
 C1851 C 0.60659 0.37574 0.74510
 C1852 C 0.60522 0.40030 0.75843
 H1853 H 0.63850 0.39034 0.71416
 H1854 H 0.59641 0.35750 0.75396
 H1855 H 0.61024 0.33374 0.70824
 H1856 H 0.61626 0.41769 0.74874
 C1857 C 1.29231 1.15151 1.12361
 C1858 C 1.27596 1.12889 1.12600
 C1859 C 1.25061 1.12451 1.10844
 C1860 C 1.23573 1.10111 1.11233
 H1861 H 1.28096 1.11315 1.14183
 H1862 H 1.24383 1.14050 1.09367
 H1863 H 1.28747 1.16699 1.10749
 H1864 H 1.24363 1.08621 1.12778
 C1865 C 1.29443 0.64908 0.62138
 C1866 C 1.27949 0.62554 0.62319
 C1867 C 1.25544 0.61953 0.60478
 C1868 C 1.24318 0.59455 0.60713
 H1869 H 1.28485 0.60997 0.63908
 H1870 H 1.24732 0.63564 0.59089
 H1871 H 1.28966 0.66425 0.60493
 H1872 H 1.25235 0.57951 0.62170
 C1873 C 0.80298 1.15018 0.62919
 C1874 C 0.78792 1.12718 0.63417
 C1875 C 0.76481 1.11958 0.61459
 C1876 C 0.74823 1.09779 0.62022
 H1877 H 0.79166 1.11475 0.65308
 H1878 H 0.76117 1.13238 0.59599
 H1879 H 0.79817 1.16221 0.61024
 H1880 H 0.75298 1.08559 0.63907
 C1881 C 0.80474 0.61188 1.13871
 C1882 C 0.78764 0.61499 1.11651
 C1883 C 0.76100 0.59974 1.11354
 C1884 C 0.74510 0.60523 1.09085
 H1885 H 0.79293 0.63015 1.10020
 H1886 H 0.75407 0.58567 1.13016
 H1887 H 0.80008 0.59650 1.15497
 H1888 H 0.75320 0.61996 1.07531
 C1889 C 1.30043 0.88213 0.86799
 C1890 C 1.28315 0.87689 0.88979
 C1891 C 1.25762 0.89362 0.89475
 C1892 C 1.24124 0.88758 0.91703
 H1893 H 1.28738 0.85945 0.90393
 H1894 H 1.25202 0.90974 0.87966
 H1895 H 1.29621 0.89990 0.85429
 H1896 H 1.24810 0.87102 0.93121
 C1897 C 1.31267 0.38940 0.36302
 C1898 C 1.29325 0.38489 0.38299
 C1899 C 1.26692 0.40123 0.38443
 C1900 C 1.24949 0.39652 0.40616
 H1901 H 1.29639 0.36829 0.39840
 H1902 H 1.26145 0.41548 0.36744
 H1903 H 1.30970 0.40648 0.34814
 H1904 H 1.25639 0.38181 0.42230
 C1905 C 0.79887 0.88132 0.36475
 C1906 C 0.78307 0.87726 0.38777
 C1907 C 0.75669 0.89273 0.39180
 C1908 C 0.74126 0.88821 0.41506
 H1909 H 0.78925 0.86185 0.40350
 H1910 H 0.74948 0.90653 0.37511
 H1911 H 0.79282 0.89705 0.34931
 H1912 H 0.74915 0.87354 0.43074
 C1913 C 0.79470 0.34269 0.87795
 C1914 C 0.78005 0.36642 0.88042
 C1915 C 0.75641 0.36964 0.90057
 C1916 C 0.74580 0.39518 0.90463
 H1917 H 0.78495 0.38394 0.86662
 H1918 H 0.74631 0.35137 0.90945
 H1919 H 0.79072 0.32580 0.89282
 H1920 H 0.75672 0.41261 0.89488
 C1921 C 0.69383 0.86083 1.11334
 C1922 C 0.71849 0.86961 1.12260
 C1923 C 0.74209 0.87446 1.10299
 C1924 C 0.76595 0.88423 1.11330
 H1925 H 0.72117 0.87388 1.14503
 H1926 H 0.73926 0.87247 1.08025
 H1927 H 0.69134 0.85541 1.09116
 H1928 H 0.76765 0.88742 1.13605
 C1929 C 0.70390 0.37819 0.64510
 C1930 C 0.72085 0.37365 0.62261
 C1931 C 0.74473 0.39165 0.61501
 C1932 C 0.76003 0.38542 0.59179
 H1933 H 0.71735 0.35570 0.60913
 H1934 H 0.74986 0.40896 0.62864
 H1935 H 0.70706 0.39638 0.65832
 H1936 H 0.75370 0.36758 0.57926
 C1937 C 0.20879 0.85782 0.63213
 C1938 C 0.21754 0.88371 0.63734
 C1939 C 0.24347 0.89310 0.62297
 C1940 C 0.25118 0.91981 0.62198
 H1941 H 0.20528 0.89794 0.65032
 H1942 H 0.25649 0.87751 0.61264
 H1943 H 0.22130 0.84511 0.61774
 H1944 H 0.23887 0.93524 0.63341
 C1945 C 0.21495 0.35555 1.12856
 C1946 C 0.22595 0.37985 1.13643
 C1947 C 0.25302 0.38796 1.12363
 C1948 C 0.26277 0.41397 1.12474
 H1949 H 0.21476 0.39389 1.15057
 H1950 H 0.26503 0.37208 1.11255
 H1951 H 0.22653 0.34307 1.11321
 H1952 H 0.25127 0.42950 1.13688
 C1953 C 0.68854 1.10479 0.86598
 C1954 C 0.70546 1.10528 0.88834
 C1955 C 0.73152 1.08869 0.88895
 C1956 C 0.74713 1.08934 0.91223
 H1957 H 0.70093 1.11926 0.90590
 H1958 H 0.73924 1.07880 0.86974
 H1959 H 0.69271 1.08988 0.84914
 H1960 H 0.73886 1.10023 0.93069
 C1961 C 0.70556 0.62706 0.34930
 C1962 C 0.71992 0.62550 0.37349
 C1963 C 0.74615 0.60913 0.37596
 C1964 C 0.75940 0.60864 0.40087
 H1965 H 0.71254 0.63712 0.39183
 H1966 H 0.75527 0.59929 0.35739
 H1967 H 0.71238 0.61492 0.33112
 H1968 H 0.74970 0.61958 0.41856
 C1969 C 0.21645 1.12638 0.35214
 C1970 C 0.22763 1.12847 0.37784
 C1971 C 0.25375 1.11362 0.38398
 C1972 C 0.26409 1.11329 0.41012
 H1973 H 0.21755 1.14076 0.39434
 H1974 H 0.26510 1.10388 0.36662
 H1975 H 0.22662 1.11314 0.33644
 H1976 H 0.25298 1.12429 0.42689
 C1977 C 0.19837 0.61549 0.85735
 C1978 C 0.21294 0.61542 0.88140
 C1979 C 0.23908 0.59926 0.88452
 C1980 C 0.25248 0.60002 0.90928
 H1981 H 0.20587 0.62823 0.89903
 H1982 H 0.24811 0.58869 0.86632
 H1983 H 0.20475 0.60206 0.83995
 H1984 H 0.24290 0.61164 0.92659
 C1985 C 1.14588 1.28689 1.11210
 C1986 C 1.11944 1.27854 1.11126
 C1987 C 1.11216 1.25315 1.09576
 C1988 C 1.08577 1.24451 1.09495
 H1989 H 1.10325 1.29013 1.12245
 H1990 H 1.12882 1.24054 1.08668
 H1991 H 1.16178 1.27565 1.10014
 H1992 H 1.06969 1.25683 1.10548
 C1993 C 1.14538 0.78323 0.62044
 C1994 C 1.11969 0.77281 0.61984
 C1995 C 1.11443 0.74664 0.60474
 C1996 C 1.08883 0.73594 0.60419
 H1997 H 1.10262 0.78347 0.63062
 H1998 H 1.13192 0.73533 0.59548
 H1999 H 1.16211 0.77281 0.60889
 H2000 H 1.07192 0.74697 0.61489
 C2001 C 0.65485 1.29342 0.62393
 C2002 C 0.62986 1.28250 0.61905
 C2003 C 0.62671 1.25686 0.60236
 C2004 C 0.60113 1.24725 0.59754
 H2005 H 0.61137 1.29233 0.62813
 H2006 H 0.64502 1.24465 0.59655
 H2007 H 0.67331 1.28471 0.61375
 H2008 H 0.58327 1.25948 0.60474
 C2009 C 0.60789 0.81125 1.13657
 C2010 C 0.60880 0.79798 1.11167
 C2011 C 0.59336 0.77198 1.10693
 C2012 C 0.59759 0.75775 1.08286
 H2013 H 0.62291 0.80516 1.09510
 H2014 H 0.58080 0.76356 1.12408
 H2015 H 0.59359 0.80439 1.15310
 H2016 H 0.61123 0.76676 1.06680
 C2017 C 0.86836 1.28544 0.83720
 C2018 C 0.87861 1.27623 0.86179
 C2019 C 0.89569 1.25060 0.86384
 C2020 C 0.90592 1.24314 0.88905
 H2021 H 0.87362 1.28754 0.88113
 H2022 H 0.89727 1.23656 0.84586
 H2023 H 0.87445 1.27548 0.81746
 H2024 H 0.90276 1.25703 0.90697
 C2025 C 0.86063 0.80157 0.38579
 C2026 C 0.88411 0.78677 0.38197
 C2027 C 0.88946 0.76044 0.39748
 C2028 C 0.91330 0.74643 0.39269
 H2029 H 0.89946 0.79377 0.36649
 H2030 H 0.87343 0.75213 0.41139
 H2031 H 0.84546 0.79488 0.40157
 H2032 H 0.92828 0.75556 0.37800
 C2033 C 0.36816 1.30746 0.38947
 C2034 C 0.39172 1.29243 0.38670
 C2035 C 0.39614 1.26548 0.40118
 C2036 C 0.41980 1.25113 0.39615
 H2037 H 0.40814 1.29974 0.37257
 H2038 H 0.37968 1.25715 0.41454
 H2039 H 0.35176 1.30061 0.40382
 H2040 H 0.43513 1.26020 0.38181
 C2041 C 0.35619 0.79897 0.88616
 C2042 C 0.37795 0.78235 0.88016
 C2043 C 0.38267 0.75571 0.89512
 C2044 C 0.40461 0.73978 0.88778
 H2045 H 0.39249 0.78822 0.86344
 H2046 H 0.36786 0.74914 0.91121
 H2047 H 0.34169 0.79330 0.90298
 H2048 H 0.41837 0.74741 0.87108
 C2049 C 1.14194 0.69685 0.88575
 C2050 C 1.11777 0.71090 0.88724
 C2051 C 1.11462 0.73692 0.90393
 C2052 C 1.08985 0.74997 0.90431
 H2053 H 1.10008 0.70358 0.87510
 H2054 H 1.13270 0.74639 0.91366
 H2055 H 1.15944 0.70355 0.89851
 H2056 H 1.07260 0.74014 0.89337
 C2057 C 1.14143 0.19132 0.37261
 C2058 C 1.12756 0.21373 0.36312
 C2059 C 1.11975 0.23707 0.38241
 C2060 C 1.10795 0.26018 0.37174
 H2061 H 1.12330 0.21562 0.34060
 H2062 H 1.12342 0.23523 0.40502
 H2063 H 1.14695 0.19029 0.39490
 H2064 H 1.10398 0.26069 0.34907
 C2065 C 0.64402 0.70349 0.38311
 C2066 C 0.61913 0.71641 0.38279
 C2067 C 0.61246 0.74061 0.40097
 C2068 C 0.58724 0.75276 0.39891
 H2069 H 0.60337 0.70963 0.36789
 H2070 H 0.62860 0.74928 0.41424
 H2071 H 0.65968 0.70952 0.39841
 H2072 H 0.57219 0.74357 0.38459
 C2073 C 0.63626 0.18775 0.89472
 C2074 C 0.61396 0.20454 0.89234
 C2075 C 0.61085 0.23083 0.90843
 C2076 C 0.58794 0.24647 0.90431
 H2077 H 0.59779 0.19930 0.87724
 H2078 H 0.62764 0.23783 0.92192
 H2079 H 0.65230 0.19240 0.91013
 H2080 H 0.57216 0.23840 0.89009
 C2081 C 0.85907 0.69450 1.11032
 C2082 C 0.88276 0.70910 1.11134
 C2083 C 0.88622 0.73600 1.09675
 C2084 C 0.90934 0.75076 1.10159
 H2085 H 0.89978 0.70174 1.12458
 H2086 H 0.86929 0.74439 1.08411
 H2087 H 0.84209 0.70123 1.09673
 H2088 H 0.92513 0.74196 1.11552
 C2089 C 0.86538 0.22604 0.64881
 C2090 C 0.87322 0.23048 0.62205
 C2091 C 0.89024 0.25478 0.61467
 C2092 C 0.89962 0.25827 0.58824
 H2093 H 0.86809 0.21544 0.60573
 H2094 H 0.89425 0.27047 0.63068
 H2095 H 0.87204 0.24017 0.66538
 H2096 H 0.89415 0.24327 0.57200
 C2097 C 0.37156 0.70783 0.65137
 C2098 C 0.36867 0.72512 0.62921
 C2099 C 0.38474 0.75131 0.62620
 C2100 C 0.38021 0.76751 0.60345
 H2101 H 0.35358 0.72015 0.61291
 H2102 H 0.39902 0.75753 0.64273
 H2103 H 0.38683 0.71241 0.66759
 H2104 H 0.36522 0.76020 0.58797
 C2105 C 0.37021 0.21018 1.15248
 C2106 C 0.37418 0.22323 1.12776
 C2107 C 0.39139 0.24872 1.12570
 C2108 C 0.39627 0.26011 1.10028
 H2109 H 0.36448 0.21508 1.10877
 H2110 H 0.39821 0.25913 1.14484
 H2111 H 0.38103 0.21751 1.17118
 H2112 H 0.38820 0.24960 1.08168
 C2113 C 1.11166 1.13359 0.69027
 C2114 C 1.11724 1.11151 0.70691
 C2115 C 1.10113 1.10535 0.73298
 C2116 C 1.10877 1.08378 0.74954
 H2117 H 1.13493 1.09810 0.70189
 H2118 H 1.08418 1.11921 0.73891
 H2119 H 1.09392 1.14700 0.69506
 H2120 H 1.12636 1.07104 0.74261
 C2121 C 1.14380 0.61672 0.18007
 C2122 C 1.13115 0.62635 0.20355
 C2123 C 1.12689 0.60789 0.22878
 C2124 C 1.11639 0.61842 0.25289
 H2125 H 1.12414 0.64791 0.20441
 H2126 H 1.13094 0.58566 0.22715
 H2127 H 1.15150 0.59536 0.18041
 H2128 H 1.11181 0.64064 0.25331
 C2129 C 0.62643 1.11516 0.19327
 C2130 C 0.61307 1.13142 0.21207
 C2131 C 0.60469 1.12200 0.24105
 C2132 C 0.61139 1.09712 0.25305
 H2133 H 0.60783 1.15273 0.20630
 H2134 H 0.59274 1.13720 0.25295
 H2135 H 0.63166 1.09391 0.19897
 H2136 H 0.62506 1.08269 0.24208
 C2137 C 0.61650 0.63582 0.69928
 C2138 C 0.61974 0.61227 0.71415
 C2139 C 0.60358 0.60698 0.74033
 C2140 C 0.60762 0.58322 0.75473
 H2141 H 0.63511 0.59689 0.70737
 H2142 H 0.58974 0.62312 0.74834
 H2143 H 0.60079 0.65097 0.70576
 H2144 H 0.62239 0.56812 0.74614
 C2145 C 0.88833 0.85394 0.69425
 C2146 C 0.88905 0.87823 0.70792
 C2147 C 0.90503 0.88178 0.73430
 C2148 C 0.90382 0.90631 0.74756
 H2149 H 0.87645 0.89557 0.70028
 H2150 H 0.91526 0.86394 0.74403
 H2151 H 0.90151 0.83676 0.70116
 H2152 H 0.89239 0.92329 0.73751
 C2153 C 0.85689 0.38667 0.19361
 C2154 C 0.88113 0.38697 0.20754
 C2155 C 0.88565 0.40499 0.23244
 C2156 C 0.91135 0.40660 0.24319
 H2157 H 0.89800 0.37313 0.20096
 H2158 H 0.86795 0.41474 0.24298
 H2159 H 0.84064 0.40149 0.19951
 H2160 H 0.92816 0.39604 0.23184
 C2161 C 0.34935 0.88457 0.20394
 C2162 C 0.37421 0.88640 0.21652
 C2163 C 0.37851 0.90320 0.24237
 C2164 C 0.40385 0.90353 0.25417
 H2165 H 0.39174 0.87450 0.20808
 H2166 H 0.36085 0.91328 0.25268
 H2167 H 0.33192 0.89701 0.21170
 H2168 H 0.42065 0.89224 0.24357
 C2169 C 0.35031 0.37902 0.70132
 C2170 C 0.37283 0.37733 0.71814
 C2171 C 0.37699 0.39459 0.74365
 C2172 C 0.40114 0.39167 0.75768
 H2173 H 0.38911 0.36218 0.71327
 H2174 H 0.36032 0.40800 0.75133
 H2175 H 0.33436 0.39468 0.70548
 H2176 H 0.41676 0.37761 0.74878
 C2177 C 1.13681 0.89198 1.30806
 C2178 C 1.11389 0.88916 1.29221
 C2179 C 1.10787 0.90727 1.26758
 C2180 C 1.08324 0.90462 1.25465
 H2181 H 1.09922 0.87256 1.29700
 H2182 H 1.12398 0.92085 1.25924
 H2183 H 1.15080 0.90929 1.30394
 H2184 H 1.06814 0.89044 1.26409
 C2185 C 1.11681 0.35041 0.80087
 C2186 C 1.11720 0.37393 0.78552
 C2187 C 1.09981 0.37772 0.75995
 C2188 C 1.09992 0.40251 0.74692
 H2189 H 1.13120 0.39067 0.79141
 H2190 H 1.08908 0.36007 0.75079
 H2191 H 1.10196 0.33426 0.79548
 H2192 H 1.11155 0.41929 0.75675
 C2193 C 0.60727 0.85999 0.80361
 C2194 C 0.60638 0.88454 0.79027
 C2195 C 0.59047 0.88841 0.76388
 C2196 C 0.59166 0.91295 0.75049
 H2197 H 0.61887 0.90170 0.79805
 H2198 H 0.58033 0.87068 0.75420
 H2199 H 0.59423 0.84299 0.79642
 H2200 H 0.60304 0.92982 0.76043
 C2201 C 0.62330 0.35253 1.29975
 C2202 C 0.62338 0.37674 1.28550
 C2203 C 0.60618 0.38188 1.26014
 C2204 C 0.60809 0.40665 1.24700
 H2205 H 0.63739 0.39318 1.29213
 H2206 H 0.59379 0.36511 1.25155
 H2207 H 0.60884 0.33617 1.29402
 H2208 H 0.62145 0.42235 1.25636
 C2209 C 0.87138 1.15352 1.29073
 C2210 C 0.86415 1.13372 1.27229
 C2211 C 0.88109 1.12732 1.24698
 C2212 C 0.87269 1.10699 1.22970
 H2213 H 0.84540 1.12154 1.27597
 H2214 H 0.90013 1.13881 1.24309
 H2215 H 0.89009 1.16567 1.28684
 H2216 H 0.85347 1.09619 1.23513
 C2217 C 0.88396 0.63442 0.80316
 C2218 C 0.88196 0.61076 0.78842
 C2219 C 0.89747 0.60618 0.76176
 C2220 C 0.89322 0.58263 0.74731
 H2221 H 0.86764 0.59468 0.79557
 H2222 H 0.91057 0.62262 0.75331
 H2223 H 0.89863 0.65038 0.79655
 H2224 H 0.87906 0.56727 0.75630
 C2225 C 0.36016 1.12381 0.81155
 C2226 C 0.38217 1.12835 0.79450
 C2227 C 0.38759 1.11141 0.76897
 C2228 C 0.41004 1.11704 0.75290
 H2229 H 0.39633 1.14539 0.79896
 H2230 H 0.37290 1.09534 0.76325
 H2231 H 0.34635 1.10649 0.80715
 H2232 H 0.42389 1.13344 0.76003
 C2233 C 0.36453 0.62536 1.31348
 C2234 C 0.38606 0.63018 1.29592
 C2235 C 0.39102 0.61334 1.27019
 C2236 C 0.41303 0.61930 1.25365
 H2237 H 0.40002 0.64747 1.30001
 H2238 H 0.37618 0.59741 1.26443
 H2239 H 0.35099 0.60772 1.30949
 H2240 H 0.42691 0.63575 1.26061
 C2241 C 1.14496 1.29239 0.87826
 C2242 C 1.12406 1.27455 0.87303
 C2243 C 1.11935 1.24861 0.88946
 C2244 C 1.09766 1.23241 0.88250
 H2245 H 1.10968 1.27900 0.85585
 H2246 H 1.13354 1.24292 0.90634
 H2247 H 1.15922 1.28809 0.89556
 H2248 H 1.08454 1.23940 0.86510
 C2249 C 1.11839 0.80519 0.35761
 C2250 C 1.12124 0.78783 0.37964
 C2251 C 1.10553 0.76135 0.38187
 C2252 C 1.10828 0.74583 0.40533
 H2253 H 1.13574 0.79309 0.39639
 H2254 H 1.09300 0.75435 0.36423
 H2255 H 1.10342 0.80038 0.34116
 H2256 H 1.12139 0.75405 0.42206
 C2257 C 0.65561 1.29813 0.38105
 C2258 C 0.63323 1.28148 0.38055
 C2259 C 0.63064 1.25598 0.39823
 C2260 C 0.60641 1.24219 0.39769
 H2261 H 0.61626 1.28635 0.36613
 H2262 H 0.64854 1.24776 0.40956
 H2263 H 0.67210 1.29386 0.39619
 H2264 H 0.58945 1.25150 0.38562
 C2265 C 0.63672 0.80023 0.88249
 C2266 C 0.61411 0.78429 0.87963
 C2267 C 0.61111 0.75737 0.89444
 C2268 C 0.58839 0.74200 0.88962
 H2269 H 0.59765 0.79077 0.86526
 H2270 H 0.62788 0.74984 0.90779
 H2271 H 0.65309 0.79414 0.89711
 H2272 H 0.57266 0.75039 0.87537
 C2273 C 0.88280 1.30495 1.13768
 C2274 C 0.87900 1.28923 1.11462
 C2275 C 0.89552 1.26383 1.10884
 C2276 C 0.88996 1.24898 1.08550
 H2277 H 0.86249 1.29465 1.09987
 H2278 H 0.91084 1.25700 1.12418
 H2279 H 0.89962 1.30018 1.15226
 H2280 H 0.87419 1.25710 1.07113
 C2281 C 0.86038 0.79711 0.61313
 C2282 C 0.88380 0.78187 0.61499
 C2283 C 0.88781 0.75539 0.59961
 C2284 C 0.91111 0.74050 0.60421
 H2285 H 0.90025 0.78851 0.62917
 H2286 H 0.87127 0.74754 0.58629
 H2287 H 0.84398 0.79098 0.59868
 H2288 H 0.92653 0.74895 0.61861
 C2289 C 0.38364 1.30107 0.64848
 C2290 C 0.38585 1.28602 0.62482
 C2291 C 0.40611 1.26288 0.62205
 C2292 C 0.41261 1.25386 0.59610
 H2293 H 0.37248 1.29072 0.60686
 H2294 H 0.41309 1.25172 0.64079
 H2295 H 0.39848 1.29747 0.66546
 H2296 H 0.40473 1.26567 0.57808
 C2297 C 0.37752 0.80584 1.14545
 C2298 C 0.37461 0.78842 1.12350
 C2299 C 0.39357 0.76434 1.11855
 C2300 C 0.38998 0.74893 1.09520
 H2301 H 0.35745 0.79157 1.10884
 H2302 H 0.40917 0.75889 1.13419
 H2303 H 0.39506 0.80295 1.15967
 H2304 H 0.37385 0.75570 1.08054
 C2305 C 0.85844 0.69260 0.88515
 C2306 C 0.88070 0.70897 0.88089
 C2307 C 0.88501 0.73532 0.89647
 C2308 C 0.90753 0.75080 0.89031
 H2309 H 0.89600 0.70322 0.86482
 H2310 H 0.86945 0.74222 0.91171
 H2311 H 0.84316 0.69797 0.90136
 H2312 H 0.92202 0.74280 0.87442
 C2313 C 0.85673 0.20653 0.37524
 C2314 C 0.87900 0.22259 0.36930
 C2315 C 0.88618 0.24762 0.38593
 C2316 C 0.90812 0.26319 0.37781
 H2317 H 0.89202 0.21785 0.35098
 H2318 H 0.87307 0.25339 0.40376
 H2319 H 0.84391 0.21120 0.39372
 H2320 H 0.92026 0.25609 0.35964
 C2321 C 0.38240 0.70924 0.36785
 C2322 C 0.37701 0.72608 0.38978
 C2323 C 0.39171 0.75273 0.39361
 C2324 C 0.38516 0.76877 0.41591
 H2325 H 0.36097 0.72040 0.40510
 H2326 H 0.40686 0.75928 0.37783
 H2327 H 0.39862 0.71467 0.35265
 H2328 H 0.36939 0.76114 0.43065
 C2329 C 0.37980 0.20450 0.86702
 C2330 C 0.37521 0.22218 0.88847
 C2331 C 0.39226 0.24750 0.89222
 C2332 C 0.38728 0.26390 0.91461
 H2333 H 0.35837 0.21820 0.90347
 H2334 H 0.40792 0.25282 0.87646
 H2335 H 0.39698 0.20853 0.85243
 H2336 H 0.37111 0.25736 0.92945
 C2337 C 1.13854 0.70051 1.12016
 C2338 C 1.11902 0.71593 1.13314
 C2339 C 1.11311 0.74397 1.12110
 C2340 C 1.08845 0.75675 1.12436
 H2341 H 1.10676 0.70763 1.15065
 H2342 H 1.12916 0.75364 1.10815
 H2343 H 1.14858 0.70953 1.10151
 H2344 H 1.07288 0.74699 1.13793
 C2345 C 1.13801 0.19511 0.61157
 C2346 C 1.11472 0.21056 0.61277
 C2347 C 1.11182 0.23652 0.59593
 C2348 C 1.08786 0.25087 0.59719
 H2349 H 1.09779 0.20453 0.62693
 H2350 H 1.12965 0.24466 0.58434
 H2351 H 1.15437 0.20108 0.59671
 H2352 H 1.07088 0.24212 0.60971
 C2353 C 0.63773 0.69746 0.61883
 C2354 C 0.61490 0.71301 0.62413
 C2355 C 0.60887 0.73916 0.60857
 C2356 C 0.58579 0.75402 0.61492
 H2357 H 0.60043 0.70665 0.64072
 H2358 H 0.62374 0.74629 0.59280
 H2359 H 0.65212 0.70360 0.60210
 H2360 H 0.57197 0.74592 0.63132
 C2361 C 0.63457 0.18237 1.11561
 C2362 C 0.61903 0.20300 1.12673
 C2363 C 0.61421 0.22928 1.11051
 C2364 C 0.59828 0.24974 1.12138
 H2365 H 0.60961 0.20052 1.14760
 H2366 H 0.62305 0.23135 1.08939
 H2367 H 0.64377 0.18566 1.09473
 H2368 H 0.58928 0.24632 1.14232
 C2369 C 1.29978 1.14644 0.89134
 C2370 C 1.28579 1.12246 0.88904
 C2371 C 1.25946 1.11705 0.90460
 C2372 C 1.24670 1.09249 0.90112
 H2373 H 1.29353 1.10652 0.87464
 H2374 H 1.25016 1.13344 0.91735
 H2375 H 1.29259 1.16227 0.90613
 H2376 H 1.25690 1.07716 0.88758
 C2377 C 1.30429 0.64785 0.39323
 C2378 C 1.29190 0.62299 0.39275
 C2379 C 1.26500 0.61793 0.40718
 C2380 C 1.25304 0.59296 0.40462
 H2381 H 1.30107 0.60627 0.38022
 H2382 H 1.25420 0.63506 0.41756
 H2383 H 1.29571 0.66447 0.40628
 H2384 H 1.26434 0.57680 0.39311
 C2385 C 0.79227 1.13179 0.35046
 C2386 C 0.78537 1.12186 0.37601
 C2387 C 0.76017 1.10453 0.37999
 C2388 C 0.75438 1.09343 0.40535
 H2389 H 0.79843 1.12655 0.39412
 H2390 H 0.74522 1.10274 0.36287
 H2391 H 0.78018 1.12564 0.33212
 H2392 H 0.76889 1.09672 0.42263
 C2393 C 0.80197 0.61018 0.86033
 C2394 C 0.78826 0.60886 0.88501
 C2395 C 0.76223 0.59267 0.88815
 C2396 C 0.74935 0.59196 0.91333
 H2397 H 0.79581 0.62070 0.90298
 H2398 H 0.75247 0.58370 0.86960
 H2399 H 0.79506 0.59758 0.84265
 H2400 H 0.75933 0.60215 0.93113
 C2401 C 1.29108 0.85560 1.12376
 C2402 C 1.27199 0.87527 1.12977
 C2403 C 1.24641 0.87968 1.11279
 C2404 C 1.22871 0.90013 1.12044
 H2405 H 1.27528 0.88879 1.14787
 H2406 H 1.24253 0.86670 1.09449
 H2407 H 1.28802 0.84189 1.10578
 H2408 H 1.23424 0.91245 1.13886
 C2409 C 1.29858 0.34824 0.61807
 C2410 C 1.28408 0.37196 0.61505
 C2411 C 1.25846 0.37399 0.59760
 C2412 C 1.24642 0.39903 0.59421
 H2413 H 1.29086 0.39037 0.62640
 H2414 H 1.24845 0.35527 0.58992
 H2415 H 1.29282 0.33002 0.60587
 H2416 H 1.25705 0.41700 0.60298
 C2417 C 0.80396 0.87924 0.64069
 C2418 C 0.78685 0.87643 0.61860
 C2419 C 0.76051 0.89249 0.61596
 C2420 C 0.74424 0.88791 0.59349
 H2421 H 0.79192 0.86123 0.60230
 H2422 H 0.75402 0.90652 0.63277
 H2423 H 0.79930 0.89467 0.65686
 H2424 H 0.75168 0.87309 0.57772
 C2425 C 0.79562 0.35516 1.11911
 C2426 C 0.78193 0.37939 1.11764
 C2427 C 0.75536 0.38216 1.10241
 C2428 C 0.74342 0.40730 1.10043
 H2429 H 0.79032 0.39757 1.12824
 H2430 H 0.74497 0.36367 1.09471
 H2431 H 0.78808 0.33719 1.10756
 H2432 H 0.75436 0.42506 1.10924
 C2433 C 0.68344 1.09397 1.11309
 C2434 C 0.70064 1.10282 1.09268
 C2435 C 0.72644 1.08737 1.08597
 C2436 C 0.74669 1.10032 1.07156
 H2437 H 0.69753 1.12333 1.08332
 H2438 H 0.72943 1.06658 1.09452
 H2439 H 0.68720 1.07388 1.12313
 H2440 H 0.74232 1.12104 1.06321
 C2441 C 0.69842 0.61592 0.63927
 C2442 C 0.71458 0.61965 0.61634
 C2443 C 0.74042 0.60306 0.61172
 C2444 C 0.75577 0.60740 0.58829
 H2445 H 0.70897 0.63554 0.60090
 H2446 H 0.74722 0.58847 0.62790
 H2447 H 0.70382 0.59974 0.65447
 H2448 H 0.74814 0.62274 0.57314
 C2449 C 0.19881 1.11867 0.63737
 C2450 C 0.21931 1.12866 0.62102
 C2451 C 0.24582 1.11356 0.61706
 C2452 C 0.26601 1.12533 0.60150
 H2453 H 0.21662 1.14860 0.61035
 H2454 H 0.24828 1.09289 0.62608
 H2455 H 0.20163 1.09911 0.64869
 H2456 H 0.26205 1.14579 0.59231
 C2457 C 0.19470 0.62416 1.09159
 C2458 C 0.21106 0.60260 1.09807
 C2459 C 0.23815 0.59903 1.08366
 C2460 C 0.25774 0.58369 1.09638
 H2461 H 0.20653 0.59017 1.11684
 H2462 H 0.24273 0.61118 1.06482
 H2463 H 0.19983 0.63708 1.07334
 H2464 H 0.25174 0.57222 1.11538
 C2465 C 0.69134 0.88358 0.85790
 C2466 C 0.70805 0.87999 0.88024
 C2467 C 0.73453 0.89525 0.88351
 C2468 C 0.75025 0.88984 0.90627
 H2469 H 0.70258 0.86457 0.89624
 H2470 H 0.74155 0.90927 0.86689
 H2471 H 0.69626 0.89929 0.84204
 H2472 H 0.74216 0.87514 0.92185
 C2473 C 0.70848 0.37882 0.34924
 C2474 C 0.72033 0.38408 0.37413
 C2475 C 0.74558 0.40139 0.37626
 C2476 C 0.75620 0.40637 0.40181
 H2477 H 0.71168 0.37476 0.39329
 H2478 H 0.75683 0.40751 0.35719
 H2479 H 0.71605 0.38914 0.33018
 H2480 H 0.74499 0.39886 0.42042
 C2481 C 0.19705 0.86528 0.38614
 C2482 C 0.21106 0.88938 0.38461
 C2483 C 0.23675 0.89459 0.40102
 C2484 C 0.25037 0.91871 0.39724
 H2485 H 0.20387 0.90561 0.37025
 H2486 H 0.24504 0.87838 0.41471
 H2487 H 0.20385 0.84908 0.40070
 H2488 H 0.24164 0.93381 0.38246
 C2489 C 0.19680 0.37780 0.85742
 C2490 C 0.21388 0.37501 0.87966
 C2491 C 0.23777 0.39404 0.88449
 C2492 C 0.25305 0.39091 0.90806
 H2493 H 0.21035 0.35813 0.89465
 H2494 H 0.24286 0.40979 0.86880
 H2495 H 0.20001 0.39490 0.84263
 H2496 H 0.24650 0.37479 0.92290
   
