data_POSCAR
  _audit_creation_date              2014-09-24
  _audit_creation_method            'ToBaCCo'
  _symmetry_space_group_name_H-M    'P1'
  _symmetry_Int_Tables_number       1
  _symmetry_cell_setting            triclinic
  loop_
  _symmetry_equiv_pos_as_xyz
 x,y,z
_cell_length_a 42.5123
_cell_length_b 43.0113
_cell_length_c 42.4758
_cell_angle_alpha 88.832300
_cell_angle_beta 90.124300
_cell_angle_gamma 91.064800
loop_
  _atom_site_label
  _atom_site_type_symbol
  _atom_site_fract_x
  _atom_site_fract_y
  _atom_site_fract_z
C1 C 0.73694 0.62471 1.04091
 C2 C 0.75273 0.63785 1.01480
 C3 C 0.78344 0.64975 1.01837
 C4 C 0.79917 0.64723 1.04741
 C5 C 0.78260 0.63440 1.07349
 C6 C 0.75156 0.62244 1.07075
 C7 C 0.73897 0.63457 0.98295
 C8 C 0.70793 0.64336 0.97638
 C9 C 0.69443 0.63779 0.94666
 C10 C 0.71236 0.62248 0.92398
 C11 C 0.74360 0.61408 0.92999
 C12 C 0.75665 0.62052 0.95956
 H13 H 0.71400 0.61418 1.03700
 H14 H 0.79574 0.65894 0.99779
 H15 H 0.69474 0.65493 0.99434
 H16 H 0.78062 0.61402 0.96477
 H17 H 0.79380 0.63518 1.09627
 H18 H 0.70166 0.61654 0.90173
 C19 C 0.74908 0.39618 0.47104
 C20 C 0.76444 0.37840 0.49422
 C21 C 0.79211 0.36298 0.48675
 C22 C 0.80386 0.36435 0.45593
 C23 C 0.78818 0.38218 0.43292
 C24 C 0.76074 0.39830 0.44007
 C25 C 0.75074 0.37489 0.52598
 C26 C 0.72030 0.36215 0.52976
 C27 C 0.70703 0.35910 0.55981
 C28 C 0.72440 0.36870 0.58607
 C29 C 0.75490 0.38144 0.58281
 C30 C 0.76796 0.38437 0.55245
 H31 H 0.72822 0.40856 0.47754
 H32 H 0.80355 0.34874 0.50456
 H33 H 0.70695 0.35479 0.50937
 H34 H 0.79112 0.39478 0.54905
 H35 H 0.79721 0.38293 0.40929
 H36 H 0.71418 0.36554 0.60928
 C37 C 0.24858 -0.10152 -0.04208
 C38 C 0.26121 -0.11842 -0.01685
 C39 C 0.29041 -0.13251 -0.02008
 C40 C 0.30709 -0.13046 -0.04880
 C41 C 0.29321 -0.11394 -0.07434
 C42 C 0.26423 -0.09890 -0.07112
 C43 C 0.24462 -0.11891 0.01365
 C44 C 0.21362 -0.13046 0.01585
 C45 C 0.19607 -0.12776 0.04382
 C46 C 0.21062 -0.11264 0.06945
 C47 C 0.24164 -0.10079 0.06740
 C48 C 0.25865 -0.10470 0.03955
 H49 H 0.22685 -0.08942 -0.03836
 H50 H 0.30036 -0.14413 0.00036
 H51 H 0.20297 -0.14042 -0.00491
 H52 H 0.28260 -0.09588 0.03749
 H53 H 0.30429 -0.11374 -0.09717
 H54 H 0.19823 -0.11027 0.09142
 C55 C 0.23697 0.12331 0.52444
 C56 C 0.25340 0.14103 0.50160
 C57 C 0.28207 0.15574 0.50931
 C58 C 0.29421 0.15314 0.54004
 C59 C 0.27755 0.13491 0.56253
 C60 C 0.24935 0.11954 0.55482
 C61 C 0.24166 0.14177 0.46904
 C62 C 0.21327 0.15636 0.46159
 C63 C 0.20090 0.15504 0.43092
 C64 C 0.21732 0.13862 0.40803
 C65 C 0.24534 0.12342 0.41545
 C66 C 0.25763 0.12547 0.44598
 H67 H 0.21531 0.11129 0.51808
 H68 H 0.29492 0.16875 0.49125
 H69 H 0.20105 0.16870 0.47971
 H70 H 0.27922 0.11374 0.45210
 H71 H 0.28628 0.13292 0.58645
 H72 H 0.20748 0.13630 0.38463
 C73 C 0.10327 0.54352 0.24021
 C74 C 0.11948 0.51948 0.25548
 C75 C 0.13319 0.52425 0.28505
 C76 C 0.13077 0.55311 0.29957
 C77 C 0.11389 0.57684 0.28423
 C78 C 0.09985 0.57267 0.25442
 C79 C 0.12169 0.48908 0.24044
 C80 C 0.14324 0.48490 0.21597
 C81 C 0.14572 0.45576 0.20206
 C82 C 0.12570 0.43123 0.21207
 C83 C 0.10343 0.43532 0.23591
 C84 C 0.10182 0.46437 0.25029
 H85 H 0.09408 0.53913 0.21694
 H86 H 0.14555 0.50543 0.29668
 H87 H 0.15849 0.50406 0.20833
 H88 H 0.08526 0.46786 0.26918
 H89 H 0.11144 0.59864 0.29606
 H90 H 0.12699 0.40900 0.20062
 C91 C -0.11765 -0.04498 0.23414
 C92 C -0.13431 -0.02150 0.24864
 C93 C -0.15124 -0.02815 0.27637
 C94 C -0.15241 -0.05858 0.28954
 C95 C -0.13471 -0.08166 0.27475
 C96 C -0.11735 -0.07505 0.24728
 C97 C -0.13386 0.01011 0.23456
 C98 C -0.14472 0.01517 0.20369
 C99 C -0.14350 0.04515 0.18943
 C100 C -0.12972 0.06950 0.20698
 C101 C -0.11980 0.06490 0.23824
 C102 C -0.12206 0.03502 0.25188
 H103 H -0.10502 -0.03973 0.21252
 H104 H -0.16466 -0.00975 0.28657
 H105 H -0.15513 -0.00446 0.19181
 H106 H -0.11436 0.03096 0.27593
 H107 H -0.13305 -0.10473 0.28513
 H108 H -0.12570 0.09214 0.19620
 C109 C 0.38612 0.45797 0.74771
 C110 C 0.37233 0.48320 0.76230
 C111 C 0.36230 0.47987 0.79366
 C112 C 0.36627 0.45174 0.81086
 C113 C 0.38094 0.42690 0.79560
 C114 C 0.39057 0.42964 0.76399
 C115 C 0.36931 0.51326 0.74476
 C116 C 0.35998 0.51383 0.71296
 C117 C 0.35923 0.54194 0.69557
 C118 C 0.36764 0.56976 0.71050
 C119 C 0.37646 0.56970 0.74236
 C120 C 0.37723 0.54137 0.75931
 H121 H 0.39355 0.46057 0.72344
 H122 H 0.35192 0.49964 0.80473
 H123 H 0.35354 0.49230 0.70162
 H124 H 0.38521 0.54108 0.78356
 H125 H 0.38404 0.40493 0.80781
 H126 H 0.36649 0.59171 0.69762
 C127 C 0.61094 1.03596 0.72806
 C128 C 0.62363 1.01205 0.74673
 C129 C 0.63703 1.01890 0.77615
 C130 C 0.63760 1.04962 0.78731
 C131 C 0.62424 1.07311 0.76810
 C132 C 0.61128 1.06660 0.73857
 C133 C 0.62250 0.97978 0.73548
 C134 C 0.63582 0.97264 0.70627
 C135 C 0.63486 0.94199 0.69548
 C136 C 0.61952 0.91883 0.71390
 C137 C 0.60612 0.92553 0.74306
 C138 C 0.60785 0.95615 0.75381
 H139 H 0.60074 1.03066 0.70533
 H140 H 0.64620 0.99997 0.79036
 H141 H 0.64768 0.99081 0.69254
 H142 H 0.59787 0.96168 0.77640
 H143 H 0.62451 1.09701 0.77560
 H144 H 0.61754 0.89538 0.70517
 C145 C -0.03484 0.23204 -0.11364
 C146 C -0.00951 0.24842 -0.12737
 C147 C -0.01460 0.27686 -0.14321
 C148 C -0.04531 0.28872 -0.14640
 C149 C -0.07041 0.27164 -0.13204
 C150 C -0.06532 0.24353 -0.11569
 C151 C 0.02212 0.23497 -0.12525
 C152 C 0.02734 0.20555 -0.13766
 C153 C 0.05632 0.19050 -0.13329
 C154 C 0.07966 0.20600 -0.11533
 C155 C 0.07491 0.23574 -0.10310
 C156 C 0.04608 0.25027 -0.10874
 H157 H -0.03075 0.21012 -0.10138
 H158 H 0.00529 0.28870 -0.15427
 H159 H 0.00856 0.19522 -0.15131
 H160 H 0.04176 0.27314 -0.09969
 H161 H -0.09400 0.28060 -0.13201
 H162 H 0.10127 0.19443 -0.10941
 C163 C 0.54866 0.24355 0.11972
 C164 C 0.52434 0.26063 0.13276
 C165 C 0.53072 0.29025 0.14480
 C166 C 0.56154 0.30261 0.14437
 C167 C 0.58558 0.28533 0.13077
 C168 C 0.57943 0.25585 0.11835
 C169 C 0.49229 0.24708 0.13402
 C170 C 0.48644 0.21945 0.15128
 C171 C 0.45609 0.20605 0.15238
 C172 C 0.43189 0.22020 0.13495
 C173 C 0.43741 0.24792 0.11761
 C174 C 0.46774 0.26138 0.11751
 H175 H 0.54328 0.22097 0.10998
 H176 H 0.51191 0.30303 0.15544
 H177 H 0.50547 0.20887 0.16443
 H178 H 0.47240 0.28292 0.10453
 H179 H 0.60936 0.29479 0.13009
 H180 H 0.40881 0.20923 0.13424
 C181 C 1.04212 0.73743 0.62863
 C182 C 1.01859 0.75630 0.64044
 C183 C 1.02642 0.78634 0.65065
 C184 C 1.05773 0.79793 0.64898
 C185 C 1.08066 0.77860 0.63583
 C186 C 1.07327 0.74837 0.62598
 C187 C 0.98565 0.74453 0.64131
 C188 C 0.97864 0.71465 0.65365
 C189 C 0.94784 0.70245 0.65258
 C190 C 0.92412 0.72039 0.63849
 C191 C 0.93045 0.75055 0.62654
 C192 C 0.96142 0.76250 0.62832
 H193 H 1.03594 0.71420 0.62106
 H194 H 1.00799 0.79977 0.66093
 H195 H 0.99720 0.70120 0.66446
 H196 H 0.96694 0.78559 0.61904
 H197 H 1.10428 0.78748 0.63189
 H198 H 0.90073 0.71035 0.63619
 C199 C 0.45949 0.74144 0.39635
 C200 C 0.48429 0.75696 0.38046
 C201 C 0.47957 0.78666 0.36707
 C202 C 0.45004 0.80068 0.36887
 C203 C 0.42565 0.78488 0.38530
 C204 C 0.43005 0.75532 0.39899
 C205 C 0.51467 0.74140 0.37636
 C206 C 0.51543 0.71194 0.36290
 C207 C 0.54413 0.69744 0.35802
 C208 C 0.57229 0.71210 0.36733
 C209 C 0.57198 0.74159 0.38104
 C210 C 0.54293 0.75615 0.38527
 H211 H 0.46302 0.71828 0.40601
 H212 H 0.49876 0.79840 0.35467
 H213 H 0.49373 0.70061 0.35549
 H214 H 0.54206 0.77864 0.39621
 H215 H 0.40276 0.79535 0.38693
 H216 H 0.59442 0.70069 0.36341
 C217 C 0.42428 -0.03901 0.26903
 H218 H 0.43993 -0.02367 0.25572
 C219 C 0.43629 -0.06504 0.28519
 H220 H 0.46130 -0.06930 0.28461
 C221 C 0.37257 -0.05292 0.28542
 H222 H 0.34765 -0.04823 0.28510
 C223 C 0.38347 -0.07866 0.30204
 H224 H 0.36665 -0.09378 0.31423
 N225 N 0.39286 -0.03342 0.26976
 C226 C 0.38375 0.04610 0.20534
 H227 H 0.36185 0.03758 0.19552
 C228 C 0.39646 0.07423 0.19415
 H229 H 0.38470 0.08670 0.17524
 C230 C 0.42367 0.04222 0.24420
 H231 H 0.43294 0.03067 0.26498
 C232 C 0.43756 0.07021 0.23331
 H233 H 0.45793 0.07975 0.24533
 Zn234 Zn 0.37149 -0.00050 0.24939
 N235 N 0.39717 0.03081 0.23014
 C236 C 0.32397 0.03917 0.26901
 N237 N 0.34709 0.02009 0.27936
 C238 C 0.35417 0.01726 0.31050
 C239 C 0.33692 0.03315 0.33275
 C240 C 0.30584 0.05517 0.29047
 C241 C 0.35909 -0.02712 0.19122
 C242 C 0.34096 -0.03933 0.16685
 C243 C 0.29507 -0.03663 0.20009
 C244 C 0.31402 -0.02400 0.22369
 N245 N 0.34530 -0.01889 0.21859
 H246 H 0.31939 0.04170 0.24404
 H247 H 0.37357 0.00304 0.31812
 H248 H 0.34341 0.03087 0.35732
 H249 H 0.28693 0.06948 0.28170
 H250 H 0.38414 -0.02343 0.18808
 H251 H 0.35224 -0.04520 0.14499
 H252 H 0.27009 -0.03999 0.20421
 H253 H 0.30372 -0.01820 0.24601
 C254 C 0.42321 0.08691 0.20865
 C255 C 0.41570 -0.08507 0.30220
 C256 C 0.30845 -0.04381 0.17101
 C257 C 0.31205 0.05215 0.32291
 C258 C 0.09272 1.02657 0.78861
 H259 H 0.09189 1.00267 0.79702
 C260 C 0.07895 1.04970 0.80648
 H261 H 0.06715 1.04344 0.82834
 C262 C 0.11218 1.06457 0.75206
 H263 H 0.12618 1.07069 0.73162
 C264 C 0.09849 1.08823 0.76893
 H265 H 0.10136 1.11211 0.76078
 N266 N 0.11031 1.03455 0.76280
 C267 C 0.13768 0.95456 0.70846
 H268 H 0.16093 0.96352 0.70279
 C269 C 0.12680 0.92761 0.69429
 H270 H 0.14204 0.91619 0.67793
 C271 C 0.08939 0.95977 0.73536
 H272 H 0.07490 0.97253 0.75127
 C273 C 0.07749 0.93250 0.72167
 H274 H 0.05398 0.92431 0.72762
 Zn275 Zn 0.13901 1.00603 0.74533
 N276 N 0.11923 0.96995 0.72880
 C277 C 0.19006 0.97147 0.77074
 N278 N 0.16845 0.99353 0.77698
 C279 C 0.16615 1.00550 0.80628
 C280 C 0.18407 0.99363 0.83110
 C281 C 0.20900 0.95935 0.79486
 C282 C 0.14288 1.03022 0.68448
 C283 C 0.15676 1.04355 0.65766
 C284 C 0.20557 1.04864 0.68655
 C285 C 0.19076 1.03492 0.71283
 N286 N 0.16000 1.02596 0.71123
 H287 H 0.19210 0.96258 0.74729
 H288 H 0.14994 1.02383 0.81082
 H289 H 0.18104 1.00262 0.85452
 H290 H 0.22526 0.94102 0.78983
 H291 H 0.11844 1.02278 0.68394
 H292 H 0.14281 1.04600 0.63643
 H293 H 0.22995 1.05603 0.68846
 H294 H 0.20378 1.03145 0.73448
 C295 C 0.09647 0.91591 0.70098
 C296 C 0.08311 1.08100 0.79729
 C297 C 0.18859 1.05283 0.65832
 C298 C 0.20531 0.96984 0.82562
 C299 C 0.60665 0.53877 0.30592
 H300 H 0.62249 0.52542 0.32051
 C301 C 0.58979 0.56260 0.31934
 H302 H 0.59295 0.56710 0.34414
 C303 C 0.58565 0.55089 0.25552
 H304 H 0.58499 0.54674 0.23049
 C305 C 0.56847 0.57518 0.26798
 H306 H 0.55417 0.58934 0.25243
 N307 N 0.60478 0.53373 0.27445
 C308 C 0.63662 0.45231 0.22566
 H309 H 0.66140 0.45794 0.22812
 C310 C 0.62729 0.42551 0.21030
 H311 H 0.64529 0.41099 0.20073
 C312 C 0.58357 0.46563 0.23447
 H313 H 0.56679 0.48149 0.24403
 C314 C 0.57306 0.43859 0.21937
 H315 H 0.54806 0.43371 0.21775
 Zn316 Zn 0.63389 0.50691 0.25604
 N317 N 0.61494 0.47191 0.23705
 C318 C 0.64620 0.46797 0.30632
 N319 N 0.66037 0.49043 0.28807
 C320 C 0.69074 0.49944 0.29331
 C321 C 0.70760 0.48643 0.31853
 C322 C 0.66233 0.45391 0.33118
 C323 C 0.64920 0.52279 0.19375
 C324 C 0.66400 0.53865 0.16887
 C325 C 0.69230 0.56990 0.20651
 C326 C 0.67632 0.55380 0.23083
 N327 N 0.65603 0.52997 0.22411
 H328 H 0.62213 0.46097 0.30149
 H329 H 0.70192 0.51689 0.27834
 H330 H 0.73128 0.49480 0.32287
 H331 H 0.65048 0.43558 0.34461
 H332 H 0.63192 0.50491 0.18860
 H333 H 0.65855 0.53214 0.14495
 H334 H 0.70889 0.58838 0.21213
 H335 H 0.68014 0.56035 0.25499
 C336 C 0.59515 0.41811 0.20693
 C337 C 0.57100 0.58170 0.30020
 C338 C 0.68625 0.56214 0.17509
 C339 C 0.69337 0.46337 0.33803
 C340 C 0.92543 0.45313 0.76657
 H341 H 0.93281 0.46402 0.74457
 C342 C 0.93927 0.42539 0.77688
 H343 H 0.95764 0.41526 0.76300
 C344 C 0.88989 0.45075 0.80954
 H345 H 0.86948 0.45960 0.82123
 C346 C 0.90267 0.42292 0.82033
 H347 H 0.89246 0.41102 0.84069
 N348 N 0.90087 0.46492 0.78272
 C349 C 0.87297 0.54751 0.72947
 H350 H 0.84828 0.54102 0.73028
 C351 C 0.88236 0.57463 0.71372
 H352 H 0.86458 0.58850 0.70216
 C353 C 0.92568 0.53636 0.74322
 H354 H 0.94227 0.52142 0.75514
 C355 C 0.93623 0.56379 0.72774
 H356 H 0.96106 0.56979 0.72798
 Zn357 Zn 0.87414 0.49453 0.76363
 N358 N 0.89443 0.52890 0.74365
 C359 C 0.81650 0.51582 0.78990
 N360 N 0.84793 0.51203 0.79428
 C361 C 0.86307 0.52405 0.81961
 C362 C 0.84656 0.54032 0.84205
 C363 C 0.79909 0.53244 0.81161
 C364 C 0.86002 0.47605 0.70228
 C365 C 0.84521 0.45867 0.67901
 C366 C 0.81170 0.43497 0.71901
 C367 C 0.82748 0.45253 0.74164
 N368 N 0.85083 0.47291 0.73286
 H369 H 0.80513 0.50700 0.76904
 H370 H 0.88823 0.52142 0.82203
 H371 H 0.85919 0.55006 0.86182
 H372 H 0.77417 0.53558 0.80770
 H373 H 0.87936 0.49157 0.69595
 H374 H 0.85274 0.46161 0.65478
 H375 H 0.79313 0.41883 0.72629
 H376 H 0.82133 0.44974 0.76624
 C377 C 0.91431 0.58342 0.71281
 C378 C 0.92694 0.40947 0.80337
 C379 C 0.82075 0.43779 0.68728
 C380 C 0.81422 0.54508 0.83799
 C381 C 0.29713 0.40948 -0.01810
 H382 H 0.30540 0.41004 0.00599
 C383 C 0.31448 0.42463 -0.04198
 H384 H 0.33602 0.43713 -0.03624
 C385 C 0.26035 0.39050 -0.05547
 H386 H 0.23996 0.37622 -0.06083
 C387 C 0.27689 0.40537 -0.07997
 H388 H 0.26913 0.40233 -0.10402
 N389 N 0.27085 0.39251 -0.02527
 C390 C 0.21523 0.37277 0.05905
 H391 H 0.21147 0.34818 0.05530
 C392 C 0.20352 0.38619 0.08604
 H393 H 0.19018 0.37186 0.10268
 C394 C 0.23799 0.42099 0.04211
 H395 H 0.25198 0.43422 0.02517
 C396 C 0.22642 0.43550 0.06886
 H397 H 0.23155 0.45994 0.07236
 Zn398 Zn 0.25231 0.36682 0.00652
 N399 N 0.23292 0.38995 0.03827
 C400 C 0.28999 0.34516 0.05692
 N401 N 0.28501 0.34330 0.02535
 C402 C 0.30426 0.32646 0.00697
 C403 C 0.32917 0.30999 0.02043
 C404 C 0.31448 0.32909 0.07128
 C405 C 0.19338 0.35367 -0.01995
 C406 C 0.16913 0.33562 -0.03284
 C407 C 0.20228 0.29074 -0.02813
 C408 C 0.22573 0.30956 -0.01489
 N409 N 0.22102 0.34049 -0.01133
 H410 H 0.27538 0.35952 0.07112
 H411 H 0.30034 0.32595 -0.01819
 H412 H 0.34405 0.29641 0.00554
 H413 H 0.31830 0.33148 0.09629
 H414 H 0.19021 0.37831 -0.01674
 H415 H 0.14739 0.34657 -0.03977
 H416 H 0.20640 0.26617 -0.03082
 H417 H 0.24762 0.29938 -0.00750
 C418 C 0.20985 0.41772 0.09169
 C419 C 0.30443 0.42235 -0.07329
 C420 C 0.17349 0.30373 -0.03714
 C421 C 0.33434 0.31107 0.05307
 C422 C 0.78115 0.07946 1.01950
 H423 H 0.79008 0.07738 0.99582
 C424 C 0.79715 0.06545 1.04478
 H425 H 0.81832 0.05260 1.04043
 C426 C 0.74491 0.10144 1.05456
 H427 H 0.72514 0.11615 1.05871
 C428 C 0.75954 0.08717 1.08021
 H429 H 0.75013 0.09029 1.10352
 N430 N 0.75694 0.09891 1.02508
 C431 C 0.70624 0.12845 0.94056
 H432 H 0.70431 0.15263 0.94642
 C433 C 0.69182 0.11770 0.91341
 H434 H 0.68011 0.13439 0.89828
 C435 C 0.72407 0.07800 0.95357
 H436 H 0.73678 0.06271 0.96936
 C437 C 0.70942 0.06602 0.92664
 H438 H 0.71078 0.04139 0.92238
 Zn439 Zn 0.74305 0.12820 0.99397
 N440 N 0.72264 0.10889 0.95962
 C441 C 0.77261 0.17510 0.95599
 N442 N 0.77795 0.15264 0.97829
 C443 C 0.80775 0.14676 0.98823
 C444 C 0.83352 0.16154 0.97371
 C445 C 0.79770 0.19083 0.94115
 C446 C 0.68389 0.14353 1.01707
 C447 C 0.66252 0.16015 1.03467
 C448 C 0.70302 0.19931 1.04309
 C449 C 0.72366 0.18190 1.02533
 N450 N 0.71390 0.15438 1.01315
 H451 H 0.74889 0.18069 0.94929
 H452 H 0.81190 0.13014 1.00700
 H453 H 0.85694 0.15510 0.98107
 H454 H 0.79262 0.20842 0.92340
 H455 H 0.67688 0.12140 1.00735
 H456 H 0.63882 0.15096 1.03771
 H457 H 0.71147 0.22068 1.05349
 H458 H 0.74779 0.18975 1.02226
 C459 C 0.69337 0.08611 0.90576
 C460 C 0.78729 0.07090 1.07566
 C461 C 0.67218 0.18813 1.04852
 C462 C 0.82880 0.18335 0.94913
 C463 C 0.28904 0.58160 0.52417
 H464 H 0.29658 0.58270 0.49986
 C465 C 0.30681 0.56531 0.54665
 H466 H 0.32792 0.55361 0.53957
 C467 C 0.25408 0.59778 0.56378
 H468 H 0.23441 0.61151 0.57078
 C469 C 0.27106 0.58185 0.58685
 H470 H 0.26438 0.58383 0.61128
 N471 N 0.26349 0.59781 0.53317
 C472 C 0.20255 0.62535 0.45549
 H473 H 0.19986 0.64910 0.46280
 C474 C 0.18648 0.61488 0.42911
 H475 H 0.17157 0.63094 0.41635
 C476 C 0.22665 0.57648 0.46273
 H477 H 0.24258 0.56180 0.47587
 C478 C 0.21106 0.56501 0.43609
 H479 H 0.21489 0.54131 0.42913
 Zn480 Zn 0.24441 0.62614 0.50458
 N481 N 0.22245 0.60638 0.47149
 C482 C 0.27938 0.65407 0.45497
 N483 N 0.27666 0.65208 0.48686
 C484 C 0.29778 0.66669 0.50590
 C485 C 0.32261 0.68449 0.49290
 C486 C 0.30364 0.67165 0.44106
 C487 C 0.18714 0.63429 0.53407
 C488 C 0.16397 0.64898 0.55114
 C489 C 0.19745 0.69494 0.55276
 C490 C 0.21994 0.67943 0.53526
 N491 N 0.21456 0.64948 0.52670
 H492 H 0.26301 0.64169 0.44011
 H493 H 0.29548 0.66428 0.53120
 H494 H 0.33899 0.69625 0.50837
 H495 H 0.30551 0.67251 0.41564
 H496 H 0.18349 0.61048 0.52695
 H497 H 0.14252 0.63626 0.55716
 H498 H 0.20209 0.71872 0.55953
 H499 H 0.24174 0.69119 0.52889
 C500 C 0.19089 0.58449 0.41869
 C501 C 0.29790 0.56566 0.57841
 C502 C 0.16910 0.67958 0.56103
 C503 C 0.32567 0.68718 0.46003
 C504 C 0.75466 0.90907 0.45175
 H505 H 0.73315 0.91717 0.46206
 C506 C 0.76542 0.92212 0.42314
 H507 H 0.75242 0.94064 0.41177
 C508 C 0.79603 0.87286 0.45197
 H509 H 0.80700 0.85264 0.46235
 C510 C 0.80726 0.88487 0.42341
 H511 H 0.82734 0.87430 0.41254
 N512 N 0.76999 0.88476 0.46543
 C513 C 0.71626 0.86123 0.55011
 H514 H 0.71715 0.83650 0.54610
 C515 C 0.69996 0.87193 0.57584
 H516 H 0.68801 0.85507 0.59107
 C517 C 0.73051 0.91268 0.53423
 H518 H 0.74295 0.92831 0.51813
 C519 C 0.71455 0.92455 0.56020
 H520 H 0.71490 0.94938 0.56382
 Zn521 Zn 0.75182 0.85976 0.49797
 N522 N 0.73091 0.88143 0.52978
 C523 C 0.78155 0.80726 0.52783
 N524 N 0.78399 0.83786 0.51925
 C525 C 0.80903 0.85572 0.52825
 C526 C 0.83328 0.84288 0.54604
 C527 C 0.80509 0.79356 0.54629
 C528 C 0.69166 0.84303 0.47762
 C529 C 0.66898 0.82758 0.45977
 C530 C 0.70877 0.79211 0.44311
 C531 C 0.73090 0.80852 0.46113
 N532 N 0.72196 0.83341 0.47802
 H533 H 0.76099 0.79373 0.52119
 H534 H 0.80995 0.88017 0.52178
 H535 H 0.85291 0.85757 0.55310
 H536 H 0.80280 0.76927 0.55326
 H537 H 0.68524 0.86350 0.49029
 H538 H 0.64507 0.83582 0.45967
 H539 H 0.71626 0.77267 0.42935
 H540 H 0.75533 0.80196 0.46095
 C541 C 0.69908 0.90395 0.58155
 C542 C 0.79142 0.90920 0.40825
 C543 C 0.67748 0.80205 0.44182
 C544 C 0.83133 0.81153 0.55561
 C545 C -0.03378 0.28975 0.40197
 H546 H -0.01028 0.29981 0.40262
 C547 C -0.05803 0.30353 0.41871
 H548 H -0.05294 0.32419 0.43209
 C549 C -0.06960 0.25247 0.38153
 H550 H -0.07456 0.23313 0.36643
 C551 C -0.09423 0.26508 0.39821
 H552 H -0.11747 0.25463 0.39627
 N553 N -0.04025 0.26555 0.38265
 C554 C 0.04379 0.21833 0.35216
 H555 H 0.03580 0.21394 0.32850
 C556 C 0.07177 0.20554 0.36257
 H557 H 0.08505 0.19161 0.34652
 C558 C 0.03502 0.24020 0.40203
 H559 H 0.02050 0.25366 0.41729
 C560 C 0.06312 0.22766 0.41357
 H561 H 0.07015 0.23188 0.43763
 Zn562 Zn -0.01064 0.25157 0.35267
 N563 N 0.02618 0.23560 0.37163
 C564 C 0.02069 0.27793 0.29995
 N565 N 0.00162 0.28466 0.32445
 C566 C -0.00637 0.31456 0.33003
 C567 C 0.00675 0.33911 0.31213
 C568 C 0.03395 0.30169 0.28118
 C569 C -0.03196 0.19073 0.34595
 C570 C -0.04707 0.16548 0.33207
 C571 C -0.05681 0.19777 0.28597
 C572 C -0.04139 0.22250 0.30077
 N573 N -0.02960 0.21857 0.33034
 H574 H 0.02609 0.25410 0.29514
 H575 H -0.02211 0.31970 0.34898
 H576 H 0.00129 0.36268 0.31828
 H577 H 0.04932 0.29564 0.26206
 H578 H -0.02257 0.18838 0.36955
 H579 H -0.04928 0.14375 0.34528
 H580 H -0.06606 0.20128 0.26243
 H581 H -0.03937 0.24493 0.28892
 C582 C 0.08201 0.21025 0.39355
 C583 C -0.08898 0.29188 0.41581
 C584 C -0.06007 0.16884 0.30181
 C585 C 0.02786 0.33290 0.28773
 C586 C 1.02517 0.79781 0.07901
 H587 H 1.00084 0.80454 0.07698
 C588 C 1.04879 0.81574 0.06405
 H589 H 1.04263 0.83620 0.05027
 C590 C 1.06334 0.76453 0.10155
 H591 H 1.06916 0.74541 0.11722
 C592 C 1.08756 0.78163 0.08690
 H593 H 1.11177 0.77548 0.09140
 N594 N 1.03287 0.77304 0.09774
 C595 C 0.95080 0.71506 0.12045
 H596 H 0.95475 0.71505 0.14562
 C597 C 0.92553 0.69829 0.10832
 H598 H 0.91004 0.68580 0.12455
 C599 C 0.96572 0.73294 0.06938
 H600 H 0.98149 0.74666 0.05449
 C601 C 0.94050 0.71621 0.05608
 H602 H 0.93710 0.71695 0.03081
 Zn603 Zn 1.00164 0.75380 0.12366
 N604 N 0.97010 0.73216 0.10113
 C605 C 0.95055 0.78904 0.14355
 N606 N 0.98204 0.78510 0.14719
 C607 C 0.99930 0.80364 0.16654
 C608 C 0.98459 0.82635 0.18418
 C609 C 0.93496 0.81119 0.16078
 C610 C 1.02999 0.69738 0.13613
 C611 C 1.04142 0.67247 0.15396
 C612 C 1.03284 0.70180 0.20100
 C613 C 1.02127 0.72611 0.18225
 N614 N 1.02012 0.72348 0.15041
 H615 H 0.93728 0.77515 0.12715
 H616 H 1.02443 0.80054 0.16852
 H617 H 0.99849 0.84044 0.20003
 H618 H 0.90989 0.81386 0.15745
 H619 H 1.02844 0.69579 0.11079
 H620 H 1.04918 0.65193 0.14211
 H621 H 1.03325 0.70405 0.22634
 H622 H 1.01266 0.74669 0.19322
 C623 C 0.92006 0.69851 0.07573
 C624 C 1.08036 0.80776 0.06830
 C625 C 1.04271 0.67439 0.18687
 C626 C 0.95190 0.82996 0.18167
 C627 C 0.54156 0.26662 0.58490
 H628 H 0.53165 0.24614 0.57401
 C629 C 0.56860 0.28117 0.57216
 H630 H 0.57849 0.27211 0.55087
 C631 C 0.54129 0.30227 0.62660
 H632 H 0.53160 0.30967 0.64864
 C633 C 0.56829 0.31711 0.61506
 H634 H 0.57843 0.33581 0.62861
 N635 N 0.52853 0.27740 0.61169
 C636 C 0.44118 0.22579 0.62866
 H637 H 0.44505 0.22431 0.65382
 C638 C 0.41445 0.21218 0.61582
 H639 H 0.39770 0.20050 0.63141
 C640 C 0.45849 0.24340 0.57823
 H641 H 0.47573 0.25581 0.56388
 C642 C 0.43157 0.23017 0.56423
 H643 H 0.42837 0.23212 0.53898
 Zn644 Zn 0.49656 0.25559 0.63439
 N645 N 0.46281 0.24052 0.60993
 C646 C 0.47570 0.27952 0.69422
 N647 N 0.47805 0.28345 0.66242
 C648 C 0.46590 0.30867 0.64735
 C649 C 0.45157 0.33178 0.66424
 C650 C 0.46096 0.30207 0.71216
 C651 C 0.51000 0.19252 0.64316
 C652 C 0.52595 0.16683 0.65506
 C653 C 0.55332 0.20057 0.69116
 C654 C 0.53692 0.22576 0.67837
 N655 N 0.51564 0.22129 0.65488
 H656 H 0.48501 0.25896 0.70562
 H657 H 0.46772 0.31089 0.62200
 H658 H 0.44221 0.35173 0.65166
 H659 H 0.45933 0.29895 0.73746
 H660 H 0.49396 0.18953 0.62365
 H661 H 0.52162 0.14439 0.64465
 H662 H 0.56991 0.20465 0.71004
 H663 H 0.54153 0.24897 0.68679
 C664 C 0.40941 0.21394 0.58321
 C665 C 0.58289 0.30641 0.58776
 C666 C 0.54822 0.17060 0.67919
 C667 C 0.44899 0.32876 0.69706
 C668 C 0.47073 0.78889 0.91280
 H669 H 0.49536 0.79568 0.91253
 C670 C 0.44885 0.80750 0.92778
 H671 H 0.45672 0.82845 0.93938
 C672 C 0.42983 0.75512 0.89547
 H673 H 0.42213 0.73561 0.88169
 C674 C 0.40731 0.77290 0.91022
 H675 H 0.38264 0.76685 0.90755
 N676 N 0.46083 0.76358 0.89652
 C677 C 0.53451 0.69992 0.87086
 H678 H 0.52612 0.69683 0.84706
 C679 C 0.56039 0.68343 0.88146
 H680 H 0.57115 0.66720 0.86579
 C681 C 0.53092 0.72559 0.91951
 H682 H 0.51967 0.74259 0.93389
 C683 C 0.55715 0.70956 0.93112
 H684 H 0.56592 0.71447 0.95447
 Zn685 Zn 0.48913 0.74431 0.86882
 N686 N 0.52051 0.72076 0.88964
 C687 C 0.54152 0.77809 0.84505
 N688 N 0.50954 0.77626 0.84459
 C689 C 0.49235 0.79802 0.82890
 C690 C 0.50742 0.82259 0.81247
 C691 C 0.55744 0.80217 0.82905
 C692 C 0.45583 0.68962 0.85725
 C693 C 0.43856 0.66765 0.84044
 C694 C 0.44296 0.70109 0.79422
 C695 C 0.46043 0.72240 0.81193
 N696 N 0.46613 0.71648 0.84298
 H697 H 0.55488 0.76112 0.85821
 H698 H 0.46693 0.79639 0.82934
 H699 H 0.49338 0.83934 0.79968
 H700 H 0.58288 0.80331 0.83022
 H701 H 0.46109 0.68531 0.88187
 H702 H 0.43114 0.64629 0.85235
 H703 H 0.43813 0.70646 0.76969
 H704 H 0.46917 0.74369 0.80091
 C705 C 0.57261 0.68859 0.91167
 C706 C 0.41673 0.79967 0.92613
 C707 C 0.43154 0.67333 0.80853
 C708 C 0.54044 0.82484 0.81240
 C709 C 0.41942 -0.15043 0.36276
 C710 C 0.44346 -0.16933 0.35216
 C711 C 0.45785 -0.16066 0.32318
 C712 C 0.44965 -0.13287 0.30708
 C713 C 0.42672 -0.11320 0.31945
 C714 C 0.41127 -0.12335 0.34691
 C715 C 0.40605 -0.10653 0.37677
 C716 C 0.41504 -0.13627 0.39421
 H717 H 0.47513 -0.17539 0.31268
 H718 H 0.46094 -0.12703 0.28486
 H719 H 0.38096 -0.10050 0.37995
 H720 H 0.42319 -0.08701 0.38007
 H721 H 0.39511 -0.14731 0.40745
 H722 H 0.43742 -0.13409 0.40764
 C723 C 0.97308 0.33915 0.83013
 C724 C 0.94908 0.31676 0.83632
 C725 C 0.91882 0.32386 0.82426
 C726 C 0.91223 0.35358 0.81195
 C727 C 0.93564 0.37706 0.81071
 C728 C 0.96649 0.36854 0.81761
 C729 C 0.99041 0.38428 0.83773
 C730 C 0.99769 0.35236 0.85157
 H731 H 0.89969 0.30696 0.82481
 H732 H 0.88836 0.35866 0.80482
 H733 H 0.97976 0.40010 0.85496
 H734 H 1.01009 0.39464 0.82361
 H735 H 0.99129 0.34963 0.87687
 H736 H 1.02169 0.34458 0.84557
 C737 C 0.09261 1.14915 0.85123
 C738 C 0.06196 1.16074 0.85378
 C739 C 0.03738 1.14085 0.84247
 C740 C 0.04401 1.11387 0.82539
 C741 C 0.07525 1.10606 0.81895
 C742 C 0.09897 1.12294 0.83411
 C743 C 0.12996 1.13549 0.82287
 C744 C 0.12315 1.16439 0.84146
 H745 H 0.01289 1.14595 0.84602
 H746 H 0.02478 1.10022 0.81570
 H747 H 0.13082 1.14025 0.79710
 H748 H 0.14992 1.12198 0.83257
 H749 H 0.11981 1.18555 0.82642
 H750 H 0.13961 1.16736 0.86158
 C751 C 0.55018 0.66586 0.30990
 C752 C 0.54465 0.66737 0.34222
 C753 C 0.54018 0.63922 0.35920
 C754 C 0.54610 0.61062 0.34485
 C755 C 0.55653 0.60982 0.31327
 C756 C 0.55590 0.63777 0.29573
 C757 C 0.57988 0.65227 0.27407
 C758 C 0.57351 0.68307 0.28961
 H759 H 0.53436 0.63945 0.38400
 H760 H 0.54458 0.58947 0.35906
 H761 H 0.57221 0.65176 0.24905
 H762 H 0.60398 0.64360 0.27864
 H763 H 0.56210 0.70021 0.27355
 H764 H 0.59398 0.69227 0.30308
 C765 C 0.59869 0.33742 0.17323
 C766 C 0.56945 0.33295 0.15880
 C767 C 0.54904 0.35852 0.15771
 C768 C 0.55710 0.38647 0.17307
 C769 C 0.58564 0.38936 0.19006
 C770 C 0.60647 0.36461 0.18840
 C771 C 0.62342 0.34760 0.21413
 C772 C 0.61491 0.31772 0.19736
 H773 H 0.52679 0.35687 0.14537
 H774 H 0.54084 0.40551 0.17182
 H775 H 0.61175 0.34957 0.23739
 H776 H 0.64910 0.35291 0.21401
 H777 H 0.59832 0.30228 0.21088
 H778 H 0.63567 0.30598 0.18752
 C779 C 0.09817 0.83592 0.66548
 C780 C 0.06643 0.82802 0.65984
 C781 C 0.04440 0.85187 0.66506
 C782 C 0.05384 0.88063 0.67797
 C783 C 0.08553 0.88656 0.68614
 C784 C 0.10728 0.86410 0.67815
 C785 C 0.13248 0.84986 0.69784
 C786 C 0.12256 0.81887 0.68420
 H787 H 0.01981 0.84885 0.65923
 H788 H 0.03623 0.89799 0.68183
 H789 H 0.12780 0.85140 0.72351
 H790 H 0.15638 0.85776 0.69028
 H791 H 0.11209 0.80236 0.70191
 H792 H 0.14102 0.80896 0.66908
 C793 C 0.91001 0.66522 0.67879
 C794 C 0.93985 0.67115 0.66609
 C795 C 0.96097 0.64611 0.66599
 C796 C 0.95298 0.61732 0.68089
 C797 C 0.92372 0.61298 0.69627
 C798 C 0.90224 0.63717 0.69341
 C799 C 0.88330 0.65248 0.71806
 C800 C 0.89182 0.68334 0.70192
 H801 H 0.98376 0.64880 0.65486
 H802 H 0.96982 0.59877 0.68064
 H803 H 0.89365 0.64980 0.74201
 H804 H 0.85783 0.64640 0.71633
 H805 H 0.90712 0.69863 0.71648
 H806 H 0.87129 0.69491 0.69085
 C807 C 0.47217 0.15468 0.17682
 C808 C 0.44950 0.17763 0.17198
 C809 C 0.41983 0.17239 0.18621
 C810 C 0.41192 0.14327 0.19992
 C811 C 0.43363 0.11891 0.20020
 C812 C 0.46445 0.12600 0.19074
 C813 C 0.48554 0.10905 0.16922
 C814 C 0.49400 0.14041 0.15399
 H815 H 0.40208 0.19011 0.18529
 H816 H 0.38824 0.13923 0.20864
 H817 H 0.47237 0.09324 0.15329
 H818 H 0.50555 0.09832 0.18204
 H819 H 0.48575 0.14282 0.12921
 H820 H 0.51889 0.14768 0.15803
 C821 C 0.33112 0.46716 -0.14609
 C822 C 0.35524 0.44847 -0.15765
 C823 C 0.36709 0.42572 -0.13623
 C824 C 0.35191 0.41897 -0.10737
 C825 C 0.32442 0.43453 -0.09917
 C826 C 0.31588 0.46006 -0.11790
 C827 C 0.28469 0.47006 -0.13010
 C828 C 0.30113 0.47772 -0.16111
 H829 H 0.38752 0.41230 -0.14181
 H830 H 0.36026 0.39997 -0.09264
 H831 H 0.27618 0.49097 -0.11803
 H832 H 0.26722 0.45067 -0.13193
 H833 H 0.30164 0.50305 -0.16690
 H834 H 0.29336 0.46256 -0.18067
 C835 C 0.81919 0.95711 0.33745
 C836 C 0.82900 0.93413 0.31656
 C837 C 0.81902 0.90318 0.32397
 C838 C 0.80503 0.89548 0.35308
 C839 C 0.80018 0.91837 0.37565
 C840 C 0.80514 0.94938 0.36624
 C841 C 0.82190 0.97494 0.38290
 C842 C 0.83740 0.98348 0.35163
 H843 H 0.82245 0.88445 0.30783
 H844 H 0.79945 0.87129 0.35856
 H845 H 0.83870 0.96621 0.40099
 H846 H 0.80548 0.99287 0.39111
 H847 H 0.86322 0.97973 0.35154
 H848 H 0.83003 1.00647 0.34208
 C849 C 0.83772 0.08165 1.14807
 C850 C 0.84376 0.05113 1.15884
 C851 C 0.83561 0.02713 1.13747
 C852 C 0.81819 0.03346 1.10970
 C853 C 0.80800 0.06376 1.10273
 C854 C 0.82013 0.08761 1.12129
 C855 C 0.80590 0.11597 1.13451
 C856 C 0.82502 0.10951 1.16406
 H857 H 0.84192 0.00325 1.14196
 H858 H 0.81127 0.01446 1.09470
 H859 H 0.78027 0.11376 1.13905
 H860 H 0.81357 0.13755 1.12163
 H861 H 0.81035 0.10312 1.18494
 H862 H 0.84335 0.12777 1.16811
 C863 C 0.32465 0.52274 0.65157
 C864 C 0.34900 0.54236 0.66208
 C865 C 0.36180 0.56402 0.63991
 C866 C 0.34680 0.56931 0.61069
 C867 C 0.31869 0.55320 0.60323
 C868 C 0.30960 0.52825 0.62308
 C869 C 0.27844 0.51751 0.63583
 C870 C 0.29497 0.51166 0.66717
 H871 H 0.38194 0.57848 0.64599
 H872 H 0.35535 0.58811 0.59546
 H873 H 0.26990 0.49577 0.62466
 H874 H 0.26083 0.53616 0.63700
 H875 H 0.29573 0.48660 0.67402
 H876 H 0.28732 0.52735 0.68607
 C877 C 0.13323 0.58070 0.35083
 C878 C 0.14618 0.55936 0.33036
 C879 C 0.17577 0.54712 0.33867
 C880 C 0.19028 0.55461 0.36760
 C881 C 0.17555 0.57449 0.38894
 C882 C 0.14741 0.58801 0.37912
 C883 C 0.11659 0.58942 0.39574
 C884 C 0.10101 0.58140 0.36463
 H885 H 0.18784 0.53200 0.32282
 H886 H 0.21308 0.54505 0.37303
 H887 H 0.11142 0.61331 0.40350
 H888 H 0.11369 0.57087 0.41419
 H889 H 0.08693 0.60070 0.35450
 H890 H 0.08903 0.55819 0.36496
 C891 C 0.64355 0.08490 0.83156
 C892 C 0.65165 0.05743 0.81653
 C893 C 0.67566 0.03966 0.83105
 C894 C 0.68939 0.04865 0.85990
 C895 C 0.67908 0.07526 0.87564
 C896 C 0.65658 0.09332 0.86010
 C897 C 0.62605 0.10492 0.87207
 C898 C 0.61172 0.09575 0.84081
 H899 H 0.68472 0.01928 0.81997
 H900 H 0.70812 0.03471 0.86958
 H901 H 0.62657 0.13048 0.87543
 H902 H 0.61684 0.09086 0.89241
 H903 H 0.60407 0.11608 0.82635
 H904 H 0.59410 0.07639 0.84294
 C905 C 0.66260 0.90365 0.66275
 C906 C 0.65013 0.93328 0.66553
 C907 C 0.65150 0.95312 0.63857
 C908 C 0.66722 0.94395 0.61098
 C909 C 0.68203 0.91481 0.60981
 C910 C 0.67803 0.89476 0.63593
 C911 C 0.70184 0.87693 0.65445
 C912 C 0.68478 0.88667 0.68394
 H913 H 0.64075 0.97572 0.63883
 H914 H 0.66792 0.95977 0.59085
 H915 H 0.72597 0.88717 0.65222
 H916 H 0.69998 0.85151 0.65040
 H917 H 0.69898 0.90257 0.69891
 H918 H 0.67303 0.86689 0.69674
 C919 C 0.17190 0.47022 0.15060
 C920 C 0.16907 0.45043 0.17709
 C921 C 0.18689 0.42313 0.17755
 C922 C 0.20244 0.41367 0.15031
 C923 C 0.20032 0.43122 0.12197
 C924 C 0.18722 0.46081 0.12358
 C925 C 0.16385 0.47621 0.10246
 C926 C 0.14710 0.48649 0.13199
 H927 H 0.18672 0.40786 0.19815
 H928 H 0.21411 0.39150 0.15082
 H929 H 0.14986 0.45929 0.08846
 H930 H 0.17456 0.49589 0.08863
 H931 H 0.12338 0.47555 0.13514
 H932 H 0.14818 0.51208 0.13515
 C933 C -0.16829 0.32925 0.41930
 C934 C -0.16869 0.34570 0.44716
 C935 C -0.14147 0.34313 0.46639
 C936 C -0.11534 0.32537 0.45674
 C937 C -0.11612 0.30911 0.42801
 C938 C -0.14381 0.31159 0.41058
 C939 C -0.15882 0.30300 0.38013
 C940 C -0.18670 0.32274 0.39018
 H941 H -0.14003 0.35533 0.48840
 H942 H -0.09474 0.32441 0.47173
 H943 H -0.16488 0.27781 0.37895
 H944 H -0.14579 0.31294 0.35949
 H945 H -0.20851 0.30890 0.39520
 H946 H -0.18977 0.34370 0.37484
 C947 C 0.34671 0.83142 0.96874
 C948 C 0.33705 0.85566 0.94831
 C949 C 0.35913 0.86549 0.92490
 C950 C 0.38664 0.84860 0.91951
 C951 C 0.39284 0.82134 0.93709
 C952 C 0.37352 0.81448 0.96296
 C953 C 0.35887 0.78468 0.97459
 C954 C 0.32936 0.80300 0.98080
 H955 H 0.35515 0.88574 0.91005
 H956 H 0.40180 0.85554 0.90004
 H957 H 0.37030 0.77587 0.99648
 H958 H 0.35550 0.76722 0.95593
 H959 H 0.32378 0.80429 1.00629
 H960 H 0.30918 0.79634 0.96549
 C961 C 1.15358 0.83663 0.02605
 C962 C 1.16467 0.86038 0.04583
 C963 C 1.14277 0.87127 0.06811
 C964 C 1.11379 0.85560 0.07343
 C965 C 1.10591 0.82861 0.05684
 C966 C 1.12525 0.82091 0.03174
 C967 C 1.13776 0.79047 0.02196
 C968 C 1.16890 0.80743 0.01583
 H969 H 1.14800 0.89131 0.08227
 H970 H 1.09873 0.86317 0.09222
 H971 H 1.12628 0.78201 0.00014
 H972 H 1.13905 0.77306 0.04158
 H973 H 1.17535 0.80836 -0.00953
 H974 H 1.18804 0.80000 0.03204
 C975 C 0.65404 0.36096 0.58391
 C976 C 0.67509 0.34589 0.56456
 C977 C 0.66623 0.31634 0.55349
 C978 C 0.63616 0.30344 0.56034
 C979 C 0.61404 0.32009 0.57797
 C980 C 0.62434 0.34863 0.59008
 C981 C 0.60965 0.37990 0.58771
 C982 C 0.64231 0.39335 0.58112
 H983 H 0.68264 0.30312 0.53991
 H984 H 0.63068 0.28038 0.55204
 H985 H 0.59996 0.38736 0.61057
 H986 H 0.59332 0.38206 0.56732
 H987 H 0.65148 0.40823 0.60030
 H988 H 0.64498 0.40345 0.55694
 C989 C 0.34187 0.15691 0.57421
 C990 C 0.32404 0.16909 0.54934
 C991 C 0.33410 0.19806 0.53611
 C992 C 0.36230 0.21268 0.54634
 C993 C 0.38086 0.19871 0.57011
 C994 C 0.36926 0.17125 0.58430
 C995 C 0.38518 0.14101 0.58991
 C996 C 0.35503 0.12518 0.57877
 H997 H 0.32027 0.20951 0.51804
 H998 H 0.36937 0.23488 0.53590
 H999 H 0.39016 0.13661 0.61529
 H1000 H 0.40546 0.13783 0.57387
 H1001 H 0.34271 0.11163 0.59775
 H1002 H 0.35773 0.11281 0.55623
 C1003 C 0.84526 0.67936 0.03077
 C1004 C 0.83131 0.65604 0.05013
 C1005 C 0.85129 0.64140 0.07241
 C1006 C 0.88164 0.65330 0.07841
 C1007 C 0.89273 0.68070 0.06300
 C1008 C 0.87505 0.69163 0.03734
 C1009 C 0.86577 0.72390 0.02848
 C1010 C 0.83323 0.71063 0.02127
 H1011 H 0.84338 0.62115 0.08594
 H1012 H 0.89548 0.64218 0.09670
 H1013 H 0.87840 0.73285 0.00718
 H1014 H 0.86616 0.73975 0.04885
 H1015 H 0.82717 0.71204 -0.00418
 H1016 H 0.81470 0.71884 0.03738
 C1017 C 0.65365 0.65408 0.90722
 C1018 C 0.66192 0.64793 0.93862
 C1019 C 0.63806 0.65144 0.96145
 C1020 C 0.60857 0.66397 0.95300
 C1021 C 0.60214 0.67301 0.92151
 C1022 C 0.62478 0.66611 0.89896
 C1023 C 0.63872 0.68621 0.87333
 C1024 C 0.67045 0.67302 0.88241
 H1025 H 0.64226 0.64530 0.98590
 H1026 H 0.59122 0.66717 0.97119
 H1027 H 0.63678 0.71144 0.87804
 H1028 H 0.63062 0.67906 0.84961
 H1029 H 0.68699 0.69057 0.89243
 H1030 H 0.68056 0.65835 0.86386
 C1031 C 0.16437 0.17884 0.39151
 C1032 C 0.17028 0.16919 0.42255
 C1033 C 0.14515 0.17088 0.44419
 C1034 C 0.11634 0.18436 0.43517
 C1035 C 0.11198 0.19632 0.40428
 C1036 C 0.13620 0.19193 0.38268
 C1037 C 0.15199 0.21474 0.36065
 C1038 C 0.18299 0.20031 0.37037
 H1039 H 0.14762 0.16190 0.46803
 H1040 H 0.09763 0.18539 0.45233
 H1041 H 0.14967 0.23919 0.36822
 H1042 H 0.14566 0.21052 0.33567
 H1043 H 0.19873 0.21635 0.38360
 H1044 H 0.19446 0.18778 0.35098
 C1045 C 0.56949 0.08803 0.70298
 C1046 C 0.59807 0.09198 0.71885
 C1047 C 0.61300 0.12152 0.71655
 C1048 C 0.59748 0.14697 0.70255
 C1049 C 0.56655 0.14351 0.69075
 C1050 C 0.55411 0.11312 0.68939
 C1051 C 0.52256 0.10047 0.69910
 C1052 C 0.53946 0.07298 0.71395
 H1053 H 0.63604 0.12532 0.72686
 H1054 H 0.60935 0.16944 0.70210
 H1055 H 0.50780 0.09398 0.67855
 H1056 H 0.51084 0.11527 0.71658
 H1057 H 0.53449 0.05073 0.70187
 H1058 H 0.53756 0.07177 0.74006
 C1059 C 1.08595 0.62814 0.24951
 C1060 C 1.08277 0.59713 0.23963
 C1061 C 1.06103 0.59186 0.21477
 C1062 C 1.04691 0.61680 0.19843
 C1063 C 1.05383 0.64782 0.20639
 C1064 C 1.07184 0.65263 0.23342
 C1065 C 1.09927 0.67410 0.23806
 C1066 C 1.11498 0.64745 0.25553
 H1067 H 1.05476 0.56868 0.20740
 H1068 H 1.03131 0.61176 0.17893
 H1069 H 1.09346 0.69373 0.25350
 H1070 H 1.11115 0.68087 0.21558
 H1071 H 1.11850 0.65214 0.28094
 H1072 H 1.13600 0.63869 0.24321
 C1073 C 0.93070 0.90531 0.21981
 C1074 C 0.90063 0.90018 0.23217
 C1075 C 0.88802 0.86965 0.22912
 C1076 C 0.90494 0.84651 0.21336
 C1077 C 0.93517 0.85303 0.20049
 C1078 C 0.94722 0.88287 0.20535
 C1079 C 0.97389 0.90437 0.19703
 C1080 C 0.95539 0.92972 0.21367
 H1081 H 0.86476 0.86385 0.23803
 H1082 H 0.89419 0.82365 0.21106
 H1083 H 0.97599 0.90839 0.17118
 H1084 H 0.99602 0.89807 0.20937
 H1085 H 0.94738 0.94840 0.19726
 H1086 H 0.96669 0.93783 0.23572
 C1087 C 0.42428 0.40862 0.72123
 C1088 C 0.40468 0.40308 0.74728
 C1089 C 0.39739 0.37159 0.75509
 C1090 C 0.41189 0.34715 0.73914
 C1091 C 0.43362 0.35362 0.71472
 C1092 C 0.43811 0.38470 0.70536
 C1093 C 0.46799 0.40284 0.70036
 C1094 C 0.45286 0.42914 0.71786
 H1095 H 0.38072 0.36562 0.77353
 H1096 H 0.40617 0.32332 0.74594
 H1097 H 0.47222 0.40847 0.67504
 H1098 H 0.48825 0.39250 0.71314
 H1099 H 0.44852 0.44992 0.70258
 H1100 H 0.46427 0.43408 0.74085
 C1101 C 0.40396 0.62187 0.74206
 C1102 C 0.38544 0.59921 0.75771
 C1103 C 0.37666 0.60514 0.78898
 C1104 C 0.38995 0.63054 0.80505
 C1105 C 0.41267 0.65036 0.79033
 C1106 C 0.41732 0.64672 0.75796
 C1107 C 0.44708 0.64550 0.73945
 C1108 C 0.43239 0.61831 0.72201
 H1109 H 0.36081 0.58929 0.80154
 H1110 H 0.38359 0.63358 0.82943
 H1111 H 0.46764 0.63893 0.75421
 H1112 H 0.45073 0.66657 0.72421
 H1113 H 0.44443 0.59593 0.72661
 H1114 H 0.42752 0.62377 0.69680
 C1115 C -0.08390 0.08681 0.27962
 C1116 C -0.10718 0.09131 0.25673
 C1117 C -0.11843 0.12182 0.25243
 C1118 C -0.10379 0.14708 0.26763
 C1119 C -0.07759 0.14244 0.28755
 C1120 C -0.06953 0.11164 0.29458
 C1121 C -0.03815 0.09664 0.29441
 C1122 C -0.05393 0.06940 0.27799
 H1123 H -0.13790 0.12638 0.23663
 H1124 H -0.11251 0.17023 0.26310
 H1125 H -0.02985 0.09062 0.31857
 H1126 H -0.02073 0.10957 0.27938
 H1127 H -0.05471 0.04774 0.29273
 H1128 H -0.04570 0.06647 0.25341
 C1129 C 0.09258 0.37843 0.24519
 C1130 C 0.08213 0.40906 0.24545
 C1131 C 0.05059 0.41359 0.25437
 C1132 C 0.03198 0.38858 0.26643
 C1133 C 0.04458 0.35850 0.27009
 C1134 C 0.07444 0.35392 0.25725
 C1135 C 0.10249 0.33820 0.27102
 C1136 C 0.12235 0.36508 0.25771
 H1137 H 0.04062 0.43656 0.25305
 H1138 H 0.00827 0.39321 0.27397
 H1139 H 0.10721 0.31576 0.25957
 H1140 H 0.10203 0.33715 0.29720
 H1141 H 0.13837 0.35811 0.23855
 H1142 H 0.13346 0.37967 0.27614
 C1143 C 0.56255 0.90441 0.77822
 C1144 C 0.59049 0.90025 0.76186
 C1145 C 0.60243 0.86967 0.76302
 C1146 C 0.58623 0.84518 0.77937
 C1147 C 0.55741 0.85031 0.79504
 C1148 C 0.54665 0.88076 0.79343
 C1149 C 0.52053 0.90116 0.80299
 C1150 C 0.53835 0.92777 0.78550
 H1151 H 0.62428 0.86455 0.75133
 H1152 H 0.59609 0.82216 0.77918
 H1153 H 0.51959 0.90403 0.82891
 H1154 H 0.49780 0.89484 0.79162
 H1155 H 0.54740 0.94610 0.80140
 H1156 H 0.52604 0.93634 0.76399
 C1157 C 0.70366 0.59953 0.09544
 C1158 C 0.73604 0.60698 0.09656
 C1159 C 0.75234 0.59634 0.12394
 C1160 C 0.73625 0.58210 0.14953
 C1161 C 0.70345 0.57749 0.14862
 C1162 C 0.68800 0.58505 0.12053
 C1163 C 0.65921 0.60379 0.11571
 C1164 C 0.67621 0.61987 0.08836
 H1165 H 0.77759 0.59833 0.12609
 H1166 H 0.74953 0.57465 0.17004
 H1167 H 0.65462 0.61945 0.13564
 H1168 H 0.63874 0.58925 0.10825
 H1169 H 0.68159 0.64488 0.09237
 H1170 H 0.66513 0.61478 0.06526
 C1171 C 0.20084 1.09830 0.58168
 C1172 C 0.23353 1.09877 0.57827
 C1173 C 0.25093 1.07898 0.59835
 C1174 C 0.23624 1.06280 0.62361
 C1175 C 0.20383 1.06629 0.62954
 C1176 C 0.18640 1.08259 0.60673
 C1177 C 0.16274 1.10749 0.61047
 C1178 C 0.17858 1.12464 0.58297
 H1179 H 0.27611 1.07701 0.59537
 H1180 H 0.25057 1.04859 0.63905
 H1181 H 0.16530 1.11972 0.63317
 H1182 H 0.13847 1.09920 0.60492
 H1183 H 0.19034 1.14685 0.58967
 H1184 H 0.16347 1.12611 0.56162
 C1185 C 0.21854 0.92839 0.90332
 C1186 C 0.25039 0.92036 0.90271
 C1187 C 0.26861 0.93308 0.87747
 C1188 C 0.25433 0.94975 0.85242
 C1189 C 0.22170 0.95490 0.85245
 C1190 C 0.20474 0.94539 0.87914
 C1191 C 0.17462 0.92715 0.88135
 C1192 C 0.18972 0.90833 0.90777
 H1193 H 0.29373 0.92982 0.87649
 H1194 H 0.26862 0.95804 0.83281
 H1195 H 0.16968 0.91343 0.85992
 H1196 H 0.15486 0.94155 0.88941
 H1197 H 0.19365 0.88368 0.90171
 H1198 H 0.17832 0.91175 0.93095
 C1199 C 0.75867 0.42999 0.38892
 C1200 C 0.74366 0.41624 0.41512
 C1201 C 0.71057 0.41997 0.41612
 C1202 C 0.69437 0.43609 0.39177
 C1203 C 0.71046 0.44892 0.36513
 C1204 C 0.74307 0.44582 0.36568
 C1205 C 0.77201 0.45173 0.34663
 C1206 C 0.78969 0.43406 0.37277
 H1207 H 0.69675 0.40973 0.43513
 H1208 H 0.66917 0.43822 0.39400
 H1209 H 0.77878 0.47678 0.34503
 H1210 H 0.77127 0.43938 0.32389
 H1211 H 0.80637 0.44895 0.38622
 H1212 H 0.79937 0.41190 0.36438
 C1213 C 0.75658 0.40100 0.63822
 C1214 C 0.77255 0.39170 0.61121
 C1215 C 0.80577 0.39230 0.61251
 C1216 C 0.82174 0.40597 0.63801
 C1217 C 0.80487 0.41896 0.66297
 C1218 C 0.77230 0.41409 0.66346
 C1219 C 0.74666 0.43650 0.66913
 C1220 C 0.72939 0.42221 0.64143
 H1221 H 0.81954 0.38339 0.59342
 H1222 H 0.84719 0.40751 0.63754
 H1223 H 0.75424 0.46109 0.66474
 H1224 H 0.73470 0.43187 0.69204
 H1225 H 0.72694 0.43846 0.62091
 H1226 H 0.70744 0.40945 0.64845
 C1227 C 0.24799 -0.09035 0.12530
 C1228 C 0.25579 -0.08323 0.09389
 C1229 C 0.27729 -0.05825 0.08846
 C1230 C 0.29359 -0.04450 0.11363
 C1231 C 0.28851 -0.05511 0.14487
 C1232 C 0.26385 -0.07657 0.15014
 C1233 C 0.26314 -0.10595 0.16944
 C1234 C 0.24578 -0.12107 0.14221
 H1235 H 0.28249 -0.05004 0.06476
 H1236 H 0.31099 -0.02641 0.10852
 H1237 H 0.24840 -0.10399 0.19086
 H1238 H 0.28700 -0.11541 0.17361
 H1239 H 0.22107 -0.12782 0.14802
 H1240 H 0.25955 -0.13930 0.13054
 C1241 C 0.26125 0.11308 0.35997
 C1242 C 0.26034 0.10385 0.39170
 C1243 C 0.27239 0.07442 0.39977
 C1244 C 0.28814 0.05690 0.37723
 C1245 C 0.29256 0.06857 0.34616
 C1246 C 0.27706 0.09603 0.33786
 C1247 C 0.28899 0.12472 0.32107
 C1248 C 0.27156 0.14337 0.34530
 H1249 H 0.27027 0.06523 0.42360
 H1250 H 0.29748 0.03466 0.38452
 H1251 H 0.27898 0.12719 0.29697
 H1252 H 0.31501 0.12751 0.32255
 H1253 H 0.25147 0.15641 0.33518
 H1254 H 0.28742 0.15704 0.36087
 C1255 C 0.78779 0.57940 0.91461
 C1256 C 0.76276 0.59848 0.90576
 C1257 C 0.75751 0.60293 0.87308
 C1258 C 0.77433 0.58586 0.85085
 C1259 C 0.79708 0.56423 0.86069
 C1260 C 0.80454 0.56295 0.89275
 C1261 C 0.80744 0.53539 0.91439
 C1262 C 0.78901 0.55339 0.93840
 H1263 H 0.74006 0.61905 0.86454
 H1264 H 0.76916 0.58926 0.82606
 H1265 H 0.83223 0.53144 0.92156
 H1266 H 0.79457 0.51453 0.90568
 H1267 H 0.80323 0.55965 0.95940
 H1268 H 0.76540 0.54301 0.94362
 C1269 C 0.09004 0.70565 0.59040
 C1270 C 0.09785 0.72834 0.61244
 C1271 C 0.12991 0.73110 0.62117
 C1272 C 0.15320 0.71474 0.60510
 C1273 C 0.14498 0.69493 0.58019
 C1274 C 0.11290 0.68934 0.57485
 C1275 C 0.09480 0.68970 0.54472
 C1276 C 0.06972 0.70762 0.56174
 H1277 H 0.13725 0.74659 0.63966
 H1278 H 0.17762 0.71828 0.61159
 H1279 H 0.08679 0.66599 0.53799
 H1280 H 0.10685 0.70353 0.52574
 H1281 H 0.04728 0.69422 0.56471
 H1282 H 0.06719 0.73190 0.55269
 C1283 C 0.63002 0.25352 1.08812
 C1284 C 0.60527 0.23816 1.10408
 C1285 C 0.60615 0.20538 1.10606
 C1286 C 0.62861 0.18898 1.08897
 C1287 C 0.65073 0.20496 1.06949
 C1288 C 0.65215 0.23739 1.07135
 C1289 C 0.65355 0.26164 1.04572
 C1290 C 0.62929 0.27934 1.06413
 H1291 H 0.58889 0.19231 1.11987
 H1292 H 0.62793 0.16382 1.09026
 H1293 H 0.64454 0.25295 1.02287
 H1294 H 0.67688 0.27371 1.04458
 H1295 H 0.60616 0.28096 1.05198
 H1296 H 0.63868 0.30158 1.07356
 C1297 C 0.91166 0.21191 0.92902
 C1298 C 0.90822 0.22596 0.89927
 C1299 C 0.87900 0.22212 0.88398
 C1300 C 0.85334 0.20760 0.89970
 C1301 C 0.85611 0.19701 0.93134
 C1302 C 0.88632 0.19799 0.94466
 C1303 C 0.89712 0.20990 0.97573
 C1304 C 0.92492 0.22505 0.95854
 H1305 H 0.87575 0.23097 0.86017
 H1306 H 0.83130 0.20534 0.88712
 H1307 H 0.90413 0.19084 0.99221
 H1308 H 0.88069 0.22694 0.98569
 H1309 H 0.94782 0.21459 0.96499
 H1310 H 0.92468 0.25091 0.95852
 C1311 C 0.40670 0.72114 0.44237
 C1312 C 0.40331 0.73865 0.41462
 C1313 C 0.37236 0.73971 0.40214
 C1314 C 0.34699 0.72348 0.41711
 C1315 C 0.35159 0.70579 0.44523
 C1316 C 0.38220 0.70607 0.45709
 C1317 C 0.40253 0.69278 0.48240
 C1318 C 0.43017 0.71007 0.46595
 H1319 H 0.36775 0.75251 0.38046
 H1320 H 0.32383 0.72484 0.40659
 H1321 H 0.40389 0.66705 0.48126
 H1322 H 0.39703 0.70203 0.50595
 H1323 H 0.44753 0.69413 0.45574
 H1324 H 0.44035 0.72942 0.47988
 C1325 C 0.62701 0.74003 0.40325
 C1326 C 0.60185 0.75710 0.39095
 C1327 C 0.60573 0.78977 0.38945
 C1328 C 0.63144 0.80446 0.40437
 C1329 C 0.65398 0.78685 0.42101
 C1330 C 0.65246 0.75453 0.41784
 C1331 C 0.65488 0.72923 0.44224
 C1332 C 0.62702 0.71335 0.42628
 H1333 H 0.58811 0.80412 0.37826
 H1334 H 0.63271 0.82963 0.40428
 H1335 H 0.64951 0.73730 0.46632
 H1336 H 0.67709 0.71621 0.44014
 H1337 H 0.60547 0.71219 0.44108
 H1338 H 0.63323 0.69119 0.41502
 C1339 C 0.13167 0.24461 -0.08794
 C1340 C 0.09975 0.25083 -0.08346
 C1341 C 0.09235 0.27132 -0.05903
 C1342 C 0.11628 0.28784 -0.04307
 C1343 C 0.14820 0.28398 -0.05082
 C1344 C 0.15520 0.26061 -0.07199
 C1345 C 0.17627 0.26176 -0.10005
 C1346 C 0.15049 0.24425 -0.11756
 H1347 H 0.06815 0.27542 -0.05279
 H1348 H 0.10973 0.30432 -0.02542
 H1349 H 0.19779 0.24789 -0.09622
 H1350 H 0.18051 0.28585 -0.10930
 H1351 H 0.15732 0.22037 -0.12385
 H1352 H 0.13972 0.25813 -0.13701
 C1353 C 0.38102 0.26369 0.11197
 C1354 C 0.41144 0.26286 0.09994
 C1355 C 0.41598 0.27771 0.07010
 C1356 C 0.39083 0.29286 0.05432
 C1357 C 0.36054 0.29403 0.06812
 C1358 C 0.35716 0.27880 0.09723
 C1359 C 0.33452 0.27201 0.12334
 C1360 C 0.36161 0.25512 0.14010
 H1361 H 0.43883 0.27763 0.05892
 H1362 H 0.39537 0.30430 0.03180
 H1363 H 0.31495 0.25623 0.11604
 H1364 H 0.32730 0.29324 0.13569
 H1365 H 0.35738 0.22963 0.14270
 H1366 H 0.37008 0.26693 0.16164
 C1367 C 0.91163 0.79169 0.58813
 C1368 C 0.90496 0.76918 0.61163
 C1369 C 0.87295 0.76470 0.62000
 C1370 C 0.84887 0.77885 0.60224
 C1371 C 0.85619 0.79831 0.57608
 C1372 C 0.88793 0.80600 0.57101
 C1373 C 0.90654 0.80607 0.54128
 C1374 C 0.93252 0.79033 0.55999
 H1375 H 0.86626 0.74942 0.63949
 H1376 H 0.82458 0.77388 0.60844
 H1377 H 0.91304 0.83003 0.53308
 H1378 H 0.89576 0.79101 0.52306
 H1379 H 0.95399 0.80525 0.56242
 H1380 H 0.93683 0.76610 0.55268
   
