data_POSCAR
  _audit_creation_date              2014-09-24
  _audit_creation_method            'ToBaCCo'
  _symmetry_space_group_name_H-M    'P1'
  _symmetry_Int_Tables_number       1
  _symmetry_cell_setting            triclinic
  loop_
  _symmetry_equiv_pos_as_xyz
 x,y,z
_cell_length_a 93.7550
_cell_length_b 93.1559
_cell_length_c 94.4986
_cell_angle_alpha 89.914400
_cell_angle_beta 89.943200
_cell_angle_gamma 89.324700
loop_
  _atom_site_label
  _atom_site_type_symbol
  _atom_site_fract_x
  _atom_site_fract_y
  _atom_site_fract_z
N1 N 0.31395 0.43182 0.90551
 N2 N 0.32307 0.44223 0.90743
 C3 C 0.32195 0.45168 0.89672
 C4 C 0.31142 0.44705 0.88770
 C5 C 0.30656 0.43437 0.89354
 H6 H 0.32803 0.46143 0.89574
 H7 H 0.29818 0.42762 0.88954
 Cu8 Cu 0.33470 0.44291 0.92425
 Cu9 Cu 0.31206 0.41623 0.91911
 Cu10 Cu 0.33577 0.41566 0.94756
 N11 N 0.34961 0.44140 0.93820
 N12 N 0.35005 0.43106 0.94770
 C13 C 0.36135 0.43325 0.95631
 C14 C 0.36823 0.44559 0.95173
 C15 C 0.36051 0.45033 0.94024
 H16 H 0.36433 0.42640 0.96510
 H17 H 0.36262 0.45976 0.93391
 N18 N 0.32045 0.40121 0.94498
 N19 N 0.31177 0.40142 0.93396
 C20 C 0.30256 0.39054 0.93505
 C21 C 0.30539 0.38311 0.94733
 C22 C 0.31683 0.39010 0.95344
 H23 H 0.29414 0.38827 0.92760
 H24 H 0.32204 0.38738 0.96331
 H25 H 0.31959 0.42632 0.93721
 H26 H 0.33317 0.41697 0.92602
 N27 N 0.43155 0.84885 0.43993
 N28 N 0.43972 0.84817 0.42862
 C29 C 0.44932 0.85882 0.42916
 C30 C 0.44708 0.86654 0.44146
 C31 C 0.43566 0.85993 0.44805
 H32 H 0.45742 0.86078 0.42126
 H33 H 0.43072 0.86283 0.45799
 Cu34 Cu 0.43704 0.83329 0.41435
 Cu35 Cu 0.41669 0.83479 0.44354
 Cu36 Cu 0.41227 0.80794 0.41884
 N37 N 0.43447 0.81798 0.40051
 N38 N 0.42449 0.80831 0.40217
 C39 C 0.42492 0.79910 0.39121
 C40 C 0.43582 0.80310 0.38226
 C41 C 0.44165 0.81517 0.38844
 H42 H 0.41796 0.79002 0.38992
 H43 H 0.45043 0.82142 0.38448
 N44 N 0.39926 0.81064 0.43506
 N45 N 0.40082 0.82101 0.44444
 C46 C 0.39035 0.82006 0.45417
 C47 C 0.38191 0.80848 0.45083
 C48 C 0.38782 0.80280 0.43862
 H49 H 0.38902 0.82713 0.46315
 H50 H 0.38409 0.79364 0.43274
 H51 H 0.42616 0.81821 0.43239
 H52 H 0.41292 0.82971 0.42267
 N53 N 0.93367 0.89780 0.81202
 N54 N 0.94380 0.89814 0.82163
 C55 C 0.95220 0.88645 0.82038
 C56 C 0.94731 0.87836 0.80928
 C57 C 0.93548 0.88582 0.80413
 H58 H 0.96133 0.88403 0.82699
 H59 H 0.92863 0.88269 0.79549
 Cu60 Cu 0.94563 0.91389 0.83467
 Cu61 Cu 0.91874 0.91286 0.81121
 Cu62 Cu 0.91972 0.93832 0.83819
 N63 N 0.94518 0.92672 0.85069
 N64 N 0.93507 0.93652 0.85194
 C65 C 0.93756 0.94447 0.86353
 C66 C 0.94992 0.93928 0.86986
 C67 C 0.95440 0.92796 0.86149
 H68 H 0.93092 0.95336 0.86697
 H69 H 0.96384 0.92135 0.86300
 N70 N 0.90510 0.93841 0.82330
 N71 N 0.90475 0.92905 0.81281
 C72 C 0.89370 0.93252 0.80423
 C73 C 0.88689 0.94460 0.80971
 C74 C 0.89436 0.94796 0.82173
 H75 H 0.89083 0.92672 0.79477
 H76 H 0.89218 0.95690 0.82872
 H77 H 0.92971 0.92917 0.82069
 H78 H 0.91993 0.91668 0.83257
 N79 N 0.43552 -0.09437 0.31543
 N80 N 0.44439 -0.09339 0.32618
 C81 C 0.45405 -0.10413 0.32547
 C82 C 0.45124 -0.11218 0.31362
 C83 C 0.43940 -0.10573 0.30743
 H84 H 0.46263 -0.10592 0.33290
 H85 H 0.43394 -0.10911 0.29795
 Cu86 Cu 0.44267 -0.07799 0.33983
 Cu87 Cu 0.41945 -0.08098 0.31286
 Cu88 Cu 0.41577 -0.05434 0.33832
 N89 N 0.44096 -0.06264 0.35359
 N90 N 0.43008 -0.05362 0.35307
 C91 C 0.43136 -0.04384 0.36341
 C92 C 0.44372 -0.04683 0.37075
 C93 C 0.44959 -0.05886 0.36431
 H94 H 0.42408 -0.03494 0.36524
 H95 H 0.45944 -0.06429 0.36702
 N96 N 0.40245 -0.05661 0.32260
 N97 N 0.40392 -0.06635 0.31255
 C98 C 0.39353 -0.06421 0.30284
 C99 C 0.38526 -0.05259 0.30716
 C100 C 0.39118 -0.04813 0.31965
 H101 H 0.39222 -0.07046 0.29330
 H102 H 0.38770 -0.03903 0.32591
 H103 H 0.42874 -0.06395 0.32295
 H104 H 0.41758 -0.07622 0.33387
 N105 N 0.80780 0.31553 0.35257
 N106 N 0.81803 0.30581 0.35169
 C107 C 0.81702 0.29656 0.36251
 C108 C 0.80544 0.30050 0.37060
 C109 C 0.79975 0.31264 0.36406
 H110 H 0.82412 0.28750 0.36432
 H111 H 0.79057 0.31890 0.36742
 Cu112 Cu 0.83155 0.30576 0.33645
 Cu113 Cu 0.80619 0.33102 0.33852
 Cu114 Cu 0.83366 0.33303 0.31358
 N115 N 0.84825 0.30838 0.32504
 N116 N 0.84901 0.31866 0.31555
 C117 C 0.86163 0.31744 0.30873
 C118 C 0.86904 0.30586 0.31452
 C119 C 0.86028 0.30046 0.32484
 H120 H 0.86520 0.32452 0.30040
 H121 H 0.86243 0.29127 0.33154
 N122 N 0.81707 0.34644 0.31382
 N123 N 0.80675 0.34573 0.32335
 C124 C 0.79708 0.35618 0.32067
 C125 C 0.80146 0.36382 0.30896
 C126 C 0.81419 0.35738 0.30486
 H127 H 0.78745 0.35809 0.32673
 H128 H 0.82083 0.36039 0.29600
 H129 H 0.81686 0.32151 0.32174
 H130 H 0.82796 0.33155 0.33464
 N131 N -0.18448 0.84898 0.81178
 N132 N -0.19413 0.84646 0.82153
 C133 C -0.20444 0.85665 0.82073
 C134 C -0.20104 0.86589 0.80980
 C135 C -0.18823 0.86075 0.80445
 H136 H -0.21389 0.85711 0.82730
 H137 H -0.18207 0.86504 0.79580
 Cu138 Cu -0.19249 0.82981 0.83384
 Cu139 Cu -0.16790 0.83679 0.80880
 Cu140 Cu -0.16672 0.80516 0.82793
 N141 N -0.18906 0.81391 0.84676
 N142 N -0.17880 0.80445 0.84452
 C143 C -0.17912 0.79435 0.85468
 C144 C -0.19025 0.79759 0.86370
 C145 C -0.19632 0.81012 0.85844
 H146 H -0.17209 0.78507 0.85520
 H147 H -0.20542 0.81592 0.86264
 N148 N -0.15272 0.80996 0.81330
 N149 N -0.15293 0.82221 0.80628
 C150 C -0.14206 0.82226 0.79698
 C151 C -0.13485 0.80935 0.79807
 C152 C -0.14180 0.80182 0.80858
 H153 H -0.13984 0.83081 0.78958
 H154 H -0.13923 0.79116 0.81242
 H155 H -0.17864 0.81880 0.81467
 H156 H -0.16725 0.82718 0.82858
 N157 N 0.94221 0.35180 0.43191
 N158 N 0.93327 0.35085 0.44260
 C159 C 0.93541 0.36175 0.45159
 C160 C 0.94637 0.36996 0.44644
 C161 C 0.95050 0.36341 0.43386
 H162 H 0.92954 0.36350 0.46131
 H163 H 0.95884 0.36676 0.42670
 Cu164 Cu 0.91983 0.33541 0.44420
 Cu165 Cu 0.94219 0.33756 0.41659
 Cu166 Cu 0.91748 0.30993 0.41978
 N167 N 0.90336 0.32316 0.44332
 N168 N 0.90253 0.31284 0.43392
 C169 C 0.89071 0.30514 0.43646
 C170 C 0.88379 0.31113 0.44805
 C171 C 0.89205 0.32257 0.45205
 H172 H 0.88759 0.29579 0.43051
 H173 H 0.89021 0.32960 0.46098
 N174 N 0.93098 0.31144 0.40384
 N175 N 0.94029 0.32191 0.40244
 C176 C 0.94785 0.31971 0.39045
 C177 C 0.94300 0.30730 0.38407
 C178 C 0.93233 0.30241 0.39282
 H179 H 0.95628 0.32656 0.38669
 H180 H 0.92604 0.29289 0.39123
 H181 H 0.92097 0.33173 0.41880
 H182 H 0.93476 0.32088 0.42823
 N183 N 0.44363 0.42354 0.85021
 N184 N 0.43380 0.43342 0.85261
 C185 C 0.43706 0.44054 0.86453
 C186 C 0.44954 0.43475 0.87000
 C187 C 0.45344 0.42399 0.86062
 H188 H 0.43082 0.44932 0.86887
 H189 H 0.46280 0.41714 0.86124
 Cu190 Cu 0.41775 0.43633 0.83990
 Cu191 Cu 0.44305 0.41132 0.83344
 Cu192 Cu 0.41310 0.41441 0.81210
 N193 N 0.40232 0.43940 0.82650
 N194 N 0.40043 0.43069 0.81575
 C195 C 0.38906 0.43521 0.80823
 C196 C 0.38356 0.44745 0.81463
 C197 C 0.39224 0.44981 0.82614
 H198 H 0.38516 0.43000 0.79882
 H199 H 0.39125 0.45856 0.83362
 N200 N 0.42725 0.39876 0.81012
 N201 N 0.43886 0.39772 0.81798
 C202 C 0.44666 0.38632 0.81358
 C203 C 0.43959 0.37994 0.80240
 C204 C 0.42734 0.38806 0.80056
 H205 H 0.45675 0.38298 0.81811
 H206 H 0.41924 0.38638 0.79263
 H207 H 0.43043 0.42461 0.82045
 H208 H 0.42113 0.41166 0.83236
 N209 N 0.81239 0.90000 0.93175
 N210 N 0.82183 0.90186 0.94183
 C211 C 0.82068 0.89123 0.95141
 C212 C 0.80982 0.88233 0.94721
 C213 C 0.80478 0.88817 0.93465
 H214 H 0.82707 0.89014 0.96088
 H215 H 0.79627 0.88416 0.92811
 Cu216 Cu 0.83412 0.91840 0.94153
 Cu217 Cu 0.81080 0.91323 0.91571
 Cu218 Cu 0.83492 0.94156 0.91436
 N219 N 0.84880 0.93273 0.94023
 N220 N 0.84903 0.94224 0.92992
 C221 C 0.86012 0.95117 0.93212
 C222 C 0.86712 0.94678 0.94440
 C223 C 0.85968 0.93506 0.94911
 H224 H 0.86295 0.96000 0.92528
 H225 H 0.86202 0.92878 0.95847
 N226 N 0.81975 0.93854 0.89981
 N227 N 0.81083 0.92765 0.90040
 C228 C 0.80198 0.92830 0.88922
 C229 C 0.80532 0.94010 0.88115
 C230 C 0.81667 0.94642 0.88814
 H231 H 0.79358 0.92076 0.88705
 H232 H 0.82226 0.95598 0.88494
 H233 H 0.83202 0.91979 0.91593
 H234 H 0.81883 0.93162 0.92506
 N235 N 0.30943 0.85308 0.32257
 N236 N 0.31855 0.85221 0.31202
 C237 C 0.31619 0.86342 0.30319
 C238 C 0.30507 0.87165 0.30871
 C239 C 0.30115 0.86481 0.32097
 H240 H 0.32206 0.86543 0.29355
 H241 H 0.29257 0.86797 0.32801
 Cu242 Cu 0.33256 0.83645 0.31140
 Cu243 Cu 0.30770 0.83843 0.33695
 Cu244 Cu 0.33139 0.80978 0.33566
 N245 N 0.34636 0.82051 0.31120
 N246 N 0.34575 0.81024 0.32076
 C247 C 0.35651 0.80084 0.31859
 C248 C 0.36436 0.80539 0.30711
 C249 C 0.35763 0.81793 0.30262
 H250 H 0.35864 0.79144 0.32501
 H251 H 0.36080 0.82473 0.29391
 N252 N 0.31608 0.81140 0.34997
 N253 N 0.30736 0.82260 0.35058
 C254 C 0.29797 0.82069 0.36115
 C255 C 0.30082 0.80767 0.36747
 C256 C 0.31240 0.80200 0.36020
 H257 H 0.28939 0.82802 0.36388
 H258 H 0.31761 0.79176 0.36207
 H259 H 0.32893 0.83161 0.33655
 H260 H 0.31624 0.82164 0.32505
 N261 N 0.80825 0.40077 0.42499
 N262 N 0.81731 0.39930 0.43551
 C263 C 0.81305 0.38846 0.44388
 C264 C 0.80067 0.38288 0.43824
 C265 C 0.79797 0.39089 0.42625
 H266 H 0.81854 0.38492 0.45333
 H267 H 0.78907 0.38972 0.41910
 Cu268 Cu 0.83374 0.41172 0.43725
 Cu269 Cu 0.81010 0.41568 0.41080
 Cu270 Cu 0.83849 0.43890 0.41417
 N271 N 0.84954 0.42490 0.43909
 N272 N 0.85130 0.43555 0.43014
 C273 C 0.86292 0.44297 0.43390
 C274 C 0.86876 0.43660 0.44585
 C275 C 0.86001 0.42518 0.44884
 H276 H 0.86682 0.45225 0.42829
 H277 H 0.86122 0.41767 0.45750
 N278 N 0.82433 0.44040 0.39875
 N279 N 0.81364 0.43141 0.39748
 C280 C 0.80586 0.43504 0.38605
 C281 C 0.81192 0.44692 0.37980
 C282 C 0.82361 0.45004 0.38810
 H283 H 0.79646 0.42946 0.38261
 H284 H 0.83098 0.45873 0.38648
 H285 H 0.83205 0.41799 0.41224
 H286 H 0.82089 0.43000 0.42370
 N287 N 0.92878 0.85035 -0.06172
 N288 N 0.93864 0.84931 -0.07157
 C289 C 0.94705 0.86090 -0.07101
 C290 C 0.94230 0.86963 -0.06015
 C291 C 0.93065 0.86263 -0.05445
 H292 H 0.95617 0.86270 -0.07777
 H293 H 0.92416 0.86604 -0.04558
 Cu294 Cu 0.94005 0.83244 -0.08346
 Cu295 Cu 0.91493 0.83512 -0.05881
 Cu296 Cu 0.91309 0.80908 -0.08533
 N297 N 0.93890 0.81876 -0.09877
 N298 N 0.92856 0.80937 -0.09960
 C299 C 0.93076 0.80115 -0.11123
 C300 C 0.94309 0.80584 -0.11795
 C301 C 0.94784 0.81702 -0.10977
 H302 H 0.92390 0.79256 -0.11458
 H303 H 0.95721 0.82339 -0.11169
 N304 N 0.89870 0.81089 -0.06975
 N305 N 0.89952 0.82091 -0.05988
 C306 C 0.88842 0.81967 -0.05096
 C307 C 0.88020 0.80830 -0.05519
 C308 C 0.88699 0.80291 -0.06717
 H309 H 0.88641 0.82652 -0.04194
 H310 H 0.88362 0.79395 -0.07355
 H311 H 0.92424 0.81756 -0.06902
 H312 H 0.91439 0.83072 -0.08023
 N313 N 0.31042 0.34668 0.81745
 N314 N 0.32135 0.34603 0.80872
 C315 C 0.31983 0.35619 0.79871
 C316 C 0.30734 0.36367 0.80122
 C317 C 0.30152 0.35734 0.81319
 H318 H 0.32746 0.35829 0.79038
 H319 H 0.29187 0.36054 0.81868
 Cu320 Cu 0.33717 0.33273 0.81142
 Cu321 Cu 0.30986 0.33476 0.83460
 Cu322 Cu 0.33112 0.30425 0.83212
 N323 N 0.35085 0.31696 0.81300
 N324 N 0.34842 0.30604 0.82141
 C325 C 0.35909 0.29639 0.82029
 C326 C 0.36866 0.30143 0.81052
 C327 C 0.36318 0.31453 0.80602
 H328 H 0.35961 0.28624 0.82586
 H329 H 0.36764 0.32159 0.79812
 N330 N 0.31631 0.30664 0.84637
 N331 N 0.30809 0.31815 0.84770
 C332 C 0.30000 0.31659 0.85947
 C333 C 0.30376 0.30360 0.86579
 C334 C 0.31397 0.29765 0.85716
 H335 H 0.29248 0.32451 0.86343
 H336 H 0.31987 0.28777 0.85904
 H337 H 0.33087 0.32590 0.83572
 H338 H 0.31793 0.31929 0.82226
 N339 N 0.15019 0.57008 0.56528
 N340 N 0.15130 0.55904 0.57391
 C341 C 0.14020 0.55030 0.57207
 C342 C 0.13158 0.55599 0.56168
 C343 C 0.13818 0.56861 0.55750
 H344 H 0.13843 0.54051 0.57795
 H345 H 0.13449 0.57617 0.54957
 Cu346 Cu 0.16681 0.55692 0.58709
 Cu347 Cu 0.16460 0.58536 0.56534
 Cu348 Cu 0.19178 0.58167 0.59040
 N349 N 0.17842 0.55784 0.60389
 N350 N 0.18838 0.56753 0.60519
 C351 C 0.19534 0.56534 0.61748
 C352 C 0.18925 0.55368 0.62420
 C353 C 0.17853 0.54924 0.61531
 H354 H 0.20419 0.57168 0.62113
 H355 H 0.17154 0.54022 0.61691
 N356 N 0.19060 0.59779 0.57696
 N357 N 0.18041 0.59936 0.56740
 C358 C 0.18291 0.61145 0.55991
 C359 C 0.19520 0.61770 0.56513
 C360 C 0.19970 0.60879 0.57591
 H361 H 0.17631 0.61540 0.55135
 H362 H 0.20901 0.61023 0.58247
 H363 H 0.18121 0.57337 0.57286
 H364 H 0.17020 0.58273 0.58646
 N365 N 0.59600 0.68366 0.06081
 N366 N 0.59511 0.69287 0.07134
 C367 C 0.60548 0.70263 0.06997
 C368 C 0.61329 0.69943 0.05801
 C369 C 0.60703 0.68729 0.05241
 H370 H 0.60727 0.71144 0.07717
 H371 H 0.61031 0.68143 0.04306
 Cu372 Cu 0.58094 0.69125 0.08625
 Cu373 Cu 0.58278 0.66766 0.05890
 Cu374 Cu 0.55430 0.66789 0.08211
 N375 N 0.56528 0.69004 0.09973
 N376 N 0.55514 0.68059 0.09810
 C377 C 0.54567 0.68186 0.10870
 C378 C 0.54999 0.69280 0.11739
 C379 C 0.56250 0.69782 0.11144
 H380 H 0.53622 0.67542 0.10989
 H381 H 0.56903 0.70647 0.11529
 N382 N 0.55732 0.65301 0.06801
 N383 N 0.56802 0.65264 0.05895
 C384 C 0.56681 0.64072 0.05088
 C385 C 0.55485 0.63337 0.05542
 C386 C 0.54923 0.64140 0.06624
 H387 H 0.57422 0.63745 0.04269
 H388 H 0.53993 0.63886 0.07250
 H389 H 0.56749 0.67947 0.06798
 H390 H 0.57679 0.66631 0.08000
 N391 N 0.68514 0.18786 0.65095
 N392 N 0.69323 0.17629 0.65200
 C393 C 0.70332 0.17656 0.64188
 C394 C 0.70154 0.18897 0.63413
 C395 C 0.68987 0.19594 0.64011
 H396 H 0.71155 0.16848 0.64040
 H397 H 0.68517 0.20607 0.63686
 Cu398 Cu 0.69055 0.16207 0.66672
 Cu399 Cu 0.66913 0.19143 0.66372
 Cu400 Cu 0.66484 0.16721 0.69115
 N401 N 0.68877 0.14977 0.68318
 N402 N 0.67855 0.15160 0.69254
 C403 C 0.67999 0.14171 0.70284
 C404 C 0.69183 0.13336 0.69984
 C405 C 0.69716 0.13871 0.68726
 H406 H 0.67316 0.14085 0.71202
 H407 H 0.70648 0.13496 0.68157
 N408 N 0.65202 0.18365 0.68813
 N409 N 0.65359 0.19302 0.67778
 C410 C 0.64331 0.20321 0.67894
 C411 C 0.63498 0.20007 0.69060
 C412 C 0.64079 0.18758 0.69613
 H413 H 0.64202 0.21233 0.67195
 H414 H 0.63718 0.18178 0.70534
 H415 H 0.67866 0.18082 0.68039
 H416 H 0.66589 0.17039 0.66933
 N417 N 1.09934 0.07027 0.18927
 N418 N 1.09856 0.06082 0.17896
 C419 C 1.10956 0.05144 0.18012
 C420 C 1.11769 0.05516 0.19171
 C421 C 1.11090 0.06720 0.19729
 H422 H 1.11162 0.04256 0.17303
 H423 H 1.11416 0.07333 0.20642
 Cu424 Cu 1.08342 0.06173 0.16473
 Cu425 Cu 1.08513 0.08582 0.19153
 Cu426 Cu 1.05688 0.08568 0.16785
 N427 N 1.06792 0.06263 0.15081
 N428 N 1.05788 0.07250 0.15204
 C429 C 1.04862 0.07134 0.14128
 C430 C 1.05288 0.06003 0.13286
 C431 C 1.06523 0.05466 0.13916
 H432 H 1.03936 0.07819 0.13970
 H433 H 1.07175 0.04577 0.13550
 N434 N 1.05879 0.10016 0.18271
 N435 N 1.06941 0.10045 0.19188
 C436 C 1.06727 0.11174 0.20068
 C437 C 1.05476 0.11878 0.19666
 C438 C 1.04980 0.11117 0.18527
 H439 H 1.07421 0.11459 0.20934
 H440 H 1.04022 0.11353 0.17931
 H441 H 1.06932 0.07426 0.18272
 H442 H 1.07885 0.08683 0.17068
 N443 N 0.07207 0.15185 1.06288
 N444 N 0.06207 0.15302 1.07262
 C445 C 0.05229 0.14279 1.07057
 C446 C 0.05627 0.13471 1.05901
 C447 C 0.06892 0.14071 1.05432
 H448 H 0.04294 0.14119 1.07707
 H449 H 0.07543 0.13713 1.04553
 Cu450 Cu 0.06244 0.16763 1.08726
 Cu451 Cu 0.08861 0.16468 1.06255
 Cu452 Cu 0.08941 0.19060 1.08884
 N453 N 0.06280 0.18286 1.10134
 N454 N 0.07350 0.19181 1.10176
 C455 C 0.07120 0.20151 1.11203
 C456 C 0.05838 0.19854 1.11840
 C457 C 0.05325 0.18660 1.11142
 H458 H 0.07830 0.21017 1.11467
 H459 H 0.04332 0.18117 1.11341
 N460 N 0.10466 0.18812 1.07499
 N461 N 0.10435 0.17877 1.06450
 C462 C 0.11627 0.18046 1.05658
 C463 C 0.12433 0.19127 1.06264
 C464 C 0.11667 0.19575 1.07420
 H465 H 0.11899 0.17421 1.04731
 H466 H 0.11965 0.20418 1.08143
 H467 H 0.08811 0.16875 1.08362
 H468 H 0.07806 0.18148 1.07193
 N469 N 0.15063 0.68971 0.67729
 N470 N 0.15064 0.68027 0.68768
 C471 C 0.13922 0.68293 0.69608
 C472 C 0.13174 0.69465 0.69060
 C473 C 0.13932 0.69860 0.67873
 H474 H 0.13649 0.67677 0.70538
 H475 H 0.13668 0.70733 0.67159
 Cu476 Cu 0.16560 0.66532 0.68892
 Cu477 Cu 0.16509 0.68994 0.66242
 Cu478 Cu 0.19017 0.66262 0.66298
 N479 N 0.18002 0.64975 0.68875
 N480 N 0.18910 0.64868 0.67817
 C481 C 0.19774 0.63728 0.68022
 C482 C 0.19414 0.63082 0.69280
 C483 C 0.18279 0.63897 0.69803
 H484 H 0.20634 0.63405 0.67324
 H485 H 0.17704 0.63721 0.70780
 N486 N 0.18990 0.67762 0.64840
 N487 N 0.18055 0.68831 0.64824
 C488 C 0.18361 0.69708 0.63727
 C489 C 0.19545 0.69153 0.63027
 C490 C 0.19909 0.67923 0.63759
 H491 H 0.17773 0.70676 0.63461
 H492 H 0.20797 0.67212 0.63527
 H493 H 0.16856 0.66819 0.66345
 H494 H 0.18091 0.67982 0.67379
 N495 N 1.18182 0.15436 0.19144
 N496 N 1.19129 0.15402 0.18119
 C497 C 1.19998 0.14252 0.18317
 C498 C 1.19547 0.13542 0.19526
 C499 C 1.18395 0.14318 0.20014
 H500 H 1.20887 0.13958 0.17642
 H501 H 1.17782 0.14105 0.20960
 Cu502 Cu 1.19093 0.16889 0.16658
 Cu503 Cu 1.16823 0.16979 0.19390
 Cu504 Cu 1.16495 0.19447 0.16668
 N505 N 1.19014 0.18395 0.15223
 N506 N 1.17984 0.19368 0.15222
 C507 C 1.18169 0.20260 0.14117
 C508 C 1.19374 0.19827 0.13386
 C509 C 1.19887 0.18639 0.14115
 H510 H 1.17482 0.21166 0.13867
 H511 H 1.20822 0.18001 0.13859
 N512 N 1.15129 0.19340 0.18263
 N513 N 1.15276 0.18392 0.19292
 C514 C 1.14215 0.18569 0.20231
 C515 C 1.13366 0.19693 0.19792
 C516 C 1.13967 0.20166 0.18537
 H517 H 1.14071 0.17934 0.21179
 H518 H 1.13593 0.21043 0.17880
 H519 H 1.16589 0.17307 0.17222
 H520 H 1.17786 0.18589 0.18151
 N521 N 0.64752 1.06032 0.56883
 N522 N 0.64788 1.07064 0.55935
 C523 C 0.63602 1.07015 0.55139
 C524 C 0.62786 1.05886 0.55610
 C525 C 0.63546 1.05283 0.56720
 H526 H 0.63367 1.07721 0.54258
 H527 H 0.63266 1.04353 0.57343
 Cu528 Cu 0.66425 1.08298 0.55777
 Cu529 Cu 0.66325 1.05688 0.58176
 Cu530 Cu 0.68808 1.08431 0.58437
 N531 N 0.67742 1.09865 0.55947
 N532 N 0.68690 1.09928 0.56970
 C533 C 0.69463 1.11132 0.56799
 C534 C 0.68956 1.11850 0.55609
 C535 C 0.67866 1.11018 0.55104
 H536 H 0.70316 1.11462 0.57491
 H537 H 0.67213 1.11237 0.54184
 N538 N 0.68718 1.06795 0.59792
 N539 N 0.67760 1.05773 0.59680
 C540 C 0.67934 1.04830 0.60743
 C541 C 0.69062 1.05258 0.61561
 C542 C 0.69543 1.06511 0.60934
 H543 H 0.67288 1.03891 0.60913
 H544 H 0.70414 1.07169 0.61288
 H545 H 0.66678 1.07874 0.58304
 H546 H 0.68006 1.06817 0.57261
 N547 N 0.56767 0.56374 0.15288
 N548 N 0.55841 0.57446 0.15347
 C549 C 0.54958 0.57371 0.14228
 C550 C 0.55345 0.56196 0.13422
 C551 C 0.56500 0.55583 0.14124
 H552 H 0.54096 0.58119 0.14005
 H553 H 0.57103 0.54637 0.13813
 Cu554 Cu 0.55872 0.58873 0.16857
 Cu555 Cu 0.58224 0.56074 0.16758
 Cu556 Cu 0.58436 0.58719 0.19286
 N557 N 0.55957 0.60276 0.18396
 N558 N 0.57012 0.60232 0.19310
 C559 C 0.56849 0.61298 0.20252
 C560 C 0.55622 0.62051 0.19924
 C561 C 0.55076 0.61380 0.18735
 H562 H 0.57554 0.61500 0.21133
 H563 H 0.54115 0.61668 0.18166
 N564 N 0.59894 0.57227 0.19082
 N565 N 0.59807 0.56170 0.18158
 C566 C 0.60919 0.55256 0.18374
 C567 C 0.61729 0.55784 0.19483
 C568 C 0.61054 0.57031 0.19892
 H569 H 0.61115 0.54281 0.17782
 H570 H 0.61369 0.57721 0.20753
 H571 H 0.57167 0.57155 0.18312
 H572 H 0.58354 0.58201 0.17104
 N573 N 0.65196 0.68283 0.18699
 N574 N 0.65253 0.69202 0.17641
 C575 C 0.64197 0.70183 0.17791
 C576 C 0.63436 0.69871 0.19004
 C577 C 0.64099 0.68655 0.19557
 H578 H 0.63987 0.71064 0.17071
 H579 H 0.63806 0.68081 0.20507
 Cu580 Cu 0.66693 0.69038 0.16149
 Cu581 Cu 0.66547 0.66664 0.18872
 Cu582 Cu 0.69023 0.66293 0.16171
 N583 N 0.68102 0.68792 0.14631
 N584 N 0.68984 0.67686 0.14646
 C585 C 0.69840 0.67739 0.13507
 C586 C 0.69491 0.68945 0.12732
 C587 C 0.68378 0.69597 0.13472
 H588 H 0.70677 0.66969 0.13265
 H589 H 0.67818 0.70577 0.13190
 N590 N 0.68937 0.64974 0.17782
 N591 N 0.68013 0.65099 0.18832
 C592 C 0.68288 0.64045 0.19786
 C593 C 0.69442 0.63236 0.19301
 C594 C 0.69817 0.63856 0.18037
 H595 H 0.67709 0.63890 0.20764
 H596 H 0.70691 0.63522 0.17363
 H597 H 0.68157 0.67598 0.17756
 H598 H 0.66867 0.66491 0.16736
 N599 N 0.14895 0.06866 1.05268
 N600 N 0.14866 0.05846 1.06228
 C601 C 0.13790 0.04950 1.05930
 C602 C 0.13119 0.05446 1.04716
 C603 C 0.13841 0.06664 1.04332
 H604 H 0.13534 0.03999 1.06530
 H605 H 0.13639 0.07327 1.03411
 Cu606 Cu 0.16286 0.05772 1.07726
 Cu607 Cu 0.16371 0.08291 1.05220
 Cu608 Cu 0.18809 0.08341 1.07973
 N609 N 0.17673 0.05777 1.09247
 N610 N 0.18667 0.06759 1.09341
 C611 C 0.19470 0.06484 1.10498
 C612 C 0.18939 0.05270 1.11158
 C613 C 0.17803 0.04858 1.10339
 H614 H 0.20358 0.07127 1.10838
 H615 H 0.17122 0.03949 1.10532
 N616 N 0.18736 0.09826 1.06459
 N617 N 0.17763 0.09812 1.05450
 C618 C 0.17914 0.10970 1.04621
 C619 C 0.19052 0.11743 1.05101
 C620 C 0.19560 0.10993 1.06270
 H621 H 0.17255 0.11232 1.03716
 H622 H 0.20446 0.11286 1.06938
 H623 H 0.17990 0.07187 1.06379
 H624 H 0.16707 0.08317 1.07419
 N625 N 0.60276 0.18745 0.56879
 N626 N 0.60015 0.17926 0.55782
 C627 C 0.61018 0.18137 0.54788
 C628 C 0.61951 0.19149 0.55290
 C629 C 0.61452 0.19513 0.56622
 H630 H 0.61064 0.17598 0.53776
 H631 H 0.61901 0.20281 0.57347
 Cu632 Cu 0.58405 0.16661 0.55772
 Cu633 Cu 0.59026 0.18808 0.58517
 Cu634 Cu 0.56077 0.16569 0.58466
 N635 N 0.57195 0.15032 0.56074
 N636 N 0.56242 0.14993 0.57095
 C637 C 0.55502 0.13763 0.56981
 C638 C 0.56049 0.12997 0.55838
 C639 C 0.57121 0.13831 0.55298
 H640 H 0.54645 0.13448 0.57678
 H641 H 0.57781 0.13592 0.54387
 N642 N 0.56465 0.17944 0.60024
 N643 N 0.57628 0.18733 0.60059
 C644 C 0.57610 0.19544 0.61233
 C645 C 0.56376 0.19276 0.61968
 C646 C 0.55668 0.18251 0.61179
 H647 H 0.58411 0.20318 0.61515
 H648 H 0.54651 0.17773 0.61420
 H649 H 0.58227 0.16725 0.58333
 H650 H 0.57181 0.18212 0.57501
 N651 N 0.10114 0.56401 0.68558
 N652 N 0.10014 0.55405 0.67583
 C653 C 0.11060 0.54422 0.67779
 C654 C 0.11850 0.54831 0.68936
 C655 C 0.11223 0.56092 0.69406
 H656 H 0.11214 0.53455 0.67156
 H657 H 0.11527 0.56728 0.70309
 Cu658 Cu 0.08471 0.55477 0.66227
 Cu659 Cu 0.08749 0.57966 0.68723
 Cu660 Cu 0.05894 0.58005 0.66366
 N661 N 0.06911 0.55489 0.64896
 N662 N 0.05887 0.56466 0.64946
 C663 C 0.04940 0.56197 0.63907
 C664 C 0.05410 0.54987 0.63181
 C665 C 0.06652 0.54570 0.63838
 H666 H 0.03992 0.56834 0.63697
 H667 H 0.07313 0.53649 0.63563
 N668 N 0.06143 0.59458 0.67881
 N669 N 0.07261 0.59453 0.68733
 C670 C 0.07151 0.60559 0.69636
 C671 C 0.05903 0.61288 0.69362
 C672 C 0.05282 0.60572 0.68240
 H673 H 0.07902 0.60798 0.70468
 H674 H 0.04279 0.60835 0.67733
 H675 H 0.07022 0.56870 0.67877
 H676 H 0.08055 0.58021 0.66641
 N677 N 0.65161 0.55755 0.06492
 N678 N 0.65198 0.56789 0.05547
 C679 C 0.64060 0.56659 0.04679
 C680 C 0.63282 0.55485 0.05133
 C681 C 0.64009 0.54948 0.06281
 H682 H 0.63825 0.57353 0.03789
 H683 H 0.63742 0.54006 0.06893
 Cu684 Cu 0.66763 0.58162 0.05557
 Cu685 Cu 0.66665 0.55387 0.07827
 Cu686 Cu 0.68920 0.58206 0.08450
 N687 N 0.68130 0.59692 0.05890
 N688 N 0.68919 0.59721 0.07041
 C689 C 0.69757 0.60881 0.07005
 C690 C 0.69492 0.61617 0.05767
 C691 C 0.68449 0.60838 0.05080
 H692 H 0.70535 0.61151 0.07803
 H693 H 0.67966 0.61078 0.04067
 N694 N 0.68773 0.56542 0.09724
 N695 N 0.67925 0.55457 0.09459
 C696 C 0.68080 0.54461 0.10477
 C697 C 0.69086 0.54930 0.11420
 C698 C 0.69508 0.56256 0.10918
 H699 H 0.67510 0.53459 0.10525
 H700 H 0.70298 0.56951 0.11376
 H701 H 0.66854 0.57576 0.08062
 H702 H 0.68334 0.56677 0.07056
 N703 N 0.07197 0.69080 0.59687
 N704 N 0.06052 0.68277 0.59667
 C705 C 0.05249 0.68586 0.60813
 C706 C 0.05934 0.69639 0.61585
 C707 C 0.07164 0.69921 0.60842
 H708 H 0.04247 0.68082 0.61064
 H709 H 0.07964 0.70700 0.61113
 Cu710 Cu 0.05715 0.66887 0.58161
 Cu711 Cu 0.08615 0.69058 0.58190
 Cu712 Cu 0.08052 0.66669 0.55480
 N713 N 0.05745 0.65256 0.56859
 N714 N 0.06733 0.65163 0.55876
 C715 C 0.06555 0.63966 0.55119
 C716 C 0.05380 0.63271 0.55631
 C717 C 0.04877 0.64114 0.56739
 H718 H 0.07198 0.63655 0.54217
 H719 H 0.03953 0.63918 0.57395
 N720 N 0.09666 0.67955 0.55520
 N721 N 0.09902 0.68870 0.56553
 C722 C 0.11091 0.69610 0.56249
 C723 C 0.11619 0.69116 0.54968
 C724 C 0.10698 0.68066 0.54543
 H725 H 0.11535 0.70443 0.56905
 H726 H 0.10769 0.67440 0.53582
 H727 H 0.07239 0.68409 0.56688
 H728 H 0.08250 0.66957 0.57641
 N729 N 0.57284 1.05283 0.65236
 N730 N 0.56301 1.06278 0.65025
 C731 C 0.55469 1.05894 0.63935
 C732 C 0.55952 1.04584 0.63424
 C733 C 0.57113 1.04230 0.64272
 H734 H 0.54566 1.06518 0.63563
 H735 H 0.57764 1.03265 0.64209
 Cu736 Cu 0.56107 1.07967 0.66210
 Cu737 Cu 0.58637 1.05428 0.66810
 Cu738 Cu 0.58363 1.08433 0.68943
 N739 N 0.55822 1.09483 0.67588
 N740 N 0.56690 1.09656 0.68663
 C741 C 0.56215 1.10761 0.69459
 C742 C 0.54981 1.11307 0.68841
 C743 C 0.54769 1.10474 0.67656
 H744 H 0.56733 1.11134 0.70409
 H745 H 0.53896 1.10571 0.66913
 N746 N 0.59971 1.07063 0.69064
 N747 N 0.60075 1.05896 0.68276
 C748 C 0.61269 1.05164 0.68653
 C749 C 0.61941 1.05914 0.69727
 C750 C 0.61091 1.07110 0.69951
 H751 H 0.61623 1.04165 0.68181
 H752 H 0.61274 1.07945 0.70721
 H753 H 0.57337 1.06687 0.68105
 H754 H 0.58594 1.07636 0.66889
 N755 N 0.44522 0.35039 0.92969
 N756 N 0.43532 0.35141 0.93948
 C757 C 0.43817 0.36275 0.94783
 C758 C 0.45047 0.36911 0.94281
 C759 C 0.45459 0.36105 0.93128
 H760 H 0.43179 0.36606 0.95681
 H761 H 0.46387 0.36270 0.92468
 Cu762 Cu 0.41983 0.33775 0.94034
 Cu763 Cu 0.44584 0.33493 0.91614
 Cu764 Cu 0.41784 0.31108 0.91595
 N765 N 0.40547 0.32296 0.94140
 N766 N 0.40449 0.31262 0.93197
 C767 C 0.39335 0.30423 0.93546
 C768 C 0.38715 0.30969 0.94772
 C769 C 0.39512 0.32150 0.95112
 H770 H 0.38995 0.29500 0.92947
 H771 H 0.39342 0.32852 0.96008
 N772 N 0.43267 0.31154 0.90088
 N773 N 0.44321 0.32080 0.90125
 C774 C 0.45159 0.31894 0.88989
 C775 C 0.44630 0.30793 0.88194
 C776 C 0.43424 0.30336 0.88913
 H777 H 0.46096 0.32517 0.88751
 H778 H 0.42712 0.29490 0.88599
 H779 H 0.42334 0.33261 0.91522
 H780 H 0.43332 0.32002 0.92725
 N781 N 0.93960 0.43478 0.35086
 N782 N 0.92873 0.44381 0.35101
 C783 C 0.93000 0.45283 0.36197
 C784 C 0.94246 0.44947 0.36898
 C785 C 0.94835 0.43789 0.36173
 H786 H 0.92266 0.46153 0.36441
 H787 H 0.95823 0.43227 0.36402
 Cu788 Cu 0.91463 0.44377 0.33630
 Cu789 Cu 0.94138 0.41997 0.33631
 Cu790 Cu 0.91362 0.41803 0.31176
 N791 N 0.89807 0.44132 0.32466
 N792 N 0.89784 0.43180 0.31442
 C793 C 0.88546 0.43333 0.30727
 C794 C 0.87762 0.44429 0.31362
 C795 C 0.88587 0.44899 0.32464
 H796 H 0.88238 0.42696 0.29824
 H797 H 0.88338 0.45772 0.33179
 N798 N 0.93059 0.40516 0.31135
 N799 N 0.94101 0.40586 0.32074
 C800 C 0.95091 0.39577 0.31768
 C801 C 0.94657 0.38837 0.30586
 C802 C 0.93363 0.39456 0.30208
 H803 H 0.96063 0.39388 0.32358
 H804 H 0.92694 0.39159 0.29328
 H805 H 0.92987 0.42986 0.32037
 H806 H 0.91961 0.41838 0.33276
 N807 N 0.31028 0.92724 0.39709
 N808 N 0.31861 0.93853 0.39719
 C809 C 0.31557 0.94671 0.38572
 C810 C 0.30476 0.94015 0.37813
 C811 C 0.30174 0.92787 0.38567
 H812 H 0.32075 0.95669 0.38315
 H813 H 0.29372 0.92004 0.38308
 Cu814 Cu 0.33258 0.94136 0.41244
 Cu815 Cu 0.31033 0.91268 0.41196
 Cu816 Cu 0.33186 0.91943 0.44057
 N817 N 0.34757 0.94187 0.42708
 N818 N 0.34703 0.93277 0.43770
 C819 C 0.35795 0.93491 0.44649
 C820 C 0.36591 0.94604 0.44137
 C821 C 0.35910 0.95034 0.42892
 H822 H 0.35981 0.92894 0.45617
 H823 H 0.36220 0.95892 0.42188
 N824 N 0.32005 0.90249 0.43932
 N825 N 0.31188 0.89957 0.42838
 C826 C 0.30534 0.88696 0.43084
 C827 C 0.30986 0.88180 0.44390
 C828 C 0.31918 0.89186 0.44888
 H829 H 0.29796 0.88190 0.42368
 H830 H 0.32496 0.89142 0.45877
 H831 H 0.31586 0.92718 0.42646
 H832 H 0.33083 0.91620 0.41878
 O833 O 0.28608 0.49586 0.77545
 O834 O 0.28251 0.52072 0.77595
 O835 O 0.24763 0.47865 0.79267
 O836 O 0.22414 0.48048 0.78840
 O837 O 0.26531 0.46158 0.75461
 O838 O 0.26392 0.46945 0.73005
 O839 O 0.21188 0.52139 0.75813
 O840 O 0.21570 0.51580 0.78196
 O841 O 0.24758 0.53969 0.74170
 O842 O 0.27430 0.53390 0.74444
 O843 O 0.23068 0.50712 0.72030
 O844 O 0.23044 0.48099 0.72210
 O845 O 0.21171 0.50624 0.73922
 O846 O 0.21577 0.47935 0.73767
 O847 O 0.24920 0.52258 0.72179
 O848 O 0.27473 0.52013 0.72773
 O849 O 0.23092 0.53897 0.75921
 O850 O 0.23572 0.53173 0.78417
 O851 O 0.28570 0.48094 0.75634
 O852 O 0.28074 0.48421 0.73169
 O853 O 0.24725 0.46081 0.77070
 O854 O 0.22204 0.46827 0.76905
 O855 O 0.26590 0.49444 0.79445
 O856 O 0.26394 0.52095 0.79171
 Zr857 Zr 0.26575 0.50571 0.77510
 O858 O 0.25402 0.52151 0.76392
 Zr859 Zr 0.23960 0.48201 0.77217
 O860 O 0.22677 0.49681 0.76107
 Zr861 Zr 0.26510 0.48322 0.74777
 O862 O 0.25335 0.49803 0.73543
 Zr863 Zr 0.23219 0.51781 0.76679
 O864 O 0.24384 0.50294 0.77927
 Zr865 Zr 0.25747 0.51912 0.74213
 O866 O 0.27054 0.50433 0.75335
 Zr867 Zr 0.23148 0.49539 0.73937
 O868 O 0.24320 0.47933 0.75034
 O869 O 0.26134 0.48470 0.76933
 O870 O 0.23572 0.51642 0.74507
 C871 C 0.29186 0.48654 0.76711
 C872 C 0.25803 0.48437 0.79936
 C873 C 0.25738 0.45494 0.76357
 C874 C 0.20599 0.51593 0.74716
 C875 C 0.23737 0.54533 0.74905
 C876 C 0.23847 0.51723 0.71537
 H877 H 0.25658 0.53120 0.76725
 H878 H 0.25576 0.49661 0.72534
 H879 H 0.26711 0.47765 0.77477
 H880 H 0.21661 0.49493 0.76308
 H881 H 0.22017 0.51179 0.79062
 H882 H 0.21680 0.48794 0.78651
 H883 H 0.27370 0.51211 0.72096
 H884 H 0.28575 0.49341 0.73300
 H885 H 0.22773 0.53880 0.78451
 H886 H 0.27143 0.51883 0.79885
 H887 H 0.23964 0.48145 0.71699
 H888 H 0.25445 0.46487 0.73045
 H889 H 0.28626 0.52163 0.76620
 H890 H 0.27163 0.54079 0.75197
 H891 H 0.22341 0.46365 0.75971
 H892 H 0.20886 0.48078 0.74548
 O893 O 0.22135 0.02661 0.24628
 O894 O 0.22819 0.02370 0.26986
 O895 O 0.25952 0.04117 0.22563
 O896 O 0.28175 0.03371 0.22229
 O897 O 0.23469 0.00711 0.20758
 O898 O 0.23336 -0.01841 0.21284
 O899 O 0.29512 -0.00335 0.25799
 O900 O 0.29428 0.02163 0.25516
 O901 O 0.25984 -0.01599 0.28020
 O902 O 0.23382 -0.01178 0.27780
 O903 O 0.27040 -0.03666 0.24186
 O904 O 0.26774 -0.03137 0.21727
 O905 O 0.29134 -0.02017 0.24096
 O906 O 0.28361 -0.01678 0.21507
 O907 O 0.25644 -0.03459 0.26146
 O908 O 0.23031 -0.02637 0.26216
 O909 O 0.27868 -0.00097 0.27811
 O910 O 0.27678 0.02520 0.27368
 O911 O 0.21732 0.00963 0.22945
 O912 O 0.21942 -0.01627 0.23033
 O913 O 0.25400 0.02161 0.20583
 O914 O 0.27981 0.01537 0.20888
 O915 O 0.24342 0.04326 0.24360
 O916 O 0.24853 0.03697 0.26887
 Zr917 Zr 0.24259 0.02253 0.25261
 O918 O 0.25477 0.00794 0.26486
 Zr919 Zr 0.26476 0.01928 0.22519
 O920 O 0.27804 0.00500 0.23641
 Zr921 Zr 0.23672 -0.00211 0.22798
 O922 O 0.24896 -0.01768 0.23904
 Zr923 Zr 0.27610 0.00871 0.25822
 O924 O 0.26427 0.02437 0.24690
 Zr925 Zr 0.24857 -0.01326 0.26088
 O926 O 0.23505 0.00147 0.24992
 Zr927 Zr 0.27056 -0.01590 0.23337
 O928 O 0.25803 -0.00172 0.22088
 O929 O 0.24340 0.01878 0.23097
 O930 O 0.26990 -0.01243 0.25511
 C931 C 0.21340 0.02046 0.23704
 C932 C 0.25070 0.04841 0.23325
 C933 C 0.24255 0.01614 0.20089
 C934 C 0.29896 -0.01436 0.25065
 C935 C 0.27140 -0.01032 0.28486
 C936 C 0.26484 -0.04168 0.25319
 H937 H 0.25387 0.01046 0.27498
 H938 H 0.24530 -0.02735 0.23696
 H939 H 0.23755 0.02581 0.22560
 H940 H 0.28804 0.00604 0.23329
 H941 H 0.29070 0.03136 0.25271
 H942 H 0.28944 0.03064 0.22880
 H943 H 0.23099 -0.03365 0.25456
 H944 H 0.21621 -0.01542 0.24027
 H945 H 0.28558 0.02379 0.27937
 H946 H 0.24193 0.04537 0.26864
 H947 H 0.25786 -0.03489 0.21805
 H948 H 0.24199 -0.01876 0.20680
 H949 H 0.22316 0.01442 0.27017
 H950 H 0.23623 -0.00318 0.28340
 H951 H 0.27611 0.00740 0.20308
 H952 H 0.29206 -0.01077 0.21678
 O953 O 0.53598 0.73251 0.25029
 O954 O 0.52979 0.73452 0.27413
 O955 O 0.49748 0.71912 0.23005
 O956 O 0.47531 0.72694 0.22706
 O957 O 0.52169 0.75499 0.21272
 O958 O 0.52454 0.77910 0.21915
 O959 O 0.46258 0.76238 0.26484
 O960 O 0.46357 0.73766 0.26165
 O961 O 0.49939 0.77427 0.28627
 O962 O 0.52445 0.77077 0.28340
 O963 O 0.48726 0.79629 0.24900
 O964 O 0.48879 0.79190 0.22429
 O965 O 0.46605 0.77977 0.24827
 O966 O 0.47328 0.77711 0.22199
 O967 O 0.50186 0.79362 0.26805
 O968 O 0.52827 0.78479 0.26721
 O969 O 0.47965 0.76044 0.28439
 O970 O 0.48150 0.73396 0.27972
 O971 O 0.53968 0.74988 0.23371
 O972 O 0.53788 0.77625 0.23684
 O973 O 0.50304 0.73968 0.21080
 O974 O 0.47687 0.74565 0.21483
 O975 O 0.51382 0.71616 0.24765
 O976 O 0.50912 0.72175 0.27329
 Zr977 Zr 0.51498 0.73659 0.25732
 O978 O 0.50333 0.75098 0.27028
 Zr979 Zr 0.49240 0.74108 0.23050
 O980 O 0.47935 0.75486 0.24264
 Zr981 Zr 0.52057 0.76228 0.23361
 O982 O 0.50846 0.77751 0.24506
 Zr983 Zr 0.48178 0.75060 0.26436
 O984 O 0.49317 0.73523 0.25209
 Zr985 Zr 0.50959 0.77225 0.26662
 O986 O 0.52275 0.75766 0.25524
 Zr987 Zr 0.48669 0.77585 0.23998
 O988 O 0.49911 0.76222 0.22686
 O989 O 0.51382 0.74126 0.23585
 O990 O 0.48804 0.77176 0.26157
 C991 C 0.54368 0.73873 0.24087
 C992 C 0.50631 0.71147 0.23727
 C993 C 0.51407 0.74608 0.20583
 C994 C 0.45856 0.77358 0.25787
 C995 C 0.48765 0.76927 0.29107
 C996 C 0.49328 0.80100 0.26019
 H997 H 0.50453 0.74820 0.28032
 H998 H 0.51209 0.78723 0.24312
 H999 H 0.51942 0.73443 0.23000
 H1000 H 0.46928 0.75384 0.23974
 H1001 H 0.46710 0.72798 0.25899
 H1002 H 0.46866 0.72835 0.23507
 H1003 H 0.52704 0.79284 0.26046
 H1004 H 0.54238 0.77342 0.24591
 H1005 H 0.47293 0.73545 0.28572
 H1006 H 0.51549 0.71321 0.27261
 H1007 H 0.49864 0.79553 0.22485
 H1008 H 0.51547 0.78093 0.21407
 H1009 H 0.53525 0.74355 0.27441
 H1010 H 0.52344 0.76114 0.28769
 H1011 H 0.48062 0.75357 0.20895
 H1012 H 0.46473 0.77128 0.22387
 O1013 O -0.04469 0.74316 0.76500
 O1014 O -0.04024 0.71865 0.76406
 O1015 O -0.00891 0.76035 0.78680
 O1016 O 0.01530 0.75884 0.78419
 O1017 O -0.02320 0.78040 0.74854
 O1018 O -0.02111 0.77523 0.72436
 O1019 O 0.03102 0.72129 0.75037
 O1020 O 0.02581 0.72415 0.77411
 O1021 O -0.00527 0.70417 0.73102
 O1022 O -0.03046 0.71017 0.73050
 O1023 O 0.01460 0.73948 0.71311
 O1024 O 0.01394 0.76586 0.71837
 O1025 O 0.03241 0.73813 0.73295
 O1026 O 0.02838 0.76483 0.73430
 O1027 O -0.00341 0.72336 0.71219
 O1028 O -0.02979 0.72620 0.71625
 O1029 O 0.01188 0.70355 0.74804
 O1030 O 0.00595 0.70812 0.77375
 O1031 O -0.04341 0.76074 0.74821
 O1032 O -0.03657 0.75912 0.72313
 O1033 O -0.00750 0.78004 0.76691
 O1034 O 0.01834 0.77352 0.76617
 O1035 O -0.02616 0.74338 0.78573
 O1036 O -0.02258 0.71741 0.78054
 Zr1037 Zr -0.02408 0.73428 0.76546
 O1038 O -0.01140 0.72017 0.75341
 Zr1039 Zr 0.00119 0.75895 0.76675
 O1040 O 0.01529 0.74549 0.75511
 Zr1041 Zr -0.02230 0.75950 0.74045
 O1042 O -0.00913 0.74660 0.72754
 Zr1043 Zr 0.01013 0.72380 0.75802
 O1044 O -0.00263 0.73713 0.77128
 Zr1045 Zr -0.01361 0.72504 0.73185
 O1046 O -0.02772 0.73795 0.74374
 Zr1047 Zr 0.01241 0.74898 0.73330
 O1048 O -0.00071 0.76353 0.74497
 O1049 O -0.02010 0.75591 0.76201
 O1050 O 0.00797 0.72742 0.73639
 C1051 C -0.05013 0.75342 0.75763
 C1052 C -0.01945 0.75339 0.79213
 C1053 C -0.01686 0.78633 0.75899
 C1054 C 0.03763 0.72762 0.74027
 C1055 C 0.00483 0.69791 0.73782
 C1056 C 0.00742 0.72965 0.70686
 H1057 H -0.01404 0.71015 0.75558
 H1058 H -0.01079 0.74911 0.71751
 H1059 H -0.02648 0.76224 0.76762
 H1060 H 0.02524 0.74722 0.75802
 H1061 H 0.02096 0.72762 0.78278
 H1062 H 0.02311 0.75201 0.78191
 H1063 H -0.02744 0.73411 0.70968
 H1064 H -0.04229 0.75031 0.72416
 H1065 H 0.01382 0.70091 0.77346
 H1066 H -0.03043 0.71852 0.78752
 H1067 H 0.00607 0.76480 0.71150
 H1068 H -0.01122 0.77884 0.72453
 H1069 H -0.04386 0.71894 0.75423
 H1070 H -0.03033 0.70430 0.73923
 H1071 H 0.01754 0.77883 0.75712
 H1072 H 0.03417 0.76298 0.74286
 O1073 O 0.00686 0.03904 0.01848
 O1074 O -0.01805 0.04001 0.01683
 O1075 O 0.01540 -0.00157 0.03848
 O1076 O 0.00992 -0.02466 0.03460
 O1077 O 0.03879 0.01070 0.00175
 O1078 O 0.03379 0.01054 -0.02315
 O1079 O -0.02839 -0.03069 0.00027
 O1080 O -0.02561 -0.02626 0.02450
 O1081 O -0.03840 0.00889 -0.01877
 O1082 O -0.02836 0.03318 -0.01709
 O1083 O -0.00709 -0.01635 -0.03611
 O1084 O 0.01817 -0.02146 -0.03109
 O1085 O -0.01186 -0.03447 -0.01706
 O1086 O 0.01508 -0.03572 -0.01525
 O1087 O -0.01969 0.00466 -0.03671
 O1088 O -0.01212 0.03017 -0.03121
 O1089 O -0.04217 -0.00877 -0.00260
 O1090 O -0.03821 -0.00369 0.02347
 O1091 O 0.02357 0.03487 0.00135
 O1092 O 0.02164 0.02961 -0.02360
 O1093 O 0.03492 -0.00601 0.01889
 O1094 O 0.02352 -0.02991 0.01671
 O1095 O 0.00327 0.01975 0.03810
 O1096 O -0.02292 0.02205 0.03265
 Zr1097 Zr -0.00605 0.02064 0.01771
 O1098 O -0.02208 0.01159 0.00491
 Zr1099 Zr 0.01285 -0.00980 0.01795
 O1100 O -0.00254 -0.02024 0.00560
 Zr1101 Zr 0.01856 0.01460 -0.00709
 O1102 O 0.00375 0.00503 -0.02074
 Zr1103 Zr -0.02270 -0.01063 0.00851
 O1104 O -0.00763 -0.00142 0.02248
 Zr1105 Zr -0.01664 0.01362 -0.01655
 O1106 O -0.00154 0.02429 -0.00387
 Zr1107 Zr 0.00214 -0.01694 -0.01589
 O1108 O 0.01846 -0.00771 -0.00353
 O1109 O 0.01420 0.01209 0.01426
 O1110 O -0.01813 -0.00832 -0.01288
 C1111 C 0.01791 0.04260 0.01119
 C1112 C 0.01125 0.01025 0.04422
 C1113 C 0.04302 0.00245 0.01187
 C1114 C -0.02304 -0.03802 -0.01000
 C1115 C -0.04620 -0.00071 -0.01297
 C1116 C -0.01539 -0.00720 -0.04223
 H1117 H -0.03144 0.01611 0.00700
 H1118 H 0.00667 0.00663 -0.03066
 H1119 H 0.02147 0.01674 0.02023
 H1120 H -0.00270 -0.03054 0.00810
 H1121 H -0.02194 -0.02207 0.03339
 H1122 H 0.00126 -0.03014 0.03233
 H1123 H -0.00503 0.02639 -0.03805
 H1124 H 0.01366 0.03663 -0.02299
 H1125 H -0.04650 -0.01015 0.02266
 H1126 H -0.02033 0.02918 0.03997
 H1127 H 0.01945 -0.01273 -0.03690
 H1128 H 0.03611 0.00016 -0.02268
 H1129 H -0.01726 0.04362 0.00701
 H1130 H -0.03471 0.03344 -0.00873
 H1131 H 0.02962 -0.02965 0.00816
 H1132 H 0.01169 -0.04177 -0.00735
 O1133 O -0.00871 0.54171 0.51633
 O1134 O -0.03164 0.53331 0.51138
 O1135 O 0.01284 0.50707 0.53624
 O1136 O 0.01789 0.48393 0.53193
 O1137 O 0.03312 0.52886 0.50142
 O1138 O 0.03039 0.52886 0.47684
 O1139 O -0.01347 0.46518 0.49252
 O1140 O -0.01328 0.46788 0.51715
 O1141 O -0.03535 0.49907 0.47481
 O1142 O -0.03482 0.52475 0.47602
 O1143 O 0.00551 0.48755 0.45979
 O1144 O 0.02979 0.49228 0.46764
 O1145 O 0.00551 0.46831 0.47782
 O1146 O 0.03065 0.47724 0.48334
 O1147 O -0.01459 0.50137 0.45828
 O1148 O -0.01725 0.52838 0.46394
 O1149 O -0.03446 0.48098 0.49102
 O1150 O -0.03292 0.48491 0.51722
 O1151 O 0.00986 0.54523 0.50115
 O1152 O 0.01146 0.54086 0.47526
 O1153 O 0.03455 0.51149 0.51835
 O1154 O 0.03326 0.48466 0.51510
 O1155 O -0.00687 0.52150 0.53481
 O1156 O -0.03081 0.51397 0.52653
 Zr1157 Zr -0.01335 0.51992 0.51356
 O1158 O -0.02321 0.50608 0.49911
 Zr1159 Zr 0.01580 0.49927 0.51555
 O1160 O 0.00672 0.48406 0.50181
 Zr1161 Zr 0.01365 0.52517 0.49134
 O1162 O 0.00536 0.51096 0.47625
 Zr1163 Zr -0.01569 0.48509 0.50265
 O1164 O -0.00659 0.49874 0.51806
 Zr1165 Zr -0.01689 0.51094 0.47834
 O1166 O -0.00868 0.52617 0.49261
 Zr1167 Zr 0.01180 0.48976 0.48093
 O1168 O 0.02195 0.50432 0.49473
 O1169 O 0.00879 0.52014 0.51215
 O1170 O -0.01035 0.48986 0.48183
 C1171 C 0.00093 0.54954 0.51067
 C1172 C 0.00358 0.51579 0.54163
 C1173 C 0.03944 0.52250 0.51172
 C1174 C -0.00473 0.46081 0.48291
 C1175 C -0.04032 0.48772 0.48060
 C1176 C -0.00537 0.49248 0.45311
 H1177 H -0.03368 0.50674 0.50036
 H1178 H 0.00839 0.51391 0.46667
 H1179 H 0.01320 0.52684 0.51893
 H1180 H 0.01017 0.47429 0.50420
 H1181 H -0.01183 0.47226 0.52657
 H1182 H 0.01185 0.47575 0.52925
 H1183 H -0.00915 0.52714 0.45732
 H1184 H 0.00168 0.54489 0.47605
 H1185 H -0.03820 0.47586 0.51582
 H1186 H -0.03214 0.52135 0.53399
 H1187 H 0.02824 0.50109 0.46197
 H1188 H 0.03607 0.51985 0.47646
 H1189 H -0.03077 0.53829 0.50216
 H1190 H -0.04071 0.52375 0.48465
 H1191 H 0.03963 0.48778 0.50735
 H1192 H 0.02863 0.46938 0.49007
 O1193 O 0.50063 -0.01926 0.46786
 O1194 O 0.52329 -0.02049 0.47718
 O1195 O 0.47445 -0.03627 0.50155
 O1196 O 0.46821 -0.03063 0.52363
 O1197 O 0.46206 0.00317 0.47926
 O1198 O 0.46927 0.02722 0.48115
 O1199 O 0.50774 -0.00014 0.54440
 O1200 O 0.50222 -0.02423 0.54066
 O1201 O 0.53313 0.01454 0.51298
 O1202 O 0.53340 0.01401 0.48726
 O1203 O 0.49570 0.03761 0.52271
 O1204 O 0.47105 0.03513 0.51821
 O1205 O 0.49259 0.01889 0.54130
 O1206 O 0.46639 0.01837 0.53153
 O1207 O 0.51642 0.03528 0.51033
 O1208 O 0.51885 0.02997 0.48364
 O1209 O 0.52858 -0.00238 0.52971
 O1210 O 0.52201 -0.02791 0.52436
 O1211 O 0.48558 -0.00017 0.46434
 O1212 O 0.48871 0.02548 0.46997
 O1213 O 0.45688 -0.01397 0.49561
 O1214 O 0.45756 -0.01086 0.52254
 O1215 O 0.49363 -0.03834 0.48686
 O1216 O 0.51883 -0.03561 0.49562
 Zr1217 Zr 0.50459 -0.01879 0.48967
 O1218 O 0.51682 -0.00702 0.50418
 Zr1219 Zr 0.47505 -0.01506 0.50893
 O1220 O 0.48633 -0.00411 0.52484
 Zr1221 Zr 0.48285 0.00926 0.48448
 O1222 O 0.49355 0.02189 0.49945
 Zr1223 Zr 0.50810 -0.00978 0.52441
 O1224 O 0.49639 -0.02254 0.51009
 Zr1225 Zr 0.51495 0.01514 0.50016
 O1226 O 0.50449 0.00324 0.48432
 Zr1227 Zr 0.48575 0.01783 0.51996
 O1228 O 0.47341 0.00702 0.50461
 O1229 O 0.48325 -0.01260 0.48872
 O1230 O 0.50722 0.01219 0.52051
 C1231 C 0.49284 -0.01115 0.45998
 C1232 C 0.48225 -0.04324 0.49269
 C1233 C 0.45380 -0.00622 0.48468
 C1234 C 0.50139 0.01132 0.54875
 C1235 C 0.53643 0.00731 0.52409
 C1236 C 0.50788 0.04216 0.51864
 H1237 H 0.52685 -0.01043 0.50385
 H1238 H 0.49255 0.03214 0.49686
 H1239 H 0.47798 -0.01822 0.48160
 H1240 H 0.48219 -0.00612 0.53425
 H1241 H 0.49919 -0.03316 0.53590
 H1242 H 0.47562 -0.03112 0.53105
 H1243 H 0.51206 0.03810 0.48473
 H1244 H 0.49834 0.02289 0.46642
 H1245 H 0.52715 -0.02807 0.53352
 H1246 H 0.51847 -0.04325 0.48834
 H1247 H 0.47255 0.03955 0.50881
 H1248 H 0.46291 0.02781 0.48951
 H1249 H 0.52529 -0.01073 0.47359
 H1250 H 0.53789 0.00447 0.48877
 H1251 H 0.45250 -0.00229 0.51875
 H1252 H 0.46757 0.01218 0.53998
 O1253 O 0.50471 0.53936 0.01637
 O1254 O 0.48052 0.53422 0.02003
 O1255 O 0.52733 0.50361 0.03354
 O1256 O 0.52804 0.47816 0.02909
 O1257 O 0.53745 0.52001 -0.00807
 O1258 O 0.52698 0.51666 -0.03086
 O1259 O 0.48501 0.46219 0.00678
 O1260 O 0.49325 0.46774 0.02904
 O1261 O 0.46142 0.49566 -0.00913
 O1262 O 0.46432 0.52224 -0.00989
 O1263 O 0.49332 0.47922 -0.03393
 O1264 O 0.51899 0.48077 -0.03487
 O1265 O 0.49749 0.46167 -0.01392
 O1266 O 0.52370 0.46739 -0.01854
 O1267 O 0.47582 0.49613 -0.03137
 O1268 O 0.47670 0.52285 -0.02749
 O1269 O 0.46611 0.47984 0.00868
 O1270 O 0.47575 0.48715 0.03237
 O1271 O 0.51696 0.53886 -0.00450
 O1272 O 0.51010 0.53175 -0.02830
 O1273 O 0.54232 0.50406 0.00960
 O1274 O 0.53853 0.47808 0.01022
 O1275 O 0.50996 0.52066 0.03639
 O1276 O 0.48378 0.51662 0.03667
 Zr1277 Zr 0.49682 0.51838 0.01839
 O1278 O 0.48131 0.50464 0.00986
 Zr1279 Zr 0.52274 0.49403 0.01391
 O1280 O 0.50823 0.47916 0.00571
 Zr1281 Zr 0.51549 0.51754 -0.01162
 O1282 O 0.50104 0.50351 -0.02126
 Zr1283 Zr 0.48767 0.48333 0.01362
 O1284 O 0.50256 0.49701 0.02345
 Zr1285 Zr 0.48072 0.50660 -0.01227
 O1286 O 0.49493 0.52173 -0.00363
 Zr1287 Zr 0.50652 0.48216 -0.01623
 O1288 O 0.52221 0.49616 -0.00826
 O1289 O 0.51717 0.51526 0.01018
 O1290 O 0.48608 0.48529 -0.00829
 C1291 C 0.51242 0.54523 0.00672
 C1292 C 0.52122 0.51380 0.04051
 C1293 C 0.54593 0.51397 0.00083
 C1294 C 0.48936 0.45594 -0.00454
 C1295 C 0.45789 0.48537 -0.00077
 C1296 C 0.48185 0.48567 -0.03799
 H1297 H 0.47190 0.50667 0.01419
 H1298 H 0.50103 0.50524 -0.03158
 H1299 H 0.52408 0.52191 0.01446
 H1300 H 0.51142 0.46932 0.00822
 H1301 H 0.49713 0.47300 0.03724
 H1302 H 0.52031 0.47826 0.03620
 H1303 H 0.48321 0.52114 -0.03558
 H1304 H 0.50120 0.53678 -0.02545
 H1305 H 0.46975 0.47862 0.03408
 H1306 H 0.48591 0.52470 0.04313
 H1307 H 0.51735 0.48972 -0.04030
 H1308 H 0.53232 0.50742 -0.03084
 H1309 H 0.47814 0.53724 0.01026
 H1310 H 0.46018 0.52113 -0.00033
 H1311 H 0.54127 0.47884 0.00013
 H1312 H 0.52373 0.46095 -0.01021
 O1313 O 0.78828 0.24958 0.48240
 O1314 O 0.78267 0.22554 0.48501
 O1315 O 0.74899 0.26894 0.46778
 O1316 O 0.72675 0.27199 0.47529
 O1317 O 0.77281 0.28859 0.50224
 O1318 O 0.77567 0.28340 0.52645
 O1319 O 0.71548 0.23528 0.51136
 O1320 O 0.71656 0.23683 0.48694
 O1321 O 0.75297 0.21449 0.52482
 O1322 O 0.77811 0.21789 0.52113
 O1323 O 0.73961 0.25285 0.54456
 O1324 O 0.74053 0.27788 0.53909
 O1325 O 0.71842 0.25269 0.52797
 O1326 O 0.72479 0.27920 0.52455
 O1327 O 0.75483 0.23373 0.54290
 O1328 O 0.78117 0.23481 0.53454
 O1329 O 0.73304 0.21556 0.51114
 O1330 O 0.73499 0.21885 0.48468
 O1331 O 0.79143 0.26720 0.49879
 O1332 O 0.78968 0.26582 0.52478
 O1333 O 0.75408 0.28949 0.48693
 O1334 O 0.72813 0.28524 0.49315
 O1335 O 0.76618 0.25158 0.46588
 O1336 O 0.76195 0.22569 0.47234
 Zr1337 Zr 0.76748 0.24248 0.48638
 O1338 O 0.75639 0.22969 0.50106
 Zr1339 Zr 0.74407 0.26943 0.48937
 O1340 O 0.73153 0.25743 0.50340
 Zr1341 Zr 0.77230 0.26779 0.51064
 O1342 O 0.76070 0.25655 0.52608
 Zr1343 Zr 0.73471 0.23529 0.50020
 O1344 O 0.74556 0.24732 0.48459
 Zr1345 Zr 0.76254 0.23450 0.52189
 O1346 O 0.77522 0.24571 0.50709
 Zr1347 Zr 0.73879 0.26121 0.52403
 O1348 O 0.75067 0.27420 0.51007
 O1349 O 0.76566 0.26443 0.48999
 O1350 O 0.74085 0.23918 0.52098
 C1351 C 0.79566 0.25946 0.48827
 C1352 C 0.75821 0.26165 0.46071
 C1353 C 0.76498 0.29502 0.49304
 C1354 C 0.71123 0.24270 0.52202
 C1355 C 0.74126 0.20930 0.52021
 C1356 C 0.74597 0.24179 0.54973
 H1357 H 0.75788 0.21942 0.49881
 H1358 H 0.76428 0.25900 0.53559
 H1359 H 0.77112 0.27013 0.48306
 H1360 H 0.72137 0.26014 0.50215
 H1361 H 0.72009 0.23940 0.47739
 H1362 H 0.72043 0.26374 0.47694
 H1363 H 0.77967 0.24192 0.54217
 H1364 H 0.79431 0.25641 0.52285
 H1365 H 0.72678 0.21250 0.48654
 H1366 H 0.76817 0.22624 0.46386
 H1367 H 0.75031 0.27744 0.54297
 H1368 H 0.76640 0.28840 0.52786
 H1369 H 0.78793 0.22541 0.49409
 H1370 H 0.77671 0.21262 0.51217
 H1371 H 0.73180 0.29165 0.50062
 H1372 H 0.71655 0.27713 0.51838
 O1373 O 0.76347 0.78627 -0.00873
 O1374 O 0.76145 0.78209 0.01580
 O1375 O 0.78234 0.74801 -0.02504
 O1376 O 0.77669 0.72295 -0.02376
 O1377 O 0.74519 0.76574 -0.04506
 O1378 O 0.72053 0.76608 -0.03997
 O1379 O 0.74207 0.71164 0.01262
 O1380 O 0.76647 0.71446 0.01004
 O1381 O 0.72553 0.74952 0.02993
 O1382 O 0.72623 0.77452 0.02428
 O1383 O 0.70674 0.73106 -0.00619
 O1384 O 0.71223 0.73146 -0.03166
 O1385 O 0.72577 0.71160 -0.00525
 O1386 O 0.72747 0.71615 -0.03115
 O1387 O 0.70679 0.74799 0.01112
 O1388 O 0.71234 0.77504 0.00764
 O1389 O 0.74135 0.73083 0.03038
 O1390 O 0.76758 0.73470 0.02622
 O1391 O 0.74594 0.78640 -0.02546
 O1392 O 0.72049 0.78176 -0.02427
 O1393 O 0.76253 0.74840 -0.04461
 O1394 O 0.76032 0.72288 -0.03861
 O1395 O 0.78261 0.76618 -0.00896
 O1396 O 0.77699 0.76280 0.01693
 Zr1397 Zr 0.76198 0.76565 0.00034
 O1398 O 0.74864 0.75390 0.01409
 Zr1399 Zr 0.76152 0.73993 -0.02392
 O1400 O 0.74875 0.72692 -0.01099
 Zr1401 Zr 0.73679 0.76587 -0.02450
 O1402 O 0.72272 0.75376 -0.01210
 Zr1403 Zr 0.75172 0.73184 0.01050
 O1404 O 0.76621 0.74352 -0.00238
 Zr1405 Zr 0.72702 0.75767 0.00931
 O1406 O 0.74027 0.77093 -0.00314
 Zr1407 Zr 0.72724 0.73182 -0.01495
 O1408 O 0.73996 0.74391 -0.02889
 O1409 O 0.75828 0.76175 -0.02094
 O1410 O 0.73021 0.73574 0.00651
 C1411 C 0.75620 0.79232 -0.01869
 C1412 C 0.78850 0.75840 -0.01867
 C1413 C 0.75522 0.75833 -0.05085
 C1414 C 0.73207 0.70577 0.00539
 C1415 C 0.73151 0.73872 0.03600
 C1416 C 0.70088 0.73782 0.00412
 H1417 H 0.75087 0.75638 0.02401
 H1418 H 0.71276 0.75624 -0.01461
 H1419 H 0.76439 0.76759 -0.02718
 H1420 H 0.75112 0.71671 -0.01283
 H1421 H 0.77583 0.71851 0.00745
 H1422 H 0.78216 0.72382 -0.01486
 H1423 H 0.70460 0.77216 0.00118
 H1424 H 0.72144 0.78703 -0.01524
 H1425 H 0.76678 0.72669 0.03308
 H1426 H 0.78449 0.77015 0.01589
 H1427 H 0.70620 0.74021 -0.03090
 H1428 H 0.72036 0.75631 -0.04407
 H1429 H 0.75197 0.78684 0.01507
 H1430 H 0.73556 0.77464 0.02915
 H1431 H 0.75143 0.72440 -0.04408
 H1432 H 0.73579 0.70973 -0.02954
 O1433 O 1.00523 0.21406 0.23856
 O1434 O 0.98059 0.21557 0.24349
 O1435 O 1.01391 0.24814 0.21062
 O1436 O 1.01051 0.27195 0.20966
 O1437 O 1.03973 0.24173 0.24737
 O1438 O 1.03649 0.24777 0.27214
 O1439 O 0.97494 0.28888 0.24499
 O1440 O 0.97696 0.28044 0.22170
 O1441 O 0.96427 0.25629 0.27124
 O1442 O 0.97293 0.23062 0.27444
 O1443 O 0.99897 0.28072 0.28175
 O1444 O 1.02376 0.28204 0.27388
 O1445 O 0.99326 0.29466 0.25965
 O1446 O 1.02009 0.29304 0.25575
 O1447 O 0.98456 0.26206 0.28726
 O1448 O 0.98932 0.23575 0.28747
 O1449 O 0.96001 0.26831 0.25066
 O1450 O 0.96346 0.25892 0.22646
 O1451 O 1.02329 0.21984 0.25358
 O1452 O 1.02335 0.23012 0.27709
 O1453 O 1.03544 0.25522 0.22768
 O1454 O 1.02584 0.27963 0.22519
 O1455 O 0.99964 0.22931 0.21612
 O1456 O 0.97468 0.22974 0.22453
 Zr1457 Zr 0.99310 0.23322 0.23706
 O1458 O 0.97876 0.24651 0.24834
 Zr1459 Zr 1.01379 0.26092 0.22898
 O1460 O 1.00024 0.27533 0.23975
 Zr1461 Zr 1.01999 0.24181 0.25817
 O1462 O 1.00679 0.25554 0.27035
 Zr1463 Zr 0.97945 0.26735 0.23989
 O1464 O 0.99264 0.25376 0.22757
 Zr1465 Zr 0.98553 0.24864 0.26937
 O1466 O 0.99906 0.23391 0.25854
 Zr1467 Zr 1.00623 0.27610 0.26115
 O1468 O 1.02090 0.26283 0.25002
 O1469 O 1.01406 0.24023 0.23710
 O1470 O 0.98522 0.26928 0.26109
 C1471 C 1.01669 0.21099 0.24553
 C1472 C 1.00773 0.23625 0.20763
 C1473 C 1.04361 0.24765 0.23569
 C1474 C 0.98151 0.29760 0.25317
 C1475 C 0.95628 0.26377 0.26288
 C1476 C 0.99039 0.27414 0.29007
 H1477 H 0.96903 0.24258 0.24770
 H1478 H 1.01035 0.25578 0.28018
 H1479 H 1.02050 0.23386 0.23161
 H1480 H 1.00051 0.28490 0.23522
 H1481 H 0.97977 0.27444 0.21349
 H1482 H 1.00326 0.27952 0.21144
 H1483 H 0.99821 0.23910 0.29195
 H1484 H 1.01479 0.22417 0.27850
 H1485 H 0.95570 0.26620 0.22564
 H1486 H 0.97611 0.22080 0.21898
 H1487 H 1.02519 0.27443 0.28108
 H1488 H 1.03979 0.25730 0.26896
 H1489 H 0.98275 0.21378 0.25360
 H1490 H 0.96551 0.22972 0.26707
 H1491 H 1.03206 0.28098 0.23353
 H1492 H 1.01621 0.29788 0.24724
 O1493 O 0.71899 1.02020 0.74505
 O1494 O 0.72396 1.01749 0.76951
 O1495 O 0.75701 1.03848 0.72809
 O1496 O 0.78023 1.03335 0.72707
 O1497 O 0.73742 1.00234 0.70834
 O1498 O 0.73905 0.97651 0.71334
 O1499 O 0.79417 0.99723 0.76372
 O1500 O 0.79123 1.02228 0.76024
 O1501 O 0.75881 0.98143 0.78279
 O1502 O 0.73246 0.98404 0.77852
 O1503 O 0.77384 0.96195 0.74616
 O1504 O 0.77255 0.96716 0.72078
 O1505 O 0.79337 0.98048 0.74619
 O1506 O 0.78788 0.98213 0.72036
 O1507 O 0.75738 0.96255 0.76385
 O1508 O 0.73141 0.96879 0.76323
 O1509 O 0.77590 0.99856 0.78226
 O1510 O 0.77204 1.02435 0.77732
 O1511 O 0.71827 1.00193 0.72903
 O1512 O 0.72320 0.97688 0.72899
 O1513 O 0.75547 1.01847 0.70800
 O1514 O 0.78111 1.01499 0.71306
 O1515 O 0.73950 1.03897 0.74482
 O1516 O 0.74262 1.03321 0.77018
 Zr1517 Zr 0.73985 1.01817 0.75358
 O1518 O 0.75247 1.00504 0.76697
 Zr1519 Zr 0.76460 1.01721 0.72824
 O1520 O 0.77817 1.00416 0.74056
 Zr1521 Zr 0.73890 0.99297 0.72873
 O1522 O 0.75130 0.97876 0.74114
 Zr1523 Zr 0.77416 1.00772 0.76210
 O1524 O 0.76170 1.02213 0.74979
 Zr1525 Zr 0.74857 0.98335 0.76281
 O1526 O 0.73477 0.99644 0.75039
 Zr1527 Zr 0.77297 0.98257 0.73721
 O1528 O 0.76051 0.99558 0.72353
 O1529 O 0.74300 1.01451 0.73213
 O1530 O 0.77016 0.98605 0.75879
 C1531 C 0.71256 1.01253 0.73570
 C1532 C 0.74707 1.04485 0.73510
 C1533 C 0.74493 1.01208 0.70225
 C1534 C 0.79959 0.98676 0.75653
 C1535 C 0.76925 0.98833 0.78836
 C1536 C 0.76715 0.95625 0.75655
 H1537 H 0.75054 1.00754 0.77696
 H1538 H 0.74866 0.96878 0.73888
 H1539 H 0.73693 1.02092 0.72628
 H1540 H 0.78824 1.00612 0.73824
 H1541 H 0.78695 1.03162 0.75742
 H1542 H 0.78806 1.03046 0.73351
 H1543 H 0.73250 0.96227 0.75504
 H1544 H 0.71918 0.97682 0.73868
 H1545 H 0.78044 1.02386 0.78368
 H1546 H 0.73499 1.04066 0.76949
 H1547 H 0.76346 0.96195 0.72154
 H1548 H 0.74796 0.97759 0.70781
 H1549 H 0.71959 1.00788 0.76900
 H1550 H 0.73432 0.99234 0.78474
 H1551 H 0.77907 1.00626 0.70750
 H1552 H 0.79464 0.99007 0.72181
 O1553 O 0.70885 0.51006 0.24537
 O1554 O 0.71185 0.50404 0.26963
 O1555 O 0.74323 0.53679 0.23516
 O1556 O 0.76728 0.53604 0.23771
 O1557 O 0.73371 0.50133 0.20869
 O1558 O 0.73853 0.47579 0.21020
 O1559 O 0.78453 0.49652 0.26886
 O1560 O 0.77739 0.52114 0.26909
 O1561 O 0.75025 0.47247 0.28118
 O1562 O 0.72497 0.47098 0.27399
 O1563 O 0.77303 0.46207 0.24499
 O1564 O 0.77194 0.47107 0.21967
 O1565 O 0.78841 0.48352 0.24877
 O1566 O 0.78497 0.48779 0.22337
 O1567 O 0.75492 0.45704 0.26014
 O1568 O 0.72820 0.45881 0.25641
 O1569 O 0.76521 0.49113 0.28494
 O1570 O 0.75703 0.51656 0.28421
 O1571 O 0.71265 0.49516 0.22656
 O1572 O 0.72163 0.47123 0.22385
 O1573 O 0.74822 0.52029 0.21286
 O1574 O 0.77300 0.52103 0.22054
 O1575 O 0.72518 0.53166 0.25042
 O1576 O 0.72737 0.52218 0.27484
 Zr1577 Zr 0.72868 0.50998 0.25592
 O1578 O 0.74208 0.49685 0.26848
 Zr1579 Zr 0.75515 0.51746 0.23378
 O1580 O 0.76966 0.50469 0.24539
 Zr1581 Zr 0.73437 0.48939 0.22765
 O1582 O 0.74792 0.47537 0.23901
 Zr1583 Zr 0.76326 0.50376 0.26664
 O1584 O 0.74963 0.51804 0.25536
 Zr1585 Zr 0.74234 0.47585 0.26055
 O1586 O 0.72768 0.48855 0.24888
 Zr1587 Zr 0.76875 0.48332 0.23828
 O1588 O 0.75547 0.49646 0.22549
 O1589 O 0.73427 0.51049 0.23465
 O1590 O 0.76334 0.48262 0.25960
 C1591 C 0.70473 0.50349 0.23412
 C1592 C 0.73186 0.54020 0.24213
 C1593 C 0.73990 0.51300 0.20496
 C1594 C 0.79237 0.48867 0.26069
 C1595 C 0.75933 0.47934 0.28867
 C1596 C 0.76660 0.45378 0.25374
 H1597 H 0.73885 0.49723 0.27845
 H1598 H 0.74737 0.46558 0.23506
 H1599 H 0.72779 0.51668 0.22900
 H1600 H 0.77937 0.50865 0.24455
 H1601 H 0.77169 0.53000 0.26745
 H1602 H 0.77537 0.53311 0.24381
 H1603 H 0.73184 0.45348 0.24808
 H1604 H 0.71673 0.46907 0.23288
 H1605 H 0.76488 0.51621 0.29124
 H1606 H 0.71867 0.52834 0.27446
 H1607 H 0.76530 0.46290 0.21992
 H1608 H 0.74805 0.47840 0.20654
 H1609 H 0.70889 0.49428 0.26682
 H1610 H 0.72411 0.47876 0.28105
 H1611 H 0.77353 0.51289 0.21383
 H1612 H 0.78932 0.49701 0.22606
 O1613 O 0.49952 0.20776 0.73108
 O1614 O 0.47490 0.21400 0.73207
 O1615 O 0.52020 0.24373 0.71400
 O1616 O 0.52063 0.26781 0.71851
 O1617 O 0.53590 0.22451 0.75205
 O1618 O 0.52859 0.22595 0.77655
 O1619 O 0.48250 0.28432 0.75111
 O1620 O 0.48798 0.28103 0.72697
 O1621 O 0.46069 0.24974 0.76547
 O1622 O 0.46396 0.22280 0.76336
 O1623 O 0.49507 0.26346 0.78742
 O1624 O 0.52206 0.25943 0.78452
 O1625 O 0.49890 0.28270 0.76884
 O1626 O 0.52382 0.27584 0.77071
 O1627 O 0.47779 0.24662 0.78577
 O1628 O 0.47746 0.22115 0.77988
 O1629 O 0.46319 0.26704 0.74864
 O1630 O 0.47002 0.26277 0.72373
 O1631 O 0.51444 0.20613 0.75010
 O1632 O 0.51213 0.21095 0.77486
 O1633 O 0.53825 0.24193 0.73533
 O1634 O 0.53443 0.26769 0.73754
 O1635 O 0.50158 0.22832 0.71237
 O1636 O 0.47610 0.23249 0.71621
 Zr1637 Zr 0.49166 0.22906 0.73222
 O1638 O 0.47784 0.24257 0.74380
 Zr1639 Zr 0.51827 0.25228 0.73468
 O1640 O 0.50557 0.26668 0.74656
 Zr1641 Zr 0.51461 0.22678 0.75902
 O1642 O 0.50158 0.23992 0.77187
 Zr1643 Zr 0.48405 0.26403 0.74129
 O1644 O 0.49688 0.25070 0.72823
 Zr1645 Zr 0.48021 0.23826 0.76541
 O1646 O 0.49305 0.22370 0.75382
 Zr1647 Zr 0.50667 0.26149 0.76823
 O1648 O 0.52090 0.24822 0.75650
 O1649 O 0.51308 0.23091 0.73749
 O1650 O 0.48528 0.25979 0.76291
 C1651 C 0.50823 0.20083 0.73922
 C1652 C 0.51253 0.23460 0.70726
 C1653 C 0.54311 0.23137 0.74271
 C1654 C 0.48930 0.28950 0.76174
 C1655 C 0.45611 0.26061 0.75829
 C1656 C 0.48423 0.25666 0.79230
 H1657 H 0.46792 0.24121 0.74055
 H1658 H 0.50287 0.23718 0.78189
 H1659 H 0.51926 0.22447 0.73178
 H1660 H 0.50859 0.27665 0.74473
 H1661 H 0.49135 0.27654 0.71806
 H1662 H 0.51539 0.27655 0.72153
 H1663 H 0.48577 0.22102 0.78631
 H1664 H 0.50246 0.20699 0.77362
 H1665 H 0.46407 0.27165 0.72356
 H1666 H 0.47691 0.22466 0.70913
 H1667 H 0.51874 0.25203 0.79123
 H1668 H 0.53397 0.23503 0.77647
 H1669 H 0.47488 0.20923 0.74144
 H1670 H 0.45810 0.22540 0.75502
 H1671 H 0.53870 0.26585 0.74696
 H1672 H 0.52484 0.28118 0.76173
 O1673 O 0.28589 0.74508 0.48064
 O1674 O 0.27960 0.72107 0.48565
 O1675 O 0.25088 0.76273 0.45823
 O1676 O 0.22702 0.76427 0.46103
 O1677 O 0.26798 0.78560 0.49313
 O1678 O 0.26570 0.78289 0.51871
 O1679 O 0.20902 0.73336 0.49944
 O1680 O 0.21359 0.73355 0.47495
 O1681 O 0.24249 0.71381 0.51971
 O1682 O 0.26914 0.71677 0.51888
 O1683 O 0.22753 0.75347 0.53365
 O1684 O 0.23119 0.77868 0.52594
 O1685 O 0.20965 0.75277 0.51407
 O1686 O 0.21667 0.77829 0.51014
 O1687 O 0.24312 0.73477 0.53623
 O1688 O 0.26953 0.73370 0.53244
 O1689 O 0.22614 0.71354 0.50194
 O1690 O 0.23187 0.71505 0.47645
 O1691 O 0.28649 0.76421 0.49565
 O1692 O 0.28084 0.76598 0.52046
 O1693 O 0.25107 0.78482 0.47587
 O1694 O 0.22548 0.78121 0.47717
 O1695 O 0.26683 0.74428 0.46081
 O1696 O 0.26186 0.71961 0.46910
 Zr1697 Zr 0.26468 0.73793 0.48210
 O1698 O 0.25074 0.72672 0.49557
 Zr1699 Zr 0.24135 0.76487 0.47830
 O1700 O 0.22648 0.75482 0.49152
 Zr1701 Zr 0.26564 0.76585 0.50396
 O1702 O 0.25177 0.75576 0.51841
 Zr1703 Zr 0.22961 0.73253 0.49070
 O1704 O 0.24341 0.74249 0.47608
 Zr1705 Zr 0.25361 0.73328 0.51658
 O1706 O 0.26877 0.74342 0.50332
 Zr1707 Zr 0.23058 0.76041 0.51266
 O1708 O 0.24448 0.77188 0.49924
 O1709 O 0.26246 0.76013 0.48303
 O1710 O 0.23251 0.73816 0.51181
 C1711 C 0.29229 0.75563 0.48659
 C1712 C 0.26067 0.75419 0.45350
 C1713 C 0.26118 0.79102 0.48250
 C1714 C 0.20336 0.74201 0.50851
 C1715 C 0.23204 0.70811 0.51296
 C1716 C 0.23312 0.74311 0.54079
 H1717 H 0.25231 0.71627 0.49440
 H1718 H 0.25386 0.75902 0.52813
 H1719 H 0.26905 0.76516 0.47658
 H1720 H 0.21668 0.75750 0.48859
 H1721 H 0.21855 0.73502 0.46582
 H1722 H 0.21834 0.75933 0.46432
 H1723 H 0.26857 0.74290 0.53758
 H1724 H 0.28449 0.75600 0.52135
 H1725 H 0.22313 0.70919 0.47707
 H1726 H 0.26986 0.71905 0.46223
 H1727 H 0.23918 0.77735 0.53266
 H1728 H 0.25672 0.78837 0.51722
 H1729 H 0.28357 0.72251 0.49524
 H1730 H 0.26754 0.70963 0.51133
 H1731 H 0.22667 0.78733 0.48562
 H1732 H 0.21023 0.77627 0.50212
 O1733 O 0.27345 0.28520 1.00419
 O1734 O 0.27440 0.27724 1.02715
 O1735 O 0.29139 0.24953 0.98047
 O1736 O 0.28613 0.22682 0.97542
 O1737 O 0.25157 0.27077 0.96656
 O1738 O 0.22786 0.27001 0.97421
 O1739 O 0.25706 0.20755 1.01489
 O1740 O 0.28056 0.21223 1.01054
 O1741 O 0.23981 0.24071 1.03900
 O1742 O 0.23965 0.26643 1.03807
 O1743 O 0.21799 0.22884 1.00190
 O1744 O 0.22113 0.23119 0.97766
 O1745 O 0.23730 0.20992 1.00103
 O1746 O 0.23845 0.21807 0.97410
 O1747 O 0.21943 0.24237 1.02185
 O1748 O 0.22447 0.26975 1.02280
 O1749 O 0.25698 0.22365 1.03539
 O1750 O 0.28244 0.22962 1.02934
 O1751 O 0.25509 0.28772 0.98855
 O1752 O 0.22938 0.28204 0.99288
 O1753 O 0.26935 0.25442 0.96258
 O1754 O 0.26683 0.22733 0.96481
 O1755 O 0.29290 0.26559 0.99853
 O1756 O 0.28962 0.25829 1.02421
 Zr1757 Zr 0.27324 0.26336 1.00949
 O1758 O 0.26155 0.24924 1.02241
 Zr1759 Zr 0.27045 0.24208 0.98139
 O1760 O 0.25986 0.22649 0.99349
 Zr1761 Zr 0.24570 0.26710 0.98762
 O1762 O 0.23328 0.25223 0.99890
 Zr1763 Zr 0.26508 0.22832 1.01503
 O1764 O 0.27759 0.24228 1.00260
 Zr1765 Zr 0.23943 0.25274 1.02023
 O1766 O 0.25121 0.26844 1.00909
 Zr1767 Zr 0.23798 0.23102 0.99250
 O1768 O 0.24845 0.24615 0.97947
 O1769 O 0.26749 0.26302 0.98827
 O1770 O 0.24311 0.23172 1.01384
 C1771 C 0.26574 0.29264 0.99563
 C1772 C 0.29806 0.25898 0.98765
 C1773 C 0.26119 0.26495 0.95875
 C1774 C 0.24559 0.20272 1.00941
 C1775 C 0.24708 0.22961 1.04285
 C1776 C 0.21295 0.23357 1.01360
 H1777 H 0.26466 0.25017 1.03236
 H1778 H 0.22307 0.25466 0.99760
 H1779 H 0.27306 0.26988 0.98255
 H1780 H 0.26221 0.21678 0.98990
 H1781 H 0.28924 0.21726 1.00736
 H1782 H 0.28730 0.22031 0.98360
 H1783 H 0.21644 0.26807 1.01624
 H1784 H 0.23224 0.28668 1.00184
 H1785 H 0.28268 0.22065 1.03500
 H1786 H 0.29726 0.26551 1.02329
 H1787 H 0.21695 0.24099 0.97778
 H1788 H 0.22709 0.26112 0.96856
 H1789 H 0.26456 0.28078 1.02896
 H1790 H 0.24936 0.26595 1.04213
 H1791 H 0.25822 0.23072 0.95968
 H1792 H 0.24402 0.20925 0.97626
 C1793 C 0.30260 0.37639 0.79317
 C1794 C 0.28937 0.38306 0.79501
 C1795 C 0.28519 0.39585 0.78670
 N1796 N 0.27192 0.40159 0.78816
 N1797 N 0.26809 0.41328 0.78091
 C1798 C 0.27736 0.41969 0.77189
 N1799 N 0.29064 0.41393 0.77039
 N1800 N 0.29446 0.40221 0.77763
 C1801 C 0.27351 0.43319 0.76458
 C1802 C 0.26026 0.43975 0.76677
 H1803 H 0.28186 0.37880 0.80259
 H1804 H 0.28163 0.43868 0.75854
 H1805 H 0.30993 0.38061 0.78538
 H1806 H 0.25231 0.43420 0.77296
 C1807 C 0.29807 -0.11526 0.30331
 C1808 C 0.29958 -0.11017 0.28955
 C1809 C 0.29126 -0.09759 0.28462
 N1810 N 0.29197 -0.09337 0.27089
 N1811 N 0.28442 -0.08204 0.26638
 C1812 C 0.27585 -0.07455 0.27542
 N1813 N 0.27515 -0.07877 0.28913
 N1814 N 0.28268 -0.09009 0.29363
 C1815 C 0.26805 -0.06156 0.27080
 C1816 C 0.26908 -0.05640 0.25701
 H1817 H 0.30653 -0.11573 0.28217
 H1818 H 0.26238 -0.05531 0.27871
 H1819 H 0.29070 -0.10985 0.31042
 H1820 H 0.27495 -0.06260 0.24920
 C1821 C 0.79085 0.87756 0.80503
 C1822 C 0.79468 0.88520 0.79294
 C1823 C 0.78670 0.89766 0.78762
 N1824 N 0.79078 0.90369 0.77524
 N1825 N 0.78416 0.91536 0.77034
 C1826 C 0.77321 0.92146 0.77764
 N1827 N 0.76903 0.91538 0.79002
 N1828 N 0.77565 0.90365 0.79493
 C1829 C 0.76659 0.93490 0.77269
 C1830 C 0.77139 0.94159 0.76040
 H1831 H 0.80391 0.88196 0.78681
 H1832 H 0.75859 0.94006 0.77928
 H1833 H 0.78121 0.88049 0.81071
 H1834 H 0.77941 0.93636 0.75389
 C1835 C 0.45952 0.87516 0.30904
 C1836 C 0.45816 0.86921 0.29563
 C1837 C 0.46690 0.85684 0.29109
 N1838 N 0.46623 0.85228 0.27750
 N1839 N 0.47395 0.84100 0.27326
 C1840 C 0.48266 0.83385 0.28243
 N1841 N 0.48334 0.83842 0.29603
 N1842 N 0.47564 0.84974 0.30027
 C1843 C 0.49049 0.82082 0.27799
 C1844 C 0.48942 0.81573 0.26420
 H1845 H 0.45077 0.87393 0.28810
 H1846 H 0.49609 0.81453 0.28593
 H1847 H 0.46735 0.87078 0.31633
 H1848 H 0.48364 0.82207 0.25642
 C1849 C -0.04606 0.86477 0.80466
 C1850 C -0.04902 0.85808 0.79186
 C1851 C -0.04120 0.84496 0.78753
 N1852 N -0.04329 0.83926 0.77450
 N1853 N -0.03620 0.82745 0.77052
 C1854 C -0.02674 0.82089 0.77939
 N1855 N -0.02467 0.82658 0.79241
 N1856 N -0.03173 0.83840 0.79638
 C1857 C -0.01929 0.80749 0.77535
 C1858 C -0.02145 0.80111 0.76223
 H1859 H -0.05682 0.86274 0.78472
 H1860 H -0.01274 0.80207 0.78320
 H1861 H -0.03786 0.86025 0.81147
 H1862 H -0.02822 0.80651 0.75454
 C1863 C -0.05094 -0.11693 -0.05563
 C1864 C -0.05543 -0.10905 -0.04387
 C1865 C -0.04797 -0.09601 -0.03927
 N1866 N -0.05240 -0.08882 -0.02755
 N1867 N -0.04562 -0.07712 -0.02321
 C1868 C -0.03413 -0.07219 -0.03043
 N1869 N -0.02972 -0.07936 -0.04216
 N1870 N -0.03650 -0.09105 -0.04650
 C1871 C -0.02645 -0.05929 -0.02588
 C1872 C -0.03041 -0.05131 -0.01398
 H1873 H -0.06447 -0.11261 -0.03771
 H1874 H -0.01751 -0.05587 -0.03227
 H1875 H -0.04182 -0.11335 -0.06167
 H1876 H -0.03944 -0.05461 -0.00767
 C1877 C -0.04835 0.38204 0.45328
 C1878 C -0.03668 0.38998 0.44868
 C1879 C -0.03180 0.40248 0.45688
 N1880 N -0.02000 0.40978 0.45288
 N1881 N -0.01568 0.42113 0.46027
 C1882 C -0.02300 0.42557 0.47193
 N1883 N -0.03477 0.41828 0.47590
 N1884 N -0.03906 0.40695 0.46854
 C1885 C -0.01892 0.43842 0.47993
 C1886 C -0.00692 0.44651 0.47669
 H1887 H -0.03095 0.38694 0.43917
 H1888 H -0.02610 0.44204 0.48821
 H1889 H -0.05365 0.38521 0.46300
 H1890 H 0.00033 0.44287 0.46848
 C1891 C 0.45495 -0.12163 0.44595
 C1892 C 0.45223 -0.11451 0.45869
 C1893 C 0.46030 -0.10190 0.46336
 N1894 N 0.45685 -0.09553 0.47582
 N1895 N 0.46375 -0.08395 0.48019
 C1896 C 0.47440 -0.07825 0.47229
 N1897 N 0.47791 -0.08466 0.45984
 N1898 N 0.47100 -0.09628 0.45546
 C1899 C 0.48161 -0.06502 0.47681
 C1900 C 0.47723 -0.05763 0.48892
 H1901 H 0.44377 -0.11814 0.46557
 H1902 H 0.48981 -0.06057 0.47008
 H1903 H 0.46351 -0.11792 0.43921
 H1904 H 0.46871 -0.06200 0.49532
 C1905 C 0.45779 0.38089 -0.05201
 C1906 C 0.45402 0.38810 -0.03962
 C1907 C 0.46258 0.40008 -0.03439
 N1908 N 0.45947 0.40629 -0.02176
 N1909 N 0.46725 0.41714 -0.01699
 C1910 C 0.47842 0.42212 -0.02466
 N1911 N 0.48148 0.41594 -0.03728
 N1912 N 0.47374 0.40509 -0.04204
 C1913 C 0.48661 0.43456 -0.02005
 C1914 C 0.48399 0.44147 -0.00724
 H1915 H 0.44494 0.38473 -0.03341
 H1916 H 0.49420 0.43901 -0.02746
 H1917 H 0.46710 0.38430 -0.05785
 H1918 H 0.47664 0.43687 0.00031
 C1919 C 0.79196 0.37102 0.44357
 C1920 C 0.79446 0.36477 0.45672
 C1921 C 0.78619 0.35260 0.46199
 N1922 N 0.78923 0.34704 0.47490
 N1923 N 0.78225 0.33569 0.47972
 C1924 C 0.77194 0.32947 0.47182
 N1925 N 0.76879 0.33510 0.45893
 N1926 N 0.77578 0.34648 0.45410
 C1927 C 0.76491 0.31634 0.47675
 C1928 C 0.76941 0.30950 0.48910
 H1929 H 0.80286 0.36878 0.46342
 H1930 H 0.75698 0.31142 0.47006
 H1931 H 0.78330 0.36727 0.43702
 H1932 H 0.77765 0.31433 0.49549
 C1933 C 0.80486 0.86959 -0.04506
 C1934 C 0.79235 0.86253 -0.04862
 C1935 C 0.78729 0.84993 -0.04076
 N1936 N 0.77459 0.84407 -0.04418
 N1937 N 0.76989 0.83254 -0.03735
 C1938 C 0.77772 0.82641 -0.02681
 N1939 N 0.79044 0.83228 -0.02336
 N1940 N 0.79513 0.84384 -0.03019
 C1941 C 0.77289 0.81326 -0.01968
 C1942 C 0.76010 0.80679 -0.02339
 H1943 H 0.78588 0.86645 -0.05732
 H1944 H 0.77990 0.80815 -0.01203
 H1945 H 0.81106 0.86594 -0.03606
 H1946 H 0.75323 0.81194 -0.03114
 C1947 C 0.80081 0.29275 0.38329
 C1948 C 0.78789 0.29529 0.39012
 C1949 C 0.78373 0.28663 0.40247
 N1950 N 0.77088 0.28884 0.40875
 N1951 N 0.76716 0.28115 0.42004
 C1952 C 0.77612 0.27095 0.42544
 N1953 N 0.78894 0.26872 0.41912
 N1954 N 0.79265 0.27639 0.40783
 C1955 C 0.77258 0.26307 0.43845
 C1956 C 0.76008 0.26596 0.44589
 H1957 H 0.78064 0.30353 0.38626
 H1958 H 0.78058 0.25592 0.44293
 H1959 H 0.80780 0.28423 0.38707
 H1960 H 0.75226 0.27336 0.44146
 C1961 C 0.80505 0.78886 -0.12426
 C1962 C 0.79176 0.79101 -0.11804
 C1963 C 0.78665 0.78218 -0.10629
 N1964 N 0.77324 0.78431 -0.10132
 N1965 N 0.76846 0.77669 -0.09043
 C1966 C 0.77691 0.76664 -0.08410
 N1967 N 0.79032 0.76444 -0.08911
 N1968 N 0.79510 0.77206 -0.10005
 C1969 C 0.77205 0.75904 -0.07138
 C1970 C 0.75883 0.76225 -0.06539
 H1971 H 0.78465 0.79930 -0.12204
 H1972 H 0.77948 0.75198 -0.06593
 H1973 H 0.81195 0.78019 -0.12067
 H1974 H 0.75157 0.76953 -0.07082
 C1975 C 0.30631 0.45475 0.87509
 C1976 C 0.29409 0.45079 0.86780
 C1977 C 0.28878 0.45907 0.85562
 N1978 N 0.27642 0.45532 0.84925
 N1979 N 0.27153 0.46271 0.83816
 C1980 C 0.27880 0.47414 0.83308
 N1981 N 0.29115 0.47790 0.83946
 N1982 N 0.29604 0.47052 0.85055
 C1983 C 0.27389 0.48203 0.82050
 C1984 C 0.26152 0.47832 0.81331
 H1985 H 0.28806 0.44158 0.87122
 H1986 H 0.28064 0.49042 0.81638
 H1987 H 0.31211 0.46419 0.87182
 H1988 H 0.25479 0.46991 0.81744
 C1989 C 0.29742 -0.05526 0.36501
 C1990 C 0.30064 -0.04273 0.35762
 C1991 C 0.29312 -0.03850 0.34446
 N1992 N 0.29699 -0.02642 0.33748
 N1993 N 0.29043 -0.02249 0.32556
 C1994 C 0.27970 -0.03047 0.32011
 N1995 N 0.27579 -0.04254 0.32711
 N1996 N 0.28237 -0.04649 0.33905
 C1997 C 0.27256 -0.02630 0.30670
 C1998 C 0.27713 -0.01452 0.29883
 H1999 H 0.30898 -0.03582 0.36150
 H2000 H 0.26395 -0.03283 0.30277
 H2001 H 0.28910 -0.06213 0.36103
 H2002 H 0.28601 -0.00834 0.30277
 C2003 C -0.04305 -0.05572 -0.11819
 C2004 C -0.04742 -0.04347 -0.11082
 C2005 C -0.03951 -0.03827 -0.09848
 N2006 N -0.04325 -0.02559 -0.09239
 N2007 N -0.03620 -0.02080 -0.08116
 C2008 C -0.02516 -0.02851 -0.07561
 N2009 N -0.02144 -0.04119 -0.08169
 N2010 N -0.02846 -0.04596 -0.09295
 C2011 C -0.01770 -0.02375 -0.06285
 C2012 C -0.02084 -0.01068 -0.05635
 H2013 H -0.05661 -0.03728 -0.11429
 H2014 H -0.01004 -0.03108 -0.05808
 H2015 H -0.03356 -0.06150 -0.11477
 H2016 H -0.02829 -0.00323 -0.06127
 C2017 C -0.05230 0.45711 0.38042
 C2018 C -0.03905 0.45450 0.38664
 C2019 C -0.03398 0.46371 0.39816
 N2020 N -0.02093 0.46143 0.40400
 N2021 N -0.01641 0.46973 0.41452
 C2022 C -0.02476 0.48063 0.41952
 N2023 N -0.03775 0.48292 0.41365
 N2024 N -0.04226 0.47465 0.40315
 C2025 C -0.02048 0.48928 0.43171
 C2026 C -0.00770 0.48686 0.43882
 H2027 H -0.03219 0.44588 0.38288
 H2028 H -0.02821 0.49688 0.43593
 H2029 H -0.05886 0.46591 0.38433
 H2030 H 0.00004 0.47927 0.43459
 C2031 C 0.44929 -0.03833 0.38252
 C2032 C 0.46241 -0.04124 0.38883
 C2033 C 0.46756 -0.03264 0.40073
 N2034 N 0.47980 -0.03648 0.40745
 N2035 N 0.48425 -0.02910 0.41864
 C2036 C 0.47668 -0.01758 0.42344
 N2037 N 0.46455 -0.01363 0.41660
 N2038 N 0.46008 -0.02102 0.40544
 C2039 C 0.48072 -0.01016 0.43649
 C2040 C 0.49159 -0.01545 0.44513
 H2041 H 0.46894 -0.05017 0.38522
 H2042 H 0.47397 -0.00140 0.44013
 H2043 H 0.44281 -0.02941 0.38623
 H2044 H 0.49818 -0.02436 0.44153
 C2045 C 0.45716 0.43899 -0.11702
 C2046 C 0.45229 0.45025 -0.10854
 C2047 C 0.45959 0.45491 -0.09559
 N2048 N 0.45431 0.46629 -0.08825
 N2049 N 0.46077 0.47083 -0.07657
 C2050 C 0.47278 0.46415 -0.07178
 N2051 N 0.47806 0.45273 -0.07910
 N2052 N 0.47159 0.44819 -0.09081
 C2053 C 0.48001 0.46910 -0.05888
 C2054 C 0.47496 0.48084 -0.05110
 H2055 H 0.44273 0.45614 -0.11147
 H2056 H 0.48948 0.46333 -0.05542
 H2057 H 0.46674 0.43306 -0.11410
 H2058 H 0.46550 0.48660 -0.05460
 C2059 C 0.44010 0.79570 0.36912
 C2060 C 0.45240 0.79926 0.36167
 C2061 C 0.45687 0.79180 0.34865
 N2062 N 0.46958 0.79501 0.34264
 N2063 N 0.47381 0.78851 0.33080
 C2064 C 0.46549 0.77856 0.32447
 N2065 N 0.45275 0.77535 0.33046
 N2066 N 0.44853 0.78183 0.34235
 C2067 C 0.46998 0.77164 0.31113
 C2068 C 0.48324 0.77446 0.30510
 H2069 H 0.45919 0.80768 0.36559
 H2070 H 0.46260 0.76463 0.30579
 H2071 H 0.43353 0.78699 0.36542
 H2072 H 0.49052 0.78149 0.31057
 C2073 C -0.04971 0.80079 0.86903
 C2074 C -0.05314 0.78826 0.86178
 C2075 C -0.04501 0.78358 0.84911
 N2076 N -0.04783 0.77079 0.84293
 N2077 N -0.04056 0.76647 0.83153
 C2078 C -0.03017 0.77477 0.82584
 N2079 N -0.02737 0.78757 0.83202
 N2080 N -0.03461 0.79187 0.84343
 C2081 C -0.02234 0.77030 0.81293
 C2082 C -0.02497 0.75723 0.80628
 H2083 H -0.06170 0.78159 0.86562
 H2084 H -0.01493 0.77774 0.80820
 H2085 H -0.04085 0.80712 0.86528
 H2086 H -0.03260 0.75001 0.81100
 C2087 C 0.37731 0.79817 0.30167
 C2088 C 0.38520 0.80318 0.29019
 C2089 C 0.39835 0.79578 0.28542
 N2090 N 0.40583 0.80094 0.27424
 N2091 N 0.41780 0.79440 0.26995
 C2092 C 0.42274 0.78244 0.27668
 N2093 N 0.41526 0.77728 0.28785
 N2094 N 0.40330 0.78381 0.29213
 C2095 C 0.43611 0.77519 0.27236
 C2096 C 0.44454 0.78007 0.26120
 H2097 H 0.38176 0.81278 0.28464
 H2098 H 0.43962 0.76596 0.27847
 H2099 H 0.38083 0.78852 0.30712
 H2100 H 0.44107 0.78933 0.25511
 C2101 C -0.12290 0.80458 0.78917
 C2102 C -0.11843 0.79031 0.78893
 C2103 C -0.10648 0.78532 0.78020
 N2104 N -0.10258 0.77128 0.78060
 N2105 N -0.09137 0.76660 0.77325
 C2106 C -0.08366 0.77577 0.76519
 N2107 N -0.08766 0.78980 0.76464
 N2108 N -0.09889 0.79450 0.77201
 C2109 C -0.07053 0.77088 0.75816
 C2110 C -0.06490 0.75729 0.76092
 H2111 H -0.12378 0.78243 0.79541
 H2112 H -0.06443 0.77857 0.75210
 H2113 H -0.11785 0.81238 0.78236
 H2114 H -0.07083 0.74987 0.76745
 C2115 C 0.87100 0.30628 0.45559
 C2116 C 0.86417 0.29344 0.45257
 C2117 C 0.85198 0.28856 0.46107
 N2118 N 0.84564 0.27590 0.45807
 N2119 N 0.83462 0.27140 0.46574
 C2120 C 0.82958 0.27938 0.47674
 N2121 N 0.83593 0.29200 0.47975
 N2122 N 0.84694 0.29650 0.47208
 C2123 C 0.81711 0.27488 0.48501
 C2124 C 0.80958 0.26250 0.48183
 H2125 H 0.86798 0.28668 0.44403
 H2126 H 0.81328 0.28200 0.49328
 H2127 H 0.86719 0.31288 0.46426
 H2128 H 0.81332 0.25551 0.47342
 C2129 C 0.86706 0.80365 -0.04791
 C2130 C 0.85979 0.79106 -0.05101
 C2131 C 0.84688 0.78679 -0.04304
 N2132 N 0.84068 0.77397 -0.04568
 N2133 N 0.82901 0.77004 -0.03864
 C2134 C 0.82305 0.77876 -0.02868
 N2135 N 0.82925 0.79158 -0.02604
 N2136 N 0.84094 0.79550 -0.03305
 C2137 C 0.80977 0.77477 -0.02120
 C2138 C 0.80305 0.76171 -0.02364
 H2139 H 0.86375 0.78402 -0.05927
 H2140 H 0.80479 0.78260 -0.01424
 H2141 H 0.86319 0.81039 -0.03936
 H2142 H 0.80807 0.75405 -0.03075
 C2143 C -0.12029 -0.04752 -0.04826
 C2144 C -0.11391 -0.03436 -0.05108
 C2145 C -0.10195 -0.02929 -0.04222
 N2146 N -0.09584 -0.01637 -0.04470
 N2147 N -0.08510 -0.01185 -0.03663
 C2148 C -0.08011 -0.02006 -0.02574
 N2149 N -0.08623 -0.03293 -0.02328
 N2150 N -0.09693 -0.03744 -0.03132
 C2151 C -0.06787 -0.01568 -0.01700
 C2152 C -0.06034 -0.00307 -0.01934
 H2153 H -0.11791 -0.02762 -0.05957
 H2154 H -0.06403 -0.02324 -0.00910
 H2155 H -0.11624 -0.05397 -0.03957
 H2156 H -0.06400 0.00437 -0.02742
 C2157 C -0.11843 0.44069 0.45385
 C2158 C -0.11062 0.45282 0.45037
 C2159 C -0.09766 0.45704 0.45799
 N2160 N -0.09094 0.46920 0.45408
 N2161 N -0.07915 0.47328 0.46068
 C2162 C -0.07358 0.46536 0.47147
 N2163 N -0.08030 0.45315 0.47540
 N2164 N -0.09215 0.44906 0.46878
 C2165 C -0.06044 0.46992 0.47866
 C2166 C -0.05366 0.48247 0.47450
 H2167 H -0.11408 0.45962 0.44171
 H2168 H -0.05603 0.46336 0.48710
 H2169 H -0.11513 0.43401 0.46267
 H2170 H -0.05824 0.48886 0.46602
 C2171 C 0.37786 -0.04882 0.44841
 C2172 C 0.38586 -0.03692 0.44456
 C2173 C 0.39788 -0.03243 0.45363
 N2174 N 0.40543 -0.02046 0.45060
 N2175 N 0.41618 -0.01649 0.45893
 C2176 C 0.41974 -0.02431 0.47061
 N2177 N 0.41219 -0.03624 0.47361
 N2178 N 0.40148 -0.04019 0.46531
 C2179 C 0.43182 -0.02049 0.47976
 C2180 C 0.44028 -0.00859 0.47717
 H2181 H 0.38317 -0.03074 0.43520
 H2182 H 0.43457 -0.02771 0.48836
 H2183 H 0.38083 -0.05454 0.45798
 H2184 H 0.43762 -0.00148 0.46845
 C2185 C 0.38014 0.45264 -0.04304
 C2186 C 0.38782 0.44869 -0.03097
 C2187 C 0.40007 0.45738 -0.02632
 N2188 N 0.40756 0.45381 -0.01450
 N2189 N 0.41865 0.46166 -0.01043
 C2190 C 0.42261 0.47340 -0.01800
 N2191 N 0.41511 0.47694 -0.02977
 N2192 N 0.40406 0.46912 -0.03382
 C2193 C 0.43517 0.48192 -0.01420
 C2194 C 0.44375 0.47883 -0.00253
 H2195 H 0.38480 0.43938 -0.02484
 H2196 H 0.43823 0.49039 -0.02142
 H2197 H 0.38343 0.46211 -0.04882
 H2198 H 0.44075 0.47032 0.00467
 C2199 C 0.37108 0.45622 0.81049
 C2200 C 0.36369 0.45382 0.79795
 C2201 C 0.35085 0.46210 0.79402
 N2202 N 0.34446 0.45956 0.78143
 N2203 N 0.33267 0.46672 0.77775
 C2204 C 0.32681 0.47670 0.78652
 N2205 N 0.33322 0.47930 0.79912
 N2206 N 0.34504 0.47214 0.80280
 C2207 C 0.31342 0.48418 0.78278
 C2208 C 0.30634 0.48125 0.77017
 H2209 H 0.36733 0.44557 0.79071
 H2210 H 0.30869 0.49151 0.79039
 H2211 H 0.36763 0.46470 0.81757
 H2212 H 0.31114 0.47387 0.76264
 C2213 C 0.37313 -0.04531 0.30032
 C2214 C 0.36746 -0.04906 0.28725
 C2215 C 0.35558 -0.04059 0.28117
 N2216 N 0.34909 -0.04480 0.26905
 N2217 N 0.33816 -0.03721 0.26378
 C2218 C 0.33340 -0.02512 0.27041
 N2219 N 0.33996 -0.02088 0.28243
 N2220 N 0.35083 -0.02846 0.28769
 C2221 C 0.32097 -0.01691 0.26531
 C2222 C 0.31280 -0.02121 0.25381
 H2223 H 0.37169 -0.05822 0.28151
 H2224 H 0.31761 -0.00766 0.27146
 H2225 H 0.36859 -0.03622 0.30597
 H2226 H 0.31604 -0.03052 0.24769
 C2227 C 0.13068 0.54050 0.69546
 C2228 C 0.13686 0.54473 0.70816
 C2229 C 0.14912 0.53710 0.71426
 N2230 N 0.15475 0.54166 0.72664
 N2231 N 0.16608 0.53502 0.73218
 C2232 C 0.17213 0.52356 0.72553
 N2233 N 0.16646 0.51897 0.71318
 N2234 N 0.15514 0.52561 0.70763
 C2235 C 0.18501 0.51657 0.73108
 C2236 C 0.19185 0.52143 0.74321
 H2237 H 0.13266 0.55389 0.71388
 H2238 H 0.18965 0.50789 0.72494
 H2239 H 0.13476 0.53118 0.68988
 H2240 H 0.18717 0.53003 0.74944
 C2241 C 0.13085 0.04762 0.19640
 C2242 C 0.13887 0.05164 0.20819
 C2243 C 0.15209 0.04386 0.21238
 N2244 N 0.15974 0.04829 0.22373
 N2245 N 0.17178 0.04149 0.22747
 C2246 C 0.17663 0.02996 0.22000
 N2247 N 0.16895 0.02551 0.20869
 N2248 N 0.15693 0.03230 0.20495
 C2249 C 0.19017 0.02249 0.22364
 C2250 C 0.19904 0.02682 0.23469
 H2251 H 0.13548 0.06078 0.21446
 H2252 H 0.19350 0.01361 0.21697
 H2253 H 0.13439 0.03851 0.19015
 H2254 H 0.19576 0.03575 0.24130
 C2255 C 0.62184 0.70693 0.19530
 C2256 C 0.61444 0.70358 0.20770
 C2257 C 0.60189 0.71207 0.21252
 N2258 N 0.59487 0.70832 0.22453
 N2259 N 0.58348 0.71582 0.22891
 C2260 C 0.57866 0.72739 0.22145
 N2261 N 0.58569 0.73113 0.20945
 N2262 N 0.59707 0.72364 0.20508
 C2263 C 0.56580 0.73562 0.22585
 C2264 C 0.55769 0.73199 0.23773
 H2265 H 0.61786 0.69448 0.21404
 H2266 H 0.56226 0.74438 0.21913
 H2267 H 0.61833 0.71605 0.18904
 H2268 H 0.56115 0.72310 0.24433
 C2269 C 0.11845 0.70176 0.69555
 C2270 C 0.11111 0.69792 0.70783
 C2271 C 0.09776 0.70533 0.71225
 N2272 N 0.09108 0.70143 0.72439
 N2273 N 0.07901 0.70796 0.72844
 C2274 C 0.07312 0.71867 0.72051
 N2275 N 0.07979 0.72257 0.70836
 N2276 N 0.09186 0.71605 0.70432
 C2277 C 0.05954 0.72581 0.72465
 C2278 C 0.05204 0.72199 0.73685
 H2279 H 0.11522 0.68929 0.71440
 H2280 H 0.05510 0.73390 0.71763
 H2281 H 0.11432 0.71052 0.68915
 H2282 H 0.05646 0.71377 0.74374
 C2283 C 0.63195 0.19704 0.54535
 C2284 C 0.64000 0.20826 0.55067
 C2285 C 0.65255 0.21362 0.54321
 N2286 N 0.65989 0.22479 0.54862
 N2287 N 0.67147 0.22961 0.54208
 C2288 C 0.67609 0.22342 0.52989
 N2289 N 0.66873 0.21227 0.52445
 N2290 N 0.65715 0.20746 0.53099
 C2291 C 0.68912 0.22818 0.52286
 C2292 C 0.69728 0.23936 0.52811
 H2293 H 0.63710 0.21331 0.56059
 H2294 H 0.69267 0.22227 0.51360
 H2295 H 0.63471 0.19223 0.53528
 H2296 H 0.69370 0.24534 0.53731
 C2297 C 0.62572 0.70748 0.05296
 C2298 C 0.63216 0.70499 0.03989
 C2299 C 0.64450 0.71332 0.03504
 N2300 N 0.65010 0.71084 0.02203
 N2301 N 0.66134 0.71817 0.01752
 C2302 C 0.66742 0.72830 0.02584
 N2303 N 0.66181 0.73081 0.03885
 N2304 N 0.65054 0.72348 0.04336
 C2305 C 0.68026 0.73598 0.02115
 C2306 C 0.68657 0.73299 0.00811
 H2307 H 0.62795 0.69687 0.03291
 H2308 H 0.68532 0.74333 0.02841
 H2309 H 0.62974 0.71589 0.05973
 H2310 H 0.68146 0.72549 0.00104
 C2311 C 0.11947 0.04815 0.03912
 C2312 C 0.11326 0.03514 0.04270
 C2313 C 0.10160 0.02926 0.03420
 N2314 N 0.09483 0.01722 0.03849
 N2315 N 0.08390 0.01215 0.03108
 C2316 C 0.07944 0.01889 0.01909
 N2317 N 0.08632 0.03082 0.01474
 N2318 N 0.09721 0.03590 0.02215
 C2319 C 0.06668 0.01430 0.01146
 C2320 C 0.05788 0.00353 0.01658
 H2321 H 0.11683 0.02926 0.05195
 H2322 H 0.06329 0.02072 0.00247
 H2323 H 0.11578 0.05397 0.02987
 H2324 H 0.06124 -0.00289 0.02557
 C2325 C 0.11826 0.54934 0.55691
 C2326 C 0.11018 0.55415 0.54547
 C2327 C 0.09719 0.54654 0.54107
 N2328 N 0.09001 0.55076 0.52930
 N2329 N 0.07835 0.54387 0.52520
 C2330 C 0.07341 0.53248 0.53270
 N2331 N 0.08056 0.52829 0.54449
 N2332 N 0.09224 0.53517 0.54858
 C2333 C 0.06043 0.52486 0.52831
 C2334 C 0.05302 0.52885 0.51613
 H2335 H 0.11356 0.56342 0.53946
 H2336 H 0.05651 0.51623 0.53489
 H2337 H 0.11490 0.53985 0.56259
 H2338 H 0.05702 0.53759 0.50973
 C2339 C 0.61449 0.05404 0.54971
 C2340 C 0.60724 0.04200 0.55449
 C2341 C 0.59440 0.03687 0.54729
 N2342 N 0.58753 0.02512 0.55218
 N2343 N 0.57596 0.02032 0.54560
 C2344 C 0.57091 0.02711 0.53387
 N2345 N 0.57778 0.03884 0.52900
 N2346 N 0.58932 0.04363 0.53557
 C2347 C 0.55811 0.02225 0.52650
 C2348 C 0.54999 0.01068 0.53107
 H2349 H 0.61114 0.03601 0.56354
 H2350 H 0.55474 0.02842 0.51734
 H2351 H 0.61046 0.06002 0.54069
 H2352 H 0.55319 0.00456 0.54031
 C2353 C 0.62004 0.54816 0.04554
 C2354 C 0.61448 0.55076 0.03211
 C2355 C 0.60291 0.54168 0.02673
 N2356 N 0.59630 0.54472 0.01429
 N2357 N 0.58574 0.53648 0.00964
 C2358 C 0.58155 0.52483 0.01722
 N2359 N 0.58826 0.52175 0.02955
 N2360 N 0.59873 0.52998 0.03419
 C2361 C 0.56931 0.51612 0.01304
 C2362 C 0.56044 0.51973 0.00176
 H2363 H 0.61887 0.55909 0.02546
 H2364 H 0.56631 0.50750 0.02012
 H2365 H 0.61537 0.53984 0.05203
 H2366 H 0.56336 0.52837 -0.00532
 C2367 C 0.04534 0.05546 0.11998
 C2368 C 0.04796 0.04254 0.11297
 C2369 C 0.03948 0.03837 0.10049
 N2370 N 0.04119 0.02514 0.09468
 N2371 N 0.03356 0.02132 0.08341
 C2372 C 0.02393 0.03058 0.07753
 N2373 N 0.02226 0.04380 0.08332
 N2374 N 0.02985 0.04760 0.09460
 C2375 C 0.01581 0.02677 0.06473
 C2376 C 0.01690 0.01326 0.05845
 H2377 H 0.05608 0.03519 0.11690
 H2378 H 0.00939 0.03508 0.05972
 H2379 H 0.03686 0.06247 0.11621
 H2380 H 0.02329 0.00497 0.06353
 C2381 C 0.04810 0.54252 0.61951
 C2382 C 0.03520 0.54622 0.61311
 C2383 C 0.03025 0.53825 0.60060
 N2384 N 0.01780 0.54190 0.59415
 N2385 N 0.01355 0.53489 0.58263
 C2386 C 0.02158 0.52395 0.57721
 N2387 N 0.03397 0.52030 0.58370
 N2388 N 0.03820 0.52729 0.59517
 C2389 C 0.01764 0.51666 0.56403
 C2390 C 0.00547 0.52039 0.55637
 H2391 H 0.02877 0.55501 0.61718
 H2392 H 0.02516 0.50890 0.55973
 H2393 H 0.05434 0.53365 0.61529
 H2394 H -0.00211 0.52807 0.56072
 C2395 C 0.55380 0.03767 0.62322
 C2396 C 0.54155 0.04203 0.61582
 C2397 C 0.53513 0.03373 0.60425
 N2398 N 0.52303 0.03874 0.59799
 N2399 N 0.51707 0.03162 0.58737
 C2400 C 0.52297 0.01916 0.58260
 N2401 N 0.53507 0.01412 0.58887
 N2402 N 0.54104 0.02125 0.59952
 C2403 C 0.51694 0.01156 0.57035
 C2404 C 0.50504 0.01674 0.56292
 H2405 H 0.53617 0.05197 0.61857
 H2406 H 0.52273 0.00225 0.56642
 H2407 H 0.55899 0.02760 0.62049
 H2408 H 0.49935 0.02614 0.56677
 C2409 C 0.54638 0.55753 0.12100
 C2410 C 0.55072 0.54565 0.11306
 C2411 C 0.54345 0.54149 0.09985
 N2412 N 0.54819 0.52992 0.09243
 N2413 N 0.54177 0.52604 0.08048
 C2414 C 0.53034 0.53357 0.07547
 N2415 N 0.52558 0.54513 0.08290
 N2416 N 0.53201 0.54903 0.09486
 C2417 C 0.52317 0.52944 0.06221
 C2418 C 0.52794 0.51789 0.05400
 H2419 H 0.55971 0.53919 0.11656
 H2420 H 0.51403 0.53575 0.05876
 H2421 H 0.53741 0.56400 0.11739
 H2422 H 0.53718 0.51172 0.05742
 C2423 C 0.19331 0.54669 0.63756
 C2424 C 0.20544 0.55040 0.64513
 C2425 C 0.20971 0.54263 0.65800
 N2426 N 0.22211 0.54589 0.66456
 N2427 N 0.22619 0.53880 0.67615
 C2428 C 0.21802 0.52817 0.68158
 N2429 N 0.20561 0.52493 0.67505
 N2430 N 0.20154 0.53201 0.66346
 C2431 C 0.22226 0.52045 0.69451
 C2432 C 0.23489 0.52350 0.70156
 H2433 H 0.21221 0.55892 0.64135
 H2434 H 0.21502 0.51257 0.69882
 H2435 H 0.18674 0.53795 0.64124
 H2436 H 0.24203 0.53146 0.69725
 C2437 C 0.19415 0.04533 0.12457
 C2438 C 0.20672 0.04863 0.13161
 C2439 C 0.21134 0.04075 0.14438
 N2440 N 0.22431 0.04336 0.15010
 N2441 N 0.22863 0.03638 0.16167
 C2442 C 0.22015 0.02652 0.16799
 N2443 N 0.20716 0.02391 0.16229
 N2444 N 0.20285 0.03087 0.15068
 C2445 C 0.22470 0.01910 0.18106
 C2446 C 0.23818 0.02131 0.18682
 H2447 H 0.21353 0.05698 0.12753
 H2448 H 0.21716 0.01232 0.18653
 H2449 H 0.18762 0.03666 0.12846
 H2450 H 0.24558 0.02815 0.18125
 C2451 C 0.71056 0.19342 0.62220
 C2452 C 0.70987 0.20716 0.61645
 C2453 C 0.71903 0.21155 0.60461
 N2454 N 0.71862 0.22536 0.60008
 N2455 N 0.72658 0.22947 0.58916
 C2456 C 0.73526 0.21995 0.58236
 N2457 N 0.73571 0.20613 0.58693
 N2458 N 0.72777 0.20202 0.59788
 C2459 C 0.74325 0.22421 0.56963
 C2460 C 0.74216 0.23813 0.56433
 H2461 H 0.70254 0.21505 0.62084
 H2462 H 0.74884 0.21599 0.56363
 H2463 H 0.71826 0.18571 0.61813
 H2464 H 0.73632 0.24619 0.57031
 C2465 C 0.70211 0.69380 0.11414
 C2466 C 0.69952 0.70680 0.10726
 C2467 C 0.70730 0.71079 0.09426
 N2468 N 0.70490 0.72379 0.08815
 N2469 N 0.71183 0.72751 0.07641
 C2470 C 0.72145 0.71839 0.07031
 N2471 N 0.72385 0.70540 0.07641
 N2472 N 0.71692 0.70168 0.08817
 C2473 C 0.72886 0.72224 0.05706
 C2474 C 0.72622 0.73530 0.05028
 H2475 H 0.69179 0.71434 0.11157
 H2476 H 0.73593 0.71439 0.05221
 H2477 H 0.71008 0.68648 0.10990
 H2478 H 0.71894 0.74297 0.05511
 C2479 C 0.54227 0.69788 0.12995
 C2480 C 0.54577 0.71047 0.13693
 C2481 C 0.53744 0.71573 0.14904
 N2482 N 0.54084 0.72837 0.15517
 N2483 N 0.53345 0.73324 0.16623
 C2484 C 0.52235 0.72567 0.17154
 N2485 N 0.51892 0.71304 0.16538
 N2486 N 0.52631 0.70817 0.15431
 C2487 C 0.51469 0.73055 0.18425
 C2488 C 0.51897 0.74274 0.19149
 H2489 H 0.55463 0.71683 0.13327
 H2490 H 0.50640 0.72384 0.18858
 H2491 H 0.53317 0.69174 0.13343
 H2492 H 0.52742 0.74927 0.18718
 C2493 C 0.05487 0.70356 0.62902
 C2494 C 0.04176 0.70108 0.63544
 C2495 C 0.03737 0.70842 0.64854
 N2496 N 0.02437 0.70577 0.65419
 N2497 N 0.02027 0.71216 0.66613
 C2498 C 0.02898 0.72147 0.67289
 N2499 N 0.04198 0.72416 0.66721
 N2500 N 0.04610 0.71777 0.65525
 C2501 C 0.02465 0.72817 0.68637
 C2502 C 0.01166 0.72485 0.69266
 H2503 H 0.03441 0.69359 0.63074
 H2504 H 0.03201 0.73522 0.69169
 H2505 H 0.06210 0.71121 0.63365
 H2506 H 0.00453 0.71757 0.68733
 C2507 C 0.55070 0.63283 0.20736
 C2508 C 0.53770 0.63967 0.20464
 C2509 C 0.53287 0.65201 0.21322
 N2510 N 0.52028 0.65871 0.21032
 N2511 N 0.51606 0.67011 0.21782
 C2512 C 0.52425 0.67521 0.22852
 N2513 N 0.53678 0.66845 0.23147
 N2514 N 0.54099 0.65706 0.22398
 C2515 C 0.52026 0.68837 0.23625
 C2516 C 0.50830 0.69654 0.23258
 H2517 H 0.53102 0.63602 0.19606
 H2518 H 0.52762 0.69240 0.24409
 H2519 H 0.55723 0.63654 0.21603
 H2520 H 0.50107 0.69256 0.22459
 C2521 C 0.05387 0.62520 0.70185
 C2522 C 0.04008 0.63073 0.70084
 C2523 C 0.03531 0.64262 0.70995
 N2524 N 0.02166 0.64750 0.70921
 N2525 N 0.01730 0.65837 0.71733
 C2526 C 0.02641 0.66473 0.72652
 N2527 N 0.04004 0.65981 0.72730
 N2528 N 0.04440 0.64893 0.71919
 C2529 C 0.02193 0.67732 0.73484
 C2530 C 0.00847 0.68342 0.73300
 H2531 H 0.03258 0.62610 0.69349
 H2532 H 0.02974 0.68262 0.74140
 H2533 H 0.06114 0.62966 0.70954
 H2534 H 0.00091 0.67825 0.72607
 C2535 C 0.04833 0.12224 0.05375
 C2536 C 0.05255 0.11386 0.04224
 C2537 C 0.04426 0.10123 0.03783
 N2538 N 0.04846 0.09331 0.02648
 N2539 N 0.04113 0.08179 0.02255
 C2540 C 0.02930 0.07776 0.02982
 N2541 N 0.02510 0.08569 0.04114
 N2542 N 0.03242 0.09719 0.04506
 C2543 C 0.02122 0.06487 0.02588
 C2544 C 0.02508 0.05620 0.01444
 H2545 H 0.06213 0.11649 0.03644
 H2546 H 0.01222 0.06193 0.03242
 H2547 H 0.03869 0.11949 0.05944
 H2548 H 0.03414 0.05914 0.00797
 C2549 C 0.04816 0.61967 0.54990
 C2550 C 0.03403 0.61539 0.55086
 C2551 C 0.02880 0.60405 0.54139
 N2552 N 0.01536 0.59894 0.54266
 N2553 N 0.01075 0.58875 0.53393
 C2554 C 0.01936 0.58348 0.52352
 N2555 N 0.03271 0.58868 0.52221
 N2556 N 0.03732 0.59877 0.53095
 C2557 C 0.01501 0.57166 0.51430
 C2558 C 0.00253 0.56404 0.51648
 H2559 H 0.02668 0.62084 0.55794
 H2560 H 0.02275 0.56780 0.50663
 H2561 H 0.05530 0.61406 0.54272
 H2562 H -0.00512 0.56773 0.52432
 C2563 C 0.55626 0.11613 0.55240
 C2564 C 0.54314 0.10982 0.55499
 C2565 C 0.53882 0.09689 0.54720
 N2566 N 0.52521 0.09221 0.54806
 N2567 N 0.52112 0.08080 0.54069
 C2568 C 0.53048 0.07364 0.53217
 N2569 N 0.54412 0.07826 0.53140
 N2570 N 0.54819 0.08969 0.53874
 C2571 C 0.52616 0.06086 0.52417
 C2572 C 0.51214 0.05610 0.52440
 H2573 H 0.53559 0.11492 0.56212
 H2574 H 0.53427 0.05476 0.51853
 H2575 H 0.56343 0.11131 0.54471
 H2576 H 0.50416 0.06222 0.53018
 C2577 C 0.54889 0.61968 0.05091
 C2578 C 0.55039 0.61392 0.03743
 C2579 C 0.54184 0.60142 0.03332
 N2580 N 0.54199 0.59649 0.01982
 N2581 N 0.53394 0.58539 0.01614
 C2582 C 0.52539 0.57891 0.02581
 N2583 N 0.52527 0.58383 0.03928
 N2584 N 0.53330 0.59489 0.04294
 C2585 C 0.51693 0.56626 0.02226
 C2586 C 0.51744 0.55991 0.00896
 H2587 H 0.55709 0.61911 0.02965
 H2588 H 0.51114 0.56110 0.03075
 H2589 H 0.54164 0.61468 0.05832
 H2590 H 0.52340 0.56497 0.00052
 C2591 C 0.69415 0.13204 0.54956
 C2592 C 0.70650 0.13924 0.55335
 C2593 C 0.71091 0.15236 0.54583
 N2594 N 0.72380 0.15823 0.54852
 N2595 N 0.72794 0.16997 0.54163
 C2596 C 0.71935 0.17629 0.53178
 N2597 N 0.70644 0.17045 0.52914
 N2598 N 0.70232 0.15870 0.53600
 C2599 C 0.72369 0.18941 0.52424
 C2600 C 0.73712 0.19536 0.52619
 H2601 H 0.71331 0.13495 0.56162
 H2602 H 0.71603 0.19468 0.51734
 H2603 H 0.68771 0.13618 0.54093
 H2604 H 0.74468 0.19002 0.53315
 C2605 C 0.70234 0.62920 0.05310
 C2606 C 0.70040 0.63538 0.03981
 C2607 C 0.70826 0.64820 0.03536
 N2608 N 0.70622 0.65367 0.02221
 N2609 N 0.71316 0.66534 0.01805
 C2610 C 0.72243 0.67197 0.02687
 N2611 N 0.72451 0.66647 0.04002
 N2612 N 0.71757 0.65480 0.04418
 C2613 C 0.72972 0.68519 0.02252
 C2614 C 0.72701 0.69148 0.00940
 H2615 H 0.69304 0.63066 0.03239
 H2616 H 0.73662 0.69047 0.03003
 H2617 H 0.70987 0.63386 0.06041
 H2618 H 0.71982 0.68626 0.00212
 C2619 C 0.20168 0.61814 0.69862
 C2620 C 0.20013 0.61297 0.71238
 C2621 C 0.20893 0.60075 0.71758
 N2622 N 0.20767 0.59608 0.73114
 N2623 N 0.21561 0.58509 0.73584
 C2624 C 0.22516 0.57836 0.72718
 N2625 N 0.22642 0.58303 0.71364
 N2626 N 0.21849 0.59401 0.70895
 C2627 C 0.23360 0.56575 0.73197
 C2628 C 0.23197 0.55980 0.74542
 H2629 H 0.19265 0.61813 0.71954
 H2630 H 0.24041 0.56037 0.72432
 H2631 H 0.20942 0.61300 0.69172
 H2632 H 0.22486 0.56502 0.75290
 C2633 C 0.20133 0.12272 0.20244
 C2634 C 0.21486 0.11707 0.19985
 C2635 C 0.22051 0.10522 0.20857
 N2636 N 0.23369 0.09966 0.20602
 N2637 N 0.23876 0.08886 0.21387
 C2638 C 0.23087 0.08330 0.22460
 N2639 N 0.21774 0.08891 0.22719
 N2640 N 0.21267 0.09969 0.21934
 C2641 C 0.23581 0.07071 0.23265
 C2642 C 0.24825 0.06335 0.22898
 H2643 H 0.22153 0.12163 0.19168
 H2644 H 0.22868 0.06622 0.24047
 H2645 H 0.19491 0.11822 0.21085
 H2646 H 0.25522 0.06776 0.22096
 C2647 C 0.69748 1.12155 0.70855
 C2648 C 0.71083 1.11542 0.70599
 C2649 C 0.71634 1.10324 0.71425
 N2650 N 0.72940 1.09768 0.71120
 N2651 N 0.73436 1.08625 0.71816
 C2652 C 0.72645 1.07998 0.72845
 N2653 N 0.71343 1.08563 0.73161
 N2654 N 0.70847 1.09708 0.72464
 C2655 C 0.73135 1.06671 0.73538
 C2656 C 0.74381 1.05971 0.73106
 H2657 H 0.71747 1.11951 0.69756
 H2658 H 0.72437 1.06172 0.74304
 H2659 H 0.69104 1.11777 0.71728
 H2660 H 0.75064 1.06468 0.72325
 C2661 C 0.70213 0.62003 0.19928
 C2662 C 0.69845 0.61312 0.21183
 C2663 C 0.70686 0.60056 0.21685
 N2664 N 0.70254 0.59283 0.22825
 N2665 N 0.70993 0.58125 0.23246
 C2666 C 0.72195 0.57701 0.22548
 N2667 N 0.72631 0.58481 0.21419
 N2668 N 0.71893 0.59633 0.20997
 C2669 C 0.72995 0.56388 0.22943
 C2670 C 0.72543 0.55459 0.24006
 H2671 H 0.68921 0.61668 0.21780
 H2672 H 0.73921 0.56099 0.22312
 H2673 H 0.71127 0.61609 0.19337
 H2674 H 0.71608 0.55740 0.24626
 C2675 C 0.54105 0.12442 0.69282
 C2676 C 0.54322 0.13177 0.70545
 C2677 C 0.53410 0.14390 0.70988
 N2678 N 0.53580 0.14958 0.72295
 N2679 N 0.52801 0.16085 0.72704
 C2680 C 0.51821 0.16691 0.71822
 N2681 N 0.51646 0.16121 0.70514
 N2682 N 0.52423 0.14987 0.70105
 C2683 C 0.51036 0.18003 0.72238
 C2684 C 0.51226 0.18599 0.73575
 H2685 H 0.55175 0.12853 0.71251
 H2686 H 0.50405 0.18568 0.71450
 H2687 H 0.53210 0.12744 0.68616
 H2688 H 0.51861 0.18020 0.74351
 C2689 C 1.04735 0.13149 0.20255
 C2690 C 1.05158 0.13908 0.21451
 C2691 C 1.04307 0.15155 0.21959
 N2692 N 1.04741 0.15936 0.23090
 N2693 N 1.03978 0.17070 0.23530
 C2694 C 1.02751 0.17463 0.22859
 N2695 N 1.02317 0.16680 0.21735
 N2696 N 1.03078 0.15550 0.21295
 C2697 C 1.01917 0.18748 0.23277
 C2698 C 1.02337 0.19671 0.24357
 H2699 H 1.06115 0.13591 0.22017
 H2700 H 1.00990 0.19025 0.22644
 H2701 H 1.03775 0.13490 0.19706
 H2702 H 1.03272 0.19404 0.24980
 C2703 C 0.20254 0.63087 0.56064
 C2704 C 0.19873 0.63874 0.54866
 C2705 C 0.20670 0.65153 0.54415
 N2706 N 0.20328 0.65818 0.53182
 N2707 N 0.21041 0.66969 0.52754
 C2708 C 0.22126 0.67503 0.53540
 N2709 N 0.22466 0.66841 0.54777
 N2710 N 0.21754 0.65686 0.55205
 C2711 C 0.22905 0.68792 0.53075
 C2712 C 0.22592 0.69449 0.51785
 H2713 H 0.18990 0.63527 0.54219
 H2714 H 0.23703 0.69245 0.53766
 H2715 H 0.21161 0.63421 0.56686
 H2716 H 0.21785 0.68981 0.51114
 C2717 C 0.19551 0.13072 1.04436
 C2718 C 0.20916 0.13612 1.04612
 C2719 C 0.21398 0.14849 1.03770
 N2720 N 0.22785 0.15244 1.03795
 N2721 N 0.23229 0.16346 1.03015
 C2722 C 0.22301 0.17092 1.02177
 N2723 N 0.20914 0.16699 1.02156
 N2724 N 0.20473 0.15596 1.02933
 C2725 C 0.22756 0.18357 1.01364
 C2726 C 0.24162 0.18817 1.01379
 H2727 H 0.21663 0.13074 1.05313
 H2728 H 0.21945 0.19005 1.00844
 H2729 H 0.18838 0.13578 1.03678
 H2730 H 0.24963 0.18175 1.01923
 C2731 C 0.20317 0.69700 0.61783
 C2732 C 0.19988 0.70993 0.61106
 C2733 C 0.20806 0.71483 0.59863
 N2734 N 0.20465 0.72744 0.59218
 N2735 N 0.21187 0.73182 0.58082
 C2736 C 0.22281 0.72375 0.57552
 N2737 N 0.22624 0.71118 0.58200
 N2738 N 0.21902 0.70681 0.59334
 C2739 C 0.23054 0.72800 0.56262
 C2740 C 0.22714 0.74040 0.55497
 H2741 H 0.19117 0.71659 0.61490
 H2742 H 0.23862 0.72066 0.55860
 H2743 H 0.21199 0.69050 0.61395
 H2744 H 0.21898 0.74768 0.55890
 C2745 C 0.19946 0.20522 1.12107
 C2746 C 0.21172 0.20039 1.11408
 C2747 C 0.21709 0.20760 1.10126
 N2748 N 0.22890 0.20248 1.09454
 N2749 N 0.23378 0.20889 1.08290
 C2750 C 0.22702 0.22070 1.07758
 N2751 N 0.21523 0.22581 1.08431
 N2752 N 0.21036 0.21940 1.09592
 C2753 C 0.23193 0.22786 1.06460
 C2754 C 0.24357 0.22302 1.05660
 H2755 H 0.21752 0.19110 1.11800
 H2756 H 0.22577 0.23706 1.06096
 H2757 H 0.19371 0.21451 1.11704
 H2758 H 0.24972 0.21377 1.06011
 C2759 C 0.69588 0.54125 0.12659
 C2760 C 0.70733 0.54566 0.13477
 C2761 C 0.71234 0.53719 0.14692
 N2762 N 0.72373 0.54164 0.15448
 N2763 N 0.72823 0.53418 0.16566
 C2764 C 0.72153 0.52198 0.16968
 N2765 N 0.71018 0.51748 0.16208
 N2766 N 0.70568 0.52494 0.15088
 C2767 C 0.72595 0.51409 0.18242
 C2768 C 0.73694 0.51901 0.19093
 H2769 H 0.71286 0.55545 0.13219
 H2770 H 0.71985 0.50482 0.18561
 H2771 H 0.69056 0.53130 0.12909
 H2772 H 0.74285 0.52842 0.18776
 C2773 C 0.69578 1.04485 0.62822
 C2774 C 0.70870 1.04764 0.63484
 C2775 C 0.71366 1.03898 0.64699
 N2776 N 0.72687 1.04101 0.65242
 N2777 N 0.73142 1.03327 0.66343
 C2778 C 0.72295 1.02320 0.66945
 N2779 N 0.70974 1.02117 0.66402
 N2780 N 0.70520 1.02888 0.65298
 C2781 C 0.72761 1.01510 0.68208
 C2782 C 0.74104 1.01711 0.68799
 H2783 H 0.71549 1.05604 0.63083
 H2784 H 0.72000 1.00825 0.68736
 H2785 H 0.68931 1.03609 0.63203
 H2786 H 0.74847 1.02414 0.68271
 C2787 C 0.55949 0.20020 0.63275
 C2788 C 0.54579 0.19970 0.63837
 C2789 C 0.54179 0.20810 0.65100
 N2790 N 0.52812 0.20813 0.65566
 N2791 N 0.52439 0.21559 0.66712
 C2792 C 0.53417 0.22335 0.67435
 N2793 N 0.54785 0.22336 0.66967
 N2794 N 0.55158 0.21590 0.65819
 C2795 C 0.53023 0.23102 0.68746
 C2796 C 0.51642 0.23031 0.69282
 H2797 H 0.53771 0.19335 0.63323
 H2798 H 0.53849 0.23627 0.69349
 H2799 H 0.56735 0.20696 0.63771
 H2800 H 0.50840 0.22467 0.68683
 C2801 C 1.05211 0.20689 0.13004
 C2802 C 1.03956 0.20319 0.13694
 C2803 C 1.03425 0.21171 0.14898
 N2804 N 1.02292 0.20716 0.15664
 N2805 N 1.01842 0.21459 0.16787
 C2806 C 1.02506 0.22685 0.17180
 N2807 N 1.03628 0.23146 0.16405
 N2808 N 1.04079 0.22403 0.15286
 C2809 C 1.02075 0.23479 0.18454
 C2810 C 1.01043 0.22965 0.19378
 H2811 H 1.03382 0.19369 0.13383
 H2812 H 1.02650 0.24445 0.18716
 H2813 H 1.05793 0.21623 0.13350
 H2814 H 1.00488 0.21984 0.19127
 C2815 C 0.62267 0.20838 0.69597
 C2816 C 0.61588 0.20468 0.70858
 C2817 C 0.60314 0.21221 0.71391
 N2818 N 0.59678 0.20748 0.72592
 N2819 N 0.58492 0.21380 0.73072
 C2820 C 0.57902 0.22511 0.72369
 N2821 N 0.58545 0.22992 0.71175
 N2822 N 0.59731 0.22359 0.70693
 C2823 C 0.56554 0.23169 0.72840
 C2824 C 0.55771 0.22629 0.73976
 H2825 H 0.61981 0.19571 0.71478
 H2826 H 0.56122 0.24047 0.72213
 H2827 H 0.61890 0.21751 0.68988
 H2828 H 0.56193 0.21740 0.74593
 C2829 C 1.12115 0.20226 0.20573
 C2830 C 1.11393 0.21494 0.20241
 C2831 C 1.10184 0.21999 0.21108
 N2832 N 1.09490 0.23236 0.20768
 N2833 N 1.08382 0.23690 0.21537
 C2834 C 1.07931 0.22926 0.22677
 N2835 N 1.08631 0.21693 0.23021
 N2836 N 1.09738 0.21240 0.22252
 C2837 C 1.06655 0.23367 0.23479
 C2838 C 1.05815 0.24525 0.23043
 H2839 H 1.11727 0.22135 0.19346
 H2840 H 1.06302 0.22691 0.24342
 H2841 H 1.11783 0.19606 0.21484
 H2842 H 1.06157 0.25170 0.22153
 C2843 C 0.12863 0.69585 0.54162
 C2844 C 0.13579 0.70845 0.54460
 C2845 C 0.14765 0.71319 0.53570
 N2846 N 0.15361 0.72617 0.53794
 N2847 N 0.16444 0.73051 0.52995
 C2848 C 0.16968 0.72204 0.51942
 N2849 N 0.16370 0.70907 0.51716
 N2850 N 0.15285 0.70475 0.52513
 C2851 C 0.18220 0.72625 0.51118
 C2852 C 0.18889 0.73927 0.51355
 H2853 H 0.13240 0.71518 0.55334
 H2854 H 0.18693 0.71845 0.50403
 H2855 H 0.13175 0.68946 0.53254
 H2856 H 0.18412 0.74700 0.52074
 C2857 C 0.13813 0.19737 1.05859
 C2858 C 0.14421 0.19618 1.04521
 C2859 C 0.15719 0.20425 1.04161
 N2860 N 0.16212 0.20443 1.02812
 N2861 N 0.17362 0.21200 1.02476
 C2862 C 0.18062 0.21971 1.03474
 N2863 N 0.17573 0.21948 1.04824
 N2864 N 0.16422 0.21193 1.05159
 C2865 C 0.19355 0.22787 1.03119
 C2866 C 0.19883 0.22809 1.01743
 H2867 H 0.13899 0.18996 1.03709
 H2868 H 0.19939 0.23306 1.03960
 H2869 H 0.14319 0.20414 1.06637
 H2870 H 0.19301 0.22258 1.00920
 C2871 C 0.62997 0.55192 0.20198
 C2872 C 0.63542 0.53812 0.19991
 C2873 C 0.64746 0.53275 0.20857
 N2874 N 0.65337 0.51964 0.20602
 N2875 N 0.66436 0.51489 0.21373
 C2876 C 0.66978 0.52303 0.22433
 N2877 N 0.66379 0.53607 0.22695
 N2878 N 0.65285 0.54082 0.21923
 C2879 C 0.68244 0.51839 0.23241
 C2880 C 0.69023 0.50613 0.22879
 H2881 H 0.63074 0.53115 0.19208
 H2882 H 0.68647 0.52553 0.24048
 H2883 H 0.63482 0.55871 0.20988
 H2884 H 0.68644 0.49930 0.22035
 C2885 C 0.63262 1.05565 0.70512
 C2886 C 0.63986 1.04257 0.70385
 C2887 C 0.65300 1.03921 0.71189
 N2888 N 0.65905 1.02596 0.71084
 N2889 N 0.67105 1.02277 0.71776
 C2890 C 0.67752 1.03269 0.72602
 N2891 N 0.67145 1.04595 0.72712
 N2892 N 0.65940 1.04914 0.72021
 C2893 C 0.69124 1.02937 0.73313
 C2894 C 0.69773 1.01590 0.73165
 H2895 H 0.63573 1.03441 0.69686
 H2896 H 0.69670 1.03782 0.73873
 H2897 H 0.63655 1.06361 0.71245
 H2898 H 0.69223 1.00772 0.72570
 C2899 C 0.86386 0.45070 0.30959
 C2900 C 0.85856 0.45007 0.29589
 C2901 C 0.84605 0.45871 0.29166
 N2902 N 0.84253 0.45988 0.27780
 N2903 N 0.83142 0.46796 0.27383
 C2904 C 0.82343 0.47518 0.28356
 N2905 N 0.82691 0.47397 0.29743
 N2906 N 0.83806 0.46593 0.30140
 C2907 C 0.81071 0.48351 0.27931
 C2908 C 0.80681 0.48458 0.26515
 H2909 H 0.86428 0.44401 0.28788
 H2910 H 0.80367 0.48769 0.28746
 H2911 H 0.85855 0.45745 0.31734
 H2912 H 0.81382 0.48010 0.25712
 C2913 C 0.87443 0.95277 0.80449
 C2914 C 0.86790 0.95029 0.79152
 C2915 C 0.85563 0.95910 0.78674
 N2916 N 0.84988 0.95689 0.77377
 N2917 N 0.83873 0.96472 0.76940
 C2918 C 0.83293 0.97508 0.77781
 N2919 N 0.83869 0.97731 0.79077
 N2920 N 0.84984 0.96949 0.79513
 C2921 C 0.82022 0.98340 0.77332
 C2922 C 0.81374 0.98096 0.76031
 H2923 H 0.87193 0.94188 0.78465
 H2924 H 0.81540 0.99087 0.78073
 H2925 H 0.87047 0.96141 0.81114
 H2926 H 0.81853 0.97327 0.75309
 C2927 C 0.38139 0.29361 0.80574
 C2928 C 0.38880 0.29731 0.79357
 C2929 C 0.40065 0.28835 0.78840
 N2930 N 0.40704 0.29152 0.77593
 N2931 N 0.41776 0.28339 0.77113
 C2932 C 0.42244 0.27179 0.77861
 N2933 N 0.41604 0.26862 0.79107
 N2934 N 0.40531 0.27673 0.79585
 C2935 C 0.43471 0.26320 0.77382
 C2936 C 0.44201 0.26666 0.76151
 H2937 H 0.38554 0.30658 0.78741
 H2938 H 0.43869 0.25473 0.78067
 H2939 H 0.38449 0.28410 0.81165
 H2940 H 0.43802 0.27521 0.75475
 C2941 C 0.88303 0.29977 0.31082
 C2942 C 0.88931 0.30168 0.29764
 C2943 C 0.90216 0.29347 0.29359
 N2944 N 0.90632 0.29304 0.27987
 N2945 N 0.91765 0.28523 0.27601
 C2946 C 0.92523 0.27754 0.28572
 N2947 N 0.92115 0.27807 0.29947
 N2948 N 0.90978 0.28583 0.30333
 C2949 C 0.93805 0.26931 0.28156
 C2950 C 0.94194 0.26813 0.26741
 H2951 H 0.88410 0.30839 0.28978
 H2952 H 0.94501 0.26507 0.28975
 H2953 H 0.88783 0.29232 0.31828
 H2954 H 0.93489 0.27249 0.25935
 C2955 C 0.36949 0.80342 0.45895
 C2956 C 0.36273 0.79052 0.45590
 C2957 C 0.35030 0.78541 0.46394
 N2958 N 0.34447 0.77256 0.46070
 N2959 N 0.33302 0.76790 0.46762
 C2960 C 0.32698 0.77592 0.47807
 N2961 N 0.33284 0.78874 0.48135
 N2962 N 0.34431 0.79339 0.47444
 C2963 C 0.31383 0.77134 0.48525
 C2964 C 0.30696 0.75856 0.48189
 H2965 H 0.36664 0.78384 0.44734
 H2966 H 0.30892 0.77874 0.49268
 H2967 H 0.36579 0.80991 0.46774
 H2968 H 0.31186 0.75120 0.47441
 C2969 C 0.37464 0.30485 0.95581
 C2970 C 0.36754 0.29208 0.95320
 C2971 C 0.35516 0.28768 0.96180
 N2972 N 0.34878 0.27497 0.95921
 N2973 N 0.33757 0.27089 0.96683
 C2974 C 0.33229 0.27933 0.97738
 N2975 N 0.33867 0.29206 0.97998
 N2976 N 0.34990 0.29614 0.97236
 C2977 C 0.31949 0.27511 0.98546
 C2978 C 0.31240 0.26243 0.98238
 H2979 H 0.37119 0.28506 0.94480
 H2980 H 0.31509 0.28248 0.99323
 H2981 H 0.37105 0.31166 0.96442
 H2982 H 0.31686 0.25529 0.97444
 C2983 C 0.80705 0.45473 0.36708
 C2984 C 0.79497 0.45055 0.35961
 C2985 C 0.78982 0.45799 0.34687
 N2986 N 0.77813 0.45303 0.34010
 N2987 N 0.77327 0.45950 0.32846
 C2988 C 0.77993 0.47122 0.32319
 N2989 N 0.79161 0.47622 0.32998
 N2990 N 0.79648 0.46973 0.34162
 C2991 C 0.77486 0.47829 0.31020
 C2992 C 0.76346 0.47302 0.30234
 H2993 H 0.78896 0.44137 0.36312
 H2994 H 0.78060 0.48759 0.30648
 H2995 H 0.81310 0.46391 0.36357
 H2996 H 0.75790 0.46355 0.30591
 C2997 C 0.79790 0.94430 0.86796
 C2998 C 0.80075 0.95681 0.86040
 C2999 C 0.79292 0.96066 0.84731
 N3000 N 0.79569 0.97322 0.84063
 N3001 N 0.78880 0.97683 0.82880
 C3002 C 0.77884 0.96804 0.82313
 N3003 N 0.77606 0.95547 0.82980
 N3004 N 0.78294 0.95185 0.84167
 C3005 C 0.77145 0.97185 0.80975
 C3006 C 0.77447 0.98459 0.80263
 H3007 H 0.80882 0.96406 0.86419
 H3008 H 0.76409 0.96429 0.80517
 H3009 H 0.78965 0.93722 0.86418
 H3010 H 0.78204 0.99189 0.80730
 C3011 C 0.29246 0.80159 0.37913
 C3012 C 0.29494 0.78801 0.38484
 C3013 C 0.28612 0.78263 0.39656
 N3014 N 0.28919 0.76978 0.40269
 N3015 N 0.28148 0.76508 0.41357
 C3016 C 0.27037 0.77304 0.41867
 N3017 N 0.26724 0.78582 0.41247
 N3018 N 0.27496 0.79051 0.40162
 C3019 C 0.26234 0.76860 0.43126
 C3020 C 0.26600 0.75640 0.43904
 H3021 H 0.30353 0.78131 0.38083
 H3022 H 0.25416 0.77588 0.43520
 H3023 H 0.28384 0.80819 0.38328
 H3024 H 0.27423 0.74917 0.43514
 C3025 C 0.29994 0.29740 0.87953
 C3026 C 0.28808 0.30125 0.88757
 C3027 C 0.28473 0.29306 0.90052
 N3028 N 0.27252 0.29569 0.90783
 N3029 N 0.26937 0.28792 0.91926
 C3030 C 0.27828 0.27721 0.92375
 N3031 N 0.29050 0.27466 0.91649
 N3032 N 0.29364 0.28241 0.90509
 C3033 C 0.27519 0.26873 0.93649
 C3034 C 0.26319 0.27145 0.94475
 H3035 H 0.28092 0.30973 0.88404
 H3036 H 0.28295 0.26071 0.93985
 H3037 H 0.30675 0.28868 0.88318
 H3038 H 0.25558 0.27963 0.94143
 C3039 C 0.45288 0.30304 0.86864
 C3040 C 0.44961 0.29033 0.86172
 C3041 C 0.45768 0.28590 0.84899
 N3042 N 0.45512 0.27310 0.84273
 N3043 N 0.46257 0.26901 0.83137
 C3044 C 0.47287 0.27754 0.82585
 N3045 N 0.47539 0.29035 0.83209
 N3046 N 0.46796 0.29443 0.84344
 C3047 C 0.48098 0.27328 0.81312
 C3048 C 0.47825 0.26044 0.80620
 H3049 H 0.44147 0.28336 0.86591
 H3050 H 0.48868 0.28066 0.80877
 H3051 H 0.46138 0.30962 0.86450
 H3052 H 0.47029 0.25331 0.81052
 C3053 C 0.94783 0.30017 0.37097
 C3054 C 0.95891 0.30522 0.36253
 C3055 C 0.96350 0.29760 0.34959
 N3056 N 0.97429 0.30284 0.34157
 N3057 N 0.97849 0.29604 0.32984
 C3058 C 0.97206 0.28374 0.32570
 N3059 N 0.96130 0.27851 0.33373
 N3060 N 0.95710 0.28529 0.34544
 C3061 C 0.97635 0.27615 0.31266
 C3062 C 0.98696 0.28119 0.30362
 H3063 H 0.96439 0.31493 0.36545
 H3064 H 0.97066 0.26648 0.30993
 H3065 H 0.94242 0.29043 0.36796
 H3066 H 0.99249 0.29099 0.30623
 C3067 C 0.44388 0.36745 0.79378
 C3068 C 0.45712 0.36066 0.79516
 C3069 C 0.46129 0.34809 0.78660
 N3070 N 0.47436 0.34200 0.78840
 N3071 N 0.47823 0.33044 0.78101
 C3072 C 0.46919 0.32449 0.77151
 N3073 N 0.45612 0.33062 0.76964
 N3074 N 0.45224 0.34221 0.77704
 C3075 C 0.47317 0.31124 0.76385
 C3076 C 0.48600 0.30411 0.76668
 H3077 H 0.46474 0.36461 0.80277
 H3078 H 0.46550 0.30651 0.75673
 H3079 H 0.43642 0.36367 0.78591
 H3080 H 0.49337 0.30875 0.77417
 C3081 C 0.95450 0.37646 0.29920
 C3082 C 0.94955 0.36894 0.28748
 C3083 C 0.95771 0.35677 0.28149
 N3084 N 0.95224 0.34898 0.27069
 N3085 N 0.95941 0.33772 0.26548
 C3086 C 0.97235 0.33390 0.27085
 N3087 N 0.97784 0.34175 0.28157
 N3088 N 0.97068 0.35297 0.28678
 C3089 C 0.98017 0.32110 0.26586
 C3090 C 0.97476 0.31172 0.25576
 H3091 H 0.93939 0.37179 0.28276
 H3092 H 0.99017 0.31850 0.27107
 H3093 H 0.96461 0.37340 0.30393
 H3094 H 0.96475 0.31421 0.25054
 C3095 C 0.30601 0.86862 0.45148
 C3096 C 0.29457 0.86015 0.44762
 C3097 C 0.29041 0.84759 0.45606
 N3098 N 0.27813 0.84074 0.45303
 N3099 N 0.27415 0.82943 0.46063
 C3100 C 0.28228 0.82453 0.47156
 N3101 N 0.29461 0.83135 0.47457
 N3102 N 0.29858 0.84270 0.46698
 C3103 C 0.27804 0.81176 0.47969
 C3104 C 0.26517 0.80507 0.47685
 H3105 H 0.28813 0.86308 0.43854
 H3106 H 0.28534 0.80721 0.48741
 H3107 H 0.31204 0.86596 0.46092
 H3108 H 0.25806 0.80974 0.46901
 C3109 C 0.29724 0.37063 0.95223
 C3110 C 0.29921 0.36398 0.96530
 C3111 C 0.29054 0.35156 0.96958
 N3112 N 0.29268 0.34523 0.98235
 N3113 N 0.28511 0.33383 0.98617
 C3114 C 0.27507 0.32835 0.97738
 N3115 N 0.27289 0.33473 0.96464
 N3116 N 0.28045 0.34612 0.96083
 C3117 C 0.26726 0.31520 0.98108
 C3118 C 0.27021 0.30756 0.99345
 H3119 H 0.30721 0.36791 0.97253
 H3120 H 0.26002 0.31077 0.97334
 H3121 H 0.28907 0.36669 0.94517
 H3122 H 0.27777 0.31189 1.00093
 C3123 C 0.79372 0.37604 0.30252
 C3124 C 0.79851 0.38329 0.29051
 C3125 C 0.79050 0.39553 0.28439
 N3126 N 0.79578 0.40274 0.27307
 N3127 N 0.78872 0.41397 0.26763
 C3128 C 0.77608 0.41838 0.27330
 N3129 N 0.77078 0.41112 0.28456
 N3130 N 0.77784 0.39992 0.29000
 C3131 C 0.76832 0.43110 0.26793
 C3132 C 0.77343 0.43983 0.25707
 H3133 H 0.80842 0.38004 0.28551
 H3134 H 0.75855 0.43412 0.27336
 H3135 H 0.78383 0.37943 0.30750
 H3136 H 0.78325 0.43694 0.25167
   
