data_POSCAR
  _audit_creation_date              2014-09-24
  _audit_creation_method            'ToBaCCo'
  _symmetry_space_group_name_H-M    'P1'
  _symmetry_Int_Tables_number       1
  _symmetry_cell_setting            triclinic
  loop_
  _symmetry_equiv_pos_as_xyz
 x,y,z
_cell_length_a 49.8873
_cell_length_b 49.8842
_cell_length_c 49.8722
_cell_angle_alpha 90.031000
_cell_angle_beta 90.030900
_cell_angle_gamma 89.999900
loop_
  _atom_site_label
  _atom_site_type_symbol
  _atom_site_fract_x
  _atom_site_fract_y
  _atom_site_fract_z
O1 O 0.22801 1.02566 0.02560
 O2 O 0.22799 0.97350 -0.02675
 O3 O 0.22774 0.97347 0.02546
 O4 O 0.22772 1.02571 -0.02660
 O5 O 0.27205 1.02574 -0.02663
 O6 O 0.27207 0.97344 0.02549
 O7 O 0.27232 0.97353 -0.02671
 O8 O 0.27235 1.02562 0.02558
 Cu9 Cu 0.22339 0.99958 -0.00058
 Cu10 Cu 0.27668 0.99958 -0.00057
 C11 C 0.25021 1.03443 0.03442
 C12 C 0.25017 0.96471 -0.03556
 C13 C 0.24989 0.96464 0.03427
 C14 C 0.24986 1.03455 -0.03540
 O15 O 0.72844 0.52611 0.52610
 O16 O 0.72842 0.47395 0.47375
 O17 O 0.72816 0.47388 0.52599
 O18 O 0.72816 0.52617 0.47386
 O19 O 0.77249 0.52619 0.47385
 O20 O 0.77249 0.47384 0.52603
 O21 O 0.77275 0.47397 0.47380
 O22 O 0.77277 0.52606 0.52608
 Cu23 Cu 0.72383 0.50003 0.49992
 Cu24 Cu 0.77710 0.50001 0.49994
 C25 C 0.75063 0.53488 0.53492
 C26 C 0.75060 0.46516 0.46495
 C27 C 0.75031 0.46503 0.53482
 C28 C 0.75031 0.53501 0.46505
 O29 O 0.72750 0.97397 1.02711
 O30 O 0.72758 1.02604 0.97480
 O31 O 0.72786 0.97383 0.97488
 O32 O 0.72775 1.02620 1.02704
 O33 O 0.77207 1.02618 1.02712
 O34 O 0.77219 0.97387 0.97502
 O35 O 0.77191 1.02609 0.97488
 O36 O 0.77182 0.97395 1.02725
 Cu37 Cu 0.72320 1.00001 1.00095
 Cu38 Cu 0.77647 1.00003 1.00108
 C39 C 0.74963 0.96516 1.03601
 C40 C 0.74974 1.03485 0.96600
 C41 C 0.75006 0.96502 0.96615
 C42 C 0.74991 1.03504 1.03588
 O43 O 0.27182 0.47410 0.52613
 O44 O 0.27179 0.52617 0.47382
 O45 O 0.27207 0.52629 0.52603
 O46 O 0.27208 0.47398 0.47392
 O47 O 0.22775 0.47393 0.47388
 O48 O 0.22773 0.52630 0.52604
 O49 O 0.22745 0.52612 0.47383
 O50 O 0.22749 0.47411 0.52608
 Cu51 Cu 0.27642 0.50014 0.49998
 Cu52 Cu 0.22313 0.50011 0.49996
 C53 C 0.24964 0.46532 0.53493
 C54 C 0.24960 0.53493 0.46500
 C55 C 0.24992 0.53512 0.53484
 C56 C 0.24994 0.46512 0.46510
 O57 O 1.02578 0.27263 0.02559
 O58 O 0.97338 0.27268 -0.02639
 O59 O 0.97359 0.27235 0.02582
 O60 O 1.02557 0.27248 -0.02661
 O61 O 1.02558 0.22814 -0.02669
 O62 O 0.97365 0.22801 0.02569
 O63 O 0.97338 0.22835 -0.02652
 O64 O 1.02584 0.22829 0.02551
 Cu65 Cu 0.99957 0.27701 -0.00039
 Cu66 Cu 0.99961 0.22372 -0.00051
 C67 C 1.03466 0.25047 0.03433
 C68 C 0.96453 0.25054 -0.03524
 C69 C 0.96486 0.25014 0.03460
 C70 C 1.03435 0.25032 -0.03549
 O71 O 0.52621 0.77287 0.52619
 O72 O 0.47382 0.77289 0.47421
 O73 O 0.47400 0.77264 0.52644
 O74 O 0.52604 0.77267 0.47396
 O75 O 0.52602 0.72834 0.47393
 O76 O 0.47403 0.72831 0.52637
 O77 O 0.47379 0.72856 0.47413
 O78 O 0.52624 0.72853 0.52617
 Cu79 Cu 0.50002 0.77724 0.50020
 Cu80 Cu 0.50002 0.72396 0.50015
 C81 C 0.53507 0.75071 0.53496
 C82 C 0.46496 0.75075 0.46539
 C83 C 0.46524 0.75045 0.53527
 C84 C 0.53481 0.75049 0.46509
 O85 O 0.02628 0.77162 -0.02690
 O86 O -0.02618 0.77168 0.02512
 O87 O 0.02603 0.77184 0.02533
 O88 O -0.02595 0.77190 -0.02711
 O89 O -0.02603 0.72758 -0.02717
 O90 O 0.02600 0.72750 0.02532
 O91 O -0.02621 0.72734 0.02506
 O92 O 0.02620 0.72730 -0.02691
 Cu93 Cu 0.00005 0.77623 -0.00089
 Cu94 Cu -0.00001 0.72296 -0.00093
 C95 C 0.03510 0.74944 -0.03568
 C96 C -0.03504 0.74950 0.03387
 C97 C 0.03478 0.74967 0.03419
 C98 C -0.03478 0.74977 -0.03599
 O99 O 0.52635 0.27142 0.47411
 O100 O 0.47394 0.27146 0.52607
 O101 O 0.52613 0.27167 0.52632
 O102 O 0.47416 0.27167 0.47386
 O103 O 0.47413 0.22733 0.47383
 O104 O 0.52614 0.22734 0.52634
 O105 O 0.47395 0.22712 0.52604
 O106 O 0.52631 0.22709 0.47413
 Cu107 Cu 0.50015 0.27603 0.50009
 Cu108 Cu 0.50013 0.22274 0.50008
 C109 C 0.53517 0.24923 0.46535
 C110 C 0.46510 0.24928 0.53481
 C111 C 0.53491 0.24952 0.53518
 C112 C 0.46537 0.24951 0.46499
 O113 O 1.02559 0.02569 0.22786
 O114 O 0.97354 -0.02681 0.22790
 O115 O 0.97339 0.02540 0.22750
 O116 O 1.02575 -0.02652 0.22746
 O117 O 1.02585 -0.02654 0.27180
 O118 O 0.97340 0.02546 0.27184
 O119 O 0.97364 -0.02674 0.27224
 O120 O 1.02560 0.02567 0.27221
 Cu121 Cu 0.99956 -0.00056 0.22321
 Cu122 Cu 0.99963 -0.00054 0.27650
 C123 C 1.03438 0.03453 0.25006
 C124 C 0.96480 -0.03563 0.25011
 C125 C 0.96456 0.03420 0.24965
 C126 C 1.03464 -0.03529 0.24960
 O127 O 0.52609 0.52630 0.72846
 O128 O 0.47409 0.47385 0.72841
 O129 O 0.47387 0.52607 0.72806
 O130 O 0.52630 0.47410 0.72803
 O131 O 0.52636 0.47405 0.77237
 O132 O 0.47385 0.52610 0.77240
 O133 O 0.47416 0.47389 0.77276
 O134 O 0.52606 0.52624 0.77281
 Cu135 Cu 0.50008 0.50008 0.72376
 Cu136 Cu 0.50011 0.50007 0.77706
 C137 C 0.53485 0.53511 0.75067
 C138 C 0.46536 0.46503 0.75061
 C139 C 0.46501 0.53486 0.75021
 C140 C 0.53519 0.46529 0.75016
 O141 O 0.97352 1.02678 0.72773
 O142 O 1.02548 0.97437 0.72772
 O143 O 0.97329 0.97457 0.72819
 O144 O 1.02573 1.02657 0.72803
 O145 O 1.02578 1.02661 0.77238
 O146 O 0.97342 0.97469 0.77253
 O147 O 1.02562 0.97441 0.77206
 O148 O 0.97357 1.02691 0.77207
 Cu149 Cu 0.99949 1.00057 0.72344
 Cu150 Cu 0.99960 1.00067 0.77674
 C151 C 0.96476 1.03570 0.74987
 C152 C 1.03432 0.96553 0.74986
 C153 C 0.96452 0.96586 0.75041
 C154 C 1.03460 1.03535 0.75021
 O155 O 0.47415 0.52623 0.27182
 O156 O 0.52615 0.47378 0.27181
 O157 O 0.52636 0.52600 0.27220
 O158 O 0.47395 0.47402 0.27222
 O159 O 0.47387 0.47395 0.22788
 O160 O 0.52636 0.52602 0.22785
 O161 O 0.52607 0.47380 0.22746
 O162 O 0.47416 0.52615 0.22748
 Cu163 Cu 0.50016 0.50001 0.27649
 Cu164 Cu 0.50011 0.49998 0.22319
 C165 C 0.46539 0.53503 0.24962
 C166 C 0.53487 0.46495 0.24960
 C167 C 0.53521 0.53480 0.25005
 C168 C 0.46505 0.46521 0.25008
 O169 O 0.25017 0.18023 0.21274
 O170 O 0.27922 0.17236 0.25008
 O171 O 0.18025 0.21291 0.25099
 O172 O 0.17041 0.24766 0.27721
 O173 O 0.21303 0.25030 0.18009
 O174 O 0.25024 0.27940 0.17250
 O175 O 0.25109 0.28673 0.31930
 O176 O 0.22001 0.25174 0.32674
 O177 O 0.31977 0.25038 0.28638
 O178 O 0.32820 0.22093 0.24990
 O179 O 0.28657 0.31942 0.25073
 O180 O 0.24859 0.32747 0.22047
 O181 O 0.25078 0.31901 0.28706
 O182 O 0.21973 0.32688 0.24869
 O183 O 0.31888 0.28727 0.25190
 O184 O 0.32386 0.25025 0.21678
 O185 O 0.28752 0.25096 0.31874
 O186 O 0.25042 0.22005 0.32736
 O187 O 0.25055 0.21246 0.18039
 O188 O 0.28015 0.25021 0.17290
 O189 O 0.18065 0.25012 0.21228
 O190 O 0.17458 0.28158 0.24981
 O191 O 0.21242 0.18049 0.25043
 O192 O 0.24991 0.17306 0.28008
 Zr193 Zr 0.24880 0.20185 0.24899
 O194 O 0.27402 0.22488 0.27372
 Zr195 Zr 0.20187 0.24906 0.24881
 O196 O 0.22488 0.27386 0.27418
 Zr197 Zr 0.24918 0.24882 0.20182
 O198 O 0.27404 0.27408 0.22485
 Zr199 Zr 0.25087 0.25055 0.29771
 O200 O 0.22523 0.22540 0.27498
 Zr201 Zr 0.29782 0.25066 0.25041
 O202 O 0.27499 0.22503 0.22535
 Zr203 Zr 0.25046 0.29768 0.25062
 O204 O 0.22539 0.27481 0.22506
 O205 O 0.22406 0.22407 0.22397
 O206 O 0.27574 0.27572 0.27557
 C207 C 0.25095 0.18794 0.18820
 C208 C 0.18792 0.18834 0.25134
 C209 C 0.18848 0.25080 0.18777
 C210 C 0.25102 0.31126 0.31158
 C211 C 0.31205 0.25068 0.31093
 C212 C 0.31110 0.31177 0.25148
 H213 H 0.28516 0.21271 0.28465
 H214 H 0.28531 0.28501 0.21275
 H215 H 0.21258 0.21257 0.21257
 H216 H 0.21287 0.28476 0.28557
 H217 H 0.20614 0.23879 0.32089
 H218 H 0.17638 0.25781 0.29317
 H219 H 0.34127 0.25834 0.22200
 H220 H 0.29373 0.23684 0.17842
 H221 H 0.26447 0.20679 0.32293
 H222 H 0.23733 0.17937 0.29407
 H223 H 0.26255 0.32332 0.20701
 H224 H 0.23812 0.29375 0.17889
 H225 H 0.29344 0.17845 0.23764
 H226 H 0.32249 0.20613 0.26177
 H227 H 0.17991 0.29409 0.23536
 H228 H 0.20717 0.32352 0.26366
 O229 O 0.74986 0.82001 0.21286
 O230 O 0.72088 0.82784 0.25025
 O231 O 0.81984 0.78725 0.25096
 O232 O 0.82975 0.75248 0.27708
 O233 O 0.78688 0.74993 0.18002
 O234 O 0.74963 0.72087 0.17244
 O235 O 0.74914 0.71339 0.31926
 O236 O 0.78024 0.74837 0.32672
 O237 O 0.68038 0.74981 0.28649
 O238 O 0.67188 0.77928 0.25009
 O239 O 0.71349 0.68078 0.25066
 O240 O 0.75136 0.67271 0.22037
 O241 O 0.74936 0.68114 0.28696
 O242 O 0.78035 0.67332 0.24850
 O243 O 0.68119 0.71294 0.25192
 O244 O 0.67614 0.74999 0.21688
 O245 O 0.71270 0.74919 0.31881
 O246 O 0.74986 0.78009 0.32741
 O247 O 0.74939 0.78781 0.18045
 O248 O 0.71973 0.75007 0.17295
 O249 O 0.81934 0.75007 0.21216
 O250 O 0.82546 0.71856 0.24964
 O251 O 0.78769 0.81968 0.25051
 O252 O 0.75027 0.82710 0.28021
 Zr253 Zr 0.75129 0.79834 0.24907
 O254 O 0.72612 0.77529 0.27380
 Zr255 Zr 0.79821 0.75111 0.24873
 O256 O 0.77525 0.72630 0.27411
 Zr257 Zr 0.75078 0.75142 0.20181
 O258 O 0.72598 0.72614 0.22485
 Zr259 Zr 0.74931 0.74960 0.29772
 O260 O 0.77491 0.77475 0.27498
 Zr261 Zr 0.70225 0.74954 0.25049
 O262 O 0.72503 0.77519 0.22543
 Zr263 Zr 0.74960 0.70251 0.25055
 O264 O 0.77461 0.72539 0.22498
 O265 O 0.77597 0.77613 0.22397
 O266 O 0.72438 0.72445 0.27557
 C267 C 0.74903 0.81233 0.18830
 C268 C 0.81218 0.81182 0.25138
 C269 C 0.81146 0.74941 0.18766
 C270 C 0.74919 0.68887 0.31150
 C271 C 0.68815 0.74949 0.31103
 C272 C 0.68897 0.68844 0.25145
 H273 H 0.71502 0.78747 0.28477
 H274 H 0.71468 0.71522 0.21274
 H275 H 0.78743 0.78764 0.21258
 H276 H 0.78728 0.71539 0.28546
 H277 H 0.79411 0.76131 0.32085
 H278 H 0.82381 0.74234 0.29304
 H279 H 0.65875 0.74190 0.22211
 H280 H 0.70618 0.76346 0.17850
 H281 H 0.73578 0.79333 0.32305
 H282 H 0.76287 0.82077 0.29419
 H283 H 0.73744 0.67692 0.20689
 H284 H 0.76176 0.70650 0.17878
 H285 H 0.70665 0.82177 0.23780
 H286 H 0.67765 0.79408 0.26193
 H287 H 0.82012 0.70609 0.23516
 H288 H 0.79291 0.67664 0.26350
 O289 O 0.75011 0.18041 0.78746
 O290 O 0.72102 0.17252 0.75012
 O291 O 0.82002 0.21302 0.74916
 O292 O 0.82989 0.24773 0.72294
 O293 O 0.78727 0.25053 0.82006
 O294 O 0.75008 0.27964 0.82765
 O295 O 0.74923 0.28680 0.68082
 O296 O 0.78031 0.25176 0.67342
 O297 O 0.68053 0.25050 0.71377
 O298 O 0.67207 0.22114 0.75023
 O299 O 0.71376 0.31959 0.74940
 O300 O 0.75174 0.32768 0.77963
 O301 O 0.74955 0.31912 0.71305
 O302 O 0.78063 0.32701 0.75144
 O303 O 0.68144 0.28745 0.74826
 O304 O 0.67646 0.25046 0.78339
 O305 O 0.71278 0.25103 0.68141
 O306 O 0.74985 0.22011 0.67279
 O307 O 0.74974 0.21269 0.81979
 O308 O 0.72014 0.25048 0.82724
 O309 O 0.81965 0.25028 0.78787
 O310 O 0.82573 0.28169 0.75034
 O311 O 0.78785 0.18061 0.74974
 O312 O 0.75034 0.17315 0.72012
 Zr313 Zr 0.75147 0.20199 0.75119
 O314 O 0.72627 0.22501 0.72645
 Zr315 Zr 0.79843 0.24918 0.75134
 O316 O 0.77543 0.27397 0.72596
 Zr317 Zr 0.75112 0.24903 0.79834
 O318 O 0.72628 0.27428 0.77529
 Zr319 Zr 0.74943 0.25063 0.70244
 O320 O 0.77505 0.22550 0.72519
 Zr321 Zr 0.70248 0.25083 0.74974
 O322 O 0.72529 0.22522 0.77482
 Zr323 Zr 0.74986 0.29783 0.74950
 O324 O 0.77492 0.27498 0.77508
 O325 O 0.77623 0.22424 0.77620
 O326 O 0.72457 0.27585 0.72457
 C327 C 0.74934 0.18815 0.81200
 C328 C 0.81234 0.18845 0.74881
 C329 C 0.81182 0.25100 0.81238
 C330 C 0.74931 0.31134 0.68853
 C331 C 0.68825 0.25077 0.68923
 C332 C 0.68923 0.31195 0.74867
 H333 H 0.71513 0.21283 0.71552
 H334 H 0.71502 0.28523 0.78739
 H335 H 0.78770 0.21274 0.78760
 H336 H 0.78745 0.28485 0.71457
 H337 H 0.79415 0.23879 0.67928
 H338 H 0.82392 0.25786 0.70698
 H339 H 0.65907 0.25857 0.77818
 H340 H 0.70657 0.23708 0.82175
 H341 H 0.73583 0.20684 0.67725
 H342 H 0.76291 0.17945 0.70611
 H343 H 0.73782 0.32353 0.79312
 H344 H 0.76220 0.29399 0.82125
 H345 H 0.70684 0.17862 0.76259
 H346 H 0.67782 0.20628 0.73845
 H347 H 0.82040 0.29422 0.76479
 H348 H 0.79316 0.32363 0.73645
 O349 O 0.24999 0.81972 0.78749
 O350 O 0.27906 0.82761 0.75022
 O351 O 0.18009 0.78706 0.74909
 O352 O 0.17026 0.75230 0.72287
 O353 O 0.21279 0.74966 0.82007
 O354 O 0.25000 0.72053 0.82769
 O355 O 0.25099 0.71326 0.68090
 O356 O 0.21993 0.74824 0.67340
 O357 O 0.31965 0.74960 0.71394
 O358 O 0.32800 0.77910 0.75050
 O359 O 0.28642 0.68056 0.74953
 O360 O 0.24843 0.67248 0.77971
 O361 O 0.25065 0.68097 0.71313
 O362 O 0.21957 0.67309 0.75145
 O363 O 0.31873 0.71271 0.74842
 O364 O 0.32370 0.74967 0.78354
 O365 O 0.28743 0.74903 0.68152
 O366 O 0.25030 0.77997 0.67288
 O367 O 0.25033 0.78750 0.81984
 O368 O 0.27990 0.74974 0.82738
 O369 O 0.18044 0.74984 0.78782
 O370 O 0.17443 0.71837 0.75026
 O371 O 0.21225 0.81947 0.74973
 O372 O 0.24977 0.82691 0.72016
 Zr373 Zr 0.24864 0.79812 0.75123
 O374 O 0.27388 0.77510 0.72654
 Zr375 Zr 0.20170 0.75091 0.75132
 O376 O 0.22474 0.72612 0.72598
 Zr377 Zr 0.24897 0.75113 0.79840
 O378 O 0.27386 0.72589 0.77540
 Zr379 Zr 0.25076 0.74944 0.70250
 O380 O 0.22509 0.77457 0.72520
 Zr381 Zr 0.29767 0.74932 0.74988
 O382 O 0.27480 0.77492 0.77492
 Zr383 Zr 0.25031 0.70229 0.74957
 O384 O 0.22520 0.72515 0.77510
 O385 O 0.22387 0.77589 0.77621
 O386 O 0.27561 0.72426 0.72468
 C387 C 0.25074 0.81201 0.81203
 C388 C 0.18776 0.81162 0.74876
 C389 C 0.18824 0.74916 0.81235
 C390 C 0.25091 0.68873 0.68861
 C391 C 0.31196 0.74931 0.68937
 C392 C 0.31095 0.68821 0.74882
 H393 H 0.28502 0.78728 0.71563
 H394 H 0.28512 0.71496 0.78752
 H395 H 0.21238 0.78739 0.78759
 H396 H 0.21274 0.71522 0.71457
 H397 H 0.20603 0.76116 0.67924
 H398 H 0.17625 0.74217 0.70691
 H399 H 0.34113 0.74166 0.77831
 H400 H 0.29353 0.76306 0.82186
 H401 H 0.26439 0.79318 0.67730
 H402 H 0.23721 0.82059 0.70613
 H403 H 0.26235 0.67666 0.79321
 H404 H 0.23786 0.70620 0.82129
 H405 H 0.29328 0.82149 0.76265
 H406 H 0.32236 0.79382 0.73850
 H407 H 0.17973 0.70587 0.76474
 H408 H 0.20703 0.67646 0.73646
 O409 O 0.24979 0.31964 0.71303
 O410 O 0.22075 0.32753 0.75034
 O411 O 0.31965 0.28683 0.75134
 O412 O 0.32950 0.25205 0.77743
 O413 O 0.28685 0.24955 0.68030
 O414 O 0.24961 0.22051 0.67261
 O415 O 0.24873 0.21311 0.81938
 O416 O 0.27986 0.24805 0.82695
 O417 O 0.18013 0.24957 0.78643
 O418 O 0.17179 0.27912 0.74993
 O419 O 0.21325 0.18054 0.75074
 O420 O 0.25118 0.17240 0.72051
 O421 O 0.24901 0.18086 0.78707
 O422 O 0.28009 0.17297 0.74872
 O423 O 0.18099 0.21274 0.75194
 O424 O 0.17600 0.24967 0.71686
 O425 O 0.21236 0.24890 0.81883
 O426 O 0.24951 0.27979 0.82755
 O427 O 0.24938 0.28744 0.68063
 O428 O 0.21975 0.24973 0.67302
 O429 O 0.31922 0.24968 0.71253
 O430 O 0.32524 0.21816 0.75002
 O431 O 0.28752 0.31930 0.75077
 O432 O 0.25005 0.32679 0.78035
 Zr433 Zr 0.25113 0.29801 0.74924
 O434 O 0.22589 0.27501 0.77390
 Zr435 Zr 0.29801 0.25073 0.74903
 O436 O 0.27497 0.22595 0.77434
 Zr437 Zr 0.25071 0.25107 0.70198
 O438 O 0.22582 0.22584 0.72494
 Zr439 Zr 0.24901 0.24930 0.79786
 O440 O 0.27468 0.27442 0.77521
 Zr441 Zr 0.20207 0.24929 0.75050
 O442 O 0.22493 0.27489 0.72550
 Zr443 Zr 0.24938 0.20220 0.75069
 O444 O 0.27447 0.22504 0.72519
 O445 O 0.27586 0.27576 0.72421
 O446 O 0.22412 0.22419 0.77564
 C447 C 0.24900 0.31194 0.68848
 C448 C 0.31199 0.31140 0.75172
 C449 C 0.31139 0.24902 0.68802
 C450 C 0.24878 0.18860 0.81161
 C451 C 0.18784 0.24923 0.81097
 C452 C 0.18875 0.18823 0.75150
 H453 H 0.21477 0.28719 0.78484
 H454 H 0.21454 0.21493 0.71280
 H455 H 0.28735 0.28727 0.71285
 H456 H 0.28697 0.21503 0.78572
 H457 H 0.29375 0.26097 0.82112
 H458 H 0.32350 0.24197 0.79340
 H459 H 0.15856 0.24169 0.72211
 H460 H 0.20616 0.26308 0.67856
 H461 H 0.23543 0.29303 0.82318
 H462 H 0.26259 0.32044 0.79437
 H463 H 0.23726 0.17660 0.70703
 H464 H 0.26171 0.20614 0.67898
 H465 H 0.20652 0.32146 0.73789
 H466 H 0.17741 0.29380 0.76200
 H467 H 0.31993 0.20570 0.73551
 H468 H 0.29261 0.17628 0.76375
 O469 O 0.75058 0.68054 0.71334
 O470 O 0.77972 0.67267 0.75061
 O471 O 0.68070 0.71308 0.75178
 O472 O 0.67074 0.74778 0.77794
 O473 O 0.71329 0.75059 0.68083
 O474 O 0.75045 0.77976 0.67324
 O475 O 0.75147 0.78685 0.82008
 O476 O 0.72047 0.75180 0.82752
 O477 O 0.82016 0.75068 0.78699
 O478 O 0.82856 0.72127 0.75043
 O479 O 0.78675 0.81970 0.75150
 O480 O 0.74879 0.82781 0.72137
 O481 O 0.75104 0.81918 0.78788
 O482 O 0.71986 0.82701 0.74953
 O483 O 0.81912 0.78760 0.75259
 O484 O 0.82417 0.75071 0.71740
 O485 O 0.78797 0.75117 0.81940
 O486 O 0.75090 0.72013 0.82799
 O487 O 0.75087 0.71281 0.68103
 O488 O 0.78041 0.75064 0.67358
 O489 O 0.68096 0.75030 0.71306
 O490 O 0.67492 0.78175 0.75068
 O491 O 0.71291 0.68070 0.75110
 O492 O 0.75045 0.67325 0.78064
 Zr493 Zr 0.74925 0.70210 0.74962
 O494 O 0.77445 0.72512 0.77436
 Zr495 Zr 0.70222 0.74924 0.74957
 O496 O 0.72521 0.77402 0.77498
 Zr497 Zr 0.74947 0.74914 0.70251
 O498 O 0.77429 0.77440 0.72557
 Zr499 Zr 0.75128 0.75070 0.79842
 O500 O 0.72566 0.72557 0.77567
 Zr501 Zr 0.79816 0.75097 0.75106
 O502 O 0.77535 0.72535 0.72597
 Zr503 Zr 0.75070 0.79791 0.75142
 O504 O 0.72566 0.77506 0.72582
 O505 O 0.72442 0.72432 0.72466
 O506 O 0.77606 0.77596 0.77629
 C507 C 0.75131 0.68828 0.68880
 C508 C 0.68842 0.68853 0.75209
 C509 C 0.68876 0.75103 0.68854
 C510 C 0.75133 0.81139 0.81239
 C511 C 0.81248 0.75093 0.81155
 C512 C 0.81127 0.81208 0.75221
 H513 H 0.78561 0.71295 0.78526
 H514 H 0.78552 0.78537 0.71347
 H515 H 0.71294 0.71281 0.71327
 H516 H 0.71319 0.78488 0.78640
 H517 H 0.70659 0.73886 0.82164
 H518 H 0.67675 0.75779 0.79397
 H519 H 0.84158 0.75878 0.72265
 H520 H 0.79402 0.73727 0.67905
 H521 H 0.76504 0.70697 0.82360
 H522 H 0.73792 0.67954 0.79469
 H523 H 0.76262 0.82362 0.70781
 H524 H 0.73830 0.79408 0.67966
 H525 H 0.79390 0.67880 0.73815
 H526 H 0.82293 0.70649 0.76234
 H527 H 0.68014 0.79423 0.73616
 H528 H 0.70741 0.82368 0.76459
 O529 O 0.24968 0.68041 0.28675
 O530 O 0.22069 0.67244 0.24940
 O531 O 0.31959 0.71313 0.24856
 O532 O 0.32951 0.74788 0.22246
 O533 O 0.28671 0.75053 0.31946
 O534 O 0.24945 0.77963 0.32698
 O535 O 0.24879 0.78671 0.18019
 O536 O 0.27990 0.75177 0.17276
 O537 O 0.18012 0.75036 0.21302
 O538 O 0.17174 0.72085 0.24955
 O539 O 0.21321 0.81944 0.24871
 O540 O 0.25109 0.82764 0.27897
 O541 O 0.24902 0.81903 0.21243
 O542 O 0.28005 0.82699 0.25084
 O543 O 0.18094 0.78724 0.24748
 O544 O 0.17589 0.75036 0.28258
 O545 O 0.21240 0.75094 0.18070
 O546 O 0.24959 0.71999 0.17218
 O547 O 0.24922 0.71267 0.31910
 O548 O 0.21959 0.75040 0.32657
 O549 O 0.31913 0.75035 0.28732
 O550 O 0.32518 0.78182 0.24977
 O551 O 0.28746 0.68067 0.24910
 O552 O 0.25003 0.67312 0.21945
 Zr553 Zr 0.25107 0.70197 0.25051
 O554 O 0.22586 0.72492 0.22573
 Zr555 Zr 0.29796 0.74924 0.25076
 O556 O 0.27496 0.77396 0.22533
 Zr557 Zr 0.25059 0.74900 0.29768
 O558 O 0.22574 0.77418 0.27460
 Zr559 Zr 0.24903 0.75057 0.20178
 O560 O 0.27467 0.72551 0.22457
 Zr561 Zr 0.20202 0.75068 0.24901
 O562 O 0.22484 0.72514 0.27413
 Zr563 Zr 0.24933 0.79776 0.24886
 O564 O 0.27439 0.77499 0.27448
 O565 O 0.27577 0.72426 0.27557
 O566 O 0.22411 0.77574 0.22389
 C567 C 0.24885 0.68815 0.31129
 C568 C 0.31194 0.68857 0.24819
 C569 C 0.31126 0.75104 0.31182
 C570 C 0.24882 0.81124 0.18791
 C571 C 0.18787 0.75065 0.18848
 C572 C 0.18871 0.81174 0.24792
 H573 H 0.21476 0.71271 0.21478
 H574 H 0.21444 0.78511 0.28668
 H575 H 0.28724 0.71277 0.28698
 H576 H 0.28698 0.78486 0.21396
 H577 H 0.29381 0.73888 0.17866
 H578 H 0.32352 0.75790 0.20644
 H579 H 0.15845 0.75832 0.27727
 H580 H 0.20599 0.73706 0.32100
 H581 H 0.23544 0.70682 0.17649
 H582 H 0.26258 0.67945 0.20544
 H583 H 0.23719 0.82343 0.29246
 H584 H 0.26161 0.79396 0.32063
 H585 H 0.20643 0.67856 0.26178
 H586 H 0.17736 0.70616 0.23750
 H587 H 0.31987 0.79429 0.26427
 H588 H 0.29259 0.82366 0.23585
 O589 O 0.75025 0.31919 0.28676
 O590 O 0.77927 0.32698 0.24940
 O591 O 0.68027 0.28651 0.24857
 O592 O 0.67027 0.25175 0.22248
 O593 O 0.71314 0.24917 0.31951
 O594 O 0.75034 0.22008 0.32712
 O595 O 0.75087 0.21258 0.18030
 O596 O 0.71978 0.24760 0.17286
 O597 O 0.81961 0.24893 0.21314
 O598 O 0.82816 0.27839 0.24958
 O599 O 0.78640 0.17996 0.24888
 O600 O 0.74852 0.17191 0.27914
 O601 O 0.75058 0.18034 0.21258
 O602 O 0.71954 0.17257 0.25101
 O603 O 0.81874 0.21208 0.24763
 O604 O 0.82386 0.24908 0.28272
 O605 O 0.78731 0.24832 0.18081
 O606 O 0.75022 0.27926 0.17218
 O607 O 0.75066 0.28700 0.31915
 O608 O 0.78028 0.24922 0.32663
 O609 O 0.68070 0.24936 0.28735
 O610 O 0.67452 0.21785 0.24985
 O611 O 0.71246 0.31890 0.24909
 O612 O 0.74990 0.32631 0.21945
 Zr613 Zr 0.74882 0.29753 0.25054
 O614 O 0.77394 0.27446 0.22580
 Zr615 Zr 0.70183 0.25036 0.25080
 O616 O 0.72474 0.22551 0.22542
 Zr617 Zr 0.74924 0.25062 0.29776
 O618 O 0.77400 0.22530 0.27472
 Zr619 Zr 0.75071 0.24879 0.20186
 O620 O 0.72515 0.27399 0.22460
 Zr621 Zr 0.79775 0.24869 0.24912
 O622 O 0.77502 0.27437 0.27419
 Zr623 Zr 0.75033 0.20171 0.24899
 O624 O 0.72536 0.22463 0.27457
 O625 O 0.72409 0.27535 0.27560
 O626 O 0.77559 0.22362 0.22401
 C627 C 0.75106 0.31151 0.31132
 C628 C 0.68797 0.31106 0.24818
 C629 C 0.68858 0.24869 0.31185
 C630 C 0.75080 0.18807 0.18805
 C631 C 0.81185 0.24861 0.18861
 C632 C 0.81092 0.18760 0.24809
 H633 H 0.78506 0.28661 0.21484
 H634 H 0.78528 0.21438 0.28682
 H635 H 0.71264 0.28689 0.28699
 H636 H 0.71269 0.21462 0.21406
 H637 H 0.70594 0.26058 0.17872
 H638 H 0.67621 0.24164 0.20649
 H639 H 0.84125 0.24098 0.27748
 H640 H 0.79384 0.26260 0.32111
 H641 H 0.76429 0.29250 0.17657
 H642 H 0.73732 0.31998 0.20545
 H643 H 0.76245 0.17610 0.29262
 H644 H 0.73820 0.20572 0.32076
 H645 H 0.79348 0.32091 0.26187
 H646 H 0.82244 0.29318 0.23771
 H647 H 0.67984 0.20538 0.26434
 H648 H 0.70702 0.17587 0.23598
 C649 C 0.22975 0.10803 0.12743
 C650 C 0.22857 0.11337 0.09686
 C651 C 0.25083 0.09250 0.09272
 C652 C 0.25201 0.08684 0.12297
 C653 C 0.25145 0.12974 0.13006
 C654 C 0.27371 0.10887 0.12592
 C655 C 0.25026 0.13540 0.09980
 C656 C 0.27252 0.11421 0.09534
 C657 C 0.25050 0.07177 0.07191
 C658 C 0.25030 0.05472 0.05480
 C659 C 0.25162 0.15050 0.15083
 C660 C 0.25150 0.16759 0.16791
 H661 H 0.21217 0.10572 0.14087
 H662 H 0.21001 0.11499 0.08469
 H663 H 0.25271 0.06663 0.13227
 H664 H 0.29227 0.10726 0.13810
 H665 H 0.24955 0.15561 0.09051
 H666 H 0.29010 0.11652 0.08190
 C667 C 0.73697 0.63265 0.60372
 C668 C 0.76206 0.62149 0.58922
 C669 C 0.75124 0.59293 0.59323
 C670 C 0.72615 0.60377 0.60741
 C671 C 0.75184 0.63015 0.63059
 C672 C 0.74102 0.60160 0.63460
 C673 C 0.77693 0.61932 0.61641
 C674 C 0.76611 0.59044 0.62010
 C675 C 0.75092 0.57221 0.57242
 C676 C 0.75072 0.55517 0.55530
 C677 C 0.75200 0.65089 0.65139
 C678 C 0.75187 0.66796 0.66848
 H679 H 0.72499 0.65024 0.59722
 H680 H 0.77070 0.62944 0.57032
 H681 H 0.70527 0.59716 0.60348
 H682 H 0.73238 0.59365 0.65351
 H683 H 0.79781 0.62594 0.62035
 H684 H 0.77808 0.57284 0.62660
 C685 C 0.77256 0.87683 0.11214
 C686 C 0.75341 0.87803 0.08771
 C687 C 0.74902 0.90804 0.09308
 C688 C 0.76818 0.90716 0.11720
 C689 C 0.74846 0.87068 0.13029
 C690 C 0.74407 0.90069 0.13567
 C691 C 0.72930 0.87155 0.10618
 C692 C 0.72492 0.90189 0.11124
 C693 C 0.74933 0.92884 0.07234
 C694 C 0.74953 0.94593 0.05526
 C695 C 0.74831 0.84985 0.15101
 C696 C 0.74845 0.83272 0.16804
 H697 H 0.79215 0.86629 0.11274
 H698 H 0.75726 0.86893 0.06776
 H699 H 0.78418 0.92202 0.12151
 H700 H 0.74022 0.90978 0.15563
 H701 H 0.71331 0.85668 0.10187
 H702 H 0.70533 0.91243 0.11064
 C703 C 0.24996 0.36445 0.60022
 C704 C 0.22755 0.38544 0.59556
 C705 C 0.24907 0.40733 0.59316
 C706 C 0.27148 0.38666 0.59749
 C707 C 0.24848 0.37012 0.63046
 C708 C 0.27001 0.39201 0.62805
 C709 C 0.22607 0.39078 0.62613
 C710 C 0.24760 0.41300 0.62340
 C711 C 0.24939 0.42804 0.57239
 C712 C 0.24957 0.44507 0.55528
 C713 C 0.24832 0.34938 0.65120
 C714 C 0.24845 0.33230 0.66824
 H715 H 0.25092 0.34424 0.59093
 H716 H 0.21011 0.38297 0.58196
 H717 H 0.29016 0.38521 0.58548
 H718 H 0.28745 0.39447 0.64166
 H719 H 0.20740 0.39223 0.63815
 H720 H 0.24664 0.43321 0.63269
 C721 C 0.74624 0.13564 0.90042
 C722 C 0.72588 0.11229 0.90268
 C723 C 0.74926 0.09285 0.90762
 C724 C 0.76962 0.11588 0.90568
 C725 C 0.74875 0.13003 0.87023
 C726 C 0.77212 0.11059 0.87517
 C727 C 0.72838 0.10700 0.87216
 C728 C 0.75176 0.08724 0.87743
 C729 C 0.74953 0.07215 0.92846
 C730 C 0.74969 0.05512 0.94560
 C731 C 0.74862 0.15075 0.84941
 C732 C 0.74877 0.16782 0.83232
 H733 H 0.74396 0.15577 0.90964
 H734 H 0.70687 0.11277 0.91422
 H735 H 0.78658 0.11930 0.91969
 H736 H 0.79113 0.11011 0.86363
 H737 H 0.71142 0.10358 0.85815
 H738 H 0.75405 0.06712 0.86821
 C739 C 0.24585 0.63566 0.39959
 C740 C 0.22553 0.61227 0.40184
 C741 C 0.24896 0.59289 0.40674
 C742 C 0.26927 0.61595 0.40481
 C743 C 0.24833 0.63006 0.36940
 C744 C 0.27176 0.61068 0.37430
 C745 C 0.22802 0.60701 0.37132
 C746 C 0.25145 0.58730 0.37655
 C747 C 0.24929 0.57220 0.42753
 C748 C 0.24950 0.55518 0.44464
 C749 C 0.24816 0.65078 0.34863
 C750 C 0.24829 0.66784 0.33157
 H751 H 0.24353 0.65578 0.40882
 H752 H 0.20654 0.61269 0.41341
 H753 H 0.28623 0.61938 0.41881
 H754 H 0.29076 0.61026 0.36273
 H755 H 0.21106 0.60358 0.35732
 H756 H 0.25376 0.56717 0.36732
 C757 C 0.24697 0.90028 0.86464
 C758 C 0.22714 0.90144 0.88850
 C759 C 0.25071 0.90762 0.90735
 C760 C 0.27054 0.90679 0.88381
 C761 C 0.25128 0.87028 0.87011
 C762 C 0.27485 0.87646 0.88895
 C763 C 0.23144 0.87112 0.89365
 C764 C 0.25501 0.87762 0.91282
 C765 C 0.25041 0.92840 0.92810
 C766 C 0.25024 0.94549 0.94519
 C767 C 0.25143 0.84948 0.84937
 C768 C 0.25130 0.83237 0.83232
 H769 H 0.24368 0.90936 0.84459
 H770 H 0.20752 0.91193 0.88855
 H771 H 0.28661 0.92169 0.87999
 H772 H 0.29447 0.86596 0.88890
 H773 H 0.21537 0.85621 0.89746
 H774 H 0.25830 0.86853 0.93287
 C775 C 0.74738 0.39977 0.36397
 C776 C 0.72756 0.40089 0.38785
 C777 C 0.75114 0.40705 0.40670
 C778 C 0.77096 0.40625 0.38314
 C779 C 0.75169 0.36977 0.36940
 C780 C 0.77527 0.37591 0.38824
 C781 C 0.73187 0.37057 0.39295
 C782 C 0.75545 0.37704 0.41212
 C783 C 0.75084 0.42780 0.42748
 C784 C 0.75067 0.44486 0.44458
 C785 C 0.75182 0.34899 0.34864
 C786 C 0.75166 0.33188 0.33158
 H787 H 0.74407 0.40888 0.34394
 H788 H 0.70794 0.41139 0.38793
 H789 H 0.78703 0.42116 0.37934
 H790 H 0.79489 0.36541 0.38816
 H791 H 0.71580 0.35565 0.39676
 H792 H 0.75875 0.36792 0.43215
 C793 C 0.10012 0.25128 0.13523
 C794 C 0.09630 0.27310 0.11346
 C795 C 0.09302 0.25092 0.09232
 C796 C 0.09652 0.22911 0.11377
 C797 C 0.13038 0.25140 0.12954
 C798 C 0.12710 0.22923 0.10840
 C799 C 0.12689 0.27322 0.10809
 C800 C 0.12328 0.25104 0.08663
 C801 C 0.07220 0.25067 0.07161
 C802 C 0.05506 0.25052 0.05458
 C803 C 0.15116 0.25151 0.15029
 C804 C 0.16822 0.25136 0.16739
 H805 H 0.09083 0.25139 0.15546
 H806 H 0.08339 0.29113 0.11531
 H807 H 0.08380 0.21097 0.11587
 H808 H 0.14000 0.21119 0.10655
 H809 H 0.13961 0.29135 0.10600
 H810 H 0.13258 0.25092 0.06641
 C811 C 0.63402 0.73897 0.60243
 C812 C 0.60600 0.72593 0.60533
 C813 C 0.59336 0.75117 0.59303
 C814 C 0.62106 0.76422 0.58980
 C815 C 0.63066 0.75163 0.63031
 C816 C 0.61802 0.77688 0.61802
 C817 C 0.60295 0.73858 0.63354
 C818 C 0.58999 0.76383 0.62092
 C819 C 0.57257 0.75092 0.57229
 C820 C 0.55546 0.75077 0.55524
 C821 C 0.65141 0.75174 0.65109
 C822 C 0.66847 0.75159 0.66819
 H823 H 0.65237 0.72876 0.59506
 H824 H 0.60082 0.70498 0.59989
 H825 H 0.62828 0.77475 0.57158
 H826 H 0.62320 0.79783 0.62347
 H827 H 0.59574 0.72805 0.65176
 H828 H 0.57164 0.77404 0.62829
 C829 C 0.13544 0.75048 0.90071
 C830 C 0.11285 0.77166 0.90307
 C831 C 0.09251 0.74897 0.90754
 C832 C 0.11478 0.72779 0.90550
 C833 C 0.12999 0.74853 0.87044
 C834 C 0.10965 0.72585 0.87491
 C835 C 0.10772 0.76972 0.87249
 C836 C 0.08706 0.74703 0.87728
 C837 C 0.07163 0.74921 0.92819
 C838 C 0.05445 0.74936 0.94518
 C839 C 0.15083 0.74844 0.84975
 C840 C 0.16794 0.74860 0.83269
 H841 H 0.15556 0.75188 0.91012
 H842 H 0.11394 0.79051 0.91486
 H843 H 0.11745 0.71054 0.91931
 H844 H 0.10857 0.70700 0.86311
 H845 H 0.10504 0.78696 0.85868
 H846 H 0.06694 0.74563 0.86786
 C847 C 0.63627 0.25017 0.40033
 C848 C 0.61370 0.27137 0.40275
 C849 C 0.59340 0.24869 0.40736
 C850 C 0.61564 0.22749 0.40527
 C851 C 0.63065 0.24816 0.37011
 C852 C 0.61034 0.22548 0.37472
 C853 C 0.60841 0.26936 0.37220
 C854 C 0.58778 0.24668 0.37714
 C855 C 0.57264 0.24897 0.42808
 C856 C 0.55553 0.24915 0.44511
 C857 C 0.65136 0.24803 0.34934
 C858 C 0.66838 0.24816 0.33223
 H859 H 0.65645 0.25159 0.40962
 H860 H 0.61484 0.29023 0.41451
 H861 H 0.61837 0.21028 0.41911
 H862 H 0.60921 0.20662 0.36295
 H863 H 0.60567 0.28657 0.35837
 H864 H 0.56760 0.24526 0.36785
 C865 C 0.89759 0.73671 0.13266
 C866 C 0.89495 0.72360 0.10461
 C867 C 0.90668 0.74912 0.09197
 C868 C 0.90964 0.76223 0.11970
 C869 C 0.86943 0.74873 0.12928
 C870 C 0.88117 0.77424 0.11665
 C871 C 0.86647 0.73562 0.10156
 C872 C 0.87853 0.76113 0.08860
 C873 C 0.92746 0.74933 0.07121
 C874 C 0.94457 0.74946 0.05415
 C875 C 0.84870 0.74866 0.15009
 C876 C 0.83168 0.74883 0.16723
 H877 H 0.90520 0.72666 0.15100
 H878 H 0.90085 0.70278 0.09943
 H879 H 0.92762 0.77318 0.12693
 H880 H 0.87527 0.79507 0.12183
 H881 H 0.84849 0.72467 0.09433
 H882 H 0.87091 0.77118 0.07026
 C883 C 0.39756 0.23625 0.63330
 C884 C 0.39495 0.22328 0.60518
 C885 C 0.40679 0.24883 0.59272
 C886 C 0.40972 0.26179 0.62051
 C887 C 0.36946 0.24837 0.62989
 C888 C 0.38130 0.27391 0.61743
 C889 C 0.36652 0.23541 0.60210
 C890 C 0.37869 0.26095 0.58932
 C891 C 0.42759 0.24908 0.57204
 C892 C 0.44472 0.24923 0.55504
 C893 C 0.34870 0.24827 0.65061
 C894 C 0.33164 0.24844 0.66768
 H895 H 0.40507 0.22609 0.65162
 H896 H 0.40081 0.20247 0.59990
 H897 H 0.42772 0.27265 0.62784
 H898 H 0.37544 0.29473 0.62271
 H899 H 0.34852 0.22455 0.59478
 H900 H 0.37118 0.27112 0.57100
 C901 C 0.88995 0.27446 0.87551
 C902 C 0.88476 0.27201 0.90604
 C903 C 0.90727 0.25107 0.90784
 C904 C 0.91279 0.25352 0.87764
 C905 C 0.86992 0.25158 0.87061
 C906 C 0.89244 0.23065 0.87242
 C907 C 0.86440 0.24913 0.90081
 C908 C 0.88724 0.22820 0.90294
 C909 C 0.92809 0.25080 0.92856
 C910 C 0.94522 0.25063 0.94559
 C911 C 0.84915 0.25171 0.84986
 C912 C 0.83208 0.25156 0.83276
 H913 H 0.89083 0.29348 0.86401
 H914 H 0.88183 0.28901 0.92011
 H915 H 0.93293 0.25531 0.86834
 H916 H 0.89537 0.21364 0.85835
 H917 H 0.84427 0.24734 0.91011
 H918 H 0.88636 0.20917 0.91444
 C919 C 0.39852 0.76029 0.36560
 C920 C 0.39751 0.77641 0.39215
 C921 C 0.40662 0.75124 0.40737
 C922 C 0.40796 0.73512 0.38115
 C923 C 0.36930 0.75170 0.37011
 C924 C 0.37842 0.72653 0.38534
 C925 C 0.36796 0.76782 0.39633
 C926 C 0.37740 0.74264 0.41188
 C927 C 0.42743 0.75098 0.42810
 C928 C 0.44456 0.75082 0.44513
 C929 C 0.34854 0.75180 0.34934
 C930 C 0.33150 0.75163 0.33222
 H931 H 0.40697 0.76755 0.34634
 H932 H 0.40560 0.79692 0.39518
 H933 H 0.42463 0.72166 0.37514
 H934 H 0.37033 0.70602 0.38230
 H935 H 0.35128 0.78127 0.40234
 H936 H 0.36895 0.73538 0.43114
 C937 C 0.10364 0.13193 0.23536
 C938 C 0.10794 0.10258 0.22614
 C939 C 0.09241 0.09290 0.25090
 C940 C 0.08779 0.12193 0.26013
 C941 C 0.12965 0.13024 0.25179
 C942 C 0.11413 0.12056 0.27655
 C943 C 0.13427 0.10121 0.24256
 C944 C 0.11843 0.09121 0.26733
 C945 C 0.07168 0.07208 0.25044
 C946 C 0.05464 0.05494 0.25017
 C947 C 0.15042 0.15101 0.25207
 C948 C 0.16753 0.16807 0.25197
 H949 H 0.09778 0.14890 0.22223
 H950 H 0.10517 0.09497 0.20540
 H951 H 0.06844 0.13023 0.26733
 H952 H 0.11690 0.12818 0.29729
 H953 H 0.15362 0.09291 0.23535
 H954 H 0.12429 0.07423 0.28046
 C955 C 0.60424 0.63227 0.73607
 C956 C 0.60851 0.60291 0.72688
 C957 C 0.59291 0.59330 0.75162
 C958 C 0.58832 0.62233 0.76081
 C959 C 0.63020 0.63052 0.75256
 C960 C 0.61461 0.62091 0.77730
 C961 C 0.63479 0.60148 0.74336
 C962 C 0.61887 0.59155 0.76810
 C963 C 0.57216 0.57255 0.75112
 C964 C 0.55511 0.55546 0.75081
 C965 C 0.65098 0.65124 0.75285
 C966 C 0.66808 0.66827 0.75275
 H967 H 0.59846 0.64926 0.72291
 H968 H 0.60576 0.59528 0.70614
 H969 H 0.56897 0.63067 0.76796
 H970 H 0.61736 0.62855 0.79803
 H971 H 0.65414 0.59315 0.73621
 H972 H 0.62466 0.57456 0.78126
 C973 C 0.88433 0.11889 0.72321
 C974 C 0.91177 0.12128 0.73760
 C975 C 0.90783 0.09298 0.74910
 C976 C 0.88072 0.09026 0.73471
 C977 C 0.87059 0.13033 0.74829
 C978 C 0.86666 0.10203 0.75979
 C979 C 0.89770 0.13305 0.76268
 C980 C 0.89408 0.10443 0.77418
 C981 C 0.92855 0.07216 0.74953
 C982 C 0.94559 0.05502 0.74977
 C983 C 0.84983 0.15111 0.74804
 C984 C 0.83273 0.16818 0.74816
 H985 H 0.88010 0.12506 0.70225
 H986 H 0.93055 0.12898 0.72850
 H987 H 0.87395 0.07244 0.72322
 H988 H 0.84788 0.09434 0.76890
 H989 H 0.90446 0.15087 0.77417
 H990 H 0.89831 0.09826 0.79514
 C991 C 0.38301 0.61818 0.22268
 C992 C 0.41094 0.62112 0.23598
 C993 C 0.40742 0.59331 0.24871
 C994 C 0.37982 0.59003 0.23542
 C995 C 0.37019 0.63059 0.24777
 C996 C 0.36667 0.60278 0.26051
 C997 C 0.39778 0.63386 0.26107
 C998 C 0.39459 0.60573 0.27380
 C999 C 0.42813 0.57253 0.24921
 C1000 C 0.44515 0.55541 0.24950
 C1001 C 0.34943 0.65132 0.24747
 C1002 C 0.33232 0.66835 0.24756
 H1003 H 0.37802 0.62353 0.20166
 H1004 H 0.42938 0.62842 0.22591
 H1005 H 0.37267 0.57177 0.22490
 H1006 H 0.34823 0.59548 0.27058
 H1007 H 0.40493 0.65213 0.27160
 H1008 H 0.39958 0.60038 0.29482
 C1009 C 0.12516 0.89049 0.72586
 C1010 C 0.09458 0.88525 0.72744
 C1011 C 0.09231 0.90712 0.74903
 C1012 C 0.12256 0.91268 0.74745
 C1013 C 0.12952 0.86975 0.74820
 C1014 C 0.12724 0.89163 0.76979
 C1015 C 0.09927 0.86419 0.74979
 C1016 C 0.09668 0.88638 0.77138
 C1017 C 0.07160 0.92796 0.74947
 C1018 C 0.05458 0.94511 0.74974
 C1019 C 0.15027 0.84896 0.74796
 C1020 C 0.16738 0.83189 0.74809
 H1021 H 0.13709 0.89194 0.70713
 H1022 H 0.08092 0.88285 0.71003
 H1023 H 0.13192 0.93285 0.74651
 H1024 H 0.14091 0.89402 0.78720
 H1025 H 0.08992 0.84402 0.75073
 H1026 H 0.08475 0.88492 0.79010
 C1027 C 0.61722 0.38177 0.22264
 C1028 C 0.58921 0.37883 0.23573
 C1029 C 0.59274 0.40656 0.24868
 C1030 C 0.62041 0.40983 0.23559
 C1031 C 0.62987 0.36918 0.24773
 C1032 C 0.63339 0.39691 0.26068
 C1033 C 0.60219 0.36591 0.26082
 C1034 C 0.60539 0.39396 0.27377
 C1035 C 0.57208 0.42739 0.24918
 C1036 C 0.55509 0.44454 0.24947
 C1037 C 0.65057 0.34839 0.24743
 C1038 C 0.66763 0.33132 0.24753
 H1039 H 0.62232 0.37652 0.20162
 H1040 H 0.57080 0.37164 0.22549
 H1041 H 0.62767 0.42814 0.22524
 H1042 H 0.65180 0.40410 0.27092
 H1043 H 0.59493 0.34760 0.27118
 H1044 H 0.60030 0.39921 0.29479
 C1045 C 0.86782 0.89687 0.23727
 C1046 C 0.87945 0.91113 0.26231
 C1047 C 0.90780 0.90716 0.25097
 C1048 C 0.89649 0.89321 0.22593
 C1049 C 0.87051 0.86987 0.25185
 C1050 C 0.89887 0.86589 0.24050
 C1051 C 0.88182 0.88381 0.27689
 C1052 C 0.91050 0.88016 0.26554
 C1053 C 0.92856 0.92795 0.25050
 C1054 C 0.94561 0.94507 0.25023
 C1055 C 0.84972 0.84912 0.25213
 C1056 C 0.83259 0.83207 0.25202
 H1057 H 0.85003 0.90352 0.22566
 H1058 H 0.87168 0.92997 0.27127
 H1059 H 0.90274 0.89729 0.20496
 H1060 H 0.90663 0.84705 0.23154
 H1061 H 0.87556 0.87972 0.29785
 H1062 H 0.92828 0.87351 0.27715
 C1063 C 0.39493 0.36978 0.77070
 C1064 C 0.41262 0.37681 0.74617
 C1065 C 0.40743 0.40671 0.75145
 C1066 C 0.39007 0.40001 0.77598
 C1067 C 0.37023 0.36939 0.75231
 C1068 C 0.36504 0.39928 0.75759
 C1069 C 0.38759 0.37609 0.72778
 C1070 C 0.38272 0.40631 0.73306
 C1071 C 0.42812 0.42750 0.75098
 C1072 C 0.44513 0.44463 0.75071
 C1073 C 0.34948 0.34864 0.75257
 C1074 C 0.33238 0.33161 0.75243
 H1075 H 0.39971 0.35453 0.78619
 H1076 H 0.43242 0.36781 0.74145
 H1077 H 0.39133 0.41008 0.79579
 H1078 H 0.34524 0.40828 0.76230
 H1079 H 0.38633 0.36602 0.70797
 H1080 H 0.37794 0.42155 0.71757
 C1081 C 0.09939 0.24788 0.86340
 C1082 C 0.09669 0.22697 0.88621
 C1083 C 0.09237 0.24995 0.90627
 C1084 C 0.09474 0.27085 0.88379
 C1085 C 0.12963 0.24953 0.86900
 C1086 C 0.12530 0.27250 0.88907
 C1087 C 0.12725 0.22862 0.89148
 C1088 C 0.12261 0.25160 0.91187
 C1089 C 0.07164 0.25018 0.92704
 C1090 C 0.05460 0.25030 0.94414
 C1091 C 0.15039 0.24934 0.84827
 C1092 C 0.16748 0.24926 0.83123
 H1093 H 0.09008 0.24634 0.84323
 H1094 H 0.08469 0.20826 0.88527
 H1095 H 0.08114 0.28822 0.88086
 H1096 H 0.13730 0.29122 0.89000
 H1097 H 0.14086 0.21126 0.89441
 H1098 H 0.13192 0.25314 0.93203
 C1099 C 0.63570 0.75122 0.39954
 C1100 C 0.61337 0.77263 0.40233
 C1101 C 0.59281 0.75011 0.40668
 C1102 C 0.61483 0.72870 0.40421
 C1103 C 0.63001 0.74973 0.36929
 C1104 C 0.60946 0.72720 0.37364
 C1105 C 0.60799 0.77112 0.37177
 C1106 C 0.58712 0.74861 0.37643
 C1107 C 0.57210 0.75032 0.42752
 C1108 C 0.55507 0.75044 0.44467
 C1109 C 0.65075 0.74957 0.34848
 C1110 C 0.66782 0.74950 0.33137
 H1111 H 0.65591 0.75229 0.40882
 H1112 H 0.61476 0.79131 0.41435
 H1113 H 0.61742 0.71126 0.41777
 H1114 H 0.60808 0.70852 0.36161
 H1115 H 0.60540 0.78857 0.35820
 H1116 H 0.56692 0.74753 0.36715
 C1117 C 0.90007 0.75919 0.86505
 C1118 C 0.89909 0.77538 0.89155
 C1119 C 0.90817 0.75023 0.90684
 C1120 C 0.90947 0.73404 0.88066
 C1121 C 0.87083 0.75066 0.86959
 C1122 C 0.87990 0.72551 0.88487
 C1123 C 0.86953 0.76685 0.89577
 C1124 C 0.87893 0.74170 0.91137
 C1125 C 0.92895 0.75000 0.92761
 C1126 C 0.94602 0.74985 0.94472
 C1127 C 0.85001 0.75084 0.84885
 C1128 C 0.83288 0.75092 0.83181
 H1129 H 0.90852 0.76639 0.84577
 H1130 H 0.90721 0.79589 0.89453
 H1131 H 0.92612 0.72055 0.87468
 H1132 H 0.87178 0.70501 0.88190
 H1133 H 0.85288 0.78035 0.90174
 H1134 H 0.87047 0.73451 0.93065
 C1135 C 0.36462 0.24731 0.39926
 C1136 C 0.38785 0.22679 0.40114
 C1137 C 0.40742 0.24996 0.40654
 C1138 C 0.38450 0.27048 0.40499
 C1139 C 0.37023 0.25038 0.36913
 C1140 C 0.38979 0.27356 0.37453
 C1141 C 0.39314 0.22986 0.37068
 C1142 C 0.41303 0.25303 0.37641
 C1143 C 0.42811 0.24972 0.42739
 C1144 C 0.44513 0.24958 0.44455
 C1145 C 0.34949 0.25057 0.34832
 C1146 C 0.33241 0.25065 0.33123
 H1147 H 0.34448 0.24497 0.40843
 H1148 H 0.38728 0.20755 0.41230
 H1149 H 0.38118 0.28718 0.41932
 H1150 H 0.39035 0.29279 0.36336
 H1151 H 0.39647 0.21316 0.35634
 H1152 H 0.43316 0.25538 0.36724
 C1153 C 0.13332 0.73786 0.10226
 C1154 C 0.10529 0.72475 0.10497
 C1155 C 0.09267 0.75002 0.09270
 C1156 C 0.12038 0.76313 0.08967
 C1157 C 0.12979 0.75039 0.13018
 C1158 C 0.11717 0.77567 0.11791
 C1159 C 0.10208 0.73729 0.13321
 C1160 C 0.08914 0.76256 0.12062
 C1161 C 0.07201 0.74982 0.07182
 C1162 C 0.05501 0.74971 0.05463
 C1163 C 0.15049 0.75055 0.15103
 C1164 C 0.16754 0.75062 0.16815
 H1165 H 0.15171 0.72770 0.09493
 H1166 H 0.10018 0.70381 0.09942
 H1167 H 0.12767 0.77374 0.07153
 H1168 H 0.12229 0.79660 0.12347
 H1169 H 0.09479 0.72668 0.15136
 H1170 H 0.07075 0.77272 0.12795
 C1171 C 0.62445 0.22662 0.61229
 C1172 C 0.59403 0.23031 0.61729
 C1173 C 0.59288 0.24998 0.59362
 C1174 C 0.62298 0.24628 0.58830
 C1175 C 0.63007 0.25043 0.63102
 C1176 C 0.62892 0.27009 0.60735
 C1177 C 0.59997 0.25413 0.63634
 C1178 C 0.59850 0.27379 0.61235
 C1179 C 0.57218 0.24973 0.57277
 C1180 C 0.55516 0.24959 0.55561
 C1181 C 0.65081 0.25062 0.65183
 C1182 C 0.66789 0.25072 0.66892
 H1183 H 0.63536 0.20722 0.61250
 H1184 H 0.57945 0.21395 0.62115
 H1185 H 0.63222 0.24304 0.56831
 H1186 H 0.64350 0.28645 0.60350
 H1187 H 0.59073 0.25737 0.65633
 H1188 H 0.58759 0.29319 0.61214
 C1189 C 0.89695 0.23446 0.13253
 C1190 C 0.89323 0.22405 0.10349
 C1191 C 0.90700 0.24952 0.09300
 C1192 C 0.91104 0.25993 0.12171
 C1193 C 0.86988 0.24897 0.13040
 C1194 C 0.88365 0.27444 0.11991
 C1195 C 0.86583 0.23857 0.10169
 C1196 C 0.87992 0.26404 0.09087
 C1197 C 0.92765 0.24983 0.07216
 C1198 C 0.94464 0.25002 0.05501
 C1199 C 0.84920 0.24874 0.15121
 C1200 C 0.83215 0.24863 0.16831
 H1201 H 0.90371 0.22229 0.14989
 H1202 H 0.89741 0.20334 0.09650
 H1203 H 0.92987 0.26871 0.12971
 H1204 H 0.87947 0.29515 0.12690
 H1205 H 0.84701 0.22978 0.09370
 H1206 H 0.87315 0.27620 0.07351
 C1207 C 0.36475 0.75483 0.60130
 C1208 C 0.38921 0.77396 0.60061
 C1209 C 0.40731 0.75000 0.59375
 C1210 C 0.38317 0.73087 0.59412
 C1211 C 0.37015 0.74959 0.63118
 C1212 C 0.38825 0.72563 0.62432
 C1213 C 0.39429 0.76871 0.63081
 C1214 C 0.41271 0.74476 0.62363
 C1215 C 0.42800 0.75023 0.57288
 C1216 C 0.44500 0.75038 0.55571
 C1217 C 0.34942 0.74941 0.65200
 C1218 C 0.33234 0.74933 0.66909
 H1219 H 0.34480 0.75896 0.59234
 H1220 H 0.38982 0.79384 0.59064
 H1221 H 0.37881 0.71531 0.57881
 H1222 H 0.38764 0.70575 0.63429
 H1223 H 0.39865 0.78427 0.64612
 H1224 H 0.43266 0.74062 0.63259
 C1225 C 0.24591 0.13570 0.89978
 C1226 C 0.22580 0.11210 0.90160
 C1227 C 0.24934 0.09291 0.90669
 C1228 C 0.26945 0.11618 0.90519
 C1229 C 0.24888 0.13033 0.86959
 C1230 C 0.27241 0.11114 0.87468
 C1231 C 0.22876 0.10706 0.87108
 C1232 C 0.25230 0.08754 0.87650
 C1233 C 0.24961 0.07207 0.92735
 C1234 C 0.24978 0.05493 0.94436
 C1235 C 0.24871 0.15115 0.84892
 C1236 C 0.24868 0.16827 0.83189
 H1237 H 0.24328 0.15573 0.90911
 H1238 H 0.20664 0.11226 0.91290
 H1239 H 0.28619 0.11968 0.91945
 H1240 H 0.29158 0.11098 0.86338
 H1241 H 0.21203 0.10356 0.85683
 H1242 H 0.25494 0.06751 0.86717
 C1243 C 0.75223 0.60046 0.36407
 C1244 C 0.77289 0.59850 0.38719
 C1245 C 0.74983 0.59329 0.40691
 C1246 C 0.72916 0.59494 0.38411
 C1247 C 0.74938 0.63062 0.36966
 C1248 C 0.72631 0.62542 0.38938
 C1249 C 0.77004 0.62898 0.39246
 C1250 C 0.74698 0.62345 0.41250
 C1251 C 0.75008 0.57249 0.42767
 C1252 C 0.75024 0.55538 0.44473
 C1253 C 0.74920 0.65142 0.34890
 C1254 C 0.74914 0.66852 0.33182
 H1255 H 0.75438 0.59123 0.34393
 H1256 H 0.79206 0.58721 0.38650
 H1257 H 0.71235 0.58071 0.38090
 H1258 H 0.70715 0.63671 0.39006
 H1259 H 0.78685 0.64321 0.39567
 H1260 H 0.74482 0.63269 0.43264
 C1261 C 0.73580 0.13204 0.10307
 C1262 C 0.76095 0.12092 0.08864
 C1263 C 0.75027 0.09233 0.09280
 C1264 C 0.72512 0.10314 0.10691
 C1265 C 0.75066 0.12976 0.12997
 C1266 C 0.73998 0.10118 0.13412
 C1267 C 0.77582 0.11897 0.11585
 C1268 C 0.76513 0.09006 0.11969
 C1269 C 0.75005 0.07149 0.07210
 C1270 C 0.74994 0.05434 0.05506
 C1271 C 0.75081 0.15060 0.15068
 C1272 C 0.75085 0.16772 0.16773
 H1273 H 0.72375 0.14954 0.09647
 H1274 H 0.76957 0.12881 0.06970
 H1275 H 0.70427 0.09640 0.10301
 H1276 H 0.73137 0.09329 0.15306
 H1277 H 0.79666 0.12571 0.11976
 H1278 H 0.77719 0.07256 0.12630
 C1279 C 0.23515 0.63259 0.60390
 C1280 C 0.26017 0.62221 0.58872
 C1281 C 0.25038 0.59333 0.59303
 C1282 C 0.22536 0.60339 0.60790
 C1283 C 0.25081 0.63060 0.63036
 C1284 C 0.24102 0.60172 0.63467
 C1285 C 0.27584 0.62054 0.61550
 C1286 C 0.26604 0.59134 0.61949
 C1287 C 0.25013 0.57257 0.57225
 C1288 C 0.24998 0.55547 0.55516
 C1289 C 0.25097 0.65136 0.65115
 C1290 C 0.25100 0.66842 0.66826
 H1291 H 0.22245 0.64979 0.59772
 H1292 H 0.26804 0.63041 0.56959
 H1293 H 0.20459 0.59611 0.60454
 H1294 H 0.23315 0.59353 0.65381
 H1295 H 0.29660 0.62783 0.61886
 H1296 H 0.27874 0.57415 0.62567
 C1297 C 0.74694 0.86406 0.90069
 C1298 C 0.77051 0.88324 0.90714
 C1299 C 0.75066 0.90678 0.90798
 C1300 C 0.72709 0.88792 0.90186
 C1301 C 0.75116 0.86950 0.87067
 C1302 C 0.73131 0.89303 0.87152
 C1303 C 0.77473 0.88835 0.87679
 C1304 C 0.75488 0.91221 0.87796
 C1305 C 0.75037 0.92756 0.92876
 C1306 C 0.75018 0.94466 0.94583
 C1307 C 0.75135 0.84874 0.84988
 C1308 C 0.75140 0.83168 0.83277
 H1309 H 0.74368 0.84403 0.90981
 H1310 H 0.78662 0.87945 0.92202
 H1311 H 0.70749 0.88797 0.91240
 H1312 H 0.71520 0.89683 0.85664
 H1313 H 0.79433 0.88830 0.86625
 H1314 H 0.75814 0.93224 0.86884
 C1315 C 0.25485 0.36414 0.39984
 C1316 C 0.27434 0.38829 0.40120
 C1317 C 0.25043 0.40682 0.40700
 C1318 C 0.23094 0.38299 0.40596
 C1319 C 0.25089 0.36947 0.36976
 C1320 C 0.22698 0.38800 0.37556
 C1321 C 0.27038 0.39329 0.37079
 C1322 C 0.24647 0.41214 0.37692
 C1323 C 0.25018 0.42762 0.42775
 C1324 C 0.25001 0.44474 0.44480
 C1325 C 0.25105 0.34867 0.34900
 C1326 C 0.25109 0.33158 0.33192
 H1327 H 0.25831 0.34417 0.40903
 H1328 H 0.29382 0.38863 0.41197
 H1329 H 0.21472 0.37899 0.42065
 H1330 H 0.20751 0.38765 0.36479
 H1331 H 0.28661 0.39728 0.35610
 H1332 H 0.24302 0.43210 0.36773
 C1333 C 0.22409 0.88487 0.12035
 C1334 C 0.24059 0.91116 0.12155
 C1335 C 0.24941 0.90651 0.09240
 C1336 C 0.23291 0.88054 0.09088
 C1337 C 0.24895 0.86928 0.12971
 C1338 C 0.25777 0.86463 0.10056
 C1339 C 0.26544 0.89525 0.13123
 C1340 C 0.27426 0.89092 0.10176
 C1341 C 0.24967 0.92724 0.07164
 C1342 C 0.24983 0.94431 0.05457
 C1343 C 0.24878 0.84856 0.15048
 C1344 C 0.24874 0.83152 0.16757
 H1345 H 0.20347 0.88215 0.12823
 H1346 H 0.23353 0.93053 0.12994
 H1347 H 0.21954 0.87474 0.07405
 H1348 H 0.26482 0.84526 0.09217
 H1349 H 0.27881 0.90106 0.14806
 H1350 H 0.29489 0.89364 0.09389
 C1351 C 0.72516 0.38692 0.62279
 C1352 C 0.74359 0.41192 0.62271
 C1353 C 0.74984 0.40678 0.59298
 C1354 C 0.73140 0.38210 0.59274
 C1355 C 0.74942 0.36949 0.63028
 C1356 C 0.75566 0.36435 0.60055
 C1357 C 0.76785 0.39416 0.63052
 C1358 C 0.77410 0.38934 0.60048
 C1359 C 0.75008 0.42757 0.57221
 C1360 C 0.75024 0.44467 0.55514
 C1361 C 0.74926 0.34872 0.65106
 C1362 C 0.74923 0.33164 0.66816
 H1363 H 0.70503 0.38570 0.63219
 H1364 H 0.73864 0.43171 0.63161
 H1365 H 0.71642 0.37736 0.57697
 H1366 H 0.76062 0.34455 0.59165
 H1367 H 0.78284 0.39890 0.64629
 H1368 H 0.79423 0.39056 0.59108
 C1369 C 0.10458 0.13194 0.73496
 C1370 C 0.10872 0.10249 0.72600
 C1371 C 0.09307 0.09314 0.75081
 C1372 C 0.08861 0.12228 0.75977
 C1373 C 0.13053 0.13021 0.75146
 C1374 C 0.11489 0.12087 0.77628
 C1375 C 0.13500 0.10108 0.74251
 C1376 C 0.11902 0.09141 0.76732
 C1377 C 0.07220 0.07252 0.75046
 C1378 C 0.05503 0.05555 0.75026
 C1379 C 0.15136 0.15088 0.75169
 C1380 C 0.16846 0.16792 0.75171
 H1381 H 0.09888 0.14885 0.72166
 H1382 H 0.10595 0.09470 0.70533
 H1383 H 0.06929 0.13076 0.76685
 H1384 H 0.11767 0.12867 0.79694
 H1385 H 0.15431 0.09260 0.73543
 H1386 H 0.12472 0.07451 0.78062
 C1387 C 0.60496 0.63168 0.23476
 C1388 C 0.60928 0.60220 0.22597
 C1389 C 0.59353 0.59289 0.25074
 C1390 C 0.58890 0.62205 0.25953
 C1391 C 0.63084 0.63016 0.25140
 C1392 C 0.61510 0.62086 0.27618
 C1393 C 0.63548 0.60100 0.24262
 C1394 C 0.61942 0.59137 0.26739
 C1395 C 0.57273 0.57213 0.25037
 C1396 C 0.55561 0.55508 0.25015
 C1397 C 0.65161 0.65095 0.25164
 C1398 C 0.66868 0.66805 0.25166
 H1399 H 0.59923 0.64849 0.22135
 H1400 H 0.60666 0.59431 0.20532
 H1401 H 0.56952 0.63049 0.26648
 H1402 H 0.61773 0.62875 0.29683
 H1403 H 0.65486 0.59257 0.23568
 H1404 H 0.62514 0.57456 0.28080
 C1405 C 0.10658 0.86999 0.26737
 C1406 C 0.11148 0.90022 0.27255
 C1407 C 0.09307 0.90688 0.24877
 C1408 C 0.08786 0.87697 0.24359
 C1409 C 0.13051 0.86979 0.24800
 C1410 C 0.11211 0.87644 0.22421
 C1411 C 0.13573 0.89970 0.25317
 C1412 C 0.11700 0.90668 0.22939
 C1413 C 0.07222 0.92752 0.24920
 C1414 C 0.05506 0.94450 0.24947
 C1415 C 0.15133 0.84911 0.24772
 C1416 C 0.16842 0.83207 0.24769
 H1417 H 0.10253 0.85466 0.28298
 H1418 H 0.11097 0.91022 0.29244
 H1419 H 0.06793 0.86786 0.23966
 H1420 H 0.11262 0.86644 0.20433
 H1421 H 0.15565 0.90880 0.25710
 H1422 H 0.12105 0.92201 0.21378
 C1423 C 0.62691 0.39112 0.72654
 C1424 C 0.59634 0.38571 0.72762
 C1425 C 0.59365 0.40734 0.74941
 C1426 C 0.62389 0.41306 0.74833
 C1427 C 0.63106 0.37016 0.74872
 C1428 C 0.62836 0.39179 0.77051
 C1429 C 0.60081 0.36444 0.74980
 C1430 C 0.59780 0.38638 0.77159
 C1431 C 0.57279 0.42804 0.74980
 C1432 C 0.55562 0.44505 0.75004
 C1433 C 0.65187 0.34942 0.74848
 C1434 C 0.66895 0.33233 0.74845
 H1435 H 0.63910 0.39283 0.70800
 H1436 H 0.58294 0.38343 0.70999
 H1437 H 0.63316 0.43329 0.74773
 H1438 H 0.64176 0.39407 0.78814
 H1439 H 0.59155 0.34421 0.75040
 H1440 H 0.58561 0.38465 0.79013
 C1441 C 0.88078 0.11708 0.27380
 C1442 C 0.87815 0.08888 0.26103
 C1443 C 0.90626 0.09216 0.24890
 C1444 C 0.90921 0.12004 0.26168
 C1445 C 0.86895 0.12938 0.24816
 C1446 C 0.89705 0.13266 0.23603
 C1447 C 0.86599 0.10151 0.23538
 C1448 C 0.89443 0.10447 0.22325
 C1449 C 0.92705 0.07146 0.24930
 C1450 C 0.94417 0.05444 0.24955
 C1451 C 0.84820 0.15013 0.24790
 C1452 C 0.83116 0.16722 0.24787
 H1453 H 0.87493 0.12250 0.29458
 H1454 H 0.87062 0.07065 0.27131
 H1455 H 0.92721 0.12741 0.27250
 H1456 H 0.90458 0.15090 0.22574
 H1457 H 0.84799 0.09415 0.22456
 H1458 H 0.90028 0.09905 0.20248
 C1459 C 0.39089 0.62680 0.72730
 C1460 C 0.41209 0.62313 0.74973
 C1461 C 0.40656 0.59283 0.74953
 C1462 C 0.38569 0.59617 0.72710
 C1463 C 0.36915 0.63001 0.74887
 C1464 C 0.36361 0.59971 0.74866
 C1465 C 0.39002 0.62667 0.77129
 C1466 C 0.38480 0.59605 0.77109
 C1467 C 0.42741 0.57213 0.74989
 C1468 C 0.44457 0.55511 0.75012
 C1469 C 0.34833 0.65075 0.74864
 C1470 C 0.33124 0.66783 0.74861
 H1471 H 0.39317 0.63966 0.70929
 H1472 H 0.43224 0.63255 0.75018
 H1473 H 0.38413 0.58340 0.70893
 H1474 H 0.34345 0.59030 0.74821
 H1475 H 0.39158 0.63944 0.78946
 H1476 H 0.38252 0.58319 0.78910
 C1477 C 0.87145 0.89227 0.73053
 C1478 C 0.87612 0.91333 0.75288
 C1479 C 0.90636 0.90776 0.75132
 C1480 C 0.90201 0.88702 0.72896
 C1481 C 0.86917 0.87042 0.75210
 C1482 C 0.89942 0.86484 0.75054
 C1483 C 0.87352 0.89116 0.77447
 C1484 C 0.90409 0.88591 0.77290
 C1485 C 0.92709 0.92852 0.75087
 C1486 C 0.94417 0.94558 0.75058
 C1487 C 0.84849 0.84961 0.75239
 C1488 C 0.83149 0.83248 0.75243
 H1489 H 0.85778 0.89465 0.71311
 H1490 H 0.86677 0.93351 0.75384
 H1491 H 0.91396 0.88555 0.71024
 H1492 H 0.90876 0.84467 0.74959
 H1493 H 0.86156 0.89261 0.79318
 H1494 H 0.91775 0.88353 0.79031
 C1495 C 0.39409 0.37010 0.26972
 C1496 C 0.41167 0.37734 0.24516
 C1497 C 0.40664 0.40720 0.25080
 C1498 C 0.38939 0.40028 0.27536
 C1499 C 0.36926 0.36999 0.25147
 C1500 C 0.36424 0.39985 0.25711
 C1501 C 0.38652 0.37691 0.22692
 C1502 C 0.38182 0.40709 0.23256
 C1503 C 0.42748 0.42792 0.25043
 C1504 C 0.44463 0.44494 0.25019
 C1505 C 0.34846 0.34924 0.25170
 C1506 C 0.33139 0.33215 0.25171
 H1507 H 0.39890 0.35466 0.28500
 H1508 H 0.43139 0.36830 0.24023
 H1509 H 0.39079 0.41012 0.29528
 H1510 H 0.34451 0.40889 0.26204
 H1511 H 0.38512 0.36708 0.20699
 H1512 H 0.37699 0.42252 0.21727
   
