data_POSCAR
  _audit_creation_date              2014-09-24
  _audit_creation_method            'ToBaCCo'
  _symmetry_space_group_name_H-M    'P1'
  _symmetry_Int_Tables_number       1
  _symmetry_cell_setting            triclinic
  loop_
  _symmetry_equiv_pos_as_xyz
 x,y,z
_cell_length_a 32.2678
_cell_length_b 32.2378
_cell_length_c 32.2896
_cell_angle_alpha 89.900200
_cell_angle_beta 90.033000
_cell_angle_gamma 90.009400
loop_
  _atom_site_label
  _atom_site_type_symbol
  _atom_site_fract_x
  _atom_site_fract_y
  _atom_site_fract_z
C1 C 0.23993 0.95943 -0.03197
 C2 C 0.24524 0.95852 0.01173
 C3 C 0.25449 0.99539 0.03236
 C4 C 0.25912 1.03343 0.01176
 C5 C 0.25053 1.03547 -0.03141
 C6 C 0.24101 0.99828 -0.05216
 H7 H 0.23616 0.99925 -0.08544
 H8 H 0.25852 0.99430 0.06576
 C9 C 0.75766 0.45626 0.51627
 C10 C 0.75726 0.45503 0.47256
 C11 C 0.75716 0.49262 0.45065
 C12 C 0.75647 0.53106 0.47116
 C13 C 0.76099 0.53165 0.51459
 C14 C 0.76088 0.49437 0.53645
 H15 H 0.76253 0.49508 0.57005
 H16 H 0.75607 0.49192 0.41708
 C17 C 0.75255 0.97503 0.95416
 C18 C 0.74924 1.01864 0.95567
 C19 C 0.74399 1.03816 0.99382
 C20 C 0.74780 1.01666 1.03116
 C21 C 0.75485 0.97327 1.03010
 C22 C 0.75488 0.95294 0.99160
 H23 H 0.75747 0.91939 0.99075
 H24 H 0.74031 1.07168 0.99441
 C25 C 0.22931 0.47588 0.52767
 C26 C 0.22853 0.51958 0.52478
 C27 C 0.23044 0.53843 0.48594
 C28 C 0.23652 0.51543 0.44979
 C29 C 0.24043 0.47177 0.45252
 C30 C 0.23453 0.45266 0.49123
 H31 H 0.23623 0.41911 0.49333
 H32 H 0.22929 0.57205 0.48397
 C33 C 1.02904 0.26078 -0.01299
 C34 C 1.02993 0.25700 0.03096
 C35 C 0.99195 0.25099 0.05180
 C36 C 0.95380 0.24974 0.03093
 C37 C 0.95341 0.25487 -0.01253
 C38 C 0.99073 0.26094 -0.03332
 H39 H 0.98989 0.26373 -0.06686
 H40 H 0.99169 0.24857 0.08532
 C41 C 0.53336 0.75821 0.52585
 C42 C 0.53283 0.75464 0.48251
 C43 C 0.49514 0.75145 0.46181
 C44 C 0.45745 0.75159 0.48305
 C45 C 0.45732 0.75557 0.52673
 C46 C 0.49563 0.75831 0.54755
 H47 H 0.49610 0.76077 0.58104
 H48 H 0.49516 0.74880 0.42828
 C49 C -0.02493 0.75482 0.04458
 C50 C 0.01895 0.75721 0.04358
 C51 C 0.03925 0.75595 0.00541
 C52 C 0.01766 0.75380 -0.03212
 C53 C -0.02591 0.75836 -0.03168
 C54 C -0.04647 0.75687 0.00666
 H55 H -0.08011 0.75746 0.00694
 H56 H 0.07292 0.75476 0.00497
 C57 C 0.47121 0.25057 0.47016
 C58 C 0.51461 0.24837 0.47190
 C59 C 0.53483 0.25222 0.50978
 C60 C 0.51306 0.25702 0.54689
 C61 C 0.46910 0.25985 0.54543
 C62 C 0.44896 0.25618 0.50693
 H63 H 0.41540 0.25784 0.50554
 H64 H 0.56844 0.25047 0.51040
 C65 C 1.05090 0.02633 0.24389
 C66 C 1.05189 -0.01566 0.25681
 C67 C 1.01485 -0.03582 0.26662
 C68 C 0.97651 -0.01552 0.26634
 C69 C 0.97530 0.02690 0.25459
 C70 C 1.01232 0.04682 0.24303
 H71 H 1.01131 0.07956 0.23521
 H72 H 1.01590 -0.06888 0.27304
 C73 C 0.46887 0.49313 0.75071
 C74 C 0.46937 0.53640 0.74373
 C75 C 0.50774 0.55688 0.74219
 C76 C 0.54528 0.53514 0.74493
 C77 C 0.54438 0.49206 0.75265
 C78 C 0.50623 0.47182 0.75509
 H79 H 0.50562 0.43849 0.75996
 H80 H 0.50846 0.59022 0.73763
 C81 C 1.02902 0.97782 0.74267
 C82 C 0.98562 0.97623 0.74030
 C83 C 0.96276 1.01255 0.74315
 C84 C 0.98156 1.05106 0.75058
 C85 C 1.02560 1.05357 0.74851
 C86 C 1.04852 1.01667 0.74409
 H87 H 1.08212 1.01793 0.74467
 H88 H 0.92918 1.01033 0.74180
 C89 C 0.53503 0.54311 0.24862
 C90 C 0.49124 0.54431 0.24579
 C91 C 0.46913 0.50713 0.24407
 C92 C 0.48888 0.46881 0.24647
 C93 C 0.53203 0.46709 0.25239
 C94 C 0.55465 0.50433 0.25289
 H95 H 0.58810 0.50308 0.25607
 H96 H 0.43564 0.50801 0.24068
 O97 O 0.27379 0.14553 0.17102
 O98 O 0.31824 0.13252 0.23204
 O99 O 0.16321 0.18695 0.23119
 O100 O 0.14694 0.23902 0.27660
 O101 O 0.21072 0.25493 0.12481
 O102 O 0.26751 0.30273 0.11811
 O103 O 0.26689 0.30672 0.34046
 O104 O 0.21825 0.24768 0.34922
 O105 O 0.37460 0.25109 0.29158
 O106 O 0.38680 0.20415 0.23091
 O107 O 0.32466 0.35656 0.23816
 O108 O 0.26597 0.37091 0.18993
 O109 O 0.26455 0.35675 0.29084
 O110 O 0.22039 0.36866 0.23108
 O111 O 0.37489 0.30700 0.23756
 O112 O 0.38787 0.25701 0.18896
 O113 O 0.32419 0.24851 0.34077
 O114 O 0.27219 0.20566 0.35550
 O115 O 0.26793 0.19701 0.12302
 O116 O 0.31630 0.25320 0.11527
 O117 O 0.16150 0.24954 0.17506
 O118 O 0.14783 0.29207 0.23378
 O119 O 0.21511 0.13920 0.22947
 O120 O 0.27143 0.12706 0.27334
 Zr121 Zr 0.26891 0.17549 0.22912
 O122 O 0.30526 0.21092 0.26995
 Zr123 Zr 0.19395 0.24541 0.23135
 O124 O 0.22814 0.28528 0.27062
 Zr125 Zr 0.26678 0.25101 0.15855
 O126 O 0.30506 0.28850 0.19557
 Zr127 Zr 0.26847 0.24988 0.30717
 O128 O 0.23137 0.20922 0.27081
 Zr129 Zr 0.34174 0.25178 0.23511
 O130 O 0.30789 0.21382 0.19368
 Zr131 Zr 0.26789 0.32359 0.23547
 O132 O 0.22906 0.28811 0.19624
 O133 O 0.22946 0.20988 0.19154
 O134 O 0.30700 0.28986 0.27433
 C135 C 0.27228 0.15895 0.13340
 C136 C 0.17678 0.14922 0.23079
 C137 C 0.17275 0.25407 0.13711
 C138 C 0.26485 0.34494 0.32864
 C139 C 0.36227 0.24891 0.32932
 C140 C 0.36276 0.34467 0.23842
 H141 H 0.32219 0.19189 0.28698
 H142 H 0.32259 0.30596 0.17750
 H143 H 0.21214 0.19244 0.17321
 H144 H 0.20880 0.30155 0.28790
 H145 H 0.20092 0.22358 0.34131
 H146 H 0.15444 0.25700 0.30025
 H147 H 0.37627 0.24412 0.16371
 H148 H 0.30531 0.24802 0.08700
 H149 H 0.27602 0.17844 0.34211
 H150 H 0.25112 0.13396 0.29524
 H151 H 0.29033 0.36755 0.17167
 H152 H 0.24921 0.32385 0.13057
 H153 H 0.34036 0.14366 0.21406
 H154 H 0.38393 0.18594 0.25544
 H155 H 0.15705 0.31471 0.21520
 H156 H 0.19882 0.36129 0.25158
 O157 O 0.75626 0.87452 0.20797
 O158 O 0.70703 0.88375 0.26476
 O159 O 0.86154 0.82572 0.27208
 O160 O 0.87565 0.76950 0.31313
 O161 O 0.81770 0.76120 0.16099
 O162 O 0.75629 0.72519 0.14222
 O163 O 0.75251 0.70651 0.37055
 O164 O 0.80250 0.76186 0.38209
 O165 O 0.64883 0.76267 0.32161
 O166 O 0.63879 0.81533 0.26167
 O167 O 0.69630 0.66078 0.25728
 O168 O 0.76703 0.65143 0.21514
 O169 O 0.74990 0.65820 0.31941
 O170 O 0.79475 0.64142 0.26886
 O171 O 0.64693 0.71090 0.26168
 O172 O 0.63444 0.76838 0.21945
 O173 O 0.69823 0.76274 0.37198
 O174 O 0.74734 0.80801 0.38632
 O175 O 0.76197 0.82483 0.15835
 O176 O 0.71332 0.76943 0.14461
 O177 O 0.86602 0.76793 0.21185
 O178 O 0.87436 0.72000 0.26693
 O179 O 0.81122 0.87500 0.26714
 O180 O 0.75166 0.88692 0.31020
 Zr181 Zr 0.75646 0.84067 0.26400
 O182 O 0.71801 0.80439 0.30223
 Zr183 Zr 0.83004 0.76844 0.26601
 O184 O 0.79346 0.72803 0.30217
 Zr185 Zr 0.75969 0.76866 0.19094
 O186 O 0.71901 0.73010 0.22452
 Zr187 Zr 0.75341 0.76353 0.33863
 O188 O 0.79247 0.80452 0.30534
 Zr189 Zr 0.68168 0.76571 0.26478
 O190 O 0.71789 0.80468 0.22595
 Zr191 Zr 0.75378 0.69242 0.26440
 O192 O 0.79499 0.72826 0.22788
 O193 O 0.79686 0.80702 0.22662
 O194 O 0.71460 0.72563 0.30329
 C195 C 0.75966 0.86271 0.17013
 C196 C 0.84897 0.86370 0.27154
 C197 C 0.85552 0.76223 0.17399
 C198 C 0.74998 0.66891 0.35762
 C199 C 0.66058 0.76193 0.35976
 C200 C 0.65820 0.67306 0.25743
 H201 H 0.70110 0.82282 0.31991
 H202 H 0.70259 0.71381 0.20444
 H203 H 0.81568 0.82453 0.20989
 H204 H 0.81143 0.71017 0.31945
 H205 H 0.82045 0.78610 0.37626
 H206 H 0.86646 0.75071 0.33556
 H207 H 0.64526 0.75435 0.19450
 H208 H 0.69276 0.79061 0.15298
 H209 H 0.76317 0.83263 0.37735
 H210 H 0.77377 0.88157 0.33076
 H211 H 0.74189 0.64973 0.19779
 H212 H 0.76750 0.69898 0.15333
 H213 H 0.68773 0.87564 0.24235
 H214 H 0.63996 0.83056 0.28821
 H215 H 0.86481 0.69886 0.24686
 H216 H 0.82119 0.65221 0.28000
 O217 O 0.74606 0.14663 0.80802
 O218 O 0.70908 0.13065 0.75307
 O219 O 0.85730 0.20220 0.75393
 O220 O 0.87071 0.25642 0.71263
 O221 O 0.80209 0.25954 0.86243
 O222 O 0.74687 0.29341 0.87974
 O223 O 0.74466 0.30641 0.64333
 O224 O 0.78184 0.25132 0.62818
 O225 O 0.63614 0.26072 0.70447
 O226 O 0.62182 0.21998 0.75650
 O227 O 0.69642 0.36636 0.74914
 O228 O 0.74889 0.38076 0.79034
 O229 O 0.74864 0.35893 0.69014
 O230 O 0.80111 0.36953 0.75171
 O231 O 0.64454 0.31944 0.75824
 O232 O 0.63488 0.25461 0.80887
 O233 O 0.68259 0.25601 0.65178
 O234 O 0.74403 0.20142 0.64127
 O235 O 0.74866 0.19504 0.85912
 O236 O 0.69683 0.25669 0.86823
 O237 O 0.85319 0.25702 0.81399
 O238 O 0.86232 0.30679 0.75214
 O239 O 0.80896 0.15091 0.75363
 O240 O 0.74669 0.14135 0.70301
 Zr241 Zr 0.75007 0.18171 0.75450
 O242 O 0.70730 0.21704 0.71979
 Zr243 Zr 0.82157 0.25548 0.75582
 O244 O 0.78572 0.29042 0.71385
 Zr245 Zr 0.74842 0.25357 0.82792
 O246 O 0.71306 0.29579 0.79283
 Zr247 Zr 0.74250 0.25407 0.68036
 O248 O 0.78579 0.21830 0.71482
 Zr249 Zr 0.67371 0.25992 0.75634
 O250 O 0.70891 0.21711 0.79184
 Zr251 Zr 0.74896 0.32966 0.74951
 O252 O 0.78519 0.29498 0.79205
 O253 O 0.78776 0.21600 0.79374
 O254 O 0.70683 0.29591 0.71411
 C255 C 0.74716 0.15719 0.84600
 C256 C 0.84693 0.16405 0.75386
 C257 C 0.84007 0.25949 0.85173
 C258 C 0.74716 0.34463 0.65281
 C259 C 0.64526 0.25892 0.66618
 C260 C 0.65846 0.35687 0.75428
 H261 H 0.68844 0.19830 0.70453
 H262 H 0.69801 0.31445 0.81188
 H263 H 0.80568 0.19860 0.81159
 H264 H 0.80457 0.30568 0.69508
 H265 H 0.81013 0.25687 0.63856
 H266 H 0.85983 0.24335 0.68715
 H267 H 0.63388 0.28203 0.82250
 H268 H 0.68263 0.22949 0.86703
 H269 H 0.71562 0.18998 0.63958
 H270 H 0.77322 0.14387 0.68781
 H271 H 0.75623 0.36949 0.81788
 H272 H 0.74980 0.32188 0.86867
 H273 H 0.68193 0.14137 0.76241
 H274 H 0.63299 0.19151 0.75443
 H275 H 0.85913 0.32280 0.77808
 H276 H 0.81445 0.36936 0.72413
 O277 O 0.23288 0.84472 0.80838
 O278 O 0.27909 0.85896 0.74899
 O279 O 0.12498 0.79800 0.74404
 O280 O 0.11193 0.74538 0.69974
 O281 O 0.17322 0.73500 0.85182
 O282 O 0.23159 0.68687 0.86019
 O283 O 0.23297 0.68393 0.63851
 O284 O 0.18336 0.74215 0.62918
 O285 O 0.33867 0.74728 0.68673
 O286 O 0.34951 0.78994 0.75174
 O287 O 0.29241 0.63523 0.74030
 O288 O 0.23773 0.62353 0.79276
 O289 O 0.23558 0.63337 0.68789
 O290 O 0.18782 0.62084 0.74467
 O291 O 0.34098 0.68637 0.73964
 O292 O 0.35367 0.73589 0.78879
 O293 O 0.28876 0.74182 0.63721
 O294 O 0.23688 0.78566 0.62358
 O295 O 0.22985 0.79284 0.85614
 O296 O 0.27913 0.73757 0.86430
 O297 O 0.12421 0.74002 0.80108
 O298 O 0.11523 0.69220 0.74406
 O299 O 0.17490 0.84755 0.75041
 O300 O 0.23138 0.86352 0.70631
 Zr301 Zr 0.23080 0.81459 0.75001
 O302 O 0.26867 0.78091 0.70907
 Zr303 Zr 0.15837 0.74170 0.74596
 O304 O 0.19449 0.70355 0.70726
 Zr305 Zr 0.23046 0.73885 0.81999
 O306 O 0.27064 0.70311 0.78305
 Zr307 Zr 0.23352 0.74082 0.67139
 O308 O 0.19486 0.77989 0.70756
 Zr309 Zr 0.30642 0.74109 0.74377
 O310 O 0.27083 0.77738 0.78546
 Zr311 Zr 0.23501 0.66665 0.74307
 O312 O 0.19437 0.70042 0.78187
 O313 O 0.19232 0.77838 0.78639
 O314 O 0.27309 0.70215 0.70454
 C315 C 0.23161 0.83122 0.84601
 C316 C 0.13702 0.83589 0.74743
 C317 C 0.13533 0.73668 0.83907
 C318 C 0.23437 0.64568 0.65024
 C319 C 0.32654 0.74618 0.64865
 C320 C 0.33006 0.64815 0.73883
 H321 H 0.28486 0.80080 0.69229
 H322 H 0.28845 0.68576 0.80105
 H323 H 0.17441 0.79539 0.80445
 H324 H 0.17602 0.68671 0.68959
 H325 H 0.16546 0.76579 0.63718
 H326 H 0.12018 0.72696 0.67672
 H327 H 0.34046 0.74225 0.81568
 H328 H 0.26746 0.74219 0.89238
 H329 H 0.24024 0.81283 0.63725
 H330 H 0.21135 0.85592 0.68435
 H331 H 0.24694 0.59623 0.78197
 H332 H 0.21110 0.66679 0.84951
 H333 H 0.29865 0.85133 0.77138
 H334 H 0.34397 0.81081 0.72999
 H335 H 0.12406 0.67174 0.76519
 H336 H 0.16721 0.62756 0.72301
 O337 O 0.23697 0.38094 0.70952
 O338 O 0.19695 0.39112 0.77261
 O339 O 0.35167 0.33610 0.76572
 O340 O 0.36655 0.28353 0.81258
 O341 O 0.30612 0.27451 0.66061
 O342 O 0.24702 0.22677 0.64909
 O343 O 0.25348 0.21461 0.87325
 O344 O 0.29924 0.27465 0.88220
 O345 O 0.14332 0.26824 0.82831
 O346 O 0.12894 0.32005 0.76911
 O347 O 0.18936 0.16691 0.76592
 O348 O 0.25196 0.15681 0.71802
 O349 O 0.24651 0.16588 0.82284
 O350 O 0.29123 0.15165 0.76570
 O351 O 0.13958 0.21672 0.76916
 O352 O 0.12437 0.27409 0.72691
 O353 O 0.19473 0.26650 0.87649
 O354 O 0.24173 0.31460 0.88979
 O355 O 0.24335 0.33139 0.65982
 O356 O 0.20298 0.27304 0.64579
 O357 O 0.35571 0.27475 0.71079
 O358 O 0.36776 0.23154 0.76622
 O359 O 0.29979 0.38399 0.76278
 O360 O 0.24629 0.39460 0.81198
 Zr361 Zr 0.24594 0.34820 0.76570
 O362 O 0.21028 0.31137 0.80608
 Zr363 Zr 0.32128 0.27789 0.76542
 O364 O 0.28740 0.23647 0.80302
 Zr365 Zr 0.24839 0.27543 0.69291
 O366 O 0.20960 0.23676 0.72870
 Zr367 Zr 0.24830 0.27136 0.84104
 O368 O 0.28450 0.31336 0.80577
 Zr369 Zr 0.17347 0.27180 0.77028
 O370 O 0.20697 0.31078 0.72946
 Zr371 Zr 0.24664 0.19975 0.76724
 O372 O 0.28586 0.23643 0.72909
 O373 O 0.28544 0.31517 0.72681
 O374 O 0.20876 0.23252 0.80761
 C375 C 0.23765 0.36904 0.67150
 C376 C 0.33805 0.37366 0.76367
 C377 C 0.34429 0.27351 0.67291
 C378 C 0.25077 0.17683 0.86080
 C379 C 0.15661 0.26584 0.86585
 C380 C 0.15122 0.17893 0.76693
 H381 H 0.19354 0.32934 0.82438
 H382 H 0.19222 0.22005 0.70982
 H383 H 0.30193 0.33306 0.70816
 H384 H 0.30685 0.21939 0.81944
 H385 H 0.31459 0.30045 0.87562
 H386 H 0.36042 0.26255 0.83411
 H387 H 0.13320 0.25795 0.70244
 H388 H 0.17869 0.28843 0.65645
 H389 H 0.24430 0.34236 0.87713
 H390 H 0.26941 0.38807 0.83110
 H391 H 0.22733 0.16015 0.70005
 H392 H 0.26935 0.20720 0.65690
 H393 H 0.17411 0.38113 0.75485
 H394 H 0.13018 0.33486 0.79590
 H395 H 0.35659 0.20772 0.75046
 H396 H 0.31425 0.15980 0.78421
 O397 O 0.76921 0.64823 0.67365
 O398 O 0.81561 0.63764 0.73495
 O399 O 0.66067 0.69597 0.73062
 O400 O 0.64553 0.75025 0.77375
 O401 O 0.71274 0.75534 0.62258
 O402 O 0.76945 0.80487 0.61639
 O403 O 0.76105 0.81552 0.83678
 O404 O 0.71471 0.75544 0.84708
 O405 O 0.87207 0.75525 0.79380
 O406 O 0.88340 0.70404 0.73452
 O407 O 0.82792 0.85946 0.73538
 O408 O 0.77260 0.86889 0.67987
 O409 O 0.76845 0.86444 0.78634
 O410 O 0.72463 0.87645 0.72839
 O411 O 0.87647 0.80824 0.73667
 O412 O 0.88927 0.75549 0.69191
 O413 O 0.82032 0.76024 0.84130
 O414 O 0.77041 0.71527 0.85601
 O415 O 0.76825 0.69851 0.62397
 O416 O 0.81797 0.75338 0.61533
 O417 O 0.66209 0.75673 0.67178
 O418 O 0.64794 0.80045 0.72889
 O419 O 0.71101 0.64649 0.73213
 O420 O 0.76693 0.63244 0.77533
 Zr421 Zr 0.76616 0.68051 0.73068
 O422 O 0.80242 0.71607 0.77162
 Zr423 Zr 0.69328 0.75302 0.72891
 O424 O 0.72793 0.79303 0.76720
 Zr425 Zr 0.76776 0.75372 0.65778
 O426 O 0.80671 0.79095 0.69452
 Zr427 Zr 0.76581 0.75756 0.80609
 O428 O 0.72860 0.71676 0.77026
 Zr429 Zr 0.84108 0.75427 0.73616
 O430 O 0.80695 0.71641 0.69486
 Zr431 Zr 0.76991 0.82891 0.73206
 O432 O 0.73044 0.79344 0.69333
 O433 O 0.72855 0.71498 0.69135
 O434 O 0.80655 0.79483 0.77286
 C435 C 0.76938 0.66061 0.63568
 C436 C 0.67307 0.65798 0.73231
 C437 C 0.67466 0.75757 0.63403
 C438 C 0.76321 0.85348 0.82415
 C439 C 0.85873 0.75889 0.83116
 C440 C 0.86556 0.84633 0.73657
 H441 H 0.81825 0.69746 0.79018
 H442 H 0.82505 0.80746 0.67627
 H443 H 0.71090 0.69742 0.67347
 H444 H 0.70849 0.81042 0.78315
 H445 H 0.69811 0.73067 0.83965
 H446 H 0.65397 0.76790 0.79732
 H447 H 0.87712 0.74500 0.66582
 H448 H 0.80701 0.74850 0.58701
 H449 H 0.76779 0.68730 0.84391
 H450 H 0.74748 0.64068 0.79754
 H451 H 0.78498 0.89570 0.68848
 H452 H 0.74557 0.82298 0.62295
 H453 H 0.83519 0.64438 0.71234
 H454 H 0.88009 0.68782 0.76034
 H455 H 0.65966 0.82372 0.71269
 H456 H 0.70208 0.86953 0.74794
 O457 O 0.25789 0.63844 0.29637
 O458 O 0.21865 0.62496 0.24059
 O459 O 0.36686 0.69776 0.24459
 O460 O 0.38238 0.75431 0.20964
 O461 O 0.30733 0.74572 0.35611
 O462 O 0.25579 0.78901 0.36773
 O463 O 0.25611 0.80282 0.13513
 O464 O 0.29493 0.74910 0.12009
 O465 O 0.14684 0.75179 0.19169
 O466 O 0.13126 0.71076 0.24291
 O467 O 0.20244 0.85863 0.24329
 O468 O 0.25732 0.87362 0.28387
 O469 O 0.25343 0.85407 0.18330
 O470 O 0.30714 0.86437 0.24509
 O471 O 0.15138 0.81009 0.24687
 O472 O 0.14343 0.74358 0.29695
 O473 O 0.19506 0.75105 0.14032
 O474 O 0.25772 0.69773 0.13085
 O475 O 0.25134 0.68587 0.34812
 O476 O 0.20172 0.74720 0.35708
 O477 O 0.35953 0.75083 0.30885
 O478 O 0.36916 0.80341 0.24810
 O479 O 0.31957 0.64538 0.24275
 O480 O 0.25937 0.63542 0.19168
 Zr481 Zr 0.26050 0.67526 0.24369
 O482 O 0.21836 0.71058 0.20834
 Zr483 Zr 0.33034 0.75052 0.24909
 O484 O 0.29506 0.78590 0.20670
 Zr485 Zr 0.25513 0.74534 0.31886
 O486 O 0.21979 0.78735 0.28342
 Zr487 Zr 0.25386 0.74950 0.17095
 O488 O 0.29664 0.71374 0.20600
 Zr489 Zr 0.18248 0.75153 0.24488
 O490 O 0.21763 0.70898 0.28057
 Zr491 Zr 0.25603 0.82329 0.24203
 O492 O 0.29186 0.78818 0.28477
 O493 O 0.29613 0.70941 0.28477
 O494 O 0.21593 0.78943 0.20458
 C495 C 0.25285 0.64828 0.33425
 C496 C 0.35707 0.65950 0.24262
 C497 C 0.34548 0.74876 0.34641
 C498 C 0.25466 0.84091 0.14550
 C499 C 0.15730 0.75152 0.15369
 C500 C 0.16452 0.84798 0.24599
 H501 H 0.20055 0.69175 0.19202
 H502 H 0.20355 0.80488 0.30248
 H503 H 0.31355 0.69130 0.30233
 H504 H 0.31389 0.80221 0.18882
 H505 H 0.32312 0.74986 0.13205
 H506 H 0.37239 0.74643 0.18177
 H507 H 0.13876 0.77123 0.30936
 H508 H 0.20816 0.73318 0.38368
 H509 H 0.22960 0.68586 0.12784
 H510 H 0.28553 0.63988 0.17627
 H511 H 0.24604 0.86316 0.31037
 H512 H 0.26911 0.81432 0.35657
 H513 H 0.19251 0.63487 0.25316
 H514 H 0.14274 0.68285 0.23751
 H515 H 0.36514 0.81806 0.27473
 H516 H 0.31921 0.86668 0.21702
 O517 O 0.74205 0.33693 0.31352
 O518 O 0.78174 0.35002 0.25042
 O519 O 0.62881 0.28768 0.25406
 O520 O 0.61588 0.23392 0.21057
 O521 O 0.67875 0.23057 0.36254
 O522 O 0.73538 0.18131 0.37192
 O523 O 0.73692 0.17016 0.15040
 O524 O 0.68543 0.22641 0.14009
 O525 O 0.84155 0.23229 0.19441
 O526 O 0.85367 0.28005 0.25582
 O527 O 0.79656 0.12491 0.25858
 O528 O 0.73460 0.11274 0.30454
 O529 O 0.74128 0.12161 0.20144
 O530 O 0.69477 0.10814 0.25782
 O531 O 0.84502 0.17571 0.25136
 O532 O 0.85828 0.22893 0.29706
 O533 O 0.79043 0.22781 0.14606
 O534 O 0.73848 0.27111 0.13222
 O535 O 0.73744 0.28725 0.36349
 O536 O 0.78470 0.23097 0.37357
 O537 O 0.62927 0.23115 0.31198
 O538 O 0.61921 0.18219 0.25745
 O539 O 0.67853 0.33763 0.25893
 O540 O 0.73279 0.35144 0.21064
 Zr541 Zr 0.73477 0.30473 0.25667
 O542 O 0.77221 0.26923 0.21675
 Zr543 Zr 0.66252 0.23158 0.25667
 O544 O 0.69792 0.19161 0.21910
 Zr545 Zr 0.73557 0.23179 0.32974
 O546 O 0.77531 0.19452 0.29397
 Zr547 Zr 0.73631 0.22775 0.18143
 O548 O 0.69816 0.26831 0.21631
 Zr549 Zr 0.81048 0.23068 0.25237
 O550 O 0.77538 0.26876 0.29284
 Zr551 Zr 0.73915 0.15646 0.25583
 O552 O 0.69907 0.19185 0.29368
 O553 O 0.69702 0.27003 0.29522
 O554 O 0.77660 0.19019 0.21530
 C555 C 0.74202 0.32488 0.35164
 C556 C 0.64059 0.32572 0.25677
 C557 C 0.64083 0.23053 0.34987
 C558 C 0.74004 0.13249 0.16336
 C559 C 0.82852 0.23059 0.15668
 C560 C 0.83422 0.13766 0.25547
 H561 H 0.78826 0.28819 0.19878
 H562 H 0.79344 0.17853 0.31284
 H563 H 0.67996 0.28785 0.31332
 H564 H 0.67947 0.17383 0.20233
 H565 H 0.66765 0.25051 0.14689
 H566 H 0.62304 0.21346 0.18892
 H567 H 0.84536 0.23721 0.32356
 H568 H 0.77340 0.23665 0.40160
 H569 H 0.74095 0.29878 0.14505
 H570 H 0.71103 0.34324 0.19062
 H571 H 0.75721 0.11862 0.32434
 H572 H 0.71247 0.16259 0.36385
 H573 H 0.80452 0.34158 0.26912
 H574 H 0.84988 0.29772 0.23103
 H575 H 0.62946 0.16158 0.27779
 H576 H 0.67199 0.11567 0.23875
 C577 C 0.24365 0.13155 0.06820
 C578 C 0.24115 0.10182 0.03711
 C579 C 0.26852 0.06803 0.03670
 C580 C 0.30180 0.06694 0.06583
 C581 C 0.30455 0.09760 0.09697
 C582 C 0.27385 0.12873 0.09934
 C583 C 0.33874 0.09676 0.12400
 N584 N 0.36781 0.06665 0.12041
 N585 N 0.36525 0.03762 0.09129
 C586 C 0.33353 0.03686 0.06378
 H587 H 0.22050 0.15590 0.06909
 H588 H 0.21550 0.10347 0.01551
 H589 H 0.34335 0.12039 0.14710
 H590 H 0.33395 0.01329 0.04000
 C591 C 0.73268 0.62245 0.58089
 C592 C 0.73092 0.59269 0.54969
 C593 C 0.76618 0.56968 0.53940
 C594 C 0.80431 0.57801 0.55958
 C595 C 0.80598 0.60796 0.59148
 C596 C 0.76957 0.62941 0.60275
 C597 C 0.84419 0.61540 0.61106
 N598 N 0.87832 0.59389 0.59932
 N599 N 0.87676 0.56558 0.56936
 C600 C 0.84097 0.55688 0.54911
 H601 H 0.70479 0.63931 0.58893
 H602 H 0.70150 0.58615 0.53489
 H603 H 0.84727 0.63820 0.63539
 H604 H 0.84155 0.53390 0.52474
 C605 C 0.72966 0.92210 0.13226
 C606 C 0.72815 0.94825 0.09791
 C607 C 0.75979 0.94769 0.06814
 C608 C 0.79466 0.92141 0.07419
 C609 C 0.79607 0.89479 0.10907
 C610 C 0.76261 0.89439 0.13748
 C611 C 0.83136 0.86965 0.11468
 N612 N 0.86275 0.87095 0.08685
 N613 N 0.86144 0.89587 0.05399
 C614 C 0.82867 0.92118 0.04677
 H615 H 0.70396 0.92204 0.15384
 H616 H 0.70132 0.96800 0.09374
 H617 H 0.83468 0.84950 0.14121
 H618 H 0.83003 0.94137 0.02008
 C619 C 0.26593 0.40137 0.60893
 C620 C 0.26459 0.42763 0.57501
 C621 C 0.23027 0.45316 0.56783
 C622 C 0.19704 0.45266 0.59663
 C623 C 0.19934 0.42674 0.63239
 C624 C 0.23418 0.40054 0.63820
 C625 C 0.16552 0.42626 0.65971
 N626 N 0.13174 0.45001 0.65174
 N627 N 0.12932 0.47373 0.61801
 C628 C 0.16059 0.47554 0.59002
 H629 H 0.29173 0.38066 0.61181
 H630 H 0.29011 0.42688 0.55321
 H631 H 0.16528 0.40680 0.68691
 H632 H 0.15637 0.49434 0.56263
 C633 C 0.71769 0.09186 0.87244
 C634 C 0.72008 0.05514 0.89521
 C635 C 0.75446 0.04714 0.92027
 C636 C 0.78776 0.07595 0.92103
 C637 C 0.78454 0.11403 0.89940
 C638 C 0.74887 0.12218 0.87525
 C639 C 0.81762 0.14232 0.90229
 N640 N 0.85149 0.13280 0.92531
 N641 N 0.85458 0.09691 0.94553
 C642 C 0.82393 0.06819 0.94419
 H643 H 0.69084 0.09709 0.85294
 H644 H 0.69398 0.03399 0.89511
 H645 H 0.81708 0.17176 0.88636
 H646 H 0.82816 0.03937 0.96090
 C647 C 0.28262 0.59118 0.37599
 C648 C 0.27874 0.55552 0.40036
 C649 C 0.23955 0.54034 0.41142
 C650 C 0.20373 0.56043 0.39581
 C651 C 0.20764 0.59688 0.37156
 C652 C 0.24744 0.61302 0.36277
 C653 C 0.17130 0.61629 0.35723
 N654 N 0.13370 0.60018 0.36697
 N655 N 0.13003 0.56609 0.39004
 C656 C 0.16371 0.54577 0.40492
 H657 H 0.31329 0.60232 0.36807
 H658 H 0.30644 0.54127 0.41293
 H659 H 0.17241 0.64421 0.33861
 H660 H 0.15902 0.51810 0.42337
 C661 C 0.26461 0.89089 0.87986
 C662 C 0.26739 0.92096 0.91044
 C663 C 0.23793 0.92382 0.94250
 C664 C 0.20473 0.89480 0.94319
 C665 C 0.20236 0.86341 0.91217
 C666 C 0.23249 0.86196 0.88003
 C667 C 0.16834 0.83608 0.91300
 N668 N 0.13861 0.84029 0.94234
 N669 N 0.14021 0.87033 0.97052
 C670 C 0.17187 0.89796 0.97160
 H671 H 0.28793 0.89022 0.85572
 H672 H 0.29285 0.94286 0.90872
 H673 H 0.16437 0.81209 0.89008
 H674 H 0.17044 0.92272 0.99394
 C675 C 0.71511 0.36537 0.41102
 C676 C 0.71923 0.39545 0.44186
 C677 C 0.75691 0.41630 0.44775
 C678 C 0.79145 0.40535 0.42295
 C679 C 0.78709 0.37528 0.39123
 C680 C 0.74821 0.35611 0.38450
 C681 C 0.82213 0.36518 0.36740
 N682 N 0.85880 0.38438 0.37473
 N683 N 0.86282 0.41283 0.40432
 C684 C 0.83046 0.42397 0.42866
 H685 H 0.68546 0.35016 0.40692
 H686 H 0.69223 0.40387 0.45977
 H687 H 0.82081 0.34200 0.34330
 H688 H 0.83559 0.44689 0.45256
 C689 C 0.10639 0.22779 0.11139
 C690 C 0.07180 0.22836 0.08610
 C691 C 0.06677 0.25859 0.05510
 C692 C 0.09794 0.28975 0.05101
 C693 C 0.13464 0.28759 0.07561
 C694 C 0.13870 0.25614 0.10622
 C695 C 0.16453 0.31891 0.07074
 N696 N 0.15758 0.35095 0.04442
 N697 N 0.12237 0.35426 0.02324
 C698 C 0.09211 0.32528 0.02624
 H699 H 0.10758 0.20500 0.13583
 H700 H 0.04885 0.20422 0.09066
 H701 H 0.19285 0.31894 0.08819
 H702 H 0.06332 0.33102 0.01020
 C703 C 0.63231 0.72590 0.57877
 C704 C 0.59774 0.72597 0.55282
 C705 C 0.57264 0.76131 0.54937
 C706 C 0.58383 0.79793 0.57075
 C707 C 0.61886 0.79781 0.59718
 C708 C 0.64247 0.76111 0.60196
 C709 C 0.62919 0.83466 0.61802
 N710 N 0.60572 0.86915 0.61263
 N711 N 0.57276 0.86927 0.58777
 C712 C 0.56105 0.83491 0.56661
 H713 H 0.65012 0.69762 0.58223
 H714 H 0.58953 0.69774 0.53662
 H715 H 0.65600 0.83651 0.63802
 H716 H 0.53435 0.83693 0.54645
 C717 C 0.07375 0.77017 0.86965
 C718 C 0.04351 0.77397 0.90027
 C719 C 0.04094 0.74467 0.93227
 C720 C 0.06687 0.70890 0.93099
 C721 C 0.09742 0.70515 0.89985
 C722 C 0.10192 0.73696 0.87010
 C723 C 0.12181 0.66901 0.89892
 N724 N 0.11600 0.63881 0.92759
 N725 N 0.08716 0.64213 0.95685
 C726 C 0.06226 0.67588 0.95938
 H727 H 0.07644 0.79439 0.84648
 H728 H 0.02412 0.80142 0.90058
 H729 H 0.14465 0.66398 0.87512
 H730 H 0.03852 0.67619 0.98301
 C731 C 0.58653 0.27028 0.38443
 C732 C 0.55382 0.27419 0.41209
 C733 C 0.54092 0.24019 0.43570
 C734 C 0.56053 0.20122 0.43059
 C735 C 0.59398 0.19733 0.40261
 C736 C 0.60751 0.23251 0.38034
 C737 C 0.61276 0.15829 0.39796
 N738 N 0.59903 0.12553 0.42053
 N739 N 0.56785 0.12927 0.44729
 C740 C 0.54819 0.16598 0.45316
 H741 H 0.59622 0.29717 0.36675
 H742 H 0.53986 0.30440 0.41660
 H743 H 0.63808 0.15353 0.37658
 H744 H 0.52296 0.16726 0.47515
 C745 C 0.92240 0.78438 0.14206
 C746 C 0.95321 0.78147 0.11164
 C747 C 0.95137 0.75048 0.08118
 C748 C 0.92036 0.71916 0.08469
 C749 C 0.88974 0.72173 0.11608
 C750 C 0.88937 0.75600 0.14344
 C751 C 0.86106 0.68902 0.11980
 N752 N 0.86247 0.65654 0.09326
 N753 N 0.89092 0.65424 0.06355
 C754 C 0.91999 0.68417 0.05851
 H755 H 0.92332 0.81014 0.16355
 H756 H 0.97641 0.80570 0.10985
 H757 H 0.83837 0.68826 0.14429
 H758 H 0.94310 0.67983 0.03468
 C759 C 0.40405 0.23762 0.63992
 C760 C 0.43585 0.23517 0.61054
 C761 C 0.44213 0.26731 0.58192
 C762 C 0.41708 0.30345 0.58439
 C763 C 0.38612 0.30644 0.61530
 C764 C 0.37798 0.27243 0.64171
 C765 C 0.36464 0.34392 0.61934
 N766 N 0.37176 0.37547 0.59245
 N767 N 0.39929 0.37206 0.56199
 C768 C 0.42209 0.33714 0.55694
 H769 H 0.39911 0.21175 0.66081
 H770 H 0.45427 0.20714 0.60872
 H771 H 0.34269 0.34838 0.64409
 H772 H 0.44455 0.33650 0.53212
 C773 C 0.89198 0.22457 0.89515
 C774 C 0.91467 0.22104 0.93166
 C775 C 0.91643 0.25378 0.96035
 C776 C 0.89326 0.29019 0.95246
 C777 C 0.86944 0.29347 0.91564
 C778 C 0.86947 0.26054 0.88653
 C779 C 0.84746 0.33046 0.90841
 N780 N 0.84944 0.36186 0.93624
 N781 N 0.87209 0.35888 0.97061
 C782 C 0.89428 0.32427 0.97951
 H783 H 0.89161 0.19878 0.87366
 H784 H 0.93356 0.19361 0.93617
 H785 H 0.82938 0.33501 0.88056
 H786 H 0.91236 0.32366 1.00767
 C787 C 0.38109 0.78490 0.40354
 C788 C 0.40407 0.78506 0.44021
 C789 C 0.42042 0.74816 0.45639
 C790 C 0.41171 0.71019 0.43614
 C791 C 0.38826 0.71002 0.39904
 C792 C 0.37416 0.74792 0.38189
 C793 C 0.38011 0.67170 0.38001
 N794 N 0.39527 0.63618 0.39674
 N795 N 0.41798 0.63643 0.43118
 C796 C 0.42687 0.67220 0.45135
 H797 H 0.36899 0.81395 0.39169
 H798 H 0.41148 0.81449 0.45458
 H799 H 0.36206 0.66973 0.35195
 H800 H 0.44535 0.67067 0.47929
 C801 C 0.14523 0.08776 0.26504
 C802 C 0.11614 0.05561 0.26718
 C803 C 0.08679 0.05005 0.23550
 C804 C 0.09040 0.07448 0.19892
 C805 C 0.12102 0.10598 0.19627
 C806 C 0.14664 0.11449 0.23074
 C807 C 0.12585 0.12716 0.15857
 N808 N 0.10074 0.11827 0.12608
 N809 N 0.07142 0.08932 0.12871
 C810 C 0.06548 0.06705 0.16387
 H811 H 0.16591 0.09270 0.29101
 H812 H 0.11435 0.03745 0.29538
 H813 H 0.14992 0.15011 0.15441
 H814 H 0.04213 0.04297 0.16377
 C815 C 0.63519 0.60381 0.77100
 C816 C 0.60611 0.57185 0.77373
 C817 C 0.58370 0.55944 0.73875
 C818 C 0.59230 0.57818 0.69991
 C819 C 0.62123 0.61114 0.69730
 C820 C 0.64197 0.62461 0.73344
 C821 C 0.62837 0.62954 0.65842
 N822 N 0.60788 0.61550 0.62454
 N823 N 0.58085 0.58436 0.62694
 C824 C 0.57237 0.56523 0.66342
 H825 H 0.65166 0.61326 0.79867
 H826 H 0.59949 0.55821 0.80369
 H827 H 0.65002 0.65486 0.65464
 H828 H 0.55058 0.53972 0.66354
 C829 C 0.91703 0.14274 0.73083
 C830 C 0.95257 0.11802 0.73269
 C831 C 0.95434 0.08410 0.75970
 C832 C 0.92128 0.07822 0.78855
 C833 C 0.88494 0.10284 0.78615
 C834 C 0.88220 0.13455 0.75590
 C835 C 0.85303 0.09523 0.81489
 N836 N 0.85738 0.06507 0.84386
 N837 N 0.89167 0.04235 0.84655
 C838 C 0.92381 0.04809 0.82021
 H839 H 0.91622 0.16793 0.70859
 H840 H 0.97705 0.12330 0.71033
 H841 H 0.82486 0.11309 0.81519
 H842 H 0.95123 0.02922 0.82434
 C843 C 0.40541 0.61299 0.27884
 C844 C 0.44158 0.58950 0.28076
 C845 C 0.46539 0.58216 0.24516
 C846 C 0.45342 0.60092 0.20733
 C847 C 0.41710 0.62571 0.20561
 C848 C 0.39237 0.63065 0.24149
 C849 C 0.40606 0.64376 0.16751
 N850 N 0.42969 0.63688 0.13347
 N851 N 0.46343 0.61311 0.13499
 C852 C 0.47595 0.59472 0.17068
 H853 H 0.38725 0.61708 0.30668
 H854 H 0.44945 0.57431 0.30968
 H855 H 0.37863 0.66282 0.16439
 H856 H 0.50350 0.57572 0.17020
 C857 C 0.07995 0.87602 0.71567
 C858 C 0.05465 0.91106 0.71413
 C859 C 0.05439 0.93969 0.74676
 C860 C 0.07862 0.93180 0.78265
 C861 C 0.10413 0.89612 0.78422
 C862 C 0.10565 0.86888 0.74985
 C863 C 0.12714 0.88857 0.82054
 N864 N 0.12498 0.91537 0.85275
 N865 N 0.10124 0.94908 0.85122
 C866 C 0.07798 0.95818 0.81744
 H867 H 0.08086 0.85536 0.68926
 H868 H 0.03610 0.91658 0.68670
 H869 H 0.14627 0.86134 0.82392
 H870 H 0.05884 0.98563 0.81851
 C871 C 0.58331 0.36567 0.22489
 C872 C 0.55693 0.39998 0.22379
 C873 C 0.55476 0.42738 0.25741
 C874 C 0.57792 0.41871 0.29370
 C875 C 0.60528 0.38436 0.29453
 C876 C 0.60867 0.35834 0.25933
 C877 C 0.62831 0.37712 0.33086
 N878 N 0.62383 0.40251 0.36399
 N879 N 0.59787 0.43458 0.36331
 C880 C 0.57472 0.44351 0.32940
 H881 H 0.58554 0.34596 0.19784
 H882 H 0.53956 0.40624 0.19577
 H883 H 0.64942 0.35128 0.33348
 H884 H 0.55371 0.46960 0.33084
 C885 C 0.87895 0.92884 0.24503
 C886 C 0.90886 0.95995 0.24476
 C887 C 0.94087 0.96018 0.27424
 C888 C 0.93944 0.93080 0.30738
 C889 C 0.90894 0.89918 0.30749
 C890 C 0.87982 0.89721 0.27487
 C891 C 0.90789 0.87125 0.34103
 N892 N 0.93567 0.87489 0.37231
 N893 N 0.96413 0.90476 0.37252
 C894 C 0.96678 0.93294 0.34143
 H895 H 0.85605 0.92831 0.22046
 H896 H 0.90896 0.98158 0.21904
 H897 H 0.88469 0.84721 0.34329
 H898 H 0.98976 0.95719 0.34402
 C899 C 0.39415 0.41544 0.79351
 C900 C 0.42446 0.44588 0.79076
 C901 C 0.43075 0.46793 0.75377
 C902 C 0.40462 0.46038 0.71939
 C903 C 0.37209 0.43113 0.72305
 C904 C 0.36821 0.40741 0.75989
 C905 C 0.34557 0.42547 0.68895
 N906 N 0.35243 0.44652 0.65323
 N907 N 0.38428 0.47243 0.64916
 C908 C 0.41082 0.47976 0.68084
 H909 H 0.39109 0.39780 0.82194
 H910 H 0.44463 0.45096 0.81712
 H911 H 0.31974 0.40431 0.69009
 H912 H 0.43657 0.50037 0.67541
 C913 C 0.09606 0.29421 0.90092
 C914 C 0.06599 0.29376 0.93138
 C915 C 0.06425 0.26188 0.96121
 C916 C 0.09417 0.22950 0.95975
 C917 C 0.12575 0.23080 0.92916
 C918 C 0.12596 0.26316 0.89927
 C919 C 0.15468 0.19822 0.92799
 N920 N 0.15154 0.16606 0.95487
 N921 N 0.12096 0.16389 0.98239
 C922 C 0.09186 0.19405 0.98528
 H923 H 0.09605 0.31922 0.87843
 H924 H 0.04334 0.31860 0.93149
 H925 H 0.17904 0.19737 0.90529
 H926 H 0.06678 0.18933 1.00683
 C927 C 0.61863 0.79393 0.41503
 C928 C 0.58945 0.79175 0.44681
 C929 C 0.57053 0.75395 0.45680
 C930 C 0.58239 0.71743 0.43576
 C931 C 0.61182 0.71971 0.40346
 C932 C 0.62908 0.75846 0.39236
 C933 C 0.62298 0.68294 0.38318
 N934 N 0.60526 0.64645 0.39438
 N935 N 0.57737 0.64428 0.42466
 C936 C 0.56530 0.67852 0.44575
 H937 H 0.63249 0.82361 0.40746
 H938 H 0.58017 0.81998 0.46243
 H939 H 0.64539 0.68306 0.35836
 H940 H 0.54279 0.67499 0.47034
 C941 C 0.92056 0.73161 0.86754
 C942 C 0.94872 0.73134 0.90034
 C943 C 0.94806 0.76266 0.93041
 C944 C 0.91879 0.79537 0.92665
 C945 C 0.88851 0.79424 0.89486
 C946 C 0.88959 0.76199 0.86493
 C947 C 0.85875 0.82622 0.89366
 N948 N 0.86014 0.85751 0.92162
 N949 N 0.88935 0.85920 0.95065
 C950 C 0.91885 0.82948 0.95391
 H951 H 0.92173 0.70675 0.84503
 H952 H 0.97028 0.70573 0.90294
 H953 H 0.83523 0.82763 0.87006
 H954 H 0.94230 0.83307 0.97756
 C955 C 0.41892 0.28036 0.37020
 C956 C 0.44544 0.28071 0.40435
 C957 C 0.44783 0.24639 0.43095
 C958 C 0.42422 0.21047 0.42215
 C959 C 0.39722 0.21015 0.38755
 C960 C 0.39382 0.24587 0.36216
 C961 C 0.37447 0.17382 0.37948
 N962 N 0.37831 0.14045 0.40482
 N963 N 0.40338 0.14093 0.43759
 C964 C 0.42643 0.17476 0.44714
 H965 H 0.41657 0.30787 0.35105
 H966 H 0.46284 0.30862 0.41109
 H967 H 0.35408 0.17146 0.35306
 H968 H 0.44640 0.17333 0.47400
 C969 C 0.10500 0.78946 0.11310
 C970 C 0.06798 0.79112 0.09081
 C971 C 0.04687 0.75472 0.07984
 C972 C 0.06300 0.71593 0.09272
 C973 C 0.10070 0.71421 0.11524
 C974 C 0.12227 0.75130 0.12457
 C975 C 0.11594 0.67512 0.12721
 N976 N 0.09490 0.64024 0.11676
 N977 N 0.05974 0.64185 0.09520
 C978 C 0.04318 0.67844 0.08269
 H979 H 0.12036 0.81817 0.12141
 H980 H 0.05688 0.82096 0.08000
 H981 H 0.14457 0.67195 0.14432
 H982 H 0.01454 0.67795 0.06534
 C983 C 0.59965 0.22373 0.61603
 C984 C 0.56458 0.22203 0.59092
 C985 C 0.53930 0.25710 0.58480
 C986 C 0.54824 0.29370 0.60732
 C987 C 0.58218 0.29438 0.63534
 C988 C 0.60947 0.25986 0.63769
 C989 C 0.58844 0.33034 0.65909
 N990 N 0.56373 0.36390 0.65353
 N991 N 0.53346 0.36404 0.62553
 C992 C 0.52530 0.33029 0.60190
 H993 H 0.61918 0.19652 0.61875
 H994 H 0.55878 0.19390 0.57351
 H995 H 0.61309 0.33238 0.68152
 H996 H 0.50119 0.33244 0.57910
 C997 C 0.88051 0.27110 0.11826
 C998 C 0.90838 0.27680 0.08586
 C999 C 0.91622 0.24512 0.05712
 C1000 C 0.89433 0.20716 0.06075
 C1001 C 0.86508 0.20173 0.09325
 C1002 C 0.85895 0.23376 0.12269
 C1003 C 0.84413 0.16361 0.09613
 N1004 N 0.85229 0.13299 0.06857
 N1005 N 0.88021 0.13782 0.03858
 C1006 C 0.90171 0.17369 0.03393
 H1007 H 0.87573 0.29611 0.14013
 H1008 H 0.92557 0.30564 0.08429
 H1009 H 0.82178 0.15772 0.12032
 H1010 H 0.92444 0.17561 0.00949
 C1011 C 0.36483 0.71821 0.58796
 C1012 C 0.39529 0.72089 0.55724
 C1013 C 0.41899 0.75705 0.55239
 C1014 C 0.41012 0.79184 0.57775
 C1015 C 0.37974 0.78886 0.60941
 C1016 C 0.35787 0.75120 0.61540
 C1017 C 0.37181 0.82415 0.63368
 N1018 N 0.39316 0.85973 0.62682
 N1019 N 0.42171 0.86251 0.59719
 C1020 C 0.43084 0.82988 0.57239
 H1021 H 0.34762 0.68954 0.59139
 H1022 H 0.40173 0.69386 0.53851
 H1023 H 0.34849 0.82401 0.65761
 H1024 H 0.45373 0.83415 0.54831
 C1025 C 0.21827 0.11582 0.89284
 C1026 C 0.21830 0.08149 0.91890
 C1027 C 0.25238 0.07239 0.94457
 C1028 C 0.28772 0.09897 0.94267
 C1029 C 0.28681 0.13511 0.91723
 C1030 C 0.25185 0.14316 0.89189
 C1031 C 0.32218 0.16059 0.91594
 N1032 N 0.35662 0.14980 0.93744
 N1033 N 0.35831 0.11493 0.95949
 C1034 C 0.32542 0.08891 0.96223
 H1035 H 0.19157 0.12114 0.87315
 H1036 H 0.19107 0.06177 0.91908
 H1037 H 0.32319 0.18852 0.89744
 H1038 H 0.32953 0.06006 0.97864
 C1039 C 0.77789 0.63402 0.41970
 C1040 C 0.77976 0.60081 0.44730
 C1041 C 0.75006 0.56913 0.44598
 C1042 C 0.71696 0.57190 0.41707
 C1043 C 0.71677 0.60398 0.38708
 C1044 C 0.74756 0.63540 0.38865
 C1045 C 0.68536 0.60354 0.35675
 N1046 N 0.65546 0.57402 0.35769
 N1047 N 0.65454 0.54507 0.38708
 C1048 C 0.68395 0.54324 0.41699
 H1049 H 0.80172 0.65766 0.42111
 H1050 H 0.80554 0.59910 0.46870
 H1051 H 0.68359 0.62667 0.33273
 H1052 H 0.68104 0.51955 0.44054
 C1053 C 0.70973 0.09543 0.10445
 C1054 C 0.71121 0.06625 0.07298
 C1055 C 0.74602 0.04052 0.06758
 C1056 C 0.78008 0.04458 0.09519
 C1057 C 0.77751 0.07294 0.12863
 C1058 C 0.74250 0.09930 0.13230
 C1059 C 0.81141 0.07584 0.15580
 N1060 N 0.84611 0.05323 0.14884
 N1061 N 0.84952 0.02854 0.11608
 C1062 C 0.81805 0.02409 0.08867
 H1063 H 0.68280 0.11535 0.10695
 H1064 H 0.68513 0.06433 0.05187
 H1065 H 0.81111 0.09660 0.18184
 H1066 H 0.82349 0.00546 0.06158
 C1067 C 0.19842 0.60655 0.59560
 C1068 C 0.19616 0.57427 0.56715
 C1069 C 0.22996 0.54763 0.56090
 C1070 C 0.26700 0.55405 0.58350
 C1071 C 0.26896 0.58637 0.61307
 C1072 C 0.23449 0.61297 0.61866
 C1073 C 0.30610 0.59207 0.63502
 N1074 N 0.33927 0.56755 0.62711
 N1075 N 0.33780 0.53784 0.59857
 C1076 C 0.30293 0.53036 0.57639
 H1077 H 0.17177 0.62655 0.59983
 H1078 H 0.16820 0.57070 0.54891
 H1079 H 0.30920 0.61626 0.65781
 H1080 H 0.30387 0.50630 0.55319
 C1081 C 0.79078 0.91480 0.86191
 C1082 C 0.78772 0.94575 0.89212
 C1083 C 0.75137 0.95036 0.91540
 C1084 C 0.71690 0.92453 0.90668
 C1085 C 0.72024 0.89265 0.87667
 C1086 C 0.75795 0.88706 0.85495
 C1087 C 0.68537 0.86750 0.86928
 N1088 N 0.64982 0.87393 0.89071
 N1089 N 0.64673 0.90382 0.91894
 C1090 C 0.67899 0.92930 0.92766
 H1091 H 0.81961 0.91133 0.84506
 H1092 H 0.81453 0.96485 0.89879
 H1093 H 0.68583 0.84299 0.84653
 H1094 H 0.67458 0.95336 0.95056
 C1095 C 0.22790 0.40578 0.35717
 C1096 C 0.22282 0.43804 0.38555
 C1097 C 0.25173 0.44432 0.41723
 C1098 C 0.28754 0.41859 0.41893
 C1099 C 0.29233 0.38536 0.39046
 C1100 C 0.26161 0.37832 0.35998
 C1101 C 0.32826 0.36077 0.39309
 N1102 N 0.35716 0.36885 0.42250
 N1103 N 0.35270 0.39995 0.44922
 C1104 C 0.31903 0.42511 0.44839
 H1105 H 0.20455 0.40140 0.33344
 H1106 H 0.19516 0.45699 0.38390
 H1107 H 0.33388 0.33549 0.37188
 H1108 H 0.31746 0.45035 0.47038
 C1109 C 0.21780 0.89365 0.10383
 C1110 C 0.21365 0.91851 0.06866
 C1111 C 0.24532 0.92111 0.03881
 C1112 C 0.28180 0.89742 0.04476
 C1113 C 0.28601 0.87199 0.08053
 C1114 C 0.25386 0.87061 0.11054
 C1115 C 0.32326 0.84993 0.08591
 N1116 N 0.35390 0.85317 0.05738
 N1117 N 0.35000 0.87719 0.02401
 C1118 C 0.31518 0.89962 0.01689
 H1119 H 0.19260 0.89236 0.12596
 H1120 H 0.18634 0.93785 0.06588
 H1121 H 0.32864 0.83078 0.11289
 H1122 H 0.31395 0.91892 -0.01047
 C1123 C 0.78648 0.38045 0.59814
 C1124 C 0.78876 0.40371 0.56176
 C1125 C 0.75283 0.42005 0.54363
 C1126 C 0.71378 0.41149 0.56170
 C1127 C 0.71149 0.38730 0.59822
 C1128 C 0.74827 0.37309 0.61731
 C1129 C 0.67229 0.37864 0.61489
 N1130 N 0.63778 0.39441 0.59676
 N1131 N 0.63995 0.41823 0.56310
 C1132 C 0.67676 0.42752 0.54509
 H1133 H 0.81477 0.36838 0.61166
 H1134 H 0.81893 0.41118 0.54905
 H1135 H 0.66898 0.35975 0.64232
 H1136 H 0.67676 0.44711 0.51787
 C1137 C 0.10588 0.13398 0.72493
 C1138 C 0.07283 0.10648 0.72016
 C1139 C 0.05057 0.09184 0.75453
 C1140 C 0.06136 0.10645 0.79452
 C1141 C 0.09467 0.13494 0.79929
 C1142 C 0.11772 0.14783 0.76423
 C1143 C 0.10452 0.14880 0.83934
 N1144 N 0.08279 0.13453 0.87237
 N1145 N 0.05204 0.10731 0.86800
 C1146 C 0.04075 0.09262 0.83029
 H1147 H 0.12260 0.14431 0.69770
 H1148 H 0.06584 0.09483 0.68948
 H1149 H 0.12950 0.17052 0.84466
 H1150 H 0.01571 0.07047 0.82861
 C1151 C 0.59294 0.63941 0.28118
 C1152 C 0.56226 0.60887 0.27864
 C1153 C 0.56207 0.58039 0.24595
 C1154 C 0.59200 0.58449 0.21396
 C1155 C 0.62310 0.61552 0.21662
 C1156 C 0.62476 0.64189 0.25164
 C1157 C 0.65086 0.61983 0.18336
 N1158 N 0.64851 0.59385 0.15048
 N1159 N 0.62000 0.56409 0.14841
 C1160 C 0.59165 0.55857 0.17889
 H1161 H 0.59246 0.66054 0.30709
 H1162 H 0.53965 0.60631 0.30330
 H1163 H 0.67363 0.64427 0.18262
 H1164 H 0.56868 0.53446 0.17503
 C1165 C 0.12516 0.90566 0.21449
 C1166 C 0.10189 0.94210 0.21731
 C1167 C 0.08883 0.95705 0.25589
 C1168 C 0.10125 0.93585 0.29233
 C1169 C 0.12415 0.89849 0.28945
 C1170 C 0.13528 0.88279 0.25007
 C1171 C 0.13499 0.87795 0.32636
 N1172 N 0.12351 0.89394 0.36345
 N1173 N 0.10198 0.92906 0.36612
 C1174 C 0.09039 0.95051 0.33186
 H1175 H 0.13489 0.89487 0.18426
 H1176 H 0.09188 0.95734 0.18909
 H1177 H 0.15213 0.84922 0.32612
 H1178 H 0.07312 0.97901 0.33575
 C1179 C 0.62643 0.41766 0.72075
 C1180 C 0.60192 0.45326 0.72104
 C1181 C 0.58123 0.46526 0.75711
 C1182 C 0.58740 0.44228 0.79409
 C1183 C 0.61160 0.40564 0.79356
 C1184 C 0.62996 0.39248 0.75607
 C1185 C 0.61689 0.38369 0.83085
 N1186 N 0.59859 0.39745 0.86605
 N1187 N 0.57553 0.43171 0.86647
 C1188 C 0.56928 0.45456 0.83172
 H1189 H 0.64196 0.40910 0.69236
 H1190 H 0.59705 0.47004 0.69235
 H1191 H 0.63552 0.35592 0.83243
 H1192 H 0.55070 0.48243 0.83384
 C1193 C 0.89192 0.10164 0.22104
 C1194 C 0.92526 0.07430 0.22066
 C1195 C 0.93699 0.05269 0.25654
 C1196 C 0.91430 0.05914 0.29369
 C1197 C 0.87896 0.08542 0.29340
 C1198 C 0.86786 0.10676 0.25667
 C1199 C 0.85716 0.09121 0.33063
 N1200 N 0.87036 0.07246 0.36585
 N1201 N 0.90416 0.04880 0.36643
 C1202 C 0.92677 0.04189 0.33175
 H1203 H 0.88480 0.11903 0.19317
 H1204 H 0.94273 0.07065 0.19225
 H1205 H 0.83024 0.11099 0.33227
 H1206 H 0.95467 0.02372 0.33458
 C1207 C 0.36693 0.58758 0.76768
 C1208 C 0.40066 0.56062 0.76908
 C1209 C 0.43101 0.56141 0.73803
 C1210 C 0.42609 0.58888 0.70388
 C1211 C 0.39297 0.61768 0.70359
 C1212 C 0.36343 0.61712 0.73604
 C1213 C 0.39011 0.64568 0.67020
 N1214 N 0.41785 0.64392 0.63876
 N1215 N 0.44822 0.61602 0.63838
 C1216 C 0.45314 0.58835 0.66964
 H1217 H 0.34453 0.58685 0.79265
 H1218 H 0.40388 0.54008 0.79546
 H1219 H 0.36548 0.66819 0.66819
 H1220 H 0.47774 0.56583 0.66703
 C1221 C 0.91035 0.89734 0.70197
 C1222 C 0.94151 0.92715 0.70245
 C1223 C 0.96162 0.93746 0.73949
 C1224 C 0.95110 0.91654 0.77653
 C1225 C 0.92016 0.88555 0.77579
 C1226 C 0.89898 0.87694 0.73844
 C1227 C 0.91036 0.86518 0.81294
 N1228 N 0.93000 0.87576 0.84852
 N1229 N 0.95842 0.90567 0.84947
 C1230 C 0.96935 0.92668 0.81476
 H1231 H 0.89454 0.89061 0.67314
 H1232 H 0.94860 0.94383 0.67416
 H1233 H 0.88703 0.84126 0.81391
 H1234 H 0.99194 0.95116 0.81743
 C1235 C 0.41530 0.38451 0.27656
 C1236 C 0.44823 0.41240 0.27823
 C1237 C 0.46227 0.43199 0.24217
 C1238 C 0.44386 0.42236 0.20356
 C1239 C 0.41037 0.39417 0.20189
 C1240 C 0.39557 0.37598 0.23889
 C1241 C 0.39271 0.38527 0.16307
 N1242 N 0.40769 0.40382 0.12844
 N1243 N 0.43911 0.43056 0.13005
 C1244 C 0.45767 0.44052 0.16638
 H1245 H 0.40464 0.37000 0.30490
 H1246 H 0.46163 0.42017 0.30800
 H1247 H 0.36719 0.36383 0.15992
 H1248 H 0.48330 0.46216 0.16587
   
