data_POSCAR
  _audit_creation_date              2014-09-24
  _audit_creation_method            'ToBaCCo'
  _symmetry_space_group_name_H-M    'P1'
  _symmetry_Int_Tables_number       1
  _symmetry_cell_setting            triclinic
  loop_
  _symmetry_equiv_pos_as_xyz
 x,y,z
_cell_length_a 48.9111
_cell_length_b 48.9416
_cell_length_c 48.2060
_cell_angle_alpha 91.298200
_cell_angle_beta 89.204900
_cell_angle_gamma 89.422200
loop_
  _atom_site_label
  _atom_site_type_symbol
  _atom_site_fract_x
  _atom_site_fract_y
  _atom_site_fract_z
C1 C 0.72856 0.65683 0.96799
 H2 H 0.74737 0.65459 0.95604
 C3 C 0.70622 0.67082 0.95699
 H4 H 0.70806 0.67936 0.93653
 C5 C 0.70263 0.64655 1.00823
 H6 H 0.70096 0.63655 1.02790
 C7 C 0.67993 0.66034 0.99810
 H8 H 0.66126 0.66121 1.01043
 N9 N 0.72619 0.64459 0.99296
 C10 C 0.80462 0.62363 1.02915
 H11 H 0.80045 0.60230 1.03260
 C12 C 0.82852 0.63511 1.03925
 H13 H 0.84276 0.62242 1.05034
 C14 C 0.79086 0.66598 1.01062
 H15 H 0.77588 0.67791 0.99974
 C16 C 0.81480 0.67833 1.02024
 H17 H 0.81807 0.69985 1.01687
 Zn18 Zn 0.75408 0.62051 1.00474
 N19 N 0.78628 0.63908 1.01530
 C20 C 0.78889 0.59286 0.96633
 N21 N 0.76244 0.59558 0.97509
 C22 C 0.74200 0.58220 0.96174
 C23 C 0.74793 0.56518 0.93863
 C24 C 0.79570 0.57600 0.94360
 C25 C 0.74250 0.61662 1.06081
 C26 C 0.73294 0.60553 1.08540
 C27 C 0.72070 0.56471 1.05961
 C28 C 0.73105 0.57653 1.03552
 N29 N 0.74135 0.60218 1.03652
 H30 H 0.80480 0.60419 0.97654
 H31 H 0.72105 0.58516 0.96872
 H32 H 0.73147 0.55477 0.92812
 H33 H 0.81685 0.57469 0.93669
 H34 H 0.75043 0.63718 1.06096
 H35 H 0.73317 0.61878 1.10362
 H36 H 0.71343 0.54400 1.05770
 H37 H 0.73063 0.56523 1.01603
 C38 C 0.83376 0.66285 1.03511
 C39 C 0.68127 0.67206 0.97182
 C40 C 0.72134 0.57912 1.08547
 C41 C 0.77514 0.56193 0.92936
 C42 C 0.71658 0.32685 0.51464
 H43 H 0.73653 0.31990 0.52093
 C44 C 0.69324 0.31266 0.52304
 H45 H 0.69558 0.29500 0.53594
 C46 C 0.68910 0.35934 0.49200
 H47 H 0.68722 0.37815 0.48092
 C48 C 0.66546 0.34559 0.49943
 H49 H 0.64595 0.35357 0.49282
 N50 N 0.71411 0.34986 0.49948
 C51 C 0.78362 0.35268 0.45025
 H52 H 0.77278 0.36579 0.43642
 C53 C 0.80703 0.33900 0.44044
 H54 H 0.81363 0.34176 0.41916
 C55 C 0.78948 0.33472 0.49501
 H56 H 0.78294 0.33379 0.51648
 C57 C 0.81333 0.32085 0.48608
 H58 H 0.82467 0.30878 0.50064
 Zn59 Zn 0.74484 0.37173 0.49031
 N60 N 0.77513 0.35025 0.47707
 C61 C 0.77892 0.40648 0.52119
 N62 N 0.75577 0.39138 0.52241
 C63 C 0.74107 0.38940 0.54644
 C64 C 0.74967 0.40280 0.57060
 C65 C 0.78810 0.42044 0.54481
 C66 C 0.72248 0.38448 0.43935
 C67 C 0.71205 0.40074 0.41861
 C68 C 0.72664 0.44078 0.44443
 C69 C 0.73639 0.42370 0.46507
 N70 N 0.73403 0.39608 0.46222
 H71 H 0.79037 0.40744 0.50187
 H72 H 0.72273 0.37730 0.54697
 H73 H 0.73776 0.40100 0.58956
 H74 H 0.80678 0.43206 0.54359
 H75 H 0.72075 0.36249 0.43765
 H76 H 0.70243 0.39119 0.40081
 H77 H 0.72818 0.46275 0.44701
 H78 H 0.74538 0.43255 0.48349
 C79 C 0.82233 0.32297 0.45843
 C80 C 0.66716 0.32224 0.51570
 C81 C 0.71388 0.42921 0.42116
 C82 C 0.77351 0.41850 0.56998
 C83 C 0.22724 -0.16706 0.02587
 H84 H 0.24607 -0.16731 0.03739
 C85 C 0.20464 -0.18183 0.03527
 H86 H 0.20629 -0.19335 0.05409
 C87 C 0.20161 -0.15019 -0.01149
 H88 H 0.19997 -0.13728 -0.02921
 C89 C 0.17874 -0.16469 -0.00299
 H90 H 0.16018 -0.16320 -0.01487
 N91 N 0.22525 -0.15138 0.00301
 C92 C 0.30552 -0.13116 -0.03097
 H93 H 0.30168 -0.10951 -0.03305
 C94 C 0.33007 -0.14259 -0.04075
 H95 H 0.34512 -0.12949 -0.05017
 C96 C 0.29048 -0.17427 -0.01572
 H97 H 0.27483 -0.18647 -0.00612
 C98 C 0.31498 -0.18661 -0.02517
 H99 H 0.31798 -0.20839 -0.02295
 Zn100 Zn 0.25423 -0.12776 -0.00717
 N101 N 0.28636 -0.14696 -0.01867
 C102 C 0.28820 -0.10453 0.03348
 N103 N 0.26222 -0.10477 0.02379
 C104 C 0.24192 -0.08989 0.03673
 C105 C 0.24755 -0.07371 0.06027
 C106 C 0.29474 -0.08853 0.05664
 C107 C 0.24065 -0.12170 -0.06200
 C108 C 0.23088 -0.10928 -0.08562
 C109 C 0.22879 -0.06632 -0.06003
 C110 C 0.23840 -0.07981 -0.03672
 N111 N 0.24333 -0.10716 -0.03795
 H112 H 0.30394 -0.11704 0.02355
 H113 H 0.22133 -0.09077 0.02887
 H114 H 0.23124 -0.06194 0.07036
 H115 H 0.31550 -0.08896 0.06417
 H116 H 0.24562 -0.14330 -0.06263
 H117 H 0.22993 -0.12192 -0.10424
 H118 H 0.22368 -0.04490 -0.05731
 H119 H 0.24119 -0.06850 -0.01747
 C120 C 0.33506 -0.17066 -0.03804
 C121 C 0.17977 -0.18028 0.02104
 C122 C 0.22376 -0.08113 -0.08507
 C123 C 0.27433 -0.07284 0.07036
 C124 C 0.21277 0.17473 0.47147
 H125 H 0.23196 0.17355 0.46005
 C126 C 0.19085 0.18965 0.46092
 H127 H 0.19340 0.19992 0.44141
 C128 C 0.18533 0.16057 0.50929
 H129 H 0.18296 0.14867 0.52774
 C130 C 0.16297 0.17519 0.49953
 H131 H 0.14370 0.17463 0.51083
 N132 N 0.20944 0.16003 0.49488
 C133 C 0.28616 0.13866 0.53323
 H134 H 0.28097 0.11800 0.53861
 C135 C 0.30992 0.15021 0.54354
 H136 H 0.32304 0.13820 0.55658
 C137 C 0.27517 0.17939 0.50997
 H138 H 0.26138 0.19078 0.49717
 C139 C 0.29904 0.19173 0.51966
 H140 H 0.30342 0.21262 0.51432
 Zn141 Zn 0.23717 0.13507 0.50547
 N142 N 0.26927 0.15326 0.51687
 C143 C 0.27019 0.09747 0.47456
 N144 N 0.24589 0.11121 0.47495
 C145 C 0.22844 0.10907 0.45328
 C146 C 0.23574 0.09355 0.42958
 C147 C 0.27832 0.08179 0.45130
 C148 C 0.22420 0.12705 0.56136
 C149 C 0.21516 0.11300 0.58456
 C150 C 0.20606 0.07393 0.55469
 C151 C 0.21566 0.08863 0.53208
 N152 N 0.22436 0.11472 0.53581
 H153 H 0.28373 0.09925 0.49198
 H154 H 0.20896 0.11969 0.45419
 H155 H 0.22169 0.09234 0.41245
 H156 H 0.29828 0.07202 0.45104
 H157 H 0.23130 0.14782 0.56371
 H158 H 0.21584 0.12310 0.60474
 H159 H 0.19854 0.05345 0.55112
 H160 H 0.21585 0.07934 0.51151
 C161 C 0.31654 0.17711 0.53693
 C162 C 0.16532 0.18928 0.47458
 C163 C 0.20576 0.08607 0.58144
 C164 C 0.26120 0.08003 0.42818
 C165 C 0.17458 0.47034 0.22102
 H166 H 0.17675 0.45925 0.24004
 C167 C 0.18789 0.46091 0.19674
 H168 H 0.20028 0.44248 0.19729
 C169 C 0.15412 0.50667 0.19682
 H170 H 0.14030 0.52400 0.19664
 C171 C 0.16701 0.49798 0.17214
 H172 H 0.16346 0.50921 0.15341
 N173 N 0.15785 0.49267 0.22056
 C174 C 0.14299 0.51781 0.30684
 H175 H 0.12088 0.51788 0.30636
 C176 C 0.15627 0.52489 0.33128
 H177 H 0.14422 0.53072 0.34951
 C178 C 0.18541 0.51076 0.28323
 H179 H 0.19657 0.50538 0.26434
 C180 C 0.19961 0.51810 0.30727
 H181 H 0.22175 0.51814 0.30684
 Zn182 Zn 0.13619 0.50154 0.25239
 N183 N 0.15758 0.51059 0.28358
 C184 C 0.12066 0.45620 0.28357
 N185 N 0.11501 0.47023 0.26025
 C186 C 0.09651 0.46070 0.24164
 C187 C 0.08228 0.43656 0.24662
 C188 C 0.10722 0.43192 0.28916
 C189 C 0.12895 0.55634 0.24240
 C190 C 0.11578 0.58053 0.23535
 C191 C 0.07290 0.55647 0.23533
 C192 C 0.08693 0.53267 0.24259
 N193 N 0.11458 0.53292 0.24529
 H194 H 0.13611 0.46339 0.29764
 H195 H 0.09305 0.47165 0.22274
 H196 H 0.06764 0.42919 0.23163
 H197 H 0.11193 0.42122 0.30795
 H198 H 0.15091 0.55597 0.24481
 H199 H 0.12785 0.59863 0.23208
 H200 H 0.05096 0.55588 0.23273
 H201 H 0.07578 0.51401 0.24555
 C202 C 0.18494 0.52506 0.33175
 C203 C 0.18371 0.47448 0.17174
 C204 C 0.08744 0.58074 0.23125
 C205 C 0.08778 0.42177 0.27058
 C206 C -0.16354 0.02749 0.22467
 H207 H -0.16549 0.03732 0.24494
 C208 C -0.17862 0.03732 0.20244
 H209 H -0.19171 0.05498 0.20626
 C210 C -0.14206 -0.00584 0.19528
 H211 H -0.12742 -0.02231 0.19224
 C212 C -0.15645 0.00338 0.17256
 H213 H -0.15329 -0.00741 0.15293
 N214 N -0.14551 0.00641 0.22067
 C215 C -0.12490 -0.02723 0.30076
 H216 H -0.10296 -0.02779 0.29761
 C217 C -0.13633 -0.03813 0.32460
 H218 H -0.12298 -0.04687 0.33987
 C219 C -0.16879 -0.01523 0.28436
 H220 H -0.18131 -0.00673 0.26833
 C221 C -0.18117 -0.02596 0.30808
 H222 H -0.20324 -0.02576 0.31010
 Zn223 Zn -0.12190 -0.00415 0.24950
 N224 N -0.14110 -0.01610 0.28122
 C225 C -0.10156 0.03617 0.28583
 N226 N -0.10020 0.02635 0.25924
 C227 C -0.08510 0.03914 0.23955
 C228 C -0.07033 0.06266 0.24649
 C229 C -0.08698 0.05926 0.29368
 C230 C -0.11483 -0.05766 0.23232
 C231 C -0.10189 -0.08111 0.22158
 C232 C -0.05899 -0.05702 0.22197
 C233 C -0.07288 -0.03379 0.23261
 N234 N -0.10043 -0.03444 0.23694
 H235 H -0.11437 0.02648 0.30102
 H236 H -0.08480 0.03124 0.21840
 H237 H -0.05838 0.07268 0.23069
 H238 H -0.08866 0.06687 0.31492
 H239 H -0.13664 -0.05767 0.23635
 H240 H -0.11386 -0.09922 0.21751
 H241 H -0.03723 -0.05610 0.21773
 H242 H -0.06179 -0.01521 0.23686
 C243 C -0.16481 -0.03792 0.32836
 C244 C -0.17465 0.02582 0.17550
 C245 C -0.07372 -0.08084 0.21578
 C246 C -0.07106 0.07281 0.27396
 C247 C 0.34777 0.53393 0.72779
 H248 H 0.34632 0.54325 0.74833
 C249 C 0.33177 0.54396 0.70637
 H250 H 0.31806 0.56110 0.71060
 C251 C 0.36856 0.50127 0.69698
 H252 H 0.38342 0.48514 0.69309
 C253 C 0.35302 0.51062 0.67505
 H254 H 0.35566 0.50100 0.65474
 N255 N 0.36574 0.51295 0.72276
 C256 C 0.38620 0.47874 0.80247
 H257 H 0.40820 0.47916 0.79987
 C258 C 0.37471 0.46704 0.82586
 H259 H 0.38805 0.45877 0.84140
 C260 C 0.34226 0.48888 0.78500
 H261 H 0.32979 0.49691 0.76868
 C262 C 0.32982 0.47733 0.80824
 H263 H 0.30774 0.47650 0.80965
 Zn264 Zn 0.38936 0.50171 0.75127
 N265 N 0.37001 0.48926 0.78260
 C266 C 0.40728 0.54309 0.78750
 N267 N 0.41107 0.53189 0.76165
 C268 C 0.42823 0.54340 0.74287
 C269 C 0.44241 0.56722 0.74990
 C270 C 0.42080 0.56687 0.79527
 C271 C 0.39561 0.44889 0.73257
 C272 C 0.40826 0.42525 0.72202
 C273 C 0.45189 0.44783 0.72520
 C274 C 0.43827 0.47131 0.73555
 N275 N 0.41054 0.47150 0.73842
 H276 H 0.39307 0.53415 0.80192
 H277 H 0.43042 0.53440 0.72224
 H278 H 0.45561 0.57653 0.73464
 H279 H 0.41730 0.57558 0.81588
 H280 H 0.37366 0.44951 0.73561
 H281 H 0.39593 0.40761 0.71699
 H282 H 0.47388 0.44799 0.72226
 H283 H 0.44979 0.48934 0.74097
 C284 C 0.34618 0.46586 0.82881
 C285 C 0.33456 0.53247 0.67948
 C286 C 0.43666 0.42468 0.71779
 C287 C 0.43831 0.57945 0.77627
 C288 C 0.67370 0.97443 0.72194
 H289 H 0.67621 0.96551 0.74209
 C290 C 0.68741 0.96303 0.69872
 H291 H 0.70053 0.94534 0.70125
 C292 C 0.65186 1.00697 0.69386
 H293 H 0.63733 1.02351 0.69177
 C294 C 0.66510 0.99624 0.67018
 H295 H 0.66112 1.00521 0.65029
 N296 N 0.65608 0.99581 0.71907
 C297 C 0.63702 1.03115 0.80107
 H298 H 0.61506 1.03159 0.79868
 C299 C 0.64838 1.04068 0.82568
 H300 H 0.63461 1.04926 0.84138
 C301 C 0.68083 1.02048 0.78215
 H302 H 0.69327 1.01232 0.76515
 C303 C 0.69323 1.03023 0.80643
 H304 H 0.71525 1.02872 0.80766
 Zn305 Zn 0.63345 1.00704 0.74953
 N306 N 0.65315 1.02074 0.78020
 C307 C 0.61703 0.96684 0.78684
 N308 N 0.61340 0.97612 0.76075
 C309 C 0.59735 0.96245 0.74235
 C310 C 0.58375 0.93874 0.75022
 C311 C 0.60378 0.94347 0.79557
 C312 C 0.62321 1.05973 0.73330
 C313 C 0.60846 1.08221 0.72419
 C314 C 0.56722 1.05556 0.72711
 C315 C 0.58282 1.03352 0.73626
 N316 N 0.61037 1.03588 0.73863
 H317 H 0.63072 0.97711 0.80087
 H318 H 0.59532 0.96984 0.72149
 H319 H 0.57093 0.92813 0.73545
 H320 H 0.60737 0.93630 0.81631
 H321 H 0.64513 1.06103 0.73560
 H322 H 0.61929 1.10066 0.71911
 H323 H 0.54534 1.05334 0.72501
 H324 H 0.57297 1.01454 0.74117
 C325 C 0.67697 1.04010 0.82909
 C326 C 0.68272 0.97361 0.67231
 C327 C 0.58012 1.08022 0.72067
 C328 C 0.58682 0.92911 0.77725
 C329 C 0.04296 0.21341 -0.14410
 H330 H 0.05794 0.22459 -0.13229
 C331 C 0.05054 0.18878 -0.15730
 H332 H 0.07149 0.18163 -0.15593
 C333 C -0.00253 0.20874 -0.15964
 H334 H -0.02335 0.21639 -0.15983
 C335 C 0.00421 0.18396 -0.17325
 H336 H -0.01155 0.17268 -0.18394
 N337 N 0.01676 0.22281 -0.14529
 C338 C -0.01157 0.30735 -0.13343
 H339 H -0.00901 0.30960 -0.11124
 C340 C -0.02119 0.32934 -0.14858
 H341 H -0.02636 0.34838 -0.13779
 C342 C -0.00863 0.27941 -0.17417
 H343 H -0.00353 0.25998 -0.18408
 C344 C -0.01833 0.30085 -0.19013
 H345 H -0.02061 0.29768 -0.21228
 Zn346 Zn 0.00605 0.25409 -0.12365
 N347 N -0.00592 0.28289 -0.14628
 C348 C 0.05608 0.27977 -0.11775
 N349 N 0.03635 0.26680 -0.10312
 C350 C 0.03888 0.26271 -0.07544
 C351 C 0.06254 0.27088 -0.06167
 C352 C 0.07984 0.28856 -0.10479
 C353 C -0.04776 0.25558 -0.10067
 C354 C -0.06983 0.24540 -0.08552
 C355 C -0.04003 0.21007 -0.06868
 C356 C -0.01866 0.22095 -0.08424
 N357 N -0.02285 0.24317 -0.09997
 H358 H 0.05343 0.28303 -0.13968
 H359 H 0.02287 0.25266 -0.06405
 H360 H 0.06454 0.26659 -0.03987
 H361 H 0.09508 0.29907 -0.11692
 H362 H -0.05096 0.27281 -0.11389
 H363 H -0.08934 0.25532 -0.08848
 H364 H -0.03488 0.19303 -0.05587
 H365 H 0.00134 0.21129 -0.08417
 C366 C -0.02498 0.32616 -0.17729
 C367 C 0.03097 0.17346 -0.17174
 C368 C -0.06674 0.22164 -0.06947
 C369 C 0.08360 0.28373 -0.07645
 C370 C 0.46850 0.22976 0.17631
 H371 H 0.45943 0.25000 0.17626
 C372 C 0.45533 0.20902 0.19054
 H373 H 0.43687 0.21400 0.20230
 C374 C 0.50268 0.19865 0.15980
 H375 H 0.52067 0.19450 0.14706
 C376 C 0.48988 0.17716 0.17332
 H377 H 0.49828 0.15672 0.17063
 N378 N 0.49151 0.22423 0.16095
 C379 C 0.52902 0.30263 0.14174
 H380 H 0.53586 0.29764 0.12082
 C381 C 0.53641 0.32753 0.15398
 H382 H 0.54882 0.34141 0.14215
 C383 C 0.50660 0.28952 0.18309
 H384 H 0.49551 0.27455 0.19468
 C385 C 0.51342 0.31431 0.19612
 H386 H 0.50684 0.31818 0.21739
 Zn387 Zn 0.50517 0.25127 0.13672
 N388 N 0.51401 0.28433 0.15615
 C389 C 0.48050 0.28039 0.09314
 N390 N 0.47771 0.25878 0.11017
 C391 C 0.45453 0.24359 0.10999
 C392 C 0.43228 0.25121 0.09396
 C393 C 0.45877 0.28870 0.07672
 C394 C 0.56072 0.23883 0.13430
 C395 C 0.58573 0.23044 0.12256
 C396 C 0.56269 0.22034 0.07959
 C397 C 0.53812 0.22940 0.09206
 N398 N 0.53762 0.23828 0.11899
 H399 H 0.49921 0.29184 0.09289
 H400 H 0.45282 0.22597 0.12294
 H401 H 0.41356 0.23968 0.09537
 H402 H 0.46118 0.30643 0.06391
 H403 H 0.55974 0.24619 0.15562
 H404 H 0.60388 0.23184 0.13507
 H405 H 0.56247 0.21270 0.05836
 H406 H 0.51942 0.22911 0.08035
 C407 C 0.52847 0.33380 0.18150
 C408 C 0.46540 0.18203 0.18837
 C409 C 0.58704 0.22083 0.09485
 C410 C 0.43391 0.27459 0.07772
 C411 C 0.95530 0.71655 0.67005
 H412 H 0.94558 0.73651 0.67085
 C413 C 0.94426 0.69523 0.68524
 H414 H 0.92625 0.69912 0.69809
 C415 C 0.99011 0.68713 0.65161
 H416 H 1.00746 0.68378 0.63781
 C417 C 0.97973 0.66524 0.66638
 H418 H 0.98928 0.64529 0.66366
 N419 N 0.97766 0.71210 0.65346
 C420 C 1.01077 0.79234 0.63513
 H421 H 1.01177 0.79031 0.61274
 C422 C 1.01979 0.81621 0.64820
 H423 H 1.02789 0.83251 0.63579
 C424 C 0.99975 0.77309 0.67852
 H425 H 0.99217 0.75611 0.69021
 C426 C 1.00913 0.79647 0.69252
 H427 H 1.00857 0.79745 0.71498
 Zn428 Zn 0.98906 0.74032 0.62990
 N429 N 1.00051 0.77160 0.65030
 C430 C 0.95030 0.77582 0.60631
 N431 N 0.95912 0.74941 0.60711
 C432 C 0.94619 0.72924 0.59261
 C433 C 0.92385 0.73548 0.57593
 C434 C 0.92857 0.78299 0.58954
 C435 C 1.04315 0.72454 0.62236
 C436 C 1.06690 0.71589 0.60834
 C437 C 1.04179 0.71534 0.56549
 C438 C 1.01847 0.72419 0.58037
 N439 N 1.01954 0.72827 0.60834
 H440 H 0.95995 0.79149 0.61868
 H441 H 0.95325 0.70830 0.59404
 H442 H 0.91376 0.71939 0.56431
 H443 H 0.92203 0.80418 0.58887
 H444 H 1.04341 0.72814 0.64458
 H445 H 1.08533 0.71250 0.62001
 H446 H 1.04067 0.71211 0.54325
 H447 H 0.99959 0.72772 0.56959
 C448 C 1.01906 0.81844 0.67723
 C449 C 0.95620 0.66900 0.68309
 C450 C 1.06640 0.71106 0.57954
 C451 C 0.91521 0.76275 0.57402
 C452 C 0.51680 0.73786 0.34145
 H453 H 0.52738 0.75711 0.34021
 C454 C 0.52674 0.71496 0.32654
 H455 H 0.54474 0.71694 0.31345
 C456 C 0.48094 0.71183 0.36068
 H457 H 0.46357 0.71043 0.37462
 C458 C 0.49021 0.68842 0.34620
 H459 H 0.47981 0.66929 0.34930
 N460 N 0.49437 0.73589 0.35823
 C461 C 0.46255 0.81851 0.37383
 H462 H 0.46075 0.81798 0.39620
 C463 C 0.45367 0.84155 0.35986
 H464 H 0.44432 0.85787 0.37224
 C465 C 0.47525 0.79632 0.33147
 H466 H 0.48361 0.77860 0.32047
 C467 C 0.46677 0.81901 0.31658
 H468 H 0.46992 0.81816 0.29436
 Zn469 Zn 0.48422 0.76651 0.38101
 N470 N 0.47320 0.79657 0.35959
 C471 C 0.52714 0.80069 0.39759
 N472 N 0.51535 0.77610 0.40202
 C473 C 0.52725 0.75739 0.41867
 C474 C 0.55215 0.76312 0.43146
 C475 C 0.55212 0.80702 0.40954
 C476 C 0.42999 0.75369 0.39043
 C477 C 0.40686 0.74515 0.40489
 C478 C 0.43335 0.74497 0.44684
 C479 C 0.45597 0.75384 0.43158
 N480 N 0.45404 0.75732 0.40376
 H481 H 0.51786 0.81502 0.38377
 H482 H 0.51789 0.73766 0.42123
 H483 H 0.56186 0.74785 0.44404
 H484 H 0.56167 0.82634 0.40510
 H485 H 0.42904 0.75675 0.36830
 H486 H 0.38818 0.74141 0.39368
 H487 H 0.43528 0.74162 0.46886
 H488 H 0.47511 0.75734 0.44189
 C489 C 0.45560 0.84238 0.33060
 C490 C 0.51367 0.68967 0.32917
 C491 C 0.40851 0.74018 0.43337
 C492 C 0.56506 0.78797 0.42635
 Si493 Si 0.35816 0.00931 0.24850
 Si494 Si 0.11556 0.99272 0.75048
 Si495 Si 0.61456 0.51357 0.25672
 Si496 Si 0.86643 0.49028 0.74868
 Si497 Si 0.26143 0.36873 -0.00124
 Si498 Si 0.75898 0.12968 1.00498
 Si499 Si 0.24920 0.62457 0.50857
 Si500 Si 0.74922 0.86341 0.49669
 Si501 Si 0.00009 0.25398 0.35897
 Si502 Si 1.00984 0.74342 0.12220
 Si503 Si 0.49964 0.24543 0.61729
 Si504 Si 0.51454 0.75435 0.86935
 C505 C 0.42400 -0.08906 0.28855
 C506 C 0.42810 -0.11398 0.27404
 C507 C 0.43887 -0.13642 0.28768
 C508 C 0.44606 -0.13445 0.31594
 C509 C 0.44280 -0.10849 0.32913
 N510 N 0.43196 -0.08708 0.31541
 C511 C 0.41039 -0.06505 0.27614
 N512 N 0.41151 -0.04036 0.28974
 C513 C 0.39772 -0.01791 0.28105
 C514 C 0.38123 -0.01965 0.25758
 C515 C 0.37998 -0.04467 0.24303
 C516 C 0.39447 -0.06735 0.25214
 H517 H 0.44014 -0.15551 0.27603
 H518 H 0.44925 -0.10470 0.35019
 H519 H 0.39871 0.00094 0.29316
 H520 H 0.36700 -0.04721 0.22522
 H521 H 0.42289 -0.11654 0.25245
 H522 H 0.39201 -0.08657 0.24105
 C523 C 0.93733 0.39208 0.77979
 C524 C 0.93009 0.36493 0.77335
 C525 C 0.94300 0.34345 0.78672
 C526 C 0.96302 0.34875 0.80662
 C527 C 0.97016 0.37605 0.81199
 N528 N 0.95722 0.39665 0.79880
 C529 C 0.92250 0.41602 0.76861
 N530 N 0.92619 0.44101 0.78094
 C531 C 0.91145 0.46349 0.77399
 C532 C 0.89097 0.46141 0.75407
 C533 C 0.88810 0.43644 0.73970
 C534 C 0.90381 0.41375 0.74678
 H535 H 0.93651 0.32274 0.78229
 H536 H 0.98574 0.38106 0.82694
 H537 H 0.91549 0.48274 0.78443
 H538 H 0.87332 0.43404 0.72342
 H539 H 0.91397 0.35998 0.75908
 H540 H 0.90078 0.39478 0.73542
 C541 C 0.05481 1.09538 0.79305
 C542 C 0.03699 1.11231 0.77830
 C543 C 0.02884 1.13768 0.78983
 C544 C 0.03841 1.14625 0.81591
 C545 C 0.05551 1.12839 0.83022
 N546 N 0.06316 1.10394 0.81860
 C547 C 0.06577 1.06885 0.78194
 N548 N 0.07945 1.05251 0.79968
 C549 C 0.09251 1.02912 0.79121
 C550 C 0.09277 1.02114 0.76317
 C551 C 0.07814 1.03694 0.74449
 C552 C 0.06461 1.06086 0.75372
 H553 H 0.01554 1.15080 0.77813
 H554 H 0.06282 1.13381 0.85068
 H555 H 0.10344 1.01744 0.80634
 H556 H 0.07818 1.03143 0.72261
 H557 H 0.02934 1.10633 0.75817
 H558 H 0.05453 1.07329 0.73863
 C559 C 0.54889 0.61566 0.29447
 C560 C 0.52032 0.61921 0.29459
 C561 C 0.50877 0.64357 0.30530
 C562 C 0.52551 0.66440 0.31591
 C563 C 0.55391 0.66012 0.31505
 N564 N 0.56461 0.63625 0.30469
 C565 C 0.56293 0.59008 0.28480
 N566 N 0.58976 0.58693 0.29124
 C567 C 0.60470 0.56456 0.28332
 C568 C 0.59283 0.54349 0.26769
 C569 C 0.56516 0.54584 0.26097
 C570 C 0.55011 0.56918 0.26934
 H571 H 0.48675 0.64605 0.30541
 H572 H 0.56764 0.67531 0.32341
 H573 H 0.62583 0.56326 0.28950
 H574 H 0.55519 0.52990 0.24914
 H575 H 0.50685 0.60337 0.28719
 H576 H 0.52896 0.57076 0.26336
 C577 C 0.55667 0.40854 0.21891
 C578 C 0.55382 0.38519 0.23513
 C579 C 0.54421 0.36102 0.22311
 C580 C 0.53690 0.35998 0.19506
 C581 C 0.53875 0.38416 0.17994
 N582 N 0.54859 0.40738 0.19201
 C583 C 0.56921 0.43402 0.22986
 N584 N 0.56482 0.45799 0.21666
 C585 C 0.57702 0.48175 0.22467
 C586 C 0.59511 0.48215 0.24697
 C587 C 0.60006 0.45769 0.26066
 C588 C 0.58722 0.43371 0.25228
 H589 H 0.54324 0.34297 0.23565
 H590 H 0.53265 0.38457 0.15847
 H591 H 0.57325 0.50006 0.21310
 H592 H 0.61451 0.45662 0.27735
 H593 H 0.55908 0.38532 0.25684
 H594 H 0.59239 0.41506 0.26267
 C595 C 0.05489 0.88977 0.71303
 C596 C 0.06242 0.86391 0.72262
 C597 C 0.04987 0.84063 0.71177
 C598 C 0.03007 0.84308 0.69124
 C599 C 0.02241 0.86935 0.68291
 N600 N 0.03484 0.89179 0.69388
 C601 C 0.06949 0.91454 0.72217
 N602 N 0.05549 0.93844 0.72704
 C603 C 0.06828 0.96183 0.73524
 C604 C 0.09671 0.96192 0.73835
 C605 C 0.11147 0.93772 0.73279
 C606 C 0.09797 0.91398 0.72491
 H607 H 0.05635 0.82069 0.71862
 H608 H 0.00694 0.87197 0.66733
 H609 H 0.05627 0.98020 0.73928
 H610 H 0.13350 0.93713 0.73483
 H611 H 0.07810 0.86171 0.73807
 H612 H 0.10975 0.89549 0.72052
 C613 C 0.91838 0.59878 0.71797
 C614 C 0.90212 0.61980 0.70728
 C615 C 0.91446 0.64291 0.69663
 C616 C 0.94301 0.64529 0.69637
 C617 C 0.95858 0.62390 0.70737
 N618 N 0.94607 0.60146 0.71758
 C619 C 0.90621 0.57315 0.72805
 N620 N 0.92147 0.54965 0.72722
 C621 C 0.91093 0.52510 0.73444
 C622 C 0.88348 0.52339 0.74275
 C623 C 0.86765 0.54732 0.74451
 C624 C 0.87895 0.57225 0.73752
 H625 H 0.90165 0.65847 0.68766
 H626 H 0.98066 0.62492 0.70772
 H627 H 0.92368 0.50694 0.73274
 H628 H 0.84634 0.54669 0.75087
 H629 H 0.88014 0.61816 0.70608
 H630 H 0.86630 0.59045 0.73940
 C631 C 0.41873 0.11360 0.21607
 C632 C 0.40529 0.13755 0.20785
 C633 C 0.42050 0.15984 0.19933
 C634 C 0.44921 0.15889 0.19945
 C635 C 0.46188 0.13498 0.20891
 N636 N 0.44658 0.11328 0.21671
 C637 C 0.40357 0.08864 0.22382
 N638 N 0.41688 0.06847 0.23750
 C639 C 0.40436 0.04495 0.24500
 C640 C 0.37678 0.04083 0.23888
 C641 C 0.36285 0.06094 0.22435
 C642 C 0.37607 0.08472 0.21667
 H643 H 0.40961 0.17753 0.19193
 H644 H 0.48392 0.13340 0.20995
 H645 H 0.41599 0.02967 0.25570
 H646 H 0.34172 0.05815 0.21860
 H647 H 0.38327 0.13939 0.20782
 H648 H 0.36477 0.09936 0.20481
 C649 C 0.31143 0.42465 -0.10202
 C650 C 0.33438 0.41345 -0.11609
 C651 C 0.34543 0.42683 -0.13871
 C652 C 0.33392 0.45151 -0.14738
 C653 C 0.31105 0.46217 -0.13274
 N654 N 0.30060 0.44874 -0.11060
 C655 C 0.29906 0.41092 -0.07796
 N656 N 0.28593 0.42609 -0.05768
 C657 C 0.27454 0.41453 -0.03489
 C658 C 0.27591 0.38617 -0.03185
 C659 C 0.28916 0.37021 -0.05245
 C660 C 0.30055 0.38240 -0.07560
 H661 H 0.36295 0.41776 -0.14953
 H662 H 0.30176 0.48132 -0.13860
 H663 H 0.26460 0.42749 -0.01927
 H664 H 0.29053 0.34821 -0.05073
 H665 H 0.34408 0.39476 -0.10953
 H666 H 0.31003 0.36950 -0.09158
 C667 C 0.79988 0.92217 0.39805
 C668 C 0.82202 0.91002 0.38343
 C669 C 0.83334 0.92308 0.36077
 C670 C 0.82289 0.94837 0.35257
 C671 C 0.80092 0.96009 0.36789
 N672 N 0.79017 0.94693 0.39007
 C673 C 0.78698 0.90821 0.42166
 N674 N 0.77658 0.92302 0.44376
 C675 C 0.76519 0.91084 0.46626
 C676 C 0.76376 0.88230 0.46700
 C677 C 0.77393 0.86682 0.44435
 C678 C 0.78541 0.87961 0.42166
 H679 H 0.85013 0.91322 0.34945
 H680 H 0.79253 0.97976 0.36241
 H681 H 0.75746 0.92339 0.48343
 H682 H 0.77290 0.84471 0.44417
 H683 H 0.83072 0.89068 0.38954
 H684 H 0.79271 0.86718 0.40418
 C685 C 0.79043 0.06173 1.10502
 C686 C 0.77670 0.06424 1.13069
 C687 C 0.78797 0.05221 1.15403
 C688 C 0.81274 0.03718 1.15193
 C689 C 0.82526 0.03477 1.12539
 N690 N 0.81422 0.04723 1.10328
 C691 C 0.78142 0.07642 1.08029
 N692 N 0.80089 0.08490 1.06210
 C693 C 0.79478 0.09955 1.03942
 C694 C 0.76758 0.10635 1.03377
 C695 C 0.74701 0.09720 1.05175
 C696 C 0.75382 0.08230 1.07514
 H697 H 0.77682 0.05435 1.17350
 H698 H 0.84477 0.02456 1.12221
 H699 H 0.81138 0.10619 1.02638
 H700 H 0.72576 0.10219 1.04814
 H701 H 0.75798 0.07610 1.13299
 H702 H 0.73774 0.07552 1.08892
 C703 C 0.29196 0.56633 0.61093
 C704 C 0.27820 0.56364 0.63653
 C705 C 0.29199 0.55255 0.65892
 C706 C 0.31933 0.54388 0.65586
 C707 C 0.33212 0.54647 0.62981
 N708 N 0.31836 0.55748 0.60842
 C709 C 0.27911 0.57887 0.58654
 N710 N 0.29081 0.57430 0.56103
 C711 C 0.28158 0.58653 0.53787
 C712 C 0.25967 0.60513 0.53967
 C713 C 0.24661 0.60941 0.56548
 C714 C 0.25632 0.59652 0.58897
 H715 H 0.28120 0.55045 0.67850
 H716 H 0.35326 0.54034 0.62655
 H717 H 0.29150 0.58175 0.51817
 H718 H 0.22926 0.62307 0.56787
 H719 H 0.25701 0.56966 0.63937
 H720 H 0.24656 0.60122 0.60877
 C721 C 0.22127 0.55469 0.40657
 C722 C 0.20086 0.53476 0.40788
 C723 C 0.18981 0.52427 0.38339
 C724 C 0.19902 0.53344 0.35756
 C725 C 0.22023 0.55250 0.35707
 N726 N 0.23035 0.56282 0.38123
 C727 C 0.23096 0.56935 0.43175
 N728 N 0.24047 0.59522 0.42910
 C729 C 0.24742 0.61108 0.45133
 C730 C 0.24475 0.60111 0.47820
 C731 C 0.23581 0.57432 0.48158
 C732 C 0.22907 0.55825 0.45839
 H733 H 0.17355 0.50946 0.38464
 H734 H 0.22778 0.56024 0.33758
 H735 H 0.25408 0.63178 0.44801
 H736 H 0.23331 0.56610 0.50211
 H737 H 0.19242 0.52823 0.42746
 H738 H 0.22216 0.53760 0.46144
 C739 C 0.71097 0.06995 0.90402
 C740 C 0.68470 0.05889 0.90427
 C741 C 0.67368 0.04872 0.87968
 C742 C 0.68865 0.04932 0.85443
 C743 C 0.71533 0.05998 0.85545
 N744 N 0.72537 0.07022 0.87968
 C745 C 0.72274 0.08297 0.92907
 N746 N 0.74080 0.10365 0.92580
 C747 C 0.75181 0.11730 0.94771
 C748 C 0.74493 0.11018 0.97490
 C749 C 0.72654 0.08888 0.97890
 C750 C 0.71545 0.07512 0.95605
 H751 H 0.65358 0.03979 0.88089
 H752 H 0.72779 0.06172 0.83691
 H753 H 0.76552 0.13400 0.94373
 H754 H 0.72067 0.08293 0.99960
 H755 H 0.67234 0.05871 0.92306
 H756 H 0.70154 0.05846 0.95957
 C757 C 0.71572 0.93229 0.59981
 C758 C 0.73221 0.93603 0.62324
 C759 C 0.72164 0.94980 0.64675
 C760 C 0.69481 0.96019 0.64697
 C761 C 0.67933 0.95684 0.62279
 N762 N 0.68997 0.94310 0.60024
 C763 C 0.72521 0.91628 0.57496
 N764 N 0.71317 0.92051 0.55003
 C765 C 0.72019 0.90570 0.52669
 C766 C 0.74020 0.88512 0.52777
 C767 C 0.75253 0.88015 0.55324
 C768 C 0.74519 0.89565 0.57679
 H769 H 0.73448 0.95245 0.66471
 H770 H 0.65848 0.96436 0.62206
 H771 H 0.70995 0.90977 0.50744
 H772 H 0.76748 0.86394 0.55531
 H773 H 0.75310 0.92860 0.62351
 H774 H 0.75449 0.89075 0.59630
 C775 C 0.21594 0.43918 0.09578
 C776 C 0.18966 0.45106 0.09636
 C777 C 0.17945 0.46306 0.12096
 C778 C 0.19518 0.46324 0.14511
 C779 C 0.22143 0.45143 0.14360
 N780 N 0.23091 0.43980 0.11942
 C781 C 0.22734 0.42427 0.07101
 N782 N 0.24881 0.40687 0.07463
 C783 C 0.25980 0.39129 0.05358
 C784 C 0.24904 0.39258 0.02687
 C785 C 0.22726 0.41058 0.02235
 C786 C 0.21646 0.42668 0.04426
 H787 H 0.15884 0.47137 0.12130
 H788 H 0.23436 0.45131 0.16163
 H789 H 0.27638 0.37742 0.05810
 H790 H 0.21835 0.41188 0.00197
 H791 H 0.17655 0.45038 0.07850
 H792 H 0.19982 0.44060 0.04008
 C793 C -0.10228 0.29014 0.42550
 C794 C -0.10307 0.30134 0.45265
 C795 C -0.12792 0.31104 0.46396
 C796 C -0.15187 0.30976 0.44830
 C797 C -0.15032 0.29764 0.42168
 N798 N -0.12597 0.28850 0.41110
 C799 C -0.07656 0.28149 0.41101
 N800 N -0.07715 0.27795 0.38293
 C801 C -0.05475 0.27035 0.36764
 C802 C -0.02972 0.26589 0.38053
 C803 C -0.02845 0.26893 0.40943
 C804 C -0.05182 0.27677 0.42481
 H805 H -0.12818 0.32060 0.48444
 H806 H -0.16836 0.29590 0.40904
 H807 H -0.05655 0.26769 0.34538
 H808 H -0.00960 0.26500 0.42017
 H809 H -0.08478 0.30368 0.46474
 H810 H -0.05042 0.27859 0.44712
 C811 C 0.41099 0.79665 0.92985
 C812 C 0.40083 0.78749 0.95542
 C813 C 0.37580 0.79773 0.96581
 C814 C 0.36098 0.81707 0.95088
 C815 C 0.37166 0.82527 0.92526
 N816 N 0.39591 0.81498 0.91557
 C817 C 0.43700 0.78653 0.91704
 N818 N 0.44081 0.78995 0.88932
 C819 C 0.46374 0.78123 0.87555
 C820 C 0.48465 0.76803 0.88972
 C821 C 0.48181 0.76490 0.91840
 C822 C 0.45795 0.77409 0.93220
 H823 H 0.36826 0.79089 0.98568
 H824 H 0.36068 0.83974 0.91280
 H825 H 0.46539 0.78416 0.85340
 H826 H 0.49778 0.75524 0.93011
 H827 H 0.41171 0.77240 0.96715
 H828 H 0.45621 0.77168 0.95439
 C829 C 1.10687 0.78310 0.05322
 C830 C 1.10551 0.80885 0.04101
 C831 C 1.12921 0.82053 0.03045
 C832 C 1.15449 0.80681 0.03192
 C833 C 1.15506 0.78115 0.04440
 N834 N 1.13162 0.77018 0.05469
 C835 C 1.08253 0.77075 0.06651
 N836 N 1.08627 0.75235 0.08692
 C837 C 1.06508 0.74224 0.10196
 C838 C 1.03824 0.75123 0.09732
 C839 C 1.03371 0.76868 0.07522
 C840 C 1.05569 0.77838 0.05967
 H841 H 1.12783 0.84071 0.02181
 H842 H 1.17405 0.76979 0.04592
 H843 H 1.06952 0.72808 0.11816
 H844 H 1.01327 0.77529 0.07019
 H845 H 1.08664 0.82049 0.04041
 H846 H 1.05156 0.79196 0.04282
 C847 C 0.59393 0.28513 0.54618
 C848 C 0.59481 0.31349 0.54285
 C849 C 0.61863 0.32540 0.53301
 C850 C 0.64173 0.30923 0.52610
 C851 C 0.64005 0.28087 0.52980
 N852 N 0.61661 0.26972 0.53985
 C853 C 0.56968 0.27231 0.55885
 N854 N 0.57318 0.25063 0.57569
 C855 C 0.55225 0.24043 0.59104
 C856 C 0.52628 0.25280 0.59057
 C857 C 0.52174 0.27359 0.57169
 C858 C 0.54333 0.28339 0.55575
 H859 H 0.61910 0.34742 0.53156
 H860 H 0.65727 0.26756 0.52468
 H861 H 0.55641 0.22362 0.60452
 H862 H 0.50178 0.28296 0.56988
 H863 H 0.57766 0.32660 0.54881
 H864 H 0.53954 0.29997 0.54179
 C865 C 0.38918 0.21113 0.57093
 C866 C 0.37098 0.19694 0.58802
 C867 C 0.34711 0.18636 0.57694
 C868 C 0.34121 0.18977 0.54887
 C869 C 0.35972 0.20432 0.53246
 N870 N 0.38311 0.21427 0.54368
 C871 C 0.41531 0.22153 0.58181
 N872 N 0.43771 0.22248 0.56472
 C873 C 0.46269 0.23016 0.57413
 C874 C 0.46595 0.23713 0.60219
 C875 C 0.44308 0.23714 0.61990
 C876 C 0.41772 0.22954 0.60981
 H877 H 0.33331 0.17534 0.59031
 H878 H 0.35596 0.20711 0.51063
 H879 H 0.47998 0.23013 0.55989
 H880 H 0.44490 0.24268 0.64167
 H881 H 0.37540 0.19328 0.60956
 H882 H 0.40028 0.22989 0.62387
 C883 C 0.90523 0.69789 0.07101
 C884 C 0.88854 0.68073 0.08670
 C885 C 0.86519 0.66963 0.07497
 C886 C 0.85827 0.67547 0.04760
 C887 C 0.87544 0.69274 0.03251
 N888 N 0.89835 0.70321 0.04435
 C889 C 0.93019 0.70989 0.08307
 N890 N 0.95287 0.71353 0.06682
 C891 C 0.97664 0.72345 0.07734
 C892 C 0.97828 0.73027 0.10565
 C893 C 0.95506 0.72731 0.12250
 C894 C 0.93102 0.71720 0.11136
 H895 H 0.85246 0.65649 0.08736
 H896 H 0.87093 0.69747 0.01122
 H897 H 0.99419 0.72564 0.06372
 H898 H 0.95555 0.73270 0.14441
 H899 H 0.89366 0.67549 0.10771
 H900 H 0.91324 0.71531 0.12477
 C901 C 0.60911 0.70509 0.93488
 C902 C 0.60749 0.68124 0.95055
 C903 C 0.63096 0.67076 0.96267
 C904 C 0.65621 0.68375 0.95938
 C905 C 0.65706 0.70745 0.94358
 N906 N 0.63387 0.71734 0.93196
 C907 C 0.58511 0.71710 0.92066
 N908 N 0.58932 0.73887 0.90403
 C909 C 0.56890 0.75071 0.88953
 C910 C 0.54228 0.74058 0.89119
 C911 C 0.53724 0.71836 0.90815
 C912 C 0.55844 0.70668 0.92309
 H913 H 0.62943 0.65207 0.97416
 H914 H 0.67606 0.71822 0.94061
 H915 H 0.57374 0.76758 0.87631
 H916 H 0.51694 0.70982 0.90959
 H917 H 0.58868 0.67027 0.95333
 H918 H 0.55361 0.68964 0.93602
 C919 C 0.09558 0.21892 0.43164
 C920 C 0.09405 0.19436 0.44598
 C921 C 0.11650 0.18529 0.46071
 C922 C 0.14060 0.20058 0.46129
 C923 C 0.14101 0.22557 0.44745
 N924 N 0.11876 0.23404 0.43313
 C925 C 0.07296 0.22744 0.41371
 N926 N 0.06503 0.25418 0.41284
 C927 C 0.04382 0.26251 0.39689
 C928 C 0.02954 0.24344 0.38063
 C929 C 0.03819 0.21608 0.38050
 C930 C 0.05964 0.20799 0.39712
 H931 H 0.11534 0.16578 0.47079
 H932 H 0.15912 0.23808 0.44768
 H933 H 0.03803 0.28391 0.39700
 H934 H 0.02861 0.20073 0.36760
 H935 H 0.07578 0.18205 0.44544
 H936 H 0.06603 0.18674 0.39668
 C937 C 0.53891 0.14733 0.68348
 C938 C 0.53186 0.12039 0.67601
 C939 C 0.54464 0.09854 0.68883
 C940 C 0.56455 0.10331 0.70895
 C941 C 0.57066 0.13051 0.71621
 N942 N 0.55804 0.15149 0.70333
 C943 C 0.52764 0.17125 0.66903
 N944 N 0.54204 0.19494 0.66918
 C945 C 0.53382 0.21724 0.65503
 C946 C 0.50996 0.21633 0.63933
 C947 C 0.49444 0.19244 0.63948
 C948 C 0.50302 0.16999 0.65444
 H949 H 0.53974 0.07791 0.68215
 H950 H 0.58571 0.13512 0.73183
 H951 H 0.54635 0.23534 0.65539
 H952 H 0.47587 0.19070 0.62772
 H953 H 0.51754 0.11597 0.65967
 H954 H 0.49043 0.15197 0.65438
 C955 C 1.05171 0.65250 0.19692
 C956 C 1.07021 0.65523 0.21885
 C957 C 1.08122 0.63184 0.23070
 C958 C 1.07370 0.60572 0.22106
 C959 C 1.05422 0.60391 0.20004
 N960 N 1.04410 0.62694 0.18857
 C961 C 1.04082 0.67615 0.18157
 N962 N 1.02019 0.67153 0.16346
 C963 C 1.01020 0.69120 0.14686
 C964 C 1.02130 0.71747 0.14756
 C965 C 1.04234 0.72299 0.16621
 C966 C 1.05219 0.70245 0.18326
 H967 H 1.09580 0.63417 0.24726
 H968 H 1.04791 0.58423 0.19185
 H969 H 0.99422 0.68583 0.13255
 H970 H 1.05179 0.74290 0.16692
 H971 H 1.07639 0.67499 0.22683
 H972 H 1.06911 0.70712 0.19667
 C973 C 0.96361 0.84907 0.17589
 C974 C 0.93860 0.85927 0.16638
 C975 C 0.92670 0.88219 0.17934
 C976 C 0.93951 0.89509 0.20184
 C977 C 0.96453 0.88434 0.21081
 N978 N 0.97572 0.86171 0.19793
 C979 C 0.97647 0.82455 0.16257
 N980 N 0.99020 0.80620 0.17821
 C981 C 1.00094 0.78251 0.16709
 C982 C 0.99814 0.77640 0.13871
 C983 C 0.98444 0.79521 0.12232
 C984 C 0.97380 0.81931 0.13403
 H985 H 0.90746 0.88991 0.17170
 H986 H 0.97488 0.89361 0.22829
 H987 H 1.01100 0.76837 0.18056
 H988 H 0.98112 0.79101 0.10053
 H989 H 0.92800 0.84938 0.14940
 H990 H 0.96341 0.83358 0.12085
 C991 C 0.47098 0.35235 0.67976
 C992 C 0.48373 0.36379 0.70321
 C993 C 0.47304 0.38790 0.71545
 C994 C 0.44970 0.40029 0.70447
 C995 C 0.43807 0.38852 0.68071
 N996 N 0.44886 0.36528 0.66915
 C997 C 0.48046 0.32678 0.66572
 N998 N 0.47273 0.32228 0.63904
 C999 C 0.47886 0.29883 0.62476
 C1000 C 0.49334 0.27783 0.63740
 C1001 C 0.50137 0.28166 0.66500
 C1002 C 0.49512 0.30624 0.67924
 H1003 H 0.48256 0.39651 0.73376
 H1004 H 0.42034 0.39775 0.67135
 H1005 H 0.47151 0.29639 0.60382
 H1006 H 0.51201 0.26571 0.67574
 H1007 H 0.50174 0.35448 0.71190
 H1008 H 0.50088 0.30863 0.70073
 C1009 C 0.47445 0.65435 0.80353
 C1010 C 0.49080 0.63474 0.78909
 C1011 C 0.47894 0.61053 0.77924
 C1012 C 0.45103 0.60581 0.78394
 C1013 C 0.43533 0.62628 0.79748
 N1014 N 0.44727 0.64948 0.80691
 C1015 C 0.48536 0.67937 0.81711
 N1016 N 0.46805 0.69397 0.83426
 C1017 C 0.47593 0.71638 0.84895
 C1018 C 0.50289 0.72543 0.84698
 C1019 C 0.52123 0.71112 0.82930
 C1020 C 0.51257 0.68811 0.81416
 H1021 H 0.49171 0.59511 0.76890
 H1022 H 0.41362 0.62367 0.80102
 H1023 H 0.46115 0.72646 0.86260
 H1024 H 0.54230 0.71753 0.82751
 H1025 H 0.51252 0.63738 0.78606
 H1026 H 0.52715 0.67746 0.80070
 C1027 C -0.03548 0.14684 0.30349
 C1028 C -0.03191 0.12273 0.31827
 C1029 C -0.04229 0.09833 0.30783
 C1030 C -0.05608 0.09770 0.28255
 C1031 C -0.05744 0.12182 0.26731
 N1032 N -0.04751 0.14563 0.27817
 C1033 C -0.02817 0.17348 0.31620
 N1034 N -0.01707 0.19357 0.30057
 C1035 C -0.00926 0.21797 0.31206
 C1036 C -0.01258 0.22290 0.34067
 C1037 C -0.02504 0.20300 0.35674
 C1038 C -0.03278 0.17833 0.34467
 H1039 H -0.04022 0.08003 0.31989
 H1040 H -0.06775 0.12206 0.24759
 H1041 H 0.00002 0.23313 0.29904
 H1042 H -0.02816 0.20627 0.37887
 H1043 H -0.02176 0.12286 0.33810
 H1044 H -0.04232 0.16318 0.35754
 C1045 C 0.04634 0.34911 0.29387
 C1046 C 0.03136 0.37068 0.28246
 C1047 C 0.04495 0.39405 0.27382
 C1048 C 0.07337 0.39599 0.27661
 C1049 C 0.08771 0.37343 0.28683
 N1050 N 0.07404 0.35095 0.29519
 C1051 C 0.03283 0.32530 0.30634
 N1052 N 0.04670 0.30107 0.30758
 C1053 C 0.03657 0.27929 0.32133
 C1054 C 0.01154 0.28158 0.33568
 C1055 C -0.00320 0.30620 0.33448
 C1056 C 0.00722 0.32799 0.31968
 H1057 H 0.03317 0.41098 0.26596
 H1058 H 0.10973 0.37389 0.28872
 H1059 H 0.04860 0.26064 0.32205
 H1060 H -0.02232 0.30911 0.34567
 H1061 H 0.00937 0.36974 0.28056
 H1062 H -0.00402 0.34715 0.32003
 C1063 C 0.55260 0.85520 0.80733
 C1064 C 0.56259 0.85579 0.77985
 C1065 C 0.57284 0.88020 0.76952
 C1066 C 0.57326 0.90386 0.78650
 C1067 C 0.56225 0.90256 0.81345
 N1068 N 0.55261 0.87863 0.82307
 C1069 C 0.54353 0.82982 0.82071
 N1070 N 0.54241 0.82968 0.84894
 C1071 C 0.53442 0.80751 0.86323
 C1072 C 0.52688 0.78361 0.84904
 C1073 C 0.52748 0.78313 0.82000
 C1074 C 0.53586 0.80620 0.80568
 H1075 H 0.58147 0.88027 0.74872
 H1076 H 0.56177 0.92044 0.82709
 H1077 H 0.53381 0.80866 0.88569
 H1078 H 0.52118 0.76517 0.80837
 H1079 H 0.56358 0.83759 0.76675
 H1080 H 0.53572 0.80556 0.78325
 C1081 C 0.68518 0.54984 0.15821
 C1082 C 0.70595 0.56924 0.16000
 C1083 C 0.71832 0.57859 0.13587
 C1084 C 0.71063 0.56855 0.10936
 C1085 C 0.69086 0.54757 0.10894
 N1086 N 0.67868 0.53934 0.13283
 C1087 C 0.66961 0.54089 0.18298
 N1088 N 0.65477 0.51752 0.18118
 C1089 C 0.63895 0.50873 0.20257
 C1090 C 0.63716 0.52400 0.22747
 C1091 C 0.65243 0.54790 0.22995
 C1092 C 0.66850 0.55653 0.20780
 H1093 H 0.73478 0.59293 0.13857
 H1094 H 0.68331 0.53888 0.08978
 H1095 H 0.62778 0.48994 0.19991
 H1096 H 0.65180 0.56016 0.24886
 H1097 H 0.71299 0.57712 0.17974
 H1098 H 0.67917 0.57565 0.21011
 C1099 C 0.17486 1.04294 0.65157
 C1100 C 0.18900 1.02848 0.63027
 C1101 C 0.19930 1.04251 0.60756
 C1102 C 0.19546 1.07091 0.60585
 C1103 C 0.18149 1.08459 0.62785
 N1104 N 0.17177 1.07050 0.64979
 C1105 C 0.16274 1.02912 0.67571
 N1106 N 0.15942 1.04334 0.70017
 C1107 C 0.14692 1.03246 0.72268
 C1108 C 0.13632 1.00600 0.72112
 C1109 C 0.13948 0.99098 0.69617
 C1110 C 0.15280 1.00236 0.67350
 H1111 H 0.21052 1.03113 0.59153
 H1112 H 0.17771 1.10638 0.62742
 H1113 H 0.14441 1.04487 0.74144
 H1114 H 0.13116 0.97073 0.69376
 H1115 H 0.19242 1.00665 0.63123
 H1116 H 0.15421 0.99071 0.65417
 C1117 C 0.18505 0.95426 0.84723
 C1118 C 0.19865 0.97111 0.86627
 C1119 C 0.21170 0.95948 0.88886
 C1120 C 0.21186 0.93080 0.89254
 C1121 C 0.19817 0.91491 0.87218
 N1122 N 0.18516 0.92688 0.85093
 C1123 C 0.16898 0.96507 0.82415
 N1124 N 0.14688 0.95066 0.81568
 C1125 C 0.13111 0.95856 0.79434
 C1126 C 0.13763 0.98199 0.77960
 C1127 C 0.16013 0.99745 0.78800
 C1128 C 0.17592 0.98908 0.81035
 H1129 H 0.22242 0.97325 0.90264
 H1130 H 0.19584 0.89310 0.87379
 H1131 H 0.11340 0.94653 0.78922
 H1132 H 0.16553 1.01588 0.77735
 H1133 H 0.19868 0.99308 0.86418
 H1134 H 0.19355 1.00090 0.81633
 C1135 C 0.67733 0.47508 0.35715
 C1136 C 0.70462 0.48026 0.36417
 C1137 C 0.71650 0.46598 0.38582
 C1138 C 0.70131 0.44644 0.40002
 C1139 C 0.67397 0.44246 0.39286
 N1140 N 0.66282 0.45670 0.37195
 C1141 C 0.66385 0.48808 0.33360
 N1142 N 0.63617 0.49113 0.33452
 C1143 C 0.62180 0.50007 0.31258
 C1144 C 0.63525 0.50552 0.28755
 C1145 C 0.66378 0.50317 0.28613
 C1146 C 0.67824 0.49456 0.30921
 H1147 H 0.73768 0.46956 0.39094
 H1148 H 0.66157 0.42778 0.40367
 H1149 H 0.59975 0.50178 0.31433
 H1150 H 0.67481 0.50705 0.26703
 H1151 H 0.71661 0.49507 0.35311
 H1152 H 0.70016 0.49167 0.30748
 C1153 C 0.80510 0.45635 0.64358
 C1154 C 0.80412 0.47114 0.61890
 C1155 C 0.79358 0.45890 0.59497
 C1156 C 0.78354 0.43220 0.59556
 C1157 C 0.78381 0.41853 0.62083
 N1158 N 0.79461 0.43068 0.64376
 C1159 C 0.81808 0.46718 0.66916
 N1160 N 0.81358 0.45420 0.69350
 C1161 C 0.82639 0.46148 0.71738
 C1162 C 0.84537 0.48269 0.71752
 C1163 C 0.85006 0.49665 0.69291
 C1164 C 0.83656 0.48900 0.66874
 H1165 H 0.79316 0.47035 0.57601
 H1166 H 0.77628 0.39788 0.62217
 H1167 H 0.82247 0.45008 0.73597
 H1168 H 0.86491 0.51283 0.69191
 H1169 H 0.81129 0.49190 0.61780
 H1170 H 0.84163 0.49945 0.64989
 C1171 C 0.29879 -0.03066 0.14446
 C1172 C 0.27354 -0.04422 0.14414
 C1173 C 0.26485 -0.05701 0.11960
 C1174 C 0.28126 -0.05648 0.09551
 C1175 C 0.30571 -0.04181 0.09644
 N1176 N 0.31381 -0.02973 0.12052
 C1177 C 0.31110 -0.01929 0.17015
 N1178 N 0.33822 -0.01325 0.16933
 C1179 C 0.35189 -0.00418 0.19196
 C1180 C 0.33828 -0.00094 0.21751
 C1181 C 0.31025 -0.00622 0.21902
 C1182 C 0.29649 -0.01537 0.19535
 H1183 H 0.24597 -0.06838 0.11979
 H1184 H 0.31876 -0.04052 0.07820
 H1185 H 0.37354 -0.00007 0.19009
 H1186 H 0.29909 -0.00369 0.23847
 H1187 H 0.26107 -0.04609 0.16265
 H1188 H 0.27485 -0.01929 0.19702
 C1189 C 0.29251 0.04154 0.35344
 C1190 C 0.29761 0.02958 0.37912
 C1191 C 0.28663 0.04155 0.40341
 C1192 C 0.27064 0.06547 0.40234
 C1193 C 0.26538 0.07633 0.37620
 N1194 N 0.27653 0.06446 0.35286
 C1195 C 0.30595 0.03161 0.32729
 N1196 N 0.30824 0.04916 0.30587
 C1197 C 0.32216 0.04255 0.28203
 C1198 C 0.33530 0.01710 0.27895
 C1199 C 0.33213 -0.00185 0.30005
 C1200 C 0.31741 0.00524 0.32420
 H1201 H 0.29103 0.03231 0.42307
 H1202 H 0.25343 0.09490 0.37435
 H1203 H 0.32358 0.05752 0.26598
 H1204 H 0.34129 -0.02203 0.29813
 H1205 H 0.31079 0.01186 0.38084
 H1206 H 0.31532 -0.00980 0.34015
 C1207 C 0.80184 0.52011 0.85499
 C1208 C 0.77671 0.53432 0.85521
 C1209 C 0.76709 0.54686 0.87989
 C1210 C 0.78241 0.54519 0.90423
 C1211 C 0.80651 0.52940 0.90342
 N1212 N 0.81567 0.51786 0.87914
 C1213 C 0.81566 0.51045 0.82905
 N1214 N 0.84342 0.50874 0.82893
 C1215 C 0.85828 0.50190 0.80583
 C1216 C 0.84525 0.49614 0.78076
 C1217 C 0.81661 0.49734 0.78026
 C1218 C 0.80167 0.50441 0.80441
 H1219 H 0.74853 0.55909 0.87956
 H1220 H 0.81863 0.52707 0.92185
 H1221 H 0.88025 0.50197 0.80707
 H1222 H 0.80575 0.49362 0.76119
 H1223 H 0.76538 0.53718 0.83637
 H1224 H 0.77959 0.50527 0.80365
 C1225 C 0.13922 0.67903 0.54004
 C1226 C 0.11358 0.66876 0.53226
 C1227 C 0.08978 0.67980 0.54450
 C1228 C 0.09131 0.70086 0.56459
 C1229 C 0.11719 0.71099 0.57131
 N1230 N 0.14007 0.69989 0.55918
 C1231 C 0.16554 0.66690 0.52979
 N1232 N 0.18896 0.67450 0.54274
 C1233 C 0.21376 0.66324 0.53605
 C1234 C 0.21595 0.64262 0.51554
 C1235 C 0.19242 0.63509 0.50117
 C1236 C 0.16723 0.64723 0.50807
 H1237 H 0.07024 0.67114 0.53902
 H1238 H 0.11927 0.72749 0.58643
 H1239 H 0.23160 0.66982 0.54732
 H1240 H 0.19324 0.61949 0.48493
 H1241 H 0.11157 0.65185 0.51770
 H1242 H 0.14955 0.64089 0.49652
 C1243 C 0.66306 0.19257 1.05821
 C1244 C 0.65813 0.18929 1.08666
 C1245 C 0.63342 0.19840 1.09851
 C1246 C 0.61356 0.21114 1.08226
 C1247 C 0.61946 0.21418 1.05385
 N1248 N 0.64355 0.20471 1.04268
 C1249 C 0.68799 0.18112 1.04443
 N1250 N 0.68621 0.17058 1.01815
 C1251 C 0.70752 0.15727 1.00523
 C1252 C 0.73230 0.15378 1.01902
 C1253 C 0.73517 0.16577 1.04542
 C1254 C 0.71303 0.17942 1.05827
 H1255 H 0.62967 0.19480 1.12029
 H1256 H 0.60507 0.22417 1.04048
 H1257 H 0.70464 0.14854 0.98469
 H1258 H 0.75407 0.16346 1.05661
 H1259 H 0.67272 0.17887 1.09949
 H1260 H 0.71535 0.18805 1.07896
 C1261 C 0.86457 0.18422 0.96575
 C1262 C 0.88927 0.16969 0.96311
 C1263 C 0.91228 0.18228 0.95215
 C1264 C 0.91131 0.20978 0.94356
 C1265 C 0.88608 0.22390 0.94828
 N1266 N 0.86392 0.21096 0.95890
 C1267 C 0.83914 0.17089 0.97519
 N1268 N 0.81901 0.18605 0.98823
 C1269 C 0.79517 0.17477 0.99715
 C1270 C 0.79070 0.14677 0.99295
 C1271 C 0.81075 0.13104 0.97891
 C1272 C 0.83493 0.14292 0.97004
 H1273 H 0.93005 0.16928 0.94905
 H1274 H 0.88369 0.24539 0.94431
 H1275 H 0.77990 0.18760 1.00756
 H1276 H 0.80769 0.10944 0.97481
 H1277 H 0.89091 0.14858 0.96913
 H1278 H 0.84983 0.13033 0.95879
 C1279 C 0.34060 0.70110 0.47184
 C1280 C 0.33594 0.72401 0.45544
 C1281 C 0.35814 0.73743 0.44362
 C1282 C 0.38493 0.72827 0.44827
 C1283 C 0.38873 0.70593 0.46558
 N1284 N 0.36680 0.69288 0.47641
 C1285 C 0.31801 0.68407 0.48217
 N1286 N 0.32306 0.65705 0.48605
 C1287 C 0.30329 0.63960 0.49426
 C1288 C 0.27656 0.64910 0.49928
 C1289 C 0.27082 0.67690 0.49569
 C1290 C 0.29150 0.69450 0.48724
 H1291 H 0.35437 0.75463 0.43041
 H1292 H 0.40904 0.69803 0.46943
 H1293 H 0.30850 0.61828 0.49622
 H1294 H 0.25036 0.68502 0.49887
 H1295 H 0.31546 0.73080 0.45068
 H1296 H 0.28670 0.71593 0.48479
 C1297 C 0.64438 0.80981 0.45418
 C1298 C 0.63925 0.80719 0.42563
 C1299 C 0.61351 0.79938 0.41676
 C1300 C 0.59300 0.79341 0.43611
 C1301 C 0.59935 0.79425 0.46442
 N1302 N 0.62451 0.80271 0.47271
 C1303 C 0.67020 0.82196 0.46415
 N1304 N 0.68030 0.81552 0.48946
 C1305 C 0.70365 0.82691 0.49950
 C1306 C 0.71801 0.84595 0.48377
 C1307 C 0.70747 0.85331 0.45814
 C1308 C 0.68377 0.84145 0.44829
 H1309 H 0.60945 0.79835 0.39472
 H1310 H 0.58399 0.78944 0.47988
 H1311 H 0.71083 0.82131 0.51975
 H1312 H 0.71700 0.86876 0.44572
 H1313 H 0.65476 0.81158 0.41020
 H1314 H 0.67579 0.84826 0.42877
 C1315 C 0.15821 0.30977 -0.03885
 C1316 C 0.13389 0.31057 -0.02303
 C1317 C 0.10956 0.30172 -0.03504
 C1318 C 0.10943 0.29192 -0.06269
 C1319 C 0.13444 0.29071 -0.07738
 N1320 N 0.15769 0.29985 -0.06542
 C1321 C 0.18388 0.32180 -0.02866
 N1322 N 0.20111 0.33302 -0.04752
 C1323 C 0.22443 0.34586 -0.04008
 C1324 C 0.23171 0.34782 -0.01213
 C1325 C 0.21478 0.33577 0.00772
 C1326 C 0.19072 0.32279 -0.00043
 H1327 H 0.09076 0.30345 -0.02299
 H1328 H 0.13558 0.28274 -0.09848
 H1329 H 0.23668 0.35501 -0.05609
 H1330 H 0.21980 0.33705 0.02951
 H1331 H 0.13335 0.31906 -0.00210
 H1332 H 0.17772 0.31373 0.01513
 C1333 C 0.36132 0.30692 0.04132
 C1334 C 0.36601 0.27852 0.04041
 C1335 C 0.38994 0.26788 0.05173
 C1336 C 0.40928 0.28538 0.06376
 C1337 C 0.40401 0.31361 0.06369
 N1338 N 0.38060 0.32343 0.05271
 C1339 C 0.33639 0.32005 0.03031
 N1340 N 0.33681 0.34755 0.02678
 C1341 C 0.31492 0.36174 0.01762
 C1342 C 0.29057 0.34828 0.01162
 C1343 C 0.28933 0.32000 0.01492
 C1344 C 0.31222 0.30573 0.02439
 H1345 H 0.39335 0.24598 0.05097
 H1346 H 0.41806 0.32791 0.07308
 H1347 H 0.31654 0.38360 0.01515
 H1348 H 0.27077 0.30903 0.01038
 H1349 H 0.35169 0.26458 0.03097
 H1350 H 0.31063 0.28400 0.02743
 C1351 C 0.84815 0.79449 0.52964
 C1352 C 0.87487 0.80232 0.52261
 C1353 C 0.89693 0.79071 0.53608
 C1354 C 0.89255 0.77083 0.55600
 C1355 C 0.86582 0.76169 0.56069
 N1356 N 0.84441 0.77394 0.54789
 C1357 C 0.82435 0.81045 0.52016
 N1358 N 0.79975 0.79823 0.51590
 C1359 C 0.77710 0.81275 0.50851
 C1360 C 0.77859 0.84115 0.50582
 C1361 C 0.80357 0.85399 0.51036
 C1362 C 0.82640 0.83883 0.51745
 H1363 H 0.91737 0.79798 0.53177
 H1364 H 0.86182 0.74620 0.57586
 H1365 H 0.75808 0.80222 0.50511
 H1366 H 0.80538 0.87595 0.50873
 H1367 H 0.87865 0.81807 0.50766
 H1368 H 0.84525 0.84946 0.52166
   
