data_POSCAR
  _audit_creation_date              2014-09-24
  _audit_creation_method            'ToBaCCo'
  _symmetry_space_group_name_H-M    'P1'
  _symmetry_Int_Tables_number       1
  _symmetry_cell_setting            triclinic
  loop_
  _symmetry_equiv_pos_as_xyz
 x,y,z
_cell_length_a 57.8086
_cell_length_b 58.0761
_cell_length_c 57.2821
_cell_angle_alpha 89.616300
_cell_angle_beta 89.815800
_cell_angle_gamma 90.087200
loop_
  _atom_site_label
  _atom_site_type_symbol
  _atom_site_fract_x
  _atom_site_fract_y
  _atom_site_fract_z
N1 N 0.37534 0.31860 0.33269
 N2 N 0.37170 0.33193 0.31445
 C3 C 0.38729 0.32699 0.29774
 C4 C 0.40146 0.30971 0.30599
 C5 C 0.39345 0.30474 0.32826
 H6 H 0.38804 0.33507 0.28069
 H7 H 0.39968 0.29149 0.33998
 Cu8 Cu 0.34649 0.35381 0.31366
 Cu9 Cu 0.35480 0.31862 0.35963
 Cu10 Cu 0.31352 0.36174 0.36153
 N11 N 0.32730 0.38084 0.31726
 N12 N 0.31423 0.38395 0.33579
 C13 C 0.30190 0.40344 0.33290
 C14 C 0.30772 0.41295 0.31140
 C15 C 0.32386 0.39819 0.30203
 H16 H 0.28923 0.40977 0.34519
 H17 H 0.33197 0.39964 0.28504
 N18 N 0.31607 0.33747 0.38572
 N19 N 0.33221 0.32142 0.38518
 C20 C 0.32884 0.30673 0.40312
 C21 C 0.30963 0.31369 0.41546
 C22 C 0.30192 0.33332 0.40404
 H23 H 0.33891 0.29136 0.40638
 H24 H 0.28674 0.34333 0.40822
 H25 H 0.32568 0.33300 0.34426
 H26 H 0.34776 0.35350 0.35597
 N27 N 0.37490 0.82071 -0.17194
 N28 N 0.37542 0.83623 -0.18891
 C29 C 0.39382 0.83209 -0.20277
 C30 C 0.40535 0.81296 -0.19410
 C31 C 0.39300 0.80636 -0.17449
 H32 H 0.39809 0.84195 -0.21827
 H33 H 0.39655 0.79165 -0.16339
 Cu34 Cu 0.35130 0.85998 -0.19274
 Cu35 Cu 0.34956 0.81888 -0.14883
 Cu36 Cu 0.30657 0.85711 -0.15523
 N37 N 0.32849 0.88453 -0.19066
 N38 N 0.31067 0.88307 -0.17640
 C39 C 0.29659 0.90114 -0.18009
 C40 C 0.30601 0.91462 -0.19766
 C41 C 0.32640 0.90365 -0.20392
 H42 H 0.28032 0.90393 -0.17116
 H43 H 0.33826 0.90849 -0.21774
 N44 N 0.30824 0.83685 -0.12818
 N45 N 0.32539 0.82227 -0.12536
 C46 C 0.32153 0.80961 -0.10595
 C47 C 0.30081 0.81671 -0.09614
 C48 C 0.29290 0.83401 -0.11067
 H49 H 0.33239 0.79557 -0.10016
 H50 H 0.27674 0.84325 -0.10906
 H51 H 0.33357 0.83300 -0.17756
 H52 H 0.34835 0.85338 -0.15752
 N53 N 0.87815 0.32696 -0.15909
 N54 N 0.87679 0.34158 -0.17665
 C55 C 0.89298 0.33635 -0.19267
 C56 C 0.90524 0.31744 -0.18463
 C57 C 0.89550 0.31205 -0.16319
 H58 H 0.89552 0.34562 -0.20891
 H59 H 0.90024 0.29795 -0.15174
 Cu60 Cu 0.85400 0.36613 -0.17698
 Cu61 Cu 0.85619 0.32793 -0.13310
 Cu62 Cu 0.80427 0.35282 -0.14997
 N63 N 0.82673 0.38517 -0.18069
 N64 N 0.80702 0.37948 -0.17070
 C65 C 0.79049 0.39424 -0.17776
 C66 C 0.80047 0.41020 -0.19275
 C67 C 0.82359 0.40397 -0.19416
 H68 H 0.77251 0.39330 -0.17253
 H69 H 0.83692 0.41181 -0.20485
 N70 N 0.80714 0.33181 -0.12285
 N71 N 0.82708 0.32319 -0.11581
 C72 C 0.82344 0.31002 -0.09670
 C73 C 0.80003 0.31039 -0.09151
 C74 C 0.79026 0.32432 -0.10843
 H75 H 0.83673 0.30027 -0.08783
 H76 H 0.77213 0.32854 -0.11016
 H77 H 0.83348 0.33389 -0.15886
 H78 H 0.83704 0.35854 -0.13848
 N79 N 0.87781 0.82176 0.32971
 N80 N 0.88157 0.84229 0.32067
 C81 C 0.90078 0.84159 0.30732
 C82 C 0.90933 0.81936 0.30788
 C83 C 0.89429 0.80722 0.32227
 H84 H 0.90766 0.85596 0.29739
 H85 H 0.89511 0.78917 0.32696
 Cu86 Cu 0.85992 0.86734 0.32589
 Cu87 Cu 0.85130 0.81516 0.34967
 Cu88 Cu 0.82268 0.86319 0.37061
 N89 N 0.83360 0.88805 0.32861
 N90 N 0.81926 0.88672 0.34643
 C91 C 0.80273 0.90285 0.34401
 C92 C 0.80675 0.91476 0.32341
 C93 C 0.82661 0.90495 0.31409
 H94 H 0.78850 0.90532 0.35605
 H95 H 0.83523 0.90942 0.29790
 N96 N 0.82041 0.83274 0.38557
 N97 N 0.83037 0.81424 0.37687
 C98 C 0.82439 0.79583 0.38995
 C99 C 0.81005 0.80312 0.40772
 C100 C 0.80784 0.82665 0.40446
 H101 H 0.83005 0.77838 0.38682
 H102 H 0.79735 0.83838 0.41453
 H103 H 0.82976 0.84312 0.34308
 H104 H 0.85472 0.84718 0.36321
 N105 N 0.62420 0.68081 0.33013
 N106 N 0.62630 0.66771 0.31162
 C107 C 0.60959 0.67309 0.29624
 C108 C 0.59623 0.69039 0.30562
 C109 C 0.60595 0.69494 0.32718
 H110 H 0.60751 0.66531 0.27928
 H111 H 0.60076 0.70812 0.33936
 Cu112 Cu 0.65088 0.64522 0.30872
 Cu113 Cu 0.64664 0.67997 0.35552
 Cu114 Cu 0.68930 0.63827 0.35178
 N115 N 0.66974 0.61765 0.31105
 N116 N 0.68467 0.61490 0.32808
 C117 C 0.69651 0.59527 0.32471
 C118 C 0.68852 0.58516 0.30441
 C119 C 0.67151 0.59981 0.29626
 H120 H 0.71045 0.58937 0.33575
 H121 H 0.66177 0.59802 0.28027
 N122 N 0.68731 0.66020 0.37774
 N123 N 0.67122 0.67625 0.37915
 C124 C 0.67547 0.68939 0.39798
 C125 C 0.69511 0.68105 0.40892
 C126 C 0.70202 0.66250 0.39575
 H127 H 0.66534 0.70417 0.40305
 H128 H 0.71714 0.65195 0.39869
 H129 H 0.67384 0.66725 0.33680
 H130 H 0.65455 0.64547 0.35099
 N131 N 0.62375 0.18449 -0.16596
 N132 N 0.62073 0.16803 -0.18129
 C133 C 0.60246 0.17321 -0.19483
 C134 C 0.59363 0.19415 -0.18760
 C135 C 0.60756 0.20081 -0.16928
 H136 H 0.59651 0.16282 -0.20920
 H137 H 0.60638 0.21663 -0.15947
 Cu138 Cu 0.64221 0.14247 -0.18325
 Cu139 Cu 0.64954 0.18399 -0.14402
 Cu140 Cu 0.67172 0.12912 -0.13491
 N141 N 0.66254 0.11596 -0.18222
 N142 N 0.67373 0.11046 -0.16304
 C143 C 0.68666 0.09163 -0.16698
 C144 C 0.68365 0.08528 -0.19009
 C145 C 0.66819 0.10105 -0.19917
 H146 H 0.69802 0.08387 -0.15421
 H147 H 0.66193 0.10185 -0.21693
 N148 N 0.67653 0.15473 -0.11300
 N149 N 0.66900 0.17583 -0.11705
 C150 C 0.67696 0.18985 -0.10028
 C151 C 0.69024 0.17693 -0.08498
 C152 C 0.68945 0.15475 -0.09347
 H153 H 0.67352 0.20812 -0.09948
 H154 H 0.69849 0.13993 -0.08653
 H155 H 0.67091 0.15733 -0.15613
 H156 H 0.64294 0.15016 -0.14143
 N157 N 0.11774 0.68302 -0.16805
 N158 N 0.11608 0.66678 -0.18385
 C159 C 0.09862 0.67192 -0.19846
 C160 C 0.08884 0.69242 -0.19149
 C161 C 0.10137 0.69903 -0.17209
 H162 H 0.09343 0.66166 -0.21325
 H163 H 0.09882 0.71428 -0.16167
 Cu164 Cu 0.13737 0.64088 -0.18398
 Cu165 Cu 0.14095 0.68208 -0.14339
 Cu166 Cu 0.17787 0.63494 -0.14266
 N167 N 0.15866 0.61498 -0.18411
 N168 N 0.17427 0.61260 -0.16762
 C169 C 0.18761 0.59424 -0.17240
 C170 C 0.17999 0.58468 -0.19307
 C171 C 0.16162 0.59824 -0.19999
 H172 H 0.20239 0.58899 -0.16218
 H173 H 0.15180 0.59650 -0.21592
 N174 N 0.17892 0.65948 -0.11909
 N175 N 0.16546 0.67783 -0.11983
 C176 C 0.17159 0.69219 -0.10251
 C177 C 0.18970 0.68231 -0.09032
 C178 C 0.19378 0.66159 -0.10117
 H179 H 0.16359 0.70864 -0.09912
 H180 H 0.20716 0.64935 -0.09672
 H181 H 0.16524 0.66286 -0.16126
 H182 H 0.14418 0.64681 -0.14254
 N183 N 0.12274 0.17388 0.33315
 N184 N 0.12344 0.15756 0.31736
 C185 C 0.10690 0.16151 0.30134
 C186 C 0.09540 0.18148 0.30733
 C187 C 0.10580 0.18883 0.32771
 H188 H 0.10379 0.15095 0.28619
 H189 H 0.10154 0.20392 0.33781
 Cu190 Cu 0.14642 0.13311 0.31885
 Cu191 Cu 0.14425 0.17440 0.35925
 Cu192 Cu 0.19611 0.14830 0.34489
 N193 N 0.17399 0.11415 0.31653
 N194 N 0.19358 0.12058 0.32611
 C195 C 0.21035 0.10575 0.31995
 C196 C 0.20069 0.08896 0.30606
 C197 C 0.17754 0.09481 0.30420
 H198 H 0.22834 0.10732 0.32484
 H199 H 0.16455 0.08635 0.29375
 N200 N 0.19290 0.17067 0.37051
 N201 N 0.17291 0.17981 0.37661
 C202 C 0.17605 0.19335 0.39532
 C203 C 0.19923 0.19267 0.40126
 C204 C 0.20938 0.17820 0.38518
 H205 H 0.16252 0.20316 0.40368
 H206 H 0.22740 0.17324 0.38448
 H207 H 0.16708 0.16649 0.33403
 H208 H 0.16322 0.14334 0.35649
 N209 N 0.62480 0.31396 0.66328
 N210 N 0.62360 0.32990 0.67945
 C211 C 0.60640 0.32454 0.69448
 C212 C 0.59634 0.30418 0.68721
 C213 C 0.60850 0.29789 0.66749
 H214 H 0.60196 0.33431 0.70986
 H215 H 0.60573 0.28273 0.65699
 Cu216 Cu 0.64550 0.35535 0.67935
 Cu217 Cu 0.64678 0.31573 0.63741
 Cu218 Cu 0.69302 0.35296 0.64647
 N219 N 0.66722 0.38094 0.67858
 N220 N 0.68589 0.37989 0.66546
 C221 C 0.69925 0.39841 0.66962
 C222 C 0.68836 0.41173 0.68635
 C223 C 0.66808 0.40016 0.69159
 H224 H 0.71610 0.40123 0.66188
 H225 H 0.65556 0.40484 0.70479
 N226 N 0.69319 0.32884 0.62231
 N227 N 0.67533 0.31514 0.61852
 C228 C 0.68061 0.30064 0.60108
 C229 C 0.70283 0.30550 0.59346
 C230 C 0.71030 0.32338 0.60732
 H231 H 0.66938 0.28707 0.59495
 H232 H 0.72702 0.33175 0.60652
 H233 H 0.67077 0.32749 0.66022
 H234 H 0.65913 0.34951 0.63962
 N235 N 0.62424 0.82191 1.16424
 N236 N 0.62508 0.83632 1.18185
 C237 C 0.60775 0.83137 1.19687
 C238 C 0.59530 0.81295 1.18810
 C239 C 0.60619 0.80751 1.16732
 H240 H 0.60448 0.84049 1.21293
 H241 H 0.60156 0.79379 1.15553
 Cu242 Cu 0.64866 0.86036 1.18331
 Cu243 Cu 0.64692 0.82270 1.13878
 Cu244 Cu 0.69669 0.85314 1.15186
 N245 N 0.67326 0.88352 1.18314
 N246 N 0.69180 0.88049 1.17018
 C247 C 0.70681 0.89772 1.17378
 C248 C 0.69738 0.91241 1.18993
 C249 C 0.67598 0.90297 1.19563
 H250 H 0.72384 0.89892 1.16596
 H251 H 0.66374 0.90930 1.20836
 N252 N 0.69495 0.83120 1.12629
 N253 N 0.67603 0.81977 1.12071
 C254 C 0.68072 0.80650 1.10201
 C255 C 0.70363 0.81014 1.09562
 C256 C 0.71198 0.82587 1.11132
 H257 H 0.66844 0.79512 1.09376
 H258 H 0.72928 0.83298 1.11174
 H259 H 0.67045 0.83038 1.16319
 H260 H 0.66263 0.85484 1.14343
 N261 N 0.12434 0.32405 1.16196
 N262 N 0.12383 0.33912 1.17911
 C263 C 0.10642 0.33355 1.19381
 C264 C 0.09552 0.31407 1.18540
 C265 C 0.10721 0.30862 1.16521
 H266 H 0.10223 0.34275 1.20961
 H267 H 0.10382 0.29402 1.15411
 Cu268 Cu 0.14646 0.36447 1.18177
 Cu269 Cu 0.14817 0.32416 1.13737
 Cu270 Cu 0.18793 0.36603 1.14053
 N271 N 0.17043 0.38818 1.18127
 N272 N 0.18687 0.38877 1.16534
 C273 C 0.20159 0.40605 1.17027
 C274 C 0.19389 0.41693 1.19019
 C275 C 0.17403 0.40516 1.19673
 H276 H 0.21709 0.41017 1.16047
 H277 H 0.16345 0.40816 1.21199
 N278 N 0.18887 0.34332 1.11567
 N279 N 0.17312 0.32701 1.11468
 C280 C 0.17814 0.31280 1.09695
 C281 C 0.19821 0.32054 1.08625
 C282 C 0.20449 0.34001 1.09848
 H283 H 0.16816 0.29770 1.09257
 H284 H 0.21973 0.35047 1.09549
 H285 H 0.16541 0.33958 1.16481
 H286 H 0.14681 0.35856 1.14641
 N287 N 0.11273 0.82738 0.65760
 N288 N 0.11387 0.84104 0.67579
 C289 C 0.09688 0.83535 0.69092
 C290 C 0.08439 0.81722 0.68155
 C291 C 0.09482 0.81278 0.66035
 H292 H 0.09412 0.84349 0.70761
 H293 H 0.09029 0.79932 0.64821
 Cu294 Cu 0.13816 0.86421 0.67803
 Cu295 Cu 0.13535 0.82868 0.63236
 Cu296 Cu 0.18587 0.85811 0.64575
 N297 N 0.16198 0.88803 0.67747
 N298 N 0.18080 0.88535 0.66482
 C299 C 0.19538 0.90295 0.66882
 C300 C 0.18510 0.91757 0.68482
 C301 C 0.16390 0.90758 0.68987
 H302 H 0.21241 0.90450 0.66112
 H303 H 0.15127 0.91366 0.70235
 N304 N 0.18374 0.83562 0.62026
 N305 N 0.16437 0.82491 0.61474
 C306 C 0.16863 0.81038 0.59701
 C307 C 0.19181 0.81215 0.59110
 C308 C 0.20080 0.82834 0.60610
 H309 H 0.15593 0.79894 0.58952
 H310 H 0.21858 0.83407 0.60689
 H311 H 0.16000 0.83514 0.65681
 H312 H 0.15219 0.86031 0.63804
 N313 N 0.38144 0.67904 0.67020
 N314 N 0.37776 0.66617 0.68880
 C315 C 0.39425 0.67056 0.70472
 C316 C 0.40888 0.68720 0.69567
 C317 C 0.40030 0.69216 0.67368
 H318 H 0.39511 0.66286 0.72194
 H319 H 0.40675 0.70487 0.66142
 Cu320 Cu 0.35084 0.64631 0.69131
 Cu321 Cu 0.36017 0.67962 0.64400
 Cu322 Cu 0.31492 0.64045 0.64546
 N323 N 0.32849 0.62145 0.68976
 N324 N 0.31443 0.61904 0.67194
 C325 C 0.30054 0.60075 0.67594
 C326 C 0.30631 0.59131 0.69744
 C327 C 0.32404 0.60489 0.70567
 H328 H 0.28700 0.59509 0.66433
 H329 H 0.33285 0.60298 0.72220
 N330 N 0.31890 0.66362 0.62025
 N331 N 0.33676 0.67779 0.61925
 C332 C 0.33452 0.69170 0.60050
 C333 C 0.31413 0.68635 0.58938
 C334 C 0.30463 0.66840 0.60228
 H335 H 0.34623 0.70554 0.59587
 H336 H 0.28837 0.65980 0.59908
 H337 H 0.33050 0.66817 0.66122
 H338 H 0.34992 0.64551 0.64893
 N339 N 0.37639 0.18314 1.17206
 N340 N 0.37690 0.16564 1.18671
 C341 C 0.39540 0.16778 1.20073
 C342 C 0.40704 0.18769 1.19458
 C343 C 0.39448 0.19710 1.17631
 H344 H 0.39955 0.15631 1.21506
 H345 H 0.39757 0.21333 1.16746
 Cu346 Cu 0.35193 0.14323 1.18780
 Cu347 Cu 0.35082 0.18759 1.15045
 Cu348 Cu 0.31980 0.13754 1.13954
 N349 N 0.32857 0.11940 1.18536
 N350 N 0.31647 0.11666 1.16617
 C351 C 0.30213 0.09853 1.16898
 C352 C 0.30536 0.08970 1.19125
 C353 C 0.32209 0.10341 1.20117
 H354 H 0.28980 0.09277 1.15610
 H355 H 0.32897 0.10184 1.21864
 N356 N 0.31809 0.16526 1.11947
 N357 N 0.32952 0.18441 1.12400
 C358 C 0.32351 0.20068 1.10837
 C359 C 0.30751 0.19141 1.09330
 C360 C 0.30436 0.16891 1.10084
 H361 H 0.32988 0.21820 1.10825
 H362 H 0.29233 0.15642 1.09395
 H363 H 0.32589 0.16382 1.16188
 H364 H 0.35208 0.15310 1.14621
 N365 N 0.88235 0.67394 1.16802
 N366 N 0.87998 0.66016 1.18618
 C367 C 0.89461 0.66681 1.20307
 C368 C 0.90702 0.68555 1.19493
 C369 C 0.89888 0.68961 1.17256
 H370 H 0.89607 0.65868 1.22005
 H371 H 0.90398 0.70332 1.16074
 Cu372 Cu 0.85838 0.63453 1.18585
 Cu373 Cu 0.86272 0.67103 1.14053
 Cu374 Cu 0.81102 0.64337 1.15371
 N375 N 0.83249 0.61326 1.18703
 N376 N 0.81380 0.61706 1.17459
 C377 C 0.79786 0.60095 1.17975
 C378 C 0.80715 0.58611 1.19609
 C379 C 0.82919 0.59439 1.20041
 H380 H 0.78066 0.60027 1.17240
 H381 H 0.84148 0.58780 1.21297
 N382 N 0.81498 0.66403 1.12669
 N383 N 0.83486 0.67382 1.12104
 C384 C 0.83187 0.68676 1.10169
 C385 C 0.80896 0.68491 1.09494
 C386 C 0.79883 0.67038 1.11112
 H387 H 0.84515 0.69738 1.09374
 H388 H 0.78088 0.66512 1.11167
 H389 H 0.83802 0.66458 1.16433
 H390 H 0.84504 0.63943 1.14553
 N391 N 0.87378 0.18209 0.67071
 N392 N 0.87155 0.16995 0.69003
 C393 C 0.88728 0.17714 0.70564
 C394 C 0.90006 0.19467 0.69555
 C395 C 0.89107 0.19740 0.67333
 H396 H 0.88906 0.17046 0.72321
 H397 H 0.89610 0.21009 0.66039
 Cu398 Cu 0.84770 0.14666 0.69363
 Cu399 Cu 0.85262 0.17864 0.64464
 Cu400 Cu 0.81345 0.13358 0.64808
 N401 N 0.82886 0.11900 0.69336
 N402 N 0.81534 0.11398 0.67571
 C403 C 0.80338 0.09466 0.68083
 C404 C 0.80989 0.08724 0.70288
 C405 C 0.82609 0.10303 0.71025
 H406 H 0.79057 0.08698 0.66958
 H407 H 0.83470 0.10320 0.72698
 N408 N 0.81448 0.15543 0.62163
 N409 N 0.82965 0.17239 0.62021
 C410 C 0.82506 0.18520 0.60111
 C411 C 0.80605 0.17585 0.59003
 C412 C 0.79982 0.15702 0.60346
 H413 H 0.83413 0.20083 0.59638
 H414 H 0.78502 0.14595 0.60073
 H415 H 0.82490 0.16414 0.66247
 H416 H 0.84752 0.14389 0.65136
 N417 N 0.32235 0.38280 0.66692
 N418 N 0.33619 0.37880 0.68466
 C419 C 0.33108 0.39349 0.70199
 C420 C 0.31321 0.40752 0.69467
 C421 C 0.30812 0.40034 0.67225
 H422 H 0.33935 0.39366 0.71890
 H423 H 0.29467 0.40679 0.66089
 Cu424 Cu 0.35886 0.35412 0.68374
 Cu425 Cu 0.32324 0.36410 0.63879
 Cu426 Cu 0.34876 0.31062 0.64732
 N427 N 0.38047 0.32862 0.68109
 N428 N 0.37606 0.31126 0.66717
 C429 C 0.39214 0.29482 0.67037
 C430 C 0.40761 0.30239 0.68698
 C431 C 0.39969 0.32393 0.69347
 H432 H 0.39221 0.27832 0.66173
 H433 H 0.40667 0.33482 0.70696
 N434 N 0.32751 0.31742 0.62139
 N435 N 0.31849 0.33797 0.61761
 C436 C 0.30491 0.33706 0.59857
 C437 C 0.30544 0.31490 0.58998
 C438 C 0.32000 0.30290 0.60485
 H439 H 0.29484 0.35130 0.59184
 H440 H 0.32472 0.28493 0.60388
 H441 H 0.32791 0.33708 0.66062
 H442 H 0.35375 0.34476 0.64257
 N443 N 0.32386 0.87777 0.16252
 N444 N 0.33673 0.87391 0.18102
 C445 C 0.33039 0.88843 0.19810
 C446 C 0.31280 0.90229 0.18977
 C447 C 0.30912 0.89512 0.16706
 H448 H 0.33781 0.88880 0.21540
 H449 H 0.29626 0.90147 0.15496
 Cu450 Cu 0.36033 0.85006 0.18087
 Cu451 Cu 0.32677 0.85931 0.13429
 Cu452 Cu 0.35638 0.80779 0.14200
 N453 N 0.38476 0.82720 0.17790
 N454 N 0.38283 0.81032 0.16284
 C455 C 0.40049 0.79554 0.16582
 C456 C 0.41438 0.80370 0.18351
 C457 C 0.40391 0.82388 0.19082
 H458 H 0.40262 0.77962 0.15637
 H459 H 0.40909 0.83463 0.20522
 N460 N 0.33533 0.81354 0.11569
 N461 N 0.32470 0.83338 0.11225
 C462 C 0.31153 0.83178 0.09296
 C463 C 0.31397 0.80991 0.08391
 C464 C 0.32928 0.79883 0.09872
 H465 H 0.30032 0.84524 0.08643
 H466 H 0.33542 0.78131 0.09747
 H467 H 0.33237 0.83156 0.15521
 H468 H 0.35841 0.84226 0.13914
 N469 N 0.81346 0.36707 0.16951
 N470 N 0.83062 0.37155 0.18380
 C471 C 0.82529 0.39015 0.19659
 C472 C 0.80349 0.39761 0.19008
 C473 C 0.79644 0.38251 0.17295
 H474 H 0.83601 0.39707 0.21029
 H475 H 0.78001 0.38248 0.16397
 Cu476 Cu 0.85687 0.35088 0.18609
 Cu477 Cu 0.81426 0.34063 0.14864
 Cu478 Cu 0.86956 0.31858 0.13975
 N479 N 0.88370 0.33090 0.18606
 N480 N 0.88886 0.31833 0.16776
 C481 C 0.90797 0.30588 0.17245
 C482 C 0.91487 0.31079 0.19504
 C483 C 0.89909 0.32668 0.20311
 H484 H 0.91568 0.29365 0.16060
 H485 H 0.89864 0.33423 0.22031
 N486 N 0.84354 0.31302 0.11821
 N487 N 0.82238 0.32062 0.12219
 C488 C 0.80824 0.31280 0.10540
 C489 C 0.82109 0.29954 0.09014
 C490 C 0.84341 0.30018 0.09869
 H491 H 0.78997 0.31660 0.10437
 H492 H 0.85829 0.29134 0.09161
 H493 H 0.84170 0.32043 0.16126
 H494 H 0.84823 0.34741 0.14467
 N495 N 0.81214 0.87891 0.66591
 N496 N 0.82827 0.87995 0.68198
 C497 C 0.82354 0.89750 0.69647
 C498 C 0.80331 0.90795 0.68904
 C499 C 0.79662 0.89577 0.66957
 H500 H 0.83369 0.90191 0.71161
 H501 H 0.78117 0.89852 0.65933
 Cu502 Cu 0.85295 0.85723 0.68313
 Cu503 Cu 0.81143 0.85432 0.64304
 Cu504 Cu 0.85677 0.81516 0.64312
 N505 N 0.87760 0.83459 0.68421
 N506 N 0.87922 0.81823 0.66850
 C507 C 0.89753 0.80478 0.67367
 C508 C 0.90777 0.81321 0.69375
 C509 C 0.89468 0.83203 0.69990
 H510 H 0.90263 0.78976 0.66389
 H511 H 0.89729 0.84280 0.71501
 N512 N 0.83205 0.81535 0.61914
 N513 N 0.81531 0.83081 0.61879
 C514 C 0.80150 0.82681 0.60040
 C515 C 0.80956 0.80769 0.58887
 C516 C 0.82899 0.80079 0.60113
 H517 H 0.78624 0.83664 0.59599
 H518 H 0.84000 0.78627 0.59724
 H519 H 0.83018 0.82927 0.66138
 H520 H 0.84690 0.84919 0.64202
 N521 N 0.67591 0.62151 0.66910
 N522 N 0.66317 0.62619 0.68752
 C523 C 0.66794 0.61078 0.70454
 C524 C 0.68432 0.59556 0.69618
 C525 C 0.68900 0.60290 0.67365
 H526 H 0.66032 0.61079 0.72181
 H527 H 0.70180 0.59594 0.66185
 Cu528 Cu 0.64174 0.65210 0.68771
 Cu529 Cu 0.67683 0.64134 0.64168
 Cu530 Cu 0.63643 0.68486 0.63941
 N531 N 0.61502 0.67201 0.68269
 N532 N 0.61250 0.68384 0.66321
 C533 C 0.59294 0.69628 0.66441
 C534 C 0.58279 0.69233 0.68588
 C535 C 0.59721 0.67678 0.69710
 H536 H 0.58712 0.70825 0.65113
 H537 H 0.59513 0.66976 0.71452
 N538 N 0.65940 0.68000 0.61460
 N539 N 0.67505 0.66352 0.61560
 C540 C 0.68978 0.66602 0.59749
 C541 C 0.68295 0.68497 0.58449
 C542 C 0.66357 0.69328 0.59570
 H543 H 0.70484 0.65541 0.59453
 H544 H 0.65401 0.70862 0.59107
 H545 H 0.66474 0.67075 0.65698
 H546 H 0.64244 0.65046 0.64536
 N547 N 0.68077 0.12285 0.17564
 N548 N 0.66764 0.12674 0.19397
 C549 C 0.67226 0.11112 0.21070
 C550 C 0.68911 0.09651 0.20250
 C551 C 0.69420 0.10437 0.18012
 H552 H 0.66421 0.11058 0.22776
 H553 H 0.70733 0.09781 0.16844
 Cu554 Cu 0.64599 0.15194 0.19489
 Cu555 Cu 0.68098 0.14380 0.14865
 Cu556 Cu 0.64216 0.18952 0.15083
 N557 N 0.61880 0.17084 0.19073
 N558 N 0.61737 0.18597 0.17366
 C559 C 0.59792 0.19842 0.17636
 C560 C 0.58657 0.19041 0.19617
 C561 C 0.60023 0.17287 0.20473
 H562 H 0.59299 0.21274 0.16530
 H563 H 0.59747 0.16317 0.22068
 N564 N 0.66414 0.18511 0.12496
 N565 N 0.67851 0.16749 0.12367
 C566 C 0.69192 0.17017 0.10451
 C567 C 0.68560 0.19045 0.09335
 C568 C 0.66798 0.19938 0.10675
 H569 H 0.70602 0.15893 0.09977
 H570 H 0.65918 0.21556 0.10385
 H571 H 0.67014 0.17235 0.16608
 H572 H 0.64695 0.15461 0.15257
 N573 N 0.18233 0.62287 0.16581
 N574 N 0.16789 0.62403 0.18354
 C575 C 0.17304 0.60722 0.19899
 C576 C 0.19175 0.59499 0.19044
 C577 C 0.19719 0.60539 0.16941
 H578 H 0.16425 0.60451 0.21547
 H579 H 0.21123 0.60083 0.15782
 Cu580 Cu 0.14455 0.64810 0.18516
 Cu581 Cu 0.18152 0.64469 0.13991
 Cu582 Cu 0.13889 0.68657 0.14139
 N583 N 0.12072 0.67175 0.18577
 N584 N 0.11820 0.68628 0.16826
 C585 C 0.10070 0.70078 0.17307
 C586 C 0.09188 0.69508 0.19484
 C587 C 0.10501 0.67667 0.20243
 H588 H 0.09532 0.71485 0.16191
 H589 H 0.10328 0.66771 0.21895
 N590 N 0.16156 0.68410 0.11578
 N591 N 0.17789 0.66825 0.11534
 C592 C 0.19166 0.67208 0.09671
 C593 C 0.18362 0.69131 0.08492
 C594 C 0.16451 0.69842 0.09741
 H595 H 0.20686 0.66210 0.09256
 H596 H 0.15416 0.71353 0.09385
 H597 H 0.16696 0.67185 0.15801
 H598 H 0.14667 0.65192 0.14283
 N599 N 0.17578 0.12570 0.66909
 N600 N 0.16372 0.12941 0.68820
 C601 C 0.16910 0.11321 0.70422
 C602 C 0.18530 0.09856 0.69461
 C603 C 0.18916 0.10700 0.67227
 H604 H 0.16211 0.11236 0.72175
 H605 H 0.20143 0.10062 0.65960
 Cu606 Cu 0.14264 0.15538 0.69080
 Cu607 Cu 0.17496 0.14659 0.64239
 Cu608 Cu 0.13522 0.19088 0.64495
 N609 N 0.11622 0.17609 0.68875
 N610 N 0.11301 0.18939 0.67040
 C611 C 0.09420 0.20255 0.67387
 C612 C 0.08517 0.19728 0.69566
 C613 C 0.09958 0.18046 0.70464
 H614 H 0.08830 0.21578 0.66193
 H615 H 0.09838 0.17249 0.72172
 N616 N 0.15610 0.18652 0.61821
 N617 N 0.17149 0.16978 0.61731
 C618 C 0.18469 0.17271 0.59809
 C619 C 0.17713 0.19219 0.58636
 C620 C 0.15891 0.20037 0.59948
 H621 H 0.19929 0.16202 0.59352
 H622 H 0.14928 0.21601 0.59622
 H623 H 0.16426 0.17531 0.65977
 H624 H 0.14098 0.15609 0.64840
 N625 N 0.31907 0.62728 0.32775
 N626 N 0.33805 0.62541 0.31521
 C627 C 0.33637 0.60650 0.30175
 C628 C 0.31529 0.59599 0.30637
 C629 C 0.30475 0.60975 0.32287
 H630 H 0.34922 0.60106 0.28919
 H631 H 0.28760 0.60776 0.33022
 Cu632 Cu 0.36206 0.64905 0.31711
 Cu633 Cu 0.31337 0.65334 0.34799
 Cu634 Cu 0.36367 0.68000 0.36646
 N635 N 0.38648 0.67157 0.32255
 N636 N 0.38725 0.68333 0.34210
 C637 C 0.40564 0.69759 0.34147
 C638 C 0.41678 0.69494 0.32027
 C639 C 0.40418 0.67822 0.30868
 H640 H 0.41014 0.70956 0.35512
 H641 H 0.40746 0.67154 0.29142
 N642 N 0.33399 0.68215 0.38359
 N643 N 0.31474 0.67280 0.37570
 C644 C 0.29710 0.67837 0.38985
 C645 C 0.30552 0.69185 0.40758
 C646 C 0.32904 0.69399 0.40318
 H647 H 0.27933 0.67308 0.38740
 H648 H 0.34143 0.70399 0.41295
 H649 H 0.34024 0.67661 0.34047
 H650 H 0.34672 0.64952 0.35686
 N651 N 0.32156 0.11902 0.83271
 N652 N 0.33552 0.12109 0.81463
 C653 C 0.33000 0.10502 0.79873
 C654 C 0.31163 0.09215 0.80741
 C655 C 0.30684 0.10144 0.82904
 H656 H 0.33859 0.10300 0.78209
 H657 H 0.29337 0.09606 0.84105
 Cu658 Cu 0.35929 0.14489 0.81360
 Cu659 Cu 0.32337 0.13952 0.85957
 Cu660 Cu 0.35512 0.18938 0.84971
 N661 N 0.38383 0.16792 0.81526
 N662 N 0.38199 0.18517 0.82988
 C663 C 0.39985 0.19968 0.82674
 C664 C 0.41366 0.19121 0.80916
 C665 C 0.40307 0.17094 0.80218
 H666 H 0.40200 0.21583 0.83579
 H667 H 0.40837 0.15981 0.78809
 N668 N 0.33321 0.18591 0.87559
 N669 N 0.32142 0.16685 0.87984
 C670 C 0.30772 0.17026 0.89860
 C671 C 0.31132 0.19251 0.90643
 C672 C 0.32756 0.20184 0.89150
 H673 H 0.29564 0.15772 0.90555
 H674 H 0.33445 0.21915 0.89198
 H675 H 0.33083 0.16544 0.83713
 H676 H 0.35583 0.15491 0.85474
 N677 N 0.80995 0.62935 0.82442
 N678 N 0.82890 0.62268 0.81370
 C679 C 0.82425 0.60379 0.80107
 C680 C 0.80104 0.59846 0.80398
 C681 C 0.79248 0.61512 0.81876
 H682 H 0.83661 0.59513 0.78998
 H683 H 0.77482 0.61689 0.82479
 Cu684 Cu 0.85725 0.64051 0.81575
 Cu685 Cu 0.80927 0.65650 0.84414
 Cu686 Cu 0.86299 0.67844 0.85910
 N687 N 0.88151 0.66372 0.81514
 N688 N 0.88410 0.67831 0.83240
 C689 C 0.90182 0.69260 0.82740
 C690 C 0.91064 0.68672 0.80571
 C691 C 0.89735 0.66833 0.79848
 H692 H 0.90720 0.70670 0.83838
 H693 H 0.89875 0.65933 0.78206
 N694 N 0.83477 0.68472 0.87721
 N695 N 0.81418 0.67729 0.87074
 C696 C 0.79819 0.68526 0.88573
 C697 C 0.80921 0.69821 0.90246
 C698 C 0.83245 0.69758 0.89657
 H699 H 0.77985 0.68169 0.88474
 H700 H 0.84653 0.70619 0.90531
 H701 H 0.83926 0.67382 0.83409
 H702 H 0.84196 0.64892 0.85464
 N703 N 0.83259 0.11530 0.33286
 N704 N 0.84570 0.11966 0.31455
 C705 C 0.84015 0.10506 0.29730
 C706 C 0.82264 0.09080 0.30521
 C707 C 0.81831 0.09767 0.32794
 H708 H 0.84781 0.10514 0.28005
 H709 H 0.80550 0.09079 0.33989
 Cu710 Cu 0.86769 0.14490 0.31477
 Cu711 Cu 0.83472 0.13338 0.36141
 Cu712 Cu 0.86079 0.18687 0.35349
 N713 N 0.89028 0.16952 0.31722
 N714 N 0.88710 0.18639 0.33208
 C715 C 0.90357 0.20247 0.32869
 C716 C 0.91795 0.19516 0.31093
 C717 C 0.90906 0.17413 0.30403
 H718 H 0.90462 0.21857 0.33801
 H719 H 0.91506 0.16357 0.28978
 N720 N 0.84053 0.17943 0.38022
 N721 N 0.83143 0.15884 0.38381
 C722 C 0.81859 0.15930 0.40347
 C723 C 0.81954 0.18125 0.41256
 C724 C 0.83371 0.19355 0.39744
 H725 H 0.80848 0.14500 0.41016
 H726 H 0.83858 0.21148 0.39871
 H727 H 0.83851 0.16139 0.34058
 H728 H 0.86519 0.15256 0.35647
 N729 N 0.68409 0.37395 0.33725
 N730 N 0.66751 0.37700 0.32190
 C731 C 0.67236 0.39573 0.30879
 C732 C 0.69320 0.40475 0.31641
 C733 C 0.70010 0.39054 0.33445
 H734 H 0.66208 0.40167 0.29422
 H735 H 0.71610 0.39158 0.34414
 Cu736 Cu 0.64297 0.35435 0.31903
 Cu737 Cu 0.68506 0.34718 0.35776
 Cu738 Cu 0.63181 0.32021 0.36512
 N739 N 0.61767 0.33243 0.31857
 N740 N 0.61310 0.31923 0.33677
 C741 C 0.59502 0.30550 0.33173
 C742 C 0.58819 0.31023 0.30904
 C743 C 0.60292 0.32734 0.30124
 H744 H 0.58800 0.29256 0.34343
 H745 H 0.60310 0.33517 0.28406
 N746 N 0.65785 0.31618 0.38705
 N747 N 0.67823 0.32592 0.38363
 C748 C 0.69289 0.31877 0.40029
 C749 C 0.68127 0.30360 0.41490
 C750 C 0.65904 0.30245 0.40609
 H751 H 0.71076 0.32412 0.40148
 H752 H 0.64508 0.29172 0.41254
 H753 H 0.65978 0.32494 0.34428
 H754 H 0.65054 0.35097 0.36078
 N755 N 0.67618 0.87891 0.84290
 N756 N 0.66022 0.87845 0.82661
 C757 C 0.66477 0.89502 0.81070
 C758 C 0.68469 0.90635 0.81734
 C759 C 0.69144 0.89579 0.83797
 H760 H 0.65458 0.89832 0.79523
 H761 H 0.70640 0.89977 0.84848
 Cu762 Cu 0.63529 0.85593 0.82747
 Cu763 Cu 0.67618 0.85687 0.86871
 Cu764 Cu 0.64981 0.80584 0.85279
 N765 N 0.61532 0.82908 0.82560
 N766 N 0.62129 0.80943 0.83537
 C767 C 0.60567 0.79321 0.82988
 C768 C 0.58893 0.80323 0.81607
 C769 C 0.59556 0.82607 0.81363
 H770 H 0.60682 0.77526 0.83492
 H771 H 0.58732 0.83920 0.80311
 N772 N 0.67263 0.80794 0.87806
 N773 N 0.68160 0.82761 0.88510
 C774 C 0.69552 0.82356 0.90343
 C775 C 0.69529 0.80014 0.90802
 C776 C 0.68072 0.79077 0.89161
 H777 H 0.70559 0.83658 0.91222
 H778 H 0.67617 0.77280 0.88984
 H779 H 0.66850 0.83494 0.84292
 H780 H 0.64495 0.83818 0.86501
 N781 N 0.17606 0.37865 0.83501
 N782 N 0.15960 0.37832 0.81922
 C783 C 0.16434 0.39402 0.80252
 C784 C 0.18476 0.40494 0.80816
 C785 C 0.19178 0.39483 0.82897
 H786 H 0.15376 0.39721 0.78730
 H787 H 0.20729 0.39856 0.83877
 Cu788 Cu 0.13325 0.35766 0.82180
 Cu789 Cu 0.17564 0.35740 0.86168
 Cu790 Cu 0.14374 0.30817 0.84997
 N791 N 0.11175 0.33203 0.82040
 N792 N 0.11616 0.31254 0.83126
 C793 C 0.09981 0.29700 0.82585
 C794 C 0.08425 0.30733 0.81088
 C795 C 0.09232 0.32963 0.80775
 H796 H 0.09966 0.27927 0.83175
 H797 H 0.08532 0.34274 0.79632
 N798 N 0.16676 0.30989 0.87507
 N799 N 0.17856 0.32869 0.88010
 C800 C 0.19230 0.32425 0.89858
 C801 C 0.18873 0.30157 0.90544
 C802 C 0.17249 0.29309 0.89020
 H803 H 0.20408 0.33652 0.90625
 H804 H 0.16529 0.27589 0.89025
 H805 H 0.16493 0.33486 0.83778
 H806 H 0.14266 0.34180 0.86030
 N807 N 0.17938 0.87630 0.32692
 N808 N 0.16383 0.87292 0.31060
 C809 C 0.16648 0.88893 0.29373
 C810 C 0.18471 0.90302 0.29968
 C811 C 0.19254 0.89457 0.32091
 H812 H 0.15633 0.88991 0.27793
 H813 H 0.20714 0.90068 0.33086
 Cu814 Cu 0.14244 0.84725 0.31207
 Cu815 Cu 0.18269 0.85544 0.35348
 Cu816 Cu 0.14486 0.80890 0.35585
 N817 N 0.11704 0.82627 0.31843
 N818 N 0.11815 0.81083 0.33525
 C819 C 0.09956 0.79689 0.33398
 C820 C 0.08602 0.80413 0.31548
 C821 C 0.09763 0.82289 0.30604
 H822 H 0.09660 0.78199 0.34503
 H823 H 0.09308 0.83252 0.29052
 N824 N 0.16915 0.81420 0.37931
 N825 N 0.18326 0.83209 0.37862
 C826 C 0.19833 0.83040 0.39643
 C827 C 0.19344 0.81060 0.40894
 C828 C 0.17478 0.80073 0.39765
 H829 H 0.21235 0.84227 0.39970
 H830 H 0.16630 0.78468 0.40205
 H831 H 0.17021 0.82697 0.33720
 H832 H 0.14856 0.84406 0.35388
 C833 C 0.22594 1.06387 0.23986
 C834 C 0.24098 1.06413 0.22133
 C835 C 0.25134 1.04263 0.22077
 N836 N 0.24328 1.02932 0.23844
 C837 C 0.22770 1.04226 0.25013
 C838 C 0.26895 1.03622 0.20494
 C839 C 0.27649 1.01330 0.20175
 C840 C 0.29580 1.00708 0.18882
 C841 C 0.29691 0.98343 0.18938
 C842 C 0.27833 0.97581 0.20274
 N843 N 0.26581 0.99412 0.20996
 C844 C 0.27325 0.95238 0.20736
 C845 C 0.25743 0.94487 0.22474
 C846 C 0.25073 0.92220 0.22830
 C847 C 0.23653 0.92198 0.24751
 C848 C 0.23470 0.94459 0.25494
 N849 N 0.24769 0.95850 0.24111
 C850 C 0.22245 0.95176 0.27507
 C851 C 0.21930 0.97505 0.28138
 C852 C 0.21054 0.98231 0.30269
 C853 C 0.20847 1.00586 0.30136
 C854 C 0.21602 1.01239 0.27929
 N855 N 0.22244 0.99351 0.26718
 C856 C 0.21589 1.03525 0.27065
 H857 H 0.21503 1.07803 0.24521
 H858 H 0.24392 1.07851 0.20957
 H859 H 0.22616 0.99299 0.24946
 H860 H 0.30788 1.01838 0.17987
 H861 H 0.31005 0.97305 0.18102
 H862 H 0.25570 0.90727 0.21828
 H863 H 0.22866 0.90679 0.25521
 H864 H 0.20208 1.01691 0.31506
 H865 H 0.24978 0.99347 0.21810
 H866 H 0.20584 0.97172 0.31757
 C867 C 0.25516 0.42424 0.73976
 C868 C 0.24135 0.42348 0.75926
 C869 C 0.23764 0.44610 0.76588
 N870 N 0.24886 0.46055 0.75109
 C871 C 0.25959 0.44730 0.73506
 C872 C 0.22497 0.45284 0.78590
 C873 C 0.22176 0.47598 0.79288
 C874 C 0.21285 0.48246 0.81436
 C875 C 0.21143 0.50606 0.81416
 C876 C 0.21950 0.51350 0.79255
 N877 N 0.22550 0.49501 0.77958
 C878 C 0.22013 0.53687 0.78525
 C879 C 0.23211 0.54503 0.76520
 C880 C 0.23415 0.56804 0.75884
 C881 C 0.24812 0.56886 0.73950
 C882 C 0.25437 0.54635 0.73463
 N883 N 0.24452 0.53189 0.75037
 C884 C 0.26874 0.53975 0.71571
 C885 C 0.27346 0.51666 0.70933
 C886 C 0.28556 0.51038 0.68942
 C887 C 0.28676 0.48675 0.68948
 C888 C 0.27538 0.47906 0.70944
 N889 N 0.26756 0.49746 0.72152
 C890 C 0.27293 0.45552 0.71588
 H891 H 0.26102 0.40942 0.73007
 H892 H 0.23495 0.40798 0.76766
 H893 H 0.26001 0.49700 0.73785
 H894 H 0.20774 0.47134 0.82872
 H895 H 0.20502 0.51650 0.82835
 H896 H 0.22672 0.58286 0.76741
 H897 H 0.25302 0.58434 0.73010
 H898 H 0.29515 0.47646 0.67625
 H899 H 0.22937 0.49521 0.76191
 H900 H 0.29282 0.52161 0.67614
 C901 C 0.74369 -0.06923 0.24479
 C902 C 0.76218 -0.06938 0.25974
 C903 C 0.76523 -0.04689 0.26704
 N904 N 0.74924 -0.03305 0.25704
 C905 C 0.73628 -0.04656 0.24310
 C906 C 0.78158 -0.03984 0.28381
 C907 C 0.78392 -0.01687 0.29140
 C908 C 0.79525 -0.01020 0.31155
 C909 C 0.79456 0.01345 0.31206
 C910 C 0.78313 0.02065 0.29202
 N911 N 0.77682 0.00201 0.27951
 C912 C 0.78074 0.04391 0.28490
 C913 C 0.76749 0.05117 0.26544
 C914 C 0.76711 0.07340 0.25642
 C915 C 0.75161 0.07338 0.23834
 C916 C 0.74263 0.05128 0.23716
 N917 N 0.75229 0.03781 0.25380
 C918 C 0.72474 0.04436 0.22191
 C919 C 0.71578 0.02172 0.22113
 C920 C 0.69485 0.01573 0.21108
 C921 C 0.69250 -0.00772 0.21375
 C922 C 0.71215 -0.01547 0.22521
 N923 N 0.72630 0.00260 0.22947
 C924 C 0.71730 -0.03891 0.22957
 H925 H 0.73659 -0.08418 0.23621
 H926 H 0.77192 -0.08443 0.26503
 H927 H 0.74325 0.00169 0.23524
 H928 H 0.80329 -0.02118 0.32450
 H929 H 0.80223 0.02412 0.32539
 H930 H 0.77685 0.08820 0.26223
 H931 H 0.74717 0.08812 0.22761
 H932 H 0.67812 -0.01794 0.20758
 H933 H 0.77072 0.00212 0.26252
 H934 H 0.68249 0.02708 0.20276
 C935 C 0.75650 0.43162 0.72331
 C936 C 0.77283 0.43191 0.74061
 C937 C 0.77241 0.45381 0.75006
 N938 N 0.75622 0.46681 0.73927
 C939 C 0.74659 0.45336 0.72275
 C940 C 0.78622 0.46109 0.76894
 C941 C 0.78821 0.48427 0.77607
 C942 C 0.79909 0.49132 0.79636
 C943 C 0.79839 0.51499 0.79646
 C944 C 0.78702 0.52177 0.77627
 N945 N 0.78105 0.50296 0.76386
 C946 C 0.78350 0.54491 0.76937
 C947 C 0.76791 0.55166 0.75160
 C948 C 0.76640 0.57368 0.74223
 C949 C 0.74881 0.57327 0.72625
 C950 C 0.74019 0.55098 0.72624
 N951 N 0.75179 0.53784 0.74187
 C952 C 0.72168 0.54332 0.71215
 C953 C 0.71610 0.51985 0.70882
 C954 C 0.69659 0.51205 0.69725
 C955 C 0.69839 0.48848 0.69599
 C956 C 0.71887 0.48244 0.70700
 N957 N 0.72959 0.50170 0.71462
 C958 C 0.72796 0.45984 0.70821
 H959 H 0.75224 0.41696 0.71256
 H960 H 0.78378 0.41762 0.74563
 H961 H 0.74641 0.50264 0.72074
 H962 H 0.80686 0.48054 0.80967
 H963 H 0.80547 0.52595 0.80988
 H964 H 0.77698 0.58850 0.74627
 H965 H 0.74329 0.58768 0.71558
 H966 H 0.68613 0.47720 0.68756
 H967 H 0.77483 0.50306 0.74690
 H968 H 0.68269 0.52231 0.69004
 C969 C 0.23515 0.43393 0.25122
 C970 C 0.25163 0.43374 0.26836
 C971 C 0.25463 0.45640 0.27529
 N972 N 0.24019 0.47029 0.26319
 C973 C 0.22841 0.45665 0.24831
 C974 C 0.26922 0.46359 0.29368
 C975 C 0.27293 0.48690 0.29966
 C976 C 0.28395 0.49416 0.31980
 C977 C 0.28550 0.51777 0.31844
 C978 C 0.27537 0.52434 0.29752
 N979 N 0.26800 0.50540 0.28607
 C980 C 0.27414 0.54728 0.28915
 C981 C 0.25954 0.55438 0.27071
 C982 C 0.25792 0.57675 0.26225
 C983 C 0.24016 0.57696 0.24644
 C984 C 0.23151 0.55470 0.24565
 N985 N 0.24329 0.54101 0.26061
 C986 C 0.21186 0.54788 0.23277
 C987 C 0.20409 0.52485 0.23106
 C988 C 0.18318 0.51825 0.22130
 C989 C 0.18280 0.49457 0.22133
 C990 C 0.20341 0.48732 0.23126
 N991 N 0.21637 0.50587 0.23690
 C992 C 0.21029 0.46408 0.23356
 H993 H 0.22846 0.41889 0.24245
 H994 H 0.25999 0.41849 0.27519
 H995 H 0.23361 0.50553 0.24185
 H996 H 0.29045 0.48355 0.33392
 H997 H 0.29335 0.52880 0.33136
 H998 H 0.26800 0.59158 0.26738
 H999 H 0.23403 0.59197 0.23705
 H1000 H 0.16898 0.48393 0.21464
 H1001 H 0.26233 0.50495 0.26891
 H1002 H 0.16972 0.52933 0.21450
 C1003 C 0.75807 1.06657 0.75271
 C1004 C 0.74373 1.06618 0.77179
 C1005 C 0.73743 1.04339 0.77540
 N1006 N 0.74755 1.02988 0.75919
 C1007 C 0.76044 1.04395 0.74545
 C1008 C 0.72173 1.03566 0.79277
 C1009 C 0.71684 1.01222 0.79733
 C1010 C 0.69839 1.00442 0.81074
 C1011 C 0.69998 0.98082 0.81158
 C1012 C 0.71937 0.97480 0.79866
 N1013 N 0.72966 0.99410 0.79025
 C1014 C 0.72786 0.95207 0.79633
 C1015 C 0.74605 0.94586 0.78112
 C1016 C 0.75647 0.92439 0.78059
 C1017 C 0.77205 0.92493 0.76247
 C1018 C 0.77054 0.94667 0.75242
 N1019 N 0.75450 0.95933 0.76375
 C1020 C 0.78249 0.95376 0.73202
 C1021 C 0.78138 0.97634 0.72259
 C1022 C 0.78969 0.98283 0.70076
 C1023 C 0.78685 1.00627 0.69891
 C1024 C 0.77704 1.01356 0.71971
 N1025 N 0.77391 0.99522 0.73406
 C1026 C 0.77330 1.03685 0.72569
 H1027 H 0.76569 1.08189 0.74507
 H1028 H 0.73842 1.08106 0.78171
 H1029 H 0.76979 0.99593 0.75166
 H1030 H 0.68517 1.01466 0.81913
 H1031 H 0.68829 0.96950 0.82099
 H1032 H 0.75301 0.90976 0.79188
 H1033 H 0.78288 0.91074 0.75703
 H1034 H 0.79200 1.01680 0.68411
 H1035 H 0.74582 0.99508 0.78241
 H1036 H 0.79743 0.97198 0.68761
 C1037 C 0.75860 0.56172 0.27639
 C1038 C 0.77691 0.56128 0.26113
 C1039 C 0.77645 0.53992 0.25048
 N1040 N 0.75840 0.52740 0.25858
 C1041 C 0.74752 0.54063 0.27452
 C1042 C 0.79162 0.53301 0.23248
 C1043 C 0.79350 0.51017 0.22433
 C1044 C 0.80610 0.50369 0.20480
 C1045 C 0.80423 0.48016 0.20315
 C1046 C 0.79039 0.47289 0.22161
 N1047 N 0.78417 0.49125 0.23459
 C1048 C 0.78460 0.44968 0.22634
 C1049 C 0.76657 0.44292 0.24169
 C1050 C 0.76200 0.42042 0.24853
 C1051 C 0.74273 0.42112 0.26251
 C1052 C 0.73631 0.44406 0.26409
 N1053 N 0.75075 0.45731 0.25109
 C1054 C 0.71681 0.45219 0.27655
 C1055 C 0.71180 0.47572 0.28007
 C1056 C 0.69132 0.48402 0.28946
 C1057 C 0.69419 0.50734 0.29243
 C1058 C 0.71631 0.51267 0.28466
 N1059 N 0.72693 0.49327 0.27731
 C1060 C 0.72673 0.53466 0.28608
 H1061 H 0.75376 0.57611 0.28727
 H1062 H 0.78907 0.57518 0.25808
 H1063 H 0.74441 0.49158 0.27363
 H1064 H 0.81572 0.51475 0.19297
 H1065 H 0.81202 0.46961 0.18975
 H1066 H 0.77148 0.40505 0.24395
 H1067 H 0.73446 0.40633 0.27055
 H1068 H 0.68156 0.51891 0.29987
 H1069 H 0.77603 0.49060 0.25075
 H1070 H 0.67607 0.47421 0.29426
 C1071 C 0.25314 -0.06670 0.72440
 C1072 C 0.27115 -0.06645 0.73985
 C1073 C 0.27458 -0.04365 0.74601
 N1074 N 0.25924 -0.03003 0.73476
 C1075 C 0.24612 -0.04402 0.72146
 C1076 C 0.29121 -0.03613 0.76238
 C1077 C 0.29521 -0.01285 0.76837
 C1078 C 0.30939 -0.00590 0.78650
 C1079 C 0.30891 0.01775 0.78676
 C1080 C 0.29433 0.02472 0.76887
 N1081 N 0.28636 0.00594 0.75751
 C1082 C 0.28948 0.04800 0.76318
 C1083 C 0.27209 0.05520 0.74740
 C1084 C 0.26759 0.07796 0.74164
 C1085 C 0.24911 0.07782 0.72673
 C1086 C 0.24276 0.05495 0.72383
 N1087 N 0.25685 0.04122 0.73654
 C1088 C 0.22485 0.04736 0.70880
 C1089 C 0.22004 0.02396 0.70356
 C1090 C 0.20476 0.01691 0.68637
 C1091 C 0.20563 -0.00671 0.68573
 C1092 C 0.22131 -0.01367 0.70263
 N1093 N 0.22963 0.00515 0.71374
 C1094 C 0.22802 -0.03691 0.70646
 H1095 H 0.24605 -0.08192 0.71628
 H1096 H 0.28057 -0.08142 0.74591
 H1097 H 0.24040 0.00513 0.72810
 H1098 H 0.31908 -0.01673 0.79839
 H1099 H 0.31824 0.02852 0.79886
 H1100 H 0.27667 0.09314 0.74756
 H1101 H 0.24154 0.09291 0.71867
 H1102 H 0.19615 -0.01746 0.67372
 H1103 H 0.27719 0.00602 0.74201
 H1104 H 0.19437 0.02766 0.67502
 C1105 C 0.23409 0.24957 1.07203
 C1106 C 0.24742 0.23011 1.07204
 C1107 C 0.25415 0.22647 1.04911
 N1108 N 0.24528 0.24307 1.03514
 C1109 C 0.23297 0.25723 1.04906
 C1110 C 0.26881 0.20838 1.04177
 C1111 C 0.27389 0.20326 1.01815
 C1112 C 0.29020 0.18717 1.01122
 C1113 C 0.29069 0.18755 0.98728
 C1114 C 0.27476 0.20395 0.98009
 N1115 N 0.26424 0.21313 0.99902
 C1116 C 0.27114 0.21025 0.95646
 C1117 C 0.25850 0.22985 0.94898
 C1118 C 0.25535 0.23616 0.92581
 C1119 C 0.24367 0.25662 0.92586
 C1120 C 0.23943 0.26201 0.94904
 N1121 N 0.24866 0.24566 0.96310
 C1122 C 0.22658 0.28145 0.95651
 C1123 C 0.22157 0.28673 0.98014
 C1124 C 0.20596 0.30353 0.98696
 C1125 C 0.20411 0.30215 1.01081
 C1126 C 0.21875 0.28463 1.01813
 N1127 N 0.22975 0.27569 0.99932
 C1128 C 0.22045 0.27685 1.04161
 H1129 H 0.22612 0.25717 1.08726
 H1130 H 0.25157 0.21978 1.08725
 H1131 H 0.24263 0.26336 0.99958
 H1132 H 0.30098 0.17649 1.02225
 H1133 H 0.30201 0.17730 0.97644
 H1134 H 0.26101 0.22714 0.91035
 H1135 H 0.23880 0.26628 0.91043
 H1136 H 0.19266 0.31247 1.02143
 H1137 H 0.25035 0.22439 0.99879
 H1138 H 0.19617 0.31507 0.97586
 C1139 C 0.23386 0.75221 0.57492
 C1140 C 0.25109 0.73602 0.57551
 C1141 C 0.25566 0.73011 0.55255
 N1142 N 0.24160 0.74196 0.53799
 C1143 C 0.22839 0.75568 0.55160
 C1144 C 0.27199 0.71339 0.54562
 C1145 C 0.27883 0.70976 0.52215
 C1146 C 0.29202 0.69128 0.51461
 C1147 C 0.29567 0.69437 0.49108
 C1148 C 0.28447 0.71455 0.48476
 N1149 N 0.27445 0.72395 0.50384
 C1150 C 0.28399 0.72375 0.46184
 C1151 C 0.26807 0.74078 0.45442
 C1152 C 0.26792 0.75094 0.43245
 C1153 C 0.24847 0.76438 0.43138
 C1154 C 0.23759 0.76242 0.45291
 N1155 N 0.24953 0.74785 0.46688
 C1156 C 0.21609 0.77247 0.45872
 C1157 C 0.20689 0.77279 0.48162
 C1158 C 0.18486 0.78042 0.48735
 C1159 C 0.18329 0.78005 0.51131
 C1160 C 0.20428 0.77191 0.51959
 N1161 N 0.21864 0.76781 0.50141
 C1162 C 0.21021 0.76988 0.54342
 H1163 H 0.22594 0.76001 0.59004
 H1164 H 0.25926 0.72932 0.59110
 H1165 H 0.23625 0.76460 0.50266
 H1166 H 0.29834 0.67697 0.52497
 H1167 H 0.30522 0.68285 0.47983
 H1168 H 0.28023 0.74856 0.41841
 H1169 H 0.24297 0.77424 0.41632
 H1170 H 0.16838 0.78530 0.52141
 H1171 H 0.26691 0.74013 0.50464
 H1172 H 0.17146 0.78621 0.47554
 C1173 C 0.23964 0.74503 -0.07682
 C1174 C 0.25760 0.76042 -0.07649
 C1175 C 0.26341 0.76360 -0.05323
 N1176 N 0.24958 0.75050 -0.03945
 C1177 C 0.23507 0.73909 -0.05380
 C1178 C 0.28202 0.77749 -0.04543
 C1179 C 0.28919 0.77943 -0.02185
 C1180 C 0.30893 0.79110 -0.01485
 C1181 C 0.31035 0.78875 0.00895
 C1182 C 0.29146 0.77570 0.01605
 N1183 N 0.27841 0.77046 -0.00280
 C1184 C 0.28745 0.76851 0.03945
 C1185 C 0.27127 0.75139 0.04624
 C1186 C 0.26846 0.74326 0.06891
 C1187 C 0.25157 0.72673 0.06823
 C1188 C 0.24437 0.72537 0.04521
 N1189 N 0.25646 0.74044 0.03184
 C1190 C 0.22591 0.71136 0.03748
 C1191 C 0.21745 0.71089 0.01430
 C1192 C 0.19713 0.70004 0.00768
 C1193 C 0.19476 0.70356 -0.01590
 C1194 C 0.21380 0.71628 -0.02323
 N1195 N 0.22771 0.72043 -0.00474
 C1196 C 0.21776 0.72330 -0.04665
 H1197 H 0.23120 0.73866 -0.09234
 H1198 H 0.26569 0.76797 -0.09178
 H1199 H 0.24413 0.72755 -0.00541
 H1200 H 0.32129 0.80017 -0.02577
 H1201 H 0.32415 0.79544 0.01970
 H1202 H 0.27755 0.74868 0.08443
 H1203 H 0.24502 0.71717 0.08313
 H1204 H 0.18048 0.69752 -0.02640
 H1205 H 0.26240 0.76247 -0.00247
 H1206 H 0.18506 0.69068 0.01867
 C1207 C 0.22710 0.25745 0.42878
 C1208 C 0.24203 0.27572 0.43046
 C1209 C 0.25009 0.27583 0.45324
 N1210 N 0.24050 0.25826 0.46545
 C1211 C 0.22646 0.24692 0.45058
 C1212 C 0.26740 0.29087 0.46163
 C1213 C 0.27600 0.29070 0.48480
 C1214 C 0.29568 0.30240 0.49185
 C1215 C 0.29852 0.29782 0.51519
 C1216 C 0.28034 0.28367 0.52202
 N1217 N 0.26649 0.27966 0.50342
 C1218 C 0.27720 0.27503 0.54507
 C1219 C 0.26163 0.25716 0.55122
 C1220 C 0.25811 0.24905 0.57379
 C1221 C 0.24226 0.23157 0.57237
 C1222 C 0.23649 0.22952 0.54899
 N1223 N 0.24843 0.24516 0.53615
 C1224 C 0.21994 0.21377 0.54030
 C1225 C 0.21309 0.21210 0.51661
 C1226 C 0.19634 0.19702 0.50854
 C1227 C 0.19439 0.20077 0.48491
 C1228 C 0.20990 0.21816 0.47907
 N1229 N 0.22143 0.22468 0.49847
 C1230 C 0.21282 0.22734 0.45623
 H1231 H 0.21772 0.25260 0.41325
 H1232 H 0.24667 0.28736 0.41637
 H1233 H 0.23492 0.23628 0.49909
 H1234 H 0.30709 0.31298 0.48128
 H1235 H 0.31262 0.30405 0.52581
 H1236 H 0.26601 0.25514 0.58971
 H1237 H 0.23557 0.22168 0.58699
 H1238 H 0.18266 0.19178 0.47343
 H1239 H 0.25049 0.27158 0.50384
 H1240 H 0.18644 0.18459 0.51859
 C1241 C 0.75370 0.75905 1.07506
 C1242 C 0.77316 0.74565 1.07438
 C1243 C 0.77646 0.73950 1.05127
 N1244 N 0.75976 0.74891 1.03779
 C1245 C 0.74595 0.76112 1.05225
 C1246 C 0.79373 0.72415 1.04331
 C1247 C 0.79834 0.71990 1.01949
 C1248 C 0.81127 0.70154 1.01130
 C1249 C 0.81186 0.70350 0.98738
 C1250 C 0.79939 0.72310 0.98159
 N1251 N 0.79141 0.73313 1.00130
 C1252 C 0.79630 0.73148 0.95858
 C1253 C 0.78092 0.74950 0.95282
 C1254 C 0.78073 0.76121 0.93166
 C1255 C 0.76238 0.77611 0.93248
 C1256 C 0.75190 0.77291 0.95407
 N1257 N 0.76326 0.75663 0.96646
 C1258 C 0.73132 0.78384 0.96135
 C1259 C 0.72222 0.78201 0.98418
 C1260 C 0.70004 0.78853 0.99062
 C1261 C 0.69834 0.78517 1.01435
 C1262 C 0.71953 0.77669 1.02175
 N1263 N 0.73400 0.77493 1.00325
 C1264 C 0.72569 0.77299 1.04532
 H1265 H 0.74614 0.76622 1.09069
 H1266 H 0.78349 0.74078 1.08933
 H1267 H 0.75167 0.77192 1.00394
 H1268 H 0.81927 0.68797 1.02148
 H1269 H 0.82048 0.69177 0.97562
 H1270 H 0.79256 0.75919 0.91713
 H1271 H 0.75724 0.78780 0.91865
 H1272 H 0.68333 0.78899 1.02497
 H1273 H 0.78356 0.74914 1.00249
 H1274 H 0.68655 0.79524 0.97943
 C1275 C 0.73781 0.24178 0.57052
 C1276 C 0.75606 0.22675 0.57031
 C1277 C 0.76484 0.22689 0.54774
 N1278 N 0.75270 0.24176 0.53428
 C1279 C 0.73613 0.25082 0.54815
 C1280 C 0.78500 0.21506 0.54051
 C1281 C 0.79313 0.21473 0.51720
 C1282 C 0.81485 0.20705 0.51045
 C1283 C 0.81572 0.20850 0.48650
 C1284 C 0.79450 0.21695 0.47923
 N1285 N 0.78074 0.22045 0.49803
 C1286 C 0.78824 0.22064 0.45565
 C1287 C 0.76881 0.23363 0.44865
 C1288 C 0.76144 0.23594 0.42574
 C1289 C 0.74323 0.25097 0.42601
 C1290 C 0.74002 0.25737 0.44907
 N1291 N 0.75571 0.24678 0.46289
 C1292 C 0.72386 0.27397 0.45656
 C1293 C 0.71912 0.27872 0.48029
 C1294 C 0.70707 0.29783 0.48810
 C1295 C 0.70606 0.29615 0.51201
 C1296 C 0.71766 0.27615 0.51821
 N1297 N 0.72529 0.26545 0.49875
 C1298 C 0.72047 0.26829 0.54143
 H1299 H 0.72727 0.24589 0.58557
 H1300 H 0.76232 0.21724 0.58530
 H1301 H 0.73249 0.24910 0.49800
 H1302 H 0.82867 0.20095 0.52158
 H1303 H 0.83037 0.20389 0.47569
 H1304 H 0.76857 0.22780 0.41038
 H1305 H 0.73355 0.25667 0.41090
 H1306 H 0.69797 0.30846 0.52355
 H1307 H 0.76322 0.22430 0.49765
 H1308 H 0.69993 0.31172 0.47773
 C1309 C 0.76891 0.24662 -0.06959
 C1310 C 0.75128 0.23086 -0.07051
 C1311 C 0.74228 0.22909 -0.04812
 N1312 N 0.75362 0.24346 -0.03361
 C1313 C 0.76990 0.25426 -0.04673
 C1314 C 0.72308 0.21528 -0.04187
 C1315 C 0.71677 0.21027 -0.01847
 C1316 C 0.69615 0.19994 -0.01161
 C1317 C 0.69714 0.19712 0.01223
 C1318 C 0.71816 0.20612 0.01934
 N1319 N 0.73014 0.21383 0.00052
 C1320 C 0.72589 0.20656 0.04270
 C1321 C 0.74399 0.22089 0.05054
 C1322 C 0.75216 0.22126 0.07326
 C1323 C 0.76780 0.23897 0.07435
 C1324 C 0.76883 0.24874 0.05222
 N1325 N 0.75419 0.23772 0.03771
 C1326 C 0.78201 0.26845 0.04632
 C1327 C 0.78558 0.27630 0.02311
 C1328 C 0.79531 0.29738 0.01707
 C1329 C 0.79628 0.29827 -0.00691
 C1330 C 0.78686 0.27784 -0.01492
 N1331 N 0.78068 0.26441 0.00347
 C1332 C 0.78458 0.27206 -0.03874
 H1333 H 0.77962 0.25195 -0.08419
 H1334 H 0.74578 0.22166 -0.08591
 H1335 H 0.77535 0.24735 0.00260
 H1336 H 0.68183 0.19492 -0.02258
 H1337 H 0.68375 0.18958 0.02311
 H1338 H 0.74701 0.21025 0.08769
 H1339 H 0.77724 0.24417 0.08974
 H1340 H 0.80282 0.31253 -0.01727
 H1341 H 0.74730 0.21918 0.00043
 H1342 H 0.80104 0.31084 0.02868
 C1343 C 0.75198 0.72241 0.57205
 C1344 C 0.76841 0.73942 0.57305
 C1345 C 0.77201 0.74698 0.55032
 N1346 N 0.75845 0.73501 0.53553
 C1347 C 0.74600 0.72008 0.54874
 C1348 C 0.78762 0.76467 0.54377
 C1349 C 0.79058 0.77289 0.52060
 C1350 C 0.80901 0.78647 0.51330
 C1351 C 0.80575 0.79102 0.49000
 C1352 C 0.78536 0.78015 0.48358
 N1353 N 0.77607 0.76936 0.50244
 C1354 C 0.77606 0.78080 0.46072
 C1355 C 0.75752 0.76686 0.45297
 C1356 C 0.74755 0.76830 0.43103
 C1357 C 0.73137 0.75107 0.42991
 C1358 C 0.73174 0.73973 0.45130
 N1359 N 0.74780 0.74943 0.46527
 C1360 C 0.71780 0.72043 0.45713
 C1361 C 0.71665 0.71000 0.47962
 C1362 C 0.70146 0.69242 0.48571
 C1363 C 0.70446 0.68811 0.50912
 C1364 C 0.72136 0.70320 0.51689
 N1365 N 0.72889 0.71619 0.49869
 C1366 C 0.72864 0.70493 0.54047
 H1367 H 0.74499 0.71311 0.58692
 H1368 H 0.77655 0.74565 0.58878
 H1369 H 0.74159 0.72861 0.49933
 H1370 H 0.82350 0.79231 0.52364
 H1371 H 0.81726 0.80107 0.47898
 H1372 H 0.75160 0.78037 0.41713
 H1373 H 0.72062 0.74733 0.41498
 H1374 H 0.69493 0.67550 0.51929
 H1375 H 0.75974 0.76203 0.50342
 H1376 H 0.68899 0.68393 0.47464
 C1377 C 1.08073 0.27081 0.25152
 C1378 C 1.08141 0.25253 0.26674
 C1379 C 1.05900 0.24412 0.26849
 N1380 N 1.04475 0.25666 0.25476
 C1381 C 1.05795 0.27298 0.24429
 C1382 C 1.05224 0.22535 0.28285
 C1383 C 1.02916 0.21737 0.28540
 C1384 C 1.02184 0.20258 0.30306
 C1385 C 0.99846 0.19960 0.30031
 C1386 C 0.99199 0.21262 0.28103
 N1387 N 1.01090 0.22309 0.27178
 C1388 C 0.96894 0.21441 0.27287
 C1389 C 0.96140 0.22983 0.25527
 C1390 C 0.93896 0.23089 0.24684
 C1391 C 0.93848 0.24848 0.23078
 C1392 C 0.96063 0.25768 0.22991
 N1393 N 0.97455 0.24618 0.24486
 C1394 C 0.96753 0.27605 0.21505
 C1395 C 0.99042 0.28466 0.21313
 C1396 C 0.99739 0.30112 0.19692
 C1397 C 1.02056 0.30491 0.20046
 C1398 C 1.02731 0.29061 0.21871
 N1399 N 1.00871 0.27866 0.22660
 C1400 C 1.05026 0.28912 0.22737
 H1401 H 1.09547 0.28109 0.24612
 H1402 H 1.09672 0.24616 0.27546
 H1403 H 1.00824 0.26821 0.24125
 H1404 H 1.03215 0.19510 0.31689
 H1405 H 0.98741 0.18929 0.31155
 H1406 H 0.92442 0.22012 0.25171
 H1407 H 0.92352 0.25371 0.22078
 H1408 H 1.03118 0.31682 0.19054
 H1409 H 1.01163 0.23215 0.25616
 H1410 H 0.98690 0.30953 0.18378
 C1411 C 0.57432 0.26567 0.74883
 C1412 C 0.57458 0.24596 0.76209
 C1413 C 0.55229 0.23708 0.76172
 N1414 N 0.53857 0.25062 0.74837
 C1415 C 0.55195 0.26817 0.74059
 C1416 C 0.54543 0.21589 0.77203
 C1417 C 0.52254 0.20726 0.77126
 C1418 C 0.51613 0.18495 0.77728
 C1419 C 0.49239 0.18398 0.77612
 C1420 C 0.48491 0.20570 0.76941
 N1421 N 0.50337 0.21978 0.76660
 C1422 C 0.46150 0.21251 0.76823
 C1423 C 0.45391 0.23321 0.75756
 C1424 C 0.43118 0.24084 0.75734
 C1425 C 0.43093 0.26087 0.74459
 C1426 C 0.45344 0.26476 0.73715
 N1427 N 0.46742 0.24775 0.74497
 C1428 C 0.46044 0.28325 0.72252
 C1429 C 0.48381 0.28862 0.71746
 C1430 C 0.49091 0.30384 0.70009
 C1431 C 0.51467 0.30450 0.70077
 C1432 C 0.52149 0.28971 0.71857
 N1433 N 0.50255 0.28034 0.72885
 C1434 C 0.54478 0.28568 0.72496
 H1435 H 0.58904 0.27673 0.74541
 H1436 H 0.58970 0.23884 0.77051
 H1437 H 0.50232 0.27053 0.74404
 H1438 H 0.52731 0.17090 0.78247
 H1439 H 0.48183 0.16908 0.78024
 H1440 H 0.41621 0.23279 0.76532
 H1441 H 0.41580 0.27129 0.74115
 H1442 H 0.52566 0.31466 0.68934
 H1443 H 0.50270 0.23754 0.76474
 H1444 H 0.48011 0.31333 0.68801
 C1445 C -0.08155 0.26067 0.72716
 C1446 C -0.08187 0.27672 0.74459
 C1447 C -0.05914 0.27969 0.75168
 N1448 N -0.04506 0.26586 0.73918
 C1449 C -0.05866 0.25420 0.72419
 C1450 C -0.05205 0.29487 0.76955
 C1451 C -0.02870 0.29905 0.77593
 C1452 C -0.02180 0.31590 0.79151
 C1453 C 0.00193 0.31553 0.79211
 C1454 C 0.00910 0.29857 0.77676
 N1455 N -0.00972 0.28835 0.76733
 C1456 C 0.03260 0.29354 0.77173
 C1457 C 0.04028 0.27805 0.75430
 C1458 C 0.06316 0.27559 0.74734
 C1459 C 0.06340 0.25962 0.72986
 C1460 C 0.04068 0.25276 0.72662
 N1461 N 0.02662 0.26405 0.74156
 C1462 C 0.03350 0.23593 0.71042
 C1463 C 0.01013 0.23036 0.70579
 C1464 C 0.00319 0.21140 0.69298
 C1465 C -0.02054 0.21173 0.69242
 C1466 C -0.02758 0.23092 0.70488
 N1467 N -0.00874 0.24240 0.71267
 C1468 C -0.05101 0.23703 0.70854
 H1469 H -0.09653 0.25440 0.71786
 H1470 H -0.09716 0.28518 0.75128
 H1471 H -0.00868 0.25847 0.72043
 H1472 H -0.03267 0.32769 0.80112
 H1473 H 0.01266 0.32687 0.80238
 H1474 H 0.07817 0.28466 0.75381
 H1475 H 0.07861 0.25394 0.72048
 H1476 H -0.03138 0.19906 0.68401
 H1477 H -0.00961 0.27436 0.75633
 H1478 H 0.01408 0.19844 0.68509
 C1479 C 0.56740 0.23924 0.24696
 C1480 C 0.56709 0.25135 0.26739
 C1481 C 0.54460 0.25894 0.27052
 N1482 N 0.53116 0.25187 0.25267
 C1483 C 0.54500 0.23960 0.23832
 C1484 C 0.53721 0.27324 0.28897
 C1485 C 0.51380 0.27864 0.29348
 C1486 C 0.50653 0.29587 0.30845
 C1487 C 0.48278 0.29568 0.30820
 C1488 C 0.47615 0.27831 0.29311
 N1489 N 0.49517 0.26780 0.28445
 C1490 C 0.45294 0.27246 0.28821
 C1491 C 0.44616 0.25763 0.27000
 C1492 C 0.42385 0.24952 0.26675
 C1493 C 0.42413 0.23707 0.24652
 C1494 C 0.44665 0.23783 0.23811
 N1495 N 0.46002 0.25059 0.25242
 C1496 C 0.45409 0.22824 0.21673
 C1497 C 0.47727 0.22871 0.20887
 C1498 C 0.48441 0.22327 0.18644
 C1499 C 0.50821 0.22379 0.18646
 C1500 C 0.51495 0.22954 0.20890
 N1501 N 0.49599 0.23240 0.22244
 C1502 C 0.53806 0.22989 0.21683
 H1503 H 0.58254 0.23137 0.23928
 H1504 H 0.58184 0.25436 0.27856
 H1505 H 0.49591 0.23364 0.24049
 H1506 H 0.51722 0.30756 0.31836
 H1507 H 0.47168 0.30718 0.31791
 H1508 H 0.40885 0.25245 0.27768
 H1509 H 0.40928 0.22878 0.23877
 H1510 H 0.51928 0.21990 0.17173
 H1511 H 0.49541 0.25283 0.27466
 H1512 H 0.47363 0.21890 0.17170
 C1513 C 1.07237 0.76040 0.76975
 C1514 C 1.07194 0.77559 0.75135
 C1515 C 1.04912 0.77695 0.74403
 N1516 N 1.03568 0.76316 0.75747
 C1517 C 1.04979 0.75301 0.77321
 C1518 C 1.04133 0.79081 0.72523
 C1519 C 1.01814 0.79158 0.71709
 C1520 C 1.01009 0.80732 0.70072
 C1521 C 0.98689 0.80314 0.69793
 C1522 C 0.98115 0.78509 0.71284
 N1523 N 1.00041 0.77782 0.72410
 C1524 C 0.95829 0.77672 0.71611
 C1525 C 0.95119 0.76181 0.73446
 C1526 C 0.92838 0.75577 0.73896
 C1527 C 0.92842 0.74268 0.75894
 C1528 C 0.95130 0.74071 0.76587
 N1529 N 0.96514 0.75248 0.75087
 C1530 C 0.95889 0.72790 0.78557
 C1531 C 0.98233 0.72548 0.79229
 C1532 C 0.99006 0.70949 0.80857
 C1533 C 1.01368 0.71167 0.80962
 C1534 C 1.01988 0.72904 0.79405
 N1535 N 1.00058 0.73765 0.78387
 C1536 C 1.04300 0.73634 0.78999
 H1537 H 1.08763 0.75524 0.77934
 H1538 H 1.08684 0.78438 0.74405
 H1539 H 0.99965 0.75197 0.77308
 H1540 H 1.01977 0.82083 0.69197
 H1541 H 0.97541 0.81285 0.68669
 H1542 H 0.91315 0.76068 0.72919
 H1543 H 0.91322 0.73553 0.76734
 H1544 H 1.02499 0.70148 0.82058
 H1545 H 1.00158 0.76347 0.73485
 H1546 H 0.97981 0.69714 0.81836
 C1547 C 0.43258 0.74711 0.25930
 C1548 C 0.43336 0.76446 0.24301
 C1549 C 0.45657 0.76920 0.23882
 N1550 N 0.46988 0.75532 0.25223
 C1551 C 0.45530 0.74183 0.26478
 C1552 C 0.46476 0.78658 0.22331
 C1553 C 0.48836 0.79273 0.22014
 C1554 C 0.49591 0.81089 0.20620
 C1555 C 0.51958 0.81182 0.20815
 C1556 C 0.52603 0.79422 0.22325
 N1557 N 0.50690 0.78242 0.23011
 C1558 C 0.54907 0.79035 0.23086
 C1559 C 0.55537 0.77486 0.24897
 C1560 C 0.57762 0.77247 0.25764
 C1561 C 0.57661 0.75592 0.27477
 C1562 C 0.55381 0.74852 0.27598
 N1563 N 0.54090 0.76018 0.26024
 C1564 C 0.54582 0.73039 0.29057
 C1565 C 0.52254 0.72279 0.29199
 C1566 C 0.51563 0.70248 0.30286
 C1567 C 0.49211 0.70074 0.30002
 C1568 C 0.48513 0.72007 0.28758
 N1569 N 0.50377 0.73363 0.28307
 C1570 C 0.46195 0.72442 0.28078
 H1571 H 0.41700 0.73946 0.26647
 H1572 H 0.41842 0.77277 0.23541
 H1573 H 0.50349 0.75007 0.27591
 H1574 H 0.48544 0.82255 0.19589
 H1575 H 0.53068 0.82447 0.19982
 H1576 H 0.59304 0.78166 0.25220
 H1577 H 0.59113 0.74985 0.28497
 H1578 H 0.48145 0.68659 0.30615
 H1579 H 0.50660 0.76767 0.24026
 H1580 H 0.52648 0.68993 0.31156
 C1581 C -0.07630 0.76425 0.24936
 C1582 C -0.07537 0.74948 0.23082
 C1583 C -0.05245 0.74287 0.22847
 N1584 N -0.03938 0.75309 0.24498
 C1585 C -0.05391 0.76628 0.25770
 C1586 C -0.04427 0.72682 0.21194
 C1587 C -0.02061 0.72200 0.20809
 C1588 C -0.01247 0.70353 0.19524
 C1589 C 0.01125 0.70501 0.19522
 C1590 C 0.01700 0.72436 0.20804
 N1591 N -0.00254 0.73476 0.21560
 C1592 C 0.03987 0.73219 0.21167
 C1593 C 0.04592 0.74964 0.22760
 C1594 C 0.06771 0.75947 0.22927
 C1595 C 0.06668 0.77496 0.24719
 C1596 C 0.04430 0.77406 0.25595
 N1597 N 0.03170 0.75844 0.24406
 C1598 C 0.03639 0.78656 0.27549
 C1599 C 0.01320 0.78664 0.28334
 C1600 C 0.00591 0.79505 0.30472
 C1601 C -0.01780 0.79297 0.30528
 C1602 C -0.02439 0.78354 0.28412
 N1603 N -0.00539 0.77987 0.27082
 C1604 C -0.04757 0.77944 0.27734
 H1605 H -0.09172 0.77260 0.25589
 H1606 H -0.08994 0.74422 0.22030
 H1607 H -0.00529 0.77543 0.25332
 H1608 H -0.02256 0.69025 0.18684
 H1609 H 0.02294 0.69313 0.18675
 H1610 H 0.08281 0.75583 0.21869
 H1611 H 0.08088 0.78551 0.25323
 H1612 H -0.02890 0.79796 0.31962
 H1613 H -0.00359 0.75079 0.22337
 H1614 H 0.01655 0.80198 0.31851
 C1615 C 0.56876 0.74918 0.74105
 C1616 C 0.56809 0.76808 0.75521
 C1617 C 0.54517 0.77101 0.76181
 N1618 N 0.53182 0.75459 0.75201
 C1619 C 0.54621 0.74132 0.73919
 C1620 C 0.53717 0.78793 0.77757
 C1621 C 0.51352 0.79277 0.78139
 C1622 C 0.50504 0.80595 0.79959
 C1623 C 0.48148 0.80738 0.79665
 C1624 C 0.47618 0.79500 0.77672
 N1625 N 0.49587 0.78636 0.76742
 C1626 C 0.45381 0.79325 0.76690
 C1627 C 0.44818 0.77816 0.74853
 C1628 C 0.42712 0.77777 0.73703
 C1629 C 0.42797 0.75962 0.72184
 C1630 C 0.44949 0.74945 0.72462
 N1631 N 0.46171 0.76073 0.74106
 C1632 C 0.45664 0.72898 0.71356
 C1633 C 0.47907 0.71950 0.71566
 C1634 C 0.48533 0.69758 0.70852
 C1635 C 0.50873 0.69552 0.71226
 C1636 C 0.51617 0.71628 0.72141
 N1637 N 0.49802 0.73081 0.72331
 C1638 C 0.53947 0.72179 0.72635
 H1639 H 0.58408 0.74219 0.73284
 H1640 H 0.58284 0.77849 0.76001
 H1641 H 0.49899 0.74826 0.72695
 H1642 H 0.51480 0.81383 0.81352
 H1643 H 0.46970 0.81672 0.80781
 H1644 H 0.41252 0.78914 0.73957
 H1645 H 0.41412 0.75423 0.71042
 H1646 H 0.51912 0.68052 0.70839
 H1647 H 0.49757 0.77875 0.75118
 H1648 H 0.47429 0.68447 0.70115
 C1649 C 0.41980 0.29822 0.29265
 C1650 C 0.43466 0.28345 0.30241
 H1651 H 0.42123 0.30215 0.27417
 H1652 H 0.43453 0.28040 0.32107
 C1653 C 0.42449 0.80141 0.79673
 C1654 C 0.43495 0.80750 0.77671
 H1655 H 0.43074 0.78636 0.80608
 H1656 H 0.42879 0.82186 0.76635
 C1657 C -0.07581 0.30495 0.80373
 C1658 C -0.07039 0.30844 0.78126
 H1659 H -0.06648 0.29207 0.81371
 H1660 H -0.08039 0.32027 0.77067
 C1661 C -0.07047 0.81067 0.29489
 C1662 C -0.06658 0.78814 0.29227
 H1663 H -0.05913 0.82304 0.28639
 H1664 H -0.07870 0.77564 0.29927
 C1665 C 0.57736 0.70250 0.29352
 C1666 C 0.56335 0.71744 0.30414
 H1667 H 0.57513 0.69928 0.27504
 H1668 H 0.56450 0.72033 0.32275
 C1669 C 0.57476 0.20779 0.80203
 C1670 C 0.56338 0.20114 0.78291
 H1671 H 0.57066 0.22423 0.80986
 H1672 H 0.56676 0.18454 0.77516
 C1673 C 1.06940 0.70417 0.79694
 C1674 C 1.06166 0.72487 0.80338
 H1675 H 1.06141 0.69567 0.78222
 H1676 H 1.06977 0.73420 0.81745
 C1677 C 1.07655 0.19244 0.29410
 C1678 C 1.07039 0.21437 0.29738
 H1679 H 1.06809 0.18249 0.28064
 H1680 H 1.07972 0.22501 0.30963
 C1681 C 0.57766 0.29086 0.69839
 C1682 C 0.56292 0.30006 0.71374
 H1683 H 0.57579 0.27291 0.69366
 H1684 H 0.56343 0.31829 0.71754
 C1685 C 0.57519 0.80084 0.19841
 C1686 C 0.56790 0.80447 0.22028
 H1687 H 0.56667 0.78784 0.18800
 H1688 H 0.57696 0.81645 0.23140
 C1689 C 1.07642 0.30064 0.19571
 C1690 C 1.06798 0.30460 0.21704
 H1691 H 1.06956 0.28640 0.18571
 H1692 H 1.07532 0.31789 0.22792
 C1693 C 1.06523 0.80389 0.69201
 C1694 C 1.05868 0.80638 0.71424
 H1695 H 1.05701 0.79082 0.68144
 H1696 H 1.06765 0.81840 0.72540
 C1697 C 0.42799 0.69839 0.70818
 C1698 C 0.43934 0.71658 0.69946
 H1699 H 0.43227 0.69208 0.72548
 H1700 H 0.43476 0.72385 0.68266
 C1701 C 0.42662 0.19765 0.20738
 C1702 C 0.43649 0.21767 0.20143
 H1703 H 0.43240 0.18876 0.22300
 H1704 H 0.43159 0.22670 0.18562
 C1705 C -0.07580 0.69875 0.20821
 C1706 C -0.06141 0.71384 0.19805
 H1707 H -0.07475 0.69579 0.22688
 H1708 H -0.06111 0.71587 0.17925
 C1709 C -0.08201 0.20833 0.70724
 C1710 C -0.06877 0.22364 0.69592
 H1711 H -0.07959 0.20570 0.72583
 H1712 H -0.06995 0.22572 0.67717
 C1713 C 0.29761 0.43284 0.29913
 C1714 C 0.28062 0.44563 0.30807
 H1715 H 0.30353 0.43635 0.28147
 H1716 H 0.27467 0.44294 0.32581
 C1717 C 0.29541 -0.06622 0.79215
 C1718 C 0.30483 -0.05408 0.77460
 H1719 H 0.27830 -0.06154 0.79830
 H1720 H 0.32206 -0.05771 0.76820
 C1721 C 0.78882 0.42779 0.79543
 C1722 C 0.79955 0.44346 0.78196
 H1723 H 0.77017 0.42868 0.79730
 H1724 H 0.81823 0.44409 0.78077
 C1725 C 0.79286 -0.06773 0.31422
 C1726 C 0.79724 -0.05747 0.29369
 H1727 H 0.77773 -0.06251 0.32408
 H1728 H 0.81183 -0.06257 0.28305
 C1729 C 0.29556 0.57205 0.71034
 C1730 C 0.27935 0.55834 0.70129
 H1731 H 0.30107 0.56915 0.72820
 H1732 H 0.27424 0.56012 0.68321
 C1733 C 0.29310 1.07078 0.20312
 C1734 C 0.28101 1.05476 0.19176
 H1735 H 0.29441 1.06971 0.22198
 H1736 H 0.28090 1.05439 0.17286
 C1737 C 0.79477 0.56712 0.20765
 C1738 C 0.80538 0.55109 0.22055
 H1739 H 0.77615 0.56627 0.20549
 H1740 H 0.82405 0.55065 0.22187
 C1741 C 0.80063 1.06808 0.71702
 C1742 C 0.78312 1.05479 0.71002
 H1743 H 0.80782 1.06543 0.73429
 H1744 H 0.77595 1.05666 0.69269
 C1745 C 0.69761 0.56479 0.29221
 C1746 C 0.71548 0.55261 0.30035
 H1747 H 0.69013 0.56035 0.27550
 H1748 H 0.72377 0.55726 0.31656
 C1749 C 0.69463 1.06790 0.79736
 C1750 C 0.70947 1.05300 0.80704
 H1751 H 0.69118 1.06674 0.77881
 H1752 H 0.71232 1.05269 0.82571
 C1753 C 0.19048 0.56603 0.79321
 C1754 C 0.20887 0.55408 0.80054
 H1755 H 0.18339 0.56258 0.77609
 H1756 H 0.21584 0.55665 0.81783
 C1757 C 0.21338 1.07059 0.29395
 C1758 C 0.20274 1.05274 0.28397
 H1759 H 0.23207 1.07186 0.29303
 H1760 H 0.18427 1.05032 0.28607
 C1761 C 0.69731 0.43209 0.69866
 C1762 C 0.71770 0.44172 0.69340
 H1763 H 0.68730 0.43875 0.71314
 H1764 H 0.72832 0.43484 0.67952
 C1765 C 0.70971 -0.06791 0.20004
 C1766 C 0.70230 -0.05651 0.21875
 H1767 H 0.72649 -0.06358 0.19267
 H1768 H 0.68565 -0.06028 0.22660
 C1769 C 0.20592 0.43564 0.20247
 C1770 C 0.19683 0.44641 0.22090
 H1771 H 0.22305 0.44046 0.19641
 H1772 H 0.17945 0.44257 0.22683
 C1773 C 0.19510 -0.06195 0.69619
 C1774 C 0.21692 -0.05516 0.69233
 H1775 H 0.18468 -0.05296 0.70896
 H1776 H 0.22787 -0.06459 0.68042
 C1777 C 0.29901 0.30086 0.43497
 C1778 C 0.27855 0.30637 0.44428
 H1779 H 0.30788 0.28560 0.44124
 H1780 H 0.26876 0.32086 0.43765
 C1781 C 0.28788 0.80640 -0.07648
 C1782 C 0.29637 0.78925 -0.06343
 H1783 H 0.27042 0.81241 -0.07327
 H1784 H 0.31402 0.78350 -0.06575
 C1785 C 0.78731 0.29746 -0.07333
 C1786 C 0.79787 0.28590 -0.05611
 H1787 H 0.76859 0.29720 -0.07432
 H1788 H 0.81642 0.28722 -0.05394
 C1789 C 0.79882 0.78820 0.42524
 C1790 C 0.78724 0.79650 0.44357
 H1791 H 0.80013 0.76973 0.42302
 H1792 H 0.78689 0.81482 0.44695
 C1793 C 0.71637 0.29373 0.57529
 C1794 C 0.70657 0.27965 0.55978
 H1795 H 0.73482 0.29700 0.57434
 H1796 H 0.68800 0.27740 0.55941
 C1797 C 0.71743 0.80001 1.07672
 C1798 C 0.71025 0.78256 1.06356
 H1799 H 0.73474 0.80679 1.07402
 H1800 H 0.69290 0.77574 1.06543
 C1801 C 0.21124 0.30976 1.06705
 C1802 C 0.20625 0.28856 1.05955
 H1803 H 0.22575 0.31903 1.05951
 H1804 H 0.19266 0.27858 1.06781
 C1805 C 0.20510 0.79913 0.57367
 C1806 C 0.19587 0.78248 0.56062
 H1807 H 0.22333 0.80315 0.57176
 H1808 H 0.17759 0.77858 0.56174
 C1809 C 0.30439 0.69886 0.56923
 C1810 C 0.28184 0.69843 0.56420
 H1811 H 0.31582 0.70997 0.55919
 H1812 H 0.26995 0.68892 0.57530
 C1813 C 0.29565 0.20411 1.07454
 C1814 C 0.28049 0.19439 1.06002
 H1815 H 0.29942 0.22233 1.07270
 H1816 H 0.27729 0.17602 1.06062
 C1817 C 0.79664 0.69716 1.07625
 C1818 C 0.80722 0.71098 1.06083
 H1819 H 0.77799 0.69524 1.07554
 H1820 H 0.82591 0.71219 1.06032
 C1821 C 0.79294 0.18534 0.57018
 C1822 C 0.79966 0.20431 0.55868
 H1823 H 0.77674 0.17713 0.56558
 H1824 H 0.81609 0.21240 0.56245
 C1825 C 0.70757 0.69026 0.42924
 C1826 C 0.70304 0.71090 0.43836
 H1827 H 0.72174 0.68017 0.43623
 H1828 H 0.68988 0.72185 0.43079
 C1829 C 0.70371 0.18487 -0.06473
 C1830 C 0.70810 0.20718 -0.06115
 H1831 H 0.71102 0.17204 -0.05308
 H1832 H 0.70230 0.21993 -0.07369
 C1833 C 0.20302 0.69174 -0.07072
 C1834 C 0.20240 0.71401 -0.06503
 H1835 H 0.21461 0.68026 -0.06142
 H1836 H 0.19219 0.72605 -0.07517
 C1837 C 0.21122 0.20469 0.42028
 C1838 C 0.19997 0.21603 0.43708
 H1839 H 0.22995 0.20392 0.42068
 H1840 H 0.18125 0.21607 0.43773
 C1841 C 0.30155 0.42509 0.70891
 C1842 C 0.28441 0.43828 0.70075
 H1843 H 0.30711 0.42708 0.72684
 H1844 H 0.27919 0.43728 0.68266
 C1845 C 0.30017 0.91980 0.20324
 C1846 C 0.28567 0.93487 0.19333
 H1847 H 0.30303 0.92045 0.22192
 H1848 H 0.28381 0.93550 0.17453
 C1849 C 0.78955 0.41611 0.20056
 C1850 C 0.79876 0.43170 0.21490
 H1851 H 0.77125 0.41679 0.19659
 H1852 H 0.81726 0.43213 0.21775
 C1853 C 0.79027 0.92676 0.70008
 C1854 C 0.79693 0.93641 0.72007
 H1855 H 0.77437 0.93240 0.69186
 H1856 H 0.81221 0.93037 0.72908
 C1857 C 0.69602 0.57716 0.70944
 C1858 C 0.70824 0.56069 0.69883
 H1859 H 0.69489 0.57734 0.72833
 H1860 H 0.70817 0.55940 0.67998
 C1861 C 0.70014 0.07815 0.21629
 C1862 C 0.71371 0.06208 0.20693
 H1863 H 0.69687 0.07777 0.23494
 H1864 H 0.71618 0.06121 0.18821
 C1865 C 0.20467 0.57607 0.20158
 C1866 C 0.19779 0.56606 0.22149
 H1867 H 0.22057 0.57042 0.19335
 H1868 H 0.18162 0.57082 0.22970
 C1869 C 0.19725 0.07959 0.70680
 C1870 C 0.21163 0.06519 0.69584
 H1871 H 0.19459 0.07773 0.72546
 H1872 H 0.21377 0.06612 0.67708
 C1873 C 0.30524 0.57591 0.29443
 C1874 C 0.28619 0.56539 0.30252
 H1875 H 0.31315 0.57014 0.27832
 H1876 H 0.27863 0.57035 0.31904
 C1877 C 0.29900 0.07308 0.79627
 C1878 C 0.30344 0.06621 0.77447
 H1879 H 0.28529 0.06471 0.80612
 H1880 H 0.31646 0.07483 0.76398
 C1881 C 0.78746 0.58022 0.79269
 C1882 C 0.79739 0.56282 0.78126
 H1883 H 0.76876 0.58113 0.79378
 H1884 H 0.81600 0.56082 0.78143
 C1885 C 0.81079 0.07312 0.29135
 C1886 C 0.79231 0.06160 0.29925
 H1887 H 0.81717 0.06979 0.27387
 H1888 H 0.78598 0.06421 0.31683
 C1889 C 0.70712 0.42348 0.30624
 C1890 C 0.70092 0.43504 0.28704
 H1891 H 0.72370 0.42717 0.31420
 H1892 H 0.68437 0.43209 0.27880
 C1893 C 0.69607 0.92523 0.80442
 C1894 C 0.71682 0.93352 0.81029
 H1895 H 0.68723 0.93235 0.78936
 H1896 H 0.72649 0.92607 0.82459
 C1897 C 0.19614 0.42293 0.79396
 C1898 C 0.21482 0.43453 0.80095
 H1899 H 0.18866 0.42699 0.77709
 H1900 H 0.22211 0.43158 0.81809
 C1901 C 0.19431 0.92162 0.28498
 C1902 C 0.21293 0.93386 0.29096
 H1903 H 0.18612 0.92496 0.26830
 H1904 H 0.22110 0.93135 0.30775
 C1905 C 0.42663 0.28880 0.69710
 C1906 C 0.44230 0.29779 0.71157
 H1907 H 0.42758 0.27068 0.69277
 H1908 H 0.44253 0.31610 0.71496
 C1909 C 0.43396 0.79131 0.19414
 C1910 C 0.44721 0.80053 0.21074
 H1911 H 0.43694 0.77365 0.18890
 H1912 H 0.44518 0.81839 0.21560
 C1913 C 0.93359 0.30046 0.20894
 C1914 C 0.94965 0.28660 0.19989
 H1915 H 0.93405 0.30423 0.22745
 H1916 H 0.95021 0.28324 0.18133
 C1917 C 0.92731 0.80400 0.70734
 C1918 C 0.93999 0.78601 0.70059
 H1919 H 0.93116 0.81212 0.72387
 H1920 H 0.93688 0.77765 0.68408
 C1921 C 0.57037 0.29885 0.29493
 C1922 C 0.55496 0.28409 0.30395
 H1923 H 0.56982 0.30288 0.27643
 H1924 H 0.55422 0.28095 0.32259
 C1925 C 0.57013 0.79082 0.80435
 C1926 C 0.55442 0.80133 0.79097
 H1927 H 0.56973 0.77222 0.80609
 H1928 H 0.55369 0.81994 0.79004
 C1929 C 0.06509 0.29559 0.79902
 C1930 C 0.05046 0.30649 0.78474
 H1931 H 0.06337 0.27715 0.80157
 H1932 H 0.05122 0.32501 0.78259
 C1933 C 0.06577 0.79203 0.30586
 C1934 C 0.05355 0.80067 0.28808
 H1935 H 0.06156 0.77509 0.31271
 H1936 H 0.05751 0.81750 0.28090
 C1937 C 0.56222 0.70426 0.69494
 C1938 C 0.55805 0.70640 0.71777
 H1939 H 0.55124 0.71320 0.68254
 H1940 H 0.57001 0.69927 0.73039
 C1941 C 0.56634 0.19996 0.20827
 C1942 C 0.55602 0.21952 0.20175
 H1943 H 0.56075 0.19146 0.22424
 H1944 H 0.56092 0.22835 0.18579
 C1945 C 0.07338 0.70659 0.20805
 C1946 C 0.05855 0.72122 0.19798
 H1947 H 0.07159 0.70260 0.22648
 H1948 H 0.05909 0.72432 0.17934
 C1949 C 0.06616 0.20884 0.70811
 C1950 C 0.05155 0.22322 0.69734
 H1951 H 0.06438 0.20580 0.72672
 H1952 H 0.05216 0.22540 0.67857
 C1953 C 0.43695 0.70834 0.31191
 C1954 C 0.44340 0.70879 0.28946
 H1955 H 0.44598 0.71908 0.32433
 H1956 H 0.43354 0.69937 0.27663
 C1957 C 0.43336 0.20365 0.79879
 C1958 C 0.44393 0.19723 0.77913
 H1959 H 0.43838 0.21975 0.80685
 H1960 H 0.43960 0.18117 0.77070
 C1961 C 0.92880 0.69834 0.79185
 C1962 C 0.94131 0.71585 0.80014
 H1963 H 0.93166 0.69263 0.77410
 H1964 H 0.93956 0.72104 0.81817
 C1965 C 0.93690 0.20855 0.30029
 C1966 C 0.95121 0.19976 0.28430
 H1967 H 0.93892 0.22637 0.30544
 H1968 H 0.95020 0.18182 0.27942
 C1969 C 0.29218 0.30621 0.56993
 C1970 C 0.29222 0.28399 0.56393
 H1971 H 0.28154 0.31829 0.56027
 H1972 H 0.30194 0.27159 0.57409
 C1973 C 0.30141 0.80046 0.06374
 C1974 C 0.30231 0.77817 0.05808
 H1975 H 0.29030 0.81196 0.05389
 H1976 H 0.31244 0.76625 0.06842
 C1977 C 0.81296 0.28666 0.06961
 C1978 C 0.79048 0.28263 0.06598
 H1979 H 0.82570 0.27959 0.05775
 H1980 H 0.77778 0.28819 0.07868
 C1981 C 0.79845 0.79710 0.56849
 C1982 C 0.80180 0.77517 0.56247
 H1983 H 0.78576 0.80725 0.55909
 H1984 H 0.81302 0.76419 0.57276
 C1985 C 0.29117 0.70240 0.42584
 C1986 C 0.29976 0.71352 0.44423
 H1987 H 0.27256 0.70088 0.42406
 H1988 H 0.31824 0.71404 0.44725
 C1989 C 0.29972 0.20513 0.92527
 C1990 C 0.28285 0.19613 0.93845
 H1991 H 0.30478 0.22291 0.92791
 H1992 H 0.27813 0.17816 0.93693
 C1993 C 0.79769 0.71035 0.92170
 C1994 C 0.80911 0.72000 0.93940
 H1995 H 0.77894 0.71102 0.92149
 H1996 H 0.82769 0.71819 0.94081
 C1997 C 0.80662 0.18970 0.43301
 C1998 C 0.80375 0.21218 0.43696
 H1999 H 0.79807 0.17722 0.44425
 H2000 H 0.81079 0.22480 0.42488
 C2001 C 0.69076 0.29026 0.43465
 C2002 C 0.71358 0.28884 0.43824
 H2003 H 0.67896 0.28066 0.44578
 H2004 H 0.72550 0.29716 0.42625
 C2005 C 0.70840 0.78722 0.92565
 C2006 C 0.71809 0.79739 0.94403
 H2007 H 0.70990 0.76873 0.92364
 H2008 H 0.71537 0.81554 0.94727
 C2009 C 0.19968 0.28809 0.92420
 C2010 C 0.21598 0.29641 0.93832
 H2011 H 0.19440 0.27025 0.92616
 H2012 H 0.22094 0.31438 0.93747
 C2013 C 0.20691 0.80157 0.42877
 C2014 C 0.20160 0.78182 0.43962
 H2015 H 0.22206 0.81114 0.43421
 H2016 H 0.18618 0.77233 0.43499
 C2017 C 0.69474 0.69608 0.56459
 C2018 C 0.71635 0.69081 0.55823
 H2019 H 0.68591 0.71012 0.55581
 H2020 H 0.72610 0.67792 0.56773
 C2021 C 0.69680 0.20232 0.07350
 C2022 C 0.71323 0.19267 0.06038
 H2023 H 0.69184 0.22001 0.07000
 H2024 H 0.71838 0.17496 0.06316
 C2025 C 0.19411 0.70351 0.06489
 C2026 C 0.21415 0.69696 0.05533
 H2027 H 0.18565 0.71893 0.05846
 H2028 H 0.22344 0.68220 0.06208
 C2029 C 0.18755 0.20406 0.56610
 C2030 C 0.20839 0.19860 0.55765
 H2031 H 0.17858 0.21891 0.55901
 H2032 H 0.21834 0.18472 0.56530
   
