data_POSCAR
  _audit_creation_date              2014-09-24
  _audit_creation_method            'ToBaCCo'
  _symmetry_space_group_name_H-M    'P1'
  _symmetry_Int_Tables_number       1
  _symmetry_cell_setting            triclinic
  loop_
  _symmetry_equiv_pos_as_xyz
 x,y,z
_cell_length_a 38.9288
_cell_length_b 38.7866
_cell_length_c 38.7208
_cell_angle_alpha 89.833900
_cell_angle_beta 90.210800
_cell_angle_gamma 89.894500
loop_
  _atom_site_label
  _atom_site_type_symbol
  _atom_site_fract_x
  _atom_site_fract_y
  _atom_site_fract_z
C1 C 0.27785 0.99841 -0.02703
 C2 C 0.28625 0.99936 0.00726
 C3 C 0.29189 0.96812 0.02888
 C4 C 0.28779 1.03236 0.02680
 C5 C 0.26899 1.03081 -0.04585
 C6 C 0.27787 0.96584 -0.04722
 C7 C 0.26523 0.94439 0.03440
 C8 C 0.26637 0.92212 0.06299
 C9 C 0.29387 0.92387 0.08657
 C10 C 0.32174 0.94546 0.07926
 C11 C 0.32089 0.96715 0.05053
 C12 C 0.30807 1.06007 0.01563
 C13 C 0.30842 1.09094 0.03411
 C14 C 0.28990 1.09412 0.06516
 C15 C 0.27093 1.06561 0.07701
 C16 C 0.26948 1.03539 0.05778
 C17 C 0.28945 1.04198 -0.07349
 C18 C 0.28586 1.07552 -0.08654
 C19 C 0.26198 1.09831 -0.07186
 C20 C 0.23968 1.08612 -0.04618
 C21 C 0.24273 1.05245 -0.03372
 C22 C 0.30499 0.94204 -0.04436
 C23 C 0.30429 0.91130 -0.06301
 C24 C 0.27699 0.90419 -0.08567
 C25 C 0.25060 0.92856 -0.08971
 C26 C 0.25097 0.95904 -0.07053
 H27 H 0.24236 0.94511 0.01840
 H28 H 0.24457 0.90561 0.06814
 H29 H 0.34350 0.94681 0.09672
 H30 H 0.34165 0.98533 0.04679
 H31 H 0.32345 1.05789 -0.00749
 H32 H 0.32423 1.11171 0.02446
 H33 H 0.25380 1.01430 0.06708
 H34 H 0.30963 1.02555 -0.08342
 H35 H 0.30320 1.08431 -0.10651
 H36 H 0.22053 1.10298 -0.03500
 H37 H 0.22617 1.04403 -0.01294
 H38 H 0.32681 0.94724 -0.02777
 H39 H 0.32537 0.89328 -0.06001
 H40 H 0.22924 0.92366 -0.10698
 H41 H 0.22994 0.97714 -0.07352
 H42 H 0.25592 1.06681 0.10042
 C43 C 0.75654 0.48061 0.46984
 C44 C 0.75109 0.49083 0.50318
 C45 C 0.74226 0.46716 0.53198
 C46 C 0.75698 0.52716 0.51407
 C47 C 0.76935 0.50650 0.44442
 C48 C 0.75018 0.44467 0.45711
 C49 C 0.71485 0.47595 0.55376
 C50 C 0.71081 0.45965 0.58565
 C51 C 0.73416 0.43422 0.59655
 C52 C 0.76044 0.42396 0.57382
 C53 C 0.76457 0.44043 0.54186
 C54 C 0.73811 0.55460 0.49966
 C55 C 0.74390 0.58844 0.51071
 C56 C 0.76807 0.59518 0.53687
 C57 C 0.78687 0.56765 0.55115
 C58 C 0.78142 0.53404 0.53983
 C59 C 0.80078 0.52336 0.45013
 C60 C 0.80899 0.55315 0.43156
 C61 C 0.78641 0.56602 0.40626
 C62 C 0.75654 0.54723 0.39830
 C63 C 0.74803 0.51772 0.41734
 C64 C 0.77187 0.43056 0.43174
 C65 C 0.76588 0.39764 0.41836
 C66 C 0.73849 0.37760 0.43052
 C67 C 0.71677 0.39138 0.45585
 C68 C 0.72207 0.42482 0.46844
 H69 H 0.69750 0.49669 0.54670
 H70 H 0.68980 0.46763 0.60202
 H71 H 0.77892 0.40446 0.58141
 H72 H 0.78631 0.43377 0.52581
 H73 H 0.71874 0.54975 0.48015
 H74 H 0.72869 0.60909 0.49961
 H75 H 0.79631 0.51326 0.55120
 H76 H 0.81781 0.51477 0.47060
 H77 H 0.83251 0.56668 0.43774
 H78 H 0.73869 0.55650 0.37888
 H79 H 0.72375 0.50500 0.41249
 H80 H 0.79361 0.44506 0.42217
 H81 H 0.78302 0.38759 0.39884
 H82 H 0.69504 0.37667 0.46514
 H83 H 0.70373 0.43524 0.48655
 H84 H 0.80588 0.57208 0.57112
 C85 C 0.73457 0.99797 0.98443
 C86 C 0.73907 0.96321 0.98633
 C87 C 0.75201 0.94209 0.95716
 C88 C 0.72916 0.94364 1.01751
 C89 C 0.72248 1.01814 1.01475
 C90 C 0.73957 1.01810 0.95191
 C91 C 0.72922 0.92096 0.93861
 C92 C 0.74144 0.89828 0.91340
 C93 C 0.77683 0.89507 0.90748
 C94 C 0.79969 0.91602 0.92618
 C95 C 0.78733 0.93971 0.95050
 C96 C 0.69450 0.93611 1.02354
 C97 C 0.68533 0.91346 1.05007
 C98 C 0.71068 0.89845 1.07124
 C99 C 0.74527 0.90742 1.06619
 C100 C 0.75446 0.92954 1.03920
 C101 C 0.74307 1.02194 1.04440
 C102 C 0.73446 1.04637 1.06966
 C103 C 0.70531 1.06747 1.06539
 C104 C 0.68371 1.06189 1.03678
 C105 C 0.69226 1.03761 1.01172
 C106 C 0.75549 1.05060 0.95323
 C107 C 0.75614 1.07211 0.92419
 C108 C 0.74179 1.06124 0.89263
 C109 C 0.72640 1.02839 0.89128
 C110 C 0.72454 1.00760 0.92070
 H111 H 0.70193 0.92190 0.94390
 H112 H 0.72337 0.88204 0.89972
 H113 H 0.82712 0.91378 0.92220
 H114 H 0.80535 0.95520 0.96508
 H115 H 0.67473 0.94666 1.00681
 H116 H 0.65850 0.90711 1.05358
 H117 H 0.78135 0.93496 1.03461
 H118 H 0.76676 1.00747 1.04699
 H119 H 0.75165 1.05014 1.09135
 H120 H 0.66065 1.07712 1.03309
 H121 H 0.67602 1.03504 0.98910
 H122 H 0.76680 1.05972 0.97710
 H123 H 0.76853 1.09695 0.92650
 H124 H 0.71380 1.01926 0.86813
 H125 H 0.70989 0.98404 0.91924
 H126 H 0.76535 0.89595 1.08188
 C127 C 0.22816 0.50782 0.48805
 C128 C 0.23226 0.47445 0.49808
 C129 C 0.22900 0.46404 0.53487
 C130 C 0.24046 0.44615 0.47380
 C131 C 0.22888 0.51968 0.45177
 C132 C 0.22187 0.53550 0.51332
 C133 C 0.25213 0.47611 0.55993
 C134 C 0.24888 0.46589 0.59434
 C135 C 0.22356 0.44209 0.60393
 C136 C 0.20143 0.42868 0.57871
 C137 C 0.20393 0.43985 0.54444
 C138 C 0.26937 0.42545 0.48057
 C139 C 0.27438 0.39464 0.46276
 C140 C 0.25081 0.38420 0.43744
 C141 C 0.22261 0.40549 0.42960
 C142 C 0.21712 0.43591 0.44810
 C143 C 0.19835 0.51977 0.43241
 C144 C 0.19601 0.53856 0.40167
 C145 C 0.22361 0.55898 0.39065
 C146 C 0.25430 0.55874 0.40979
 C147 C 0.25700 0.53898 0.43998
 C148 C 0.18827 0.54656 0.52002
 C149 C 0.18259 0.57525 0.54100
 C150 C 0.21046 0.59263 0.55600
 C151 C 0.24402 0.58119 0.54967
 C152 C 0.24970 0.55331 0.52779
 H153 H 0.27307 0.49289 0.55285
 H154 H 0.26678 0.47582 0.61333
 H155 H 0.18191 0.41008 0.58565
 H156 H 0.18638 0.42959 0.52530
 H157 H 0.28739 0.43253 0.50072
 H158 H 0.29647 0.37879 0.46905
 H159 H 0.19368 0.45018 0.44366
 H160 H 0.17565 0.50695 0.44211
 H161 H 0.17192 0.53878 0.38759
 H162 H 0.27594 0.57425 0.40167
 H163 H 0.28037 0.54025 0.45518
 H164 H 0.16660 0.53350 0.50833
 H165 H 0.15653 0.58389 0.54552
 H166 H 0.26585 0.59468 0.56052
 H167 H 0.27582 0.54584 0.52180
 H168 H 0.20382 0.39766 0.41049
 C169 C 0.98444 0.25857 0.01003
 C170 C 0.98411 0.25390 0.04524
 C171 C 1.01666 0.24697 0.06478
 C172 C 0.95115 0.25527 0.06496
 C173 C 0.95246 0.25477 -0.01104
 C174 C 1.01692 0.26694 -0.00881
 C175 C 1.04135 0.22434 0.05127
 C176 C 1.07414 0.22243 0.06569
 C177 C 1.08264 0.24148 0.09540
 C178 C 1.05655 0.26094 0.11139
 C179 C 1.02404 0.26413 0.09585
 C180 C 0.94288 0.22948 0.08911
 C181 C 0.91036 0.22880 0.10458
 C182 C 0.88548 0.25372 0.09591
 C183 C 0.89437 0.28041 0.07311
 C184 C 0.92700 0.28150 0.05826
 C185 C 0.94471 0.27824 -0.03763
 C186 C 0.91442 0.27493 -0.05692
 C187 C 0.89069 0.24855 -0.04942
 C188 C 0.89906 0.22467 -0.02322
 C189 C 0.92986 0.22728 -0.00493
 C190 C 1.03987 0.29148 0.00439
 C191 C 1.07171 0.29684 -0.01113
 C192 C 1.08100 0.27894 -0.04135
 C193 C 1.05675 0.25633 -0.05610
 C194 C 1.02530 0.25008 -0.03975
 H195 H 1.03578 0.20932 0.02839
 H196 H 1.09263 0.20558 0.05351
 H197 H 1.06180 0.27567 0.13450
 H198 H 1.00522 0.28119 0.10727
 H199 H 0.96109 0.20913 0.09495
 H200 H 0.90422 0.20800 0.12220
 H201 H 0.93304 0.30225 0.04054
 H202 H 0.96189 0.29946 -0.04316
 H203 H 0.90918 0.29395 -0.07674
 H204 H 0.88257 0.20307 -0.01730
 H205 H 0.93589 0.20788 0.01433
 H206 H 1.03351 0.30596 0.02738
 H207 H 1.08856 0.31569 0.00047
 H208 H 1.06256 0.24205 -0.07932
 H209 H 1.00790 0.23131 -0.05078
 H210 H 0.87604 0.30043 0.06659
 C211 C 0.50303 0.74075 0.48224
 C212 C 0.50106 0.74616 0.51714
 C213 C 0.46769 0.74520 0.53589
 C214 C 0.53211 0.75628 0.53719
 C215 C 0.53680 0.73749 0.46455
 C216 C 0.47173 0.73919 0.45992
 C217 C 0.45879 0.77217 0.55833
 C218 C 0.42596 0.77374 0.57273
 C219 C 0.40131 0.74870 0.56447
 C220 C 0.41057 0.72093 0.54334
 C221 C 0.44374 0.71874 0.52985
 C222 C 0.55087 0.78552 0.52741
 C223 C 0.58171 0.79351 0.54395
 C224 C 0.59452 0.77248 0.57071
 C225 C 0.57466 0.74430 0.58186
 C226 C 0.54358 0.73637 0.56529
 C227 C 0.56253 0.71540 0.47747
 C228 C 0.59450 0.71348 0.46131
 C229 C 0.60092 0.73275 0.43130
 C230 C 0.57485 0.75395 0.41774
 C231 C 0.54317 0.75644 0.43432
 C232 C 0.46785 0.71260 0.43559
 C233 C 0.43768 0.70999 0.41597
 C234 C 0.41085 0.73358 0.42090
 C235 C 0.41522 0.76091 0.44409
 C236 C 0.44574 0.76423 0.46276
 H237 H 0.47679 0.79275 0.56366
 H238 H 0.41939 0.79524 0.58924
 H239 H 0.39218 0.70088 0.53734
 H240 H 0.45029 0.69709 0.51355
 H241 H 0.54197 0.80170 0.50635
 H242 H 0.59564 0.81603 0.53534
 H243 H 0.52920 0.71391 0.57343
 H244 H 0.55789 0.69972 0.50015
 H245 H 0.61397 0.69649 0.47192
 H246 H 0.57920 0.76921 0.39471
 H247 H 0.52373 0.77353 0.42377
 H248 H 0.48777 0.69335 0.43248
 H249 H 0.43468 0.68875 0.39811
 H250 H 0.39489 0.77961 0.44787
 H251 H 0.44864 0.78576 0.48025
 H252 H 0.58370 0.72763 0.60243
 C253 C 0.01818 0.75082 -0.00118
 C254 C -0.01502 0.74206 -0.00676
 C255 C -0.02814 0.73587 -0.04230
 C256 C -0.04066 0.73742 0.02114
 C257 C 0.03170 0.76487 0.03147
 C258 C 0.04505 0.74294 -0.02685
 C259 C -0.05566 0.75594 -0.05425
 C260 C -0.06930 0.75075 -0.08711
 C261 C -0.05511 0.72580 -0.10929
 C262 C -0.02774 0.70529 -0.09695
 C263 C -0.01503 0.70967 -0.06346
 C264 C -0.04829 0.76290 0.04569
 C265 C -0.07693 0.75914 0.06734
 C266 C -0.09917 0.73068 0.06348
 C267 C -0.09011 0.70459 0.04014
 C268 C -0.06106 0.70771 0.01977
 C269 C 0.04065 0.74275 0.05876
 C270 C 0.06619 0.75253 0.08232
 C271 C 0.08314 0.78434 0.07847
 C272 C 0.07126 0.80780 0.05354
 C273 C 0.04565 0.79815 0.03030
 C274 C 0.06743 0.71556 -0.01985
 C275 C 0.09349 0.70723 -0.04275
 C276 C 0.09800 0.72617 -0.07349
 C277 C 0.07481 0.75335 -0.08080
 C278 C 0.04878 0.76190 -0.05744
 H279 H -0.06654 0.77589 -0.03806
 H280 H -0.09011 0.76739 -0.09532
 H281 H -0.01677 0.68498 -0.11251
 H282 H 0.00502 0.69263 -0.05415
 H283 H -0.03336 0.78637 0.04694
 H284 H -0.08298 0.77975 0.08512
 H285 H -0.05533 0.68734 0.00156
 H286 H 0.03057 0.71676 0.05968
 H287 H 0.07483 0.73395 0.10139
 H288 H 0.08337 0.83273 0.05048
 H289 H 0.03926 0.81540 0.00915
 H290 H 0.06453 0.70028 0.00341
 H291 H 0.10947 0.68539 -0.03615
 H292 H 0.07713 0.76880 -0.10396
 H293 H 0.03160 0.78318 -0.06313
 H294 H -0.10527 0.68140 0.03747
 C295 C 0.50429 0.25176 0.52302
 C296 C 0.46973 0.25204 0.52738
 C297 C 0.44652 0.23870 0.50002
 C298 C 0.45311 0.26713 0.55826
 C299 C 0.52880 0.26632 0.54821
 C300 C 0.52088 0.23402 0.49356
 C301 C 0.42327 0.26114 0.48357
 C302 C 0.40435 0.25012 0.45497
 C303 C 0.40876 0.21663 0.44208
 C304 C 0.43056 0.19362 0.45963
 C305 C 0.44881 0.20438 0.48878
 C306 C 0.44465 0.30226 0.55901
 C307 C 0.42153 0.31480 0.58362
 C308 C 0.40701 0.29252 0.60829
 C309 C 0.41763 0.25789 0.60912
 C310 C 0.44016 0.24522 0.58400
 C311 C 0.53693 0.24782 0.57824
 C312 C 0.56778 0.25416 0.59572
 C313 C 0.59111 0.27902 0.58332
 C314 C 0.58140 0.29940 0.55484
 C315 C 0.55061 0.29299 0.53741
 C316 C 0.53624 0.20182 0.49923
 C317 C 0.55667 0.18677 0.47390
 C318 C 0.56303 0.20403 0.44259
 C319 C 0.54618 0.23565 0.43626
 C320 C 0.52524 0.25053 0.46161
 H321 H 0.42088 0.28766 0.49182
 H322 H 0.38780 0.26840 0.44177
 H323 H 0.43394 0.16749 0.45043
 H324 H 0.46566 0.18629 0.50182
 H325 H 0.45419 0.31950 0.53920
 H326 H 0.41400 0.34167 0.58256
 H327 H 0.44610 0.21793 0.58353
 H328 H 0.52086 0.22658 0.58647
 H329 H 0.57418 0.23795 0.61759
 H330 H 0.59813 0.31934 0.54501
 H331 H 0.54493 0.30723 0.51396
 H332 H 0.53311 0.18874 0.52378
 H333 H 0.56822 0.16200 0.47949
 H334 H 0.55041 0.24973 0.41251
 H335 H 0.51377 0.27559 0.45698
 H336 H 0.40669 0.24009 0.62764
 C337 C 0.99347 0.01492 0.22061
 C338 C 0.99449 -0.02007 0.21658
 C339 C 1.02718 -0.04015 0.21619
 C340 C 0.96240 -0.04013 0.21232
 C341 C 0.96076 0.03412 0.21679
 C342 C 1.02463 0.03592 0.22791
 C343 C 1.05542 -0.02905 0.19671
 C344 C 1.08694 -0.04608 0.19928
 C345 C 1.09054 -0.07588 0.21991
 C346 C 1.06129 -0.08875 0.23684
 C347 C 1.03018 -0.07081 0.23541
 C348 C 0.95070 -0.04872 0.17924
 C349 C 0.92074 -0.06803 0.17504
 C350 C 0.90293 -0.08091 0.20396
 C351 C 0.91551 -0.07296 0.23719
 C352 C 0.94447 -0.05206 0.24128
 C353 C 0.94756 0.05300 0.24459
 C354 C 0.91657 0.07096 0.24102
 C355 C 0.89839 0.07003 0.20963
 C356 C 0.91231 0.05210 0.18154
 C357 C 0.94351 0.03473 0.18495
 C358 C 1.04806 0.02627 0.25388
 C359 C 1.07928 0.04363 0.25732
 C360 C 1.08693 0.07184 0.23591
 C361 C 1.06233 0.08337 0.21199
 C362 C 1.03149 0.06540 0.20786
 H363 H 1.05339 -0.00658 0.18016
 H364 H 1.10818 -0.03605 0.18441
 H365 H 1.06269 -0.11159 0.25289
 H366 H 1.00877 -0.08048 0.25026
 H367 H 0.96474 -0.04033 0.15664
 H368 H 0.91270 -0.07413 0.14901
 H369 H 0.95339 -0.04577 0.26703
 H370 H 0.96097 0.05333 0.26914
 H371 H 0.90630 0.08458 0.26307
 H372 H 0.89914 0.05164 0.15687
 H373 H 0.95420 0.02173 0.16275
 H374 H 1.04284 0.00440 0.27048
 H375 H 1.09771 0.03467 0.27636
 H376 H 1.06773 0.10507 0.19522
 H377 H 1.01362 0.07366 0.18799
 H378 H 0.90246 -0.08192 0.26015
 C379 C 0.51231 0.53989 0.71791
 C380 C 0.50829 0.50648 0.72810
 C381 C 0.53666 0.48094 0.72785
 C382 C 0.47411 0.49266 0.73793
 C383 C 0.48166 0.56077 0.70832
 C384 C 0.54659 0.55674 0.71562
 C385 C 0.54879 0.46829 0.69626
 C386 C 0.56802 0.43778 0.69527
 C387 C 0.57616 0.42012 0.72595
 C388 C 0.56610 0.43415 0.75770
 C389 C 0.54589 0.46396 0.75859
 C390 C 0.46225 0.46173 0.72348
 C391 C 0.43111 0.44757 0.73405
 C392 C 0.41116 0.46415 0.75919
 C393 C 0.42285 0.49526 0.77344
 C394 C 0.45422 0.50923 0.76313
 C395 C 0.47374 0.59125 0.72600
 C396 C 0.44335 0.60917 0.71849
 C397 C 0.42061 0.59702 0.69294
 C398 C 0.42978 0.56751 0.67404
 C399 C 0.45992 0.54956 0.68172
 C400 C 0.57202 0.55030 0.74071
 C401 C 0.60385 0.56657 0.73880
 C402 C 0.61038 0.59079 0.71275
 C403 C 0.58472 0.59859 0.68852
 C404 C 0.55317 0.58143 0.68972
 H405 H 0.54123 0.48060 0.67225
 H406 H 0.57572 0.42746 0.67052
 H407 H 0.57197 0.42084 0.78164
 H408 H 0.53611 0.47296 0.78313
 H409 H 0.47711 0.44848 0.70400
 H410 H 0.42257 0.42379 0.72229
 H411 H 0.46327 0.53268 0.77522
 H412 H 0.49044 0.60041 0.74642
 H413 H 0.43720 0.63178 0.73356
 H414 H 0.41357 0.55787 0.65351
 H415 H 0.46606 0.52648 0.66729
 H416 H 0.56724 0.53304 0.76212
 H417 H 0.62330 0.56059 0.75799
 H418 H 0.58947 0.61711 0.66810
 H419 H 0.53396 0.58735 0.67029
 H420 H 0.40824 0.50834 0.79321
 C421 C 1.03137 1.02316 0.77075
 C422 C 0.99634 1.02449 0.77075
 C423 C 0.97508 0.99267 0.77115
 C424 C 0.97781 1.05766 0.77420
 C425 C 1.05156 1.05394 0.78027
 C426 C 1.05094 0.99063 0.76353
 C427 C 0.94881 0.98751 0.74669
 C428 C 0.93108 0.95625 0.74552
 C429 C 0.93953 0.92959 0.76857
 C430 C 0.96447 0.93538 0.79416
 C431 C 0.98176 0.96680 0.79572
 C432 C 0.96124 1.07247 0.74558
 C433 C 0.94099 1.10197 0.74945
 C434 C 0.93864 1.11845 0.78170
 C435 C 0.95675 1.10428 0.80999
 C436 C 0.97536 1.07371 0.80642
 C437 C 1.06011 1.05932 0.81501
 C438 C 1.08276 1.08553 0.82417
 C439 C 1.09671 1.10714 0.79878
 C440 C 1.08649 1.10312 0.76417
 C441 C 1.06422 1.07636 0.75491
 C442 C 1.08060 0.98184 0.78263
 C443 C 1.09722 0.95020 0.77755
 C444 C 1.08389 0.92607 0.75403
 C445 C 1.05559 0.93590 0.73342
 C446 C 1.04004 0.96804 0.73745
 H447 H 0.94292 1.00680 0.72742
 H448 H 0.91207 0.95232 0.72543
 H449 H 0.97103 0.91539 0.81263
 H450 H 1.00126 0.97052 0.81538
 H451 H 0.96372 1.06109 0.72022
 H452 H 0.92821 1.11243 0.72686
 H453 H 0.98755 1.06234 0.82892
 H454 H 1.05040 1.04219 0.83484
 H455 H 1.09008 1.08834 0.85103
 H456 H 1.09716 1.11939 0.74414
 H457 H 1.05771 1.07245 0.72799
 H458 H 1.09051 0.99879 0.80237
 H459 H 1.11913 0.94395 0.79368
 H460 H 1.04555 0.91912 0.71355
 H461 H 1.01880 0.97486 0.72064
 H462 H 0.95517 1.11556 0.83545
 C463 C 0.51216 0.49181 0.28651
 C464 C 0.47797 0.49845 0.28911
 C465 C 0.45286 0.47104 0.29845
 C466 C 0.46311 0.53113 0.27652
 C467 C 0.53778 0.51927 0.27936
 C468 C 0.52580 0.45602 0.28883
 C469 C 0.42524 0.46372 0.27617
 C470 C 0.40435 0.43511 0.28201
 C471 C 0.41067 0.41321 0.31026
 C472 C 0.43671 0.42197 0.33393
 C473 C 0.45749 0.45075 0.32819
 C474 C 0.46215 0.53755 0.24085
 C475 C 0.43884 0.56143 0.22732
 C476 C 0.41708 0.57980 0.24942
 C477 C 0.42049 0.57575 0.28532
 C478 C 0.44302 0.55110 0.29877
 C479 C 0.53993 0.54889 0.30014
 C480 C 0.56866 0.57054 0.29800
 C481 C 0.59567 0.56232 0.27556
 C482 C 0.59238 0.53410 0.25330
 C483 C 0.56358 0.51300 0.25493
 C484 C 0.55438 0.44862 0.30989
 C485 C 0.56860 0.41550 0.31040
 C486 C 0.55398 0.38928 0.29033
 C487 C 0.52558 0.39669 0.26920
 C488 C 0.51207 0.42992 0.26790
 H489 H 0.42090 0.47899 0.25312
 H490 H 0.38460 0.42914 0.26325
 H491 H 0.44169 0.40608 0.35641
 H492 H 0.47810 0.45638 0.34615
 H493 H 0.47708 0.52182 0.22334
 H494 H 0.43663 0.56436 0.19957
 H495 H 0.44314 0.54597 0.32628
 H496 H 0.52056 0.55402 0.31947
 H497 H 0.57085 0.59221 0.31544
 H498 H 0.61273 0.52764 0.23543
 H499 H 0.56237 0.49052 0.23843
 H500 H 0.56577 0.46856 0.32573
 H501 H 0.59060 0.41021 0.32678
 H502 H 0.51438 0.37696 0.25296
 H503 H 0.49106 0.43534 0.25030
 H504 H 0.40375 0.58953 0.30280
 O505 O 0.27008 0.16185 0.18283
 O506 O 0.30744 0.14101 0.22885
 O507 O 0.17666 0.18159 0.23980
 O508 O 0.15829 0.21829 0.27933
 O509 O 0.21953 0.25210 0.16288
 O510 O 0.26223 0.29885 0.17004
 O511 O 0.25804 0.25629 0.35181
 O512 O 0.21835 0.20912 0.34663
 O513 O 0.34841 0.22109 0.30425
 O514 O 0.36393 0.20315 0.24628
 O515 O 0.30402 0.32088 0.28262
 O516 O 0.25553 0.33817 0.24019
 O517 O 0.25428 0.30695 0.32225
 O518 O 0.21955 0.32947 0.27721
 O519 O 0.34658 0.28076 0.27978
 O520 O 0.36272 0.25005 0.22378
 O521 O 0.30526 0.21415 0.34311
 O522 O 0.25941 0.17025 0.33948
 O523 O 0.27583 0.21356 0.15568
 O524 O 0.30312 0.26607 0.15976
 O525 O 0.17580 0.23975 0.19975
 O526 O 0.16308 0.26832 0.25557
 O527 O 0.22118 0.14473 0.23045
 O528 O 0.26878 0.12733 0.26214
 Zr529 Zr 0.26541 0.17492 0.23562
 O530 O 0.29351 0.19567 0.27695
 Zr531 Zr 0.20076 0.22977 0.24738
 O532 O 0.22659 0.25354 0.28913
 Zr533 Zr 0.26410 0.24969 0.19379
 O534 O 0.29304 0.27388 0.23291
 Zr535 Zr 0.26014 0.21827 0.31312
 O536 O 0.23154 0.19334 0.27388
 Zr537 Zr 0.32316 0.23694 0.25888
 O538 O 0.29790 0.21375 0.21667
 Zr539 Zr 0.25910 0.29268 0.27037
 O540 O 0.22983 0.27177 0.22918
 O541 O 0.23306 0.20904 0.21014
 O542 O 0.29132 0.25821 0.29624
 C543 C 0.27581 0.18053 0.15589
 C544 C 0.18916 0.15135 0.23436
 C545 C 0.18758 0.24735 0.16967
 C546 C 0.25571 0.28932 0.35028
 C547 C 0.33713 0.21470 0.33468
 C548 C 0.33535 0.31101 0.28674
 H549 H 0.30778 0.17711 0.28711
 H550 H 0.30723 0.29248 0.22296
 H551 H 0.22049 0.19687 0.19155
 H552 H 0.20970 0.26263 0.30582
 H553 H 0.20212 0.19408 0.33395
 H554 H 0.16445 0.22526 0.30310
 H555 H 0.36136 0.27509 0.21900
 H556 H 0.32472 0.25580 0.16863
 H557 H 0.28002 0.15700 0.33268
 H558 H 0.25536 0.13012 0.28362
 H559 H 0.27765 0.34137 0.22812
 H560 H 0.24158 0.31071 0.17902
 H561 H 0.32452 0.15339 0.21458
 H562 H 0.35842 0.18037 0.25639
 H563 H 0.16933 0.28835 0.24100
 H564 H 0.19953 0.31712 0.28683
 O565 O 0.72340 0.82298 0.19378
 O566 O 0.69661 0.83164 0.24953
 O567 O 0.82758 0.80173 0.22175
 O568 O 0.85539 0.76428 0.25590
 O569 O 0.77536 0.73526 0.14919
 O570 O 0.73269 0.69198 0.15360
 O571 O 0.78067 0.70283 0.33626
 O572 O 0.81200 0.75679 0.33150
 O573 O 0.67787 0.73080 0.31522
 O574 O 0.64844 0.76080 0.27004
 O575 O 0.72204 0.64590 0.26477
 O576 O 0.76296 0.63990 0.21545
 O577 O 0.77463 0.65750 0.29965
 O578 O 0.80502 0.64827 0.24455
 O579 O 0.67476 0.67948 0.27241
 O580 O 0.64745 0.72413 0.23342
 O581 O 0.72749 0.73916 0.34521
 O582 O 0.76183 0.78615 0.34315
 O583 O 0.71942 0.77710 0.15746
 O584 O 0.69071 0.72307 0.16046
 O585 O 0.82470 0.74794 0.17825
 O586 O 0.85103 0.71675 0.22626
 O587 O 0.77990 0.83557 0.22555
 O588 O 0.74228 0.84256 0.27620
 Zr589 Zr 0.74082 0.80125 0.24064
 O590 O 0.72332 0.77054 0.28204
 Zr591 Zr 0.80916 0.75141 0.23019
 O592 O 0.79470 0.71851 0.27112
 Zr593 Zr 0.73680 0.73488 0.18693
 O594 O 0.71925 0.70141 0.22568
 Zr595 Zr 0.76478 0.74579 0.30667
 O596 O 0.78299 0.78028 0.26804
 Zr597 Zr 0.69279 0.72999 0.26317
 O598 O 0.70694 0.76318 0.22209
 Zr599 Zr 0.76154 0.68022 0.25215
 O600 O 0.77922 0.71064 0.21057
 O601 O 0.76857 0.77435 0.20370
 O602 O 0.73316 0.70608 0.28948
 C603 C 0.71610 0.80924 0.16452
 C604 C 0.81205 0.83093 0.21992
 C605 C 0.80795 0.74006 0.15074
 C606 C 0.78143 0.67042 0.32933
 C607 C 0.69495 0.73411 0.34342
 C608 C 0.69008 0.65011 0.27139
 H609 H 0.71075 0.78521 0.29861
 H610 H 0.70466 0.68358 0.21489
 H611 H 0.77637 0.78892 0.18423
 H612 H 0.81536 0.70868 0.28237
 H613 H 0.82098 0.77822 0.32091
 H614 H 0.85446 0.75356 0.27908
 H615 H 0.65029 0.70343 0.21883
 H616 H 0.67229 0.73662 0.17164
 H617 H 0.76593 0.80771 0.33025
 H618 H 0.76606 0.84396 0.28523
 H619 H 0.73994 0.63830 0.20466
 H620 H 0.75239 0.67669 0.15898
 H621 H 0.67718 0.81957 0.23832
 H622 H 0.65573 0.78240 0.28140
 H623 H 0.84269 0.69656 0.21312
 H624 H 0.82405 0.65739 0.25881
 O625 O 0.76168 0.16339 0.78178
 O626 O 0.74942 0.15924 0.72410
 O627 O 0.84516 0.23854 0.78050
 O628 O 0.85198 0.29237 0.76095
 O629 O 0.76958 0.24357 0.85742
 O630 O 0.71304 0.26494 0.86026
 O631 O 0.75611 0.32952 0.68503
 O632 O 0.80680 0.30010 0.67821
 O633 O 0.67803 0.25452 0.68786
 O634 O 0.66687 0.20334 0.72200
 O635 O 0.67933 0.33421 0.76134
 O636 O 0.70956 0.34562 0.81308
 O637 O 0.73093 0.35605 0.73080
 O638 O 0.75656 0.36011 0.79348
 O639 O 0.65519 0.28768 0.73525
 O640 O 0.64945 0.22758 0.76554
 O641 O 0.72419 0.28036 0.66306
 O642 O 0.78440 0.25019 0.66079
 O643 O 0.73958 0.18853 0.82997
 O644 O 0.68723 0.22377 0.83642
 O645 O 0.81732 0.26776 0.83385
 O646 O 0.82354 0.32229 0.79894
 O647 O 0.82133 0.19002 0.75771
 O648 O 0.79050 0.18392 0.70114
 Zr649 Zr 0.76963 0.20415 0.74721
 O650 O 0.73759 0.23273 0.71378
 Zr651 Zr 0.80492 0.27426 0.78105
 O652 O 0.77678 0.30607 0.74685
 Zr653 Zr 0.73450 0.24128 0.81621
 O654 O 0.70304 0.27374 0.78574
 Zr655 Zr 0.76276 0.27891 0.70191
 O656 O 0.79622 0.24919 0.73344
 Zr657 Zr 0.69248 0.24818 0.73934
 O658 O 0.72182 0.21457 0.77073
 Zr659 Zr 0.73000 0.31835 0.77062
 O660 O 0.75933 0.28859 0.80612
 O661 O 0.78093 0.22807 0.79374
 O662 O 0.71700 0.29347 0.72508
 C663 C 0.74957 0.16213 0.81251
 C664 C 0.84653 0.20689 0.77116
 C665 C 0.80054 0.25476 0.85930
 C666 C 0.74177 0.35549 0.69939
 C667 C 0.69288 0.26966 0.66262
 C668 C 0.65478 0.31935 0.74504
 H669 H 0.73238 0.21906 0.69291
 H670 H 0.68182 0.27961 0.79837
 H671 H 0.79463 0.21294 0.80914
 H672 H 0.79024 0.32686 0.74100
 H673 H 0.82687 0.28795 0.68828
 H674 H 0.84637 0.30585 0.73996
 H675 H 0.63906 0.24614 0.77954
 H676 H 0.67874 0.20573 0.82052
 H677 H 0.76601 0.23643 0.64980
 H678 H 0.81035 0.19860 0.69497
 H679 H 0.69543 0.32914 0.82636
 H680 H 0.72285 0.28844 0.86133
 H681 H 0.72445 0.15954 0.72882
 H682 H 0.68145 0.19258 0.70414
 H683 H 0.80933 0.32887 0.81903
 H684 H 0.77261 0.36957 0.77613
 O685 O 0.24843 0.82566 0.79980
 O686 O 0.27547 0.84671 0.74906
 O687 O 0.15139 0.78946 0.75648
 O688 O 0.13136 0.74626 0.72691
 O689 O 0.21392 0.72528 0.83119
 O690 O 0.26272 0.69159 0.82494
 O691 O 0.21626 0.71851 0.64169
 O692 O 0.18213 0.76612 0.64759
 O693 O 0.31658 0.75778 0.67203
 O694 O 0.33868 0.78601 0.71982
 O695 O 0.28477 0.66235 0.70539
 O696 O 0.24736 0.64079 0.75098
 O697 O 0.22942 0.66984 0.67194
 O698 O 0.20206 0.64821 0.72685
 O699 O 0.32632 0.70333 0.70871
 O700 O 0.34247 0.74774 0.75570
 O701 O 0.26767 0.75813 0.63980
 O702 O 0.22161 0.80534 0.64930
 O703 O 0.26022 0.77682 0.83037
 O704 O 0.29972 0.72911 0.82155
 O705 O 0.16404 0.73551 0.80216
 O706 O 0.14713 0.70113 0.74940
 O707 O 0.19048 0.83292 0.75829
 O708 O 0.23274 0.85175 0.71801
 Zr709 Zr 0.23792 0.80740 0.74945
 O710 O 0.26323 0.78588 0.70630
 Zr711 Zr 0.18018 0.74440 0.75088
 O712 O 0.20151 0.72152 0.70678
 Zr713 Zr 0.25242 0.73635 0.79541
 O714 O 0.27679 0.71122 0.75413
 Zr715 Zr 0.22763 0.75811 0.67652
 O716 O 0.20171 0.78201 0.71797
 Zr717 Zr 0.29930 0.74862 0.72232
 O718 O 0.27764 0.77380 0.76553
 Zr719 Zr 0.24007 0.68692 0.72250
 O720 O 0.21642 0.70757 0.76702
 O721 O 0.21424 0.77176 0.78172
 O722 O 0.26486 0.72214 0.69070
 C723 C 0.25783 0.80969 0.82746
 C724 C 0.15945 0.82142 0.75789
 C725 C 0.18111 0.72689 0.82933
 C726 C 0.21946 0.68573 0.64449
 C727 C 0.30056 0.75850 0.64308
 C728 C 0.31592 0.67251 0.70251
 H729 H 0.27437 0.80428 0.69269
 H730 H 0.29394 0.69478 0.76342
 H731 H 0.20261 0.78321 0.80131
 H732 H 0.18277 0.71024 0.69376
 H733 H 0.16596 0.77852 0.66286
 H734 H 0.13554 0.74810 0.70180
 H735 H 0.34444 0.72420 0.76544
 H736 H 0.31453 0.74892 0.81546
 H737 H 0.24456 0.81542 0.64519
 H738 H 0.21556 0.84599 0.70006
 H739 H 0.26846 0.64342 0.76503
 H740 H 0.24890 0.67289 0.81451
 H741 H 0.29670 0.83646 0.75884
 H742 H 0.32744 0.80857 0.71599
 H743 H 0.15685 0.68362 0.76534
 H744 H 0.18237 0.65507 0.71213
 O745 O 0.22972 0.38191 0.74476
 O746 O 0.19660 0.38519 0.79666
 O747 O 0.32868 0.35279 0.77897
 O748 O 0.35045 0.30669 0.81415
 O749 O 0.28272 0.30151 0.69406
 O750 O 0.24024 0.25625 0.68946
 O751 O 0.26155 0.24355 0.87635
 O752 O 0.29832 0.29528 0.88412
 O753 O 0.16731 0.27919 0.84822
 O754 O 0.14524 0.31641 0.80064
 O755 O 0.21523 0.19794 0.79632
 O756 O 0.25795 0.19509 0.74802
 O757 O 0.26509 0.20335 0.83392
 O758 O 0.29959 0.20004 0.77954
 O759 O 0.16812 0.23243 0.80093
 O760 O 0.14505 0.27928 0.76459
 O761 O 0.21348 0.28687 0.88351
 O762 O 0.26050 0.33004 0.88776
 O763 O 0.22892 0.34181 0.70197
 O764 O 0.19710 0.28882 0.69558
 O765 O 0.32946 0.30373 0.72958
 O766 O 0.35082 0.26867 0.77590
 O767 O 0.28229 0.38758 0.78749
 O768 O 0.23833 0.38989 0.83049
 Zr769 Zr 0.24042 0.35368 0.78981
 O770 O 0.21738 0.31962 0.82494
 Zr771 Zr 0.30835 0.30246 0.77982
 O772 O 0.28843 0.26603 0.81495
 Zr773 Zr 0.24070 0.29509 0.72763
 O774 O 0.21784 0.25799 0.76022
 Zr775 Zr 0.25576 0.29079 0.85019
 O776 O 0.27916 0.32787 0.81783
 Zr777 Zr 0.18809 0.28285 0.79797
 O778 O 0.20779 0.31983 0.76282
 Zr779 Zr 0.25623 0.23183 0.78834
 O780 O 0.27931 0.26583 0.75244
 O781 O 0.27151 0.33063 0.75297
 O782 O 0.22489 0.25481 0.82532
 C783 C 0.22629 0.37295 0.71306
 C784 C 0.31453 0.38252 0.78296
 C785 C 0.31526 0.30372 0.69952
 C786 C 0.26446 0.21233 0.86580
 C787 C 0.18122 0.28250 0.87820
 C788 C 0.18302 0.20286 0.80090
 H789 H 0.20340 0.33330 0.84117
 H790 H 0.20389 0.24195 0.74625
 H791 H 0.28202 0.34751 0.73699
 H792 H 0.30739 0.25374 0.82674
 H793 H 0.31597 0.27842 0.87694
 H794 H 0.34177 0.31886 0.83480
 H795 H 0.15076 0.26270 0.74611
 H796 H 0.17819 0.30178 0.70663
 H797 H 0.23938 0.34424 0.88674
 H798 H 0.25801 0.38478 0.84596
 H799 H 0.23584 0.19611 0.73539
 H800 H 0.25922 0.24023 0.69531
 H801 H 0.17806 0.37505 0.78240
 H802 H 0.15010 0.33372 0.81870
 H803 H 0.34317 0.24910 0.76146
 H804 H 0.31702 0.20539 0.79738
 O805 O 0.78594 0.67704 0.64642
 O806 O 0.82875 0.65765 0.68837
 O807 O 0.70052 0.70087 0.71080
 O808 O 0.68807 0.73773 0.75303
 O809 O 0.73515 0.77456 0.63076
 O810 O 0.78296 0.81307 0.62721
 O811 O 0.79603 0.77740 0.81197
 O812 O 0.75539 0.73103 0.81341
 O813 O 0.87932 0.73862 0.75439
 O814 O 0.88396 0.71740 0.69191
 O815 O 0.83466 0.83803 0.73762
 O816 O 0.78374 0.85689 0.70005
 O817 O 0.78767 0.82722 0.78193
 O818 O 0.74895 0.84852 0.73777
 O819 O 0.87586 0.79770 0.72741
 O820 O 0.88738 0.76926 0.67691
 O821 O 0.84110 0.73391 0.79844
 O822 O 0.79410 0.69095 0.80218
 O823 O 0.78146 0.72696 0.61569
 O824 O 0.81985 0.77595 0.61534
 O825 O 0.69587 0.75926 0.67137
 O826 O 0.69008 0.78791 0.72769
 O827 O 0.74347 0.66305 0.69844
 O828 O 0.79354 0.64591 0.72630
 Zr829 Zr 0.78816 0.69253 0.69838
 O830 O 0.82121 0.71391 0.73540
 Zr831 Zr 0.72615 0.74880 0.71577
 O832 O 0.75703 0.77332 0.75351
 Zr833 Zr 0.78304 0.76551 0.65400
 O834 O 0.81643 0.79047 0.68890
 Zr835 Zr 0.79265 0.73820 0.77446
 O836 O 0.75920 0.71263 0.73970
 Zr837 Zr 0.84894 0.75385 0.71211
 O838 O 0.81879 0.72974 0.67372
 Zr839 Zr 0.78785 0.81123 0.72993
 O840 O 0.75392 0.78951 0.69286
 O841 O 0.75338 0.72650 0.67571
 O842 O 0.82232 0.77680 0.75264
 C843 C 0.78317 0.69393 0.61794
 C844 C 0.71205 0.67031 0.70472
 C845 C 0.70419 0.77012 0.64109
 C846 C 0.79274 0.81035 0.81009
 C847 C 0.87170 0.73344 0.78615
 C848 C 0.86613 0.82783 0.73665
 H849 H 0.83626 0.69532 0.74428
 H850 H 0.82991 0.80837 0.67683
 H851 H 0.73771 0.71497 0.65922
 H852 H 0.74228 0.78314 0.77176
 H853 H 0.73724 0.71624 0.80333
 H854 H 0.69656 0.74627 0.77552
 H855 H 0.87546 0.77780 0.65601
 H856 H 0.83696 0.75704 0.61631
 H857 H 0.81354 0.67709 0.79342
 H858 H 0.78197 0.64954 0.74871
 H859 H 0.80461 0.85891 0.68569
 H860 H 0.76867 0.82905 0.64094
 H861 H 0.84339 0.66834 0.67045
 H862 H 0.88364 0.69706 0.70739
 H863 H 0.69543 0.80795 0.71276
 H864 H 0.73125 0.83781 0.75258
 O865 O 0.23286 0.65317 0.27126
 O866 O 0.20336 0.65692 0.21881
 O867 O 0.33271 0.69121 0.24705
 O868 O 0.35605 0.73839 0.22599
 O869 O 0.28170 0.72830 0.33919
 O870 O 0.23647 0.76475 0.35044
 O871 O 0.26766 0.81226 0.16752
 O872 O 0.30163 0.76560 0.15290
 O873 O 0.16910 0.77010 0.18838
 O874 O 0.14602 0.72987 0.22676
 O875 O 0.21630 0.84405 0.25120
 O876 O 0.25579 0.84014 0.30168
 O877 O 0.27008 0.84411 0.21670
 O878 O 0.29971 0.83834 0.27422
 O879 O 0.16999 0.81047 0.23919
 O880 O 0.14950 0.75531 0.27291
 O881 O 0.21592 0.77694 0.15405
 O882 O 0.25953 0.72953 0.14143
 O883 O 0.23216 0.68410 0.32115
 O884 O 0.19488 0.73487 0.33361
 O885 O 0.32932 0.72975 0.30539
 O886 O 0.34931 0.77587 0.26559
 O887 O 0.28838 0.65750 0.22900
 O888 O 0.24377 0.66247 0.18540
 Zr889 Zr 0.24467 0.68937 0.23283
 O890 O 0.22037 0.72880 0.20449
 Zr891 Zr 0.31018 0.73950 0.25501
 O892 O 0.29016 0.78042 0.22523
 Zr893 Zr 0.24087 0.73556 0.30470
 O894 O 0.21869 0.77833 0.27897
 Zr895 Zr 0.25815 0.76219 0.18529
 O896 O 0.28294 0.72101 0.21145
 Zr897 Zr 0.19020 0.75984 0.23702
 O898 O 0.21007 0.71680 0.26428
 Zr899 Zr 0.25714 0.80931 0.25664
 O900 O 0.27925 0.76977 0.28727
 O901 O 0.27382 0.70584 0.27483
 O902 O 0.22669 0.79277 0.21571
 C903 C 0.22915 0.65580 0.30404
 C904 C 0.32026 0.66282 0.23576
 C905 C 0.31431 0.72752 0.33487
 C906 C 0.27221 0.84064 0.18375
 C907 C 0.18334 0.77738 0.15952
 C908 C 0.18452 0.83990 0.24366
 H909 H 0.20640 0.71832 0.18594
 H910 H 0.20410 0.79161 0.29498
 H911 H 0.28477 0.68677 0.28792
 H912 H 0.30938 0.79423 0.21594
 H913 H 0.31705 0.74633 0.15950
 H914 H 0.35180 0.75227 0.20496
 H915 H 0.14920 0.77629 0.28737
 H916 H 0.17873 0.71942 0.32136
 H917 H 0.23631 0.71990 0.13766
 H918 H 0.26344 0.67103 0.17173
 H919 H 0.23312 0.83707 0.31271
 H920 H 0.24958 0.78620 0.34631
 H921 H 0.18326 0.66470 0.23232
 H922 H 0.15317 0.71113 0.21107
 H923 H 0.34265 0.78818 0.28692
 H924 H 0.31799 0.83649 0.25663
 O925 O 0.71848 0.29237 0.32189
 O926 O 0.74572 0.31510 0.27343
 O927 O 0.62325 0.25446 0.27615
 O928 O 0.60656 0.21527 0.23914
 O929 O 0.68029 0.19076 0.35012
 O930 O 0.73046 0.15793 0.34726
 O931 O 0.70241 0.18776 0.16039
 O932 O 0.66253 0.23173 0.16468
 O933 O 0.79525 0.22783 0.19993
 O934 O 0.81262 0.25497 0.25218
 O935 O 0.76138 0.13093 0.22784
 O936 O 0.72162 0.10788 0.27005
 O937 O 0.70947 0.13800 0.19081
 O938 O 0.67707 0.11627 0.24368
 O939 O 0.80215 0.17226 0.23480
 O940 O 0.81510 0.21399 0.28435
 O941 O 0.74877 0.23515 0.16490
 O942 O 0.69804 0.27411 0.17043
 O943 O 0.72431 0.24356 0.35422
 O944 O 0.76727 0.19699 0.34694
 O945 O 0.63283 0.20016 0.31693
 O946 O 0.62093 0.16694 0.26198
 O947 O 0.66181 0.29816 0.28148
 O948 O 0.70432 0.31830 0.23949
 Zr949 Zr 0.70981 0.27436 0.27151
 O950 O 0.73887 0.25414 0.23048
 Zr951 Zr 0.65297 0.21068 0.26735
 O952 O 0.67805 0.18923 0.22434
 Zr953 Zr 0.72164 0.20298 0.31771
 O954 O 0.74928 0.17873 0.27770
 Zr955 Zr 0.70595 0.22699 0.19732
 O956 O 0.67616 0.24953 0.23698
 Zr957 Zr 0.77401 0.21681 0.24846
 O958 O 0.74864 0.24106 0.29025
 Zr959 Zr 0.71557 0.15474 0.24249
 O960 O 0.68847 0.17415 0.28574
 O961 O 0.68441 0.23777 0.30113
 O962 O 0.74242 0.19102 0.21345
 C963 C 0.72330 0.27661 0.35070
 C964 C 0.63099 0.28609 0.28126
 C965 C 0.64764 0.19211 0.34558
 C966 C 0.70433 0.15479 0.16255
 C967 C 0.78136 0.23448 0.17057
 C968 C 0.79242 0.14166 0.22672
 H969 H 0.75075 0.27319 0.21851
 H970 H 0.76583 0.16214 0.28778
 H971 H 0.67145 0.24845 0.32029
 H972 H 0.66097 0.17794 0.20919
 H973 H 0.64430 0.24284 0.17854
 H974 H 0.61222 0.21154 0.21457
 H975 H 0.81551 0.19043 0.29420
 H976 H 0.78148 0.21765 0.34246
 H977 H 0.71774 0.28946 0.17514
 H978 H 0.68483 0.31362 0.22370
 H979 H 0.74092 0.11080 0.28645
 H980 H 0.71802 0.13916 0.33530
 H981 H 0.76753 0.30489 0.28185
 H982 H 0.80294 0.27666 0.24281
 H983 H 0.62921 0.14941 0.27869
 H984 H 0.65953 0.12229 0.22611
 N985 N 0.29337 0.18081 0.09607
 N986 N 0.29853 0.15616 0.07049
 C987 C 0.28996 0.12515 0.08381
 C988 C 0.28002 0.12934 0.11810
 C989 C 0.28259 0.16428 0.12468
 H990 H 0.27217 0.10965 0.13627
 H991 H 0.29777 0.20720 0.09305
 H992 H 0.30562 0.16200 0.04518
 N993 N 0.77068 0.68612 0.55501
 N994 N 0.76610 0.65994 0.53364
 C995 C 0.77255 0.63032 0.55084
 C996 C 0.78161 0.63806 0.58451
 C997 C 0.77993 0.67358 0.58618
 H998 H 0.78678 0.62026 0.60549
 H999 H 0.76639 0.71194 0.54855
 H1000 H 0.75832 0.66251 0.50792
 N1001 N 0.67881 0.82324 0.11429
 N1002 N 0.67699 0.84719 0.09003
 C1003 C 0.70133 0.87112 0.09615
 C1004 C 0.71900 0.86230 0.12612
 C1005 C 0.70390 0.83177 0.13665
 H1006 H 0.74116 0.87489 0.13733
 H1007 H 0.66382 0.80094 0.11483
 H1008 H 0.66067 0.84590 0.06860
 N1009 N 0.22365 0.43460 0.69597
 N1010 N 0.22357 0.45288 0.66718
 C1011 C 0.22076 0.43123 0.64022
 C1012 C 0.21895 0.39760 0.65229
 C1013 C 0.22125 0.40090 0.68786
 H1014 H 0.21868 0.37411 0.63728
 H1015 H 0.22693 0.44506 0.72059
 H1016 H 0.22631 0.47965 0.66610
 N1017 N 0.74064 0.09927 0.80831
 N1018 N 0.73767 0.07119 0.83054
 C1019 C 0.74233 0.08264 0.86313
 C1020 C 0.74778 0.11829 0.86222
 C1021 C 0.74628 0.12750 0.82758
 H1022 H 0.75179 0.13554 0.88377
 H1023 H 0.73814 0.09814 0.78147
 H1024 H 0.73435 0.04585 0.82221
 N1025 N 0.20449 0.59702 0.30830
 N1026 N 0.20307 0.57151 0.33089
 C1027 C 0.21972 0.58113 0.35983
 C1028 C 0.23182 0.61458 0.35571
 C1029 C 0.22146 0.62366 0.32262
 H1030 H 0.24639 0.62987 0.37393
 H1031 H 0.19400 0.59607 0.28345
 H1032 H 0.19144 0.54773 0.32619
 N1033 N 0.28278 0.81639 0.88611
 N1034 N 0.28835 0.84119 0.90870
 C1035 C 0.27578 0.87097 0.89583
 C1036 C 0.26161 0.86484 0.86343
 C1037 C 0.26675 0.82987 0.85827
 H1038 H 0.24969 0.88320 0.84600
 H1039 H 0.29018 0.79073 0.88973
 H1040 H 0.30015 0.83746 0.93268
 N1041 N 0.71916 0.28830 0.41412
 N1042 N 0.72222 0.31514 0.43495
 C1043 C 0.73235 0.34270 0.41631
 C1044 C 0.73557 0.33299 0.38204
 C1045 C 0.72684 0.29833 0.38172
 H1046 H 0.74242 0.34909 0.36026
 H1047 H 0.71104 0.26384 0.42191
 H1048 H 0.71751 0.31444 0.46148
 N1049 N 0.17369 0.23804 0.10816
 N1050 N 0.14432 0.23430 0.08792
 C1051 C 0.11679 0.24183 0.10768
 C1052 C 0.12813 0.25020 0.14089
 C1053 C 0.16374 0.24707 0.14011
 H1054 H 0.11256 0.25603 0.16323
 H1055 H 0.19861 0.23227 0.10009
 H1056 H 0.14473 0.22825 0.06168
 N1057 N 0.68274 0.79514 0.58615
 N1058 N 0.65415 0.79599 0.56779
 C1059 C 0.62933 0.77900 0.58509
 C1060 C 0.64299 0.76691 0.61618
 C1061 C 0.67697 0.77774 0.61568
 H1062 H 0.63047 0.75156 0.63581
 H1063 H 0.70601 0.80582 0.57810
 H1064 H 0.65243 0.80695 0.54319
 N1065 N 0.17559 0.69818 0.88588
 N1066 N 0.15232 0.69773 0.91302
 C1067 C 0.12555 0.71834 0.90430
 C1068 C 0.13108 0.73163 0.87124
 C1069 C 0.16252 0.71849 0.86095
 H1070 H 0.11511 0.74932 0.85667
 H1071 H 0.19928 0.68549 0.88583
 H1072 H 0.15720 0.68533 0.93646
 N1073 N 0.63688 0.16538 0.40264
 N1074 N 0.61468 0.16840 0.42811
 C1075 C 0.58943 0.19039 0.41846
 C1076 C 0.59586 0.20136 0.38480
 C1077 C 0.62631 0.18501 0.37597
 H1078 H 0.58202 0.22047 0.36980
 H1079 H 0.65968 0.15119 0.40418
 H1080 H 0.61829 0.15707 0.45233
 N1081 N 0.81592 0.71358 0.09362
 N1082 N 0.84250 0.70946 0.07012
 C1083 C 0.86941 0.72851 0.08112
 C1084 C 0.86057 0.74496 0.11179
 C1085 C 0.82721 0.73445 0.11885
 H1086 H 0.87676 0.76092 0.12791
 H1087 H 0.79243 0.70065 0.09254
 H1088 H 0.84038 0.69514 0.04743
 N1089 N 0.32860 0.32788 0.64168
 N1090 N 0.35315 0.32587 0.61830
 C1091 C 0.37796 0.30444 0.62995
 C1092 C 0.36886 0.29264 0.66268
 C1093 C 0.33733 0.30819 0.66902
 H1094 H 0.38246 0.27436 0.67890
 H1095 H 0.30609 0.34231 0.63872
 H1096 H 0.35203 0.33785 0.59414
 N1097 N 0.80651 0.22989 0.91802
 N1098 N 0.83221 0.22701 0.94297
 C1099 C 0.85938 0.24586 0.93235
 C1100 C 0.85141 0.26105 0.90059
 C1101 C 0.81846 0.25005 0.89245
 H1102 H 0.86801 0.27635 0.88430
 H1103 H 0.78312 0.21676 0.91863
 H1104 H 0.82949 0.21317 0.96595
 N1105 N 0.32199 0.72741 0.39843
 N1106 N 0.34731 0.72979 0.42101
 C1107 C 0.37734 0.72873 0.40396
 C1108 C 0.37096 0.72551 0.36882
 C1109 C 0.33535 0.72515 0.36644
 H1110 H 0.38942 0.72575 0.34798
 H1111 H 0.29599 0.72881 0.40488
 H1112 H 0.34397 0.73280 0.44759
 N1113 N 0.17722 0.08878 0.23816
 N1114 N 0.15048 0.06804 0.23984
 C1115 C 0.12163 0.08696 0.23654
 C1116 C 0.13038 0.12149 0.23265
 C1117 C 0.16601 0.12144 0.23402
 H1118 H 0.11334 0.14341 0.22987
 H1119 H 0.20271 0.08062 0.24055
 H1120 H 0.15214 0.04130 0.24277
 N1121 N 0.70028 0.60793 0.70932
 N1122 N 0.67377 0.58707 0.71203
 C1123 C 0.64481 0.60590 0.70994
 C1124 C 0.65313 0.64051 0.70593
 C1125 C 0.68877 0.64057 0.70589
 H1126 H 0.63587 0.66237 0.70423
 H1127 H 0.72587 0.59985 0.71063
 H1128 H 0.67560 0.56038 0.71525
 N1129 N 0.89793 0.19688 0.80728
 N1130 N 0.92281 0.17137 0.81137
 C1131 C 0.91850 0.14826 0.78574
 C1132 C 0.89067 0.15834 0.76518
 C1133 C 0.87841 0.18851 0.77981
 H1134 H 0.87947 0.14462 0.74362
 H1135 H 0.89407 0.21738 0.82429
 H1136 H 0.94171 0.17160 0.83056
 N1137 N 0.34090 0.60948 0.20692
 N1138 N 0.36752 0.58845 0.20955
 C1139 C 0.38813 0.59968 0.23521
 C1140 C 0.37432 0.62929 0.24925
 C1141 C 0.34443 0.63451 0.23064
 H1142 H 0.38392 0.64418 0.27083
 H1143 H 0.32069 0.60652 0.18935
 H1144 H 0.37060 0.56600 0.19504
 N1145 N 0.09983 0.83617 0.74236
 N1146 N 0.07937 0.86543 0.73937
 C1147 C 0.09734 0.89240 0.75186
 C1148 C 0.12977 0.88081 0.76272
 C1149 C 0.13026 0.84559 0.75595
 H1150 H 0.15073 0.89605 0.77288
 H1151 H 0.09284 0.81172 0.73359
 H1152 H 0.05397 0.86507 0.73066
 N1153 N 0.56890 0.29856 0.28662
 N1154 N 0.54853 0.32562 0.28888
 C1155 C 0.56805 0.35413 0.29099
 C1156 C 0.60251 0.34489 0.29019
 C1157 C 0.60180 0.30933 0.28698
 H1158 H 0.62466 0.36169 0.28981
 H1159 H 0.56020 0.27324 0.28387
 H1160 H 0.52172 0.32445 0.28840
 N1161 N 0.82758 0.87419 0.17593
 N1162 N 0.85401 0.89779 0.17068
 C1163 C 0.87348 0.89849 0.19963
 C1164 C 0.86011 0.87515 0.22354
 C1165 C 0.83178 0.86051 0.20758
 H1166 H 0.87054 0.86819 0.24855
 H1167 H 0.80932 0.86711 0.15745
 H1168 H 0.85674 0.91266 0.14835
 N1169 N 0.32605 0.44530 0.78914
 N1170 N 0.35152 0.46688 0.78294
 C1171 C 0.37843 0.44884 0.77061
 C1172 C 0.36979 0.41422 0.76925
 C1173 C 0.33642 0.41315 0.78116
 H1174 H 0.38528 0.39285 0.76033
 H1175 H 0.30191 0.45266 0.79824
 H1176 H 0.34991 0.49355 0.78622
 N1177 N 0.16924 0.29640 0.93933
 N1178 N 0.14106 0.29672 0.96136
 C1179 C 0.11398 0.28324 0.94418
 C1180 C 0.12447 0.27430 0.91085
 C1181 C 0.15899 0.28327 0.90889
 H1182 H 0.10893 0.26386 0.89017
 H1183 H 0.19348 0.30617 0.94547
 H1184 H 0.14226 0.30471 0.98704
 N1185 N 0.68980 0.72680 0.40726
 N1186 N 0.66492 0.72589 0.43040
 C1187 C 0.63462 0.73079 0.41408
 C1188 C 0.64047 0.73465 0.37905
 C1189 C 0.67572 0.73195 0.37585
 H1190 H 0.62176 0.73888 0.35872
 H1191 H 0.71588 0.72381 0.41301
 H1192 H 0.66885 0.72264 0.45690
 N1193 N 0.92899 0.70937 0.80117
 N1194 N 0.94907 0.70622 0.83092
 C1195 C 0.93207 0.72178 0.85698
 C1196 C 0.90080 0.73423 0.84456
 C1197 C 0.89996 0.72593 0.80995
 H1198 H 0.88081 0.74748 0.85865
 H1199 H 0.93554 0.69993 0.77684
 H1200 H 0.97369 0.69552 0.83141
 N1201 N 0.39165 0.18887 0.35573
 N1202 N 0.41006 0.18853 0.38444
 C1203 C 0.39334 0.20682 0.40871
 C1204 C 0.36259 0.21887 0.39500
 C1205 C 0.36267 0.20692 0.36138
 H1206 H 0.34381 0.23551 0.40706
 H1207 H 0.39920 0.17750 0.33254
 H1208 H 0.43446 0.17746 0.38664
 N1209 N 0.16960 0.80506 0.10303
 N1210 N 0.14266 0.80793 0.08235
 C1211 C 0.11588 0.79109 0.09664
 C1212 C 0.12621 0.77722 0.12796
 C1213 C 0.16039 0.78659 0.13091
 H1214 H 0.11142 0.76142 0.14553
 H1215 H 0.19385 0.81528 0.09783
 H1216 H 0.14327 0.81990 0.05817
 N1217 N 0.68048 0.29427 0.60396
 N1218 N 0.65327 0.29767 0.58361
 C1219 C 0.62609 0.28202 0.59861
 C1220 C 0.63678 0.26797 0.62972
 C1221 C 0.67126 0.27620 0.63213
 H1222 H 0.62155 0.25437 0.64867
 H1223 H 0.70467 0.30462 0.59875
 H1224 H 0.65375 0.31027 0.55976
 N1225 N 0.79436 0.25633 0.11137
 N1226 N 0.82174 0.26196 0.09208
 C1227 C 0.84999 0.25149 0.10952
 C1228 C 0.84002 0.23863 0.14142
 C1229 C 0.80453 0.24238 0.14160
 H1230 H 0.85628 0.22866 0.16188
 H1231 H 0.76923 0.26247 0.10401
 H1232 H 0.82088 0.27252 0.06725
 N1233 N 0.31056 0.74692 0.58064
 N1234 N 0.33741 0.74307 0.56018
 C1235 C 0.36603 0.75159 0.57787
 C1236 C 0.35706 0.76132 0.61095
 C1237 C 0.32169 0.75770 0.61177
 H1238 H 0.37409 0.76782 0.63211
 H1239 H 0.28537 0.74057 0.57384
 H1240 H 0.33608 0.73417 0.53478
 N1241 N 0.25825 0.19071 0.92588
 N1242 N 0.25634 0.16075 0.94199
 C1243 C 0.26204 0.13533 0.91905
 C1244 C 0.26801 0.14982 0.88681
 C1245 C 0.26511 0.18507 0.89229
 H1246 H 0.27238 0.13660 0.86264
 H1247 H 0.25391 0.21452 0.93764
 H1248 H 0.25129 0.15794 0.96833
 N1249 N 0.80574 0.65465 0.38703
 N1250 N 0.80761 0.62692 0.40691
 C1251 C 0.79267 0.60023 0.39037
 C1252 C 0.78112 0.61152 0.35836
 C1253 C 0.78992 0.64613 0.35731
 H1254 H 0.76717 0.59701 0.33904
 H1255 H 0.81468 0.67903 0.39406
 H1256 H 0.81766 0.62683 0.43195
 N1257 N 0.68411 0.14971 0.10209
 N1258 N 0.68377 0.12684 0.07697
 C1259 C 0.69894 0.09756 0.08815
 C1260 C 0.70933 0.10212 0.12235
 C1261 C 0.69929 0.13567 0.13008
 H1262 H 0.72281 0.08405 0.13890
 H1263 H 0.67425 0.17469 0.09986
 H1264 H 0.67428 0.13193 0.05222
 N1265 N 0.18639 0.67450 0.59073
 N1266 N 0.18309 0.64938 0.56801
 C1267 C 0.20480 0.62371 0.57679
 C1268 C 0.22243 0.63260 0.60655
 C1269 C 0.20993 0.66496 0.61450
 H1270 H 0.24181 0.61782 0.62023
 H1271 H 0.17252 0.69757 0.59003
 H1272 H 0.16689 0.65028 0.54647
 N1273 N 0.81856 0.82277 0.86766
 N1274 N 0.81528 0.84576 0.89258
 C1275 C 0.78995 0.86797 0.88405
 C1276 C 0.77679 0.85892 0.85190
 C1277 C 0.79576 0.83010 0.84244
 H1278 H 0.75603 0.87112 0.83775
 H1279 H 0.83633 0.80256 0.86790
 H1280 H 0.82953 0.84555 0.91549
 N1281 N 0.26734 0.29645 0.41316
 N1282 N 0.26705 0.32181 0.43589
 C1283 C 0.25489 0.35052 0.42035
 C1284 C 0.24719 0.34318 0.38627
 C1285 C 0.25561 0.30868 0.38274
 H1286 H 0.23786 0.36071 0.36654
 H1287 H 0.27636 0.27156 0.41826
 H1288 H 0.27502 0.31932 0.46156
 N1289 N 0.29673 0.89929 0.17597
 N1290 N 0.30339 0.92061 0.15021
 C1291 C 0.29213 0.90645 0.12048
 C1292 C 0.27770 0.87461 0.12763
 C1293 C 0.28136 0.87103 0.16312
 H1294 H 0.26648 0.85652 0.10961
 H1295 H 0.30312 0.90392 0.20176
 H1296 H 0.31494 0.94470 0.15318
 N1297 N 0.71876 0.41435 0.68630
 N1298 N 0.71603 0.43465 0.65891
 C1299 C 0.73185 0.41947 0.63189
 C1300 C 0.74538 0.38826 0.64281
 C1301 C 0.73646 0.38594 0.67734
 H1302 H 0.75870 0.36916 0.62752
 H1303 H 0.70803 0.41965 0.71040
 H1304 H 0.70358 0.45851 0.65906
 N1305 N 0.17282 0.14759 0.83071
 N1306 N 0.14972 0.12278 0.83083
 C1307 C 0.12460 0.13097 0.80819
 C1308 C 0.13175 0.16276 0.79331
 C1309 C 0.16259 0.17224 0.80842
 H1310 H 0.11740 0.17630 0.77348
 H1311 H 0.19537 0.14739 0.84542
 H1312 H 0.15201 0.10002 0.84514
 N1313 N 0.68410 0.58680 0.27571
 N1314 N 0.65928 0.56375 0.27609
 C1315 C 0.62888 0.58029 0.27748
 C1316 C 0.63452 0.61560 0.27836
 C1317 C 0.67003 0.61853 0.27670
 H1318 H 0.61557 0.63604 0.27782
 H1319 H 0.71016 0.58073 0.27357
 H1320 H 0.66323 0.53714 0.27481
 N1321 N 0.17927 0.90104 0.22657
 N1322 N 0.15308 0.92406 0.21808
 C1323 C 0.12283 0.90826 0.22423
 C1324 C 0.12921 0.87485 0.23626
 C1325 C 0.16466 0.87144 0.23711
 H1326 H 0.11068 0.85502 0.24241
 H1327 H 0.20545 0.90582 0.22328
 H1328 H 0.15726 0.94945 0.21016
 N1329 N 0.60454 0.33392 0.70788
 N1330 N 0.58504 0.36119 0.70166
 C1331 C 0.59286 0.38595 0.72473
 C1332 C 0.61845 0.37392 0.74661
 C1333 C 0.62529 0.34086 0.73490
 H1334 H 0.63143 0.38788 0.76699
 H1335 H 0.60463 0.31162 0.69282
 H1336 H 0.56686 0.36276 0.68182
 N1337 N 0.81039 0.09095 0.19265
 N1338 N 0.83834 0.07241 0.18766
 C1339 C 0.86414 0.08596 0.20649
 C1340 C 0.85218 0.11479 0.22394
 C1341 C 0.81795 0.11689 0.21442
 H1342 H 0.86601 0.13115 0.24179
 H1343 H 0.78649 0.08564 0.18154
 H1344 H 0.83921 0.05014 0.17258
 N1345 N 0.33199 0.61691 0.67574
 N1346 N 0.35940 0.59708 0.67306
 C1347 C 0.38653 0.61340 0.68736
 C1348 C 0.37570 0.64545 0.69928
 C1349 C 0.34093 0.64640 0.69158
 H1350 H 0.39035 0.66452 0.71335
 H1351 H 0.30734 0.60974 0.66781
 H1352 H 0.35870 0.57209 0.66317
 N1353 N 0.92399 0.83917 0.76035
 N1354 N 0.94293 0.86568 0.76978
 C1355 C 0.92494 0.89486 0.76408
 C1356 C 0.89285 0.88650 0.75063
 C1357 C 0.89347 0.85085 0.74867
 H1358 H 0.87237 0.90378 0.74285
 H1359 H 0.93198 0.81349 0.76198
 H1360 H 0.96815 0.86366 0.77885
 N1361 N 0.38764 0.32445 0.32051
 N1362 N 0.40707 0.35137 0.32751
 C1363 C 0.39280 0.37965 0.31301
 C1364 C 0.36241 0.37018 0.29650
 C1365 C 0.36042 0.33493 0.30167
 H1366 H 0.34539 0.38606 0.28103
 H1367 H 0.39356 0.29914 0.32774
 H1368 H 0.43071 0.34974 0.34023
   
