data_POSCAR
  _audit_creation_date              2014-09-24
  _audit_creation_method            'ToBaCCo'
  _symmetry_space_group_name_H-M    'P1'
  _symmetry_Int_Tables_number       1
  _symmetry_cell_setting            triclinic
  loop_
  _symmetry_equiv_pos_as_xyz
 x,y,z
_cell_length_a 32.2505
_cell_length_b 32.7006
_cell_length_c 32.2347
_cell_angle_alpha 88.124300
_cell_angle_beta 90.541900
_cell_angle_gamma 84.685400
loop_
  _atom_site_label
  _atom_site_type_symbol
  _atom_site_fract_x
  _atom_site_fract_y
  _atom_site_fract_z
C1 C 0.40284 0.00747 0.27019
 C2 C 0.37580 0.04865 0.26934
 C3 C 0.34398 0.05115 0.24104
 C4 C 0.34213 0.01247 0.21577
 C5 C 0.37184 -0.02495 0.27679
 C6 C 0.34041 -0.02296 0.24783
 C7 C 0.41723 0.00217 0.22527
 C8 C 0.38538 0.00470 0.19689
 H9 H 0.38252 0.07481 0.28693
 H10 H 0.31632 0.01480 0.19246
 H11 H 0.37596 -0.04814 0.30154
 H12 H 0.44972 -0.00191 0.21679
 C13 C 0.08687 0.01819 0.76998
 C14 C 0.10341 -0.02474 0.75638
 C15 C 0.13239 -0.02427 0.72597
 C16 C 0.14125 0.01885 0.71107
 C17 C 0.12602 0.03935 0.78125
 C18 C 0.15431 0.04018 0.74992
 C19 C 0.07087 0.03953 0.73183
 C20 C 0.10105 0.03985 0.69932
 H21 H 0.09187 -0.05287 0.76803
 H22 H 0.16492 0.01850 0.68615
 H23 H 0.12914 0.05443 0.81033
 H24 H 0.03882 0.05227 0.72812
 C25 C 0.59597 0.51403 0.30061
 C26 C 0.62042 0.47491 0.28658
 C27 C 0.63477 0.47778 0.24702
 C28 C 0.62366 0.52008 0.22538
 C29 C 0.62576 0.54764 0.29418
 C30 C 0.64005 0.55093 0.25468
 C31 C 0.56166 0.52408 0.26785
 C32 C 0.57597 0.52787 0.22858
 H33 H 0.62764 0.44832 0.30715
 H34 H 0.63608 0.52208 0.19348
 H35 H 0.63160 0.56940 0.31769
 H36 H 0.52887 0.52830 0.27526
 C37 C 0.91297 0.49157 0.78746
 C38 C 0.87917 0.52743 0.78908
 C39 C 0.85306 0.53096 0.75533
 C40 C 0.86233 0.49724 0.72384
 C41 C 0.88873 0.45366 0.78248
 C42 C 0.86176 0.45688 0.74924
 C43 C 0.93444 0.49741 0.74599
 C44 C 0.90814 0.49991 0.71284
 H45 H 0.87613 0.54762 0.81503
 H46 H 0.84093 0.50008 0.69646
 H47 H 0.89304 0.42702 0.80339
 H48 H 0.96729 0.50148 0.74331
 C49 C 0.31706 0.36228 1.03515
 C50 C 0.30939 0.33078 1.06975
 C51 C 0.27498 0.31071 1.06337
 C52 C 0.25197 0.32290 1.02246
 C53 C 0.31889 0.33794 0.99553
 C54 C 0.28502 0.31736 0.98858
 C55 C 0.27589 0.39057 1.03121
 C56 C 0.24183 0.36948 1.02474
 H57 H 0.32689 0.32798 1.09873
 H58 H 0.22431 0.30573 1.01721
 H59 H 0.34561 0.33676 0.97542
 H60 H 0.27325 0.42316 1.03645
 C61 C 0.77240 0.09766 0.98632
 C62 C 0.76426 0.12439 0.94655
 C63 C 0.73043 0.15251 0.94872
 C64 C 0.70798 0.15123 0.99037
 C65 C 0.77536 0.12843 1.02127
 C66 C 0.74179 0.15687 1.02285
 C67 C 0.73370 0.07942 0.99384
 C68 C 0.69811 0.10887 0.99626
 H69 H 0.78450 0.12241 0.91992
 H70 H 0.68054 0.17440 0.99177
 H71 H 0.80011 0.12580 1.04433
 H72 H 0.73263 0.04677 0.99977
 C73 C 0.27314 0.59185 0.49346
 C74 C 0.27850 0.61936 0.45485
 C75 C 0.24793 0.65055 0.44948
 C76 C 0.21502 0.65215 0.48341
 C77 C 0.27004 0.62127 0.52956
 C78 C 0.24026 0.65333 0.52395
 C79 C 0.22927 0.57784 0.48915
 C80 C 0.19881 0.60952 0.48396
 H81 H 0.30477 0.61510 0.43423
 H82 H 0.19032 0.67804 0.47917
 H83 H 0.28895 0.61626 0.55751
 H84 H 0.22334 0.54582 0.48851
 C85 C 0.81104 0.87340 0.52717
 C86 C 0.80760 0.84224 0.56332
 C87 C 0.77476 0.81928 0.55969
 C88 C 0.74911 0.82850 0.51976
 C89 C 0.81279 0.84756 0.48849
 C90 C 0.78044 0.82416 0.48433
 C91 C 0.76797 0.89849 0.52448
 C92 C 0.73571 0.87455 0.52062
 H93 H 0.82811 0.84003 0.59029
 H94 H 0.72281 0.80909 0.51650
 H95 H 0.83774 0.84854 0.46641
 H96 H 0.76297 0.93131 0.52780
 C97 C -0.03654 0.31639 0.37636
 C98 C 0.00907 0.31336 0.36229
 C99 C 0.02164 0.27710 0.34443
 C100 C -0.01228 0.24727 0.34300
 C101 C -0.06027 0.30811 0.33921
 C102 C -0.04706 0.26976 0.32107
 C103 C -0.03959 0.27843 0.40576
 C104 C -0.02685 0.24214 0.38789
 H105 H 0.02911 0.33779 0.36607
 H106 H -0.00147 0.21764 0.32880
 H107 H -0.08822 0.32688 0.32912
 H108 H -0.05380 0.28005 0.43602
 C109 C -0.00989 0.78788 0.09306
 C110 C -0.03961 0.78115 0.12917
 C111 C -0.02965 0.74605 0.15230
 C112 C 0.00947 0.72083 0.13728
 C113 C 0.03346 0.78583 0.11371
 C114 C 0.04361 0.75057 0.13676
 C115 C -0.00973 0.74852 0.06803
 C116 C 0.00047 0.71338 0.09133
 H117 H -0.06849 0.80024 0.13321
 H118 H 0.01787 0.69228 0.15638
 H119 H 0.05524 0.80860 0.10790
 H120 H -0.01786 0.74877 0.03538
 C121 C 0.48535 0.26983 0.60097
 C122 C 0.45994 0.25998 0.63945
 C123 C 0.47260 0.22337 0.65903
 C124 C 0.50991 0.20005 0.63836
 C125 C 0.53049 0.26712 0.61689
 C126 C 0.54343 0.23056 0.63642
 C127 C 0.48282 0.23263 0.57345
 C128 C 0.49551 0.19604 0.59318
 H129 H 0.43155 0.27817 0.64758
 H130 H 0.52052 0.17030 0.65448
 H131 H 0.55079 0.29136 0.61173
 H132 H 0.46917 0.23510 0.54257
 C133 C 0.46394 0.78869 0.89399
 C134 C 0.50657 0.79338 0.87479
 C135 C 0.52166 0.76077 0.85281
 C136 C 0.49272 0.72607 0.85195
 C137 C 0.43590 0.77951 0.85704
 C138 C 0.45095 0.74643 0.83516
 C139 C 0.46940 0.75031 0.91882
 C140 C 0.48539 0.71563 0.89549
 H141 H 0.52511 0.81838 0.88169
 H142 H 0.50528 0.69975 0.83337
 H143 H 0.40476 0.79444 0.85204
 H144 H 0.46144 0.74829 0.95130
 C145 C -0.24993 0.65307 0.97927
 C146 C -0.20812 0.62640 0.98077
 C147 C -0.20557 0.59610 1.01100
 C148 C -0.24509 0.59514 1.03698
 C149 C -0.28278 0.62227 0.97519
 C150 C -0.28080 0.59217 1.00572
 C151 C -0.25549 0.66888 1.02339
 C152 C -0.25294 0.63849 1.05357
 H153 H -0.18165 0.63266 0.96221
 H154 H -0.24284 0.57049 1.06171
 H155 H -0.30639 0.62574 0.95099
 H156 H -0.25869 0.70126 1.03002
 C157 C -0.23348 0.34339 0.45193
 C158 C -0.27602 0.35813 0.46927
 C159 C -0.27419 0.37157 0.50896
 C160 C -0.22969 0.36893 0.52714
 C161 C -0.20778 0.38041 0.45632
 C162 C -0.20610 0.39401 0.49585
 C163 C -0.21530 0.31248 0.48152
 C164 C -0.21251 0.32634 0.52276
 H165 H -0.30373 0.36245 0.44990
 H166 H -0.22902 0.38064 0.55899
 H167 H -0.19150 0.39340 0.43058
 H168 H -0.20483 0.28139 0.47316
 C169 C 0.26694 -0.17071 -0.04481
 C170 C 0.22565 -0.14738 -0.03352
 C171 C 0.22561 -0.13126 0.00509
 C172 C 0.26781 -0.13980 0.02826
 C173 C 0.29890 -0.13902 -0.03995
 C174 C 0.29924 -0.12285 -0.00146
 C175 C 0.27631 -0.20107 -0.01158
 C176 C 0.27817 -0.18425 0.02845
 H177 H 0.20098 -0.14039 -0.05623
 H178 H 0.26740 -0.12572 0.05909
 H179 H 0.32141 -0.13280 -0.06353
 H180 H 0.28447 -0.23338 -0.01695
 C181 C 0.24980 1.15840 0.48075
 C182 C 0.28776 1.12639 0.47912
 C183 C 0.28676 1.09438 0.50714
 C184 C 0.24768 1.09690 0.53402
 C185 C 0.21212 1.13347 0.47528
 C186 C 0.21057 1.10157 0.50345
 C187 C 0.24781 1.17101 0.52627
 C188 C 0.24684 1.13876 0.55406
 H189 H 0.31496 1.13034 0.46074
 H190 H 0.24693 1.07076 0.55684
 H191 H 0.18867 1.14111 0.45134
 H192 H 0.25008 1.20225 0.53562
 C193 C 0.12392 0.56968 0.22407
 C194 C 0.09173 0.56408 0.18994
 C195 C 0.07153 0.52977 0.19546
 C196 C 0.08436 0.50462 0.23504
 C197 C 0.09961 0.56887 0.26439
 C198 C 0.07888 0.53493 0.27028
 C199 C 0.15282 0.52901 0.22565
 C200 C 0.13151 0.49502 0.23144
 H201 H 0.08772 0.58379 0.16222
 H202 H 0.06710 0.47697 0.23974
 H203 H 0.10123 0.59228 0.28714
 H204 H 0.18590 0.52694 0.21981
 C205 C -0.14574 1.02699 0.24973
 C206 C -0.11806 1.02295 0.28881
 C207 C -0.08841 0.99044 0.28884
 C208 C -0.08928 0.96494 0.24970
 C209 C -0.11532 1.02839 0.21329
 C210 C -0.08542 0.99605 0.21356
 C211 C -0.16280 0.98757 0.24707
 C212 C -0.13176 0.95322 0.24676
 H213 H -0.12094 1.04455 0.31363
 H214 H -0.06484 0.93858 0.24999
 H215 H -0.11943 1.05114 0.18810
 H216 H -0.19573 0.98498 0.24251
 C217 C 0.35987 0.53267 -0.22159
 C218 C 0.39054 0.51735 -0.18680
 C219 C 0.40810 0.47835 -0.19158
 C220 C 0.39321 0.45795 -0.23046
 C221 C 0.38487 0.52693 -0.26145
 C222 C 0.40243 0.48791 -0.26615
 C223 C 0.32815 0.50080 -0.22234
 C224 C 0.34525 0.46170 -0.22694
 H225 H 0.39907 0.53625 -0.16166
 H226 H 0.40797 0.42622 -0.23379
 H227 H 0.38754 0.55173 -0.28401
 H228 H 0.29515 0.50840 -0.21761
 C229 C 0.63181 0.05803 -0.27967
 C230 C 0.59780 0.05261 -0.31177
 C231 C 0.58150 0.01585 -0.30829
 C232 C 0.59980 -0.01205 -0.27211
 C233 C 0.61142 0.05089 -0.23779
 C234 C 0.59411 0.01460 -0.23367
 C235 C 0.66375 0.02048 -0.28382
 C236 C 0.64717 -0.01618 -0.27956
 H237 H 0.58842 0.07541 -0.33604
 H238 H 0.58526 -0.04143 -0.26930
 H239 H 0.61223 0.07265 -0.21331
 H240 H 0.69678 0.02212 -0.28798
 C241 C 0.04695 0.23863 0.86259
 C242 C 0.04656 0.27838 0.88676
 C243 C 0.01044 0.28769 0.90756
 C244 C -0.02189 0.25678 0.90162
 C245 C 0.03682 0.20596 0.89540
 C246 C 0.00076 0.21555 0.91589
 C247 C 0.01044 0.24390 0.83521
 C248 C -0.02766 0.25386 0.85692
 H249 H 0.07239 0.29729 0.88687
 H250 H -0.05108 0.26442 0.91900
 H251 H 0.05457 0.17624 0.89923
 H252 H 0.01192 0.23903 0.80220
 C253 C 0.53326 0.22336 0.14879
 C254 C 0.52580 0.19541 0.11261
 C255 C 0.48947 0.20547 0.09139
 C256 C 0.46363 0.24304 0.10864
 C257 C 0.52976 0.26689 0.12903
 C258 C 0.49316 0.27747 0.10823
 C259 C 0.49449 0.22180 0.17607
 C260 C 0.45794 0.23224 0.15505
 H261 H 0.54586 0.16780 0.10680
 H262 H 0.43391 0.25156 0.09139
 H263 H 0.55268 0.28848 0.13413
 H264 H 0.49611 0.21252 0.20862
 C265 C 0.02379 0.75204 0.64564
 C266 C 0.01378 0.72204 0.61218
 C267 C -0.02287 0.73203 0.59165
 C268 C -0.04653 0.77172 0.60674
 C269 C 0.02140 0.79424 0.62278
 C270 C -0.01574 0.80480 0.60273
 C271 C -0.01419 0.75412 0.67431
 C272 C -0.05105 0.76482 0.65388
 H273 H 0.03261 0.69337 0.60768
 H274 H -0.07653 0.78014 0.58994
 H275 H 0.04483 0.81559 0.62636
 H276 H -0.01156 0.74967 0.70767
 C277 C 0.55115 0.71810 0.37233
 C278 C 0.54939 0.75936 0.39396
 C279 C 0.51351 0.76848 0.41523
 C280 C 0.48277 0.73570 0.41264
 C281 C 0.54313 0.68656 0.40726
 C282 C 0.50724 0.69590 0.42827
 C283 C 0.51159 0.72084 0.34473
 C284 C 0.47578 0.73005 0.36614
 H285 H 0.57384 0.77978 0.39117
 H286 H 0.45354 0.74319 0.42998
 H287 H 0.56199 0.65758 0.41205
 H288 H 0.51190 0.71361 0.31220
 B289 B -0.00411 0.01403 1.03919
 B290 B -0.03689 0.02402 0.99883
 B291 B 0.00849 0.04506 1.00020
 B292 B 0.04531 0.01089 1.02212
 B293 B 0.02156 -0.03246 1.03395
 B294 B -0.02990 -0.02368 1.01975
 B295 B 0.01668 -0.01863 0.94969
 B296 B 0.04930 -0.02891 0.99033
 B297 B 0.00418 -0.05023 0.98910
 B298 B -0.03270 -0.01608 0.96695
 B299 B -0.00915 0.02768 0.95536
 B300 B 0.04236 0.01904 0.96949
 B301 B 0.48998 0.49857 0.56065
 B302 B 0.45895 0.51155 0.51959
 B303 B 0.50550 0.53023 0.52331
 B304 B 0.53993 0.49352 0.54535
 B305 B 0.51356 0.45123 0.55439
 B306 B 0.46284 0.46308 0.53865
 B307 B 0.51221 0.46831 0.47069
 B308 B 0.54291 0.45491 0.51192
 B309 B 0.49662 0.43628 0.50803
 B310 B 0.46219 0.47274 0.48613
 B311 B 0.48835 0.51518 0.47731
 B312 B 0.53915 0.50357 0.49321
 B313 B 0.52929 0.97136 0.52400
 B314 B 0.56299 0.98172 0.48635
 B315 B 0.52903 0.94651 0.47917
 B316 B 0.48338 0.96235 0.50174
 B317 B 0.48983 1.00862 0.52251
 B318 B 0.53969 1.02022 0.51331
 B319 B 0.49977 1.01660 0.43885
 B320 B 0.46619 1.00657 0.47617
 B321 B 0.50008 1.04150 0.48346
 B322 B 0.54540 1.02573 0.46086
 B323 B 0.53922 0.97936 0.43985
 B324 B 0.48938 0.96775 0.44931
 B325 B 0.04032 0.47981 1.03219
 B326 B 0.07459 0.48661 0.99417
 B327 B 0.03838 0.45323 0.98877
 B328 B -0.00637 0.47258 1.01081
 B329 B 0.00287 0.51913 1.02946
 B330 B 0.05354 0.52740 1.01948
 B331 B 0.01278 0.52266 0.94549
 B332 B -0.02124 0.51632 0.98346
 B333 B 0.01469 0.54957 0.98891
 B334 B 0.05923 0.53034 0.96681
 B335 B 0.05035 0.48357 0.94820
 B336 B -0.00032 0.47531 0.95847
 B337 B -0.00113 0.54321 0.44853
 B338 B 0.02442 0.53284 0.49361
 B339 B -0.01553 0.56984 0.49057
 B340 B -0.05218 0.55490 0.45795
 B341 B -0.03413 0.50749 0.44149
 B342 B 0.01375 0.49397 0.46364
 B343 B -0.04292 0.50168 0.52547
 B344 B -0.06853 0.51190 0.48013
 B345 B -0.02862 0.47526 0.48344
 B346 B 0.00789 0.49023 0.51596
 B347 B -0.00980 0.53770 0.53245
 B348 B -0.05816 0.55083 0.51043
 B349 B 0.51348 0.01736 -0.05392
 B350 B 0.54161 0.01017 -0.01009
 B351 B 0.50085 0.04638 -0.01293
 B352 B 0.46300 0.02878 -0.04202
 B353 B 0.48074 -0.01947 -0.05659
 B354 B 0.52988 -0.03081 -0.03680
 B355 B 0.47723 -0.02026 0.02820
 B356 B 0.44881 -0.01311 -0.01589
 B357 B 0.48932 -0.04909 -0.01285
 B358 B 0.52752 -0.03147 0.01596
 B359 B 0.50979 0.01672 0.03065
 B360 B 0.46029 0.02770 0.01086
 B361 B 0.47790 0.47896 -0.01855
 B362 B 0.45835 0.48592 0.02891
 B363 B 0.50310 0.45586 0.02290
 B364 B 0.53037 0.47672 -0.01578
 B365 B 0.50158 0.52050 -0.03325
 B366 B 0.45671 0.52593 -0.00553
 B367 B 0.52178 0.52957 0.04814
 B368 B 0.54126 0.52286 0.00066
 B369 B 0.49679 0.55257 0.00681
 B370 B 0.46946 0.53189 0.04520
 B371 B 0.49803 0.48783 0.06284
 B372 B 0.54315 0.48273 0.03512
 B373 B -0.03440 1.00607 0.47230
 B374 B -0.05985 1.01072 0.51725
 B375 B -0.01297 0.98346 0.51596
 B376 B 0.01719 1.00683 0.48153
 B377 B -0.01186 1.04949 0.46188
 B378 B -0.06003 1.05157 0.48390
 B379 B -0.00280 1.05788 0.54537
 B380 B 0.02288 1.05337 0.50059
 B381 B -0.02378 1.08037 0.50187
 B382 B -0.05408 1.05720 0.53594
 B383 B -0.02510 1.01445 0.55586
 B384 B 0.02308 1.01235 0.53378
 B385 B 0.76309 0.24338 0.18981
 B386 B 0.77636 0.21399 0.23224
 B387 B 0.79299 0.26098 0.22651
 B388 B 0.75496 0.29288 0.20300
 B389 B 0.71388 0.26465 0.19500
 B390 B 0.72790 0.21528 0.21272
 B391 B 0.72853 0.26565 0.27860
 B392 B 0.71483 0.29471 0.23616
 B393 B 0.69813 0.24793 0.24180
 B394 B 0.73596 0.21605 0.26524
 B395 B 0.77727 0.24416 0.27318
 B396 B 0.76353 0.29355 0.25513
 B397 B 0.71819 0.76491 0.71934
 B398 B 0.71245 0.79683 0.75889
 B399 B 0.69203 0.75166 0.76150
 B400 B 0.72445 0.71607 0.73848
 B401 B 0.76632 0.74034 0.72210
 B402 B 0.75816 0.79098 0.73427
 B403 B 0.76318 0.74459 0.80634
 B404 B 0.76884 0.71283 0.76686
 B405 B 0.78949 0.75789 0.76398
 B406 B 0.75708 0.79352 0.78718
 B407 B 0.71527 0.76924 0.80371
 B408 B 0.72313 0.71853 0.79129
 B409 B 0.28929 0.25827 0.80471
 B410 B 0.28843 0.28159 0.75772
 B411 B 0.31655 0.23645 0.76607
 B412 B 0.29094 0.20706 0.79911
 B413 B 0.24549 0.23527 0.81054
 B414 B 0.24426 0.28202 0.78522
 B415 B 0.24508 0.22288 0.72739
 B416 B 0.24618 0.19940 0.77447
 B417 B 0.21795 0.24480 0.76613
 B418 B 0.24384 0.27415 0.73311
 B419 B 0.28916 0.24585 0.72135
 B420 B 0.29037 0.19901 0.74697
 B421 B 0.23634 0.73648 0.28243
 B422 B 0.24464 0.71269 0.23760
 B423 B 0.21365 0.75716 0.23859
 B424 B 0.23378 0.78779 0.27348
 B425 B 0.27815 0.76148 0.29338
 B426 B 0.28436 0.71464 0.27131
 B427 B 0.28860 0.77377 0.21039
 B428 B 0.28078 0.79713 0.25531
 B429 B 0.31132 0.75303 0.25387
 B430 B 0.29147 0.72250 0.21933
 B431 B 0.24698 0.74857 0.19924
 B432 B 0.24077 0.79561 0.22148
 B433 B 0.26089 0.74095 0.69023
 B434 B 0.26542 0.70680 0.73025
 B435 B 0.29288 0.74785 0.73000
 B436 B 0.26346 0.78854 0.70818
 B437 B 0.21661 0.77173 0.69524
 B438 B 0.21842 0.72045 0.70867
 B439 B 0.22703 0.76228 0.77940
 B440 B 0.22238 0.79645 0.73961
 B441 B 0.19475 0.75575 0.73954
 B442 B 0.22392 0.71496 0.76131
 B443 B 0.27092 0.73178 0.77417
 B444 B 0.26947 0.78285 0.76068
 B445 B 0.22932 0.29328 0.23230
 B446 B 0.24056 0.32509 0.26997
 B447 B 0.20409 0.29210 0.27760
 B448 B 0.21923 0.24768 0.25421
 B449 B 0.26627 0.25388 0.23237
 B450 B 0.27924 0.30224 0.24190
 B451 B 0.27468 0.26034 0.31615
 B452 B 0.26370 0.22901 0.27844
 B453 B 0.30008 0.26167 0.27078
 B454 B 0.28506 0.30590 0.29441
 B455 B 0.23773 0.30013 0.31628
 B456 B 0.22490 0.25166 0.30646
 B457 B 0.78012 0.76546 0.30002
 B458 B 0.77063 0.79535 0.25730
 B459 B 0.80696 0.75489 0.25687
 B460 B 0.79046 0.71628 0.28640
 B461 B 0.74274 0.73331 0.30477
 B462 B 0.73070 0.78270 0.28693
 B463 B 0.73718 0.73365 0.22016
 B464 B 0.74652 0.70371 0.26319
 B465 B 0.71042 0.74398 0.26363
 B466 B 0.72697 0.78276 0.23412
 B467 B 0.77478 0.76577 0.21549
 B468 B 0.78654 0.71605 0.23359
 B469 B 0.74153 0.22108 0.76876
 B470 B 0.74974 0.20394 0.72090
 B471 B 0.71732 0.24648 0.72784
 B472 B 0.73656 0.27297 0.76666
 B473 B 0.78194 0.24603 0.78311
 B474 B 0.79002 0.20298 0.75474
 B475 B 0.79088 0.26955 0.70192
 B476 B 0.78257 0.28670 0.74989
 B477 B 0.81488 0.24454 0.74267
 B478 B 0.79578 0.21777 0.70410
 B479 B 0.75013 0.24452 0.68748
 B480 B 0.74248 0.28792 0.71585
 C481 C 0.43862 1.00121 0.30125
 C482 C 0.44897 1.02853 0.32888
 C483 C 0.47885 1.01537 0.36259
 C484 C 0.48236 1.03769 0.39641
 H485 H 0.43324 1.05907 0.32950
 H486 H 0.49392 0.98433 0.36221
 H487 H 0.45533 0.97082 0.30242
 H488 H 0.46649 1.06832 0.39737
 C489 C -0.05652 0.48836 0.82321
 C490 C -0.03855 0.52080 0.83722
 C491 C -0.00716 0.51402 0.87051
 C492 C -0.00393 0.54031 0.90129
 H493 H -0.04801 0.55170 0.82545
 H494 H 0.00861 0.48328 0.87340
 H495 H -0.04664 0.45786 0.83596
 H496 H -0.02089 0.57050 0.89934
 C497 C 0.05581 0.01920 0.80516
 C498 C 0.05461 -0.01082 0.83468
 C499 C 0.02992 -0.00369 0.87251
 C500 C 0.02973 -0.03181 0.90401
 H501 H 0.07464 -0.03912 0.83321
 H502 H 0.01537 0.02715 0.87624
 H503 H 0.03662 0.04786 0.80882
 H504 H 0.04408 -0.06266 0.90002
 C505 C 0.57930 0.51216 0.34381
 C506 C 0.55849 0.48148 0.35922
 C507 C 0.53865 0.48719 0.39962
 C508 C 0.52593 0.45721 0.42467
 H509 H 0.55571 0.45381 0.34225
 H510 H 0.53640 0.51845 0.41015
 H511 H 0.58106 0.53942 0.36183
 H512 H 0.52835 0.42562 0.41526
 C513 C 0.54710 0.53770 0.19337
 C514 C 0.55884 0.55290 0.15685
 C515 C 0.53030 0.55344 0.12115
 C516 C 0.54496 0.55236 0.08257
 H517 H 0.59038 0.56072 0.15217
 H518 H 0.49858 0.54646 0.12693
 H519 H 0.51508 0.53083 0.19738
 H520 H 0.57696 0.55826 0.07711
 C521 C 0.09405 1.05560 0.65880
 C522 C 0.05607 1.07360 0.64325
 C523 C 0.04889 1.07326 0.60064
 C524 C 0.01078 1.08159 0.58436
 H525 H 0.03072 1.08248 0.66384
 H526 H 0.07342 1.05937 0.58150
 H527 H 0.11929 1.05012 0.63703
 H528 H -0.01403 1.09549 0.60321
 C529 C -0.07787 0.51152 0.67161
 C530 C -0.08629 0.49121 0.63783
 C531 C -0.07154 0.50645 0.59799
 C532 C -0.06226 0.48258 0.56581
 H533 H -0.10279 0.46382 0.63982
 H534 H -0.06609 0.53870 0.59608
 H535 H -0.05835 0.53679 0.66936
 H536 H -0.06651 0.45011 0.56762
 C537 C 0.39074 0.00203 0.15179
 C538 C 0.42222 -0.02063 0.13463
 C539 C 0.42834 -0.01733 0.08962
 C540 C 0.46151 -0.03645 0.07149
 H541 H 0.44473 -0.03945 0.15388
 H542 H 0.40763 0.00483 0.07181
 H543 H 0.36746 0.01925 0.13203
 H544 H 0.48235 -0.05836 0.08938
 C545 C 0.35773 0.38051 0.04095
 C546 C 0.36288 0.42046 0.04194
 C547 C 0.40477 0.43307 0.03483
 C548 C 0.41517 0.47055 0.04256
 H549 H 0.33688 0.44357 0.04428
 H550 H 0.42678 0.41142 0.02004
 H551 H 0.38529 0.35879 0.04001
 H552 H 0.39265 0.49240 0.05661
 C553 C -0.15016 0.89565 0.52970
 C554 C -0.14884 0.93637 0.52701
 C555 C -0.10871 0.95293 0.51939
 C556 C -0.10262 0.99194 0.52614
 H557 H -0.17669 0.95736 0.52798
 H558 H -0.08410 0.93260 0.50667
 H559 H -0.12096 0.87624 0.52976
 H560 H -0.12781 1.01215 0.53832
 C561 C -0.19034 0.06624 0.98302
 C562 C -0.15154 0.07521 0.99121
 C563 C -0.11534 0.04477 0.98762
 C564 C -0.07884 0.05209 1.00436
 H565 H -0.14611 0.10569 1.00092
 H566 H -0.11841 0.01694 0.97094
 H567 H -0.19523 0.03603 0.97204
 H568 H -0.07703 0.07952 1.02203
 C569 C 0.30735 0.55736 0.49823
 C570 C 0.34568 0.56470 0.51012
 C571 C 0.38093 0.53298 0.50946
 C572 C 0.41790 0.54088 0.52460
 H573 H 0.35159 0.59538 0.51892
 H574 H 0.37711 0.50411 0.49494
 H575 H 0.30163 0.52707 0.48813
 H576 H 0.42071 0.56947 0.54002
 C577 C 0.15446 0.60446 0.47646
 C578 C 0.13617 0.57192 0.49079
 C579 C 0.09188 0.56832 0.48198
 C580 C 0.07152 0.54016 0.50209
 H581 H 0.15365 0.54818 0.50971
 H582 H 0.07626 0.58889 0.45874
 H583 H 0.13596 0.62922 0.45982
 H584 H 0.08804 0.52017 0.52548
 C585 C 0.65753 0.09905 0.00410
 C586 C 0.64491 0.05977 -0.00046
 C587 C 0.60353 0.05228 0.00533
 C588 C 0.58906 0.01855 -0.00935
 H589 H 0.66637 0.03572 -0.01254
 H590 H 0.58284 0.07504 0.02022
 H591 H 0.63409 0.12388 0.01075
 H592 H 0.61028 -0.00389 -0.02436
 C593 C 0.69116 0.88913 0.52005
 C594 C 0.67567 0.92713 0.50854
 C595 C 0.63020 0.93655 0.50674
 C596 C 0.61204 0.97184 0.49045
 H597 H 0.69593 0.95026 0.49905
 H598 H 0.61139 0.91310 0.51815
 H599 H 0.66981 0.86627 0.52745
 H600 H 0.63133 0.99497 0.47873
 C601 C 0.19799 0.38694 1.02520
 C602 C 0.18480 0.42616 1.01610
 C603 C 0.13974 0.43884 1.01634
 C604 C 0.12331 0.47393 0.99803
 H605 H 0.20656 0.44802 1.00696
 H606 H 0.11962 0.41789 1.03059
 H607 H 0.17505 0.36544 1.03181
 H608 H 0.14380 0.49445 0.98350
 C609 C -0.05066 0.35770 0.39411
 C610 C -0.03926 0.36942 0.43176
 C611 C -0.04745 0.41294 0.44301
 C612 C -0.03272 0.42747 0.47819
 H613 H -0.02130 0.34785 0.45269
 H614 H -0.06247 0.43424 0.41984
 H615 H -0.06709 0.38053 0.37325
 H616 H -0.01735 0.40627 0.50122
 C617 C 0.44797 -0.17305 -0.08353
 C618 C 0.46913 -0.15817 -0.05218
 C619 C 0.46208 -0.11424 -0.04210
 C620 C 0.48585 -0.09736 -0.01412
 H621 H 0.49539 -0.17680 -0.03804
 H622 H 0.44039 -0.09460 -0.06148
 H623 H 0.42255 -0.15349 -0.09807
 H624 H 0.50803 -0.11704 0.00465
 C625 C -0.02280 -0.17254 1.06885
 C626 C -0.00577 -0.16070 1.03309
 C627 C -0.01835 -0.11892 1.01571
 C628 C 0.00479 -0.09912 0.98858
 H629 H 0.01886 -0.18012 1.01896
 H630 H -0.04407 -0.10185 1.03073
 H631 H -0.04594 -0.15131 1.08299
 H632 H 0.03082 -0.11598 0.97386
 C633 C 0.47013 0.31062 0.58063
 C634 C 0.48435 0.32459 0.54444
 C635 C 0.47232 0.36760 0.53118
 C636 C 0.49470 0.38814 0.50413
 H637 H 0.50729 0.30588 0.52726
 H638 H 0.44878 0.38440 0.54938
 H639 H 0.44877 0.33088 0.59810
 H640 H 0.51857 0.37141 0.48633
 C641 C 0.49080 1.15516 0.57666
 C642 C 0.48343 1.14717 0.53684
 C643 C 0.48037 1.10409 0.52623
 C644 C 0.48806 1.08941 0.48838
 H645 H 0.48192 1.17109 0.51272
 H646 H 0.47644 1.08284 0.55209
 H647 H 0.49436 1.12972 0.59926
 H648 H 0.49322 1.11023 0.46253
 C649 C 0.00174 0.67087 1.07679
 C650 C -0.00195 0.65933 1.03740
 C651 C 0.00184 0.61484 1.02978
 C652 C 0.00393 0.59806 0.99219
 H653 H -0.00631 0.68161 1.01180
 H654 H 0.00518 0.59470 1.05721
 H655 H 0.00700 0.64710 1.10103
 H656 H 0.00130 0.61737 0.96420
 C657 C 0.49324 0.67482 -0.08948
 C658 C 0.48889 0.66045 -0.04849
 C659 C 0.49592 0.61815 -0.03946
 C660 C 0.49276 0.60119 -0.00125
 H661 H 0.47986 0.68143 -0.02418
 H662 H 0.50360 0.59819 -0.06500
 H663 H 0.50368 0.65233 -0.11205
 H664 H 0.48529 0.62050 0.02482
 C665 C -0.03220 1.20054 0.40506
 C666 C -0.03404 1.18961 0.44534
 C667 C -0.03723 1.14581 0.45646
 C668 C -0.02790 1.12897 0.49423
 H669 H -0.03115 1.21177 0.46920
 H670 H -0.04486 1.12606 0.43166
 H671 H -0.03280 1.17680 0.38239
 H672 H -0.01939 1.14807 0.51918
 C673 C 0.74386 0.68726 0.94626
 C674 C 0.77256 0.69857 0.91927
 C675 C 0.75931 0.72614 0.88357
 C676 C 0.78353 0.73094 0.85038
 H677 H 0.80445 0.68528 0.92084
 H678 H 0.72680 0.73802 0.88210
 H679 H 0.71235 0.70194 0.94316
 H680 H 0.81582 0.71847 0.85145
 C681 C 0.24823 0.19514 0.45047
 C682 C 0.27888 0.20487 0.42487
 C683 C 0.27007 0.23728 0.39219
 C684 C 0.29421 0.24056 0.35862
 H685 H 0.30898 0.18747 0.42532
 H686 H 0.23982 0.25474 0.39270
 H687 H 0.21868 0.21392 0.44857
 H688 H 0.32401 0.22244 0.35738
 C689 C 0.76682 0.32844 0.40834
 C690 C 0.73635 0.30950 0.39050
 C691 C 0.74374 0.29392 0.34877
 C692 C 0.71526 0.27886 0.32414
 H693 H 0.70753 0.30516 0.40629
 H694 H 0.77507 0.29573 0.33745
 H695 H 0.79553 0.33110 0.39156
 H696 H 0.68362 0.27688 0.33437
 C697 C 0.26864 0.81052 0.91330
 C698 C 0.23600 0.79699 0.89363
 C699 C 0.24331 0.77776 0.85370
 C700 C 0.21356 0.77413 0.82502
 H701 H 0.20493 0.80041 0.90621
 H702 H 0.27564 0.76923 0.84639
 H703 H 0.29928 0.80585 0.89962
 H704 H 0.18120 0.78343 0.83134
 C705 C 0.29255 0.79092 0.06263
 C706 C 0.30498 0.80590 0.10033
 C707 C 0.30832 0.77982 0.13530
 C708 C 0.31129 0.79457 0.17330
 H709 H 0.30833 0.83827 0.10359
 H710 H 0.30131 0.74825 0.13193
 H711 H 0.29425 0.75787 0.05937
 H712 H 0.31835 0.82603 0.17696
 C713 C 0.80356 0.29957 0.55488
 C714 C 0.81185 0.31166 0.59494
 C715 C 0.81239 0.28296 0.62776
 C716 C 0.81318 0.29447 0.66718
 H717 H 0.81354 0.34375 0.60141
 H718 H 0.80573 0.25191 0.62102
 H719 H 0.80820 0.26709 0.54850
 H720 H 0.82091 0.32503 0.67386
 C721 C 0.25075 0.14218 0.59934
 C722 C 0.23253 0.17360 0.62001
 C723 C 0.24364 0.17847 0.66384
 C724 C 0.22419 0.20763 0.68673
 H725 H 0.21163 0.19693 0.60401
 H726 H 0.27113 0.16031 0.67607
 H727 H 0.26967 0.11783 0.61613
 H728 H 0.19691 0.22590 0.67423
 C729 C 0.74659 0.64536 0.09851
 C730 C 0.72779 0.67883 0.11547
 C731 C 0.73451 0.68565 0.15978
 C732 C 0.71823 0.71954 0.17805
 H733 H 0.70980 0.70212 0.09645
 H734 H 0.75662 0.66416 0.17675
 H735 H 0.76294 0.62167 0.11842
 H736 H 0.69638 0.74121 0.16107
 C737 C 0.14213 0.61016 0.21890
 C738 C 0.18136 0.61638 0.22804
 C739 C 0.19199 0.65864 0.23300
 C740 C 0.23088 0.66849 0.22936
 H741 H 0.20471 0.59100 0.23458
 H742 H 0.16738 0.68149 0.24121
 H743 H 0.11995 0.63675 0.21259
 H744 H 0.25510 0.64490 0.22145
 C745 C 0.64684 0.10025 0.71785
 C746 C 0.68538 0.10881 0.70822
 C747 C 0.69772 0.14976 0.71672
 C748 C 0.73495 0.16161 0.70674
 H749 H 0.70825 0.08583 0.69673
 H750 H 0.67628 0.16978 0.73411
 H751 H 0.62472 0.12505 0.72761
 H752 H 0.75675 0.14118 0.69006
 C753 C 0.82158 0.06324 0.25037
 C754 C 0.83091 0.10167 0.24205
 C755 C 0.79936 0.13704 0.24395
 C756 C 0.80767 0.17407 0.22925
 H757 H 0.86241 0.10721 0.23362
 H758 H 0.76943 0.13275 0.25763
 H759 H 0.79025 0.05808 0.25983
 H760 H 0.83714 0.17735 0.21424
 C761 C 0.34048 0.57571 0.78350
 C762 C 0.31909 0.59632 0.75254
 C763 C 0.30065 0.63835 0.75783
 C764 C 0.28625 0.66184 0.72523
 H765 H 0.31588 0.58227 0.72281
 H766 H 0.29933 0.65023 0.78885
 H767 H 0.34318 0.58977 0.81329
 H768 H 0.28799 0.64979 0.69431
 C769 C 0.31933 0.42694 0.77668
 C770 C 0.33022 0.39032 0.76109
 C771 C 0.30385 0.35631 0.76763
 C772 C 0.31210 0.32102 0.74848
 H773 H 0.35855 0.38526 0.74345
 H774 H 0.27831 0.35979 0.78925
 H775 H 0.28974 0.43197 0.79229
 H776 H 0.33756 0.31803 0.72673
 C777 C 0.85974 0.91231 0.24202
 C778 C 0.82029 0.89863 0.24748
 C779 C 0.81371 0.85748 0.24245
 C780 C 0.77916 0.84239 0.25663
 H781 H 0.79513 0.91935 0.25887
 H782 H 0.83758 0.83771 0.22794
 H783 H 0.88565 0.88975 0.23615
 H784 H 0.75558 0.86293 0.27101
 C785 C 0.67382 0.94469 0.71901
 C786 C 0.66298 0.90950 0.73595
 C787 C 0.69192 0.87196 0.73611
 C788 C 0.68239 0.83776 0.75610
 H789 H 0.63343 0.90848 0.75138
 H790 H 0.72144 0.87257 0.72038
 H791 H 0.70443 0.94536 0.70550
 H792 H 0.65291 0.83763 0.77195
 C793 C 0.14897 0.45183 0.23038
 C794 C 0.18636 0.43710 0.24536
 C795 C 0.19677 0.39214 0.24712
 C796 C 0.23068 0.37378 0.26648
 H797 H 0.20756 0.45743 0.25806
 H798 H 0.17477 0.37352 0.23316
 H799 H 0.12774 0.43026 0.22010
 H800 H 0.25239 0.39242 0.28104
 C801 C 0.08836 0.22654 0.84300
 C802 C 0.10398 0.24557 0.81003
 C803 C 0.14878 0.23665 0.80187
 C804 C 0.16832 0.24991 0.76819
 H805 H 0.08519 0.26894 0.79186
 H806 H 0.16693 0.22014 0.82650
 H807 H 0.10893 0.20392 0.86047
 H808 H 0.15078 0.26703 0.74346
 C809 C 0.59200 0.70729 0.35073
 C810 C 0.60352 0.72621 0.31569
 C811 C 0.64715 0.71957 0.30176
 C812 C 0.66179 0.74061 0.26944
 H813 H 0.58190 0.74866 0.29941
 H814 H 0.66868 0.69968 0.32108
 H815 H 0.61482 0.68610 0.36716
 H816 H 0.64045 0.76083 0.25028
 C817 C 0.57433 0.21109 0.17061
 C818 C 0.58706 0.22833 0.20512
 C819 C 0.63095 0.21973 0.21858
 C820 C 0.64946 0.24329 0.24516
 H821 H 0.56670 0.25125 0.22039
 H822 H 0.64990 0.19746 0.20107
 H823 H 0.59617 0.18964 0.15505
 H824 H 0.63054 0.26557 0.26260
 C825 C 0.06507 0.73862 0.66664
 C826 C 0.08003 0.75551 0.70036
 C827 C 0.12252 0.74092 0.71506
 C828 C 0.14515 0.76221 0.74030
 H829 H 0.06237 0.78080 0.71497
 H830 H 0.13738 0.71419 0.70031
 H831 H 0.08472 0.71466 0.65193
 H832 H 0.13070 0.78931 0.75471
 C833 C 0.90785 0.77318 0.67336
 C834 C 0.89869 0.76574 0.71331
 C835 C 0.85506 0.77469 0.72613
 C836 C 0.83879 0.75910 0.76083
 H837 H 0.92184 0.75163 0.73515
 H838 H 0.83441 0.79138 0.70342
 H839 H 0.88302 0.78593 0.65250
 H840 H 0.85880 0.74165 0.78349
 C841 C 0.41575 0.23278 0.17300
 C842 C 0.40663 0.23386 0.21364
 C843 C 0.36230 0.23780 0.22570
 C844 C 0.34840 0.24774 0.26374
 H845 H 0.43085 0.23418 0.23706
 H846 H 0.33998 0.23538 0.20081
 H847 H 0.39029 0.23445 0.15062
 H848 H 0.37034 0.25099 0.28877
 C849 C 0.43294 0.73032 0.34956
 C850 C 0.42128 0.73719 0.30978
 C851 C 0.37664 0.73763 0.29901
 C852 C 0.36020 0.75099 0.26214
 H853 H 0.44373 0.74350 0.28619
 H854 H 0.35618 0.72753 0.32303
 H855 H 0.40910 0.72620 0.37243
 H856 H 0.37997 0.76167 0.23789
 C857 C 0.93206 0.25734 0.83979
 C858 C 0.92110 0.25019 0.79872
 C859 C 0.87876 0.25100 0.78872
 C860 C 0.86377 0.24419 0.75084
 H861 H 0.94450 0.24313 0.77552
 H862 H 0.85692 0.25708 0.81358
 H863 H 0.90688 0.26458 0.86121
 H864 H 0.88476 0.23794 0.72530
 C865 C 0.54974 1.00494 0.66216
 C866 C 0.55419 0.97040 0.64090
 C867 C 0.52829 0.96786 0.60337
 C868 C 0.54475 0.95256 0.56842
 H869 H 0.58065 0.94798 0.64703
 H870 H 0.49882 0.98669 0.60214
 H871 H 0.52587 1.02907 0.65257
 H872 H 0.57462 0.93487 0.57071
 C873 C 0.04423 0.51602 1.16319
 C874 C 0.04948 0.47782 1.14937
 C875 C 0.02997 0.46953 1.10974
 C876 C 0.05417 0.46172 1.07689
 H877 H 0.07340 0.45571 1.16277
 H878 H -0.00248 0.48091 1.10532
 H879 H 0.02406 0.53923 1.14608
 H880 H 0.08706 0.45353 1.08233
 C881 C -0.05523 -0.01208 1.18008
 C882 C -0.04563 0.01645 1.15199
 C883 C -0.02159 0.00398 1.11532
 C884 C -0.01708 0.03020 1.08329
 H885 H -0.05790 0.04824 1.15425
 H886 H -0.01154 -0.02839 1.11264
 H887 H -0.04156 -0.04346 1.17771
 H888 H -0.02786 0.06241 1.08560
 C889 C 0.42749 0.47481 0.69781
 C890 C 0.44492 0.50123 0.67226
 C891 C 0.46502 0.48697 0.63414
 C892 C 0.47705 0.51343 0.60509
 H893 H 0.44293 0.53371 0.67825
 H894 H 0.46699 0.45435 0.62841
 H895 H 0.43120 0.44224 0.69192
 H896 H 0.47432 0.54612 0.61037
 C897 C 0.44105 0.45988 -0.16338
 C898 C 0.43238 0.45314 -0.12361
 C899 C 0.46465 0.45341 -0.09115
 C900 C 0.45285 0.45646 -0.05175
 H901 H 0.39997 0.45467 -0.11444
 H902 H 0.49607 0.45900 -0.09992
 H903 H 0.47301 0.45887 -0.17364
 H904 H 0.42080 0.45229 -0.04443
 C905 C -0.05726 0.98240 0.32253
 C906 C -0.06921 0.98071 0.36202
 C907 C -0.03997 0.98433 0.39682
 C908 C -0.05396 0.98289 0.43569
 H909 H -0.10216 0.98096 0.36866
 H910 H -0.00953 0.99445 0.39042
 H911 H -0.02453 0.98033 0.31487
 H912 H -0.08479 0.97328 0.44076
 C913 C 0.05644 0.52522 0.30830
 C914 C 0.04820 0.55161 0.33870
 C915 C 0.02912 0.53718 0.37672
 C916 C 0.01895 0.56155 0.40835
 H917 H 0.05589 0.58308 0.33623
 H918 H 0.02369 0.50494 0.37882
 H919 H 0.04707 0.49430 0.31168
 H920 H 0.02364 0.59392 0.40636
 C921 C 0.57295 0.00109 -0.19572
 C922 C 0.56162 0.02624 -0.16484
 C923 C 0.54225 0.01069 -0.12714
 C924 C 0.53245 0.03490 -0.09516
 H925 H 0.56657 0.05848 -0.16686
 H926 H 0.53667 -0.02151 -0.12532
 H927 H 0.56636 -0.03079 -0.19330
 H928 H 0.53829 0.06699 -0.09678
 C929 C 0.68763 0.56240 0.01261
 C930 C 0.65183 0.56340 -0.00899
 C931 C 0.61850 0.53779 0.00373
 C932 C 0.58103 0.54360 -0.01478
 H933 H 0.64539 0.58518 -0.03471
 H934 H 0.62376 0.51619 0.02989
 H935 H 0.69281 0.54071 0.03870
 H936 H 0.57634 0.56556 -0.04069
 C937 C 0.17557 1.07526 0.50718
 C938 C 0.13699 1.08703 0.49288
 C939 C 0.10196 1.06178 0.50059
 C940 C 0.06283 1.07690 0.49134
 H941 H 0.13038 1.11667 0.47706
 H942 H 0.10803 1.03140 0.51507
 H943 H 0.18114 1.04656 0.52497
 H944 H 0.05742 1.10744 0.47711
 C945 C 0.19088 -0.10319 1.02077
 C946 C 0.15346 -0.09914 1.00215
 C947 C 0.12013 -0.06747 1.01231
 C948 C 0.09058 -0.05725 0.98357
 H949 H 0.14692 -0.11885 0.97710
 H950 H 0.11940 -0.05339 1.04229
 H951 H 0.19686 -0.08425 1.04673
 H952 H 0.09337 -0.07146 0.95373
 C953 C 0.69028 0.39416 0.52943
 C954 C 0.65120 0.39129 0.51693
 C955 C 0.61654 0.42052 0.52909
 C956 C 0.58267 0.42470 0.50485
 H957 H 0.64473 0.36885 0.49433
 H958 H 0.61934 0.43950 0.55573
 H959 H 0.69671 0.41563 0.55303
 H960 H 0.58175 0.40610 0.47767
 C961 C -0.18216 0.42763 0.50912
 C962 C -0.16870 0.45571 0.48280
 C963 C -0.13788 0.48269 0.49681
 C964 C -0.11337 0.49940 0.46926
 H965 H -0.17694 0.45608 0.45014
 H966 H -0.13178 0.48392 0.52964
 H967 H -0.17402 0.42817 0.54179
 H968 H -0.12050 0.49753 0.43647
 C969 C 0.33160 -0.09786 0.01307
 C970 C 0.34893 -0.07126 -0.01194
 C971 C 0.38687 -0.05375 0.00123
 C972 C 0.40283 -0.02465 -0.02182
 H973 H 0.33683 -0.06463 -0.04318
 H974 H 0.40392 -0.06814 0.02768
 H975 H 0.34233 -0.10264 0.04499
 H976 H 0.38562 -0.01128 -0.04876
 C977 C 0.32318 1.06449 0.51639
 C978 C 0.35108 1.05344 0.48749
 C979 C 0.39172 1.03118 0.49837
 C980 C 0.41852 1.02074 0.46834
 H981 H 0.34504 1.06332 0.45539
 H982 H 0.40098 1.02663 0.53073
 H983 H 0.32802 1.05291 0.54811
 H984 H 0.40839 1.02548 0.43625
 C985 C -0.16674 0.57000 1.02158
 C986 C -0.13746 0.56102 0.99340
 C987 C -0.09623 0.54034 1.00482
 C988 C -0.06838 0.53219 0.97514
 H989 H -0.14335 0.57046 0.96117
 H990 H -0.08796 0.53406 1.03723
 H991 H -0.16192 0.55868 1.05339
 H992 H -0.07769 0.53862 0.94303
 C993 C -0.04079 0.70358 0.56285
 C994 C -0.01676 0.67832 0.53902
 C995 C -0.03258 0.64209 0.52005
 C996 C -0.00756 0.61662 0.49730
 H997 H 0.01623 0.68196 0.53683
 H998 H -0.06295 0.63362 0.52924
 H999 H -0.07410 0.70149 0.56354
 H1000 H 0.02246 0.62603 0.48859
 C1001 C 0.47306 0.17805 0.06057
 C1002 C 0.49767 0.15487 0.03523
 C1003 C 0.48256 0.11843 0.01595
 C1004 C 0.50632 0.09436 -0.00945
 H1005 H 0.53040 0.15959 0.03286
 H1006 H 0.45403 0.10799 0.02810
 H1007 H 0.44000 0.17448 0.06130
 H1008 H 0.53379 0.10580 -0.02286
 C1009 C -0.01833 0.18578 0.94301
 C1010 C 0.00474 0.15947 0.96824
 C1011 C -0.01109 0.12078 0.98205
 C1012 C 0.01336 0.09239 1.00376
 H1013 H 0.03736 0.16354 0.97347
 H1014 H -0.03964 0.11283 0.96772
 H1015 H -0.05132 0.18292 0.93895
 H1016 H 0.04237 0.10056 1.01700
 C1017 C 0.48862 0.66706 0.45711
 C1018 C 0.51084 0.64113 0.48355
 C1019 C 0.49146 0.60593 0.50214
 C1020 C 0.51314 0.57731 0.52639
 H1021 H 0.54402 0.64302 0.48746
 H1022 H 0.46194 0.59944 0.48876
 H1023 H 0.45518 0.66598 0.45486
 H1024 H 0.54298 0.58383 0.53904
 C1025 C 0.50277 0.80669 0.43757
 C1026 C 0.53073 0.83174 0.44956
 C1027 C 0.51708 0.87130 0.46799
 C1028 C 0.54382 0.89971 0.47261
 H1029 H 0.56357 0.82418 0.44404
 H1030 H 0.48423 0.87871 0.47383
 H1031 H 0.47019 0.81441 0.44437
 H1032 H 0.57590 0.89227 0.46397
 C1033 C 0.00187 0.32348 0.93387
 C1034 C 0.03166 0.34247 0.95234
 C1035 C 0.02077 0.38060 0.97439
 C1036 C 0.04990 0.40551 0.98371
 H1037 H 0.06416 0.33148 0.94902
 H1038 H -0.01192 0.39105 0.97758
 H1039 H -0.03051 0.33423 0.93853
 H1040 H 0.08212 0.39521 0.97804
 C1041 C 0.48026 0.32002 0.09302
 C1042 C 0.50615 0.34340 0.07295
 C1043 C 0.49436 0.38753 0.06362
 C1044 C 0.50997 0.40732 0.03106
 H1045 H 0.53672 0.33016 0.06411
 H1046 H 0.47318 0.40408 0.08443
 H1047 H 0.44860 0.33242 0.09884
 H1048 H 0.53071 0.39015 0.01030
 C1049 C -0.02931 0.84713 0.58741
 C1050 C -0.00478 0.87084 0.56599
 C1051 C -0.01861 0.91448 0.55614
 C1052 C -0.00368 0.93506 0.52375
 H1053 H 0.02578 0.85831 0.55638
 H1054 H -0.04111 0.93010 0.57637
 H1055 H -0.06094 0.85908 0.59405
 H1056 H 0.01826 0.91897 0.50332
 C1057 C 0.25750 0.28657 0.09688
 C1058 C 0.22181 0.30017 0.11472
 C1059 C 0.21260 0.28365 0.15608
 C1060 C 0.21076 0.30877 0.18817
 H1061 H 0.20422 0.32804 0.10288
 H1062 H 0.21863 0.25073 0.16146
 H1063 H 0.27768 0.26204 0.11202
 H1064 H 0.20842 0.34150 0.18135
 C1065 C 0.76407 0.78996 0.59249
 C1066 C 0.72475 0.78676 0.60433
 C1067 C 0.71758 0.76081 0.64108
 C1068 C 0.69927 0.77732 0.67459
 H1069 H 0.69921 0.80658 0.59044
 H1070 H 0.73741 0.73224 0.64444
 H1071 H 0.78951 0.77332 0.61005
 H1072 H 0.68107 0.80682 0.67125
 C1073 C 0.23195 0.68570 0.55431
 C1074 C 0.26130 0.69628 0.58051
 C1075 C 0.24996 0.72286 0.61519
 C1076 C 0.27691 0.72724 0.64625
 H1077 H 0.29314 0.68275 0.57845
 H1078 H 0.21751 0.73441 0.61797
 H1079 H 0.20056 0.70060 0.55557
 H1080 H 0.30910 0.71478 0.64394
 C1081 C 0.73522 0.18808 0.05462
 C1082 C 0.76517 0.19892 0.07986
 C1083 C 0.75360 0.22514 0.11476
 C1084 C 0.78000 0.22944 0.14620
 H1085 H 0.79718 0.18626 0.07692
 H1086 H 0.72114 0.23675 0.11712
 H1087 H 0.70362 0.20193 0.05802
 H1088 H 0.81225 0.21707 0.14431
 C1089 C 0.71858 0.18355 0.91560
 C1090 C 0.71869 0.17363 0.87581
 C1091 C 0.71705 0.20534 0.84225
 C1092 C 0.72098 0.19403 0.80294
 H1093 H 0.72430 0.14159 0.86798
 H1094 H 0.71963 0.23701 0.85012
 H1095 H 0.71105 0.21512 0.92413
 H1096 H 0.71957 0.16192 0.79637
 C1097 C 0.24927 0.68192 0.41626
 C1098 C 0.21602 0.69494 0.39281
 C1099 C 0.22147 0.72464 0.35884
 C1100 C 0.21232 0.71662 0.31953
 H1101 H 0.18678 0.68142 0.39646
 H1102 H 0.24086 0.74902 0.36554
 H1103 H 0.27931 0.69266 0.40906
 H1104 H 0.19478 0.69081 0.31325
 C1105 C 0.77377 0.79852 0.44848
 C1106 C 0.79588 0.79949 0.41353
 C1107 C 0.78338 0.77713 0.37753
 C1108 C 0.80002 0.78259 0.34008
 H1109 H 0.82125 0.81867 0.41008
 H1110 H 0.75777 0.75816 0.38138
 H1111 H 0.74775 0.77980 0.45014
 H1112 H 0.82510 0.80219 0.33614
 C1113 C 0.28001 0.29177 0.95233
 C1114 C 0.30326 0.29350 0.91809
 C1115 C 0.29411 0.26912 0.88236
 C1116 C 0.30889 0.27678 0.84439
 H1117 H 0.32708 0.31456 0.91507
 H1118 H 0.27186 0.24656 0.88694
 H1119 H 0.25489 0.27193 0.95329
 H1120 H 0.33079 0.29966 0.83987
 C1121 C 0.83413 0.42553 0.73713
 C1122 C 0.82610 0.39360 0.76166
 C1123 C 0.80064 0.36194 0.74653
 C1124 C 0.80110 0.32592 0.76717
 H1125 H 0.83971 0.38956 0.79250
 H1126 H 0.78386 0.36711 0.71728
 H1127 H 0.81971 0.42912 0.70656
 H1128 H 0.81777 0.32182 0.79657
 C1129 C 0.31090 0.94534 0.24276
 C1130 C 0.31693 0.90790 0.26093
 C1131 C 0.29164 0.87443 0.25014
 C1132 C 0.30193 0.83687 0.26664
 H1133 H 0.34283 0.90046 0.28223
 H1134 H 0.26633 0.87990 0.22770
 H1135 H 0.28571 0.95176 0.22033
 H1136 H 0.32756 0.83227 0.28884
 C1137 C 0.15420 0.93843 0.70934
 C1138 C 0.16342 0.90547 0.73409
 C1139 C 0.18672 0.86800 0.72006
 C1140 C 0.20068 0.83987 0.74879
 H1141 H 0.15470 0.90652 0.76649
 H1142 H 0.19165 0.86314 0.68731
 H1143 H 0.16537 0.93912 0.67775
 H1144 H 0.19578 0.84633 0.78125
 C1145 C 0.66102 0.44427 0.22783
 C1146 C 0.65742 0.40506 0.23884
 C1147 C 0.68688 0.37101 0.22579
 C1148 C 0.68272 0.33337 0.24145
 H1149 H 0.63284 0.39779 0.25979
 H1150 H 0.71278 0.37690 0.20597
 H1151 H 0.68385 0.45200 0.20515
 H1152 H 0.65700 0.32900 0.26199
 C1153 C 0.66188 0.58585 0.23929
 C1154 C 0.68839 0.60396 0.26303
 C1155 C 0.70329 0.64328 0.24967
 C1156 C 0.73483 0.65812 0.26952
 H1157 H 0.69751 0.59080 0.29343
 H1158 H 0.68601 0.66144 0.22552
 H1159 H 0.65488 0.59764 0.20794
 H1160 H 0.75132 0.63953 0.29399
 C1161 C 0.19020 0.06517 0.74818
 C1162 C 0.19492 0.09578 0.77356
 C1163 C 0.22347 0.12707 0.76314
 C1164 C 0.22360 0.16002 0.78623
 H1165 H 0.17455 0.10068 0.79976
 H1166 H 0.24167 0.12474 0.73513
 H1167 H 0.21027 0.06176 0.72149
 H1168 H 0.20582 0.16088 0.81455
 C1169 C 0.31647 0.08913 0.23252
 C1170 C 0.30608 0.11516 0.26257
 C1171 C 0.28544 0.15647 0.25355
 C1172 C 0.27660 0.18156 0.28474
 H1173 H 0.31518 0.10677 0.29441
 H1174 H 0.28069 0.16734 0.22157
 H1175 H 0.30557 0.09615 0.20097
 H1176 H 0.28156 0.16989 0.31642
 C1177 C 0.82034 0.56508 0.74805
 C1178 C 0.82331 0.60153 0.76464
 C1179 C 0.79237 0.63668 0.75655
 C1180 C 0.79893 0.67254 0.77268
 H1181 H 0.85009 0.60631 0.78380
 H1182 H 0.76493 0.63337 0.73774
 H1183 H 0.79496 0.56093 0.72680
 H1184 H 0.82680 0.67479 0.79119
 C1185 C 0.94110 0.72935 0.18208
 C1186 C 0.91682 0.75321 0.20682
 C1187 C 0.87901 0.73816 0.22497
 C1188 C 0.85526 0.76029 0.25169
 H1189 H 0.92191 0.78532 0.20955
 H1190 H 0.86773 0.71128 0.21155
 H1191 H 0.93722 0.69683 0.18104
 H1192 H 0.86770 0.78581 0.26651
 C1193 C 0.44662 0.20412 0.69018
 C1194 C 0.42562 0.22625 0.71864
 C1195 C 0.38811 0.21192 0.73793
 C1196 C 0.36564 0.23594 0.76388
 H1197 H 0.43241 0.25770 0.72311
 H1198 H 0.37502 0.18575 0.72484
 H1199 H 0.44132 0.17217 0.68661
 H1200 H 0.37915 0.26205 0.77658
 C1201 C 0.42485 0.72562 0.80617
 C1202 C 0.40160 0.74594 0.77625
 C1203 C 0.36654 0.72712 0.75712
 C1204 C 0.34197 0.74810 0.72851
 H1205 H 0.40502 0.77819 0.76976
 H1206 H 0.35587 0.70041 0.77302
 H1207 H 0.42278 0.69299 0.81156
 H1208 H 0.35322 0.77469 0.71287
 C1209 C 0.93126 0.25163 0.28980
 C1210 C 0.90132 0.27294 0.26385
 C1211 C 0.86983 0.25218 0.24664
 C1212 C 0.83962 0.27187 0.22279
 H1213 H 0.90015 0.30612 0.26026
 H1214 H 0.86661 0.22128 0.25843
 H1215 H 0.93708 0.21867 0.28668
 H1216 H 0.84369 0.30244 0.21035
 C1217 C 0.06301 0.26636 0.32644
 C1218 C 0.08787 0.29404 0.31211
 C1219 C 0.12880 0.28028 0.29490
 C1220 C 0.15649 0.30687 0.28476
 H1221 H 0.07850 0.32662 0.31363
 H1222 H 0.13752 0.24751 0.29354
 H1223 H 0.07248 0.23395 0.32322
 H1224 H 0.14783 0.33933 0.28799
 C1225 C 0.56579 0.75536 0.84218
 C1226 C 0.57961 0.74528 0.80463
 C1227 C 0.62483 0.74093 0.79857
 C1228 C 0.64313 0.74908 0.76247
 H1229 H 0.55821 0.74190 0.77912
 H1230 H 0.64389 0.73395 0.82626
 H1231 H 0.58785 0.76191 0.86616
 H1232 H 0.62459 0.75742 0.73478
 C1233 C 0.58657 0.22001 0.65151
 C1234 C 0.60639 0.24504 0.67525
 C1235 C 0.65098 0.23590 0.68568
 C1236 C 0.66836 0.25074 0.71935
 H1237 H 0.58985 0.27288 0.68633
 H1238 H 0.67002 0.21731 0.66461
 H1239 H 0.60212 0.19064 0.64326
 H1240 H 0.64895 0.26892 0.74045
 C1241 C 0.08586 0.73857 0.15361
 C1242 C 0.10428 0.76042 0.18166
 C1243 C 0.14804 0.74888 0.19448
 C1244 C 0.16481 0.76260 0.22908
 H1245 H 0.08741 0.78727 0.19441
 H1246 H 0.16726 0.72948 0.17421
 H1247 H 0.10180 0.71019 0.14317
 H1248 H 0.14539 0.78152 0.24955
   
