data_POSCAR
  _audit_creation_date              2014-09-24
  _audit_creation_method            'ToBaCCo'
  _symmetry_space_group_name_H-M    'P1'
  _symmetry_Int_Tables_number       1
  _symmetry_cell_setting            triclinic
  loop_
  _symmetry_equiv_pos_as_xyz
 x,y,z
_cell_length_a 111.5632
_cell_length_b 111.7929
_cell_length_c 112.1526
_cell_angle_alpha 89.983400
_cell_angle_beta 89.960100
_cell_angle_gamma 89.909000
loop_
  _atom_site_label
  _atom_site_type_symbol
  _atom_site_fract_x
  _atom_site_fract_y
  _atom_site_fract_z
N1 N 0.35096 0.31747 0.32666
 N2 N 0.35109 0.32602 0.31862
 C3 C 0.36092 0.32476 0.31175
 C4 C 0.36733 0.31487 0.31570
 C5 C 0.36065 0.31047 0.32516
 H6 H 0.36337 0.33078 0.30463
 H7 H 0.36282 0.30295 0.33082
 Cu8 Cu 0.33878 0.33837 0.31859
 Cu9 Cu 0.33891 0.31666 0.33920
 Cu10 Cu 0.31702 0.33877 0.33924
 N11 N 0.32648 0.35072 0.31856
 N12 N 0.31794 0.35076 0.32663
 C13 C 0.31097 0.36045 0.32502
 C14 C 0.31539 0.36694 0.31544
 C15 C 0.32524 0.36043 0.31156
 H16 H 0.30344 0.36273 0.33064
 H17 H 0.33126 0.36272 0.30436
 N18 N 0.31771 0.32586 0.35122
 N19 N 0.32601 0.31744 0.35116
 C20 C 0.32461 0.31052 0.36088
 C21 C 0.31499 0.31478 0.36746
 C22 C 0.31082 0.32450 0.36098
 H23 H 0.33045 0.30317 0.36319
 H24 H 0.30355 0.33042 0.36339
 H25 H 0.32550 0.32533 0.32988
 H26 H 0.33511 0.33478 0.33970
 N27 N 0.35107 0.81785 -0.17325
 N28 N 0.35097 0.82604 -0.18164
 C29 C 0.36083 0.82474 -0.18845
 C30 C 0.36756 0.81520 -0.18409
 C31 C 0.36095 0.81105 -0.17443
 H32 H 0.36302 0.83051 -0.19585
 H33 H 0.36324 0.80382 -0.16845
 Cu34 Cu 0.33840 0.83811 -0.18257
 Cu35 Cu 0.33894 0.81722 -0.16082
 Cu36 Cu 0.31717 0.83927 -0.16110
 N37 N 0.32642 0.85078 -0.18202
 N38 N 0.31813 0.85113 -0.17372
 C39 C 0.31143 0.86104 -0.17518
 C40 C 0.31578 0.86739 -0.18492
 C41 C 0.32530 0.86049 -0.18905
 H42 H 0.30414 0.86352 -0.16934
 H43 H 0.33120 0.86246 -0.19642
 N44 N 0.31769 0.82650 -0.14902
 N45 N 0.32597 0.81808 -0.14896
 C46 C 0.32447 0.81121 -0.13922
 C47 C 0.31480 0.81552 -0.13274
 C48 C 0.31070 0.82521 -0.13930
 H49 H 0.33028 0.80385 -0.13684
 H50 H 0.30342 0.83115 -0.13699
 H51 H 0.32541 0.82552 -0.17032
 H52 H 0.33534 0.83540 -0.16120
 N53 N 0.85082 0.31786 -0.17340
 N54 N 0.85097 0.32645 -0.18138
 C55 C 0.86077 0.32517 -0.18828
 C56 C 0.86716 0.31524 -0.18440
 C57 C 0.86049 0.31083 -0.17494
 H58 H 0.86319 0.33118 -0.19542
 H59 H 0.86267 0.30330 -0.16931
 Cu60 Cu 0.83863 0.33875 -0.18168
 Cu61 Cu 0.83876 0.31704 -0.16090
 Cu62 Cu 0.81699 0.33923 -0.16076
 N63 N 0.82646 0.35122 -0.18136
 N64 N 0.81794 0.35128 -0.17327
 C65 C 0.81098 0.36099 -0.17487
 C66 C 0.81538 0.36750 -0.18449
 C67 C 0.82521 0.36091 -0.18838
 H68 H 0.80350 0.36326 -0.16919
 H69 H 0.83118 0.36305 -0.19564
 N70 N 0.81761 0.32628 -0.14883
 N71 N 0.82587 0.31782 -0.14893
 C72 C 0.82446 0.31089 -0.13922
 C73 C 0.81489 0.31519 -0.13260
 C74 C 0.81074 0.32494 -0.13905
 H75 H 0.83028 0.30351 -0.13693
 H76 H 0.80353 0.33090 -0.13661
 H77 H 0.82535 0.32574 -0.17021
 H78 H 0.83506 0.33516 -0.16049
 N79 N 0.85067 0.81788 0.32688
 N80 N 0.85056 0.82606 0.31848
 C81 C 0.86040 0.82473 0.31164
 C82 C 0.86708 0.81520 0.31599
 C83 C 0.86054 0.81107 0.32567
 H84 H 0.86264 0.83047 0.30422
 H85 H 0.86292 0.80386 0.33163
 Cu86 Cu 0.83802 0.83816 0.31758
 Cu87 Cu 0.83858 0.81728 0.33934
 Cu88 Cu 0.81682 0.83935 0.33906
 N89 N 0.82605 0.85084 0.31813
 N90 N 0.81776 0.85120 0.32643
 C91 C 0.81108 0.86112 0.32498
 C92 C 0.81543 0.86746 0.31524
 C93 C 0.82494 0.86055 0.31111
 H94 H 0.80381 0.86362 0.33084
 H95 H 0.83084 0.86252 0.30373
 N96 N 0.81735 0.82660 0.35117
 N97 N 0.82563 0.81817 0.35123
 C98 C 0.82416 0.81133 0.36100
 C99 C 0.81450 0.81566 0.36749
 C100 C 0.81038 0.82533 0.36090
 H101 H 0.82996 0.80398 0.36339
 H102 H 0.80310 0.83128 0.36321
 H103 H 0.82504 0.82558 0.32986
 H104 H 0.83499 0.83546 0.33895
 N105 N 0.64904 0.68219 0.32661
 N106 N 0.64942 0.67396 0.31827
 C107 C 0.63974 0.67512 0.31122
 C108 C 0.63286 0.68460 0.31533
 C109 C 0.63911 0.68889 0.32512
 H110 H 0.63775 0.66929 0.30381
 H111 H 0.63652 0.69614 0.33095
 Cu112 Cu 0.66203 0.66196 0.31767
 Cu113 Cu 0.66096 0.68298 0.33923
 Cu114 Cu 0.68295 0.66105 0.33939
 N115 N 0.67409 0.64942 0.31841
 N116 N 0.68226 0.64907 0.32681
 C117 C 0.68901 0.63917 0.32537
 C118 C 0.68480 0.63291 0.31554
 C119 C 0.67533 0.63976 0.31136
 H120 H 0.69624 0.63660 0.33125
 H121 H 0.66955 0.63776 0.30390
 N122 N 0.68211 0.67393 0.35138
 N123 N 0.67375 0.68228 0.35131
 C124 C 0.67509 0.68925 0.36100
 C125 C 0.68475 0.68508 0.36758
 C126 C 0.68899 0.67537 0.36113
 H127 H 0.66923 0.69660 0.36327
 H128 H 0.69633 0.66953 0.36351
 H129 H 0.67476 0.67469 0.33002
 H130 H 0.66478 0.66480 0.33907
 N131 N 0.64923 0.18182 -0.17324
 N132 N 0.64922 0.17328 -0.18127
 C133 C 0.63958 0.17459 -0.18835
 C134 C 0.63307 0.18444 -0.18454
 C135 C 0.63954 0.18883 -0.17491
 H136 H 0.63734 0.16863 -0.19559
 H137 H 0.63724 0.19634 -0.16931
 Cu138 Cu 0.66155 0.16097 -0.18149
 Cu139 Cu 0.66132 0.18261 -0.16071
 Cu140 Cu 0.68326 0.16049 -0.16076
 N141 N 0.67377 0.14856 -0.18133
 N142 N 0.68234 0.14846 -0.17332
 C143 C 0.68928 0.13875 -0.17504
 C144 C 0.68483 0.13233 -0.18470
 C145 C 0.67499 0.13896 -0.18847
 H146 H 0.69680 0.13645 -0.16944
 H147 H 0.66899 0.13688 -0.19573
 N148 N 0.68259 0.17339 -0.14877
 N149 N 0.67427 0.18180 -0.14877
 C150 C 0.67574 0.18873 -0.13907
 C151 C 0.68542 0.18449 -0.13256
 C152 C 0.68956 0.17478 -0.13906
 H153 H 0.66992 0.19609 -0.13673
 H154 H 0.69687 0.16889 -0.13672
 H155 H 0.67478 0.17403 -0.17004
 H156 H 0.66517 0.16453 -0.16030
 N157 N 0.14896 0.68206 -0.17340
 N158 N 0.14900 0.67341 -0.18133
 C159 C 0.13935 0.67459 -0.18842
 C160 C 0.13284 0.68451 -0.18477
 C161 C 0.13929 0.68904 -0.17521
 H162 H 0.13711 0.66849 -0.19554
 H163 H 0.13701 0.69668 -0.16977
 Cu164 Cu 0.16132 0.66109 -0.18127
 Cu165 Cu 0.16094 0.68303 -0.16081
 Cu166 Cu 0.18307 0.66112 -0.16054
 N167 N 0.17374 0.64888 -0.18102
 N168 N 0.18231 0.64898 -0.17300
 C169 C 0.18937 0.63933 -0.17462
 C170 C 0.18497 0.63277 -0.18416
 C171 C 0.17505 0.63918 -0.18800
 H172 H 0.19696 0.63714 -0.16907
 H173 H 0.16903 0.63684 -0.19516
 N174 N 0.18220 0.67412 -0.14867
 N175 N 0.17380 0.68243 -0.14876
 C176 C 0.17508 0.68939 -0.13904
 C177 C 0.18475 0.68525 -0.13244
 C178 C 0.18905 0.67558 -0.13891
 H179 H 0.16915 0.69667 -0.13674
 H180 H 0.19638 0.66975 -0.13648
 H181 H 0.17445 0.67439 -0.17001
 H182 H 0.16495 0.66495 -0.16013
 N183 N 0.14902 0.18196 0.32686
 N184 N 0.14904 0.17346 0.31878
 C185 C 0.13937 0.17474 0.31174
 C186 C 0.13283 0.18456 0.31561
 C187 C 0.13930 0.18894 0.32523
 H188 H 0.13709 0.16874 0.30454
 H189 H 0.13704 0.19649 0.33080
 Cu190 Cu 0.16133 0.16114 0.31871
 Cu191 Cu 0.16111 0.18275 0.33940
 Cu192 Cu 0.18313 0.16068 0.33926
 N193 N 0.17360 0.14881 0.31863
 N194 N 0.18218 0.14870 0.32665
 C195 C 0.18908 0.13896 0.32495
 C196 C 0.18457 0.13255 0.31535
 C197 C 0.17476 0.13916 0.31156
 H198 H 0.19666 0.13662 0.33047
 H199 H 0.16868 0.13693 0.30442
 N200 N 0.18246 0.17357 0.35127
 N201 N 0.17410 0.18195 0.35132
 C202 C 0.17556 0.18886 0.36103
 C203 C 0.18527 0.18463 0.36751
 C204 C 0.18943 0.17495 0.36097
 H205 H 0.16971 0.19618 0.36341
 H206 H 0.19675 0.16906 0.36329
 H207 H 0.17459 0.17419 0.33005
 H208 H 0.16507 0.16466 0.33983
 N209 N 0.64884 0.31803 0.67338
 N210 N 0.64891 0.32656 0.68141
 C211 C 0.63922 0.32538 0.68849
 C212 C 0.63266 0.31558 0.68468
 C213 C 0.63911 0.31113 0.67506
 H214 H 0.63696 0.33140 0.69570
 H215 H 0.63681 0.30361 0.66948
 Cu216 Cu 0.66124 0.33882 0.68139
 Cu217 Cu 0.66088 0.31708 0.66080
 Cu218 Cu 0.68294 0.33897 0.66064
 N219 N 0.67361 0.35103 0.68129
 N220 N 0.68212 0.35104 0.67319
 C221 C 0.68908 0.36072 0.67479
 C222 C 0.68469 0.36721 0.68441
 C223 C 0.67487 0.36071 0.68832
 H224 H 0.69658 0.36299 0.66915
 H225 H 0.66888 0.36301 0.69554
 N226 N 0.68217 0.32601 0.64871
 N227 N 0.67381 0.31769 0.64882
 C228 C 0.67522 0.31063 0.63920
 C229 C 0.68491 0.31471 0.63262
 C230 C 0.68912 0.32446 0.63900
 H231 H 0.66935 0.30330 0.63696
 H232 H 0.69647 0.33025 0.63658
 H233 H 0.67438 0.32562 0.67007
 H234 H 0.66480 0.33517 0.66027
 N235 N 0.64897 0.81796 1.17344
 N236 N 0.64906 0.82640 1.18158
 C237 C 0.63937 0.82517 1.18863
 C238 C 0.63279 0.81542 1.18472
 C239 C 0.63923 0.81105 1.17505
 H240 H 0.63714 0.83114 1.19586
 H241 H 0.63689 0.80359 1.16940
 Cu242 Cu 0.66136 0.83869 1.18165
 Cu243 Cu 0.66101 0.81712 1.16085
 Cu244 Cu 0.68307 0.83902 1.16096
 N245 N 0.67370 0.85094 1.18165
 N246 N 0.68221 0.85099 1.17357
 C247 C 0.68913 0.86070 1.17516
 C248 C 0.68470 0.86718 1.18475
 C249 C 0.67490 0.86065 1.18865
 H250 H 0.69663 0.86301 1.16951
 H251 H 0.66886 0.86294 1.19583
 N252 N 0.68235 0.82618 1.14894
 N253 N 0.67397 0.81787 1.14887
 C254 C 0.67542 0.81098 1.13913
 C255 C 0.68515 0.81517 1.13267
 C256 C 0.68934 0.82479 1.13924
 H257 H 0.66955 0.80370 1.13673
 H258 H 0.69669 0.83063 1.13695
 H259 H 0.67444 0.82556 1.17019
 H260 H 0.66488 0.83521 1.16048
 N261 N 0.14871 0.31803 1.17323
 N262 N 0.14879 0.32653 1.18132
 C263 C 0.13912 0.32534 1.18839
 C264 C 0.13254 0.31557 1.18455
 C265 C 0.13897 0.31113 1.17491
 H266 H 0.13691 0.33134 1.19561
 H267 H 0.13663 0.30362 1.16932
 Cu268 Cu 0.16109 0.33880 1.18132
 Cu269 Cu 0.16077 0.31709 1.16063
 Cu270 Cu 0.18283 0.33901 1.16073
 N271 N 0.17342 0.35105 1.18133
 N272 N 0.18196 0.35104 1.17327
 C273 C 0.18895 0.36070 1.17487
 C274 C 0.18454 0.36721 1.18445
 C275 C 0.17468 0.36074 1.18833
 H276 H 0.19648 0.36293 1.16925
 H277 H 0.16867 0.36306 1.19553
 N278 N 0.18214 0.32612 1.14877
 N279 N 0.17376 0.31781 1.14867
 C280 C 0.17530 0.31089 1.13894
 C281 C 0.18510 0.31508 1.13256
 C282 C 0.18921 0.32471 1.13915
 H283 H 0.16947 0.30358 1.13651
 H284 H 0.19658 0.33055 1.13692
 H285 H 0.17418 0.32554 1.17000
 H286 H 0.16466 0.33512 1.16020
 N287 N 0.14898 0.81794 0.67316
 N288 N 0.14900 0.82645 0.68123
 C289 C 0.13936 0.82520 0.68832
 C290 C 0.13284 0.81537 0.68450
 C291 C 0.13928 0.81097 0.67485
 H292 H 0.13714 0.83117 0.69556
 H293 H 0.13699 0.80345 0.66925
 Cu294 Cu 0.16133 0.83871 0.68141
 Cu295 Cu 0.16107 0.81709 0.66059
 Cu296 Cu 0.18312 0.83903 0.66080
 N297 N 0.17360 0.85103 0.68136
 N298 N 0.18221 0.85102 0.67338
 C299 C 0.18918 0.86069 0.67504
 C300 C 0.18468 0.86719 0.68459
 C301 C 0.17479 0.86071 0.68839
 H302 H 0.19675 0.86295 0.66946
 H303 H 0.16872 0.86300 0.69554
 N304 N 0.18246 0.82620 0.64878
 N305 N 0.17407 0.81789 0.64864
 C306 C 0.17553 0.81109 0.63883
 C307 C 0.18527 0.81535 0.63242
 C308 C 0.18944 0.82490 0.63908
 H309 H 0.16966 0.80383 0.63635
 H310 H 0.19678 0.83078 0.63683
 H311 H 0.17448 0.82548 0.67002
 H312 H 0.16497 0.83511 0.66025
 N313 N 0.35124 0.68194 0.67352
 N314 N 0.35131 0.67340 0.68156
 C315 C 0.36104 0.67469 0.68854
 C316 C 0.36746 0.68458 0.68468
 C317 C 0.36089 0.68896 0.67512
 H318 H 0.36338 0.66873 0.69577
 H319 H 0.36311 0.69645 0.66945
 Cu320 Cu 0.33897 0.66113 0.68176
 Cu321 Cu 0.33922 0.68279 0.66096
 Cu322 Cu 0.31731 0.66077 0.66093
 N323 N 0.32676 0.64874 0.68153
 N324 N 0.31822 0.64873 0.67347
 C325 C 0.31127 0.63904 0.67511
 C326 C 0.31569 0.63255 0.68470
 C327 C 0.32554 0.63905 0.68854
 H328 H 0.30378 0.63673 0.66945
 H329 H 0.33151 0.63681 0.69579
 N330 N 0.31800 0.67370 0.64896
 N331 N 0.32634 0.68206 0.64895
 C332 C 0.32490 0.68899 0.63923
 C333 C 0.31521 0.68480 0.63273
 C334 C 0.31105 0.67511 0.63925
 H335 H 0.33073 0.69633 0.63689
 H336 H 0.30373 0.66926 0.63692
 H337 H 0.32577 0.67423 0.67028
 H338 H 0.33542 0.66469 0.66055
 N339 N 0.35118 0.18170 1.17322
 N340 N 0.35068 0.17377 1.18185
 C341 C 0.36044 0.17497 1.18882
 C342 C 0.36746 0.18416 1.18432
 C343 C 0.36122 0.18822 1.17441
 H344 H 0.36233 0.16942 1.19649
 H345 H 0.36385 0.19525 1.16835
 Cu346 Cu 0.33759 0.16235 1.18297
 Cu347 Cu 0.33915 0.18257 1.16069
 Cu348 Cu 0.31729 0.16068 1.16078
 N349 N 0.32616 0.14927 1.18193
 N350 N 0.31821 0.14870 1.17332
 C351 C 0.31171 0.13864 1.17459
 C352 C 0.31583 0.13249 1.18453
 C353 C 0.32501 0.13957 1.18896
 H354 H 0.30466 0.13595 1.16858
 H355 H 0.33060 0.13776 1.19661
 N356 N 0.31788 0.17357 1.14882
 N357 N 0.32622 0.18191 1.14876
 C358 C 0.32466 0.18891 1.13910
 C359 C 0.31488 0.18475 1.13270
 C360 C 0.31080 0.17504 1.13922
 H361 H 0.33045 0.19627 1.13674
 H362 H 0.30344 0.16920 1.13697
 H363 H 0.32516 0.17473 1.16992
 H364 H 0.33542 0.16450 1.16151
 N365 N 0.85106 0.68188 1.17372
 N366 N 0.85111 0.67331 1.18173
 C367 C 0.86084 0.67455 1.18872
 C368 C 0.86728 0.68444 1.18487
 C369 C 0.86072 0.68887 1.17534
 H370 H 0.86321 0.66852 1.19586
 H371 H 0.86291 0.69643 1.16975
 Cu372 Cu 0.83879 0.66101 1.18165
 Cu373 Cu 0.83909 0.68278 1.16109
 Cu374 Cu 0.81714 0.66079 1.16089
 N375 N 0.82646 0.64874 1.18157
 N376 N 0.81796 0.64873 1.17347
 C377 C 0.81097 0.63905 1.17508
 C378 C 0.81533 0.63258 1.18471
 C379 C 0.82517 0.63907 1.18860
 H380 H 0.80344 0.63680 1.16947
 H381 H 0.83115 0.63679 1.19582
 N382 N 0.81792 0.67375 1.14894
 N383 N 0.82626 0.68211 1.14904
 C384 C 0.82489 0.68910 1.13936
 C385 C 0.81526 0.68495 1.13276
 C386 C 0.81104 0.67522 1.13919
 H387 H 0.83075 0.69644 1.13710
 H388 H 0.80375 0.66937 1.13676
 H389 H 0.82560 0.67417 1.17032
 H390 H 0.83523 0.66470 1.16052
 N391 N 0.85083 0.18188 0.67352
 N392 N 0.85061 0.17365 0.68187
 C393 C 0.86035 0.17492 0.68885
 C394 C 0.86707 0.18447 0.68463
 C395 C 0.86067 0.18866 0.67490
 H396 H 0.86251 0.16913 0.69625
 H397 H 0.86309 0.19592 0.66902
 Cu398 Cu 0.83802 0.16164 0.68250
 Cu399 Cu 0.83891 0.18260 0.66093
 Cu400 Cu 0.81707 0.16067 0.66073
 N401 N 0.82597 0.14910 0.68180
 N402 N 0.81781 0.14875 0.67338
 C403 C 0.81107 0.13887 0.67483
 C404 C 0.81525 0.13262 0.68469
 C405 C 0.82471 0.13946 0.68888
 H406 H 0.80385 0.13631 0.66895
 H407 H 0.83047 0.13746 0.69635
 N408 N 0.81786 0.17352 0.64869
 N409 N 0.82617 0.18190 0.64885
 C410 C 0.82484 0.18893 0.63920
 C411 C 0.81525 0.18480 0.63253
 C412 C 0.81102 0.17502 0.63890
 H413 H 0.83068 0.19630 0.63703
 H414 H 0.80371 0.16920 0.63643
 H415 H 0.82515 0.17427 0.67014
 H416 H 0.83520 0.16440 0.66111
 N417 N 0.31795 0.35087 0.67329
 N418 N 0.32617 0.35069 0.68167
 C419 C 0.32483 0.36046 0.68858
 C420 C 0.31524 0.36714 0.68430
 C421 C 0.31111 0.36069 0.67459
 H422 H 0.33057 0.36264 0.69602
 H423 H 0.30385 0.36307 0.66868
 Cu424 Cu 0.33821 0.33805 0.68244
 Cu425 Cu 0.31719 0.33888 0.66079
 Cu426 Cu 0.33902 0.31695 0.66087
 N427 N 0.35083 0.32599 0.68171
 N428 N 0.35099 0.31773 0.67339
 C429 C 0.36086 0.31094 0.67468
 C430 C 0.36736 0.31516 0.68431
 C431 C 0.36067 0.32473 0.68858
 H432 H 0.36324 0.30368 0.66878
 H433 H 0.36290 0.33054 0.69594
 N434 N 0.32619 0.31764 0.64888
 N435 N 0.31787 0.32603 0.64884
 C436 C 0.31096 0.32465 0.63910
 C437 C 0.31515 0.31494 0.63262
 C438 C 0.32480 0.31070 0.63917
 H439 H 0.30367 0.33054 0.63673
 H440 H 0.33065 0.30336 0.63686
 H441 H 0.32540 0.32528 0.67022
 H442 H 0.33539 0.33512 0.66109
 N443 N 0.31808 0.85104 0.17318
 N444 N 0.32659 0.85111 0.18128
 C445 C 0.32530 0.86090 0.18817
 C446 C 0.31540 0.86732 0.18421
 C447 C 0.31106 0.86071 0.17468
 H448 H 0.33124 0.86329 0.19539
 H449 H 0.30358 0.86289 0.16899
 Cu450 Cu 0.33864 0.83850 0.18139
 Cu451 Cu 0.31719 0.83900 0.16062
 Cu452 Cu 0.33914 0.81692 0.16078
 N453 N 0.35123 0.82643 0.18139
 N454 N 0.35113 0.81784 0.17338
 C455 C 0.36084 0.81088 0.17489
 C456 C 0.36750 0.81533 0.18432
 C457 C 0.36108 0.82523 0.18823
 H458 H 0.36304 0.80339 0.16923
 H459 H 0.36352 0.83127 0.19535
 N460 N 0.32627 0.81765 0.14876
 N461 N 0.31795 0.82605 0.14868
 C462 C 0.31110 0.82468 0.13891
 C463 C 0.31531 0.81499 0.13243
 C464 C 0.32492 0.81073 0.13903
 H465 H 0.30383 0.83059 0.13650
 H466 H 0.33077 0.80338 0.13673
 H467 H 0.32558 0.82550 0.16989
 H468 H 0.33531 0.83504 0.16027
 N469 N 0.81801 0.35106 0.17320
 N470 N 0.82656 0.35116 0.18126
 C471 C 0.82521 0.36092 0.18819
 C472 C 0.81527 0.36730 0.18427
 C473 C 0.81094 0.36068 0.17475
 H474 H 0.83118 0.36332 0.19538
 H475 H 0.80340 0.36282 0.16911
 Cu476 Cu 0.83892 0.33883 0.18127
 Cu477 Cu 0.81715 0.33904 0.16065
 Cu478 Cu 0.83904 0.31699 0.16075
 N479 N 0.85120 0.32642 0.18130
 N480 N 0.85105 0.31783 0.17331
 C481 C 0.86071 0.31079 0.17484
 C482 C 0.86739 0.31519 0.18427
 C483 C 0.86102 0.32513 0.18818
 H484 H 0.86284 0.30323 0.16921
 H485 H 0.86350 0.33117 0.19527
 N486 N 0.82618 0.31774 0.14875
 N487 N 0.81786 0.32614 0.14870
 C488 C 0.81097 0.32478 0.13895
 C489 C 0.81516 0.31507 0.13247
 C490 C 0.82479 0.31082 0.13903
 H491 H 0.80370 0.33069 0.13656
 H492 H 0.83063 0.30347 0.13671
 H493 H 0.82567 0.32568 0.17009
 H494 H 0.83526 0.33510 0.16019
 N495 N 0.81787 0.85115 0.67302
 N496 N 0.82607 0.85099 0.68141
 C497 C 0.82478 0.86081 0.68826
 C498 C 0.81524 0.86751 0.68393
 C499 C 0.81107 0.86102 0.67426
 H500 H 0.83054 0.86300 0.69568
 H501 H 0.80384 0.86341 0.66832
 Cu502 Cu 0.83811 0.83836 0.68229
 Cu503 Cu 0.81713 0.83911 0.66056
 Cu504 Cu 0.83902 0.81722 0.66080
 N505 N 0.85077 0.82634 0.68163
 N506 N 0.85096 0.81806 0.67334
 C507 C 0.86085 0.81130 0.67466
 C508 C 0.86733 0.81557 0.68430
 C509 C 0.86060 0.82514 0.68851
 H510 H 0.86327 0.80403 0.66879
 H511 H 0.86279 0.83098 0.69586
 N512 N 0.82623 0.81783 0.64877
 N513 N 0.81789 0.82618 0.64867
 C514 C 0.81103 0.82475 0.63891
 C515 C 0.81528 0.81505 0.63246
 C516 C 0.82491 0.81086 0.63907
 H517 H 0.80372 0.83062 0.63649
 H518 H 0.83080 0.80354 0.63679
 H519 H 0.82531 0.82558 0.67006
 H520 H 0.83529 0.83542 0.66093
 N521 N 0.68220 0.64890 0.67353
 N522 N 0.67360 0.64891 0.68153
 C523 C 0.67482 0.63923 0.68857
 C524 C 0.68472 0.63274 0.68477
 C525 C 0.68918 0.63922 0.67520
 H526 H 0.66877 0.63694 0.69573
 H527 H 0.69673 0.63693 0.66962
 Cu528 Cu 0.66129 0.66123 0.68146
 Cu529 Cu 0.68310 0.66087 0.66092
 Cu530 Cu 0.66106 0.68286 0.66075
 N531 N 0.64896 0.67353 0.68138
 N532 N 0.64894 0.68204 0.67331
 C533 C 0.63925 0.68904 0.67496
 C534 C 0.63277 0.68467 0.68460
 C535 C 0.63928 0.67482 0.68843
 H536 H 0.63696 0.69656 0.66936
 H537 H 0.63703 0.66885 0.69566
 N538 N 0.67406 0.68206 0.64882
 N539 N 0.68243 0.67371 0.64890
 C540 C 0.68941 0.67505 0.63919
 C541 C 0.68523 0.68469 0.63261
 C542 C 0.67551 0.68893 0.63907
 H543 H 0.69675 0.66918 0.63689
 H544 H 0.66965 0.69623 0.63667
 H545 H 0.67447 0.67435 0.67017
 H546 H 0.66498 0.66479 0.66036
 N547 N 0.68228 0.14874 0.17325
 N548 N 0.67397 0.14899 0.18154
 C549 C 0.67512 0.13924 0.18849
 C550 C 0.68469 0.13247 0.18436
 C551 C 0.68904 0.13886 0.17467
 H552 H 0.66921 0.13711 0.19581
 H553 H 0.69640 0.13642 0.16890
 Cu554 Cu 0.66191 0.16155 0.18214
 Cu555 Cu 0.68312 0.16071 0.16071
 Cu556 Cu 0.66116 0.18263 0.16061
 N557 N 0.64935 0.17359 0.18145
 N558 N 0.64909 0.18185 0.17313
 C559 C 0.63920 0.18862 0.17457
 C560 C 0.63283 0.18434 0.18431
 C561 C 0.63961 0.17479 0.18843
 H562 H 0.63676 0.19597 0.16881
 H563 H 0.63751 0.16894 0.19580
 N564 N 0.67411 0.18190 0.14869
 N565 N 0.68247 0.17356 0.14873
 C566 C 0.68947 0.17495 0.13904
 C567 C 0.68530 0.18461 0.13250
 C568 C 0.67557 0.18883 0.13897
 H569 H 0.69681 0.16908 0.13673
 H570 H 0.66971 0.19614 0.13660
 H571 H 0.67477 0.17435 0.17000
 H572 H 0.66491 0.16447 0.16081
 N573 N 0.18212 0.64890 0.17322
 N574 N 0.17392 0.64927 0.18161
 C575 C 0.17508 0.63956 0.18861
 C576 C 0.18454 0.63268 0.18440
 C577 C 0.18880 0.63897 0.17462
 H578 H 0.16927 0.63754 0.19605
 H579 H 0.19602 0.63639 0.16872
 Cu580 Cu 0.16196 0.66193 0.18231
 Cu581 Cu 0.18295 0.66082 0.16064
 Cu582 Cu 0.16102 0.68276 0.16049
 N583 N 0.14933 0.67391 0.18148
 N584 N 0.14897 0.68204 0.17304
 C585 C 0.13903 0.68875 0.17443
 C586 C 0.13274 0.68458 0.18427
 C587 C 0.13963 0.67515 0.18850
 H588 H 0.13646 0.69595 0.16852
 H589 H 0.13763 0.66942 0.19600
 N590 N 0.17395 0.68196 0.14853
 N591 N 0.18231 0.67360 0.14860
 C592 C 0.18931 0.67495 0.13891
 C593 C 0.18516 0.68461 0.13234
 C594 C 0.17543 0.68885 0.13879
 H595 H 0.19665 0.66908 0.13663
 H596 H 0.16959 0.69617 0.13641
 H597 H 0.17470 0.67459 0.16987
 H598 H 0.16474 0.66461 0.16090
 N599 N 0.18202 0.14854 0.67338
 N600 N 0.17345 0.14856 0.68141
 C601 C 0.17464 0.13884 0.68840
 C602 C 0.18453 0.13235 0.68457
 C603 C 0.18899 0.13886 0.67502
 H604 H 0.16859 0.13654 0.69556
 H605 H 0.19655 0.13659 0.66943
 Cu606 Cu 0.16113 0.16087 0.68136
 Cu607 Cu 0.18296 0.16057 0.66082
 Cu608 Cu 0.16092 0.18258 0.66072
 N609 N 0.14881 0.17318 0.68131
 N610 N 0.14879 0.18170 0.67324
 C611 C 0.13909 0.18868 0.67489
 C612 C 0.13259 0.18428 0.68449
 C613 C 0.13909 0.17441 0.68832
 H614 H 0.13683 0.19623 0.66930
 H615 H 0.13683 0.16842 0.69553
 N616 N 0.17393 0.18184 0.64881
 N617 N 0.18229 0.17347 0.64885
 C618 C 0.18929 0.17487 0.63916
 C619 C 0.18512 0.18454 0.63263
 C620 C 0.17540 0.18876 0.63910
 H621 H 0.19662 0.16899 0.63684
 H622 H 0.16955 0.19608 0.63672
 H623 H 0.17433 0.17401 0.67009
 H624 H 0.16483 0.16450 0.66025
 N625 N 0.31781 0.64873 0.32654
 N626 N 0.32630 0.64873 0.31842
 C627 C 0.32500 0.63904 0.31141
 C628 C 0.31516 0.63257 0.31534
 C629 C 0.31081 0.63907 0.32496
 H630 H 0.33097 0.63673 0.30418
 H631 H 0.30331 0.63682 0.33063
 Cu632 Cu 0.33867 0.66097 0.31835
 Cu633 Cu 0.31700 0.66073 0.33915
 Cu634 Cu 0.33898 0.68267 0.33893
 N635 N 0.35101 0.67325 0.31827
 N636 N 0.35096 0.68178 0.32632
 C637 C 0.36061 0.68878 0.32472
 C638 C 0.36720 0.68440 0.31518
 C639 C 0.36077 0.67452 0.31129
 H640 H 0.36280 0.69630 0.33035
 H641 H 0.36315 0.66852 0.30412
 N642 N 0.32613 0.68200 0.35098
 N643 N 0.31779 0.67365 0.35113
 C644 C 0.31092 0.67517 0.36091
 C645 C 0.31515 0.68492 0.36727
 C646 C 0.32478 0.68903 0.36063
 H647 H 0.30359 0.66936 0.36337
 H648 H 0.33064 0.69638 0.36282
 H649 H 0.32546 0.67409 0.32971
 H650 H 0.33509 0.66458 0.33948
 N651 N 0.31777 0.14875 0.82657
 N652 N 0.32607 0.14896 0.81825
 C653 C 0.32487 0.13922 0.81129
 C654 C 0.31527 0.13252 0.81544
 C655 C 0.31098 0.13892 0.82515
 H656 H 0.33074 0.13706 0.80394
 H657 H 0.30368 0.13648 0.83100
 Cu658 Cu 0.33796 0.16164 0.81801
 Cu659 Cu 0.31699 0.16068 0.83930
 Cu660 Cu 0.33905 0.18264 0.83910
 N661 N 0.35078 0.17341 0.81812
 N662 N 0.35095 0.18175 0.82637
 C663 C 0.36078 0.18854 0.82492
 C664 C 0.36724 0.18423 0.81527
 C665 C 0.36057 0.17458 0.81117
 H666 H 0.36315 0.19587 0.83073
 H667 H 0.36278 0.16869 0.80385
 N668 N 0.32624 0.18190 0.85120
 N669 N 0.31788 0.17356 0.85135
 C670 C 0.31101 0.17508 0.86112
 C671 C 0.31525 0.18483 0.86748
 C672 C 0.32489 0.18893 0.86085
 H673 H 0.30366 0.16931 0.86357
 H674 H 0.33074 0.19629 0.86303
 H675 H 0.32514 0.17445 0.83016
 H676 H 0.33504 0.16463 0.83928
 N677 N 0.81806 0.64881 0.82667
 N678 N 0.82657 0.64875 0.81857
 C679 C 0.82523 0.63905 0.81159
 C680 C 0.81536 0.63262 0.81554
 C681 C 0.81103 0.63917 0.82513
 H682 H 0.83117 0.63673 0.80435
 H683 H 0.80352 0.63696 0.83079
 Cu684 Cu 0.83885 0.66107 0.81825
 Cu685 Cu 0.81727 0.66087 0.83919
 Cu686 Cu 0.83924 0.68280 0.83893
 N687 N 0.85126 0.67328 0.81833
 N688 N 0.85119 0.68187 0.82632
 C689 C 0.86084 0.68887 0.82467
 C690 C 0.86741 0.68444 0.81514
 C691 C 0.86098 0.67454 0.81132
 H692 H 0.86305 0.69642 0.83026
 H693 H 0.86333 0.66853 0.80415
 N694 N 0.82641 0.68216 0.85100
 N695 N 0.81806 0.67381 0.85111
 C696 C 0.81120 0.67527 0.86089
 C697 C 0.81545 0.68497 0.86732
 C698 C 0.82507 0.68912 0.86070
 H699 H 0.80391 0.66942 0.86333
 H700 H 0.83095 0.69644 0.86296
 H701 H 0.82571 0.67425 0.82970
 H702 H 0.83536 0.66474 0.83943
 N703 N 0.81811 0.14867 0.32661
 N704 N 0.82666 0.14862 0.31854
 C705 C 0.82538 0.13891 0.31157
 C706 C 0.81550 0.13247 0.31548
 C707 C 0.81111 0.13901 0.32504
 H708 H 0.83138 0.13657 0.30437
 H709 H 0.80359 0.13680 0.33069
 Cu710 Cu 0.83890 0.16099 0.31851
 Cu711 Cu 0.81720 0.16070 0.33915
 Cu712 Cu 0.83918 0.18265 0.33917
 N713 N 0.85128 0.17322 0.31851
 N714 N 0.85122 0.18174 0.32658
 C715 C 0.86088 0.18874 0.32498
 C716 C 0.86743 0.18438 0.31539
 C717 C 0.86100 0.17451 0.31151
 H718 H 0.86309 0.19625 0.33062
 H719 H 0.86334 0.16855 0.30429
 N720 N 0.82624 0.18193 0.35116
 N721 N 0.81788 0.17360 0.35110
 C722 C 0.81085 0.17502 0.36076
 C723 C 0.81498 0.18468 0.36730
 C724 C 0.82474 0.18886 0.36088
 H725 H 0.80350 0.16917 0.36303
 H726 H 0.83056 0.19618 0.36327
 H727 H 0.82576 0.17415 0.32985
 H728 H 0.83532 0.16459 0.33963
 N729 N 0.68202 0.35094 0.32666
 N730 N 0.67387 0.35075 0.31823
 C731 C 0.67520 0.36051 0.31131
 C732 C 0.68472 0.36721 0.31565
 C733 C 0.68882 0.36078 0.32540
 H734 H 0.66950 0.36268 0.30383
 H735 H 0.69604 0.36316 0.33134
 Cu736 Cu 0.66191 0.33811 0.31740
 Cu737 Cu 0.68272 0.33895 0.33915
 Cu738 Cu 0.66076 0.31717 0.33919
 N739 N 0.64925 0.32617 0.31812
 N740 N 0.64883 0.31802 0.32655
 C741 C 0.63890 0.31135 0.32510
 C742 C 0.63268 0.31555 0.31524
 C743 C 0.63959 0.32497 0.31104
 H744 H 0.63631 0.30414 0.33097
 H745 H 0.63763 0.33071 0.30355
 N746 N 0.67364 0.31786 0.35123
 N747 N 0.68203 0.32614 0.35111
 C748 C 0.68910 0.32473 0.36072
 C749 C 0.68497 0.31511 0.36733
 C750 C 0.67516 0.31094 0.36097
 H751 H 0.69650 0.33053 0.36289
 H752 H 0.66933 0.30363 0.36340
 H753 H 0.67443 0.32521 0.32983
 H754 H 0.66445 0.33524 0.33880
 N755 N 0.68202 0.85118 0.82642
 N756 N 0.67345 0.85122 0.81839
 C757 C 0.67469 0.86094 0.81140
 C758 C 0.68459 0.86737 0.81524
 C759 C 0.68902 0.86082 0.82478
 H760 H 0.66866 0.86330 0.80424
 H761 H 0.69655 0.86304 0.83040
 Cu762 Cu 0.66117 0.83889 0.81846
 Cu763 Cu 0.68291 0.83923 0.83905
 Cu764 Cu 0.66089 0.81731 0.83924
 N765 N 0.64887 0.82660 0.81853
 N766 N 0.64885 0.81813 0.82665
 C767 C 0.63917 0.81113 0.82502
 C768 C 0.63271 0.81547 0.81536
 C769 C 0.63921 0.82530 0.81148
 H770 H 0.63689 0.80364 0.83067
 H771 H 0.63695 0.83124 0.80423
 N772 N 0.67384 0.81811 0.85121
 N773 N 0.68222 0.82642 0.85110
 C774 C 0.68920 0.82507 0.86080
 C775 C 0.68502 0.81546 0.86741
 C776 C 0.67529 0.81125 0.86097
 H777 H 0.69655 0.83091 0.86306
 H778 H 0.66942 0.80397 0.86340
 H779 H 0.67432 0.82574 0.82981
 H780 H 0.66479 0.83536 0.83958
 N781 N 0.18193 0.35107 0.82683
 N782 N 0.17377 0.35090 0.81841
 C783 C 0.17514 0.36062 0.81145
 C784 C 0.18469 0.36729 0.81573
 C785 C 0.18878 0.36088 0.82551
 H786 H 0.16944 0.36277 0.80396
 H787 H 0.19601 0.36327 0.83144
 Cu788 Cu 0.16171 0.33835 0.81760
 Cu789 Cu 0.18261 0.33906 0.83935
 Cu790 Cu 0.16065 0.31726 0.83915
 N791 N 0.14908 0.32635 0.81818
 N792 N 0.14873 0.31813 0.82654
 C793 C 0.13886 0.31139 0.82505
 C794 C 0.13259 0.31562 0.81524
 C795 C 0.13941 0.32513 0.81111
 H796 H 0.13632 0.30414 0.83090
 H797 H 0.13740 0.33092 0.80366
 N798 N 0.17344 0.31787 0.85122
 N799 N 0.18182 0.32618 0.85131
 C800 C 0.18875 0.32464 0.86102
 C801 C 0.18453 0.31490 0.86743
 C802 C 0.17483 0.31083 0.86087
 H803 H 0.19612 0.33041 0.86341
 H804 H 0.16897 0.30349 0.86310
 H805 H 0.17438 0.32548 0.82992
 H806 H 0.16440 0.33539 0.83899
 N807 N 0.18201 0.85114 0.32684
 N808 N 0.17391 0.85085 0.31836
 C809 C 0.17515 0.86061 0.31142
 C810 C 0.18459 0.86742 0.31577
 C811 C 0.18871 0.86105 0.32557
 H812 H 0.16950 0.86264 0.30386
 H813 H 0.19589 0.86352 0.33154
 Cu814 Cu 0.16243 0.83781 0.31746
 Cu815 Cu 0.18281 0.83910 0.33940
 Cu816 Cu 0.16073 0.81724 0.33919
 N817 N 0.14928 0.82644 0.31812
 N818 N 0.14880 0.81827 0.32652
 C819 C 0.13882 0.81170 0.32507
 C820 C 0.13261 0.81599 0.31524
 C821 C 0.13958 0.82538 0.31106
 H822 H 0.13619 0.80449 0.33093
 H823 H 0.13770 0.83113 0.30355
 N824 N 0.17358 0.81785 0.35125
 N825 N 0.18197 0.82615 0.35134
 C826 C 0.18892 0.82459 0.36104
 C827 C 0.18470 0.81485 0.36744
 C828 C 0.17498 0.81079 0.36089
 H829 H 0.19630 0.83035 0.36342
 H830 H 0.16912 0.80345 0.36313
 H831 H 0.17486 0.82516 0.33025
 H832 H 0.16474 0.83526 0.33886
 C833 C 0.25011 1.03195 0.24997
 C834 C 0.25914 1.02579 0.24393
 C835 C 0.25926 1.01324 0.24406
 C836 C 0.25018 1.00672 0.25004
 C837 C 0.24107 1.01325 0.25599
 C838 C 0.24112 1.02579 0.25604
 C839 C 0.25016 0.99325 0.25004
 C840 C 0.24395 0.98672 0.25894
 C841 C 0.24381 0.97418 0.25882
 C842 C 0.25007 0.96802 0.24996
 C843 C 0.25636 0.97419 0.24114
 C844 C 0.25632 0.98673 0.24110
 H845 H 0.25008 1.04166 0.24994
 H846 H 0.26662 1.00875 0.23967
 H847 H 0.23372 1.00877 0.26039
 H848 H 0.23939 0.99120 0.26618
 H849 H 0.25004 0.95832 0.24992
 H850 H 0.26089 0.99122 0.23388
 C851 C 0.24743 0.53179 0.74784
 C852 C 0.25648 0.52583 0.74162
 C853 C 0.25785 0.51343 0.74299
 C854 C 0.24966 0.50671 0.74999
 C855 C 0.24060 0.51308 0.75622
 C856 C 0.23966 0.52555 0.75533
 C857 C 0.25039 0.49323 0.75053
 C858 C 0.24439 0.48669 0.75959
 C859 C 0.24461 0.47415 0.75974
 C860 C 0.25110 0.46798 0.75106
 C861 C 0.25719 0.47412 0.74210
 C862 C 0.25677 0.48665 0.74176
 H863 H 0.24668 0.54144 0.74712
 H864 H 0.26525 0.50921 0.73843
 H865 H 0.23400 0.50854 0.76160
 H866 H 0.23961 0.49113 0.76669
 H867 H 0.25128 0.45828 0.75118
 H868 H 0.26113 0.49103 0.73436
 C869 C 0.75016 -0.03233 0.25016
 C870 C 0.75866 -0.02618 0.25684
 C871 C 0.75864 -0.01364 0.25690
 C872 C 0.75020 -0.00699 0.25007
 C873 C 0.74175 -0.01363 0.24329
 C874 C 0.74168 -0.02616 0.24343
 C875 C 0.75020 0.00661 0.25005
 C876 C 0.74206 0.01325 0.24287
 C877 C 0.74191 0.02579 0.24307
 C878 C 0.75018 0.03194 0.25003
 C879 C 0.75845 0.02578 0.25701
 C880 C 0.75832 0.01324 0.25722
 H881 H 0.75014 -0.04204 0.25020
 H882 H 0.76546 -0.00941 0.26220
 H883 H 0.73495 -0.00939 0.23794
 H884 H 0.73560 0.00903 0.23714
 H885 H 0.75017 0.04165 0.25004
 H886 H 0.76477 0.00901 0.26297
 C887 C 0.75014 0.46768 0.75006
 C888 C 0.75851 0.47382 0.75691
 C889 C 0.75843 0.48636 0.75705
 C890 C 0.75016 0.49302 0.75003
 C891 C 0.74189 0.48639 0.74302
 C892 C 0.74177 0.47385 0.74320
 C893 C 0.75016 0.50662 0.75004
 C894 C 0.74184 0.51328 0.74308
 C895 C 0.74172 0.52581 0.74326
 C896 C 0.75010 0.53197 0.75009
 C897 C 0.75851 0.52580 0.75690
 C898 C 0.75846 0.51326 0.75702
 H899 H 0.75012 0.45797 0.75008
 H900 H 0.76505 0.49057 0.76261
 H901 H 0.73527 0.49063 0.73746
 H902 H 0.73519 0.50907 0.73757
 H903 H 0.75007 0.54167 0.75012
 H904 H 0.76512 0.50903 0.76253
 C905 C 0.24997 0.46770 0.24990
 C906 C 0.25836 0.47385 0.25673
 C907 C 0.25827 0.48639 0.25687
 C908 C 0.24997 0.49304 0.24988
 C909 C 0.24167 0.48641 0.24291
 C910 C 0.24159 0.47387 0.24307
 C911 C 0.24996 0.50665 0.24987
 C912 C 0.24167 0.51330 0.24286
 C913 C 0.24158 0.52584 0.24301
 C914 C 0.24996 0.53199 0.24984
 C915 C 0.25833 0.52582 0.25670
 C916 C 0.25823 0.51328 0.25687
 H917 H 0.24997 0.45800 0.24991
 H918 H 0.26493 0.49061 0.26238
 H919 H 0.23501 0.49064 0.23740
 H920 H 0.23505 0.50908 0.23732
 H921 H 0.24996 0.54169 0.24984
 H922 H 0.26485 0.50905 0.26244
 C923 C 0.74892 1.03197 0.74890
 C924 C 0.75810 1.02581 0.74309
 C925 C 0.75847 1.01329 0.74357
 C926 C 0.74950 1.00673 0.74969
 C927 C 0.74023 1.01327 0.75540
 C928 C 0.74005 1.02581 0.75514
 C929 C 0.75006 0.99326 0.75040
 C930 C 0.74367 0.98691 0.75932
 C931 C 0.74453 0.97443 0.76023
 C932 C 0.75217 0.96819 0.75259
 C933 C 0.75854 0.97413 0.74368
 C934 C 0.75718 0.98654 0.74234
 H935 H 0.74877 1.04167 0.74868
 H936 H 0.76604 1.00890 0.73944
 H937 H 0.73298 1.00883 0.75998
 H938 H 0.73818 0.99146 0.76582
 H939 H 0.75287 0.95853 0.75333
 H940 H 0.76185 0.99077 0.73503
 C941 C 0.74996 0.53192 0.25023
 C942 C 0.75894 0.52574 0.24413
 C943 C 0.75901 0.51320 0.24420
 C944 C 0.74994 0.50668 0.25019
 C945 C 0.74087 0.51322 0.25620
 C946 C 0.74095 0.52576 0.25630
 C947 C 0.74992 0.49321 0.25015
 C948 C 0.74375 0.48667 0.25907
 C949 C 0.74365 0.47413 0.25895
 C950 C 0.74987 0.46798 0.25007
 C951 C 0.75611 0.47415 0.24122
 C952 C 0.75605 0.48669 0.24118
 H953 H 0.74996 0.54162 0.25023
 H954 H 0.76635 0.50870 0.23977
 H955 H 0.73352 0.50874 0.26061
 H956 H 0.73922 0.49115 0.26633
 H957 H 0.74985 0.45828 0.25004
 H958 H 0.76060 0.49119 0.23395
 C959 C 0.25023 -0.03245 0.75010
 C960 C 0.25875 -0.02630 0.75676
 C961 C 0.25873 -0.01376 0.75684
 C962 C 0.25025 -0.00711 0.75007
 C963 C 0.24176 -0.01374 0.74332
 C964 C 0.24172 -0.02627 0.74342
 C965 C 0.25026 0.00649 0.75005
 C966 C 0.24210 0.01314 0.74290
 C967 C 0.24195 0.02567 0.74311
 C968 C 0.25025 0.03183 0.75004
 C969 C 0.25854 0.02566 0.75699
 C970 C 0.25841 0.01312 0.75720
 H971 H 0.25022 -0.04216 0.75011
 H972 H 0.26557 -0.00955 0.76212
 H973 H 0.23493 -0.00950 0.73803
 H974 H 0.23562 0.00892 0.73719
 H975 H 0.25024 0.04153 0.75004
 H976 H 0.26487 0.00888 0.76293
 C977 C 0.25002 0.24989 1.03185
 C978 C 0.24383 0.25881 1.02570
 C979 C 0.24386 0.25885 1.01320
 C980 C 0.24992 0.24981 1.00670
 C981 C 0.25602 0.24080 1.01321
 C982 C 0.25616 0.24092 1.02571
 C983 C 0.24990 0.24980 0.99328
 C984 C 0.25893 0.24372 0.98677
 C985 C 0.25886 0.24366 0.97428
 C986 C 0.24993 0.24984 0.96813
 C987 C 0.24098 0.25602 0.97428
 C988 C 0.24088 0.25591 0.98678
 H989 H 0.25007 0.24993 1.04152
 H990 H 0.23936 0.26614 1.00873
 H991 H 0.26049 0.23348 1.00874
 H992 H 0.26624 0.23922 0.99124
 H993 H 0.24995 0.24986 0.95846
 H994 H 0.23357 0.26041 0.99125
 C995 C 0.24789 0.74749 0.53175
 C996 C 0.24163 0.75650 0.52579
 C997 C 0.24303 0.75782 0.51343
 C998 C 0.25008 0.74964 0.50676
 C999 C 0.25638 0.74064 0.51312
 C1000 C 0.25548 0.73975 0.52556
 C1001 C 0.25063 0.75036 0.49333
 C1002 C 0.25981 0.74449 0.48681
 C1003 C 0.25999 0.74477 0.47431
 C1004 C 0.25122 0.75118 0.46817
 C1005 C 0.24213 0.75714 0.47430
 C1006 C 0.24174 0.75664 0.48678
 H1007 H 0.24715 0.74677 0.54137
 H1008 H 0.23845 0.76520 0.50920
 H1009 H 0.26183 0.73407 0.50860
 H1010 H 0.26699 0.73977 0.49124
 H1011 H 0.25137 0.75141 0.45850
 H1012 H 0.23424 0.76089 0.49115
 C1013 C 0.25392 0.74648 -0.03172
 C1014 C 0.26080 0.75492 -0.02569
 C1015 C 0.25935 0.75637 -0.01335
 C1016 C 0.25098 0.74941 -0.00680
 C1017 C 0.24376 0.74130 -0.01339
 C1018 C 0.24529 0.73978 -0.02572
 C1019 C 0.24965 0.75072 0.00664
 C1020 C 0.24153 0.74349 0.01324
 C1021 C 0.23996 0.74503 0.02556
 C1022 C 0.24664 0.75366 0.03156
 C1023 C 0.25509 0.76055 0.02553
 C1024 C 0.25659 0.75910 0.01319
 H1025 H 0.25485 0.74555 -0.04131
 H1026 H 0.26493 0.76301 -0.00920
 H1027 H 0.23684 0.73602 -0.00928
 H1028 H 0.23627 0.73657 0.00912
 H1029 H 0.24568 0.75460 0.04114
 H1030 H 0.26323 0.76469 0.00904
 C1031 C 0.24862 0.25130 0.46819
 C1032 C 0.25684 0.25838 0.47428
 C1033 C 0.25781 0.25744 0.48671
 C1034 C 0.25035 0.24955 0.49332
 C1035 C 0.24241 0.24215 0.48671
 C1036 C 0.24150 0.24311 0.47428
 C1037 C 0.25035 0.24956 0.50688
 C1038 C 0.24247 0.24208 0.51350
 C1039 C 0.24152 0.24304 0.52593
 C1040 C 0.24859 0.25128 0.53202
 C1041 C 0.25675 0.25843 0.52592
 C1042 C 0.25772 0.25752 0.51349
 H1043 H 0.24797 0.25196 0.45856
 H1044 H 0.26427 0.26320 0.49090
 H1045 H 0.23659 0.23574 0.49091
 H1046 H 0.23673 0.23561 0.50931
 H1047 H 0.24793 0.25193 0.54165
 H1048 H 0.26411 0.26337 0.50929
 C1049 C 0.74875 0.74859 1.03190
 C1050 C 0.74171 0.75688 1.02582
 C1051 C 0.74264 0.75784 1.01339
 C1052 C 0.75038 0.75023 1.00675
 C1053 C 0.75769 0.74216 1.01334
 C1054 C 0.75683 0.74133 1.02579
 C1055 C 0.75036 0.75026 0.99319
 C1056 C 0.75798 0.74252 0.98654
 C1057 C 0.75702 0.74161 0.97411
 C1058 C 0.74873 0.74867 0.96804
 C1059 C 0.74148 0.75674 0.97416
 C1060 C 0.74230 0.75758 0.98661
 H1061 H 0.74814 0.74798 1.04154
 H1062 H 0.73699 0.76443 1.00922
 H1063 H 0.76393 0.73616 1.00911
 H1064 H 0.76456 0.73687 0.99072
 H1065 H 0.74812 0.74808 0.95840
 H1066 H 0.73630 0.76382 0.99083
 C1067 C 0.74995 0.24982 0.53176
 C1068 C 0.74098 0.25596 0.52561
 C1069 C 0.74089 0.25585 0.51311
 C1070 C 0.74993 0.24977 0.50661
 C1071 C 0.75897 0.24371 0.51311
 C1072 C 0.75891 0.24365 0.52561
 C1073 C 0.74993 0.24979 0.49319
 C1074 C 0.75598 0.24075 0.48667
 C1075 C 0.75609 0.24086 0.47417
 C1076 C 0.74996 0.24983 0.46803
 C1077 C 0.74383 0.25880 0.47419
 C1078 C 0.74389 0.25885 0.48669
 H1079 H 0.74996 0.24985 0.54143
 H1080 H 0.73357 0.26031 0.50864
 H1081 H 0.76629 0.23923 0.50863
 H1082 H 0.76045 0.23343 0.49114
 H1083 H 0.74998 0.24986 0.45836
 H1084 H 0.73944 0.26616 0.49118
 C1085 C 0.74861 0.25150 -0.03194
 C1086 C 0.75677 0.25865 -0.02584
 C1087 C 0.75774 0.25773 -0.01341
 C1088 C 0.75037 0.24974 -0.00680
 C1089 C 0.74252 0.24226 -0.01342
 C1090 C 0.74156 0.24324 -0.02585
 C1091 C 0.75038 0.24972 0.00675
 C1092 C 0.74247 0.24228 0.01336
 C1093 C 0.74156 0.24321 0.02579
 C1094 C 0.74867 0.25141 0.03189
 C1095 C 0.75685 0.25854 0.02580
 C1096 C 0.75782 0.25763 0.01337
 H1097 H 0.74795 0.25217 -0.04156
 H1098 H 0.76411 0.26357 -0.00921
 H1099 H 0.73679 0.23576 -0.00923
 H1100 H 0.73666 0.23588 0.00916
 H1101 H 0.74802 0.25205 0.04152
 H1102 H 0.76425 0.26342 0.00917
 C1103 C 0.75358 0.74652 0.46844
 C1104 C 0.76031 0.75510 0.47445
 C1105 C 0.75880 0.75661 0.48678
 C1106 C 0.75063 0.74944 0.49337
 C1107 C 0.74360 0.74113 0.48681
 C1108 C 0.74509 0.73968 0.47447
 C1109 C 0.74932 0.75073 0.50681
 C1110 C 0.74103 0.74369 0.51338
 C1111 C 0.73958 0.74515 0.52572
 C1112 C 0.74641 0.75364 0.53174
 C1113 C 0.75498 0.76040 0.52572
 C1114 C 0.75649 0.75890 0.51339
 H1115 H 0.75452 0.74560 0.45886
 H1116 H 0.76414 0.76346 0.49090
 H1117 H 0.73689 0.73562 0.49095
 H1118 H 0.73552 0.73699 0.50924
 H1119 H 0.74549 0.75456 0.54133
 H1120 H 0.76333 0.76426 0.50926
 C1121 C 1.03210 0.24892 0.24892
 C1122 C 1.02590 0.24004 0.25510
 C1123 C 1.01333 0.24022 0.25533
 C1124 C 1.00681 0.24951 0.24967
 C1125 C 1.01339 0.25849 0.24362
 C1126 C 1.02594 0.25811 0.24316
 C1127 C 0.99332 0.25008 0.25038
 C1128 C 0.98662 0.25721 0.24232
 C1129 C 0.97420 0.25860 0.24367
 C1130 C 0.96821 0.25225 0.25258
 C1131 C 0.97445 0.24460 0.26020
 C1132 C 0.98695 0.24371 0.25928
 H1133 H 1.04182 0.24877 0.24873
 H1134 H 1.00886 0.23296 0.25986
 H1135 H 1.00901 0.26607 0.23954
 H1136 H 0.99087 0.26186 0.23502
 H1137 H 0.95854 0.25298 0.25332
 H1138 H 0.99150 0.23821 0.26577
 C1139 C 0.53205 0.24872 0.74891
 C1140 C 0.52587 0.23989 0.75518
 C1141 C 0.51330 0.24009 0.75544
 C1142 C 0.50676 0.24934 0.74971
 C1143 C 0.51335 0.25827 0.74358
 C1144 C 0.52590 0.25787 0.74309
 C1145 C 0.49325 0.24991 0.75041
 C1146 C 0.48655 0.25705 0.74235
 C1147 C 0.47412 0.25842 0.74367
 C1148 C 0.46813 0.25206 0.75256
 C1149 C 0.47435 0.24442 0.76020
 C1150 C 0.48686 0.24353 0.75930
 H1151 H 0.54177 0.24856 0.74870
 H1152 H 0.50884 0.23288 0.76005
 H1153 H 0.50897 0.26582 0.73944
 H1154 H 0.49081 0.26171 0.73506
 H1155 H 0.45846 0.25278 0.75328
 H1156 H 0.49140 0.23802 0.76579
 C1157 C -0.03204 0.25215 0.74741
 C1158 C -0.02607 0.25855 0.75627
 C1159 C -0.01365 0.25718 0.75764
 C1160 C -0.00692 0.25001 0.74964
 C1161 C -0.01328 0.24357 0.74077
 C1162 C -0.02579 0.24446 0.73983
 C1163 C 0.00658 0.24946 0.75039
 C1164 C 0.01314 0.24023 0.74465
 C1165 C 0.02570 0.24004 0.74494
 C1166 C 0.03188 0.24883 0.75125
 C1167 C 0.02570 0.25797 0.75709
 C1168 C 0.01316 0.25837 0.75657
 H1169 H -0.04171 0.25288 0.74667
 H1170 H -0.00943 0.26188 0.76491
 H1171 H -0.00873 0.23804 0.73431
 H1172 H 0.00871 0.23303 0.74002
 H1173 H 0.04160 0.24867 0.75148
 H1174 H 0.00877 0.26590 0.76073
 C1175 C 0.46819 0.25201 0.24744
 C1176 C 0.47417 0.25839 0.25629
 C1177 C 0.48658 0.25701 0.25766
 C1178 C 0.49330 0.24983 0.24965
 C1179 C 0.48692 0.24339 0.24079
 C1180 C 0.47442 0.24429 0.23986
 C1181 C 0.50680 0.24929 0.25038
 C1182 C 0.51336 0.24004 0.24468
 C1183 C 0.52593 0.23986 0.24494
 C1184 C 0.53210 0.24869 0.25120
 C1185 C 0.52593 0.25785 0.25700
 C1186 C 0.51338 0.25824 0.25650
 H1187 H 0.45852 0.25274 0.24670
 H1188 H 0.49082 0.26170 0.26493
 H1189 H 0.49147 0.23784 0.23434
 H1190 H 0.50892 0.23281 0.24009
 H1191 H 0.54182 0.24854 0.25142
 H1192 H 0.50898 0.26579 0.26061
 C1193 C 1.03203 0.74905 0.74885
 C1194 C 1.02583 0.74019 0.75505
 C1195 C 1.01326 0.74038 0.75528
 C1196 C 1.00674 0.74967 0.74960
 C1197 C 1.01334 0.75863 0.74352
 C1198 C 1.02589 0.75824 0.74306
 C1199 C 0.99325 0.75026 0.75032
 C1200 C 0.98654 0.75740 0.74227
 C1201 C 0.97412 0.75879 0.74363
 C1202 C 0.96814 0.75243 0.75253
 C1203 C 0.97438 0.74477 0.76014
 C1204 C 0.98688 0.74388 0.75922
 H1205 H 1.04175 0.74889 0.74866
 H1206 H 1.00879 0.73314 0.75981
 H1207 H 1.00897 0.76620 0.73941
 H1208 H 0.99079 0.76206 0.73498
 H1209 H 0.95847 0.75315 0.75328
 H1210 H 0.99143 0.73838 0.76571
 C1211 C 0.53207 0.74895 0.24897
 C1212 C 0.52587 0.74008 0.25517
 C1213 C 0.51331 0.74026 0.25541
 C1214 C 0.50678 0.74953 0.24973
 C1215 C 0.51336 0.75850 0.24365
 C1216 C 0.52591 0.75813 0.24319
 C1217 C 0.49329 0.75008 0.25043
 C1218 C 0.48659 0.75716 0.24233
 C1219 C 0.47417 0.75854 0.24366
 C1220 C 0.46817 0.75222 0.25257
 C1221 C 0.47441 0.74461 0.26024
 C1222 C 0.48691 0.74374 0.25935
 H1223 H 0.54179 0.74880 0.24877
 H1224 H 0.50884 0.73301 0.25995
 H1225 H 0.50897 0.76606 0.23955
 H1226 H 0.49085 0.76179 0.23502
 H1227 H 0.45850 0.75293 0.25330
 H1228 H 0.49147 0.73828 0.26587
 C1229 C -0.03194 0.75237 0.24754
 C1230 C -0.02596 0.75876 0.25640
 C1231 C -0.01353 0.75739 0.25774
 C1232 C -0.00681 0.75020 0.24972
 C1233 C -0.01319 0.74380 0.24085
 C1234 C -0.02570 0.74468 0.23994
 C1235 C 0.00669 0.74961 0.25045
 C1236 C 0.01323 0.74037 0.24468
 C1237 C 0.02580 0.74015 0.24493
 C1238 C 0.03199 0.74894 0.25123
 C1239 C 0.02585 0.75807 0.25710
 C1240 C 0.01330 0.75849 0.25663
 H1241 H -0.04161 0.75308 0.24681
 H1242 H -0.00929 0.76207 0.26501
 H1243 H -0.00866 0.73827 0.23439
 H1244 H 0.00877 0.73318 0.24006
 H1245 H 0.04172 0.74877 0.25142
 H1246 H 0.00893 0.76602 0.26080
 C1247 C 0.46798 0.75250 0.74765
 C1248 C 0.47394 0.75883 0.75657
 C1249 C 0.48636 0.75742 0.75795
 C1250 C 0.49309 0.75028 0.74990
 C1251 C 0.48673 0.74393 0.74098
 C1252 C 0.47424 0.74484 0.74004
 C1253 C 0.50658 0.74969 0.75062
 C1254 C 0.51312 0.74043 0.74490
 C1255 C 0.52569 0.74024 0.74513
 C1256 C 0.53188 0.74908 0.75137
 C1257 C 0.52572 0.75824 0.75719
 C1258 C 0.51318 0.75862 0.75673
 H1259 H 0.45832 0.75324 0.74689
 H1260 H 0.49060 0.76206 0.76525
 H1261 H 0.49129 0.73844 0.73450
 H1262 H 0.50866 0.73320 0.74033
 H1263 H 0.54160 0.74893 0.75156
 H1264 H 0.50879 0.76617 0.76087
 C1265 C 0.39598 0.31192 0.29758
 C1266 C 0.40154 0.30219 0.30315
 C1267 C 0.39591 0.29655 0.31277
 C1268 C 0.38479 0.30063 0.31682
 C1269 C 0.37910 0.31043 0.31130
 C1270 C 0.38486 0.31602 0.30161
 C1271 C 0.41278 0.29771 0.29870
 C1272 C 0.42201 0.29382 0.29468
 C1273 C 0.43250 0.28906 0.28951
 C1274 C 0.44109 0.28478 0.28458
 C1275 C 0.45075 0.27939 0.27798
 C1276 C 0.45839 0.27102 0.28336
 C1277 C 0.46664 0.26461 0.27641
 C1278 C 0.46715 0.26646 0.26404
 C1279 C 0.45981 0.27522 0.25881
 C1280 C 0.45169 0.28167 0.26575
 H1281 H 0.40023 0.31629 0.29006
 H1282 H 0.40009 0.28895 0.31710
 H1283 H 0.38071 0.29605 0.32428
 H1284 H 0.38081 0.32354 0.29707
 H1285 H 0.45765 0.26911 0.29280
 H1286 H 0.47213 0.25778 0.28056
 H1287 H 0.46009 0.27676 0.24928
 H1288 H 0.44579 0.28808 0.26149
 C1289 C 0.39563 0.81228 0.79792
 C1290 C 0.40121 0.80261 0.80355
 C1291 C 0.39564 0.79708 0.81325
 C1292 C 0.38453 0.80120 0.81733
 C1293 C 0.37875 0.81097 0.81175
 C1294 C 0.38452 0.81643 0.80195
 C1295 C 0.41244 0.79809 0.79907
 C1296 C 0.42166 0.79418 0.79502
 C1297 C 0.43215 0.78940 0.78982
 C1298 C 0.44075 0.78512 0.78488
 C1299 C 0.45042 0.77975 0.77828
 C1300 C 0.45810 0.77139 0.78365
 C1301 C 0.46637 0.76502 0.77670
 C1302 C 0.46689 0.76687 0.76433
 C1303 C 0.45953 0.77563 0.75912
 C1304 C 0.45137 0.78204 0.76605
 H1305 H 0.39984 0.81658 0.79034
 H1306 H 0.39984 0.78952 0.81763
 H1307 H 0.38055 0.79662 0.82484
 H1308 H 0.38055 0.82392 0.79730
 H1309 H 0.45736 0.76948 0.79309
 H1310 H 0.47189 0.75821 0.78085
 H1311 H 0.45982 0.77719 0.74958
 H1312 H 0.44547 0.78845 0.76179
 C1313 C -0.10427 0.29691 0.81257
 C1314 C -0.09865 0.30258 0.80296
 C1315 C -0.10421 0.31233 0.79742
 C1316 C -0.11533 0.31642 0.80148
 C1317 C -0.12108 0.31081 0.81117
 C1318 C -0.11539 0.30098 0.81665
 C1319 C -0.08741 0.29812 0.79851
 C1320 C -0.07817 0.29423 0.79450
 C1321 C -0.06767 0.28945 0.78935
 C1322 C -0.05909 0.28513 0.78444
 C1323 C -0.04945 0.27969 0.77786
 C1324 C -0.04853 0.28189 0.76562
 C1325 C -0.04043 0.27538 0.75871
 C1326 C -0.03309 0.26665 0.76398
 C1327 C -0.03357 0.26489 0.77637
 C1328 C -0.04179 0.27135 0.78329
 H1329 H -0.10009 0.28929 0.81686
 H1330 H -0.09998 0.31672 0.78991
 H1331 H -0.11938 0.32395 0.79696
 H1332 H -0.11947 0.29638 0.82408
 H1333 H -0.05443 0.28828 0.76133
 H1334 H -0.04017 0.27686 0.74916
 H1335 H -0.02807 0.25809 0.78055
 H1336 H -0.04251 0.26952 0.79274
 C1337 C -0.10432 0.79684 0.31310
 C1338 C -0.09867 0.80247 0.30349
 C1339 C -0.10419 0.81224 0.29795
 C1340 C -0.11531 0.81637 0.30198
 C1341 C -0.12111 0.81078 0.31165
 C1342 C -0.11545 0.80095 0.31716
 C1343 C -0.08745 0.79795 0.29900
 C1344 C -0.07824 0.79404 0.29494
 C1345 C -0.06776 0.78927 0.28971
 C1346 C -0.05918 0.78500 0.28475
 C1347 C -0.04951 0.77963 0.27812
 C1348 C -0.04864 0.78187 0.26588
 C1349 C -0.04047 0.77548 0.25893
 C1350 C -0.03302 0.76680 0.26415
 C1351 C -0.03347 0.76500 0.27654
 C1352 C -0.04176 0.77136 0.28349
 H1353 H -0.10017 0.78922 0.31742
 H1354 H -0.09994 0.81662 0.29044
 H1355 H -0.11932 0.82393 0.29747
 H1356 H -0.11957 0.79636 0.32458
 H1357 H -0.05461 0.78822 0.26161
 H1358 H -0.04024 0.77699 0.24939
 H1359 H -0.02789 0.75825 0.28069
 H1360 H -0.04243 0.76948 0.29295
 C1361 C 0.60470 0.68688 0.29641
 C1362 C 0.59883 0.69660 0.30167
 C1363 C 0.60405 0.70244 0.31138
 C1364 C 0.61512 0.69857 0.31584
 C1365 C 0.62112 0.68879 0.31061
 C1366 C 0.61574 0.68300 0.30083
 C1367 C 0.58765 0.70076 0.29678
 C1368 C 0.57845 0.70430 0.29236
 C1369 C 0.56797 0.70863 0.28679
 C1370 C 0.55935 0.71260 0.28165
 C1371 C 0.54959 0.71783 0.27507
 C1372 C 0.54058 0.72426 0.28098
 C1373 C 0.53217 0.73083 0.27441
 C1374 C 0.53283 0.73112 0.26191
 C1375 C 0.54153 0.72419 0.25604
 C1376 C 0.54983 0.71754 0.26260
 H1377 H 0.60076 0.68233 0.28884
 H1378 H 0.59962 0.71003 0.31548
 H1379 H 0.61893 0.70330 0.32333
 H1380 H 0.62000 0.67547 0.29652
 H1381 H 0.54039 0.72465 0.29063
 H1382 H 0.52566 0.73629 0.27909
 H1383 H 0.54220 0.72438 0.24641
 H1384 H 0.55678 0.71264 0.25794
 C1385 C 0.60505 0.18722 0.79638
 C1386 C 0.59920 0.19689 0.80173
 C1387 C 0.60442 0.20259 0.81155
 C1388 C 0.61544 0.19860 0.81601
 C1389 C 0.62142 0.18884 0.81069
 C1390 C 0.61605 0.18322 0.80080
 C1391 C 0.58802 0.20112 0.79687
 C1392 C 0.57881 0.20465 0.79245
 C1393 C 0.56830 0.20891 0.78687
 C1394 C 0.55963 0.21280 0.78174
 C1395 C 0.54980 0.21792 0.77516
 C1396 C 0.54079 0.22436 0.78105
 C1397 C 0.53230 0.23082 0.77447
 C1398 C 0.53286 0.23098 0.76197
 C1399 C 0.54155 0.22403 0.75612
 C1400 C 0.54994 0.21750 0.76268
 H1401 H 0.60114 0.18279 0.78873
 H1402 H 0.60000 0.21014 0.81573
 H1403 H 0.61923 0.20318 0.82361
 H1404 H 0.62030 0.17574 0.79639
 H1405 H 0.54066 0.22485 0.79070
 H1406 H 0.52580 0.23631 0.77914
 H1407 H 0.54216 0.22412 0.74648
 H1408 H 0.55688 0.21257 0.75802
 C1409 C 1.10491 0.68721 0.79601
 C1410 C 1.09905 0.69691 0.80132
 C1411 C 1.10426 0.70267 0.81109
 C1412 C 1.11527 0.69870 0.81559
 C1413 C 1.12123 0.68889 0.81036
 C1414 C 1.11590 0.68323 0.80047
 C1415 C 1.08785 0.70110 0.79648
 C1416 C 1.07863 0.70464 0.79211
 C1417 C 1.06811 0.70893 0.78659
 C1418 C 1.05944 0.71285 0.78149
 C1419 C 1.04962 0.71801 0.77493
 C1420 C 1.04058 0.72440 0.78085
 C1421 C 1.03214 0.73093 0.77429
 C1422 C 1.03279 0.73122 0.76179
 C1423 C 1.04150 0.72433 0.75591
 C1424 C 1.04984 0.71772 0.76246
 H1425 H 1.10099 0.68274 0.78838
 H1426 H 1.09984 0.71024 0.81523
 H1427 H 1.11904 0.70333 0.82317
 H1428 H 1.12016 0.67572 0.79612
 H1429 H 1.04040 0.72479 0.79050
 H1430 H 1.02560 0.73636 0.77896
 H1431 H 1.04217 0.72451 0.74628
 H1432 H 1.05682 0.71284 0.75780
 C1433 C 1.10478 0.18729 0.29659
 C1434 C 1.09906 0.19712 0.30180
 C1435 C 1.10440 0.20296 0.31146
 C1436 C 1.11540 0.19894 0.31594
 C1437 C 1.12122 0.18900 0.31080
 C1438 C 1.11576 0.18327 0.30103
 C1439 C 1.08789 0.20134 0.29694
 C1440 C 1.07868 0.20484 0.29251
 C1441 C 1.06817 0.20906 0.28690
 C1442 C 1.05952 0.21292 0.28174
 C1443 C 1.04970 0.21800 0.27512
 C1444 C 1.04065 0.22441 0.28099
 C1445 C 1.03220 0.23089 0.27438
 C1446 C 1.03286 0.23110 0.26188
 C1447 C 1.04158 0.22418 0.25606
 C1448 C 1.04993 0.21762 0.26265
 H1449 H 1.10077 0.18275 0.28906
 H1450 H 1.10007 0.21063 0.31552
 H1451 H 1.11928 0.20364 0.32342
 H1452 H 1.11990 0.17565 0.29675
 H1453 H 1.04046 0.22486 0.29063
 H1454 H 1.02566 0.23635 0.27902
 H1455 H 1.04225 0.22430 0.24642
 H1456 H 1.05690 0.21271 0.25802
 C1457 C 0.60422 0.29730 0.68878
 C1458 C 0.59886 0.30313 0.69845
 C1459 C 0.60456 0.31294 0.70368
 C1460 C 0.61555 0.31695 0.69925
 C1461 C 0.62104 0.31120 0.68949
 C1462 C 0.61522 0.30130 0.68432
 C1463 C 0.58769 0.29886 0.70325
 C1464 C 0.57848 0.29517 0.70749
 C1465 C 0.56795 0.29061 0.71279
 C1466 C 0.55931 0.28639 0.71768
 C1467 C 0.54955 0.28084 0.72399
 C1468 C 0.54964 0.28079 0.73647
 C1469 C 0.54138 0.27384 0.74274
 C1470 C 0.53288 0.26696 0.73659
 C1471 C 0.53237 0.26756 0.72410
 C1472 C 0.54074 0.27443 0.71781
 H1473 H 0.59993 0.28964 0.68472
 H1474 H 0.60054 0.31746 0.71124
 H1475 H 0.61969 0.32455 0.70352
 H1476 H 0.61910 0.29660 0.67683
 H1477 H 0.55644 0.28567 0.74134
 H1478 H 0.54193 0.27342 0.75237
 H1479 H 0.52598 0.26215 0.71922
 H1480 H 0.54066 0.27432 0.70815
 C1481 C 0.60475 0.81271 0.20378
 C1482 C 0.59889 0.80310 0.19838
 C1483 C 0.60413 0.79741 0.18855
 C1484 C 0.61516 0.80137 0.18412
 C1485 C 0.62113 0.81107 0.18947
 C1486 C 0.61576 0.81668 0.19939
 C1487 C 0.58770 0.79887 0.20317
 C1488 C 0.57849 0.79525 0.20746
 C1489 C 0.56796 0.79078 0.21283
 C1490 C 0.55931 0.78663 0.21776
 C1491 C 0.54954 0.78113 0.22410
 C1492 C 0.54069 0.77477 0.21793
 C1493 C 0.53233 0.76789 0.22422
 C1494 C 0.53288 0.76724 0.23671
 C1495 C 0.54141 0.77409 0.24285
 C1496 C 0.54967 0.78104 0.23658
 H1497 H 0.60082 0.81713 0.21146
 H1498 H 0.59972 0.78989 0.18434
 H1499 H 0.61895 0.79679 0.17650
 H1500 H 0.62001 0.82413 0.20382
 H1501 H 0.54059 0.77469 0.20827
 H1502 H 0.52592 0.76252 0.21935
 H1503 H 0.54198 0.77363 0.25248
 H1504 H 0.55649 0.78589 0.24144
 C1505 C 1.10395 0.29752 0.18867
 C1506 C 1.09866 0.30339 0.19835
 C1507 C 1.10445 0.31314 0.20358
 C1508 C 1.11546 0.31706 0.19913
 C1509 C 1.12089 0.31127 0.18936
 C1510 C 1.11498 0.30142 0.18419
 C1511 C 1.08748 0.29920 0.20320
 C1512 C 1.07829 0.29559 0.20753
 C1513 C 1.06780 0.29110 0.21293
 C1514 C 1.05918 0.28690 0.21787
 C1515 C 1.04945 0.28133 0.22418
 C1516 C 1.04957 0.28118 0.23666
 C1517 C 1.04137 0.27414 0.24290
 C1518 C 1.03290 0.26726 0.23672
 C1519 C 1.03235 0.26794 0.22424
 C1520 C 1.04066 0.27491 0.21798
 H1521 H 1.09958 0.28989 0.18460
 H1522 H 1.10047 0.31770 0.21114
 H1523 H 1.11965 0.32463 0.20342
 H1524 H 1.11882 0.29670 0.17669
 H1525 H 1.05636 0.28607 0.24155
 H1526 H 1.04193 0.27365 0.25253
 H1527 H 1.02599 0.26254 0.21933
 H1528 H 1.04057 0.27487 0.20832
 C1529 C 1.10486 0.81271 0.70367
 C1530 C 1.09897 0.80309 0.69829
 C1531 C 1.10418 0.79738 0.68847
 C1532 C 1.11521 0.80130 0.68401
 C1533 C 1.12121 0.81101 0.68932
 C1534 C 1.11587 0.81664 0.69924
 C1535 C 1.08775 0.79893 0.70309
 C1536 C 1.07852 0.79534 0.70737
 C1537 C 1.06798 0.79089 0.71274
 C1538 C 1.05933 0.78674 0.71767
 C1539 C 1.04956 0.78124 0.72400
 C1540 C 1.04068 0.77491 0.71782
 C1541 C 1.03232 0.76802 0.72411
 C1542 C 1.03288 0.76735 0.73659
 C1543 C 1.04143 0.77416 0.74274
 C1544 C 1.04969 0.78111 0.73648
 H1545 H 1.10095 0.81715 0.71134
 H1546 H 1.09974 0.78986 0.68429
 H1547 H 1.11899 0.79669 0.67640
 H1548 H 1.12015 0.82408 0.70367
 H1549 H 1.04057 0.77485 0.70816
 H1550 H 1.02590 0.76267 0.71923
 H1551 H 1.04202 0.77368 0.75237
 H1552 H 1.05653 0.78594 0.74134
 C1553 C 0.39582 0.70306 0.68791
 C1554 C 0.40148 0.69740 0.69750
 C1555 C 0.39603 0.68757 0.70298
 C1556 C 0.38495 0.68340 0.69886
 C1557 C 0.37917 0.68903 0.68920
 C1558 C 0.38477 0.69892 0.68379
 C1559 C 0.41270 0.70198 0.70186
 C1560 C 0.42193 0.70621 0.70550
 C1561 C 0.43245 0.71167 0.70986
 C1562 C 0.44107 0.71682 0.71378
 C1563 C 0.45079 0.72358 0.71882
 C1564 C 0.45933 0.71801 0.72613
 C1565 C 0.46765 0.72494 0.73241
 C1566 C 0.46738 0.73747 0.73153
 C1567 C 0.45917 0.74293 0.72376
 C1568 C 0.45096 0.73601 0.71740
 H1569 H 0.39992 0.71073 0.68365
 H1570 H 0.40030 0.68317 0.71047
 H1571 H 0.38097 0.67580 0.70332
 H1572 H 0.38067 0.70355 0.67638
 H1573 H 0.45920 0.70841 0.72739
 H1574 H 0.47378 0.72058 0.73852
 H1575 H 0.45880 0.75258 0.72301
 H1576 H 0.44438 0.74041 0.71181
 C1577 C 0.39596 0.18701 0.20275
 C1578 C 0.40150 0.19682 0.19730
 C1579 C 0.39592 0.20249 0.18768
 C1580 C 0.38488 0.19840 0.18348
 C1581 C 0.37920 0.18852 0.18885
 C1582 C 0.38490 0.18288 0.19856
 C1583 C 0.41269 0.20138 0.20178
 C1584 C 0.42189 0.20561 0.20551
 C1585 C 0.43239 0.21108 0.20993
 C1586 C 0.44101 0.21623 0.21387
 C1587 C 0.45076 0.22298 0.21889
 C1588 C 0.45094 0.23541 0.21744
 C1589 C 0.45923 0.24233 0.22369
 C1590 C 0.46750 0.23688 0.23142
 C1591 C 0.46774 0.22435 0.23235
 C1592 C 0.45934 0.21743 0.22615
 H1593 H 0.40016 0.18258 0.21026
 H1594 H 0.40008 0.21015 0.18344
 H1595 H 0.38083 0.20306 0.17606
 H1596 H 0.38087 0.17526 0.20294
 H1597 H 0.44432 0.23981 0.21188
 H1598 H 0.45887 0.25198 0.22291
 H1599 H 0.47391 0.22001 0.23843
 H1600 H 0.45921 0.20782 0.22745
 C1601 C -0.10431 0.70284 0.18816
 C1602 C -0.09872 0.69721 0.19780
 C1603 C -0.10426 0.68746 0.20333
 C1604 C -0.11534 0.68332 0.19919
 C1605 C -0.12104 0.68890 0.18945
 C1606 C -0.11536 0.69874 0.18401
 C1607 C -0.08749 0.70175 0.20219
 C1608 C -0.07824 0.70596 0.20582
 C1609 C -0.06771 0.71141 0.21015
 C1610 C -0.05906 0.71656 0.21402
 C1611 C -0.04929 0.72332 0.21899
 C1612 C -0.04073 0.71779 0.22628
 C1613 C -0.03235 0.72473 0.23247
 C1614 C -0.03259 0.73726 0.23150
 C1615 C -0.04083 0.74269 0.22373
 C1616 C -0.04911 0.73575 0.21748
 H1617 H -0.10013 0.71045 0.18386
 H1618 H -0.10006 0.68307 0.21086
 H1619 H -0.11939 0.67577 0.20367
 H1620 H -0.11938 0.70333 0.17653
 H1621 H -0.04087 0.70819 0.22760
 H1622 H -0.02620 0.72041 0.23857
 H1623 H -0.04120 0.75234 0.22293
 H1624 H -0.05571 0.74012 0.21190
 C1625 C -0.10436 0.20269 0.68768
 C1626 C -0.09887 0.19721 0.69746
 C1627 C -0.10450 0.18758 0.70312
 C1628 C -0.11557 0.18343 0.69899
 C1629 C -0.12119 0.18888 0.68913
 C1630 C -0.11542 0.19858 0.68354
 C1631 C -0.08765 0.20178 0.70185
 C1632 C -0.07841 0.20600 0.70550
 C1633 C -0.06787 0.21143 0.70985
 C1634 C -0.05922 0.21655 0.71376
 C1635 C -0.04943 0.22326 0.71876
 C1636 C -0.04089 0.21766 0.72604
 C1637 C -0.03249 0.22455 0.73226
 C1638 C -0.03268 0.23708 0.73134
 C1639 C -0.04089 0.24257 0.72358
 C1640 C -0.04918 0.23569 0.71730
 H1641 H -0.10013 0.21021 0.68327
 H1642 H -0.10036 0.18331 0.71075
 H1643 H -0.11968 0.17598 0.70357
 H1644 H -0.11939 0.20306 0.67597
 H1645 H -0.04107 0.20806 0.72733
 H1646 H -0.02637 0.22018 0.73837
 H1647 H -0.04121 0.25222 0.72281
 H1648 H -0.05577 0.24011 0.71172
 C1649 C 0.29724 0.39557 0.31201
 C1650 C 0.30288 0.40092 0.30223
 C1651 C 0.31252 0.39515 0.29670
 C1652 C 0.31655 0.38409 0.30094
 C1653 C 0.31098 0.37862 0.31081
 C1654 C 0.30125 0.38451 0.31628
 C1655 C 0.29856 0.41214 0.29762
 C1656 C 0.29482 0.42138 0.29348
 C1657 C 0.29023 0.43190 0.28824
 C1658 C 0.28602 0.44053 0.28333
 C1659 C 0.28058 0.45025 0.27687
 C1660 C 0.28128 0.45037 0.26442
 C1661 C 0.27455 0.45859 0.25787
 C1662 C 0.26710 0.46686 0.26372
 C1663 C 0.26692 0.46717 0.27623
 C1664 C 0.27360 0.45883 0.28280
 H1665 H 0.28971 0.39992 0.31631
 H1666 H 0.31690 0.39917 0.28906
 H1667 H 0.32401 0.37989 0.29643
 H1668 H 0.29670 0.38065 0.32386
 H1669 H 0.28661 0.44375 0.25974
 H1670 H 0.27475 0.45820 0.24822
 H1671 H 0.26110 0.47338 0.28087
 H1672 H 0.27291 0.45875 0.29243
 C1673 C 0.31337 -0.10493 0.79652
 C1674 C 0.30373 -0.09911 0.80200
 C1675 C 0.29803 -0.10442 0.81175
 C1676 C 0.30196 -0.11548 0.81606
 C1677 C 0.31171 -0.12149 0.81066
 C1678 C 0.31733 -0.11600 0.80079
 C1679 C 0.29943 -0.08790 0.79734
 C1680 C 0.29566 -0.07868 0.79320
 C1681 C 0.29099 -0.06818 0.78798
 C1682 C 0.28671 -0.05957 0.78311
 C1683 C 0.28118 -0.04987 0.77670
 C1684 C 0.27420 -0.04133 0.78269
 C1685 C 0.26745 -0.03300 0.77618
 C1686 C 0.26756 -0.03329 0.76367
 C1687 C 0.27498 -0.04153 0.75776
 C1688 C 0.28178 -0.04974 0.76424
 H1689 H 0.31779 -0.10093 0.78890
 H1690 H 0.29050 -0.10003 0.81600
 H1691 H 0.29726 -0.11923 0.82360
 H1692 H 0.32481 -0.12016 0.79626
 H1693 H 0.27357 -0.04143 0.79233
 H1694 H 0.26164 -0.02682 0.78087
 H1695 H 0.27512 -0.04190 0.74810
 H1696 H 0.28710 -0.05633 0.75952
 C1697 C 0.79721 0.39541 0.81201
 C1698 C 0.80300 0.40087 0.80239
 C1699 C 0.81279 0.39521 0.79703
 C1700 C 0.81685 0.38418 0.80130
 C1701 C 0.81117 0.37856 0.81105
 C1702 C 0.80123 0.38437 0.81631
 C1703 C 0.79869 0.41210 0.79777
 C1704 C 0.79497 0.42135 0.79366
 C1705 C 0.79037 0.43189 0.78844
 C1706 C 0.78617 0.44053 0.78355
 C1707 C 0.78073 0.45025 0.77709
 C1708 C 0.78144 0.45035 0.76464
 C1709 C 0.77470 0.45856 0.75808
 C1710 C 0.76725 0.46682 0.76392
 C1711 C 0.76705 0.46715 0.77643
 C1712 C 0.77373 0.45882 0.78300
 H1713 H 0.78954 0.39967 0.81616
 H1714 H 0.81728 0.39931 0.78949
 H1715 H 0.82444 0.38016 0.79684
 H1716 H 0.79647 0.38050 0.82376
 H1717 H 0.78679 0.44374 0.75997
 H1718 H 0.77492 0.45817 0.74843
 H1719 H 0.76122 0.47336 0.78106
 H1720 H 0.77304 0.45875 0.79264
 C1721 C 0.81306 -0.10483 0.29671
 C1722 C 0.80346 -0.09898 0.30221
 C1723 C 0.79777 -0.10427 0.31198
 C1724 C 0.80168 -0.11536 0.31626
 C1725 C 0.81139 -0.12139 0.31084
 C1726 C 0.81700 -0.11592 0.30095
 C1727 C 0.79919 -0.08776 0.29757
 C1728 C 0.79545 -0.07852 0.29343
 C1729 C 0.79081 -0.06801 0.28821
 C1730 C 0.78656 -0.05940 0.28331
 C1731 C 0.78105 -0.04970 0.27688
 C1732 C 0.77410 -0.04112 0.28283
 C1733 C 0.76737 -0.03281 0.27629
 C1734 C 0.76746 -0.03315 0.26378
 C1735 C 0.77486 -0.04143 0.25790
 C1736 C 0.78165 -0.04963 0.26442
 H1737 H 0.81748 -0.10085 0.28907
 H1738 H 0.79026 -0.09986 0.31625
 H1739 H 0.79698 -0.11910 0.32382
 H1740 H 0.82444 -0.12011 0.29640
 H1741 H 0.77348 -0.04117 0.29247
 H1742 H 0.76157 -0.02659 0.28096
 H1743 H 0.77499 -0.04184 0.24825
 H1744 H 0.78695 -0.05625 0.25972
 C1745 C 0.29745 0.60407 0.68835
 C1746 C 0.30328 0.59856 0.69794
 C1747 C 0.31312 0.60416 0.70325
 C1748 C 0.31714 0.61521 0.69899
 C1749 C 0.31136 0.62085 0.68933
 C1750 C 0.30145 0.61511 0.68407
 C1751 C 0.29890 0.58737 0.70257
 C1752 C 0.29494 0.57817 0.70656
 C1753 C 0.28984 0.56769 0.71140
 C1754 C 0.28496 0.55909 0.71569
 C1755 C 0.27836 0.54941 0.72101
 C1756 C 0.28373 0.54179 0.72940
 C1757 C 0.27675 0.53349 0.73567
 C1758 C 0.26434 0.53288 0.73368
 C1759 C 0.25913 0.54018 0.72490
 C1760 C 0.26611 0.54837 0.71859
 H1761 H 0.28977 0.59986 0.68422
 H1762 H 0.31765 0.60002 0.71074
 H1763 H 0.32475 0.61928 0.70334
 H1764 H 0.29671 0.61911 0.67667
 H1765 H 0.29319 0.54259 0.73140
 H1766 H 0.28089 0.52802 0.74250
 H1767 H 0.24957 0.53984 0.72324
 H1768 H 0.26184 0.55423 0.71216
 C1769 C 0.29784 1.10383 0.18828
 C1770 C 0.30357 1.09856 0.19806
 C1771 C 0.31326 1.10436 0.20342
 C1772 C 0.31724 1.11537 0.19904
 C1773 C 0.31156 1.12078 0.18920
 C1774 C 0.30180 1.11485 0.18387
 C1775 C 0.29927 1.08741 0.20288
 C1776 C 0.29559 1.07826 0.20722
 C1777 C 0.29108 1.06781 0.21269
 C1778 C 0.28696 1.05922 0.21773
 C1779 C 0.28159 1.04949 0.22424
 C1780 C 0.28168 1.04975 0.23671
 C1781 C 0.27495 1.04146 0.24319
 C1782 C 0.26814 1.03276 0.23725
 C1783 C 0.26860 1.03210 0.22476
 C1784 C 0.27526 1.04049 0.21826
 H1785 H 0.29028 1.09945 0.18409
 H1786 H 0.31772 1.10041 0.21105
 H1787 H 0.32476 1.11958 0.20341
 H1788 H 0.29715 1.11868 0.17633
 H1789 H 0.28650 1.05670 0.24143
 H1790 H 0.27464 1.04214 0.25282
 H1791 H 0.26324 1.02557 0.22003
 H1792 H 0.27502 1.04028 0.20861
 C1793 C 0.79721 0.60399 0.18844
 C1794 C 0.80285 0.59875 0.19829
 C1795 C 0.81245 0.60459 0.20375
 C1796 C 0.81646 0.61559 0.19939
 C1797 C 0.81091 0.62095 0.18945
 C1798 C 0.80120 0.61501 0.18405
 C1799 C 0.79861 0.58756 0.20306
 C1800 C 0.79503 0.57836 0.20739
 C1801 C 0.79066 0.56785 0.21286
 C1802 C 0.78665 0.55922 0.21792
 C1803 C 0.78137 0.54945 0.22443
 C1804 C 0.78150 0.54968 0.23691
 C1805 C 0.77479 0.54138 0.24339
 C1806 C 0.76795 0.53270 0.23745
 C1807 C 0.76838 0.53205 0.22495
 C1808 C 0.77502 0.54046 0.21846
 H1809 H 0.78970 0.59958 0.18419
 H1810 H 0.81684 0.60066 0.21143
 H1811 H 0.82389 0.61983 0.20387
 H1812 H 0.79666 0.61880 0.17641
 H1813 H 0.78635 0.55661 0.24162
 H1814 H 0.77450 0.54205 0.25302
 H1815 H 0.76300 0.52555 0.22023
 H1816 H 0.77476 0.54027 0.20881
 C1817 C 0.81264 1.10461 0.70374
 C1818 C 0.80311 1.09867 0.69825
 C1819 C 0.79746 1.10384 0.68837
 C1820 C 0.80136 1.11488 0.68396
 C1821 C 0.81098 1.12093 0.68940
 C1822 C 0.81656 1.11564 0.69937
 C1823 C 0.79891 1.08748 0.70302
 C1824 C 0.79529 1.07827 0.70730
 C1825 C 0.79080 1.06776 0.71266
 C1826 C 0.78663 1.05914 0.71760
 C1827 C 0.78113 1.04940 0.72395
 C1828 C 0.77481 1.04050 0.71780
 C1829 C 0.76793 1.03216 0.72412
 C1830 C 0.76723 1.03277 0.73660
 C1831 C 0.77404 1.04135 0.74272
 C1832 C 0.78099 1.04958 0.73643
 H1833 H 0.81703 1.10073 0.71145
 H1834 H 0.79001 1.09936 0.68410
 H1835 H 0.79680 1.11862 0.67632
 H1836 H 0.82395 1.11995 0.70386
 H1837 H 0.77477 1.04035 0.70815
 H1838 H 0.76259 1.02572 0.71926
 H1839 H 0.77355 1.04197 0.75235
 H1840 H 0.78580 1.05644 0.74128
 C1841 C 0.70272 0.60416 0.31165
 C1842 C 0.69691 0.59894 0.30190
 C1843 C 0.68722 0.60481 0.29659
 C1844 C 0.68331 0.61584 0.30100
 C1845 C 0.68906 0.62120 0.31082
 C1846 C 0.69883 0.61520 0.31609
 C1847 C 0.70108 0.58774 0.29707
 C1848 C 0.70464 0.57853 0.29271
 C1849 C 0.70901 0.56802 0.28724
 C1850 C 0.71305 0.55937 0.28222
 C1851 C 0.71837 0.54957 0.27577
 C1852 C 0.71829 0.54973 0.26329
 C1853 C 0.72506 0.54140 0.25689
 C1854 C 0.73190 0.53275 0.26291
 C1855 C 0.73140 0.53216 0.27540
 C1856 C 0.72471 0.54059 0.28182
 H1857 H 0.71029 0.59972 0.31579
 H1858 H 0.68270 0.60089 0.28899
 H1859 H 0.67580 0.62009 0.29664
 H1860 H 0.70352 0.61901 0.32362
 H1861 H 0.71346 0.55665 0.25852
 H1862 H 0.72539 0.54202 0.24726
 H1863 H 0.73678 0.52567 0.28019
 H1864 H 0.72492 0.54045 0.29147
 C1865 C 0.70297 1.10445 0.81117
 C1866 C 0.69705 1.09914 0.80155
 C1867 C 0.68718 1.10487 0.79643
 C1868 C 0.68318 1.11583 0.80091
 C1869 C 0.68900 1.12132 0.81067
 C1870 C 0.69900 1.11543 0.81570
 C1871 C 0.70124 1.08798 0.79665
 C1872 C 0.70475 1.07878 0.79224
 C1873 C 0.70899 1.06825 0.78669
 C1874 C 0.71288 1.05958 0.78159
 C1875 C 0.71800 1.04973 0.77505
 C1876 C 0.71755 1.04981 0.76257
 C1877 C 0.72411 1.04142 0.75604
 C1878 C 0.73111 1.03280 0.76191
 C1879 C 0.73098 1.03230 0.77442
 C1880 C 0.72450 1.04079 0.78097
 H1881 H 0.71069 1.10012 0.81515
 H1882 H 0.68257 1.10088 0.78892
 H1883 H 0.67552 1.11989 0.79664
 H1884 H 0.70384 1.11920 0.82314
 H1885 H 0.71259 1.05670 0.75790
 H1886 H 0.72418 1.04198 0.74639
 H1887 H 0.73650 1.02585 0.77910
 H1888 H 0.72501 1.04072 0.79062
 C1889 C 0.20331 0.60426 0.81206
 C1890 C 0.19756 0.59891 0.80235
 C1891 C 0.18784 0.60466 0.79697
 C1892 C 0.18380 0.61567 0.80129
 C1893 C 0.18944 0.62114 0.81112
 C1894 C 0.19928 0.61529 0.81642
 C1895 C 0.20176 0.58768 0.79764
 C1896 C 0.20524 0.57842 0.79333
 C1897 C 0.20943 0.56784 0.78784
 C1898 C 0.21322 0.55913 0.78275
 C1899 C 0.21819 0.54925 0.77614
 C1900 C 0.21685 0.54895 0.76373
 C1901 C 0.22325 0.54062 0.75697
 C1902 C 0.23098 0.53243 0.76255
 C1903 C 0.23174 0.53228 0.77505
 C1904 C 0.22541 0.54072 0.78182
 H1905 H 0.21090 0.59992 0.81625
 H1906 H 0.18337 0.60064 0.78939
 H1907 H 0.17627 0.61983 0.79687
 H1908 H 0.20390 0.61917 0.82396
 H1909 H 0.21132 0.55553 0.75924
 H1910 H 0.22259 0.54090 0.74734
 H1911 H 0.23781 0.52617 0.77950
 H1912 H 0.22660 0.54094 0.79140
 C1913 C 0.20264 1.10396 0.31121
 C1914 C 0.19678 1.09873 0.30151
 C1915 C 0.18703 1.10457 0.29627
 C1916 C 0.18311 1.11557 0.30071
 C1917 C 0.18889 1.12092 0.31052
 C1918 C 0.19874 1.11498 0.31569
 C1919 C 0.20094 1.08755 0.29666
 C1920 C 0.20451 1.07836 0.29231
 C1921 C 0.20891 1.06786 0.28685
 C1922 C 0.21298 1.05923 0.28185
 C1923 C 0.21836 1.04946 0.27542
 C1924 C 0.21830 1.04962 0.26295
 C1925 C 0.22514 1.04133 0.25657
 C1926 C 0.23203 1.03275 0.26261
 C1927 C 0.23153 1.03216 0.27511
 C1928 C 0.22476 1.04055 0.28150
 H1929 H 0.21026 1.09954 0.31530
 H1930 H 0.18247 1.10064 0.28870
 H1931 H 0.17556 1.11981 0.29641
 H1932 H 0.20346 1.11877 0.32321
 H1933 H 0.21342 1.05649 0.25816
 H1934 H 0.22548 1.04194 0.24693
 H1935 H 0.23695 1.02572 0.27991
 H1936 H 0.22497 1.04043 0.29116
 C1937 C 0.70300 0.39563 0.68821
 C1938 C 0.69715 0.40108 0.69782
 C1939 C 0.68732 0.39544 0.70311
 C1940 C 0.68331 0.38442 0.69881
 C1941 C 0.68908 0.37885 0.68910
 C1942 C 0.69901 0.38460 0.68388
 C1943 C 0.70144 0.41227 0.70251
 C1944 C 0.70514 0.42148 0.70669
 C1945 C 0.70970 0.43200 0.71194
 C1946 C 0.71390 0.44063 0.71684
 C1947 C 0.71937 0.45035 0.72323
 C1948 C 0.71869 0.45054 0.73569
 C1949 C 0.72549 0.45874 0.74218
 C1950 C 0.73298 0.46689 0.73627
 C1951 C 0.73314 0.46714 0.72375
 C1952 C 0.72639 0.45884 0.71725
 H1953 H 0.71069 0.39987 0.68410
 H1954 H 0.68277 0.39953 0.71062
 H1955 H 0.67568 0.38034 0.70313
 H1956 H 0.70373 0.38065 0.67643
 H1957 H 0.71332 0.44401 0.74042
 H1958 H 0.72529 0.45841 0.75183
 H1959 H 0.73899 0.47327 0.71906
 H1960 H 0.72706 0.45870 0.70762
 C1961 C 0.68736 -0.10462 0.20350
 C1962 C 0.69702 -0.09886 0.19803
 C1963 C 0.70272 -0.10419 0.18827
 C1964 C 0.69877 -0.11524 0.18397
 C1965 C 0.68903 -0.12113 0.18938
 C1966 C 0.68338 -0.11567 0.19922
 C1967 C 0.70130 -0.08767 0.20271
 C1968 C 0.70501 -0.07846 0.20690
 C1969 C 0.70958 -0.06796 0.21217
 C1970 C 0.71378 -0.05935 0.21709
 C1971 C 0.71925 -0.04965 0.22350
 C1972 C 0.72620 -0.04111 0.21752
 C1973 C 0.73294 -0.03281 0.22402
 C1974 C 0.73286 -0.03312 0.23654
 C1975 C 0.72545 -0.04134 0.24245
 C1976 C 0.71865 -0.04953 0.23597
 H1977 H 0.68293 -0.10062 0.21112
 H1978 H 0.71027 -0.09983 0.18402
 H1979 H 0.70337 -0.11909 0.17641
 H1980 H 0.67590 -0.11986 0.20369
 H1981 H 0.72681 -0.04119 0.20788
 H1982 H 0.73874 -0.02663 0.21933
 H1983 H 0.72532 -0.04172 0.25210
 H1984 H 0.71334 -0.05612 0.24069
 C1985 C 0.20290 0.39560 0.18806
 C1986 C 0.19711 0.40109 0.19768
 C1987 C 0.18731 0.39547 0.20305
 C1988 C 0.18326 0.38445 0.19881
 C1989 C 0.18897 0.37884 0.18909
 C1990 C 0.19887 0.38457 0.18379
 C1991 C 0.20143 0.41229 0.20229
 C1992 C 0.20515 0.42151 0.20642
 C1993 C 0.20973 0.43202 0.21165
 C1994 C 0.21392 0.44064 0.21655
 C1995 C 0.21935 0.45035 0.22298
 C1996 C 0.21868 0.45045 0.23544
 C1997 C 0.22541 0.45866 0.24197
 C1998 C 0.23283 0.46691 0.23610
 C1999 C 0.23298 0.46724 0.22359
 C2000 C 0.22630 0.45892 0.21704
 H2001 H 0.21056 0.39983 0.18388
 H2002 H 0.18281 0.39960 0.21057
 H2003 H 0.17566 0.38038 0.20319
 H2004 H 0.20355 0.38059 0.17633
 H2005 H 0.21337 0.44384 0.24013
 H2006 H 0.22522 0.45827 0.25162
 H2007 H 0.23878 0.47344 0.21894
 H2008 H 0.22696 0.45885 0.20741
 C2009 C 0.18733 -0.10465 0.70338
 C2010 C 0.19699 -0.09886 0.69793
 C2011 C 0.20270 -0.10418 0.68817
 C2012 C 0.19876 -0.11523 0.68386
 C2013 C 0.18902 -0.12114 0.68926
 C2014 C 0.18336 -0.11569 0.69910
 C2015 C 0.20125 -0.08766 0.70260
 C2016 C 0.20496 -0.07845 0.70678
 C2017 C 0.20955 -0.06796 0.71207
 C2018 C 0.21377 -0.05937 0.71700
 C2019 C 0.21926 -0.04970 0.72345
 C2020 C 0.22616 -0.04111 0.71748
 C2021 C 0.23292 -0.03283 0.72401
 C2022 C 0.23289 -0.03322 0.73652
 C2023 C 0.22553 -0.04150 0.74242
 C2024 C 0.21872 -0.04967 0.73591
 H2025 H 0.18289 -0.10065 0.71100
 H2026 H 0.21025 -0.09982 0.68393
 H2027 H 0.20338 -0.11909 0.67630
 H2028 H 0.17590 -0.11990 0.70357
 H2029 H 0.22673 -0.04113 0.70784
 H2030 H 0.23868 -0.02661 0.71933
 H2031 H 0.22544 -0.04194 0.75207
 H2032 H 0.21344 -0.05629 0.74062
 C2033 C 0.31247 0.29683 0.39615
 C2034 C 0.30283 0.30250 0.40178
 C2035 C 0.29710 0.31212 0.39619
 C2036 C 0.30100 0.31608 0.38503
 C2037 C 0.31071 0.31046 0.37926
 C2038 C 0.31639 0.30076 0.38498
 C2039 C 0.29848 0.29816 0.41306
 C2040 C 0.29452 0.29437 0.42231
 C2041 C 0.28941 0.28969 0.43282
 C2042 C 0.28452 0.28545 0.44142
 C2043 C 0.27799 0.28003 0.45106
 C2044 C 0.28365 0.27208 0.45893
 C2045 C 0.27684 0.26552 0.46713
 C2046 C 0.26431 0.26678 0.46738
 C2047 C 0.25878 0.27514 0.45983
 C2048 C 0.26559 0.28175 0.45175
 H2049 H 0.31692 0.28931 0.40036
 H2050 H 0.28957 0.31652 0.40044
 H2051 H 0.29635 0.32352 0.38097
 H2052 H 0.32386 0.29616 0.38089
 H2053 H 0.29324 0.27059 0.45839
 H2054 H 0.28123 0.25900 0.47279
 H2055 H 0.24912 0.27621 0.45990
 H2056 H 0.26111 0.28783 0.44567
 C2057 C 0.31197 0.79749 -0.10415
 C2058 C 0.30228 0.80311 -0.09856
 C2059 C 0.29662 0.81279 -0.10413
 C2060 C 0.30064 0.81683 -0.11525
 C2061 C 0.31040 0.81121 -0.12097
 C2062 C 0.31600 0.80149 -0.11525
 C2063 C 0.29794 0.79859 -0.08735
 C2064 C 0.29432 0.79436 -0.07813
 C2065 C 0.29000 0.78887 -0.06765
 C2066 C 0.28614 0.78368 -0.05904
 C2067 C 0.28121 0.77685 -0.04932
 C2068 C 0.27338 0.78218 -0.04111
 C2069 C 0.26730 0.77511 -0.03277
 C2070 C 0.26893 0.76264 -0.03268
 C2071 C 0.27721 0.75745 -0.04058
 C2072 C 0.28334 0.76452 -0.04882
 H2073 H 0.31638 0.78994 -0.09995
 H2074 H 0.28905 0.81718 -0.09992
 H2075 H 0.29606 0.82431 -0.11931
 H2076 H 0.32350 0.79689 -0.11928
 H2077 H 0.27158 0.79170 -0.04150
 H2078 H 0.26081 0.77925 -0.02688
 H2079 H 0.27856 0.74785 -0.04067
 H2080 H 0.28935 0.76030 -0.05515
 C2081 C 0.81236 0.29722 -0.10392
 C2082 C 0.80273 0.30290 -0.09828
 C2083 C 0.79702 0.31253 -0.10386
 C2084 C 0.80091 0.31650 -0.11502
 C2085 C 0.81062 0.31087 -0.12080
 C2086 C 0.81629 0.30116 -0.11509
 C2087 C 0.79837 0.29855 -0.08702
 C2088 C 0.79440 0.29475 -0.07777
 C2089 C 0.78926 0.29007 -0.06727
 C2090 C 0.78437 0.28581 -0.05869
 C2091 C 0.77784 0.28037 -0.04905
 C2092 C 0.78353 0.27245 -0.04118
 C2093 C 0.77673 0.26587 -0.03298
 C2094 C 0.76421 0.26708 -0.03274
 C2095 C 0.75864 0.27542 -0.04030
 C2096 C 0.76543 0.28205 -0.04838
 H2097 H 0.81680 0.28969 -0.09972
 H2098 H 0.78948 0.31694 -0.09961
 H2099 H 0.79627 0.32395 -0.11907
 H2100 H 0.82375 0.29656 -0.11918
 H2101 H 0.79312 0.27099 -0.04171
 H2102 H 0.78114 0.25936 -0.02732
 H2103 H 0.74899 0.27644 -0.04024
 H2104 H 0.76094 0.28810 -0.05446
 C2105 C 0.81167 0.79769 0.39611
 C2106 C 0.80198 0.80332 0.40169
 C2107 C 0.79633 0.81300 0.39611
 C2108 C 0.80035 0.81701 0.38498
 C2109 C 0.81010 0.81139 0.37927
 C2110 C 0.81571 0.80167 0.38501
 C2111 C 0.79761 0.79881 0.41290
 C2112 C 0.79396 0.79460 0.42210
 C2113 C 0.78959 0.78912 0.43258
 C2114 C 0.78568 0.78394 0.44117
 C2115 C 0.78072 0.77711 0.45087
 C2116 C 0.77280 0.78241 0.45901
 C2117 C 0.76671 0.77532 0.46733
 C2118 C 0.76840 0.76286 0.46745
 C2119 C 0.77677 0.75770 0.45963
 C2120 C 0.78291 0.76479 0.45141
 H2121 H 0.81607 0.79014 0.40032
 H2122 H 0.78876 0.81740 0.40031
 H2123 H 0.79577 0.82450 0.38091
 H2124 H 0.82320 0.79706 0.38099
 H2125 H 0.77095 0.79192 0.45859
 H2126 H 0.76016 0.77944 0.47317
 H2127 H 0.77818 0.74811 0.45957
 H2128 H 0.78899 0.76059 0.44513
 C2129 C 0.70281 0.31142 0.60388
 C2130 C 0.69710 0.30166 0.59854
 C2131 C 0.68753 0.29610 0.60436
 C2132 C 0.68363 0.30028 0.61544
 C2133 C 0.68924 0.31013 0.62092
 C2134 C 0.69892 0.31563 0.61499
 C2135 C 0.70128 0.29703 0.58729
 C2136 C 0.70484 0.29280 0.57806
 C2137 C 0.70920 0.28740 0.56754
 C2138 C 0.71323 0.28236 0.55891
 C2139 C 0.71852 0.27583 0.54918
 C2140 C 0.71829 0.26331 0.54936
 C2141 C 0.72503 0.25678 0.54112
 C2142 C 0.73199 0.26271 0.53254
 C2143 C 0.73166 0.27525 0.53192
 C2144 C 0.72500 0.28180 0.54027
 H2145 H 0.71030 0.31574 0.59950
 H2146 H 0.68309 0.28849 0.60034
 H2147 H 0.67620 0.29574 0.61965
 H2148 H 0.70353 0.32319 0.61886
 H2149 H 0.71336 0.25860 0.55623
 H2150 H 0.72525 0.24712 0.54176
 H2151 H 0.73714 0.27997 0.52548
 H2152 H 0.72534 0.29148 0.54011
 C2153 C 0.68797 0.79731 1.10396
 C2154 C 0.69762 0.80302 1.09839
 C2155 C 0.70327 0.81262 1.10404
 C2156 C 0.69928 0.81653 1.11520
 C2157 C 0.68955 0.81089 1.12090
 C2158 C 0.68397 0.80120 1.11512
 C2159 C 0.70199 0.79868 1.08711
 C2160 C 0.70580 0.79471 1.07786
 C2161 C 0.71049 0.78958 1.06735
 C2162 C 0.71474 0.78468 1.05876
 C2163 C 0.72015 0.77813 1.04911
 C2164 C 0.72818 0.78373 1.04127
 C2165 C 0.73471 0.77689 1.03305
 C2166 C 0.73335 0.76441 1.03275
 C2167 C 0.72492 0.75895 1.04028
 C2168 C 0.71833 0.76578 1.04838
 H2169 H 0.68358 0.78980 1.09970
 H2170 H 0.71081 0.81705 1.09984
 H2171 H 0.70388 0.82398 1.11930
 H2172 H 0.67650 0.79656 1.11915
 H2173 H 0.72974 0.79327 1.04184
 H2174 H 0.74130 0.78123 1.02742
 H2175 H 0.72377 0.74933 1.04018
 H2176 H 0.71220 0.76135 1.05442
 C2177 C 0.20386 0.31252 1.10437
 C2178 C 0.19826 0.30304 1.09849
 C2179 C 0.18841 0.29738 1.10375
 C2180 C 0.18415 0.30123 1.11485
 C2181 C 0.18970 0.31080 1.12085
 C2182 C 0.19963 0.31638 1.11545
 C2183 C 0.20295 0.29888 1.08726
 C2184 C 0.20721 0.29533 1.07803
 C2185 C 0.21263 0.29094 1.06753
 C2186 C 0.21765 0.28686 1.05892
 C2187 C 0.22415 0.28148 1.04921
 C2188 C 0.21811 0.27510 1.04031
 C2189 C 0.22459 0.26835 1.03199
 C2190 C 0.23715 0.26784 1.03263
 C2191 C 0.24316 0.27471 1.04121
 C2192 C 0.23670 0.28154 1.04943
 H2193 H 0.21155 0.31692 1.10041
 H2194 H 0.18406 0.28996 1.09931
 H2195 H 0.17652 0.29667 1.11866
 H2196 H 0.20421 0.32373 1.11971
 H2197 H 0.20840 0.27490 1.04013
 H2198 H 0.21981 0.26294 1.02555
 H2199 H 0.25285 0.27437 1.04187
 H2200 H 0.24147 0.28640 1.05629
 C2201 C 0.20353 0.81311 0.60384
 C2202 C 0.19796 0.80352 0.59809
 C2203 C 0.18829 0.79774 0.60355
 C2204 C 0.18419 0.80153 0.61471
 C2205 C 0.18971 0.81119 0.62061
 C2206 C 0.19945 0.81693 0.61500
 C2207 C 0.20248 0.79926 0.58684
 C2208 C 0.20641 0.79535 0.57762
 C2209 C 0.21120 0.79023 0.56715
 C2210 C 0.21549 0.78529 0.55860
 C2211 C 0.22084 0.77860 0.54901
 C2212 C 0.21842 0.76636 0.54811
 C2213 C 0.22481 0.75929 0.54007
 C2214 C 0.23366 0.76440 0.53276
 C2215 C 0.23565 0.77679 0.53323
 C2216 C 0.22930 0.78387 0.54140
 H2217 H 0.21108 0.81760 0.59974
 H2218 H 0.18397 0.79025 0.59921
 H2219 H 0.17671 0.79685 0.61867
 H2220 H 0.20398 0.82436 0.61918
 H2221 H 0.21194 0.76218 0.55398
 H2222 H 0.22316 0.74975 0.53982
 H2223 H 0.24253 0.78085 0.52776
 H2224 H 0.23131 0.79332 0.54210
 C2225 C 0.31220 0.70287 0.60410
 C2226 C 0.30242 0.69727 0.59866
 C2227 C 0.29680 0.68767 0.60436
 C2228 C 0.30091 0.68367 0.61543
 C2229 C 0.31075 0.68920 0.62101
 C2230 C 0.31634 0.69888 0.61519
 C2231 C 0.29785 0.70156 0.58743
 C2232 C 0.29364 0.70516 0.57820
 C2233 C 0.28822 0.70949 0.56767
 C2234 C 0.28314 0.71340 0.55901
 C2235 C 0.27649 0.71845 0.54922
 C2236 C 0.26404 0.71702 0.54886
 C2237 C 0.25721 0.72337 0.54055
 C2238 C 0.26279 0.73116 0.53245
 C2239 C 0.27534 0.73205 0.53238
 C2240 C 0.28217 0.72577 0.54079
 H2241 H 0.31659 0.71037 0.59981
 H2242 H 0.28917 0.68331 0.60026
 H2243 H 0.29631 0.67624 0.61955
 H2244 H 0.32391 0.70341 0.61914
 H2245 H 0.25954 0.71142 0.55535
 H2246 H 0.24753 0.72263 0.54079
 H2247 H 0.27978 0.73819 0.52635
 H2248 H 0.29179 0.72704 0.54107
 C2249 C 0.31162 0.20276 1.10407
 C2250 C 0.30181 0.19714 1.09872
 C2251 C 0.29620 0.18758 1.10451
 C2252 C 0.30039 0.18362 1.11556
 C2253 C 0.31029 0.18916 1.12104
 C2254 C 0.31584 0.19881 1.11514
 C2255 C 0.29720 0.20136 1.08749
 C2256 C 0.29299 0.20494 1.07826
 C2257 C 0.28760 0.20931 1.06773
 C2258 C 0.28258 0.21332 1.05909
 C2259 C 0.27603 0.21859 1.04935
 C2260 C 0.26349 0.21844 1.04960
 C2261 C 0.25696 0.22513 1.04133
 C2262 C 0.26291 0.23196 1.03265
 C2263 C 0.27548 0.23153 1.03198
 C2264 C 0.28202 0.22492 1.04036
 H2265 H 0.31598 0.21023 1.09971
 H2266 H 0.28854 0.18322 1.10049
 H2267 H 0.29580 0.17622 1.11976
 H2268 H 0.32345 0.20335 1.11902
 H2269 H 0.25876 0.21362 1.05653
 H2270 H 0.24728 0.22541 1.04201
 H2271 H 0.28021 0.23691 1.02547
 H2272 H 0.29173 0.22518 1.04016
 C2273 C 0.79729 0.68797 1.10412
 C2274 C 0.80302 0.69759 1.09857
 C2275 C 0.81270 0.70316 1.10420
 C2276 C 0.81666 0.69911 1.11533
 C2277 C 0.81097 0.68940 1.12101
 C2278 C 0.80122 0.68389 1.11524
 C2279 C 0.79866 0.70200 1.08731
 C2280 C 0.79467 0.70579 1.07806
 C2281 C 0.78951 0.71041 1.06753
 C2282 C 0.78459 0.71458 1.05891
 C2283 C 0.77803 0.71990 1.04921
 C2284 C 0.78367 0.72769 1.04119
 C2285 C 0.77684 0.73415 1.03291
 C2286 C 0.76431 0.73293 1.03271
 C2287 C 0.75880 0.72470 1.04041
 C2288 C 0.76562 0.71820 1.04858
 H2289 H 0.78973 0.68364 1.09988
 H2290 H 0.81716 0.71068 1.10002
 H2291 H 0.82416 0.70363 1.11942
 H2292 H 0.79655 0.67645 1.11926
 H2293 H 0.79326 0.72916 1.04167
 H2294 H 0.78122 0.74058 1.02715
 H2295 H 0.74914 0.72368 1.04041
 H2296 H 0.76115 0.71223 1.05476
 C2297 C 0.79744 0.18834 0.60378
 C2298 C 0.80321 0.19811 0.59850
 C2299 C 0.81283 0.20355 0.60433
 C2300 C 0.81670 0.19926 0.61539
 C2301 C 0.81100 0.18942 0.62082
 C2302 C 0.80130 0.18402 0.61486
 C2303 C 0.79902 0.20287 0.58731
 C2304 C 0.79544 0.20718 0.57811
 C2305 C 0.79102 0.21262 0.56763
 C2306 C 0.78692 0.21763 0.55902
 C2307 C 0.78154 0.22408 0.54927
 C2308 C 0.78171 0.23660 0.54933
 C2309 C 0.77491 0.24302 0.54106
 C2310 C 0.76794 0.23699 0.53257
 C2311 C 0.76832 0.22444 0.53208
 C2312 C 0.77505 0.21800 0.54045
 H2313 H 0.78993 0.18411 0.59938
 H2314 H 0.81732 0.21116 0.60037
 H2315 H 0.82416 0.20372 0.61961
 H2316 H 0.79665 0.17647 0.61869
 H2317 H 0.78666 0.24139 0.55612
 H2318 H 0.77466 0.25269 0.54161
 H2319 H 0.76284 0.21964 0.52571
 H2320 H 0.77475 0.20832 0.54039
 C2321 C 0.68753 0.70334 0.39609
 C2322 C 0.69722 0.69771 0.40168
 C2323 C 0.70286 0.68802 0.39614
 C2324 C 0.69885 0.68394 0.38506
 C2325 C 0.68910 0.68952 0.37932
 C2326 C 0.68348 0.69928 0.38500
 C2327 C 0.70172 0.70210 0.41289
 C2328 C 0.70589 0.70580 0.42209
 C2329 C 0.71131 0.71022 0.43257
 C2330 C 0.71644 0.71417 0.44117
 C2331 C 0.72322 0.71918 0.45087
 C2332 C 0.73558 0.71707 0.45143
 C2333 C 0.74262 0.72324 0.45966
 C2334 C 0.73738 0.73155 0.46748
 C2335 C 0.72489 0.73316 0.46734
 C2336 C 0.71784 0.72705 0.45900
 H2337 H 0.68313 0.71090 0.40027
 H2338 H 0.71042 0.68364 0.40035
 H2339 H 0.70345 0.67644 0.38105
 H2340 H 0.67598 0.70384 0.38093
 H2341 H 0.73985 0.71104 0.44516
 H2342 H 0.75224 0.72190 0.45962
 H2343 H 0.72070 0.73966 0.47317
 H2344 H 0.70830 0.72883 0.45858
 C2345 C 0.68820 0.20257 -0.10399
 C2346 C 0.69785 0.19691 -0.09838
 C2347 C 0.70353 0.18725 -0.10396
 C2348 C 0.69955 0.18325 -0.11509
 C2349 C 0.68981 0.18885 -0.12082
 C2350 C 0.68420 0.19859 -0.11511
 C2351 C 0.70219 0.20133 -0.08714
 C2352 C 0.70594 0.20536 -0.07790
 C2353 C 0.71055 0.21055 -0.06739
 C2354 C 0.71473 0.21548 -0.05879
 C2355 C 0.72007 0.22203 -0.04913
 C2356 C 0.72802 0.21642 -0.04122
 C2357 C 0.73452 0.22325 -0.03300
 C2358 C 0.73320 0.23574 -0.03276
 C2359 C 0.72482 0.24123 -0.04034
 C2360 C 0.71827 0.23440 -0.04845
 H2361 H 0.68378 0.21012 -0.09979
 H2362 H 0.71108 0.18285 -0.09974
 H2363 H 0.70416 0.17577 -0.11914
 H2364 H 0.67671 0.20320 -0.11916
 H2365 H 0.72957 0.20687 -0.04175
 H2366 H 0.74106 0.21890 -0.02732
 H2367 H 0.72370 0.25085 -0.04029
 H2368 H 0.71219 0.23884 -0.05455
 C2369 C 0.18736 0.70340 -0.10385
 C2370 C 0.19702 0.69775 -0.09823
 C2371 C 0.20267 0.68806 -0.10377
 C2372 C 0.19871 0.68403 -0.11488
 C2373 C 0.18900 0.68963 -0.12066
 C2374 C 0.18336 0.69938 -0.11497
 C2375 C 0.20154 0.70215 -0.08704
 C2376 C 0.20575 0.70586 -0.07786
 C2377 C 0.21124 0.71030 -0.06742
 C2378 C 0.21643 0.71427 -0.05888
 C2379 C 0.22327 0.71931 -0.04923
 C2380 C 0.23562 0.71715 -0.04869
 C2381 C 0.24271 0.72334 -0.04051
 C2382 C 0.23752 0.73170 -0.03272
 C2383 C 0.22504 0.73338 -0.03285
 C2384 C 0.21794 0.72725 -0.04113
 H2385 H 0.18295 0.71097 -0.09967
 H2386 H 0.21021 0.68366 -0.09954
 H2387 H 0.20333 0.67653 -0.11888
 H2388 H 0.17589 0.70396 -0.11907
 H2389 H 0.23984 0.71106 -0.05493
 H2390 H 0.25232 0.72194 -0.04056
 H2391 H 0.22090 0.73993 -0.02704
 H2392 H 0.20841 0.72908 -0.04155
 C2393 C 0.20325 0.18722 0.39620
 C2394 C 0.19765 0.19694 0.40174
 C2395 C 0.18808 0.20269 0.39608
 C2396 C 0.18410 0.19874 0.38495
 C2397 C 0.18964 0.18895 0.37927
 C2398 C 0.19929 0.18324 0.38506
 C2399 C 0.20199 0.20134 0.41299
 C2400 C 0.20574 0.20536 0.42223
 C2401 C 0.21035 0.21055 0.43273
 C2402 C 0.21455 0.21547 0.44133
 C2403 C 0.21992 0.22200 0.45099
 C2404 C 0.21816 0.23437 0.45169
 C2405 C 0.22474 0.24117 0.45980
 C2406 C 0.23310 0.23565 0.46737
 C2407 C 0.23439 0.22315 0.46711
 C2408 C 0.22786 0.21635 0.45888
 H2409 H 0.21073 0.18274 0.40046
 H2410 H 0.18373 0.21029 0.40025
 H2411 H 0.17669 0.20343 0.38085
 H2412 H 0.20383 0.17570 0.38104
 H2413 H 0.21208 0.23884 0.44560
 H2414 H 0.22365 0.25080 0.45986
 H2415 H 0.24093 0.21878 0.47277
 H2416 H 0.22938 0.20679 0.45833
 C2417 C 0.31196 0.39572 0.70247
 C2418 C 0.30210 0.40112 0.69695
 C2419 C 0.29650 0.39541 0.68737
 C2420 C 0.30074 0.38438 0.68329
 C2421 C 0.31069 0.37885 0.68874
 C2422 C 0.31624 0.38467 0.69840
 C2423 C 0.29744 0.41232 0.70132
 C2424 C 0.29325 0.42153 0.70506
 C2425 C 0.28795 0.43204 0.70966
 C2426 C 0.28304 0.44068 0.71388
 C2427 C 0.27664 0.45042 0.71939
 C2428 C 0.26410 0.45030 0.71940
 C2429 C 0.25773 0.45857 0.72625
 C2430 C 0.26383 0.46712 0.73310
 C2431 C 0.27639 0.46766 0.73255
 C2432 C 0.28279 0.45928 0.72576
 H2433 H 0.31632 0.40002 0.70995
 H2434 H 0.28880 0.39946 0.68308
 H2435 H 0.29615 0.38024 0.67588
 H2436 H 0.32388 0.38075 0.70286
 H2437 H 0.25925 0.44347 0.71455
 H2438 H 0.24804 0.45799 0.72663
 H2439 H 0.28125 0.47408 0.73793
 H2440 H 0.29249 0.45939 0.72590
 C2441 C 0.31194 0.89579 0.20251
 C2442 C 0.30207 0.90117 0.19698
 C2443 C 0.29653 0.89548 0.18736
 C2444 C 0.30084 0.88450 0.18323
 C2445 C 0.31079 0.87898 0.18869
 C2446 C 0.31628 0.88478 0.19840
 C2447 C 0.29737 0.91235 0.20132
 C2448 C 0.29313 0.92158 0.20497
 C2449 C 0.28774 0.93211 0.20941
 C2450 C 0.28272 0.94075 0.21347
 C2451 C 0.27619 0.95051 0.21877
 C2452 C 0.26365 0.95030 0.21863
 C2453 C 0.25714 0.95859 0.22534
 C2454 C 0.26310 0.96723 0.23219
 C2455 C 0.27566 0.96788 0.23175
 C2456 C 0.28219 0.95949 0.22511
 H2457 H 0.31625 0.90007 0.21004
 H2458 H 0.28882 0.89952 0.18306
 H2459 H 0.29629 0.88038 0.17579
 H2460 H 0.32391 0.88086 0.20288
 H2461 H 0.25890 0.94339 0.21379
 H2462 H 0.24745 0.95793 0.22562
 H2463 H 0.28041 0.97437 0.23713
 H2464 H 0.29190 0.95967 0.22536
 C2465 C 0.81184 0.39579 0.20254
 C2466 C 0.80199 0.40119 0.19699
 C2467 C 0.79644 0.39550 0.18737
 C2468 C 0.80072 0.38449 0.18328
 C2469 C 0.81065 0.37895 0.18876
 C2470 C 0.81615 0.38476 0.19846
 C2471 C 0.79729 0.41238 0.20134
 C2472 C 0.79301 0.42158 0.20501
 C2473 C 0.78759 0.43208 0.20949
 C2474 C 0.78254 0.44071 0.21357
 C2475 C 0.77600 0.45045 0.21890
 C2476 C 0.76345 0.45026 0.21871
 C2477 C 0.75693 0.45855 0.22541
 C2478 C 0.76288 0.46718 0.23228
 C2479 C 0.77544 0.46779 0.23191
 C2480 C 0.78199 0.45940 0.22529
 H2481 H 0.81616 0.40008 0.21006
 H2482 H 0.78876 0.39955 0.18305
 H2483 H 0.79618 0.38038 0.17583
 H2484 H 0.82376 0.38083 0.20295
 H2485 H 0.75872 0.44336 0.21384
 H2486 H 0.74724 0.45791 0.22565
 H2487 H 0.78018 0.47427 0.23732
 H2488 H 0.79169 0.45957 0.22558
 C2489 C 0.79682 0.89603 0.68685
 C2490 C 0.80243 0.90164 0.69648
 C2491 C 0.81222 0.89614 0.70203
 C2492 C 0.81639 0.88505 0.69797
 C2493 C 0.81081 0.87929 0.68829
 C2494 C 0.80097 0.88495 0.68278
 C2495 C 0.79786 0.91282 0.70099
 C2496 C 0.79389 0.92199 0.70505
 C2497 C 0.78905 0.93243 0.71026
 C2498 C 0.78473 0.94098 0.71522
 C2499 C 0.77935 0.95061 0.72187
 C2500 C 0.78165 0.95150 0.73409
 C2501 C 0.77527 0.95965 0.74106
 C2502 C 0.76655 0.96708 0.73588
 C2503 C 0.76467 0.96661 0.72351
 C2504 C 0.77101 0.95834 0.71653
 H2505 H 0.78918 0.90017 0.68254
 H2506 H 0.81658 0.90037 0.70955
 H2507 H 0.82396 0.88105 0.70248
 H2508 H 0.79638 0.88086 0.67534
 H2509 H 0.78804 0.94556 0.73833
 H2510 H 0.77684 0.95989 0.75059
 H2511 H 0.75788 0.97216 0.71939
 H2512 H 0.76909 0.95766 0.70709
 C2513 C 0.68739 0.60453 0.70352
 C2514 C 0.69705 0.59874 0.69804
 C2515 C 0.70276 0.60407 0.68830
 C2516 C 0.69881 0.61514 0.68401
 C2517 C 0.68907 0.62105 0.68942
 C2518 C 0.68342 0.61559 0.69926
 C2519 C 0.70131 0.58751 0.70268
 C2520 C 0.70501 0.57827 0.70681
 C2521 C 0.70958 0.56773 0.71204
 C2522 C 0.71380 0.55909 0.71692
 C2523 C 0.71929 0.54937 0.72332
 C2524 C 0.72630 0.54086 0.71733
 C2525 C 0.73305 0.53253 0.72383
 C2526 C 0.73292 0.53280 0.73634
 C2527 C 0.72544 0.54099 0.74226
 C2528 C 0.71864 0.54920 0.73577
 H2529 H 0.68296 0.60052 0.71113
 H2530 H 0.71031 0.59970 0.68405
 H2531 H 0.70343 0.61900 0.67646
 H2532 H 0.67595 0.61982 0.70373
 H2533 H 0.72695 0.54099 0.70769
 H2534 H 0.73889 0.52638 0.71914
 H2535 H 0.72527 0.54133 0.75191
 H2536 H 0.71328 0.55576 0.74050
 C2537 C 0.68726 0.10421 0.20305
 C2538 C 0.69695 0.09844 0.19761
 C2539 C 0.70270 0.10378 0.18789
 C2540 C 0.69875 0.11485 0.18360
 C2541 C 0.68898 0.12076 0.18898
 C2542 C 0.68330 0.11528 0.19878
 C2543 C 0.70124 0.08723 0.20228
 C2544 C 0.70499 0.07802 0.20644
 C2545 C 0.70964 0.06753 0.21169
 C2546 C 0.71391 0.05892 0.21659
 C2547 C 0.71945 0.04924 0.22301
 C2548 C 0.72647 0.04072 0.21706
 C2549 C 0.73326 0.03245 0.22359
 C2550 C 0.73314 0.03278 0.23610
 C2551 C 0.72566 0.04098 0.24198
 C2552 C 0.71883 0.04914 0.23547
 H2553 H 0.68279 0.10020 0.21063
 H2554 H 0.71027 0.09942 0.18367
 H2555 H 0.70340 0.11872 0.17607
 H2556 H 0.67578 0.11948 0.20320
 H2557 H 0.72710 0.04080 0.20742
 H2558 H 0.73909 0.02627 0.21892
 H2559 H 0.72548 0.04136 0.25163
 H2560 H 0.71346 0.05572 0.24017
 C2561 C 0.20246 0.60393 0.18791
 C2562 C 0.19666 0.59856 0.19759
 C2563 C 0.18695 0.60434 0.20299
 C2564 C 0.18302 0.61542 0.19874
 C2565 C 0.18876 0.62093 0.18899
 C2566 C 0.19855 0.61502 0.18363
 C2567 C 0.20094 0.58735 0.20226
 C2568 C 0.20468 0.57814 0.20643
 C2569 C 0.20932 0.56764 0.21169
 C2570 C 0.21359 0.55904 0.21660
 C2571 C 0.21912 0.54935 0.22301
 C2572 C 0.21851 0.54923 0.23547
 C2573 C 0.22533 0.54104 0.24197
 C2574 C 0.23279 0.53283 0.23607
 C2575 C 0.23290 0.53252 0.22356
 C2576 C 0.22613 0.54082 0.21704
 H2577 H 0.21005 0.59958 0.18371
 H2578 H 0.18245 0.60030 0.21055
 H2579 H 0.17549 0.61962 0.20314
 H2580 H 0.20326 0.61892 0.17616
 H2581 H 0.21316 0.55581 0.24019
 H2582 H 0.22517 0.54141 0.25162
 H2583 H 0.23872 0.52635 0.21888
 H2584 H 0.22676 0.54092 0.20740
 C2585 C 0.18714 0.10403 0.70316
 C2586 C 0.19696 0.09838 0.69783
 C2587 C 0.20281 0.10385 0.68824
 C2588 C 0.19882 0.11491 0.68396
 C2589 C 0.18890 0.12067 0.68922
 C2590 C 0.18312 0.11508 0.69890
 C2591 C 0.20127 0.08717 0.70247
 C2592 C 0.20501 0.07795 0.70661
 C2593 C 0.20965 0.06744 0.71184
 C2594 C 0.21391 0.05882 0.71671
 C2595 C 0.21945 0.04913 0.72311
 C2596 C 0.22653 0.04067 0.71713
 C2597 C 0.23333 0.03239 0.72364
 C2598 C 0.23317 0.03265 0.73615
 C2599 C 0.22562 0.04078 0.74205
 C2600 C 0.21877 0.04894 0.73556
 H2601 H 0.18259 0.09992 0.71065
 H2602 H 0.21048 0.09960 0.68410
 H2603 H 0.20354 0.11888 0.67653
 H2604 H 0.17551 0.11918 0.70325
 H2605 H 0.22720 0.04081 0.70749
 H2606 H 0.23921 0.02627 0.71896
 H2607 H 0.22541 0.04109 0.75171
 H2608 H 0.21336 0.05546 0.74028
 C2609 C 0.31228 0.60435 0.29666
 C2610 C 0.30266 0.59861 0.30221
 C2611 C 0.29700 0.60399 0.31197
 C2612 C 0.30100 0.61505 0.31621
 C2613 C 0.31073 0.62091 0.31073
 C2614 C 0.31630 0.61540 0.30087
 C2615 C 0.29837 0.58738 0.29763
 C2616 C 0.29469 0.57813 0.29350
 C2617 C 0.29015 0.56761 0.28825
 C2618 C 0.28599 0.55898 0.28333
 C2619 C 0.28058 0.54928 0.27687
 C2620 C 0.27357 0.54073 0.28278
 C2621 C 0.26688 0.53244 0.27621
 C2622 C 0.26707 0.53278 0.26369
 C2623 C 0.27454 0.54100 0.25785
 C2624 C 0.28129 0.54918 0.26441
 H2625 H 0.31667 0.60030 0.28904
 H2626 H 0.28948 0.59966 0.31629
 H2627 H 0.29644 0.61895 0.32378
 H2628 H 0.32375 0.61958 0.29634
 H2629 H 0.27288 0.54080 0.29241
 H2630 H 0.26105 0.52625 0.28084
 H2631 H 0.27476 0.54139 0.24820
 H2632 H 0.28664 0.55577 0.25974
 C2633 C 0.31267 0.10412 0.79698
 C2634 C 0.30300 0.09840 0.80248
 C2635 C 0.29726 0.10384 0.81216
 C2636 C 0.30120 0.11494 0.81635
 C2637 C 0.31096 0.12078 0.81091
 C2638 C 0.31663 0.11521 0.80114
 C2639 C 0.29874 0.08714 0.79793
 C2640 C 0.29502 0.07790 0.79384
 C2641 C 0.29043 0.06737 0.78864
 C2642 C 0.28622 0.05875 0.78374
 C2643 C 0.28077 0.04908 0.77726
 C2644 C 0.27372 0.04054 0.78314
 C2645 C 0.26702 0.03228 0.77654
 C2646 C 0.26724 0.03263 0.76403
 C2647 C 0.27474 0.04085 0.75822
 C2648 C 0.28150 0.04900 0.76481
 H2649 H 0.31713 0.10004 0.78941
 H2650 H 0.28970 0.09953 0.81643
 H2651 H 0.29654 0.11888 0.82383
 H2652 H 0.32412 0.11936 0.79665
 H2653 H 0.27300 0.04060 0.79278
 H2654 H 0.26116 0.02609 0.78115
 H2655 H 0.27500 0.04125 0.74858
 H2656 H 0.28688 0.05558 0.76016
 C2657 C 0.81233 0.60440 0.79689
 C2658 C 0.80270 0.59869 0.80248
 C2659 C 0.79711 0.60410 0.81226
 C2660 C 0.80116 0.61515 0.81647
 C2661 C 0.81089 0.62097 0.81095
 C2662 C 0.81640 0.61545 0.80107
 C2663 C 0.79837 0.58747 0.79792
 C2664 C 0.79466 0.57824 0.79380
 C2665 C 0.79012 0.56771 0.78854
 C2666 C 0.78597 0.55908 0.78361
 C2667 C 0.78060 0.54937 0.77713
 C2668 C 0.77364 0.54076 0.78302
 C2669 C 0.76701 0.53244 0.77643
 C2670 C 0.76722 0.53278 0.76392
 C2671 C 0.77464 0.54107 0.75810
 C2672 C 0.78133 0.54928 0.76467
 H2673 H 0.81667 0.60034 0.78925
 H2674 H 0.78959 0.59980 0.81661
 H2675 H 0.79665 0.61907 0.82406
 H2676 H 0.82384 0.61959 0.79651
 H2677 H 0.77292 0.54082 0.79265
 H2678 H 0.76120 0.52621 0.78104
 H2679 H 0.77487 0.54148 0.74845
 H2680 H 0.78664 0.55591 0.76002
 C2681 C 0.79712 0.10406 0.31216
 C2682 C 0.80284 0.09852 0.30252
 C2683 C 0.81260 0.10411 0.29703
 C2684 C 0.81668 0.11516 0.30119
 C2685 C 0.81105 0.12081 0.31092
 C2686 C 0.80119 0.11511 0.31634
 C2687 C 0.79848 0.08730 0.29801
 C2688 C 0.79473 0.07806 0.29394
 C2689 C 0.79013 0.06754 0.28875
 C2690 C 0.78594 0.05892 0.28385
 C2691 C 0.78053 0.04924 0.27735
 C2692 C 0.78131 0.04917 0.26490
 C2693 C 0.77461 0.04099 0.25830
 C2694 C 0.76712 0.03274 0.26408
 C2695 C 0.76686 0.03238 0.27659
 C2696 C 0.77351 0.04067 0.28322
 H2697 H 0.78949 0.09985 0.31642
 H2698 H 0.81702 0.09995 0.28950
 H2699 H 0.82423 0.11922 0.29672
 H2700 H 0.79656 0.11912 0.32381
 H2701 H 0.78668 0.05577 0.26028
 H2702 H 0.77489 0.04140 0.24865
 H2703 H 0.76102 0.02617 0.28118
 H2704 H 0.77276 0.04072 0.29285
 C2705 C 0.68798 0.39577 0.29746
 C2706 C 0.69784 0.40115 0.30299
 C2707 C 0.70343 0.39543 0.31258
 C2708 C 0.69919 0.38441 0.31666
 C2709 C 0.68925 0.37890 0.31121
 C2710 C 0.68370 0.38474 0.30153
 C2711 C 0.70251 0.41233 0.29864
 C2712 C 0.70676 0.42152 0.29496
 C2713 C 0.71219 0.43201 0.29050
 C2714 C 0.71723 0.44064 0.28644
 C2715 C 0.72376 0.45039 0.28116
 C2716 C 0.73630 0.45016 0.28135
 C2717 C 0.74283 0.45846 0.27470
 C2718 C 0.73688 0.46714 0.26785
 C2719 C 0.72431 0.46779 0.26821
 C2720 C 0.71777 0.45938 0.27480
 H2721 H 0.68362 0.40009 0.28997
 H2722 H 0.71112 0.39946 0.31688
 H2723 H 0.70378 0.38026 0.32407
 H2724 H 0.67606 0.38084 0.29708
 H2725 H 0.74103 0.44323 0.28620
 H2726 H 0.75252 0.45780 0.27446
 H2727 H 0.71958 0.47430 0.26283
 H2728 H 0.70807 0.45957 0.27449
 C2729 C 0.68753 0.89582 0.79683
 C2730 C 0.69729 0.90136 0.80235
 C2731 C 0.70295 0.89578 0.81198
 C2732 C 0.69887 0.88473 0.81612
 C2733 C 0.68903 0.87905 0.81068
 C2734 C 0.68341 0.88474 0.80096
 C2735 C 0.70178 0.91260 0.79799
 C2736 C 0.70596 0.92186 0.79438
 C2737 C 0.71136 0.93242 0.79008
 C2738 C 0.71648 0.94109 0.78623
 C2739 C 0.72322 0.95087 0.78128
 C2740 C 0.73568 0.95107 0.78274
 C2741 C 0.74260 0.95934 0.77648
 C2742 C 0.73713 0.96757 0.76874
 C2743 C 0.72458 0.96781 0.76783
 C2744 C 0.71765 0.95943 0.77403
 H2745 H 0.68312 0.90002 0.78930
 H2746 H 0.71057 0.89995 0.81627
 H2747 H 0.70349 0.88070 0.82358
 H2748 H 0.67586 0.88069 0.79648
 H2749 H 0.74009 0.94446 0.78829
 H2750 H 0.75228 0.95899 0.77724
 H2751 H 0.72022 0.97396 0.76174
 H2752 H 0.70802 0.95928 0.77274
 C2753 C 0.18790 0.39578 0.79739
 C2754 C 0.19779 0.40116 0.80285
 C2755 C 0.20342 0.39548 0.81244
 C2756 C 0.19919 0.38449 0.81660
 C2757 C 0.18923 0.37896 0.81121
 C2758 C 0.18364 0.38476 0.80154
 C2759 C 0.20245 0.41233 0.79844
 C2760 C 0.20673 0.42152 0.79475
 C2761 C 0.21221 0.43201 0.79035
 C2762 C 0.21735 0.44062 0.78639
 C2763 C 0.22406 0.45036 0.78130
 C2764 C 0.23660 0.45008 0.78181
 C2765 C 0.24334 0.45840 0.77540
 C2766 C 0.23761 0.46717 0.76847
 C2767 C 0.22504 0.46786 0.76852
 C2768 C 0.21828 0.45943 0.77486
 H2769 H 0.18351 0.40006 0.78990
 H2770 H 0.21113 0.39953 0.81668
 H2771 H 0.20380 0.38036 0.82400
 H2772 H 0.17597 0.38085 0.79713
 H2773 H 0.24117 0.44309 0.78673
 H2774 H 0.25302 0.45769 0.77541
 H2775 H 0.22047 0.47443 0.76306
 H2776 H 0.20859 0.45967 0.77431
 C2777 C 0.20323 0.89565 0.31239
 C2778 C 0.19757 0.90131 0.30281
 C2779 C 0.18767 0.89590 0.29739
 C2780 C 0.18343 0.88488 0.30157
 C2781 C 0.18907 0.87910 0.31124
 C2782 C 0.19904 0.88465 0.31658
 C2783 C 0.20220 0.91248 0.29835
 C2784 C 0.20645 0.92166 0.29462
 C2785 C 0.21189 0.93214 0.29012
 C2786 C 0.21698 0.94074 0.28605
 C2787 C 0.22362 0.95044 0.28080
 C2788 C 0.21773 0.95955 0.27449
 C2789 C 0.22438 0.96794 0.26799
 C2790 C 0.23694 0.96719 0.26766
 C2791 C 0.24278 0.95839 0.27445
 C2792 C 0.23616 0.95010 0.28102
 H2793 H 0.21096 0.89971 0.31660
 H2794 H 0.18324 0.90016 0.28991
 H2795 H 0.17577 0.88095 0.29719
 H2796 H 0.20370 0.88054 0.32396
 H2797 H 0.20803 0.95984 0.27416
 H2798 H 0.21972 0.97454 0.26264
 H2799 H 0.25246 0.95764 0.27424
 H2800 H 0.24081 0.94310 0.28584
 C2801 C 0.39596 0.29682 0.68714
 C2802 C 0.40162 0.30244 0.69674
 C2803 C 0.39610 0.31220 0.70231
 C2804 C 0.38497 0.31634 0.69830
 C2805 C 0.37917 0.31075 0.68865
 C2806 C 0.38483 0.30093 0.68312
 C2807 C 0.41284 0.29790 0.70117
 C2808 C 0.42205 0.29393 0.70517
 C2809 C 0.43252 0.28908 0.71032
 C2810 C 0.44109 0.28474 0.71524
 C2811 C 0.45072 0.27934 0.72187
 C2812 C 0.45156 0.28159 0.73411
 C2813 C 0.45968 0.27517 0.74108
 C2814 C 0.46710 0.26645 0.73588
 C2815 C 0.46668 0.26464 0.72350
 C2816 C 0.45845 0.27102 0.71652
 H2817 H 0.40010 0.28920 0.68282
 H2818 H 0.40037 0.31658 0.70980
 H2819 H 0.38096 0.32389 0.70282
 H2820 H 0.38072 0.29632 0.67571
 H2821 H 0.44561 0.28796 0.73835
 H2822 H 0.45989 0.27670 0.75061
 H2823 H 0.47225 0.25786 0.71936
 H2824 H 0.45779 0.26913 0.70707
 C2825 C 0.39602 0.79690 0.18722
 C2826 C 0.40165 0.80248 0.19686
 C2827 C 0.39614 0.81224 0.20244
 C2828 C 0.38504 0.81641 0.19840
 C2829 C 0.37927 0.81088 0.18870
 C2830 C 0.38493 0.80106 0.18317
 C2831 C 0.41287 0.79795 0.20127
 C2832 C 0.42211 0.79400 0.20522
 C2833 C 0.43261 0.78918 0.21031
 C2834 C 0.44119 0.78486 0.21521
 C2835 C 0.45082 0.77947 0.22184
 C2836 C 0.45164 0.78171 0.23408
 C2837 C 0.45974 0.77529 0.24106
 C2838 C 0.46717 0.76657 0.23587
 C2839 C 0.46679 0.76478 0.22348
 C2840 C 0.45857 0.77117 0.21649
 H2841 H 0.40016 0.78928 0.18289
 H2842 H 0.40038 0.81656 0.20998
 H2843 H 0.38100 0.82393 0.20295
 H2844 H 0.38085 0.79650 0.17571
 H2845 H 0.44568 0.78808 0.23832
 H2846 H 0.45992 0.77680 0.25060
 H2847 H 0.47237 0.75801 0.21935
 H2848 H 0.45794 0.76931 0.20703
 C2849 C 0.89603 0.31208 0.20238
 C2850 C 0.90157 0.30236 0.19676
 C2851 C 0.89594 0.29678 0.18712
 C2852 C 0.88483 0.30091 0.18309
 C2853 C 0.87915 0.31071 0.18865
 C2854 C 0.88491 0.31623 0.19837
 C2855 C 0.91280 0.29783 0.20117
 C2856 C 0.92203 0.29390 0.20516
 C2857 C 0.93252 0.28909 0.21030
 C2858 C 0.94111 0.28480 0.21523
 C2859 C 0.95075 0.27944 0.22186
 C2860 C 0.95849 0.27112 0.21652
 C2861 C 0.96674 0.26476 0.22351
 C2862 C 0.96717 0.26661 0.23588
 C2863 C 0.95974 0.27533 0.24107
 C2864 C 0.95161 0.28172 0.23409
 H2865 H 0.90028 0.31640 0.20991
 H2866 H 0.90011 0.28920 0.18275
 H2867 H 0.88075 0.29638 0.17561
 H2868 H 0.88088 0.32374 0.20293
 H2869 H 0.95782 0.26921 0.20707
 H2870 H 0.97230 0.25798 0.21938
 H2871 H 0.95995 0.27688 0.25060
 H2872 H 0.94565 0.28810 0.23833
 C2873 C 0.89595 0.79729 0.68723
 C2874 C 0.90159 0.80296 0.69680
 C2875 C 0.89607 0.81275 0.70232
 C2876 C 0.88494 0.81686 0.69828
 C2877 C 0.87915 0.81122 0.68866
 C2878 C 0.88483 0.80137 0.68318
 C2879 C 0.91281 0.79842 0.70127
 C2880 C 0.92201 0.79443 0.70528
 C2881 C 0.93247 0.78955 0.71042
 C2882 C 0.94103 0.78518 0.71533
 C2883 C 0.95065 0.77974 0.72193
 C2884 C 0.95154 0.78198 0.73417
 C2885 C 0.95968 0.77555 0.74111
 C2886 C 0.96708 0.76683 0.73588
 C2887 C 0.96661 0.76502 0.72350
 C2888 C 0.95835 0.77141 0.71655
 H2889 H 0.90010 0.78965 0.68294
 H2890 H 0.90033 0.81715 0.70980
 H2891 H 0.88092 0.82443 0.70276
 H2892 H 0.88072 0.79673 0.67579
 H2893 H 0.94561 0.78836 0.73844
 H2894 H 0.95992 0.77707 0.75064
 H2895 H 0.97215 0.75823 0.71934
 H2896 H 0.95766 0.76954 0.70710
 C2897 C 0.60398 0.29761 0.31136
 C2898 C 0.59871 0.30339 0.30162
 C2899 C 0.60453 0.31308 0.29629
 C2900 C 0.61556 0.31701 0.30068
 C2901 C 0.62097 0.31130 0.31051
 C2902 C 0.61503 0.30153 0.31579
 C2903 C 0.58752 0.29915 0.29683
 C2904 C 0.57832 0.29546 0.29257
 C2905 C 0.56783 0.29086 0.28724
 C2906 C 0.55921 0.28660 0.28234
 C2907 C 0.54949 0.28099 0.27604
 C2908 C 0.54965 0.28082 0.26356
 C2909 C 0.54143 0.27382 0.25731
 C2910 C 0.53289 0.26698 0.26347
 C2911 C 0.53231 0.26769 0.27595
 C2912 C 0.54063 0.27462 0.28222
 H2913 H 0.59959 0.29004 0.31552
 H2914 H 0.60057 0.31757 0.28869
 H2915 H 0.61979 0.32453 0.29633
 H2916 H 0.61885 0.29684 0.32331
 H2917 H 0.55648 0.28567 0.25868
 H2918 H 0.54204 0.27333 0.24768
 H2919 H 0.52589 0.26233 0.28084
 H2920 H 0.54050 0.27459 0.29188
 C2921 C 0.60466 0.81261 0.79639
 C2922 C 0.59883 0.80300 0.80186
 C2923 C 0.60411 0.79735 0.81168
 C2924 C 0.61515 0.80134 0.81605
 C2925 C 0.62108 0.81105 0.81064
 C2926 C 0.61568 0.81661 0.80072
 C2927 C 0.58761 0.79877 0.79715
 C2928 C 0.57838 0.79516 0.79291
 C2929 C 0.56784 0.79070 0.78758
 C2930 C 0.55918 0.78657 0.78266
 C2931 C 0.54940 0.78112 0.77632
 C2932 C 0.54050 0.77480 0.78247
 C2933 C 0.53212 0.76797 0.77617
 C2934 C 0.53270 0.76733 0.76368
 C2935 C 0.54128 0.77414 0.75755
 C2936 C 0.54955 0.78104 0.76384
 H2937 H 0.60070 0.81699 0.78872
 H2938 H 0.59972 0.78984 0.81593
 H2939 H 0.61897 0.79679 0.82366
 H2940 H 0.61991 0.82404 0.79624
 H2941 H 0.54037 0.77471 0.79213
 H2942 H 0.52567 0.76261 0.78103
 H2943 H 0.54189 0.77368 0.74792
 H2944 H 0.55642 0.78586 0.75898
 C2945 C 0.10442 0.31294 0.79635
 C2946 C 0.09863 0.30326 0.80176
 C2947 C 0.10395 0.29756 0.81152
 C2948 C 0.11499 0.30154 0.81589
 C2949 C 0.12090 0.31130 0.81054
 C2950 C 0.11545 0.31694 0.80070
 C2951 C 0.08744 0.29896 0.79704
 C2952 C 0.07822 0.29524 0.79284
 C2953 C 0.06771 0.29062 0.78757
 C2954 C 0.05908 0.28637 0.78269
 C2955 C 0.04936 0.28083 0.77633
 C2956 C 0.04043 0.27449 0.78246
 C2957 C 0.03206 0.26767 0.77612
 C2958 C 0.03268 0.26704 0.76363
 C2959 C 0.04130 0.27384 0.75754
 C2960 C 0.04955 0.28073 0.76386
 H2961 H 0.10042 0.31737 0.78873
 H2962 H 0.09960 0.29000 0.81573
 H2963 H 0.11885 0.29691 0.82343
 H2964 H 0.11965 0.32444 0.79629
 H2965 H 0.04026 0.27441 0.79212
 H2966 H 0.02559 0.26232 0.78096
 H2967 H 0.04193 0.27339 0.74791
 H2968 H 0.05643 0.28555 0.75903
 C2969 C 0.10449 0.81344 0.29625
 C2970 C 0.09866 0.80377 0.30162
 C2971 C 0.10392 0.79805 0.31140
 C2972 C 0.11494 0.80199 0.31582
 C2973 C 0.12091 0.81174 0.31051
 C2974 C 0.11552 0.81740 0.30065
 C2975 C 0.08748 0.79948 0.29684
 C2976 C 0.07829 0.79572 0.29263
 C2977 C 0.06781 0.79104 0.28736
 C2978 C 0.05921 0.78671 0.28250
 C2979 C 0.04950 0.78107 0.27619
 C2980 C 0.04064 0.77470 0.28237
 C2981 C 0.03229 0.76780 0.27608
 C2982 C 0.03286 0.76715 0.26359
 C2983 C 0.04142 0.77397 0.25745
 C2984 C 0.04966 0.78093 0.26371
 H2985 H 0.10055 0.81788 0.28861
 H2986 H 0.09953 0.79049 0.31558
 H2987 H 0.11876 0.79733 0.32337
 H2988 H 0.11976 0.82489 0.29626
 H2989 H 0.04051 0.77464 0.29203
 H2990 H 0.02587 0.76244 0.28096
 H2991 H 0.04202 0.77351 0.24782
 H2992 H 0.05649 0.78578 0.25884
 C2993 C 0.60480 0.68749 0.70377
 C2994 C 0.59895 0.69717 0.69844
 C2995 C 0.60416 0.70286 0.68860
 C2996 C 0.61517 0.69885 0.68410
 C2997 C 0.62113 0.68909 0.68940
 C2998 C 0.61578 0.68348 0.69931
 C2999 C 0.58778 0.70141 0.70333
 C3000 C 0.57858 0.70494 0.70777
 C3001 C 0.56807 0.70920 0.71338
 C3002 C 0.55942 0.71310 0.71853
 C3003 C 0.54960 0.71823 0.72514
 C3004 C 0.54055 0.72462 0.71926
 C3005 C 0.53207 0.73109 0.72585
 C3006 C 0.53268 0.73131 0.73835
 C3007 C 0.54141 0.72441 0.74419
 C3008 C 0.54979 0.71786 0.73762
 H3009 H 0.60089 0.68307 0.71144
 H3010 H 0.59974 0.71042 0.68443
 H3011 H 0.61895 0.70343 0.67649
 H3012 H 0.62004 0.67599 0.70371
 H3013 H 0.54038 0.72506 0.70961
 H3014 H 0.52553 0.73654 0.72119
 H3015 H 0.54206 0.72454 0.75383
 H3016 H 0.55676 0.71298 0.74226
 C3017 C 0.60418 0.20245 0.18830
 C3018 C 0.59894 0.19669 0.19808
 C3019 C 0.60478 0.18698 0.20338
 C3020 C 0.61578 0.18300 0.19893
 C3021 C 0.62116 0.18868 0.18907
 C3022 C 0.61520 0.19847 0.18381
 C3023 C 0.58778 0.20091 0.20297
 C3024 C 0.57859 0.20444 0.20742
 C3025 C 0.56810 0.20871 0.21305
 C3026 C 0.55947 0.21262 0.21823
 C3027 C 0.54969 0.21776 0.22487
 C3028 C 0.54997 0.21744 0.23735
 C3029 C 0.54166 0.22404 0.24395
 C3030 C 0.53292 0.23095 0.23815
 C3031 C 0.53221 0.23069 0.22565
 C3032 C 0.54063 0.22417 0.21903
 H3033 H 0.59977 0.21003 0.18416
 H3034 H 0.60085 0.18251 0.21100
 H3035 H 0.62000 0.17547 0.20328
 H3036 H 0.61901 0.20311 0.17624
 H3037 H 0.55696 0.21255 0.24196
 H3038 H 0.54236 0.22419 0.25359
 H3039 H 0.52565 0.23613 0.22102
 H3040 H 0.54040 0.22458 0.20938
 C3041 C 0.10459 0.68709 0.20323
 C3042 C 0.09877 0.69683 0.19796
 C3043 C 0.10403 0.70261 0.18820
 C3044 C 0.11506 0.69866 0.18373
 C3045 C 0.12102 0.68885 0.18898
 C3046 C 0.11560 0.68313 0.19879
 C3047 C 0.08761 0.70108 0.20288
 C3048 C 0.07844 0.70464 0.20735
 C3049 C 0.06797 0.70896 0.21300
 C3050 C 0.05936 0.71291 0.21819
 C3051 C 0.04959 0.71808 0.22483
 C3052 C 0.04051 0.72448 0.21899
 C3053 C 0.03208 0.73098 0.22562
 C3054 C 0.03278 0.73124 0.23812
 C3055 C 0.04154 0.72434 0.24392
 C3056 C 0.04986 0.71776 0.23731
 H3057 H 0.10064 0.68259 0.21083
 H3058 H 0.09963 0.71021 0.18409
 H3059 H 0.11890 0.70334 0.17621
 H3060 H 0.11982 0.67558 0.20312
 H3061 H 0.04028 0.72489 0.20935
 H3062 H 0.02552 0.73642 0.22099
 H3063 H 0.04224 0.72448 0.25355
 H3064 H 0.05686 0.71287 0.24192
 C3065 C 0.10449 0.18699 0.70346
 C3066 C 0.09879 0.19682 0.69825
 C3067 C 0.10414 0.20265 0.68857
 C3068 C 0.11514 0.19862 0.68410
 C3069 C 0.12096 0.18870 0.68926
 C3070 C 0.11547 0.18295 0.69902
 C3071 C 0.08763 0.20108 0.70312
 C3072 C 0.07844 0.20463 0.70754
 C3073 C 0.06794 0.20892 0.71314
 C3074 C 0.05931 0.21284 0.71829
 C3075 C 0.04952 0.21798 0.72491
 C3076 C 0.04049 0.22442 0.71904
 C3077 C 0.03205 0.23092 0.72564
 C3078 C 0.03269 0.23114 0.73814
 C3079 C 0.04140 0.22420 0.74397
 C3080 C 0.04974 0.21762 0.73738
 H3081 H 0.10047 0.18246 0.71100
 H3082 H 0.09983 0.21033 0.68452
 H3083 H 0.11904 0.20332 0.67661
 H3084 H 0.11960 0.17533 0.70330
 H3085 H 0.04030 0.22486 0.70939
 H3086 H 0.02552 0.23639 0.72100
 H3087 H 0.04207 0.22432 0.75361
 H3088 H 0.05670 0.21271 0.74201
 C3089 C 0.39558 0.70288 0.31204
 C3090 C 0.40122 0.69732 0.30239
 C3091 C 0.39572 0.68758 0.29681
 C3092 C 0.38464 0.68338 0.30090
 C3093 C 0.37889 0.68890 0.31066
 C3094 C 0.38453 0.69873 0.31615
 C3095 C 0.41246 0.70191 0.29806
 C3096 C 0.42171 0.70614 0.29447
 C3097 C 0.43227 0.71160 0.29018
 C3098 C 0.44095 0.71673 0.28633
 C3099 C 0.45075 0.72344 0.28135
 C3100 C 0.45930 0.71785 0.27409
 C3101 C 0.46771 0.72473 0.26786
 C3102 C 0.46751 0.73726 0.26875
 C3103 C 0.45928 0.74276 0.27650
 C3104 C 0.45098 0.73588 0.28280
 H3105 H 0.39972 0.71049 0.31639
 H3106 H 0.39997 0.68325 0.28926
 H3107 H 0.38063 0.67584 0.29639
 H3108 H 0.38047 0.70327 0.32364
 H3109 H 0.45913 0.70824 0.27281
 H3110 H 0.47385 0.72035 0.26177
 H3111 H 0.45896 0.75241 0.27725
 H3112 H 0.44439 0.74030 0.28836
 C3113 C 0.39568 0.20262 0.81214
 C3114 C 0.40135 0.19699 0.80253
 C3115 C 0.39585 0.18722 0.79699
 C3116 C 0.38475 0.18307 0.80108
 C3117 C 0.37898 0.18865 0.81078
 C3118 C 0.38461 0.19850 0.81623
 C3119 C 0.41259 0.20157 0.79820
 C3120 C 0.42184 0.20582 0.79460
 C3121 C 0.43238 0.21131 0.79030
 C3122 C 0.44103 0.21647 0.78642
 C3123 C 0.45079 0.22320 0.78140
 C3124 C 0.45931 0.21762 0.77408
 C3125 C 0.46767 0.22452 0.76779
 C3126 C 0.46745 0.23705 0.76869
 C3127 C 0.45926 0.24253 0.77648
 C3128 C 0.45101 0.23564 0.78283
 H3129 H 0.39981 0.21025 0.81644
 H3130 H 0.40011 0.18285 0.78948
 H3131 H 0.38075 0.17550 0.79660
 H3132 H 0.38052 0.20311 0.82366
 H3133 H 0.45915 0.20802 0.77280
 H3134 H 0.47378 0.22015 0.76167
 H3135 H 0.45892 0.25219 0.77724
 H3136 H 0.44444 0.24005 0.78844
 C3137 C 0.89581 0.70286 0.81187
 C3138 C 0.90143 0.69722 0.80225
 C3139 C 0.89591 0.68747 0.79672
 C3140 C 0.88483 0.68332 0.80084
 C3141 C 0.87910 0.68890 0.81057
 C3142 C 0.88475 0.69875 0.81601
 C3143 C 0.91268 0.70175 0.79791
 C3144 C 0.92194 0.70597 0.79431
 C3145 C 0.93249 0.71144 0.79003
 C3146 C 0.94113 0.71660 0.78617
 C3147 C 0.95088 0.72339 0.78121
 C3148 C 0.95950 0.71787 0.77397
 C3149 C 0.96785 0.72483 0.76774
 C3150 C 0.96751 0.73736 0.76862
 C3151 C 0.95921 0.74278 0.77634
 C3152 C 0.95098 0.73583 0.78263
 H3153 H 0.89996 0.71048 0.81617
 H3154 H 0.90015 0.68309 0.78920
 H3155 H 0.88080 0.67577 0.79636
 H3156 H 0.88069 0.70334 0.82347
 H3157 H 0.95943 0.70826 0.77271
 H3158 H 0.97404 0.72051 0.76167
 H3159 H 0.95879 0.75243 0.77708
 H3160 H 0.94432 0.74020 0.78817
 C3161 C 0.89567 0.20303 0.31192
 C3162 C 0.90140 0.19726 0.30244
 C3163 C 0.89600 0.18734 0.29707
 C3164 C 0.88493 0.18317 0.30122
 C3165 C 0.87910 0.18888 0.31081
 C3166 C 0.88462 0.19889 0.31608
 C3167 C 0.91264 0.20179 0.29807
 C3168 C 0.92190 0.20597 0.29443
 C3169 C 0.93245 0.21138 0.29009
 C3170 C 0.94111 0.21651 0.28621
 C3171 C 0.95088 0.22327 0.28124
 C3172 C 0.95100 0.23570 0.28266
 C3173 C 0.95927 0.24264 0.27638
 C3174 C 0.96756 0.23720 0.26867
 C3175 C 0.96786 0.22467 0.26779
 C3176 C 0.95949 0.21772 0.27400
 H3177 H 0.89972 0.21077 0.31609
 H3178 H 0.90032 0.18286 0.28965
 H3179 H 0.88102 0.17549 0.29687
 H3180 H 0.88047 0.20359 0.32342
 H3181 H 0.94435 0.24009 0.28819
 H3182 H 0.95887 0.25229 0.27713
 H3183 H 0.97406 0.22033 0.26173
 H3184 H 0.95940 0.20812 0.27274
 C3185 C 0.31237 0.29686 0.60403
 C3186 C 0.30273 0.30257 0.59844
 C3187 C 0.29710 0.31225 0.60401
 C3188 C 0.30109 0.31624 0.61513
 C3189 C 0.31080 0.31059 0.62086
 C3190 C 0.31639 0.30083 0.61515
 C3191 C 0.29829 0.29821 0.58721
 C3192 C 0.29426 0.29443 0.57798
 C3193 C 0.28908 0.28978 0.56749
 C3194 C 0.28419 0.28555 0.55890
 C3195 C 0.27771 0.28013 0.54922
 C3196 C 0.28344 0.27220 0.54138
 C3197 C 0.27669 0.26563 0.53315
 C3198 C 0.26416 0.26687 0.53283
 C3199 C 0.25856 0.27523 0.54034
 C3200 C 0.26531 0.28185 0.54847
 H3201 H 0.31675 0.28930 0.59983
 H3202 H 0.28957 0.31668 0.59980
 H3203 H 0.29650 0.32373 0.61917
 H3204 H 0.32385 0.29621 0.61922
 H3205 H 0.29302 0.27072 0.54198
 H3206 H 0.28113 0.25911 0.52753
 H3207 H 0.24891 0.27627 0.54023
 H3208 H 0.26078 0.28791 0.55451
 C3209 C 0.29734 0.81235 0.10378
 C3210 C 0.30293 0.80264 0.09821
 C3211 C 0.31257 0.79692 0.10381
 C3212 C 0.31659 0.80089 0.11493
 C3213 C 0.31101 0.81066 0.12065
 C3214 C 0.30133 0.81633 0.11489
 C3215 C 0.29840 0.79830 0.08701
 C3216 C 0.29420 0.79462 0.07782
 C3217 C 0.28875 0.79020 0.06737
 C3218 C 0.28360 0.78623 0.05879
 C3219 C 0.27684 0.78118 0.04910
 C3220 C 0.28226 0.77329 0.04102
 C3221 C 0.27524 0.76713 0.03269
 C3222 C 0.26275 0.76873 0.03251
 C3223 C 0.25747 0.77704 0.04029
 C3224 C 0.26448 0.78326 0.04851
 H3225 H 0.28982 0.81680 0.09956
 H3226 H 0.31693 0.78935 0.09961
 H3227 H 0.32405 0.79626 0.11901
 H3228 H 0.29676 0.82384 0.11892
 H3229 H 0.29180 0.77152 0.04148
 H3230 H 0.27945 0.76060 0.02690
 H3231 H 0.24785 0.77836 0.04030
 H3232 H 0.26019 0.78931 0.05475
 C3233 C 0.79717 0.31244 0.10382
 C3234 C 0.80281 0.30277 0.09824
 C3235 C 0.81244 0.29706 0.10384
 C3236 C 0.81644 0.30101 0.11497
 C3237 C 0.81084 0.31075 0.12069
 C3238 C 0.80114 0.31641 0.11495
 C3239 C 0.79838 0.29842 0.08700
 C3240 C 0.79436 0.29464 0.07777
 C3241 C 0.78919 0.28998 0.06729
 C3242 C 0.78431 0.28573 0.05870
 C3243 C 0.77782 0.28029 0.04905
 C3244 C 0.76542 0.28198 0.04831
 C3245 C 0.75867 0.27534 0.04021
 C3246 C 0.76427 0.26698 0.03270
 C3247 C 0.77679 0.26575 0.03300
 C3248 C 0.78355 0.27235 0.04121
 H3249 H 0.78964 0.31688 0.09960
 H3250 H 0.81682 0.28950 0.09963
 H3251 H 0.82389 0.29637 0.11904
 H3252 H 0.79655 0.32390 0.11899
 H3253 H 0.76089 0.28805 0.05435
 H3254 H 0.74901 0.27638 0.04011
 H3255 H 0.78123 0.25923 0.02738
 H3256 H 0.79313 0.27088 0.04179
 C3257 C 0.81264 0.79686 0.60391
 C3258 C 0.80296 0.80249 0.59831
 C3259 C 0.79730 0.81218 0.60384
 C3260 C 0.80127 0.81623 0.61494
 C3261 C 0.81099 0.81065 0.62070
 C3262 C 0.81664 0.80090 0.61502
 C3263 C 0.79847 0.79809 0.58711
 C3264 C 0.79430 0.79437 0.57792
 C3265 C 0.78887 0.78992 0.56747
 C3266 C 0.78372 0.78594 0.55890
 C3267 C 0.77692 0.78091 0.54924
 C3268 C 0.78228 0.77301 0.54112
 C3269 C 0.77521 0.76687 0.53283
 C3270 C 0.76272 0.76850 0.53270
 C3271 C 0.75750 0.77684 0.54051
 C3272 C 0.76456 0.78303 0.54870
 H3273 H 0.81705 0.78930 0.59974
 H3274 H 0.78974 0.81656 0.59962
 H3275 H 0.79665 0.82372 0.61895
 H3276 H 0.82413 0.79634 0.61911
 H3277 H 0.79181 0.77122 0.54154
 H3278 H 0.77937 0.76035 0.52700
 H3279 H 0.74788 0.77820 0.54057
 H3280 H 0.76032 0.78908 0.55496
 C3281 C 0.29729 0.68841 0.39601
 C3282 C 0.30304 0.69817 0.40131
 C3283 C 0.31268 0.70362 0.39548
 C3284 C 0.31657 0.69935 0.38443
 C3285 C 0.31088 0.68953 0.37898
 C3286 C 0.30117 0.68411 0.38494
 C3287 C 0.29886 0.70292 0.41250
 C3288 C 0.29533 0.70728 0.42169
 C3289 C 0.29104 0.71282 0.43218
 C3290 C 0.28711 0.71796 0.44079
 C3291 C 0.28196 0.72458 0.45055
 C3292 C 0.28241 0.73709 0.45038
 C3293 C 0.27586 0.74372 0.45870
 C3294 C 0.26887 0.73790 0.46734
 C3295 C 0.26899 0.72535 0.46792
 C3296 C 0.27546 0.71871 0.45950
 H3297 H 0.28977 0.68416 0.40041
 H3298 H 0.31716 0.71123 0.39946
 H3299 H 0.32403 0.70382 0.38021
 H3300 H 0.29653 0.67656 0.38110
 H3301 H 0.28736 0.74174 0.44348
 H3302 H 0.27580 0.75339 0.45807
 H3303 H 0.26347 0.72071 0.47438
 H3304 H 0.27495 0.70904 0.45964
 C3305 C 0.31272 0.20359 0.89563
 C3306 C 0.30311 0.19813 0.90146
 C3307 C 0.29737 0.18835 0.89618
 C3308 C 0.30126 0.18403 0.88513
 C3309 C 0.31096 0.18946 0.87917
 C3310 C 0.31663 0.19931 0.88459
 C3311 C 0.29891 0.20285 0.91265
 C3312 C 0.29533 0.20714 0.92185
 C3313 C 0.29093 0.21256 0.93234
 C3314 C 0.28686 0.21758 0.94095
 C3315 C 0.28150 0.22405 0.95069
 C3316 C 0.27507 0.21799 0.95957
 C3317 C 0.26834 0.22445 0.96792
 C3318 C 0.26790 0.23699 0.96734
 C3319 C 0.27482 0.24300 0.95878
 C3320 C 0.28162 0.23656 0.95053
 H3321 H 0.31718 0.21122 0.89960
 H3322 H 0.28986 0.18409 0.90059
 H3323 H 0.29664 0.17647 0.88130
 H3324 H 0.32408 0.20380 0.88037
 H3325 H 0.27482 0.20831 0.95970
 H3326 H 0.26290 0.21967 0.97435
 H3327 H 0.27452 0.25267 0.95817
 H3328 H 0.28652 0.24134 0.94368
 C3329 C 0.81297 0.70309 0.89592
 C3330 C 0.80330 0.69752 0.90157
 C3331 C 0.79755 0.68790 0.89604
 C3332 C 0.80145 0.68385 0.88490
 C3333 C 0.81119 0.68938 0.87910
 C3334 C 0.81689 0.69907 0.88477
 C3335 C 0.79893 0.70194 0.91282
 C3336 C 0.79494 0.70578 0.92205
 C3337 C 0.78979 0.71049 0.93254
 C3338 C 0.78487 0.71474 0.94113
 C3339 C 0.77830 0.72013 0.95078
 C3340 C 0.76590 0.71838 0.95146
 C3341 C 0.75906 0.72493 0.95958
 C3342 C 0.76455 0.73327 0.96717
 C3343 C 0.77707 0.73456 0.96692
 C3344 C 0.78392 0.72805 0.95869
 H3345 H 0.81743 0.71060 0.90009
 H3346 H 0.79000 0.68356 0.90030
 H3347 H 0.79678 0.67641 0.88089
 H3348 H 0.82438 0.70360 0.88066
 H3349 H 0.76145 0.71233 0.94536
 H3350 H 0.74941 0.72385 0.95964
 H3351 H 0.78142 0.74106 0.97261
 H3352 H 0.79349 0.72956 0.95816
 C3353 C 0.79638 0.18735 0.39559
 C3354 C 0.80197 0.19691 0.40137
 C3355 C 0.81176 0.20257 0.39600
 C3356 C 0.81597 0.19866 0.38491
 C3357 C 0.81043 0.18902 0.37901
 C3358 C 0.80056 0.18343 0.38451
 C3359 C 0.79733 0.20112 0.41259
 C3360 C 0.79308 0.20471 0.42180
 C3361 C 0.78763 0.20911 0.43229
 C3362 C 0.78257 0.21316 0.44089
 C3363 C 0.77599 0.21847 0.45059
 C3364 C 0.78196 0.22486 0.45954
 C3365 C 0.77540 0.23150 0.46789
 C3366 C 0.76284 0.23190 0.46723
 C3367 C 0.75691 0.22504 0.45858
 C3368 C 0.76345 0.21832 0.45034
 H3369 H 0.78874 0.18295 0.39962
 H3370 H 0.81611 0.21005 0.40036
 H3371 H 0.82355 0.20324 0.38101
 H3372 H 0.79598 0.17603 0.38033
 H3373 H 0.79167 0.22514 0.45974
 H3374 H 0.78012 0.23691 0.47437
 H3375 H 0.74722 0.22531 0.45790
 H3376 H 0.75874 0.21345 0.44343
 C3377 C 0.68858 0.29722 0.39600
 C3378 C 0.69835 0.30298 0.40129
 C3379 C 0.70378 0.31261 0.39547
 C3380 C 0.69948 0.31650 0.38443
 C3381 C 0.68963 0.31081 0.37900
 C3382 C 0.68424 0.30110 0.38494
 C3383 C 0.70311 0.29882 0.41248
 C3384 C 0.70743 0.29527 0.42168
 C3385 C 0.71288 0.29090 0.43218
 C3386 C 0.71789 0.28685 0.44081
 C3387 C 0.72433 0.28149 0.45057
 C3388 C 0.73688 0.28160 0.45048
 C3389 C 0.74328 0.27478 0.45875
 C3390 C 0.73720 0.26786 0.46726
 C3391 C 0.72463 0.26832 0.46778
 C3392 C 0.71821 0.27506 0.45941
 H3393 H 0.68434 0.28970 0.40040
 H3394 H 0.71140 0.31710 0.39944
 H3395 H 0.70394 0.32396 0.38023
 H3396 H 0.67667 0.29645 0.38110
 H3397 H 0.74170 0.28650 0.44367
 H3398 H 0.75297 0.27447 0.45818
 H3399 H 0.71980 0.26287 0.47416
 H3400 H 0.70851 0.27482 0.45949
 C3401 C 0.68803 0.79748 0.89604
 C3402 C 0.69766 0.80320 0.90159
 C3403 C 0.70323 0.81288 0.89597
 C3404 C 0.69917 0.81685 0.88485
 C3405 C 0.68946 0.81117 0.87916
 C3406 C 0.68395 0.80142 0.88492
 C3407 C 0.70210 0.79881 0.91282
 C3408 C 0.70591 0.79479 0.92205
 C3409 C 0.71055 0.78959 0.93254
 C3410 C 0.71474 0.78463 0.94114
 C3411 C 0.72006 0.77804 0.95081
 C3412 C 0.72792 0.78362 0.95881
 C3413 C 0.73437 0.77675 0.96706
 C3414 C 0.73309 0.76426 0.96724
 C3415 C 0.72482 0.75880 0.95956
 C3416 C 0.71831 0.76566 0.95142
 H3417 H 0.68370 0.78992 0.90027
 H3418 H 0.71076 0.81733 0.90015
 H3419 H 0.70369 0.82435 0.88077
 H3420 H 0.67650 0.79676 0.88090
 H3421 H 0.72943 0.79317 0.95833
 H3422 H 0.74084 0.78108 0.97281
 H3423 H 0.72375 0.74917 0.95955
 H3424 H 0.71230 0.76124 0.94525
 C3425 C 0.20256 0.31160 0.89606
 C3426 C 0.19693 0.30179 0.90140
 C3427 C 0.18735 0.29621 0.89563
 C3428 C 0.18337 0.30041 0.88458
 C3429 C 0.18892 0.31031 0.87910
 C3430 C 0.19859 0.31584 0.88500
 C3431 C 0.20120 0.29715 0.91261
 C3432 C 0.20484 0.29293 0.92182
 C3433 C 0.20929 0.28755 0.93232
 C3434 C 0.21336 0.28252 0.94093
 C3435 C 0.21866 0.27597 0.95065
 C3436 C 0.21844 0.26345 0.95044
 C3437 C 0.22512 0.25690 0.95870
 C3438 C 0.23203 0.26281 0.96733
 C3439 C 0.23171 0.27535 0.96796
 C3440 C 0.22510 0.28191 0.95959
 H3441 H 0.21005 0.31594 0.90041
 H3442 H 0.18298 0.28855 0.89964
 H3443 H 0.17596 0.29585 0.88039
 H3444 H 0.20314 0.32343 0.88113
 H3445 H 0.21353 0.25876 0.94355
 H3446 H 0.22534 0.24724 0.95804
 H3447 H 0.23716 0.28005 0.97443
 H3448 H 0.22544 0.29160 0.95977
 C3449 C 0.20276 0.81159 0.39603
 C3450 C 0.19714 0.80179 0.40141
 C3451 C 0.18756 0.79618 0.39565
 C3452 C 0.18357 0.80037 0.38460
 C3453 C 0.18910 0.81026 0.37910
 C3454 C 0.19878 0.81580 0.38497
 C3455 C 0.20142 0.79723 0.41263
 C3456 C 0.20511 0.79312 0.42187
 C3457 C 0.20966 0.78790 0.43241
 C3458 C 0.21385 0.78302 0.44104
 C3459 C 0.21934 0.77663 0.45076
 C3460 C 0.21928 0.76411 0.45064
 C3461 C 0.22615 0.75772 0.45886
 C3462 C 0.23309 0.76379 0.46736
 C3463 C 0.23261 0.77633 0.46790
 C3464 C 0.22580 0.78274 0.45957
 H3465 H 0.21025 0.81595 0.40037
 H3466 H 0.18320 0.78853 0.39968
 H3467 H 0.17614 0.79580 0.38042
 H3468 H 0.20332 0.82340 0.38109
 H3469 H 0.21435 0.75930 0.44385
 H3470 H 0.22648 0.74806 0.45828
 H3471 H 0.23806 0.78114 0.47429
 H3472 H 0.22600 0.79242 0.45967
 C3473 C 0.68809 0.70267 0.60398
 C3474 C 0.69776 0.69701 0.59841
 C3475 C 0.70341 0.68734 0.60399
 C3476 C 0.69939 0.68335 0.61512
 C3477 C 0.68964 0.68898 0.62084
 C3478 C 0.68406 0.69871 0.61510
 C3479 C 0.70212 0.70149 0.58718
 C3480 C 0.70579 0.70567 0.57797
 C3481 C 0.71019 0.71113 0.56750
 C3482 C 0.71412 0.71631 0.55892
 C3483 C 0.71910 0.72315 0.54925
 C3484 C 0.72697 0.71785 0.54106
 C3485 C 0.73308 0.72495 0.53276
 C3486 C 0.73146 0.73741 0.53271
 C3487 C 0.72316 0.74259 0.54060
 C3488 C 0.71700 0.73549 0.54879
 H3489 H 0.68369 0.71022 0.59977
 H3490 H 0.71096 0.68293 0.59979
 H3491 H 0.70397 0.67586 0.61919
 H3492 H 0.67657 0.70333 0.61913
 H3493 H 0.72876 0.70833 0.54142
 H3494 H 0.73959 0.72082 0.52688
 H3495 H 0.72182 0.75218 0.54072
 H3496 H 0.71097 0.73969 0.55511
 C3497 C 0.68807 0.20255 0.10383
 C3498 C 0.69770 0.19684 0.09823
 C3499 C 0.70336 0.18719 0.10383
 C3500 C 0.69939 0.18325 0.11499
 C3501 C 0.68968 0.18892 0.12073
 C3502 C 0.68408 0.19864 0.11498
 C3503 C 0.70205 0.20122 0.08697
 C3504 C 0.70582 0.20524 0.07773
 C3505 C 0.71044 0.21044 0.06723
 C3506 C 0.71464 0.21538 0.05865
 C3507 C 0.72001 0.22197 0.04902
 C3508 C 0.72794 0.21637 0.04107
 C3509 C 0.73446 0.22322 0.03287
 C3510 C 0.73318 0.23572 0.03270
 C3511 C 0.72483 0.24119 0.04032
 C3512 C 0.71826 0.23435 0.04841
 H3513 H 0.68367 0.21009 0.09961
 H3514 H 0.71089 0.18275 0.09961
 H3515 H 0.70399 0.17578 0.11907
 H3516 H 0.67663 0.20329 0.11905
 H3517 H 0.72944 0.20681 0.04155
 H3518 H 0.74098 0.21887 0.02716
 H3519 H 0.72376 0.25083 0.04031
 H3520 H 0.71220 0.23878 0.05454
 C3521 C 0.18814 0.70267 0.10377
 C3522 C 0.19783 0.69702 0.09821
 C3523 C 0.20345 0.68733 0.10380
 C3524 C 0.19938 0.68331 0.11490
 C3525 C 0.18961 0.68893 0.12059
 C3526 C 0.18405 0.69868 0.11486
 C3527 C 0.20225 0.70151 0.08701
 C3528 C 0.20596 0.70569 0.07781
 C3529 C 0.21041 0.71112 0.06735
 C3530 C 0.21439 0.71627 0.05877
 C3531 C 0.21942 0.72308 0.04909
 C3532 C 0.22735 0.71775 0.04097
 C3533 C 0.23349 0.72482 0.03267
 C3534 C 0.23185 0.73728 0.03255
 C3535 C 0.22349 0.74247 0.04036
 C3536 C 0.21729 0.73540 0.04856
 H3537 H 0.18377 0.71023 0.09956
 H3538 H 0.21102 0.68293 0.09962
 H3539 H 0.20394 0.67580 0.11897
 H3540 H 0.17655 0.70329 0.11887
 H3541 H 0.22914 0.70823 0.04137
 H3542 H 0.24003 0.72068 0.02683
 H3543 H 0.22211 0.75207 0.04042
 H3544 H 0.21121 0.73963 0.05482
 C3545 C 0.20321 0.18714 0.60398
 C3546 C 0.19754 0.19679 0.59838
 C3547 C 0.18791 0.20250 0.60397
 C3548 C 0.18391 0.19858 0.61512
 C3549 C 0.18951 0.18885 0.62086
 C3550 C 0.19923 0.18319 0.61513
 C3551 C 0.20189 0.20116 0.58711
 C3552 C 0.20566 0.20517 0.57787
 C3553 C 0.21030 0.21036 0.56737
 C3554 C 0.21451 0.21529 0.55878
 C3555 C 0.21991 0.22185 0.54914
 C3556 C 0.21817 0.23423 0.54851
 C3557 C 0.22477 0.24106 0.54043
 C3558 C 0.23313 0.23556 0.53283
 C3559 C 0.23439 0.22306 0.53303
 C3560 C 0.22784 0.21623 0.54122
 H3561 H 0.21074 0.18271 0.59976
 H3562 H 0.18351 0.21004 0.59975
 H3563 H 0.17645 0.20322 0.61918
 H3564 H 0.20383 0.17572 0.61921
 H3565 H 0.21210 0.23868 0.55463
 H3566 H 0.22370 0.25069 0.54041
 H3567 H 0.24092 0.21870 0.52734
 H3568 H 0.22934 0.20667 0.54172
   
