data_POSCAR
  _audit_creation_date              2014-09-24
  _audit_creation_method            'ToBaCCo'
  _symmetry_space_group_name_H-M    'P1'
  _symmetry_Int_Tables_number       1
  _symmetry_cell_setting            triclinic
  loop_
  _symmetry_equiv_pos_as_xyz
 x,y,z
_cell_length_a 87.2430
_cell_length_b 87.2297
_cell_length_c 87.2595
_cell_angle_alpha 89.999000
_cell_angle_beta 89.964000
_cell_angle_gamma 90.018300
loop_
  _atom_site_label
  _atom_site_type_symbol
  _atom_site_fract_x
  _atom_site_fract_y
  _atom_site_fract_z
C1 C 0.35736 0.33755 0.33756
 C2 C 0.35071 0.35072 0.33110
 C3 C 0.33754 0.35739 0.33757
 C4 C 0.33108 0.35074 0.35075
 C5 C 0.33753 0.33756 0.35741
 C6 C 0.35070 0.33109 0.35074
 H7 H 0.35573 0.35573 0.32091
 H8 H 0.32090 0.35576 0.35576
 H9 H 0.35571 0.32091 0.35576
 C10 C 0.35741 0.83747 -0.16324
 C11 C 0.35068 0.85066 -0.16969
 C12 C 0.33745 0.85735 -0.16325
 C13 C 0.33106 0.85065 -0.15002
 C14 C 0.33756 0.83751 -0.14335
 C15 C 0.35073 0.83106 -0.15001
 H16 H 0.35569 0.85568 -0.17988
 H17 H 0.32088 0.85558 -0.14491
 H18 H 0.35570 0.82090 -0.14490
 C19 C 0.85702 0.33784 -0.16290
 C20 C 0.85037 0.33140 -0.14973
 C21 C 0.83721 0.33786 -0.14307
 C22 C 0.83073 0.35102 -0.14972
 C23 C 0.83716 0.35772 -0.16295
 C24 C 0.85037 0.35100 -0.16938
 H25 H 0.85538 0.32122 -0.14471
 H26 H 0.82056 0.35597 -0.14462
 H27 H 0.85547 0.35594 -0.17957
 C28 C 0.85714 0.83781 0.33720
 C29 C 0.85046 0.85094 0.33070
 C30 C 0.83723 0.85764 0.33712
 C31 C 0.83082 0.85095 0.35036
 C32 C 0.83733 0.83781 0.35704
 C33 C 0.85050 0.83137 0.35039
 H34 H 0.85554 0.85587 0.32051
 H35 H 0.82063 0.85588 0.35545
 H36 H 0.85554 0.82121 0.35543
 C37 C 0.64284 0.66280 0.33764
 C38 C 0.64949 0.64962 0.33119
 C39 C 0.66264 0.64295 0.33766
 C40 C 0.66910 0.64961 0.35084
 C41 C 0.66265 0.66279 0.35748
 C42 C 0.64949 0.66927 0.35081
 H43 H 0.64448 0.64460 0.32101
 H44 H 0.67927 0.64458 0.35586
 H45 H 0.64448 0.67946 0.35582
 C46 C 0.64301 0.16252 -0.16281
 C47 C 0.64965 0.16897 -0.14964
 C48 C 0.66283 0.16254 -0.14300
 C49 C 0.66934 0.14940 -0.14968
 C50 C 0.66294 0.14270 -0.16291
 C51 C 0.64971 0.14938 -0.16932
 H52 H 0.64460 0.17912 -0.14460
 H53 H 0.67953 0.14448 -0.14459
 H54 H 0.64463 0.14445 -0.17950
 C55 C 0.14305 0.66255 -0.16284
 C56 C 0.14970 0.66899 -0.14967
 C57 C 0.16286 0.66253 -0.14302
 C58 C 0.16932 0.64935 -0.14967
 C59 C 0.16290 0.64265 -0.16289
 C60 C 0.14969 0.64937 -0.16932
 H61 H 0.14469 0.67918 -0.14465
 H62 H 0.17949 0.64440 -0.14458
 H63 H 0.14459 0.64444 -0.17950
 C64 C 0.14284 0.16272 0.33743
 C65 C 0.14951 0.14956 0.33096
 C66 C 0.16268 0.14290 0.33742
 C67 C 0.16912 0.14954 0.35061
 C68 C 0.16264 0.16270 0.35728
 C69 C 0.14948 0.16917 0.35062
 H70 H 0.14452 0.14456 0.32076
 H71 H 0.17929 0.14452 0.35562
 H72 H 0.14445 0.17934 0.35564
 C73 C 0.64294 0.33754 0.66262
 C74 C 0.64961 0.35071 0.66908
 C75 C 0.66279 0.35737 0.66263
 C76 C 0.66926 0.35070 0.64946
 C77 C 0.66280 0.33753 0.64280
 C78 C 0.64961 0.33107 0.64945
 H79 H 0.64458 0.35573 0.67926
 H80 H 0.67946 0.35571 0.64445
 H81 H 0.64460 0.32089 0.64444
 C82 C 0.64291 0.83749 1.16312
 C83 C 0.64960 0.83111 1.14988
 C84 C 0.66276 0.83759 1.14322
 C85 C 0.66924 0.85073 1.14989
 C86 C 0.66285 0.85741 1.16313
 C87 C 0.64963 0.85070 1.16957
 H88 H 0.64464 0.82094 1.14476
 H89 H 0.67941 0.85569 1.14478
 H90 H 0.64462 0.85570 1.17977
 C91 C 0.14261 0.33729 1.16288
 C92 C 0.14931 0.33087 1.14965
 C93 C 0.16248 0.33735 1.14298
 C94 C 0.16894 0.35051 1.14963
 C95 C 0.16249 0.35717 1.16281
 C96 C 0.14933 0.35051 1.16930
 H97 H 0.14436 0.32069 1.14455
 H98 H 0.17912 0.35553 1.14460
 H99 H 0.14439 0.35560 1.17948
 C100 C 0.14296 0.83736 0.66305
 C101 C 0.14969 0.85056 0.66951
 C102 C 0.16291 0.85727 0.66307
 C103 C 0.16931 0.85058 0.64984
 C104 C 0.16282 0.83744 0.64317
 C105 C 0.14966 0.83096 0.64982
 H106 H 0.14467 0.85557 0.67970
 H107 H 0.17949 0.85553 0.64474
 H108 H 0.14469 0.82080 0.64471
 C109 C 0.35735 0.66279 0.66263
 C110 C 0.35070 0.66924 0.64945
 C111 C 0.33754 0.66277 0.64279
 C112 C 0.33106 0.64960 0.64946
 C113 C 0.33751 0.64296 0.66264
 C114 C 0.35067 0.64962 0.66910
 H115 H 0.35573 0.67942 0.64443
 H116 H 0.32088 0.64458 0.64445
 H117 H 0.35568 0.64462 0.67929
 C118 C 0.35719 0.16252 1.16259
 C119 C 0.35054 0.16897 1.14943
 C120 C 0.33737 0.16251 1.14279
 C121 C 0.33089 0.14934 1.14945
 C122 C 0.33731 0.14263 1.16266
 C123 C 0.35054 0.14935 1.16907
 H124 H 0.35556 0.17916 1.14441
 H125 H 0.32071 0.14440 1.14436
 H126 H 0.35563 0.14440 1.17925
 C127 C 0.85735 0.66282 1.16246
 C128 C 0.85069 0.66928 1.14929
 C129 C 0.83751 0.66283 1.14265
 C130 C 0.83104 0.64965 1.14931
 C131 C 0.83750 0.64299 1.16247
 C132 C 0.85068 0.64964 1.16892
 H133 H 0.85571 0.67947 1.14428
 H134 H 0.82085 0.64464 1.14431
 H135 H 0.85570 0.64462 1.17910
 C136 C 0.85747 0.16285 0.66301
 C137 C 0.85074 0.14964 0.66946
 C138 C 0.83754 0.14292 0.66302
 C139 C 0.83115 0.14961 0.64979
 C140 C 0.83764 0.16275 0.64312
 C141 C 0.85079 0.16924 0.64977
 H142 H 0.85575 0.14463 0.67965
 H143 H 0.82098 0.14465 0.64468
 H144 H 0.85575 0.17940 0.64466
 C145 C 0.33742 0.35739 0.66279
 C146 C 0.35059 0.35074 0.66925
 C147 C 0.35726 0.33757 0.66278
 C148 C 0.35061 0.33111 0.64961
 C149 C 0.33743 0.33756 0.64296
 C150 C 0.33096 0.35073 0.64962
 H151 H 0.35560 0.35575 0.67943
 H152 H 0.35562 0.32092 0.64459
 H153 H 0.32078 0.35574 0.64461
 C154 C 0.33786 0.85757 0.16215
 C155 C 0.35104 0.85092 0.16860
 C156 C 0.35770 0.83775 0.16214
 C157 C 0.35104 0.83127 0.14898
 C158 C 0.33787 0.83772 0.14233
 C159 C 0.33140 0.85089 0.14898
 H160 H 0.35606 0.85595 0.17877
 H161 H 0.35606 0.82108 0.14397
 H162 H 0.32122 0.85590 0.14398
 C163 C 0.83760 0.35748 0.16238
 C164 C 0.85078 0.35083 0.16882
 C165 C 0.85744 0.33767 0.16234
 C166 C 0.85078 0.33120 0.14918
 C167 C 0.83760 0.33766 0.14254
 C168 C 0.83113 0.35083 0.14921
 H169 H 0.85579 0.35585 0.17900
 H170 H 0.85580 0.32103 0.14415
 H171 H 0.82094 0.35584 0.14421
 C172 C 0.83786 0.85783 0.66253
 C173 C 0.85103 0.85118 0.66898
 C174 C 0.85769 0.83800 0.66251
 C175 C 0.85102 0.83153 0.64935
 C176 C 0.83784 0.83799 0.64271
 C177 C 0.83139 0.85116 0.64937
 H178 H 0.85605 0.85620 0.67915
 H179 H 0.85603 0.82134 0.64434
 H180 H 0.82120 0.85618 0.64436
 C181 C 0.66278 0.64305 0.66290
 C182 C 0.64960 0.64971 0.66937
 C183 C 0.64295 0.66288 0.66291
 C184 C 0.64961 0.66934 0.64973
 C185 C 0.66278 0.66288 0.64307
 C186 C 0.66924 0.64971 0.64973
 H187 H 0.64459 0.64470 0.67956
 H188 H 0.64459 0.67952 0.64471
 H189 H 0.67942 0.64469 0.64471
 C190 C 0.66267 0.14254 0.16247
 C191 C 0.64950 0.14920 0.16893
 C192 C 0.64284 0.16238 0.16248
 C193 C 0.64951 0.16884 0.14931
 C194 C 0.66268 0.16239 0.14265
 C195 C 0.66914 0.14921 0.14930
 H196 H 0.64448 0.14418 0.17911
 H197 H 0.64450 0.17903 0.14430
 H198 H 0.67933 0.14420 0.14428
 C199 C 0.16271 0.64290 0.16243
 C200 C 0.16918 0.64955 0.14926
 C201 C 0.16273 0.66272 0.14260
 C202 C 0.14957 0.66920 0.14926
 C203 C 0.14290 0.66275 0.16244
 C204 C 0.14954 0.64957 0.16890
 H205 H 0.17936 0.64452 0.14424
 H206 H 0.14456 0.67939 0.14425
 H207 H 0.14452 0.64456 0.17909
 C208 C 0.16250 0.14239 0.66271
 C209 C 0.16897 0.14906 0.64955
 C210 C 0.16251 0.16224 0.64289
 C211 C 0.14933 0.16868 0.64954
 C212 C 0.14265 0.16221 0.66271
 C213 C 0.14931 0.14904 0.66917
 H214 H 0.17916 0.14406 0.64454
 H215 H 0.14431 0.17887 0.64453
 H216 H 0.14429 0.14402 0.67935
 C217 C 0.33757 0.64308 0.33725
 C218 C 0.35074 0.64975 0.33078
 C219 C 0.35740 0.66293 0.33723
 C220 C 0.35074 0.66939 0.35041
 C221 C 0.33757 0.66292 0.35708
 C222 C 0.33111 0.64974 0.35042
 H223 H 0.35575 0.64474 0.32059
 H224 H 0.35575 0.67957 0.35542
 H225 H 0.32093 0.64472 0.35545
 C226 C 0.33739 0.14250 0.83746
 C227 C 0.33091 0.14916 0.85062
 C228 C 0.33736 0.16234 0.85728
 C229 C 0.35054 0.16881 0.85062
 C230 C 0.35722 0.16234 0.83746
 C231 C 0.35057 0.14916 0.83100
 H232 H 0.32072 0.14414 0.85563
 H233 H 0.35555 0.17900 0.85563
 H234 H 0.35560 0.14415 0.82082
 C235 C 0.83766 0.64314 0.83745
 C236 C 0.83119 0.64982 0.85060
 C237 C 0.83763 0.66302 0.85724
 C238 C 0.85080 0.66949 0.85056
 C239 C 0.85748 0.66300 0.83741
 C240 C 0.85083 0.64981 0.83097
 H241 H 0.82101 0.64480 0.85563
 H242 H 0.85581 0.67969 0.85556
 H243 H 0.85586 0.64478 0.82080
 C244 C 0.83761 0.14262 0.33728
 C245 C 0.85077 0.14930 0.33080
 C246 C 0.85743 0.16247 0.33726
 C247 C 0.85079 0.16891 0.35045
 C248 C 0.83763 0.16243 0.35713
 C249 C 0.83116 0.14926 0.35047
 H250 H 0.85577 0.14430 0.32060
 H251 H 0.85581 0.17909 0.35547
 H252 H 0.82099 0.14423 0.35550
 C253 C 0.66273 0.35715 0.33754
 C254 C 0.66920 0.35048 0.35070
 C255 C 0.66274 0.33729 0.35735
 C256 C 0.64957 0.33082 0.35069
 C257 C 0.64291 0.33730 0.33753
 C258 C 0.64956 0.35049 0.33108
 H259 H 0.67938 0.35550 0.35571
 H260 H 0.64457 0.32063 0.35570
 H261 H 0.64454 0.35551 0.32091
 C262 C 0.66261 0.85790 0.83751
 C263 C 0.66906 0.85124 0.85068
 C264 C 0.66258 0.83808 0.85736
 C265 C 0.64940 0.83162 0.85071
 C266 C 0.64275 0.83808 0.83754
 C267 C 0.64942 0.85124 0.83106
 H268 H 0.67925 0.85625 0.85569
 H269 H 0.64437 0.82144 0.85573
 H270 H 0.64442 0.85625 0.82088
 C271 C 0.16231 0.35728 0.83754
 C272 C 0.16877 0.35061 0.85070
 C273 C 0.16231 0.33742 0.85734
 C274 C 0.14916 0.33095 0.85067
 C275 C 0.14250 0.33742 0.83751
 C276 C 0.14915 0.35061 0.83106
 H277 H 0.17894 0.35564 0.85573
 H278 H 0.14415 0.32075 0.85567
 H279 H 0.14415 0.35563 0.82089
 C280 C 0.16273 0.85760 0.33746
 C281 C 0.16918 0.85094 0.35063
 C282 C 0.16269 0.83778 0.35731
 C283 C 0.14951 0.83132 0.35066
 C284 C 0.14287 0.83778 0.33748
 C285 C 0.14955 0.85094 0.33101
 H286 H 0.17936 0.85595 0.35564
 H287 H 0.14448 0.82115 0.35568
 H288 H 0.14455 0.85595 0.32082
 O289 O 0.23084 0.98533 0.25136
 O290 O 0.25190 1.01523 0.23026
 O291 O 0.25191 0.98535 0.23025
 O292 O 0.23082 1.01521 0.25136
 O293 O 0.24874 1.01522 0.26924
 O294 O 0.26982 0.98536 0.24813
 O295 O 0.26981 1.01524 0.24814
 O296 O 0.24875 0.98534 0.26924
 Cu297 Cu 0.23957 1.00028 0.23901
 Cu298 Cu 0.26108 1.00029 0.26049
 C299 C 0.23624 0.98021 0.26386
 C300 C 0.26441 1.02036 0.23564
 C301 C 0.26443 0.98024 0.23563
 C302 C 0.23622 1.02033 0.26386
 O303 O 0.23034 0.48528 0.75179
 O304 O 0.25147 0.51515 0.73070
 O305 O 0.25145 0.48527 0.73072
 O306 O 0.23036 0.51517 0.75177
 O307 O 0.24825 0.51518 0.76968
 O308 O 0.26934 0.48527 0.74863
 O309 O 0.26935 0.51516 0.74861
 O310 O 0.24823 0.48529 0.76970
 Cu311 Cu 0.23911 0.50022 0.73944
 Cu312 Cu 0.26059 0.50022 0.76096
 C313 C 0.23572 0.48016 0.76430
 C314 C 0.26398 0.52027 0.73610
 C315 C 0.26396 0.48015 0.73612
 C316 C 0.23574 0.52030 0.76428
 O317 O 0.74846 -0.01524 0.23048
 O318 O 0.76957 0.01467 0.25151
 O319 O 0.76956 -0.01522 0.25154
 O320 O 0.74848 0.01465 0.23044
 O321 O 0.73058 0.01467 0.24837
 O322 O 0.75166 -0.01520 0.26946
 O323 O 0.75167 0.01469 0.26943
 O324 O 0.73057 -0.01522 0.24840
 Cu325 Cu 0.76082 -0.00029 0.23919
 Cu326 Cu 0.73932 -0.00026 0.26071
 C327 C 0.73595 -0.02035 0.23589
 C328 C 0.76418 0.01981 0.26402
 C329 C 0.76417 -0.02032 0.26406
 C330 C 0.73598 0.01978 0.23584
 O331 O 0.76976 0.51509 0.75177
 O332 O 0.74867 0.48522 0.73068
 O333 O 0.74867 0.51511 0.73071
 O334 O 0.76975 0.48520 0.75175
 O335 O 0.75184 0.48519 0.76966
 O336 O 0.73076 0.51509 0.74863
 O337 O 0.73076 0.48520 0.74859
 O338 O 0.75186 0.51508 0.76969
 Cu339 Cu 0.76101 0.50016 0.73943
 Cu340 Cu 0.73951 0.50014 0.76094
 C341 C 0.76437 0.52020 0.76428
 C342 C 0.73615 0.48010 0.73607
 C343 C 0.73615 0.52023 0.73612
 C344 C 0.76435 0.48007 0.76426
 O345 O 0.24850 0.48514 0.23052
 O346 O 0.26959 0.51506 0.25154
 O347 O 0.26958 0.48517 0.25158
 O348 O 0.24851 0.51503 0.23047
 O349 O 0.23060 0.51506 0.24839
 O350 O 0.25168 0.48520 0.26950
 O351 O 0.25169 0.51509 0.26945
 O352 O 0.23059 0.48517 0.24844
 Cu353 Cu 0.26084 0.50010 0.23923
 Cu354 Cu 0.23934 0.50013 0.26075
 C355 C 0.23598 0.48003 0.23593
 C356 C 0.26420 0.52020 0.26404
 C357 C 0.26419 0.48007 0.26411
 C358 C 0.23600 0.52016 0.23587
 O359 O 0.76978 0.98570 0.74840
 O360 O 0.74866 1.01558 0.76946
 O361 O 0.74867 0.98569 0.76946
 O362 O 0.76978 1.01559 0.74840
 O363 O 0.75190 1.01558 0.73048
 O364 O 0.73079 0.98568 0.75154
 O365 O 0.73078 1.01557 0.75154
 O366 O 0.75190 0.98569 0.73048
 Cu367 Cu 0.76102 1.00064 0.76073
 Cu368 Cu 0.73955 1.00063 0.73921
 C369 C 0.76441 0.98058 0.73588
 C370 C 0.73616 1.02069 0.76405
 C371 C 0.73616 0.98057 0.76405
 C372 C 0.76441 1.02071 0.73588
 O373 O 0.75162 0.51510 0.23059
 O374 O 0.73057 0.48518 0.25169
 O375 O 0.73056 0.51507 0.25171
 O376 O 0.75164 0.48521 0.23058
 O377 O 0.76956 0.48522 0.24846
 O378 O 0.74849 0.51508 0.26959
 O379 O 0.74850 0.48519 0.26957
 O380 O 0.76955 0.51510 0.24847
 Cu381 Cu 0.73930 0.50014 0.23935
 Cu382 Cu 0.76083 0.50015 0.26082
 C383 C 0.76414 0.52023 0.23597
 C384 C 0.73598 0.48006 0.26419
 C385 C 0.73597 0.52019 0.26422
 C386 C 0.76416 0.48010 0.23595
 O387 O 0.24847 -0.01538 0.73051
 O388 O 0.26954 0.01453 0.75158
 O389 O 0.26958 -0.01536 0.75154
 O390 O 0.24844 0.01451 0.73053
 O391 O 0.23055 0.01448 0.74846
 O392 O 0.25169 -0.01541 0.76948
 O393 O 0.25165 0.01448 0.76951
 O394 O 0.23058 -0.01541 0.74844
 Cu395 Cu 0.26080 -0.00042 0.73924
 Cu396 Cu 0.23932 -0.00047 0.76078
 C397 C 0.23596 -0.02052 0.73592
 C398 C 0.26416 0.01963 0.76410
 C399 C 0.26421 -0.02050 0.76406
 C400 C 0.23593 0.01962 0.73595
 O401 O 0.24827 0.26944 0.98509
 O402 O 0.26938 0.24837 1.01495
 O403 O 0.26935 0.24835 0.98507
 O404 O 0.24829 0.26945 1.01497
 O405 O 0.23038 0.25153 1.01500
 O406 O 0.25144 0.23044 0.98511
 O407 O 0.25147 0.23046 1.01498
 O408 O 0.23036 0.25152 0.98512
 Cu409 Cu 0.26062 0.26070 1.00001
 Cu410 Cu 0.23911 0.23919 1.00006
 C411 C 0.23575 0.26403 0.97999
 C412 C 0.26399 0.23586 1.02008
 C413 C 0.26395 0.23583 0.97997
 C414 C 0.23578 0.26405 1.02011
 O415 O 0.23063 0.75182 0.51499
 O416 O 0.25171 0.73078 0.48507
 O417 O 0.25172 0.73074 0.51495
 O418 O 0.23062 0.75185 0.48511
 O419 O 0.24853 0.76977 0.48512
 O420 O 0.26963 0.74866 0.51495
 O421 O 0.26962 0.74869 0.48507
 O422 O 0.24854 0.76974 0.51499
 Cu423 Cu 0.23937 0.73950 0.50003
 Cu424 Cu 0.26088 0.76101 0.50003
 C425 C 0.23603 0.76433 0.52012
 C426 C 0.26422 0.73618 0.47994
 C427 C 0.26423 0.73614 0.52006
 C428 C 0.23602 0.76438 0.48000
 O429 O 0.26977 0.75170 -0.01525
 O430 O 0.24870 0.73063 0.01466
 O431 O 0.24869 0.73060 -0.01522
 O432 O 0.26979 0.75171 0.01462
 O433 O 0.25189 0.76962 0.01463
 O434 O 0.23078 0.74851 -0.01521
 O435 O 0.23079 0.74854 0.01467
 O436 O 0.25187 0.76961 -0.01525
 Cu437 Cu 0.26103 0.73936 -0.00030
 Cu438 Cu 0.23953 0.76087 -0.00029
 C439 C 0.26438 0.76421 -0.02038
 C440 C 0.23619 0.73603 0.01979
 C441 C 0.23617 0.73599 -0.02033
 C442 C 0.26440 0.76423 0.01974
 O443 O 0.25158 0.26950 0.51516
 O444 O 0.23051 0.24843 0.48527
 O445 O 0.23051 0.24839 0.51515
 O446 O 0.25159 0.26952 0.48528
 O447 O 0.26951 0.25163 0.48526
 O448 O 0.24843 0.23049 0.51512
 O449 O 0.24843 0.23053 0.48525
 O450 O 0.26950 0.25160 0.51514
 Cu451 Cu 0.23925 0.26076 0.50022
 Cu452 Cu 0.26077 0.23927 0.50019
 C453 C 0.26410 0.26411 0.52027
 C454 C 0.23591 0.23592 0.48014
 C455 C 0.23592 0.23587 0.52025
 C456 C 0.26411 0.26414 0.48016
 O457 O 0.73054 0.75204 1.01498
 O458 O 0.75162 0.73100 0.98506
 O459 O 0.75162 0.73096 1.01493
 O460 O 0.73053 0.75208 0.98510
 O461 O 0.74844 0.77000 0.98512
 O462 O 0.76953 0.74887 1.01495
 O463 O 0.76953 0.74892 0.98507
 O464 O 0.74845 0.76995 1.01500
 Cu465 Cu 0.73928 0.73972 1.00002
 Cu466 Cu 0.76078 0.76124 1.00003
 C467 C 0.73593 0.76455 1.02012
 C468 C 0.76413 0.73641 0.97994
 C469 C 0.76413 0.73635 1.02005
 C470 C 0.73593 0.76461 0.98000
 O471 O 0.73083 0.25149 0.51503
 O472 O 0.75190 0.23037 0.48516
 O473 O 0.75191 0.23041 0.51504
 O474 O 0.73081 0.25145 0.48516
 O475 O 0.74872 0.26937 0.48511
 O476 O 0.76982 0.24833 0.51500
 O477 O 0.76980 0.24829 0.48512
 O478 O 0.74873 0.26941 0.51499
 Cu479 Cu 0.73956 0.23913 0.50010
 Cu480 Cu 0.76107 0.26065 0.50005
 C481 C 0.73622 0.26402 0.52013
 C482 C 0.76441 0.23577 0.48002
 C483 C 0.76442 0.23582 0.52014
 C484 C 0.73620 0.26396 0.48002
 O485 O 0.76952 0.25177 -0.01512
 O486 O 0.74851 0.23061 0.01478
 O487 O 0.74849 0.23063 -0.01510
 O488 O 0.76956 0.25174 0.01476
 O489 O 0.75161 0.26961 0.01481
 O490 O 0.73054 0.24850 -0.01506
 O491 O 0.73057 0.24848 0.01482
 O492 O 0.75158 0.26964 -0.01507
 Cu493 Cu 0.76082 0.23940 -0.00017
 Cu494 Cu 0.73927 0.26086 -0.00012
 C495 C 0.76410 0.26428 -0.02022
 C496 C 0.73599 0.23598 0.01992
 C497 C 0.73596 0.23600 -0.02019
 C498 C 0.76414 0.26424 0.01990
 O499 O 0.75179 0.76987 0.51507
 O500 O 0.73067 0.74876 0.48524
 O501 O 0.73071 0.74877 0.51512
 O502 O 0.75174 0.76986 0.48519
 O503 O 0.76966 0.75196 0.48517
 O504 O 0.74862 0.73088 0.51510
 O505 O 0.74858 0.73086 0.48522
 O506 O 0.76970 0.75197 0.51504
 Cu507 Cu 0.73943 0.76111 0.50016
 Cu508 Cu 0.76094 0.73962 0.50013
 C509 C 0.76431 0.76449 0.52017
 C510 C 0.73606 0.73624 0.48012
 C511 C 0.73611 0.73627 0.52024
 C512 C 0.76425 0.76447 0.48005
 O513 O 1.01514 0.23073 0.25141
 O514 O 0.98529 0.25180 0.23030
 O515 O 1.01518 0.25182 0.23033
 O516 O 0.98526 0.23070 0.25137
 O517 O 0.98522 0.24861 0.26928
 O518 O 1.01514 0.26972 0.24824
 O519 O 0.98526 0.26971 0.24821
 O520 O 1.01511 0.24863 0.26932
 Cu521 Cu 1.00022 0.23946 0.23905
 Cu522 Cu 1.00018 0.26097 0.26056
 C523 C 1.02024 0.23612 0.26392
 C524 C 0.98016 0.26431 0.23569
 C525 C 1.02028 0.26433 0.23573
 C526 C 0.98012 0.23609 0.26387
 O527 O 0.48512 0.25161 0.73058
 O528 O 0.51500 0.23049 0.75160
 O529 O 0.48512 0.23048 0.75162
 O530 O 0.51500 0.25161 0.73055
 O531 O 0.51501 0.26949 0.74848
 O532 O 0.48512 0.24837 0.76955
 O533 O 0.51501 0.24837 0.76953
 O534 O 0.48512 0.26949 0.74851
 Cu535 Cu 0.50006 0.23925 0.73929
 Cu536 Cu 0.50006 0.26073 0.76082
 C537 C 0.48000 0.26411 0.73600
 C538 C 0.52012 0.23587 0.76411
 C539 C 0.48000 0.23586 0.76414
 C540 C 0.52012 0.26412 0.73596
 O541 O -0.01512 0.26946 0.75144
 O542 O 0.01476 0.24827 0.73044
 O543 O -0.01513 0.24832 0.73040
 O544 O 0.01476 0.26940 0.75148
 O545 O 0.01469 0.25152 0.76942
 O546 O -0.01520 0.23045 0.74834
 O547 O 0.01469 0.23039 0.74838
 O548 O -0.01519 0.25158 0.76938
 Cu549 Cu -0.00017 0.26066 0.73914
 Cu550 Cu -0.00026 0.23919 0.76068
 C551 C -0.02027 0.26410 0.76395
 C552 C 0.01984 0.23576 0.73586
 C553 C -0.02028 0.23583 0.73582
 C554 C 0.01985 0.26402 0.76401
 O555 O 0.48516 0.26944 0.25161
 O556 O 0.51502 0.24833 0.23051
 O557 O 0.48514 0.24837 0.23051
 O558 O 0.51504 0.26941 0.25161
 O559 O 0.51501 0.25148 0.26950
 O560 O 0.48511 0.23045 0.24840
 O561 O 0.51499 0.23041 0.24841
 O562 O 0.48512 0.25152 0.26950
 Cu563 Cu 0.50010 0.26069 0.23926
 Cu564 Cu 0.50005 0.23917 0.26075
 C565 C 0.48002 0.26404 0.26412
 C566 C 0.52012 0.23581 0.23590
 C567 C 0.48000 0.23586 0.23590
 C568 C 0.52015 0.26400 0.26412
 O569 O 1.01540 0.76986 0.74830
 O570 O 0.98546 0.74881 0.76936
 O571 O 1.01534 0.74875 0.76935
 O572 O 0.98551 0.76991 0.74829
 O573 O 0.98549 0.75201 0.73037
 O574 O 1.01531 0.73086 0.75143
 O575 O 0.98543 0.73091 0.75144
 O576 O 1.01537 0.75197 0.73037
 Cu577 Cu 1.00043 0.76113 0.76062
 Cu578 Cu 1.00040 0.73964 0.73910
 C579 C 1.02052 0.76447 0.73578
 C580 C 0.98032 0.73631 0.76396
 C581 C 1.02044 0.73623 0.76394
 C582 C 0.98039 0.76453 0.73578
 O583 O 0.48549 0.75197 0.23031
 O584 O 0.51530 0.73089 0.25147
 O585 O 0.48542 0.73090 0.25140
 O586 O 0.51538 0.75197 0.23038
 O587 O 0.51533 0.76989 0.24828
 O588 O 0.48537 0.74882 0.26930
 O589 O 0.51526 0.74881 0.26937
 O590 O 0.48545 0.76989 0.24820
 Cu591 Cu 0.50040 0.73964 0.23909
 Cu592 Cu 0.50035 0.76116 0.26058
 C593 C 0.48036 0.76449 0.23568
 C594 C 0.52038 0.73630 0.26399
 C595 C 0.48026 0.73631 0.26390
 C596 C 0.52049 0.76449 0.23578
 O597 O -0.01482 0.76982 0.25151
 O598 O 0.01508 0.74873 0.23045
 O599 O -0.01480 0.74873 0.23044
 O600 O 0.01506 0.76981 0.25154
 O601 O 0.01503 0.75190 0.26944
 O602 O -0.01483 0.73082 0.24834
 O603 O 0.01505 0.73082 0.24836
 O604 O -0.01485 0.75191 0.26942
 Cu605 Cu 0.00013 0.76107 0.23919
 Cu606 Cu 0.00010 0.73956 0.26069
 C607 C -0.01996 0.76442 0.26402
 C608 C 0.02019 0.73622 0.23585
 C609 C -0.01993 0.73621 0.23583
 C610 C 0.02016 0.76442 0.26405
 O611 O 0.48505 0.76996 0.75166
 O612 O 0.51499 0.74885 0.73067
 O613 O 0.48510 0.74884 0.73062
 O614 O 0.51493 0.76998 0.75171
 O615 O 0.51490 0.75211 0.76964
 O616 O 0.48507 0.73096 0.74856
 O617 O 0.51495 0.73097 0.74861
 O618 O 0.48501 0.75209 0.76960
 Cu619 Cu 0.50002 0.76120 0.73936
 Cu620 Cu 0.49998 0.73974 0.76090
 C621 C 0.47990 0.76459 0.76417
 C622 C 0.52010 0.73635 0.73609
 C623 C 0.47997 0.73633 0.73603
 C624 C 0.52003 0.76461 0.76423
 C625 C 0.39565 0.31685 0.31689
 N626 N 0.38940 0.31083 0.32980
 N627 N 0.37734 0.31746 0.33641
 C628 C 0.37103 0.33036 0.33039
 N629 N 0.37736 0.33639 0.31749
 N630 N 0.38942 0.32977 0.31087
 C631 C 0.40873 0.30935 0.30939
 N632 N 0.41480 0.31522 0.29632
 N633 N 0.42645 0.30824 0.28934
 C634 C 0.43246 0.29513 0.29518
 N635 N 0.42642 0.28928 0.30828
 N636 N 0.41477 0.29627 0.31526
 C637 C 0.44507 0.28724 0.28729
 N638 N 0.45089 0.27397 0.29298
 N639 N 0.46211 0.26664 0.28565
 C640 C 0.46792 0.27231 0.27238
 N641 N 0.46214 0.28560 0.26671
 N642 N 0.45092 0.29293 0.27404
 C643 C 0.39520 0.81724 0.81658
 N644 N 0.38893 0.83010 0.81050
 N645 N 0.37681 0.83668 0.81707
 C646 C 0.37043 0.83067 0.82998
 N647 N 0.37683 0.81781 0.83604
 N648 N 0.38895 0.81123 0.82948
 C649 C 0.40833 0.80977 0.80914
 N650 N 0.41442 0.79673 0.81506
 N651 N 0.42612 0.78978 0.80814
 C652 C 0.43216 0.79561 0.79503
 N653 N 0.42611 0.80868 0.78914
 N654 N 0.41441 0.81563 0.79606
 C655 C 0.44483 0.78774 0.78720
 N656 N 0.45069 0.79342 0.77395
 N657 N 0.46195 0.78610 0.76667
 C658 C 0.46776 0.77284 0.77238
 N659 N 0.46193 0.76719 0.78566
 N660 N 0.45067 0.77451 0.79294
 C661 C -0.10467 0.31710 0.81649
 N662 N -0.11090 0.33000 0.81043
 N663 N -0.12297 0.33663 0.81702
 C664 C -0.12930 0.33064 0.82994
 N665 N -0.12299 0.31776 0.83600
 N666 N -0.11092 0.31112 0.82942
 C667 C -0.09159 0.30958 0.80902
 N668 N -0.08555 0.29651 0.81494
 N669 N -0.07389 0.28950 0.80799
 C670 C -0.06785 0.29530 0.79487
 N671 N -0.07385 0.30840 0.78899
 N672 N -0.08551 0.31541 0.79594
 C673 C -0.05523 0.28738 0.78702
 N674 N -0.04937 0.29303 0.77376
 N675 N -0.03815 0.28567 0.76647
 C676 C -0.03238 0.27239 0.77217
 N677 N -0.03821 0.26677 0.78546
 N678 N -0.04943 0.27413 0.79276
 C679 C -0.10449 0.81715 0.31662
 N680 N -0.11074 0.83005 0.31056
 N681 N -0.12283 0.83665 0.31715
 C682 C -0.12917 0.83064 0.33006
 N683 N -0.12283 0.81776 0.33611
 N684 N -0.11074 0.81114 0.32953
 C685 C -0.09139 0.80967 0.30915
 N686 N -0.08533 0.79660 0.31505
 N687 N -0.07365 0.78963 0.30810
 C688 C -0.06761 0.79547 0.29499
 N689 N -0.07363 0.80856 0.28913
 N690 N -0.08531 0.81553 0.29608
 C691 C -0.05497 0.78759 0.28713
 N692 N -0.04912 0.79328 0.27388
 N693 N -0.03788 0.78596 0.26658
 C694 C -0.03209 0.77268 0.27226
 N695 N -0.03791 0.76701 0.28554
 N696 N -0.04914 0.77434 0.29284
 C697 C 0.60460 0.68350 0.31693
 N698 N 0.61083 0.67058 0.31092
 N699 N 0.62288 0.66396 0.31755
 C700 C 0.62919 0.66999 0.33045
 N701 N 0.62288 0.68291 0.33646
 N702 N 0.61083 0.68954 0.32984
 C703 C 0.59155 0.69101 0.30941
 N704 N 0.58549 0.70410 0.31526
 N705 N 0.57386 0.71108 0.30826
 C706 C 0.56785 0.70523 0.29516
 N707 N 0.57387 0.69211 0.28934
 N708 N 0.58550 0.68513 0.29634
 C709 C 0.55527 0.71312 0.28725
 N710 N 0.54946 0.70742 0.27399
 N711 N 0.53826 0.71474 0.26664
 C712 C 0.53247 0.72804 0.27228
 N713 N 0.53824 0.73371 0.28557
 N714 N 0.54943 0.72639 0.29292
 C715 C 0.60464 0.18314 0.81663
 N716 N 0.61088 0.18915 0.82955
 N717 N 0.62297 0.18255 0.83612
 C718 C 0.62932 0.16968 0.83005
 N719 N 0.62300 0.16367 0.81715
 N720 N 0.61091 0.17026 0.81057
 C721 C 0.59154 0.19062 0.80918
 N722 N 0.58548 0.18477 0.79610
 N723 N 0.57380 0.19174 0.78916
 C724 C 0.56776 0.20481 0.79504
 N725 N 0.57378 0.21064 0.80815
 N726 N 0.58546 0.20368 0.81509
 C727 C 0.55512 0.21269 0.78720
 N728 N 0.54928 0.22593 0.79292
 N729 N 0.53804 0.23326 0.78563
 C730 C 0.53224 0.22761 0.77234
 N731 N 0.53805 0.21434 0.76664
 N732 N 0.54929 0.20702 0.77394
 C733 C 1.10476 0.68329 0.81656
 N734 N 1.11098 0.67038 0.81051
 N735 N 1.12305 0.66374 0.81711
 C736 C 1.12938 0.66975 0.83001
 N737 N 1.12308 0.68265 0.83606
 N738 N 1.11101 0.68929 0.82947
 C739 C 1.09169 0.69080 0.80909
 N740 N 1.08565 0.70388 0.81499
 N741 N 1.07400 0.71088 0.80803
 C742 C 1.06796 0.70506 0.79493
 N743 N 1.07397 0.69196 0.78906
 N744 N 1.08562 0.68496 0.79601
 C745 C 1.05536 0.71298 0.78706
 N746 N 1.04952 0.70731 0.77381
 N747 N 1.03831 0.71466 0.76650
 C748 C 1.03253 0.72794 0.77219
 N749 N 1.03834 0.73359 0.78547
 N750 N 1.04955 0.72624 0.79278
 C751 C 1.10457 0.18339 0.31675
 N752 N 1.11079 0.18941 0.32966
 N753 N 1.12285 0.18280 0.33628
 C754 C 1.12918 0.16990 0.33025
 N755 N 1.12288 0.16388 0.31734
 N756 N 1.11082 0.17049 0.31072
 C757 C 1.09150 0.19088 0.30925
 N758 N 1.08546 0.18501 0.29617
 N759 N 1.07381 0.19198 0.28918
 C760 C 1.06777 0.20508 0.29502
 N761 N 1.07378 0.21093 0.30813
 N762 N 1.08543 0.20396 0.31511
 C763 C 1.05517 0.21296 0.28713
 N764 N 1.04932 0.22622 0.29281
 N765 N 1.03811 0.23354 0.28548
 C766 C 1.03234 0.22787 0.27219
 N767 N 1.03815 0.21459 0.26653
 N768 N 1.04936 0.20727 0.27386
 C769 C 0.60460 0.31688 0.68326
 N770 N 0.61085 0.31086 0.67035
 N771 N 0.62293 0.31747 0.66375
 C772 C 0.62926 0.33037 0.66979
 N773 N 0.62293 0.33639 0.68269
 N774 N 0.61085 0.32979 0.68929
 C775 C 0.59151 0.30939 0.69074
 N776 N 0.58544 0.31526 0.70382
 N777 N 0.57377 0.30829 0.71079
 C778 C 0.56774 0.29519 0.70493
 N779 N 0.57376 0.28935 0.69183
 N780 N 0.58544 0.29633 0.68486
 C781 C 0.55511 0.28731 0.71281
 N782 N 0.54927 0.27406 0.70710
 N783 N 0.53804 0.26673 0.71442
 C784 C 0.53224 0.27238 0.72771
 N785 N 0.53805 0.28566 0.73339
 N786 N 0.54928 0.29299 0.72607
 C787 C 0.60516 0.81719 0.18332
 N788 N 0.61142 0.83007 0.18939
 N789 N 0.62352 0.83666 0.18282
 C790 C 0.62990 0.83067 0.16991
 N791 N 0.62352 0.81780 0.16384
 N792 N 0.61142 0.81119 0.17041
 C793 C 0.59204 0.80971 0.19076
 N794 N 0.58597 0.79665 0.18485
 N795 N 0.57427 0.78968 0.19179
 C796 C 0.56822 0.79552 0.20488
 N797 N 0.57425 0.80860 0.21076
 N798 N 0.58595 0.81557 0.20383
 C799 C 0.55556 0.78764 0.21272
 N800 N 0.54969 0.79333 0.22596
 N801 N 0.53843 0.78602 0.23325
 C802 C 0.53263 0.77274 0.22756
 N803 N 0.53847 0.76707 0.21429
 N804 N 0.54973 0.77439 0.20701
 C805 C 1.10488 0.31703 0.18314
 N806 N 1.11113 0.31100 0.17024
 N807 N 1.12323 0.31759 0.16366
 C808 C 1.12961 0.33048 0.16969
 N809 N 1.12324 0.33650 0.18259
 N810 N 1.11114 0.32992 0.18918
 C811 C 1.09176 0.30955 0.19061
 N812 N 1.08569 0.31543 0.20368
 N813 N 1.07400 0.30847 0.21063
 C814 C 1.06796 0.29537 0.20477
 N815 N 1.07400 0.28953 0.19167
 N816 N 1.08569 0.29649 0.18472
 C817 C 1.05532 0.28750 0.21263
 N818 N 1.04948 0.27425 0.20692
 N819 N 1.03823 0.26693 0.21422
 C820 C 1.03242 0.27259 0.22750
 N821 N 1.03822 0.28587 0.23318
 N822 N 1.04946 0.29319 0.22588
 C823 C 1.10519 0.81709 0.68325
 N824 N 1.11145 0.81108 0.67034
 N825 N 1.12356 0.81768 0.66378
 C826 C 1.12995 0.83055 0.66984
 N827 N 1.12357 0.83655 0.68275
 N828 N 1.11146 0.82996 0.68932
 C829 C 1.09207 0.80962 0.69070
 N830 N 1.08599 0.81549 0.70377
 N831 N 1.07429 0.80853 0.71071
 C832 C 1.06824 0.79545 0.70483
 N833 N 1.07428 0.78961 0.69173
 N834 N 1.08598 0.79657 0.68479
 C835 C 1.05558 0.78759 0.71268
 N836 N 1.04972 0.77435 0.70696
 N837 N 1.03847 0.76705 0.71426
 C838 C 1.03266 0.77271 0.72754
 N839 N 1.03848 0.78597 0.73323
 N840 N 1.04974 0.79328 0.72593
 C841 C 0.39563 0.68348 0.68329
 N842 N 0.38941 0.68949 0.67037
 N843 N 0.37735 0.68287 0.66377
 C844 C 0.37101 0.66998 0.66981
 N845 N 0.37731 0.66397 0.68272
 N846 N 0.38938 0.67058 0.68933
 C847 C 0.40871 0.69099 0.69078
 N848 N 0.41474 0.68513 0.70387
 N849 N 0.42640 0.69212 0.71084
 C850 C 0.43244 0.70521 0.70498
 N851 N 0.42643 0.71104 0.69187
 N852 N 0.41478 0.70405 0.68489
 C853 C 0.44504 0.71311 0.71286
 N854 N 0.45089 0.72636 0.70715
 N855 N 0.46211 0.73370 0.71448
 C856 C 0.46788 0.72805 0.72777
 N857 N 0.46207 0.71478 0.73346
 N858 N 0.45085 0.70744 0.72613
 C859 C 0.39553 0.18319 0.18319
 N860 N 0.38929 0.17027 0.18922
 N861 N 0.37721 0.16366 0.18263
 C862 C 0.37087 0.16970 0.16974
 N863 N 0.37719 0.18261 0.16371
 N864 N 0.38927 0.18922 0.17030
 C865 C 0.40862 0.19068 0.19067
 N866 N 0.41468 0.20376 0.18480
 N867 N 0.42635 0.21073 0.19177
 C868 C 0.43238 0.20486 0.20486
 N869 N 0.42635 0.19175 0.21069
 N870 N 0.41469 0.18479 0.20373
 C871 C 0.44501 0.21273 0.21273
 N872 N 0.45084 0.20702 0.22598
 N873 N 0.46207 0.21433 0.23330
 C874 C 0.46788 0.22762 0.22764
 N875 N 0.46209 0.23330 0.21437
 N876 N 0.45085 0.22600 0.20705
 C877 C -0.10433 0.68347 0.18309
 N878 N -0.11058 0.67056 0.18912
 N879 N -0.12265 0.66395 0.18251
 C880 C -0.12898 0.66999 0.16962
 N881 N -0.12265 0.68289 0.16359
 N882 N -0.11057 0.68950 0.17019
 C883 C -0.09125 0.69096 0.19057
 N884 N -0.08518 0.70404 0.18470
 N885 N -0.07352 0.71101 0.19167
 C886 C -0.06750 0.70516 0.20477
 N887 N -0.07353 0.69206 0.21061
 N888 N -0.08519 0.68508 0.20364
 C889 C -0.05489 0.71304 0.21265
 N890 N -0.04906 0.70735 0.22590
 N891 N -0.03784 0.71467 0.23323
 C892 C -0.03204 0.72796 0.22757
 N893 N -0.03782 0.73363 0.21429
 N894 N -0.04904 0.72630 0.20696
 C895 C -0.10482 0.18315 0.68322
 N896 N -0.11108 0.17027 0.68928
 N897 N -0.12318 0.16367 0.68270
 C898 C -0.12954 0.16967 0.66980
 N899 N -0.12315 0.18255 0.66374
 N900 N -0.11105 0.18915 0.67031
 C901 C -0.09171 0.19063 0.69068
 N902 N -0.08562 0.20368 0.68477
 N903 N -0.07394 0.21064 0.69172
 C904 C -0.06792 0.20481 0.70483
 N905 N -0.07398 0.19173 0.71070
 N906 N -0.08566 0.18477 0.70376
 C907 C -0.05529 0.21268 0.71269
 N908 N -0.04948 0.20700 0.72595
 N909 N -0.03824 0.21432 0.73326
 C910 C -0.03240 0.22758 0.72757
 N911 N -0.03818 0.23324 0.71428
 N912 N -0.04942 0.22592 0.70697
 C913 C 0.31690 0.39569 0.31689
 N914 N 0.31087 0.38946 0.32981
 N915 N 0.31748 0.37739 0.33642
 C916 C 0.33038 0.37106 0.33039
 N917 N 0.33641 0.37737 0.31748
 N918 N 0.32981 0.38944 0.31087
 C919 C 0.30941 0.40877 0.30940
 N920 N 0.31529 0.41482 0.29632
 N921 N 0.30832 0.42648 0.28934
 C922 C 0.29522 0.43251 0.29518
 N923 N 0.28937 0.42650 0.30829
 N924 N 0.29634 0.41484 0.31527
 C925 C 0.28735 0.44512 0.28730
 N926 N 0.27409 0.45097 0.29299
 N927 N 0.26677 0.46219 0.28566
 C928 C 0.27244 0.46797 0.27237
 N929 N 0.28572 0.46216 0.26670
 N930 N 0.29304 0.45094 0.27403
 C931 C 0.31709 -0.10498 0.81654
 N932 N 0.32998 -0.11120 0.81047
 N933 N 0.33660 -0.12328 0.81705
 C934 C 0.33061 -0.12967 0.82996
 N935 N 0.31772 -0.12332 0.83601
 N936 N 0.31109 -0.11124 0.82944
 C937 C 0.30958 -0.09188 0.80909
 N938 N 0.29651 -0.08584 0.81500
 N939 N 0.28952 -0.07417 0.80807
 C940 C 0.29534 -0.06811 0.79496
 N941 N 0.30843 -0.07412 0.78907
 N942 N 0.31543 -0.08579 0.79601
 C943 C 0.28744 -0.05549 0.78712
 N944 N 0.29310 -0.04963 0.77386
 N945 N 0.28576 -0.03839 0.76658
 C946 C 0.27249 -0.03262 0.77228
 N947 N 0.26684 -0.03844 0.78556
 N948 N 0.27418 -0.04968 0.79285
 C949 C 0.81693 0.39546 0.81681
 N950 N 0.82982 0.38919 0.81076
 N951 N 0.83639 0.37709 0.81735
 C952 C 0.83036 0.37072 0.83025
 N953 N 0.81747 0.37711 0.83628
 N954 N 0.81089 0.38921 0.82971
 C955 C 0.80947 0.40857 0.80935
 N956 N 0.79641 0.41465 0.81524
 N957 N 0.78947 0.42634 0.80830
 C958 C 0.79532 0.43238 0.79520
 N959 N 0.80841 0.42634 0.78933
 N960 N 0.81536 0.41465 0.79628
 C961 C 0.78747 0.44503 0.78735
 N962 N 0.79317 0.45088 0.77410
 N963 N 0.78587 0.46213 0.76680
 C964 C 0.77259 0.46794 0.77249
 N965 N 0.76692 0.46213 0.78576
 N966 N 0.77422 0.45088 0.79306
 C967 C 0.81690 -0.10472 0.31680
 N968 N 0.82981 -0.11096 0.31077
 N969 N 0.83641 -0.12303 0.31738
 C970 C 0.83040 -0.12939 0.33029
 N971 N 0.81750 -0.12303 0.33631
 N972 N 0.81088 -0.11096 0.32971
 C973 C 0.80941 -0.09164 0.30931
 N974 N 0.79634 -0.08557 0.31519
 N975 N 0.78937 -0.07392 0.30822
 C976 C 0.79521 -0.06790 0.29511
 N977 N 0.80831 -0.07393 0.28925
 N978 N 0.81528 -0.08559 0.29623
 C979 C 0.78733 -0.05528 0.28723
 N980 N 0.79302 -0.04946 0.27396
 N981 N 0.78570 -0.03824 0.26664
 C982 C 0.77242 -0.03243 0.27232
 N983 N 0.76676 -0.03822 0.28560
 N984 N 0.77408 -0.04944 0.29293
 C985 C 0.31681 0.60466 0.68333
 N986 N 0.31080 0.61089 0.67041
 N987 N 0.31743 0.62296 0.66379
 C988 C 0.33032 0.62929 0.66982
 N989 N 0.33633 0.62298 0.68273
 N990 N 0.32971 0.61091 0.68935
 C991 C 0.30931 0.59158 0.69082
 N992 N 0.31516 0.58554 0.70391
 N993 N 0.30817 0.57388 0.71088
 C994 C 0.29508 0.56785 0.70504
 N995 N 0.28925 0.57386 0.69193
 N996 N 0.29624 0.58552 0.68495
 C997 C 0.28718 0.55523 0.71292
 N998 N 0.27393 0.54939 0.70723
 N999 N 0.26660 0.53817 0.71455
 C1000 C 0.27225 0.53238 0.72784
 N1001 N 0.28552 0.53819 0.73351
 N1002 N 0.29286 0.54941 0.72619
 C1003 C 0.31705 1.10491 0.18293
 N1004 N 0.31102 1.11116 0.17004
 N1005 N 0.31761 1.12326 0.16345
 C1006 C 0.33051 1.12964 0.16947
 N1007 N 0.33654 1.12326 0.18236
 N1008 N 0.32995 1.11116 0.18895
 C1009 C 0.30958 1.09180 0.19041
 N1010 N 0.31547 1.08573 0.20347
 N1011 N 0.30851 1.07405 0.21043
 C1012 C 0.29541 1.06801 0.20459
 N1013 N 0.28955 1.07405 0.19151
 N1014 N 0.29651 1.08573 0.18454
 C1015 C 0.28754 1.05538 0.21247
 N1016 N 0.27429 1.04953 0.20679
 N1017 N 0.26698 1.03829 0.21411
 C1018 C 0.27266 1.03249 0.22738
 N1019 N 0.28594 1.03830 0.23304
 N1020 N 0.29325 1.04954 0.22571
 C1021 C 0.81683 0.60468 0.18316
 N1022 N 0.81080 0.61092 0.17026
 N1023 N 0.81741 0.62300 0.16365
 C1024 C 0.83033 0.62932 0.16965
 N1025 N 0.83636 0.62299 0.18254
 N1026 N 0.82975 0.61091 0.18916
 C1027 C 0.80934 0.59159 0.19066
 N1028 N 0.81523 0.58553 0.20372
 N1029 N 0.80826 0.57387 0.21070
 C1030 C 0.79515 0.56784 0.20488
 N1031 N 0.78929 0.57387 0.19179
 N1032 N 0.79626 0.58553 0.18481
 C1033 C 0.78728 0.55522 0.21278
 N1034 N 0.77401 0.54938 0.20711
 N1035 N 0.76670 0.53815 0.21444
 C1036 C 0.77238 0.53235 0.22770
 N1037 N 0.78567 0.53815 0.23335
 N1038 N 0.79298 0.54938 0.22602
 C1039 C 0.81720 1.10522 0.68327
 N1040 N 0.81121 1.11146 0.67036
 N1041 N 0.81783 1.12355 0.66378
 C1042 C 0.83071 1.12993 0.66982
 N1043 N 0.83669 1.12356 0.68273
 N1044 N 0.83009 1.11147 0.68932
 C1045 C 0.80971 1.09211 0.69073
 N1046 N 0.81556 1.08605 0.70381
 N1047 N 0.80858 1.07438 0.71077
 C1048 C 0.79549 1.06834 0.70490
 N1049 N 0.78967 1.07437 0.69179
 N1050 N 0.79665 1.08604 0.68483
 C1051 C 0.78760 1.05571 0.71276
 N1052 N 0.77436 1.04986 0.70705
 N1053 N 0.76703 1.03863 0.71436
 C1054 C 0.77267 1.03283 0.72764
 N1055 N 0.78594 1.03863 0.73333
 N1056 N 0.79327 1.04987 0.72602
 C1057 C 0.68328 0.60461 0.31702
 N1058 N 0.68931 0.61086 0.32992
 N1059 N 0.68270 0.62294 0.33652
 C1060 C 0.66981 0.62927 0.33050
 N1061 N 0.66377 0.62293 0.31761
 N1062 N 0.67037 0.61085 0.31100
 C1063 C 0.69076 0.59152 0.30952
 N1064 N 0.68487 0.58546 0.29646
 N1065 N 0.69184 0.57380 0.28948
 C1066 C 0.70494 0.56777 0.29531
 N1067 N 0.71080 0.57380 0.30840
 N1068 N 0.70383 0.58546 0.31538
 C1069 C 0.71282 0.55515 0.28742
 N1070 N 0.72608 0.54932 0.29309
 N1071 N 0.73340 0.53810 0.28576
 C1072 C 0.72772 0.53230 0.27249
 N1073 N 0.71443 0.53809 0.26684
 N1074 N 0.70711 0.54932 0.27417
 C1075 C 0.68331 1.10507 0.81677
 N1076 N 0.67040 1.11130 0.81074
 N1077 N 0.66378 1.12337 0.81736
 C1078 C 0.66978 1.12974 0.83026
 N1079 N 0.68269 1.12338 0.83628
 N1080 N 0.68931 1.11131 0.82967
 C1081 C 0.69081 1.09199 0.80928
 N1082 N 0.70388 1.08594 0.81516
 N1083 N 0.71087 1.07429 0.80818
 C1084 C 0.70505 1.06826 0.79508
 N1085 N 0.69195 1.07427 0.78923
 N1086 N 0.68496 1.08593 0.79620
 C1087 C 0.71295 1.05565 0.78720
 N1088 N 0.70727 1.04981 0.77394
 N1089 N 0.71461 1.03859 0.76662
 C1090 C 0.72789 1.03280 0.77230
 N1091 N 0.73354 1.03860 0.78559
 N1092 N 0.72620 1.04982 0.79290
 C1093 C 0.18312 0.60490 0.81686
 N1094 N 0.18915 0.61115 0.82976
 N1095 N 0.18257 0.62326 0.83634
 C1096 C 0.16969 0.62965 0.83030
 N1097 N 0.16367 0.62327 0.81741
 N1098 N 0.17024 0.61117 0.81082
 C1099 C 0.19058 0.59178 0.80940
 N1100 N 0.18471 0.58571 0.79633
 N1101 N 0.19166 0.57402 0.78938
 C1102 C 0.20474 0.56797 0.79525
 N1103 N 0.21058 0.57401 0.80834
 N1104 N 0.20363 0.58570 0.81529
 C1105 C 0.21260 0.55533 0.78739
 N1106 N 0.22584 0.54948 0.79310
 N1107 N 0.23315 0.53823 0.78580
 C1108 C 0.22749 0.53243 0.77252
 N1109 N 0.21423 0.53824 0.76684
 N1110 N 0.20692 0.54949 0.77414
 C1111 C 0.18339 1.10464 0.31671
 N1112 N 0.18940 1.11087 0.32962
 N1113 N 0.18277 1.12293 0.33625
 C1114 C 0.16987 1.12925 0.33023
 N1115 N 0.16385 1.12293 0.31732
 N1116 N 0.17048 1.11088 0.31069
 C1117 C 0.19090 1.09158 0.30920
 N1118 N 0.18503 1.08552 0.29612
 N1119 N 0.19202 1.07388 0.28913
 C1120 C 0.20513 1.06786 0.29497
 N1121 N 0.21097 1.07388 0.30807
 N1122 N 0.20398 1.08553 0.31506
 C1123 C 0.21302 1.05527 0.28707
 N1124 N 0.22629 1.04944 0.29275
 N1125 N 0.23362 1.03823 0.28541
 C1126 C 0.22796 1.03243 0.27213
 N1127 N 0.21467 1.03822 0.26648
 N1128 N 0.20734 1.04943 0.27381
 C1129 C 0.68344 0.39568 0.68330
 N1130 N 0.67053 0.38943 0.68932
 N1131 N 0.66392 0.37736 0.68270
 C1132 C 0.66996 0.37104 0.66980
 N1133 N 0.68287 0.37736 0.66378
 N1134 N 0.68948 0.38944 0.67039
 C1135 C 0.69093 0.40876 0.69079
 N1136 N 0.70401 0.41483 0.68492
 N1137 N 0.71098 0.42649 0.69190
 C1138 C 0.70512 0.43251 0.70501
 N1139 N 0.69201 0.42648 0.71085
 N1140 N 0.68504 0.41482 0.70387
 C1141 C 0.71300 0.44513 0.71289
 N1142 N 0.70730 0.45095 0.72615
 N1143 N 0.71462 0.46218 0.73348
 C1144 C 0.72790 0.46799 0.72781
 N1145 N 0.73357 0.46220 0.71453
 N1146 N 0.72625 0.45098 0.70720
 C1147 C 0.68317 -0.10489 0.18337
 N1148 N 0.68917 -0.11113 0.17045
 N1149 N 0.68256 -0.12322 0.16388
 C1150 C 0.66967 -0.12960 0.16993
 N1151 N 0.66368 -0.12323 0.18284
 N1152 N 0.67028 -0.11114 0.18943
 C1153 C 0.69067 -0.09178 0.19082
 N1154 N 0.68481 -0.08571 0.20390
 N1155 N 0.69179 -0.07403 0.21084
 C1156 C 0.70488 -0.06800 0.20496
 N1157 N 0.71071 -0.07404 0.19186
 N1158 N 0.70373 -0.08572 0.18491
 C1159 C 0.71276 -0.05537 0.21281
 N1160 N 0.72601 -0.04953 0.20709
 N1161 N 0.73334 -0.03829 0.21438
 C1162 C 0.72769 -0.03248 0.22767
 N1163 N 0.71441 -0.03828 0.23336
 N1164 N 0.70708 -0.04951 0.22607
 C1165 C 0.18319 0.39550 0.18339
 N1166 N 0.17029 0.38927 0.18944
 N1167 N 0.16367 0.37719 0.18285
 C1168 C 0.16968 0.37085 0.16996
 N1169 N 0.18258 0.37717 0.16390
 N1170 N 0.18921 0.38925 0.17048
 C1171 C 0.19070 0.40860 0.19085
 N1172 N 0.20377 0.41465 0.18495
 N1173 N 0.21075 0.42633 0.19190
 C1174 C 0.20491 0.43237 0.20500
 N1175 N 0.19181 0.42635 0.21087
 N1176 N 0.18483 0.41468 0.20392
 C1177 C 0.21280 0.44501 0.21285
 N1178 N 0.20712 0.45087 0.22610
 N1179 N 0.21444 0.46211 0.23339
 C1180 C 0.22772 0.46790 0.22770
 N1181 N 0.23339 0.46208 0.21443
 N1182 N 0.22606 0.45084 0.20713
 C1183 C 0.18324 -0.10504 0.68332
 N1184 N 0.17034 -0.11128 0.68937
 N1185 N 0.16374 -0.12337 0.68278
 C1186 C 0.16974 -0.12974 0.66987
 N1187 N 0.18263 -0.12337 0.66383
 N1188 N 0.18924 -0.11128 0.67041
 C1189 C 0.19072 -0.09193 0.69078
 N1190 N 0.20379 -0.08586 0.68488
 N1191 N 0.21076 -0.07418 0.69183
 C1192 C 0.20492 -0.06815 0.70494
 N1193 N 0.19183 -0.07419 0.71081
 N1194 N 0.18486 -0.08587 0.70386
 C1195 C 0.21280 -0.05552 0.71280
 N1196 N 0.20712 -0.04969 0.72606
 N1197 N 0.21444 -0.03845 0.73337
 C1198 C 0.22771 -0.03264 0.72768
 N1199 N 0.23337 -0.03843 0.71439
 N1200 N 0.22605 -0.04967 0.70708
 C1201 C 0.31686 0.31692 0.39573
 N1202 N 0.31083 0.32982 0.38948
 N1203 N 0.31745 0.33643 0.37741
 C1204 C 0.33035 0.33040 0.37108
 N1205 N 0.33638 0.31750 0.37741
 N1206 N 0.32977 0.31089 0.38949
 C1207 C 0.30937 0.30943 0.40882
 N1208 N 0.31524 0.29636 0.41488
 N1209 N 0.30827 0.28938 0.42654
 C1210 C 0.29516 0.29522 0.43257
 N1211 N 0.28931 0.30832 0.42654
 N1212 N 0.29629 0.31530 0.41488
 C1213 C 0.28728 0.28734 0.44519
 N1214 N 0.27402 0.29302 0.45103
 N1215 N 0.26669 0.28569 0.46225
 C1216 C 0.27237 0.27241 0.46805
 N1217 N 0.28565 0.26675 0.46224
 N1218 N 0.29297 0.27408 0.45102
 C1219 C 0.31698 0.81689 -0.10495
 N1220 N 0.31093 0.82978 -0.11120
 N1221 N 0.31752 0.83637 -0.12330
 C1222 C 0.33041 0.83035 -0.12965
 N1223 N 0.33647 0.81747 -0.12331
 N1224 N 0.32989 0.81086 -0.11121
 C1225 C 0.30952 0.80941 -0.09184
 N1226 N 0.31541 0.79635 -0.08578
 N1227 N 0.30846 0.78938 -0.07409
 C1228 C 0.29536 0.79523 -0.06805
 N1229 N 0.28950 0.80832 -0.07408
 N1230 N 0.29645 0.81528 -0.08576
 C1231 C 0.28750 0.78735 -0.05540
 N1232 N 0.27425 0.79305 -0.04955
 N1233 N 0.26694 0.78573 -0.03831
 C1234 C 0.27262 0.77246 -0.03251
 N1235 N 0.28590 0.76679 -0.03832
 N1236 N 0.29320 0.77410 -0.04957
 C1237 C 0.81662 0.31717 -0.10471
 N1238 N 0.81056 0.33006 -0.11095
 N1239 N 0.81715 0.33668 -0.12304
 C1240 C 0.83006 0.33068 -0.12938
 N1241 N 0.83612 0.31780 -0.12305
 N1242 N 0.82954 0.31117 -0.11097
 C1243 C 0.80916 0.30967 -0.09161
 N1244 N 0.81507 0.29661 -0.08556
 N1245 N 0.80813 0.28962 -0.07389
 C1246 C 0.79502 0.29543 -0.06784
 N1247 N 0.78913 0.30852 -0.07386
 N1248 N 0.79608 0.31551 -0.08553
 C1249 C 0.78717 0.28752 -0.05521
 N1250 N 0.77391 0.29318 -0.04935
 N1251 N 0.76662 0.28584 -0.03812
 C1252 C 0.77232 0.27256 -0.03233
 N1253 N 0.78561 0.26693 -0.03816
 N1254 N 0.79290 0.27428 -0.04939
 C1255 C 0.81677 0.81718 0.39544
 N1256 N 0.81071 0.83006 0.38919
 N1257 N 0.81729 0.83666 0.37709
 C1258 C 0.83019 0.83065 0.37075
 N1259 N 0.83625 0.81777 0.37708
 N1260 N 0.82968 0.81117 0.38918
 C1261 C 0.80932 0.80969 0.40856
 N1262 N 0.81522 0.79664 0.41462
 N1263 N 0.80828 0.78967 0.42631
 C1264 C 0.79518 0.79550 0.43236
 N1265 N 0.78931 0.80859 0.42633
 N1266 N 0.79625 0.81556 0.41464
 C1267 C 0.78734 0.78763 0.44501
 N1268 N 0.77409 0.79331 0.45087
 N1269 N 0.76679 0.78600 0.46212
 C1270 C 0.77248 0.77272 0.46792
 N1271 N 0.78576 0.76706 0.46209
 N1272 N 0.79305 0.77438 0.45084
 C1273 C 0.68348 0.31684 0.60451
 N1274 N 0.67056 0.31082 0.61075
 N1275 N 0.66395 0.31744 0.62282
 C1276 C 0.66998 0.33035 0.62914
 N1277 N 0.68289 0.33637 0.62282
 N1278 N 0.68951 0.32975 0.61075
 C1279 C 0.69098 0.30934 0.59144
 N1280 N 0.70406 0.31521 0.58537
 N1281 N 0.71103 0.30822 0.57372
 C1282 C 0.70518 0.29511 0.56770
 N1283 N 0.69207 0.28928 0.57373
 N1284 N 0.68510 0.29626 0.58539
 C1285 C 0.71306 0.28722 0.55509
 N1286 N 0.70737 0.27396 0.54927
 N1287 N 0.71468 0.26662 0.53805
 C1288 C 0.72797 0.27229 0.53224
 N1289 N 0.73364 0.28557 0.53802
 N1290 N 0.72632 0.29291 0.54924
 C1291 C 0.68333 0.81705 1.10479
 N1292 N 0.68937 0.82994 1.11105
 N1293 N 0.68279 0.83651 1.12316
 C1294 C 0.66990 0.83045 1.12950
 N1295 N 0.66385 0.81757 1.12315
 N1296 N 0.67043 0.81100 1.11104
 C1297 C 0.69079 0.80960 1.09166
 N1298 N 0.68490 0.79654 1.08557
 N1299 N 0.69185 0.78960 1.07388
 C1300 C 0.70495 0.79547 1.06783
 N1301 N 0.71080 0.80856 1.07388
 N1302 N 0.70385 0.81549 1.08558
 C1303 C 0.71281 0.78762 1.05518
 N1304 N 0.72605 0.79334 1.04933
 N1305 N 0.73336 0.78605 1.03808
 C1306 C 0.72769 0.77277 1.03226
 N1307 N 0.71441 0.76709 1.03807
 N1308 N 0.70710 0.77438 1.04932
 C1309 C 0.18312 0.31674 1.10463
 N1310 N 0.17021 0.31070 1.11087
 N1311 N 0.16361 0.31730 1.12296
 C1312 C 0.16964 0.33019 1.12929
 N1313 N 0.18254 0.33623 1.12296
 N1314 N 0.18915 0.32964 1.11087
 C1315 C 0.19060 0.30926 1.09152
 N1316 N 0.20367 0.31514 1.08545
 N1317 N 0.21063 0.30818 1.07378
 C1318 C 0.20478 0.29508 1.06775
 N1319 N 0.19168 0.28923 1.07378
 N1320 N 0.18472 0.29619 1.08546
 C1321 C 0.21265 0.28721 1.05511
 N1322 N 0.20695 0.27395 1.04928
 N1323 N 0.21426 0.26663 1.03804
 C1324 C 0.22754 0.27231 1.03223
 N1325 N 0.23321 0.28559 1.03802
 N1326 N 0.22590 0.29291 1.04926
 C1327 C 0.18341 0.81687 0.60475
 N1328 N 0.18945 0.82976 0.61101
 N1329 N 0.18286 0.83634 0.62312
 C1330 C 0.16997 0.83029 0.62946
 N1331 N 0.16393 0.81741 0.62311
 N1332 N 0.17051 0.81083 0.61101
 C1333 C 0.19088 0.80941 0.59163
 N1334 N 0.18499 0.79635 0.58555
 N1335 N 0.19194 0.78941 0.57386
 C1336 C 0.20504 0.79527 0.56782
 N1337 N 0.21089 0.80836 0.57387
 N1338 N 0.20394 0.81531 0.58556
 C1339 C 0.21290 0.78742 0.55517
 N1340 N 0.22615 0.79313 0.54932
 N1341 N 0.23346 0.78584 0.53807
 C1342 C 0.22778 0.77256 0.53226
 N1343 N 0.21451 0.76688 0.53807
 N1344 N 0.20720 0.77417 0.54932
 C1345 C 0.31692 0.68341 0.60447
 N1346 N 0.31089 0.67050 0.61071
 N1347 N 0.31749 0.66390 0.62279
 C1348 C 0.33038 0.66994 0.62912
 N1349 N 0.33642 0.68283 0.62279
 N1350 N 0.32982 0.68944 0.61071
 C1351 C 0.30944 0.69089 0.59138
 N1352 N 0.31533 0.70396 0.58531
 N1353 N 0.30836 0.71093 0.57365
 C1354 C 0.29526 0.70508 0.56762
 N1355 N 0.28941 0.69198 0.57365
 N1356 N 0.29637 0.68501 0.58532
 C1357 C 0.28739 0.71296 0.55501
 N1358 N 0.27414 0.70726 0.54917
 N1359 N 0.26682 0.71459 0.53795
 C1360 C 0.27249 0.72787 0.53216
 N1361 N 0.28577 0.73355 0.53796
 N1362 N 0.29309 0.72622 0.54917
 C1363 C 0.31674 0.18318 1.10448
 N1364 N 0.32964 0.18921 1.11072
 N1365 N 0.33624 0.18260 1.12279
 C1366 C 0.33021 0.16969 1.12912
 N1367 N 0.31731 0.16366 1.12279
 N1368 N 0.31071 0.17026 1.11072
 C1369 C 0.30925 0.19066 1.09140
 N1370 N 0.29618 0.18478 1.08534
 N1371 N 0.28921 0.19174 1.07368
 C1372 C 0.29505 0.20485 1.06765
 N1373 N 0.30815 0.21071 1.07367
 N1374 N 0.31512 0.20375 1.08533
 C1375 C 0.28717 0.21272 1.05504
 N1376 N 0.29286 0.22598 1.04919
 N1377 N 0.28553 0.23330 1.03797
 C1378 C 0.27225 0.22762 1.03219
 N1379 N 0.26659 0.21433 1.03800
 N1380 N 0.27392 0.20702 1.04922
 C1381 C 0.81685 0.68351 1.10437
 N1382 N 0.81082 0.67060 1.11061
 N1383 N 0.81743 0.66398 1.12267
 C1384 C 0.83033 0.67001 1.12899
 N1385 N 0.83637 0.68291 1.12266
 N1386 N 0.82977 0.68953 1.11060
 C1387 C 0.80936 0.69101 1.09130
 N1388 N 0.81524 0.70409 1.08525
 N1389 N 0.80827 0.71108 1.07360
 C1390 C 0.79517 0.70524 1.06758
 N1391 N 0.78931 0.69213 1.07360
 N1392 N 0.79628 0.68515 1.08525
 C1393 C 0.78729 0.71314 1.05497
 N1394 N 0.77403 0.70745 1.04914
 N1395 N 0.76671 0.71478 1.03793
 C1396 C 0.77238 0.72807 1.03214
 N1397 N 0.78567 0.73374 1.03794
 N1398 N 0.79299 0.72640 1.04915
 C1399 C 0.81707 0.18331 0.60471
 N1400 N 0.81103 0.17041 0.61097
 N1401 N 0.81762 0.16384 0.62307
 C1402 C 0.83050 0.16989 0.62941
 N1403 N 0.83654 0.18278 0.62306
 N1404 N 0.82996 0.18936 0.61096
 C1405 C 0.80961 0.19076 0.59160
 N1406 N 0.81548 0.20383 0.58551
 N1407 N 0.80853 0.21076 0.57383
 C1408 C 0.79544 0.20489 0.56780
 N1409 N 0.78959 0.19180 0.57385
 N1410 N 0.79655 0.18486 0.58554
 C1411 C 0.78757 0.21274 0.55516
 N1412 N 0.77433 0.20702 0.54933
 N1413 N 0.76701 0.21432 0.53809
 C1414 C 0.77268 0.22759 0.53226
 N1415 N 0.78595 0.23328 0.53805
 N1416 N 0.79327 0.22599 0.54930
 C1417 C 0.68330 0.68346 0.39578
 N1418 N 0.67039 0.68949 0.38954
 N1419 N 0.66379 0.68287 0.37747
 C1420 C 0.66981 0.66997 0.37115
 N1421 N 0.68271 0.66393 0.37748
 N1422 N 0.68932 0.67054 0.38954
 C1423 C 0.69079 0.69095 0.40886
 N1424 N 0.70386 0.68508 0.41491
 N1425 N 0.71083 0.69206 0.42656
 C1426 C 0.70499 0.70516 0.43259
 N1427 N 0.69189 0.71101 0.42657
 N1428 N 0.68491 0.70403 0.41492
 C1429 C 0.71287 0.71305 0.44520
 N1430 N 0.70718 0.72631 0.45103
 N1431 N 0.71451 0.73364 0.46224
 C1432 C 0.72780 0.72798 0.46803
 N1433 N 0.73346 0.71469 0.46223
 N1434 N 0.72613 0.70736 0.45102
 C1435 C 0.68338 0.18321 -0.10465
 N1436 N 0.67046 0.18921 -0.11089
 N1437 N 0.66389 0.18259 -0.12297
 C1438 C 0.66996 0.16971 -0.12931
 N1439 N 0.68287 0.16371 -0.12298
 N1440 N 0.68945 0.17032 -0.11090
 C1441 C 0.69083 0.19070 -0.09155
 N1442 N 0.70392 0.18486 -0.08549
 N1443 N 0.71086 0.19184 -0.07383
 C1444 C 0.70498 0.20492 -0.06779
 N1445 N 0.69187 0.21074 -0.07381
 N1446 N 0.68492 0.20376 -0.08548
 C1447 C 0.71284 0.21281 -0.05516
 N1448 N 0.70712 0.22605 -0.04932
 N1449 N 0.71442 0.23338 -0.03809
 C1450 C 0.72772 0.22774 -0.03230
 N1451 N 0.73341 0.21447 -0.03811
 N1452 N 0.72611 0.20714 -0.04934
 C1453 C 0.18347 0.68320 -0.10470
 N1454 N 0.18951 0.67029 -0.11094
 N1455 N 0.18290 0.66368 -0.12301
 C1456 C 0.17001 0.66970 -0.12934
 N1457 N 0.16398 0.68260 -0.12302
 N1458 N 0.17057 0.68922 -0.11095
 C1459 C 0.19095 0.69070 -0.09162
 N1460 N 0.18507 0.70377 -0.08557
 N1461 N 0.19204 0.71075 -0.07391
 C1462 C 0.20514 0.70491 -0.06788
 N1463 N 0.21099 0.69181 -0.07390
 N1464 N 0.20402 0.68482 -0.08556
 C1465 C 0.21301 0.71280 -0.05527
 N1466 N 0.22626 0.70711 -0.04943
 N1467 N 0.23359 0.71444 -0.03822
 C1468 C 0.22792 0.72773 -0.03243
 N1469 N 0.21464 0.73339 -0.03822
 N1470 N 0.20732 0.72606 -0.04944
 C1471 C 0.18324 0.18330 0.39563
 N1472 N 0.17034 0.18934 0.38940
 N1473 N 0.16375 0.18274 0.37731
 C1474 C 0.16979 0.16985 0.37097
 N1475 N 0.18268 0.16382 0.37729
 N1476 N 0.18928 0.17040 0.38938
 C1477 C 0.19072 0.19077 0.40874
 N1478 N 0.20379 0.18489 0.41479
 N1479 N 0.21075 0.19184 0.42646
 C1480 C 0.20490 0.20493 0.43251
 N1481 N 0.19180 0.21079 0.42649
 N1482 N 0.18484 0.20384 0.41482
 C1483 C 0.21277 0.21280 0.44514
 N1484 N 0.20707 0.22604 0.45100
 N1485 N 0.21439 0.23335 0.46223
 C1486 C 0.22766 0.22768 0.46802
 N1487 N 0.23334 0.21441 0.46220
 N1488 N 0.22602 0.20710 0.45097
 C1489 C 0.31674 0.39569 0.68345
 N1490 N 0.31073 0.38945 0.67054
 N1491 N 0.31735 0.37738 0.66394
 C1492 C 0.33024 0.37106 0.66997
 N1493 N 0.33626 0.37738 0.68287
 N1494 N 0.32964 0.38945 0.68948
 C1495 C 0.30924 0.40878 0.69094
 N1496 N 0.31510 0.41484 0.70401
 N1497 N 0.30812 0.42651 0.71098
 C1498 C 0.29503 0.43253 0.70512
 N1499 N 0.28920 0.42650 0.69202
 N1500 N 0.29618 0.41484 0.68506
 C1501 C 0.28714 0.44516 0.71299
 N1502 N 0.27389 0.45099 0.70729
 N1503 N 0.26657 0.46222 0.71460
 C1504 C 0.27222 0.46803 0.72788
 N1505 N 0.28549 0.46223 0.73356
 N1506 N 0.29282 0.45100 0.72625
 C1507 C 0.31719 0.89587 0.18282
 N1508 N 0.31116 0.88962 0.16992
 N1509 N 0.31778 0.87755 0.16331
 C1510 C 0.33069 0.87124 0.16932
 N1511 N 0.33672 0.87757 0.18221
 N1512 N 0.33011 0.88964 0.18883
 C1513 C 0.30969 0.90894 0.19031
 N1514 N 0.31557 0.91501 0.20338
 N1515 N 0.30860 0.92667 0.21036
 C1516 C 0.29548 0.93268 0.20453
 N1517 N 0.28963 0.92665 0.19144
 N1518 N 0.29661 0.91499 0.18446
 C1519 C 0.28760 0.94529 0.21243
 N1520 N 0.27433 0.95111 0.20675
 N1521 N 0.26701 0.96233 0.21409
 C1522 C 0.27268 0.96813 0.22736
 N1523 N 0.28597 0.96234 0.23301
 N1524 N 0.29330 0.95113 0.22568
 C1525 C 0.81692 0.39576 0.18309
 N1526 N 0.81089 0.38952 0.17018
 N1527 N 0.81751 0.37746 0.16356
 C1528 C 0.83042 0.37114 0.16957
 N1529 N 0.83645 0.37747 0.18246
 N1530 N 0.82984 0.38953 0.18909
 C1531 C 0.80943 0.40883 0.19059
 N1532 N 0.81531 0.41489 0.20366
 N1533 N 0.80833 0.42654 0.21065
 C1534 C 0.79522 0.43256 0.20483
 N1535 N 0.78936 0.42653 0.19174
 N1536 N 0.79634 0.41488 0.18474
 C1537 C 0.78733 0.44516 0.21273
 N1538 N 0.77406 0.45099 0.20706
 N1539 N 0.76674 0.46220 0.21440
 C1540 C 0.77242 0.46800 0.22768
 N1541 N 0.78571 0.46221 0.23332
 N1542 N 0.79303 0.45100 0.22598
 C1543 C 0.81720 0.89615 0.68318
 N1544 N 0.81118 0.88991 0.67028
 N1545 N 0.81779 0.87783 0.66367
 C1546 C 0.83069 0.87151 0.66970
 N1547 N 0.83671 0.87783 0.68260
 N1548 N 0.83010 0.88991 0.68921
 C1549 C 0.80971 0.90924 0.69067
 N1550 N 0.81557 0.91530 0.70375
 N1551 N 0.80859 0.92696 0.71072
 C1552 C 0.79549 0.93299 0.70486
 N1553 N 0.78966 0.92696 0.69176
 N1554 N 0.79664 0.91530 0.68479
 C1555 C 0.78760 0.94560 0.71274
 N1556 N 0.77436 0.95144 0.70703
 N1557 N 0.76703 0.96266 0.71435
 C1558 C 0.77268 0.96847 0.72763
 N1559 N 0.78595 0.96267 0.73331
 N1560 N 0.79328 0.95144 0.72600
 C1561 C 0.68343 0.60473 0.68353
 N1562 N 0.67053 0.61097 0.68958
 N1563 N 0.66392 0.62305 0.68297
 C1564 C 0.66995 0.62938 0.67007
 N1565 N 0.68284 0.62305 0.66403
 N1566 N 0.68945 0.61097 0.67062
 C1567 C 0.69092 0.59164 0.69101
 N1568 N 0.70398 0.58558 0.68511
 N1569 N 0.71096 0.57390 0.69206
 C1570 C 0.70512 0.56787 0.70517
 N1571 N 0.69202 0.57389 0.71104
 N1572 N 0.68505 0.58557 0.70408
 C1573 C 0.71299 0.55524 0.71302
 N1574 N 0.70730 0.54939 0.72628
 N1575 N 0.71462 0.53815 0.73358
 C1576 C 0.72790 0.53235 0.72789
 N1577 N 0.73356 0.53817 0.71461
 N1578 N 0.72624 0.54940 0.70731
 C1579 C 0.68331 0.10422 0.18311
 N1580 N 0.67040 0.11047 0.18914
 N1581 N 0.66380 0.12254 0.18253
 C1582 C 0.66984 0.12887 0.16963
 N1583 N 0.68274 0.12254 0.16360
 N1584 N 0.68934 0.11047 0.17021
 C1585 C 0.69079 0.09113 0.19060
 N1586 N 0.70386 0.08507 0.18472
 N1587 N 0.71082 0.07340 0.19169
 C1588 C 0.70497 0.06738 0.20480
 N1589 N 0.69187 0.07341 0.21065
 N1590 N 0.68490 0.08507 0.20367
 C1591 C 0.71284 0.05475 0.21268
 N1592 N 0.70714 0.04893 0.22594
 N1593 N 0.71445 0.03770 0.23326
 C1594 C 0.72773 0.03189 0.22759
 N1595 N 0.73340 0.03768 0.21430
 N1596 N 0.72609 0.04891 0.20698
 C1597 C 0.18333 0.60457 0.18310
 N1598 N 0.17042 0.61083 0.18913
 N1599 N 0.16383 0.62290 0.18251
 C1600 C 0.16987 0.62922 0.16961
 N1601 N 0.18276 0.62288 0.16357
 N1602 N 0.18936 0.61080 0.17018
 C1603 C 0.19080 0.59149 0.19059
 N1604 N 0.20387 0.58541 0.18471
 N1605 N 0.21083 0.57375 0.19169
 C1606 C 0.20498 0.56773 0.20480
 N1607 N 0.19188 0.57377 0.21064
 N1608 N 0.18492 0.58544 0.20367
 C1609 C 0.21285 0.55512 0.21268
 N1610 N 0.20715 0.54930 0.22594
 N1611 N 0.21447 0.53807 0.23327
 C1612 C 0.22775 0.53226 0.22760
 N1613 N 0.23342 0.53805 0.21431
 N1614 N 0.22610 0.54927 0.20699
 C1615 C 0.18315 0.10408 0.68335
 N1616 N 0.18918 0.11032 0.67044
 N1617 N 0.18256 0.12240 0.66384
 C1618 C 0.16967 0.12872 0.66988
 N1619 N 0.16364 0.12239 0.68278
 N1620 N 0.17025 0.11032 0.68939
 C1621 C 0.19064 0.09099 0.69082
 N1622 N 0.18478 0.08492 0.70390
 N1623 N 0.19175 0.07325 0.71086
 C1624 C 0.20485 0.06723 0.70499
 N1625 N 0.21069 0.07326 0.69189
 N1626 N 0.20371 0.08493 0.68493
 C1627 C 0.21274 0.05460 0.71285
 N1628 N 0.22599 0.04877 0.70713
 N1629 N 0.23332 0.03754 0.71443
 C1630 C 0.22766 0.03173 0.72772
 N1631 N 0.21439 0.03752 0.73341
 N1632 N 0.20706 0.04875 0.72611
 C1633 C 0.31692 0.60474 0.31663
 N1634 N 0.31089 0.61098 0.32954
 N1635 N 0.31751 0.62307 0.33613
 C1636 C 0.33040 0.62940 0.33009
 N1637 N 0.33643 0.62307 0.31719
 N1638 N 0.32982 0.61099 0.31059
 C1639 C 0.30943 0.59164 0.30916
 N1640 N 0.31531 0.58557 0.29608
 N1641 N 0.30834 0.57390 0.28913
 C1642 C 0.29524 0.56786 0.29499
 N1643 N 0.28939 0.57390 0.30809
 N1644 N 0.29636 0.58557 0.31505
 C1645 C 0.28736 0.55523 0.28714
 N1646 N 0.27411 0.54939 0.29285
 N1647 N 0.26679 0.53815 0.28555
 C1648 C 0.27245 0.53233 0.27227
 N1649 N 0.28573 0.53813 0.26659
 N1650 N 0.29305 0.54938 0.27389
 C1651 C 0.31678 0.10415 0.81681
 N1652 N 0.32968 0.11041 0.81078
 N1653 N 0.33627 0.12250 0.81739
 C1654 C 0.33023 0.12881 0.83029
 N1655 N 0.31734 0.12247 0.83632
 N1656 N 0.31074 0.11039 0.82971
 C1657 C 0.30931 0.09105 0.80932
 N1658 N 0.29624 0.08496 0.81520
 N1659 N 0.28929 0.07329 0.80823
 C1660 C 0.29514 0.06727 0.79513
 N1661 N 0.30824 0.07333 0.78927
 N1662 N 0.31519 0.08500 0.79624
 C1663 C 0.28728 0.05464 0.78725
 N1664 N 0.29298 0.04882 0.77399
 N1665 N 0.28567 0.03758 0.76667
 C1666 C 0.27240 0.03175 0.77235
 N1667 N 0.26673 0.03754 0.78564
 N1668 N 0.27404 0.04877 0.79296
 C1669 C 0.81705 0.60476 0.81688
 N1670 N 0.81101 0.61101 0.82978
 N1671 N 0.81761 0.62311 0.83635
 C1672 C 0.83051 0.62945 0.83031
 N1673 N 0.83654 0.62310 0.81742
 N1674 N 0.82995 0.61100 0.81083
 C1675 C 0.80957 0.59164 0.80942
 N1676 N 0.81545 0.58557 0.79635
 N1677 N 0.80849 0.57388 0.78941
 C1678 C 0.79539 0.56785 0.79527
 N1679 N 0.78954 0.57389 0.80836
 N1680 N 0.79650 0.58557 0.81531
 C1681 C 0.78752 0.55521 0.78741
 N1682 N 0.77427 0.54937 0.79312
 N1683 N 0.76695 0.53813 0.78581
 C1684 C 0.77262 0.53232 0.77253
 N1685 N 0.78590 0.53813 0.76685
 N1686 N 0.79322 0.54937 0.77416
 C1687 C 0.81694 0.10430 0.31664
 N1688 N 0.82984 0.11056 0.31059
 N1689 N 0.83645 0.12263 0.31720
 C1690 C 0.83043 0.12895 0.33011
 N1691 N 0.81754 0.12261 0.33616
 N1692 N 0.81093 0.11053 0.32956
 C1693 C 0.80945 0.09121 0.30916
 N1694 N 0.79638 0.08514 0.31505
 N1695 N 0.78941 0.07347 0.30809
 C1696 C 0.79524 0.06744 0.29498
 N1697 N 0.80834 0.07348 0.28912
 N1698 N 0.81531 0.08515 0.29608
 C1699 C 0.78736 0.05481 0.28712
 N1700 N 0.79305 0.04897 0.27386
 N1701 N 0.78572 0.03774 0.26656
 C1702 C 0.77245 0.03193 0.27225
 N1703 N 0.76678 0.03774 0.28553
 N1704 N 0.77411 0.04897 0.29284
 C1705 C 0.68335 0.39551 0.31691
 N1706 N 0.67044 0.38927 0.31089
 N1707 N 0.66384 0.37718 0.31750
 C1708 C 0.66989 0.37084 0.33038
 N1709 N 0.68279 0.37717 0.33640
 N1710 N 0.68939 0.38926 0.32980
 C1711 C 0.69082 0.40862 0.30943
 N1712 N 0.70390 0.41468 0.31529
 N1713 N 0.71086 0.42636 0.30832
 C1714 C 0.70500 0.43240 0.29524
 N1715 N 0.69189 0.42637 0.28940
 N1716 N 0.68493 0.41469 0.29637
 C1717 C 0.71286 0.44504 0.28736
 N1718 N 0.70715 0.45088 0.27412
 N1719 N 0.71446 0.46213 0.26680
 C1720 C 0.72774 0.46793 0.27245
 N1721 N 0.73343 0.46212 0.28571
 N1722 N 0.72612 0.45088 0.29303
 C1723 C 0.68332 0.89617 0.81681
 N1724 N 0.68933 0.88994 0.82973
 N1725 N 0.68270 0.87788 0.83635
 C1726 C 0.66980 0.87156 0.83032
 N1727 N 0.66379 0.87787 0.81742
 N1728 N 0.67041 0.88993 0.81079
 C1729 C 0.69083 0.90925 0.80931
 N1730 N 0.68497 0.91530 0.79623
 N1731 N 0.69196 0.92695 0.78925
 C1732 C 0.70506 0.93298 0.79510
 N1733 N 0.71089 0.92697 0.80821
 N1734 N 0.70390 0.91531 0.81519
 C1735 C 0.71296 0.94560 0.78721
 N1736 N 0.72621 0.95144 0.79291
 N1737 N 0.73354 0.96266 0.78559
 C1738 C 0.72789 0.96845 0.77230
 N1739 N 0.71462 0.96265 0.76663
 N1740 N 0.70728 0.95143 0.77395
 C1741 C 0.18296 0.39565 0.81694
 N1742 N 0.18897 0.38940 0.82985
 N1743 N 0.18236 0.37731 0.83643
 C1744 C 0.16948 0.37097 0.83039
 N1745 N 0.16346 0.37731 0.81750
 N1746 N 0.17006 0.38940 0.81090
 C1747 C 0.19044 0.40876 0.80947
 N1748 N 0.18458 0.41483 0.79640
 N1749 N 0.19155 0.42650 0.78945
 C1750 C 0.20465 0.43254 0.79531
 N1751 N 0.21048 0.42650 0.80840
 N1752 N 0.20351 0.41483 0.81536
 C1753 C 0.21253 0.44517 0.78744
 N1754 N 0.22578 0.45101 0.79314
 N1755 N 0.23311 0.46225 0.78583
 C1756 C 0.22745 0.46805 0.77255
 N1757 N 0.21418 0.46224 0.76687
 N1758 N 0.20685 0.45101 0.77418
 C1759 C 0.18345 0.89586 0.31673
 N1760 N 0.18947 0.88962 0.32964
 N1761 N 0.18284 0.87757 0.33627
 C1762 C 0.16992 0.87125 0.33026
 N1763 N 0.16390 0.87757 0.31737
 N1764 N 0.17052 0.88963 0.31073
 C1765 C 0.19095 0.90893 0.30922
 N1766 N 0.18508 0.91498 0.29615
 N1767 N 0.19207 0.92662 0.28915
 C1768 C 0.20518 0.93265 0.29498
 N1769 N 0.21103 0.92663 0.30808
 N1770 N 0.20404 0.91498 0.31507
 C1771 C 0.21307 0.94525 0.28707
 N1772 N 0.22633 0.95109 0.29274
 N1773 N 0.23366 0.96231 0.28541
 C1774 C 0.22799 0.96810 0.27213
 N1775 N 0.21470 0.96230 0.26648
 N1776 N 0.20737 0.95108 0.27382
 C1777 C 0.39557 0.31691 0.68340
 N1778 N 0.38932 0.32981 0.68945
 N1779 N 0.37725 0.33641 0.68285
 C1780 C 0.37093 0.33040 0.66994
 N1781 N 0.37726 0.31751 0.66390
 N1782 N 0.38934 0.31089 0.67049
 C1783 C 0.40865 0.30941 0.69088
 N1784 N 0.41472 0.29635 0.68498
 N1785 N 0.42638 0.28937 0.69193
 C1786 C 0.43241 0.29520 0.70504
 N1787 N 0.42637 0.30829 0.71091
 N1788 N 0.41471 0.31527 0.70396
 C1789 C 0.44502 0.28731 0.71290
 N1790 N 0.45086 0.29298 0.72616
 N1791 N 0.46209 0.28565 0.73346
 C1792 C 0.46789 0.27238 0.72776
 N1793 N 0.46209 0.26673 0.71448
 N1794 N 0.45086 0.27406 0.70718
 C1795 C 0.39602 0.81713 0.18281
 N1796 N 0.38978 0.81108 0.16991
 N1797 N 0.37771 0.81768 0.16330
 C1798 C 0.37138 0.83059 0.16931
 N1799 N 0.37770 0.83664 0.18220
 N1800 N 0.38977 0.83005 0.18882
 C1801 C 0.40910 0.80966 0.19031
 N1802 N 0.41514 0.81556 0.20337
 N1803 N 0.42680 0.80860 0.21036
 C1804 C 0.43283 0.79549 0.20454
 N1805 N 0.42682 0.78962 0.19144
 N1806 N 0.41517 0.79658 0.18445
 C1807 C 0.44544 0.78762 0.21244
 N1808 N 0.45129 0.77436 0.20677
 N1809 N 0.46250 0.76705 0.21411
 C1810 C 0.46827 0.77274 0.22740
 N1811 N 0.46246 0.78603 0.23304
 N1812 N 0.45125 0.79334 0.22569
 C1813 C 0.89576 0.31702 0.18296
 N1814 N 0.88952 0.32993 0.18899
 N1815 N 0.87744 0.33653 0.18239
 C1816 C 0.87112 0.33050 0.16950
 N1817 N 0.87744 0.31760 0.16346
 N1818 N 0.88952 0.31099 0.17006
 C1819 C 0.90885 0.30954 0.19044
 N1820 N 0.91491 0.29646 0.18457
 N1821 N 0.92657 0.28949 0.19154
 C1822 C 0.93259 0.29534 0.20464
 N1823 N 0.92656 0.30845 0.21048
 N1824 N 0.91490 0.31541 0.20351
 C1825 C 0.94521 0.28747 0.21252
 N1826 N 0.95103 0.29316 0.22577
 N1827 N 0.96225 0.28585 0.23310
 C1828 C 0.96806 0.27256 0.22743
 N1829 N 0.96227 0.26689 0.21415
 N1830 N 0.95105 0.27421 0.20682
 C1831 C 0.89600 0.81734 0.68313
 N1832 N 0.88976 0.83025 0.68917
 N1833 N 0.87769 0.83686 0.68257
 C1834 C 0.87136 0.83083 0.66967
 N1835 N 0.87769 0.81793 0.66363
 N1836 N 0.88976 0.81132 0.67023
 C1837 C 0.90909 0.80985 0.69061
 N1838 N 0.91515 0.79678 0.68472
 N1839 N 0.92681 0.78980 0.69168
 C1840 C 0.93283 0.79564 0.70478
 N1841 N 0.92681 0.80874 0.71064
 N1842 N 0.91515 0.81572 0.70368
 C1843 C 0.94545 0.78775 0.71265
 N1844 N 0.95128 0.79343 0.72590
 N1845 N 0.96250 0.78609 0.73321
 C1846 C 0.96829 0.77281 0.72753
 N1847 N 0.96249 0.76716 0.71425
 N1848 N 0.95127 0.77449 0.70694
 C1849 C 0.60460 0.31664 0.31687
 N1850 N 0.61084 0.32956 0.31087
 N1851 N 0.62291 0.33617 0.31748
 C1852 C 0.62924 0.33012 0.33036
 N1853 N 0.62292 0.31721 0.33638
 N1854 N 0.61085 0.31060 0.32977
 C1855 C 0.59152 0.30916 0.30938
 N1856 N 0.58545 0.29607 0.31524
 N1857 N 0.57379 0.28911 0.30826
 C1858 C 0.56776 0.29498 0.29518
 N1859 N 0.57379 0.30809 0.28935
 N1860 N 0.58546 0.31505 0.29632
 C1861 C 0.55514 0.28711 0.28729
 N1862 N 0.54931 0.29283 0.27405
 N1863 N 0.53808 0.28552 0.26672
 C1864 C 0.53227 0.27223 0.27238
 N1865 N 0.53806 0.26654 0.28565
 N1866 N 0.54929 0.27385 0.29297
 C1867 C 0.60442 0.81742 0.81691
 N1868 N 0.61068 0.83032 0.81087
 N1869 N 0.62276 0.83693 0.81747
 C1870 C 0.62907 0.83091 0.83038
 N1871 N 0.62273 0.81802 0.83642
 N1872 N 0.61065 0.81141 0.82983
 C1873 C 0.59134 0.80993 0.80944
 N1874 N 0.58526 0.79687 0.81533
 N1875 N 0.57360 0.78989 0.80837
 C1876 C 0.56759 0.79572 0.79525
 N1877 N 0.57363 0.80881 0.78939
 N1878 N 0.58529 0.81579 0.79635
 C1879 C 0.55497 0.78782 0.78738
 N1880 N 0.54916 0.79350 0.77411
 N1881 N 0.53794 0.78616 0.76680
 C1882 C 0.53212 0.77289 0.77249
 N1883 N 0.53790 0.76724 0.78578
 N1884 N 0.54912 0.77458 0.79310
 C1885 C 0.10423 0.31674 0.81680
 N1886 N 0.11045 0.31071 0.82971
 N1887 N 0.12251 0.31733 0.83634
 C1888 C 0.12885 0.33024 0.83032
 N1889 N 0.12254 0.33627 0.81741
 N1890 N 0.11048 0.32965 0.81079
 C1891 C 0.09116 0.30925 0.80930
 N1892 N 0.08513 0.31512 0.79621
 N1893 N 0.07348 0.30814 0.78923
 C1894 C 0.06743 0.29505 0.79507
 N1895 N 0.07343 0.28920 0.80818
 N1896 N 0.08508 0.29617 0.81517
 C1897 C 0.05482 0.28717 0.78718
 N1898 N 0.04895 0.27392 0.79288
 N1899 N 0.03773 0.26661 0.78556
 C1900 C 0.03196 0.27227 0.77226
 N1901 N 0.03779 0.28554 0.76659
 N1902 N 0.04902 0.29285 0.77392
 C1903 C 0.10455 0.81713 0.31683
 N1904 N 0.11081 0.83004 0.31081
 N1905 N 0.12288 0.83664 0.31742
 C1906 C 0.12920 0.83061 0.33031
 N1907 N 0.12286 0.81772 0.33635
 N1908 N 0.11078 0.81111 0.32974
 C1909 C 0.09147 0.80965 0.30934
 N1910 N 0.08540 0.79657 0.31521
 N1911 N 0.07374 0.78960 0.30823
 C1912 C 0.06773 0.79545 0.29513
 N1913 N 0.07377 0.80856 0.28929
 N1914 N 0.08543 0.81553 0.29627
 C1915 C 0.05511 0.78758 0.28724
 N1916 N 0.04930 0.79327 0.27399
 N1917 N 0.03808 0.78595 0.26666
 C1918 C 0.03227 0.77267 0.27232
 N1919 N 0.03804 0.76700 0.28560
 N1920 N 0.04926 0.77432 0.29293
 C1921 C 0.60463 0.68356 0.68355
 N1922 N 0.61087 0.68956 0.67063
 N1923 N 0.62294 0.68295 0.66403
 C1924 C 0.62927 0.67006 0.67008
 N1925 N 0.62295 0.66405 0.68299
 N1926 N 0.61087 0.67066 0.68959
 C1927 C 0.59153 0.69105 0.69102
 N1928 N 0.58546 0.68520 0.70410
 N1929 N 0.57379 0.69218 0.71105
 C1930 C 0.56776 0.70527 0.70518
 N1931 N 0.57380 0.71109 0.69207
 N1932 N 0.58547 0.70411 0.68512
 C1933 C 0.55513 0.71316 0.71303
 N1934 N 0.54929 0.72640 0.70730
 N1935 N 0.53805 0.73373 0.71459
 C1936 C 0.53223 0.72808 0.72788
 N1937 N 0.53803 0.71482 0.73358
 N1938 N 0.54927 0.70749 0.72629
 C1939 C 0.60453 0.18304 0.18315
 N1940 N 0.61076 0.17012 0.18917
 N1941 N 0.62284 0.16352 0.18255
 C1942 C 0.62917 0.16955 0.16965
 N1943 N 0.62285 0.18245 0.16363
 N1944 N 0.61078 0.18907 0.17024
 C1945 C 0.59145 0.19053 0.19064
 N1946 N 0.58540 0.20361 0.18477
 N1947 N 0.57374 0.21059 0.19175
 C1948 C 0.56770 0.20474 0.20484
 N1949 N 0.57372 0.19163 0.21069
 N1950 N 0.58538 0.18465 0.20371
 C1951 C 0.55509 0.21263 0.21273
 N1952 N 0.54924 0.20693 0.22598
 N1953 N 0.53801 0.21426 0.23330
 C1954 C 0.53223 0.22755 0.22764
 N1955 N 0.53804 0.23322 0.21436
 N1956 N 0.54927 0.22589 0.20704
 C1957 C 0.10461 0.68344 0.18311
 N1958 N 0.11086 0.68947 0.17020
 N1959 N 0.12293 0.68284 0.16359
 C1960 C 0.12924 0.66993 0.16962
 N1961 N 0.12290 0.66391 0.18252
 N1962 N 0.11084 0.67053 0.18914
 C1963 C 0.09153 0.69094 0.19061
 N1964 N 0.08546 0.68507 0.20368
 N1965 N 0.07380 0.69205 0.21066
 C1966 C 0.06779 0.70516 0.20481
 N1967 N 0.07383 0.71100 0.19171
 N1968 N 0.08548 0.70402 0.18474
 C1969 C 0.05517 0.71304 0.21270
 N1970 N 0.04935 0.72630 0.20700
 N1971 N 0.03812 0.73363 0.21432
 C1972 C 0.03231 0.72796 0.22760
 N1973 N 0.03810 0.71467 0.23327
 N1974 N 0.04932 0.70735 0.22595
 C1975 C 0.10431 0.18287 0.68333
 N1976 N 0.11056 0.18888 0.67041
 N1977 N 0.12264 0.18226 0.66382
 C1978 C 0.12897 0.16938 0.66987
 N1979 N 0.12264 0.16337 0.68278
 N1980 N 0.11056 0.16998 0.68938
 C1981 C 0.09122 0.19037 0.69079
 N1982 N 0.08514 0.18452 0.70388
 N1983 N 0.07347 0.19151 0.71083
 C1984 C 0.06745 0.20460 0.70494
 N1985 N 0.07349 0.21042 0.69183
 N1986 N 0.08516 0.20343 0.68488
 C1987 C 0.05483 0.21250 0.71279
 N1988 N 0.04901 0.22575 0.70706
 N1989 N 0.03778 0.23310 0.71435
 C1990 C 0.03196 0.22747 0.72764
 N1991 N 0.03773 0.21419 0.73335
 N1992 N 0.04896 0.20684 0.72606
 C1993 C 0.39572 0.68360 0.31656
 N1994 N 0.38948 0.67068 0.31054
 N1995 N 0.37740 0.66408 0.31715
 C1996 C 0.37107 0.67011 0.33005
 N1997 N 0.37739 0.68301 0.33607
 N1998 N 0.38947 0.68963 0.32946
 C1999 C 0.40881 0.69109 0.30907
 N2000 N 0.41487 0.70417 0.31494
 N2001 N 0.42654 0.71114 0.30798
 C2002 C 0.43258 0.70528 0.29488
 N2003 N 0.42656 0.69218 0.28904
 N2004 N 0.41488 0.68521 0.29600
 C2005 C 0.44522 0.71316 0.28701
 N2006 N 0.45108 0.70746 0.27377
 N2007 N 0.46233 0.71477 0.26646
 C2008 C 0.46812 0.72806 0.27213
 N2009 N 0.46230 0.73374 0.28540
 N2010 N 0.45105 0.72642 0.29271
 C2011 C 0.39554 0.18303 0.81682
 N2012 N 0.38929 0.18905 0.82973
 N2013 N 0.37722 0.18242 0.83633
 C2014 C 0.37089 0.16952 0.83029
 N2015 N 0.37723 0.16351 0.81739
 N2016 N 0.38931 0.17012 0.81078
 C2017 C 0.40864 0.19053 0.80934
 N2018 N 0.41470 0.18467 0.79626
 N2019 N 0.42637 0.19166 0.78929
 C2020 C 0.43240 0.20475 0.79515
 N2021 N 0.42636 0.21059 0.80826
 N2022 N 0.41469 0.20360 0.81523
 C2023 C 0.44502 0.21265 0.78728
 N2024 N 0.45085 0.22590 0.79299
 N2025 N 0.46208 0.23324 0.78568
 C2026 C 0.46789 0.22759 0.77239
 N2027 N 0.46209 0.21431 0.76671
 N2028 N 0.45086 0.20697 0.77402
 C2029 C 0.89579 0.68365 0.81671
 N2030 N 0.88955 0.68969 0.82962
 N2031 N 0.87748 0.68308 0.83623
 C2032 C 0.87115 0.67018 0.83022
 N2033 N 0.87747 0.66413 0.81733
 N2034 N 0.88955 0.67074 0.81070
 C2035 C 0.90889 0.69114 0.80921
 N2036 N 0.91494 0.68525 0.79614
 N2037 N 0.92662 0.69221 0.78916
 C2038 C 0.93266 0.70532 0.79500
 N2039 N 0.92663 0.71117 0.80810
 N2040 N 0.91496 0.70421 0.81508
 C2041 C 0.94529 0.71318 0.78712
 N2042 N 0.95115 0.72643 0.79281
 N2043 N 0.96239 0.73374 0.78549
 C2044 C 0.96818 0.72806 0.77221
 N2045 N 0.96236 0.71479 0.76654
 N2046 N 0.95112 0.70748 0.77386
 C2047 C 0.89571 0.18320 0.31657
 N2048 N 0.88947 0.17029 0.31053
 N2049 N 0.87741 0.16366 0.31716
 C2050 C 0.87109 0.16967 0.33007
 N2051 N 0.87741 0.18257 0.33611
 N2052 N 0.88947 0.18921 0.32949
 C2053 C 0.90878 0.19072 0.30907
 N2054 N 0.91483 0.20379 0.31496
 N2055 N 0.92649 0.21079 0.30799
 C2056 C 0.93252 0.20497 0.29488
 N2057 N 0.92650 0.19186 0.28902
 N2058 N 0.91484 0.18487 0.29599
 C2059 C 0.94513 0.21287 0.28700
 N2060 N 0.95098 0.20720 0.27374
 N2061 N 0.96221 0.21454 0.26643
 C2062 C 0.96800 0.22782 0.27211
 N2063 N 0.96219 0.23347 0.28540
 N2064 N 0.95096 0.22613 0.29271
 C2065 C 0.31679 0.31688 0.60467
 N2066 N 0.32970 0.31087 0.61090
 N2067 N 0.33630 0.31749 0.62297
 C2068 C 0.33026 0.33038 0.62929
 N2069 N 0.31736 0.33640 0.62298
 N2070 N 0.31075 0.32979 0.61091
 C2071 C 0.30930 0.30939 0.59159
 N2072 N 0.29623 0.31525 0.58553
 N2073 N 0.28926 0.30827 0.57388
 C2074 C 0.29511 0.29517 0.56785
 N2075 N 0.30822 0.28934 0.57387
 N2076 N 0.31519 0.29632 0.58552
 C2077 C 0.28724 0.28728 0.55524
 N2078 N 0.29294 0.27403 0.54939
 N2079 N 0.28563 0.26671 0.53817
 C2080 C 0.27234 0.27237 0.53238
 N2081 N 0.26667 0.28564 0.53819
 N2082 N 0.27398 0.29297 0.54941
 C2083 C 0.31719 0.81702 0.10406
 N2084 N 0.33010 0.81100 0.11030
 N2085 N 0.33671 0.81763 0.12235
 C2086 C 0.33069 0.83053 0.12867
 N2087 N 0.31779 0.83656 0.12236
 N2088 N 0.31117 0.82994 0.11030
 C2089 C 0.30970 0.80952 0.09099
 N2090 N 0.29662 0.81540 0.08494
 N2091 N 0.28964 0.80842 0.07329
 C2092 C 0.29548 0.79531 0.06727
 N2093 N 0.30858 0.78946 0.07329
 N2094 N 0.31556 0.79644 0.08494
 C2095 C 0.28759 0.78742 0.05467
 N2096 N 0.29327 0.77416 0.04884
 N2097 N 0.28595 0.76683 0.03762
 C2098 C 0.27266 0.77249 0.03184
 N2099 N 0.26700 0.78578 0.03763
 N2100 N 0.27433 0.79311 0.04884
 C2101 C 0.81692 0.31700 0.10425
 N2102 N 0.81089 0.32990 0.11051
 N2103 N 0.81751 0.33651 0.12258
 C2104 C 0.83042 0.33049 0.12887
 N2105 N 0.83645 0.31760 0.12253
 N2106 N 0.82984 0.31098 0.11047
 C2107 C 0.80942 0.30951 0.09118
 N2108 N 0.81530 0.29645 0.08510
 N2109 N 0.80832 0.28947 0.07345
 C2110 C 0.79520 0.29530 0.06745
 N2111 N 0.78935 0.30840 0.07350
 N2112 N 0.79633 0.31537 0.08515
 C2113 C 0.78731 0.28742 0.05484
 N2114 N 0.77404 0.29310 0.04904
 N2115 N 0.76672 0.28577 0.03782
 C2116 C 0.77240 0.27250 0.03200
 N2117 N 0.78570 0.26685 0.03777
 N2118 N 0.79302 0.27418 0.04899
 C2119 C 0.81715 0.81730 0.60445
 N2120 N 0.81113 0.83021 0.61069
 N2121 N 0.81775 0.83683 0.62275
 C2122 C 0.83066 0.83080 0.62905
 N2123 N 0.83668 0.81790 0.62273
 N2124 N 0.83006 0.81128 0.61067
 C2125 C 0.80964 0.80980 0.59138
 N2126 N 0.81551 0.79672 0.58532
 N2127 N 0.80852 0.78974 0.57368
 C2128 C 0.79541 0.79558 0.56767
 N2129 N 0.78957 0.80868 0.57370
 N2130 N 0.79656 0.81567 0.58535
 C2131 C 0.78752 0.78768 0.55508
 N2132 N 0.77425 0.79337 0.54927
 N2133 N 0.76692 0.78604 0.53806
 C2134 C 0.77258 0.77275 0.53226
 N2135 N 0.78587 0.76709 0.53803
 N2136 N 0.79320 0.77443 0.54924
 C2137 C 0.31692 0.68355 0.39541
 N2138 N 0.31089 0.67064 0.38917
 N2139 N 0.31750 0.66404 0.37709
 C2140 C 0.33040 0.67008 0.37075
 N2141 N 0.33643 0.68299 0.37708
 N2142 N 0.32982 0.68959 0.38916
 C2143 C 0.30943 0.69103 0.40851
 N2144 N 0.31531 0.70411 0.41457
 N2145 N 0.30834 0.71107 0.42624
 C2146 C 0.29524 0.70520 0.43228
 N2147 N 0.28940 0.69210 0.42625
 N2148 N 0.29637 0.68514 0.41458
 C2149 C 0.28737 0.71307 0.44492
 N2150 N 0.27412 0.70736 0.45076
 N2151 N 0.26680 0.71466 0.46201
 C2152 C 0.27247 0.72794 0.46781
 N2153 N 0.28575 0.73363 0.46200
 N2154 N 0.29306 0.72632 0.45076
 C2155 C 0.31667 0.18303 0.89556
 N2156 N 0.31064 0.17011 0.88932
 N2157 N 0.31727 0.16350 0.87726
 C2158 C 0.33017 0.16952 0.87094
 N2159 N 0.33620 0.18242 0.87726
 N2160 N 0.32959 0.18905 0.88932
 C2161 C 0.30917 0.19053 0.90864
 N2162 N 0.31505 0.20361 0.91469
 N2163 N 0.30808 0.21059 0.92634
 C2164 C 0.29497 0.20475 0.93238
 N2165 N 0.28912 0.19164 0.92636
 N2166 N 0.29609 0.18466 0.91470
 C2167 C 0.28710 0.21264 0.94499
 N2168 N 0.27384 0.20695 0.95084
 N2169 N 0.26652 0.21428 0.96207
 C2170 C 0.27220 0.22757 0.96785
 N2171 N 0.28548 0.23323 0.96204
 N2172 N 0.29280 0.22590 0.95081
 C2173 C 0.81693 0.68372 0.89551
 N2174 N 0.82984 0.68975 0.88926
 N2175 N 0.83646 0.68313 0.87720
 C2176 C 0.83044 0.67021 0.87089
 N2177 N 0.81755 0.66417 0.87722
 N2178 N 0.81092 0.67079 0.88928
 C2179 C 0.80942 0.69121 0.90858
 N2180 N 0.79635 0.68532 0.91465
 N2181 N 0.78937 0.69230 0.92630
 C2182 C 0.79520 0.70541 0.93232
 N2183 N 0.80830 0.71127 0.92629
 N2184 N 0.81529 0.70430 0.91463
 C2185 C 0.78731 0.71328 0.94494
 N2186 N 0.79300 0.72654 0.95078
 N2187 N 0.78567 0.73385 0.96201
 C2188 C 0.77239 0.72817 0.96781
 N2189 N 0.76673 0.71489 0.96201
 N2190 N 0.77406 0.70758 0.95078
 C2191 C 0.81703 0.18304 0.39550
 N2192 N 0.82993 0.18908 0.38924
 N2193 N 0.83652 0.18248 0.37715
 C2194 C 0.83048 0.16959 0.37082
 N2195 N 0.81759 0.16355 0.37717
 N2196 N 0.81099 0.17014 0.38926
 C2197 C 0.80956 0.19052 0.40861
 N2198 N 0.79649 0.18464 0.41469
 N2199 N 0.78954 0.19161 0.42637
 C2200 C 0.79540 0.20471 0.43239
 N2201 N 0.80849 0.21056 0.42634
 N2202 N 0.81545 0.20360 0.41466
 C2203 C 0.78753 0.21259 0.44502
 N2204 N 0.79324 0.22585 0.45085
 N2205 N 0.78593 0.23317 0.46208
 C2206 C 0.77265 0.22750 0.46791
 N2207 N 0.76697 0.21422 0.46212
 N2208 N 0.77428 0.20689 0.45088
 C2209 C 0.68343 0.31662 0.39562
 N2210 N 0.67052 0.31058 0.38938
 N2211 N 0.66391 0.31720 0.37732
 C2212 C 0.66992 0.33011 0.37100
 N2213 N 0.68282 0.33615 0.37732
 N2214 N 0.68944 0.32954 0.38938
 C2215 C 0.69092 0.30914 0.40869
 N2216 N 0.70399 0.31503 0.41474
 N2217 N 0.71097 0.30806 0.42640
 C2218 C 0.70514 0.29495 0.43243
 N2219 N 0.69204 0.28909 0.42641
 N2220 N 0.68506 0.29605 0.41476
 C2221 C 0.71302 0.28708 0.44505
 N2222 N 0.70734 0.27382 0.45089
 N2223 N 0.71466 0.26651 0.46212
 C2224 C 0.72794 0.27220 0.46790
 N2225 N 0.73360 0.28548 0.46209
 N2226 N 0.72628 0.29279 0.45087
 C2227 C 0.68322 0.81741 0.89565
 N2228 N 0.68925 0.83032 0.88941
 N2229 N 0.68264 0.83693 0.87734
 C2230 C 0.66974 0.83090 0.87102
 N2231 N 0.66370 0.81801 0.87735
 N2232 N 0.67030 0.81139 0.88942
 C2233 C 0.69070 0.80992 0.90873
 N2234 N 0.68482 0.79684 0.91479
 N2235 N 0.69179 0.78986 0.92644
 C2236 C 0.70489 0.79570 0.93246
 N2237 N 0.71074 0.80881 0.92644
 N2238 N 0.70378 0.81579 0.91479
 C2239 C 0.71277 0.78781 0.94507
 N2240 N 0.72603 0.79350 0.95090
 N2241 N 0.73335 0.78617 0.96211
 C2242 C 0.72767 0.77288 0.96790
 N2243 N 0.71439 0.76721 0.96211
 N2244 N 0.70707 0.77455 0.95090
 C2245 C 0.18297 0.31675 0.89562
 N2246 N 0.17007 0.31071 0.88938
 N2247 N 0.16347 0.31732 0.87731
 C2248 C 0.16949 0.33024 0.87100
 N2249 N 0.18237 0.33628 0.87733
 N2250 N 0.18899 0.32967 0.88940
 C2251 C 0.19047 0.30925 0.90870
 N2252 N 0.20353 0.31514 0.91476
 N2253 N 0.21051 0.30817 0.92641
 C2254 C 0.20468 0.29506 0.93243
 N2255 N 0.19158 0.28920 0.92641
 N2256 N 0.18460 0.29617 0.91475
 C2257 C 0.21256 0.28718 0.94504
 N2258 N 0.20688 0.27392 0.95088
 N2259 N 0.21421 0.26660 0.96210
 C2260 C 0.22749 0.27228 0.96789
 N2261 N 0.23315 0.28557 0.96208
 N2262 N 0.22582 0.29289 0.95086
 C2263 C 0.18332 0.81713 0.39562
 N2264 N 0.17041 0.81111 0.38939
 N2265 N 0.16381 0.81772 0.37731
 C2266 C 0.16985 0.83061 0.37098
 N2267 N 0.18275 0.83664 0.37730
 N2268 N 0.18935 0.83004 0.38937
 C2269 C 0.19079 0.80964 0.40871
 N2270 N 0.20387 0.81552 0.41476
 N2271 N 0.21083 0.80855 0.42642
 C2272 C 0.20498 0.79544 0.43245
 N2273 N 0.19188 0.78960 0.42643
 N2274 N 0.18491 0.79657 0.41477
 C2275 C 0.21286 0.78756 0.44506
 N2276 N 0.20716 0.77430 0.45089
 N2277 N 0.21448 0.76697 0.46211
 C2278 C 0.22776 0.77264 0.46790
 N2279 N 0.23343 0.78593 0.46211
 N2280 N 0.22611 0.79325 0.45089
 C2281 C 0.68344 0.68353 0.60474
 N2282 N 0.68947 0.67063 0.61098
 N2283 N 0.68285 0.66402 0.62306
 C2284 C 0.66995 0.67005 0.62939
 N2285 N 0.66392 0.68294 0.62306
 N2286 N 0.67053 0.68956 0.61099
 C2287 C 0.69092 0.69102 0.59165
 N2288 N 0.68504 0.70409 0.58559
 N2289 N 0.69201 0.71106 0.57392
 C2290 C 0.70511 0.70522 0.56788
 N2291 N 0.71097 0.69213 0.57391
 N2292 N 0.70400 0.68515 0.58558
 C2293 C 0.71298 0.71310 0.55525
 N2294 N 0.72624 0.70741 0.54940
 N2295 N 0.73355 0.71473 0.53817
 C2296 C 0.72787 0.72801 0.53237
 N2297 N 0.71459 0.73367 0.53818
 N2298 N 0.70728 0.72635 0.54942
 C2299 C 0.68335 0.18309 0.10435
 N2300 N 0.68939 0.17019 0.11059
 N2301 N 0.68277 0.16356 0.12266
 C2302 C 0.66986 0.16957 0.12898
 N2303 N 0.66382 0.18246 0.12265
 N2304 N 0.67042 0.18909 0.11059
 C2305 C 0.69083 0.19059 0.09126
 N2306 N 0.68493 0.20366 0.08521
 N2307 N 0.69190 0.21065 0.07355
 C2308 C 0.70501 0.20483 0.06752
 N2309 N 0.71088 0.19174 0.07354
 N2310 N 0.70392 0.18475 0.08520
 C2311 C 0.71288 0.21274 0.05490
 N2312 N 0.72615 0.20708 0.04905
 N2313 N 0.73345 0.21442 0.03782
 C2314 C 0.72776 0.22769 0.03204
 N2315 N 0.71446 0.23333 0.03785
 N2316 N 0.70716 0.22598 0.04907
 C2317 C 0.18342 0.68336 0.10428
 N2318 N 0.18943 0.67045 0.11052
 N2319 N 0.18281 0.66385 0.12260
 C2320 C 0.16992 0.66989 0.12892
 N2321 N 0.16390 0.68279 0.12259
 N2322 N 0.17051 0.68939 0.11052
 C2323 C 0.19092 0.69084 0.09118
 N2324 N 0.18505 0.70391 0.08512
 N2325 N 0.19203 0.71087 0.07345
 C2326 C 0.20513 0.70502 0.06742
 N2327 N 0.21097 0.69192 0.07346
 N2328 N 0.20399 0.68495 0.08512
 C2329 C 0.21302 0.71289 0.05479
 N2330 N 0.22627 0.70719 0.04896
 N2331 N 0.23359 0.71450 0.03772
 C2332 C 0.22793 0.72778 0.03191
 N2333 N 0.21465 0.73345 0.03772
 N2334 N 0.20733 0.72614 0.04895
 C2335 C 0.18319 0.18295 0.60461
 N2336 N 0.18923 0.17005 0.61085
 N2337 N 0.18261 0.16342 0.62291
 C2338 C 0.16969 0.16943 0.62923
 N2339 N 0.16365 0.18232 0.62291
 N2340 N 0.17027 0.18896 0.61085
 C2341 C 0.19068 0.19047 0.59154
 N2342 N 0.18480 0.20354 0.58549
 N2343 N 0.19177 0.21054 0.57384
 C2344 C 0.20488 0.20472 0.56781
 N2345 N 0.21074 0.19162 0.57382
 N2346 N 0.20377 0.18462 0.58547
 C2347 C 0.21276 0.21263 0.55520
 N2348 N 0.22603 0.20696 0.54936
 N2349 N 0.23334 0.21431 0.53814
 C2350 C 0.22766 0.22759 0.53236
 N2351 N 0.21437 0.23323 0.53817
 N2352 N 0.20706 0.22589 0.54938
   
