data_POSCAR
  _audit_creation_date              2014-09-24
  _audit_creation_method            'ToBaCCo'
  _symmetry_space_group_name_H-M    'P1'
  _symmetry_Int_Tables_number       1
  _symmetry_cell_setting            triclinic
  loop_
  _symmetry_equiv_pos_as_xyz
 x,y,z
_cell_length_a 75.6927
_cell_length_b 75.5560
_cell_length_c 75.8502
_cell_angle_alpha 90.553300
_cell_angle_beta 90.114900
_cell_angle_gamma 89.306100
loop_
  _atom_site_label
  _atom_site_type_symbol
  _atom_site_fract_x
  _atom_site_fract_y
  _atom_site_fract_z
C1 C 0.09922 0.01262 0.22695
 H2 H 0.09886 0.02309 0.23678
 C3 C 0.08982 0.01454 0.21118
 H4 H 0.08223 0.02655 0.20896
 C5 C 0.11040 -0.01531 0.21749
 H6 H 0.11877 -0.02673 0.21974
 C7 C 0.10124 -0.01395 0.20160
 H8 H 0.10233 -0.02461 0.19201
 N9 N 0.10926 -0.00213 0.22979
 C10 C 0.11880 -0.00547 0.28631
 H11 H 0.13302 -0.00713 0.28594
 C12 C 0.10993 -0.00602 0.30235
 H13 H 0.11744 -0.00826 0.31431
 C14 C 0.09181 -0.00123 0.27093
 H15 H 0.08482 0.00043 0.25862
 C16 C 0.08237 -0.00168 0.28676
 H17 H 0.06814 -0.00005 0.28649
 Zn18 Zn 0.12349 -0.00317 0.25031
 N19 N 0.10972 -0.00296 0.27105
 C20 C 0.13722 0.02907 0.26320
 N21 N 0.13832 0.01677 0.25002
 C22 C 0.14862 0.01938 0.23563
 C23 C 0.15814 0.03501 0.23396
 C24 C 0.14651 0.04483 0.26208
 C25 C 0.12689 -0.03945 0.25201
 C26 C 0.13506 -0.05605 0.25228
 C27 C 0.16332 -0.04176 0.25008
 C28 C 0.15448 -0.02539 0.24973
 N29 N 0.13658 -0.02459 0.25046
 H30 H 0.12870 0.02696 0.27436
 H31 H 0.14896 0.00954 0.22517
 H32 H 0.16582 0.03710 0.22215
 H33 H 0.14535 0.05449 0.27266
 H34 H 0.11267 -0.03836 0.25309
 H35 H 0.12655 -0.06721 0.25431
 H36 H 0.17749 -0.04157 0.24859
 H37 H 0.16196 -0.01334 0.24874
 C38 C 0.09147 -0.00405 0.30276
 C39 C 0.09094 0.00121 0.19817
 C40 C 0.15369 -0.05774 0.25114
 C41 C 0.15690 0.04811 0.24718
 C42 C 0.40274 0.01263 0.76381
 H43 H 0.40412 0.02324 0.75446
 C44 C 0.41236 0.01291 0.77958
 H45 H 0.42112 0.02383 0.78226
 C46 C 0.38877 -0.01391 0.77211
 H47 H 0.37925 -0.02411 0.76943
 C48 C 0.39812 -0.01417 0.78797
 H49 H 0.39597 -0.02488 0.79708
 N50 N 0.39113 -0.00059 0.76045
 C51 C 0.38023 0.00061 0.70396
 H52 H 0.36602 0.00229 0.70453
 C53 C 0.38864 -0.00092 0.68770
 H54 H 0.38077 0.00007 0.67582
 C55 C 0.40755 -0.00242 0.71898
 H56 H 0.41478 -0.00331 0.73125
 C57 C 0.41652 -0.00428 0.70294
 H58 H 0.43066 -0.00663 0.70307
 Zn59 Zn 0.37646 0.00098 0.74025
 N60 N 0.38972 0.00001 0.71917
 C61 C 0.36572 0.03533 0.72955
 N62 N 0.36373 0.02266 0.74198
 C63 C 0.35356 0.02565 0.75650
 C64 C 0.34469 0.04183 0.75881
 C65 C 0.35709 0.05167 0.73132
 C66 C 0.36921 -0.03453 0.73640
 C67 C 0.35938 -0.04997 0.73578
 C68 C 0.33292 -0.03242 0.74068
 C69 C 0.34331 -0.01722 0.74118
 N70 N 0.36116 -0.01861 0.73936
 H71 H 0.37424 0.03296 0.71836
 H72 H 0.35255 0.01551 0.76641
 H73 H 0.33687 0.04406 0.77058
 H74 H 0.35872 0.06148 0.72117
 H75 H 0.38339 -0.03519 0.73469
 H76 H 0.36611 -0.06249 0.73340
 H77 H 0.31878 -0.03117 0.74260
 H78 H 0.33712 -0.00440 0.74316
 C79 C 0.40704 -0.00359 0.68697
 C80 C 0.40989 -0.00049 0.79203
 C81 C 0.34100 -0.04910 0.73818
 C82 C 0.34646 0.05514 0.74614
 C83 C 0.90527 0.51106 0.27813
 H84 H 0.91160 0.51585 0.26640
 C85 C 0.91432 0.51163 0.29420
 H86 H 0.92728 0.51747 0.29427
 C87 C 0.88037 0.49871 0.29190
 H88 H 0.86715 0.49353 0.29088
 C89 C 0.88891 0.49891 0.30819
 H90 H 0.88202 0.49322 0.31919
 N91 N 0.88854 0.50480 0.27729
 C92 C 0.89130 0.48905 0.22545
 H93 H 0.88337 0.47773 0.22848
 C94 C 0.90172 0.48861 0.21032
 H95 H 0.90168 0.47692 0.20194
 C96 C 0.90043 0.51826 0.23204
 H97 H 0.89962 0.52990 0.24043
 C98 C 0.91080 0.51850 0.21682
 H99 H 0.91815 0.53026 0.21366
 Zn100 Zn 0.87550 0.50417 0.25593
 N101 N 0.89082 0.50371 0.23602
 C102 C 0.85930 0.53402 0.23997
 N103 N 0.86052 0.52444 0.25503
 C104 C 0.85177 0.52959 0.26989
 C105 C 0.84199 0.54538 0.27025
 C106 C 0.84972 0.54992 0.23976
 C107 C 0.87029 0.46789 0.25935
 C108 C 0.86122 0.45197 0.25841
 C109 C 0.83467 0.46833 0.25090
 C110 C 0.84431 0.48398 0.25187
 N111 N 0.86183 0.48343 0.25581
 H112 H 0.86595 0.52948 0.22815
 H113 H 0.85276 0.52171 0.28166
 H114 H 0.83569 0.54959 0.28241
 H115 H 0.84911 0.55749 0.22772
 H116 H 0.88425 0.46787 0.26245
 H117 H 0.86843 0.43973 0.26063
 H118 H 0.82072 0.46902 0.24775
 H119 H 0.83786 0.49652 0.24919
 C120 C 0.91148 0.50351 0.20576
 C121 C 0.90622 0.50557 0.30977
 C122 C 0.84318 0.45200 0.25400
 C123 C 0.84119 0.55596 0.25514
 C124 C 0.60988 0.51409 0.72772
 H125 H 0.61842 0.52492 0.73111
 C126 C 0.60092 0.51437 0.71163
 H127 H 0.60275 0.52539 0.70281
 C128 C 0.59681 0.48680 0.73499
 H129 H 0.59515 0.47608 0.74408
 C130 C 0.58740 0.48668 0.71912
 H131 H 0.57881 0.47571 0.71607
 N132 N 0.60800 0.50026 0.73893
 C133 C 0.61584 0.49784 0.79594
 H134 H 0.63014 0.49763 0.79631
 C135 C 0.60627 0.49676 0.81156
 H136 H 0.61341 0.49611 0.82392
 C137 C 0.58942 0.49950 0.77923
 H138 H 0.58293 0.50057 0.76658
 C139 C 0.57929 0.49813 0.79455
 H140 H 0.56504 0.49788 0.79340
 Zn141 Zn 0.62192 0.49964 0.75996
 N142 N 0.60736 0.49921 0.78020
 C143 C 0.63217 0.53309 0.77292
 N144 N 0.63625 0.52023 0.76088
 C145 C 0.64909 0.52273 0.74864
 C146 C 0.65836 0.53862 0.74822
 C147 C 0.64095 0.54922 0.77285
 C148 C 0.62624 0.46330 0.76277
 C149 C 0.63461 0.44678 0.76243
 C150 C 0.66244 0.46131 0.75795
 C151 C 0.65349 0.47764 0.75836
 N152 N 0.63560 0.47832 0.76024
 H153 H 0.62155 0.53120 0.78217
 H154 H 0.65172 0.51263 0.73876
 H155 H 0.66852 0.54026 0.73838
 H156 H 0.63689 0.55944 0.78214
 H157 H 0.61222 0.46414 0.76524
 H158 H 0.62682 0.43504 0.76442
 H159 H 0.67660 0.46097 0.75593
 H160 H 0.66089 0.48966 0.75706
 C161 C 0.58770 0.49667 0.81105
 C162 C 0.58965 0.50046 0.70710
 C163 C 0.65290 0.44558 0.75967
 C164 C 0.65417 0.55226 0.76030
 C165 C 0.27182 0.10106 0.98082
 H166 H 0.26213 0.10016 0.97035
 C167 C 0.28810 0.09221 0.97916
 H168 H 0.29084 0.08448 0.96737
 C169 C 0.28048 0.11315 1.00840
 H170 H 0.27778 0.12172 1.01956
 C171 C 0.29684 0.10459 1.00728
 H172 H 0.30629 0.10630 1.01788
 N173 N 0.26837 0.11136 0.99525
 C174 C 0.21164 0.12147 0.99812
 H175 H 0.21230 0.13564 1.00011
 C176 C 0.19533 0.11318 0.99791
 H177 H 0.18346 0.12107 0.99993
 C178 C 0.22652 0.09403 0.99345
 H179 H 0.23874 0.08668 0.99179
 C180 C 0.21038 0.08514 0.99322
 H181 H 0.21028 0.07094 0.99117
 Zn182 Zn 0.24755 0.12554 0.99602
 N183 N 0.22678 0.11192 0.99562
 C184 C 0.23485 0.13855 0.96369
 N185 N 0.24785 0.14033 0.97597
 C186 C 0.26204 0.15076 0.97298
 C187 C 0.26378 0.15950 0.95689
 C188 C 0.23602 0.14705 0.94754
 C189 C 0.24486 0.12803 1.03189
 C190 C 0.24427 0.13544 1.04872
 C191 C 0.24713 0.16433 1.03578
 C192 C 0.24780 0.15621 1.01909
 N193 N 0.24689 0.13834 1.01754
 H194 H 0.22386 0.12992 0.96602
 H195 H 0.27239 0.15166 0.98280
 H196 H 0.27549 0.16718 0.95445
 H197 H 0.22561 0.14523 0.93790
 H198 H 0.24369 0.11385 1.03019
 H199 H 0.24185 0.12645 1.05939
 H200 H 0.24875 0.17851 1.03626
 H201 H 0.24923 0.16418 1.00743
 C202 C 0.19452 0.09481 0.99526
 C203 C 0.30097 0.09420 0.99239
 C204 C 0.24563 0.15398 1.05124
 C205 C 0.25083 0.15733 0.94376
 C206 C 0.72703 0.40864 1.00185
 H207 H 0.73928 0.41556 1.00393
 C208 C 0.71107 0.41817 1.00115
 H209 H 0.71116 0.43239 1.00296
 C210 C 0.71192 0.38169 0.99721
 H211 H 0.71241 0.36744 0.99569
 C212 C 0.69577 0.39064 0.99639
 H213 H 0.68387 0.38316 0.99400
 N214 N 0.72709 0.39069 1.00019
 C215 C 0.78096 0.38764 0.98973
 H216 H 0.77867 0.37853 0.97895
 C217 C 0.79710 0.39624 0.99080
 H218 H 0.80681 0.39396 0.98053
 C219 C 0.77144 0.40122 1.01640
 H220 H 0.76148 0.40273 1.02654
 C221 C 0.78747 0.41014 1.01799
 H222 H 0.78977 0.41854 1.02939
 Zn223 Zn 0.74774 0.37644 1.00165
 N224 N 0.76851 0.39019 1.00244
 C225 C 0.74643 0.37121 0.96578
 N226 N 0.74809 0.36211 0.98107
 C227 C 0.74985 0.34416 0.98106
 C228 C 0.75066 0.33475 0.96507
 C229 C 0.74724 0.36240 0.94960
 C230 C 0.73358 0.36581 1.03407
 C231 C 0.73378 0.35803 1.05064
 C232 C 0.76172 0.34414 1.04338
 C233 C 0.76095 0.35230 1.02689
 N234 N 0.74711 0.36303 1.02263
 H235 H 0.74480 0.38545 0.96620
 H236 H 0.75089 0.33717 0.99340
 H237 H 0.75250 0.32052 0.96518
 H238 H 0.74601 0.36996 0.93759
 H239 H 0.72271 0.37447 1.03059
 H240 H 0.72224 0.36030 1.05874
 H241 H 0.77356 0.33661 1.04629
 H242 H 0.77178 0.35061 1.01772
 C243 C 0.80064 0.40746 1.00518
 C244 C 0.69513 0.40910 0.99862
 C245 C 0.74821 0.34724 1.05605
 C246 C 0.74965 0.34397 0.94907
 C247 C 0.23402 0.90123 0.48601
 H248 H 0.24340 0.90204 0.47532
 C249 C 0.21811 0.91084 0.48527
 H250 H 0.21537 0.91904 0.47394
 C251 C 0.22573 0.88866 0.51322
 H252 H 0.22847 0.87969 0.52389
 C253 C 0.20973 0.89801 0.51302
 H254 H 0.20058 0.89641 0.52382
 N255 N 0.23746 0.89031 0.49979
 C256 C 0.29396 0.87853 0.50142
 H257 H 0.29305 0.86431 0.50252
 C258 C 0.31045 0.88648 0.50138
 H259 H 0.32221 0.87828 0.50265
 C260 C 0.27959 0.90641 0.49863
 H261 H 0.26749 0.91407 0.49754
 C262 C 0.29590 0.91497 0.49856
 H263 H 0.29624 0.92921 0.49722
 Zn264 Zn 0.25781 0.87544 0.49907
 N265 N 0.27898 0.88847 0.49973
 C266 C 0.27004 0.86411 0.46574
 N267 N 0.25691 0.86217 0.47775
 C268 C 0.24254 0.85213 0.47406
 C269 C 0.24096 0.84363 0.45766
 C270 C 0.26901 0.85589 0.44926
 C271 C 0.26129 0.86920 0.53466
 C272 C 0.26193 0.85979 0.55033
 C273 C 0.25678 0.83288 0.53372
 C274 C 0.25628 0.84286 0.51827
 N275 N 0.25828 0.86072 0.51908
 H276 H 0.28117 0.87243 0.46866
 H277 H 0.23209 0.85110 0.48369
 H278 H 0.22925 0.83604 0.45475
 H279 H 0.27962 0.85766 0.43992
 H280 H 0.26313 0.88338 0.53485
 H281 H 0.26445 0.86684 0.56255
 H282 H 0.25478 0.81873 0.53294
 H283 H 0.25421 0.83635 0.50571
 C284 C 0.31161 0.90491 0.49968
 C285 C 0.20559 0.90905 0.49878
 C286 C 0.25946 0.84140 0.55006
 C287 C 0.25422 0.84570 0.44493
 C288 C 0.77162 0.59881 0.48088
 H289 H 0.76209 0.59812 0.47025
 C290 C 0.78737 0.58896 0.47985
 H291 H 0.78988 0.58069 0.46837
 C292 C 0.78035 0.61114 0.50833
 H293 H 0.77786 0.62009 0.51924
 C294 C 0.79619 0.60158 0.50784
 H295 H 0.80544 0.60297 0.51866
 N296 N 0.76842 0.60964 0.49498
 C297 C 0.71183 0.62079 0.49731
 H298 H 0.71252 0.63503 0.49873
 C299 C 0.69550 0.61252 0.49754
 H300 H 0.68364 0.62051 0.49929
 C301 C 0.72663 0.59316 0.49381
 H302 H 0.73884 0.58570 0.49250
 C303 C 0.71050 0.58430 0.49402
 H304 H 0.71039 0.57003 0.49261
 Zn305 Zn 0.74797 0.62438 0.49530
 N306 N 0.72695 0.61112 0.49523
 C307 C 0.73554 0.63730 0.46276
 N308 N 0.74863 0.63879 0.47498
 C309 C 0.76293 0.64908 0.47202
 C310 C 0.76453 0.65823 0.45615
 C311 C 0.73660 0.64619 0.44680
 C312 C 0.74508 0.62806 0.53122
 C313 C 0.74523 0.63610 0.54780
 C314 C 0.75001 0.66425 0.53382
 C315 C 0.74981 0.65561 0.51740
 N316 N 0.74767 0.63777 0.51648
 H317 H 0.72447 0.62877 0.46508
 H318 H 0.77335 0.64975 0.48178
 H319 H 0.77624 0.66595 0.45380
 H320 H 0.72604 0.64472 0.43726
 H321 H 0.74317 0.61393 0.53005
 H322 H 0.74320 0.62807 0.55935
 H323 H 0.75214 0.67838 0.53445
 H324 H 0.75159 0.66309 0.50548
 C325 C 0.69465 0.59405 0.49575
 C326 C 0.79999 0.59046 0.49339
 C327 C 0.74797 0.65438 0.54930
 C328 C 0.75137 0.65658 0.44316
 C329 C 0.01139 0.22999 0.09445
 H330 H 0.02082 0.24057 0.09338
 C331 C 0.01433 0.21397 0.08546
 H332 H 0.02606 0.21231 0.07744
 C333 C -0.01480 0.21889 0.10709
 H334 H -0.02589 0.22059 0.11589
 C335 C -0.01237 0.20273 0.09840
 H336 H -0.02194 0.19237 0.10027
 N337 N -0.00297 0.23211 0.10507
 C338 C -0.01165 0.28836 0.11489
 H339 H -0.01325 0.28765 0.12904
 C340 C -0.01338 0.30457 0.10649
 H341 H -0.01695 0.31594 0.11454
 C342 C -0.00623 0.27372 0.08770
 H343 H -0.00340 0.26161 0.08049
 C344 C -0.00787 0.28972 0.07867
 H345 H -0.00569 0.28948 0.06459
 Zn346 Zn -0.00522 0.25280 0.11918
 N347 N -0.00780 0.27343 0.10553
 C348 C 0.02614 0.26872 0.13130
 N349 N 0.01554 0.25443 0.13303
 C350 C 0.02048 0.24044 0.14314
 C351 C 0.03682 0.24038 0.15180
 C352 C 0.04251 0.26922 0.13973
 C353 C -0.04126 0.25214 0.12400
 C354 C -0.05734 0.25118 0.13279
 C355 C -0.04142 0.24933 0.16038
 C356 C -0.02554 0.25026 0.15100
 N357 N -0.02580 0.25143 0.13312
 H358 H 0.02223 0.27955 0.12293
 H359 H 0.01198 0.22908 0.14399
 H360 H 0.04078 0.22889 0.15932
 H361 H 0.05076 0.28069 0.13809
 H362 H -0.04104 0.25335 0.10980
 H363 H -0.06949 0.25186 0.12525
 H364 H -0.04106 0.24813 0.17458
 H365 H -0.01309 0.25000 0.15799
 C366 C -0.01118 0.30569 0.08805
 C367 C 0.00249 0.19999 0.08764
 C368 C -0.05758 0.24963 0.15120
 C369 C 0.04819 0.25480 0.14989
 C370 C 0.02190 0.76424 0.40182
 H371 H 0.03199 0.75404 0.40290
 C372 C 0.02327 0.77988 0.41175
 H373 H 0.03448 0.78162 0.42045
 C374 C -0.00444 0.77476 0.38841
 H375 H -0.01499 0.77301 0.37899
 C376 C -0.00359 0.79054 0.39804
 H377 H -0.01381 0.80051 0.39621
 N378 N 0.00819 0.76198 0.39042
 C379 C 0.00558 0.70539 0.37857
 H380 H 0.00502 0.70636 0.36436
 C381 C 0.00497 0.68886 0.38649
 H382 H 0.00374 0.67715 0.37825
 C383 C 0.00742 0.71967 0.40646
 H384 H 0.00827 0.73174 0.41415
 C385 C 0.00680 0.70332 0.41498
 H386 H 0.00744 0.70294 0.42923
 Zn387 Zn 0.00780 0.74160 0.37560
 N388 N 0.00701 0.72034 0.38855
 C389 C 0.04110 0.72889 0.36427
 N390 N 0.02861 0.74170 0.36174
 C391 C 0.03126 0.75506 0.35019
 C392 C 0.04673 0.75552 0.34016
 C393 C 0.05682 0.72897 0.35473
 C394 C -0.02835 0.74118 0.37019
 C395 C -0.04436 0.74170 0.36112
 C396 C -0.02814 0.74295 0.33381
 C397 C -0.01241 0.74251 0.34352
 N398 N -0.01281 0.74199 0.36140
 H399 H 0.03910 0.71875 0.37398
 H400 H 0.02130 0.76533 0.34872
 H401 H 0.04835 0.76603 0.33073
 H402 H 0.06669 0.71885 0.35735
 H403 H -0.02827 0.74019 0.38442
 H404 H -0.05615 0.74032 0.36895
 H405 H -0.02689 0.74432 0.31972
 H406 H 0.00009 0.74272 0.33670
 C407 C 0.00571 0.68762 0.40493
 C408 C 0.01051 0.79338 0.40974
 C409 C -0.04475 0.74286 0.34247
 C410 C 0.05980 0.74232 0.34234
 C411 C 0.51638 0.27572 0.89467
 H412 H 0.52859 0.27203 0.88825
 C413 C 0.51533 0.29172 0.90396
 H414 H 0.52681 0.30011 0.90461
 C415 C 0.48628 0.26998 0.90066
 H416 H 0.47491 0.26159 0.89893
 C417 C 0.48460 0.28597 0.90994
 H418 H 0.47196 0.28967 0.91563
 N419 N 0.50196 0.26524 0.89313
 C420 C 0.50568 0.20862 0.88274
 H421 H 0.51070 0.20911 0.86942
 C422 C 0.50408 0.19237 0.89110
 H423 H 0.50827 0.18046 0.88417
 C424 C 0.49449 0.22374 0.90793
 H425 H 0.49071 0.23599 0.91440
 C426 C 0.49250 0.20771 0.91675
 H427 H 0.48697 0.20786 0.92989
 Zn428 Zn 0.50257 0.24503 0.87817
 N429 N 0.50079 0.22387 0.89116
 C430 C 0.53898 0.24037 0.87492
 N431 N 0.52411 0.24420 0.86558
 C432 C 0.52471 0.24710 0.84792
 C433 C 0.54089 0.24657 0.83905
 C434 C 0.55539 0.23973 0.86661
 C435 C 0.47178 0.23320 0.86079
 C436 C 0.45617 0.23526 0.85119
 C437 C 0.46401 0.26560 0.84560
 C438 C 0.47960 0.26290 0.85514
 N439 N 0.48306 0.24697 0.86270
 H440 H 0.53808 0.23800 0.88893
 H441 H 0.51268 0.24989 0.84072
 H442 H 0.54114 0.24883 0.82498
 H443 H 0.56711 0.23708 0.87441
 H444 H 0.47460 0.22074 0.86712
 H445 H 0.44712 0.22430 0.85022
 H446 H 0.46126 0.27845 0.83995
 H447 H 0.48869 0.27369 0.85707
 C448 C 0.49721 0.19170 0.90828
 C449 C 0.49921 0.29715 0.91150
 C450 C 0.45198 0.25171 0.84372
 C451 C 0.55653 0.24290 0.84843
 C452 C 0.51198 0.73103 0.59555
 H453 H 0.52273 0.74031 0.59500
 C454 C 0.51327 0.71495 0.58634
 H455 H 0.52499 0.71206 0.57862
 C456 C 0.48441 0.72285 0.60752
 H457 H 0.47339 0.72567 0.61615
 C458 C 0.48515 0.70667 0.59854
 H459 H 0.47444 0.69744 0.60008
 N460 N 0.49786 0.73454 0.60617
 C461 C 0.49653 0.79128 0.61826
 H462 H 0.49276 0.79058 0.63196
 C463 C 0.49765 0.80775 0.61027
 H464 H 0.49497 0.81960 0.61801
 C465 C 0.50328 0.77668 0.59130
 H466 H 0.50521 0.76457 0.58387
 C467 C 0.50446 0.79294 0.58272
 H468 H 0.50762 0.79315 0.56881
 Zn469 Zn 0.49782 0.75467 0.62152
 N470 N 0.49969 0.77616 0.60887
 C471 C 0.52054 0.76570 0.64943
 N472 N 0.51708 0.75247 0.63766
 C473 C 0.52765 0.73778 0.63673
 C474 C 0.54291 0.73653 0.64699
 C475 C 0.53560 0.76490 0.66011
 C476 C 0.46161 0.75984 0.62400
 C477 C 0.44496 0.76033 0.63179
 C478 C 0.45853 0.75264 0.65960
 C479 C 0.47498 0.75226 0.65125
 N480 N 0.47615 0.75569 0.63373
 H481 H 0.51183 0.77706 0.65040
 H482 H 0.52446 0.72703 0.62788
 H483 H 0.55136 0.72492 0.64575
 H484 H 0.53847 0.77582 0.66897
 H485 H 0.46299 0.76259 0.61011
 H486 H 0.43354 0.76369 0.62381
 H487 H 0.45773 0.74950 0.67347
 H488 H 0.48675 0.74894 0.65867
 C489 C 0.50181 0.80875 0.59230
 C490 C 0.49992 0.70234 0.58814
 C491 C 0.44323 0.75655 0.64978
 C492 C 0.54721 0.75037 0.65859
 C493 C 0.88674 0.98194 0.71630
 H494 H 0.87801 0.97099 0.71860
 C495 C 0.89584 0.98259 0.70123
 H496 H 0.89463 0.97164 0.69204
 C497 C 0.89901 1.00890 0.72694
 H498 H 0.89975 1.01933 0.73677
 C499 C 0.90948 1.01011 0.71061
 H500 H 0.91735 1.02181 0.70899
 N501 N 0.88849 0.99567 0.72938
 C502 C 0.87865 0.99290 0.78678
 H503 H 0.86439 0.99214 0.78651
 C504 C 0.88729 0.99219 0.80213
 H505 H 0.87964 0.99030 0.81397
 C506 C 0.90533 0.99443 0.77026
 H507 H 0.91228 0.99518 0.75789
 C508 C 0.91547 0.99369 0.78690
 H509 H 0.92966 0.99483 0.78597
 Zn510 Zn 0.87421 0.99575 0.74984
 N511 N 0.88814 0.99447 0.77053
 C512 C 0.86818 0.95990 0.75196
 N513 N 0.85959 0.97564 0.74986
 C514 C 0.84166 0.97657 0.74882
 C515 C 0.83167 0.96112 0.74967
 C516 C 0.85876 0.94422 0.75294
 C517 C 0.86320 1.02901 0.76335
 C518 C 0.85536 1.04577 0.76264
 C519 C 0.84283 1.03803 0.73434
 C520 C 0.85090 1.02132 0.73561
 N521 N 0.86097 1.01720 0.74990
 H522 H 0.88243 0.95960 0.75307
 H523 H 0.83509 0.98926 0.74742
 H524 H 0.81743 0.96205 0.74858
 H525 H 0.86592 0.93192 0.75494
 H526 H 0.87154 1.02572 0.77443
 H527 H 0.85741 1.05497 0.77347
 H528 H 0.83534 1.04128 0.72261
 H529 H 0.84964 1.01184 0.72492
 C530 C 0.90699 0.99294 0.80257
 C531 C 0.90793 0.99765 0.69777
 C532 C 0.84530 1.05062 0.74785
 C533 C 0.84024 0.94464 0.75173
 C534 C 0.38665 0.48037 0.22622
 H535 H 0.37791 0.46945 0.22852
 C536 C 0.39600 0.48105 0.21042
 H537 H 0.39463 0.47039 0.20089
 C538 C 0.39868 0.50773 0.23554
 H539 H 0.39929 0.51827 0.24527
 C540 C 0.40828 0.50895 0.21989
 H541 H 0.41625 0.52051 0.21766
 N542 N 0.38808 0.49363 0.23837
 C543 C 0.37821 0.49073 0.29475
 H544 H 0.36395 0.49006 0.29444
 C545 C 0.38715 0.48974 0.31080
 H546 H 0.37964 0.48813 0.32280
 C547 C 0.40525 0.49317 0.27931
 H548 H 0.41223 0.49439 0.26698
 C549 C 0.41475 0.49226 0.29510
 H550 H 0.42901 0.49310 0.29479
 Zn551 Zn 0.37361 0.49394 0.25866
 N552 N 0.38730 0.49266 0.27947
 C553 C 0.36702 0.45819 0.26100
 N554 N 0.35875 0.47403 0.25852
 C555 C 0.34089 0.47522 0.25670
 C556 C 0.33067 0.45990 0.25698
 C557 C 0.35737 0.44263 0.26140
 C558 C 0.36237 0.52729 0.27187
 C559 C 0.35498 0.54423 0.27066
 C560 C 0.34386 0.53660 0.24173
 C561 C 0.35142 0.51974 0.24353
 N562 N 0.36064 0.51550 0.25834
 H563 H 0.38121 0.45770 0.26270
 H564 H 0.33457 0.48799 0.25500
 H565 H 0.31650 0.46100 0.25520
 H566 H 0.36426 0.43021 0.26359
 H567 H 0.37001 0.52386 0.28339
 H568 H 0.35665 0.55345 0.28153
 H569 H 0.33717 0.53996 0.22956
 H570 H 0.35057 0.51023 0.23280
 C571 C 0.40567 0.49066 0.31114
 C572 C 0.40680 0.49560 0.20698
 C573 C 0.34592 0.54923 0.25529
 C574 C 0.33894 0.44330 0.25925
 C575 C 0.59750 0.99706 0.26637
 H576 H 0.59548 0.98573 0.25786
 C577 C 0.58907 0.99808 0.28187
 H578 H 0.58083 0.98716 0.28564
 C579 C 0.61094 1.02507 0.27072
 H580 H 0.61935 1.03563 0.26652
 C581 C 0.60218 1.02668 0.28797
 H582 H 0.60426 1.03873 0.29547
 N583 N 0.60934 1.01080 0.26113
 C584 C 0.62056 1.00371 0.20499
 H585 H 0.63465 1.00133 0.20588
 C586 C 0.61215 1.00299 0.18865
 H587 H 0.61988 0.99989 0.17700
 C588 C 0.59340 1.01026 0.21929
 H589 H 0.58623 1.01313 0.23132
 C590 C 0.58441 1.00960 0.20315
 H591 H 0.57030 1.01211 0.20283
 Zn592 Zn 0.62434 1.00792 0.24103
 N593 N 0.61118 1.00743 0.21985
 C594 C 0.62696 0.97107 0.24019
 N595 N 0.63674 0.98593 0.24231
 C596 C 0.65458 0.98486 0.24446
 C597 C 0.66310 0.96837 0.24529
 C598 C 0.63492 0.95435 0.24093
 C599 C 0.63881 1.03946 0.22763
 C600 C 0.64855 1.05501 0.22840
 C601 C 0.66175 1.04495 0.25556
 C602 C 0.65167 1.02963 0.25428
 N603 N 0.64028 1.02726 0.24060
 H604 H 0.61298 0.97219 0.23754
 H605 H 0.66231 0.99672 0.24547
 H606 H 0.67725 0.96779 0.24737
 H607 H 0.62687 0.94273 0.23907
 H608 H 0.62961 1.03747 0.21691
 H609 H 0.64709 1.06419 0.21763
 H610 H 0.66978 1.04665 0.26724
 H611 H 0.65223 1.02003 0.26476
 C612 C 0.59385 1.00604 0.18754
 C613 C 0.59203 1.01347 0.29398
 C614 C 0.66001 1.05833 0.24276
 C615 C 0.65321 0.95282 0.24366
 C616 C 0.09252 0.50418 0.77836
 H617 H 0.08511 0.50632 0.76635
 C618 C 0.08368 0.50337 0.79450
 H619 H 0.06942 0.50463 0.79475
 C620 C 0.12011 0.49990 0.79265
 H621 H 0.13433 0.49870 0.79176
 C622 C 0.11184 0.49900 0.80901
 H623 H 0.11986 0.49728 0.82071
 N624 N 0.11042 0.50251 0.77778
 C625 C 0.09712 0.48929 0.73383
 H626 H 0.09696 0.47861 0.74314
 C627 C 0.08681 0.48808 0.71858
 H628 H 0.07916 0.47628 0.71620
 C629 C 0.10731 0.51747 0.72543
 H630 H 0.11516 0.52901 0.72813
 C631 C 0.09724 0.51679 0.71001
 H632 H 0.09750 0.52785 0.70104
 Zn633 Zn 0.12317 0.50397 0.75649
 N634 N 0.10748 0.50362 0.73678
 C635 C 0.13074 0.46793 0.75824
 N636 N 0.13846 0.48378 0.75534
 C637 C 0.15611 0.48477 0.75209
 C638 C 0.16647 0.46933 0.75087
 C639 C 0.14052 0.45223 0.75706
 C640 C 0.13237 0.53763 0.76957
 C641 C 0.14008 0.55430 0.76936
 C642 C 0.15548 0.54584 0.74267
 C643 C 0.14729 0.52937 0.74326
 N644 N 0.13595 0.52556 0.75659
 H645 H 0.11693 0.46743 0.76166
 H646 H 0.16226 0.49745 0.75047
 H647 H 0.18048 0.47038 0.74829
 H648 H 0.13385 0.43980 0.75891
 H649 H 0.12309 0.53460 0.77987
 H650 H 0.13690 0.56379 0.77970
 H651 H 0.16418 0.54881 0.73180
 H652 H 0.14952 0.51982 0.73276
 C653 C 0.08709 0.50179 0.70625
 C654 C 0.09338 0.50077 0.81011
 C655 C 0.15168 0.55862 0.75572
 C656 C 0.15864 0.45274 0.75321
 C657 C 0.77517 0.89877 0.01129
 H658 H 0.76646 0.90000 0.02253
 C659 C 0.79131 0.90760 0.01135
 H660 H 0.79487 0.91576 0.02259
 C661 C 0.78176 0.88573 -0.01650
 H662 H 0.77821 0.87702 -0.02727
 C663 C 0.79804 0.89412 -0.01688
 H664 H 0.80674 0.89193 -0.02804
 N665 N 0.77077 0.88793 -0.00245
 C666 C 0.71380 0.87988 -0.00440
 H667 H 0.71405 0.86623 -0.00878
 C668 C 0.69773 0.88904 -0.00359
 H669 H 0.68580 0.88224 -0.00741
 C670 C 0.72923 0.90547 0.00467
 H671 H 0.74152 0.91192 0.00769
 C672 C 0.71337 0.91513 0.00585
 H673 H 0.71370 0.92884 0.01012
 Zn674 Zn 0.75003 0.87389 -0.00179
 N675 N 0.72914 0.88807 -0.00015
 C676 C 0.73679 0.84877 0.02219
 N677 N 0.75114 0.85853 0.01795
 C678 C 0.76586 0.85834 0.02828
 C679 C 0.76611 0.84899 0.04406
 C680 C 0.73649 0.83918 0.03786
 C681 C 0.74231 0.86935 -0.03738
 C682 C 0.74276 0.86132 -0.05398
 C683 C 0.75673 0.83564 -0.04096
 C684 C 0.75583 0.84413 -0.02449
 N685 N 0.74886 0.86075 -0.02309
 H686 H 0.72532 0.84883 0.01374
 H687 H 0.77736 0.86571 0.02451
 H688 H 0.77784 0.84929 0.05225
 H689 H 0.72466 0.83213 0.04136
 H690 H 0.73709 0.88267 -0.03593
 H691 H 0.73736 0.86843 -0.06512
 H692 H 0.76291 0.82267 -0.04195
 H693 H 0.76126 0.83773 -0.01296
 C694 C 0.69730 0.90688 0.00178
 C695 C 0.80309 0.90500 -0.00273
 C696 C 0.75038 0.84437 -0.05605
 C697 C 0.75113 0.83960 0.04925
 C698 C 0.27589 0.39662 0.51332
 H699 H 0.26687 0.39790 0.52431
 C700 C 0.29221 0.40511 0.51400
 H701 H 0.29556 0.41310 0.52543
 C702 C 0.28311 0.38374 0.48562
 H703 H 0.27974 0.37520 0.47466
 C704 C 0.29959 0.39177 0.48587
 H705 H 0.30860 0.38951 0.47498
 N706 N 0.27169 0.38606 0.49931
 C707 C 0.21458 0.37901 0.49563
 H708 H 0.21483 0.36558 0.49060
 C709 C 0.19855 0.38819 0.49674
 H710 H 0.18662 0.38165 0.49245
 C711 C 0.23001 0.40400 0.50632
 H712 H 0.24227 0.41020 0.50992
 C713 C 0.21417 0.41365 0.50782
 H714 H 0.21450 0.42708 0.51290
 Zn715 Zn 0.25063 0.37244 0.49907
 N716 N 0.22990 0.38687 0.50059
 C717 C 0.23636 0.34658 0.52152
 N718 N 0.25087 0.35653 0.51835
 C719 C 0.26503 0.35608 0.52943
 C720 C 0.26447 0.34628 0.54491
 C721 C 0.23528 0.33653 0.53684
 C722 C 0.24415 0.36899 0.46313
 C723 C 0.24457 0.36113 0.44646
 C724 C 0.25656 0.33451 0.45953
 C725 C 0.25571 0.34285 0.47606
 N726 N 0.24973 0.35984 0.47748
 H727 H 0.22536 0.34684 0.51245
 H728 H 0.27666 0.36362 0.52651
 H729 H 0.27573 0.34642 0.55375
 H730 H 0.22331 0.32932 0.53950
 H731 H 0.23964 0.38255 0.46464
 H732 H 0.23990 0.36866 0.43527
 H733 H 0.26193 0.32119 0.45856
 H734 H 0.26034 0.33598 0.48766
 C735 C 0.19811 0.40568 0.50316
 C736 C 0.30439 0.40242 0.50028
 C737 C 0.25114 0.34376 0.44439
 C738 C 0.24927 0.33670 0.54900
 C739 C 0.22210 0.59750 -0.00155
 H740 H 0.23393 0.58945 -0.00031
 C741 C 0.20549 0.58952 -0.00149
 H742 H 0.20504 0.57537 0.00035
 C743 C 0.20876 0.62576 -0.00474
 H744 H 0.21020 0.63990 -0.00622
 C745 C 0.19198 0.61844 -0.00464
 H746 H 0.18086 0.62730 -0.00666
 N747 N 0.22336 0.61535 -0.00291
 C748 C 0.27652 0.61314 -0.01681
 H749 H 0.27380 0.62162 -0.02787
 C750 C 0.29257 0.60397 -0.01619
 H751 H 0.30173 0.60516 -0.02705
 C752 C 0.26834 0.60186 0.01101
 H753 H 0.25902 0.60157 0.02179
 C754 C 0.28435 0.59246 0.01220
 H755 H 0.28723 0.58491 0.02394
 Zn756 Zn 0.24496 0.62761 -0.00299
 N757 N 0.26485 0.61213 -0.00325
 C758 C 0.26168 0.65094 0.02098
 N759 N 0.24666 0.64172 0.01773
 C760 C 0.23370 0.64070 0.03006
 C761 C 0.23570 0.64879 0.04650
 C762 C 0.26424 0.65926 0.03735
 C763 C 0.24149 0.63181 -0.03874
 C764 C 0.24200 0.63996 -0.05509
 C765 C 0.24881 0.66758 -0.04039
 C766 C 0.24824 0.65883 -0.02421
 N767 N 0.24495 0.64118 -0.02377
 H768 H 0.27197 0.65123 0.01111
 H769 H 0.22204 0.63302 0.02749
 H770 H 0.22529 0.64759 0.05618
 H771 H 0.27653 0.66599 0.03997
 H772 H 0.23870 0.61783 -0.03794
 H773 H 0.23935 0.63219 -0.06686
 H774 H 0.25188 0.68153 -0.04066
 H775 H 0.25072 0.66605 -0.01210
 C776 C 0.29687 0.59381 -0.00137
 C777 C 0.18993 0.60001 -0.00278
 C778 C 0.24596 0.65800 -0.05611
 C779 C 0.25129 0.65786 0.05050
 C780 C 0.72973 0.10167 0.50768
 H781 H 0.73836 0.09943 0.51885
 C782 C 0.71360 0.09284 0.50655
 H783 H 0.70994 0.08372 0.51681
 C784 C 0.72339 0.11703 0.48128
 H785 H 0.72704 0.12656 0.47148
 C786 C 0.70714 0.10869 0.47977
 H787 H 0.69856 0.11182 0.46876
 N788 N 0.73417 0.11377 0.49530
 C789 C 0.79111 0.12326 0.49713
 H790 H 0.79079 0.13740 0.49527
 C791 C 0.80730 0.11433 0.49704
 H792 H 0.81930 0.12188 0.49584
 C793 C 0.77584 0.09630 0.50019
 H794 H 0.76355 0.08927 0.50108
 C795 C 0.79184 0.08679 0.50016
 H796 H 0.79167 0.07250 0.50103
 Zn797 Zn 0.75459 0.12815 0.49797
 N798 N 0.77576 0.11426 0.49881
 C799 C 0.76615 0.15249 0.52428
 N800 N 0.75254 0.14207 0.51902
 C801 C 0.73774 0.14076 0.52907
 C802 C 0.73673 0.14915 0.54552
 C803 C 0.76572 0.16107 0.54068
 C804 C 0.76455 0.13618 0.46370
 C805 C 0.76359 0.14480 0.44758
 C806 C 0.74490 0.16722 0.46112
 C807 C 0.74636 0.15822 0.47711
 N808 N 0.75586 0.14285 0.47800
 H809 H 0.77761 0.15385 0.51602
 H810 H 0.72675 0.13298 0.52452
 H811 H 0.72492 0.14770 0.55338
 H812 H 0.77707 0.16861 0.54490
 H813 H 0.77165 0.12372 0.46459
 H814 H 0.77052 0.13913 0.43636
 H815 H 0.73665 0.17900 0.46042
 H816 H 0.73923 0.16299 0.48858
 C817 C 0.80786 0.09584 0.49848
 C818 C 0.70192 0.09670 0.49267
 C819 C 0.75326 0.16027 0.44597
 C820 C 0.75104 0.15911 0.55174
 C821 C 0.98707 0.72449 0.89658
 H822 H 0.97601 0.73334 0.89917
 C823 C 0.98812 0.70890 0.90478
 H824 H 0.97765 0.70547 0.91376
 C825 C 1.01315 0.71851 0.87991
 H826 H 1.02265 0.72200 0.86999
 C827 C 1.01470 0.70111 0.88836
 H828 H 1.02601 0.69292 0.88491
 N829 N 1.00020 0.72931 0.88389
 C830 C 0.99791 0.78770 0.87790
 H831 H 1.00051 0.78827 0.86393
 C832 C 0.99671 0.80271 0.88724
 H833 H 0.99739 0.81501 0.88014
 C834 C 0.99383 0.76987 0.90322
 H835 H 0.99317 0.75717 0.90951
 C836 C 0.99238 0.78614 0.91415
 H837 H 0.99100 0.78450 0.92822
 Zn838 Zn 0.99812 0.75078 0.87107
 N839 N 0.99609 0.77087 0.88625
 C840 C 0.97401 0.76361 0.84535
 N841 N 0.97803 0.74971 0.85598
 C842 C 0.96751 0.73524 0.85643
 C843 C 0.95191 0.73474 0.84661
 C844 C 0.95855 0.76365 0.83529
 C845 C 1.03370 0.75746 0.86731
 C846 C 1.04987 0.75935 0.85887
 C847 C 1.03537 0.75369 0.83099
 C848 C 1.01940 0.75192 0.84000
 N849 N 1.01892 0.75373 0.85785
 H850 H 0.98268 0.77479 0.84475
 H851 H 0.97104 0.72410 0.86456
 H852 H 0.94364 0.72318 0.84731
 H853 H 0.95533 0.77511 0.82738
 H854 H 1.03290 0.75871 0.88151
 H855 H 1.06154 0.76190 0.86673
 H856 H 1.03558 0.75222 0.81678
 H857 H 1.00747 0.74886 0.83279
 C858 C 0.99381 0.80225 0.90669
 C859 C 1.00270 0.69611 0.90043
 C860 C 1.05089 0.75741 0.84048
 C861 C 0.94710 0.74922 0.83611
 C862 C 0.48543 0.22715 0.39402
 H863 H 0.47415 0.23573 0.39652
 C864 C 0.48651 0.21063 0.40214
 H865 H 0.47616 0.20668 0.41107
 C866 C 0.51203 0.22127 0.37850
 H867 H 0.52182 0.22522 0.36905
 C868 C 0.51348 0.20459 0.38612
 H869 H 0.52455 0.19604 0.38266
 N870 N 0.49816 0.23222 0.38251
 C871 C 0.49849 0.28992 0.37921
 H872 H 0.50205 0.29089 0.36546
 C873 C 0.49759 0.30521 0.38963
 H874 H 0.50053 0.31781 0.38371
 C875 C 0.49138 0.27219 0.40369
 H876 H 0.48916 0.25934 0.40925
 C877 C 0.49017 0.28719 0.41459
 H878 H 0.48666 0.28562 0.42830
 Zn879 Zn 0.49610 0.25414 0.37038
 N880 N 0.49513 0.27382 0.38624
 C881 C 0.47027 0.26904 0.34771
 N882 N 0.47536 0.25403 0.35620
 C883 C 0.46568 0.23901 0.35491
 C884 C 0.44992 0.23890 0.34532
 C885 C 0.45461 0.26950 0.33793
 C886 C 0.53187 0.25964 0.36430
 C887 C 0.54746 0.26059 0.35463
 C888 C 0.53055 0.25614 0.32793
 C889 C 0.51524 0.25522 0.33814
 N890 N 0.51622 0.25678 0.35599
 H891 H 0.47823 0.28076 0.34866
 H892 H 0.47010 0.22706 0.36133
 H893 H 0.44239 0.22683 0.34451
 H894 H 0.45056 0.28171 0.33167
 H895 H 0.53224 0.26074 0.37852
 H896 H 0.55984 0.26227 0.36160
 H897 H 0.52955 0.25482 0.31374
 H898 H 0.50264 0.25292 0.33184
 C899 C 0.49313 0.30404 0.40754
 C900 C 0.50060 0.19908 0.39804
 C901 C 0.54698 0.25869 0.33619
 C902 C 0.44409 0.25435 0.33686
 C903 C 0.99182 0.26653 0.60056
 H904 H 0.98250 0.25614 0.59770
 C905 C 0.99127 0.28221 0.59087
 H906 H 0.98124 0.28352 0.58078
 C907 C 1.01505 0.27757 0.61822
 H908 H 1.02414 0.27594 0.62909
 C909 C 1.01481 0.29350 0.60912
 H910 H 1.02446 0.30330 0.61282
 N911 N 1.00369 0.26444 0.61387
 C912 C 1.00662 0.20776 0.62493
 H913 H 1.00642 0.20893 0.63916
 C914 C 1.00747 0.19107 0.61699
 H915 H 1.00777 0.17946 0.62524
 C916 C 1.00586 0.22161 0.59704
 H917 H 1.00535 0.23356 0.58935
 C918 C 1.00663 0.20509 0.58851
 H919 H 1.00675 0.20449 0.57424
 Zn920 Zn 1.00338 0.24393 0.62818
 N921 N 1.00558 0.22259 0.61497
 C922 C 0.96942 0.23147 0.63563
 N923 N 0.98146 0.24392 0.64028
 C924 C 0.97738 0.25694 0.65216
 C925 C 0.96070 0.25755 0.66012
 C926 C 0.95259 0.23175 0.64302
 C927 C 1.03893 0.24348 0.63543
 C928 C 1.05458 0.24444 0.64502
 C929 C 1.03741 0.24684 0.67174
 C930 C 1.02200 0.24581 0.66152
 N931 N 1.02306 0.24446 0.64368
 H932 H 0.97264 0.22155 0.62577
 H933 H 0.98697 0.26700 0.65526
 H934 H 0.95754 0.26805 0.66945
 H935 H 0.94315 0.22180 0.63906
 H936 H 1.03938 0.24242 0.62120
 H937 H 1.06674 0.24464 0.63759
 H938 H 1.03596 0.24751 0.68590
 H939 H 1.00924 0.24610 0.66790
 C940 C 1.00734 0.18953 0.59854
 C941 C 1.00271 0.29627 0.59521
 C942 C 1.05422 0.24627 0.66358
 C943 C 0.94803 0.24494 0.65537
 C944 C 0.48922 0.77025 0.10421
 H945 H 0.47858 0.76094 0.10560
 C946 C 0.48667 0.78558 0.09428
 H947 H 0.47409 0.78791 0.08784
 C948 C 0.51840 0.77885 0.11137
 H949 H 0.53057 0.77653 0.11843
 C950 C 0.51648 0.79419 0.10145
 H951 H 0.52728 0.80345 0.10096
 N952 N 0.50488 0.76721 0.11254
 C953 C 0.51118 0.71110 0.12386
 H954 H 0.51434 0.71222 0.13774
 C955 C 0.51097 0.69451 0.11571
 H956 H 0.51380 0.68289 0.12352
 C957 C 0.50309 0.72502 0.09711
 H958 H 0.50009 0.73697 0.08995
 C959 C 0.50274 0.70862 0.08839
 H960 H 0.49956 0.70811 0.07448
 Zn961 Zn 0.50708 0.74739 0.12755
 N962 N 0.50703 0.72589 0.11460
 C963 C 0.47675 0.73374 0.14394
 N964 N 0.48758 0.74795 0.14319
 C965 C 0.48369 0.76319 0.15214
 C966 C 0.46819 0.76464 0.16210
 C967 C 0.46127 0.73455 0.15385
 C968 C 0.54355 0.74532 0.12982
 C969 C 0.56027 0.74573 0.13750
 C970 C 0.54654 0.75185 0.16568
 C971 C 0.53001 0.75133 0.15741
 N972 N 0.52886 0.74828 0.13975
 H973 H 0.47972 0.72190 0.13641
 H974 H 0.49237 0.77441 0.15109
 H975 H 0.46511 0.77695 0.16892
 H976 H 0.45259 0.72326 0.15382
 H977 H 0.54222 0.74281 0.11581
 H978 H 0.57177 0.74374 0.12922
 H979 H 0.54725 0.75421 0.17976
 H980 H 0.51813 0.75339 0.16509
 C981 C 0.50662 0.69307 0.09776
 C982 C 0.50042 0.79780 0.09288
 C983 C 0.56196 0.74904 0.15566
 C984 C 0.45668 0.75022 0.16288
 O985 O -0.01363 0.95058 0.98929
 O986 O -0.00352 0.94855 1.01791
 O987 O -0.05179 0.99381 0.99226
 O988 O -0.05209 1.02252 0.99877
 O989 O -0.01245 0.99155 0.95027
 O990 O 0.01798 0.99884 0.94918
 O991 O -0.00118 1.03726 1.03676
 O992 O -0.02910 1.02570 1.03940
 O993 O 0.03471 0.99492 1.03740
 O994 O 0.03744 0.96666 1.02147
 O995 O 0.03876 1.03257 0.99786
 O996 O 0.02315 1.03905 0.97082
 O997 O 0.01192 1.04845 1.01239
 O998 O 0.00158 1.05067 0.98100
 O999 O 0.04934 1.00714 1.00984
 O1000 O 0.04809 0.97574 0.99921
 O1001 O 0.01131 1.00950 1.04967
 O1002 O -0.01911 0.99749 1.05016
 O1003 O -0.00016 0.96180 0.96511
 O1004 O 0.02789 0.97581 0.96063
 O1005 O -0.03614 1.00568 0.96250
 O1006 O -0.03677 1.03436 0.97904
 O1007 O -0.04121 0.96775 1.00297
 O1008 O -0.02530 0.96463 1.03146
 Zr1009 Zr -0.01406 0.97215 1.00707
 O1010 O 0.00329 0.98598 1.02385
 Zr1011 Zr -0.02920 1.00938 0.98918
 O1012 O -0.01291 1.02474 1.00564
 Zr1013 Zr 0.00521 0.98836 0.97146
 O1014 O 0.02312 1.00314 0.98672
 Zr1015 Zr -0.00723 1.01128 1.02909
 O1016 O -0.02557 0.99690 1.01366
 Zr1017 Zr 0.02727 0.99058 1.01099
 O1018 O 0.01077 0.97479 0.99492
 Zr1019 Zr 0.01177 1.02779 0.99351
 O1020 O -0.00521 1.01390 0.97610
 O1021 O -0.01919 0.98438 0.98312
 O1022 O 0.01726 1.01559 1.01742
 C1023 C -0.00727 0.94907 0.97361
 C1024 C -0.05386 0.97790 0.99767
 C1025 C -0.02789 0.99874 0.94929
 C1026 C 0.00624 1.04983 1.02833
 C1027 C 0.02684 1.00252 1.05049
 C1028 C 0.05133 1.02296 1.00420
 H1029 H 0.00501 0.97928 1.03488
 H1030 H 0.03422 1.00442 0.98003
 H1031 H -0.02729 0.97739 0.97559
 H1032 H -0.01883 1.03622 1.00814
 H1033 H -0.03972 1.01861 1.03679
 H1034 H -0.04874 1.02823 1.01004
 H1035 H 0.05204 0.98219 0.98867
 H1036 H 0.03195 0.96698 0.96935
 H1037 H -0.01785 1.00477 1.06103
 H1038 H -0.03256 0.95393 1.02951
 H1039 H 0.03122 1.03008 0.96556
 H1040 H 0.01379 1.01125 0.94813
 H1041 H 0.00876 0.94736 1.01355
 H1042 H 0.02947 0.96296 1.03103
 H1043 H -0.02863 1.03690 0.96920
 H1044 H -0.00873 1.05498 0.98788
 O1045 O 0.53597 0.49318 0.54518
 O1046 O 0.53723 0.46584 0.53087
 O1047 O 0.53954 0.53085 0.50364
 O1048 O 0.52488 0.53812 0.47932
 O1049 O 0.49877 0.53674 0.54361
 O1050 O 0.47133 0.52263 0.54838
 O1051 O 0.48812 0.48868 0.45845
 O1052 O 0.51697 0.49801 0.45673
 O1053 O 0.48685 0.44934 0.49713
 O1054 O 0.49640 0.44726 0.52760
 O1055 O 0.44935 0.49123 0.49899
 O1056 O 0.44977 0.52192 0.50801
 O1057 O 0.46438 0.50264 0.47089
 O1058 O 0.46201 0.53188 0.48709
 O1059 O 0.46000 0.46570 0.51072
 O1060 O 0.47654 0.46075 0.53917
 O1061 O 0.49847 0.46088 0.47221
 O1062 O 0.52912 0.47261 0.47153
 O1063 O 0.51195 0.50661 0.55773
 O1064 O 0.48113 0.49935 0.55919
 O1065 O 0.51155 0.54778 0.51905
 O1066 O 0.50035 0.54840 0.48843
 O1067 O 0.55033 0.50590 0.51648
 O1068 O 0.54818 0.47541 0.50463
 Zr1069 Zr 0.52821 0.48945 0.51878
 O1070 O 0.51160 0.47349 0.50316
 Zr1071 Zr 0.51229 0.52642 0.50107
 O1072 O 0.49547 0.51200 0.48432
 Zr1073 Zr 0.49374 0.51015 0.53696
 O1074 O 0.47570 0.49537 0.52182
 Zr1075 Zr 0.50594 0.48659 0.47953
 O1076 O 0.52404 0.50187 0.49433
 Zr1077 Zr 0.48697 0.47060 0.51536
 O1078 O 0.50434 0.48474 0.53211
 Zr1079 Zr 0.47151 0.50759 0.49735
 O1080 O 0.48769 0.52368 0.51355
 O1081 O 0.51791 0.51441 0.52494
 O1082 O 0.48147 0.48248 0.49129
 C1083 C 0.52759 0.49978 0.55850
 C1084 C 0.55227 0.52135 0.50986
 C1085 C 0.50545 0.54947 0.53478
 C1086 C 0.47244 0.49534 0.45771
 C1087 C 0.49158 0.44820 0.48089
 C1088 C 0.44741 0.47537 0.50452
 H1089 H 0.51748 0.46194 0.50087
 H1090 H 0.46459 0.49423 0.52852
 H1091 H 0.52600 0.52155 0.53233
 H1092 H 0.49378 0.51848 0.47317
 H1093 H 0.52857 0.50282 0.46028
 H1094 H 0.52182 0.53091 0.46883
 H1095 H 0.46644 0.46844 0.54264
 H1096 H 0.48569 0.48709 0.56034
 H1097 H 0.52687 0.46733 0.45973
 H1098 H 0.55947 0.47628 0.51124
 H1099 H 0.44732 0.51705 0.51980
 H1100 H 0.46663 0.53095 0.53947
 H1101 H 0.52761 0.46183 0.53864
 H1102 H 0.50793 0.44414 0.52223
 H1103 H 0.48953 0.55147 0.49516
 H1104 H 0.46889 0.53449 0.47637
 O1105 O 0.55514 0.01076 0.47970
 O1106 O 0.55570 -0.01861 0.48682
 O1107 O 0.51063 0.01354 0.44298
 O1108 O 0.48168 0.00988 0.44351
 O1109 O 0.51610 0.05318 0.48549
 O1110 O 0.51052 0.05264 0.51606
 O1111 O 0.46642 -0.03069 0.49168
 O1112 O 0.47704 -0.03241 0.46334
 O1113 O 0.50961 -0.03696 0.52565
 O1114 O 0.53870 -0.02329 0.52840
 O1115 O 0.47413 0.00452 0.53406
 O1116 O 0.46916 0.03355 0.52133
 O1117 O 0.45702 -0.00635 0.50703
 O1118 O 0.45650 0.02599 0.49931
 O1119 O 0.49947 -0.00916 0.54294
 O1120 O 0.53127 -0.00114 0.54106
 O1121 O 0.49376 -0.04656 0.50206
 O1122 O 0.50481 -0.04591 0.47124
 O1123 O 0.54580 0.03525 0.49492
 O1124 O 0.53295 0.03866 0.52391
 O1125 O 0.50117 0.04344 0.46134
 O1126 O 0.47160 0.02913 0.46082
 O1127 O 0.53655 0.00075 0.45160
 O1128 O 0.53816 -0.02926 0.46495
 Zr1129 Zr 0.53255 -0.00509 0.47843
 O1130 O 0.51835 -0.02196 0.49506
 Zr1131 Zr 0.49613 0.01662 0.46641
 O1132 O 0.48036 0.00021 0.48196
 Zr1133 Zr 0.51912 0.03045 0.50106
 O1134 O 0.50396 0.01512 0.51833
 Zr1135 Zr 0.49258 -0.02461 0.48525
 O1136 O 0.50723 -0.00904 0.46756
 Zr1137 Zr 0.51519 -0.01035 0.52011
 O1138 O 0.53137 0.00557 0.50419
 Zr1139 Zr 0.47871 0.01090 0.50757
 O1140 O 0.49310 0.02840 0.49148
 O1141 O 0.52168 0.02017 0.47570
 O1142 O 0.48966 -0.01428 0.51069
 C1143 C 0.55780 0.02594 0.48699
 C1144 C 0.52620 0.00734 0.43984
 C1145 C 0.50863 0.05567 0.47048
 C1146 C 0.45458 -0.02180 0.50022
 C1147 C 0.50115 -0.04896 0.51712
 C1148 C 0.48382 -0.00303 0.54578
 H1149 H 0.52446 -0.03358 0.49563
 H1150 H 0.50334 0.02113 0.52994
 H1151 H 0.52882 0.02773 0.46794
 H1152 H 0.46864 -0.00101 0.47635
 H1153 H 0.48395 -0.02965 0.45266
 H1154 H 0.47602 -0.00156 0.44591
 H1155 H 0.52569 0.00976 0.54593
 H1156 H 0.54145 0.02904 0.52674
 H1157 H 0.49700 -0.05632 0.47198
 H1158 H 0.54860 -0.02763 0.45726
 H1159 H 0.47838 0.03718 0.52983
 H1160 H 0.49787 0.05446 0.51319
 H1161 H 0.55734 -0.01558 0.49944
 H1162 H 0.54152 -0.03272 0.51969
 H1163 H 0.46996 0.03871 0.46968
 H1164 H 0.45140 0.02006 0.48883
 O1165 O -0.00350 0.46769 1.03899
 O1166 O 0.02437 0.47951 1.04138
 O1167 O -0.03809 0.51324 1.04410
 O1168 O -0.04403 0.53808 1.02980
 O1169 O -0.04605 0.47402 1.00234
 O1170 O -0.03240 0.46900 0.97456
 O1171 O 0.00767 0.55538 0.99518
 O1172 O -0.00143 0.55712 1.02375
 O1173 O 0.04413 0.51271 0.99200
 O1174 O 0.04392 0.48190 1.00054
 O1175 O 0.00346 0.51641 0.95469
 O1176 O -0.02735 0.51019 0.95399
 O1177 O -0.00641 0.54489 0.97075
 O1178 O -0.03687 0.53109 0.96780
 O1179 O 0.02735 0.50117 0.96485
 O1180 O 0.02988 0.47199 0.98044
 O1181 O 0.03470 0.53826 1.00511
 O1182 O 0.02211 0.53941 1.03551
 O1183 O -0.01736 0.45694 1.01455
 O1184 O -0.00983 0.45584 0.98359
 O1185 O -0.05567 0.49925 1.01593
 O1186 O -0.05387 0.53035 1.00510
 O1187 O -0.01471 0.49728 1.05446
 O1188 O 0.01661 0.50637 1.05298
 Zr1189 Zr 0.00200 0.49399 1.03246
 O1190 O 0.01936 0.50841 1.01658
 Zr1191 Zr -0.03322 0.51550 1.01697
 O1192 O -0.01721 0.53136 1.00107
 Zr1193 Zr -0.01923 0.47858 0.99726
 O1194 O -0.00315 0.49283 0.97991
 Zr1195 Zr 0.00824 0.53346 1.01187
 O1196 O -0.00854 0.51969 1.02914
 Zr1197 Zr 0.02172 0.49655 0.99156
 O1198 O 0.00617 0.48076 1.00820
 Zr1199 Zr -0.01332 0.51862 0.97665
 O1200 O -0.03086 0.50342 0.99197
 O1201 O -0.02305 0.49040 1.02180
 O1202 O 0.01192 0.52198 0.98700
 C1203 C -0.01076 0.45514 1.03010
 C1204 C -0.02945 0.50565 1.05659
 C1205 C -0.05819 0.48365 1.00956
 C1206 C 0.00137 0.55720 0.97955
 C1207 C 0.04668 0.52852 0.99775
 C1208 C 0.01871 0.50908 0.95257
 H1209 H 0.03092 0.50939 1.02259
 H1210 H -0.00230 0.48635 0.96856
 H1211 H -0.03072 0.48346 1.02965
 H1212 H -0.02285 0.54316 0.99985
 H1213 H -0.00705 0.55370 1.03497
 H1214 H -0.03548 0.54771 1.02817
 H1215 H 0.02222 0.46950 0.97014
 H1216 H 0.00206 0.45313 0.98839
 H1217 H 0.02853 0.55063 1.03377
 H1218 H 0.01488 0.49973 1.06406
 H1219 H -0.02418 0.49762 0.95184
 H1220 H -0.03994 0.47886 0.97028
 H1221 H 0.02837 0.47196 1.03138
 H1222 H 0.04736 0.48679 1.01218
 H1223 H -0.05766 0.52366 0.99449
 H1224 H -0.03855 0.54215 0.97471
 O1225 O 0.00716 0.44515 0.51715
 O1226 O -0.00288 0.44398 0.48844
 O1227 O 0.04793 0.48490 0.51522
 O1228 O 0.05003 0.51336 0.50864
 O1229 O 0.00849 0.48675 0.55710
 O1230 O -0.02154 0.49586 0.55816
 O1231 O 0.00041 0.53273 0.47135
 O1232 O 0.02733 0.51861 0.46834
 O1233 O -0.03824 0.49336 0.46990
 O1234 O -0.04248 0.46526 0.48556
 O1235 O -0.03987 0.53152 0.50951
 O1236 O -0.02418 0.53637 0.53726
 O1237 O -0.01219 0.54491 0.49590
 O1238 O -0.00193 0.54625 0.52736
 O1239 O -0.05204 0.50693 0.49741
 O1240 O -0.05292 0.47569 0.50771
 O1241 O -0.01405 0.50599 0.45790
 O1242 O 0.01553 0.49140 0.45709
 O1243 O -0.00494 0.45751 0.54191
 O1244 O -0.03250 0.47351 0.54619
 O1245 O 0.03296 0.49865 0.54490
 O1246 O 0.03561 0.52677 0.52869
 O1247 O 0.03579 0.45983 0.50398
 O1248 O 0.01988 0.45812 0.47531
 Zr1249 Zr 0.00903 0.46661 0.49981
 O1250 O -0.00743 0.48186 0.48327
 Zr1251 Zr 0.02638 0.50248 0.51826
 O1252 O 0.01105 0.51917 0.50214
 Zr1253 Zr -0.00919 0.48440 0.53576
 O1254 O -0.02619 0.50066 0.52074
 Zr1255 Zr 0.00461 0.50620 0.47845
 O1256 O 0.02202 0.49028 0.49359
 Zr1257 Zr -0.03107 0.48846 0.49625
 O1258 O -0.01556 0.47134 0.51205
 Zr1259 Zr -0.01339 0.52428 0.51434
 O1260 O 0.00273 0.50901 0.53146
 O1261 O 0.01491 0.47841 0.52399
 O1262 O -0.01955 0.51254 0.49022
 C1263 C 0.00119 0.44421 0.53299
 C1264 C 0.04902 0.46883 0.50958
 C1265 C 0.02426 0.49282 0.55812
 C1266 C -0.00629 0.54589 0.48004
 C1267 C -0.02995 0.50031 0.45697
 C1268 C -0.05295 0.52306 0.50286
 H1269 H -0.00954 0.47530 0.47213
 H1270 H -0.03721 0.50294 0.52739
 H1271 H 0.02257 0.47087 0.53147
 H1272 H 0.01766 0.53012 0.49989
 H1273 H 0.03747 0.51059 0.47080
 H1274 H 0.04694 0.51968 0.49769
 H1275 H -0.05628 0.48238 0.51849
 H1276 H -0.03692 0.46501 0.53725
 H1277 H 0.01471 0.49876 0.44635
 H1278 H 0.02649 0.44685 0.47709
 H1279 H -0.03345 0.52852 0.54180
 H1280 H -0.01719 0.50814 0.55907
 H1281 H -0.01520 0.44379 0.49279
 H1282 H -0.03501 0.46115 0.47561
 H1283 H 0.02751 0.53027 0.53837
 H1284 H 0.00861 0.54971 0.52058
 O1285 O 0.54514 0.98350 0.00512
 O1286 O 0.54522 1.01231 -0.00458
 O1287 O 0.50336 0.98291 0.04358
 O1288 O 0.47449 0.98822 0.04461
 O1289 O 0.50687 0.94193 0.00302
 O1290 O 0.49901 0.94088 -0.02723
 O1291 O 0.45569 1.02619 -0.00539
 O1292 O 0.46744 1.02904 0.02245
 O1293 O 0.49665 1.02972 -0.04150
 O1294 O 0.52556 1.01544 -0.04519
 O1295 O 0.46123 0.98814 -0.04582
 O1296 O 0.45719 0.96019 -0.03105
 O1297 O 0.44558 1.00114 -0.01863
 O1298 O 0.44572 0.96932 -0.00893
 O1299 O 0.48552 1.00158 -0.05662
 O1300 O 0.51752 0.99265 -0.05620
 O1301 O 0.48265 1.04106 -0.01736
 O1302 O 0.49493 1.04139 0.01300
 O1303 O 0.53519 0.95856 -0.00855
 O1304 O 0.52102 0.95421 -0.03700
 O1305 O 0.49232 0.95275 0.02706
 O1306 O 0.46308 0.96802 0.02893
 O1307 O 0.52786 0.99627 0.03301
 O1308 O 0.52902 1.02494 0.01750
 Zr1309 Zr 0.52262 1.00007 0.00602
 O1310 O 0.50729 1.01623 -0.01068
 Zr1311 Zr 0.48718 0.97957 0.02122
 O1312 O 0.47037 0.99545 0.00567
 Zr1313 Zr 0.50828 0.96366 -0.01392
 O1314 O 0.49193 0.97824 -0.03113
 Zr1315 Zr 0.48212 1.01985 0.00039
 O1316 O 0.49792 1.00496 0.01806
 Zr1317 Zr 0.50275 1.00337 -0.03487
 O1318 O 0.52007 0.98808 -0.01904
 Zr1319 Zr 0.46733 0.98343 -0.01921
 O1320 O 0.48284 0.96658 -0.00303
 O1321 O 0.51214 0.97523 0.01071
 O1322 O 0.47780 1.00822 -0.02427
 C1323 C 0.54743 0.96780 -0.00125
 C1324 C 0.51869 0.98981 0.04563
 C1325 C 0.49992 0.94013 0.01832
 C1326 C 0.44346 1.01708 -0.01279
 C1327 C 0.48899 1.04243 -0.03298
 C1328 C 0.46992 0.99527 -0.05836
 H1329 H 0.51325 1.02769 -0.01219
 H1330 H 0.49067 0.97162 -0.04236
 H1331 H 0.51971 0.96799 0.01856
 H1332 H 0.45894 0.99721 0.01178
 H1333 H 0.47478 1.02660 0.03300
 H1334 H 0.46776 0.99907 0.04162
 H1335 H 0.51161 0.98174 -0.06027
 H1336 H 0.52938 0.96349 -0.04057
 H1337 H 0.48708 1.05196 0.01215
 H1338 H 0.53997 1.02357 0.02459
 H1339 H 0.46606 0.95574 -0.03961
 H1340 H 0.48672 0.93916 -0.02320
 H1341 H 0.54635 1.00806 -0.01692
 H1342 H 0.52912 1.02490 -0.03686
 H1343 H 0.46074 0.95822 0.02051
 H1344 H 0.44106 0.97605 0.00135
 O1345 O 0.48060 0.54492 0.01503
 O1346 O 0.49015 0.54517 -0.01369
 O1347 O 0.44234 0.50295 0.01554
 O1348 O 0.44168 0.47412 0.00960
 O1349 O 0.48226 0.50603 0.05637
 O1350 O 0.51261 0.49815 0.05754
 O1351 O 0.49191 0.45558 -0.02791
 O1352 O 0.46422 0.46768 -0.03093
 O1353 O 0.52823 0.49654 -0.03092
 O1354 O 0.53116 0.52571 -0.01660
 O1355 O 0.53243 0.46104 0.01029
 O1356 O 0.51733 0.45646 0.03777
 O1357 O 0.50566 0.44549 -0.00319
 O1358 O 0.49531 0.44517 0.02851
 O1359 O 0.54308 0.48547 -0.00299
 O1360 O 0.54217 0.51744 0.00600
 O1361 O 0.50427 0.48280 -0.04256
 O1362 O 0.47377 0.49520 -0.04300
 O1363 O 0.49473 0.53488 0.03958
 O1364 O 0.52253 0.52004 0.04477
 O1365 O 0.45851 0.49168 0.04511
 O1366 O 0.45730 0.46247 0.02984
 O1367 O 0.45272 0.52780 0.00273
 O1368 O 0.46822 0.52895 -0.02613
 Zr1369 Zr 0.47980 0.52245 -0.00147
 O1370 O 0.49693 0.50731 -0.01765
 Zr1371 Zr 0.46485 0.48674 0.01852
 O1372 O 0.48080 0.47009 0.00266
 Zr1373 Zr 0.49960 0.50772 0.03480
 O1374 O 0.51721 0.49157 0.02017
 Zr1375 Zr 0.48617 0.48212 -0.02154
 O1376 O 0.46809 0.49777 -0.00666
 Zr1377 Zr 0.52108 0.50266 -0.00477
 O1378 O 0.50483 0.51977 0.01055
 Zr1379 Zr 0.50562 0.46698 0.01472
 O1380 O 0.48901 0.48227 0.03157
 O1381 O 0.47504 0.51173 0.02320
 O1382 O 0.51080 0.47770 -0.00987
 C1383 C 0.48751 0.54726 0.03038
 C1384 C 0.44017 0.51851 0.00914
 C1385 C 0.46695 0.49903 0.05789
 C1386 C 0.49963 0.44337 -0.01893
 C1387 C 0.51995 0.48900 -0.04369
 C1388 C 0.54498 0.46984 0.00331
 H1389 H 0.49851 0.51341 -0.02901
 H1390 H 0.52840 0.49027 0.02680
 H1391 H 0.46715 0.51934 0.03050
 H1392 H 0.47482 0.45866 0.00083
 H1393 H 0.45359 0.47505 -0.02845
 H1394 H 0.44496 0.46731 -0.00111
 H1395 H 0.54632 0.51136 0.01676
 H1396 H 0.52666 0.52811 0.03548
 H1397 H 0.47482 0.48743 -0.05357
 H1398 H 0.46092 0.53986 -0.02466
 H1399 H 0.52546 0.46546 0.04256
 H1400 H 0.50862 0.48584 0.05913
 H1401 H 0.50260 0.54607 -0.00981
 H1402 H 0.52323 0.52894 -0.02647
 H1403 H 0.46563 0.46006 0.03963
 H1404 H 0.48533 0.44042 0.02158
 O1405 O 0.00151 -0.04497 0.46570
 O1406 O -0.02598 -0.03186 0.46202
 O1407 O 0.03746 -0.00146 0.46436
 O1408 O 0.04269 0.02325 0.47952
 O1409 O 0.04166 -0.04104 0.50548
 O1410 O 0.02590 -0.04584 0.53194
 O1411 O -0.01085 0.04277 0.51148
 O1412 O 0.00045 0.04439 0.48368
 O1413 O -0.04813 0.00199 0.51106
 O1414 O -0.04802 -0.02881 0.50132
 O1415 O -0.01015 0.00344 0.55087
 O1416 O 0.02002 -0.00420 0.55376
 O1417 O 0.00231 0.03175 0.53610
 O1418 O 0.03172 0.01557 0.54088
 O1419 O -0.03352 -0.01069 0.53863
 O1420 O -0.03572 -0.03950 0.52216
 O1421 O -0.03736 0.02705 0.49902
 O1422 O -0.02259 0.02790 0.46969
 O1423 O 0.01361 -0.05665 0.49057
 O1424 O 0.00361 -0.05765 0.52095
 O1425 O 0.05267 -0.01619 0.49325
 O1426 O 0.05092 0.01488 0.50464
 O1427 O 0.01423 -0.01572 0.45194
 O1428 O -0.01686 -0.00530 0.45166
 Zr1429 Zr -0.00390 -0.01851 0.47272
 O1430 O -0.02193 -0.00336 0.48785
 Zr1431 Zr 0.03071 0.00111 0.49113
 O1432 O 0.01406 0.01762 0.50641
 Zr1433 Zr 0.01460 -0.03529 0.50873
 O1434 O -0.00224 -0.02035 0.52541
 Zr1435 Zr -0.01058 0.02108 0.49406
 O1436 O 0.00699 0.00663 0.47751
 Zr1437 Zr -0.02619 -0.01531 0.51228
 O1438 O -0.00996 -0.03175 0.49623
 Zr1439 Zr 0.00824 0.00492 0.53016
 O1440 O 0.02639 -0.01106 0.51556
 O1441 O 0.02031 -0.02343 0.48487
 O1442 O -0.01616 0.00960 0.51829
 C1443 C 0.00802 -0.05795 0.47455
 C1444 C 0.02940 -0.00832 0.45107
 C1445 C 0.05446 -0.03191 0.49940
 C1446 C -0.00489 0.04443 0.52728
 C1447 C -0.04997 0.01791 0.50548
 C1448 C -0.02565 -0.00327 0.55171
 H1449 H -0.03304 -0.00176 0.48113
 H1450 H -0.00401 -0.02687 0.53649
 H1451 H 0.02836 -0.03065 0.47736
 H1452 H 0.01992 0.02910 0.50833
 H1453 H 0.00669 0.04085 0.47271
 H1454 H 0.03441 0.03334 0.48118
 H1455 H -0.02865 -0.04258 0.53269
 H1456 H -0.00787 -0.05980 0.51507
 H1457 H -0.02880 0.03943 0.47129
 H1458 H -0.01462 -0.01199 0.44054
 H1459 H 0.01707 -0.01685 0.55488
 H1460 H 0.03327 -0.03638 0.53713
 H1461 H -0.03072 -0.03934 0.47150
 H1462 H -0.05073 -0.02344 0.48977
 H1463 H 0.05390 0.00794 0.51527
 H1464 H 0.03434 0.02654 0.53442
 O1465 O 0.73538 0.20731 0.26244
 O1466 O 0.76451 0.20394 0.25477
 O1467 O 0.73655 0.24972 0.30149
 O1468 O 0.74388 0.27799 0.30283
 O1469 O 0.69751 0.25021 0.25911
 O1470 O 0.69896 0.25812 0.22889
 O1471 O 0.78600 0.29176 0.25600
 O1472 O 0.78634 0.27925 0.28339
 O1473 O 0.78837 0.24988 0.21916
 O1474 O 0.77162 0.22257 0.21460
 O1475 O 0.75019 0.28975 0.21257
 O1476 O 0.72256 0.29753 0.22582
 O1477 O 0.76321 0.30439 0.24090
 O1478 O 0.73084 0.30783 0.24873
 O1479 O 0.76229 0.26394 0.20255
 O1480 O 0.75075 0.23319 0.20224
 O1481 O 0.79911 0.26377 0.24352
 O1482 O 0.79705 0.25085 0.27349
 O1483 O 0.71256 0.21981 0.24723
 O1484 O 0.71049 0.23477 0.21942
 O1485 O 0.70843 0.26365 0.28365
 O1486 O 0.72586 0.29118 0.28631
 O1487 O 0.74751 0.22340 0.29139
 O1488 O 0.77696 0.21896 0.27760
 Zr1489 Zr 0.75362 0.22796 0.26474
 O1490 O 0.77211 0.24120 0.24906
 Zr1491 Zr 0.73569 0.26579 0.27904
 O1492 O 0.75381 0.28057 0.26446
 Zr1493 Zr 0.71995 0.24625 0.24310
 O1494 O 0.73703 0.26059 0.22678
 Zr1495 Zr 0.77725 0.26600 0.26045
 O1496 O 0.76004 0.25212 0.27718
 Zr1497 Zr 0.76124 0.24692 0.22428
 O1498 O 0.74346 0.23167 0.23914
 Zr1499 Zr 0.74371 0.28470 0.23900
 O1500 O 0.72460 0.27139 0.25423
 O1501 O 0.72963 0.24126 0.26822
 O1502 O 0.76766 0.27140 0.23522
 C1503 C 0.72028 0.20655 0.25467
 C1504 C 0.74157 0.23359 0.30375
 C1505 C 0.69562 0.25753 0.27437
 C1506 C 0.77858 0.30491 0.24819
 C1507 C 0.80099 0.25686 0.22810
 C1508 C 0.75720 0.28005 0.20039
 H1509 H 0.78305 0.23397 0.24809
 H1510 H 0.73124 0.26243 0.21524
 H1511 H 0.72130 0.23453 0.27555
 H1512 H 0.75615 0.29180 0.27080
 H1513 H 0.78274 0.27202 0.29356
 H1514 H 0.75567 0.28297 0.30058
 H1515 H 0.74060 0.24017 0.19772
 H1516 H 0.71935 0.22573 0.21577
 H1517 H 0.80820 0.25759 0.27323
 H1518 H 0.77416 0.20831 0.28458
 H1519 H 0.71713 0.28873 0.21781
 H1520 H 0.69795 0.27049 0.23323
 H1521 H 0.76125 0.20327 0.24214
 H1522 H 0.78057 0.21829 0.22312
 H1523 H 0.71680 0.29449 0.27747
 H1524 H 0.73734 0.31190 0.25931
 O1525 O 0.74872 0.71507 0.70687
 O1526 O 0.77564 0.70969 0.72027
 O1527 O 0.71183 0.71053 0.75035
 O1528 O 0.70546 0.72454 0.77539
 O1529 O 0.70844 0.75469 0.71335
 O1530 O 0.72422 0.78171 0.71125
 O1531 O 0.75872 0.75396 0.79775
 O1532 O 0.74719 0.72610 0.79698
 O1533 O 0.79715 0.75586 0.75789
 O1534 O 0.79781 0.74835 0.72654
 O1535 O 0.75916 0.79667 0.76090
 O1536 O 0.72873 0.79993 0.75352
 O1537 O 0.74707 0.78005 0.78813
 O1538 O 0.71762 0.78629 0.77306
 O1539 O 0.78300 0.78479 0.74682
 O1540 O 0.78604 0.77019 0.71727
 O1541 O 0.78550 0.74243 0.78178
 O1542 O 0.77086 0.71313 0.78011
 O1543 O 0.73676 0.74102 0.69726
 O1544 O 0.74661 0.77125 0.69861
 O1545 O 0.69674 0.74097 0.73708
 O1546 O 0.69780 0.75022 0.76873
 O1547 O 0.73484 0.69917 0.73449
 O1548 O 0.76560 0.69747 0.74561
 Zr1549 Zr 0.75324 0.71982 0.73387
 O1550 O 0.77095 0.73351 0.75036
 Zr1551 Zr 0.71826 0.73730 0.75440
 O1552 O 0.73457 0.75124 0.77207
 Zr1553 Zr 0.73528 0.75744 0.71982
 O1554 O 0.75196 0.77273 0.73599
 Zr1555 Zr 0.75899 0.73815 0.77491
 O1556 O 0.74178 0.72290 0.75906
 Zr1557 Zr 0.77571 0.75878 0.74039
 O1558 O 0.75972 0.74428 0.72264
 Zr1559 Zr 0.74088 0.77586 0.76125
 O1560 O 0.72297 0.76263 0.74421
 O1561 O 0.72918 0.73271 0.72968
 O1562 O 0.76507 0.76316 0.76538
 C1563 C 0.74251 0.72511 0.69467
 C1564 C 0.71983 0.69777 0.74220
 C1565 C 0.69542 0.74812 0.72181
 C1566 C 0.75359 0.77007 0.80025
 C1567 C 0.79843 0.74926 0.77340
 C1568 C 0.77485 0.79768 0.75454
 H1569 H 0.78197 0.72647 0.75165
 H1570 H 0.75392 0.78423 0.73028
 H1571 H 0.72132 0.72581 0.72183
 H1572 H 0.72851 0.75246 0.78356
 H1573 H 0.74114 0.71540 0.79250
 H1574 H 0.71361 0.72503 0.78557
 H1575 H 0.77898 0.78096 0.71470
 H1576 H 0.75826 0.76560 0.69631
 H1577 H 0.77664 0.71381 0.79184
 H1578 H 0.76345 0.68688 0.73810
 H1579 H 0.73248 0.80225 0.74129
 H1580 H 0.71622 0.78593 0.72075
 H1581 H 0.78075 0.71969 0.71376
 H1582 H 0.80044 0.73644 0.73123
 H1583 H 0.69528 0.76155 0.76272
 H1584 H 0.71481 0.77890 0.78335
 O1585 O 0.25447 0.22024 0.78835
 O1586 O 0.22700 0.21589 0.77552
 O1587 O 0.29029 0.21737 0.74424
 O1588 O 0.29435 0.23147 0.71891
 O1589 O 0.29434 0.25996 0.78266
 O1590 O 0.27792 0.28684 0.78722
 O1591 O 0.24092 0.26337 0.70036
 O1592 O 0.25282 0.23534 0.69894
 O1593 O 0.20363 0.26343 0.74164
 O1594 O 0.20445 0.25473 0.77260
 O1595 O 0.24116 0.30408 0.73969
 O1596 O 0.27205 0.30659 0.74679
 O1597 O 0.25295 0.28865 0.71131
 O1598 O 0.28233 0.29421 0.72575
 O1599 O 0.21797 0.29198 0.75395
 O1600 O 0.21596 0.27623 0.78254
 O1601 O 0.21483 0.25118 0.71653
 O1602 O 0.22989 0.22182 0.71567
 O1603 O 0.26651 0.24562 0.79912
 O1604 O 0.25644 0.27585 0.80013
 O1605 O 0.30493 0.24653 0.75785
 O1606 O 0.30297 0.25716 0.72716
 O1607 O 0.26748 0.20535 0.75922
 O1608 O 0.23639 0.20448 0.74923
 Zr1609 Zr 0.24890 0.22620 0.76183
 O1610 O 0.23053 0.24080 0.74677
 Zr1611 Zr 0.28291 0.24407 0.74120
 O1612 O 0.26595 0.25908 0.72504
 Zr1613 Zr 0.26705 0.26299 0.77758
 O1614 O 0.24952 0.27909 0.76302
 Zr1615 Zr 0.24160 0.24644 0.72215
 O1616 O 0.25941 0.23019 0.73646
 Zr1617 Zr 0.22576 0.26563 0.75849
 O1618 O 0.24261 0.25027 0.77475
 Zr1619 Zr 0.25975 0.28321 0.73768
 O1620 O 0.27841 0.26900 0.75311
 O1621 O 0.27293 0.23864 0.76600
 O1622 O 0.23554 0.27105 0.73349
 C1623 C 0.26098 0.22969 0.80094
 C1624 C 0.28263 0.20428 0.75162
 C1625 C 0.30696 0.25322 0.77333
 C1626 C 0.24608 0.27943 0.69874
 C1627 C 0.20199 0.25748 0.72578
 C1628 C 0.22572 0.30505 0.74667
 H1629 H 0.21958 0.23391 0.74541
 H1630 H 0.24759 0.29034 0.76951
 H1631 H 0.28113 0.23138 0.77319
 H1632 H 0.27164 0.26079 0.71348
 H1633 H 0.25920 0.22443 0.70252
 H1634 H 0.28672 0.23431 0.70871
 H1635 H 0.22314 0.28666 0.78567
 H1636 H 0.24475 0.27052 0.80224
 H1637 H 0.22374 0.22309 0.70418
 H1638 H 0.23884 0.19360 0.75609
 H1639 H 0.26786 0.30892 0.75895
 H1640 H 0.28543 0.29147 0.77768
 H1641 H 0.22226 0.22558 0.78308
 H1642 H 0.20174 0.24310 0.76721
 H1643 H 0.30532 0.26837 0.73357
 H1644 H 0.28539 0.28683 0.71533
 O1645 O 0.21547 0.74509 0.28014
 O1646 O 0.22833 0.71745 0.28245
 O1647 O 0.25849 0.78069 0.28975
 O1648 O 0.28489 0.78621 0.27823
 O1649 O 0.22337 0.78942 0.24570
 O1650 O 0.22047 0.77627 0.21741
 O1651 O 0.30636 0.73578 0.24167
 O1652 O 0.30598 0.74461 0.27065
 O1653 O 0.26539 0.69962 0.23458
 O1654 O 0.23407 0.69942 0.24088
 O1655 O 0.27050 0.74170 0.19922
 O1656 O 0.26343 0.77244 0.19945
 O1657 O 0.29758 0.75175 0.21786
 O1658 O 0.28260 0.78183 0.21500
 O1659 O 0.25551 0.71729 0.20742
 O1660 O 0.22534 0.71405 0.22076
 O1661 O 0.28947 0.70865 0.24997
 O1662 O 0.28821 0.72060 0.28060
 O1663 O 0.20629 0.76071 0.25619
 O1664 O 0.20755 0.75322 0.22496
 O1665 O 0.24723 0.79878 0.26126
 O1666 O 0.27901 0.79744 0.25327
 O1667 O 0.24322 0.75650 0.29818
 O1668 O 0.25390 0.72530 0.29605
 Zr1669 Zr 0.24244 0.74034 0.27537
 O1670 O 0.25854 0.72361 0.25974
 Zr1671 Zr 0.26383 0.77626 0.26289
 O1672 O 0.28133 0.76088 0.24739
 Zr1673 Zr 0.22896 0.76266 0.24018
 O1674 O 0.24499 0.74728 0.22315
 Zr1675 Zr 0.28348 0.73503 0.25714
 O1676 O 0.26793 0.75116 0.27422
 Zr1677 Zr 0.24867 0.72202 0.23392
 O1678 O 0.23118 0.73689 0.25015
 Zr1679 Zr 0.27058 0.75775 0.22204
 O1680 O 0.25371 0.77465 0.23707
 O1681 O 0.23881 0.76574 0.26555
 O1682 O 0.27402 0.73213 0.23144
 C1683 C 0.20351 0.75312 0.27105
 C1684 C 0.25034 0.77157 0.30134
 C1685 C 0.23215 0.80145 0.25385
 C1686 C 0.30932 0.74324 0.22683
 C1687 C 0.28067 0.69685 0.24149
 C1688 C 0.26385 0.72644 0.19600
 H1689 H 0.25943 0.71185 0.26531
 H1690 H 0.23940 0.74676 0.21137
 H1691 H 0.23103 0.77320 0.27311
 H1692 H 0.29299 0.76665 0.24719
 H1693 H 0.30169 0.74979 0.28192
 H1694 H 0.29520 0.77838 0.27593
 H1695 H 0.22331 0.72215 0.21078
 H1696 H 0.20481 0.74130 0.22944
 H1697 H 0.29979 0.71442 0.27942
 H1698 H 0.24645 0.72665 0.30674
 H1699 H 0.25119 0.76922 0.19629
 H1700 H 0.23039 0.78388 0.21388
 H1701 H 0.22175 0.71359 0.27183
 H1702 H 0.23823 0.69554 0.25261
 H1703 H 0.27332 0.80143 0.24221
 H1704 H 0.29291 0.78360 0.22283
 O1705 O 0.24030 0.70365 0.75943
 O1706 O 0.26951 0.70294 0.75175
 O1707 O 0.23685 0.74571 0.79827
 O1708 O 0.24192 0.77448 0.79995
 O1709 O 0.19860 0.74282 0.75566
 O1710 O 0.19928 0.75043 0.72558
 O1711 O 0.28299 0.79224 0.75267
 O1712 O 0.28428 0.78016 0.78031
 O1713 O 0.28877 0.75127 0.71601
 O1714 O 0.27496 0.72273 0.71105
 O1715 O 0.24734 0.78759 0.71001
 O1716 O 0.21914 0.79270 0.72310
 O1717 O 0.25900 0.80306 0.73803
 O1718 O 0.22635 0.80334 0.74635
 O1719 O 0.26141 0.76299 0.69950
 O1720 O 0.25268 0.73101 0.69927
 O1721 O 0.29845 0.76547 0.74065
 O1722 O 0.29733 0.75258 0.77071
 O1723 O 0.21620 0.71391 0.74452
 O1724 O 0.21351 0.72849 0.71610
 O1725 O 0.20793 0.75728 0.78030
 O1726 O 0.22301 0.78632 0.78328
 O1727 O 0.25089 0.72080 0.78837
 O1728 O 0.28062 0.71916 0.77441
 Zr1729 Zr 0.25650 0.72591 0.76167
 O1730 O 0.27354 0.74085 0.74592
 Zr1731 Zr 0.23497 0.76186 0.77599
 O1732 O 0.25178 0.77833 0.76162
 Zr1733 Zr 0.22134 0.74090 0.73991
 O1734 O 0.23683 0.75710 0.72378
 Zr1735 Zr 0.27641 0.76594 0.75748
 O1736 O 0.26051 0.75054 0.77419
 Zr1737 Zr 0.26213 0.74572 0.72116
 O1738 O 0.24609 0.72865 0.73601
 Zr1739 Zr 0.24129 0.78166 0.73625
 O1740 O 0.22348 0.76640 0.75116
 O1741 O 0.23137 0.73687 0.76506
 O1742 O 0.26629 0.77060 0.73233
 C1743 C 0.22517 0.70149 0.75204
 C1744 C 0.24357 0.73021 0.80062
 C1745 C 0.19587 0.74995 0.77086
 C1746 C 0.27449 0.80474 0.74488
 C1747 C 0.30082 0.75902 0.72509
 C1748 C 0.25505 0.77872 0.69766
 H1749 H 0.28508 0.73464 0.74490
 H1750 H 0.23087 0.75852 0.71227
 H1751 H 0.22368 0.72941 0.77238
 H1752 H 0.25314 0.78971 0.76800
 H1753 H 0.28131 0.77272 0.79054
 H1754 H 0.25328 0.78040 0.79784
 H1755 H 0.24215 0.73726 0.69458
 H1756 H 0.22290 0.71976 0.71304
 H1757 H 0.30787 0.76024 0.77044
 H1758 H 0.27885 0.70836 0.78152
 H1759 H 0.21448 0.78348 0.71507
 H1760 H 0.19728 0.76283 0.72952
 H1761 H 0.26650 0.70208 0.73907
 H1762 H 0.28382 0.71886 0.71986
 H1763 H 0.21354 0.78873 0.77457
 H1764 H 0.23284 0.80833 0.75654
 O1765 O 0.24488 0.21466 0.20751
 O1766 O 0.27212 0.20942 0.22017
 O1767 O 0.20861 0.21012 0.25098
 O1768 O 0.20379 0.22319 0.27698
 O1769 O 0.20437 0.25419 0.21510
 O1770 O 0.22013 0.28121 0.21255
 O1771 O 0.25670 0.25335 0.29820
 O1772 O 0.24537 0.22537 0.29759
 O1773 O 0.29425 0.25575 0.25758
 O1774 O 0.29417 0.24807 0.22606
 O1775 O 0.25618 0.29610 0.26161
 O1776 O 0.22551 0.29928 0.25468
 O1777 O 0.24473 0.27941 0.28888
 O1778 O 0.21495 0.28559 0.27452
 O1779 O 0.27973 0.28444 0.24689
 O1780 O 0.28220 0.27001 0.21721
 O1781 O 0.28318 0.24212 0.28164
 O1782 O 0.26878 0.21267 0.28019
 O1783 O 0.23274 0.24063 0.19814
 O1784 O 0.24214 0.27091 0.19936
 O1785 O 0.19354 0.24025 0.23909
 O1786 O 0.19517 0.24920 0.27055
 O1787 O 0.23182 0.19853 0.23562
 O1788 O 0.26292 0.19709 0.24574
 Zr1789 Zr 0.25002 0.21936 0.23439
 O1790 O 0.26804 0.23311 0.25051
 Zr1791 Zr 0.21547 0.23660 0.25573
 O1792 O 0.23206 0.25060 0.27306
 Zr1793 Zr 0.23147 0.25696 0.22081
 O1794 O 0.24848 0.27227 0.23664
 Zr1795 Zr 0.25659 0.23761 0.27532
 O1796 O 0.23914 0.22227 0.25982
 Zr1797 Zr 0.27241 0.25844 0.24049
 O1798 O 0.25606 0.24393 0.22309
 Zr1799 Zr 0.23797 0.27527 0.26215
 O1800 O 0.21974 0.26199 0.24551
 O1801 O 0.22582 0.23216 0.23074
 O1802 O 0.26229 0.26268 0.26570
 C1803 C 0.23852 0.22475 0.19541
 C1804 C 0.21663 0.19726 0.24302
 C1805 C 0.19164 0.24750 0.22394
 C1806 C 0.25156 0.26943 0.30083
 C1807 C 0.29588 0.24916 0.27308
 C1808 C 0.27173 0.29721 0.25497
 H1809 H 0.27913 0.22614 0.25154
 H1810 H 0.25028 0.28381 0.23093
 H1811 H 0.21782 0.22529 0.22301
 H1812 H 0.22624 0.25178 0.28468
 H1813 H 0.23928 0.21467 0.29319
 H1814 H 0.21162 0.22487 0.28729
 H1815 H 0.27502 0.28076 0.21483
 H1816 H 0.25389 0.26554 0.19693
 H1817 H 0.27482 0.21337 0.29179
 H1818 H 0.26063 0.18649 0.23828
 H1819 H 0.22922 0.30179 0.24248
 H1820 H 0.21244 0.28544 0.22230
 H1821 H 0.27711 0.21952 0.21372
 H1822 H 0.29720 0.23632 0.23093
 H1823 H 0.19263 0.26069 0.26485
 H1824 H 0.21238 0.27813 0.28482
 O1825 O 0.79248 0.72027 0.24856
 O1826 O 0.79580 0.73357 0.22158
 O1827 O 0.79638 0.76327 0.28584
 O1828 O 0.78264 0.78899 0.29133
 O1829 O 0.75448 0.72553 0.29043
 O1830 O 0.72718 0.72152 0.27556
 O1831 O 0.74834 0.80912 0.23939
 O1832 O 0.77665 0.81023 0.25025
 O1833 O 0.74662 0.76849 0.20182
 O1834 O 0.75530 0.73752 0.20092
 O1835 O 0.70810 0.77082 0.24145
 O1836 O 0.70678 0.76331 0.27197
 O1837 O 0.72384 0.79868 0.25290
 O1838 O 0.72003 0.78370 0.28247
 O1839 O 0.71893 0.75640 0.21733
 O1840 O 0.73493 0.72725 0.21386
 O1841 O 0.75979 0.79316 0.21265
 O1842 O 0.78962 0.79333 0.22650
 O1843 O 0.76780 0.70945 0.26150
 O1844 O 0.73703 0.70923 0.25287
 O1845 O 0.76755 0.75017 0.30149
 O1846 O 0.75726 0.78150 0.30064
 O1847 O 0.80761 0.74879 0.26189
 O1848 O 0.80706 0.75979 0.23111
 Zr1849 Zr 0.78610 0.74701 0.24428
 O1850 O 0.77061 0.76250 0.22710
 Zr1851 Zr 0.76954 0.76721 0.27978
 O1852 O 0.75398 0.78411 0.26402
 Zr1853 Zr 0.75029 0.73131 0.26366
 O1854 O 0.73332 0.74662 0.24771
 Zr1855 Zr 0.76547 0.78713 0.23909
 O1856 O 0.78241 0.77228 0.25576
 Zr1857 Zr 0.74564 0.75126 0.22343
 O1858 O 0.76195 0.73445 0.23879
 Zr1859 Zr 0.72969 0.77201 0.25885
 O1860 O 0.74461 0.75573 0.27614
 O1861 O 0.77470 0.74247 0.26872
 O1862 O 0.74071 0.77630 0.23416
 C1863 C 0.78348 0.70759 0.25510
 C1864 C 0.80916 0.75582 0.27732
 C1865 C 0.76114 0.73459 0.30319
 C1866 C 0.73257 0.81104 0.24542
 C1867 C 0.75266 0.78421 0.20009
 C1868 C 0.70635 0.76403 0.22597
 H1869 H 0.77697 0.76389 0.21583
 H1870 H 0.72201 0.74037 0.24626
 H1871 H 0.78224 0.73494 0.27633
 H1872 H 0.75251 0.79570 0.27004
 H1873 H 0.78781 0.80648 0.25602
 H1874 H 0.78005 0.79932 0.28382
 H1875 H 0.72456 0.72445 0.22120
 H1876 H 0.74226 0.70694 0.24110
 H1877 H 0.78809 0.80493 0.22066
 H1878 H 0.81813 0.75286 0.23291
 H1879 H 0.70455 0.75104 0.26797
 H1880 H 0.72259 0.73112 0.28332
 H1881 H 0.78591 0.72650 0.21683
 H1882 H 0.76700 0.74240 0.19804
 H1883 H 0.74628 0.77518 0.30356
 H1884 H 0.72696 0.79447 0.28490
 O1885 O 0.71891 0.28969 0.75053
 O1886 O 0.71608 0.27826 0.72238
 O1887 O 0.71188 0.24427 0.78370
 O1888 O 0.72487 0.21822 0.78830
 O1889 O 0.75540 0.28025 0.79316
 O1890 O 0.78321 0.28416 0.77945
 O1891 O 0.75967 0.19967 0.73615
 O1892 O 0.73098 0.19932 0.74563
 O1893 O 0.76429 0.24237 0.70162
 O1894 O 0.75691 0.27376 0.70299
 O1895 O 0.80158 0.23653 0.74254
 O1896 O 0.80205 0.24173 0.77349
 O1897 O 0.78423 0.20840 0.75104
 O1898 O 0.78763 0.22148 0.78185
 O1899 O 0.79193 0.25210 0.71887
 O1900 O 0.77752 0.28212 0.71724
 O1901 O 0.74995 0.21765 0.71010
 O1902 O 0.71966 0.21803 0.72273
 O1903 O 0.74352 0.29864 0.76523
 O1904 O 0.77448 0.29813 0.75752
 O1905 O 0.74063 0.25580 0.80169
 O1906 O 0.75000 0.22421 0.79878
 O1907 O 0.70218 0.26100 0.76082
 O1908 O 0.70341 0.25206 0.72927
 Zr1909 Zr 0.72439 0.26304 0.74427
 O1910 O 0.73981 0.24789 0.72649
 Zr1911 Zr 0.73890 0.24010 0.77865
 O1912 O 0.75433 0.22355 0.76220
 Zr1913 Zr 0.76010 0.27601 0.76612
 O1914 O 0.77698 0.26097 0.74960
 Zr1915 Zr 0.74357 0.22244 0.73670
 O1916 O 0.72668 0.23701 0.75384
 Zr1917 Zr 0.76533 0.25822 0.72458
 O1918 O 0.74921 0.27481 0.74064
 Zr1919 Zr 0.77926 0.23489 0.75886
 O1920 O 0.76439 0.25072 0.77684
 O1921 O 0.73508 0.26563 0.76943
 O1922 O 0.76893 0.23245 0.73350
 C1923 C 0.72815 0.30154 0.75847
 C1924 C 0.69970 0.25274 0.77534
 C1925 C 0.74781 0.27082 0.80489
 C1926 C 0.77515 0.19677 0.74256
 C1927 C 0.75775 0.22704 0.69849
 C1928 C 0.80402 0.24382 0.72753
 H1929 H 0.73378 0.24742 0.71492
 H1930 H 0.78857 0.26681 0.74906
 H1931 H 0.72753 0.27294 0.77736
 H1932 H 0.75513 0.21161 0.76737
 H1933 H 0.71977 0.20326 0.75123
 H1934 H 0.72681 0.20841 0.77979
 H1935 H 0.78768 0.28404 0.72522
 H1936 H 0.76979 0.30119 0.74573
 H1937 H 0.72092 0.20672 0.71608
 H1938 H 0.69257 0.25934 0.73121
 H1939 H 0.80476 0.25418 0.77078
 H1940 H 0.78716 0.27401 0.78669
 H1941 H 0.72640 0.28519 0.71863
 H1942 H 0.74518 0.26947 0.69923
 H1943 H 0.76103 0.23000 0.80266
 H1944 H 0.78019 0.21090 0.78318
 C1945 C 0.06479 1.01050 1.17979
 C1946 C 0.05633 1.01204 1.16344
 C1947 C 0.06487 1.00644 1.14797
 C1948 C 0.08211 0.99942 1.14899
 C1949 C 0.09056 0.99788 1.16528
 C1950 C 0.08196 1.00327 1.18088
 N1951 N 0.05570 1.00767 1.13148
 N1952 N 0.06275 1.00239 1.11711
 C1953 C 0.05371 1.00318 1.10053
 C1954 C 0.06221 0.99650 1.08549
 C1955 C 0.05359 0.99645 1.06919
 C1956 C 0.03623 1.00314 1.06765
 C1957 C 0.02782 1.01011 1.08279
 C1958 C 0.03647 1.01011 1.09909
 H1959 H 0.05779 1.01465 1.19158
 H1960 H 0.04303 1.01744 1.16284
 H1961 H 0.08903 0.99507 1.13722
 H1962 H 0.10391 0.99257 1.16564
 H1963 H 0.07551 0.99115 1.08645
 H1964 H 0.06050 0.99104 1.05782
 H1965 H 0.01448 1.01539 1.08210
 H1966 H 0.02963 1.01537 1.11055
 C1967 C 0.56257 0.49611 0.68853
 C1968 C 0.55409 0.49590 0.67213
 C1969 C 0.56352 0.49947 0.65673
 C1970 C 0.58157 0.50346 0.65792
 C1971 C 0.59000 0.50391 0.67432
 C1972 C 0.58059 0.50018 0.68978
 N1973 N 0.55448 0.49909 0.64013
 N1974 N 0.56270 0.49974 0.62553
 C1975 C 0.55366 0.49970 0.60893
 C1976 C 0.56347 0.49765 0.59341
 C1977 C 0.55503 0.49754 0.57700
 C1978 C 0.53659 0.49975 0.57585
 C1979 C 0.52679 0.50196 0.59147
 C1980 C 0.53523 0.50184 0.60787
 H1981 H 0.55500 0.49332 0.70026
 H1982 H 0.54016 0.49287 0.67138
 H1983 H 0.58913 0.50632 0.64621
 H1984 H 0.60394 0.50693 0.67492
 H1985 H 0.57769 0.49606 0.59406
 H1986 H 0.56296 0.49591 0.56521
 H1987 H 0.51256 0.50363 0.59103
 H1988 H 0.52736 0.50353 0.61969
 C1989 C 0.40749 -0.01425 0.65546
 C1990 C 0.41546 -0.01545 0.63891
 C1991 C 0.43227 -0.00857 0.63621
 C1992 C 0.44120 -0.00053 0.65037
 C1993 C 0.43313 0.00094 0.66692
 C1994 C 0.41608 -0.00577 0.66964
 N1995 N 0.43958 -0.00926 0.61883
 N1996 N 0.45575 -0.00609 0.61573
 C1997 C 0.46254 -0.00605 0.59812
 C1998 C 0.48083 -0.00627 0.59550
 C1999 C 0.48780 -0.00572 0.57845
 C2000 C 0.47651 -0.00455 0.56375
 C2001 C 0.45814 -0.00435 0.56641
 C2002 C 0.45121 -0.00523 0.58343
 H2003 H 0.39457 -0.01999 0.65711
 H2004 H 0.40848 -0.02173 0.62810
 H2005 H 0.45417 0.00503 0.64853
 H2006 H 0.44005 0.00775 0.67743
 H2007 H 0.48970 -0.00683 0.60670
 H2008 H 0.50201 -0.00578 0.57679
 H2009 H 0.44912 -0.00353 0.55533
 H2010 H 0.43701 -0.00494 0.58513
 C2011 C -0.06764 0.48904 1.18433
 C2012 C -0.05932 0.48843 1.16791
 C2013 C -0.06189 0.50212 1.15586
 C2014 C -0.07238 0.51687 1.16069
 C2015 C -0.08050 0.51762 1.17722
 C2016 C -0.07846 0.50356 1.18906
 N2017 N -0.05419 0.50050 1.13868
 N2018 N -0.05842 0.51092 1.12625
 C2019 C -0.05095 0.50929 1.10897
 C2020 C -0.05770 0.51995 1.09552
 C2021 C -0.05087 0.51862 1.07846
 C2022 C -0.03699 0.50667 1.07459
 C2023 C -0.03018 0.49599 1.08817
 C2024 C -0.03715 0.49724 1.10520
 H2025 H -0.06579 0.47810 1.19330
 H2026 H -0.05121 0.47704 1.16437
 H2027 H -0.07449 0.52767 1.15162
 H2028 H -0.08889 0.52889 1.18051
 H2029 H -0.06834 0.52928 1.09827
 H2030 H -0.05636 0.52710 1.06835
 H2031 H -0.01952 0.48664 1.08563
 H2032 H -0.03172 0.48885 1.11541
 C2033 C -0.06625 0.50657 0.32750
 C2034 C -0.05766 0.50675 0.34384
 C2035 C -0.06732 0.50635 0.35948
 C2036 C -0.08581 0.50607 0.35867
 C2037 C -0.09448 0.50600 0.34241
 C2038 C -0.08492 0.50607 0.32637
 N2039 N -0.05806 0.50605 0.37597
 N2040 N -0.06604 0.50408 0.39056
 C2041 C -0.05683 0.50366 0.40706
 C2042 C -0.06620 0.49963 0.42236
 C2043 C -0.05752 0.49860 0.43861
 C2044 C -0.03928 0.50176 0.43984
 C2045 C -0.02997 0.50611 0.42446
 C2046 C -0.03864 0.50698 0.40821
 H2047 H -0.05801 0.50605 0.31590
 H2048 H -0.04336 0.50688 0.34429
 H2049 H -0.09360 0.50604 0.37063
 H2050 H -0.10875 0.50650 0.34268
 H2051 H -0.08023 0.49708 0.42164
 H2052 H -0.06512 0.49534 0.45019
 H2053 H -0.01592 0.50861 0.42492
 H2054 H -0.03113 0.51019 0.39657
 C2055 C 0.43653 1.00552 -0.18897
 C2056 C 0.44483 1.00601 -0.17246
 C2057 C 0.43566 1.00116 -0.15727
 C2058 C 0.41798 0.99589 -0.15876
 C2059 C 0.40968 0.99541 -0.17521
 C2060 C 0.41887 1.00013 -0.19053
 N2061 N 0.44452 1.00156 -0.14054
 N2062 N 0.43681 0.99691 -0.12646
 C2063 C 0.44533 0.99701 -0.10958
 C2064 C 0.43597 0.99105 -0.09497
 C2065 C 0.44389 0.99058 -0.07833
 C2066 C 0.46142 0.99616 -0.07598
 C2067 C 0.47075 1.00235 -0.09069
 C2068 C 0.46279 1.00275 -0.10736
 H2069 H 0.44400 1.00911 -0.20053
 H2070 H 0.45847 1.01007 -0.17150
 H2071 H 0.41054 0.99217 -0.14722
 H2072 H 0.39597 0.99154 -0.17589
 H2073 H 0.42249 0.98662 -0.09652
 H2074 H 0.43628 0.98580 -0.06733
 H2075 H 0.48426 1.00676 -0.08938
 H2076 H 0.47029 1.00745 -0.11848
 C2077 C 0.56082 0.50366 -0.17039
 C2078 C 0.55136 0.50240 -0.15463
 C2079 C 0.55829 0.49281 -0.14048
 C2080 C 0.57461 0.48399 -0.14242
 C2081 C 0.58393 0.48496 -0.15824
 C2082 C 0.57731 0.49503 -0.17238
 N2083 N 0.54871 0.49243 -0.12422
 N2084 N 0.55602 0.48756 -0.10991
 C2085 C 0.54665 0.48714 -0.09355
 C2086 C 0.55629 0.48639 -0.07781
 C2087 C 0.54761 0.48685 -0.06157
 C2088 C 0.52907 0.48763 -0.06085
 C2089 C 0.51938 0.48778 -0.07667
 C2090 C 0.52810 0.48773 -0.09292
 H2091 H 0.55538 0.51173 -0.18084
 H2092 H 0.53880 0.50928 -0.15329
 H2093 H 0.58012 0.47628 -0.13173
 H2094 H 0.59630 0.47772 -0.15939
 H2095 H 0.57059 0.48586 -0.07815
 H2096 H 0.55540 0.48659 -0.04957
 H2097 H 0.50507 0.48845 -0.07648
 H2098 H 0.52039 0.48818 -0.10494
 C2099 C 0.06580 -0.01363 0.32121
 C2100 C 0.05731 -0.01488 0.33752
 C2101 C 0.06475 -0.00725 0.35264
 C2102 C 0.08068 0.00198 0.35125
 C2103 C 0.08914 0.00327 0.33499
 C2104 C 0.08191 -0.00468 0.31981
 N2105 N 0.05605 -0.00918 0.36926
 N2106 N 0.06275 -0.00329 0.38352
 C2107 C 0.05429 -0.00508 0.40026
 C2108 C 0.06261 0.00178 0.41527
 C2109 C 0.05465 0.00055 0.43181
 C2110 C 0.03814 -0.00760 0.43362
 C2111 C 0.02990 -0.01466 0.41849
 C2112 C 0.03790 -0.01341 0.40196
 H2113 H 0.05998 -0.02005 0.30981
 H2114 H 0.04503 -0.02202 0.33842
 H2115 H 0.08664 0.00813 0.36272
 H2116 H 0.10137 0.01053 0.33429
 H2117 H 0.07526 0.00820 0.41412
 H2118 H 0.06139 0.00612 0.44314
 H2119 H 0.01720 -0.02103 0.41938
 H2120 H 0.03124 -0.01885 0.39052
 C2121 C 0.16291 1.09409 0.98562
 C2122 C 0.14617 1.08658 0.98585
 C2123 C 0.14324 1.07096 0.99504
 C2124 C 0.15743 1.06259 1.00374
 C2125 C 0.17427 1.07008 1.00348
 C2126 C 0.17710 1.08605 0.99462
 N2127 N 0.12569 1.06416 0.99553
 N2128 N 0.12172 1.05021 1.00384
 C2129 C 0.10396 1.04386 1.00421
 C2130 C 0.10049 1.02788 1.01261
 C2131 C 0.08335 1.02118 1.01285
 C2132 C 0.06934 1.03044 1.00472
 C2133 C 0.07285 1.04666 0.99656
 C2134 C 0.08999 1.05329 0.99627
 H2135 H 0.16475 1.10625 0.97845
 H2136 H 0.13536 1.09308 0.97902
 H2137 H 0.15547 1.05045 1.01091
 H2138 H 0.18493 1.06367 1.01062
 H2139 H 0.11112 1.02053 1.01884
 H2140 H 0.08112 1.00868 1.01931
 H2141 H 0.06241 1.05413 0.99015
 H2142 H 0.09231 1.06573 0.98976
 C2143 C 0.66283 0.59283 0.48678
 C2144 C 0.64618 0.58515 0.48750
 C2145 C 0.64358 0.56975 0.49716
 C2146 C 0.65799 0.56182 0.50590
 C2147 C 0.67472 0.56949 0.50517
 C2148 C 0.67725 0.58521 0.49577
 N2149 N 0.62613 0.56273 0.49809
 N2150 N 0.62251 0.54885 0.50667
 C2151 C 0.60485 0.54229 0.50753
 C2152 C 0.60172 0.52648 0.51638
 C2153 C 0.58463 0.51970 0.51728
 C2154 C 0.57033 0.52871 0.50937
 C2155 C 0.57354 0.54470 0.50065
 C2156 C 0.59062 0.55141 0.49970
 H2157 H 0.66442 0.60477 0.47920
 H2158 H 0.63519 0.59132 0.48064
 H2159 H 0.65628 0.54988 0.51346
 H2160 H 0.68554 0.56340 0.51234
 H2161 H 0.61256 0.51936 0.52251
 H2162 H 0.58265 0.50738 0.52414
 H2163 H 0.56288 0.55199 0.49439
 H2164 H 0.59268 0.56370 0.49283
 C2165 C 0.67576 0.43506 -0.00973
 C2166 C 0.65922 0.44356 -0.01013
 C2167 C 0.64455 0.43580 -0.00223
 C2168 C 0.64666 0.41951 0.00635
 C2169 C 0.66313 0.41105 0.00679
 C2170 C 0.67784 0.41861 -0.00139
 N2171 N 0.62767 0.44455 -0.00312
 N2172 N 0.61387 0.43746 0.00311
 C2173 C 0.59679 0.44576 0.00258
 C2174 C 0.58246 0.43678 0.00968
 C2175 C 0.56562 0.44451 0.00974
 C2176 C 0.56279 0.46147 0.00269
 C2177 C 0.57722 0.47040 -0.00462
 C2178 C 0.59409 0.46262 -0.00468
 H2179 H 0.68681 0.44116 -0.01626
 H2180 H 0.65778 0.45612 -0.01677
 H2181 H 0.63558 0.41329 0.01270
 H2182 H 0.66436 0.39858 0.01364
 H2183 H 0.58439 0.42377 0.01528
 H2184 H 0.55485 0.43722 0.01545
 H2185 H 0.57553 0.48345 -0.01019
 H2186 H 0.60500 0.46979 -0.01027
 C2187 C 0.18622 -0.06463 0.49153
 C2188 C 0.16956 -0.05640 0.49071
 C2189 C 0.15443 -0.06541 0.49600
 C2190 C 0.15614 -0.08285 0.50207
 C2191 C 0.17274 -0.09107 0.50291
 C2192 C 0.18800 -0.08205 0.49774
 N2193 N 0.13753 -0.05663 0.49519
 N2194 N 0.12347 -0.06427 0.50004
 C2195 C 0.10641 -0.05588 0.49951
 C2196 C 0.09180 -0.06531 0.50535
 C2197 C 0.07494 -0.05757 0.50526
 C2198 C 0.07237 -0.04016 0.49927
 C2199 C 0.08711 -0.03073 0.49330
 C2200 C 0.10399 -0.03851 0.49343
 H2201 H 0.19772 -0.05729 0.48757
 H2202 H 0.16843 -0.04294 0.48601
 H2203 H 0.14467 -0.09017 0.50616
 H2204 H 0.17359 -0.10461 0.50742
 H2205 H 0.09350 -0.07871 0.51006
 H2206 H 0.06394 -0.06526 0.50993
 H2207 H 0.08563 -0.01730 0.48860
 H2208 H 0.11511 -0.03096 0.48884
 C2209 C 0.34284 -0.09474 0.48891
 C2210 C 0.35960 -0.08728 0.48840
 C2211 C 0.36309 -0.07164 0.49768
 C2212 C 0.34947 -0.06331 0.50737
 C2213 C 0.33262 -0.07076 0.50786
 C2214 C 0.32919 -0.08665 0.49875
 N2215 N 0.38057 -0.06465 0.49702
 N2216 N 0.38501 -0.05064 0.50526
 C2217 C 0.40262 -0.04395 0.50432
 C2218 C 0.40661 -0.02811 0.51305
 C2219 C 0.42355 -0.02101 0.51196
 C2220 C 0.43684 -0.02971 0.50209
 C2221 C 0.43285 -0.04581 0.49359
 C2222 C 0.41590 -0.05285 0.49467
 H2223 H 0.34054 -0.10683 0.48151
 H2224 H 0.36996 -0.09375 0.48081
 H2225 H 0.35186 -0.05117 0.51464
 H2226 H 0.32240 -0.06430 0.51564
 H2227 H 0.39651 -0.02115 0.52058
 H2228 H 0.42616 -0.00863 0.51873
 H2229 H 0.44273 -0.05288 0.48590
 H2230 H 0.41318 -0.06516 0.48784
 C2231 C -0.16642 0.40573 1.00290
 C2232 C -0.14979 0.41344 1.00386
 C2233 C -0.14808 0.43115 1.00895
 C2234 C -0.16325 0.44113 1.01342
 C2235 C -0.17997 0.43340 1.01249
 C2236 C -0.18172 0.41567 1.00700
 N2237 N -0.13080 0.43864 1.00897
 N2238 N -0.12780 0.45463 1.01331
 C2239 C -0.11028 0.46161 1.01269
 C2240 C -0.10741 0.47914 1.01797
 C2241 C -0.09048 0.48634 1.01710
 C2242 C -0.07612 0.47608 1.01083
 C2243 C -0.07908 0.45844 1.00564
 C2244 C -0.09595 0.45127 1.00657
 H2245 H -0.16730 0.39196 0.99897
 H2246 H -0.13818 0.40562 1.00048
 H2247 H -0.16221 0.45487 1.01738
 H2248 H -0.19153 0.44138 1.01564
 H2249 H -0.11834 0.48726 1.02268
 H2250 H -0.08869 0.49997 1.02119
 H2251 H -0.06836 0.45012 1.00080
 H2252 H -0.09779 0.43768 1.00239
 C2253 C -0.18163 0.56331 0.48636
 C2254 C -0.16536 0.55428 0.48618
 C2255 C -0.14999 0.56271 0.49196
 C2256 C -0.15101 0.58044 0.49764
 C2257 C -0.16721 0.58946 0.49782
 C2258 C -0.18275 0.58095 0.49238
 N2259 N -0.13362 0.55298 0.49229
 N2260 N -0.11945 0.55994 0.49799
 C2261 C -0.10296 0.55048 0.49876
 C2262 C -0.08816 0.55915 0.50551
 C2263 C -0.07191 0.55029 0.50682
 C2264 C -0.07018 0.53250 0.50137
 C2265 C -0.08509 0.52385 0.49447
 C2266 C -0.10135 0.53275 0.49319
 H2267 H -0.19338 0.55637 0.48220
 H2268 H -0.16476 0.54061 0.48177
 H2269 H -0.13932 0.58732 0.50206
 H2270 H -0.16756 0.60314 0.50220
 H2271 H -0.08925 0.57281 0.50984
 H2272 H -0.06073 0.55739 0.51214
 H2273 H -0.08425 0.51018 0.49010
 H2274 H -0.11263 0.52578 0.48792
 C2275 C 0.33383 1.09594 -0.00445
 C2276 C 0.35071 1.08839 -0.00555
 C2277 C 0.35305 1.07105 -0.01173
 C2278 C 0.33824 1.06131 -0.01714
 C2279 C 0.32128 1.06887 -0.01607
 C2280 C 0.31889 1.08621 -0.00950
 N2281 N 0.37054 1.06361 -0.01187
 N2282 N 0.37394 1.04791 -0.01717
 C2283 C 0.39154 1.04071 -0.01666
 C2284 C 0.39457 1.02336 -0.02263
 C2285 C 0.41147 1.01574 -0.02163
 C2286 C 0.42568 1.02537 -0.01455
 C2287 C 0.42262 1.04290 -0.00881
 C2288 C 0.40573 1.05050 -0.00986
 H2289 H 0.33248 1.10943 0.00033
 H2290 H 0.36202 1.09604 -0.00141
 H2291 H 0.33975 1.04784 -0.02195
 H2292 H 0.31002 1.06104 -0.01997
 H2293 H 0.38376 1.01568 -0.02790
 H2294 H 0.41333 1.00222 -0.02620
 H2295 H 0.43323 1.05074 -0.00335
 H2296 H 0.40375 1.06395 -0.00516
 C2297 C 0.01183 1.18088 1.06186
 C2298 C 0.01417 1.16419 1.05398
 C2299 C 0.01058 1.14880 1.06341
 C2300 C 0.00495 1.15027 1.08101
 C2301 C 0.00260 1.16690 1.08887
 C2302 C 0.00579 1.18240 1.07934
 N2303 N 0.01210 1.13192 1.05475
 N2304 N 0.00841 1.11764 1.06263
 C2305 C 0.00916 1.10067 1.05409
 C2306 C 0.00391 1.08580 1.06348
 C2307 C 0.00331 1.06920 1.05526
 C2308 C 0.00803 1.06718 1.03741
 C2309 C 0.01380 1.08210 1.02815
 C2310 C 0.01432 1.09871 1.03639
 H2311 H 0.01431 1.19259 1.05417
 H2312 H 0.01849 1.16323 1.04040
 H2313 H 0.00217 1.13860 1.08863
 H2314 H -0.00172 1.16762 1.10247
 H2315 H -0.00008 1.08717 1.07714
 H2316 H -0.00111 1.05801 1.06282
 H2317 H 0.01754 1.08103 1.01440
 H2318 H 0.01845 1.11003 1.02887
 C2319 C 0.50881 0.68196 0.56315
 C2320 C 0.51072 0.66494 0.55590
 C2321 C 0.50579 0.65009 0.56555
 C2322 C 0.49889 0.65244 0.58260
 C2323 C 0.49695 0.66941 0.58983
 C2324 C 0.50183 0.68438 0.58018
 N2325 N 0.50769 0.63282 0.55774
 N2326 N 0.50348 0.61889 0.56597
 C2327 C 0.50499 0.60157 0.55824
 C2328 C 0.49938 0.58701 0.56791
 C2329 C 0.49986 0.57001 0.56047
 C2330 C 0.50603 0.56728 0.54316
 C2331 C 0.51204 0.58193 0.53363
 C2332 C 0.51151 0.59892 0.54108
 H2333 H 0.51259 0.69324 0.55536
 H2334 H 0.51601 0.66330 0.54273
 H2335 H 0.49502 0.64119 0.59036
 H2336 H 0.49185 0.67080 0.60311
 H2337 H 0.49436 0.58890 0.58116
 H2338 H 0.49515 0.55906 0.56821
 H2339 H 0.51688 0.58034 0.52027
 H2340 H 0.51596 0.60997 0.53335
 C2341 C 0.01471 0.65559 0.40597
 C2342 C 0.01389 0.63882 0.41348
 C2343 C 0.00374 0.63607 0.42856
 C2344 C -0.00547 0.65044 0.43627
 C2345 C -0.00464 0.66727 0.42878
 C2346 C 0.00535 0.67000 0.41345
 N2347 N 0.00303 0.61859 0.43567
 N2348 N -0.00591 0.61499 0.44934
 C2349 C -0.00645 0.59745 0.45634
 C2350 C -0.01555 0.59464 0.47207
 C2351 C -0.01579 0.57784 0.47961
 C2352 C -0.00694 0.56345 0.47146
 C2353 C 0.00186 0.56625 0.45542
 C2354 C 0.00215 0.58309 0.44795
 H2355 H 0.02276 0.65731 0.39434
 H2356 H 0.02113 0.62788 0.40748
 H2357 H -0.01340 0.64864 0.44796
 H2358 H -0.01213 0.67806 0.43474
 H2359 H -0.02228 0.60558 0.47863
 H2360 H -0.02277 0.57618 0.49192
 H2361 H 0.00882 0.55550 0.44879
 H2362 H 0.00923 0.58491 0.43573
 C2363 C 0.49770 1.17270 -0.06459
 C2364 C 0.49581 1.15631 -0.05642
 C2365 C 0.49126 1.14131 -0.06630
 C2366 C 0.48823 1.14293 -0.08449
 C2367 C 0.48992 1.15931 -0.09265
 C2368 C 0.49487 1.17439 -0.08285
 N2369 N 0.49013 1.12458 -0.05767
 N2370 N 0.48869 1.11013 -0.06629
 C2371 C 0.48775 1.09333 -0.05778
 C2372 C 0.48964 1.07789 -0.06796
 C2373 C 0.48979 1.06130 -0.05997
 C2374 C 0.48775 1.05989 -0.04161
 C2375 C 0.48527 1.07542 -0.03148
 C2376 C 0.48540 1.09201 -0.03948
 H2377 H 0.50174 1.18393 -0.05666
 H2378 H 0.49821 1.15523 -0.04239
 H2379 H 0.48453 1.13155 -0.09239
 H2380 H 0.48722 1.16017 -0.10663
 H2381 H 0.49140 1.07875 -0.08209
 H2382 H 0.49161 1.04959 -0.06814
 H2383 H 0.48371 1.07477 -0.01731
 H2384 H 0.48380 1.10378 -0.03135
 C2385 C 0.48286 0.32580 -0.08359
 C2386 C 0.48178 0.34289 -0.07644
 C2387 C 0.49519 0.34924 -0.06545
 C2388 C 0.50972 0.33820 -0.06151
 C2389 C 0.51089 0.32114 -0.06875
 C2390 C 0.49751 0.31481 -0.07995
 N2391 N 0.49389 0.36698 -0.05872
 N2392 N 0.50500 0.37317 -0.04775
 C2393 C 0.50381 0.39096 -0.04117
 C2394 C 0.51479 0.39606 -0.02722
 C2395 C 0.51360 0.41315 -0.02011
 C2396 C 0.50150 0.42556 -0.02704
 C2397 C 0.49078 0.42053 -0.04136
 C2398 C 0.49184 0.40334 -0.04830
 H2399 H 0.47248 0.32135 -0.09236
 H2400 H 0.47054 0.35129 -0.07959
 H2401 H 0.52026 0.34280 -0.05302
 H2402 H 0.52225 0.31291 -0.06563
 H2403 H 0.52412 0.38666 -0.02168
 H2404 H 0.52212 0.41665 -0.00916
 H2405 H 0.48130 0.42976 -0.04695
 H2406 H 0.48329 0.39973 -0.05918
 C2407 C 0.01750 -0.18864 0.43698
 C2408 C 0.01847 -0.17235 0.44589
 C2409 C 0.01413 -0.15659 0.43724
 C2410 C 0.00900 -0.15729 0.41943
 C2411 C 0.00801 -0.17351 0.41054
 C2412 C 0.01209 -0.18940 0.41924
 N2413 N 0.01470 -0.14010 0.44676
 N2414 N 0.01047 -0.12556 0.43944
 C2415 C 0.01054 -0.10884 0.44850
 C2416 C 0.00520 -0.09375 0.43930
 C2417 C 0.00453 -0.07724 0.44771
 C2418 C 0.00926 -0.07548 0.46559
 C2419 C 0.01485 -0.09067 0.47477
 C2420 C 0.01546 -0.10723 0.46631
 H2421 H 0.02061 -0.20066 0.44407
 H2422 H 0.02243 -0.17201 0.45962
 H2423 H 0.00567 -0.14531 0.41237
 H2424 H 0.00415 -0.17360 0.39679
 H2425 H 0.00138 -0.09483 0.42557
 H2426 H 0.00021 -0.06587 0.44018
 H2427 H 0.01858 -0.08981 0.48854
 H2428 H 0.01965 -0.11874 0.47369
 C2429 C 0.51155 -0.15967 0.59252
 C2430 C 0.51228 -0.14297 0.58486
 C2431 C 0.50463 -0.13996 0.56835
 C2432 C 0.49644 -0.15401 0.55936
 C2433 C 0.49577 -0.17079 0.56698
 C2434 C 0.50318 -0.17374 0.58373
 N2435 N 0.50525 -0.12252 0.56118
 N2436 N 0.49798 -0.11853 0.54659
 C2437 C 0.49869 -0.10098 0.53962
 C2438 C 0.49047 -0.09745 0.52349
 C2439 C 0.49109 -0.08053 0.51624
 C2440 C 0.50000 -0.06678 0.52506
 C2441 C 0.50811 -0.07036 0.54137
 C2442 C 0.50746 -0.08729 0.54859
 H2443 H 0.51759 -0.16161 0.60533
 H2444 H 0.51870 -0.13227 0.59187
 H2445 H 0.49045 -0.15201 0.54655
 H2446 H 0.48910 -0.18133 0.55997
 H2447 H 0.48363 -0.10788 0.51647
 H2448 H 0.48468 -0.07827 0.50367
 H2449 H 0.51507 -0.06012 0.54854
 H2450 H 0.51390 -0.08967 0.56111
 C2451 C -0.01656 0.32371 1.06138
 C2452 C -0.01750 0.34021 1.05316
 C2453 C -0.01390 0.35571 1.06263
 C2454 C -0.00931 0.35456 1.08050
 C2455 C -0.00841 0.33819 1.08877
 C2456 C -0.01209 0.32234 1.07945
 N2457 N -0.01478 0.37243 1.05391
 N2458 N -0.01123 0.38676 1.06206
 C2459 C -0.01179 0.40372 1.05384
 C2460 C -0.00674 0.41854 1.06370
 C2461 C -0.00658 0.43526 1.05607
 C2462 C -0.01159 0.43748 1.03835
 C2463 C -0.01696 0.42257 1.02853
 C2464 C -0.01702 0.40580 1.03620
 H2465 H -0.02004 0.31222 1.05359
 H2466 H -0.02112 0.34092 1.03936
 H2467 H -0.00624 0.36633 1.08810
 H2468 H -0.00406 0.33813 1.10235
 H2469 H -0.00272 0.41707 1.07733
 H2470 H -0.00244 0.44644 1.06405
 H2471 H -0.02088 0.42379 1.01485
 H2472 H -0.02102 0.39451 1.02833
 C2473 C 0.73903 0.34805 0.08683
 C2474 C 0.74011 0.34147 0.10392
 C2475 C 0.75117 0.32719 0.10781
 C2476 C 0.76138 0.31946 0.09433
 C2477 C 0.76048 0.32605 0.07714
 C2478 C 0.74917 0.34054 0.07283
 N2479 N 0.75161 0.32083 0.12553
 N2480 N 0.76064 0.30735 0.13019
 C2481 C 0.76053 0.30125 0.14804
 C2482 C 0.76909 0.28529 0.15212
 C2483 C 0.76835 0.27854 0.16921
 C2484 C 0.75909 0.28775 0.18259
 C2485 C 0.75095 0.30405 0.17854
 C2486 C 0.75160 0.31071 0.16143
 H2487 H 0.73084 0.35971 0.08520
 H2488 H 0.73231 0.34767 0.11429
 H2489 H 0.76997 0.30825 0.09702
 H2490 H 0.76815 0.31901 0.06728
 H2491 H 0.77606 0.27790 0.14194
 H2492 H 0.77484 0.26599 0.17187
 H2493 H 0.74370 0.31150 0.18849
 H2494 H 0.74494 0.32313 0.15865
 C2495 C 0.26776 0.81465 0.56802
 C2496 C 0.26834 0.80574 0.58413
 C2497 C 0.26076 0.81340 0.59925
 C2498 C 0.25226 0.82998 0.59800
 C2499 C 0.25161 0.83883 0.58197
 C2500 C 0.25953 0.83140 0.56683
 N2501 N 0.26188 0.80430 0.61573
 N2502 N 0.25625 0.81155 0.62989
 C2503 C 0.25683 0.80311 0.64669
 C2504 C 0.25035 0.81247 0.66132
 C2505 C 0.25008 0.80464 0.67789
 C2506 C 0.25631 0.78719 0.68016
 C2507 C 0.26312 0.77788 0.66545
 C2508 C 0.26337 0.78578 0.64881
 H2509 H 0.27408 0.80863 0.55663
 H2510 H 0.27491 0.79295 0.58490
 H2511 H 0.24612 0.83614 0.60943
 H2512 H 0.24485 0.85153 0.58142
 H2513 H 0.24532 0.82585 0.65982
 H2514 H 0.24480 0.81226 0.68888
 H2515 H 0.26802 0.76442 0.66672
 H2516 H 0.26847 0.77831 0.63765
 C2517 C 0.75795 0.65423 0.58077
 C2518 C 0.75815 0.66154 0.59773
 C2519 C 0.74936 0.67754 0.60131
 C2520 C 0.74058 0.68643 0.58757
 C2521 C 0.74040 0.67913 0.57053
 C2522 C 0.74890 0.66282 0.56702
 N2523 N 0.74939 0.68420 0.61904
 N2524 N 0.74158 0.69854 0.62355
 C2525 C 0.74169 0.70479 0.64145
 C2526 C 0.73365 0.72108 0.64551
 C2527 C 0.73376 0.72764 0.66281
 C2528 C 0.74189 0.71792 0.67642
 C2529 C 0.74976 0.70144 0.67230
 C2530 C 0.74969 0.69495 0.65499
 H2531 H 0.76488 0.64181 0.57841
 H2532 H 0.76504 0.65463 0.60818
 H2533 H 0.73371 0.69885 0.59004
 H2534 H 0.73324 0.68598 0.56022
 H2535 H 0.72739 0.72877 0.63522
 H2536 H 0.72752 0.74035 0.66550
 H2537 H 0.75615 0.69361 0.68242
 H2538 H 0.75595 0.68227 0.65220
 C2539 C 0.24941 0.15107 0.08297
 C2540 C 0.24878 0.15834 0.09992
 C2541 C 0.24416 0.17604 0.10258
 C2542 C 0.24044 0.18668 0.08797
 C2543 C 0.24116 0.17952 0.07087
 C2544 C 0.24541 0.16137 0.06787
 N2545 N 0.24348 0.18273 0.12029
 N2546 N 0.23856 0.19845 0.12417
 C2547 C 0.23815 0.20463 0.14210
 C2548 C 0.23247 0.22196 0.14574
 C2549 C 0.23230 0.22845 0.16308
 C2550 C 0.23788 0.21765 0.17712
 C2551 C 0.24337 0.20016 0.17340
 C2552 C 0.24350 0.19371 0.15608
 H2553 H 0.25394 0.13749 0.08202
 H2554 H 0.25200 0.15008 0.11110
 H2555 H 0.23680 0.20048 0.08976
 H2556 H 0.23738 0.18825 0.06028
 H2557 H 0.22830 0.23051 0.13510
 H2558 H 0.22800 0.24198 0.16543
 H2559 H 0.24773 0.19147 0.18385
 H2560 H 0.24793 0.18023 0.15363
 C2561 C 0.24848 0.15465 0.91091
 C2562 C 0.25010 0.16159 0.89402
 C2563 C 0.25637 0.17871 0.89166
 C2564 C 0.26127 0.18887 0.90648
 C2565 C 0.25967 0.18192 0.92346
 C2566 C 0.25307 0.16479 0.92586
 N2567 N 0.25717 0.18549 0.87411
 N2568 N 0.26269 0.20092 0.87069
 C2569 C 0.26292 0.20752 0.85303
 C2570 C 0.26898 0.22464 0.85009
 C2571 C 0.26865 0.23174 0.83314
 C2572 C 0.26219 0.22180 0.81876
 C2573 C 0.25638 0.20447 0.82173
 C2574 C 0.25674 0.19739 0.83870
 H2575 H 0.24372 0.14128 0.91226
 H2576 H 0.24636 0.15362 0.88270
 H2577 H 0.26614 0.20218 0.90497
 H2578 H 0.26324 0.19005 0.93472
 H2579 H 0.27377 0.23258 0.86101
 H2580 H 0.27324 0.24513 0.83137
 H2581 H 0.25135 0.19642 0.81100
 H2582 H 0.25198 0.18409 0.84062
 C2583 C 0.74830 0.65560 0.41028
 C2584 C 0.74958 0.66342 0.39375
 C2585 C 0.75583 0.68065 0.39214
 C2586 C 0.76105 0.69002 0.40735
 C2587 C 0.75979 0.68219 0.42397
 C2588 C 0.75324 0.66494 0.42562
 N2589 N 0.75641 0.68828 0.37494
 N2590 N 0.76187 0.70387 0.37215
 C2591 C 0.76196 0.71118 0.35477
 C2592 C 0.76823 0.72833 0.35237
 C2593 C 0.76811 0.73593 0.33562
 C2594 C 0.76165 0.72646 0.32092
 C2595 C 0.75548 0.70917 0.32340
 C2596 C 0.75564 0.70160 0.34013
 H2597 H 0.74354 0.64218 0.41104
 H2598 H 0.74560 0.65604 0.38211
 H2599 H 0.76591 0.70339 0.40642
 H2600 H 0.76360 0.68974 0.43555
 H2601 H 0.77312 0.73586 0.36353
 H2602 H 0.77296 0.74927 0.33422
 H2603 H 0.75045 0.70147 0.31242
 H2604 H 0.75072 0.68831 0.34162
 C2605 C 0.25750 0.84775 0.41219
 C2606 C 0.25666 0.84036 0.39530
 C2607 C 0.25082 0.82305 0.39278
 C2608 C 0.24547 0.81319 0.40742
 C2609 C 0.24628 0.82060 0.42440
 C2610 C 0.25252 0.83790 0.42697
 N2611 N 0.25095 0.81581 0.37528
 N2612 N 0.24592 0.80020 0.37159
 C2613 C 0.24671 0.79337 0.35390
 C2614 C 0.24064 0.77629 0.35032
 C2615 C 0.24166 0.76918 0.33323
 C2616 C 0.24888 0.77909 0.31943
 C2617 C 0.25486 0.79629 0.32309
 C2618 C 0.25377 0.80337 0.34013
 H2619 H 0.26203 0.86122 0.41369
 H2620 H 0.26074 0.84810 0.38410
 H2621 H 0.24091 0.79975 0.40577
 H2622 H 0.24244 0.81268 0.43555
 H2623 H 0.23520 0.76843 0.36082
 H2624 H 0.23694 0.75589 0.33089
 H2625 H 0.26043 0.80434 0.31280
 H2626 H 0.25857 0.81661 0.34252
 C2627 C 0.76150 0.34220 0.91834
 C2628 C 0.76239 0.33422 0.90170
 C2629 C 0.75324 0.31864 0.89815
 C2630 C 0.74341 0.31079 0.91165
 C2631 C 0.74254 0.31875 0.92839
 C2632 C 0.75137 0.33469 0.93181
 N2633 N 0.75386 0.31147 0.88063
 N2634 N 0.74567 0.29757 0.87598
 C2635 C 0.74637 0.29104 0.85818
 C2636 C 0.73762 0.27539 0.85378
 C2637 C 0.73802 0.26880 0.83648
 C2638 C 0.74717 0.27783 0.82322
 C2639 C 0.75588 0.29359 0.82771
 C2640 C 0.75551 0.30012 0.84499
 H2641 H 0.76869 0.35430 0.92067
 H2642 H 0.77008 0.34034 0.89144
 H2643 H 0.73623 0.29871 0.90919
 H2644 H 0.73458 0.31273 0.93850
 H2645 H 0.73049 0.26829 0.86379
 H2646 H 0.73115 0.25664 0.83350
 H2647 H 0.76307 0.30089 0.81788
 H2648 H 0.76235 0.31228 0.84802
 C2649 C 0.82080 0.43271 0.23886
 C2650 C 0.81241 0.41644 0.23667
 C2651 C 0.81671 0.40221 0.24758
 C2652 C 0.82923 0.40453 0.26108
 C2653 C 0.83749 0.42081 0.26341
 C2654 C 0.83355 0.43505 0.25219
 N2655 N 0.80826 0.38555 0.24476
 N2656 N 0.81345 0.37165 0.25267
 C2657 C 0.80502 0.35492 0.25040
 C2658 C 0.81223 0.34016 0.25887
 C2659 C 0.80393 0.32379 0.25772
 C2660 C 0.78813 0.32192 0.24811
 C2661 C 0.78112 0.33673 0.23927
 C2662 C 0.78951 0.35310 0.24037
 H2663 H 0.81761 0.44329 0.22983
 H2664 H 0.80276 0.41482 0.22623
 H2665 H 0.83261 0.39379 0.26986
 H2666 H 0.84695 0.42224 0.27403
 H2667 H 0.82419 0.34142 0.26661
 H2668 H 0.80971 0.31270 0.26471
 H2669 H 0.76899 0.33577 0.23174
 H2670 H 0.78371 0.36436 0.23369
 C2671 C 0.31392 0.93346 0.73015
 C2672 C 0.30455 0.91758 0.72993
 C2673 C 0.31163 0.90243 0.73792
 C2674 C 0.32812 0.90342 0.74641
 C2675 C 0.33744 0.91922 0.74666
 C2676 C 0.33056 0.93439 0.73838
 N2677 N 0.30206 0.88618 0.73720
 N2678 N 0.30864 0.87202 0.74354
 C2679 C 0.29977 0.85541 0.74328
 C2680 C 0.30844 0.84076 0.75053
 C2681 C 0.30029 0.82433 0.75088
 C2682 C 0.28317 0.82220 0.74395
 C2683 C 0.27451 0.83694 0.73649
 C2684 C 0.28275 0.85345 0.73616
 H2685 H 0.30833 0.94488 0.72356
 H2686 H 0.29185 0.91702 0.72336
 H2687 H 0.33385 0.89198 0.75283
 H2688 H 0.35004 0.91959 0.75343
 H2689 H 0.32158 0.84213 0.75602
 H2690 H 0.30741 0.81331 0.75668
 H2691 H 0.26134 0.83578 0.73104
 H2692 H 0.27581 0.86463 0.73046
 C2693 C 0.15252 0.91035 0.24662
 C2694 C 0.16073 0.89374 0.24674
 C2695 C 0.17846 0.89193 0.25133
 C2696 C 0.18815 0.90705 0.25566
 C2697 C 0.18005 0.92380 0.25546
 C2698 C 0.16190 0.92594 0.25109
 N2699 N 0.18621 0.87457 0.25132
 N2700 N 0.20203 0.87145 0.25620
 C2701 C 0.20928 0.85385 0.25583
 C2702 C 0.22650 0.85088 0.26196
 C2703 C 0.23394 0.83383 0.26153
 C2704 C 0.22423 0.81946 0.25484
 C2705 C 0.20689 0.82252 0.24880
 C2706 C 0.19948 0.83951 0.24932
 H2707 H 0.13900 0.91069 0.24207
 H2708 H 0.15321 0.88215 0.24309
 H2709 H 0.20194 0.90592 0.25933
 H2710 H 0.18809 0.93477 0.25969
 H2711 H 0.23419 0.86181 0.26702
 H2712 H 0.24733 0.83195 0.26625
 H2713 H 0.19900 0.81178 0.24364
 H2714 H 0.18613 0.84144 0.24451
 C2715 C 0.65350 0.41406 0.74920
 C2716 C 0.66136 0.39727 0.74838
 C2717 C 0.67754 0.39399 0.75670
 C2718 C 0.68600 0.40784 0.76574
 C2719 C 0.67815 0.42473 0.76654
 C2720 C 0.66173 0.42796 0.75840
 N2721 N 0.68487 0.37644 0.75583
 N2722 N 0.69942 0.37212 0.76315
 C2723 C 0.70630 0.35438 0.76206
 C2724 C 0.72258 0.35038 0.76991
 C2725 C 0.72967 0.33321 0.76889
 C2726 C 0.72052 0.31968 0.75997
 C2727 C 0.70408 0.32375 0.75223
 C2728 C 0.69704 0.34091 0.75324
 H2729 H 0.64100 0.41619 0.74254
 H2730 H 0.65476 0.38672 0.74130
 H2731 H 0.69855 0.40561 0.77227
 H2732 H 0.68474 0.43513 0.77383
 H2733 H 0.72984 0.36062 0.77677
 H2734 H 0.74235 0.33057 0.77502
 H2735 H 0.69665 0.31371 0.74525
 H2736 H 0.68440 0.34363 0.74708
 C2737 C 0.66598 0.57984 0.77479
 C2738 C 0.67305 0.59680 0.77382
 C2739 C 0.67741 0.60402 0.75752
 C2740 C 0.67471 0.59400 0.74207
 C2741 C 0.66740 0.57712 0.74299
 C2742 C 0.66284 0.56984 0.75936
 N2743 N 0.68422 0.62162 0.75701
 N2744 N 0.69085 0.62810 0.74312
 C2745 C 0.69734 0.64583 0.74272
 C2746 C 0.70842 0.65079 0.72892
 C2747 C 0.71558 0.66776 0.72859
 C2748 C 0.71141 0.68021 0.74189
 C2749 C 0.69980 0.67538 0.75542
 C2750 C 0.69294 0.65829 0.75593
 H2751 H 0.66296 0.57459 0.78765
 H2752 H 0.67516 0.60436 0.78583
 H2753 H 0.67788 0.59936 0.72929
 H2754 H 0.66489 0.57000 0.73081
 H2755 H 0.71183 0.64134 0.71862
 H2756 H 0.72442 0.67114 0.71796
 H2757 H 0.69642 0.68466 0.76589
 H2758 H 0.68427 0.65480 0.76665
 C2759 C 0.18274 0.06656 0.23806
 C2760 C 0.19081 0.08301 0.23621
 C2761 C 0.18192 0.09859 0.24131
 C2762 C 0.16476 0.09755 0.24822
 C2763 C 0.15671 0.08116 0.25008
 C2764 C 0.16562 0.06546 0.24511
 N2765 N 0.19059 0.11524 0.23961
 N2766 N 0.18308 0.12969 0.24427
 C2767 C 0.19151 0.14649 0.24305
 C2768 C 0.18250 0.16156 0.24925
 C2769 C 0.19053 0.17810 0.24899
 C2770 C 0.20779 0.17986 0.24243
 C2771 C 0.21669 0.16471 0.23587
 C2772 C 0.20863 0.14815 0.23621
 H2773 H 0.18998 0.05469 0.23423
 H2774 H 0.20405 0.08363 0.23091
 H2775 H 0.15755 0.10939 0.25219
 H2776 H 0.14338 0.08080 0.25523
 H2777 H 0.16928 0.16043 0.25453
 H2778 H 0.18326 0.18946 0.25409
 H2779 H 0.22999 0.16558 0.23074
 H2780 H 0.21584 0.13667 0.23131
 C2781 C 0.32026 0.07391 0.75512
 C2782 C 0.31184 0.09040 0.75693
 C2783 C 0.32050 0.10588 0.75212
 C2784 C 0.33785 0.10471 0.74562
 C2785 C 0.34629 0.08825 0.74382
 C2786 C 0.33756 0.07264 0.74844
 N2787 N 0.31137 0.12254 0.75370
 N2788 N 0.31840 0.13695 0.74896
 C2789 C 0.30935 0.15367 0.75023
 C2790 C 0.31774 0.16877 0.74404
 C2791 C 0.30914 0.18524 0.74460
 C2792 C 0.29193 0.18689 0.75145
 C2793 C 0.28362 0.17169 0.75788
 C2794 C 0.29223 0.15522 0.75725
 H2795 H 0.31312 0.06212 0.75864
 H2796 H 0.29845 0.09113 0.76193
 H2797 H 0.34488 0.11648 0.74189
 H2798 H 0.35972 0.08776 0.73894
 H2799 H 0.33094 0.16774 0.73861
 H2800 H 0.31598 0.19664 0.73960
 H2801 H 0.27038 0.17246 0.76324
 H2802 H 0.28548 0.14372 0.76214
 C2803 C 0.81617 0.57606 0.26464
 C2804 C 0.80820 0.59284 0.26561
 C2805 C 0.81620 0.60739 0.25777
 C2806 C 0.83223 0.60492 0.24869
 C2807 C 0.84015 0.58816 0.24764
 C2808 C 0.83227 0.57355 0.25568
 N2809 N 0.80790 0.62449 0.25921
 N2810 N 0.81514 0.63827 0.25313
 C2811 C 0.80709 0.65548 0.25427
 C2812 C 0.81614 0.66987 0.24741
 C2813 C 0.80859 0.68682 0.24789
 C2814 C 0.79174 0.68969 0.25526
 C2815 C 0.78274 0.67519 0.26234
 C2816 C 0.79035 0.65823 0.26186
 H2817 H 0.80971 0.56502 0.27083
 H2818 H 0.79582 0.59456 0.27259
 H2819 H 0.83869 0.61594 0.24250
 H2820 H 0.85267 0.58671 0.24087
 H2821 H 0.82906 0.66791 0.24154
 H2822 H 0.81592 0.69764 0.24231
 H2823 H 0.76976 0.67691 0.26813
 H2824 H 0.78311 0.64728 0.26728
 C2825 C 0.91158 0.23822 0.15347
 C2826 C 0.89509 0.23789 0.16163
 C2827 C 0.89197 0.24771 0.17704
 C2828 C 0.90573 0.25766 0.18449
 C2829 C 0.92229 0.25799 0.17634
 C2830 C 0.92531 0.24845 0.16060
 N2831 N 0.87463 0.24764 0.18453
 N2832 N 0.87065 0.25636 0.19843
 C2833 C 0.85314 0.25637 0.20556
 C2834 C 0.84978 0.26550 0.22134
 C2835 C 0.83285 0.26574 0.22865
 C2836 C 0.81889 0.25687 0.22020
 C2837 C 0.82229 0.24782 0.20424
 C2838 C 0.83925 0.24754 0.19700
 H2839 H 0.91359 0.23051 0.14152
 H2840 H 0.88461 0.23011 0.15583
 H2841 H 0.90361 0.26537 0.19643
 H2842 H 0.93256 0.26609 0.18205
 H2843 H 0.86036 0.27241 0.22802
 H2844 H 0.83071 0.27288 0.24092
 H2845 H 0.81188 0.24084 0.19739
 H2846 H 0.84149 0.24044 0.18473
 C2847 C 0.41115 0.74886 0.64895
 C2848 C 0.39436 0.74880 0.65652
 C2849 C 0.39156 0.75619 0.67326
 C2850 C 0.40583 0.76360 0.68250
 C2851 C 0.42268 0.76363 0.67495
 C2852 C 0.42549 0.75633 0.65804
 N2853 N 0.37412 0.75590 0.68049
 N2854 N 0.37034 0.76259 0.69549
 C2855 C 0.35278 0.76201 0.70247
 C2856 C 0.34940 0.76933 0.71915
 C2857 C 0.33249 0.76857 0.72646
 C2858 C 0.31862 0.76043 0.71715
 C2859 C 0.32205 0.75329 0.70028
 C2860 C 0.33895 0.75406 0.69302
 H2861 H 0.41295 0.74288 0.63603
 H2862 H 0.38348 0.74297 0.64933
 H2863 H 0.40396 0.76939 0.69548
 H2864 H 0.43345 0.76961 0.68219
 H2865 H 0.35995 0.77551 0.72655
 H2866 H 0.33033 0.77424 0.73946
 H2867 H 0.31171 0.74696 0.69272
 H2868 H 0.34121 0.74833 0.68007
 C2869 C 0.42435 0.26959 0.83864
 C2870 C 0.40750 0.27155 0.83126
 C2871 C 0.40085 0.25859 0.81984
 C2872 C 0.41136 0.24366 0.81567
 C2873 C 0.42812 0.24161 0.82316
 C2874 C 0.43474 0.25448 0.83483
 N2875 N 0.38328 0.26059 0.81299
 N2876 N 0.37716 0.24985 0.80157
 C2877 C 0.35955 0.25119 0.79478
 C2878 C 0.35480 0.24018 0.78070
 C2879 C 0.33774 0.24093 0.77374
 C2880 C 0.32499 0.25261 0.78091
 C2881 C 0.32972 0.26357 0.79521
 C2882 C 0.34692 0.26295 0.80205
 H2883 H 0.42905 0.27961 0.84776
 H2884 H 0.39952 0.28309 0.83461
 H2885 H 0.40653 0.23344 0.80687
 H2886 H 0.43591 0.22991 0.81990
 H2887 H 0.36439 0.23101 0.77508
 H2888 H 0.33451 0.23220 0.76282
 H2889 H 0.32019 0.27272 0.80099
 H2890 H 0.35030 0.27152 0.81303
 C2891 C 0.93847 0.73981 0.31505
 C2892 C 0.92239 0.74081 0.30595
 C2893 C 0.90692 0.74603 0.31462
 C2894 C 0.90766 0.75026 0.33262
 C2895 C 0.92361 0.74920 0.34182
 C2896 C 0.93956 0.74389 0.33335
 N2897 N 0.89063 0.74690 0.30498
 N2898 N 0.87638 0.75228 0.31222
 C2899 C 0.85985 0.75317 0.30305
 C2900 C 0.84507 0.75992 0.31198
 C2901 C 0.82866 0.76088 0.30361
 C2902 C 0.82670 0.75500 0.28606
 C2903 C 0.84161 0.74821 0.27709
 C2904 C 0.85807 0.74732 0.28551
 H2905 H 0.94968 0.73492 0.30762
 H2906 H 0.92197 0.73735 0.29207
 H2907 H 0.89589 0.75454 0.33963
 H2908 H 0.92322 0.75355 0.35542
 H2909 H 0.84629 0.76444 0.32552
 H2910 H 0.81748 0.76614 0.31095
 H2911 H 0.84059 0.74357 0.26358
 H2912 H 0.86933 0.74202 0.27835
 C2913 C 0.08498 0.72655 0.32705
 C2914 C 0.10126 0.72664 0.31844
 C2915 C 0.10933 0.74261 0.31435
 C2916 C 0.10084 0.75865 0.31885
 C2917 C 0.08465 0.75861 0.32774
 C2918 C 0.07658 0.74253 0.33210
 N2919 N 0.12644 0.74210 0.30636
 N2920 N 0.13345 0.75561 0.29950
 C2921 C 0.15094 0.75477 0.29232
 C2922 C 0.15657 0.76814 0.28106
 C2923 C 0.17362 0.76756 0.27391
 C2924 C 0.18541 0.75377 0.27831
 C2925 C 0.17979 0.74050 0.28980
 C2926 C 0.16267 0.74091 0.29662
 H2927 H 0.07902 0.71392 0.32979
 H2928 H 0.10767 0.71419 0.31498
 H2929 H 0.10694 0.77118 0.31595
 H2930 H 0.07874 0.77116 0.33163
 H2931 H 0.14769 0.77894 0.27771
 H2932 H 0.17765 0.77801 0.26518
 H2933 H 0.18857 0.72968 0.29337
 H2934 H 0.15868 0.73050 0.30542
 C2935 C 0.58692 0.22990 0.84416
 C2936 C 0.60359 0.22998 0.83631
 C2937 C 0.60764 0.24254 0.82357
 C2938 C 0.59470 0.25502 0.81857
 C2939 C 0.57800 0.25500 0.82646
 C2940 C 0.57397 0.24251 0.83945
 N2941 N 0.62505 0.24248 0.81623
 N2942 N 0.62966 0.25307 0.80418
 C2943 C 0.64725 0.25292 0.79723
 C2944 C 0.65123 0.26385 0.78301
 C2945 C 0.66826 0.26387 0.77589
 C2946 C 0.68169 0.25302 0.78300
 C2947 C 0.67766 0.24220 0.79740
 C2948 C 0.66061 0.24210 0.80441
 H2949 H 0.58415 0.21993 0.85390
 H2950 H 0.61343 0.22025 0.84021
 H2951 H 0.59755 0.26491 0.80878
 H2952 H 0.56840 0.26501 0.82270
 H2953 H 0.64106 0.27228 0.77739
 H2954 H 0.67090 0.27241 0.76484
 H2955 H 0.68764 0.23365 0.80319
 H2956 H 0.65791 0.23359 0.81545
 C2957 C 0.56492 0.75445 0.68635
 C2958 C 0.58110 0.75424 0.69532
 C2959 C 0.59675 0.74988 0.68637
 C2960 C 0.59602 0.74543 0.66836
 C2961 C 0.57986 0.74539 0.65947
 C2962 C 0.56417 0.74998 0.66834
 N2963 N 0.61320 0.75008 0.69573
 N2964 N 0.62789 0.74907 0.68763
 C2965 C 0.64455 0.74895 0.69657
 C2966 C 0.65996 0.75065 0.68664
 C2967 C 0.67649 0.75054 0.69485
 C2968 C 0.67788 0.74844 0.71320
 C2969 C 0.66236 0.74657 0.72316
 C2970 C 0.64581 0.74694 0.71493
 H2971 H 0.55298 0.75795 0.69349
 H2972 H 0.58149 0.75766 0.70921
 H2973 H 0.60791 0.74195 0.66116
 H2974 H 0.57967 0.74208 0.64554
 H2975 H 0.65914 0.75213 0.67247
 H2976 H 0.68819 0.75188 0.68679
 H2977 H 0.66302 0.74497 0.73732
 H2978 H 0.63405 0.74551 0.72286
 C2979 C 0.08060 0.26109 0.14824
 C2980 C 0.09756 0.26088 0.15552
 C2981 C 0.10048 0.25414 0.17238
 C2982 C 0.08616 0.24753 0.18198
 C2983 C 0.06915 0.24773 0.17471
 C2984 C 0.06618 0.25456 0.15777
 N2985 N 0.11807 0.25417 0.17938
 N2986 N 0.12173 0.24808 0.19455
 C2987 C 0.13932 0.24813 0.20155
 C2988 C 0.14234 0.24101 0.21823
 C2989 C 0.15930 0.24082 0.22549
 C2990 C 0.17365 0.24779 0.21615
 C2991 C 0.17057 0.25496 0.19935
 C2992 C 0.15355 0.25513 0.19210
 H2993 H 0.07883 0.26614 0.13504
 H2994 H 0.10850 0.26593 0.14796
 H2995 H 0.08809 0.24227 0.19508
 H2996 H 0.05830 0.24275 0.18243
 H2997 H 0.13148 0.23559 0.22563
 H2998 H 0.16115 0.23519 0.23845
 H2999 H 0.18128 0.26043 0.19178
 H3000 H 0.15154 0.26071 0.17915
 C3001 C -0.06592 0.98731 0.82022
 C3002 C -0.05708 0.98739 0.83643
 C3003 C -0.06565 0.99324 0.85173
 C3004 C -0.08328 0.99904 0.85069
 C3005 C -0.09220 0.99893 0.83456
 C3006 C -0.08375 0.99304 0.81892
 N3007 N -0.05625 0.99313 0.86814
 N3008 N -0.06332 0.99868 0.88239
 C3009 C -0.05414 0.99859 0.89891
 C3010 C -0.06273 1.00535 0.91387
 C3011 C -0.05422 1.00546 0.93023
 C3012 C -0.03689 0.99872 0.93192
 C3013 C -0.02830 0.99191 0.91682
 C3014 C -0.03683 0.99186 0.90046
 H3015 H -0.05880 0.98205 0.80895
 H3016 H -0.04350 0.98275 0.83709
 H3017 H -0.09018 1.00378 0.86233
 H3018 H -0.10554 1.00419 0.83447
 H3019 H -0.07608 1.01057 0.91283
 H3020 H -0.06126 1.01078 0.94155
 H3021 H -0.01496 0.98661 0.91762
 H3022 H -0.02993 0.98653 0.88906
 C3023 C 0.43136 0.48069 0.32981
 C3024 C 0.44023 0.48008 0.34599
 C3025 C 0.43325 0.48885 0.36079
 C3026 C 0.41729 0.49840 0.35921
 C3027 C 0.40844 0.49905 0.34307
 C3028 C 0.41532 0.49014 0.32819
 N3029 N 0.44256 0.48795 0.37722
 N3030 N 0.43640 0.49515 0.39119
 C3031 C 0.44552 0.49460 0.40772
 C3032 C 0.43770 0.50278 0.42240
 C3033 C 0.44633 0.50287 0.43868
 C3034 C 0.46306 0.49476 0.44055
 C3035 C 0.47081 0.48637 0.42577
 C3036 C 0.46212 0.48628 0.40949
 H3037 H 0.43690 0.47353 0.31864
 H3038 H 0.45252 0.47267 0.34704
 H3039 H 0.41166 0.50540 0.37043
 H3040 H 0.39629 0.50670 0.34219
 H3041 H 0.42489 0.50921 0.42118
 H3042 H 0.43995 0.50944 0.44975
 H3043 H 0.48364 0.47994 0.42674
 H3044 H 0.46841 0.47984 0.39830
 C3045 C 0.59364 0.02314 0.32512
 C3046 C 0.58718 0.02291 0.34233
 C3047 C 0.57175 0.01387 0.34628
 C3048 C 0.56281 0.00482 0.33277
 C3049 C 0.56944 0.00468 0.31555
 C3050 C 0.58497 0.01391 0.31133
 N3051 N 0.56572 0.01379 0.36415
 N3052 N 0.55020 0.00910 0.36830
 C3053 C 0.54451 0.00872 0.38629
 C3054 C 0.52643 0.00802 0.38993
 C3055 C 0.52047 0.00781 0.40735
 C3056 C 0.53257 0.00788 0.42145
 C3057 C 0.55075 0.00832 0.41776
 C3058 C 0.55668 0.00891 0.40033
 H3059 H 0.60597 0.02987 0.32298
 H3060 H 0.59428 0.02978 0.35269
 H3061 H 0.55082 -0.00229 0.33555
 H3062 H 0.56194 -0.00222 0.30553
 H3063 H 0.51694 0.00780 0.37923
 H3064 H 0.50639 0.00733 0.40980
 H3065 H 0.56036 0.00842 0.42836
 H3066 H 0.57074 0.00933 0.39781
 C3067 C 0.09030 0.48821 0.84044
 C3068 C 0.08248 0.48817 0.85710
 C3069 C 0.06869 0.49997 0.86116
 C3070 C 0.06257 0.51177 0.84823
 C3071 C 0.07040 0.51185 0.83154
 C3072 C 0.08446 0.50016 0.82751
 N3073 N 0.06135 0.49984 0.87854
 N3074 N 0.04855 0.50991 0.88314
 C3075 C 0.04148 0.50974 0.90065
 C3076 C 0.02654 0.52012 0.90454
 C3077 C 0.01917 0.52003 0.92142
 C3078 C 0.02675 0.50958 0.93479
 C3079 C 0.04192 0.49935 0.93088
 C3080 C 0.04919 0.49938 0.91397
 H3081 H 0.10091 0.47886 0.83767
 H3082 H 0.08725 0.47896 0.86693
 H3083 H 0.05193 0.52105 0.85108
 H3084 H 0.06574 0.52135 0.82195
 H3085 H 0.02051 0.52820 0.89440
 H3086 H 0.00754 0.52813 0.92399
 H3087 H 0.04808 0.49114 0.94084
 H3088 H 0.06080 0.49130 0.91131
 C3089 C 0.06055 0.49280 0.68841
 C3090 C 0.05190 0.49081 0.67220
 C3091 C 0.06007 0.49602 0.65658
 C3092 C 0.07700 0.50343 0.65735
 C3093 C 0.08562 0.50548 0.67352
 C3094 C 0.07753 0.50014 0.68923
 N3095 N 0.05101 0.49368 0.64013
 N3096 N 0.05825 0.49759 0.62557
 C3097 C 0.04958 0.49562 0.60890
 C3098 C 0.05863 0.50047 0.59369
 C3099 C 0.05051 0.49929 0.57720
 C3100 C 0.03308 0.49319 0.57560
 C3101 C 0.02408 0.48805 0.59092
 C3102 C 0.03226 0.48926 0.60745
 H3103 H 0.05393 0.48870 0.70031
 H3104 H 0.03883 0.48514 0.67180
 H3105 H 0.08362 0.50756 0.64548
 H3106 H 0.09879 0.51091 0.67367
 H3107 H 0.07199 0.50536 0.59466
 H3108 H 0.05787 0.50335 0.56573
 H3109 H 0.01066 0.48330 0.59017
 H3110 H 0.02502 0.48540 0.61906
 C3111 C 0.59296 1.01305 0.15532
 C3112 C 0.58506 1.01190 0.13871
 C3113 C 0.56898 1.00325 0.13650
 C3114 C 0.56062 0.99597 0.15125
 C3115 C 0.56851 0.99715 0.16794
 C3116 C 0.58487 1.00554 0.17011
 N3117 N 0.56168 1.00190 0.11911
 N3118 N 0.54730 0.99398 0.11573
 C3119 C 0.54048 0.99278 0.09811
 C3120 C 0.52431 0.98446 0.09513
 C3121 C 0.51726 0.98330 0.07808
 C3122 C 0.52634 0.99044 0.06366
 C3123 C 0.54269 0.99861 0.06672
 C3124 C 0.54967 0.99979 0.08374
 H3125 H 0.60542 1.01983 0.15660
 H3126 H 0.59157 1.01764 0.12747
 H3127 H 0.54815 0.98923 0.14985
 H3128 H 0.56204 0.99113 0.17905
 H3129 H 0.51710 0.97897 0.10607
 H3130 H 0.50465 0.97691 0.07624
 H3131 H 0.55007 1.00426 0.05597
 H3132 H 0.56223 1.00624 0.08566
 C3133 C 0.43309 0.50366 0.18859
 C3134 C 0.44138 0.50520 0.17220
 C3135 C 0.43252 0.50036 0.15670
 C3136 C 0.41521 0.49395 0.15776
 C3137 C 0.40694 0.49239 0.17408
 C3138 C 0.41579 0.49718 0.18970
 N3139 N 0.44134 0.50189 0.14009
 N3140 N 0.43377 0.49762 0.12570
 C3141 C 0.44223 0.49874 0.10891
 C3142 C 0.43299 0.49316 0.09393
 C3143 C 0.44093 0.49347 0.07735
 C3144 C 0.45835 0.49945 0.07543
 C3145 C 0.46752 0.50535 0.09050
 C3146 C 0.45954 0.50497 0.10712
 H3147 H 0.44029 0.50733 0.20039
 H3148 H 0.45474 0.51012 0.17157
 H3149 H 0.40804 0.49016 0.14597
 H3150 H 0.39350 0.48766 0.17446
 H3151 H 0.41963 0.48836 0.09516
 H3152 H 0.43343 0.48889 0.06606
 H3153 H 0.48095 0.51002 0.08951
 H3154 H 0.46694 0.50939 0.11854
 C3155 C -0.06710 0.00860 0.67992
 C3156 C -0.05830 0.00973 0.66377
 C3157 C -0.06500 0.00139 0.64872
 C3158 C -0.08065 -0.00827 0.64999
 C3159 C -0.08944 -0.00954 0.66610
 C3160 C -0.08291 -0.00110 0.68146
 N3161 N -0.05568 0.00277 0.63237
 N3162 N -0.06175 -0.00384 0.61813
 C3163 C -0.05263 -0.00292 0.60165
 C3164 C -0.06056 -0.01026 0.58666
 C3165 C -0.05191 -0.01013 0.57042
 C3166 C -0.03504 -0.00267 0.56887
 C3167 C -0.02718 0.00491 0.58394
 C3168 C -0.03589 0.00479 0.60020
 H3169 H -0.06099 0.01485 0.69122
 H3170 H -0.04614 0.01709 0.66301
 H3171 H -0.08618 -0.01479 0.63851
 H3172 H -0.10177 -0.01659 0.66611
 H3173 H -0.07345 -0.01622 0.58761
 H3174 H -0.05841 -0.01606 0.55913
 H3175 H -0.01422 0.01078 0.58323
 H3176 H -0.02950 0.01055 0.61164
 C3177 C -0.16422 0.90218 0.99354
 C3178 C -0.14732 0.90936 0.99367
 C3179 C -0.14493 0.92727 0.99764
 C3180 C -0.15970 0.93798 1.00182
 C3181 C -0.17664 0.93073 1.00194
 C3182 C -0.17905 0.91279 0.99763
 N3183 N -0.12740 0.93415 0.99736
 N3184 N -0.12425 0.95063 0.99835
 C3185 C -0.10656 0.95717 0.99816
 C3186 C -0.10389 0.97539 0.99673
 C3187 C -0.08678 0.98214 0.99639
 C3188 C -0.07200 0.97074 0.99770
 C3189 C -0.07474 0.95245 0.99924
 C3190 C -0.09185 0.94571 0.99938
 H3191 H -0.16569 0.88826 0.99040
 H3192 H -0.13603 0.90097 0.99053
 H3193 H -0.15814 0.95186 1.00503
 H3194 H -0.18788 0.93917 1.00510
 H3195 H -0.11511 0.98436 0.99581
 H3196 H -0.08513 0.99631 0.99528
 H3197 H -0.06366 0.94331 1.00023
 H3198 H -0.09356 0.93156 1.00054
 C3199 C 0.33717 0.39918 0.49753
 C3200 C 0.35415 0.40618 0.49815
 C3201 C 0.35662 0.42407 0.50219
 C3202 C 0.34185 0.43491 0.50601
 C3203 C 0.32483 0.42785 0.50566
 C3204 C 0.32234 0.40996 0.50123
 N3205 N 0.37421 0.43083 0.50230
 N3206 N 0.37735 0.44732 0.50321
 C3207 C 0.39500 0.45396 0.50342
 C3208 C 0.39753 0.47218 0.50189
 C3209 C 0.41456 0.47911 0.50201
 C3210 C 0.42941 0.46790 0.50391
 C3211 C 0.42683 0.44958 0.50552
 C3212 C 0.40977 0.44265 0.50518
 H3213 H 0.33561 0.38529 0.49430
 H3214 H 0.36542 0.39768 0.49527
 H3215 H 0.34345 0.44878 0.50927
 H3216 H 0.31360 0.43641 0.50851
 H3217 H 0.38625 0.48103 0.50054
 H3218 H 0.41607 0.49329 0.50085
 H3219 H 0.43798 0.44060 0.50697
 H3220 H 0.40815 0.42851 0.50643
 C3221 C 0.32966 0.59513 -0.00513
 C3222 C 0.34653 0.58760 -0.00394
 C3223 C 0.34889 0.57054 0.00266
 C3224 C 0.33410 0.56103 0.00828
 C3225 C 0.31714 0.56858 0.00711
 C3226 C 0.31475 0.58567 0.00024
 N3227 N 0.36642 0.56325 0.00327
 N3228 N 0.36987 0.54783 0.00904
 C3229 C 0.38757 0.54086 0.00924
 C3230 C 0.39067 0.52387 0.01578
 C3231 C 0.40776 0.51662 0.01586
 C3232 C 0.42209 0.52629 0.00933
 C3233 C 0.41891 0.54342 0.00286
 C3234 C 0.40183 0.55064 0.00281
 H3235 H 0.32832 0.60845 -0.01013
 H3236 H 0.35783 0.59508 -0.00822
 H3237 H 0.33563 0.54779 0.01343
 H3238 H 0.30590 0.56096 0.01128
 H3239 H 0.37980 0.51620 0.02076
 H3240 H 0.40970 0.50340 0.02096
 H3241 H 0.42960 0.55126 -0.00224
 H3242 H 0.39979 0.56382 -0.00233
 C3243 C -0.16155 0.09175 0.48636
 C3244 C -0.14499 0.08345 0.48637
 C3245 C -0.14141 0.06942 0.49774
 C3246 C -0.15476 0.06352 0.50905
 C3247 C -0.17139 0.07187 0.50910
 C3248 C -0.17490 0.08623 0.49789
 N3249 N -0.12403 0.06171 0.49769
 N3250 N -0.11971 0.04852 0.50714
 C3251 C -0.10212 0.04127 0.50690
 C3252 C -0.09848 0.02566 0.51606
 C3253 C -0.08152 0.01810 0.51575
 C3254 C -0.06781 0.02617 0.50635
 C3255 C -0.07146 0.04204 0.49742
 C3256 C -0.08845 0.04948 0.49763
 H3257 H -0.16391 0.10253 0.47731
 H3258 H -0.13483 0.08804 0.47753
 H3259 H -0.15228 0.05268 0.51798
 H3260 H -0.18134 0.06740 0.51821
 H3261 H -0.10888 0.01924 0.52331
 H3262 H -0.07916 0.00593 0.52285
 H3263 H -0.06125 0.04859 0.49003
 H3264 H -0.09088 0.06162 0.49051
 C3265 C 0.66928 0.10040 0.48926
 C3266 C 0.65226 0.09354 0.48849
 C3267 C 0.64958 0.07537 0.49021
 C3268 C 0.66419 0.06405 0.49306
 C3269 C 0.68126 0.07096 0.49412
 C3270 C 0.68395 0.08918 0.49205
 N3271 N 0.63191 0.06888 0.48917
 N3272 N 0.62848 0.05248 0.48777
 C3273 C 0.61067 0.04627 0.48706
 C3274 C 0.60766 0.02844 0.48309
 C3275 C 0.59045 0.02191 0.48262
 C3276 C 0.57592 0.03312 0.48638
 C3277 C 0.57899 0.05106 0.49027
 C3278 C 0.59619 0.05760 0.49051
 H3279 H 0.67099 0.11453 0.48785
 H3280 H 0.64111 0.10239 0.48640
 H3281 H 0.66240 0.04995 0.49455
 H3282 H 0.69237 0.06207 0.49626
 H3283 H 0.61869 0.01957 0.48041
 H3284 H 0.58857 0.00801 0.47970
 H3285 H 0.56811 0.06004 0.49319
 H3286 H 0.59817 0.07144 0.49365
 C3287 C 0.15800 0.60264 1.00342
 C3288 C 0.14112 0.59545 1.00371
 C3289 C 0.13840 0.57800 0.99837
 C3290 C 0.15288 0.56756 0.99292
 C3291 C 0.16988 0.57466 0.99271
 C3292 C 0.17280 0.59247 0.99778
 N3293 N 0.12080 0.57129 0.99875
 N3294 N 0.11695 0.55578 0.99344
 C3295 C 0.09921 0.54941 0.99412
 C3296 C 0.09569 0.53227 0.98806
 C3297 C 0.07859 0.52555 0.98896
 C3298 C 0.06466 0.53590 0.99602
 C3299 C 0.06823 0.55322 1.00188
 C3300 C 0.08532 0.55991 1.00094
 H3301 H 0.15934 0.61604 1.00832
 H3302 H 0.13007 0.60355 1.00818
 H3303 H 0.15106 0.55398 0.98870
 H3304 H 0.18049 0.56628 0.98781
 H3305 H 0.10626 0.52406 0.98275
 H3306 H 0.07634 0.51216 0.98432
 H3307 H 0.05785 0.56158 1.00737
 H3308 H 0.08768 0.57323 1.00569
 C3309 C 0.17963 0.43362 0.50139
 C3310 C 0.16332 0.44248 0.50256
 C3311 C 0.14806 0.43330 0.50708
 C3312 C 0.14934 0.41518 0.51089
 C3313 C 0.16563 0.40636 0.50992
 C3314 C 0.18096 0.41539 0.50493
 N3315 N 0.13141 0.44254 0.50751
 N3316 N 0.11689 0.43434 0.50887
 C3317 C 0.10011 0.44328 0.50933
 C3318 C 0.08474 0.43325 0.50818
 C3319 C 0.06813 0.44152 0.50824
 C3320 C 0.06661 0.46004 0.50970
 C3321 C 0.08210 0.47009 0.51112
 C3322 C 0.09872 0.46179 0.51083
 H3323 H 0.19110 0.44096 0.49733
 H3324 H 0.16251 0.45645 0.49959
 H3325 H 0.13777 0.40783 0.51463
 H3326 H 0.16620 0.39244 0.51317
 H3327 H 0.08566 0.41896 0.50706
 H3328 H 0.05647 0.43339 0.50722
 H3329 H 0.08139 0.48438 0.51222
 H3330 H 0.11043 0.46982 0.51181
 C3331 C 0.67884 0.93464 -0.00183
 C3332 C 0.66247 0.94347 -0.00157
 C3333 C 0.64715 0.93453 0.00319
 C3334 C 0.64844 0.91675 0.00830
 C3335 C 0.66477 0.90797 0.00827
 C3336 C 0.68015 0.91669 0.00290
 N3337 N 0.63041 0.94356 0.00237
 N3338 N 0.61597 0.93516 0.00331
 C3339 C 0.59902 0.94372 0.00246
 C3340 C 0.58401 0.93326 0.00055
 C3341 C 0.56726 0.94109 -0.00072
 C3342 C 0.56521 0.95959 0.00019
 C3343 C 0.58029 0.97009 0.00242
 C3344 C 0.59710 0.96223 0.00342
 H3345 H 0.69034 0.94173 -0.00620
 H3346 H 0.66166 0.95719 -0.00553
 H3347 H 0.63681 0.90960 0.01228
 H3348 H 0.66532 0.89432 0.01244
 H3349 H 0.58534 0.91898 -0.00014
 H3350 H 0.55590 0.93263 -0.00228
 H3351 H 0.57912 0.98438 0.00313
 H3352 H 0.60853 0.97057 0.00498
 C3353 C -0.01599 0.81926 0.93320
 C3354 C -0.01735 0.83529 0.94255
 C3355 C -0.01002 0.85069 0.93580
 C3356 C -0.00096 0.84982 0.91970
 C3357 C 0.00048 0.83390 0.91037
 C3358 C -0.00719 0.81825 0.91674
 N3359 N -0.01182 0.86707 0.94537
 N3360 N -0.00648 0.88147 0.93879
 C3361 C -0.00763 0.89821 0.94769
 C3362 C -0.00153 0.91311 0.93895
 C3363 C -0.00173 0.92964 0.94726
 C3364 C -0.00805 0.93159 0.96461
 C3365 C -0.01449 0.91660 0.97331
 C3366 C -0.01428 0.90000 0.96491
 H3367 H -0.02258 0.80796 0.93868
 H3368 H -0.02439 0.83578 0.95496
 H3369 H 0.00515 0.86147 0.91432
 H3370 H 0.00824 0.83399 0.89844
 H3371 H 0.00360 0.91185 0.92567
 H3372 H 0.00329 0.94085 0.94012
 H3373 H -0.01944 0.91763 0.98666
 H3374 H -0.01907 0.88861 0.97190
 C3375 C 0.49707 0.32034 0.43644
 C3376 C 0.49604 0.33585 0.44665
 C3377 C 0.48971 0.35163 0.43931
 C3378 C 0.48396 0.35163 0.42169
 C3379 C 0.48480 0.33613 0.41154
 C3380 C 0.49159 0.32032 0.41869
 N3381 N 0.48972 0.36754 0.44976
 N3382 N 0.48666 0.38259 0.44293
 C3383 C 0.48691 0.39877 0.45290
 C3384 C 0.48668 0.41478 0.44381
 C3385 C 0.48795 0.43084 0.45294
 C3386 C 0.48918 0.43118 0.47144
 C3387 C 0.48879 0.41511 0.48062
 C3388 C 0.48782 0.39899 0.47142
 H3389 H 0.50254 0.30849 0.44234
 H3390 H 0.50056 0.33567 0.46020
 H3391 H 0.47884 0.36361 0.41575
 H3392 H 0.48007 0.33653 0.39807
 H3393 H 0.48591 0.41477 0.42955
 H3394 H 0.48806 0.44301 0.44551
 H3395 H 0.48976 0.41498 0.49487
 H3396 H 0.48792 0.38676 0.47872
 C3397 C -0.00423 0.31387 0.56865
 C3398 C -0.00469 0.33011 0.55988
 C3399 C 0.00057 0.34563 0.56847
 C3400 C 0.00647 0.34475 0.58597
 C3401 C 0.00723 0.32856 0.59468
 C3402 C 0.00191 0.31272 0.58623
 N3403 N -0.00008 0.36210 0.55921
 N3404 N 0.00201 0.37683 0.56719
 C3405 C 0.00179 0.39346 0.55827
 C3406 C 0.00110 0.40907 0.56832
 C3407 C 0.00084 0.42556 0.56012
 C3408 C 0.00157 0.42672 0.54165
 C3409 C 0.00250 0.41100 0.53156
 C3410 C 0.00248 0.39449 0.53979
 H3411 H -0.00801 0.30221 0.56126
 H3412 H -0.00918 0.33058 0.54632
 H3413 H 0.01054 0.35658 0.59296
 H3414 H 0.01133 0.32880 0.60834
 H3415 H 0.00065 0.40844 0.58257
 H3416 H 0.00023 0.43741 0.56827
 H3417 H 0.00302 0.41146 0.51731
 H3418 H 0.00313 0.38259 0.53176
 C3419 C 0.48258 0.82495 0.08556
 C3420 C 0.48090 0.84144 0.07747
 C3421 C 0.49442 0.84776 0.06675
 C3422 C 0.50962 0.83723 0.06398
 C3423 C 0.51138 0.82083 0.07217
 C3424 C 0.49795 0.81459 0.08318
 N3425 N 0.49266 0.86502 0.05925
 N3426 N 0.50392 0.87091 0.04841
 C3427 C 0.50262 0.88830 0.04116
 C3428 C 0.51408 0.89286 0.02755
 C3429 C 0.51321 0.90969 0.02014
 C3430 C 0.50097 0.92240 0.02642
 C3431 C 0.48961 0.91787 0.04028
 C3432 C 0.49035 0.90092 0.04753
 H3433 H 0.47211 0.82054 0.09412
 H3434 H 0.46913 0.84944 0.07973
 H3435 H 0.52027 0.84181 0.05574
 H3436 H 0.52330 0.81304 0.07000
 H3437 H 0.52365 0.88327 0.02261
 H3438 H 0.52222 0.91279 0.00956
 H3439 H 0.48001 0.92735 0.04536
 H3440 H 0.48143 0.89772 0.05814
 C3441 C 0.51823 0.66210 0.09345
 C3442 C 0.51683 0.64508 0.08629
 C3443 C 0.50314 0.64100 0.07461
 C3444 C 0.49092 0.65428 0.06986
 C3445 C 0.49226 0.67133 0.07707
 C3446 C 0.50582 0.67537 0.08911
 N3447 N 0.50181 0.62321 0.06814
 N3448 N 0.49026 0.61849 0.05687
 C3449 C 0.48916 0.60050 0.05086
 C3450 C 0.47808 0.59638 0.03665
 C3451 C 0.47727 0.57903 0.03011
 C3452 C 0.48741 0.56544 0.03788
 C3453 C 0.49816 0.56956 0.05246
 C3454 C 0.49909 0.58692 0.05884
 H3455 H 0.52901 0.66485 0.10243
 H3456 H 0.52638 0.63498 0.08996
 H3457 H 0.48019 0.65141 0.06085
 H3458 H 0.48238 0.68120 0.07362
 H3459 H 0.47030 0.60671 0.03043
 H3460 H 0.46881 0.57629 0.01891
 H3461 H 0.50618 0.55946 0.05873
 H3462 H 0.50766 0.58974 0.06994
 C3463 C 0.01805 0.15798 0.59694
 C3464 C 0.01732 0.14091 0.58977
 C3465 C 0.00611 0.13719 0.57557
 C3466 C -0.00418 0.15093 0.56831
 C3467 C -0.00346 0.16806 0.57547
 C3468 C 0.00751 0.17173 0.59001
 N3469 N 0.00533 0.11937 0.56899
 N3470 N -0.00460 0.11488 0.55619
 C3471 C -0.00524 0.09699 0.54976
 C3472 C -0.01518 0.09324 0.53464
 C3473 C -0.01545 0.07608 0.52756
 C3474 C -0.00583 0.06227 0.53560
 C3475 C 0.00373 0.06599 0.55111
 C3476 C 0.00407 0.08319 0.55809
 H3477 H 0.02682 0.16043 0.60796
 H3478 H 0.02540 0.13047 0.59541
 H3479 H -0.01294 0.14839 0.55730
 H3480 H -0.01186 0.17831 0.56995
 H3481 H -0.02248 0.10373 0.52813
 H3482 H -0.02300 0.07370 0.51565
 H3483 H 0.01132 0.05571 0.55762
 H3484 H 0.01178 0.08572 0.56986
 C3485 C 0.50501 0.16638 0.39466
 C3486 C 0.50610 0.14941 0.40172
 C3487 C 0.50411 0.14687 0.41984
 C3488 C 0.50070 0.16156 0.43090
 C3489 C 0.49933 0.17856 0.42381
 C3490 C 0.50162 0.18112 0.40563
 N3491 N 0.50541 0.12927 0.42657
 N3492 N 0.50645 0.12609 0.44299
 C3493 C 0.50739 0.10836 0.44950
 C3494 C 0.51105 0.10565 0.46737
 C3495 C 0.51181 0.08852 0.47415
 C3496 C 0.50864 0.07378 0.46317
 C3497 C 0.50499 0.07655 0.44521
 C3498 C 0.50447 0.09367 0.43841
 H3499 H 0.50663 0.16800 0.38059
 H3500 H 0.50863 0.13818 0.39307
 H3501 H 0.49900 0.15989 0.44495
 H3502 H 0.49676 0.18973 0.43252
 H3503 H 0.51331 0.11687 0.47605
 H3504 H 0.51454 0.08683 0.48806
 H3505 H 0.50254 0.06549 0.43639
 H3506 H 0.50156 0.09543 0.42456
 C3507 C 0.01157 0.66454 0.89972
 C3508 C 0.01217 0.64790 0.90757
 C3509 C 0.00533 0.64552 0.92443
 C3510 C -0.00244 0.65995 0.93337
 C3511 C -0.00344 0.67656 0.92543
 C3512 C 0.00368 0.67925 0.90848
 N3513 N 0.00609 0.62825 0.93200
 N3514 N 0.00360 0.62579 0.94837
 C3515 C 0.00376 0.60846 0.95581
 C3516 C 0.00460 0.60678 0.97414
 C3517 C 0.00431 0.59007 0.98184
 C3518 C 0.00278 0.57475 0.97130
 C3519 C 0.00198 0.57646 0.95288
 C3520 C 0.00261 0.59318 0.94518
 H3521 H 0.01662 0.66552 0.88644
 H3522 H 0.01801 0.63680 0.90046
 H3523 H -0.00788 0.65838 0.94645
 H3524 H -0.00920 0.68737 0.93299
 H3525 H 0.00544 0.61847 0.98246
 H3526 H 0.00481 0.58917 0.99608
 H3527 H 0.00086 0.56489 0.94443
 H3528 H 0.00186 0.59417 0.93097
 C3529 C 0.25600 0.65751 0.91249
 C3530 C 0.25665 0.66492 0.89574
 C3531 C 0.24872 0.68137 0.89254
 C3532 C 0.24037 0.69061 0.90646
 C3533 C 0.23976 0.68322 0.92330
 C3534 C 0.24738 0.66648 0.92641
 N3535 N 0.24914 0.68817 0.87500
 N3536 N 0.24171 0.70273 0.87081
 C3537 C 0.24214 0.70921 0.85314
 C3538 C 0.23404 0.72548 0.84943
 C3539 C 0.23435 0.73224 0.83236
 C3540 C 0.24279 0.72277 0.81861
 C3541 C 0.25078 0.70633 0.82237
 C3542 C 0.25048 0.69961 0.83947
 H3543 H 0.26223 0.64472 0.91457
 H3544 H 0.26321 0.65774 0.88515
 H3545 H 0.23417 0.70339 0.90428
 H3546 H 0.23296 0.69037 0.93376
 H3547 H 0.22754 0.73298 0.85984
 H3548 H 0.22804 0.74493 0.82997
 H3549 H 0.25740 0.69869 0.81214
 H3550 H 0.25680 0.68696 0.84199
 C3551 C 0.74858 0.15739 0.41337
 C3552 C 0.74633 0.16471 0.39670
 C3553 C 0.74573 0.18305 0.39463
 C3554 C 0.74728 0.19413 0.40954
 C3555 C 0.74964 0.18680 0.42629
 C3556 C 0.75047 0.16832 0.42836
 N3557 N 0.74404 0.18992 0.37718
 N3558 N 0.74217 0.20634 0.37404
 C3559 C 0.74112 0.21276 0.35634
 C3560 C 0.73794 0.23079 0.35354
 C3561 C 0.73762 0.23753 0.33643
 C3562 C 0.74065 0.22630 0.32180
 C3563 C 0.74356 0.20814 0.32467
 C3564 C 0.74374 0.20142 0.34175
 H3565 H 0.74871 0.14311 0.41451
 H3566 H 0.74508 0.15605 0.38531
 H3567 H 0.74692 0.20838 0.40822
 H3568 H 0.75115 0.19558 0.43755
 H3569 H 0.73591 0.23967 0.36467
 H3570 H 0.73540 0.25159 0.33471
 H3571 H 0.74588 0.19911 0.31372
 H3572 H 0.74624 0.18741 0.34355
 C3573 C 0.25727 0.34612 0.41197
 C3574 C 0.25824 0.33875 0.39505
 C3575 C 0.25499 0.32078 0.39229
 C3576 C 0.25076 0.31012 0.40673
 C3577 C 0.24957 0.31752 0.42368
 C3578 C 0.25271 0.33565 0.42650
 N3579 N 0.25555 0.31388 0.37466
 N3580 N 0.25489 0.29738 0.37123
 C3581 C 0.25483 0.29075 0.35348
 C3582 C 0.25642 0.27251 0.35051
 C3583 C 0.25578 0.26559 0.33337
 C3584 C 0.25327 0.27685 0.31888
 C3585 C 0.25183 0.29520 0.32190
 C3586 C 0.25269 0.30211 0.33903
 H3587 H 0.26019 0.36002 0.41366
 H3588 H 0.26157 0.34708 0.38403
 H3589 H 0.24806 0.29619 0.40487
 H3590 H 0.24584 0.30912 0.43450
 H3591 H 0.25804 0.26363 0.36153
 H3592 H 0.25686 0.25139 0.33151
 H3593 H 0.24996 0.30423 0.31103
 H3594 H 0.25138 0.31627 0.34100
 C3595 C 0.75582 0.84695 0.91143
 C3596 C 0.75701 0.83960 0.89452
 C3597 C 0.75482 0.82144 0.89185
 C3598 C 0.75147 0.81058 0.90639
 C3599 C 0.75011 0.81796 0.92335
 C3600 C 0.75215 0.83628 0.92606
 N3601 N 0.75559 0.81454 0.87422
 N3602 N 0.75565 0.79802 0.87077
 C3603 C 0.75586 0.79142 0.85299
 C3604 C 0.75798 0.77322 0.85000
 C3605 C 0.75765 0.76631 0.83284
 C3606 C 0.75494 0.77751 0.81834
 C3607 C 0.75297 0.79582 0.82139
 C3608 C 0.75350 0.80273 0.83854
 H3609 H 0.75790 0.86103 0.91304
 H3610 H 0.75966 0.84808 0.88343
 H3611 H 0.74963 0.79649 0.90461
 H3612 H 0.74709 0.80938 0.93426
 H3613 H 0.75977 0.76437 0.86102
 H3614 H 0.75914 0.75214 0.83098
 H3615 H 0.75093 0.80482 0.81052
 H3616 H 0.75178 0.81685 0.84051
 C3617 C 0.74264 0.81448 0.06898
 C3618 C 0.74170 0.80683 0.08568
 C3619 C 0.74844 0.81567 0.10050
 C3620 C 0.75631 0.83226 0.09839
 C3621 C 0.75733 0.83987 0.08172
 C3622 C 0.75048 0.83110 0.06682
 N3623 N 0.74721 0.80758 0.11747
 N3624 N 0.75248 0.81542 0.13142
 C3625 C 0.75164 0.80755 0.14851
 C3626 C 0.75786 0.81714 0.16306
 C3627 C 0.75789 0.80971 0.17985
 C3628 C 0.75167 0.79244 0.18241
 C3629 C 0.74512 0.78294 0.16778
 C3630 C 0.74512 0.79042 0.15097
 H3631 H 0.73737 0.80734 0.05773
 H3632 H 0.73565 0.79401 0.08711
 H3633 H 0.76162 0.83939 0.10962
 H3634 H 0.76319 0.85281 0.08055
 H3635 H 0.76289 0.83036 0.16133
 H3636 H 0.76299 0.81744 0.19078
 H3637 H 0.74024 0.76963 0.16925
 H3638 H 0.74021 0.78276 0.13991
 C3639 C 0.24004 0.31103 0.56765
 C3640 C 0.23824 0.30305 0.58413
 C3641 C 0.24383 0.31178 0.59948
 C3642 C 0.25143 0.32860 0.59816
 C3643 C 0.25335 0.33651 0.58174
 C3644 C 0.24766 0.32785 0.56630
 N3645 N 0.24189 0.30335 0.61621
 N3646 N 0.24581 0.31133 0.63052
 C3647 C 0.24454 0.30329 0.64748
 C3648 C 0.24934 0.31321 0.66234
 C3649 C 0.24936 0.30561 0.67903
 C3650 C 0.24456 0.28782 0.68119
 C3651 C 0.23924 0.27801 0.66627
 C3652 C 0.23925 0.28567 0.64953
 H3653 H 0.23564 0.30400 0.55597
 H3654 H 0.23242 0.29006 0.58495
 H3655 H 0.25589 0.33565 0.60980
 H3656 H 0.25900 0.34960 0.58115
 H3657 H 0.25341 0.32681 0.66091
 H3658 H 0.25347 0.31361 0.69020
 H3659 H 0.23546 0.26429 0.66744
 H3660 H 0.23545 0.27775 0.63820
 C3661 C 0.74388 0.15695 0.58393
 C3662 C 0.74434 0.16363 0.60115
 C3663 C 0.75192 0.18005 0.60479
 C3664 C 0.75895 0.18990 0.59089
 C3665 C 0.75847 0.18325 0.57360
 C3666 C 0.75098 0.16665 0.56993
 N3667 N 0.75229 0.18629 0.62267
 N3668 N 0.75940 0.20082 0.62722
 C3669 C 0.75947 0.20684 0.64521
 C3670 C 0.76714 0.22310 0.64941
 C3671 C 0.76690 0.22957 0.66675
 C3672 C 0.75895 0.21981 0.68026
 C3673 C 0.75154 0.20331 0.67601
 C3674 C 0.75178 0.19689 0.65868
 H3675 H 0.73831 0.14400 0.58165
 H3676 H 0.73892 0.15590 0.61176
 H3677 H 0.76480 0.20269 0.59337
 H3678 H 0.76386 0.19114 0.56311
 H3679 H 0.77315 0.23088 0.63916
 H3680 H 0.77275 0.24231 0.66953
 H3681 H 0.74532 0.19542 0.68604
 H3682 H 0.74581 0.18424 0.65580
 C3683 C 0.24931 0.65476 0.08323
 C3684 C 0.25154 0.66131 0.10033
 C3685 C 0.25877 0.67801 0.10322
 C3686 C 0.26410 0.68809 0.08872
 C3687 C 0.26191 0.68152 0.07152
 C3688 C 0.25427 0.66485 0.06861
 N3689 N 0.25998 0.68446 0.12098
 N3690 N 0.26619 0.69954 0.12505
 C3691 C 0.26655 0.70564 0.14301
 C3692 C 0.27315 0.72246 0.14690
 C3693 C 0.27269 0.72912 0.16418
 C3694 C 0.26554 0.71903 0.17789
 C3695 C 0.25930 0.70197 0.17396
 C3696 C 0.25980 0.69535 0.15672
 H3697 H 0.24373 0.64173 0.08145
 H3698 H 0.24745 0.65340 0.11140
 H3699 H 0.26972 0.70107 0.09067
 H3700 H 0.26580 0.68960 0.06051
 H3701 H 0.27839 0.73053 0.13646
 H3702 H 0.27761 0.74230 0.16672
 H3703 H 0.25377 0.69379 0.18417
 H3704 H 0.25464 0.68228 0.15410
 C3705 C 0.14827 0.59157 0.75730
 C3706 C 0.15528 0.60857 0.75657
 C3707 C 0.17333 0.61090 0.75362
 C3708 C 0.18434 0.59596 0.75109
 C3709 C 0.17729 0.57894 0.75156
 C3710 C 0.15921 0.57659 0.75483
 N3711 N 0.18010 0.62852 0.75331
 N3712 N 0.19659 0.63158 0.75335
 C3713 C 0.20337 0.64919 0.75294
 C3714 C 0.22142 0.65170 0.75578
 C3715 C 0.22847 0.66870 0.75564
 C3716 C 0.21757 0.68353 0.75237
 C3717 C 0.19943 0.68096 0.74935
 C3718 C 0.19236 0.66395 0.74974
 H3719 H 0.13425 0.59012 0.75963
 H3720 H 0.14666 0.61997 0.75847
 H3721 H 0.19834 0.59745 0.74870
 H3722 H 0.18599 0.56760 0.74968
 H3723 H 0.23003 0.64044 0.75823
 H3724 H 0.24251 0.67021 0.75790
 H3725 H 0.19069 0.69211 0.74685
 H3726 H 0.17835 0.66232 0.74744
 C3727 C 0.68444 0.07633 0.25482
 C3728 C 0.69252 0.09272 0.25731
 C3729 C 0.68524 0.10802 0.24992
 C3730 C 0.66989 0.10672 0.23963
 C3731 C 0.66183 0.09038 0.23699
 C3732 C 0.66880 0.07479 0.24468
 N3733 N 0.69361 0.12468 0.25304
 N3734 N 0.68687 0.13915 0.24758
 C3735 C 0.69510 0.15592 0.25037
 C3736 C 0.68681 0.17111 0.24378
 C3737 C 0.69475 0.18762 0.24556
 C3738 C 0.71124 0.18924 0.25400
 C3739 C 0.71937 0.17396 0.26096
 C3740 C 0.71137 0.15743 0.25916
 H3741 H 0.69089 0.06488 0.26049
 H3742 H 0.70450 0.09351 0.26510
 H3743 H 0.66397 0.11839 0.23378
 H3744 H 0.64960 0.09037 0.22961
 H3745 H 0.67424 0.17011 0.23701
 H3746 H 0.68809 0.19907 0.24004
 H3747 H 0.73206 0.17469 0.26753
 H3748 H 0.71802 0.14586 0.26440
 C3749 C 0.84840 0.08339 0.75190
 C3750 C 0.84175 0.10065 0.75084
 C3751 C 0.82483 0.10390 0.74413
 C3752 C 0.81459 0.08959 0.73825
 C3753 C 0.82124 0.07225 0.73931
 C3754 C 0.83818 0.06896 0.74630
 N3755 N 0.81832 0.12176 0.74389
 N3756 N 0.80319 0.12600 0.73779
 C3757 C 0.79683 0.14395 0.73822
 C3758 C 0.78008 0.14786 0.73135
 C3759 C 0.77316 0.16508 0.73239
 C3760 C 0.78290 0.17874 0.74041
 C3761 C 0.79989 0.17482 0.74696
 C3762 C 0.80679 0.15760 0.74587
 H3763 H 0.86163 0.08136 0.75701
 H3764 H 0.84978 0.11157 0.75535
 H3765 H 0.80142 0.09179 0.73304
 H3766 H 0.81301 0.06141 0.73499
 H3767 H 0.77227 0.13746 0.72541
 H3768 H 0.76005 0.16761 0.72719
 H3769 H 0.80780 0.18498 0.75317
 H3770 H 0.81980 0.15494 0.75127
 C3771 C 0.34976 0.58194 0.25925
 C3772 C 0.34384 0.59939 0.25733
 C3773 C 0.32763 0.60304 0.24922
 C3774 C 0.31733 0.58896 0.24291
 C3775 C 0.32323 0.57145 0.24485
 C3776 C 0.33948 0.56775 0.25313
 N3777 N 0.32185 0.62109 0.24795
 N3778 N 0.30749 0.62559 0.24039
 C3779 C 0.30166 0.64368 0.23973
 C3780 C 0.28556 0.64773 0.23155
 C3781 C 0.27896 0.66508 0.23166
 C3782 C 0.28839 0.67876 0.24002
 C3783 C 0.30483 0.67472 0.24779
 C3784 C 0.31140 0.65735 0.24766
 H3785 H 0.36250 0.57959 0.26536
 H3786 H 0.35191 0.61012 0.26220
 H3787 H 0.30469 0.59147 0.23665
 H3788 H 0.31495 0.56082 0.24012
 H3789 H 0.27794 0.63732 0.22537
 H3790 H 0.26628 0.66769 0.22551
 H3791 H 0.31247 0.68489 0.25431
 H3792 H 0.32392 0.65457 0.25404
 C3793 C 0.31211 0.42595 0.26782
 C3794 C 0.30289 0.41001 0.26848
 C3795 C 0.30998 0.39459 0.26075
 C3796 C 0.32631 0.39538 0.25203
 C3797 C 0.33548 0.41126 0.25131
 C3798 C 0.32861 0.42670 0.25936
 N3799 N 0.30052 0.37832 0.26192
 N3800 N 0.30715 0.36385 0.25612
 C3801 C 0.29818 0.34730 0.25678
 C3802 C 0.30673 0.33223 0.25000
 C3803 C 0.29828 0.31593 0.24975
 C3804 C 0.28099 0.31437 0.25630
 C3805 C 0.27252 0.32950 0.26345
 C3806 C 0.28104 0.34586 0.26368
 H3807 H 0.30653 0.43756 0.27428
 H3808 H 0.29030 0.40960 0.27521
 H3809 H 0.33203 0.38371 0.24578
 H3810 H 0.34797 0.41145 0.24437
 H3811 H 0.31995 0.33319 0.24469
 H3812 H 0.30525 0.30459 0.24420
 H3813 H 0.25922 0.32879 0.26861
 H3814 H 0.27419 0.35736 0.26903
 C3815 C 0.81400 0.92726 0.76199
 C3816 C 0.80503 0.91125 0.76362
 C3817 C 0.81202 0.89564 0.75620
 C3818 C 0.82794 0.89630 0.74675
 C3819 C 0.83683 0.91226 0.74502
 C3820 C 0.83011 0.92792 0.75280
 N3821 N 0.80283 0.87931 0.75837
 N3822 N 0.80962 0.86464 0.75325
 C3823 C 0.80089 0.84802 0.75481
 C3824 C 0.80970 0.83274 0.74889
 C3825 C 0.80142 0.81635 0.74927
 C3826 C 0.78404 0.81491 0.75561
 C3827 C 0.77534 0.83026 0.76200
 C3828 C 0.78370 0.84670 0.76160
 H3829 H 0.80854 0.93902 0.76829
 H3830 H 0.79275 0.91095 0.77091
 H3831 H 0.83354 0.88449 0.74068
 H3832 H 0.84899 0.91234 0.73753
 H3833 H 0.82297 0.83360 0.74367
 H3834 H 0.80857 0.80486 0.74429
 H3835 H 0.76196 0.82964 0.76696
 H3836 H 0.77664 0.85836 0.76629
 C3837 C 0.65357 0.92123 0.25358
 C3838 C 0.66152 0.90448 0.25436
 C3839 C 0.67785 0.90124 0.24627
 C3840 C 0.68625 0.91504 0.23741
 C3841 C 0.67831 0.93183 0.23663
 C3842 C 0.66185 0.93510 0.24467
 N3843 N 0.68554 0.88387 0.24729
 N3844 N 0.70035 0.87993 0.24028
 C3845 C 0.70797 0.86253 0.24142
 C3846 C 0.72453 0.85925 0.23385
 C3847 C 0.73249 0.84250 0.23501
 C3848 C 0.72395 0.82869 0.24378
 C3849 C 0.70719 0.83200 0.25120
 C3850 C 0.69928 0.84876 0.25005
 H3851 H 0.64101 0.92339 0.26012
 H3852 H 0.65496 0.89397 0.26129
 H3853 H 0.69888 0.91285 0.23103
 H3854 H 0.68492 0.94217 0.22949
 H3855 H 0.73134 0.86974 0.22713
 H3856 H 0.74537 0.84043 0.22909
 H3857 H 0.70022 0.82169 0.25804
 H3858 H 0.68644 0.85096 0.25598
 C3859 C 0.18233 0.43401 0.73866
 C3860 C 0.19135 0.41784 0.73650
 C3861 C 0.18722 0.40338 0.74707
 C3862 C 0.17431 0.40543 0.76024
 C3863 C 0.16543 0.42158 0.76251
 C3864 C 0.16910 0.43600 0.75157
 N3865 N 0.19610 0.38674 0.74416
 N3866 N 0.19097 0.37274 0.75170
 C3867 C 0.19955 0.35589 0.74942
 C3868 C 0.19219 0.34116 0.75748
 C3869 C 0.20044 0.32459 0.75619
 C3870 C 0.21638 0.32243 0.74686
 C3871 C 0.22363 0.33724 0.73849
 C3872 C 0.21526 0.35384 0.73973
 H3873 H 0.18537 0.44477 0.72989
 H3874 H 0.20130 0.41646 0.72633
 H3875 H 0.17104 0.39454 0.76876
 H3876 H 0.15564 0.42275 0.77286
 H3877 H 0.18008 0.34259 0.76497
 H3878 H 0.19448 0.31354 0.76283
 H3879 H 0.23587 0.33606 0.73119
 H3880 H 0.22119 0.36507 0.73337
 C3881 C 0.08050 0.77147 0.83699
 C3882 C 0.09729 0.77191 0.82945
 C3883 C 0.10209 0.75976 0.81624
 C3884 C 0.08972 0.74731 0.81032
 C3885 C 0.07290 0.74682 0.81787
 C3886 C 0.06819 0.75876 0.83146
 N3887 N 0.11973 0.76005 0.80951
 N3888 N 0.12500 0.74962 0.79729
 C3889 C 0.14281 0.74980 0.79097
 C3890 C 0.14740 0.73921 0.77643
 C3891 C 0.16466 0.73916 0.76991
 C3892 C 0.17768 0.74964 0.77799
 C3893 C 0.17305 0.76011 0.79274
 C3894 C 0.15577 0.76024 0.79914
 H3895 H 0.07717 0.78101 0.84723
 H3896 H 0.10669 0.78162 0.83406
 H3897 H 0.09315 0.73775 0.80012
 H3898 H 0.06379 0.73676 0.81347
 H3899 H 0.13754 0.73105 0.77008
 H3900 H 0.16779 0.73090 0.75857
 H3901 H 0.18273 0.76837 0.79923
 H3902 H 0.15255 0.76847 0.81047
 C3903 C 0.56618 0.24696 0.31156
 C3904 C 0.58234 0.24622 0.30265
 C3905 C 0.59624 0.25714 0.30786
 C3906 C 0.59362 0.26927 0.32180
 C3907 C 0.57746 0.27011 0.33064
 C3908 C 0.56363 0.25877 0.32583
 N3909 N 0.61300 0.25534 0.29924
 N3910 N 0.62650 0.26360 0.30479
 C3911 C 0.64351 0.26193 0.29670
 C3912 C 0.65774 0.27063 0.30453
 C3913 C 0.67463 0.26914 0.29731
 C3914 C 0.67762 0.25893 0.28196
 C3915 C 0.66325 0.25026 0.27402
 C3916 C 0.64632 0.25170 0.28136
 H3917 H 0.55588 0.23790 0.30764
 H3918 H 0.58419 0.23680 0.29194
 H3919 H 0.60410 0.27800 0.32599
 H3920 H 0.57584 0.27959 0.34133
 H3921 H 0.65572 0.27854 0.31636
 H3922 H 0.68534 0.27607 0.30374
 H3923 H 0.66509 0.24230 0.26221
 H3924 H 0.63549 0.24484 0.27508
 C3925 C 0.59315 0.73775 0.15848
 C3926 C 0.61013 0.73881 0.16560
 C3927 C 0.61409 0.75166 0.17832
 C3928 C 0.60073 0.76344 0.18408
 C3929 C 0.58371 0.76243 0.17693
 C3930 C 0.57976 0.74966 0.16394
 N3931 N 0.63176 0.75249 0.18503
 N3932 N 0.63632 0.76340 0.19705
 C3933 C 0.65408 0.76400 0.20356
 C3934 C 0.65788 0.77478 0.21815
 C3935 C 0.67492 0.77507 0.22527
 C3936 C 0.68856 0.76465 0.21778
 C3937 C 0.68480 0.75420 0.20282
 C3938 C 0.66771 0.75382 0.19581
 H3939 H 0.59048 0.72756 0.14873
 H3940 H 0.62029 0.72960 0.16114
 H3941 H 0.60349 0.77351 0.19391
 H3942 H 0.57376 0.77191 0.18127
 H3943 H 0.64751 0.78274 0.22419
 H3944 H 0.67738 0.78333 0.23674
 H3945 H 0.69495 0.74599 0.19674
 H3946 H 0.66514 0.74545 0.18445
 C3947 C 0.07061 0.25608 0.69028
 C3948 C 0.08659 0.25839 0.69935
 C3949 C 0.10253 0.25251 0.69197
 C3950 C 0.10227 0.24374 0.67559
 C3951 C 0.08642 0.24132 0.66655
 C3952 C 0.07020 0.24776 0.67346
 N3953 N 0.11885 0.25558 0.70111
 N3954 N 0.13359 0.25217 0.69369
 C3955 C 0.15040 0.25462 0.70199
 C3956 C 0.16557 0.25072 0.69219
 C3957 C 0.18227 0.25210 0.69981
 C3958 C 0.18418 0.25741 0.71754
 C3959 C 0.16889 0.26173 0.72732
 C3960 C 0.15209 0.26034 0.71960
 H3961 H 0.05882 0.26168 0.69624
 H3962 H 0.08657 0.26516 0.71200
 H3963 H 0.11437 0.23866 0.66974
 H3964 H 0.08708 0.23390 0.65432
 H3965 H 0.16441 0.24635 0.67860
 H3966 H 0.19369 0.24873 0.69182
 H3967 H 0.16987 0.26584 0.74100
 H3968 H 0.14050 0.26344 0.72742
 C3969 C 0.91524 0.24430 0.65156
 C3970 C 0.89815 0.24440 0.65846
 C3971 C 0.89546 0.24556 0.67667
 C3972 C 0.91013 0.24709 0.68798
 C3973 C 0.92726 0.24729 0.68105
 C3974 C 0.92996 0.24567 0.66279
 N3975 N 0.87775 0.24512 0.68326
 N3976 N 0.87437 0.24320 0.69955
 C3977 C 0.85662 0.24295 0.70609
 C3978 C 0.85375 0.23855 0.72370
 C3979 C 0.83663 0.23844 0.73057
 C3980 C 0.82204 0.24297 0.71994
 C3981 C 0.82496 0.24731 0.70219
 C3982 C 0.84209 0.24722 0.69530
 H3983 H 0.91698 0.24322 0.63741
 H3984 H 0.88695 0.24331 0.64961
 H3985 H 0.90835 0.24813 0.70211
 H3986 H 0.93841 0.24829 0.68996
 H3987 H 0.86484 0.23525 0.73215
 H3988 H 0.83488 0.23514 0.74432
 H3989 H 0.81402 0.25082 0.69364
 H3990 H 0.84397 0.25069 0.68162
 C3991 C 0.42856 0.76672 0.16974
 C3992 C 0.41153 0.76733 0.17685
 C3993 C 0.40513 0.75306 0.18646
 C3994 C 0.41614 0.73824 0.18927
 C3995 C 0.43312 0.73756 0.18208
 C3996 C 0.43942 0.75169 0.17203
 N3997 N 0.38726 0.75367 0.19263
 N3998 N 0.38082 0.74149 0.20206
 C3999 C 0.36280 0.74193 0.20780
 C4000 C 0.35724 0.72959 0.22019
 C4001 C 0.33981 0.72985 0.22626
 C4002 C 0.32755 0.74236 0.21982
 C4003 C 0.33309 0.75450 0.20708
 C4004 C 0.35058 0.75436 0.20119
 H4005 H 0.43297 0.77770 0.16188
 H4006 H 0.40316 0.77881 0.17458
 H4007 H 0.41151 0.72705 0.19670
 H4008 H 0.44127 0.72589 0.18417
 H4009 H 0.36651 0.71988 0.22530
 H4010 H 0.33594 0.72027 0.23602
 H4011 H 0.32401 0.76435 0.20191
 H4012 H 0.35453 0.76396 0.19150
 C4013 C 0.42503 0.26358 0.31124
 C4014 C 0.40872 0.26403 0.30252
 C4015 C 0.39402 0.25577 0.30981
 C4016 C 0.39583 0.24696 0.32597
 C4017 C 0.41210 0.24645 0.33465
 C4018 C 0.42690 0.25476 0.32740
 N4019 N 0.37744 0.25647 0.30066
 N4020 N 0.36363 0.24959 0.30707
 C4021 C 0.34688 0.24993 0.29828
 C4022 C 0.33247 0.24219 0.30657
 C4023 C 0.31592 0.24203 0.29843
 C4024 C 0.31347 0.24962 0.28172
 C4025 C 0.32799 0.25749 0.27342
 C4026 C 0.34457 0.25765 0.28164
 H4027 H 0.43623 0.26996 0.30525
 H4028 H 0.40752 0.27082 0.29007
 H4029 H 0.38466 0.24050 0.33192
 H4030 H 0.41304 0.23979 0.34719
 H4031 H 0.33410 0.23621 0.31940
 H4032 H 0.30508 0.23587 0.30524
 H4033 H 0.32657 0.26348 0.26058
 H4034 H 0.35555 0.26372 0.27498
 C4035 C 0.92857 0.75648 0.80953
 C4036 C 0.91221 0.75726 0.80093
 C4037 C 0.89699 0.75120 0.80926
 C4038 C 0.89831 0.74417 0.82630
 C4039 C 0.91462 0.74335 0.83488
 C4040 C 0.92993 0.74955 0.82663
 N4041 N 0.88036 0.75239 0.80026
 N4042 N 0.86610 0.74743 0.80744
 C4043 C 0.84934 0.74843 0.79873
 C4044 C 0.83443 0.74238 0.80756
 C4045 C 0.81787 0.74281 0.79941
 C4046 C 0.81594 0.74936 0.78220
 C4047 C 0.83095 0.75564 0.77342
 C4048 C 0.84753 0.75516 0.78161
 H4049 H 0.94015 0.76120 0.80276
 H4050 H 0.91138 0.76265 0.78777
 H4051 H 0.88673 0.73942 0.83305
 H4052 H 0.91519 0.73819 0.84815
 H4053 H 0.83567 0.73720 0.82077
 H4054 H 0.80662 0.73790 0.80659
 H4055 H 0.82995 0.76077 0.76017
 H4056 H 0.85889 0.75995 0.77454
   
