data_POSCAR
  _audit_creation_date              2014-09-24
  _audit_creation_method            'ToBaCCo'
  _symmetry_space_group_name_H-M    'P1'
  _symmetry_Int_Tables_number       1
  _symmetry_cell_setting            triclinic
  loop_
  _symmetry_equiv_pos_as_xyz
 x,y,z
_cell_length_a 44.5398
_cell_length_b 43.9411
_cell_length_c 44.1635
_cell_angle_alpha 90.074200
_cell_angle_beta 90.640300
_cell_angle_gamma 90.669600
loop_
  _atom_site_label
  _atom_site_type_symbol
  _atom_site_fract_x
  _atom_site_fract_y
  _atom_site_fract_z
C1 C 0.12242 -0.01118 0.24880
 C2 C 0.37588 -0.00213 0.75431
 C3 C 0.87702 0.49977 0.25690
 C4 C 0.62506 0.49474 0.75213
 C5 C 0.25901 0.12292 0.98764
 C6 C 0.74272 0.37726 1.00478
 C7 C 0.24766 0.88246 0.50637
 C8 C 0.75312 0.63045 0.49734
 C9 C 0.00100 0.25103 0.13344
 C10 C -0.00536 0.74863 0.36582
 C11 C 0.48958 0.26413 0.86443
 C12 C 0.49743 0.74716 0.63496
 C13 C 0.87271 1.00167 0.74604
 C14 C 0.37988 0.49183 0.24902
 C15 C 0.61976 0.99669 0.25422
 C16 C 0.12524 0.49395 0.75860
 C17 C 0.75738 0.88276 -0.00235
 C18 C 0.25019 0.38415 0.48829
 C19 C 0.24667 0.62407 0.00607
 C20 C 0.75026 0.12604 0.50221
 C21 C 1.00029 0.75173 0.88112
 C22 C 0.50281 0.24857 0.37869
 C23 C 0.98583 0.24922 0.62741
 C24 C 0.49092 0.76493 0.11919
 O25 O -0.01264 0.99660 0.90777
 O26 O 0.03751 1.01384 0.90678
 O27 O -0.01099 0.92376 0.97072
 O28 O 0.00147 0.91781 1.02179
 O29 O -0.08142 0.99339 0.97688
 O30 O -0.08185 1.04126 0.99542
 O31 O 0.06638 0.99879 1.05709
 O32 O 0.07529 0.95513 1.02844
 O33 O 0.06903 1.07024 0.99494
 O34 O 0.04509 1.08283 0.94975
 O35 O 0.00708 1.06698 1.06030
 O36 O -0.04433 1.04469 1.06243
 O37 O 0.02511 1.01660 1.08080
 O38 O -0.02829 1.00039 1.07993
 O39 O 0.02164 1.09263 1.01823
 O40 O 0.00294 1.09477 0.96245
 O41 O 0.09003 1.02610 1.01098
 O42 O 0.08919 0.97213 0.98888
 O43 O -0.05465 1.01677 0.92825
 O44 O -0.05595 1.06591 0.95877
 O45 O -0.06094 0.94930 0.99410
 O46 O -0.03396 0.93879 1.04197
 O47 O 0.00907 0.94705 0.92947
 O48 O 0.05704 0.97456 0.92583
 Zr49 Zr 0.01701 0.99203 0.94399
 O50 O 0.04588 1.01848 0.97135
 Zr51 Zr -0.01498 0.95859 1.00287
 O52 O 0.01386 0.98205 1.03292
 Zr53 Zr -0.04353 1.02239 0.97504
 O54 O -0.01704 1.04868 1.00562
 Zr55 Zr 0.05405 0.99452 1.01151
 O56 O 0.02718 0.96660 0.98292
 Zr57 Zr 0.02424 1.05835 0.98513
 O58 O -0.00303 1.03410 0.95358
 Zr59 Zr -0.00569 1.02358 1.04461
 O60 O -0.03595 0.99883 1.01618
 O61 O -0.02429 0.98132 0.96296
 O62 O 0.03512 1.03539 1.02500
 C63 C -0.03961 1.00609 0.90584
 C64 C -0.00124 0.92367 0.94350
 C65 C -0.08329 0.96526 0.98460
 C66 C 0.05226 1.00672 1.08093
 C67 C 0.09144 1.05449 1.00413
 C68 C 0.01573 1.09119 1.04655
 H69 H 0.06452 1.02298 0.96020
 H70 H -0.02800 1.06733 1.01104
 H71 H -0.03736 0.96894 0.94936
 H72 H 0.01756 0.96895 1.05071
 H73 H 0.06014 0.94355 1.04005
 H74 H 0.02269 0.91642 1.01557
 H75 H -0.01248 1.10295 0.97611
 H76 H -0.07424 1.06354 0.94593
 H77 H 0.09702 0.98607 0.97318
 H78 H 0.06286 0.95706 0.93861
 H79 H -0.03914 1.05363 1.08250
 H80 H -0.08010 1.03671 1.01730
 H81 H 0.02933 1.03468 0.90594
 H82 H 0.05593 1.06792 0.93729
 H83 H -0.04970 0.95280 1.04897
 H84 H -0.01776 0.98108 1.08388
 O85 O 0.56405 0.56866 0.49579
 O86 O 0.53371 0.57811 0.45210
 O87 O 0.50140 0.55987 0.56633
 O88 O 0.46001 0.53216 0.57614
 O89 O 0.57122 0.49473 0.55782
 O90 O 0.57745 0.45217 0.52846
 O91 O 0.42008 0.47933 0.48611
 O92 O 0.41613 0.52698 0.50885
 O93 O 0.48063 0.49272 0.41384
 O94 O 0.52834 0.51070 0.40714
 O95 O 0.49031 0.41851 0.47158
 O96 O 0.51479 0.41302 0.52218
 O97 O 0.44431 0.43572 0.49858
 O98 O 0.47372 0.42719 0.54603
 O99 O 0.50904 0.44427 0.43136
 O100 O 0.55617 0.48008 0.42762
 O101 O 0.43880 0.50585 0.43974
 O102 O 0.43266 0.55333 0.47017
 O103 O 0.58930 0.52588 0.50901
 O104 O 0.58999 0.47494 0.48456
 O105 O 0.52956 0.50846 0.58370
 O106 O 0.47859 0.48779 0.58595
 O107 O 0.51606 0.58682 0.52498
 O108 O 0.49523 0.59198 0.47494
 Zr109 Zr 0.51938 0.55394 0.49080
 O110 O 0.49190 0.52863 0.46099
 Zr111 Zr 0.49590 0.51499 0.55050
 O112 O 0.46629 0.48865 0.52337
 Zr113 Zr 0.55563 0.49179 0.51276
 O114 O 0.52865 0.46352 0.48474
 Zr115 Zr 0.45402 0.51275 0.48436
 O116 O 0.48004 0.54092 0.51362
 Zr117 Zr 0.51411 0.48913 0.44736
 O118 O 0.54330 0.51670 0.47395
 Zr119 Zr 0.48902 0.45047 0.50693
 O120 O 0.51788 0.47549 0.53652
 O121 O 0.53425 0.53028 0.52875
 O122 O 0.47512 0.47387 0.46848
 C123 C 0.58824 0.55431 0.50215
 C124 C 0.50894 0.58477 0.55297
 C125 C 0.55727 0.50062 0.58246
 C126 C 0.42054 0.45058 0.49126
 C127 C 0.45257 0.49873 0.41542
 C128 C 0.49954 0.41985 0.44417
 H129 H 0.48651 0.54138 0.44339
 H130 H 0.54045 0.44556 0.47886
 H131 H 0.54746 0.54275 0.54214
 H132 H 0.44834 0.48301 0.53514
 H133 H 0.42323 0.54298 0.52311
 H134 H 0.44118 0.52442 0.56670
 H135 H 0.56193 0.45920 0.43350
 H136 H 0.60979 0.47891 0.49443
 H137 H 0.44212 0.56050 0.45128
 H138 H 0.47566 0.59155 0.48536
 H139 H 0.50407 0.39381 0.51675
 H140 H 0.56233 0.44018 0.53974
 H141 H 0.54845 0.56507 0.44181
 H142 H 0.52338 0.53248 0.40904
 H143 H 0.48983 0.46849 0.58579
 H144 H 0.45536 0.43719 0.55327
 O145 O 0.50899 -0.06462 0.56973
 O146 O 0.55260 -0.03168 0.57849
 O147 O 0.43987 0.00553 0.56769
 O148 O 0.42838 0.04582 0.53903
 O149 O 0.44069 -0.06806 0.50284
 O150 O 0.46711 -0.07092 0.45448
 O151 O 0.51293 0.08244 0.48202
 O152 O 0.49196 0.08574 0.53313
 O153 O 0.58545 0.02180 0.49323
 O154 O 0.58869 -0.03075 0.51600
 O155 O 0.52495 0.00980 0.42214
 O156 O 0.47255 -0.01586 0.42053
 O157 O 0.49658 0.05682 0.44014
 O158 O 0.45386 0.02929 0.43072
 O159 O 0.56593 -0.00837 0.44684
 O160 O 0.57346 -0.05156 0.47520
 O161 O 0.56107 0.06377 0.50940
 O162 O 0.53627 0.07395 0.55243
 O163 O 0.49231 -0.08821 0.52671
 O164 O 0.50730 -0.09130 0.47637
 O165 O 0.41749 -0.02571 0.52007
 O166 O 0.41404 0.02431 0.49735
 O167 O 0.48004 -0.01461 0.59223
 O168 O 0.52939 0.00424 0.59649
 Zr169 Zr 0.51205 -0.01803 0.55748
 O170 O 0.54015 0.01043 0.53147
 Zr171 Zr 0.45152 0.00777 0.52197
 O172 O 0.47702 0.03630 0.49368
 Zr173 Zr 0.48527 -0.05337 0.49568
 O174 O 0.51350 -0.02754 0.46762
 Zr175 Zr 0.51688 0.04890 0.51605
 O176 O 0.49007 0.02277 0.54594
 Zr177 Zr 0.55184 -0.01243 0.49166
 O178 O 0.52568 -0.04192 0.51872
 Zr179 Zr 0.49118 0.01222 0.45523
 O180 O 0.46170 -0.01479 0.48148
 O181 O 0.47272 -0.03188 0.53559
 O182 O 0.53060 0.02694 0.47681
 C183 C 0.50227 -0.08848 0.55395
 C184 C 0.45332 -0.00387 0.59175
 C185 C 0.41731 -0.05371 0.51172
 C186 C 0.50466 0.08127 0.45398
 C187 C 0.58477 0.05006 0.50081
 C188 C 0.55219 0.00040 0.42279
 H189 H 0.55803 0.01636 0.54365
 H190 H 0.51867 -0.04001 0.44978
 H191 H 0.46049 -0.04502 0.54898
 H192 H 0.46500 0.05428 0.48820
 H193 H 0.48200 0.07851 0.55179
 H194 H 0.43730 0.06426 0.52981
 H195 H 0.56027 -0.06904 0.48032
 H196 H 0.49441 -0.10980 0.47842
 H197 H 0.54272 0.05904 0.56781
 H198 H 0.51957 0.02432 0.59744
 H199 H 0.47963 -0.00840 0.40064
 H200 H 0.44866 -0.05950 0.44955
 H201 H 0.56160 -0.04702 0.56502
 H202 H 0.59415 -0.01647 0.53256
 H203 H 0.41185 0.01159 0.47892
 H204 H 0.44083 0.03961 0.44539
 O205 O -0.07023 0.43969 0.99945
 O206 O -0.04277 0.43640 0.94941
 O207 O 0.00231 0.43519 1.06293
 O208 O 0.04328 0.46188 1.07473
 O209 O -0.06802 0.50304 1.06843
 O210 O -0.07088 0.55268 1.04457
 O211 O 0.07736 0.52482 0.98860
 O212 O 0.08167 0.47446 1.00611
 O213 O 0.00843 0.51582 0.91854
 O214 O -0.04487 0.49972 0.91949
 O215 O 0.01045 0.58622 0.98491
 O216 O -0.01382 0.58758 1.03613
 O217 O 0.05548 0.56508 1.01163
 O218 O 0.02809 0.57050 1.05794
 O219 O -0.00927 0.56434 0.94233
 O220 O -0.05737 0.54374 0.93788
 O221 O 0.05253 0.49973 0.93909
 O222 O 0.06111 0.45366 0.96289
 O223 O -0.09259 0.48130 1.01913
 O224 O -0.09377 0.53312 1.00265
 O225 O -0.02500 0.48413 1.08918
 O226 O 0.02663 0.50441 1.09054
 O227 O -0.01546 0.41448 1.01899
 O228 O -0.01170 0.41107 0.97058
 Zr229 Zr -0.02508 0.45195 0.99145
 O230 O 0.00197 0.47882 0.96334
 Zr231 Zr 0.00578 0.48198 1.05324
 O232 O 0.03366 0.51085 1.02751
 Zr233 Zr -0.05621 0.51211 1.02358
 O234 O -0.03082 0.54180 0.99619
 Zr235 Zr 0.04244 0.49159 0.98508
 O236 O 0.01722 0.46079 1.01203
 Zr237 Zr -0.02007 0.52006 0.95554
 O238 O -0.04879 0.49172 0.98115
 Zr239 Zr 0.01070 0.55116 1.01727
 O240 O -0.01576 0.52366 1.04618
 O241 O -0.03524 0.47083 1.03306
 O242 O 0.02109 0.53213 0.97544
 C243 C -0.09339 0.45388 1.00917
 C244 C -0.00504 0.41238 1.04606
 C245 C -0.05239 0.49290 1.09071
 C246 C 0.07832 0.55180 1.00025
 C247 C 0.03580 0.50747 0.91645
 C248 C 0.00236 0.58684 0.95694
 H249 H 0.00560 0.46710 0.94462
 H250 H -0.04205 0.56075 0.99234
 H251 H -0.04713 0.45659 1.04565
 H252 H 0.05253 0.51477 1.03891
 H253 H 0.07541 0.45627 1.01775
 H254 H 0.06139 0.46950 1.06429
 H255 H -0.07489 0.53709 0.94985
 H256 H -0.11138 0.53110 1.01614
 H257 H 0.05380 0.43536 0.97370
 H258 H 0.00893 0.41470 0.96324
 H259 H -0.00294 0.60697 1.03212
 H260 H -0.05671 0.55750 1.06138
 H261 H -0.06167 0.44749 0.94561
 H262 H -0.03400 0.48136 0.91301
 H263 H 0.01484 0.52289 1.09468
 H264 H 0.04422 0.55719 1.06561
 O265 O 0.02185 0.48387 0.59096
 O266 O -0.02736 0.49961 0.59643
 O267 O 0.00981 0.41685 0.51763
 O268 O -0.00435 0.41658 0.46971
 O269 O 0.08514 0.48183 0.51635
 O270 O 0.08861 0.53233 0.50194
 O271 O -0.06463 0.50674 0.44667
 O272 O -0.07205 0.45860 0.46875
 O273 O -0.05846 0.56995 0.51530
 O274 O -0.02992 0.57005 0.56588
 O275 O 0.00096 0.57248 0.44997
 O276 O 0.04981 0.54648 0.44183
 O277 O -0.02304 0.52595 0.42369
 O278 O 0.02766 0.50765 0.41816
 O279 O -0.00988 0.59263 0.49593
 O280 O 0.00896 0.59053 0.54437
 O281 O -0.08386 0.52886 0.49624
 O282 O -0.08861 0.47572 0.51169
 O283 O 0.06400 0.50261 0.56863
 O284 O 0.07031 0.55293 0.54380
 O285 O 0.06030 0.44122 0.49552
 O286 O 0.03062 0.44173 0.44746
 O287 O -0.00581 0.43509 0.56290
 O288 O -0.05005 0.46467 0.57416
 Zr289 Zr -0.01003 0.48252 0.55553
 O290 O -0.03835 0.51363 0.53326
 Zr291 Zr 0.01541 0.45538 0.49061
 O292 O -0.01264 0.48443 0.46562
 Zr293 Zr 0.05078 0.51327 0.52393
 O294 O 0.02478 0.54493 0.49972
 Zr295 Zr -0.05059 0.49584 0.49076
 O296 O -0.02471 0.46323 0.51424
 Zr297 Zr -0.01466 0.55400 0.52348
 O298 O 0.01274 0.52446 0.54942
 Zr299 Zr 0.00977 0.52616 0.45842
 O300 O 0.03905 0.49568 0.48096
 O301 O 0.02905 0.47208 0.53260
 O302 O -0.02906 0.53711 0.48160
 C303 C 0.04952 0.49240 0.59159
 C304 C 0.00149 0.41317 0.54508
 C305 C 0.08429 0.45482 0.50516
 C306 C -0.05075 0.51733 0.42356
 C307 C -0.08239 0.55666 0.50516
 C308 C -0.00472 0.59506 0.46748
 H309 H -0.05605 0.51766 0.54586
 H310 H 0.03700 0.56359 0.49652
 H311 H 0.04161 0.45757 0.54412
 H312 H -0.01848 0.47418 0.44648
 H313 H -0.06428 0.43990 0.47841
 H314 H -0.02177 0.42359 0.45766
 H315 H 0.02446 0.58137 0.55761
 H316 H 0.08945 0.54742 0.55401
 H317 H -0.09154 0.48569 0.53150
 H318 H -0.05920 0.45113 0.55858
 H319 H 0.04480 0.55925 0.42399
 H320 H 0.08709 0.52625 0.48039
 H321 H -0.02107 0.52126 0.59751
 H322 H -0.05036 0.56178 0.56927
 H323 H 0.04816 0.45481 0.44255
 H324 H 0.01650 0.48863 0.41337
 O325 O 0.52267 0.93171 0.02125
 O326 O 0.50802 0.92612 -0.03077
 O327 O 0.59956 0.99545 0.01014
 O328 O 0.60521 1.04252 -0.00709
 O329 O 0.53324 1.00651 0.08144
 O330 O 0.48573 1.03111 0.08105
 O331 O 0.52034 1.07525 -0.07105
 O332 O 0.56670 1.04717 -0.07452
 O333 O 0.45239 1.01128 -0.06756
 O334 O 0.44464 0.96276 -0.03634
 O335 O 0.45392 1.08041 -0.00809
 O336 O 0.48094 1.08672 0.04287
 O337 O 0.50176 1.10078 -0.03069
 O338 O 0.52002 1.10748 0.01952
 O339 O 0.43018 1.03617 -0.02120
 O340 O 0.42506 0.98875 -0.00129
 O341 O 0.49464 1.02686 -0.09173
 O342 O 0.54367 1.00682 -0.09384
 O343 O 0.50431 0.95797 0.06116
 O344 O 0.46088 0.98912 0.06554
 O345 O 0.57585 1.02382 0.05899
 O346 O 0.58330 1.06946 0.02761
 O347 O 0.57458 0.95264 -0.00499
 O348 O 0.54690 0.94117 -0.04992
 Zr349 Zr 0.52977 0.96511 -0.01246
 O350 O 0.50368 0.98982 -0.04366
 Zr351 Zr 0.56454 1.02751 0.01255
 O352 O 0.53935 1.05509 -0.01735
 Zr353 Zr 0.50215 1.00304 0.04593
 O354 O 0.47461 1.02899 0.01742
 Zr355 Zr 0.52628 1.03016 -0.05594
 O356 O 0.55429 1.00333 -0.02768
 Zr357 Zr 0.46471 1.00448 -0.02223
 O358 O 0.48910 0.97685 0.00800
 Zr359 Zr 0.49851 1.06747 0.00279
 O360 O 0.52554 1.04298 0.03390
 O361 O 0.54201 0.98842 0.02669
 O362 O 0.48629 1.04412 -0.03657
 C363 C 0.51187 0.93316 0.04816
 C364 C 0.59875 0.96709 0.00283
 C365 C 0.56069 1.01562 0.08234
 C366 C 0.51068 1.09951 -0.05816
 C367 C 0.46658 1.01982 -0.09129
 C368 C 0.43036 1.06482 -0.01573
 H369 H 0.49889 0.97693 -0.06145
 H370 H 0.45626 1.03454 0.02850
 H371 H 0.55412 0.97558 0.04047
 H372 H 0.55152 1.07309 -0.02308
 H373 H 0.58307 1.03414 -0.06676
 H374 H 0.59998 1.05650 -0.02382
 H375 H 0.43145 0.97897 0.01784
 H376 H 0.46475 0.98166 0.08643
 H377 H 0.53507 0.98599 -0.09398
 H378 H 0.56121 0.95517 -0.06000
 H379 H 0.46895 1.10481 0.03735
 H380 H 0.49892 1.04936 0.08244
 H381 H 0.48730 0.92609 -0.02290
 H382 H 0.45323 0.95701 -0.05607
 H383 H 0.56981 1.07751 0.04331
 H384 H 0.54031 1.10861 0.01073
 O385 O 0.47701 0.51955 0.08449
 O386 O 0.52891 0.50512 0.08928
 O387 O 0.48627 0.59517 0.02121
 O388 O 0.50304 0.60160 -0.02614
 O389 O 0.41512 0.52769 0.00972
 O390 O 0.41633 0.47763 -0.01360
 O391 O 0.56683 0.51613 -0.05824
 O392 O 0.56888 0.56500 -0.03201
 O393 O 0.56522 0.45020 0.00479
 O394 O 0.53446 0.44254 0.05434
 O395 O 0.50188 0.44669 -0.06196
 O396 O 0.45225 0.47583 -0.06907
 O397 O 0.52624 0.49648 -0.08370
 O398 O 0.47806 0.51184 -0.09171
 O399 O 0.51895 0.42517 -0.01846
 O400 O 0.50073 0.41997 0.02877
 O401 O 0.58825 0.49401 -0.01017
 O402 O 0.58922 0.54392 0.00904
 O403 O 0.43621 0.50132 0.05855
 O404 O 0.43239 0.45513 0.02934
 O405 O 0.43783 0.57059 -0.00808
 O406 O 0.46806 0.57858 -0.05270
 O407 O 0.50209 0.57166 0.06423
 O408 O 0.54687 0.54606 0.07474
 Zr409 Zr 0.50974 0.52680 0.05108
 O410 O 0.54083 0.50129 0.02655
 Zr411 Zr 0.48377 0.56005 -0.01126
 O412 O 0.51309 0.53497 -0.03868
 Zr413 Zr 0.45103 0.49692 0.01386
 O414 O 0.47966 0.46917 -0.01152
 Zr415 Zr 0.55186 0.52382 -0.01386
 O416 O 0.52397 0.55158 0.01284
 Zr417 Zr 0.51981 0.46091 0.01244
 O418 O 0.48936 0.48497 0.03964
 Zr419 Zr 0.49328 0.49268 -0.05038
 O420 O 0.46245 0.51978 -0.02631
 O421 O 0.47048 0.53785 0.02787
 O422 O 0.53292 0.48224 -0.02736
 C423 C 0.44981 0.50948 0.08305
 C424 C 0.49393 0.59528 0.04940
 C425 C 0.41442 0.55528 -0.00003
 C426 C 0.55364 0.50577 -0.08224
 C427 C 0.58845 0.46560 -0.00372
 C428 C 0.51102 0.42376 -0.04636
 H429 H 0.55874 0.49733 0.03928
 H430 H 0.46868 0.45009 -0.01661
 H431 H 0.45681 0.55015 0.04034
 H432 H 0.51831 0.54701 -0.05681
 H433 H 0.56174 0.58164 -0.01886
 H434 H 0.51877 0.59665 -0.04093
 H435 H 0.48029 0.42511 0.03545
 H436 H 0.41170 0.45874 0.03660
 H437 H 0.58999 0.53552 0.02978
 H438 H 0.55655 0.56062 0.06070
 H439 H 0.45669 0.46122 -0.08551
 H440 H 0.41349 0.49109 -0.03134
 H441 H 0.51969 0.48455 0.09034
 H442 H 0.55492 0.45050 0.05875
 H443 H 0.45288 0.56413 -0.06107
 H444 H 0.48278 0.53386 -0.09103
 O445 O -0.08683 0.02232 0.50617
 O446 O -0.09048 -0.02801 0.48531
 O447 O -0.02604 0.00802 0.58191
 O448 O 0.02045 -0.00740 0.58922
 O449 O -0.01431 0.08508 0.52069
 O450 O 0.01025 0.08834 0.47282
 O451 O 0.05709 -0.06511 0.50056
 O452 O 0.02830 -0.07306 0.54629
 O453 O -0.00518 -0.06006 0.43048
 O454 O -0.05137 -0.02873 0.42209
 O455 O 0.06310 0.00494 0.43892
 O456 O 0.06720 0.05251 0.46946
 O457 O 0.08204 -0.02243 0.48539
 O458 O 0.08604 0.02698 0.50876
 O459 O 0.02207 -0.01223 0.41274
 O460 O -0.02486 0.00955 0.40654
 O461 O 0.00922 -0.08587 0.47270
 O462 O -0.01017 -0.09212 0.52116
 O463 O -0.06170 0.06429 0.48953
 O464 O -0.03019 0.07274 0.44645
 O465 O 0.00225 0.05950 0.56225
 O466 O 0.04728 0.02846 0.56973
 O467 O -0.06746 -0.00792 0.55565
 O468 O -0.07622 -0.05100 0.52384
 Zr469 Zr -0.05326 -0.01093 0.51043
 O470 O -0.02718 -0.03940 0.48308
 Zr471 Zr 0.00673 0.01387 0.54849
 O472 O 0.03538 -0.01354 0.52274
 Zr473 Zr -0.01665 0.05104 0.48723
 O474 O 0.01082 0.02508 0.45895
 Zr475 Zr 0.01210 -0.05199 0.50638
 O476 O -0.01588 -0.02659 0.53534
 Zr477 Zr -0.01162 -0.01503 0.44546
 O478 O -0.04071 0.01267 0.47095
 Zr479 Zr 0.04839 0.01033 0.48363
 O480 O 0.02241 0.03888 0.51132
 O481 O -0.03154 0.02833 0.52572
 O482 O 0.02705 -0.02931 0.46794
 C483 C -0.08586 0.05007 0.49691
 C484 C -0.05359 -0.00090 0.58045
 C485 C -0.00556 0.08403 0.54850
 C486 C 0.08112 -0.05067 0.49268
 C487 C 0.00237 -0.08454 0.44441
 C488 C 0.04967 -0.00355 0.41442
 H489 H -0.03941 -0.05732 0.47696
 H490 H 0.01668 0.03763 0.44133
 H491 H -0.04464 0.04089 0.53857
 H492 H 0.05276 -0.01965 0.53534
 H493 H 0.01494 -0.06680 0.56292
 H494 H 0.03391 -0.02421 0.58371
 H495 H -0.03719 0.02660 0.41379
 H496 H -0.03845 0.09305 0.45131
 H497 H -0.03076 -0.09207 0.51257
 H498 H -0.06305 -0.06127 0.53876
 H499 H 0.08654 0.04876 0.45923
 H500 H 0.02807 0.08954 0.48638
 H501 H -0.09016 -0.01753 0.46548
 H502 H -0.05912 -0.04750 0.43172
 H503 H 0.05548 0.04540 0.55746
 H504 H 0.08823 0.01457 0.52729
 O505 O 0.82073 0.24423 0.20006
 O506 O 0.79453 0.19554 0.18974
 O507 O 0.74519 0.30508 0.18417
 O508 O 0.70103 0.31445 0.20585
 O509 O 0.80584 0.31634 0.26353
 O510 O 0.80542 0.29025 0.31160
 O511 O 0.66336 0.23067 0.25970
 O512 O 0.66827 0.24419 0.20702
 O513 O 0.73307 0.16044 0.26590
 O514 O 0.78798 0.16292 0.25184
 O515 O 0.72603 0.22478 0.33367
 O516 O 0.74543 0.27954 0.33703
 O517 O 0.68023 0.24828 0.30536
 O518 O 0.70312 0.29554 0.31678
 O519 O 0.75148 0.18492 0.31420
 O520 O 0.79908 0.18160 0.29573
 O521 O 0.69057 0.18112 0.24625
 O522 O 0.68816 0.19819 0.19750
 O523 O 0.83546 0.26796 0.24353
 O524 O 0.83210 0.25103 0.29458
 O525 O 0.76501 0.33402 0.23792
 O526 O 0.71231 0.33203 0.24820
 O527 O 0.77372 0.26593 0.16792
 O528 O 0.76212 0.21452 0.16342
 Zr529 Zr 0.77420 0.23606 0.20471
 O530 O 0.74489 0.20578 0.22702
 Zr531 Zr 0.73734 0.29560 0.23038
 O532 O 0.70773 0.26807 0.25542
 Zr533 Zr 0.79604 0.26962 0.26901
 O534 O 0.76899 0.23950 0.29421
 Zr535 Zr 0.70288 0.22564 0.23427
 O536 O 0.73052 0.25407 0.20730
 Zr537 Zr 0.76221 0.19838 0.27059
 O538 O 0.79292 0.22673 0.24744
 Zr539 Zr 0.72598 0.25780 0.29849
 O540 O 0.75364 0.28920 0.27484
 O541 O 0.78018 0.27837 0.22533
 O542 O 0.71944 0.21596 0.27735
 C543 C 0.84092 0.25618 0.21762
 C544 C 0.75962 0.29080 0.16349
 C545 C 0.79017 0.33793 0.25197
 C546 C 0.65916 0.23934 0.28717
 C547 C 0.70539 0.15888 0.25753
 C548 C 0.73750 0.19804 0.33562
 H549 H 0.74263 0.18666 0.21534
 H550 H 0.77860 0.23613 0.31423
 H551 H 0.79351 0.29213 0.21369
 H552 H 0.68843 0.27885 0.25661
 H553 H 0.67781 0.25254 0.18860
 H554 H 0.68357 0.30074 0.20879
 H555 H 0.81606 0.19575 0.29193
 H556 H 0.84923 0.26573 0.29490
 H557 H 0.70256 0.20176 0.18102
 H558 H 0.74192 0.22190 0.15772
 H559 H 0.73440 0.27304 0.35536
 H560 H 0.79021 0.30613 0.31494
 H561 H 0.80965 0.18991 0.20529
 H562 H 0.77702 0.15472 0.23396
 H563 H 0.71949 0.33527 0.26926
 H564 H 0.69073 0.30444 0.30041
 O565 O 0.75071 0.68525 0.68705
 O566 O 0.79768 0.67641 0.71072
 O567 O 0.68891 0.68433 0.75816
 O568 O 0.68272 0.70798 0.80248
 O569 O 0.68634 0.75532 0.69254
 O570 O 0.71107 0.79972 0.68540
 O571 O 0.77387 0.76247 0.83669
 O572 O 0.75788 0.71406 0.83955
 O573 O 0.83781 0.76292 0.76415
 O574 O 0.83949 0.74904 0.71595
 O575 O 0.77472 0.83265 0.76853
 O576 O 0.72347 0.83766 0.75736
 O577 O 0.75345 0.80592 0.81839
 O578 O 0.70356 0.81496 0.79071
 O579 O 0.81300 0.81073 0.74335
 O580 O 0.81253 0.77888 0.69226
 O581 O 0.82004 0.74284 0.80784
 O582 O 0.79235 0.69181 0.81401
 O583 O 0.73359 0.72926 0.66627
 O584 O 0.75427 0.78214 0.66669
 O585 O 0.66574 0.73649 0.73558
 O586 O 0.66945 0.75288 0.78935
 O587 O 0.72956 0.66130 0.73787
 O588 O 0.78240 0.65921 0.75175
 Zr589 Zr 0.76082 0.69706 0.73199
 O590 O 0.79242 0.72285 0.75701
 Zr591 Zr 0.70302 0.72971 0.76512
 O592 O 0.73230 0.75521 0.79357
 Zr593 Zr 0.73177 0.76022 0.70293
 O594 O 0.76027 0.78885 0.72866
 Zr595 Zr 0.77397 0.73360 0.79904
 O596 O 0.74277 0.70558 0.77492
 Zr597 Zr 0.80005 0.76521 0.73637
 O598 O 0.77245 0.73727 0.70871
 Zr599 Zr 0.74311 0.79662 0.77224
 O600 O 0.71207 0.77189 0.74455
 O601 O 0.72054 0.71902 0.72321
 O602 O 0.78420 0.77561 0.77949
 C603 C 0.74140 0.70121 0.66462
 C604 C 0.70262 0.66093 0.74792
 C605 C 0.66376 0.74708 0.70843
 C606 C 0.76448 0.78970 0.84008
 C607 C 0.84130 0.75386 0.79142
 C608 C 0.80060 0.83368 0.75593
 H609 H 0.81128 0.71135 0.75896
 H610 H 0.76357 0.80799 0.71736
 H611 H 0.70641 0.70662 0.71072
 H612 H 0.72244 0.75819 0.81329
 H613 H 0.74183 0.69940 0.83362
 H614 H 0.69540 0.71275 0.82042
 H615 H 0.80709 0.80051 0.68981
 H616 H 0.74275 0.77857 0.64761
 H617 H 0.81145 0.68841 0.80337
 H618 H 0.77351 0.65627 0.77199
 H619 H 0.72826 0.83998 0.73567
 H620 H 0.70099 0.80966 0.70258
 H621 H 0.80565 0.69144 0.69609
 H622 H 0.83842 0.72657 0.71691
 H623 H 0.66533 0.77196 0.77824
 H624 H 0.69917 0.80382 0.80963
 O625 O 0.30350 0.17877 0.72617
 O626 O 0.30619 0.20111 0.67708
 O627 O 0.31541 0.25494 0.78489
 O628 O 0.29302 0.29882 0.79384
 O629 O 0.24532 0.18871 0.80243
 O630 O 0.19606 0.18210 0.77987
 O631 O 0.22736 0.32854 0.71118
 O632 O 0.27824 0.33187 0.72334
 O633 O 0.22316 0.25558 0.64552
 O634 O 0.23706 0.20084 0.64929
 O635 O 0.16027 0.26215 0.71817
 O636 O 0.16322 0.24292 0.77062
 O637 O 0.18782 0.31062 0.73831
 O638 O 0.18456 0.28594 0.78718
 O639 O 0.17659 0.23852 0.67569
 O640 O 0.19596 0.18965 0.67252
 O641 O 0.24412 0.29981 0.66251
 O642 O 0.29390 0.30882 0.68348
 O643 O 0.26489 0.15866 0.75299
 O644 O 0.21198 0.15656 0.73929
 O645 O 0.26921 0.23246 0.81683
 O646 O 0.25133 0.28429 0.81487
 O647 O 0.33178 0.23149 0.74228
 O648 O 0.32790 0.24056 0.68998
 Zr649 Zr 0.29228 0.22378 0.71671
 O650 O 0.26428 0.24910 0.68808
 Zr651 Zr 0.26922 0.25989 0.77793
 O652 O 0.24031 0.28694 0.75192
 Zr653 Zr 0.23488 0.19591 0.75591
 O654 O 0.20429 0.22081 0.72863
 Zr655 Zr 0.25649 0.29167 0.70774
 O656 O 0.28761 0.26772 0.73481
 Zr657 Zr 0.22169 0.22840 0.68519
 O658 O 0.25094 0.20056 0.71124
 Zr659 Zr 0.19852 0.26466 0.74662
 O660 O 0.22676 0.23880 0.77555
 O661 O 0.27683 0.21685 0.76048
 O662 O 0.21408 0.27172 0.70268
 C663 C 0.29065 0.15670 0.74018
 C664 C 0.33615 0.24417 0.76818
 C665 C 0.25821 0.20598 0.82254
 C666 C 0.20239 0.33214 0.72489
 C667 C 0.23290 0.28297 0.64133
 C668 C 0.15620 0.25134 0.69142
 H669 H 0.27388 0.25069 0.66808
 H670 H 0.18487 0.20967 0.72736
 H671 H 0.29100 0.20516 0.77327
 H672 H 0.23870 0.30692 0.76201
 H673 H 0.29582 0.32546 0.73558
 H674 H 0.28421 0.31680 0.78385
 H675 H 0.20270 0.17295 0.68587
 H676 H 0.21533 0.13946 0.75358
 H677 H 0.29882 0.29416 0.66732
 H678 H 0.33056 0.26232 0.69533
 H679 H 0.14452 0.25478 0.76809
 H680 H 0.19128 0.19864 0.79419
 H681 H 0.29051 0.18567 0.67218
 H682 H 0.25524 0.21073 0.64096
 H683 H 0.23281 0.27343 0.82112
 H684 H 0.19885 0.30268 0.79202
 O685 O 0.18832 0.73118 0.32150
 O686 O 0.21840 0.68582 0.32843
 O687 O 0.25393 0.80158 0.32768
 O688 O 0.29707 0.81431 0.30328
 O689 O 0.18897 0.80160 0.25323
 O690 O 0.18541 0.77354 0.20719
 O691 O 0.33850 0.73428 0.24513
 O692 O 0.33952 0.74775 0.29520
 O693 O 0.27517 0.65589 0.24737
 O694 O 0.22206 0.65242 0.26525
 O695 O 0.26894 0.72001 0.17711
 O696 O 0.24550 0.77374 0.17693
 O697 O 0.31622 0.74995 0.20138
 O698 O 0.28907 0.79192 0.19087
 O699 O 0.24985 0.67755 0.19926
 O700 O 0.20601 0.66813 0.22262
 O701 O 0.31720 0.68123 0.26347
 O702 O 0.32151 0.70689 0.31451
 O703 O 0.16693 0.75161 0.27939
 O704 O 0.16618 0.73206 0.22816
 O705 O 0.22878 0.82668 0.27449
 O706 O 0.28012 0.83062 0.26028
 O707 O 0.23563 0.75750 0.34747
 O708 O 0.25457 0.70873 0.34960
 Zr709 Zr 0.23406 0.72774 0.31072
 O710 O 0.26339 0.70059 0.28565
 Zr711 Zr 0.26091 0.79167 0.28100
 O712 O 0.29086 0.76683 0.25378
 Zr713 Zr 0.20255 0.75636 0.24872
 O714 O 0.23002 0.72980 0.22097
 Zr715 Zr 0.30230 0.72546 0.27446
 O716 O 0.27468 0.75165 0.30332
 Zr717 Zr 0.24292 0.69024 0.24400
 O718 O 0.21213 0.71481 0.27030
 Zr719 Zr 0.27043 0.75317 0.21247
 O720 O 0.24170 0.78134 0.23829
 O721 O 0.22140 0.76851 0.29039
 O722 O 0.28312 0.71256 0.23301
 C723 C 0.16552 0.74084 0.30639
 C724 C 0.24444 0.78521 0.35007
 C725 C 0.20230 0.82611 0.26233
 C726 C 0.33957 0.74385 0.21761
 C727 C 0.30316 0.65700 0.25443
 C728 C 0.25915 0.69225 0.17612
 H729 H 0.26806 0.68200 0.29723
 H730 H 0.21878 0.72507 0.20205
 H731 H 0.20794 0.78098 0.30293
 H732 H 0.30880 0.77979 0.25049
 H733 H 0.33144 0.76100 0.31126
 H734 H 0.31586 0.80616 0.29493
 H735 H 0.18815 0.68033 0.22736
 H736 H 0.14744 0.74385 0.23047
 H737 H 0.31244 0.68660 0.31819
 H738 H 0.27564 0.71616 0.34978
 H739 H 0.25326 0.76668 0.15720
 H740 H 0.19873 0.79048 0.20083
 H741 H 0.20276 0.67800 0.31425
 H742 H 0.23454 0.64652 0.28291
 H743 H 0.27103 0.83207 0.23978
 H744 H 0.29882 0.80461 0.20672
 O745 O 0.24570 0.80688 0.68712
 O746 O 0.19787 0.81507 0.71503
 O747 O 0.30846 0.81232 0.76244
 O748 O 0.31357 0.78870 0.80797
 O749 O 0.31512 0.73959 0.69818
 O750 O 0.28574 0.69232 0.69231
 O751 O 0.23059 0.72768 0.83900
 O752 O 0.25115 0.78051 0.84067
 O753 O 0.16177 0.73499 0.77114
 O754 O 0.16339 0.75339 0.71673
 O755 O 0.22448 0.66308 0.76889
 O756 O 0.27648 0.66086 0.74897
 O757 O 0.24781 0.68478 0.81666
 O758 O 0.29554 0.67726 0.79271
 O759 O 0.18430 0.68598 0.74703
 O760 O 0.17898 0.71069 0.70154
 O761 O 0.18453 0.75267 0.81391
 O762 O 0.20639 0.79662 0.82359
 O763 O 0.26862 0.76477 0.66913
 O764 O 0.24829 0.71504 0.66661
 O765 O 0.33308 0.76187 0.74129
 O766 O 0.33285 0.74565 0.79114
 O767 O 0.26894 0.83420 0.73818
 O768 O 0.21846 0.83832 0.74959
 Zr769 Zr 0.23804 0.79773 0.73388
 O770 O 0.20852 0.77269 0.76179
 Zr771 Zr 0.29612 0.76651 0.76886
 O772 O 0.26946 0.73816 0.79600
 Zr773 Zr 0.26833 0.73490 0.70594
 O774 O 0.23798 0.70760 0.73042
 Zr775 Zr 0.22899 0.76002 0.80310
 O776 O 0.25648 0.79000 0.77766
 Zr777 Zr 0.19831 0.73110 0.74056
 O778 O 0.22666 0.75688 0.71157
 Zr779 Zr 0.25737 0.69790 0.77259
 O780 O 0.28842 0.72412 0.74763
 O781 O 0.27866 0.77651 0.72622
 O782 O 0.21695 0.71908 0.78229
 C783 C 0.25757 0.79130 0.66555
 C784 C 0.29529 0.83523 0.75022
 C785 C 0.33669 0.74986 0.71526
 C786 C 0.23832 0.69942 0.83967
 C787 C 0.16127 0.74395 0.79898
 C788 C 0.19765 0.66261 0.75788
 H789 H 0.19038 0.78488 0.76543
 H790 H 0.23365 0.68883 0.71868
 H791 H 0.29247 0.78904 0.71385
 H792 H 0.28007 0.73418 0.81533
 H793 H 0.26007 0.79994 0.83351
 H794 H 0.30612 0.77766 0.82594
 H795 H 0.19390 0.71331 0.68529
 H796 H 0.26296 0.71536 0.64982
 H797 H 0.20776 0.81380 0.80928
 H798 H 0.22550 0.84120 0.77075
 H799 H 0.27136 0.64156 0.75948
 H800 H 0.30227 0.68708 0.70646
 H801 H 0.19204 0.80149 0.69800
 H802 H 0.15707 0.77096 0.72905
 H803 H 0.33361 0.72446 0.78358
 H804 H 0.30255 0.69012 0.80981
 O805 O 0.26501 0.17784 0.18082
 O806 O 0.30874 0.16977 0.21020
 O807 O 0.19609 0.17021 0.24716
 O808 O 0.18420 0.19205 0.29058
 O809 O 0.19333 0.24320 0.18278
 O810 O 0.21776 0.28851 0.17773
 O811 O 0.26872 0.25311 0.33359
 O812 O 0.25264 0.20319 0.33391
 O813 O 0.33881 0.25684 0.26899
 O814 O 0.34595 0.24571 0.22075
 O815 O 0.26895 0.32372 0.26414
 O816 O 0.21784 0.32365 0.25022
 O817 O 0.24881 0.29582 0.31312
 O818 O 0.19944 0.30072 0.28366
 O819 O 0.31224 0.30578 0.24450
 O820 O 0.31970 0.27338 0.19445
 O821 O 0.31697 0.23542 0.31024
 O822 O 0.29288 0.18387 0.31319
 O823 O 0.24385 0.21939 0.15927
 O824 O 0.26318 0.27228 0.16247
 O825 O 0.17094 0.22230 0.22396
 O826 O 0.16914 0.23613 0.27740
 O827 O 0.23888 0.14981 0.22870
 O828 O 0.28999 0.15091 0.24876
 Zr829 Zr 0.26859 0.18793 0.22732
 O830 O 0.29597 0.21537 0.25582
 Zr831 Zr 0.20625 0.21615 0.25572
 O832 O 0.23082 0.24315 0.28704
 Zr833 Zr 0.23821 0.24938 0.19642
 O834 O 0.26266 0.27917 0.22514
 Zr835 Zr 0.27299 0.22413 0.29611
 O836 O 0.24640 0.19446 0.26862
 Zr837 Zr 0.30351 0.25872 0.23695
 O838 O 0.27996 0.22951 0.20629
 Zr839 Zr 0.24090 0.28519 0.26683
 O840 O 0.21427 0.25896 0.23626
 O841 O 0.22776 0.20725 0.21518
 O842 O 0.28256 0.26714 0.27815
 C843 C 0.25553 0.19279 0.15763
 C844 C 0.21130 0.14777 0.23699
 C845 C 0.17004 0.23403 0.19726
 C846 C 0.25905 0.28042 0.33577
 C847 C 0.33945 0.24739 0.29649
 C848 C 0.29560 0.32753 0.25404
 H849 H 0.31522 0.20499 0.25949
 H850 H 0.26548 0.29854 0.21411
 H851 H 0.21550 0.19441 0.20122
 H852 H 0.21924 0.24538 0.30586
 H853 H 0.24027 0.18600 0.32602
 H854 H 0.19439 0.19776 0.30980
 H855 H 0.31175 0.29398 0.19066
 H856 H 0.25303 0.26933 0.14254
 H857 H 0.31179 0.18031 0.30230
 H858 H 0.27947 0.14745 0.26810
 H859 H 0.22532 0.32775 0.22960
 H860 H 0.20473 0.29701 0.19357
 H861 H 0.31798 0.18592 0.19765
 H862 H 0.34614 0.22321 0.22098
 H863 H 0.16579 0.25607 0.26760
 H864 H 0.19509 0.28959 0.30260
 O865 O 0.73773 0.68382 0.30562
 O866 O 0.69171 0.67623 0.27855
 O867 O 0.80452 0.68213 0.24023
 O868 O 0.81513 0.70469 0.19647
 O869 O 0.80462 0.75349 0.30560
 O870 O 0.77957 0.79844 0.31052
 O871 O 0.72850 0.76147 0.15480
 O872 O 0.74401 0.71246 0.15330
 O873 O 0.65905 0.76305 0.22039
 O874 O 0.65257 0.74967 0.26794
 O875 O 0.72747 0.83158 0.22463
 O876 O 0.77758 0.83488 0.23741
 O877 O 0.74921 0.80452 0.17498
 O878 O 0.79809 0.81152 0.20571
 O879 O 0.68510 0.81184 0.24557
 O880 O 0.67853 0.77852 0.29483
 O881 O 0.68050 0.74297 0.17851
 O882 O 0.70571 0.69097 0.17575
 O883 O 0.75623 0.72716 0.32752
 O884 O 0.73491 0.77926 0.32613
 O885 O 0.82759 0.73407 0.26424
 O886 O 0.82883 0.74971 0.20990
 O887 O 0.76159 0.65965 0.25729
 O888 O 0.70955 0.65855 0.23823
 Zr889 Zr 0.73094 0.69594 0.26004
 O890 O 0.70250 0.72234 0.23237
 Zr891 Zr 0.79265 0.72736 0.23167
 O892 O 0.76691 0.75306 0.20080
 Zr893 Zr 0.76015 0.75847 0.29142
 O894 O 0.73512 0.78733 0.26330
 Zr895 Zr 0.72484 0.73240 0.19204
 O896 O 0.75276 0.70390 0.21875
 Zr897 Zr 0.69459 0.76513 0.25194
 O898 O 0.71886 0.73663 0.28200
 Zr899 Zr 0.75642 0.79452 0.22147
 O900 O 0.78393 0.76959 0.25173
 O901 O 0.77131 0.71722 0.27188
 O902 O 0.71490 0.77484 0.21057
 C903 C 0.74750 0.69916 0.32855
 C904 C 0.78945 0.65910 0.24991
 C905 C 0.82799 0.74467 0.29152
 C906 C 0.73878 0.78872 0.15251
 C907 C 0.65811 0.75426 0.19270
 C908 C 0.70122 0.83423 0.23589
 H909 H 0.68337 0.71122 0.22877
 H910 H 0.73219 0.80645 0.27467
 H911 H 0.78415 0.70482 0.28536
 H912 H 0.77833 0.75581 0.18190
 H913 H 0.75806 0.69678 0.16072
 H914 H 0.80402 0.70920 0.17753
 H915 H 0.68634 0.79930 0.29900
 H916 H 0.74533 0.77620 0.34586
 H917 H 0.68547 0.68836 0.18444
 H918 H 0.72045 0.65508 0.21915
 H919 H 0.77240 0.83694 0.25902
 H920 H 0.79325 0.80710 0.29518
 H921 H 0.68353 0.69145 0.29270
 H922 H 0.65372 0.72723 0.26906
 H923 H 0.83327 0.76856 0.22149
 H924 H 0.80270 0.80092 0.18656
 O925 O 0.75171 0.29801 0.82690
 O926 O 0.80049 0.30116 0.80252
 O927 O 0.69261 0.31299 0.75029
 O928 O 0.68158 0.29051 0.70660
 O929 O 0.67653 0.24224 0.81646
 O930 O 0.69353 0.19118 0.81942
 O931 O 0.76124 0.22101 0.67432
 O932 O 0.74927 0.27470 0.67255
 O933 O 0.82739 0.21941 0.74753
 O934 O 0.82793 0.22546 0.79828
 O935 O 0.75245 0.15472 0.73641
 O936 O 0.70144 0.15812 0.75946
 O937 O 0.73269 0.18215 0.69273
 O938 O 0.68397 0.18080 0.71712
 O939 O 0.79599 0.17123 0.75861
 O940 O 0.79751 0.19450 0.81527
 O941 O 0.81062 0.23917 0.70297
 O942 O 0.79203 0.28811 0.69337
 O943 O 0.72604 0.25672 0.84430
 O944 O 0.73858 0.20333 0.84260
 O945 O 0.66052 0.26573 0.77326
 O946 O 0.65979 0.24884 0.72033
 O947 O 0.73555 0.32858 0.77428
 O948 O 0.78690 0.32461 0.76505
 Zr949 Zr 0.75983 0.28817 0.78064
 O950 O 0.78618 0.25954 0.75402
 Zr951 Zr 0.69780 0.26591 0.74442
 O952 O 0.72158 0.23626 0.71625
 Zr953 Zr 0.72033 0.22899 0.80620
 O954 O 0.74514 0.19772 0.78066
 Zr955 Zr 0.76594 0.25183 0.71124
 O956 O 0.74118 0.28382 0.73664
 Zr957 Zr 0.78815 0.21596 0.77334
 O958 O 0.76461 0.24575 0.80199
 Zr959 Zr 0.72551 0.19368 0.73764
 O960 O 0.69876 0.22244 0.76412
 O961 O 0.71649 0.27235 0.78727
 O962 O 0.76943 0.20898 0.73047
 C963 C 0.73908 0.28256 0.84821
 C964 C 0.71006 0.33369 0.76150
 C965 C 0.65661 0.25580 0.80029
 C966 C 0.74698 0.19539 0.67138
 C967 C 0.83147 0.22876 0.72034
 C968 C 0.77984 0.15112 0.74463
 H969 H 0.80628 0.26918 0.75262
 H970 H 0.74588 0.17772 0.79090
 H971 H 0.70502 0.28685 0.79969
 H972 H 0.71119 0.23480 0.69640
 H973 H 0.73971 0.29356 0.67983
 H974 H 0.69135 0.28219 0.68843
 H975 H 0.79269 0.17256 0.81304
 H976 H 0.72561 0.20559 0.86058
 H977 H 0.80525 0.29595 0.70979
 H978 H 0.78168 0.32739 0.74339
 H979 H 0.70272 0.13935 0.74705
 H980 H 0.67846 0.18750 0.80315
 H981 H 0.80446 0.28573 0.81834
 H982 H 0.83144 0.24768 0.79683
 H983 H 0.65291 0.23023 0.73093
 H984 H 0.67988 0.19496 0.70023
 C985 C 0.07241 0.99955 1.22028
 C986 C 0.10251 0.98963 1.21986
 C987 C 0.11603 0.98546 1.19148
 C988 C 0.10023 0.99104 1.16450
 C989 C 0.07005 1.00050 1.16534
 C990 C 0.05629 1.00438 1.19340
 C991 C 0.05437 1.00635 1.13813
 C992 C 0.06868 1.00293 1.11010
 C993 C 0.09896 0.99394 1.10983
 C994 C 0.11449 0.98799 1.13666
 H995 H 0.13946 0.97912 1.19048
 H996 H 0.03331 1.01210 1.19459
 H997 H 0.03110 1.01323 1.13880
 H998 H 0.13771 0.98099 1.13561
 H999 H 0.06148 1.00499 1.24129
 H1000 H 0.11079 0.99112 1.08873
 C1001 C 0.57589 0.48512 0.72081
 C1002 C 0.60667 0.49313 0.72214
 C1003 C 0.62184 0.49712 0.69444
 C1004 C 0.60621 0.49694 0.66673
 C1005 C 0.57491 0.49169 0.66620
 C1006 C 0.56009 0.48512 0.69328
 C1007 C 0.55904 0.49285 0.63860
 C1008 C 0.57419 0.49874 0.61138
 C1009 C 0.60550 0.50299 0.61208
 C1010 C 0.62136 0.50226 0.63954
 H1011 H 0.64591 0.50108 0.69457
 H1012 H 0.53625 0.47991 0.69317
 H1013 H 0.53495 0.48902 0.63827
 H1014 H 0.64543 0.50615 0.63953
 H1015 H 0.56376 0.47888 0.74096
 H1016 H 0.61765 0.50752 0.59143
 C1017 C 0.42655 -0.00733 0.73112
 C1018 C 0.39488 -0.00326 0.72638
 C1019 C 0.38244 0.00074 0.69760
 C1020 C 0.40062 0.00054 0.67234
 C1021 C 0.43195 -0.00352 0.67559
 C1022 C 0.44463 -0.00719 0.70494
 C1023 C 0.44957 -0.00524 0.64920
 C1024 C 0.43600 -0.00249 0.62021
 C1025 C 0.40487 0.00210 0.61803
 C1026 C 0.38744 0.00361 0.64373
 H1027 H 0.35839 0.00359 0.69501
 H1028 H 0.46822 -0.01246 0.70741
 H1029 H 0.47356 -0.00869 0.65120
 H1030 H 0.36344 0.00678 0.64116
 H1031 H 0.43860 -0.02331 0.75375
 H1032 H 0.39366 0.00418 0.59626
 C1033 C -0.08430 0.52575 1.22220
 C1034 C -0.10550 0.50213 1.22692
 C1035 C -0.11319 0.48327 1.20197
 C1036 C -0.09804 0.48565 1.17457
 C1037 C -0.07505 0.50773 1.17122
 C1038 C -0.06865 0.52798 1.19501
 C1039 C -0.05948 0.50958 1.14383
 C1040 C -0.06741 0.49017 1.11975
 C1041 C -0.09074 0.46885 1.12296
 C1042 C -0.10581 0.46637 1.15033
 H1043 H -0.13135 0.46677 1.20349
 H1044 H -0.05178 0.54574 1.19249
 H1045 H -0.04176 0.52643 1.14095
 H1046 H -0.12360 0.44951 1.15249
 H1047 H -0.07945 0.54225 1.23985
 H1048 H -0.09711 0.45400 1.10430
 C1049 C -0.07157 0.50077 0.28592
 C1050 C -0.10318 0.50320 0.28578
 C1051 C -0.11758 0.50690 0.31384
 C1052 C -0.10104 0.51114 0.34064
 C1053 C -0.06939 0.51036 0.34006
 C1054 C -0.05490 0.50477 0.31266
 C1055 C -0.05285 0.51411 0.36707
 C1056 C -0.06770 0.51799 0.39471
 C1057 C -0.09922 0.51917 0.39489
 C1058 C -0.11574 0.51593 0.36807
 H1059 H -0.14191 0.50720 0.31454
 H1060 H -0.03066 0.50315 0.31194
 H1061 H -0.02857 0.51266 0.36677
 H1062 H -0.14003 0.51668 0.36885
 H1063 H -0.05948 0.49529 0.26560
 H1064 H -0.11113 0.52212 0.41592
 C1065 C 0.42846 0.99621 -0.22580
 C1066 C 0.39725 1.00090 -0.21944
 C1067 C 0.38784 1.01192 -0.19157
 C1068 C 0.40855 1.01745 -0.16853
 C1069 C 0.43938 1.01169 -0.17302
 C1070 C 0.44908 1.00156 -0.20172
 C1071 C 0.45935 1.01416 -0.14801
 C1072 C 0.44834 1.02207 -0.11922
 C1073 C 0.41806 1.02986 -0.11618
 C1074 C 0.39838 1.02760 -0.14055
 H1075 H 0.36418 1.01591 -0.18783
 H1076 H 0.47234 0.99549 -0.20482
 H1077 H 0.48276 1.00828 -0.15048
 H1078 H 0.37488 1.03266 -0.13718
 H1079 H 0.40929 1.03674 -0.09445
 C1080 C 0.58086 0.51868 -0.21858
 C1081 C 0.60692 0.50071 -0.21881
 C1082 C 0.61885 0.49128 -0.19057
 C1083 C 0.60350 0.49628 -0.16362
 C1084 C 0.57570 0.51132 -0.16437
 C1085 C 0.56489 0.52303 -0.19186
 C1086 C 0.55944 0.51459 -0.13756
 C1087 C 0.57126 0.50389 -0.11000
 C1088 C 0.59958 0.49033 -0.10923
 C1089 C 0.61548 0.48624 -0.13593
 H1090 H 0.64020 0.47973 -0.18953
 H1091 H 0.54423 0.53580 -0.19264
 H1092 H 0.53773 0.52551 -0.13803
 H1093 H 0.63697 0.47495 -0.13497
 H1094 H 0.57254 0.52924 -0.23906
 H1095 H 0.60891 0.48199 -0.08809
 C1096 C 0.08136 -0.03391 0.28207
 C1097 C 0.10462 -0.01214 0.27845
 C1098 C 0.11265 0.00626 0.30358
 C1099 C 0.09768 0.00326 0.33115
 C1100 C 0.07380 -0.01795 0.33386
 C1101 C 0.06584 -0.03643 0.30920
 C1102 C 0.05834 -0.02040 0.36122
 C1103 C 0.06689 -0.00230 0.38616
 C1104 C 0.09127 0.01809 0.38352
 C1105 C 0.10639 0.02101 0.35618
 H1106 H 0.13097 0.02257 0.30224
 H1107 H 0.04776 -0.05304 0.31095
 H1108 H 0.03975 -0.03641 0.36314
 H1109 H 0.12481 0.03724 0.35459
 H1110 H 0.07474 -0.04879 0.26361
 H1111 H 0.09817 0.03239 0.40239
 C1112 C 0.22774 1.07165 0.98543
 C1113 C 0.23018 1.10296 0.99307
 C1114 C 0.20333 1.11757 1.00153
 C1115 C 0.17612 1.10160 1.00419
 C1116 C 0.17486 1.07014 0.99802
 C1117 C 0.20082 1.05539 0.98870
 C1118 C 0.14730 1.05441 0.99953
 C1119 C 0.12085 1.07010 1.00614
 C1120 C 0.12240 1.10140 1.01251
 C1121 C 0.14985 1.11697 1.01184
 H1122 H 0.20305 1.14187 1.00503
 H1123 H 0.20002 1.03150 0.98258
 H1124 H 0.14619 1.03035 0.99409
 H1125 H 0.15041 1.14117 1.01660
 H1126 H 0.24594 1.05979 0.97484
 H1127 H 0.10228 1.11389 1.01775
 C1128 C 0.72359 0.58099 0.48277
 C1129 C 0.72401 0.61102 0.49423
 C1130 C 0.69621 0.62442 0.50098
 C1131 C 0.66960 0.60723 0.50068
 C1132 C 0.67010 0.57627 0.49215
 C1133 C 0.69707 0.56360 0.48244
 C1134 C 0.64355 0.55874 0.49315
 C1135 C 0.61648 0.57210 0.50195
 C1136 C 0.61619 0.60312 0.50968
 C1137 C 0.64255 0.62050 0.50923
 H1138 H 0.69550 0.64815 0.50762
 H1139 H 0.69769 0.54023 0.47465
 H1140 H 0.64382 0.53495 0.48662
 H1141 H 0.64179 0.64427 0.51571
 H1142 H 0.74378 0.57064 0.47440
 H1143 H 0.59555 0.61387 0.51647
 C1144 C 0.72438 0.43096 0.01024
 C1145 C 0.71834 0.40031 0.00021
 C1146 C 0.69074 0.39157 -0.01255
 C1147 C 0.66704 0.41162 -0.01327
 C1148 C 0.67096 0.44162 -0.00225
 C1149 C 0.69981 0.45128 0.00841
 C1150 C 0.64531 0.46030 -0.00006
 C1151 C 0.61649 0.44853 -0.00796
 C1152 C 0.61384 0.41912 -0.02003
 C1153 C 0.63885 0.40099 -0.02297
 H1154 H 0.68714 0.36822 -0.01979
 H1155 H 0.70248 0.47371 0.01835
 H1156 H 0.64746 0.48311 0.00913
 H1157 H 0.63589 0.37806 -0.03169
 H1158 H 0.74414 0.43964 0.03189
 H1159 H 0.59213 0.40993 -0.02695
 C1160 C 0.21928 -0.06791 0.49090
 C1161 C 0.21918 -0.09864 0.50009
 C1162 C 0.19124 -0.11414 0.50135
 C1163 C 0.16422 -0.09889 0.49734
 C1164 C 0.16457 -0.06759 0.49050
 C1165 C 0.19221 -0.05245 0.48661
 C1166 C 0.13729 -0.05205 0.48798
 C1167 C 0.10974 -0.06747 0.49265
 C1168 C 0.10988 -0.09887 0.49859
 C1169 C 0.13686 -0.11445 0.50080
 H1170 H 0.19060 -0.13825 0.50654
 H1171 H 0.19289 -0.02861 0.48039
 H1172 H 0.13762 -0.02786 0.48321
 H1173 H 0.13635 -0.13858 0.50588
 H1174 H 0.24002 -0.05576 0.48667
 H1175 H 0.08911 -0.11140 0.50202
 C1176 C 0.27980 -0.07199 0.52714
 C1177 C 0.27765 -0.10033 0.51224
 C1178 C 0.30471 -0.11535 0.50551
 C1179 C 0.33252 -0.10089 0.50903
 C1180 C 0.33413 -0.07123 0.52109
 C1181 C 0.30772 -0.05728 0.53091
 C1182 C 0.36206 -0.05614 0.52287
 C1183 C 0.38827 -0.07040 0.51245
 C1184 C 0.38629 -0.10041 0.50155
 C1185 C 0.35868 -0.11554 0.49993
 H1186 H 0.30412 -0.13833 0.49658
 H1187 H 0.30863 -0.03494 0.54132
 H1188 H 0.36322 -0.03313 0.53171
 H1189 H 0.35769 -0.13846 0.49085
 H1190 H 0.26000 -0.06106 0.53573
 H1191 H 0.40599 -0.11206 0.49359
 C1192 C -0.23295 0.42791 1.01672
 C1193 C -0.22925 0.39594 1.01114
 C1194 C -0.20098 0.38358 1.00627
 C1195 C -0.17541 0.40163 1.00729
 C1196 C -0.17748 0.43317 1.01281
 C1197 C -0.20624 0.44602 1.01764
 C1198 C -0.15055 0.45073 1.01397
 C1199 C -0.12237 0.43675 1.00915
 C1200 C -0.12158 0.40532 1.00356
 C1201 C -0.14769 0.38805 1.00261
 H1202 H -0.19895 0.35982 1.00027
 H1203 H -0.20789 0.46979 1.02382
 H1204 H -0.15153 0.47498 1.01826
 H1205 H -0.14614 0.36382 0.99830
 H1206 H -0.10058 0.39374 0.99995
 C1207 C -0.21728 0.58467 0.51766
 C1208 C -0.21785 0.61163 0.50026
 C1209 C -0.19011 0.62347 0.48999
 C1210 C -0.16330 0.60754 0.49458
 C1211 C -0.16389 0.57917 0.50957
 C1212 C -0.19093 0.56813 0.52133
 C1213 C -0.13732 0.56260 0.51304
 C1214 C -0.10996 0.57464 0.50279
 C1215 C -0.10928 0.60343 0.48907
 C1216 C -0.13581 0.61962 0.48466
 H1217 H -0.18924 0.64539 0.47883
 H1218 H -0.19160 0.54698 0.53389
 H1219 H -0.13781 0.54052 0.52399
 H1220 H -0.13485 0.64150 0.47341
 H1221 H -0.23736 0.57615 0.52846
 H1222 H -0.08831 0.61294 0.48095
 C1223 C 0.29387 1.07712 0.00148
 C1224 C 0.28960 1.10573 -0.01262
 C1225 C 0.31580 1.12105 -0.02296
 C1226 C 0.34424 1.10758 -0.02135
 C1227 C 0.34704 1.07806 -0.00938
 C1228 C 0.32179 1.06312 0.00210
 C1229 C 0.37524 1.06435 -0.00795
 C1230 C 0.40107 1.08011 -0.01747
 C1231 C 0.39840 1.10987 -0.02859
 C1232 C 0.37011 1.12339 -0.03086
 H1233 H 0.31451 1.14400 -0.03141
 H1234 H 0.32384 1.04102 0.01274
 H1235 H 0.37721 1.04156 0.00123
 H1236 H 0.36848 1.14624 -0.03987
 H1237 H 0.27626 1.06587 0.01390
 H1238 H 0.41807 1.12237 -0.03605
 C1239 C -0.00415 1.22594 1.07937
 C1240 C 0.00582 1.22483 1.10995
 C1241 C 0.01602 1.19634 1.12067
 C1242 C 0.01806 1.17102 1.10174
 C1243 C 0.00945 1.17327 1.07104
 C1244 C -0.00154 1.20088 1.06005
 C1245 C 0.01023 1.14736 1.05246
 C1246 C 0.01850 1.11913 1.06470
 C1247 C 0.02737 1.11726 1.09522
 C1248 C 0.02745 1.14307 1.11352
 H1249 H 0.02134 1.19312 1.14433
 H1250 H -0.00953 1.20269 1.03686
 H1251 H 0.00291 1.14878 1.02900
 H1252 H 0.03411 1.14099 1.13710
 H1253 H -0.01617 1.24530 1.07063
 H1254 H 0.03393 1.09569 1.10499
 C1255 C 0.49679 0.72200 0.58086
 C1256 C 0.50364 0.72083 0.61224
 C1257 C 0.51069 0.69197 0.62444
 C1258 C 0.51165 0.66588 0.60653
 C1259 C 0.50584 0.66788 0.57521
 C1260 C 0.49876 0.69612 0.56252
 C1261 C 0.50561 0.64134 0.55754
 C1262 C 0.51021 0.61281 0.57117
 C1263 C 0.51601 0.61116 0.60240
 C1264 C 0.51700 0.63752 0.61991
 H1265 H 0.51360 0.68903 0.64850
 H1266 H 0.49306 0.69787 0.53867
 H1267 H 0.50084 0.64273 0.53345
 H1268 H 0.52141 0.63566 0.64401
 H1269 H 0.48725 0.74197 0.57054
 H1270 H 0.51994 0.58947 0.61328
 C1271 C -0.01566 0.69076 0.36588
 C1272 C -0.00778 0.71729 0.38265
 C1273 C 0.00128 0.71282 0.41324
 C1274 C -0.00109 0.68406 0.42711
 C1275 C -0.01041 0.65855 0.40986
 C1276 C -0.01730 0.66213 0.37925
 C1277 C -0.01184 0.62964 0.42322
 C1278 C -0.00463 0.62584 0.45398
 C1279 C 0.00393 0.65144 0.47131
 C1280 C 0.00603 0.68025 0.45791
 H1281 H 0.01138 0.73122 0.42618
 H1282 H -0.02372 0.64267 0.36543
 H1283 H -0.01856 0.61007 0.40966
 H1284 H 0.01320 0.69952 0.47163
 H1285 H -0.02014 0.69155 0.34192
 H1286 H 0.00981 0.64904 0.49504
 C1287 C 0.48638 1.23577 -0.08342
 C1288 C 0.49453 1.23625 -0.11432
 C1289 C 0.50326 1.20827 -0.12734
 C1290 C 0.50589 1.18177 -0.11018
 C1291 C 0.49880 1.18224 -0.07923
 C1292 C 0.48901 1.20932 -0.06605
 C1293 C 0.50066 1.15538 -0.06227
 C1294 C 0.50953 1.12796 -0.07597
 C1295 C 0.51679 1.12792 -0.10684
 C1296 C 0.51494 1.15458 -0.12380
 H1297 H 0.50728 1.20653 -0.15129
 H1298 H 0.48252 1.20986 -0.04248
 H1299 H 0.49491 1.15586 -0.03849
 H1300 H 0.52042 1.15390 -0.14764
 H1301 H 0.47628 1.25522 -0.07279
 H1302 H 0.52363 1.10722 -0.11802
 C1303 C 0.47450 0.32060 -0.13558
 C1304 C 0.48783 0.29595 -0.11992
 C1305 C 0.50362 0.30300 -0.09276
 C1306 C 0.50617 0.33294 -0.08202
 C1307 C 0.49217 0.35684 -0.09787
 C1308 C 0.47612 0.35033 -0.12446
 C1309 C 0.49474 0.38685 -0.08701
 C1310 C 0.51124 0.39317 -0.06039
 C1311 C 0.52581 0.36917 -0.04532
 C1312 C 0.52326 0.33941 -0.05598
 H1313 H 0.51608 0.28571 -0.08082
 H1314 H 0.46550 0.36839 -0.13721
 H1315 H 0.48333 0.40505 -0.09884
 H1316 H 0.53450 0.32141 -0.04371
 H1317 H 0.46329 0.31741 -0.15712
 H1318 H 0.53884 0.37329 -0.02483
 C1319 C -0.01885 -0.22146 0.41540
 C1320 C -0.00540 -0.22223 0.38646
 C1321 C 0.00480 -0.19389 0.37481
 C1322 C 0.00432 -0.16703 0.39204
 C1323 C -0.00679 -0.16768 0.42176
 C1324 C -0.01865 -0.19497 0.43309
 C1325 C -0.00682 -0.14079 0.43915
 C1326 C 0.00319 -0.11306 0.42663
 C1327 C 0.01350 -0.11258 0.39673
 C1328 C 0.01439 -0.13936 0.37969
 H1329 H 0.01270 -0.19206 0.35196
 H1330 H -0.02861 -0.19566 0.45535
 H1331 H -0.01534 -0.14124 0.46204
 H1332 H 0.02278 -0.13839 0.35677
 H1333 H -0.03069 -0.24101 0.42431
 H1334 H 0.02129 -0.09149 0.38666
 C1335 C 0.48252 -0.19659 0.64021
 C1336 C 0.49518 -0.21978 0.62208
 C1337 C 0.50953 -0.21021 0.59524
 C1338 C 0.50902 -0.17972 0.58590
 C1339 C 0.49496 -0.15758 0.60393
 C1340 C 0.48197 -0.16629 0.63111
 C1341 C 0.49422 -0.12709 0.59451
 C1342 C 0.50673 -0.11883 0.56679
 C1343 C 0.52109 -0.14084 0.54916
 C1344 C 0.52256 -0.17097 0.55878
 H1345 H 0.52288 -0.22582 0.58231
 H1346 H 0.47168 -0.14957 0.64565
 H1347 H 0.48288 -0.11016 0.60798
 H1348 H 0.53361 -0.18753 0.54467
 H1349 H 0.47348 -0.20118 0.66219
 H1350 H 0.53083 -0.13472 0.52759
 C1351 C -0.00947 0.30830 1.13946
 C1352 C -0.00032 0.28414 1.12049
 C1353 C 0.01043 0.29246 1.09155
 C1354 C 0.00707 0.32215 1.08037
 C1355 C -0.00427 0.34513 1.09927
 C1356 C -0.01174 0.33808 1.12899
 C1357 C -0.00758 0.37484 1.08828
 C1358 C -0.00075 0.38155 1.05813
 C1359 C 0.01030 0.35856 1.03929
 C1360 C 0.01469 0.32921 1.05046
 H1361 H 0.02227 0.27644 1.07767
 H1362 H -0.01946 0.35561 1.14425
 H1363 H -0.01614 0.39253 1.10289
 H1364 H 0.02344 0.31192 1.03555
 H1365 H -0.01451 0.30487 1.16290
 H1366 H 0.01595 0.36346 1.01598
 C1367 C 0.71379 0.36488 0.05377
 C1368 C 0.73662 0.35732 0.03300
 C1369 C 0.75727 0.33479 0.04190
 C1370 C 0.75748 0.32324 0.07158
 C1371 C 0.73570 0.33284 0.09240
 C1372 C 0.71331 0.35270 0.08287
 C1373 C 0.73686 0.32279 0.12254
 C1374 C 0.75954 0.30301 0.13225
 C1375 C 0.78088 0.29315 0.11120
 C1376 C 0.77988 0.30318 0.08118
 H1377 H 0.77423 0.32735 0.02635
 H1378 H 0.69610 0.35994 0.09838
 H1379 H 0.71992 0.33012 0.13833
 H1380 H 0.79682 0.29552 0.06559
 H1381 H 0.69693 0.38162 0.04861
 H1382 H 0.79847 0.27768 0.11796
 C1383 C 0.22826 0.87983 0.56049
 C1384 C 0.24310 0.86478 0.53651
 C1385 C 0.25860 0.83782 0.54381
 C1386 C 0.25841 0.82616 0.57372
 C1387 C 0.24267 0.84151 0.59672
 C1388 C 0.22747 0.86810 0.58968
 C1389 C 0.24282 0.83051 0.62664
 C1390 C 0.25859 0.80410 0.63426
 C1391 C 0.27435 0.78896 0.61121
 C1392 C 0.27429 0.79986 0.58137
 H1393 H 0.27176 0.82664 0.52669
 H1394 H 0.21574 0.88054 0.60705
 H1395 H 0.23047 0.84245 0.64392
 H1396 H 0.28668 0.78770 0.56430
 H1397 H 0.21785 0.90170 0.55712
 H1398 H 0.28675 0.76848 0.61616
 C1399 C 0.76960 0.67661 0.53017
 C1400 C 0.75308 0.64914 0.52707
 C1401 C 0.73957 0.63697 0.55329
 C1402 C 0.73938 0.65326 0.58048
 C1403 C 0.75371 0.68204 0.58232
 C1404 C 0.76918 0.69329 0.55716
 C1405 C 0.75314 0.69847 0.60962
 C1406 C 0.73936 0.68580 0.63520
 C1407 C 0.72564 0.65697 0.63325
 C1408 C 0.72533 0.64095 0.60600
 H1409 H 0.72908 0.61462 0.55266
 H1410 H 0.78126 0.71480 0.55847
 H1411 H 0.76436 0.72045 0.61136
 H1412 H 0.71443 0.61879 0.60498
 H1413 H 0.78257 0.68546 0.51151
 H1414 H 0.71517 0.64687 0.65292
 C1415 C 0.24976 0.17486 0.01640
 C1416 C 0.26099 0.14481 0.01573
 C1417 C 0.26888 0.13187 0.04406
 C1418 C 0.26614 0.14761 0.07141
 C1419 C 0.25515 0.17749 0.07167
 C1420 C 0.24734 0.19105 0.04387
 C1421 C 0.25138 0.19260 0.09976
 C1422 C 0.25854 0.17780 0.12738
 C1423 C 0.26961 0.14796 0.12620
 C1424 C 0.27337 0.13313 0.09869
 H1425 H 0.27568 0.10848 0.04545
 H1426 H 0.23815 0.21377 0.04346
 H1427 H 0.24286 0.21559 0.10009
 H1428 H 0.28178 0.11008 0.09879
 H1429 H 0.24048 0.18527 -0.00368
 H1430 H 0.27543 0.13577 0.14669
 C1431 C 0.24383 0.11802 0.93135
 C1432 C 0.25490 0.13700 0.95517
 C1433 C 0.26571 0.16623 0.94657
 C1434 C 0.26394 0.17619 0.91609
 C1435 C 0.25145 0.15689 0.89353
 C1436 C 0.24150 0.12793 0.90152
 C1437 C 0.24975 0.16644 0.86313
 C1438 C 0.26066 0.19524 0.85458
 C1439 C 0.27339 0.21428 0.87723
 C1440 C 0.27499 0.20489 0.90755
 H1441 H 0.27698 0.18075 0.96299
 H1442 H 0.23254 0.11244 0.88447
 H1443 H 0.23999 0.15135 0.84616
 H1444 H 0.28486 0.22013 0.92430
 H1445 H 0.23730 0.09474 0.93508
 H1446 H 0.28203 0.23668 0.87161
 C1447 C 0.74023 0.67928 0.46712
 C1448 C 0.75262 0.64982 0.46812
 C1449 C 0.76016 0.63604 0.44034
 C1450 C 0.75706 0.65164 0.41284
 C1451 C 0.74652 0.68182 0.41265
 C1452 C 0.73811 0.69538 0.43992
 C1453 C 0.74376 0.69756 0.38508
 C1454 C 0.75030 0.68298 0.35765
 C1455 C 0.76009 0.65272 0.35804
 C1456 C 0.76378 0.63728 0.38542
 H1457 H 0.76786 0.61273 0.44013
 H1458 H 0.72902 0.71815 0.44011
 H1459 H 0.73588 0.72082 0.38486
 H1460 H 0.77169 0.61406 0.38512
 H1461 H 0.73147 0.68989 0.48721
 H1462 H 0.76546 0.64118 0.33712
 C1463 C 0.26068 0.88238 0.45076
 C1464 C 0.25051 0.86517 0.47588
 C1465 C 0.24054 0.83504 0.47048
 C1466 C 0.24153 0.82258 0.44089
 C1467 C 0.25245 0.84033 0.41652
 C1468 C 0.26202 0.87013 0.42184
 C1469 C 0.25328 0.82830 0.38701
 C1470 C 0.24321 0.79852 0.38114
 C1471 C 0.23224 0.78098 0.40554
 C1472 C 0.23142 0.79285 0.43499
 H1473 H 0.23126 0.82168 0.48878
 H1474 H 0.27014 0.88424 0.40349
 H1475 H 0.26177 0.84218 0.36864
 H1476 H 0.22285 0.77874 0.45312
 H1477 H 0.26750 0.90596 0.45354
 H1478 H 0.22426 0.75787 0.40197
 C1479 C 0.75595 0.37878 0.94906
 C1480 C 0.74628 0.36107 0.97397
 C1481 C 0.73758 0.33060 0.96866
 C1482 C 0.73852 0.31839 0.93915
 C1483 C 0.74863 0.33661 0.91479
 C1484 C 0.75751 0.36665 0.92010
 C1485 C 0.74909 0.32482 0.88528
 C1486 C 0.73914 0.29501 0.87945
 C1487 C 0.72911 0.27696 0.90381
 C1488 C 0.72892 0.28848 0.93334
 H1489 H 0.72908 0.31678 0.98701
 H1490 H 0.76504 0.38106 0.90172
 H1491 H 0.75677 0.33907 0.86683
 H1492 H 0.72101 0.27408 0.95155
 H1493 H 0.76195 0.40256 0.95200
 H1494 H 0.72141 0.25377 0.90013
 C1495 C 0.88375 0.44251 0.25915
 C1496 C 0.86363 0.46721 0.26014
 C1497 C 0.83278 0.46046 0.26342
 C1498 C 0.82221 0.43018 0.26159
 C1499 C 0.84279 0.40604 0.25919
 C1500 C 0.87353 0.41247 0.25885
 C1501 C 0.83233 0.37588 0.25663
 C1502 C 0.80142 0.36954 0.25526
 C1503 C 0.78105 0.39364 0.25759
 C1504 C 0.79134 0.42363 0.26117
 H1505 H 0.81676 0.47840 0.26670
 H1506 H 0.88968 0.39429 0.25729
 H1507 H 0.84820 0.35745 0.25482
 H1508 H 0.77514 0.44174 0.26292
 H1509 H 0.90767 0.44661 0.25738
 H1510 H 0.75708 0.38923 0.25701
 C1511 C 0.32468 0.97518 0.75886
 C1512 C 0.35643 0.97014 0.75619
 C1513 C 0.36824 0.94136 0.75153
 C1514 C 0.34942 0.91617 0.74956
 C1515 C 0.31797 0.91948 0.75196
 C1516 C 0.30590 0.94893 0.75658
 C1517 C 0.29964 0.89294 0.75132
 C1518 C 0.31283 0.86389 0.74880
 C1519 C 0.34400 0.86168 0.74563
 C1520 C 0.36206 0.88751 0.74581
 H1521 H 0.39230 0.93873 0.74941
 H1522 H 0.28212 0.95131 0.76070
 H1523 H 0.27555 0.89474 0.75383
 H1524 H 0.38613 0.88497 0.74368
 H1525 H 0.31278 0.99810 0.77513
 H1526 H 0.35455 0.83973 0.74312
 C1527 C 0.17349 0.96681 0.25864
 C1528 C 0.14279 0.96146 0.24920
 C1529 C 0.13250 0.93238 0.24122
 C1530 C 0.15076 0.90723 0.24546
 C1531 C 0.18063 0.91093 0.25612
 C1532 C 0.19193 0.94078 0.26174
 C1533 C 0.19790 0.88452 0.26217
 C1534 C 0.18529 0.85499 0.25767
 C1535 C 0.15555 0.85258 0.24665
 C1536 C 0.13871 0.87820 0.24045
 H1537 H 0.10966 0.92916 0.23309
 H1538 H 0.21425 0.94376 0.27133
 H1539 H 0.22081 0.88693 0.27040
 H1540 H 0.11581 0.87521 0.23229
 H1541 H 0.18315 0.98978 0.27621
 H1542 H 0.14492 0.83062 0.24270
 C1543 C 0.61912 0.43817 0.76188
 C1544 C 0.63870 0.46250 0.75423
 C1545 C 0.66876 0.45545 0.74742
 C1546 C 0.67944 0.42559 0.75141
 C1547 C 0.65934 0.40199 0.75979
 C1548 C 0.62921 0.40849 0.76453
 C1549 C 0.66957 0.37214 0.76315
 C1550 C 0.69995 0.36548 0.75928
 C1551 C 0.72013 0.38905 0.75178
 C1552 C 0.70988 0.41880 0.74742
 H1553 H 0.68390 0.47279 0.73899
 H1554 H 0.61343 0.39065 0.77072
 H1555 H 0.65392 0.35406 0.76907
 H1556 H 0.72577 0.43649 0.74115
 H1557 H 0.59565 0.44224 0.76625
 H1558 H 0.74366 0.38426 0.74844
 C1559 C 0.67420 0.52374 0.76771
 C1560 C 0.64678 0.52256 0.75135
 C1561 C 0.63602 0.55022 0.73916
 C1562 C 0.65266 0.57732 0.74132
 C1563 C 0.68109 0.57747 0.75567
 C1564 C 0.69164 0.55053 0.76887
 C1565 C 0.69784 0.60481 0.75745
 C1566 C 0.68567 0.63203 0.74621
 C1567 C 0.65701 0.63168 0.73278
 C1568 C 0.64079 0.60448 0.72997
 H1569 H 0.61391 0.55100 0.72874
 H1570 H 0.71288 0.55045 0.78107
 H1571 H 0.71984 0.60515 0.76819
 H1572 H 0.61883 0.60475 0.71916
 H1573 H 0.68198 0.50429 0.78038
 H1574 H 0.64741 0.65244 0.72393
 C1575 C 0.17480 0.01024 0.25562
 C1576 C 0.14399 0.01579 0.24740
 C1577 C 0.13496 0.04409 0.23643
 C1578 C 0.15549 0.06788 0.23350
 C1579 C 0.18586 0.06406 0.24222
 C1580 C 0.19526 0.03516 0.25294
 C1581 C 0.20539 0.08990 0.24195
 C1582 C 0.19431 0.11874 0.23314
 C1583 C 0.16454 0.12098 0.22279
 C1584 C 0.14540 0.09593 0.22293
 H1585 H 0.11161 0.04777 0.23055
 H1586 H 0.21794 0.03252 0.26153
 H1587 H 0.22836 0.08798 0.25000
 H1588 H 0.12226 0.09881 0.21573
 H1589 H 0.15567 0.14265 0.21542
 C1590 C 0.32344 0.01789 0.75737
 C1591 C 0.35494 0.02439 0.75283
 C1592 C 0.36567 0.05332 0.74592
 C1593 C 0.34621 0.07752 0.74401
 C1594 C 0.31504 0.07308 0.74834
 C1595 C 0.30395 0.04324 0.75459
 C1596 C 0.29613 0.09894 0.74765
 C1597 C 0.30851 0.12833 0.74227
 C1598 C 0.33965 0.13135 0.73794
 C1599 C 0.35813 0.10639 0.73865
 H1600 H 0.38957 0.05692 0.74270
 H1601 H 0.28048 0.04007 0.76006
 H1602 H 0.27220 0.09625 0.75107
 H1603 H 0.38203 0.10981 0.73541
 H1604 H 0.35014 0.15337 0.73418
 C1605 C 0.82948 0.52506 0.23438
 C1606 C 0.85422 0.52623 0.25470
 C1607 C 0.86088 0.55463 0.26855
 C1608 C 0.84238 0.57980 0.26452
 C1609 C 0.81654 0.57751 0.24584
 C1610 C 0.81037 0.54999 0.23074
 C1611 C 0.79823 0.60319 0.24170
 C1612 C 0.80644 0.63112 0.25523
 C1613 C 0.83236 0.63304 0.27345
 C1614 C 0.85001 0.60758 0.27833
 H1615 H 0.88128 0.55790 0.28173
 H1616 H 0.79127 0.54800 0.21543
 H1617 H 0.77844 0.60182 0.22723
 H1618 H 0.86989 0.60973 0.29258
 H1619 H 0.82504 0.50485 0.22095
 H1620 H 0.83892 0.65443 0.28401
 C1621 C 0.94577 0.23240 0.13097
 C1622 C 0.96994 0.24452 0.14866
 C1623 C 0.96279 0.25498 0.17811
 C1624 C 0.93299 0.25464 0.18850
 C1625 C 0.90977 0.24268 0.16991
 C1626 C 0.91655 0.23100 0.14157
 C1627 C 0.87991 0.24328 0.17948
 C1628 C 0.87258 0.25610 0.20751
 C1629 C 0.89587 0.26790 0.22610
 C1630 C 0.92578 0.26709 0.21673
 H1631 H 0.97988 0.26529 0.19249
 H1632 H 0.89896 0.22181 0.12693
 H1633 H 0.86236 0.23397 0.16486
 H1634 H 0.94320 0.27652 0.23140
 H1635 H 0.94850 0.22457 0.10815
 H1636 H 0.89102 0.27776 0.24797
 C1637 C 0.44225 0.73072 0.62842
 C1638 C 0.46606 0.73967 0.64830
 C1639 C 0.45842 0.74695 0.67833
 C1640 C 0.42855 0.74588 0.68779
 C1641 C 0.40544 0.73689 0.66741
 C1642 C 0.41267 0.72870 0.63797
 C1643 C 0.37534 0.73769 0.67631
 C1644 C 0.36812 0.74799 0.70531
 C1645 C 0.39147 0.75644 0.72561
 C1646 C 0.42132 0.75531 0.71697
 H1647 H 0.47501 0.75661 0.69371
 H1648 H 0.39526 0.72212 0.62183
 H1649 H 0.35765 0.73107 0.66049
 H1650 H 0.43871 0.76234 0.73295
 H1651 H 0.44585 0.72639 0.60475
 H1652 H 0.38678 0.76415 0.74835
 C1653 C 0.43405 0.24879 0.86665
 C1654 C 0.45861 0.25824 0.84870
 C1655 C 0.45237 0.26524 0.81800
 C1656 C 0.42418 0.25854 0.80494
 C1657 C 0.40075 0.24752 0.82332
 C1658 C 0.40578 0.24320 0.85416
 C1659 C 0.37227 0.24206 0.81085
 C1660 C 0.36692 0.24685 0.77997
 C1661 C 0.39041 0.25677 0.76137
 C1662 C 0.41883 0.26299 0.77387
 H1663 H 0.46882 0.27692 0.80431
 H1664 H 0.38777 0.23565 0.86876
 H1665 H 0.35409 0.23440 0.82522
 H1666 H 0.43653 0.27134 0.75933
 H1667 H 0.43624 0.24595 0.89079
 H1668 H 0.38644 0.26086 0.73748
 C1669 C 0.96580 0.73928 0.31445
 C1670 C 0.96626 0.75018 0.34474
 C1671 C 0.93824 0.75727 0.35753
 C1672 C 0.91137 0.75446 0.34096
 C1673 C 0.91167 0.74427 0.31069
 C1674 C 0.93909 0.73699 0.29758
 C1675 C 0.88449 0.74073 0.29442
 C1676 C 0.85698 0.74724 0.30828
 C1677 C 0.85719 0.75734 0.33858
 C1678 C 0.88403 0.76093 0.35469
 H1679 H 0.93679 0.76382 0.38099
 H1680 H 0.93980 0.72832 0.27462
 H1681 H 0.88479 0.73294 0.27113
 H1682 H 0.88336 0.76866 0.37798
 H1683 H 0.98567 0.73033 0.30406
 H1684 H 0.83651 0.76260 0.35002
 C1685 C 0.02937 0.76372 0.32079
 C1686 C 0.02522 0.74875 0.34887
 C1687 C 0.05119 0.73696 0.36324
 C1688 C 0.07929 0.73788 0.34930
 C1689 C 0.08232 0.75156 0.32065
 C1690 C 0.05727 0.76462 0.30670
 C1691 C 0.11047 0.75251 0.30671
 C1692 C 0.13580 0.73997 0.32116
 C1693 C 0.13248 0.72655 0.34985
 C1694 C 0.10451 0.72552 0.36377
 H1695 H 0.04997 0.72726 0.38562
 H1696 H 0.05934 0.77606 0.28509
 H1697 H 0.11260 0.76315 0.28470
 H1698 H 0.10261 0.71499 0.38586
 H1699 H 0.01123 0.77581 0.30989
 H1700 H 0.15151 0.71671 0.36158
 C1701 C 0.51924 0.25139 0.81478
 C1702 C 0.51783 0.26527 0.84377
 C1703 C 0.54549 0.27480 0.85695
 C1704 C 0.57272 0.27154 0.84220
 C1705 C 0.57321 0.25908 0.81284
 C1706 C 0.54630 0.24941 0.79915
 C1707 C 0.60082 0.25479 0.79860
 C1708 C 0.62769 0.26156 0.81422
 C1709 C 0.62699 0.27374 0.84349
 C1710 C 0.59965 0.27915 0.85725
 H1711 H 0.54676 0.28286 0.87986
 H1712 H 0.54639 0.23850 0.77714
 H1713 H 0.60151 0.24504 0.77606
 H1714 H 0.59959 0.28858 0.87994
 H1715 H 0.50031 0.23942 0.80484
 H1716 H 0.64765 0.27926 0.85560
 C1717 C 0.52608 0.73149 0.68515
 C1718 C 0.52486 0.74756 0.65730
 C1719 C 0.55214 0.76002 0.64677
 C1720 C 0.57891 0.75768 0.66307
 C1721 C 0.57968 0.74202 0.69086
 C1722 C 0.55298 0.72920 0.70187
 C1723 C 0.60734 0.73857 0.70630
 C1724 C 0.63396 0.75054 0.69374
 C1725 C 0.63231 0.76655 0.66619
 C1726 C 0.60518 0.77006 0.65108
 H1727 H 0.55336 0.77049 0.62482
 H1728 H 0.55309 0.71636 0.72279
 H1729 H 0.60821 0.72621 0.72750
 H1730 H 0.60485 0.78224 0.62975
 H1731 H 0.50701 0.71861 0.69323
 H1732 H 0.65214 0.77645 0.65598
 C1733 C 0.03062 0.23569 0.18282
 C1734 C 0.02941 0.25039 0.15431
 C1735 C 0.05708 0.25899 0.14123
 C1736 C 0.08460 0.25271 0.15525
 C1737 C 0.08533 0.23829 0.18371
 C1738 C 0.05815 0.23036 0.19755
 C1739 C 0.11323 0.23140 0.19729
 C1740 C 0.14032 0.23857 0.18242
 C1741 C 0.13892 0.25259 0.15381
 C1742 C 0.11143 0.25968 0.14047
 H1743 H 0.05748 0.26875 0.11880
 H1744 H 0.05821 0.21860 0.21910
 H1745 H 0.11382 0.22066 0.21936
 H1746 H 0.11118 0.27056 0.11846
 H1747 H 0.01082 0.22576 0.19283
 H1748 H 0.15918 0.25860 0.14176
 C1749 C -0.11908 1.03539 0.79389
 C1750 C -0.11116 1.00985 0.77610
 C1751 C -0.08964 0.98987 0.78798
 C1752 C -0.07753 0.99419 0.81705
 C1753 C -0.08667 1.01905 0.83497
 C1754 C -0.10709 1.03978 0.82292
 C1755 C -0.07509 1.02277 0.86453
 C1756 C -0.05389 1.00225 0.87583
 C1757 C -0.04478 0.97784 0.85754
 C1758 C -0.05661 0.97371 0.82857
 H1759 H -0.08265 0.97052 0.77474
 H1760 H -0.11412 1.05921 0.83609
 H1761 H -0.08194 1.04184 0.87834
 H1762 H -0.04930 0.95455 0.81517
 H1763 H -0.13520 1.05188 0.78610
 H1764 H -0.02836 0.96177 0.86572
 C1765 C 0.42364 0.51654 0.27990
 C1766 C 0.39802 0.49732 0.27854
 C1767 C 0.38654 0.48607 0.30608
 C1768 C 0.40211 0.49043 0.33334
 C1769 C 0.42954 0.50684 0.33362
 C1770 C 0.43976 0.52041 0.30695
 C1771 C 0.44604 0.50959 0.36066
 C1772 C 0.43485 0.49692 0.38744
 C1773 C 0.40692 0.48189 0.38730
 C1774 C 0.39075 0.47839 0.36031
 H1775 H 0.36544 0.47355 0.30629
 H1776 H 0.46011 0.53418 0.30703
 H1777 H 0.46741 0.52167 0.36098
 H1778 H 0.36956 0.46602 0.36048
 H1779 H 0.43155 0.52837 0.26004
 H1780 H 0.39809 0.47207 0.40791
 C1781 C 0.57355 0.01481 0.28530
 C1782 C 0.60045 -0.00200 0.28336
 C1783 C 0.61262 -0.01351 0.31068
 C1784 C 0.59799 -0.00970 0.33833
 C1785 C 0.57051 0.00588 0.33926
 C1786 C 0.55850 0.01801 0.31261
 C1787 C 0.55586 0.00971 0.36692
 C1788 C 0.56849 -0.00170 0.39385
 C1789 C 0.59620 -0.01673 0.39269
 C1790 C 0.61076 -0.02076 0.36520
 H1791 H 0.63414 -0.02468 0.31068
 H1792 H 0.53797 0.03100 0.31306
 H1793 H 0.53462 0.02150 0.36742
 H1794 H 0.63195 -0.03261 0.36495
 H1795 H 0.56491 0.02749 0.26625
 H1796 H 0.60648 -0.02590 0.41300
 C1797 C 0.13055 0.50504 0.81548
 C1798 C 0.11118 0.49814 0.79059
 C1799 C 0.08083 0.49168 0.79737
 C1800 C 0.06965 0.49632 0.82661
 C1801 C 0.08935 0.50495 0.85049
 C1802 C 0.11982 0.50876 0.84471
 C1803 C 0.07841 0.50874 0.87992
 C1804 C 0.04773 0.50481 0.88558
 C1805 C 0.02816 0.49675 0.86156
 C1806 C 0.03906 0.49215 0.83245
 H1807 H 0.06600 0.48141 0.78067
 H1808 H 0.13550 0.51445 0.86286
 H1809 H 0.09365 0.51485 0.89832
 H1810 H 0.02355 0.48551 0.81449
 H1811 H 0.15448 0.50720 0.81273
 H1812 H 0.00441 0.49319 0.86547
 C1813 C 0.07462 0.50653 0.72938
 C1814 C 0.10395 0.49430 0.73006
 C1815 C 0.11613 0.48631 0.70167
 C1816 C 0.09932 0.48709 0.67482
 C1817 C 0.06931 0.49668 0.67529
 C1818 C 0.05725 0.50668 0.70268
 C1819 C 0.05259 0.49756 0.64809
 C1820 C 0.06613 0.48992 0.62047
 C1821 C 0.09619 0.48084 0.62034
 C1822 C 0.11257 0.47913 0.64730
 H1823 H 0.13939 0.48058 0.69969
 H1824 H 0.03477 0.51581 0.70324
 H1825 H 0.02952 0.50516 0.64821
 H1826 H 0.13574 0.47190 0.64660
 H1827 H 0.06535 0.51798 0.74866
 H1828 H 0.10696 0.47487 0.59930
 C1829 C 0.57157 0.99442 0.21995
 C1830 C 0.60230 1.00238 0.22396
 C1831 C 0.61818 1.01124 0.19769
 C1832 C 0.60398 1.01356 0.16943
 C1833 C 0.57324 1.00637 0.16655
 C1834 C 0.55720 0.99695 0.19191
 C1835 C 0.55924 1.00764 0.13815
 C1836 C 0.57567 1.01578 0.11230
 C1837 C 0.60627 1.02331 0.11542
 C1838 C 0.62033 1.02222 0.14380
 H1839 H 0.64197 1.01553 0.19844
 H1840 H 0.53368 0.99059 0.18990
 H1841 H 0.53558 1.00177 0.13622
 H1842 H 0.64404 1.02782 0.14563
 H1843 H 0.55844 0.98493 0.23811
 H1844 H 0.61945 1.02970 0.09592
 C1845 C 0.42937 0.48512 0.21907
 C1846 C 0.39854 0.49227 0.21969
 C1847 C 0.38381 0.49786 0.19181
 C1848 C 0.39995 0.50040 0.16493
 C1849 C 0.43131 0.49607 0.16533
 C1850 C 0.44567 0.48769 0.19236
 C1851 C 0.44766 0.49973 0.13861
 C1852 C 0.43287 0.50700 0.11137
 C1853 C 0.40157 0.51058 0.11106
 C1854 C 0.38525 0.50752 0.13768
 H1855 H 0.35972 0.50115 0.19126
 H1856 H 0.46953 0.48314 0.19286
 H1857 H 0.47173 0.49632 0.13886
 H1858 H 0.36117 0.51077 0.13696
 H1859 H 0.44120 0.47787 0.23924
 H1860 H 0.38975 0.51606 0.09023
 C1861 C -0.07678 0.01049 0.71851
 C1862 C -0.10680 -0.00013 0.71813
 C1863 C -0.11952 -0.00958 0.69019
 C1864 C -0.10311 -0.00802 0.66338
 C1865 C -0.07317 0.00277 0.66411
 C1866 C -0.06011 0.01164 0.69185
 C1867 C -0.05701 0.00503 0.63704
 C1868 C -0.07054 -0.00319 0.60914
 C1869 C -0.10040 -0.01400 0.60888
 C1870 C -0.11648 -0.01645 0.63571
 H1871 H -0.14277 -0.01718 0.68925
 H1872 H -0.03720 0.02018 0.69282
 H1873 H -0.03402 0.01341 0.63773
 H1874 H -0.13949 -0.02473 0.63479
 H1875 H -0.06628 0.01890 0.73909
 H1876 H -0.11144 -0.02063 0.58788
 C1877 C -0.22052 0.93580 1.00091
 C1878 C -0.21655 0.90437 0.99278
 C1879 C -0.18953 0.89387 0.98118
 C1880 C -0.16487 0.91314 0.97885
 C1881 C -0.16695 0.94397 0.98764
 C1882 C -0.19495 0.95516 0.99776
 C1883 C -0.14035 0.96205 0.98829
 C1884 C -0.11239 0.94901 0.98089
 C1885 C -0.11162 0.91879 0.97081
 C1886 C -0.13756 0.90114 0.96956
 H1887 H -0.18722 0.87000 0.97564
 H1888 H -0.19617 0.97825 1.00623
 H1889 H -0.14107 0.98544 0.99603
 H1890 H -0.13600 0.87758 0.96247
 H1891 H -0.23896 0.94639 1.02216
 H1892 H -0.09061 0.90853 0.96437
 C1893 C 0.28301 0.43311 0.49899
 C1894 C 0.28029 0.40310 0.48728
 C1895 C 0.30747 0.38848 0.47964
 C1896 C 0.33550 0.40352 0.48217
 C1897 C 0.33685 0.43400 0.49204
 C1898 C 0.31051 0.44856 0.50031
 C1899 C 0.36466 0.44912 0.49475
 C1900 C 0.39152 0.43393 0.48858
 C1901 C 0.39014 0.40334 0.47933
 C1902 C 0.36234 0.38834 0.47584
 H1903 H 0.30724 0.36486 0.47291
 H1904 H 0.31132 0.47153 0.50928
 H1905 H 0.36545 0.47260 0.50234
 H1906 H 0.36185 0.36482 0.46843
 H1907 H 0.26443 0.44437 0.50951
 H1908 H 0.41052 0.39120 0.47428
 C1909 C 0.27928 0.57950 0.02423
 C1910 C 0.27599 0.60530 0.00545
 C1911 C 0.30187 0.61626 -0.00952
 C1912 C 0.32937 0.60103 -0.00728
 C1913 C 0.33170 0.57445 0.01046
 C1914 C 0.30648 0.56393 0.02617
 C1915 C 0.35938 0.55931 0.01273
 C1916 C 0.38494 0.57079 -0.00218
 C1917 C 0.38222 0.59750 -0.01952
 C1918 C 0.35477 0.61236 -0.02213
 H1919 H 0.30104 0.63725 -0.02230
 H1920 H 0.30793 0.54398 0.04049
 H1921 H 0.36110 0.53894 0.02642
 H1922 H 0.35345 0.63281 -0.03575
 H1923 H 0.26069 0.57142 0.03772
 H1924 H 0.40135 0.60687 -0.03140
 C1925 C -0.21775 0.08304 0.52378
 C1926 C -0.22064 0.10720 0.50288
 C1927 C -0.19503 0.11585 0.48625
 C1928 C -0.16818 0.09964 0.48893
 C1929 C -0.16641 0.07447 0.50871
 C1930 C -0.19128 0.06649 0.52616
 C1931 C -0.13960 0.05810 0.51115
 C1932 C -0.11428 0.06702 0.49450
 C1933 C -0.11619 0.09244 0.47527
 C1934 C -0.14291 0.10849 0.47238
 H1935 H -0.19550 0.13566 0.47172
 H1936 H -0.19017 0.04770 0.54198
 H1937 H -0.13830 0.03877 0.52633
 H1938 H -0.14379 0.12783 0.45722
 H1939 H -0.23627 0.07679 0.53826
 H1940 H -0.09708 0.09974 0.46208
 C1941 C 0.72159 0.07527 0.49043
 C1942 C 0.72147 0.10596 0.50014
 C1943 C 0.69340 0.11966 0.50482
 C1944 C 0.66665 0.10277 0.50267
 C1945 C 0.66739 0.07166 0.49475
 C1946 C 0.69495 0.05826 0.48826
 C1947 C 0.64057 0.05455 0.49345
 C1948 C 0.61301 0.06820 0.50018
 C1949 C 0.61263 0.09942 0.50740
 C1950 C 0.63916 0.11651 0.50859
 H1951 H 0.69254 0.14361 0.51066
 H1952 H 0.69590 0.03463 0.48132
 H1953 H 0.64128 0.03058 0.48770
 H1954 H 0.63820 0.14042 0.51454
 H1955 H 0.74212 0.06427 0.48397
 H1956 H 0.59180 0.11070 0.51252
 C1957 C 0.21673 0.57456 0.99248
 C1958 C 0.21756 0.60416 1.00517
 C1959 C 0.18983 0.61744 1.01252
 C1960 C 0.16254 0.60137 1.00883
 C1961 C 0.16235 0.57140 0.99724
 C1962 C 0.18965 0.55827 0.98911
 C1963 C 0.13489 0.55529 0.99372
 C1964 C 0.10753 0.56887 1.00171
 C1965 C 0.10826 0.59900 1.01276
 C1966 C 0.13535 0.61499 1.01627
 H1967 H 0.18950 0.64068 1.02075
 H1968 H 0.19001 0.53556 0.97954
 H1969 H 0.13489 0.53216 0.98516
 H1970 H 0.13502 0.63804 1.02501
 H1971 H 0.23690 0.56405 0.98426
 H1972 H 0.08778 0.61031 1.01907
 C1973 C 0.21848 0.43346 0.47880
 C1974 C 0.22076 0.40338 0.49017
 C1975 C 0.19366 0.38936 0.49979
 C1976 C 0.16666 0.40544 0.50113
 C1977 C 0.16601 0.43628 0.49245
 C1978 C 0.19195 0.44993 0.48092
 C1979 C 0.13915 0.45258 0.49439
 C1980 C 0.11265 0.43797 0.50381
 C1981 C 0.11327 0.40702 0.51157
 C1982 C 0.14013 0.39096 0.51059
 H1983 H 0.19306 0.36560 0.50580
 H1984 H 0.19152 0.47314 0.47266
 H1985 H 0.13863 0.47634 0.48782
 H1986 H 0.14012 0.36719 0.51708
 H1987 H 0.23688 0.44430 0.46709
 H1988 H 0.09302 0.39540 0.51885
 C1989 C 0.73698 0.93502 0.00772
 C1990 C 0.73095 0.90302 0.00376
 C1991 C 0.70167 0.89169 0.00094
 C1992 C 0.67737 0.91101 0.00199
 C1993 C 0.68181 0.94274 0.00534
 C1994 C 0.71162 0.95441 0.00840
 C1995 C 0.65615 0.96168 0.00627
 C1996 C 0.62681 0.94882 0.00352
 C1997 C 0.62371 0.91707 0.00045
 C1998 C 0.64854 0.89853 -0.00042
 H1999 H 0.69783 0.86767 -0.00316
 H2000 H 0.71521 0.97835 0.01321
 H2001 H 0.65899 0.98608 0.00874
 H2002 H 0.64510 0.87418 -0.00293
 H2003 H 0.60183 0.90617 -0.00142
 C2004 C 0.01944 0.78705 0.92511
 C2005 C 0.00288 0.78307 0.89772
 C2006 C -0.00828 0.80972 0.88382
 C2007 C -0.00593 0.83815 0.89802
 C2008 C 0.00812 0.84061 0.92669
 C2009 C 0.02116 0.81506 0.93980
 C2010 C 0.00949 0.86874 0.94146
 C2011 C -0.00218 0.89463 0.92741
 C2012 C -0.01518 0.89242 0.89845
 C2013 C -0.01732 0.86425 0.88391
 H2014 H -0.01860 0.80896 0.86171
 H2015 H 0.03325 0.81683 0.96117
 H2016 H 0.01994 0.87065 0.96370
 H2017 H -0.02797 0.86285 0.86176
 H2018 H 0.03185 0.76867 0.93530
 H2019 H -0.02440 0.91229 0.88750
 C2020 C 0.48499 0.28160 0.42400
 C2021 C 0.50061 0.27916 0.39634
 C2022 C 0.51049 0.30655 0.38264
 C2023 C 0.50683 0.33477 0.39697
 C2024 C 0.49255 0.33609 0.42526
 C2025 C 0.48152 0.30946 0.43844
 C2026 C 0.48927 0.36405 0.43993
 C2027 C 0.50036 0.39101 0.42689
 C2028 C 0.51396 0.38965 0.39832
 C2029 C 0.51713 0.36176 0.38346
 H2030 H 0.52074 0.30606 0.36054
 H2031 H 0.46963 0.31020 0.45970
 H2032 H 0.47850 0.36464 0.46182
 H2033 H 0.52800 0.36126 0.36165
 H2034 H 0.47390 0.26214 0.43404
 H2035 H 0.52275 0.41004 0.38771
 C2036 C -0.02878 0.30552 0.63072
 C2037 C -0.01670 0.28163 0.61320
 C2038 C -0.00305 0.28989 0.58556
 C2039 C -0.00225 0.32020 0.57563
 C2040 C -0.01508 0.34332 0.59332
 C2041 C -0.02846 0.33565 0.62075
 C2042 C -0.01365 0.37379 0.58364
 C2043 C 0.00053 0.38138 0.55634
 C2044 C 0.01336 0.35803 0.53903
 C2045 C 0.01201 0.32783 0.54857
 H2046 H 0.00895 0.27330 0.57244
 H2047 H -0.03802 0.35309 0.63495
 H2048 H -0.02365 0.39146 0.59725
 H2049 H 0.02219 0.31044 0.53476
 H2050 H -0.03796 0.30127 0.65285
 H2051 H 0.02459 0.36305 0.51796
 C2052 C 0.50888 0.79425 0.07113
 C2053 C 0.49450 0.79425 0.09965
 C2054 C 0.48780 0.82286 0.11241
 C2055 C 0.49406 0.85007 0.09685
 C2056 C 0.50730 0.84911 0.06797
 C2057 C 0.51454 0.82108 0.05534
 C2058 C 0.51368 0.87620 0.05238
 C2059 C 0.50706 0.90452 0.06532
 C2060 C 0.49423 0.90523 0.09435
 C2061 C 0.48777 0.87831 0.10991
 H2062 H 0.47845 0.82405 0.13490
 H2063 H 0.52557 0.81991 0.03363
 H2064 H 0.52360 0.87516 0.03010
 H2065 H 0.47778 0.87960 0.13213
 H2066 H 0.51774 0.77366 0.06150
 H2067 H 0.48879 0.92664 0.10502
 C2068 C 0.47820 0.73335 0.07024
 C2069 C 0.48989 0.73490 0.10026
 C2070 C 0.49694 0.70696 0.11430
 C2071 C 0.49541 0.67946 0.09846
 C2072 C 0.48565 0.67896 0.06801
 C2073 C 0.47671 0.70599 0.05423
 C2074 C 0.48469 0.65139 0.05201
 C2075 C 0.49347 0.62428 0.06626
 C2076 C 0.50263 0.62507 0.09686
 C2077 C 0.50355 0.65238 0.11280
 H2078 H 0.50344 0.70604 0.13781
 H2079 H 0.46828 0.70597 0.03112
 H2080 H 0.47738 0.65114 0.02852
 H2081 H 0.51095 0.65234 0.13627
 H2082 H 0.46979 0.75323 0.05875
 H2083 H 0.50944 0.60459 0.10855
 C2084 C -0.01942 0.22214 0.57439
 C2085 C -0.01012 0.22195 0.60519
 C2086 C -0.00199 0.19350 0.61764
 C2087 C -0.00209 0.16689 0.60031
 C2088 C -0.01074 0.16783 0.56957
 C2089 C -0.01913 0.19564 0.55676
 C2090 C -0.01187 0.14078 0.55255
 C2091 C -0.00453 0.11276 0.56611
 C2092 C 0.00425 0.11234 0.59680
 C2093 C 0.00547 0.13911 0.61370
 H2094 H 0.00317 0.19149 0.64147
 H2095 H -0.02671 0.19669 0.53339
 H2096 H -0.01868 0.14155 0.52893
 H2097 H 0.01210 0.13803 0.63735
 H2098 H -0.02915 0.24204 0.56411
 H2099 H 0.01014 0.09125 0.60792
 C2100 C 0.51211 0.21981 0.42979
 C2101 C 0.50181 0.21966 0.39923
 C2102 C 0.49551 0.19089 0.38611
 C2103 C 0.49796 0.16397 0.40282
 C2104 C 0.50713 0.16508 0.43345
 C2105 C 0.51409 0.19313 0.44672
 C2106 C 0.50980 0.13807 0.45010
 C2107 C 0.50342 0.10983 0.43637
 C2108 C 0.49461 0.10905 0.40564
 C2109 C 0.49189 0.13583 0.38906
 H2110 H 0.48955 0.18888 0.36249
 H2111 H 0.52196 0.19442 0.47000
 H2112 H 0.51669 0.13909 0.47371
 H2113 H 0.48498 0.13451 0.36549
 H2114 H 0.52013 0.24036 0.44076
 H2115 H 0.48955 0.08769 0.39433
 C2116 C -0.00395 0.72401 0.93320
 C2117 C 0.00434 0.72376 0.90228
 C2118 C 0.01139 0.69532 0.88938
 C2119 C 0.01128 0.66874 0.90656
 C2120 C 0.00421 0.66998 0.93759
 C2121 C -0.00308 0.69775 0.95076
 C2122 C 0.00269 0.64313 0.95443
 C2123 C 0.00694 0.61507 0.94018
 C2124 C 0.01428 0.61396 0.90940
 C2125 C 0.01680 0.64069 0.89275
 H2126 H 0.01556 0.69325 0.86545
 H2127 H -0.00971 0.69891 0.97427
 H2128 H -0.00333 0.64391 0.97815
 H2129 H 0.02221 0.63935 0.86892
 H2130 H -0.01323 0.74401 0.94362
 H2131 H 0.01791 0.59237 0.89821
 C2132 C 0.23272 0.67457 0.97854
 C2133 C 0.24312 0.64427 0.97755
 C2134 C 0.24673 0.63086 0.94885
 C2135 C 0.24273 0.64763 0.92223
 C2136 C 0.23458 0.67856 0.92363
 C2137 C 0.22921 0.69168 0.95198
 C2138 C 0.23202 0.69565 0.89668
 C2139 C 0.23749 0.68188 0.86846
 C2140 C 0.24428 0.65060 0.86770
 C2141 C 0.24698 0.63378 0.89419
 H2142 H 0.25294 0.60714 0.94729
 H2143 H 0.22201 0.71508 0.95363
 H2144 H 0.22652 0.71959 0.89774
 H2145 H 0.25285 0.60995 0.89272
 H2146 H 0.22695 0.68518 0.99975
 H2147 H 0.24825 0.63899 0.84651
 C2148 C 0.73892 0.17709 0.47451
 C2149 C 0.74759 0.14623 0.47368
 C2150 C 0.74935 0.13201 0.44515
 C2151 C 0.74392 0.14806 0.41842
 C2152 C 0.73694 0.17931 0.41954
 C2153 C 0.73436 0.19356 0.44776
 C2154 C 0.73295 0.19565 0.39241
 C2155 C 0.73602 0.18088 0.36435
 C2156 C 0.74137 0.14936 0.36382
 C2157 C 0.74538 0.13317 0.39054
 H2158 H 0.75456 0.10800 0.44388
 H2159 H 0.72828 0.21732 0.44919
 H2160 H 0.72878 0.21989 0.39314
 H2161 H 0.75022 0.10908 0.38934
 H2162 H 0.73480 0.18859 0.49566
 H2163 H 0.74341 0.13725 0.34258
 C2164 C 0.23819 0.38122 0.43128
 C2165 C 0.24807 0.36594 0.45779
 C2166 C 0.25945 0.33616 0.45378
 C2167 C 0.25935 0.32209 0.42489
 C2168 C 0.24815 0.33785 0.39942
 C2169 C 0.23766 0.36734 0.40295
 C2170 C 0.24819 0.32430 0.37056
 C2171 C 0.25948 0.29488 0.36641
 C2172 C 0.27083 0.27930 0.39193
 C2173 C 0.27078 0.29274 0.42080
 H2174 H 0.26972 0.32433 0.47260
 H2175 H 0.22960 0.38009 0.38356
 H2176 H 0.23945 0.33680 0.35130
 H2177 H 0.27968 0.28016 0.43990
 H2178 H 0.23120 0.40454 0.43174
 H2179 H 0.27977 0.25661 0.38964
 C2180 C 0.74099 0.88280 0.94216
 C2181 C 0.75237 0.86601 0.96705
 C2182 C 0.76358 0.83666 0.96131
 C2183 C 0.76384 0.82490 0.93154
 C2184 C 0.75214 0.84225 0.90726
 C2185 C 0.74038 0.87093 0.91296
 C2186 C 0.75288 0.83100 0.87749
 C2187 C 0.76536 0.80249 0.87132
 C2188 C 0.77717 0.78542 0.89564
 C2189 C 0.77637 0.79648 0.92538
 H2190 H 0.77366 0.82373 0.97955
 H2191 H 0.73160 0.88470 0.89462
 H2192 H 0.74359 0.84446 0.85917
 H2193 H 0.78564 0.78281 0.94354
 H2194 H 0.73337 0.90591 0.94508
 H2195 H 0.78685 0.76328 0.89178
 C2196 C 0.78298 0.87241 0.04914
 C2197 C 0.76233 0.86299 0.02622
 C2198 C 0.74250 0.83868 0.03302
 C2199 C 0.74190 0.82579 0.06221
 C2200 C 0.76188 0.83665 0.08493
 C2201 C 0.78284 0.85932 0.07786
 C2202 C 0.76037 0.82499 0.11450
 C2203 C 0.73931 0.80219 0.12172
 C2204 C 0.71983 0.79110 0.09881
 C2205 C 0.72101 0.80287 0.06941
 H2206 H 0.72668 0.83056 0.01601
 H2207 H 0.79851 0.86779 0.09493
 H2208 H 0.77586 0.83339 0.13177
 H2209 H 0.70546 0.79417 0.05236
 H2210 H 0.79858 0.89109 0.04574
 H2211 H 0.70348 0.77339 0.10369
 C2212 C 0.26141 0.38041 0.54519
 C2213 C 0.25162 0.36524 0.51842
 C2214 C 0.23886 0.33559 0.52215
 C2215 C 0.23691 0.32195 0.55119
 C2216 C 0.24772 0.33795 0.57682
 C2217 C 0.26008 0.36692 0.57350
 C2218 C 0.24556 0.32524 0.60576
 C2219 C 0.23273 0.29623 0.61018
 C2220 C 0.22176 0.28019 0.58463
 C2221 C 0.22374 0.29298 0.55543
 H2222 H 0.22865 0.32383 0.50307
 H2223 H 0.26800 0.37972 0.59308
 H2224 H 0.25423 0.33816 0.62494
 H2225 H 0.21509 0.28016 0.53620
 H2226 H 0.26946 0.40355 0.54503
 H2227 H 0.21188 0.25772 0.58716
 C2228 C 0.77295 0.16856 0.53573
 C2229 C 0.75208 0.14428 0.53214
 C2230 C 0.73669 0.13423 0.55804
 C2231 C 0.73991 0.14934 0.58571
 C2232 C 0.75944 0.17476 0.58852
 C2233 C 0.77610 0.18403 0.56336
 C2234 C 0.76218 0.19001 0.61654
 C2235 C 0.74569 0.17974 0.64163
 C2236 C 0.72676 0.15398 0.63829
 C2237 C 0.72391 0.13902 0.61072
 H2238 H 0.72259 0.11402 0.55717
 H2239 H 0.79180 0.20299 0.56511
 H2240 H 0.77701 0.20964 0.61877
 H2241 H 0.70897 0.11943 0.60894
 H2242 H 0.78680 0.17563 0.51696
 H2243 H 0.71367 0.14534 0.65699
 C2244 C 0.26978 0.66811 0.03745
 C2245 C 0.25019 0.64256 0.03583
 C2246 C 0.23868 0.63124 0.06329
 C2247 C 0.24482 0.64599 0.09090
 C2248 C 0.26278 0.67270 0.09175
 C2249 C 0.27528 0.68347 0.06479
 C2250 C 0.26819 0.68782 0.11956
 C2251 C 0.25627 0.67601 0.14658
 C2252 C 0.23925 0.64874 0.14522
 C2253 C 0.23348 0.63406 0.11780
 H2254 H 0.22558 0.61032 0.06346
 H2255 H 0.28983 0.70340 0.06493
 H2256 H 0.28147 0.70864 0.12013
 H2257 H 0.21991 0.61342 0.11764
 H2258 H 0.28106 0.67624 0.01739
 H2259 H 0.22956 0.63891 0.16540
 C2260 C 0.17739 0.52240 0.76239
 C2261 C 0.14637 0.52214 0.75494
 C2262 C 0.13274 0.55061 0.74981
 C2263 C 0.14898 0.57791 0.75153
 C2264 C 0.17988 0.57764 0.75857
 C2265 C 0.19396 0.54971 0.76362
 C2266 C 0.19583 0.60537 0.76122
 C2267 C 0.18104 0.63324 0.75678
 C2268 C 0.15017 0.63295 0.74980
 C2269 C 0.13431 0.60559 0.74722
 H2270 H 0.10881 0.55192 0.74604
 H2271 H 0.21756 0.54905 0.76982
 H2272 H 0.21965 0.60520 0.76651
 H2273 H 0.11050 0.60611 0.74195
 H2274 H 0.18865 0.50204 0.76973
 H2275 H 0.13813 0.65395 0.74628
 C2276 C 0.67303 0.02191 0.24498
 C2277 C 0.64380 0.02298 0.25744
 C2278 C 0.63449 0.05172 0.26823
 C2279 C 0.65310 0.07748 0.26753
 C2280 C 0.68235 0.07548 0.25596
 C2281 C 0.69221 0.04744 0.24504
 C2282 C 0.70036 0.10196 0.25389
 C2283 C 0.68863 0.13031 0.26221
 C2284 C 0.65959 0.13183 0.27401
 C2285 C 0.64210 0.10563 0.27699
 H2286 H 0.61193 0.05506 0.27589
 H2287 H 0.71420 0.04562 0.23498
 H2288 H 0.72269 0.10080 0.24448
 H2289 H 0.61963 0.10753 0.28590
 H2290 H 0.68061 0.00222 0.23274
 H2291 H 0.65034 0.15348 0.28077
 C2292 C 0.81916 0.01689 0.75184
 C2293 C 0.84808 0.02410 0.73927
 C2294 C 0.85346 0.05132 0.72390
 C2295 C 0.83217 0.07403 0.72418
 C2296 C 0.80438 0.06910 0.73875
 C2297 C 0.79752 0.04012 0.75092
 C2298 C 0.78559 0.09421 0.74372
 C2299 C 0.79520 0.12355 0.73510
 C2300 C 0.82168 0.12738 0.71870
 C2301 C 0.83984 0.10274 0.71288
 H2302 H 0.87542 0.05606 0.71456
 H2303 H 0.77686 0.03672 0.76323
 H2304 H 0.76498 0.09140 0.75629
 H2305 H 0.86093 0.10657 0.70138
 H2306 H 0.81432 -0.00214 0.77481
 H2307 H 0.82890 0.14983 0.71141
 C2308 C 0.33058 0.51882 0.26475
 C2309 C 0.35799 0.51913 0.24897
 C2310 C 0.36884 0.54779 0.23878
 C2311 C 0.35259 0.57455 0.24274
 C2312 C 0.32430 0.57334 0.25665
 C2313 C 0.31347 0.54531 0.26755
 C2314 C 0.30797 0.60036 0.26028
 C2315 C 0.32031 0.62860 0.25128
 C2316 C 0.34891 0.62950 0.23835
 C2317 C 0.36474 0.60269 0.23373
 H2318 H 0.39086 0.54963 0.22876
 H2319 H 0.29229 0.54410 0.27935
 H2320 H 0.28602 0.59957 0.27064
 H2321 H 0.38663 0.60399 0.22330
 H2322 H 0.32268 0.49845 0.27595
 H2323 H 0.35871 0.65095 0.23115
 C2324 C 0.38682 0.43496 0.25665
 C2325 C 0.36685 0.45886 0.24952
 C2326 C 0.33689 0.45083 0.24205
 C2327 C 0.32671 0.42039 0.24492
 C2328 C 0.34711 0.39720 0.25293
 C2329 C 0.37719 0.40476 0.25823
 C2330 C 0.33714 0.36682 0.25561
 C2331 C 0.30667 0.35937 0.25156
 C2332 C 0.28642 0.38263 0.24404
 C2333 C 0.29637 0.41272 0.24032
 H2334 H 0.32142 0.46790 0.23409
 H2335 H 0.39326 0.38737 0.26417
 H2336 H 0.35293 0.34909 0.26143
 H2337 H 0.28026 0.43002 0.23425
 H2338 H 0.41023 0.43977 0.26163
 H2339 H 0.26282 0.37741 0.24041
 C2340 C 0.82470 0.97465 0.75900
 C2341 C 0.85572 0.97195 0.75072
 C2342 C 0.86823 0.94359 0.74481
 C2343 C 0.85113 0.91714 0.74801
 C2344 C 0.82057 0.91873 0.75625
 C2345 C 0.80764 0.94747 0.76159
 C2346 C 0.80392 0.89138 0.75976
 C2347 C 0.81760 0.86293 0.75482
 C2348 C 0.84808 0.86227 0.74688
 C2349 C 0.86456 0.88899 0.74342
 H2350 H 0.89144 0.94212 0.73791
 H2351 H 0.78486 0.94881 0.76976
 H2352 H 0.78044 0.89224 0.76581
 H2353 H 0.88799 0.88759 0.73722
 H2354 H 0.85937 0.84092 0.74312
 C2355 C 0.61082 0.93958 0.24450
 C2356 C 0.63143 0.96337 0.25197
 C2357 C 0.66107 0.95461 0.25922
 C2358 C 0.67092 0.92492 0.25326
 C2359 C 0.65020 0.90229 0.24348
 C2360 C 0.62003 0.90971 0.24011
 C2361 C 0.65989 0.87252 0.23774
 C2362 C 0.69040 0.86549 0.24045
 C2363 C 0.71096 0.88829 0.24976
 C2364 C 0.70126 0.91756 0.25661
 H2365 H 0.67662 0.97033 0.27002
 H2366 H 0.60351 0.89250 0.23373
 H2367 H 0.64387 0.85500 0.23083
 H2368 H 0.71756 0.93455 0.26407
 H2369 H 0.58717 0.94366 0.24214
 H2370 H 0.73457 0.88321 0.25258
 C2371 C 0.12363 0.43693 0.77114
 C2372 C 0.13989 0.46185 0.75878
 C2373 C 0.16583 0.45487 0.74196
 C2374 C 0.17446 0.42462 0.73713
 C2375 C 0.15785 0.40051 0.75009
 C2376 C 0.13280 0.40699 0.76746
 C2377 C 0.16624 0.37026 0.74510
 C2378 C 0.19110 0.36366 0.72705
 C2379 C 0.20710 0.38788 0.71362
 C2380 C 0.19892 0.41802 0.71868
 H2381 H 0.17820 0.47257 0.73037
 H2382 H 0.11954 0.38877 0.77732
 H2383 H 0.15368 0.35196 0.75570
 H2384 H 0.21181 0.43617 0.70823
 H2385 H 0.10290 0.44006 0.78301
 H2386 H 0.22646 0.38364 0.69967
 C2387 C 0.02420 0.73770 0.82850
 C2388 C 0.02653 0.75058 0.85798
 C2389 C 0.05566 0.75767 0.86870
 C2390 C 0.08096 0.75371 0.85097
 C2391 C 0.07823 0.74239 0.82117
 C2392 C 0.04955 0.73445 0.81013
 C2393 C 0.10430 0.73855 0.80360
 C2394 C 0.13281 0.74566 0.81615
 C2395 C 0.13461 0.75620 0.84636
 C2396 C 0.10914 0.76033 0.86336
 H2397 H 0.05926 0.76513 0.89169
 H2398 H 0.04682 0.72465 0.78773
 H2399 H 0.10243 0.73021 0.78055
 H2400 H 0.11157 0.76873 0.88636
 H2401 H 0.00327 0.72828 0.81998
 H2402 H 0.15589 0.76179 0.85719
 C2403 C 0.56010 0.24538 0.38331
 C2404 C 0.53466 0.24833 0.36401
 C2405 C 0.54047 0.25297 0.33283
 C2406 C 0.56948 0.24882 0.32110
 C2407 C 0.59379 0.24328 0.34101
 C2408 C 0.58896 0.24250 0.37208
 C2409 C 0.62277 0.23949 0.32971
 C2410 C 0.62802 0.24065 0.29847
 C2411 C 0.60367 0.24562 0.27858
 C2412 C 0.57471 0.25003 0.28981
 H2413 H 0.52304 0.26053 0.31754
 H2414 H 0.60753 0.23952 0.38783
 H2415 H 0.64134 0.23578 0.34532
 H2416 H 0.55642 0.25424 0.27405
 H2417 H 0.55807 0.24541 0.40755
 H2418 H 0.60719 0.24703 0.25439
 C2419 C 0.52030 0.75055 0.16954
 C2420 C 0.51983 0.76351 0.14011
 C2421 C 0.54838 0.77021 0.12747
 C2422 C 0.57530 0.76643 0.14368
 C2423 C 0.57465 0.75589 0.17372
 C2424 C 0.54700 0.74792 0.18641
 C2425 C 0.60177 0.75224 0.18996
 C2426 C 0.62951 0.75793 0.17590
 C2427 C 0.62985 0.76768 0.14569
 C2428 C 0.60300 0.77226 0.12983
 H2429 H 0.55041 0.77733 0.10431
 H2430 H 0.54613 0.73818 0.20892
 H2431 H 0.60136 0.74427 0.21318
 H2432 H 0.60391 0.78014 0.10661
 H2433 H 0.50063 0.73999 0.17912
 H2434 H 0.65094 0.77234 0.13452
 C2435 C 0.01813 0.23631 0.67633
 C2436 C 0.01514 0.25006 0.64743
 C2437 C 0.04210 0.26031 0.63382
 C2438 C 0.06994 0.25900 0.64862
 C2439 C 0.07188 0.24731 0.67822
 C2440 C 0.04579 0.23598 0.69187
 C2441 C 0.10011 0.24567 0.69279
 C2442 C 0.12631 0.25444 0.67734
 C2443 C 0.12405 0.26557 0.64770
 C2444 C 0.09608 0.26825 0.63359
 H2445 H 0.04217 0.26800 0.61074
 H2446 H 0.04703 0.22541 0.71400
 H2447 H 0.10188 0.23657 0.71553
 H2448 H 0.09495 0.27706 0.61071
 H2449 H 0.00003 0.22351 0.68636
 H2450 H 0.14401 0.27244 0.63554
 C2451 C 0.92985 0.23591 0.62385
 C2452 C 0.95497 0.24273 0.64282
 C2453 C 0.94914 0.24684 0.67402
 C2454 C 0.92059 0.24022 0.68599
 C2455 C 0.89659 0.23200 0.66637
 C2456 C 0.90143 0.23026 0.63536
 C2457 C 0.86773 0.22707 0.67782
 C2458 C 0.86247 0.22974 0.70891
 C2459 C 0.88662 0.23678 0.72859
 C2460 C 0.91538 0.24232 0.71719
 H2461 H 0.96586 0.25686 0.68895
 H2462 H 0.88309 0.22493 0.61983
 H2463 H 0.84921 0.22175 0.66248
 H2464 H 0.93343 0.24853 0.73273
 H2465 H 0.93169 0.23551 0.59957
 H2466 H 0.88298 0.23935 0.75266
 C2467 C 0.43323 0.76338 0.11641
 C2468 C 0.45942 0.76635 0.13478
 C2469 C 0.45465 0.77067 0.16617
 C2470 C 0.42631 0.76445 0.17904
 C2471 C 0.40132 0.75801 0.16008
 C2472 C 0.40484 0.75895 0.12876
 C2473 C 0.37315 0.75117 0.17266
 C2474 C 0.36963 0.74975 0.20423
 C2475 C 0.39471 0.75610 0.22300
 C2476 C 0.42262 0.76381 0.21056
 H2477 H 0.47248 0.77890 0.18085
 H2478 H 0.38572 0.75551 0.11370
 H2479 H 0.35404 0.74663 0.15784
 H2480 H 0.44145 0.76869 0.22561
 H2481 H 0.43446 0.76394 0.09210
 H2482 H 0.39261 0.75576 0.24740
 C2483 C 0.47463 0.23247 0.32810
 C2484 C 0.47474 0.24706 0.35677
 C2485 C 0.44644 0.25692 0.36724
 C2486 C 0.42038 0.25516 0.34932
 C2487 C 0.42158 0.24292 0.31990
 C2488 C 0.44881 0.23134 0.30961
 C2489 C 0.39521 0.24129 0.30200
 C2490 C 0.36765 0.25076 0.31392
 C2491 C 0.36673 0.26239 0.34345
 C2492 C 0.39291 0.26493 0.36088
 H2493 H 0.44383 0.26546 0.38983
 H2494 H 0.44993 0.22043 0.28764
 H2495 H 0.39587 0.23173 0.27938
 H2496 H 0.39158 0.27420 0.38358
 H2497 H 0.49401 0.22046 0.32013
 H2498 H 0.34568 0.26969 0.35298
 C2499 C 0.94392 0.73709 0.88454
 C2500 C 0.96803 0.74896 0.86718
 C2501 C 0.96064 0.76113 0.83847
 C2502 C 0.93120 0.75970 0.82699
 C2503 C 0.90814 0.74645 0.84440
 C2504 C 0.91473 0.73540 0.87317
 C2505 C 0.87872 0.74481 0.83297
 C2506 C 0.87201 0.75631 0.80415
 C2507 C 0.89512 0.76988 0.78707
 C2508 C 0.92441 0.77157 0.79839
 H2509 H 0.97758 0.77262 0.82516
 H2510 H 0.89720 0.72574 0.88716
 H2511 H 0.86117 0.73444 0.84646
 H2512 H 0.94175 0.78202 0.78472
 H2513 H 0.94687 0.72908 0.90733
 H2514 H 0.89066 0.77916 0.76479
   
