data_POSCAR
  _audit_creation_date              2014-09-24
  _audit_creation_method            'ToBaCCo'
  _symmetry_space_group_name_H-M    'P1'
  _symmetry_Int_Tables_number       1
  _symmetry_cell_setting            triclinic
  loop_
  _symmetry_equiv_pos_as_xyz
 x,y,z
_cell_length_a 62.7384
_cell_length_b 61.1757
_cell_length_c 61.7565
_cell_angle_alpha 89.277200
_cell_angle_beta 88.942300
_cell_angle_gamma 88.888300
loop_
  _atom_site_label
  _atom_site_type_symbol
  _atom_site_fract_x
  _atom_site_fract_y
  _atom_site_fract_z
C1 C 0.75679 0.61017 1.00497
 C2 C 0.72673 0.38368 0.50053
 C3 C 0.25426 -0.11810 0.00448
 C4 C 0.24178 0.13551 0.49561
 C5 C 0.12996 0.50008 0.25615
 C6 C -0.10489 -0.00068 0.24948
 C7 C 0.37940 0.50969 0.75914
 C8 C 0.62826 0.99774 0.75277
 C9 C 0.00291 0.25098 -0.12973
 C10 C 0.50372 0.24537 0.10752
 C11 C 1.00171 0.75248 0.61376
 C12 C 0.49927 0.75873 0.38092
 C13 C 0.38528 -0.02060 0.28176
 H14 H 0.37204 -0.01397 0.29114
 C15 C 0.39743 -0.03787 0.29032
 H16 H 0.39306 -0.04457 0.30605
 C17 C 0.40679 -0.02020 0.24983
 H18 H 0.41035 -0.01311 0.23407
 C19 C 0.41941 -0.03746 0.25778
 H20 H 0.43277 -0.04348 0.24809
 N21 N 0.38989 -0.01239 0.26170
 C22 C 0.39010 0.04024 0.21906
 H23 H 0.37828 0.03387 0.20849
 C24 C 0.40379 0.05626 0.21122
 H25 H 0.40194 0.06232 0.19480
 C26 C 0.40668 0.04025 0.25322
 H27 H 0.40776 0.03373 0.26953
 C28 C 0.42081 0.05630 0.24599
 H29 H 0.43282 0.06199 0.25683
 Zn30 Zn 0.37301 0.01061 0.24984
 N31 N 0.39159 0.03272 0.23979
 C32 C 0.35644 0.04183 0.27954
 N33 N 0.35372 0.02168 0.27111
 C34 C 0.33725 0.00894 0.27775
 C35 C 0.32313 0.01606 0.29406
 C36 C 0.34276 0.04955 0.29591
 C37 C 0.36169 -0.01943 0.21760
 C38 C 0.35120 -0.02608 0.19917
 C39 C 0.33043 0.00759 0.19987
 C40 C 0.34146 0.01370 0.21822
 N41 N 0.35706 0.00040 0.22641
 H42 H 0.36942 0.05185 0.27387
 H43 H 0.33529 -0.00691 0.27055
 H44 H 0.31017 0.00565 0.29918
 H45 H 0.34569 0.06532 0.30289
 H46 H 0.37381 -0.02997 0.22454
 H47 H 0.35530 -0.04179 0.19217
 H48 H 0.31851 0.01863 0.19316
 H49 H 0.33802 0.02933 0.22564
 C50 C 0.41946 0.06450 0.22469
 C51 C 0.41467 -0.04664 0.27823
 C52 C 0.33560 -0.01235 0.18989
 C53 C 0.32593 0.03653 0.30353
 C54 C 0.10048 1.01880 0.76958
 H55 H 0.09819 1.00288 0.77698
 C56 C 0.08929 1.03703 0.77765
 H57 H 0.07811 1.03493 0.79104
 C58 C 0.11830 1.04098 0.74356
 H59 H 0.13015 1.04271 0.73081
 C60 C 0.10748 1.05958 0.75108
 H61 H 0.11114 1.07533 0.74389
 N62 N 0.11461 1.02105 0.75277
 C63 C 0.12525 0.95734 0.72345
 H64 H 0.14244 0.95801 0.72216
 C65 C 0.11466 0.93977 0.71480
 H66 H 0.12376 0.92685 0.70685
 C67 C 0.09247 0.97348 0.73534
 H68 H 0.08392 0.98680 0.74311
 C69 C 0.08123 0.95588 0.72726
 H70 H 0.06401 0.95572 0.72885
 Zn71 Zn 0.13114 0.99642 0.74372
 N72 N 0.11412 0.97376 0.73341
 C73 C 0.14086 0.96658 0.77710
 N74 N 0.14645 0.98601 0.76795
 C75 C 0.16149 0.99858 0.77693
 C76 C 0.17213 0.99134 0.79545
 C77 C 0.15065 0.95900 0.79590
 C78 C 0.13931 1.01143 0.70216
 C79 C 0.15090 1.01969 0.68455
 C80 C 0.18337 1.01234 0.70402
 C81 C 0.17109 1.00430 0.72141
 N82 N 0.14942 1.00468 0.72041
 H83 H 0.12833 0.95718 0.77020
 H84 H 0.16522 1.01428 0.76970
 H85 H 0.18450 1.00136 0.80185
 H86 H 0.14525 0.94387 0.80319
 H87 H 0.12209 1.01110 0.70165
 H88 H 0.14250 1.02559 0.67041
 H89 H 0.20055 1.01277 0.70531
 H90 H 0.17888 0.99821 0.73577
 C91 C 0.09241 0.93890 0.71670
 C92 C 0.09285 1.05781 0.76844
 C93 C 0.17317 1.02072 0.68556
 C94 C 0.16670 0.97128 0.80533
 C95 C 0.56392 0.52111 0.26755
 H96 H 0.56089 0.50472 0.27349
 C97 C 0.55155 0.53868 0.27521
 H98 H 0.53867 0.53551 0.28665
 C99 C 0.58477 0.54497 0.24577
 H100 H 0.59818 0.54742 0.23483
 C101 C 0.57306 0.56304 0.25329
 H102 H 0.57779 0.57920 0.24801
 N103 N 0.58019 0.52454 0.25315
 C104 C 0.59610 0.46008 0.22805
 H105 H 0.61310 0.46034 0.23062
 C106 C 0.58719 0.44230 0.21798
 H107 H 0.59744 0.42872 0.21311
 C108 C 0.56221 0.47769 0.23121
 H109 H 0.55265 0.49179 0.23590
 C110 C 0.55258 0.46011 0.22120
 H111 H 0.53560 0.46076 0.21836
 Zn112 Zn 0.59856 0.50083 0.24602
 N113 N 0.58362 0.47729 0.23446
 C114 C 0.60819 0.47197 0.28073
 N115 N 0.61224 0.49194 0.27184
 C116 C 0.62464 0.50647 0.28205
 C117 C 0.63383 0.50094 0.30189
 C118 C 0.61686 0.46588 0.30060
 C119 C 0.60975 0.51462 0.20474
 C120 C 0.62284 0.51992 0.18705
 C121 C 0.65354 0.51451 0.20971
 C122 C 0.63982 0.50910 0.22700
 N123 N 0.61835 0.50937 0.22421
 H124 H 0.59782 0.46088 0.27271
 H125 H 0.62716 0.52246 0.27489
 H126 H 0.64352 0.51273 0.30991
 H127 H 0.61347 0.44990 0.30743
 H128 H 0.59264 0.51447 0.20295
 H129 H 0.61565 0.52418 0.17172
 H130 H 0.67061 0.51403 0.21205
 H131 H 0.64636 0.50438 0.24246
 C132 C 0.56520 0.44224 0.21424
 C133 C 0.55637 0.56011 0.26849
 C134 C 0.64504 0.51983 0.18938
 C135 C 0.62979 0.48048 0.31147
 C136 C 0.89957 0.47811 0.76587
 H137 H 0.89944 0.49299 0.77516
 C138 C 0.91048 0.45950 0.77349
 H139 H 0.91865 0.46029 0.78873
 C140 C 0.88764 0.45872 0.73558
 H141 H 0.87829 0.45823 0.72111
 C142 C 0.89852 0.43984 0.74245
 H143 H 0.89783 0.42528 0.73274
 N144 N 0.88823 0.47733 0.74735
 C145 C 0.87536 0.54336 0.72284
 H146 H 0.85820 0.54237 0.72189
 C147 C 0.88553 0.56235 0.71603
 H148 H 0.87608 0.57585 0.70959
 C149 C 0.90843 0.52663 0.73203
 H150 H 0.91721 0.51262 0.73829
 C151 C 0.91931 0.54535 0.72525
 H152 H 0.93649 0.54569 0.72650
 Zn153 Zn 0.87067 0.50178 0.73998
 N154 N 0.88681 0.52612 0.73091
 C155 C 0.85598 0.52959 0.77340
 N156 N 0.85431 0.50923 0.76506
 C157 C 0.84250 0.49369 0.77537
 C158 C 0.83165 0.49848 0.79479
 C159 C 0.84534 0.53508 0.79262
 C160 C 0.86318 0.49215 0.69703
 C161 C 0.85168 0.48659 0.67887
 C162 C 0.81952 0.48715 0.70101
 C163 C 0.83167 0.49276 0.71880
 N164 N 0.85315 0.49475 0.71656
 H165 H 0.86597 0.54154 0.76548
 H166 H 0.84180 0.47748 0.76865
 H167 H 0.82229 0.48596 0.80280
 H168 H 0.84724 0.55126 0.79913
 H169 H 0.88026 0.49408 0.69569
 H170 H 0.86012 0.48391 0.66366
 H171 H 0.80245 0.48547 0.70307
 H172 H 0.82395 0.49536 0.73435
 C173 C 0.90777 0.56360 0.71731
 C174 C 0.90981 0.43988 0.76189
 C175 C 0.82957 0.48379 0.68076
 C176 C 0.83301 0.51944 0.80362
 C177 C 0.27674 0.39513 -0.01941
 H178 H 0.28638 0.39236 -0.00525
 C179 C 0.28498 0.40672 -0.03720
 H180 H 0.30106 0.41274 -0.03658
 C181 C 0.24454 0.38936 -0.03778
 H182 H 0.22888 0.38233 -0.03803
 C183 C 0.25208 0.40096 -0.05587
 H184 H 0.24193 0.40305 -0.06975
 N185 N 0.25696 0.38651 -0.02012
 C186 C 0.22976 0.37436 0.04411
 H187 H 0.22642 0.35715 0.04277
 C188 C 0.22260 0.38583 0.06227
 H189 H 0.21388 0.37733 0.07501
 C190 C 0.24483 0.40644 0.02888
 H191 H 0.25320 0.41445 0.01565
 C192 C 0.23823 0.41850 0.04699
 H193 H 0.24152 0.43579 0.04758
 Zn194 Zn 0.24778 0.36816 0.00292
 N195 N 0.24045 0.38478 0.02777
 C196 C 0.27667 0.34510 0.03009
 N197 N 0.27056 0.34843 0.00926
 C198 C 0.28201 0.33973 -0.00757
 C199 C 0.30069 0.32756 -0.00380
 C200 C 0.29506 0.33282 0.03460
 C201 C 0.20389 0.36234 -0.00092
 C202 C 0.18527 0.35289 -0.00800
 C203 C 0.20672 0.32469 -0.02529
 C204 C 0.22500 0.33461 -0.01768
 N205 N 0.22326 0.35314 -0.00579
 H206 H 0.26770 0.35249 0.04324
 H207 H 0.27709 0.34298 -0.02401
 H208 H 0.30986 0.32112 -0.01739
 H209 H 0.29999 0.33088 0.05124
 H210 H 0.20286 0.37734 0.00814
 H211 H 0.17005 0.36048 -0.00376
 H212 H 0.20848 0.31033 -0.03528
 H213 H 0.24055 0.32775 -0.02166
 C214 C 0.22670 0.40820 0.06379
 C215 C 0.27271 0.40953 -0.05589
 C216 C 0.18650 0.33397 -0.02064
 C217 C 0.30752 0.32420 0.01752
 C218 C 0.77693 0.07570 1.01967
 H219 H 0.77338 0.06724 1.00497
 C220 C 0.78628 0.06415 1.03688
 H221 H 0.79009 0.04691 1.03515
 C222 C 0.77651 0.10835 1.03989
 H223 H 0.77205 0.12542 1.04130
 C224 C 0.78592 0.09752 1.05735
 H225 H 0.78894 0.10650 1.07195
 N226 N 0.77262 0.09753 1.02131
 C227 C 0.72982 0.09657 0.97153
 H228 H 0.71895 0.10622 0.98142
 C229 C 0.72199 0.08563 0.95380
 H230 H 0.70512 0.08686 0.95046
 C231 C 0.76482 0.08329 0.96380
 H232 H 0.78160 0.08288 0.96755
 C233 C 0.75764 0.07213 0.94575
 H234 H 0.76902 0.06322 0.93567
 Zn235 Zn 0.76088 0.11424 0.99805
 N236 N 0.75099 0.09576 0.97589
 C237 C 0.78628 0.13356 0.96468
 N238 N 0.78187 0.13351 0.98635
 C239 C 0.79249 0.14679 0.99981
 C240 C 0.80909 0.15971 0.99185
 C241 C 0.80274 0.14620 0.95605
 C242 C 0.72566 0.12312 1.02562
 C243 C 0.70676 0.13377 1.03203
 C244 C 0.71235 0.16040 1.00334
 C245 C 0.73121 0.14927 0.99753
 N246 N 0.73738 0.13093 1.00859
 H247 H 0.77717 0.12371 0.95399
 H248 H 0.78846 0.14712 1.01683
 H249 H 0.81790 0.16945 1.00301
 H250 H 0.80618 0.14572 0.93882
 H251 H 0.73065 0.10823 1.03385
 H252 H 0.69766 0.12727 1.04562
 H253 H 0.70736 0.17457 0.99392
 H254 H 0.74060 0.15483 0.98373
 C255 C 0.73604 0.07376 0.94023
 C256 C 0.79122 0.07520 1.05588
 C257 C 0.69970 0.15249 1.02063
 C258 C 0.81472 0.15913 0.96977
 C259 C 0.27715 0.58865 0.52892
 H260 H 0.28652 0.58539 0.51448
 C261 C 0.28330 0.57914 0.54860
 H262 H 0.29758 0.56893 0.54912
 C263 C 0.24753 0.60618 0.54607
 H264 H 0.23344 0.61649 0.54515
 C265 C 0.25323 0.59723 0.56608
 H266 H 0.24357 0.60096 0.58032
 N267 N 0.25998 0.60258 0.52812
 C268 C 0.24694 0.61060 0.45933
 H269 H 0.25014 0.62787 0.45771
 C270 C 0.24173 0.59868 0.44117
 H271 H 0.24072 0.60701 0.42563
 C272 C 0.24368 0.57913 0.48184
 H273 H 0.24440 0.57170 0.49780
 C274 C 0.23827 0.56655 0.46404
 H275 H 0.23501 0.54936 0.46638
 Zn276 Zn 0.25435 0.61911 0.50233
 N277 N 0.24771 0.60077 0.47915
 C278 C 0.29632 0.62316 0.48646
 N279 N 0.27907 0.63489 0.49379
 C280 C 0.27927 0.65713 0.49406
 C281 C 0.29752 0.66832 0.48750
 C282 C 0.31489 0.63369 0.47973
 C283 C 0.21237 0.63628 0.49701
 C284 C 0.19444 0.64919 0.50225
 C285 C 0.21505 0.66718 0.52919
 C286 C 0.23255 0.65392 0.52348
 N287 N 0.23090 0.63866 0.50777
 H288 H 0.29552 0.60561 0.48524
 H289 H 0.26529 0.66636 0.49911
 H290 H 0.29741 0.68600 0.48813
 H291 H 0.32829 0.62402 0.47364
 H292 H 0.21121 0.62385 0.48484
 H293 H 0.17965 0.64647 0.49404
 H294 H 0.21668 0.67905 0.54187
 H295 H 0.24732 0.65530 0.53207
 C296 C 0.23722 0.57637 0.44336
 C297 C 0.27166 0.58404 0.56760
 C298 C 0.19555 0.66465 0.51878
 C299 C 0.31567 0.65658 0.48025
 C300 C 0.77916 0.90716 0.47532
 H301 H 0.78602 0.90808 0.49122
 C302 C 0.78853 0.91835 0.45779
 H303 H 0.80261 0.92786 0.46036
 C304 C 0.75327 0.89256 0.45242
 H305 H 0.73994 0.88203 0.45012
 C306 C 0.76208 0.90344 0.43452
 H307 H 0.75495 0.90158 0.41884
 N308 N 0.76179 0.89464 0.47238
 C309 C 0.72925 0.88513 0.53465
 H310 H 0.72684 0.86774 0.53337
 C311 C 0.72058 0.89645 0.55225
 H312 H 0.71161 0.88763 0.56458
 C313 C 0.74397 0.91767 0.52008
 H314 H 0.75284 0.92589 0.50734
 C315 C 0.73579 0.92963 0.53765
 H316 H 0.73844 0.94704 0.53835
 Zn317 Zn 0.75070 0.87794 0.49602
 N318 N 0.74071 0.89577 0.51904
 C319 C 0.77959 0.86073 0.52657
 N320 N 0.77289 0.85913 0.50585
 C321 C 0.78314 0.84575 0.49145
 C322 C 0.80130 0.83373 0.49759
 C323 C 0.79758 0.84901 0.53337
 C324 C 0.71003 0.87443 0.48025
 C325 C 0.69175 0.86449 0.47303
 C326 C 0.70793 0.82923 0.48125
 C327 C 0.72618 0.83989 0.48793
 N328 N 0.72695 0.86211 0.48702
 H329 H 0.77146 0.87165 0.53770
 H330 H 0.77765 0.84503 0.47498
 H331 H 0.80974 0.82381 0.48571
 H332 H 0.80280 0.85075 0.54987
 H333 H 0.71094 0.89208 0.48016
 H334 H 0.67855 0.87452 0.46730
 H335 H 0.70745 0.81154 0.48179
 H336 H 0.73966 0.83046 0.49385
 C337 C 0.72381 0.91897 0.55391
 C338 C 0.78007 0.91639 0.43700
 C339 C 0.69063 0.84164 0.47339
 C340 C 0.80899 0.83567 0.51869
 C341 C -0.04043 0.26957 0.42483
 H342 H -0.02661 0.26534 0.43432
 C343 C -0.05914 0.27723 0.43514
 H344 H -0.05949 0.27908 0.45255
 C345 C -0.05672 0.27270 0.39059
 H346 H -0.05565 0.27080 0.37321
 C347 C -0.07565 0.28033 0.40017
 H348 H -0.08916 0.28404 0.39001
 N349 N -0.03951 0.26774 0.40289
 C350 C 0.01260 0.22685 0.40732
 H351 H 0.00399 0.21531 0.39788
 C352 C 0.03033 0.21967 0.41886
 H353 H 0.03522 0.20264 0.41792
 C354 C 0.01746 0.26323 0.41873
 H355 H 0.01257 0.28028 0.41811
 C356 C 0.03534 0.25673 0.43056
 H357 H 0.04392 0.26884 0.43938
 Zn358 Zn -0.01453 0.25801 0.38780
 N359 N 0.00675 0.24836 0.40713
 C360 C 0.01712 0.27932 0.36307
 N361 N -0.00307 0.28158 0.37126
 C362 C -0.01397 0.30097 0.36961
 C363 C -0.00464 0.31896 0.35939
 C364 C 0.02711 0.29695 0.35280
 C365 C -0.03945 0.22286 0.37544
 C366 C -0.04482 0.20433 0.36398
 C367 C -0.01337 0.20904 0.34141
 C368 C -0.00867 0.22767 0.35323
 N369 N -0.02171 0.23423 0.36988
 H370 H 0.02582 0.26405 0.36529
 H371 H -0.02976 0.30278 0.37662
 H372 H -0.01367 0.33418 0.35821
 H373 H 0.04342 0.29495 0.34701
 H374 H -0.04920 0.22778 0.38919
 H375 H -0.05881 0.19533 0.36897
 H376 H -0.00284 0.20401 0.32823
 H377 H 0.00555 0.23664 0.34927
 C378 C 0.04223 0.23473 0.43038
 C379 C -0.07700 0.28295 0.42271
 C380 C -0.03168 0.19713 0.34678
 C381 C 0.01628 0.31719 0.35104
 C382 C 1.02636 0.77159 0.08028
 H383 H 1.01182 0.78139 0.08068
 C384 C 1.04433 0.77919 0.06896
 H385 H 1.04341 0.79495 0.06084
 C386 C 1.04565 0.74013 0.09207
 H387 H 1.04653 0.72531 0.10163
 C388 C 1.06378 0.74686 0.08065
 H389 H 1.07803 0.73663 0.08116
 N390 N 1.02744 0.75257 0.09191
 C391 C 0.96479 0.72678 0.10739
 H392 H 0.96639 0.72580 0.12479
 C393 C 0.94714 0.71786 0.09773
 H394 H 0.93505 0.71016 0.10781
 C395 C 0.97889 0.73772 0.07313
 H396 H 0.99153 0.74517 0.06367
 C397 C 0.96122 0.72923 0.06276
 H398 H 0.96032 0.73015 0.04528
 Zn399 Zn 1.00414 0.74541 0.11059
 N400 N 0.98030 0.73627 0.09507
 C401 C 0.97676 0.77941 0.12598
 N402 N 0.99686 0.77073 0.12670
 C403 C 1.01246 0.78073 0.13767
 C404 C 1.00813 0.80033 0.14845
 C405 C 0.97172 0.79890 0.13657
 C406 C 1.01624 0.70225 0.11973
 C407 C 1.02244 0.68415 0.13218
 C408 C 1.01766 0.70597 0.16428
 C409 C 1.01205 0.72386 0.15110
 N410 N 1.01181 0.72178 0.12921
 H411 H 0.96464 0.77140 0.11694
 H412 H 1.02840 0.77366 0.13769
 H413 H 1.02088 0.80827 0.15669
 H414 H 0.95556 0.80539 0.13594
 H415 H 1.01544 0.70091 0.10231
 H416 H 1.02694 0.66921 0.12395
 H417 H 1.01745 0.70798 0.18166
 H418 H 1.00778 0.73934 0.15839
 C419 C 0.94529 0.71883 0.07515
 C420 C 1.06356 0.76699 0.06946
 C421 C 1.02331 0.68577 0.15485
 C422 C 0.98754 0.80977 0.14785
 C423 C 0.50491 0.27571 0.60231
 H424 H 0.48919 0.28330 0.60215
 C425 C 0.52155 0.28488 0.59015
 H426 H 0.51845 0.29941 0.58043
 C427 C 0.52810 0.24781 0.61555
 H428 H 0.53084 0.23379 0.62598
 C429 C 0.54516 0.25639 0.60362
 H430 H 0.56081 0.24877 0.60500
 N431 N 0.50840 0.25744 0.61460
 C432 C 0.44566 0.22925 0.62525
 H433 H 0.44595 0.22718 0.64267
 C434 C 0.42777 0.22314 0.61388
 H435 H 0.41439 0.21612 0.62264
 C436 C 0.46298 0.24061 0.59271
 H437 H 0.47679 0.24730 0.58451
 C438 C 0.44546 0.23453 0.58065
 H439 H 0.44583 0.23687 0.56324
 Zn440 Zn 0.48549 0.24689 0.63196
 N441 N 0.46260 0.23823 0.61465
 C442 C 0.45609 0.27802 0.64907
 N443 N 0.47642 0.27006 0.65027
 C444 C 0.49098 0.27978 0.66287
 C445 C 0.48537 0.29858 0.67454
 C446 C 0.44979 0.29657 0.66055
 C447 C 0.50107 0.20441 0.63627
 C448 C 0.50848 0.18545 0.64660
 C449 C 0.50071 0.20236 0.68107
 C450 C 0.49380 0.22123 0.67001
 N451 N 0.49440 0.22197 0.64800
 H452 H 0.44481 0.27047 0.63867
 H453 H 0.50715 0.27334 0.66327
 H454 H 0.49737 0.30654 0.68384
 H455 H 0.43350 0.30256 0.65927
 H456 H 0.50111 0.20539 0.61876
 H457 H 0.51464 0.17217 0.63677
 H458 H 0.49989 0.20204 0.69859
 H459 H 0.48794 0.23522 0.67900
 C460 C 0.42746 0.22592 0.59130
 C461 C 0.54204 0.27524 0.59080
 C462 C 0.50846 0.18417 0.66936
 C463 C 0.46461 0.30744 0.67311
 C464 C 0.48705 0.77514 0.92696
 H465 H 0.50247 0.78247 0.92869
 C466 C 0.46923 0.78376 0.93812
 H467 H 0.47110 0.79779 0.94838
 C468 C 0.46567 0.74880 0.91046
 H469 H 0.46407 0.73558 0.89926
 C470 C 0.44756 0.75678 0.92135
 H471 H 0.43243 0.74908 0.91877
 N472 N 0.48497 0.75796 0.91343
 C473 C 0.54677 0.72559 0.90353
 H474 H 0.54644 0.72458 0.88606
 C475 C 0.56360 0.71595 0.91478
 H476 H 0.57631 0.70771 0.90581
 C477 C 0.53056 0.73778 0.93630
 H478 H 0.51750 0.74609 0.94459
 C479 C 0.54724 0.72845 0.94825
 H480 H 0.54688 0.72959 0.96574
 Zn481 Zn 0.50887 0.74799 0.89671
 N482 N 0.53074 0.73631 0.91433
 C483 C 0.53994 0.77795 0.88219
 N484 N 0.51925 0.77209 0.88040
 C485 C 0.50539 0.78416 0.86825
 C486 C 0.51216 0.80310 0.85744
 C487 C 0.54741 0.79659 0.87152
 C488 C 0.49425 0.70650 0.88890
 C489 C 0.48660 0.68909 0.87721
 C490 C 0.49344 0.70949 0.84411
 C491 C 0.50067 0.72677 0.85653
 N492 N 0.50051 0.72510 0.87853
 H493 H 0.55067 0.76841 0.89216
 H494 H 0.48893 0.77934 0.86739
 H495 H 0.50073 0.81279 0.84835
 H496 H 0.56401 0.80073 0.87302
 H497 H 0.49465 0.70550 0.90639
 H498 H 0.48113 0.67463 0.88576
 H499 H 0.49312 0.71111 0.82664
 H500 H 0.50609 0.74156 0.84861
 C501 C 0.56396 0.71725 0.93744
 C502 C 0.44909 0.77468 0.93518
 C503 C 0.48587 0.69059 0.85457
 C504 C 0.53343 0.80965 0.85915
 C505 C 0.48183 -0.18159 0.34474
 C506 C 0.48152 -0.18220 0.36744
 C507 C 0.48712 -0.20133 0.37859
 C508 C 0.49290 -0.22066 0.36747
 C509 C 0.49416 -0.21955 0.34460
 C510 C 0.48836 -0.20037 0.33343
 C511 C 0.47486 -0.16149 0.33302
 C512 C 0.46098 -0.16274 0.31552
 C513 C 0.45295 -0.14371 0.30565
 C514 C 0.45873 -0.12301 0.31299
 C515 C 0.47324 -0.12182 0.32999
 C516 C 0.48116 -0.14084 0.33994
 C517 C 0.44879 -0.10282 0.30373
 C518 C 0.44252 -0.08550 0.31731
 C519 C 0.43193 -0.06707 0.30895
 C520 C 0.42726 -0.06554 0.28681
 C521 C 0.43397 -0.08262 0.27311
 C522 C 0.44463 -0.10105 0.28148
 H523 H 0.47651 -0.16797 0.37661
 H524 H 0.48658 -0.20125 0.39613
 H525 H 0.49988 -0.23321 0.33508
 H526 H 0.48928 -0.20013 0.31590
 H527 H 0.45568 -0.17844 0.31002
 H528 H 0.44158 -0.14521 0.29280
 H529 H 0.47834 -0.10614 0.33574
 H530 H 0.49213 -0.13943 0.35317
 H531 H 0.44524 -0.08643 0.33456
 H532 H 0.42725 -0.05406 0.31988
 H533 H 0.43047 -0.08203 0.25601
 H534 H 0.44948 -0.11400 0.27054
 C535 C 0.97515 0.30464 0.83139
 C536 C 0.99023 0.30898 0.84711
 C537 C 0.99906 0.29210 0.85959
 C538 C 0.99383 0.27003 0.85614
 C539 C 0.97792 0.26597 0.84085
 C540 C 0.96879 0.28302 0.82857
 C541 C 0.96572 0.32298 0.81865
 C542 C 0.94354 0.32538 0.81683
 C543 C 0.93469 0.34387 0.80660
 C544 C 0.94786 0.36023 0.79773
 C545 C 0.97010 0.35731 0.79892
 C546 C 0.97891 0.33898 0.80937
 C547 C 0.93848 0.38053 0.78792
 C548 C 0.94819 0.40084 0.79060
 C549 C 0.93913 0.41999 0.78189
 C550 C 0.92000 0.41940 0.77044
 C551 C 0.91034 0.39907 0.76768
 C552 C 0.91951 0.37989 0.77620
 H553 H 0.99477 0.32564 0.85019
 H554 H 1.00964 0.29678 0.87224
 H555 H 0.97261 0.24947 0.83838
 H556 H 0.95688 0.27929 0.81676
 H557 H 0.93304 0.31338 0.82407
 H558 H 0.91750 0.34568 0.80628
 H559 H 0.98076 0.36925 0.79184
 H560 H 0.99609 0.33735 0.81035
 H561 H 0.96263 0.40205 0.79979
 H562 H 0.94717 0.43528 0.78413
 H563 H 0.89542 0.39796 0.75927
 H564 H 0.91171 0.36455 0.77356
 C565 C 0.03258 1.19624 0.83483
 C566 C 0.03046 1.19591 0.85745
 C567 C 0.02115 1.21357 0.86829
 C568 C 0.01320 1.23209 0.85692
 C569 C 0.01629 1.23275 0.83420
 C570 C 0.02555 1.21488 0.82330
 C571 C 0.04193 1.17696 0.82354
 C572 C 0.03248 1.16881 0.80491
 C573 C 0.04028 1.14950 0.79545
 C574 C 0.05769 1.13801 0.80444
 C575 C 0.06751 1.14659 0.82266
 C576 C 0.05972 1.16581 0.83209
 C577 C 0.06555 1.11704 0.79509
 C578 C 0.07191 1.09962 0.80874
 C579 C 0.08024 1.08021 0.80008
 C580 C 0.08239 1.07774 0.77756
 C581 C 0.07552 1.09494 0.76389
 C582 C 0.06717 1.11437 0.77256
 H583 H 0.03564 1.18176 0.86681
 H584 H 0.01967 1.21261 0.88578
 H585 H 0.01191 1.24699 0.82467
 H586 H 0.02753 1.21577 0.80585
 H587 H 0.01862 1.17695 0.79810
 H588 H 0.03229 1.14323 0.78151
 H589 H 0.08128 1.13842 0.82964
 H590 H 0.06758 1.17193 0.84620
 H591 H 0.07054 1.10104 0.82617
 H592 H 0.08557 1.06739 0.81106
 H593 H 0.07676 1.09343 0.74646
 H594 H 0.06250 1.12751 0.76163
 C595 C 0.51167 0.69906 0.34359
 C596 C 0.52758 0.70742 0.35665
 C597 C 0.52406 0.72659 0.36824
 C598 C 0.50469 0.73864 0.36659
 C599 C 0.48881 0.73011 0.35330
 C600 C 0.49227 0.71073 0.34190
 C601 C 0.51521 0.67787 0.33243
 C602 C 0.50754 0.67454 0.31150
 C603 C 0.51167 0.65478 0.30089
 C604 C 0.52364 0.63796 0.31094
 C605 C 0.53097 0.64123 0.33201
 C606 C 0.52666 0.66082 0.34265
 C607 C 0.52942 0.61744 0.29935
 C608 C 0.53122 0.59748 0.31078
 C609 C 0.53928 0.57876 0.30060
 C610 C 0.54540 0.57936 0.27858
 C611 C 0.54239 0.59899 0.26682
 C612 C 0.53463 0.61784 0.27711
 H613 H 0.54281 0.69897 0.35818
 H614 H 0.53653 0.73129 0.37895
 H615 H 0.47344 0.73837 0.35209
 H616 H 0.47950 0.70454 0.33230
 H617 H 0.49874 0.68737 0.30312
 H618 H 0.50555 0.65272 0.28478
 H619 H 0.54054 0.62885 0.34017
 H620 H 0.53242 0.66260 0.35894
 H621 H 0.52688 0.59642 0.32780
 H622 H 0.54152 0.56408 0.31031
 H623 H 0.54649 0.59998 0.24974
 H624 H 0.53357 0.63291 0.26779
 C625 C 0.51568 0.30754 0.13936
 C626 C 0.49746 0.29554 0.14476
 C627 C 0.49348 0.27594 0.13422
 C628 C 0.50802 0.26742 0.11858
 C629 C 0.52509 0.28081 0.11190
 C630 C 0.52902 0.30030 0.12235
 C631 C 0.52132 0.32731 0.15149
 C632 C 0.54265 0.33053 0.15693
 C633 C 0.54858 0.34954 0.16722
 C634 C 0.53333 0.36585 0.17235
 C635 C 0.51183 0.36238 0.16764
 C636 C 0.50586 0.34324 0.15727
 C637 C 0.54025 0.38647 0.18218
 C638 C 0.52886 0.39592 0.19962
 C639 C 0.53660 0.41444 0.20978
 C640 C 0.55584 0.42376 0.20264
 C641 C 0.56668 0.41480 0.18464
 C642 C 0.55898 0.39640 0.17454
 H643 H 0.48661 0.30098 0.15752
 H644 H 0.47935 0.26698 0.13879
 H645 H 0.53557 0.27646 0.09849
 H646 H 0.54258 0.30981 0.11707
 H647 H 0.55483 0.31829 0.15318
 H648 H 0.56518 0.35149 0.17116
 H649 H 0.49976 0.37472 0.17139
 H650 H 0.48931 0.34120 0.15321
 H651 H 0.51441 0.38855 0.20587
 H652 H 0.52796 0.42100 0.22366
 H653 H 0.58125 0.42196 0.17845
 H654 H 0.56780 0.38981 0.16079
 C655 C 0.02750 0.80667 0.65034
 C656 C 0.01944 0.78852 0.66163
 C657 C 0.01121 0.77091 0.65038
 C658 C 0.01000 0.77151 0.62752
 C659 C 0.01848 0.78988 0.61650
 C660 C 0.02707 0.80713 0.62770
 C661 C 0.03690 0.82504 0.66188
 C662 C 0.05747 0.83187 0.65620
 C663 C 0.06598 0.85020 0.66579
 C664 C 0.05392 0.86244 0.68098
 C665 C 0.03345 0.85522 0.68703
 C666 C 0.02508 0.83658 0.67766
 C667 C 0.06268 0.88279 0.69004
 C668 C 0.05829 0.88889 0.71161
 C669 C 0.06734 0.90760 0.72014
 C670 C 0.08116 0.92034 0.70736
 C671 C 0.08518 0.91461 0.68575
 C672 C 0.07588 0.89620 0.67712
 H673 H 0.02010 0.78770 0.67913
 H674 H 0.00633 0.75684 0.65979
 H675 H 0.01839 0.79083 0.59897
 H676 H 0.03329 0.82097 0.61866
 H677 H 0.06694 0.82302 0.64423
 H678 H 0.08203 0.85479 0.66121
 H679 H 0.02362 0.86430 0.69850
 H680 H 0.00910 0.83161 0.68214
 H681 H 0.04838 0.87888 0.72211
 H682 H 0.06416 0.91169 0.73692
 H683 H 0.09561 0.92439 0.67554
 H684 H 0.07912 0.89249 0.66027
 C685 C 0.97438 0.69826 0.65174
 C686 C 0.96655 0.71976 0.65420
 C687 C 0.97549 0.73694 0.64216
 C688 C 0.99281 0.73325 0.62762
 C689 C 0.99971 0.71132 0.62456
 C690 C 0.99090 0.69426 0.63666
 C691 C 0.96498 0.67974 0.66412
 C692 C 0.97820 0.66307 0.67265
 C693 C 0.96941 0.64471 0.68279
 C694 C 0.94719 0.64257 0.68460
 C695 C 0.93397 0.65955 0.67659
 C696 C 0.94278 0.67797 0.66650
 C697 C 0.93782 0.62238 0.69408
 C698 C 0.91928 0.62352 0.70716
 C699 C 0.90981 0.60446 0.71505
 C700 C 0.91868 0.58380 0.71009
 C701 C 0.93753 0.58264 0.69750
 C702 C 0.94696 0.60171 0.68953
 H703 H 0.95360 0.72330 0.66553
 H704 H 0.96895 0.75331 0.64427
 H705 H 1.01157 0.70688 0.61243
 H706 H 0.99664 0.67773 0.63374
 H707 H 0.99538 0.66417 0.67135
 H708 H 0.98003 0.63214 0.68916
 H709 H 0.91679 0.65829 0.67746
 H710 H 0.93220 0.69043 0.65986
 H711 H 0.91206 0.63917 0.71130
 H712 H 0.89550 0.60587 0.72504
 H713 H 0.94458 0.56696 0.69320
 H714 H 0.96107 0.60024 0.67925
 C715 C 0.49157 0.19003 0.15148
 C716 C 0.48940 0.18822 0.12906
 C717 C 0.49337 0.20603 0.11540
 C718 C 0.49944 0.22634 0.12372
 C719 C 0.50295 0.22752 0.14623
 C720 C 0.49856 0.20974 0.15996
 C721 C 0.48570 0.17151 0.16584
 C722 C 0.47124 0.17470 0.18316
 C723 C 0.46313 0.15678 0.19467
 C724 C 0.46953 0.13534 0.18921
 C725 C 0.48509 0.13235 0.17276
 C726 C 0.49296 0.15024 0.16109
 C727 C 0.45862 0.11623 0.19917
 C728 C 0.45366 0.09825 0.18636
 C729 C 0.44163 0.08116 0.19491
 C730 C 0.43402 0.08167 0.21643
 C731 C 0.43958 0.09923 0.22953
 C732 C 0.45177 0.11632 0.22099
 H733 H 0.48407 0.17315 0.12210
 H734 H 0.49131 0.20411 0.09816
 H735 H 0.50931 0.24194 0.15344
 H736 H 0.50086 0.21127 0.17721
 H737 H 0.46531 0.19097 0.18699
 H738 H 0.45101 0.15970 0.20705
 H739 H 0.49077 0.11612 0.16849
 H740 H 0.50434 0.14744 0.14796
 H741 H 0.45838 0.09771 0.16942
 H742 H 0.43798 0.06767 0.18450
 H743 H 0.43389 0.10015 0.24615
 H744 H 0.45554 0.12978 0.23138
 C745 C 0.34326 0.47964 -0.18697
 C746 C 0.33960 0.47385 -0.20847
 C747 C 0.35113 0.48358 -0.22551
 C748 C 0.36634 0.49978 -0.22163
 C749 C 0.37077 0.50429 -0.19976
 C750 C 0.35913 0.49473 -0.18282
 C751 C 0.33105 0.46969 -0.16871
 C752 C 0.32337 0.48274 -0.15161
 C753 C 0.31292 0.47335 -0.13374
 C754 C 0.31003 0.45063 -0.13248
 C755 C 0.31736 0.43762 -0.14983
 C756 C 0.32769 0.44707 -0.16779
 C757 C 0.29991 0.44052 -0.11292
 C758 C 0.28628 0.42270 -0.11477
 C759 C 0.27731 0.41282 -0.09631
 C760 C 0.28166 0.42058 -0.07554
 C761 C 0.29507 0.43857 -0.07370
 C762 C 0.30412 0.44838 -0.09215
 H763 H 0.32767 0.46195 -0.21213
 H764 H 0.34802 0.47863 -0.24191
 H765 H 0.38357 0.51481 -0.19535
 H766 H 0.36293 0.49877 -0.16632
 H767 H 0.32547 0.50028 -0.15207
 H768 H 0.30707 0.48390 -0.12091
 H769 H 0.31567 0.42005 -0.14926
 H770 H 0.33366 0.43661 -0.18064
 H771 H 0.28249 0.41640 -0.13051
 H772 H 0.26729 0.39881 -0.09833
 H773 H 0.29857 0.44512 -0.05798
 H774 H 0.31476 0.46189 -0.09009
 C775 C 0.85603 0.98020 0.30600
 C776 C 0.84619 0.98958 0.28777
 C777 C 0.85831 0.99571 0.26949
 C778 C 0.88060 0.99198 0.26870
 C779 C 0.89032 0.98333 0.28747
 C780 C 0.87825 0.97729 0.30566
 C781 C 0.84331 0.97322 0.32531
 C782 C 0.85081 0.97662 0.34630
 C783 C 0.83971 0.96857 0.36443
 C784 C 0.82085 0.95692 0.36202
 C785 C 0.81299 0.95410 0.34107
 C786 C 0.82408 0.96218 0.32292
 C787 C 0.80995 0.94692 0.38117
 C788 C 0.80182 0.92573 0.37998
 C789 C 0.79215 0.91592 0.39807
 C790 C 0.79032 0.92705 0.41782
 C791 C 0.79842 0.94825 0.41905
 C792 C 0.80813 0.95808 0.40091
 H793 H 0.82912 0.99261 0.28782
 H794 H 0.85011 1.00381 0.25632
 H795 H 0.90747 0.98104 0.28792
 H796 H 0.88636 0.97005 0.31940
 H797 H 0.86543 0.98534 0.34869
 H798 H 0.84627 0.97090 0.38032
 H799 H 0.79833 0.94545 0.33870
 H800 H 0.81795 0.95920 0.30697
 H801 H 0.80338 0.91651 0.36517
 H802 H 0.78648 0.89940 0.39670
 H803 H 0.79703 0.95734 0.43395
 H804 H 0.81404 0.97451 0.40227
 C805 C 0.86326 0.01396 1.18813
 C806 C 0.87845 0.02815 1.19612
 C807 C 0.88831 0.02378 1.21577
 C808 C 0.88287 0.00534 1.22859
 C809 C 0.86815 -0.00930 1.22000
 C810 C 0.85818 -0.00484 1.20027
 C811 C 0.85304 0.01899 1.16709
 C812 C 0.83095 0.01679 1.16463
 C813 C 0.82113 0.02392 1.14554
 C814 C 0.83323 0.03337 1.12860
 C815 C 0.85543 0.03449 1.13068
 C816 C 0.86522 0.02737 1.14967
 C817 C 0.82273 0.04344 1.10947
 C818 C 0.82918 0.06404 1.10180
 C819 C 0.81904 0.07414 1.08432
 C820 C 0.80225 0.06387 1.07400
 C821 C 0.79595 0.04311 1.08140
 C822 C 0.80601 0.03304 1.09909
 H823 H 0.88279 0.04276 1.18712
 H824 H 0.90061 0.03480 1.22049
 H825 H 0.86443 -0.02432 1.22860
 H826 H 0.84688 -0.01635 1.19427
 H827 H 0.82116 0.01049 1.17782
 H828 H 0.80397 0.02296 1.14442
 H829 H 0.86522 0.04126 1.11771
 H830 H 0.88233 0.02877 1.15088
 H831 H 0.84182 0.07259 1.10962
 H832 H 0.82438 0.09003 1.07882
 H833 H 0.78296 0.03489 1.07380
 H834 H 0.80079 0.01712 1.10461
 C835 C 0.34124 0.53826 0.70678
 C836 C 0.36355 0.53762 0.70550
 C837 C 0.37538 0.52895 0.72257
 C838 C 0.36529 0.52041 0.74141
 C839 C 0.34287 0.52283 0.74323
 C840 C 0.33101 0.53116 0.72591
 C841 C 0.32881 0.54572 0.68786
 C842 C 0.31251 0.53277 0.67994
 C843 C 0.30201 0.53884 0.66093
 C844 C 0.30740 0.55816 0.64978
 C845 C 0.32329 0.57140 0.65806
 C846 C 0.33402 0.56515 0.67683
 C847 C 0.29697 0.56428 0.62921
 C848 C 0.28932 0.58573 0.62578
 C849 C 0.28056 0.59189 0.60595
 C850 C 0.27952 0.57681 0.58905
 C851 C 0.28694 0.55527 0.59254
 C852 C 0.29543 0.54900 0.61253
 H853 H 0.37185 0.54314 0.69096
 H854 H 0.39258 0.52811 0.72077
 H855 H 0.33425 0.51835 0.75785
 H856 H 0.31379 0.53216 0.72747
 H857 H 0.30836 0.51761 0.68808
 H858 H 0.28973 0.52843 0.65490
 H859 H 0.32782 0.58630 0.64966
 H860 H 0.34651 0.57541 0.68268
 H861 H 0.29026 0.59776 0.63843
 H862 H 0.27516 0.60867 0.60360
 H863 H 0.28626 0.54334 0.57978
 H864 H 0.30137 0.53240 0.61475
 C865 C 0.16983 0.51771 0.31071
 C866 C 0.15427 0.53245 0.30302
 C867 C 0.14162 0.52713 0.28561
 C868 C 0.14455 0.50705 0.27475
 C869 C 0.15981 0.49203 0.28311
 C870 C 0.17234 0.49732 0.30075
 C871 C 0.18290 0.52368 0.32944
 C872 C 0.18603 0.50898 0.34682
 C873 C 0.19679 0.51550 0.36526
 C874 C 0.20482 0.53674 0.36653
 C875 C 0.20225 0.55114 0.34882
 C876 C 0.19139 0.54470 0.33052
 C877 C 0.21483 0.54448 0.38658
 C878 C 0.23268 0.55797 0.38530
 C879 C 0.24050 0.56755 0.40388
 C880 C 0.23064 0.56389 0.42419
 C881 C 0.21347 0.54949 0.42566
 C882 C 0.20564 0.53987 0.40703
 H883 H 0.15146 0.54799 0.31091
 H884 H 0.12920 0.53875 0.28126
 H885 H 0.16199 0.47608 0.27589
 H886 H 0.18410 0.48554 0.30650
 H887 H 0.17953 0.49273 0.34644
 H888 H 0.19866 0.50401 0.37861
 H889 H 0.20801 0.56769 0.34940
 H890 H 0.18937 0.55629 0.31728
 H891 H 0.24035 0.56148 0.36982
 H892 H 0.25404 0.57820 0.40229
 H893 H 0.20542 0.54649 0.44104
 H894 H 0.19174 0.52970 0.40851
 C895 C 0.66965 0.01750 0.80533
 C896 C 0.67301 -0.00256 0.79494
 C897 C 0.65993 -0.00855 0.77796
 C898 C 0.64327 0.00545 0.77070
 C899 C 0.63949 0.02508 0.78210
 C900 C 0.65268 0.03114 0.79881
 C901 C 0.68315 0.02418 0.82345
 C902 C 0.69027 0.04575 0.82435
 C903 C 0.70081 0.05302 0.84252
 C904 C 0.70434 0.03894 0.86031
 C905 C 0.69818 0.01702 0.85897
 C906 C 0.68770 0.00969 0.84066
 C907 C 0.71298 0.04764 0.88066
 C908 C 0.72768 0.03548 0.89310
 C909 C 0.73533 0.04389 0.91243
 C910 C 0.72826 0.06450 0.91976
 C911 C 0.71363 0.07661 0.90723
 C912 C 0.70606 0.06827 0.88801
 H913 H 0.68582 -0.01354 0.79987
 H914 H 0.66282 -0.02422 0.77036
 H915 H 0.62602 0.03576 0.77869
 H916 H 0.64922 0.04632 0.80713
 H917 H 0.68730 0.05714 0.81113
 H918 H 0.70583 0.06985 0.84283
 H919 H 0.70055 0.00582 0.87245
 H920 H 0.68227 -0.00700 0.84040
 H921 H 0.73338 0.01958 0.88779
 H922 H 0.74654 0.03416 0.92178
 H923 H 0.70813 0.09270 0.91220
 H924 H 0.69450 0.07792 0.87902
 C925 C 0.66010 0.98071 0.69121
 C926 C 0.63854 0.97614 0.69524
 C927 C 0.62878 0.98150 0.71497
 C928 C 0.64035 0.99098 0.73172
 C929 C 0.66187 0.99613 0.72731
 C930 C 0.67162 0.99086 0.70744
 C931 C 0.67039 0.97485 0.67012
 C932 C 0.69143 0.96647 0.66919
 C933 C 0.70052 0.95956 0.64953
 C934 C 0.68873 0.96074 0.63042
 C935 C 0.66798 0.96973 0.63120
 C936 C 0.65895 0.97680 0.65079
 C937 C 0.69750 0.95134 0.61003
 C938 C 0.68487 0.93772 0.59763
 C939 C 0.69334 0.92760 0.57918
 C940 C 0.71456 0.93105 0.57259
 C941 C 0.72705 0.94518 0.58457
 C942 C 0.71864 0.95512 0.60325
 H943 H 0.62917 0.96821 0.68318
 H944 H 0.61201 0.97807 0.71732
 H945 H 0.67120 1.00482 0.73881
 H946 H 0.68809 0.99521 0.70460
 H947 H 0.70061 0.96453 0.68379
 H948 H 0.71648 0.95247 0.64942
 H949 H 0.65866 0.97114 0.61664
 H950 H 0.64292 0.98368 0.65081
 H951 H 0.66860 0.93435 0.60259
 H952 H 0.68334 0.91690 0.57012
 H953 H 0.74349 0.94800 0.57987
 H954 H 0.72866 0.96566 0.61246
 C955 C 0.16363 0.48038 0.19630
 C956 C 0.14151 0.47818 0.19895
 C957 C 0.13117 0.48464 0.21803
 C958 C 0.14260 0.49280 0.23556
 C959 C 0.16474 0.49580 0.23248
 C960 C 0.17509 0.48947 0.21321
 C961 C 0.17456 0.47287 0.17605
 C962 C 0.19470 0.46237 0.17669
 C963 C 0.20404 0.45360 0.15788
 C964 C 0.19333 0.45497 0.13813
 C965 C 0.17360 0.46612 0.13731
 C966 C 0.16440 0.47510 0.15600
 C967 C 0.20198 0.44364 0.11874
 C968 C 0.18875 0.43011 0.10690
 C969 C 0.19684 0.41868 0.08906
 C970 C 0.21826 0.42076 0.08250
 C971 C 0.23145 0.43457 0.09407
 C972 C 0.22342 0.44576 0.11220
 H973 H 0.13212 0.47110 0.18638
 H974 H 0.11405 0.48284 0.21936
 H975 H 0.17419 0.50345 0.24459
 H976 H 0.19206 0.49204 0.21143
 H977 H 0.20288 0.46015 0.19186
 H978 H 0.21921 0.44493 0.15894
 H979 H 0.16519 0.46767 0.12218
 H980 H 0.14916 0.48359 0.15478
 H981 H 0.17222 0.42805 0.11174
 H982 H 0.18633 0.40826 0.08029
 H983 H 0.24804 0.43634 0.08933
 H984 H 0.23389 0.45615 0.12106
 C985 C -0.21584 0.34645 0.48056
 C986 C -0.22381 0.36353 0.46752
 C987 C -0.24215 0.37524 0.47366
 C988 C -0.25369 0.36982 0.49279
 C989 C -0.24491 0.35334 0.50638
 C990 C -0.22640 0.34164 0.50023
 C991 C -0.19619 0.33435 0.47362
 C992 C -0.17978 0.32956 0.48825
 C993 C -0.16042 0.32023 0.48094
 C994 C -0.15715 0.31560 0.45887
 C995 C -0.17393 0.31948 0.44450
 C996 C -0.19320 0.32872 0.45178
 C997 C -0.13610 0.30770 0.45046
 C998 C -0.12768 0.31664 0.43114
 C999 C -0.10834 0.30888 0.42250
 C1000 C -0.09692 0.29190 0.43288
 C1001 C -0.10500 0.28334 0.45256
 C1002 C -0.12441 0.29121 0.46130
 H1003 H -0.21548 0.36829 0.45274
 H1004 H -0.24679 0.38894 0.46347
 H1005 H -0.25245 0.34950 0.52183
 H1006 H -0.22040 0.32877 0.51082
 H1007 H -0.18159 0.33384 0.50515
 H1008 H -0.14773 0.31747 0.49236
 H1009 H -0.17204 0.31559 0.42750
 H1010 H -0.20571 0.33178 0.44021
 H1011 H -0.13605 0.32974 0.42272
 H1012 H -0.10230 0.31622 0.40762
 H1013 H -0.09663 0.27017 0.46087
 H1014 H -0.13057 0.28400 0.47619
 C1015 C 0.31449 0.84519 0.99516
 C1016 C 0.31303 0.86777 0.99115
 C1017 C 0.29381 0.87912 0.99449
 C1018 C 0.27517 0.86825 1.00140
 C1019 C 0.27719 0.84581 1.00689
 C1020 C 0.29649 0.83440 1.00342
 C1021 C 0.33451 0.83294 0.98975
 C1022 C 0.33377 0.81291 0.97894
 C1023 C 0.35253 0.80255 0.97160
 C1024 C 0.37245 0.81194 0.97496
 C1025 C 0.37327 0.83147 0.98661
 C1026 C 0.35449 0.84189 0.99389
 C1027 C 0.39213 0.80211 0.96516
 C1028 C 0.41128 0.80090 0.97663
 C1029 C 0.42982 0.79201 0.96698
 C1030 C 0.42958 0.78423 0.94565
 C1031 C 0.41042 0.78565 0.93420
 C1032 C 0.39194 0.79442 0.94385
 H1033 H 0.32661 0.87661 0.98479
 H1034 H 0.29326 0.89652 0.99100
 H1035 H 0.26412 0.83690 1.01407
 H1036 H 0.29737 0.81711 1.00735
 H1037 H 0.31862 0.80569 0.97538
 H1038 H 0.35143 0.78735 0.96292
 H1039 H 0.38838 0.83914 0.98937
 H1040 H 0.35557 0.85717 1.00242
 H1041 H 0.41185 0.80660 0.99313
 H1042 H 0.44426 0.79096 0.97630
 H1043 H 0.40978 0.78033 0.91758
 H1044 H 0.37757 0.79560 0.93442
 C1045 C 1.19731 0.84347 0.01970
 C1046 C 1.21066 0.83813 0.00196
 C1047 C 1.22881 0.85043 -0.00279
 C1048 C 1.23456 0.86794 0.01050
 C1049 C 1.22013 0.87396 0.02735
 C1050 C 1.20205 0.86180 0.03199
 C1051 C 1.17841 0.83023 0.02563
 C1052 C 1.17325 0.82635 0.04756
 C1053 C 1.15499 0.81498 0.05352
 C1054 C 1.14145 0.80690 0.03774
 C1055 C 1.14674 0.81043 0.01574
 C1056 C 1.16506 0.82196 0.00974
 C1057 C 1.12177 0.79526 0.04449
 C1058 C 1.10250 0.79873 0.03355
 C1059 C 1.08367 0.78913 0.04123
 C1060 C 1.08369 0.77592 0.06005
 C1061 C 1.10312 0.77206 0.07058
 C1062 C 1.12188 0.78142 0.06282
 H1063 H 1.20726 0.82429 -0.00807
 H1064 H 1.23862 0.84611 -0.01675
 H1065 H 1.22230 0.88843 0.03685
 H1066 H 1.19151 0.86705 0.04508
 H1067 H 1.18335 0.83219 0.06020
 H1068 H 1.15128 0.81291 0.07061
 H1069 H 1.13675 0.80426 0.00318
 H1070 H 1.16852 0.82482 -0.00729
 H1071 H 1.10182 0.80941 0.01946
 H1072 H 1.06908 0.79225 0.03253
 H1073 H 1.10381 0.76232 0.08532
 H1074 H 1.13649 0.77805 0.07142
 C1075 C 0.67126 0.34710 0.52389
 C1076 C 0.68795 0.33600 0.51291
 C1077 C 0.70578 0.34732 0.50509
 C1078 C 0.70757 0.36999 0.50855
 C1079 C 0.69004 0.38107 0.51836
 C1080 C 0.67234 0.36983 0.52608
 C1081 C 0.65272 0.33531 0.53322
 C1082 C 0.64419 0.34133 0.55354
 C1083 C 0.62610 0.33124 0.56206
 C1084 C 0.61611 0.31479 0.55054
 C1085 C 0.62492 0.30829 0.53048
 C1086 C 0.64305 0.31848 0.52188
 C1087 C 0.59653 0.30464 0.55958
 C1088 C 0.59390 0.28191 0.55894
 C1089 C 0.57600 0.27236 0.56870
 C1090 C 0.56032 0.28538 0.57915
 C1091 C 0.56269 0.30816 0.57924
 C1092 C 0.58060 0.31767 0.56958
 H1093 H 0.68737 0.31851 0.51063
 H1094 H 0.71790 0.33820 0.49622
 H1095 H 0.69028 0.39862 0.52043
 H1096 H 0.65940 0.37900 0.53374
 H1097 H 0.65156 0.35388 0.56291
 H1098 H 0.61999 0.33623 0.57779
 H1099 H 0.61747 0.29572 0.52121
 H1100 H 0.64916 0.31360 0.50612
 H1101 H 0.60597 0.27146 0.55143
 H1102 H 0.57449 0.25478 0.56819
 H1103 H 0.55100 0.31861 0.58733
 H1104 H 0.58206 0.33527 0.57006
 C1105 C 0.29746 0.17089 0.51707
 C1106 C 0.27695 0.17609 0.52520
 C1107 C 0.25910 0.16556 0.51741
 C1108 C 0.26110 0.14969 0.50104
 C1109 C 0.28185 0.14475 0.49295
 C1110 C 0.29959 0.15546 0.50053
 C1111 C 0.31674 0.18031 0.52673
 C1112 C 0.33514 0.16718 0.52970
 C1113 C 0.35319 0.17566 0.53913
 C1114 C 0.35325 0.19743 0.54603
 C1115 C 0.33490 0.21061 0.54315
 C1116 C 0.31684 0.20216 0.53353
 C1117 C 0.37224 0.20596 0.55683
 C1118 C 0.36992 0.21816 0.57587
 C1119 C 0.38786 0.22486 0.58690
 C1120 C 0.40848 0.21966 0.57903
 C1121 C 0.41080 0.20799 0.55966
 C1122 C 0.39285 0.20112 0.54872
 H1123 H 0.27477 0.18758 0.53828
 H1124 H 0.24367 0.16924 0.52478
 H1125 H 0.28483 0.13188 0.48141
 H1126 H 0.31513 0.15115 0.49379
 H1127 H 0.33546 0.15013 0.52520
 H1128 H 0.36695 0.16500 0.54154
 H1129 H 0.33460 0.22751 0.54819
 H1130 H 0.30303 0.21277 0.53128
 H1131 H 0.35423 0.22197 0.58256
 H1132 H 0.38561 0.23406 0.60166
 H1133 H 0.42649 0.20366 0.55329
 H1134 H 0.39509 0.19191 0.53397
 C1135 C 0.81386 0.64640 0.02081
 C1136 C 0.81201 0.62418 0.02616
 C1137 C 0.79388 0.61284 0.02072
 C1138 C 0.77653 0.62356 0.01060
 C1139 C 0.77918 0.64552 0.00386
 C1140 C 0.79754 0.65685 0.00911
 C1141 C 0.83273 0.65845 0.02785
 C1142 C 0.84426 0.67184 0.01338
 C1143 C 0.86283 0.68201 0.02005
 C1144 C 0.87006 0.67910 0.04135
 C1145 C 0.85798 0.66630 0.05593
 C1146 C 0.83965 0.65602 0.04923
 C1147 C 0.89022 0.68896 0.04852
 C1148 C 0.90347 0.67740 0.06298
 C1149 C 0.92156 0.68700 0.07115
 C1150 C 0.92705 0.70831 0.06487
 C1151 C 0.91447 0.71961 0.04968
 C1152 C 0.89613 0.71006 0.04164
 H1153 H 0.82471 0.61553 0.03452
 H1154 H 0.79318 0.59561 0.02486
 H1155 H 0.76717 0.65401 -0.00555
 H1156 H 0.79883 0.67388 0.00436
 H1157 H 0.83927 0.67389 -0.00323
 H1158 H 0.87181 0.69165 0.00837
 H1159 H 0.86268 0.66423 0.07263
 H1160 H 0.83080 0.64612 0.06082
 H1161 H 0.89980 0.66089 0.06813
 H1162 H 0.93125 0.67781 0.08255
 H1163 H 0.91839 0.73610 0.04466
 H1164 H 0.88623 0.71946 0.03061
 C1165 C 0.69672 0.64620 0.99476
 C1166 C 0.71103 0.65322 1.01029
 C1167 C 0.73049 0.64204 1.01326
 C1168 C 0.73660 0.62420 1.00005
 C1169 C 0.72171 0.61709 0.98488
 C1170 C 0.70230 0.62805 0.98212
 C1171 C 0.67580 0.65731 0.99165
 C1172 C 0.65740 0.64486 0.98961
 C1173 C 0.63814 0.65480 0.98373
 C1174 C 0.63686 0.67742 0.97962
 C1175 C 0.65497 0.69009 0.98292
 C1176 C 0.67428 0.68011 0.98895
 C1177 C 0.61730 0.68729 0.97008
 C1178 C 0.60950 0.70798 0.97642
 C1179 C 0.59176 0.71755 0.96628
 C1180 C 0.58169 0.70668 0.94948
 C1181 C 0.58926 0.68582 0.94350
 C1182 C 0.60683 0.67626 0.95365
 H1183 H 0.70686 0.66692 1.02058
 H1184 H 0.74065 0.64715 1.02615
 H1185 H 0.72469 0.60258 0.97538
 H1186 H 0.69150 0.62220 0.97009
 H1187 H 0.65806 0.62729 0.99204
 H1188 H 0.62435 0.64467 0.98181
 H1189 H 0.65450 0.70754 0.97976
 H1190 H 0.68828 0.69004 0.99038
 H1191 H 0.61717 0.71680 0.98912
 H1192 H 0.58631 0.73369 0.97113
 H1193 H 0.58166 0.67695 0.93078
 H1194 H 0.61260 0.66044 0.94816
 C1195 C 0.18326 0.17088 0.47726
 C1196 C 0.18345 0.14837 0.48190
 C1197 C 0.20223 0.13753 0.48766
 C1198 C 0.22143 0.14886 0.48986
 C1199 C 0.22131 0.17142 0.48468
 C1200 C 0.20242 0.18230 0.47867
 C1201 C 0.16308 0.18206 0.47070
 C1202 C 0.15770 0.20323 0.47791
 C1203 C 0.13804 0.21299 0.47265
 C1204 C 0.12338 0.20167 0.46029
 C1205 C 0.12898 0.18079 0.45267
 C1206 C 0.14863 0.17118 0.45767
 C1207 C 0.10223 0.21133 0.45515
 C1208 C 0.08389 0.19866 0.45748
 C1209 C 0.06420 0.20671 0.45047
 C1210 C 0.06243 0.22755 0.44075
 C1211 C 0.08062 0.24066 0.43939
 C1212 C 0.10033 0.23264 0.44662
 H1213 H 0.16900 0.13905 0.48122
 H1214 H 0.20176 0.12007 0.49075
 H1215 H 0.23580 0.18068 0.48469
 H1216 H 0.20292 0.19955 0.47461
 H1217 H 0.16840 0.21200 0.48809
 H1218 H 0.13406 0.22913 0.47869
 H1219 H 0.11816 0.17193 0.44268
 H1220 H 0.15248 0.15514 0.45130
 H1221 H 0.08489 0.18231 0.46438
 H1222 H 0.05043 0.19640 0.45223
 H1223 H 0.07988 0.25669 0.43179
 H1224 H 0.11427 0.24268 0.44458
 C1225 C 0.58704 0.05208 0.73036
 C1226 C 0.60938 0.05325 0.72937
 C1227 C 0.62211 0.03580 0.73653
 C1228 C 0.61309 0.01648 0.74506
 C1229 C 0.59067 0.01480 0.74451
 C1230 C 0.57787 0.03250 0.73775
 C1231 C 0.57356 0.07119 0.72346
 C1232 C 0.55393 0.06828 0.71334
 C1233 C 0.54175 0.08631 0.70630
 C1234 C 0.54904 0.10774 0.70882
 C1235 C 0.56852 0.11061 0.71923
 C1236 C 0.58046 0.09264 0.72665
 C1237 C 0.53697 0.12695 0.69982
 C1238 C 0.53759 0.14749 0.70979
 C1239 C 0.52800 0.16593 0.70020
 C1240 C 0.51714 0.16427 0.68058
 C1241 C 0.51559 0.14352 0.67121
 C1242 C 0.52556 0.12519 0.68055
 H1243 H 0.61714 0.06762 0.72291
 H1244 H 0.63926 0.03747 0.73569
 H1245 H 0.58275 -0.00010 0.74909
 H1246 H 0.56074 0.03082 0.73852
 H1247 H 0.54813 0.05207 0.71038
 H1248 H 0.52666 0.08338 0.69875
 H1249 H 0.57492 0.12674 0.72122
 H1250 H 0.59521 0.09564 0.73483
 H1251 H 0.54575 0.14947 0.72490
 H1252 H 0.52973 0.18158 0.70788
 H1253 H 0.50692 0.14141 0.65642
 H1254 H 0.52484 0.10979 0.67220
 C1255 C 1.09219 0.55588 0.23101
 C1256 C 1.08179 0.53730 0.23927
 C1257 C 1.09344 0.51923 0.24713
 C1258 C 1.11593 0.51953 0.24791
 C1259 C 1.12618 0.53802 0.23902
 C1260 C 1.11459 0.55576 0.23070
 C1261 C 1.07995 0.57512 0.22224
 C1262 C 1.08813 0.59631 0.22353
 C1263 C 1.07758 0.61416 0.21397
 C1264 C 1.05817 0.61154 0.20334
 C1265 C 1.04950 0.59049 0.20288
 C1266 C 1.06035 0.57251 0.21196
 C1267 C 1.04763 0.63047 0.19201
 C1268 C 1.03602 0.62734 0.17306
 C1269 C 1.02741 0.64514 0.16158
 C1270 C 1.03064 0.66670 0.16833
 C1271 C 1.04178 0.66982 0.18758
 C1272 C 1.04991 0.65197 0.19938
 H1273 H 1.06457 0.53663 0.23975
 H1274 H 1.08456 0.50508 0.25224
 H1275 H 1.14342 0.53868 0.23854
 H1276 H 1.12333 0.56927 0.22370
 H1277 H 1.10286 0.59919 0.23177
 H1278 H 1.08506 0.62992 0.21449
 H1279 H 1.03437 0.58776 0.19533
 H1280 H 1.05354 0.55651 0.21039
 H1281 H 1.03404 0.61117 0.16659
 H1282 H 1.01843 0.64190 0.14723
 H1283 H 1.04484 0.68607 0.19332
 H1284 H 1.05822 0.65514 0.21418
 C1285 C 0.93542 0.94606 0.22351
 C1286 C 0.91833 0.94157 0.23772
 C1287 C 0.90596 0.95845 0.24665
 C1288 C 0.91055 0.98062 0.24222
 C1289 C 0.92757 0.98497 0.22760
 C1290 C 0.93997 0.96798 0.21858
 C1291 C 0.94723 0.92772 0.21280
 C1292 C 0.95247 0.92880 0.19059
 C1293 C 0.96116 0.91053 0.17998
 C1294 C 0.96478 0.89075 0.19131
 C1295 C 0.96041 0.89001 0.21372
 C1296 C 0.95179 0.90827 0.22432
 C1297 C 0.97177 0.87062 0.17967
 C1298 C 0.98590 0.85535 0.18922
 C1299 C 0.99123 0.83574 0.17883
 C1300 C 0.98257 0.83094 0.15863
 C1301 C 0.96883 0.84643 0.14888
 C1302 C 0.96347 0.86598 0.15928
 H1303 H 0.91383 0.92487 0.24118
 H1304 H 0.89217 0.95382 0.25627
 H1305 H 0.93100 1.00163 0.22277
 H1306 H 0.95292 0.97200 0.20750
 H1307 H 0.94903 0.94347 0.18120
 H1308 H 0.96468 0.91178 0.16278
 H1309 H 0.96283 0.87502 0.22294
 H1310 H 0.94821 0.90701 0.24151
 H1311 H 0.99276 0.85850 0.20481
 H1312 H 1.00176 0.82412 0.18685
 H1313 H 0.96216 0.84345 0.13317
 H1314 H 0.95233 0.87721 0.15157
 C1315 C 0.41178 0.44959 0.73708
 C1316 C 0.41737 0.45924 0.75662
 C1317 C 0.40766 0.47899 0.76312
 C1318 C 0.39242 0.48991 0.75005
 C1319 C 0.38719 0.47997 0.73033
 C1320 C 0.39693 0.46044 0.72388
 C1321 C 0.42036 0.42778 0.73065
 C1322 C 0.40671 0.41262 0.72150
 C1323 C 0.41471 0.39289 0.71344
 C1324 C 0.43655 0.38770 0.71446
 C1325 C 0.45013 0.40225 0.72464
 C1326 C 0.44209 0.42218 0.73266
 C1327 C 0.44495 0.36766 0.70380
 C1328 C 0.45908 0.35315 0.71434
 C1329 C 0.46574 0.33363 0.70438
 C1330 C 0.45848 0.32843 0.68367
 C1331 C 0.44500 0.34345 0.67292
 C1332 C 0.43826 0.36274 0.68289
 H1333 H 0.42858 0.45109 0.76729
 H1334 H 0.41155 0.48549 0.77876
 H1335 H 0.37482 0.48649 0.72004
 H1336 H 0.39239 0.45350 0.70863
 H1337 H 0.38979 0.41615 0.72030
 H1338 H 0.40382 0.38174 0.70612
 H1339 H 0.46705 0.39859 0.72560
 H1340 H 0.45297 0.43355 0.73965
 H1341 H 0.46444 0.35659 0.73049
 H1342 H 0.47609 0.32238 0.71310
 H1343 H 0.43964 0.34034 0.65670
 H1344 H 0.42776 0.37389 0.67420
 C1345 C 0.41707 0.56414 0.78180
 C1346 C 0.39491 0.56387 0.78472
 C1347 C 0.38321 0.54670 0.77681
 C1348 C 0.39339 0.52867 0.76662
 C1349 C 0.41559 0.52980 0.76249
 C1350 C 0.42729 0.54733 0.77010
 C1351 C 0.42926 0.58167 0.79176
 C1352 C 0.44234 0.59542 0.77921
 C1353 C 0.45217 0.61323 0.78871
 C1354 C 0.44928 0.61735 0.81098
 C1355 C 0.43693 0.60283 0.82356
 C1356 C 0.42687 0.58537 0.81403
 C1357 C 0.45850 0.63692 0.82116
 C1358 C 0.44721 0.64772 0.83792
 C1359 C 0.45609 0.66527 0.84847
 C1360 C 0.47630 0.67278 0.84230
 C1361 C 0.48734 0.66272 0.82502
 C1362 C 0.47859 0.64483 0.81462
 H1363 H 0.38665 0.57696 0.79327
 H1364 H 0.36608 0.54702 0.77937
 H1365 H 0.42407 0.51734 0.75334
 H1366 H 0.44438 0.54753 0.76730
 H1367 H 0.44430 0.59285 0.76196
 H1368 H 0.46144 0.62412 0.77849
 H1369 H 0.43488 0.60501 0.84085
 H1370 H 0.41706 0.57475 0.82403
 H1371 H 0.43144 0.64262 0.84295
 H1372 H 0.44714 0.67304 0.86153
 H1373 H 0.50300 0.66825 0.82006
 H1374 H 0.48780 0.63685 0.80190
 C1375 C -0.07646 0.05668 0.27847
 C1376 C -0.06363 0.03805 0.27443
 C1377 C -0.07224 0.01953 0.26498
 C1378 C -0.09378 0.01951 0.25866
 C1379 C -0.10646 0.03830 0.26313
 C1380 C -0.09793 0.05657 0.27267
 C1381 C -0.06796 0.07617 0.28918
 C1382 C -0.07999 0.08649 0.30565
 C1383 C -0.07319 0.10591 0.31459
 C1384 C -0.05422 0.11560 0.30723
 C1385 C -0.04173 0.10486 0.29130
 C1386 C -0.04853 0.08527 0.28238
 C1387 C -0.04795 0.13704 0.31597
 C1388 C -0.02659 0.14130 0.32070
 C1389 C -0.02114 0.16109 0.33012
 C1390 C -0.03695 0.17696 0.33504
 C1391 C -0.05815 0.17298 0.32965
 C1392 C -0.06357 0.15331 0.32018
 H1393 H -0.04710 0.03759 0.27921
 H1394 H -0.06209 0.00518 0.26327
 H1395 H -0.12322 0.03877 0.25920
 H1396 H -0.10821 0.07072 0.27549
 H1397 H -0.09481 0.07958 0.31152
 H1398 H -0.08287 0.11341 0.32726
 H1399 H -0.02708 0.11195 0.28524
 H1400 H -0.03901 0.07768 0.26964
 H1401 H -0.01421 0.12906 0.31777
 H1402 H -0.00469 0.16366 0.33427
 H1403 H -0.07060 0.18507 0.33287
 H1404 H -0.08008 0.15080 0.31621
 C1405 C 0.09349 0.44654 0.28589
 C1406 C 0.10839 0.44223 0.26924
 C1407 C 0.12014 0.45905 0.25978
 C1408 C 0.11683 0.48103 0.26607
 C1409 C 0.10274 0.48496 0.28378
 C1410 C 0.09104 0.46803 0.29336
 C1411 C 0.08092 0.42843 0.29551
 C1412 C 0.07798 0.42644 0.31804
 C1413 C 0.06706 0.40867 0.32701
 C1414 C 0.05875 0.39258 0.31362
 C1415 C 0.06133 0.39488 0.29106
 C1416 C 0.07231 0.41256 0.28212
 C1417 C 0.04771 0.37331 0.32310
 C1418 C 0.05087 0.35245 0.31413
 C1419 C 0.04060 0.33429 0.32308
 C1420 C 0.02696 0.33653 0.34125
 C1421 C 0.02380 0.35740 0.35022
 C1422 C 0.03403 0.37556 0.34124
 H1423 H 0.11132 0.42565 0.26381
 H1424 H 0.13211 0.45441 0.24783
 H1425 H 0.10057 0.50134 0.28999
 H1426 H 0.07988 0.47180 0.30642
 H1427 H 0.08465 0.43828 0.32876
 H1428 H 0.06559 0.40724 0.34446
 H1429 H 0.05475 0.38304 0.28027
 H1430 H 0.07403 0.41388 0.26467
 H1431 H 0.06151 0.35008 0.30032
 H1432 H 0.04324 0.31850 0.31567
 H1433 H 0.01365 0.35967 0.36441
 H1434 H 0.03109 0.39142 0.34841
 C1435 C 0.59569 0.94296 0.78506
 C1436 C 0.59171 0.96464 0.79145
 C1437 C 0.60222 0.98193 0.78112
 C1438 C 0.61639 0.97825 0.76344
 C1439 C 0.62115 0.95629 0.75801
 C1440 C 0.61080 0.93903 0.76846
 C1441 C 0.58465 0.92439 0.79596
 C1442 C 0.57885 0.90604 0.78406
 C1443 C 0.56946 0.88809 0.79436
 C1444 C 0.56543 0.88808 0.81683
 C1445 C 0.57070 0.90667 0.82865
 C1446 C 0.58027 0.92456 0.81836
 C1447 C 0.55648 0.86847 0.82796
 C1448 C 0.56365 0.86202 0.84855
 C1449 C 0.55593 0.84319 0.85872
 C1450 C 0.54099 0.83012 0.84851
 C1451 C 0.53360 0.83669 0.82803
 C1452 C 0.54121 0.85566 0.81791
 H1453 H 0.58032 0.96832 0.80433
 H1454 H 0.59904 0.99839 0.78673
 H1455 H 0.63328 0.95211 0.74604
 H1456 H 0.61506 0.92248 0.76383
 H1457 H 0.58165 0.90550 0.76672
 H1458 H 0.56585 0.87400 0.78476
 H1459 H 0.56752 0.90739 0.84591
 H1460 H 0.58468 0.93830 0.82809
 H1461 H 0.57558 0.87128 0.85668
 H1462 H 0.56168 0.83889 0.87467
 H1463 H 0.52223 0.82696 0.81962
 H1464 H 0.53511 0.86029 0.80219
 C1465 C 0.72983 0.57303 0.05967
 C1466 C 0.72602 0.56688 0.03829
 C1467 C 0.73540 0.57817 0.02086
 C1468 C 0.74931 0.59564 0.02425
 C1469 C 0.75258 0.60192 0.04588
 C1470 C 0.74334 0.59054 0.06325
 C1471 C 0.71857 0.56238 0.07819
 C1472 C 0.72926 0.55757 0.09753
 C1473 C 0.71821 0.54909 0.11552
 C1474 C 0.69621 0.54533 0.11460
 C1475 C 0.68565 0.54974 0.09508
 C1476 C 0.69671 0.55811 0.07708
 C1477 C 0.68409 0.53760 0.13406
 C1478 C 0.66733 0.52289 0.13201
 C1479 C 0.65494 0.51684 0.15004
 C1480 C 0.65910 0.52524 0.17058
 C1481 C 0.67625 0.53939 0.17281
 C1482 C 0.68858 0.54557 0.15473
 H1483 H 0.71547 0.55357 0.03502
 H1484 H 0.73131 0.57355 0.00462
 H1485 H 0.76162 0.61624 0.04955
 H1486 H 0.74596 0.59616 0.07953
 H1487 H 0.74616 0.56048 0.09875
 H1488 H 0.72690 0.54552 0.13018
 H1489 H 0.66865 0.54742 0.09391
 H1490 H 0.68797 0.56201 0.06253
 H1491 H 0.66373 0.51609 0.11643
 H1492 H 0.64206 0.50558 0.14793
 H1493 H 0.67968 0.54625 0.18842
 H1494 H 0.70117 0.55716 0.15684
 C1495 C 0.23428 1.09867 0.55659
 C1496 C 0.25091 1.09340 0.54199
 C1497 C 0.25320 1.10511 0.52246
 C1498 C 0.23826 1.12162 0.51651
 C1499 C 0.22215 1.12724 0.53187
 C1500 C 0.22006 1.11578 0.55137
 C1501 C 0.23130 1.08655 0.57729
 C1502 C 0.22660 1.09805 0.59637
 C1503 C 0.22009 1.08697 0.61513
 C1504 C 0.21810 1.06414 0.61521
 C1505 C 0.22432 1.05246 0.59660
 C1506 C 0.23090 1.06360 0.57776
 C1507 C 0.20742 1.05305 0.63379
 C1508 C 0.21513 1.03299 0.64215
 C1509 C 0.20426 1.02249 0.65924
 C1510 C 0.18533 1.03174 0.66794
 C1511 C 0.17777 1.05182 0.65962
 C1512 C 0.18868 1.06235 0.64279
 H1513 H 0.26238 1.08056 0.54589
 H1514 H 0.26668 1.10125 0.51191
 H1515 H 0.21127 1.14089 0.52928
 H1516 H 0.20717 1.12032 0.56243
 H1517 H 0.22720 1.11573 0.59653
 H1518 H 0.21584 1.09633 0.62939
 H1519 H 0.22286 1.03486 0.59621
 H1520 H 0.23441 1.05439 0.56322
 H1521 H 0.22956 1.02550 0.63551
 H1522 H 0.21037 1.00698 0.66538
 H1523 H 0.16338 1.05945 0.66620
 H1524 H 0.18218 1.07762 0.63647
 C1525 C 0.23216 0.91348 0.94441
 C1526 C 0.24994 0.89916 0.94402
 C1527 C 0.25720 0.88912 0.96296
 C1528 C 0.24778 0.89400 0.98333
 C1529 C 0.23007 0.90860 0.98363
 C1530 C 0.22234 0.91809 0.96454
 C1531 C 0.22343 0.92269 0.92381
 C1532 C 0.21292 0.94322 0.92323
 C1533 C 0.20415 0.95137 0.90402
 C1534 C 0.20607 0.93946 0.88469
 C1535 C 0.21705 0.91920 0.88520
 C1536 C 0.22526 0.91080 0.90449
 C1537 C 0.19636 0.94778 0.86422
 C1538 C 0.18877 0.93313 0.84890
 C1539 C 0.17974 0.94074 0.82969
 C1540 C 0.17734 0.96329 0.82544
 C1541 C 0.18482 0.97799 0.84079
 C1542 C 0.19441 0.97035 0.85978
 H1543 H 0.25823 0.89533 0.92899
 H1544 H 0.26991 0.87709 0.96117
 H1545 H 0.22185 0.91227 0.99876
 H1546 H 0.20826 0.92854 0.96560
 H1547 H 0.21143 0.95310 0.93761
 H1548 H 0.19557 0.96687 0.90448
 H1549 H 0.21939 0.90968 0.87068
 H1550 H 0.23275 0.89473 0.90417
 H1551 H 0.18949 0.91565 0.85176
 H1552 H 0.17467 0.92880 0.81818
 H1553 H 0.18303 0.99547 0.83837
 H1554 H 0.20035 0.98221 0.87090
 C1555 C 0.69635 0.41961 0.44713
 C1556 C 0.70120 0.39719 0.44587
 C1557 C 0.71110 0.38622 0.46292
 C1558 C 0.71715 0.39733 0.48167
 C1559 C 0.71185 0.41983 0.48305
 C1560 C 0.70184 0.43086 0.46586
 C1561 C 0.68520 0.43084 0.42899
 C1562 C 0.69128 0.45171 0.42168
 C1563 C 0.68162 0.46143 0.40359
 C1564 C 0.66566 0.45051 0.39252
 C1565 C 0.65928 0.42989 0.40022
 C1566 C 0.66885 0.42024 0.41826
 C1567 C 0.65613 0.46000 0.37253
 C1568 C 0.63443 0.45709 0.36827
 C1569 C 0.62586 0.46409 0.34862
 C1570 C 0.63871 0.47435 0.33282
 C1571 C 0.66018 0.47808 0.33734
 C1572 C 0.66884 0.47090 0.35698
 H1573 H 0.69734 0.38804 0.43162
 H1574 H 0.71415 0.36881 0.46149
 H1575 H 0.71474 0.42893 0.49755
 H1576 H 0.69780 0.44805 0.46750
 H1577 H 0.70389 0.46024 0.42958
 H1578 H 0.68673 0.47744 0.39822
 H1579 H 0.64725 0.42087 0.39196
 H1580 H 0.66356 0.40432 0.42369
 H1581 H 0.62407 0.44922 0.38009
 H1582 H 0.60914 0.46141 0.34572
 H1583 H 0.67046 0.48586 0.32538
 H1584 H 0.68565 0.47318 0.35962
 C1585 C 0.75613 0.41933 0.55304
 C1586 C 0.74166 0.40268 0.55767
 C1587 C 0.73185 0.39171 0.54108
 C1588 C 0.73555 0.39749 0.51909
 C1589 C 0.75043 0.41406 0.51458
 C1590 C 0.76032 0.42506 0.53131
 C1591 C 0.76735 0.42985 0.57101
 C1592 C 0.77027 0.45257 0.57122
 C1593 C 0.77989 0.46233 0.58886
 C1594 C 0.78675 0.44955 0.60659
 C1595 C 0.78428 0.42680 0.60606
 C1596 C 0.77474 0.41708 0.58850
 C1597 C 0.79655 0.45966 0.62564
 C1598 C 0.79144 0.45218 0.64669
 C1599 C 0.80171 0.46048 0.66460
 C1600 C 0.81735 0.47645 0.66189
 C1601 C 0.82199 0.48444 0.64090
 C1602 C 0.81166 0.47616 0.62296
 H1603 H 0.73811 0.39785 0.57426
 H1604 H 0.72192 0.37816 0.54576
 H1605 H 0.75468 0.41822 0.49798
 H1606 H 0.77180 0.43752 0.52724
 H1607 H 0.76462 0.46282 0.55802
 H1608 H 0.78152 0.47992 0.58886
 H1609 H 0.78991 0.41645 0.61921
 H1610 H 0.77321 0.39948 0.58858
 H1611 H 0.77962 0.43970 0.64929
 H1612 H 0.79790 0.45385 0.68051
 H1613 H 0.83378 0.49695 0.63833
 H1614 H 0.81599 0.48219 0.60695
 C1615 C 0.27187 -0.07588 0.05778
 C1616 C 0.26919 -0.09839 0.06088
 C1617 C 0.26352 -0.11147 0.04373
 C1618 C 0.25961 -0.10242 0.02299
 C1619 C 0.26290 -0.07980 0.01985
 C1620 C 0.26888 -0.06672 0.03708
 C1621 C 0.27882 -0.06247 0.07604
 C1622 C 0.29600 -0.04826 0.07339
 C1623 C 0.30429 -0.03778 0.09129
 C1624 C 0.29539 -0.04116 0.11210
 C1625 C 0.27753 -0.05452 0.11453
 C1626 C 0.26938 -0.06514 0.09669
 C1627 C 0.30565 -0.03226 0.13143
 C1628 C 0.29334 -0.02314 0.14842
 C1629 C 0.30307 -0.01627 0.16730
 C1630 C 0.32523 -0.01866 0.16961
 C1631 C 0.33753 -0.02743 0.15247
 C1632 C 0.32786 -0.03409 0.13356
 H1633 H 0.27203 -0.10600 0.07652
 H1634 H 0.26205 -0.12888 0.04662
 H1635 H 0.26144 -0.07214 0.00408
 H1636 H 0.27123 -0.04942 0.03422
 H1637 H 0.30363 -0.04603 0.05766
 H1638 H 0.31795 -0.02740 0.08896
 H1639 H 0.27046 -0.05755 0.13039
 H1640 H 0.25600 -0.07588 0.09910
 H1641 H 0.27620 -0.02147 0.14714
 H1642 H 0.29323 -0.00961 0.18031
 H1643 H 0.35468 -0.02919 0.15374
 H1644 H 0.33770 -0.04129 0.12084
 C1645 C 0.25444 0.09880 0.43611
 C1646 C 0.24754 0.08765 0.45488
 C1647 C 0.24298 0.09906 0.47398
 C1648 C 0.24614 0.12183 0.47502
 C1649 C 0.25190 0.13291 0.45564
 C1650 C 0.25616 0.12159 0.43658
 C1651 C 0.26074 0.08684 0.41623
 C1652 C 0.25443 0.09468 0.39582
 C1653 C 0.26254 0.08506 0.37693
 C1654 C 0.27732 0.06751 0.37805
 C1655 C 0.28287 0.05907 0.39853
 C1656 C 0.27458 0.06858 0.41742
 C1657 C 0.28808 0.05913 0.35808
 C1658 C 0.29339 0.03681 0.35600
 C1659 C 0.30520 0.02938 0.33804
 C1660 C 0.31191 0.04408 0.32172
 C1661 C 0.30595 0.06625 0.32345
 C1662 C 0.29426 0.07370 0.34143
 H1663 H 0.24551 0.07012 0.45471
 H1664 H 0.23681 0.08989 0.48769
 H1665 H 0.25363 0.15050 0.45546
 H1666 H 0.26139 0.13063 0.42233
 H1667 H 0.24352 0.10855 0.39450
 H1668 H 0.25756 0.09164 0.36144
 H1669 H 0.29440 0.04577 0.40000
 H1670 H 0.27985 0.06236 0.43297
 H1671 H 0.28865 0.02512 0.36839
 H1672 H 0.30965 0.01221 0.33730
 H1673 H 0.31057 0.07795 0.31101
 H1674 H 0.29070 0.09103 0.34260
 C1675 C 0.77792 0.57499 0.94683
 C1676 C 0.77797 0.56414 0.96701
 C1677 C 0.77152 0.57518 0.98585
 C1678 C 0.76443 0.59722 0.98484
 C1679 C 0.76619 0.60831 0.96473
 C1680 C 0.77242 0.59729 0.94600
 C1681 C 0.78371 0.56343 0.92654
 C1682 C 0.77159 0.56711 0.90790
 C1683 C 0.77794 0.55800 0.88816
 C1684 C 0.79663 0.54506 0.88655
 C1685 C 0.80827 0.54056 0.90540
 C1686 C 0.80183 0.54963 0.92524
 C1687 C 0.80467 0.53763 0.86502
 C1688 C 0.81416 0.51680 0.86239
 C1689 C 0.82279 0.51055 0.84227
 C1690 C 0.82222 0.52508 0.82446
 C1691 C 0.81226 0.54567 0.82700
 C1692 C 0.80362 0.55187 0.84702
 H1693 H 0.78266 0.54704 0.96816
 H1694 H 0.77213 0.56636 1.00112
 H1695 H 0.76217 0.62556 0.96343
 H1696 H 0.77305 0.60629 0.93079
 H1697 H 0.75730 0.57733 0.90855
 H1698 H 0.76837 0.56137 0.87405
 H1699 H 0.82285 0.53081 0.90465
 H1700 H 0.81151 0.54661 0.93934
 H1701 H 0.81504 0.50540 0.87591
 H1702 H 0.83051 0.49464 0.84083
 H1703 H 0.81137 0.55712 0.81352
 H1704 H 0.79667 0.56813 0.84853
 C1705 C 0.06013 0.73330 0.57813
 C1706 C 0.05856 0.73151 0.60073
 C1707 C 0.03977 0.73747 0.61163
 C1708 C 0.02167 0.74515 0.60033
 C1709 C 0.02361 0.74753 0.57758
 C1710 C 0.04249 0.74134 0.56663
 C1711 C 0.08021 0.72657 0.56683
 C1712 C 0.07986 0.71331 0.54845
 C1713 C 0.09889 0.70496 0.53937
 C1714 C 0.11860 0.70980 0.54850
 C1715 C 0.11893 0.72397 0.56621
 C1716 C 0.09995 0.73222 0.57530
 C1717 C 0.13864 0.69907 0.54055
 C1718 C 0.15374 0.69120 0.55541
 C1719 C 0.17226 0.68035 0.54828
 C1720 C 0.17621 0.67708 0.52607
 C1721 C 0.16121 0.68507 0.51114
 C1722 C 0.14260 0.69595 0.51831
 H1723 H 0.07185 0.72523 0.61004
 H1724 H 0.03921 0.73594 0.62912
 H1725 H 0.01091 0.75459 0.56805
 H1726 H 0.04348 0.74330 0.54919
 H1727 H 0.06484 0.70860 0.54169
 H1728 H 0.09811 0.69395 0.52583
 H1729 H 0.13388 0.72840 0.57329
 H1730 H 0.10069 0.74277 0.58920
 H1731 H 0.15095 0.69289 0.57267
 H1732 H 0.18323 0.67396 0.56023
 H1733 H 0.16390 0.68299 0.49392
 H1734 H 0.13135 0.70202 0.50646
 C1735 C 0.56106 0.22061 1.07349
 C1736 C 0.54171 0.22226 1.06243
 C1737 C 0.52316 0.23016 1.07290
 C1738 C 0.52363 0.23708 1.09463
 C1739 C 0.54297 0.23429 1.10577
 C1740 C 0.56137 0.22647 1.09534
 C1741 C 0.58088 0.21222 1.06272
 C1742 C 0.60058 0.22166 1.06705
 C1743 C 0.61953 0.21267 1.05858
 C1744 C 0.61924 0.19407 1.04549
 C1745 C 0.59947 0.18508 1.04051
 C1746 C 0.58049 0.19407 1.04903
 C1747 C 0.63956 0.18350 1.03804
 C1748 C 0.64185 0.16060 1.03822
 C1749 C 0.66128 0.15060 1.03242
 C1750 C 0.67895 0.16324 1.02637
 C1751 C 0.67659 0.18613 1.02585
 C1752 C 0.65712 0.19615 1.03161
 H1753 H 0.54091 0.21751 1.04564
 H1754 H 0.50853 0.23036 1.06395
 H1755 H 0.54382 0.23842 1.12273
 H1756 H 0.57582 0.22464 1.10457
 H1757 H 0.60137 0.23585 1.07728
 H1758 H 0.63446 0.21989 1.06290
 H1759 H 0.59870 0.17094 1.03021
 H1760 H 0.56558 0.18636 1.04549
 H1761 H 0.62875 0.15038 1.04334
 H1762 H 0.66244 0.13292 1.03262
 H1763 H 0.68991 0.19634 1.02137
 H1764 H 0.65581 0.21382 1.03107
 C1765 C 0.94678 0.22879 0.90745
 C1766 C 0.95618 0.21557 0.89144
 C1767 C 0.97388 0.22253 0.87956
 C1768 C 0.98345 0.24276 0.88377
 C1769 C 0.97305 0.25657 0.89900
 C1770 C 0.95508 0.24959 0.91085
 C1771 C 0.92811 0.22061 0.91997
 C1772 C 0.90959 0.23360 0.92292
 C1773 C 0.89113 0.22459 0.93221
 C1774 C 0.89094 0.20246 0.93868
 C1775 C 0.90984 0.18991 0.93680
 C1776 C 0.92818 0.19887 0.92755
 C1777 C 0.87097 0.19197 0.94631
 C1778 C 0.86601 0.17106 0.93895
 C1779 C 0.84762 0.16067 0.94633
 C1780 C 0.83367 0.17090 0.96127
 C1781 C 0.83844 0.19196 0.96846
 C1782 C 0.85687 0.20245 0.96096
 H1783 H 0.94951 0.19988 0.88775
 H1784 H 0.97959 0.21194 0.86677
 H1785 H 0.97904 0.27274 0.90187
 H1786 H 0.94783 0.26033 0.92282
 H1787 H 0.90909 0.25038 0.91713
 H1788 H 0.87676 0.23464 0.93344
 H1789 H 0.91034 0.17298 0.94214
 H1790 H 0.94237 0.18861 0.92587
 H1791 H 0.87638 0.16270 0.92740
 H1792 H 0.84457 0.14436 0.94068
 H1793 H 0.82790 0.20033 0.97984
 H1794 H 0.86031 0.21854 0.96693
 C1795 C 0.44553 0.73148 0.41802
 C1796 C 0.44238 0.74982 0.40455
 C1797 C 0.45945 0.75924 0.39338
 C1798 C 0.48053 0.75102 0.39572
 C1799 C 0.48352 0.73272 0.40964
 C1800 C 0.46634 0.72324 0.42077
 C1801 C 0.42690 0.72033 0.42797
 C1802 C 0.42733 0.71234 0.44940
 C1803 C 0.40948 0.70215 0.45861
 C1804 C 0.39088 0.69976 0.44655
 C1805 C 0.39064 0.70746 0.42504
 C1806 C 0.40841 0.71759 0.41586
 C1807 C 0.37174 0.68923 0.45615
 C1808 C 0.35126 0.69774 0.45182
 C1809 C 0.33313 0.68732 0.45988
 C1810 C 0.33502 0.66813 0.47250
 C1811 C 0.35551 0.65982 0.47718
 C1812 C 0.37368 0.67029 0.46912
 H1813 H 0.42652 0.75661 0.40217
 H1814 H 0.45555 0.77230 0.38215
 H1815 H 0.49923 0.72530 0.41132
 H1816 H 0.46923 0.70887 0.43078
 H1817 H 0.44132 0.71433 0.45914
 H1818 H 0.41008 0.69651 0.47528
 H1819 H 0.37675 0.70539 0.41516
 H1820 H 0.40776 0.72306 0.39914
 H1821 H 0.34926 0.71248 0.44211
 H1822 H 0.31760 0.69402 0.45579
 H1823 H 0.35748 0.64520 0.48706
 H1824 H 0.38923 0.66326 0.47262
 C1825 C 0.55524 0.78177 0.41469
 C1826 C 0.53761 0.77456 0.42686
 C1827 C 0.51947 0.76719 0.41650
 C1828 C 0.51894 0.76599 0.39365
 C1829 C 0.53686 0.77353 0.38174
 C1830 C 0.55467 0.78130 0.39208
 C1831 C 0.57413 0.79043 0.42528
 C1832 C 0.58102 0.81150 0.41996
 C1833 C 0.59976 0.81932 0.42853
 C1834 C 0.61233 0.80605 0.44227
 C1835 C 0.60506 0.78508 0.44799
 C1836 C 0.58602 0.77741 0.43969
 C1837 C 0.63308 0.81405 0.45008
 C1838 C 0.64043 0.80848 0.47088
 C1839 C 0.65958 0.81681 0.47828
 C1840 C 0.67150 0.83111 0.46514
 C1841 C 0.66447 0.83632 0.44427
 C1842 C 0.64562 0.82771 0.43673
 H1843 H 0.53766 0.77525 0.44438
 H1844 H 0.50590 0.76295 0.42659
 H1845 H 0.53700 0.77336 0.36420
 H1846 H 0.56811 0.78690 0.38239
 H1847 H 0.57191 0.82186 0.40903
 H1848 H 0.60443 0.83579 0.42429
 H1849 H 0.61438 0.77432 0.45834
 H1850 H 0.58097 0.76103 0.44385
 H1851 H 0.63114 0.79819 0.48169
 H1852 H 0.66472 0.81273 0.49451
 H1853 H 0.67360 0.84714 0.43380
 H1854 H 0.64090 0.83182 0.42039
 C1855 C 0.05723 0.27314 -0.09251
 C1856 C 0.03983 0.26365 -0.08155
 C1857 C 0.02234 0.25627 -0.09302
 C1858 C 0.02158 0.25871 -0.11578
 C1859 C 0.03976 0.26712 -0.12659
 C1860 C 0.05714 0.27435 -0.11519
 C1861 C 0.07546 0.28200 -0.08058
 C1862 C 0.08492 0.30151 -0.08771
 C1863 C 0.10250 0.30967 -0.07719
 C1864 C 0.11102 0.29866 -0.05912
 C1865 C 0.10144 0.27925 -0.05178
 C1866 C 0.08382 0.27102 -0.06240
 C1867 C 0.12993 0.30745 -0.04824
 C1868 C 0.14633 0.29343 -0.04080
 C1869 C 0.16459 0.30195 -0.03162
 C1870 C 0.16686 0.32467 -0.02969
 C1871 C 0.15030 0.33861 -0.03687
 C1872 C 0.13206 0.33012 -0.04591
 H1873 H 0.03958 0.26219 -0.06406
 H1874 H 0.00972 0.24850 -0.08386
 H1875 H 0.04028 0.26842 -0.14410
 H1876 H 0.07061 0.28084 -0.12421
 H1877 H 0.07869 0.31056 -0.10146
 H1878 H 0.10963 0.32448 -0.08348
 H1879 H 0.10750 0.27050 -0.03777
 H1880 H 0.07699 0.25586 -0.05661
 H1881 H 0.14528 0.27590 -0.04253
 H1882 H 0.17692 0.29073 -0.02602
 H1883 H 0.15160 0.35619 -0.03595
 H1884 H 0.11961 0.34137 -0.05116
 C1885 C 0.44752 0.26349 0.06950
 C1886 C 0.46783 0.27096 0.06343
 C1887 C 0.48576 0.26474 0.07536
 C1888 C 0.48406 0.25035 0.09335
 C1889 C 0.46341 0.24357 0.09964
 C1890 C 0.44558 0.24980 0.08777
 C1891 C 0.42810 0.27086 0.05781
 C1892 C 0.41120 0.25644 0.05498
 C1893 C 0.39195 0.26391 0.04630
 C1894 C 0.38921 0.28592 0.04007
 C1895 C 0.40641 0.30012 0.04193
 C1896 C 0.42564 0.29269 0.05075
 C1897 C 0.36810 0.29437 0.03304
 C1898 C 0.36641 0.30914 0.01552
 C1899 C 0.34659 0.31823 0.00998
 C1900 C 0.32813 0.31293 0.02201
 C1901 C 0.32976 0.29779 0.03921
 C1902 C 0.34952 0.28854 0.04461
 H1903 H 0.46986 0.28174 0.04954
 H1904 H 0.50108 0.27131 0.07062
 H1905 H 0.46063 0.23405 0.11424
 H1906 H 0.43006 0.24451 0.09347
 H1907 H 0.41274 0.23942 0.05984
 H1908 H 0.37908 0.25254 0.04472
 H1909 H 0.40467 0.31723 0.03746
 H1910 H 0.43822 0.30428 0.05294
 H1911 H 0.38046 0.31381 0.00625
 H1912 H 0.34582 0.33001 -0.00324
 H1913 H 0.31576 0.29332 0.04866
 H1914 H 0.35037 0.27736 0.05832
 C1915 C 0.94656 0.77267 0.57496
 C1916 C 0.95485 0.78690 0.59012
 C1917 C 0.97234 0.78070 0.60246
 C1918 C 0.98277 0.76021 0.59956
 C1919 C 0.97377 0.74565 0.58480
 C1920 C 0.95597 0.75183 0.57261
 C1921 C 0.92765 0.77970 0.56244
 C1922 C 0.90977 0.76633 0.56121
 C1923 C 0.89085 0.77446 0.55214
 C1924 C 0.88958 0.79606 0.54410
 C1925 C 0.90794 0.80885 0.54414
 C1926 C 0.92672 0.80079 0.55326
 C1927 C 0.86893 0.80591 0.53720
 C1928 C 0.86333 0.82730 0.54343
 C1929 C 0.84392 0.83679 0.53741
 C1930 C 0.82951 0.82515 0.52505
 C1931 C 0.83505 0.80374 0.51871
 C1932 C 0.85455 0.79416 0.52483
 H1933 H 0.94736 0.80276 0.59288
 H1934 H 0.97711 0.79204 0.61463
 H1935 H 0.98062 0.72942 0.58273
 H1936 H 0.94965 0.74039 0.56124
 H1937 H 0.91006 0.75004 0.56829
 H1938 H 0.87694 0.76425 0.55241
 H1939 H 0.90762 0.82536 0.53758
 H1940 H 0.94042 0.81128 0.55367
 H1941 H 0.87388 0.83667 0.55325
 H1942 H 0.84031 0.85342 0.54227
 H1943 H 0.82422 0.79434 0.50925
 H1944 H 0.85847 0.77767 0.51973
   
