data_POSCAR
  _audit_creation_date              2014-09-24
  _audit_creation_method            'ToBaCCo'
  _symmetry_space_group_name_H-M    'P1'
  _symmetry_Int_Tables_number       1
  _symmetry_cell_setting            triclinic
  loop_
  _symmetry_equiv_pos_as_xyz
 x,y,z
_cell_length_a 31.0862
_cell_length_b 49.6191
_cell_length_c 37.7212
_cell_angle_alpha 90.173600
_cell_angle_beta 89.893600
_cell_angle_gamma 90.077000
loop_
  _atom_site_label
  _atom_site_type_symbol
  _atom_site_fract_x
  _atom_site_fract_y
  _atom_site_fract_z
B1 B -0.04069 -0.01879 0.00453
 B2 B 0.01147 -0.01760 0.01607
 B3 B -0.00233 -0.02668 -0.02536
 B4 B -0.04565 -0.00830 -0.03763
 B5 B -0.05800 0.01261 -0.00322
 B6 B -0.02223 0.00667 0.03018
 B7 B 0.02304 0.02522 -0.02676
 B8 B -0.02910 0.02405 -0.03807
 B9 B -0.01527 0.03309 0.00335
 B10 B 0.02807 0.01474 0.01547
 B11 B 0.04039 -0.00622 -0.01890
 B12 B 0.00456 -0.00031 -0.05228
 B13 B 0.51013 0.49119 0.52571
 B14 B 0.45980 0.49116 0.50962
 B15 B 0.48225 0.52026 0.52329
 B16 B 0.53502 0.51972 0.51272
 B17 B 0.54512 0.48997 0.49169
 B18 B 0.49819 0.47219 0.48986
 B19 B 0.48717 0.51842 0.45194
 B20 B 0.53753 0.51842 0.46813
 B21 B 0.51515 0.48939 0.45427
 B22 B 0.46222 0.48980 0.46496
 B23 B 0.45221 0.51955 0.48593
 B24 B 0.49919 0.53737 0.48782
 B25 B 0.53403 0.01741 0.51961
 B26 B 0.48295 0.01459 0.53376
 B27 B 0.49308 0.02362 0.49162
 B28 B 0.53693 0.00665 0.47715
 B29 B 0.55354 -0.01334 0.51116
 B30 B 0.51969 -0.00845 0.54633
 B31 B 0.47244 -0.02915 0.49192
 B32 B 0.52353 -0.02606 0.47753
 B33 B 0.51325 -0.03527 0.51974
 B34 B 0.46940 -0.01832 0.53416
 B35 B 0.45290 0.00189 0.50048
 B36 B 0.48629 -0.00330 0.46516
 B37 B -0.00836 0.50833 0.04318
 B38 B 0.04213 0.50953 0.02710
 B39 B 0.02098 0.47986 0.03971
 B40 B -0.03171 0.47947 0.02892
 B41 B -0.04312 0.50936 0.00914
 B42 B 0.00289 0.52815 0.00813
 B43 B 0.01647 0.48287 -0.03164
 B44 B -0.03394 0.48154 -0.01564
 B45 B -0.01296 0.51127 -0.02813
 B46 B 0.03975 0.51167 -0.01742
 B47 B 0.05121 0.48176 0.00236
 B48 B 0.00520 0.46298 0.00339
 B49 B 0.03934 0.48166 0.48289
 B50 B -0.01113 0.48409 0.46754
 B51 B -0.00261 0.47611 0.51030
 B52 B 0.04075 0.49352 0.52489
 B53 B 0.05861 0.51264 0.49039
 B54 B 0.02605 0.50684 0.45476
 B55 B -0.02312 0.52879 0.50699
 B56 B 0.02736 0.52617 0.52270
 B57 B 0.01876 0.53429 0.47991
 B58 B -0.02451 0.51693 0.46532
 B59 B -0.04233 0.49753 0.49950
 B60 B -0.01035 0.50373 0.53529
 B61 B 0.49245 -0.00915 -0.04450
 B62 B 0.54491 -0.01223 -0.03434
 B63 B 0.52482 0.01807 -0.04473
 B64 B 0.47454 0.02047 -0.02787
 B65 B 0.46346 -0.00909 -0.00655
 B66 B 0.50742 -0.02939 -0.01111
 B67 B 0.53185 0.01488 0.02667
 B68 B 0.47944 0.01858 0.01633
 B69 B 0.49949 -0.01226 0.02692
 B70 B 0.54963 -0.01438 0.01005
 B71 B 0.56058 0.01485 -0.01133
 B72 B 0.51732 0.03529 -0.00715
 B73 B 0.46412 0.51774 -0.00794
 B74 B 0.51644 0.51681 -0.01921
 B75 B 0.50202 0.52660 0.02189
 B76 B 0.45890 0.50804 0.03461
 B77 B 0.44741 0.48633 0.00092
 B78 B 0.48344 0.49191 -0.03253
 B79 B 0.52851 0.47501 0.02508
 B80 B 0.47622 0.47585 0.03625
 B81 B 0.49061 0.46613 -0.00479
 B82 B 0.53369 0.48466 -0.01743
 B83 B 0.54524 0.50644 0.01622
 B84 B 0.50921 0.50081 0.04970
 B85 B 0.00266 0.01193 0.47377
 B86 B -0.04759 0.01193 0.49040
 B87 B -0.02536 -0.01705 0.47632
 B88 B 0.02756 -0.01669 0.48651
 B89 B 0.03800 0.01303 0.50746
 B90 B -0.00886 0.03088 0.50971
 B91 B -0.01980 -0.01538 0.54766
 B92 B 0.03038 -0.01544 0.53108
 B93 B 0.00836 0.01368 0.54511
 B94 B -0.04459 0.01323 0.53498
 B95 B -0.05506 -0.01648 0.51399
 B96 B -0.00827 -0.03432 0.51159
 B97 B 0.77212 0.27313 0.27049
 B98 B 0.71911 0.26617 0.27267
 B99 B 0.74286 0.27167 0.23312
 B100 B 0.79258 0.25845 0.23382
 B101 B 0.80006 0.24438 0.27444
 B102 B 0.75431 0.24918 0.29878
 B103 B 0.73340 0.21806 0.24163
 B104 B 0.78645 0.22500 0.23939
 B105 B 0.76310 0.21948 0.27884
 B106 B 0.71287 0.23284 0.27837
 B107 B 0.70568 0.24694 0.23748
 B108 B 0.75157 0.24168 0.21351
 B109 B 0.73765 0.76932 0.77350
 B110 B 0.71647 0.76425 0.73305
 B111 B 0.76885 0.77239 0.73728
 B112 B 0.78853 0.75710 0.77404
 B113 B 0.74724 0.73935 0.79237
 B114 B 0.70239 0.74387 0.76690
 B115 B 0.76306 0.71910 0.72580
 B116 B 0.78424 0.72365 0.76635
 B117 B 0.73199 0.71584 0.76240
 B118 B 0.71254 0.73093 0.72586
 B119 B 0.75363 0.74903 0.70739
 B120 B 0.79848 0.74443 0.73286
 B121 B 0.26980 0.22821 0.73012
 B122 B 0.21717 0.23588 0.72658
 B123 B 0.23903 0.23038 0.76677
 B124 B 0.28921 0.24291 0.76720
 B125 B 0.29901 0.25658 0.72662
 B126 B 0.25413 0.25218 0.70115
 B127 B 0.23196 0.28408 0.75733
 B128 B 0.28459 0.27643 0.76113
 B129 B 0.26328 0.28191 0.72095
 B130 B 0.21252 0.26924 0.72027
 B131 B 0.20300 0.25559 0.76114
 B132 B 0.24801 0.26043 0.78625
 B133 B 0.23302 0.78109 0.22702
 B134 B 0.28559 0.77433 0.22231
 B135 B 0.26538 0.77956 0.26299
 B136 B 0.21541 0.76667 0.26468
 B137 B 0.20480 0.75239 0.22448
 B138 B 0.24876 0.75714 0.19782
 B139 B 0.27332 0.72603 0.25389
 B140 B 0.22076 0.73325 0.25894
 B141 B 0.24102 0.72747 0.21821
 B142 B 0.29136 0.74072 0.21604
 B143 B 0.30174 0.75472 0.25641
 B144 B 0.25787 0.74996 0.28304
 B145 B 0.27173 0.72825 0.78026
 B146 B 0.29166 0.73275 0.73926
 B147 B 0.23906 0.72591 0.74454
 B148 B 0.22167 0.74116 0.78201
 B149 B 0.26474 0.75816 0.79943
 B150 B 0.30823 0.75301 0.77257
 B151 B 0.24703 0.77943 0.73433
 B152 B 0.22712 0.77429 0.77530
 B153 B 0.27979 0.78157 0.76942
 B154 B 0.29721 0.76619 0.73196
 B155 B 0.25452 0.74924 0.71470
 B156 B 0.21082 0.75461 0.74132
 B157 B 0.22176 0.21498 0.27299
 B158 B 0.27391 0.22216 0.27998
 B159 B 0.25620 0.21588 0.23859
 B160 B 0.20606 0.22913 0.23438
 B161 B 0.19355 0.24377 0.27410
 B162 B 0.23592 0.23930 0.30221
 B163 B 0.26398 0.26959 0.24638
 B164 B 0.21166 0.26278 0.24016
 B165 B 0.23000 0.26856 0.28133
 B166 B 0.27959 0.25557 0.28492
 B167 B 0.29218 0.24080 0.24551
 B168 B 0.24972 0.24529 0.21730
 B169 B 0.78053 0.72159 0.22777
 B170 B 0.72728 0.72727 0.22271
 B171 B 0.74835 0.72293 0.26339
 B172 B 0.79753 0.73766 0.26480
 B173 B 0.80676 0.75102 0.22398
 B174 B 0.76317 0.74447 0.19794
 B175 B 0.73627 0.77615 0.25309
 B176 B 0.78944 0.77087 0.25744
 B177 B 0.76831 0.77465 0.21683
 B178 B 0.71926 0.76020 0.21598
 B179 B 0.71020 0.74661 0.25690
 B180 B 0.75402 0.75344 0.28271
 B181 B 0.72763 0.23357 0.71724
 B182 B 0.70635 0.23806 0.75785
 B183 B 0.75860 0.23028 0.75374
 B184 B 0.77819 0.24551 0.71720
 B185 B 0.73714 0.26358 0.69896
 B186 B 0.69224 0.25888 0.72447
 B187 B 0.75327 0.28376 0.76523
 B188 B 0.77431 0.27882 0.72467
 B189 B 0.72202 0.28693 0.72907
 B190 B 0.70225 0.27154 0.76574
 B191 B 0.74342 0.25366 0.78384
 B192 B 0.78830 0.25826 0.75828
 C193 C 0.07145 0.43744 0.87831
 C194 C 0.08413 0.46425 0.88452
 C195 C 0.06426 0.47961 0.91113
 C196 C 0.03153 0.46841 0.93236
 C197 C 0.01768 0.44197 0.92478
 C198 C 0.03706 0.42684 0.89797
 C199 C 0.09646 0.41949 0.85434
 C200 C 0.07541 0.40055 0.83265
 C201 C 0.09886 0.38098 0.81418
 C202 C 0.14391 0.37981 0.81711
 C203 C 0.16510 0.39947 0.83757
 C204 C 0.14164 0.41915 0.85589
 C205 C 0.16825 0.35712 0.80083
 C206 C 0.20052 0.34388 0.82010
 C207 C 0.22107 0.32116 0.80612
 C208 C 0.21073 0.31139 0.77209
 C209 C 0.17835 0.32475 0.75290
 C210 C 0.15759 0.34737 0.76698
 H211 H 0.11041 0.47301 0.86959
 H212 H 0.07631 0.49971 0.91626
 H213 H -0.00658 0.43220 0.94084
 H214 H 0.02692 0.40613 0.89424
 H215 H 0.04065 0.40042 0.83077
 H216 H 0.08154 0.36602 0.79886
 H217 H 0.19980 0.39926 0.84001
 H218 H 0.15877 0.43328 0.87265
 H219 H 0.20878 0.35048 0.84662
 H220 H 0.24463 0.31102 0.82240
 H221 H 0.16783 0.31734 0.72740
 H222 H 0.13273 0.35706 0.75152
 C223 C 0.43372 0.56983 0.36830
 C224 C 0.42016 0.54287 0.37078
 C225 C 0.43992 0.52532 0.39495
 C226 C 0.47345 0.53454 0.41697
 C227 C 0.48892 0.56097 0.41195
 C228 C 0.46965 0.57820 0.38777
 C229 C 0.40769 0.59040 0.34971
 C230 C 0.39692 0.61426 0.36776
 C231 C 0.37341 0.63439 0.35106
 C232 C 0.36002 0.63126 0.31579
 C233 C 0.37049 0.60734 0.29758
 C234 C 0.39383 0.58689 0.31457
 C235 C 0.33584 0.65336 0.29849
 C236 C 0.34758 0.66273 0.26475
 C237 C 0.32765 0.68551 0.25036
 C238 C 0.29469 0.69899 0.26895
 C239 C 0.28323 0.68942 0.30278
 C240 C 0.30315 0.66680 0.31713
 H241 H 0.39245 0.53595 0.35595
 H242 H 0.42694 0.50521 0.39808
 H243 H 0.51411 0.56928 0.42844
 H244 H 0.48115 0.59877 0.38595
 H245 H 0.40672 0.61734 0.39502
 H246 H 0.36631 0.65270 0.36563
 H247 H 0.36036 0.60441 0.27039
 H248 H 0.40172 0.56865 0.30016
 H249 H 0.37349 0.65317 0.25020
 H250 H 0.33927 0.69300 0.22524
 H251 H 0.25925 0.69963 0.31869
 H252 H 0.29346 0.66007 0.34324
 C253 C 0.92567 0.93293 0.63034
 C254 C 0.96191 0.92465 0.61118
 C255 C 0.98181 0.94205 0.58751
 C256 C 0.96655 0.96852 0.58267
 C257 C 0.93283 0.97766 0.60462
 C258 C 0.91247 0.95994 0.62831
 C259 C 0.89873 0.91218 0.64761
 C260 C 0.88632 0.91413 0.68332
 C261 C 0.86296 0.89313 0.69918
 C262 C 0.85105 0.87026 0.67928
 C263 C 0.86265 0.86885 0.64337
 C264 C 0.88623 0.88951 0.62777
 C265 C 0.82799 0.84727 0.69565
 C266 C 0.79436 0.83448 0.67737
 C267 C 0.77557 0.81108 0.69072
 C268 C 0.78907 0.80012 0.72322
 C269 C 0.82328 0.81281 0.74118
 C270 C 0.84203 0.83635 0.72786
 H271 H 0.97296 0.90397 0.61264
 H272 H 1.00706 0.93377 0.57103
 H273 H 0.92002 0.99780 0.60166
 H274 H 0.88449 0.96673 0.64295
 H275 H 0.89561 0.93148 0.69903
 H276 H 0.85420 0.89472 0.72690
 H277 H 0.85443 0.85137 0.62749
 H278 H 0.89508 0.88770 0.60007
 H279 H 0.78310 0.84233 0.65229
 H280 H 0.75092 0.80134 0.67502
 H281 H 0.83677 0.80417 0.76494
 H282 H 0.86884 0.84532 0.74191
 C283 C 0.59066 0.06115 0.11344
 C284 C 0.61558 0.05224 0.08482
 C285 C 0.59782 0.03559 0.05905
 C286 C 0.55435 0.02763 0.06102
 C287 C 0.53109 0.03390 0.09205
 C288 C 0.54899 0.05084 0.11797
 C289 C 0.60689 0.08373 0.13514
 C290 C 0.61091 0.08189 0.17209
 C291 C 0.63052 0.10286 0.19121
 C292 C 0.64597 0.12589 0.17351
 C293 C 0.63966 0.12807 0.13679
 C294 C 0.62056 0.10721 0.11785
 C295 C 0.66966 0.14748 0.19250
 C296 C 0.70537 0.15972 0.17635
 C297 C 0.72572 0.18162 0.19221
 C298 C 0.71207 0.19140 0.22539
 C299 C 0.67641 0.17897 0.24171
 C300 C 0.65569 0.15709 0.22559
 H301 H 0.64823 0.05946 0.08135
 H302 H 0.61789 0.03036 0.03662
 H303 H 0.49829 0.02721 0.09541
 H304 H 0.52943 0.05724 0.14024
 H305 H 0.60040 0.06392 0.18584
 H306 H 0.63489 0.10069 0.21952
 H307 H 0.64990 0.14589 0.12255
 H308 H 0.61694 0.10922 0.08941
 H309 H 0.71724 0.15264 0.15097
 H310 H 0.75176 0.19116 0.17788
 H311 H 0.66328 0.18669 0.26625
 H312 H 0.62769 0.14840 0.23832
 C313 C 0.85961 0.06303 0.43344
 C314 C 0.88060 0.04205 0.41543
 C315 C 0.90750 0.02436 0.43373
 C316 C 0.91373 0.02709 0.47057
 C317 C 0.88956 0.04674 0.48884
 C318 C 0.86308 0.06458 0.47046
 C319 C 0.83936 0.08524 0.41332
 C320 C 0.85084 0.11201 0.42100
 C321 C 0.83621 0.13307 0.39981
 C322 C 0.80930 0.12785 0.37076
 C323 C 0.79634 0.10124 0.36377
 C324 C 0.81166 0.08002 0.38468
 C325 C 0.79711 0.15011 0.34682
 C326 C 0.75391 0.15518 0.33855
 C327 C 0.74289 0.17712 0.31714
 C328 C 0.77493 0.19394 0.30275
 C329 C 0.81824 0.18844 0.31092
 C330 C 0.82912 0.16690 0.33276
 H331 H 0.87890 0.04062 0.38681
 H332 H 0.92615 0.01022 0.41829
 H333 H 0.89307 0.04962 0.51713
 H334 H 0.84684 0.08045 0.48500
 H335 H 0.87265 0.11656 0.44258
 H336 H 0.84646 0.15346 0.40573
 H337 H 0.77573 0.09680 0.34138
 H338 H 0.80244 0.05954 0.37822
 H339 H 0.72868 0.14261 0.34948
 H340 H 0.70926 0.18109 0.31253
 H341 H 0.84404 0.20078 0.30050
 H342 H 0.86271 0.16325 0.33860
 C343 C 0.37046 0.44033 0.57152
 C344 C 0.37357 0.43724 0.53453
 C345 C 0.39883 0.45491 0.51439
 C346 C 0.42212 0.47588 0.53079
 C347 C 0.41654 0.47986 0.56748
 C348 C 0.39060 0.46265 0.58737
 C349 C 0.35061 0.41897 0.59398
 C350 C 0.36941 0.41227 0.62668
 C351 C 0.35327 0.39112 0.64700
 C352 C 0.31828 0.37565 0.63503
 C353 C 0.29872 0.38262 0.60272
 C354 C 0.31469 0.40407 0.58243
 C355 C 0.30376 0.35181 0.65576
 C356 C 0.25995 0.34506 0.65871
 C357 C 0.24692 0.32285 0.67894
 C358 C 0.27730 0.30714 0.69717
 C359 C 0.32116 0.31351 0.69318
 C360 C 0.33415 0.33548 0.67286
 H361 H 0.35876 0.42020 0.52134
 H362 H 0.40235 0.45090 0.48631
 H363 H 0.43471 0.49485 0.58178
 H364 H 0.38818 0.46609 0.61566
 H365 H 0.39762 0.42281 0.63624
 H366 H 0.36864 0.38670 0.67205
 H367 H 0.27186 0.37104 0.59260
 H368 H 0.29915 0.40880 0.55756
 H369 H 0.23567 0.35713 0.64574
 H370 H 0.21309 0.31799 0.68000
 H371 H 0.34581 0.30165 0.70600
 H372 H 0.36825 0.33951 0.67033
 C373 C 0.63057 0.93712 0.90019
 C374 C 0.63015 0.93480 0.93721
 C375 C 0.60476 0.95178 0.95777
 C376 C 0.57878 0.97158 0.94193
 C377 C 0.58099 0.97488 0.90494
 C378 C 0.60662 0.95781 0.88428
 C379 C 0.65195 0.91599 0.87864
 C380 C 0.63131 0.90536 0.84860
 C381 C 0.64729 0.88233 0.83193
 C382 C 0.68394 0.86922 0.84519
 C383 C 0.70599 0.88074 0.87397
 C384 C 0.69030 0.90398 0.89037
 C385 C 0.69788 0.84310 0.82989
 C386 C 0.74171 0.83675 0.82648
 C387 C 0.75440 0.81253 0.81074
 C388 C 0.72366 0.79453 0.79708
 C389 C 0.67983 0.80010 0.80275
 C390 C 0.66712 0.82411 0.81884
 H391 H 0.64753 0.91880 0.95036
 H392 H 0.60423 0.94832 0.98607
 H393 H 0.56116 0.98955 0.89160
 H394 H 0.60657 0.96023 0.85576
 H395 H 0.60154 0.91396 0.83904
 H396 H 0.63025 0.87437 0.80918
 H397 H 0.73430 0.87118 0.88485
 H398 H 0.70734 0.91199 0.91310
 H399 H 0.76628 0.85076 0.83515
 H400 H 0.78831 0.80827 0.80880
 H401 H 0.65504 0.78649 0.79344
 H402 H 0.63308 0.82789 0.82232
 C403 C 0.13369 0.56046 0.08651
 C404 C 0.12977 0.56291 0.04959
 C405 C 0.10343 0.54535 0.03045
 C406 C 0.07998 0.52492 0.04772
 C407 C 0.08651 0.52125 0.08430
 C408 C 0.11312 0.53874 0.10341
 C409 C 0.15482 0.58220 0.10748
 C410 C 0.13627 0.59101 0.13950
 C411 C 0.15238 0.61363 0.15711
 C412 C 0.18719 0.62824 0.14304
 C413 C 0.20697 0.61882 0.11184
 C414 C 0.19099 0.59602 0.09429
 C415 C 0.20126 0.65380 0.16018
 C416 C 0.24500 0.66080 0.16244
 C417 C 0.25770 0.68455 0.17963
 C418 C 0.22707 0.70159 0.19552
 C419 C 0.18321 0.69517 0.19153
 C420 C 0.17055 0.67159 0.17429
 H421 H 0.14476 0.57951 0.03566
 H422 H 0.09953 0.54902 0.00237
 H423 H 0.06874 0.50620 0.09889
 H424 H 0.11603 0.53598 0.13177
 H425 H 0.10806 0.58115 0.15025
 H426 H 0.13696 0.62001 0.18149
 H427 H 0.23378 0.62962 0.10026
 H428 H 0.20638 0.58958 0.06993
 H429 H 0.26949 0.64768 0.15150
 H430 H 0.29152 0.68940 0.18051
 H431 H 0.15838 0.70796 0.20261
 H432 H 0.13650 0.66730 0.17201
 C433 C 0.45608 0.92746 0.10559
 C434 C 0.49165 0.92245 0.08369
 C435 C 0.50793 0.94259 0.06169
 C436 C 0.48873 0.96841 0.06024
 C437 C 0.45622 0.97416 0.08500
 C438 C 0.43989 0.95394 0.10724
 C439 C 0.43394 0.90470 0.12401
 C440 C 0.38880 0.90410 0.12601
 C441 C 0.36744 0.88219 0.14116
 C442 C 0.39051 0.86014 0.15467
 C443 C 0.43559 0.86043 0.15245
 C444 C 0.45710 0.88253 0.13744
 C445 C 0.36705 0.83791 0.17272
 C446 C 0.37553 0.81053 0.16565
 C447 C 0.35048 0.79016 0.18156
 C448 C 0.31685 0.79683 0.20506
 C449 C 0.30993 0.82437 0.21262
 C450 C 0.33445 0.84442 0.19680
 H451 H 0.50530 0.90244 0.08166
 H452 H 0.53390 0.93708 0.04396
 H453 H 0.44236 0.99389 0.08680
 H454 H 0.41363 0.95888 0.12499
 H455 H 0.36976 0.92032 0.11510
 H456 H 0.33261 0.88238 0.14207
 H457 H 0.45418 0.84387 0.16304
 H458 H 0.49191 0.88234 0.13662
 H459 H 0.40062 0.80494 0.14710
 H460 H 0.35703 0.76930 0.17504
 H461 H 0.28455 0.83096 0.23013
 H462 H 0.32754 0.86526 0.20327
 C463 C 0.56542 0.42813 0.38022
 C464 C 0.59319 0.44709 0.39592
 C465 C 0.57707 0.46783 0.41713
 C466 C 0.53251 0.47107 0.42218
 C467 C 0.50454 0.45368 0.40367
 C468 C 0.52078 0.43234 0.38320
 C469 C 0.58318 0.40299 0.36385
 C470 C 0.56259 0.38996 0.33531
 C471 C 0.57907 0.36585 0.32126
 C472 C 0.61676 0.35426 0.33521
 C473 C 0.63735 0.36748 0.36352
 C474 C 0.62060 0.39119 0.37784
 C475 C 0.63586 0.32911 0.31998
 C476 C 0.65887 0.31121 0.34170
 C477 C 0.68284 0.29018 0.32695
 C478 C 0.68481 0.28655 0.29001
 C479 C 0.65680 0.30189 0.26888
 C480 C 0.63355 0.32341 0.28347
 H481 H 0.62773 0.44522 0.39326
 H482 H 0.59993 0.48033 0.43121
 H483 H 0.47004 0.45526 0.40695
 H484 H 0.49823 0.41822 0.37163
 H485 H 0.53387 0.39843 0.32364
 H486 H 0.56203 0.35623 0.29967
 H487 H 0.66693 0.35971 0.37456
 H488 H 0.63693 0.40004 0.40036
 H489 H 0.65931 0.31380 0.37020
 H490 H 0.70082 0.27732 0.34463
 H491 H 0.65446 0.29825 0.24067
 H492 H 0.61547 0.33623 0.26579
 C493 C 0.93711 0.57067 0.89548
 C494 C 0.98128 0.56456 0.89604
 C495 C 0.99711 0.54425 0.91823
 C496 C 0.96910 0.52954 0.94030
 C497 C 0.92474 0.53490 0.93830
 C498 C 0.90905 0.55517 0.91640
 C499 C 0.91996 0.59355 0.87426
 C500 C 0.94272 0.61802 0.87112
 C501 C 0.92486 0.63993 0.85284
 C502 C 0.88387 0.63780 0.83739
 C503 C 0.86126 0.61334 0.84079
 C504 C 0.87922 0.59151 0.85848
 C505 C 0.86413 0.66048 0.81733
 C506 C 0.83857 0.65466 0.78777
 C507 C 0.81461 0.67464 0.77151
 C508 C 0.81670 0.70170 0.78284
 C509 C 0.84435 0.70797 0.81125
 C510 C 0.86771 0.68754 0.82846
 H511 H 1.00372 0.57581 0.87982
 H512 H 1.03148 0.54096 0.91914
 H513 H 0.90197 0.52426 0.95492
 H514 H 0.87494 0.55945 0.91718
 H515 H 0.97394 0.62045 0.88339
 H516 H 0.94321 0.65840 0.85061
 H517 H 0.82919 0.61105 0.83006
 H518 H 0.86092 0.57296 0.85987
 H519 H 0.83563 0.63425 0.77783
 H520 H 0.79239 0.66802 0.75146
 H521 H 0.84654 0.72841 0.82119
 H522 H 0.88702 0.69275 0.85133
 C523 C 0.05984 0.07561 0.61771
 C524 C 0.08734 0.05666 0.60169
 C525 C 0.07088 0.03578 0.58093
 C526 C 0.02623 0.03229 0.57674
 C527 C -0.00143 0.04972 0.59552
 C528 C 0.01515 0.07125 0.61548
 C529 C 0.07793 0.10078 0.63384
 C530 C 0.05774 0.11386 0.66256
 C531 C 0.07476 0.13783 0.67662
 C532 C 0.11266 0.14922 0.66256
 C533 C 0.13275 0.13601 0.63396
 C534 C 0.11542 0.11246 0.61959
 C535 C 0.13257 0.17405 0.67809
 C536 C 0.15659 0.19177 0.65668
 C537 C 0.18111 0.21243 0.67179
 C538 C 0.18262 0.21588 0.70876
 C539 C 0.15373 0.20079 0.72954
 C540 C 0.12997 0.17963 0.71463
 H541 H 0.12192 0.05859 0.60379
 H542 H 0.09351 0.02325 0.56661
 H543 H -0.03598 0.04799 0.59285
 H544 H -0.00722 0.08535 0.62731
 H545 H 0.02898 0.10550 0.67444
 H546 H 0.05798 0.14746 0.69837
 H547 H 0.16246 0.14359 0.62277
 H548 H 0.13145 0.10362 0.59689
 H549 H 0.15735 0.18934 0.62817
 H550 H 0.19987 0.22514 0.65436
 H551 H 0.15089 0.20440 0.75773
 H552 H 0.11118 0.16698 0.73211
 C553 C 0.12497 0.41826 0.44126
 C554 C 0.11152 0.41743 0.47677
 C555 C 0.08574 0.43802 0.49061
 C556 C 0.07200 0.45930 0.46889
 C557 C 0.08687 0.46030 0.43361
 C558 C 0.11306 0.44009 0.42008
 C559 C 0.14791 0.39549 0.42477
 C560 C 0.18275 0.40029 0.40189
 C561 C 0.19886 0.37961 0.38060
 C562 C 0.18013 0.35389 0.38173
 C563 C 0.14706 0.34869 0.40622
 C564 C 0.13116 0.36933 0.42770
 C565 C 0.19297 0.33310 0.35579
 C566 C 0.23649 0.32833 0.34839
 C567 C 0.24832 0.30852 0.32397
 C568 C 0.21685 0.29331 0.30607
 C569 C 0.17320 0.29858 0.31315
 C570 C 0.16143 0.31826 0.33770
 H571 H 0.12060 0.40075 0.49360
 H572 H 0.07610 0.43692 0.51802
 H573 H 0.07759 0.47628 0.41578
 H574 H 0.12252 0.44097 0.39245
 H575 H 0.19620 0.42035 0.39937
 H576 H 0.22434 0.38410 0.36190
 H577 H 0.13260 0.32886 0.40788
 H578 H 0.10406 0.36525 0.44496
 H579 H 0.26138 0.33947 0.36218
 H580 H 0.28218 0.30470 0.32008
 H581 H 0.14793 0.28737 0.29998
 H582 H 0.12758 0.32197 0.34245
 C583 C 0.38143 0.57602 0.93611
 C584 C 0.39414 0.55194 0.91974
 C585 C 0.41860 0.53317 0.93801
 C586 C 0.43104 0.53784 0.97340
 C587 C 0.41529 0.56098 0.99072
 C588 C 0.39093 0.58003 0.97216
 C589 C 0.36188 0.59756 0.91439
 C590 C 0.37937 0.60323 0.88088
 C591 C 0.36238 0.62368 0.86008
 C592 C 0.32758 0.63911 0.87229
 C593 C 0.30942 0.63330 0.90556
 C594 C 0.32667 0.61275 0.92662
 C595 C 0.31234 0.66200 0.85071
 C596 C 0.26843 0.66602 0.84387
 C597 C 0.25518 0.68695 0.82154
 C598 C 0.28565 0.70425 0.80590
 C599 C 0.32948 0.70044 0.81380
 C600 C 0.34256 0.67960 0.83576
 H601 H 0.38624 0.54797 0.89225
 H602 H 0.42871 0.51538 0.92365
 H603 H 0.42302 0.56491 1.01813
 H604 H 0.38127 0.59841 0.98549
 H605 H 0.40690 0.59215 0.87096
 H606 H 0.37673 0.62761 0.83441
 H607 H 0.28271 0.64508 0.91558
 H608 H 0.31254 0.60868 0.95231
 H609 H 0.24454 0.65263 0.85513
 H610 H 0.22120 0.68946 0.81651
 H611 H 0.35416 0.71323 0.80255
 H612 H 0.37658 0.67717 0.84103
 C613 C 0.61852 0.08078 0.56350
 C614 C 0.60946 0.08019 0.52708
 C615 C 0.58391 0.05966 0.51280
 C616 C 0.56613 0.03971 0.53481
 C617 C 0.57646 0.04004 0.57115
 C618 C 0.60234 0.06029 0.58525
 C619 C 0.64201 0.10359 0.57968
 C620 C 0.67342 0.09895 0.60567
 C621 C 0.69077 0.12042 0.62492
 C622 C 0.67668 0.14684 0.61868
 C623 C 0.64691 0.15161 0.59145
 C624 C 0.62984 0.13016 0.57199
 C625 C 0.69018 0.16900 0.64245
 C626 C 0.73336 0.17206 0.65244
 C627 C 0.74540 0.19251 0.67598
 C628 C 0.71439 0.20998 0.69053
 C629 C 0.67116 0.20684 0.68018
 C630 C 0.65927 0.18663 0.65645
 H631 H 0.62196 0.09571 0.50973
 H632 H 0.57780 0.05969 0.48466
 H633 H 0.56366 0.02513 0.58919
 H634 H 0.60834 0.06049 0.61353
 H635 H 0.68348 0.07861 0.61187
 H636 H 0.71355 0.11624 0.64588
 H637 H 0.63592 0.17187 0.58594
 H638 H 0.60545 0.13422 0.55225
 H639 H 0.75783 0.15880 0.64175
 H640 H 0.77902 0.19465 0.68244
 H641 H 0.64616 0.21976 0.69070
 H642 H 0.62562 0.18440 0.64961
 C643 C 0.87101 0.92197 0.05300
 C644 C 0.87964 0.92093 0.01647
 C645 C 0.90665 0.94007 0.00078
 C646 C 0.92624 0.96025 0.02145
 C647 C 0.91652 0.96151 0.05791
 C648 C 0.88922 0.94267 0.07340
 C649 C 0.84641 0.90037 0.07080
 C650 C 0.81632 0.90665 0.09745
 C651 C 0.79897 0.88631 0.11868
 C652 C 0.81183 0.85947 0.11378
 C653 C 0.83978 0.85303 0.08572
 C654 C 0.85679 0.87330 0.06430
 C655 C 0.80004 0.83868 0.14000
 C656 C 0.83234 0.82242 0.15441
 C657 C 0.82229 0.80282 0.17936
 C658 C 0.77948 0.79878 0.19044
 C659 C 0.74715 0.81535 0.17624
 C660 C 0.75741 0.83532 0.15146
 H661 H 0.86575 0.90518 0.00016
 H662 H 0.91252 0.93877 -0.02739
 H663 H 0.93069 0.97666 0.07496
 H664 H 0.88369 0.94367 0.10173
 H665 H 0.80760 0.92740 0.10274
 H666 H 0.77753 0.89173 0.14021
 H667 H 0.84978 0.83239 0.08128
 H668 H 0.88012 0.86795 0.04412
 H669 H 0.86562 0.82507 0.14658
 H670 H 0.84838 0.79083 0.18978
 H671 H 0.71387 0.81268 0.18371
 H672 H 0.73200 0.84774 0.14070
 C673 C 0.91426 0.08178 0.88601
 C674 C 0.90174 0.05460 0.88549
 C675 C 0.91991 0.03628 0.90922
 C676 C 0.95109 0.04474 0.93392
 C677 C 0.96445 0.07184 0.93340
 C678 C 0.94627 0.09009 0.90982
 C679 C 0.89205 0.10189 0.86367
 C680 C 0.87907 0.12647 0.87872
 C681 C 0.85681 0.14530 0.85859
 C682 C 0.84700 0.14003 0.82292
 C683 C 0.86063 0.11570 0.80749
 C684 C 0.88274 0.09664 0.82783
 C685 C 0.82180 0.15998 0.80266
 C686 C 0.83539 0.16896 0.76920
 C687 C 0.81431 0.19045 0.75264
 C688 C 0.77871 0.20296 0.76892
 C689 C 0.76480 0.19319 0.80206
 C690 C 0.78568 0.17187 0.81842
 H691 H 0.87687 0.04772 0.86754
 H692 H 0.90889 0.01559 0.90844
 H693 H 0.98824 0.07934 0.95179
 H694 H 0.95690 0.11088 0.91050
 H695 H 0.88536 0.13092 0.90635
 H696 H 0.84714 0.16406 0.87099
 H697 H 0.85337 0.11124 0.78002
 H698 H 0.89266 0.07788 0.81559
 H699 H 0.86365 0.16033 0.75678
 H700 H 0.82739 0.19805 0.72804
 H701 H 0.73874 0.20267 0.81642
 H702 H 0.77442 0.16522 0.84415
 C703 C 0.08283 0.58159 0.60274
 C704 C 0.10827 0.57140 0.57508
 C705 C 0.09105 0.55340 0.55046
 C706 C 0.04740 0.54600 0.55194
 C707 C 0.02268 0.55506 0.58103
 C708 C 0.04019 0.57279 0.60611
 C709 C 0.10088 0.60221 0.62680
 C710 C 0.10224 0.59836 0.66367
 C711 C 0.12353 0.61707 0.68548
 C712 C 0.14332 0.63993 0.67062
 C713 C 0.13944 0.64433 0.63392
 C714 C 0.11891 0.62557 0.61228
 C715 C 0.16975 0.65877 0.69228
 C716 C 0.20740 0.66959 0.67758
 C717 C 0.22990 0.68985 0.69492
 C718 C 0.21691 0.69929 0.72852
 C719 C 0.18037 0.68745 0.74426
 C720 C 0.15702 0.66734 0.72632
 H721 H 0.14168 0.57737 0.57263
 H722 H 0.11231 0.54523 0.53047
 H723 H -0.01043 0.54876 0.58425
 H724 H 0.02017 0.58017 0.62756
 H725 H 0.08838 0.58041 0.67534
 H726 H 0.12590 0.61315 0.71363
 H727 H 0.15296 0.66217 0.62173
 H728 H 0.11751 0.62914 0.58398
 H729 H 0.21884 0.66303 0.65183
 H730 H 0.25662 0.69880 0.68086
 H731 H 0.16850 0.69461 0.76957
 H732 H 0.12798 0.65944 0.73831
 C733 C 0.58341 0.92256 0.39401
 C734 C 0.60763 0.93212 0.42290
 C735 C 0.58888 0.94845 0.44889
 C736 C 0.54490 0.95500 0.44762
 C737 C 0.52113 0.94636 0.41788
 C738 C 0.53994 0.93012 0.39169
 C739 C 0.60358 0.90464 0.36679
 C740 C 0.58043 0.88310 0.35154
 C741 C 0.60079 0.86479 0.32865
 C742 C 0.64476 0.86748 0.32082
 C743 C 0.66737 0.88963 0.33468
 C744 C 0.64699 0.90808 0.35714
 C745 C 0.66831 0.84577 0.30190
 C746 C 0.70507 0.83478 0.31757
 C747 C 0.72637 0.81317 0.30184
 C748 C 0.71286 0.80248 0.26901
 C749 C 0.67571 0.81347 0.25334
 C750 C 0.65355 0.83484 0.26971
 H751 H 0.64119 0.92679 0.42573
 H752 H 0.60934 0.95617 0.46971
 H753 H 0.48786 0.95221 0.41463
 H754 H 0.52055 0.92383 0.36934
 H755 H 0.54709 0.87966 0.35853
 H756 H 0.58277 0.84771 0.31860
 H757 H 0.70123 0.89228 0.32876
 H758 H 0.66557 0.92481 0.36746
 H759 H 0.71643 0.84226 0.34290
 H760 H 0.75302 0.80453 0.31621
 H761 H 0.66292 0.80509 0.22904
 H762 H 0.62480 0.84274 0.25737
 C763 C 0.42138 0.41820 0.11357
 C764 C 0.45457 0.41039 0.09053
 C765 C 0.47189 0.42859 0.06643
 C766 C 0.45692 0.45530 0.06480
 C767 C 0.42463 0.46340 0.08879
 C768 C 0.40703 0.44502 0.11292
 C769 C 0.39989 0.39777 0.13608
 C770 C 0.38788 0.40344 0.17131
 C771 C 0.36640 0.38398 0.19163
 C772 C 0.35622 0.35877 0.17681
 C773 C 0.36898 0.35306 0.14188
 C774 C 0.39041 0.37231 0.12175
 C775 C 0.33076 0.33855 0.19655
 C776 C 0.29706 0.32522 0.17924
 C777 C 0.27558 0.30408 0.19555
 C778 C 0.28625 0.29595 0.23019
 C779 C 0.31955 0.30973 0.24790
 C780 C 0.34136 0.33104 0.23133
 H781 H 0.46672 0.38994 0.09072
 H782 H 0.49628 0.42125 0.04844
 H783 H 0.41229 0.48378 0.08863
 H784 H 0.38120 0.45155 0.13021
 H785 H 0.39509 0.42286 0.18305
 H786 H 0.35678 0.38884 0.21850
 H787 H 0.36200 0.33366 0.12995
 H788 H 0.39869 0.36744 0.09458
 H789 H 0.28795 0.33075 0.15253
 H790 H 0.25114 0.29373 0.18032
 H791 H 0.33005 0.30344 0.27388
 H792 H 0.36771 0.34082 0.24502
 C793 C 0.53744 0.60085 0.07941
 C794 C 0.56092 0.59270 0.04949
 C795 C 0.54823 0.57018 0.02991
 C796 C 0.51078 0.55573 0.03893
 C797 C 0.48623 0.56481 0.06810
 C798 C 0.49958 0.58702 0.08823
 C799 C 0.55527 0.62194 0.10299
 C800 C 0.56199 0.61661 0.13912
 C801 C 0.58586 0.63452 0.16007
 C802 C 0.60309 0.65817 0.14527
 C803 C 0.59352 0.66431 0.10973
 C804 C 0.57026 0.64626 0.08874
 C805 C 0.63391 0.67523 0.16554
 C806 C 0.66970 0.68627 0.14815
 C807 C 0.69906 0.70229 0.16635
 C808 C 0.69455 0.70724 0.20292
 C809 C 0.65841 0.69638 0.22040
 C810 C 0.62863 0.68035 0.20200
 H811 H 0.59076 0.60271 0.04260
 H812 H 0.56942 0.56326 0.00905
 H813 H 0.45784 0.55397 0.07665
 H814 H 0.48108 0.59290 0.11134
 H815 H 0.55102 0.59782 0.15059
 H816 H 0.59279 0.62910 0.18725
 H817 H 0.60519 0.68273 0.09775
 H818 H 0.56506 0.65090 0.06103
 H819 H 0.67525 0.68251 0.12023
 H820 H 0.72468 0.71127 0.15109
 H821 H 0.65292 0.70042 0.24827
 H822 H 0.60108 0.67239 0.21614
 C823 C 0.03372 0.89917 0.91702
 C824 C 0.05713 0.90751 0.94682
 C825 C 0.04444 0.93013 0.96615
 C826 C 0.00701 0.94447 0.95708
 C827 C -0.01727 0.93536 0.92784
 C828 C -0.00392 0.91304 0.90792
 C829 C 0.05155 0.87788 0.89379
 C830 C 0.05883 0.88300 0.85767
 C831 C 0.08301 0.86501 0.83713
 C832 C 0.10000 0.84147 0.85232
 C833 C 0.08985 0.83552 0.88784
 C834 C 0.06625 0.85366 0.90843
 C835 C 0.13116 0.82441 0.83244
 C836 C 0.16677 0.81352 0.85011
 C837 C 0.19683 0.79791 0.83200
 C838 C 0.19315 0.79331 0.79532
 C839 C 0.15691 0.80373 0.77769
 C840 C 0.12649 0.81933 0.79595
 H841 H 0.08688 0.89752 0.95383
 H842 H 0.06557 0.93713 0.98696
 H843 H -0.04544 0.94624 0.91908
 H844 H -0.02226 0.90707 0.88481
 H845 H 0.04811 0.90172 0.84593
 H846 H 0.09041 0.87029 0.80996
 H847 H 0.10135 0.81720 0.90009
 H848 H 0.06064 0.84921 0.93616
 H849 H 0.17176 0.81720 0.87811
 H850 H 0.22247 0.78910 0.84732
 H851 H 0.15190 0.79977 0.74976
 H852 H 0.09903 0.82707 0.78163
 C853 C 0.44940 0.09637 0.43561
 C854 C 0.42723 0.08728 0.46569
 C855 C 0.44235 0.06518 0.48471
 C856 C 0.48068 0.05207 0.47472
 C857 C 0.50366 0.06206 0.44532
 C858 C 0.48824 0.08397 0.42607
 C859 C 0.42947 0.11659 0.41213
 C860 C 0.42642 0.11148 0.37556
 C861 C 0.40358 0.12894 0.35366
 C862 C 0.38378 0.15198 0.36784
 C863 C 0.38803 0.15761 0.40419
 C864 C 0.41044 0.13993 0.42622
 C865 C 0.35730 0.16948 0.34503
 C866 C 0.32640 0.15817 0.32240
 C867 C 0.30031 0.17465 0.30168
 C868 C 0.30487 0.20288 0.30263
 C869 C 0.33645 0.21403 0.32515
 C870 C 0.36212 0.19753 0.34623
 H871 H 0.39670 0.09616 0.47314
 H872 H 0.42245 0.05752 0.50595
 H873 H 0.53243 0.05214 0.43581
 H874 H 0.50587 0.09062 0.40289
 H875 H 0.44034 0.09344 0.36414
 H876 H 0.40096 0.12432 0.32566
 H877 H 0.37280 0.17519 0.41572
 H878 H 0.41241 0.14427 0.45433
 H879 H 0.32184 0.13654 0.32125
 H880 H 0.27677 0.16508 0.28476
 H881 H 0.34137 0.23557 0.32695
 H882 H 0.38598 0.20669 0.36336
 C883 C 0.95071 0.40600 0.57097
 C884 C 0.98954 0.41864 0.58010
 C885 C 1.00592 0.43956 0.55943
 C886 C 0.98418 0.44827 0.52878
 C887 C 0.94604 0.43483 0.51906
 C888 C 0.92973 0.41382 0.53972
 C889 C 0.93038 0.38633 0.59538
 C890 C 0.91008 0.36311 0.58213
 C891 C 0.88871 0.34550 0.60504
 C892 C 0.88699 0.35080 0.64167
 C893 C 0.90774 0.37385 0.65498
 C894 C 0.92931 0.39138 0.63209
 C895 C 0.86235 0.33275 0.66555
 C896 C 0.86434 0.30473 0.66103
 C897 C 0.83807 0.28775 0.68100
 C898 C 0.80886 0.29831 0.70606
 C899 C 0.80855 0.32637 0.71176
 C900 C 0.83496 0.34337 0.69173
 H901 H 1.00660 0.41288 0.60390
 H902 H 1.03466 0.44969 0.56863
 H903 H 0.92719 0.44150 0.49669
 H904 H 0.89933 0.40475 0.53231
 H905 H 0.91054 0.35865 0.55401
 H906 H 0.87257 0.32807 0.59395
 H907 H 0.90715 0.37834 0.68308
 H908 H 0.94416 0.40932 0.64302
 H909 H 0.88575 0.29593 0.64151
 H910 H 0.83995 0.26635 0.67573
 H911 H 0.78638 0.33548 0.73034
 H912 H 0.83247 0.36494 0.69563
 C913 C 0.93587 0.55689 0.12993
 C914 C 0.91981 0.53095 0.12282
 C915 C 0.94007 0.51425 0.09780
 C916 C 0.97635 0.52336 0.07883
 C917 C 0.99321 0.54896 0.08742
 C918 C 0.97372 0.56524 0.11298
 C919 C 0.91068 0.57678 0.15086
 C920 C 0.93100 0.59367 0.17573
 C921 C 0.90884 0.61541 0.19091
 C922 C 0.86622 0.62094 0.18097
 C923 C 0.84540 0.60340 0.15722
 C924 C 0.86729 0.58142 0.14254
 C925 C 0.84461 0.64597 0.19312
 C926 C 0.82532 0.66314 0.16832
 C927 C 0.80595 0.68718 0.17915
 C928 C 0.80396 0.69432 0.21523
 C929 C 0.82432 0.67734 0.23996
 C930 C 0.84444 0.65346 0.22902
 H931 H 0.89055 0.52406 0.13553
 H932 H 0.92546 0.49499 0.09167
 H933 H 1.01967 0.55755 0.07268
 H934 H 0.98636 0.58533 0.11740
 H935 H 0.96446 0.59056 0.18251
 H936 H 0.92565 0.62869 0.20903
 H937 H 0.81247 0.60716 0.14932
 H938 H 0.85102 0.56895 0.12312
 H939 H 0.82619 0.65824 0.14033
 H940 H 0.79327 0.70029 0.15896
 H941 H 0.82462 0.68238 0.26790
 H942 H 0.85951 0.64071 0.24864
 C943 C 0.56195 0.44115 0.61160
 C944 C 0.57600 0.46793 0.60813
 C945 C 0.55700 0.48496 0.58299
 C946 C 0.52361 0.47546 0.56103
 C947 C 0.50772 0.44923 0.56685
 C948 C 0.52631 0.43248 0.59198
 C949 C 0.58752 0.42099 0.63132
 C950 C 0.59851 0.39672 0.61435
 C951 C 0.62245 0.37723 0.63189
 C952 C 0.63599 0.38142 0.66693
 C953 C 0.62505 0.40566 0.68415
 C954 C 0.60134 0.42548 0.66629
 C955 C 0.66094 0.36005 0.68494
 C956 C 0.64891 0.35070 0.71861
 C957 C 0.66893 0.32802 0.73319
 C958 C 0.70214 0.31463 0.71480
 C959 C 0.71441 0.32452 0.68132
 C960 C 0.69441 0.34702 0.66680
 H961 H 0.60359 0.47504 0.62296
 H962 H 0.57051 0.50485 0.57917
 H963 H 0.48277 0.44068 0.55036
 H964 H 0.51452 0.41201 0.59448
 H965 H 0.58879 0.39289 0.58723
 H966 H 0.62995 0.35863 0.61812
 H967 H 0.63525 0.40934 0.71117
 H968 H 0.59327 0.44407 0.67985
 H969 H 0.62252 0.36006 0.73279
 H970 H 0.65692 0.32039 0.75811
 H971 H 0.73876 0.31447 0.66561
 H972 H 0.70434 0.35382 0.64077
 C973 C 0.05274 0.06219 0.38702
 C974 C 0.01562 0.06983 0.40563
 C975 C -0.00177 0.05314 0.43147
 C976 C 0.01598 0.02760 0.43835
 C977 C 0.05074 0.01886 0.41725
 C978 C 0.06909 0.03606 0.39191
 C979 C 0.07725 0.08288 0.36697
 C980 C 0.09839 0.07694 0.33488
 C981 C 0.12292 0.09677 0.31764
 C982 C 0.12702 0.12267 0.33253
 C983 C 0.10530 0.12857 0.36423
 C984 C 0.08105 0.10896 0.38129
 C985 C 0.15437 0.14374 0.31613
 C986 C 0.18028 0.15999 0.33786
 C987 C 0.20214 0.18202 0.32395
 C988 C 0.19945 0.18822 0.28765
 C989 C 0.17500 0.17123 0.26551
 C990 C 0.15269 0.14914 0.27962
 H991 H 0.00161 0.08959 0.40194
 H992 H -0.02743 0.06131 0.44756
 H993 H 0.06581 -0.00044 0.42197
 H994 H 0.09783 0.02962 0.37804
 H995 H 0.09599 0.05703 0.32322
 H996 H 0.13944 0.09172 0.29322
 H997 H 0.10726 0.14845 0.37607
 H998 H 0.06607 0.11414 0.40634
 H999 H 0.18298 0.15597 0.36598
 H1000 H 0.22091 0.19430 0.34196
 H1001 H 0.17197 0.17541 0.23750
 H1002 H 0.13279 0.13697 0.26230
 C1003 C 0.42743 0.94657 0.86906
 C1004 C 0.41293 0.97235 0.87889
 C1005 C 0.43511 0.98739 0.90461
 C1006 C 0.47169 0.97666 0.92140
 C1007 C 0.48604 0.95092 0.91091
 C1008 C 0.46477 0.93638 0.88471
 C1009 C 0.40145 0.92845 0.84636
 C1010 C 0.42140 0.91289 0.81985
 C1011 C 0.39956 0.89136 0.80405
 C1012 C 0.35757 0.88483 0.81482
 C1013 C 0.33667 0.90149 0.83964
 C1014 C 0.35835 0.92322 0.85513
 C1015 C 0.33735 0.85931 0.80294
 C1016 C 0.31884 0.84191 0.82795
 C1017 C 0.30161 0.81715 0.81751
 C1018 C 0.30129 0.80944 0.78163
 C1019 C 0.32093 0.82666 0.75671
 C1020 C 0.33868 0.85133 0.76724
 H1021 H 0.38382 0.98048 0.86742
 H1022 H 0.42230 1.00676 0.91253
 H1023 H 0.51249 0.94109 0.92412
 H1024 H 0.47596 0.91625 0.87840
 H1025 H 0.45467 0.91655 0.81271
 H1026 H 0.41645 0.87880 0.78508
 H1027 H 0.30413 0.89700 0.84809
 H1028 H 0.34243 0.93474 0.87574
 H1029 H 0.31875 0.84714 0.85585
 H1030 H 0.28925 0.80399 0.83783
 H1031 H 0.32223 0.82127 0.72890
 H1032 H 0.35321 0.86426 0.74747
 C1033 C 0.12254 0.93395 0.59000
 C1034 C 0.09965 0.95449 0.60741
 C1035 C 0.07242 0.97150 0.58861
 C1036 C 0.06819 0.96914 0.55159
 C1037 C 0.09364 0.94988 0.53384
 C1038 C 0.12027 0.93239 0.55282
 C1039 C 0.14534 0.91295 0.61087
 C1040 C 0.18331 0.90077 0.59825
 C1041 C 0.20304 0.88009 0.61746
 C1042 C 0.18550 0.87148 0.64985
 C1043 C 0.14791 0.88375 0.66259
 C1044 C 0.12790 0.90405 0.64325
 C1045 C 0.20525 0.84929 0.67022
 C1046 C 0.21098 0.85190 0.70692
 C1047 C 0.22555 0.83020 0.72693
 C1048 C 0.23418 0.80511 0.71091
 C1049 C 0.22993 0.80291 0.67382
 C1050 C 0.21579 0.82480 0.65369
 H1051 H 0.10131 0.95675 0.63593
 H1052 H 0.05264 0.98527 0.60368
 H1053 H 0.09122 0.94713 0.50544
 H1054 H 0.13715 0.91671 0.53847
 H1055 H 0.19785 0.90726 0.57361
 H1056 H 0.23216 0.87095 0.60721
 H1057 H 0.13330 0.87711 0.68716
 H1058 H 0.09803 0.91225 0.65334
 H1059 H 0.20359 0.87072 0.72022
 H1060 H 0.22904 0.83311 0.75517
 H1061 H 0.23660 0.78414 0.66024
 H1062 H 0.21147 0.82229 0.62539
 C1063 C 0.63368 0.56802 0.41191
 C1064 C 0.63190 0.56807 0.44906
 C1065 C 0.60362 0.55096 0.46693
 C1066 C 0.57601 0.53359 0.44803
 C1067 C 0.57979 0.53257 0.41082
 C1068 C 0.60847 0.54948 0.39299
 C1069 C 0.65779 0.58925 0.39289
 C1070 C 0.68384 0.58301 0.36358
 C1071 C 0.70345 0.60359 0.34404
 C1072 C 0.69672 0.63082 0.35308
 C1073 C 0.67110 0.63686 0.38284
 C1074 C 0.65215 0.61632 0.40262
 C1075 C 0.71411 0.65299 0.33069
 C1076 C 0.72616 0.67773 0.34598
 C1077 C 0.73779 0.69955 0.32475
 C1078 C 0.73825 0.69719 0.28757
 C1079 C 0.72891 0.67189 0.27246
 C1080 C 0.71647 0.65020 0.29365
 H1081 H 0.65135 0.58208 0.46422
 H1082 H 0.60209 0.55245 0.49552
 H1083 H 0.55874 0.51997 0.39512
 H1084 H 0.60891 0.54928 0.36428
 H1085 H 0.68876 0.56223 0.35570
 H1086 H 0.72357 0.59814 0.32170
 H1087 H 0.66423 0.65751 0.39018
 H1088 H 0.63151 0.62167 0.42471
 H1089 H 0.72612 0.68042 0.37447
 H1090 H 0.74585 0.71836 0.33772
 H1091 H 0.73032 0.66881 0.24411
 H1092 H 0.70732 0.63154 0.28078
 C1093 C 0.39444 0.07252 0.07944
 C1094 C 0.38024 0.04637 0.07050
 C1095 C 0.40604 0.02933 0.04946
 C1096 C 0.44753 0.03749 0.03890
 C1097 C 0.46005 0.06421 0.04623
 C1098 C 0.43366 0.08147 0.06521
 C1099 C 0.37047 0.09054 0.10439
 C1100 C 0.39365 0.10908 0.12512
 C1101 C 0.37278 0.12782 0.14630
 C1102 C 0.32774 0.12768 0.14995
 C1103 C 0.30417 0.10843 0.13034
 C1104 C 0.32529 0.09024 0.10750
 C1105 C 0.30667 0.14787 0.17396
 C1106 C 0.26461 0.15754 0.16813
 C1107 C 0.24750 0.17830 0.18936
 C1108 C 0.27245 0.19030 0.21624
 C1109 C 0.31453 0.18084 0.22126
 C1110 C 0.33033 0.15918 0.20204
 H1111 H 0.34983 0.03881 0.08033
 H1112 H 0.39420 0.00945 0.04265
 H1113 H 0.49075 0.07218 0.03769
 H1114 H 0.44478 0.10194 0.06910
 H1115 H 0.42844 0.10949 0.12498
 H1116 H 0.39269 0.14268 0.15934
 H1117 H 0.26952 0.10734 0.13251
 H1118 H 0.30618 0.07630 0.09200
 H1119 H 0.24531 0.14978 0.14655
 H1120 H 0.21543 0.18559 0.18379
 H1121 H 0.33612 0.19026 0.23997
 H1122 H 0.36193 0.15189 0.20902
 C1123 C 0.87269 0.43180 0.92467
 C1124 C 0.89590 0.45214 0.90733
 C1125 C 0.92374 0.46894 0.92635
 C1126 C 0.92858 0.46606 0.96328
 C1127 C 0.90312 0.44668 0.98075
 C1128 C 0.87575 0.42967 0.96165
 C1129 C 0.84938 0.41104 0.90389
 C1130 C 0.85740 0.38364 0.91033
 C1131 C 0.83931 0.36382 0.88866
 C1132 C 0.81229 0.37095 0.86047
 C1133 C 0.80280 0.39826 0.85476
 C1134 C 0.82162 0.41820 0.87609
 C1135 C 0.79674 0.34991 0.83579
 C1136 C 0.75272 0.34635 0.82910
 C1137 C 0.73864 0.32543 0.80688
 C1138 C 0.76840 0.30823 0.79010
 C1139 C 0.81256 0.31226 0.79675
 C1140 C 0.82645 0.33271 0.81939
 H1141 H 0.89458 0.45394 0.87875
 H1142 H 0.94337 0.48295 0.91157
 H1143 H 0.90569 0.44363 1.00906
 H1144 H 0.85797 0.41422 0.97566
 H1145 H 0.87908 0.37760 0.93129
 H1146 H 0.84699 0.34287 0.89351
 H1147 H 0.78221 0.40415 0.83300
 H1148 H 0.81499 0.43921 0.87065
 H1149 H 0.72924 0.35927 0.84185
 H1150 H 0.70450 0.32252 0.80351
 H1151 H 0.83674 0.29960 0.78453
 H1152 H 0.86061 0.33521 0.82403
 C1153 C 0.56110 0.08082 0.87910
 C1154 C 0.51835 0.07174 0.88036
 C1155 C 0.50704 0.04976 0.90177
 C1156 C 0.53840 0.03629 0.92198
 C1157 C 0.58179 0.04389 0.91762
 C1158 C 0.59288 0.06605 0.89678
 C1159 C 0.57258 0.10655 0.86150
 C1160 C 0.56190 0.11123 0.82592
 C1161 C 0.57633 0.13460 0.80883
 C1162 C 0.60074 0.15398 0.82728
 C1163 C 0.60938 0.14994 0.86336
 C1164 C 0.59575 0.12634 0.88022
 C1165 C 0.62255 0.17609 0.80791
 C1166 C 0.62066 0.20306 0.81943
 C1167 C 0.64540 0.22303 0.80254
 C1168 C 0.67333 0.21628 0.77441
 C1169 C 0.67479 0.18907 0.76343
 C1170 C 0.64932 0.16950 0.77941
 H1171 H 0.49333 0.08270 0.86664
 H1172 H 0.47336 0.04460 0.90426
 H1173 H 0.60713 0.03390 0.93216
 H1174 H 0.62625 0.07232 0.89553
 H1175 H 0.54402 0.09628 0.81100
 H1176 H 0.56955 0.13723 0.78089
 H1177 H 0.62863 0.16437 0.87799
 H1178 H 0.60397 0.12328 0.90781
 H1179 H 0.60055 0.20854 0.84178
 H1180 H 0.64379 0.24353 0.81237
 H1181 H 0.69756 0.18209 0.74396
 H1182 H 0.65248 0.14875 0.77078
 C1183 C 0.43583 0.57981 0.60182
 C1184 C 0.40703 0.56605 0.57951
 C1185 C 0.42143 0.54584 0.55673
 C1186 C 0.46523 0.53873 0.55527
 C1187 C 0.49390 0.55178 0.57857
 C1188 C 0.47936 0.57209 0.60158
 C1189 C 0.42007 0.60249 0.62432
 C1190 C 0.44452 0.62617 0.62904
 C1191 C 0.42794 0.64800 0.64850
 C1192 C 0.38664 0.64655 0.66364
 C1193 C 0.36240 0.62286 0.65872
 C1194 C 0.37902 0.60111 0.63976
 C1195 C 0.36821 0.66914 0.68492
 C1196 C 0.34235 0.66315 0.71427
 C1197 C 0.31946 0.68323 0.73160
 C1198 C 0.32287 0.71048 0.72150
 C1199 C 0.35086 0.71683 0.69330
 C1200 C 0.37319 0.69634 0.67507
 H1201 H 0.37341 0.57162 0.57850
 H1202 H 0.39817 0.53648 0.53925
 H1203 H 0.52788 0.54714 0.57810
 H1204 H 0.50228 0.58202 0.61880
 H1205 H 0.47606 0.62805 0.61709
 H1206 H 0.44750 0.66589 0.65190
 H1207 H 0.33008 0.62114 0.66923
 H1208 H 0.35945 0.58316 0.63712
 H1209 H 0.33830 0.64257 0.72318
 H1210 H 0.29689 0.67662 0.75141
 H1211 H 0.35413 0.73743 0.68432
 H1212 H 0.39279 0.70167 0.65240
 C1213 C 0.06422 0.41709 0.11343
 C1214 C 0.02231 0.42740 0.11639
 C1215 C 0.00930 0.44917 0.09538
 C1216 C 0.03812 0.46122 0.07129
 C1217 C 0.08113 0.45228 0.07095
 C1218 C 0.09386 0.43037 0.09150
 C1219 C 0.07691 0.39189 0.13170
 C1220 C 0.09776 0.37123 0.11272
 C1221 C 0.11271 0.34821 0.13011
 C1222 C 0.10766 0.34563 0.16690
 C1223 C 0.08541 0.36582 0.18569
 C1224 C 0.06976 0.38863 0.16818
 C1225 C 0.13069 0.32407 0.18623
 C1226 C 0.15913 0.33142 0.21321
 C1227 C 0.18424 0.31212 0.22992
 C1228 C 0.18097 0.28454 0.22109
 C1229 C 0.15195 0.27710 0.19413
 C1230 C 0.12737 0.29674 0.17657
 H1231 H -0.00103 0.41764 0.13342
 H1232 H -0.02400 0.45544 0.09656
 H1233 H 0.10463 0.46119 0.05330
 H1234 H 0.12669 0.42323 0.08945
 H1235 H 0.10318 0.37315 0.08447
 H1236 H 0.13016 0.33309 0.11515
 H1237 H 0.08130 0.36428 0.21413
 H1238 H 0.05375 0.40424 0.18335
 H1239 H 0.16333 0.35241 0.22041
 H1240 H 0.20754 0.31939 0.24880
 H1241 H 0.14883 0.25623 0.18608
 H1242 H 0.10591 0.29065 0.15543
 C1243 C 0.92838 0.92515 0.39564
 C1244 C 0.89950 0.93802 0.41881
 C1245 C 0.91377 0.95768 0.44250
 C1246 C 0.95746 0.96508 0.44389
 C1247 C 0.98610 0.95307 0.41961
 C1248 C 0.97172 0.93330 0.39578
 C1249 C 0.91316 0.90270 0.37253
 C1250 C 0.93825 0.87941 0.36721
 C1251 C 0.92232 0.85766 0.34731
 C1252 C 0.88101 0.85878 0.33228
 C1253 C 0.85616 0.88214 0.33759
 C1254 C 0.87211 0.90383 0.35714
 C1255 C 0.86318 0.83598 0.31110
 C1256 C 0.83725 0.84149 0.28170
 C1257 C 0.81540 0.82093 0.26429
 C1258 C 0.81965 0.79382 0.27474
 C1259 C 0.84763 0.78805 0.30305
 C1260 C 0.86908 0.80892 0.32112
 H1261 H 0.86599 0.93209 0.41980
 H1262 H 0.89057 0.96633 0.46069
 H1263 H 1.01997 0.95807 0.41987
 H1264 H 0.99467 0.92409 0.37786
 H1265 H 0.96979 0.87774 0.37911
 H1266 H 0.94235 0.84005 0.34358
 H1267 H 0.82386 0.88357 0.32708
 H1268 H 0.85207 0.92150 0.36033
 H1269 H 0.83247 0.86198 0.27276
 H1270 H 0.79293 0.82700 0.24419
 H1271 H 0.85157 0.76756 0.31228
 H1272 H 0.88871 0.80397 0.34385
 C1273 C 0.88603 0.58994 0.54672
 C1274 C 0.87143 0.56422 0.53710
 C1275 C 0.89991 0.54526 0.52335
 C1276 C 0.94369 0.55164 0.51849
 C1277 C 0.95740 0.57814 0.52528
 C1278 C 0.92904 0.59698 0.53969
 C1279 C 0.85797 0.60829 0.56737
 C1280 C 0.86128 0.63634 0.56328
 C1281 C 0.84074 0.65357 0.58709
 C1282 C 0.81606 0.64305 0.61498
 C1283 C 0.80988 0.61519 0.61754
 C1284 C 0.83091 0.59790 0.59404
 C1285 C 0.80195 0.66083 0.64388
 C1286 C 0.75878 0.66202 0.65450
 C1287 C 0.74624 0.67979 0.68144
 C1288 C 0.77692 0.69615 0.69854
 C1289 C 0.82045 0.69379 0.68859
 C1290 C 0.83270 0.67648 0.66147
 H1291 H 0.83821 0.55843 0.54124
 H1292 H 0.88744 0.52537 0.51757
 H1293 H 0.99054 0.58404 0.52126
 H1294 H 0.94149 0.61660 0.54702
 H1295 H 0.88108 0.64494 0.54254
 H1296 H 0.84549 0.67513 0.58467
 H1297 H 0.79123 0.60679 0.63914
 H1298 H 0.82810 0.57640 0.59826
 H1299 H 0.73473 0.64981 0.64127
 H1300 H 0.71249 0.68121 0.68802
 H1301 H 0.84532 0.70563 0.70130
 H1302 H 0.86636 0.67531 0.65411
 C1303 C 0.61721 0.41831 0.07792
 C1304 C 0.59911 0.43990 0.09665
 C1305 C 0.57167 0.45788 0.07976
 C1306 C 0.56173 0.45488 0.04350
 C1307 C 0.58108 0.43371 0.02448
 C1308 C 0.60821 0.41542 0.04161
 C1309 C 0.64300 0.39801 0.09708
 C1310 C 0.63391 0.37054 0.09275
 C1311 C 0.65477 0.35139 0.11351
 C1312 C 0.68569 0.35922 0.13878
 C1313 C 0.69559 0.38674 0.14242
 C1314 C 0.67431 0.40595 0.12186
 C1315 C 0.70597 0.33863 0.16191
 C1316 C 0.71419 0.34381 0.19797
 C1317 C 0.72829 0.32316 0.22035
 C1318 C 0.73328 0.29671 0.20742
 C1319 C 0.72767 0.29220 0.17079
 C1320 C 0.71461 0.31285 0.14843
 H1321 H 0.60504 0.44237 0.12476
 H1322 H 0.55773 0.47382 0.09565
 H1323 H 0.57490 0.43099 -0.00345
 H1324 H 0.62206 0.39896 0.02655
 H1325 H 0.60932 0.36394 0.07435
 H1326 H 0.64549 0.33047 0.11053
 H1327 H 0.71961 0.39343 0.16124
 H1328 H 0.68201 0.42707 0.12551
 H1329 H 0.70783 0.36347 0.20932
 H1330 H 0.73271 0.32769 0.24815
 H1331 H 0.73213 0.27251 0.15903
 H1332 H 0.71020 0.30836 0.12057
 C1333 C 0.38618 0.91068 0.44282
 C1334 C 0.37066 0.93623 0.45239
 C1335 C 0.39734 0.95477 0.46942
 C1336 C 0.44018 0.94815 0.47776
 C1337 C 0.45445 0.92179 0.47089
 C1338 C 0.42803 0.90341 0.45320
 C1339 C 0.36040 0.89260 0.41960
 C1340 C 0.36378 0.86444 0.42261
 C1341 C 0.34445 0.84759 0.39760
 C1342 C 0.32064 0.85853 0.36960
 C1343 C 0.31492 0.88644 0.36758
 C1344 C 0.33490 0.90338 0.39222
 C1345 C 0.30590 0.84090 0.34067
 C1346 C 0.26206 0.83769 0.33314
 C1347 C 0.24883 0.81909 0.30736
 C1348 C 0.27937 0.80390 0.28828
 C1349 C 0.32339 0.80841 0.29498
 C1350 C 0.33640 0.82654 0.32101
 H1351 H 0.33818 0.94224 0.44581
 H1352 H 0.38448 0.97461 0.47489
 H1353 H 0.48698 0.91574 0.47706
 H1354 H 0.44137 0.88400 0.44603
 H1355 H 0.38228 0.85542 0.44374
 H1356 H 0.34894 0.82600 0.39954
 H1357 H 0.29696 0.89516 0.34588
 H1358 H 0.33211 0.92493 0.38865
 H1359 H 0.23813 0.84875 0.34815
 H1360 H 0.21477 0.81596 0.30345
 H1361 H 0.34810 0.79741 0.28082
 H1362 H 0.37044 0.82910 0.32621
 C1363 C 0.11063 0.08356 0.92160
 C1364 C 0.10121 0.08604 0.95791
 C1365 C 0.07441 0.06726 0.97468
 C1366 C 0.05573 0.04605 0.95527
 C1367 C 0.06599 0.04357 0.91897
 C1368 C 0.09316 0.06199 0.90247
 C1369 C 0.13637 0.10415 0.90283
 C1370 C 0.16847 0.09652 0.87852
 C1371 C 0.18961 0.11592 0.85805
 C1372 C 0.17873 0.14331 0.86126
 C1373 C 0.14706 0.15085 0.88614
 C1374 C 0.12637 0.13151 0.90685
 C1375 C 0.19889 0.16400 0.83811
 C1376 C 0.20645 0.19001 0.85129
 C1377 C 0.22018 0.21052 0.82889
 C1378 C 0.22758 0.20565 0.79253
 C1379 C 0.22311 0.17908 0.77991
 C1380 C 0.20840 0.15857 0.80230
 H1381 H 0.11458 0.10251 0.97326
 H1382 H 0.06808 0.06960 1.00264
 H1383 H 0.05261 0.02765 0.90273
 H1384 H 0.09942 0.05984 0.87434
 H1385 H 0.17686 0.07549 0.87512
 H1386 H 0.21426 0.10945 0.83961
 H1387 H 0.13708 0.17165 0.88881
 H1388 H 0.10119 0.13783 0.92493
 H1389 H 0.20093 0.19475 0.87896
 H1390 H 0.22394 0.23037 0.84039
 H1391 H 0.22858 0.17431 0.75229
 H1392 H 0.20274 0.13876 0.79114
 C1393 C 0.06867 0.92554 0.09317
 C1394 C 0.08280 0.95239 0.09165
 C1395 C 0.06445 0.97039 0.06759
 C1396 C 0.03143 0.96199 0.04451
 C1397 C 0.01660 0.93525 0.04701
 C1398 C 0.03493 0.91731 0.07097
 C1399 C 0.09101 0.90564 0.11583
 C1400 C 0.10111 0.88012 0.10202
 C1401 C 0.12409 0.86162 0.12218
 C1402 C 0.13759 0.86816 0.15666
 C1403 C 0.12661 0.89339 0.17100
 C1404 C 0.10372 0.91208 0.15063
 C1405 C 0.16433 0.84876 0.17657
 C1406 C 0.15478 0.84182 0.21180
 C1407 C 0.17761 0.82116 0.22868
 C1408 C 0.21079 0.80739 0.21078
 C1409 C 0.22093 0.81525 0.17589
 C1410 C 0.19832 0.83573 0.15921
 H1411 H 0.10908 0.95923 0.10821
 H1412 H 0.07684 0.99077 0.06681
 H1413 H -0.00825 0.92767 0.02967
 H1414 H 0.02306 0.89679 0.07177
 H1415 H 0.09223 0.87467 0.07519
 H1416 H 0.13166 0.84218 0.11065
 H1417 H 0.13672 0.89888 0.19752
 H1418 H 0.09605 0.93156 0.16200
 H1419 H 0.12841 0.85148 0.22565
 H1420 H 0.16794 0.81528 0.25510
 H1421 H 0.24580 0.80513 0.16080
 H1422 H 0.20677 0.84096 0.13221
 C1423 C 0.92805 0.42736 0.39180
 C1424 C 0.91526 0.45440 0.39327
 C1425 C 0.93525 0.47234 0.41655
 C1426 C 0.96835 0.46363 0.43928
 C1427 C 0.98136 0.43650 0.43734
 C1428 C 0.96169 0.41864 0.41367
 C1429 C 0.90440 0.40791 0.36933
 C1430 C 0.92655 0.38930 0.34793
 C1431 C 0.90391 0.36978 0.32868
 C1432 C 0.85889 0.36830 0.33109
 C1433 C 0.83674 0.38730 0.35182
 C1434 C 0.85926 0.40705 0.37056
 C1435 C 0.83535 0.34559 0.31477
 C1436 C 0.80798 0.32985 0.33577
 C1437 C 0.78774 0.30722 0.32163
 C1438 C 0.79324 0.30013 0.28578
 C1439 C 0.82041 0.31620 0.26460
 C1440 C 0.84148 0.33862 0.27904
 H1441 H 0.88944 0.46161 0.37656
 H1442 H 0.92389 0.49294 0.41706
 H1443 H 1.00555 0.42860 0.45495
 H1444 H 0.97159 0.39772 0.41348
 H1445 H 0.96134 0.38969 0.34647
 H1446 H 0.92162 0.35515 0.31309
 H1447 H 0.80201 0.38649 0.35402
 H1448 H 0.84150 0.42104 0.38710
 H1449 H 0.80352 0.33452 0.36362
 H1450 H 0.76891 0.29492 0.33935
 H1451 H 0.82589 0.31129 0.23698
 H1452 H 0.86262 0.35050 0.26240
 C1453 C 0.42085 0.07073 0.61027
 C1454 C 0.40721 0.04384 0.60759
 C1455 C 0.42754 0.02602 0.58413
 C1456 C 0.46173 0.03473 0.56237
 C1457 C 0.47525 0.06176 0.56537
 C1458 C 0.45539 0.07941 0.58922
 C1459 C 0.39751 0.09023 0.63316
 C1460 C 0.42009 0.10838 0.65498
 C1461 C 0.39812 0.12833 0.67407
 C1462 C 0.35326 0.13079 0.67116
 C1463 C 0.33058 0.11216 0.65016
 C1464 C 0.35245 0.09195 0.63158
 C1465 C 0.33063 0.15414 0.68715
 C1466 C 0.30400 0.17010 0.66590
 C1467 C 0.28473 0.19324 0.67961
 C1468 C 0.29035 0.20073 0.71532
 C1469 C 0.31685 0.18452 0.73674
 C1470 C 0.33701 0.16155 0.72272
 H1471 H 0.38061 0.03663 0.62355
 H1472 H 0.41570 0.00553 0.58269
 H1473 H 0.50004 0.06983 0.54838
 H1474 H 0.46596 0.10021 0.59018
 H1475 H 0.45482 0.10738 0.65678
 H1476 H 0.41633 0.14259 0.68984
 H1477 H 0.29597 0.11364 0.64755
 H1478 H 0.33430 0.07837 0.61476
 H1479 H 0.29937 0.16519 0.63816
 H1480 H 0.26649 0.20559 0.66164
 H1481 H 0.32246 0.18969 0.76425
 H1482 H 0.35759 0.14959 0.73961
 C1483 C 0.57237 0.57206 0.90077
 C1484 C 0.53957 0.58089 0.92359
 C1485 C 0.52168 0.56347 0.94852
 C1486 C 0.53614 0.53670 0.95148
 C1487 C 0.56820 0.52771 0.92779
 C1488 C 0.58603 0.54517 0.90271
 C1489 C 0.59437 0.59143 0.87699
 C1490 C 0.60509 0.58453 0.84186
 C1491 C 0.62772 0.60272 0.82039
 C1492 C 0.64052 0.62784 0.83401
 C1493 C 0.62908 0.63482 0.86887
 C1494 C 0.60624 0.61687 0.89008
 C1495 C 0.66698 0.64674 0.81292
 C1496 C 0.70294 0.65880 0.82865
 C1497 C 0.72476 0.67950 0.81161
 C1498 C 0.71182 0.68856 0.77790
 C1499 C 0.67683 0.67555 0.76140
 C1500 C 0.65480 0.65465 0.77867
 H1501 H 0.52813 0.60148 0.92248
 H1502 H 0.49744 0.57143 0.96616
 H1503 H 0.58018 0.50726 0.92880
 H1504 H 0.61157 0.53789 0.88564
 H1505 H 0.59604 0.56508 0.83109
 H1506 H 0.63621 0.59693 0.79357
 H1507 H 0.63815 0.65421 0.87984
 H1508 H 0.59888 0.62264 0.91713
 H1509 H 0.71322 0.65287 0.85493
 H1510 H 0.75065 0.68919 0.82592
 H1511 H 0.66491 0.68239 0.73607
 H1512 H 0.62685 0.64574 0.76615
 C1513 C 0.45044 0.39612 0.93203
 C1514 C 0.42691 0.40370 0.96223
 C1515 C 0.44197 0.42402 0.98466
 C1516 C 0.48128 0.43718 0.97776
 C1517 C 0.50645 0.42788 0.94910
 C1518 C 0.49128 0.40751 0.92659
 C1519 C 0.43030 0.37881 0.90445
 C1520 C 0.45375 0.35854 0.88695
 C1521 C 0.43431 0.34282 0.86051
 C1522 C 0.39125 0.34732 0.85076
 C1523 C 0.36811 0.36783 0.86798
 C1524 C 0.38736 0.38334 0.89449
 C1525 C 0.36941 0.32988 0.82423
 C1526 C 0.34070 0.34090 0.79947
 C1527 C 0.31580 0.32415 0.77780
 C1528 C 0.31852 0.29592 0.78064
 C1529 C 0.34938 0.28508 0.80394
 C1530 C 0.37446 0.30182 0.82539
 H1531 H 0.39561 0.39493 0.96743
 H1532 H 0.42092 0.43078 1.00573
 H1533 H 0.53639 0.43771 0.94220
 H1534 H 0.51008 0.40215 0.90344
 H1535 H 0.48691 0.35465 0.89401
 H1536 H 0.45297 0.32720 0.84759
 H1537 H 0.33473 0.37154 0.86146
 H1538 H 0.36868 0.39916 0.90698
 H1539 H 0.33664 0.36252 0.79756
 H1540 H 0.29287 0.33346 0.76016
 H1541 H 0.35317 0.26354 0.80693
 H1542 H 0.39620 0.29271 0.84426
 C1543 C 0.94559 0.10265 0.06817
 C1544 C 0.92116 0.09497 0.03855
 C1545 C 0.93561 0.07468 0.01576
 C1546 C 0.97515 0.06164 0.02177
 C1547 C 1.00089 0.07080 0.05010
 C1548 C 0.98640 0.09116 0.07287
 C1549 C 0.92667 0.12035 0.09592
 C1550 C 0.95121 0.14056 0.11253
 C1551 C 0.93310 0.15660 0.13928
 C1552 C 0.89030 0.15251 0.15021
 C1553 C 0.86604 0.13210 0.13383
 C1554 C 0.88398 0.11625 0.10700
 C1555 C 0.86983 0.17036 0.17700
 C1556 C 0.84170 0.15981 0.20266
 C1557 C 0.81754 0.17697 0.22437
 C1558 C 0.82043 0.20514 0.22061
 C1559 C 0.85097 0.21552 0.19654
 C1560 C 0.87533 0.19837 0.17507
 H1561 H 0.88979 0.10376 0.03397
 H1562 H 0.91418 0.06797 -0.00504
 H1563 H 1.03095 0.06098 0.05645
 H1564 H 1.00583 0.09652 0.09563
 H1565 H 0.98420 0.14413 0.10456
 H1566 H 0.95258 0.17216 0.15150
 H1567 H 0.83280 0.12873 0.14126
 H1568 H 0.86450 0.10051 0.09519
 H1569 H 0.83728 0.13825 0.20510
 H1570 H 0.79455 0.16799 0.24233
 H1571 H 0.85482 0.23699 0.19279
 H1572 H 0.89666 0.20712 0.15551
 C1573 C 0.54781 0.89074 0.57714
 C1574 C 0.50537 0.90022 0.57810
 C1575 C 0.49338 0.92242 0.55761
 C1576 C 0.52396 0.93597 0.53649
 C1577 C 0.56599 0.92561 0.53482
 C1578 C 0.57761 0.90308 0.55452
 C1579 C 0.56266 0.86976 0.60189
 C1580 C 0.58628 0.84768 0.58921
 C1581 C 0.60552 0.82984 0.61288
 C1582 C 0.60210 0.83405 0.64962
 C1583 C 0.57755 0.85576 0.66234
 C1584 C 0.55760 0.87335 0.63861
 C1585 C 0.62632 0.81660 0.67418
 C1586 C 0.65364 0.82787 0.69983
 C1587 C 0.68108 0.81142 0.71957
 C1588 C 0.68147 0.78330 0.71436
 C1589 C 0.65212 0.77214 0.68986
 C1590 C 0.62516 0.78859 0.66993
 H1591 H 0.48186 0.89086 0.59536
 H1592 H 0.46064 0.92965 0.55966
 H1593 H 0.59089 0.93569 0.52005
 H1594 H 0.61072 0.89630 0.55377
 H1595 H 0.59073 0.84468 0.56099
 H1596 H 0.62464 0.81338 0.60246
 H1597 H 0.57443 0.85931 0.69057
 H1598 H 0.53994 0.89049 0.64889
 H1599 H 0.65542 0.84952 0.70328
 H1600 H 0.70349 0.82103 0.73746
 H1601 H 0.65071 0.75069 0.68484
 H1602 H 0.60406 0.77944 0.65049
 C1603 C 0.05542 0.60701 0.42004
 C1604 C 0.08500 0.59457 0.44262
 C1605 C 0.07280 0.57245 0.46296
 C1606 C 0.03033 0.56264 0.46212
 C1607 C 0.00008 0.57621 0.44086
 C1608 C 0.01266 0.59798 0.41968
 C1609 C 0.07073 0.62768 0.39491
 C1610 C 0.06561 0.62382 0.35825
 C1611 C 0.08571 0.64120 0.33420
 C1612 C 0.11047 0.66298 0.34651
 C1613 C 0.11407 0.66741 0.38319
 C1614 C 0.09471 0.64976 0.40718
 C1615 C 0.13433 0.68043 0.32154
 C1616 C 0.13255 0.70848 0.32522
 C1617 C 0.15844 0.72502 0.30431
 C1618 C 0.18737 0.71394 0.27936
 C1619 C 0.18800 0.68573 0.27507
 C1620 C 0.16154 0.66918 0.29574
 H1621 H 0.11835 0.60095 0.44289
 H1622 H 0.09756 0.56224 0.47761
 H1623 H -0.03291 0.56931 0.43929
 H1624 H -0.01069 0.60738 0.40242
 H1625 H 0.04769 0.60668 0.34827
 H1626 H 0.08243 0.63748 0.30602
 H1627 H 0.13330 0.68394 0.39330
 H1628 H 0.09925 0.65297 0.43534
 H1629 H 0.11159 0.71761 0.34482
 H1630 H 0.15646 0.74652 0.30877
 H1631 H 0.21026 0.67618 0.25695
 H1632 H 0.16385 0.64752 0.29274
   
