data_POSCAR
  _audit_creation_date              2014-09-24
  _audit_creation_method            'ToBaCCo'
  _symmetry_space_group_name_H-M    'P1'
  _symmetry_Int_Tables_number       1
  _symmetry_cell_setting            triclinic
  loop_
  _symmetry_equiv_pos_as_xyz
 x,y,z
_cell_length_a 80.3844
_cell_length_b 80.6574
_cell_length_c 80.0889
_cell_angle_alpha 90.187400
_cell_angle_beta 90.297300
_cell_angle_gamma 90.260100
loop_
  _atom_site_label
  _atom_site_type_symbol
  _atom_site_fract_x
  _atom_site_fract_y
  _atom_site_fract_z
N1 N 0.31548 0.43082 0.93360
 N2 N 0.43276 0.80851 0.43741
 N3 N 0.92783 0.93627 0.82066
 N4 N 0.44343 -0.05948 0.30296
 N5 N 0.81565 0.32134 0.31253
 N6 N -0.18373 0.81768 0.82110
 N7 N 0.93624 0.31610 0.43632
 N8 N 0.43185 0.42523 0.81682
 N9 N 0.81853 0.93609 0.93463
 N10 N 0.31084 0.81567 0.31904
 N11 N 0.81084 0.43516 0.43809
 N12 N 0.93960 0.80749 -0.05888
 N13 N 0.31710 0.31792 0.81310
 N14 N 0.18264 0.56711 0.56591
 N15 N 0.56301 0.68457 0.06293
 N16 N 0.68196 0.18088 0.67975
 N17 N 1.06636 0.07016 0.18909
 N18 N 0.07170 0.18073 1.06694
 N19 N 0.18488 0.68701 0.69150
 N20 N 1.18320 0.18418 0.18259
 N21 N 0.68871 1.06234 0.56126
 N22 N 0.56622 0.56747 0.18366
 N23 N 0.68488 0.69369 0.19329
 N24 N 0.19151 0.05951 1.06398
 N25 N 0.56643 0.18139 0.55895
 N26 N 0.07092 0.57608 0.67949
 N27 N 0.68533 0.56773 0.06396
 N28 N 0.05715 0.68893 0.56246
 N29 N 0.55553 1.05297 0.68755
 N30 N 0.43563 0.31530 0.92837
 N31 N 0.93705 0.44065 0.31057
 N32 N 0.31141 0.93899 0.44102
 O33 O 0.25257 0.54579 0.72991
 O34 O 0.28125 0.53912 0.73274
 O35 O 0.23333 0.50341 0.70347
 O36 O 0.23206 0.47607 0.70718
 O37 O 0.20721 0.52290 0.74595
 O38 O 0.21127 0.52075 0.77538
 O39 O 0.27197 0.45759 0.75124
 O40 O 0.27103 0.46285 0.72207
 O41 O 0.29282 0.49839 0.77415
 O42 O 0.28750 0.52854 0.77361
 O43 O 0.24903 0.47797 0.79205
 O44 O 0.21936 0.48017 0.78424
 O45 O 0.24987 0.45679 0.76883
 O46 O 0.21980 0.46373 0.76526
 O47 O 0.26928 0.49756 0.79444
 O48 O 0.26815 0.52837 0.78954
 O49 O 0.29396 0.47898 0.75359
 O50 O 0.29066 0.48221 0.72305
 O51 O 0.23109 0.54568 0.74827
 O52 O 0.23040 0.53852 0.77760
 O53 O 0.20829 0.50372 0.72513
 O54 O 0.21400 0.47375 0.72736
 O55 O 0.25327 0.52339 0.70570
 O56 O 0.28219 0.52088 0.71397
 Zr57 Zr 0.26183 0.52148 0.73055
 O58 O 0.27646 0.50637 0.74610
 Zr59 Zr 0.23204 0.49298 0.72743
 O60 O 0.24558 0.47633 0.74246
 Zr61 Zr 0.23065 0.52129 0.75766
 O62 O 0.24373 0.50577 0.77424
 Zr63 Zr 0.27118 0.48139 0.74080
 O64 O 0.25781 0.49650 0.72389
 Zr65 Zr 0.26940 0.50953 0.77112
 O66 O 0.25628 0.52638 0.75577
 Zr67 Zr 0.23976 0.48080 0.76763
 O68 O 0.22487 0.49631 0.75244
 O69 O 0.23633 0.51786 0.73264
 O70 O 0.26532 0.48454 0.76589
 C71 C 0.24055 0.55292 0.73759
 C72 C 0.24214 0.51527 0.69740
 C73 C 0.20077 0.51508 0.73346
 C74 C 0.26266 0.45025 0.76191
 C75 C 0.30012 0.48654 0.76637
 C76 C 0.26071 0.48539 0.80020
 H77 H 0.28834 0.50908 0.74448
 H78 H 0.24023 0.50807 0.78582
 H79 H 0.22991 0.52529 0.72524
 H80 H 0.24310 0.46479 0.73905
 H81 H 0.26643 0.46802 0.71185
 H82 H 0.23865 0.46635 0.71067
 H83 H 0.25827 0.52620 0.79652
 H84 H 0.24152 0.54384 0.77786
 H85 H 0.29794 0.49178 0.72571
 H86 H 0.28146 0.51020 0.70789
 H87 H 0.22030 0.48988 0.79175
 H88 H 0.20607 0.50964 0.77449
 H89 H 0.28050 0.54382 0.74414
 H90 H 0.29525 0.52756 0.76411
 H91 H 0.20679 0.47557 0.73717
 H92 H 0.22206 0.45655 0.75550
 O93 O 0.29553 0.00305 0.27645
 O94 O 0.28994 0.03203 0.27380
 O95 O 0.25069 -0.01463 0.29975
 O96 O 0.22338 -0.01445 0.29400
 O97 O 0.27177 -0.04099 0.25831
 O98 O 0.27109 -0.03665 0.22868
 O99 O 0.20880 0.02568 0.25011
 O100 O 0.21284 0.02447 0.27946
 O101 O 0.25215 0.04559 0.23023
 O102 O 0.28231 0.03905 0.23326
 O103 O 0.23179 0.00286 0.20955
 O104 O 0.23204 -0.02690 0.21731
 O105 O 0.20888 0.00469 0.23114
 O106 O 0.21390 -0.02543 0.23443
 O107 O 0.25239 0.02220 0.20931
 O108 O 0.28229 0.02056 0.21644
 O109 O 0.23153 0.04720 0.24942
 O110 O 0.23245 0.04361 0.27973
 O111 O 0.29555 -0.01802 0.25752
 O112 O 0.29002 -0.01864 0.22806
 O113 O 0.25125 -0.03934 0.27765
 O114 O 0.22182 -0.03263 0.27350
 O115 O 0.27151 0.00453 0.29920
 O116 O 0.27100 0.03325 0.29160
 Zr117 Zr 0.27154 0.01325 0.27449
 O118 O 0.25780 0.02862 0.25841
 Zr119 Zr 0.24161 -0.01525 0.27504
 O120 O 0.22643 -0.00102 0.25905
 Zr121 Zr 0.27163 -0.01753 0.24680
 O122 O 0.25783 -0.00353 0.22948
 Zr123 Zr 0.23225 0.02424 0.26174
 O124 O 0.24596 0.01022 0.27934
 Zr125 Zr 0.26234 0.02184 0.23356
 O126 O 0.27772 0.00775 0.24958
 Zr127 Zr 0.23228 -0.00655 0.23407
 O128 O 0.24610 -0.02223 0.25012
 O129 O 0.26700 -0.01197 0.27166
 O130 O 0.23681 0.01875 0.23674
 C131 C 0.30266 -0.00899 0.26876
 C132 C 0.26248 -0.00626 0.30677
 C133 C 0.26291 -0.04719 0.27010
 C134 C 0.20195 0.01709 0.23838
 C135 C 0.24015 0.05324 0.23741
 C136 C 0.24050 0.01409 0.20226
 H137 H 0.26084 0.04032 0.26053
 H138 H 0.26081 -0.00698 0.21804
 H139 H 0.27379 -0.01870 0.27942
 H140 H 0.21458 -0.00313 0.26154
 H141 H 0.21742 0.01966 0.28987
 H142 H 0.21389 -0.00797 0.28966
 H143 H 0.28086 0.01033 0.20973
 H144 H 0.29569 -0.00772 0.22809
 H145 H 0.24282 0.05010 0.27840
 H146 H 0.25974 0.03326 0.29655
 H147 H 0.24226 -0.02626 0.21051
 H148 H 0.25986 -0.04173 0.22920
 H149 H 0.29548 0.03103 0.26283
 H150 H 0.28055 0.04713 0.24239
 H151 H 0.22368 -0.03939 0.26334
 H152 H 0.20655 -0.02331 0.24406
 O153 O 0.53674 0.72711 0.24926
 O154 O 0.52965 0.72870 0.27794
 O155 O 0.49336 0.70258 0.22862
 O156 O 0.46630 0.70730 0.22665
 O157 O 0.51443 0.74565 0.20390
 O158 O 0.51390 0.77436 0.20903
 O159 O 0.44880 0.75046 0.26874
 O160 O 0.45288 0.72151 0.26685
 O161 O 0.49066 0.77092 0.29041
 O162 O 0.52031 0.77018 0.28547
 O163 O 0.47124 0.79104 0.24626
 O164 O 0.47269 0.78351 0.21658
 O165 O 0.44910 0.76913 0.24759
 O166 O 0.45540 0.76537 0.21705
 O167 O 0.49060 0.79215 0.26698
 O168 O 0.52138 0.78589 0.26613
 O169 O 0.47078 0.75085 0.29119
 O170 O 0.47244 0.72070 0.28633
 O171 O 0.53745 0.74597 0.22825
 O172 O 0.53113 0.77540 0.22852
 O173 O 0.49488 0.72517 0.20399
 O174 O 0.46461 0.72827 0.20980
 O175 O 0.51388 0.70383 0.24828
 O176 O 0.51064 0.71068 0.27775
 Zr177 Zr 0.51224 0.72802 0.25807
 O178 O 0.49756 0.74351 0.27311
 Zr179 Zr 0.48388 0.72685 0.22787
 O180 O 0.46754 0.74179 0.24193
 Zr181 Zr 0.51328 0.75607 0.22785
 O182 O 0.49807 0.77253 0.24122
 Zr183 Zr 0.47233 0.73925 0.26761
 O184 O 0.48698 0.72239 0.25366
 Zr185 Zr 0.50160 0.76849 0.26684
 O186 O 0.51812 0.75309 0.25348
 Zr187 Zr 0.47286 0.76680 0.23691
 O188 O 0.48812 0.75183 0.22162
 O189 O 0.50898 0.73113 0.23254
 O190 O 0.47637 0.76425 0.26255
 C191 C 0.54430 0.73496 0.23760
 C192 C 0.50536 0.69612 0.23702
 C193 C 0.50634 0.73377 0.19684
 C194 C 0.44206 0.76203 0.26006
 C195 C 0.47893 0.76301 0.29777
 C196 C 0.47899 0.79865 0.25808
 H197 H 0.50022 0.74139 0.28496
 H198 H 0.50081 0.78403 0.23798
 H199 H 0.51628 0.72386 0.22585
 H200 H 0.45585 0.73888 0.23933
 H201 H 0.45752 0.71141 0.26162
 H202 H 0.45684 0.71051 0.23379
 H203 H 0.51944 0.79336 0.25656
 H204 H 0.53674 0.77478 0.23953
 H205 H 0.48243 0.72236 0.29340
 H206 H 0.50000 0.70464 0.27622
 H207 H 0.48276 0.79055 0.21753
 H208 H 0.50273 0.77434 0.20375
 H209 H 0.53484 0.73985 0.27771
 H210 H 0.51973 0.75999 0.29227
 H211 H 0.46693 0.73814 0.20286
 H212 H 0.44749 0.75629 0.21952
 O213 O -0.04341 0.75448 0.77318
 O214 O -0.03652 0.72581 0.77110
 O215 O -0.00013 0.77589 0.79546
 O216 O 0.02729 0.77641 0.79026
 O217 O -0.02260 0.79902 0.75350
 O218 O -0.02210 0.79370 0.72407
 O219 O 0.04415 0.73604 0.74775
 O220 O 0.04011 0.73735 0.77674
 O221 O 0.00134 0.71255 0.72830
 O222 O -0.02848 0.71782 0.72981
 O223 O 0.02008 0.75615 0.70641
 O224 O 0.01813 0.78578 0.71298
 O225 O 0.04282 0.75615 0.72801
 O226 O 0.03581 0.78639 0.73094
 O227 O 0.00110 0.73522 0.70640
 O228 O -0.02959 0.73631 0.71312
 O229 O 0.02307 0.71336 0.74658
 O230 O 0.02119 0.71753 0.77739
 O231 O -0.04502 0.77472 0.75354
 O232 O -0.03971 0.77431 0.72386
 O233 O -0.00174 0.79926 0.77278
 O234 O 0.02808 0.79391 0.76911
 O235 O -0.01914 0.75489 0.79582
 O236 O -0.01704 0.72586 0.78862
 Zr237 Zr -0.01901 0.74544 0.77125
 O238 O -0.00461 0.73039 0.75548
 Zr239 Zr 0.00916 0.77566 0.77103
 O240 O 0.02509 0.76176 0.75564
 Zr241 Zr -0.02119 0.77519 0.74267
 O242 O -0.00651 0.76159 0.72578
 Zr243 Zr 0.02065 0.73631 0.75890
 O244 O 0.00635 0.75016 0.77608
 Zr245 Zr -0.00955 0.73613 0.73038
 O246 O -0.02566 0.74969 0.74613
 Zr247 Zr 0.01884 0.76624 0.73055
 O248 O 0.00405 0.78157 0.74596
 O249 O -0.01600 0.77075 0.76765
 O250 O 0.01575 0.74082 0.73377
 C251 C -0.05134 0.76584 0.76526
 C252 C -0.01114 0.76694 0.80279
 C253 C -0.01394 0.80614 0.76506
 C254 C 0.05045 0.74448 0.73575
 C255 C 0.01425 0.70617 0.73523
 C256 C 0.01254 0.74390 0.69937
 H257 H -0.00700 0.71861 0.75788
 H258 H -0.00963 0.76449 0.71421
 H259 H -0.02310 0.77738 0.77518
 H260 H 0.03680 0.76463 0.75818
 H261 H 0.03541 0.74242 0.78696
 H262 H 0.03708 0.77021 0.78626
 H263 H -0.02783 0.74564 0.70532
 H264 H -0.04472 0.76308 0.72432
 H265 H 0.01208 0.70956 0.77508
 H266 H -0.00580 0.72673 0.79365
 H267 H 0.00764 0.78470 0.70654
 H268 H -0.01112 0.79931 0.72426
 H269 H -0.04232 0.72627 0.76017
 H270 H -0.02738 0.71111 0.74007
 H271 H 0.02571 0.80040 0.75891
 H272 H 0.04394 0.78444 0.74003
 O273 O 0.00905 0.03791 0.02540
 O274 O -0.02042 0.03322 0.02491
 O275 O 0.02728 -0.00550 0.04981
 O276 O 0.02629 -0.03281 0.04618
 O277 O 0.05034 0.01200 0.00465
 O278 O 0.04309 0.00994 -0.02424
 O279 O -0.01863 -0.04946 0.00707
 O280 O -0.01473 -0.04337 0.03583
 O281 O -0.03919 -0.00745 -0.01449
 O282 O -0.03202 0.02218 -0.01475
 O283 O 0.00134 -0.03029 -0.03670
 O284 O 0.03140 -0.03028 -0.03175
 O285 O 0.00082 -0.05130 -0.01331
 O286 O 0.03166 -0.04637 -0.01264
 O287 O -0.01764 -0.00954 -0.03721
 O288 O -0.01425 0.02110 -0.03232
 O289 O -0.03951 -0.02664 0.00619
 O290 O -0.03321 -0.02324 0.03615
 O291 O 0.02821 0.03622 0.00468
 O292 O 0.02523 0.02891 -0.02452
 O293 O 0.04998 -0.00686 0.02567
 O294 O 0.04198 -0.03639 0.02429
 O295 O 0.00855 0.01553 0.04954
 O296 O -0.02101 0.01535 0.04401
 Zr297 Zr -0.00233 0.01429 0.02556
 O298 O -0.01950 -0.00013 0.01176
 Zr299 Zr 0.02543 -0.01609 0.02589
 O300 O 0.00934 -0.03199 0.01246
 Zr301 Zr 0.02578 0.01183 -0.00456
 O302 O 0.01001 -0.00297 -0.01957
 Zr303 Zr -0.01551 -0.02537 0.01669
 O304 O 0.00050 -0.01087 0.03199
 Zr305 Zr -0.01488 0.00235 -0.01390
 O306 O 0.00091 0.01855 -0.00016
 Zr307 Zr 0.01286 -0.02807 -0.01321
 O308 O 0.03028 -0.01340 0.00025
 O309 O 0.02247 0.00897 0.02096
 O310 O -0.01209 -0.02282 -0.00893
 C311 C 0.02073 0.04415 0.01640
 C312 C 0.01984 0.00678 0.05673
 C313 C 0.05742 0.00390 0.01650
 C314 C -0.01119 -0.05734 -0.00467
 C315 C -0.04643 -0.01883 -0.00593
 C316 C -0.01037 -0.02210 -0.04381
 H317 H -0.03093 0.00330 0.01456
 H318 H 0.01251 -0.00096 -0.03146
 H319 H 0.03013 0.01598 0.02767
 H320 H 0.01138 -0.04362 0.01571
 H321 H -0.00883 -0.03821 0.04543
 H322 H 0.01868 -0.04211 0.04347
 H323 H -0.00510 0.01851 -0.04011
 H324 H 0.01463 0.03503 -0.02357
 H325 H -0.03997 -0.01323 0.03415
 H326 H -0.02082 0.00454 0.04983
 H327 H 0.03081 -0.02032 -0.03889
 H328 H 0.04779 -0.00137 -0.02363
 H329 H -0.02013 0.03792 0.01351
 H330 H -0.03837 0.02210 -0.00421
 H331 H 0.04822 -0.03515 0.01374
 H332 H 0.02969 -0.05348 -0.00280
 O333 O 0.00001 0.54788 0.51712
 O334 O -0.02932 0.54344 0.51486
 O335 O 0.01558 0.50549 0.54539
 O336 O 0.01334 0.47784 0.54295
 O337 O 0.04290 0.51998 0.50193
 O338 O 0.03816 0.51706 0.47255
 O339 O -0.02803 0.46075 0.49934
 O340 O -0.02600 0.46705 0.52852
 O341 O -0.04507 0.50202 0.47532
 O342 O -0.03678 0.53181 0.47492
 O343 O -0.00396 0.47702 0.45814
 O344 O 0.02646 0.47765 0.46566
 O345 O -0.00600 0.45729 0.48202
 O346 O 0.02427 0.46154 0.48474
 O347 O -0.02141 0.49885 0.45465
 O348 O -0.01814 0.52914 0.45856
 O349 O -0.04795 0.48420 0.49703
 O350 O -0.04392 0.48777 0.52700
 O351 O 0.02174 0.54470 0.49930
 O352 O 0.02101 0.53666 0.47015
 O353 O 0.04009 0.50214 0.52366
 O354 O 0.03157 0.47297 0.52292
 O355 O -0.00249 0.52689 0.54234
 O356 O -0.03160 0.52649 0.53452
 Zr357 Zr -0.01152 0.52443 0.51771
 O358 O -0.02767 0.50988 0.50293
 Zr359 Zr 0.01535 0.49358 0.52197
 O360 O 0.00024 0.47750 0.50757
 Zr361 Zr 0.01927 0.52016 0.49053
 O362 O 0.00453 0.50523 0.47463
 Zr363 Zr -0.02475 0.48477 0.50916
 O364 O -0.00993 0.49953 0.52541
 Zr365 Zr -0.02064 0.51133 0.47776
 O366 O -0.00572 0.52764 0.49229
 Zr367 Zr 0.00617 0.48037 0.48220
 O368 O 0.02262 0.49508 0.49679
 O369 O 0.01347 0.51843 0.51568
 O370 O -0.01893 0.48634 0.48392
 C371 C 0.01297 0.55331 0.50951
 C372 C 0.00801 0.51840 0.55093
 C373 C 0.04864 0.51227 0.51474
 C374 C -0.01941 0.45218 0.48899
 C375 C -0.05352 0.49157 0.48397
 C376 C -0.01446 0.48546 0.44955
 H377 H -0.03922 0.51368 0.50457
 H378 H 0.00815 0.50671 0.46296
 H379 H 0.02071 0.52557 0.52272
 H380 H 0.00165 0.46593 0.51137
 H381 H -0.02095 0.47228 0.53855
 H382 H 0.00656 0.46813 0.53956
 H383 H -0.00778 0.52670 0.45244
 H384 H 0.01055 0.54309 0.46997
 H385 H -0.04956 0.49842 0.52478
 H386 H -0.03176 0.51615 0.54115
 H387 H 0.02550 0.48626 0.45695
 H388 H 0.04226 0.50558 0.47382
 H389 H -0.02814 0.54762 0.50332
 H390 H -0.04484 0.53157 0.48420
 H391 H 0.03855 0.47342 0.51278
 H392 H 0.02193 0.45549 0.49520
 O393 O 0.48188 -0.04846 0.49148
 O394 O 0.48108 -0.04157 0.52076
 O395 O 0.46216 -0.00447 0.46896
 O396 O 0.46830 0.02238 0.46808
 O397 O 0.50688 -0.02729 0.44973
 O398 O 0.53543 -0.02689 0.45881
 O399 O 0.50614 0.03908 0.51385
 O400 O 0.47713 0.03500 0.50846
 O401 O 0.52196 -0.00312 0.53928
 O402 O 0.52013 -0.03323 0.53383
 O403 O 0.54885 0.01453 0.49828
 O404 O 0.54528 0.01243 0.46758
 O405 O 0.52767 0.03750 0.49568
 O406 O 0.52861 0.03073 0.46567
 O407 O 0.54630 -0.00448 0.51896
 O408 O 0.53913 -0.03446 0.51779
 O409 O 0.50325 0.01774 0.53671
 O410 O 0.47419 0.01697 0.52879
 O411 O 0.50366 -0.04972 0.47354
 O412 O 0.53278 -0.04478 0.47761
 O413 O 0.48754 -0.00694 0.44751
 O414 O 0.49105 0.02275 0.45328
 O415 O 0.45969 -0.02408 0.48913
 O416 O 0.46350 -0.02257 0.51876
 Zr417 Zr 0.48299 -0.02411 0.50122
 O418 O 0.49683 -0.00951 0.51819
 Zr419 Zr 0.48680 0.00407 0.47132
 O420 O 0.50073 0.01995 0.48701
 Zr421 Zr 0.51463 -0.02609 0.47485
 O422 O 0.52988 -0.01161 0.49063
 Zr423 Zr 0.49451 0.01570 0.51204
 O424 O 0.47897 0.00122 0.49624
 Zr425 Zr 0.52229 -0.01447 0.51553
 O426 O 0.50829 -0.03062 0.49990
 Zr427 Zr 0.52601 0.01359 0.48547
 O428 O 0.51226 -0.00101 0.46825
 O429 O 0.48936 -0.02102 0.47634
 O430 O 0.51988 0.01075 0.51055
 C431 C 0.49100 -0.05617 0.48084
 C432 C 0.45381 -0.01547 0.47698
 C433 C 0.49620 -0.01884 0.44137
 C434 C 0.51895 0.04526 0.50655
 C435 C 0.51387 0.00931 0.54514
 C436 C 0.55447 0.00670 0.51103
 H437 H 0.49302 -0.01182 0.52966
 H438 H 0.54161 -0.01482 0.48904
 H439 H 0.48249 -0.02800 0.46878
 H440 H 0.49872 0.03162 0.48389
 H441 H 0.46744 0.03007 0.50254
 H442 H 0.47158 0.03208 0.47495
 H443 H 0.54721 -0.03364 0.50855
 H444 H 0.53108 -0.04969 0.48879
 H445 H 0.47408 0.00676 0.53557
 H446 H 0.45877 -0.01131 0.51768
 H447 H 0.55198 0.00244 0.46994
 H448 H 0.53577 -0.01611 0.45293
 H449 H 0.49187 -0.04742 0.52126
 H450 H 0.50947 -0.03160 0.53970
 H451 H 0.50191 0.02035 0.44804
 H452 H 0.51886 0.03816 0.46586
 O453 O 0.54710 0.51695 -0.00008
 O454 O 0.54206 0.51449 -0.02954
 O455 O 0.50393 0.54313 0.01657
 O456 O 0.47624 0.53950 0.01556
 O457 O 0.52120 0.50025 0.04319
 O458 O 0.51846 0.47092 0.03820
 O459 O 0.45935 0.49718 -0.02611
 O460 O 0.46520 0.52613 -0.02373
 O461 O 0.50076 0.47452 -0.04497
 O462 O 0.53144 0.47562 -0.03757
 O463 O 0.47826 0.45553 -0.00338
 O464 O 0.47902 0.46267 0.02708
 O465 O 0.45746 0.47836 -0.00518
 O466 O 0.46210 0.48109 0.02543
 O467 O 0.49987 0.45339 -0.02144
 O468 O 0.52960 0.45827 -0.01972
 O469 O 0.48247 0.49583 -0.04697
 O470 O 0.48522 0.52544 -0.04249
 O471 O 0.54532 0.49817 0.02095
 O472 O 0.53780 0.46921 0.02059
 O473 O 0.50234 0.52106 0.04116
 O474 O 0.47294 0.51919 0.03372
 O475 O 0.52488 0.54110 -0.00229
 O476 O 0.52465 0.53361 -0.03125
 Zr477 Zr 0.52333 0.51664 -0.01123
 O478 O 0.50866 0.50195 -0.02733
 Zr479 Zr 0.49297 0.51934 0.01664
 O480 O 0.47687 0.50476 0.00169
 Zr481 Zr 0.52076 0.48906 0.01935
 O482 O 0.50594 0.47307 0.00455
 Zr483 Zr 0.48339 0.50726 -0.02348
 O484 O 0.49818 0.52348 -0.00878
 Zr485 Zr 0.51118 0.47690 -0.02083
 O486 O 0.52749 0.49145 -0.00591
 Zr487 Zr 0.48074 0.47952 0.00693
 O488 O 0.49545 0.49425 0.02336
 O489 O 0.51807 0.51406 0.01398
 O490 O 0.48595 0.48209 -0.01835
 C491 C 0.55335 0.50896 0.01231
 C492 C 0.51628 0.54924 0.00842
 C493 C 0.51319 0.51262 0.04932
 C494 C 0.45150 0.48592 -0.01796
 C495 C 0.48988 0.48310 -0.05295
 C496 C 0.48696 0.44753 -0.01413
 H497 H 0.51205 0.50396 -0.03899
 H498 H 0.50799 0.46148 0.00791
 H499 H 0.52523 0.52124 0.02106
 H500 H 0.46519 0.50807 0.00350
 H501 H 0.47042 0.53608 -0.01861
 H502 H 0.46638 0.53583 0.00908
 H503 H 0.52846 0.45257 -0.00887
 H504 H 0.54394 0.46922 0.00990
 H505 H 0.49574 0.52368 -0.04856
 H506 H 0.51394 0.53962 -0.03143
 H507 H 0.48836 0.45479 0.02617
 H508 H 0.50714 0.47212 0.04286
 H509 H 0.54675 0.50322 -0.02839
 H510 H 0.52995 0.48433 -0.04610
 H511 H 0.47379 0.50881 0.04022
 H512 H 0.45547 0.49115 0.02320
 O513 O 0.75427 0.27033 0.45308
 O514 O 0.72499 0.26998 0.45971
 O515 O 0.77699 0.28905 0.49712
 O516 O 0.77680 0.28311 0.52452
 O517 O 0.79632 0.24571 0.47374
 O518 O 0.78799 0.21709 0.47330
 O519 O 0.73230 0.24350 0.54018
 O520 O 0.73727 0.27256 0.53724
 O521 O 0.70778 0.22782 0.49751
 O522 O 0.71266 0.23058 0.46727
 O523 O 0.74929 0.20196 0.51447
 O524 O 0.77974 0.20642 0.51287
 O525 O 0.75097 0.22255 0.53822
 O526 O 0.78110 0.22276 0.53178
 O527 O 0.72857 0.20436 0.49527
 O528 O 0.72950 0.21235 0.46519
 O529 O 0.70977 0.24642 0.51878
 O530 O 0.71718 0.27583 0.51863
 O531 O 0.77248 0.24892 0.45121
 O532 O 0.76898 0.21958 0.45537
 O533 O 0.79835 0.26421 0.49514
 O534 O 0.79256 0.26063 0.52475
 O535 O 0.75592 0.29179 0.47824
 O536 O 0.72646 0.28717 0.47944
 Zr537 Zr 0.74449 0.26827 0.47743
 O538 O 0.72796 0.25378 0.49164
 Zr539 Zr 0.77451 0.26460 0.50584
 O540 O 0.75922 0.25010 0.52141
 Zr541 Zr 0.77149 0.23738 0.47467
 O542 O 0.75625 0.22156 0.48883
 Zr543 Zr 0.73412 0.25579 0.51711
 O544 O 0.74948 0.27192 0.50306
 Zr545 Zr 0.73126 0.22858 0.48596
 O546 O 0.74638 0.24324 0.47016
 Zr547 Zr 0.76136 0.22508 0.51435
 O548 O 0.77812 0.23941 0.50005
 O549 O 0.76942 0.26237 0.48051
 O550 O 0.73625 0.23067 0.51143
 C551 C 0.76508 0.26166 0.44511
 C552 C 0.76853 0.29744 0.48644
 C553 C 0.80453 0.25612 0.48280
 C554 C 0.73973 0.23068 0.54606
 C555 C 0.70175 0.23551 0.51019
 C556 C 0.73673 0.19620 0.50633
 H557 H 0.71642 0.25732 0.48937
 H558 H 0.75813 0.20997 0.48528
 H559 H 0.77685 0.26942 0.47370
 H560 H 0.76226 0.25194 0.53325
 H561 H 0.74300 0.28246 0.53273
 H562 H 0.77064 0.27920 0.53442
 H563 H 0.73876 0.20436 0.46597
 H564 H 0.75792 0.22137 0.45022
 H565 H 0.70989 0.27552 0.50865
 H566 H 0.72748 0.29171 0.49090
 H567 H 0.77766 0.19996 0.50254
 H568 H 0.79388 0.21663 0.48417
 H569 H 0.72479 0.25932 0.45354
 H570 H 0.70671 0.24113 0.46910
 H571 H 0.79774 0.24975 0.52244
 H572 H 0.78035 0.23208 0.53979
 O573 O 0.70473 0.73602 0.00798
 O574 O 0.71026 0.73862 -0.02154
 O575 O 0.74766 0.71005 0.02547
 O576 O 0.77534 0.71361 0.02454
 O577 O 0.73040 0.75305 0.05193
 O578 O 0.73248 0.78238 0.04700
 O579 O 0.79287 0.75657 -0.01566
 O580 O 0.78675 0.72722 -0.01386
 O581 O 0.75080 0.77852 -0.03578
 O582 O 0.72072 0.77815 -0.02880
 O583 O 0.77325 0.79780 0.00714
 O584 O 0.77191 0.79038 0.03747
 O585 O 0.79414 0.77509 0.00573
 O586 O 0.78900 0.77226 0.03599
 O587 O 0.75292 0.79954 -0.01255
 O588 O 0.72230 0.79499 -0.01022
 O589 O 0.77002 0.75803 -0.03729
 O590 O 0.76773 0.72888 -0.03388
 O591 O 0.70621 0.75470 0.02926
 O592 O 0.71330 0.78364 0.02906
 O593 O 0.74942 0.73234 0.05011
 O594 O 0.77874 0.73377 0.04297
 O595 O 0.72648 0.71223 0.00663
 O596 O 0.72788 0.71927 -0.02264
 Zr597 Zr 0.72863 0.73649 -0.00269
 O598 O 0.74347 0.75135 -0.01828
 Zr599 Zr 0.75870 0.73383 0.02569
 O600 O 0.77490 0.74863 0.01139
 Zr601 Zr 0.73068 0.76408 0.02811
 O602 O 0.74559 0.78022 0.01390
 Zr603 Zr 0.76877 0.74629 -0.01400
 O604 O 0.75382 0.72981 0.00010
 Zr605 Zr 0.74075 0.77640 -0.01164
 O606 O 0.72429 0.76167 0.00269
 Zr607 Zr 0.77069 0.77377 0.01696
 O608 O 0.75590 0.75885 0.03275
 O609 O 0.73362 0.73911 0.02263
 O610 O 0.76596 0.77136 -0.00851
 C611 C 0.69836 0.74381 0.02043
 C612 C 0.73497 0.70415 0.01753
 C613 C 0.73863 0.74087 0.05816
 C614 C 0.80047 0.76773 -0.00695
 C615 C 0.76215 0.77040 -0.04351
 C616 C 0.76546 0.80553 -0.00450
 H617 H 0.74023 0.74937 -0.03003
 H618 H 0.74351 0.79181 0.01729
 H619 H 0.72645 0.73201 0.02966
 H620 H 0.78656 0.74537 0.01349
 H621 H 0.78114 0.71711 -0.00966
 H622 H 0.78519 0.71728 0.01816
 H623 H 0.72453 0.80173 -0.00011
 H624 H 0.70783 0.78398 0.01797
 H625 H 0.75638 0.72911 -0.03866
 H626 H 0.73841 0.71297 -0.02212
 H627 H 0.76281 0.79850 0.03620
 H628 H 0.74370 0.78128 0.05202
 H629 H 0.70515 0.74968 -0.02010
 H630 H 0.72140 0.76860 -0.03653
 H631 H 0.77793 0.74412 0.04959
 H632 H 0.79578 0.76229 0.03381
 O633 O 0.99969 0.21008 0.22969
 O634 O 0.97085 0.21826 0.22989
 O635 O 1.02332 0.25031 0.20480
 O636 O 1.02433 0.27809 0.20777
 O637 O 1.04404 0.23145 0.24998
 O638 O 1.03743 0.23483 0.27896
 O639 O 0.98265 0.30001 0.24780
 O640 O 0.98610 0.29371 0.21873
 O641 O 0.95760 0.26063 0.26885
 O642 O 0.96121 0.23041 0.26921
 O643 O 1.00086 0.27887 0.29115
 O644 O 1.03116 0.27505 0.28568
 O645 O 1.00266 0.29966 0.26791
 O646 O 1.03229 0.29200 0.26736
 O647 O 0.97955 0.26032 0.29166
 O648 O 0.97900 0.22961 0.28686
 O649 O 0.95922 0.27941 0.24784
 O650 O 0.96503 0.27592 0.21828
 O651 O 1.01898 0.20989 0.25058
 O652 O 1.01774 0.21772 0.27941
 O653 O 1.04586 0.25029 0.22901
 O654 O 1.04141 0.28020 0.22957
 O655 O 1.00196 0.23175 0.20530
 O656 O 0.97270 0.23565 0.21035
 Zr657 Zr 0.99129 0.23481 0.22908
 O658 O 0.97611 0.25116 0.24271
 Zr659 Zr 1.02246 0.26189 0.22842
 O660 O 1.00859 0.27956 0.24191
 Zr661 Zr 1.01980 0.23447 0.25927
 O662 O 1.00597 0.25085 0.27417
 Zr663 Zr 0.98304 0.27582 0.23774
 O664 O 0.99697 0.25947 0.22245
 Zr665 Zr 0.98058 0.24826 0.26838
 O666 O 0.99427 0.23040 0.25483
 Zr667 Zr 1.01183 0.27537 0.26762
 O668 O 1.02722 0.25895 0.25412
 O669 O 1.01659 0.23740 0.23373
 O670 O 0.98636 0.27293 0.26336
 C671 C 1.01049 0.20272 0.23896
 C672 C 1.01443 0.23872 0.19811
 C673 C 1.05200 0.23878 0.23822
 C674 C 0.99113 0.30693 0.25960
 C675 C 0.95155 0.27247 0.26003
 C676 C 0.98837 0.27194 0.29829
 H677 H 0.96433 0.24900 0.23987
 H678 H 1.00832 0.24860 0.28606
 H679 H 1.02334 0.22945 0.22724
 H680 H 1.01196 0.29090 0.23867
 H681 H 0.99098 0.28788 0.20903
 H682 H 1.01883 0.28859 0.21090
 H683 H 0.98848 0.23115 0.29466
 H684 H 1.00635 0.21302 0.27886
 H685 H 0.95797 0.26593 0.21944
 H686 H 0.97433 0.24622 0.20431
 H687 H 1.02873 0.26601 0.29364
 H688 H 1.04367 0.24538 0.27795
 H689 H 0.97082 0.21342 0.24123
 H690 H 0.95472 0.23128 0.25873
 H691 H 1.04711 0.27891 0.24048
 H692 H 1.03156 0.29861 0.25701
 O693 O 0.74000 1.04032 0.72967
 O694 O 0.76941 1.03587 0.73110
 O695 O 0.72275 0.99576 0.70552
 O696 O 0.72293 0.96865 0.71015
 O697 O 0.69793 1.01481 0.74945
 O698 O 0.70428 1.01341 0.77875
 O699 O 0.76679 0.95382 0.75070
 O700 O 0.76354 0.95894 0.72165
 O701 O 0.78699 0.99649 0.77165
 O702 O 0.77950 1.02630 0.77103
 O703 O 0.74570 0.97399 0.79339
 O704 O 0.71583 0.97368 0.78770
 O705 O 0.74684 0.95241 0.77063
 O706 O 0.71590 0.95713 0.76879
 O707 O 0.76496 0.99467 0.79387
 O708 O 0.76174 1.02504 0.78863
 O709 O 0.78770 0.97682 0.75131
 O710 O 0.78220 0.97902 0.72135
 O711 O 0.72016 1.03914 0.74977
 O712 O 0.72212 1.03266 0.77916
 O713 O 0.69922 0.99579 0.72845
 O714 O 0.70652 0.96611 0.73165
 O715 O 0.74119 1.01722 0.70598
 O716 O 0.77054 1.01756 0.71244
 Zr717 Zr 0.75129 1.01680 0.73032
 O718 O 0.76799 1.00288 0.74489
 Zr719 Zr 0.72345 0.98622 0.72983
 O720 O 0.73903 0.97082 0.74411
 Zr721 Zr 0.72220 1.01500 0.75959
 O722 O 0.73755 1.00079 0.77540
 Zr723 Zr 0.76397 0.97751 0.74036
 O724 O 0.74854 0.99147 0.72431
 Zr725 Zr 0.76265 1.00606 0.77034
 O726 O 0.74725 1.02174 0.75582
 Zr727 Zr 0.73480 0.97550 0.76956
 O728 O 0.71780 0.98961 0.75523
 O729 O 0.72637 1.01144 0.73427
 O730 O 0.75988 0.98076 0.76582
 C731 C 0.72807 1.04675 0.73813
 C732 C 0.73033 1.00797 0.69858
 C733 C 0.69152 1.00676 0.73709
 C734 C 0.75910 0.94626 0.76248
 C735 C 0.79439 0.98502 0.76338
 C736 C 0.75744 0.98227 0.80054
 H737 H 0.77950 1.00630 0.74231
 H738 H 0.73475 1.00311 0.78717
 H739 H 0.71907 1.01825 0.72709
 H740 H 0.73705 0.95907 0.74110
 H741 H 0.75789 0.96378 0.71180
 H742 H 0.73033 0.95943 0.71338
 H743 H 0.75218 1.02273 0.79600
 H744 H 0.73291 1.03858 0.77862
 H745 H 0.78868 0.98935 0.72300
 H746 H 0.77046 1.00664 0.70675
 H747 H 0.71610 0.98396 0.79446
 H748 H 0.69944 1.00212 0.77805
 H749 H 0.76879 1.04089 0.74237
 H750 H 0.78657 1.02562 0.76099
 H751 H 0.69977 0.96799 0.74178
 H752 H 0.71818 0.94970 0.75924
 O753 O 0.77720 0.46594 0.25120
 O754 O 0.77527 0.47342 0.22208
 O755 O 0.79487 0.50992 0.27448
 O756 O 0.78730 0.53667 0.27580
 O757 O 0.75360 0.48348 0.29501
 O758 O 0.72441 0.48225 0.28804
 O759 O 0.74546 0.55159 0.23340
 O760 O 0.77483 0.54980 0.23693
 O761 O 0.73078 0.50908 0.20766
 O762 O 0.73510 0.47901 0.21179
 O763 O 0.70554 0.52368 0.25057
 O764 O 0.71101 0.52093 0.28094
 O765 O 0.72526 0.54804 0.25279
 O766 O 0.72678 0.54029 0.28273
 O767 O 0.70815 0.50536 0.22919
 O768 O 0.71730 0.47587 0.22900
 O769 O 0.74828 0.53118 0.20979
 O770 O 0.77793 0.53238 0.21596
 O771 O 0.75632 0.46207 0.26990
 O772 O 0.72666 0.46515 0.26831
 O773 O 0.77124 0.50553 0.29689
 O774 O 0.76550 0.53493 0.29250
 O775 O 0.79739 0.49151 0.25309
 O776 O 0.79168 0.49389 0.22368
 Zr777 Zr 0.77351 0.49021 0.24232
 O778 O 0.75767 0.50408 0.22679
 Zr779 Zr 0.76974 0.51715 0.27348
 O780 O 0.75379 0.53232 0.25928
 Zr781 Zr 0.74384 0.48496 0.27056
 O782 O 0.72667 0.49869 0.25630
 Zr783 Zr 0.75873 0.52920 0.23377
 O784 O 0.77620 0.51561 0.24804
 Zr785 Zr 0.73285 0.49706 0.23089
 O786 O 0.74888 0.48165 0.24499
 Zr787 Zr 0.72913 0.52401 0.26210
 O788 O 0.74492 0.51003 0.27788
 O789 O 0.76848 0.49210 0.26763
 O790 O 0.73393 0.52225 0.23663
 C791 C 0.76918 0.45711 0.26185
 C792 C 0.80334 0.49971 0.26557
 C793 C 0.76416 0.49260 0.30301
 C794 C 0.73273 0.55663 0.24159
 C795 C 0.73761 0.52226 0.20178
 C796 C 0.69976 0.51582 0.23781
 H797 H 0.76087 0.50238 0.21502
 H798 H 0.71530 0.49456 0.25845
 H799 H 0.77620 0.48542 0.27449
 H800 H 0.75521 0.54403 0.26268
 H801 H 0.78516 0.54559 0.24216
 H802 H 0.78262 0.54646 0.27007
 H803 H 0.70955 0.47603 0.23855
 H804 H 0.72785 0.46071 0.25684
 H805 H 0.77806 0.52253 0.20858
 H806 H 0.79587 0.50536 0.22513
 H807 H 0.70505 0.51039 0.27872
 H808 H 0.72379 0.49286 0.29425
 H809 H 0.76496 0.46666 0.22217
 H810 H 0.74520 0.48167 0.20530
 H811 H 0.75507 0.53168 0.29817
 H812 H 0.73580 0.54864 0.28204
 O813 O 0.49666 0.20045 0.71952
 O814 O 0.46812 0.20661 0.71864
 O815 O 0.51852 0.24514 0.69986
 O816 O 0.52020 0.27167 0.70634
 O817 O 0.53921 0.22163 0.74379
 O818 O 0.53170 0.22137 0.77226
 O819 O 0.47396 0.28673 0.74461
 O820 O 0.47757 0.28329 0.71601
 O821 O 0.45077 0.24387 0.76201
 O822 O 0.45619 0.21444 0.76036
 O823 O 0.49198 0.26336 0.78712
 O824 O 0.52156 0.26262 0.78362
 O825 O 0.49274 0.28599 0.76588
 O826 O 0.52397 0.27942 0.76492
 O827 O 0.47170 0.24374 0.78539
 O828 O 0.47429 0.21295 0.77792
 O829 O 0.45189 0.26504 0.74341
 O830 O 0.45906 0.26328 0.71277
 O831 O 0.51542 0.19890 0.74080
 O832 O 0.51213 0.20408 0.77075
 O833 O 0.54076 0.24234 0.72469
 O834 O 0.53420 0.27256 0.72912
 O835 O 0.49894 0.22484 0.69746
 O836 O 0.46887 0.22673 0.70214
 Zr837 Zr 0.48720 0.22458 0.72103
 O838 O 0.47053 0.23821 0.73583
 Zr839 Zr 0.51687 0.25316 0.72467
 O840 O 0.50111 0.26861 0.73869
 Zr841 Zr 0.51454 0.22254 0.75222
 O842 O 0.49953 0.23697 0.76808
 Zr843 Zr 0.47600 0.26350 0.73319
 O844 O 0.49182 0.24997 0.71716
 Zr845 Zr 0.47454 0.23333 0.76132
 O846 O 0.48946 0.21770 0.74634
 Zr847 Zr 0.50386 0.26239 0.76397
 O848 O 0.52078 0.24786 0.75004
 O849 O 0.51216 0.22795 0.72699
 O850 O 0.47879 0.25863 0.75855
 C851 C 0.50750 0.19260 0.72825
 C852 C 0.51079 0.23384 0.69154
 C853 C 0.54717 0.23028 0.73299
 C854 C 0.48126 0.29319 0.75735
 C855 C 0.44433 0.25637 0.75452
 C856 C 0.47948 0.25548 0.79312
 H857 H 0.45898 0.23555 0.73244
 H858 H 0.50165 0.23390 0.77983
 H859 H 0.51949 0.22113 0.71989
 H860 H 0.50383 0.28037 0.73651
 H861 H 0.48404 0.27917 0.70638
 H862 H 0.51175 0.28027 0.70845
 H863 H 0.48245 0.21522 0.78693
 H864 H 0.50147 0.19828 0.76853
 H865 H 0.45067 0.25450 0.71466
 H866 H 0.47065 0.23762 0.69676
 H867 H 0.52133 0.25155 0.78888
 H868 H 0.53682 0.23252 0.77319
 H869 H 0.46707 0.20130 0.72971
 H870 H 0.45058 0.21515 0.74937
 H871 H 0.54085 0.26940 0.73904
 H872 H 0.52175 0.28828 0.75671
 O873 O 0.24725 0.77380 0.46144
 O874 O 0.21781 0.77161 0.46699
 O875 O 0.26549 0.79974 0.50432
 O876 O 0.26564 0.79655 0.53193
 O877 O 0.29026 0.75571 0.48665
 O878 O 0.28441 0.72658 0.48931
 O879 O 0.22391 0.75576 0.55052
 O880 O 0.22635 0.78454 0.54386
 O881 O 0.20230 0.73319 0.50872
 O882 O 0.20867 0.73245 0.47873
 O883 O 0.24527 0.71292 0.53059
 O884 O 0.27524 0.71981 0.52947
 O885 O 0.24386 0.73590 0.55143
 O886 O 0.27437 0.73840 0.54628
 O887 O 0.22512 0.71132 0.51068
 O888 O 0.22686 0.71555 0.47984
 O889 O 0.20196 0.75394 0.52795
 O890 O 0.20662 0.78340 0.52468
 O891 O 0.26731 0.75407 0.46288
 O892 O 0.26622 0.72535 0.47041
 O893 O 0.28956 0.77683 0.50549
 O894 O 0.28287 0.77584 0.53518
 O895 O 0.24594 0.79805 0.48376
 O896 O 0.21693 0.79106 0.48450
 Zr897 Zr 0.23656 0.77374 0.48548
 O898 O 0.22070 0.75962 0.50078
 Zr899 Zr 0.26537 0.77610 0.51531
 O900 O 0.25073 0.76216 0.53194
 Zr901 Zr 0.26621 0.74534 0.48754
 O902 O 0.25169 0.72995 0.50291
 Zr903 Zr 0.22548 0.76512 0.52605
 O904 O 0.23998 0.78077 0.51067
 Zr905 Zr 0.22633 0.73433 0.49835
 O906 O 0.24090 0.74832 0.48143
 Zr907 Zr 0.25531 0.73682 0.52798
 O908 O 0.27142 0.75086 0.51271
 O909 O 0.26175 0.77055 0.49022
 O910 O 0.22994 0.73981 0.52354
 C911 C 0.25910 0.76526 0.45498
 C912 C 0.25708 0.80599 0.49219
 C913 C 0.29705 0.76788 0.49459
 C914 C 0.23189 0.74411 0.55795
 C915 C 0.19512 0.74173 0.52019
 C916 C 0.23345 0.70523 0.52294
 H917 H 0.20903 0.76187 0.49764
 H918 H 0.25469 0.71825 0.50089
 H919 H 0.26882 0.77748 0.48292
 H920 H 0.25307 0.76561 0.54357
 H921 H 0.23127 0.79429 0.53820
 H922 H 0.25895 0.79345 0.54176
 H923 H 0.23671 0.70856 0.48198
 H924 H 0.25515 0.72529 0.46492
 H925 H 0.20029 0.78169 0.51420
 H926 H 0.21706 0.79702 0.49533
 H927 H 0.27420 0.71206 0.51991
 H928 H 0.28983 0.72795 0.50035
 H929 H 0.21893 0.76042 0.46202
 H930 H 0.20191 0.74266 0.47883
 H931 H 0.28910 0.76532 0.53427
 H932 H 0.27219 0.74825 0.55331
 O933 O 0.27562 0.28784 0.99862
 O934 O 0.27314 0.28089 1.02769
 O935 O 0.30086 0.24605 0.97843
 O936 O 0.29702 0.21845 0.97751
 O937 O 0.25783 0.26545 0.95353
 O938 O 0.22842 0.26294 0.95847
 O939 O 0.25479 0.19906 1.01747
 O940 O 0.28380 0.20483 1.01587
 O941 O 0.23287 0.23961 1.04005
 O942 O 0.23385 0.27040 1.03473
 O943 O 0.21321 0.21962 0.99695
 O944 O 0.21963 0.22308 0.96641
 O945 O 0.23587 0.19893 0.99631
 O946 O 0.23807 0.20604 0.96625
 O947 O 0.21139 0.23968 1.01684
 O948 O 0.21622 0.26969 1.01679
 O949 O 0.25334 0.22030 1.04015
 O950 O 0.28331 0.22341 1.03619
 O951 O 0.25656 0.28792 0.97754
 O952 O 0.22729 0.28094 0.97771
 O953 O 0.27844 0.24624 0.95398
 O954 O 0.27644 0.21653 0.95918
 O955 O 0.29938 0.26539 0.99909
 O956 O 0.29208 0.26307 1.02804
 Zr957 Zr 0.27489 0.26350 1.00798
 O958 O 0.26005 0.24797 1.02286
 Zr959 Zr 0.27693 0.23532 0.97772
 O960 O 0.26225 0.21844 0.99134
 Zr961 Zr 0.24688 0.26356 0.97734
 O962 O 0.23075 0.24793 0.99088
 Zr963 Zr 0.26502 0.22307 1.01699
 O964 O 0.28139 0.23860 1.00349
 Zr965 Zr 0.23489 0.25126 1.01661
 O966 O 0.24962 0.26837 1.00307
 Zr967 Zr 0.23695 0.22302 0.98642
 O968 O 0.25175 0.23864 0.97124
 O969 O 0.27197 0.26011 0.98242
 O970 O 0.23980 0.22634 1.01204
 C971 C 0.26773 0.29505 0.98668
 C972 C 0.30724 0.25767 0.98750
 C973 C 0.27004 0.25770 0.94673
 C974 C 0.24347 0.19195 1.00855
 C975 C 0.24100 0.22773 1.04693
 C976 C 0.20549 0.22720 1.00872
 H977 H 0.26219 0.25049 1.03476
 H978 H 0.21909 0.25026 0.98777
 H979 H 0.27919 0.26759 0.97587
 H980 H 0.26543 0.20694 0.98853
 H981 H 0.29382 0.21029 1.01124
 H982 H 0.29332 0.20827 0.98328
 H983 H 0.21011 0.26896 1.00607
 H984 H 0.22746 0.28610 0.98894
 H985 H 0.28136 0.23320 1.04337
 H986 H 0.29786 0.25227 1.02738
 H987 H 0.21146 0.23196 0.96853
 H988 H 0.22918 0.25189 0.95311
 H989 H 0.26199 0.28597 1.02676
 H990 H 0.24299 0.26861 1.04284
 H991 H 0.26606 0.21802 0.95265
 H992 H 0.24810 0.19915 0.96784
 C993 C 0.31163 0.34736 0.81886
 C994 C 0.30620 0.36293 0.81362
 C995 C 0.29930 0.36497 0.79764
 C996 C 0.29813 0.35121 0.78684
 C997 C 0.30393 0.33572 0.79196
 C998 C 0.31066 0.33373 0.80800
 C999 C 0.29433 0.38168 0.79218
 C1000 C 0.28100 0.38436 0.78250
 C1001 C 0.27639 0.40119 0.77706
 C1002 C 0.25959 0.40579 0.77666
 C1003 C 0.25505 0.42180 0.77182
 C1004 C 0.26724 0.43325 0.76679
 C1005 C 0.28402 0.42847 0.76678
 C1006 C 0.28857 0.41263 0.77199
 H1007 H 0.31695 0.34596 0.83121
 H1008 H 0.30735 0.37341 0.82205
 H1009 H 0.29320 0.35254 0.77431
 H1010 H 0.30325 0.32527 0.78346
 H1011 H 0.30144 0.39215 0.79692
 H1012 H 0.27282 0.37414 0.77919
 H1013 H 0.25002 0.39709 0.78040
 H1014 H 0.24203 0.42519 0.77185
 H1015 H 0.29366 0.43709 0.76303
 H1016 H 0.30159 0.40926 0.77188
 C1017 C 0.30398 -0.16761 0.29409
 C1018 C 0.29877 -0.15276 0.28684
 C1019 C 0.29435 -0.13916 0.29684
 C1020 C 0.29550 -0.14067 0.31433
 C1021 C 0.30073 -0.15551 0.32156
 C1022 C 0.30502 -0.16913 0.31153
 C1023 C 0.28937 -0.12345 0.28864
 C1024 C 0.27995 -0.11193 0.29612
 C1025 C 0.27533 -0.09589 0.28837
 C1026 C 0.26184 -0.08712 0.29500
 C1027 C 0.25757 -0.07152 0.28881
 C1028 C 0.26679 -0.06422 0.27587
 C1029 C 0.28022 -0.07307 0.26909
 C1030 C 0.28449 -0.08869 0.27530
 H1031 H 0.30722 -0.17796 0.28612
 H1032 H 0.29815 -0.15189 0.27335
 H1033 H 0.29282 -0.13032 0.32248
 H1034 H 0.30176 -0.15628 0.33502
 H1035 H 0.29316 -0.12170 0.27582
 H1036 H 0.27490 -0.11447 0.30835
 H1037 H 0.25464 -0.09229 0.30514
 H1038 H 0.24718 -0.06509 0.29438
 H1039 H 0.28770 -0.06777 0.25923
 H1040 H 0.29528 -0.09477 0.27014
 C1041 C 0.80235 0.84444 0.82631
 C1042 C 0.79421 0.85855 0.82048
 C1043 C 0.79115 0.86065 0.80335
 C1044 C 0.79596 0.84806 0.79217
 C1045 C 0.80410 0.83394 0.79803
 C1046 C 0.80746 0.83206 0.81512
 C1047 C 0.78286 0.87604 0.79774
 C1048 C 0.78448 0.88223 0.78231
 C1049 C 0.77727 0.89829 0.77714
 C1050 C 0.78472 0.90695 0.76397
 C1051 C 0.77870 0.92241 0.75906
 C1052 C 0.76496 0.92950 0.76714
 C1053 C 0.75717 0.92060 0.78001
 C1054 C 0.76321 0.90514 0.78492
 H1055 H 0.80489 0.84328 0.83954
 H1056 H 0.79054 0.86799 0.82936
 H1057 H 0.79331 0.84893 0.77895
 H1058 H 0.80774 0.82441 0.78924
 H1059 H 0.77623 0.88308 0.80709
 H1060 H 0.79244 0.87603 0.77342
 H1061 H 0.79546 0.90188 0.75766
 H1062 H 0.78498 0.92887 0.74906
 H1063 H 0.74646 0.92561 0.78640
 H1064 H 0.75675 0.89858 0.79472
 C1065 C 0.46613 0.92229 0.29349
 C1066 C 0.47177 0.90682 0.28810
 C1067 C 0.46049 0.89382 0.28502
 C1068 C 0.44338 0.89664 0.28741
 C1069 C 0.43777 0.91211 0.29277
 C1070 C 0.44909 0.92503 0.29599
 C1071 C 0.46706 0.87730 0.28041
 C1072 C 0.45791 0.86561 0.27269
 C1073 C 0.46411 0.84877 0.26885
 C1074 C 0.45610 0.83956 0.25628
 C1075 C 0.46105 0.82339 0.25267
 C1076 C 0.47409 0.81597 0.26168
 C1077 C 0.48209 0.82516 0.27435
 C1078 C 0.47714 0.84137 0.27794
 H1079 H 0.47506 0.93209 0.29597
 H1080 H 0.48500 0.90495 0.28650
 H1081 H 0.43430 0.88682 0.28578
 H1082 H 0.42461 0.91382 0.29498
 H1083 H 0.48003 0.87494 0.28318
 H1084 H 0.44546 0.86853 0.26847
 H1085 H 0.44592 0.84490 0.24922
 H1086 H 0.45452 0.81666 0.24290
 H1087 H 0.49207 0.81978 0.28164
 H1088 H 0.48327 0.84784 0.28811
 C1089 C -0.07748 0.90934 0.80671
 C1090 C -0.07175 0.89504 0.79877
 C1091 C -0.05466 0.89256 0.79627
 C1092 C -0.04341 0.90499 0.80156
 C1093 C -0.04916 0.91928 0.80956
 C1094 C -0.06624 0.92157 0.81227
 C1095 C -0.04924 0.87697 0.78804
 C1096 C -0.03381 0.87082 0.78938
 C1097 C -0.02875 0.85458 0.78229
 C1098 C -0.01487 0.84663 0.78923
 C1099 C -0.00992 0.83108 0.78343
 C1100 C -0.01867 0.82311 0.77042
 C1101 C -0.03228 0.83128 0.76309
 C1102 C -0.03724 0.84687 0.76891
 H1103 H -0.09070 0.91078 0.80872
 H1104 H -0.08071 0.88575 0.79475
 H1105 H -0.03020 0.90391 0.79939
 H1106 H -0.04030 0.92868 0.81350
 H1107 H -0.05873 0.86981 0.78161
 H1108 H -0.02469 0.87724 0.79702
 H1109 H -0.00800 0.85233 0.79942
 H1110 H 0.00066 0.82523 0.78936
 H1111 H -0.03922 0.82557 0.75295
 H1112 H -0.04765 0.85281 0.76281
 C1113 C -0.04565 -0.16603 -0.06411
 C1114 C -0.03876 -0.15114 -0.05841
 C1115 C -0.03898 -0.14702 -0.04138
 C1116 C -0.04591 -0.15841 -0.03004
 C1117 C -0.05282 -0.17336 -0.03577
 C1118 C -0.05289 -0.17728 -0.05288
 C1119 C -0.03161 -0.13091 -0.03613
 C1120 C -0.03516 -0.12319 -0.02171
 C1121 C -0.02843 -0.10657 -0.01721
 C1122 C -0.03713 -0.09679 -0.00569
 C1123 C -0.03148 -0.08089 -0.00147
 C1124 C -0.01689 -0.07443 -0.00863
 C1125 C -0.00795 -0.08438 -0.01985
 C1126 C -0.01357 -0.10029 -0.02402
 H1127 H -0.04556 -0.16863 -0.07737
 H1128 H -0.03341 -0.14268 -0.06741
 H1129 H -0.04585 -0.15600 -0.01676
 H1130 H -0.05806 -0.18195 -0.02683
 H1131 H -0.02376 -0.12473 -0.04513
 H1132 H -0.04417 -0.12860 -0.01333
 H1133 H -0.04852 -0.10136 -0.00014
 H1134 H -0.03868 -0.07359 0.00723
 H1135 H 0.00345 -0.07990 -0.02543
 H1136 H -0.00611 -0.10763 -0.03244
 C1137 C -0.04838 0.33004 0.45907
 C1138 C -0.04162 0.34441 0.46623
 C1139 C -0.04282 0.35963 0.45790
 C1140 C -0.05021 0.36016 0.44196
 C1141 C -0.05661 0.34572 0.43465
 C1142 C -0.05594 0.33064 0.44327
 C1143 C -0.03610 0.37477 0.46586
 C1144 C -0.04408 0.38928 0.46497
 C1145 C -0.03742 0.40472 0.47243
 C1146 C -0.04852 0.41672 0.47836
 C1147 C -0.04262 0.43191 0.48446
 C1148 C -0.02551 0.43551 0.48431
 C1149 C -0.01438 0.42346 0.47845
 C1150 C -0.02026 0.40816 0.47267
 H1151 H -0.04781 0.31844 0.46581
 H1152 H -0.03584 0.34374 0.47845
 H1153 H -0.05095 0.37169 0.43513
 H1154 H -0.06247 0.34633 0.42247
 H1155 H -0.02486 0.37374 0.47330
 H1156 H -0.05620 0.38979 0.45901
 H1157 H -0.06180 0.41437 0.47814
 H1158 H -0.05148 0.44107 0.48870
 H1159 H -0.00114 0.42596 0.47812
 H1160 H -0.01143 0.39930 0.46780
 C1161 C 0.44363 -0.17550 0.46153
 C1162 C 0.45039 -0.16096 0.46831
 C1163 C 0.45499 -0.14775 0.45793
 C1164 C 0.45271 -0.14940 0.44056
 C1165 C 0.44588 -0.16392 0.43379
 C1166 C 0.44113 -0.17706 0.44422
 C1167 C 0.46112 -0.13215 0.46568
 C1168 C 0.47081 -0.12126 0.45762
 C1169 C 0.47630 -0.10519 0.46484
 C1170 C 0.49040 -0.09746 0.45813
 C1171 C 0.49541 -0.08179 0.46368
 C1172 C 0.48632 -0.07335 0.47601
 C1173 C 0.47229 -0.08117 0.48292
 C1174 C 0.46730 -0.09691 0.47738
 H1175 H 0.44007 -0.18547 0.46982
 H1176 H 0.45192 -0.15998 0.48173
 H1177 H 0.45556 -0.13931 0.43217
 H1178 H 0.44377 -0.16466 0.42045
 H1179 H 0.45787 -0.12987 0.47858
 H1180 H 0.47537 -0.12435 0.44531
 H1181 H 0.49747 -0.10350 0.44839
 H1182 H 0.50625 -0.07617 0.45802
 H1183 H 0.46493 -0.07499 0.49233
 H1184 H 0.45609 -0.10225 0.48254
 C1185 C 0.44036 0.34529 -0.07542
 C1186 C 0.44478 0.36084 -0.06897
 C1187 C 0.45053 0.36244 -0.05247
 C1188 C 0.45157 0.34820 -0.04241
 C1189 C 0.44683 0.33271 -0.04878
 C1190 C 0.44122 0.33114 -0.06533
 C1191 C 0.45476 0.37911 -0.04588
 C1192 C 0.46727 0.38173 -0.03507
 C1193 C 0.47200 0.39853 -0.02926
 C1194 C 0.48890 0.40261 -0.02761
 C1195 C 0.49375 0.41854 -0.02262
 C1196 C 0.48176 0.43052 -0.01864
 C1197 C 0.46482 0.42628 -0.01972
 C1198 C 0.45996 0.41046 -0.02516
 H1199 H 0.43587 0.34431 -0.08816
 H1200 H 0.44376 0.37165 -0.07690
 H1201 H 0.45563 0.34910 -0.02953
 H1202 H 0.44744 0.32191 -0.04080
 H1203 H 0.44810 0.38963 -0.05093
 H1204 H 0.47513 0.37147 -0.03139
 H1205 H 0.49836 0.39356 -0.03059
 H1206 H 0.50688 0.42150 -0.02181
 H1207 H 0.45535 0.43533 -0.01678
 H1208 H 0.44683 0.40751 -0.02604
 C1209 C 0.79659 0.42071 0.46102
 C1210 C 0.78994 0.40622 0.46789
 C1211 C 0.79073 0.39119 0.45906
 C1212 C 0.79767 0.39098 0.44298
 C1213 C 0.80392 0.40554 0.43597
 C1214 C 0.80359 0.42041 0.44503
 C1215 C 0.78408 0.37589 0.46660
 C1216 C 0.79218 0.36148 0.46541
 C1217 C 0.78564 0.34581 0.47227
 C1218 C 0.79685 0.33400 0.47839
 C1219 C 0.79116 0.31853 0.48375
 C1220 C 0.77419 0.31443 0.48262
 C1221 C 0.76293 0.32631 0.47662
 C1222 C 0.76858 0.34193 0.47162
 H1223 H 0.79627 0.43217 0.46807
 H1224 H 0.78452 0.40664 0.48024
 H1225 H 0.79811 0.37959 0.43579
 H1226 H 0.80931 0.40521 0.42361
 H1227 H 0.77279 0.37669 0.47389
 H1228 H 0.80433 0.36122 0.45960
 H1229 H 0.81006 0.33670 0.47885
 H1230 H 0.80013 0.30953 0.48813
 H1231 H 0.74979 0.32342 0.47556
 H1232 H 0.75971 0.35069 0.46662
 C1233 C 0.79332 0.92136 -0.05564
 C1234 C 0.78567 0.90748 -0.04854
 C1235 C 0.79520 0.89404 -0.04291
 C1236 C 0.81262 0.89474 -0.04466
 C1237 C 0.82025 0.90862 -0.05177
 C1238 C 0.81069 0.92204 -0.05740
 C1239 C 0.78647 0.87922 -0.03622
 C1240 C 0.79376 0.86800 -0.02627
 C1241 C 0.78540 0.85269 -0.02027
 C1242 C 0.79225 0.84434 -0.00652
 C1243 C 0.78549 0.82931 -0.00108
 C1244 C 0.77172 0.82218 -0.00935
 C1245 C 0.76471 0.83063 -0.02299
 C1246 C 0.77148 0.84567 -0.02844
 H1247 H 0.78568 0.93156 -0.05985
 H1248 H 0.77224 0.90723 -0.04748
 H1249 H 0.82040 0.88445 -0.04104
 H1250 H 0.83363 0.90872 -0.05327
 H1251 H 0.77342 0.87788 -0.03933
 H1252 H 0.80635 0.87019 -0.02193
 H1253 H 0.80303 0.84938 -0.00007
 H1254 H 0.79130 0.82313 0.00940
 H1255 H 0.75423 0.82542 -0.02979
 H1256 H 0.76609 0.85137 -0.03938
 C1257 C 0.79048 0.31555 0.32929
 C1258 C 0.78293 0.30959 0.34378
 C1259 C 0.79252 0.30269 0.35666
 C1260 C 0.80994 0.30226 0.35492
 C1261 C 0.81749 0.30828 0.34046
 C1262 C 0.80785 0.31489 0.32742
 C1263 C 0.78406 0.29668 0.37194
 C1264 C 0.79041 0.28479 0.38172
 C1265 C 0.78248 0.27871 0.39726
 C1266 C 0.78766 0.26343 0.40373
 C1267 C 0.78155 0.25766 0.41893
 C1268 C 0.77012 0.26709 0.42817
 C1269 C 0.76462 0.28225 0.42155
 C1270 C 0.77076 0.28804 0.40629
 H1271 H 0.78274 0.32061 0.31947
 H1272 H 0.76952 0.31024 0.34487
 H1273 H 0.81782 0.29764 0.36484
 H1274 H 0.83092 0.30803 0.33957
 H1275 H 0.77192 0.30173 0.37467
 H1276 H 0.80181 0.27874 0.37798
 H1277 H 0.79670 0.25601 0.39710
 H1278 H 0.78610 0.24593 0.42361
 H1279 H 0.75597 0.28992 0.42840
 H1280 H 0.76673 0.30007 0.40199
 C1281 C 0.82265 0.80462 -0.15171
 C1282 C 0.81740 0.79774 -0.13663
 C1283 C 0.80039 0.79586 -0.13320
 C1284 C 0.78870 0.80036 -0.14549
 C1285 C 0.79395 0.80720 -0.16059
 C1286 C 0.81095 0.80961 -0.16375
 C1287 C 0.79538 0.78906 -0.11681
 C1288 C 0.78069 0.79234 -0.10966
 C1289 C 0.77600 0.78627 -0.09287
 C1290 C 0.76395 0.79497 -0.08379
 C1291 C 0.75934 0.78980 -0.06782
 C1292 C 0.76662 0.77568 -0.06062
 C1293 C 0.77843 0.76677 -0.06988
 C1294 C 0.78302 0.77194 -0.08583
 H1295 H 0.83582 0.80642 -0.15382
 H1296 H 0.82667 0.79422 -0.12744
 H1297 H 0.77550 0.79852 -0.14359
 H1298 H 0.78473 0.81070 -0.16982
 H1299 H 0.80464 0.78208 -0.10998
 H1300 H 0.77211 0.80068 -0.11579
 H1301 H 0.75824 0.80596 -0.08899
 H1302 H 0.75018 0.79695 -0.06108
 H1303 H 0.78417 0.75574 -0.06481
 H1304 H 0.79191 0.76454 -0.09264
 C1305 C 0.30770 0.45629 0.91835
 C1306 C 0.30148 0.46414 0.90411
 C1307 C 0.29576 0.45482 0.89038
 C1308 C 0.29657 0.43740 0.89115
 C1309 C 0.30281 0.42956 0.90539
 C1310 C 0.30847 0.43892 0.91912
 C1311 C 0.28993 0.46370 0.87524
 C1312 C 0.27977 0.45687 0.86375
 C1313 C 0.27453 0.46532 0.84815
 C1314 C 0.26053 0.45925 0.83951
 C1315 C 0.25575 0.46607 0.82421
 C1316 C 0.26493 0.47911 0.81710
 C1317 C 0.27884 0.48536 0.82585
 C1318 C 0.28364 0.47852 0.84115
 H1319 H 0.31199 0.46375 0.92879
 H1320 H 0.30115 0.47756 0.90381
 H1321 H 0.29287 0.42975 0.88065
 H1322 H 0.30359 0.41616 0.90557
 H1323 H 0.29384 0.47647 0.87389
 H1324 H 0.27464 0.44464 0.86594
 H1325 H 0.25336 0.44903 0.84452
 H1326 H 0.24501 0.46088 0.81781
 H1327 H 0.28634 0.49525 0.82066
 H1328 H 0.29479 0.48327 0.84709
 C1329 C 0.29698 -0.06628 0.41417
 C1330 C 0.28930 -0.06052 0.39964
 C1331 C 0.28753 -0.04346 0.39680
 C1332 C 0.29317 -0.03223 0.40912
 C1333 C 0.30089 -0.03801 0.42365
 C1334 C 0.30296 -0.05508 0.42626
 C1335 C 0.27984 -0.03803 0.38085
 C1336 C 0.28217 -0.02294 0.37423
 C1337 C 0.27601 -0.01825 0.35741
 C1338 C 0.28427 -0.00553 0.34885
 C1339 C 0.27962 -0.00135 0.33258
 C1340 C 0.26646 -0.00975 0.32451
 C1341 C 0.25771 -0.02202 0.33334
 C1342 C 0.26238 -0.02619 0.34963
 H1343 H 0.29853 -0.07950 0.41584
 H1344 H 0.28500 -0.06945 0.39043
 H1345 H 0.29156 -0.01900 0.40773
 H1346 H 0.30522 -0.02918 0.43293
 H1347 H 0.27314 -0.04736 0.37374
 H1348 H 0.29010 -0.01407 0.38060
 H1349 H 0.29468 0.00092 0.35461
 H1350 H 0.28658 0.00824 0.32623
 H1351 H 0.24740 -0.02862 0.32758
 H1352 H 0.25528 -0.03564 0.35603
 C1353 C -0.06177 -0.04035 -0.16218
 C1354 C -0.05464 -0.03421 -0.14746
 C1355 C -0.04928 -0.04505 -0.13488
 C1356 C -0.05117 -0.06226 -0.13739
 C1357 C -0.05827 -0.06839 -0.15215
 C1358 C -0.06377 -0.05749 -0.16462
 C1359 C -0.04271 -0.03787 -0.11906
 C1360 C -0.03336 -0.04633 -0.10812
 C1361 C -0.02737 -0.03931 -0.09202
 C1362 C -0.01370 -0.04674 -0.08412
 C1363 C -0.00803 -0.04099 -0.06863
 C1364 C -0.01598 -0.02770 -0.06058
 C1365 C -0.02969 -0.02025 -0.06848
 C1366 C -0.03538 -0.02601 -0.08398
 H1367 H -0.06591 -0.03172 -0.17165
 H1368 H -0.05345 -0.02092 -0.14583
 H1369 H -0.04773 -0.07106 -0.12784
 H1370 H -0.05997 -0.08164 -0.15364
 H1371 H -0.04538 -0.02495 -0.11669
 H1372 H -0.02938 -0.05876 -0.11119
 H1373 H -0.00741 -0.05708 -0.08994
 H1374 H 0.00252 -0.04709 -0.06290
 H1375 H -0.03624 -0.01013 -0.06255
 H1376 H -0.04630 -0.02029 -0.08933
 C1377 C -0.03970 0.45362 0.32607
 C1378 C -0.03297 0.46008 0.34088
 C1379 C -0.04214 0.45962 0.35574
 C1380 C -0.05835 0.45298 0.35546
 C1381 C -0.06521 0.44689 0.34058
 C1382 C -0.05590 0.44709 0.32583
 C1383 C -0.03487 0.46660 0.37125
 C1384 C -0.03722 0.45951 0.38615
 C1385 C -0.03035 0.46649 0.40184
 C1386 C -0.02520 0.45568 0.41451
 C1387 C -0.01946 0.46189 0.42982
 C1388 C -0.01924 0.47905 0.43290
 C1389 C -0.02447 0.48989 0.42024
 C1390 C -0.02983 0.48368 0.40478
 H1391 H -0.03243 0.45390 0.31474
 H1392 H -0.02051 0.46526 0.34081
 H1393 H -0.06583 0.45280 0.36666
 H1394 H -0.07773 0.44189 0.34054
 H1395 H -0.02680 0.47734 0.37024
 H1396 H -0.04384 0.44780 0.38685
 H1397 H -0.02565 0.44238 0.41257
 H1398 H -0.01572 0.45325 0.43944
 H1399 H -0.02450 0.50317 0.42233
 H1400 H -0.03408 0.49229 0.39535
 C1401 C 0.45407 -0.03557 0.31922
 C1402 C 0.46120 -0.02899 0.33377
 C1403 C 0.46615 -0.03945 0.34686
 C1404 C 0.46380 -0.05668 0.34508
 C1405 C 0.45671 -0.06322 0.33055
 C1406 C 0.45169 -0.05274 0.31753
 C1407 C 0.47241 -0.03193 0.36260
 C1408 C 0.48132 -0.04030 0.37396
 C1409 C 0.48581 -0.03358 0.39064
 C1410 C 0.49846 -0.04137 0.39982
 C1411 C 0.50214 -0.03636 0.41615
 C1412 C 0.49315 -0.02346 0.42370
 C1413 C 0.48066 -0.01549 0.41441
 C1414 C 0.47696 -0.02053 0.39812
 H1415 H 0.45023 -0.02728 0.30933
 H1416 H 0.46269 -0.01568 0.33489
 H1417 H 0.46680 -0.06515 0.35507
 H1418 H 0.45465 -0.07647 0.32967
 H1419 H 0.46952 -0.01902 0.36474
 H1420 H 0.48559 -0.05268 0.37107
 H1421 H 0.50536 -0.05155 0.39442
 H1422 H 0.51183 -0.04279 0.42294
 H1423 H 0.47338 -0.00561 0.41987
 H1424 H 0.46675 -0.01453 0.39176
 C1425 C 0.44335 0.41985 -0.15508
 C1426 C 0.45040 0.42546 -0.14013
 C1427 C 0.45275 0.44247 -0.13721
 C1428 C 0.44742 0.45383 -0.14945
 C1429 C 0.44039 0.44818 -0.16444
 C1430 C 0.43844 0.43114 -0.16744
 C1431 C 0.46039 0.44768 -0.12112
 C1432 C 0.46689 0.46276 -0.11826
 C1433 C 0.47373 0.46773 -0.10181
 C1434 C 0.47205 0.48426 -0.09669
 C1435 C 0.47757 0.48928 -0.08092
 C1436 C 0.48521 0.47793 -0.07006
 C1437 C 0.48756 0.46153 -0.07546
 C1438 C 0.48183 0.45644 -0.09119
 H1439 H 0.44176 0.40664 -0.15703
 H1440 H 0.45417 0.41645 -0.13087
 H1441 H 0.44844 0.46706 -0.14757
 H1442 H 0.43663 0.45709 -0.17379
 H1443 H 0.46064 0.43858 -0.11121
 H1444 H 0.46658 0.47215 -0.12785
 H1445 H 0.46603 0.49321 -0.10474
 H1446 H 0.47572 0.50206 -0.07718
 H1447 H 0.49345 0.45253 -0.06737
 H1448 H 0.48378 0.44372 -0.09500
 C1449 C 0.42463 0.79790 0.40955
 C1450 C 0.42875 0.79147 0.39393
 C1451 C 0.44544 0.78917 0.38951
 C1452 C 0.45799 0.79318 0.40123
 C1453 C 0.45383 0.79963 0.41689
 C1454 C 0.43712 0.80205 0.42118
 C1455 C 0.44914 0.78234 0.37273
 C1456 C 0.46367 0.78472 0.36494
 C1457 C 0.46708 0.77878 0.34777
 C1458 C 0.47967 0.78669 0.33869
 C1459 C 0.48340 0.78161 0.32248
 C1460 C 0.47472 0.76835 0.31496
 C1461 C 0.46220 0.76027 0.32409
 C1462 C 0.45845 0.76539 0.34036
 H1463 H 0.41165 0.79975 0.41254
 H1464 H 0.41886 0.78842 0.38520
 H1465 H 0.47098 0.79109 0.39854
 H1466 H 0.46362 0.80254 0.42577
 H1467 H 0.43907 0.77610 0.36621
 H1468 H 0.47318 0.79228 0.37086
 H1469 H 0.48658 0.79695 0.34412
 H1470 H 0.49316 0.78811 0.31587
 H1471 H 0.45537 0.74994 0.31873
 H1472 H 0.44901 0.75862 0.34711
 C1473 C -0.03793 0.79257 0.92670
 C1474 C -0.03141 0.78542 0.91221
 C1475 C -0.04054 0.78572 0.89724
 C1476 C -0.05658 0.79258 0.89711
 C1477 C -0.06322 0.79936 0.91166
 C1478 C -0.05385 0.79961 0.92645
 C1479 C -0.03318 0.77911 0.88178
 C1480 C -0.03433 0.78747 0.86743
 C1481 C -0.02705 0.78157 0.85165
 C1482 C -0.02048 0.79325 0.84055
 C1483 C -0.01462 0.78830 0.82497
 C1484 C -0.01567 0.77160 0.81999
 C1485 C -0.02218 0.75985 0.83113
 C1486 C -0.02767 0.76477 0.84694
 H1487 H -0.03063 0.79268 0.93809
 H1488 H -0.01906 0.78011 0.91255
 H1489 H -0.06396 0.79270 0.88576
 H1490 H -0.07553 0.80477 0.91135
 H1491 H -0.02585 0.76789 0.88243
 H1492 H -0.04016 0.79957 0.86738
 H1493 H -0.02004 0.80627 0.84391
 H1494 H -0.00987 0.79765 0.81654
 H1495 H -0.02320 0.74693 0.82753
 H1496 H -0.03299 0.75557 0.85518
 C1497 C 0.32602 0.79009 0.31138
 C1498 C 0.34012 0.78221 0.30501
 C1499 C 0.35376 0.79151 0.29932
 C1500 C 0.35315 0.80892 0.30050
 C1501 C 0.33909 0.81678 0.30692
 C1502 C 0.32535 0.80747 0.31237
 C1503 C 0.36863 0.78270 0.29296
 C1504 C 0.37944 0.78956 0.28225
 C1505 C 0.39478 0.78130 0.27623
 C1506 C 0.40255 0.78752 0.26188
 C1507 C 0.41760 0.78095 0.25635
 C1508 C 0.42536 0.76800 0.26511
 C1509 C 0.41747 0.76158 0.27935
 C1510 C 0.40239 0.76817 0.28489
 H1511 H 0.31559 0.78265 0.31549
 H1512 H 0.34032 0.76879 0.30441
 H1513 H 0.36362 0.81653 0.29687
 H1514 H 0.33903 0.83018 0.30786
 H1515 H 0.37028 0.76997 0.29683
 H1516 H 0.37682 0.80172 0.27723
 H1517 H 0.39704 0.79770 0.25503
 H1518 H 0.42333 0.78628 0.24538
 H1519 H 0.42316 0.75173 0.28651
 H1520 H 0.39711 0.76329 0.29625
 C1521 C -0.15722 0.82385 0.80688
 C1522 C -0.14281 0.81861 0.79881
 C1523 C -0.13971 0.80167 0.79634
 C1524 C -0.15163 0.79003 0.80178
 C1525 C -0.16604 0.79529 0.80990
 C1526 C -0.16893 0.81224 0.81258
 C1527 C -0.12402 0.79681 0.78799
 C1528 C -0.11718 0.78172 0.78933
 C1529 C -0.10074 0.77745 0.78221
 C1530 C -0.09177 0.76439 0.78940
 C1531 C -0.07590 0.76041 0.78368
 C1532 C -0.06865 0.76934 0.77050
 C1533 C -0.07788 0.78203 0.76288
 C1534 C -0.09378 0.78601 0.76862
 H1535 H -0.15915 0.83698 0.80888
 H1536 H -0.13392 0.82785 0.79468
 H1537 H -0.15005 0.77689 0.79964
 H1538 H -0.17505 0.78616 0.81398
 H1539 H -0.11732 0.80649 0.78152
 H1540 H -0.12309 0.77244 0.79704
 H1541 H -0.09690 0.75748 0.79975
 H1542 H -0.06921 0.75050 0.78980
 H1543 H -0.07277 0.78905 0.75260
 H1544 H -0.10053 0.79574 0.76232
 C1545 C 0.91071 0.31882 0.45317
 C1546 C 0.89673 0.31184 0.46068
 C1547 C 0.89386 0.29469 0.45990
 C1548 C 0.90567 0.28452 0.45202
 C1549 C 0.91970 0.29153 0.44452
 C1550 C 0.92223 0.30877 0.44480
 C1551 C 0.87838 0.28807 0.46736
 C1552 C 0.87120 0.27375 0.46262
 C1553 C 0.85467 0.26838 0.46872
 C1554 C 0.84489 0.25795 0.45858
 C1555 C 0.82874 0.25360 0.46332
 C1556 C 0.82207 0.25955 0.47838
 C1557 C 0.83215 0.26940 0.48887
 C1558 C 0.84829 0.27368 0.48417
 H1559 H 0.91232 0.33215 0.45356
 H1560 H 0.88791 0.31994 0.46678
 H1561 H 0.90421 0.27119 0.45167
 H1562 H 0.92858 0.28351 0.43843
 H1563 H 0.87197 0.29612 0.47601
 H1564 H 0.87677 0.26642 0.45281
 H1565 H 0.84957 0.25355 0.44672
 H1566 H 0.82135 0.24593 0.45496
 H1567 H 0.82750 0.27396 0.50069
 H1568 H 0.85568 0.28117 0.49266
 C1569 C 0.92128 0.78423 -0.05086
 C1570 C 0.90592 0.77817 -0.04548
 C1571 C 0.89309 0.78910 -0.04120
 C1572 C 0.89592 0.80630 -0.04254
 C1573 C 0.91130 0.81234 -0.04793
 C1574 C 0.92412 0.80137 -0.05216
 C1575 C 0.87677 0.78212 -0.03615
 C1576 C 0.86583 0.79049 -0.02681
 C1577 C 0.84944 0.78374 -0.02175
 C1578 C 0.84162 0.79077 -0.00784
 C1579 C 0.82591 0.78534 -0.00290
 C1580 C 0.81751 0.77279 -0.01187
 C1581 C 0.82531 0.76572 -0.02584
 C1582 C 0.84111 0.77116 -0.03077
 H1583 H 0.93096 0.77553 -0.05415
 H1584 H 0.90403 0.76489 -0.04470
 H1585 H 0.88618 0.81514 -0.03996
 H1586 H 0.91302 0.82559 -0.04927
 H1587 H 0.87411 0.76942 -0.03969
 H1588 H 0.86922 0.80259 -0.02196
 H1589 H 0.84769 0.80056 -0.00076
 H1590 H 0.82028 0.79117 0.00786
 H1591 H 0.81913 0.75617 -0.03314
 H1592 H 0.84649 0.76577 -0.04187
 C1593 C -0.15298 -0.05337 -0.07027
 C1594 C -0.13783 -0.04714 -0.06431
 C1595 C -0.13505 -0.04503 -0.04711
 C1596 C -0.14795 -0.04906 -0.03596
 C1597 C -0.16312 -0.05531 -0.04195
 C1598 C -0.16578 -0.05753 -0.05916
 C1599 C -0.11873 -0.03827 -0.04149
 C1600 C -0.11261 -0.04005 -0.02598
 C1601 C -0.09591 -0.03392 -0.02080
 C1602 C -0.08791 -0.04150 -0.00724
 C1603 C -0.07199 -0.03645 -0.00223
 C1604 C -0.06371 -0.02354 -0.01061
 C1605 C -0.07192 -0.01561 -0.02391
 C1606 C -0.08785 -0.02068 -0.02891
 H1607 H -0.15470 -0.05506 -0.08359
 H1608 H -0.12818 -0.04407 -0.07319
 H1609 H -0.14656 -0.04715 -0.02266
 H1610 H -0.17290 -0.05822 -0.03318
 H1611 H -0.11110 -0.03242 -0.05091
 H1612 H -0.11951 -0.04720 -0.01692
 H1613 H -0.09389 -0.05161 -0.00066
 H1614 H -0.06608 -0.04283 0.00807
 H1615 H -0.06600 -0.00554 -0.03056
 H1616 H -0.09381 -0.01409 -0.03902
 C1617 C -0.16178 0.43056 0.45152
 C1618 C -0.14675 0.43657 0.45794
 C1619 C -0.14320 0.45361 0.45791
 C1620 C -0.15525 0.46463 0.45168
 C1621 C -0.17036 0.45859 0.44530
 C1622 C -0.17373 0.44148 0.44501
 C1623 C -0.12699 0.45925 0.46484
 C1624 C -0.11969 0.47371 0.46096
 C1625 C -0.10301 0.47857 0.46740
 C1626 C -0.09322 0.48960 0.45809
 C1627 C -0.07722 0.49400 0.46351
 C1628 C -0.07072 0.48754 0.47846
 C1629 C -0.08073 0.47688 0.48802
 C1630 C -0.09671 0.47251 0.48261
 H1631 H -0.16396 0.41731 0.45145
 H1632 H -0.13775 0.42782 0.46277
 H1633 H -0.15322 0.47789 0.45195
 H1634 H -0.17949 0.46729 0.44066
 H1635 H -0.12037 0.45052 0.47264
 H1636 H -0.12548 0.48181 0.45191
 H1637 H -0.09785 0.49458 0.44642
 H1638 H -0.06989 0.50229 0.45587
 H1639 H -0.07623 0.47183 0.49970
 H1640 H -0.10408 0.46450 0.49049
 C1641 C 0.32987 -0.05078 0.46355
 C1642 C 0.34529 -0.04475 0.46899
 C1643 C 0.35789 -0.04103 0.45748
 C1644 C 0.35459 -0.04323 0.44032
 C1645 C 0.33913 -0.04922 0.43490
 C1646 C 0.32673 -0.05328 0.44648
 C1647 C 0.37452 -0.03612 0.46400
 C1648 C 0.38639 -0.02896 0.45473
 C1649 C 0.40337 -0.02532 0.46113
 C1650 C 0.41297 -0.01318 0.45311
 C1651 C 0.42926 -0.00984 0.45834
 C1652 C 0.43639 -0.01869 0.47167
 C1653 C 0.42679 -0.03091 0.47965
 C1654 C 0.41051 -0.03424 0.47442
 H1655 H 0.32046 -0.05384 0.47267
 H1656 H 0.34749 -0.04327 0.48227
 H1657 H 0.36403 -0.04102 0.43102
 H1658 H 0.33706 -0.05132 0.42169
 H1659 H 0.37690 -0.03839 0.47710
 H1660 H 0.38363 -0.02522 0.44206
 H1661 H 0.40784 -0.00627 0.44273
 H1662 H 0.43630 -0.00040 0.45184
 H1663 H 0.43192 -0.03809 0.48984
 H1664 H 0.40378 -0.04411 0.48055
 C1665 C 0.33261 0.43804 -0.04162
 C1666 C 0.34742 0.44401 -0.03454
 C1667 C 0.36059 0.44933 -0.04469
 C1668 C 0.35872 0.44827 -0.06216
 C1669 C 0.34391 0.44230 -0.06922
 C1670 C 0.33070 0.43715 -0.05904
 C1671 C 0.37625 0.45519 -0.03664
 C1672 C 0.38736 0.46505 -0.04426
 C1673 C 0.40331 0.47059 -0.03657
 C1674 C 0.41166 0.48420 -0.04359
 C1675 C 0.42710 0.48940 -0.03735
 C1676 C 0.43465 0.48105 -0.02394
 C1677 C 0.42626 0.46747 -0.01682
 C1678 C 0.41082 0.46225 -0.02309
 H1679 H 0.32259 0.43416 -0.03353
 H1680 H 0.34857 0.44454 -0.02106
 H1681 H 0.36874 0.45163 -0.07046
 H1682 H 0.34284 0.44144 -0.08268
 H1683 H 0.37827 0.45167 -0.02377
 H1684 H 0.38454 0.46977 -0.05658
 H1685 H 0.40626 0.49078 -0.05405
 H1686 H 0.43321 0.49985 -0.04320
 H1687 H 0.43178 0.46061 -0.00662
 H1688 H 0.40513 0.45140 -0.01762
 C1689 C 0.41613 0.43478 0.79205
 C1690 C 0.40187 0.44163 0.78484
 C1691 C 0.38855 0.44678 0.79484
 C1692 C 0.38974 0.44477 0.81227
 C1693 C 0.40401 0.43792 0.81946
 C1694 C 0.41733 0.43282 0.80943
 C1695 C 0.37340 0.45339 0.78658
 C1696 C 0.36228 0.46305 0.79435
 C1697 C 0.34685 0.46925 0.78631
 C1698 C 0.33886 0.48300 0.79337
 C1699 C 0.32390 0.48883 0.78671
 C1700 C 0.31649 0.48096 0.77283
 C1701 C 0.32451 0.46720 0.76571
 C1702 C 0.33947 0.46136 0.77239
 H1703 H 0.42625 0.43097 0.78406
 H1704 H 0.40124 0.44290 0.77139
 H1705 H 0.37955 0.44802 0.82040
 H1706 H 0.40451 0.43625 0.83286
 H1707 H 0.37178 0.45059 0.77345
 H1708 H 0.36473 0.46712 0.80702
 H1709 H 0.34417 0.48922 0.80417
 H1710 H 0.31804 0.49939 0.79259
 H1711 H 0.31906 0.46070 0.75515
 H1712 H 0.34489 0.45040 0.76688
 C1713 C 0.42440 -0.05142 0.28010
 C1714 C 0.40906 -0.04538 0.27458
 C1715 C 0.39705 -0.04007 0.28607
 C1716 C 0.40071 -0.04096 0.30326
 C1717 C 0.41605 -0.04696 0.30874
 C1718 C 0.42800 -0.05233 0.29723
 C1719 C 0.38056 -0.03474 0.27972
 C1720 C 0.36994 -0.02548 0.28860
 C1721 C 0.35300 -0.02113 0.28272
 C1722 C 0.34493 -0.00757 0.29005
 C1723 C 0.32867 -0.00349 0.28542
 C1724 C 0.32005 -0.01300 0.27340
 C1725 C 0.32813 -0.02661 0.26608
 C1726 C 0.34437 -0.03069 0.27072
 H1727 H 0.43343 -0.05554 0.27102
 H1728 H 0.40651 -0.04499 0.26129
 H1729 H 0.39163 -0.03759 0.31257
 H1730 H 0.41839 -0.04789 0.32203
 H1731 H 0.37730 -0.03840 0.26711
 H1732 H 0.37382 -0.02047 0.30055
 H1733 H 0.35121 -0.00011 0.29945
 H1734 H 0.32282 0.00705 0.29136
 H1735 H 0.32183 -0.03432 0.25691
 H1736 H 0.34988 -0.04159 0.26519
 C1737 C 0.09789 0.58034 0.69397
 C1738 C 0.11212 0.57407 0.70173
 C1739 C 0.11430 0.55692 0.70358
 C1740 C 0.10161 0.54613 0.69795
 C1741 C 0.08735 0.55243 0.69019
 C1742 C 0.08542 0.56958 0.68794
 C1743 C 0.12984 0.55093 0.71158
 C1744 C 0.13604 0.53568 0.70920
 C1745 C 0.15227 0.53025 0.71616
 C1746 C 0.16080 0.51737 0.70814
 C1747 C 0.17640 0.51227 0.71388
 C1748 C 0.18381 0.51986 0.72792
 C1749 C 0.17503 0.53242 0.73628
 C1750 C 0.15942 0.53752 0.73052
 H1751 H 0.09677 0.59361 0.69240
 H1752 H 0.12160 0.58267 0.70607
 H1753 H 0.10251 0.53288 0.69966
 H1754 H 0.07776 0.54390 0.68597
 H1755 H 0.13699 0.55992 0.71869
 H1756 H 0.12969 0.52717 0.70083
 H1757 H 0.15551 0.51144 0.69716
 H1758 H 0.18274 0.50251 0.70715
 H1759 H 0.18026 0.53843 0.74723
 H1760 H 0.15301 0.54707 0.73744
 C1761 C 0.09430 0.07702 0.20037
 C1762 C 0.10956 0.07213 0.20713
 C1763 C 0.11292 0.05532 0.21005
 C1764 C 0.10044 0.04349 0.20651
 C1765 C 0.08517 0.04839 0.19976
 C1766 C 0.08197 0.06518 0.19653
 C1767 C 0.12941 0.05074 0.21703
 C1768 C 0.13619 0.03567 0.21516
 C1769 C 0.15298 0.03125 0.22149
 C1770 C 0.16124 0.01778 0.21418
 C1771 C 0.17707 0.01317 0.21967
 C1772 C 0.18502 0.02185 0.23274
 C1773 C 0.17665 0.03519 0.24025
 C1774 C 0.16079 0.03980 0.23476
 H1775 H 0.09219 0.09003 0.19790
 H1776 H 0.11888 0.08151 0.20985
 H1777 H 0.10228 0.03048 0.20912
 H1778 H 0.07576 0.03909 0.19712
 H1779 H 0.13655 0.06052 0.22299
 H1780 H 0.12968 0.02637 0.20784
 H1781 H 0.15547 0.01089 0.20405
 H1782 H 0.18310 0.00281 0.21360
 H1783 H 0.18232 0.04208 0.25044
 H1784 H 0.15466 0.04990 0.24112
 C1785 C 0.65700 0.70380 0.18540
 C1786 C 0.64135 0.70979 0.18970
 C1787 C 0.63688 0.71160 0.20651
 C1788 C 0.64855 0.70746 0.21901
 C1789 C 0.66423 0.70141 0.21466
 C1790 C 0.66860 0.69959 0.19783
 C1791 C 0.62009 0.71810 0.21032
 C1792 C 0.61243 0.71591 0.22497
 C1793 C 0.59519 0.72148 0.22817
 C1794 C 0.58597 0.71335 0.24051
 C1795 C 0.56952 0.71782 0.24364
 C1796 C 0.56193 0.73066 0.23455
 C1797 C 0.57130 0.73910 0.22247
 C1798 C 0.58778 0.73463 0.21935
 H1799 H 0.66005 0.70237 0.17232
 H1800 H 0.63266 0.71293 0.17984
 H1801 H 0.64582 0.70913 0.23210
 H1802 H 0.67309 0.69841 0.22441
 H1803 H 0.61344 0.72397 0.20017
 H1804 H 0.61841 0.70873 0.23466
 H1805 H 0.59141 0.70330 0.24758
 H1806 H 0.56273 0.71107 0.25309
 H1807 H 0.56590 0.74917 0.21539
 H1808 H 0.59465 0.74161 0.21015
 C1809 C 0.15744 0.68217 0.70439
 C1810 C 0.14238 0.68814 0.71050
 C1811 C 0.13898 0.70519 0.71043
 C1812 C 0.15117 0.71624 0.70445
 C1813 C 0.16624 0.71024 0.69833
 C1814 C 0.16952 0.69317 0.69826
 C1815 C 0.12281 0.71087 0.71705
 C1816 C 0.11590 0.72549 0.71323
 C1817 C 0.09942 0.73063 0.71956
 C1818 C 0.09007 0.74211 0.71037
 C1819 C 0.07425 0.74684 0.71571
 C1820 C 0.06752 0.74023 0.73044
 C1821 C 0.07711 0.72911 0.73988
 C1822 C 0.09291 0.72444 0.73458
 H1823 H 0.15960 0.66893 0.70424
 H1824 H 0.13325 0.67937 0.71510
 H1825 H 0.14928 0.72950 0.70467
 H1826 H 0.17545 0.71893 0.69376
 H1827 H 0.11595 0.70214 0.72463
 H1828 H 0.12192 0.73361 0.70435
 H1829 H 0.09489 0.74720 0.69885
 H1830 H 0.06720 0.75545 0.70815
 H1831 H 0.07241 0.72396 0.75141
 H1832 H 0.09999 0.71610 0.74238
 C1833 C 0.59460 0.17556 0.54814
 C1834 C 0.60970 0.18091 0.54146
 C1835 C 0.61281 0.19783 0.53887
 C1836 C 0.60031 0.20934 0.54290
 C1837 C 0.58516 0.20396 0.54957
 C1838 C 0.58214 0.18701 0.55225
 C1839 C 0.62903 0.20279 0.53159
 C1840 C 0.63574 0.21797 0.53327
 C1841 C 0.65241 0.22245 0.52673
 C1842 C 0.66129 0.23540 0.53444
 C1843 C 0.67720 0.23975 0.52897
 C1844 C 0.68456 0.23134 0.51549
 C1845 C 0.67548 0.21865 0.50747
 C1846 C 0.65957 0.21428 0.51298
 H1847 H 0.59269 0.16243 0.55020
 H1848 H 0.61906 0.17177 0.53842
 H1849 H 0.60199 0.22245 0.54063
 H1850 H 0.57567 0.21301 0.55242
 H1851 H 0.63613 0.19316 0.52550
 H1852 H 0.62942 0.22721 0.54070
 H1853 H 0.65602 0.24201 0.54494
 H1854 H 0.68378 0.24963 0.53542
 H1855 H 0.68069 0.21199 0.49698
 H1856 H 0.65290 0.20460 0.50633
 C1857 C 0.57924 0.69522 0.03906
 C1858 C 0.59369 0.70235 0.03256
 C1859 C 0.60682 0.70723 0.04314
 C1860 C 0.60518 0.70473 0.06046
 C1861 C 0.59072 0.69757 0.06695
 C1862 C 0.57763 0.69267 0.05632
 C1863 C 0.62229 0.71389 0.03559
 C1864 C 0.63346 0.72316 0.04399
 C1865 C 0.64945 0.72898 0.03679
 C1866 C 0.65787 0.74222 0.04458
 C1867 C 0.67349 0.74738 0.03897
 C1868 C 0.68115 0.73934 0.02545
 C1869 C 0.67263 0.72623 0.01748
 C1870 C 0.65701 0.72106 0.02311
 H1871 H 0.56932 0.69157 0.03061
 H1872 H 0.59466 0.70400 0.01918
 H1873 H 0.61519 0.70776 0.06902
 H1874 H 0.58994 0.69546 0.08027
 H1875 H 0.62423 0.71131 0.02248
 H1876 H 0.63076 0.72703 0.05663
 H1877 H 0.65242 0.74846 0.05521
 H1878 H 0.67970 0.75747 0.04546
 H1879 H 0.67822 0.71961 0.00717
 H1880 H 0.65125 0.71049 0.01704
 C1881 C 0.16513 0.06477 0.04896
 C1882 C 0.15065 0.05896 0.04115
 C1883 C 0.14777 0.04187 0.03926
 C1884 C 0.16006 0.03070 0.04468
 C1885 C 0.17453 0.03653 0.05251
 C1886 C 0.17709 0.05359 0.05492
 C1887 C 0.13176 0.03630 0.03184
 C1888 C 0.12495 0.02140 0.03490
 C1889 C 0.10805 0.01654 0.02917
 C1890 C 0.09949 0.00425 0.03808
 C1891 C 0.08319 -0.00010 0.03376
 C1892 C 0.07510 0.00767 0.02031
 C1893 C 0.08390 0.01954 0.01098
 C1894 C 0.10021 0.02388 0.01531
 H1895 H 0.16681 0.07798 0.05075
 H1896 H 0.14147 0.06783 0.03698
 H1897 H 0.15862 0.01747 0.04290
 H1898 H 0.18373 0.02773 0.05680
 H1899 H 0.12474 0.04540 0.02487
 H1900 H 0.13128 0.01289 0.04316
 H1901 H 0.10529 -0.00173 0.04870
 H1902 H 0.07685 -0.00935 0.04118
 H1903 H 0.07812 0.02563 0.00043
 H1904 H 0.10659 0.03296 0.00774
 C1905 C 0.15494 0.57224 0.55347
 C1906 C 0.14020 0.56648 0.54620
 C1907 C 0.13747 0.54944 0.54380
 C1908 C 0.15001 0.53824 0.54854
 C1909 C 0.16482 0.54403 0.55579
 C1910 C 0.16740 0.56108 0.55836
 C1911 C 0.12155 0.54403 0.53607
 C1912 C 0.11491 0.52889 0.53809
 C1913 C 0.09835 0.52422 0.53129
 C1914 C 0.08900 0.51205 0.53952
 C1915 C 0.07299 0.50793 0.53399
 C1916 C 0.06603 0.51580 0.51996
 C1917 C 0.07567 0.52754 0.51134
 C1918 C 0.09167 0.53167 0.51690
 H1919 H 0.15659 0.58543 0.55542
 H1920 H 0.13079 0.57538 0.54259
 H1921 H 0.14860 0.52505 0.54644
 H1922 H 0.17436 0.53524 0.55927
 H1923 H 0.11452 0.55336 0.52943
 H1924 H 0.12109 0.52000 0.54607
 H1925 H 0.09394 0.50599 0.55052
 H1926 H 0.06597 0.49875 0.54088
 H1927 H 0.07080 0.53373 0.50039
 H1928 H 0.09874 0.54067 0.50985
 C1929 C 0.66095 0.06781 0.54910
 C1930 C 0.64594 0.06218 0.54230
 C1931 C 0.64285 0.04515 0.54036
 C1932 C 0.65530 0.03381 0.54500
 C1933 C 0.67036 0.03946 0.55176
 C1934 C 0.67330 0.05651 0.55393
 C1935 C 0.62671 0.03983 0.53310
 C1936 C 0.61985 0.02488 0.53571
 C1937 C 0.60334 0.02011 0.52891
 C1938 C 0.59389 0.00811 0.53730
 C1939 C 0.57807 0.00363 0.53147
 C1940 C 0.57143 0.01099 0.51701
 C1941 C 0.58110 0.02269 0.50838
 C1942 C 0.59690 0.02715 0.51421
 H1943 H 0.66285 0.08100 0.55079
 H1944 H 0.63660 0.07116 0.53874
 H1945 H 0.65360 0.02061 0.54320
 H1946 H 0.67980 0.03056 0.55522
 H1947 H 0.61979 0.04906 0.52620
 H1948 H 0.62593 0.01619 0.54398
 H1949 H 0.59865 0.00238 0.54855
 H1950 H 0.57099 -0.00548 0.53839
 H1951 H 0.57649 0.02847 0.49710
 H1952 H 0.60405 0.03598 0.50704
 C1953 C 0.65980 0.57173 0.04706
 C1954 C 0.64559 0.56536 0.03918
 C1955 C 0.64236 0.54824 0.03904
 C1956 C 0.65406 0.53751 0.04636
 C1957 C 0.66829 0.54390 0.05425
 C1958 C 0.67117 0.56108 0.05492
 C1959 C 0.62668 0.54221 0.03117
 C1960 C 0.61941 0.52769 0.03498
 C1961 C 0.60291 0.52248 0.02832
 C1962 C 0.59353 0.51090 0.03737
 C1963 C 0.57760 0.50623 0.03202
 C1964 C 0.57070 0.51297 0.01738
 C1965 C 0.58034 0.52412 0.00798
 C1966 C 0.59629 0.52876 0.01332
 H1967 H 0.66168 0.58502 0.04739
 H1968 H 0.63689 0.57390 0.03350
 H1969 H 0.65238 0.52421 0.04599
 H1970 H 0.67705 0.53543 0.05992
 H1971 H 0.62032 0.55074 0.02296
 H1972 H 0.62501 0.51983 0.04435
 H1973 H 0.59839 0.50573 0.04886
 H1974 H 0.57057 0.49758 0.03955
 H1975 H 0.57553 0.52940 -0.00347
 H1976 H 0.60333 0.53721 0.00562
 C1977 C 0.04203 0.05804 0.17448
 C1978 C 0.03497 0.05018 0.16056
 C1979 C 0.04501 0.04472 0.14738
 C1980 C 0.06235 0.04717 0.14847
 C1981 C 0.06938 0.05505 0.16239
 C1982 C 0.05927 0.06073 0.17543
 C1983 C 0.03689 0.03769 0.13226
 C1984 C 0.04476 0.02792 0.12129
 C1985 C 0.03714 0.02205 0.10544
 C1986 C 0.04393 0.00811 0.09754
 C1987 C 0.03799 0.00287 0.08197
 C1988 C 0.02517 0.01156 0.07384
 C1989 C 0.01820 0.02540 0.08186
 C1990 C 0.02414 0.03063 0.09745
 H1991 H 0.03401 0.06231 0.18441
 H1992 H 0.02159 0.04856 0.15999
 H1993 H 0.07049 0.04366 0.13836
 H1994 H 0.08268 0.05727 0.16272
 H1995 H 0.02388 0.04055 0.13032
 H1996 H 0.05725 0.02375 0.12406
 H1997 H 0.05404 0.00137 0.10334
 H1998 H 0.04371 -0.00780 0.07616
 H1999 H 0.00842 0.03248 0.07591
 H2000 H 0.01890 0.04173 0.10286
 C2001 C 0.07453 0.56076 0.65294
 C2002 C 0.06785 0.55288 0.63884
 C2003 C 0.05057 0.55209 0.63628
 C2004 C 0.04005 0.55920 0.64834
 C2005 C 0.04675 0.56712 0.66243
 C2006 C 0.06405 0.56793 0.66490
 C2007 C 0.04417 0.54351 0.62109
 C2008 C 0.02884 0.54570 0.61473
 C2009 C 0.02306 0.53780 0.59894
 C2010 C 0.01037 0.54548 0.58973
 C2011 C 0.00513 0.53893 0.57438
 C2012 C 0.01238 0.52443 0.56794
 C2013 C 0.02460 0.51635 0.57752
 C2014 C 0.02985 0.52292 0.59286
 H2015 H 0.08791 0.56138 0.65445
 H2016 H 0.07626 0.54749 0.62982
 H2017 H 0.02666 0.55847 0.64717
 H2018 H 0.03842 0.57241 0.67157
 H2019 H 0.05290 0.53583 0.61437
 H2020 H 0.02054 0.55451 0.62051
 H2021 H 0.00477 0.55684 0.59422
 H2022 H -0.00436 0.54547 0.56741
 H2023 H 0.03036 0.50508 0.57304
 H2024 H 0.03920 0.51627 0.59987
 C2025 C 0.56351 0.03906 0.66115
 C2026 C 0.55941 0.03261 0.64546
 C2027 C 0.54295 0.03292 0.63959
 C2028 C 0.53051 0.03943 0.65003
 C2029 C 0.53462 0.04589 0.66578
 C2030 C 0.55119 0.04592 0.67146
 C2031 C 0.53941 0.02616 0.62265
 C2032 C 0.52602 0.03028 0.61351
 C2033 C 0.52311 0.02438 0.59614
 C2034 C 0.51236 0.03348 0.58584
 C2035 C 0.50935 0.02859 0.56935
 C2036 C 0.51697 0.01436 0.56273
 C2037 C 0.52755 0.00507 0.57311
 C2038 C 0.53053 0.00996 0.58964
 H2039 H 0.57640 0.03893 0.66510
 H2040 H 0.56923 0.02757 0.63776
 H2041 H 0.51758 0.03939 0.64625
 H2042 H 0.52485 0.05081 0.67359
 H2043 H 0.54887 0.01839 0.61718
 H2044 H 0.51729 0.03920 0.61843
 H2045 H 0.50637 0.04456 0.59052
 H2046 H 0.50110 0.03605 0.56176
 H2047 H 0.53349 -0.00605 0.56850
 H2048 H 0.53846 0.00225 0.59728
 C2049 C 0.57258 0.55365 0.15680
 C2050 C 0.56738 0.54593 0.14202
 C2051 C 0.55038 0.54385 0.13842
 C2052 C 0.53865 0.54941 0.15017
 C2053 C 0.54388 0.55719 0.16494
 C2054 C 0.56088 0.55936 0.16842
 C2055 C 0.54553 0.53570 0.12243
 C2056 C 0.53047 0.53727 0.11528
 C2057 C 0.52602 0.53011 0.09873
 C2058 C 0.51283 0.53721 0.08977
 C2059 C 0.50849 0.53133 0.07391
 C2060 C 0.51716 0.51805 0.06663
 C2061 C 0.53004 0.51056 0.07581
 C2062 C 0.53440 0.51648 0.09171
 H2063 H 0.58576 0.55533 0.15910
 H2064 H 0.57669 0.54173 0.13326
 H2065 H 0.52545 0.54761 0.14822
 H2066 H 0.53465 0.56134 0.17381
 H2067 H 0.55517 0.52906 0.11586
 H2068 H 0.52127 0.54510 0.12111
 H2069 H 0.50604 0.54759 0.09493
 H2070 H 0.49844 0.53737 0.06727
 H2071 H 0.53690 0.50024 0.07065
 H2072 H 0.54426 0.51027 0.09842
 C2073 C 0.17869 0.55310 0.59305
 C2074 C 0.18516 0.54572 0.60741
 C2075 C 0.20242 0.54444 0.60981
 C2076 C 0.21312 0.55038 0.59729
 C2077 C 0.20662 0.55774 0.58289
 C2078 C 0.18934 0.55922 0.58064
 C2079 C 0.20859 0.53659 0.62537
 C2080 C 0.22389 0.53903 0.63174
 C2081 C 0.22924 0.53200 0.64799
 C2082 C 0.24152 0.54032 0.65736
 C2083 C 0.24611 0.53465 0.67321
 C2084 C 0.23859 0.52041 0.67997
 C2085 C 0.22686 0.51165 0.67024
 C2086 C 0.22229 0.51733 0.65442
 H2087 H 0.16533 0.55421 0.59171
 H2088 H 0.17663 0.54119 0.61680
 H2089 H 0.22647 0.54918 0.59840
 H2090 H 0.21506 0.56219 0.57340
 H2091 H 0.19966 0.52939 0.63240
 H2092 H 0.23238 0.54748 0.62564
 H2093 H 0.24723 0.55154 0.65261
 H2094 H 0.25523 0.54167 0.68031
 H2095 H 0.22097 0.50052 0.67494
 H2096 H 0.21329 0.51018 0.64730
 C2097 C 0.18406 0.04707 0.09111
 C2098 C 0.18864 0.03996 0.10632
 C2099 C 0.20546 0.03738 0.11025
 C2100 C 0.21763 0.04154 0.09835
 C2101 C 0.21302 0.04869 0.08315
 C2102 C 0.19622 0.05165 0.07945
 C2103 C 0.20972 0.03042 0.12685
 C2104 C 0.22456 0.03272 0.13428
 C2105 C 0.22847 0.02720 0.15149
 C2106 C 0.24160 0.03506 0.16002
 C2107 C 0.24556 0.03069 0.17640
 C2108 C 0.23655 0.01821 0.18465
 C2109 C 0.22363 0.01003 0.17600
 C2110 C 0.21966 0.01442 0.15957
 H2111 H 0.17102 0.04929 0.08855
 H2112 H 0.17902 0.03677 0.11518
 H2113 H 0.23068 0.03919 0.10060
 H2114 H 0.22256 0.05190 0.07420
 H2115 H 0.19981 0.02435 0.13362
 H2116 H 0.23394 0.04009 0.12808
 H2117 H 0.24868 0.04484 0.15408
 H2118 H 0.25563 0.03724 0.18262
 H2119 H 0.21652 0.00027 0.18193
 H2120 H 0.20980 0.00767 0.15327
 C2121 C 0.69118 0.20553 0.66401
 C2122 C 0.69779 0.21273 0.64964
 C2123 C 0.70335 0.20281 0.63638
 C2124 C 0.70216 0.18543 0.63784
 C2125 C 0.69556 0.17825 0.65224
 C2126 C 0.68990 0.18823 0.66540
 C2127 C 0.70938 0.21105 0.62098
 C2128 C 0.71901 0.20358 0.60961
 C2129 C 0.72451 0.21151 0.59386
 C2130 C 0.73814 0.20472 0.58542
 C2131 C 0.74328 0.21117 0.57012
 C2132 C 0.73483 0.22456 0.56280
 C2133 C 0.72124 0.23147 0.57128
 C2134 C 0.71608 0.22499 0.58660
 H2135 H 0.68686 0.21346 0.67401
 H2136 H 0.69844 0.22612 0.64882
 H2137 H 0.70576 0.17730 0.62774
 H2138 H 0.69440 0.16489 0.65293
 H2139 H 0.70606 0.22393 0.61932
 H2140 H 0.72357 0.19121 0.61204
 H2141 H 0.74478 0.19427 0.59064
 H2142 H 0.75377 0.20548 0.56395
 H2143 H 0.71432 0.24165 0.56591
 H2144 H 0.70520 0.23029 0.59239
 C2145 C 0.69422 0.71863 0.17814
 C2146 C 0.70099 0.72603 0.16396
 C2147 C 0.70708 0.71626 0.15083
 C2148 C 0.70640 0.69887 0.15226
 C2149 C 0.69966 0.69149 0.16645
 C2150 C 0.69334 0.70130 0.17942
 C2151 C 0.71282 0.72456 0.13541
 C2152 C 0.72285 0.71728 0.12428
 C2153 C 0.72729 0.72466 0.10799
 C2154 C 0.74095 0.71816 0.09939
 C2155 C 0.74485 0.72371 0.08340
 C2156 C 0.73510 0.73588 0.07556
 C2157 C 0.72158 0.74263 0.08427
 C2158 C 0.71764 0.73703 0.10027
 H2159 H 0.68935 0.72639 0.18801
 H2160 H 0.70122 0.73944 0.16312
 H2161 H 0.71038 0.69085 0.14221
 H2162 H 0.69877 0.67811 0.16703
 H2163 H 0.70867 0.73713 0.13334
 H2164 H 0.72824 0.70535 0.12717
 H2165 H 0.74852 0.70856 0.10498
 H2166 H 0.75539 0.71826 0.07709
 H2167 H 0.71372 0.75190 0.07853
 H2168 H 0.70671 0.74203 0.10621
 C2169 C 0.55127 0.67734 0.09044
 C2170 C 0.54420 0.68194 0.10563
 C2171 C 0.54190 0.69871 0.10967
 C2172 C 0.54723 0.71086 0.09822
 C2173 C 0.55427 0.70623 0.08297
 C2174 C 0.55625 0.68943 0.07889
 C2175 C 0.53437 0.70278 0.12607
 C2176 C 0.52860 0.71779 0.13027
 C2177 C 0.52204 0.72160 0.14708
 C2178 C 0.52442 0.73759 0.15353
 C2179 C 0.51911 0.74155 0.16961
 C2180 C 0.51097 0.72966 0.17948
 C2181 C 0.50795 0.71380 0.17278
 C2182 C 0.51350 0.70977 0.15673
 H2183 H 0.55286 0.66429 0.08768
 H2184 H 0.54042 0.67231 0.11424
 H2185 H 0.54621 0.72394 0.10090
 H2186 H 0.55806 0.71574 0.07426
 H2187 H 0.53370 0.69287 0.13514
 H2188 H 0.52938 0.72798 0.12159
 H2189 H 0.53079 0.74696 0.14627
 H2190 H 0.52145 0.75394 0.17435
 H2191 H 0.50165 0.70442 0.18007
 H2192 H 0.51101 0.69745 0.15190
 C2193 C 0.03301 0.69716 0.57955
 C2194 C 0.02631 0.70321 0.59441
 C2195 C 0.03673 0.70837 0.60756
 C2196 C 0.05409 0.70720 0.60557
 C2197 C 0.06079 0.70112 0.59069
 C2198 C 0.05032 0.69602 0.57752
 C2199 C 0.02905 0.71406 0.62338
 C2200 C 0.03689 0.72392 0.63444
 C2201 C 0.02955 0.72926 0.65054
 C2202 C 0.03631 0.74322 0.65860
 C2203 C 0.03048 0.74822 0.67422
 C2204 C 0.01779 0.73926 0.68225
 C2205 C 0.01089 0.72534 0.67412
 C2206 C 0.01673 0.72035 0.65847
 H2207 H 0.02467 0.69327 0.56961
 H2208 H 0.01291 0.70384 0.59566
 H2209 H 0.06256 0.71046 0.61560
 H2210 H 0.07415 0.69999 0.58964
 H2211 H 0.01628 0.71041 0.62558
 H2212 H 0.04907 0.72881 0.63145
 H2213 H 0.04626 0.75024 0.65286
 H2214 H 0.03617 0.75895 0.68011
 H2215 H 0.00123 0.71805 0.68001
 H2216 H 0.01151 0.70923 0.65295
 C2217 C 0.55814 0.59644 0.17867
 C2218 C 0.55166 0.61144 0.18442
 C2219 C 0.54454 0.61252 0.20035
 C2220 C 0.54405 0.59832 0.21049
 C2221 C 0.55091 0.58341 0.20487
 C2222 C 0.55804 0.58241 0.18895
 C2223 C 0.53889 0.62882 0.20654
 C2224 C 0.52558 0.63069 0.21634
 C2225 C 0.52038 0.64721 0.22232
 C2226 C 0.50351 0.65155 0.22196
 C2227 C 0.49852 0.66743 0.22689
 C2228 C 0.51029 0.67900 0.23281
 C2229 C 0.52709 0.67439 0.23378
 C2230 C 0.53212 0.65870 0.22843
 H2231 H 0.56379 0.59586 0.16644
 H2232 H 0.55230 0.62227 0.17648
 H2233 H 0.53896 0.59889 0.22296
 H2234 H 0.55091 0.57269 0.21296
 H2235 H 0.54554 0.63973 0.20228
 H2236 H 0.51780 0.62009 0.21922
 H2237 H 0.49426 0.64281 0.21740
 H2238 H 0.48548 0.67069 0.22605
 H2239 H 0.53643 0.68311 0.23820
 H2240 H 0.54518 0.65552 0.22910
 C2241 C 0.06434 0.60542 0.67438
 C2242 C 0.05880 0.62083 0.68009
 C2243 C 0.05240 0.62252 0.69628
 C2244 C 0.05180 0.60856 0.70675
 C2245 C 0.05773 0.59325 0.70115
 C2246 C 0.06402 0.59160 0.68494
 C2247 C 0.04734 0.63909 0.70226
 C2248 C 0.03427 0.64137 0.71230
 C2249 C 0.02934 0.65802 0.71816
 C2250 C 0.01242 0.66207 0.71899
 C2251 C 0.00749 0.67779 0.72440
 C2252 C 0.01940 0.68953 0.72963
 C2253 C 0.03633 0.68533 0.72919
 C2254 C 0.04128 0.66977 0.72335
 H2255 H 0.06935 0.60433 0.66190
 H2256 H 0.05950 0.63145 0.67188
 H2257 H 0.04726 0.60960 0.71941
 H2258 H 0.05755 0.58269 0.70946
 H2259 H 0.05408 0.64977 0.69760
 H2260 H 0.02642 0.63093 0.71555
 H2261 H 0.00303 0.65314 0.71516
 H2262 H -0.00565 0.68072 0.72471
 H2263 H 0.04576 0.69419 0.73311
 H2264 H 0.05441 0.66683 0.72313
 C2265 C 0.04650 0.16393 0.06070
 C2266 C 0.03901 0.14923 0.05507
 C2267 C 0.04870 0.13606 0.04907
 C2268 C 0.06613 0.13791 0.04894
 C2269 C 0.07361 0.15261 0.05457
 C2270 C 0.06390 0.16574 0.06066
 C2271 C 0.04025 0.12039 0.04390
 C2272 C 0.04712 0.10914 0.03365
 C2273 C 0.03919 0.09307 0.02896
 C2274 C 0.04537 0.08442 0.01509
 C2275 C 0.03909 0.06878 0.01076
 C2276 C 0.02647 0.06130 0.02027
 C2277 C 0.02010 0.07004 0.03404
 C2278 C 0.02640 0.08569 0.03839
 H2279 H 0.03871 0.17391 0.06515
 H2280 H 0.02558 0.14814 0.05541
 H2281 H 0.07413 0.12792 0.04495
 H2282 H 0.08704 0.15356 0.05456
 H2283 H 0.02773 0.11843 0.04838
 H2284 H 0.05903 0.11187 0.02802
 H2285 H 0.05527 0.08971 0.00765
 H2286 H 0.04436 0.06245 0.00009
 H2287 H 0.01050 0.06461 0.04176
 H2288 H 0.02156 0.09164 0.04944
 C2289 C 0.04272 0.67551 0.53880
 C2290 C 0.03570 0.66141 0.53133
 C2291 C 0.03558 0.64625 0.53988
 C2292 C 0.04185 0.64556 0.55628
 C2293 C 0.04845 0.65974 0.56387
 C2294 C 0.04915 0.67471 0.55508
 C2295 C 0.02886 0.63128 0.53162
 C2296 C 0.03674 0.61674 0.53264
 C2297 C 0.03022 0.60132 0.52504
 C2298 C 0.04146 0.58943 0.51920
 C2299 C 0.03575 0.57410 0.51331
 C2300 C 0.01870 0.57024 0.51360
 C2301 C 0.00740 0.58224 0.51924
 C2302 C 0.01310 0.59771 0.52479
 H2303 H 0.04322 0.68704 0.53193
 H2304 H 0.03082 0.66219 0.51873
 H2305 H 0.04159 0.63405 0.56321
 H2306 H 0.05343 0.65901 0.57643
 H2307 H 0.01780 0.63244 0.52393
 H2308 H 0.04872 0.61617 0.53890
 H2309 H 0.05472 0.59193 0.51943
 H2310 H 0.04474 0.56500 0.50923
 H2311 H -0.00580 0.57953 0.51967
 H2312 H 0.00417 0.60654 0.52956
 C2313 C 0.55399 0.15414 0.56542
 C2314 C 0.54707 0.13906 0.56030
 C2315 C 0.54555 0.13520 0.54327
 C2316 C 0.55079 0.14694 0.53140
 C2317 C 0.55774 0.16205 0.53655
 C2318 C 0.55941 0.16575 0.55359
 C2319 C 0.53827 0.11893 0.53852
 C2320 C 0.54112 0.11151 0.52382
 C2321 C 0.53484 0.09472 0.51956
 C2322 C 0.52067 0.08772 0.52709
 C2323 C 0.51544 0.07168 0.52284
 C2324 C 0.52417 0.06238 0.51091
 C2325 C 0.53811 0.06956 0.50317
 C2326 C 0.54332 0.08555 0.50741
 H2327 H 0.55522 0.15675 0.57864
 H2328 H 0.54305 0.13030 0.56970
 H2329 H 0.54933 0.14470 0.51815
 H2330 H 0.56164 0.17097 0.52726
 H2331 H 0.53128 0.11243 0.54799
 H2332 H 0.54939 0.11732 0.51495
 H2333 H 0.51346 0.09459 0.53610
 H2334 H 0.50457 0.06659 0.52892
 H2335 H 0.54511 0.06280 0.49387
 H2336 H 0.55418 0.09070 0.50132
 C2337 C 0.53839 0.66911 0.05270
 C2338 C 0.53124 0.65482 0.04580
 C2339 C 0.54127 0.64174 0.04023
 C2340 C 0.55869 0.64335 0.04155
 C2341 C 0.56583 0.65767 0.04844
 C2342 C 0.55574 0.67056 0.05427
 C2343 C 0.53310 0.62624 0.03436
 C2344 C 0.54072 0.61487 0.02490
 C2345 C 0.53316 0.59869 0.02021
 C2346 C 0.54001 0.58988 0.00680
 C2347 C 0.53421 0.57404 0.00270
 C2348 C 0.52144 0.56656 0.01200
 C2349 C 0.51436 0.57548 0.02527
 C2350 C 0.52019 0.59134 0.02939
 H2351 H 0.53040 0.67893 0.05715
 H2352 H 0.51781 0.65388 0.04505
 H2353 H 0.56689 0.63339 0.03795
 H2354 H 0.57922 0.65842 0.04982
 H2355 H 0.52025 0.62436 0.03788
 H2356 H 0.55300 0.61748 0.02008
 H2357 H 0.55008 0.59519 -0.00040
 H2358 H 0.53997 0.56756 -0.00760
 H2359 H 0.50462 0.57002 0.03280
 H2360 H 0.51489 0.59745 0.04014
 C2361 C 0.70200 0.08953 0.56657
 C2362 C 0.70889 0.10432 0.56080
 C2363 C 0.71008 0.10740 0.54362
 C2364 C 0.70468 0.09513 0.53226
 C2365 C 0.69783 0.08028 0.53806
 C2366 C 0.69633 0.07740 0.55526
 C2367 C 0.71724 0.12340 0.53816
 C2368 C 0.71379 0.13040 0.52338
 C2369 C 0.72025 0.14693 0.51866
 C2370 C 0.71111 0.15661 0.50739
 C2371 C 0.71651 0.17256 0.50320
 C2372 C 0.73127 0.17907 0.51012
 C2373 C 0.74069 0.16914 0.52100
 C2374 C 0.73530 0.15323 0.52515
 H2375 H 0.70085 0.08764 0.57990
 H2376 H 0.71306 0.11352 0.56980
 H2377 H 0.70589 0.09683 0.51893
 H2378 H 0.69371 0.07099 0.52915
 H2379 H 0.72469 0.13014 0.54722
 H2380 H 0.70500 0.12449 0.51495
 H2381 H 0.69956 0.15196 0.50209
 H2382 H 0.70899 0.17985 0.49473
 H2383 H 0.75224 0.17367 0.52637
 H2384 H 0.74303 0.14590 0.53336
 C2385 C 0.70150 0.58216 0.04228
 C2386 C 0.70935 0.59646 0.03628
 C2387 C 0.70898 0.61124 0.04557
 C2388 C 0.70118 0.61134 0.06125
 C2389 C 0.69369 0.59695 0.06740
 C2390 C 0.69364 0.58234 0.05787
 C2391 C 0.71677 0.62641 0.03878
 C2392 C 0.70940 0.64121 0.04009
 C2393 C 0.71654 0.65660 0.03313
 C2394 C 0.70574 0.66856 0.02661
 C2395 C 0.71190 0.68370 0.02088
 C2396 C 0.72897 0.68740 0.02200
 C2397 C 0.73984 0.67541 0.02851
 C2398 C 0.73370 0.66005 0.03387
 H2399 H 0.70159 0.57092 0.03485
 H2400 H 0.71538 0.59611 0.02422
 H2401 H 0.70099 0.62250 0.06879
 H2402 H 0.68767 0.59723 0.07945
 H2403 H 0.72813 0.62520 0.03166
 H2404 H 0.69717 0.64196 0.04567
 H2405 H 0.69247 0.66621 0.02605
 H2406 H 0.70319 0.69279 0.01615
 H2407 H 0.75303 0.67800 0.02962
 H2408 H 0.74226 0.65114 0.03915
 C2409 C 0.19405 0.67174 0.71662
 C2410 C 0.20098 0.65769 0.72405
 C2411 C 0.20761 0.64494 0.71420
 C2412 C 0.20734 0.64662 0.69671
 C2413 C 0.20040 0.66064 0.68930
 C2414 C 0.19341 0.67323 0.69915
 C2415 C 0.21350 0.62960 0.72247
 C2416 C 0.22417 0.61903 0.71533
 C2417 C 0.22881 0.60279 0.72258
 C2418 C 0.24309 0.59488 0.71657
 C2419 C 0.24717 0.57892 0.72185
 C2420 C 0.23698 0.57040 0.73321
 C2421 C 0.22285 0.57845 0.73953
 C2422 C 0.21876 0.59444 0.73423
 H2423 H 0.18888 0.68133 0.72451
 H2424 H 0.20095 0.65668 0.73754
 H2425 H 0.21181 0.63687 0.68862
 H2426 H 0.19992 0.66132 0.67581
 H2427 H 0.20891 0.62713 0.73489
 H2428 H 0.22995 0.62235 0.70363
 H2429 H 0.25099 0.60096 0.70752
 H2430 H 0.25815 0.57313 0.71670
 H2431 H 0.21464 0.57221 0.74818
 H2432 H 0.20738 0.59986 0.73883
 C2433 C 0.17787 0.15705 0.19587
 C2434 C 0.18361 0.14248 0.20324
 C2435 C 0.20072 0.13961 0.20514
 C2436 C 0.21203 0.15185 0.19978
 C2437 C 0.20627 0.16645 0.19240
 C2438 C 0.18915 0.16917 0.19034
 C2439 C 0.20612 0.12391 0.21305
 C2440 C 0.22129 0.11732 0.21112
 C2441 C 0.22619 0.10119 0.21847
 C2442 C 0.23903 0.09217 0.21094
 C2443 C 0.24372 0.07671 0.21719
 C2444 C 0.23574 0.06998 0.23123
 C2445 C 0.22319 0.07924 0.23905
 C2446 C 0.21852 0.09470 0.23280
 H2447 H 0.16461 0.15880 0.19433
 H2448 H 0.17462 0.13332 0.20733
 H2449 H 0.22530 0.15040 0.20149
 H2450 H 0.21517 0.17573 0.18843
 H2451 H 0.19678 0.11709 0.21992
 H2452 H 0.23017 0.12330 0.20299
 H2453 H 0.24526 0.09696 0.20000
 H2454 H 0.25347 0.06995 0.21087
 H2455 H 0.21690 0.07453 0.24999
 H2456 H 0.20901 0.10152 0.23935
 C2457 C 0.70631 1.16475 0.68937
 C2458 C 0.71317 1.15040 0.69628
 C2459 C 0.70290 1.13736 0.70166
 C2460 C 0.68553 1.13898 0.69989
 C2461 C 0.67869 1.15333 0.69297
 C2462 C 0.68900 1.16634 0.68755
 C2463 C 0.71079 1.12201 0.70809
 C2464 C 0.70292 1.11090 0.71773
 C2465 C 0.71047 1.09507 0.72339
 C2466 C 0.70333 1.08674 0.73697
 C2467 C 0.70932 1.07130 0.74207
 C2468 C 0.72257 1.06372 0.73361
 C2469 C 0.72987 1.07215 0.72013
 C2470 C 0.72387 1.08759 0.71503
 H2471 H 0.71453 1.17461 0.68535
 H2472 H 0.72657 1.14946 0.69736
 H2473 H 0.67717 1.12904 0.70333
 H2474 H 0.66533 1.15410 0.69144
 H2475 H 0.72374 1.12013 0.70504
 H2476 H 0.69047 1.11354 0.72205
 H2477 H 0.69292 1.09213 0.74357
 H2478 H 0.70333 1.06517 0.75245
 H2479 H 0.73998 1.06664 0.71320
 H2480 H 0.72944 1.09327 0.70419
 C2481 C 0.70879 0.67768 0.20394
 C2482 C 0.71556 0.66294 0.20998
 C2483 C 0.70535 0.64916 0.21317
 C2484 C 0.68809 0.65051 0.21032
 C2485 C 0.68133 0.66528 0.20430
 C2486 C 0.69163 0.67895 0.20087
 C2487 C 0.71328 0.63340 0.21835
 C2488 C 0.70506 0.62090 0.22569
 C2489 C 0.71287 0.60482 0.22995
 C2490 C 0.70547 0.59491 0.24223
 C2491 C 0.71203 0.57938 0.24617
 C2492 C 0.72610 0.57333 0.23779
 C2493 C 0.73348 0.58324 0.22543
 C2494 C 0.72692 0.59878 0.22150
 H2495 H 0.71696 0.68807 0.20139
 H2496 H 0.72888 0.66223 0.21196
 H2497 H 0.67981 0.64008 0.21208
 H2498 H 0.66811 0.66584 0.20174
 H2499 H 0.72652 0.63231 0.21628
 H2500 H 0.69220 0.62253 0.22923
 H2501 H 0.69454 0.59918 0.24879
 H2502 H 0.70595 0.57207 0.25569
 H2503 H 0.74421 0.57891 0.21859
 H2504 H 0.73266 0.60575 0.21155
 C2505 C 0.54492 0.07013 0.71067
 C2506 C 0.53926 0.08528 0.71687
 C2507 C 0.53645 0.09866 0.70609
 C2508 C 0.53932 0.09651 0.68887
 C2509 C 0.54497 0.08133 0.68268
 C2510 C 0.54796 0.06803 0.69354
 C2511 C 0.53155 0.11484 0.71338
 C2512 C 0.52397 0.12678 0.70462
 C2513 C 0.51954 0.14320 0.71166
 C2514 C 0.50714 0.15241 0.70362
 C2515 C 0.50305 0.16825 0.70923
 C2516 C 0.51139 0.17540 0.72299
 C2517 C 0.52378 0.16616 0.73114
 C2518 C 0.52786 0.15024 0.72552
 H2519 H 0.54724 0.06007 0.71928
 H2520 H 0.53728 0.08661 0.73017
 H2521 H 0.53786 0.10664 0.68018
 H2522 H 0.54764 0.08016 0.66950
 H2523 H 0.53388 0.11668 0.72658
 H2524 H 0.52024 0.12435 0.69184
 H2525 H 0.50063 0.14735 0.69286
 H2526 H 0.49347 0.17498 0.70259
 H2527 H 0.53055 0.17133 0.74167
 H2528 H 0.53784 0.14375 0.73177
 C2529 C 1.05201 0.09634 0.18231
 C2530 C 1.04434 0.11103 0.18725
 C2531 C 1.04289 0.11514 0.20423
 C2532 C 1.04948 0.10417 0.21622
 C2533 C 1.05713 0.08943 0.21125
 C2534 C 1.05845 0.08537 0.19426
 C2535 C 1.03507 0.13121 0.20861
 C2536 C 1.03058 0.13569 0.22409
 C2537 C 1.02409 0.15239 0.22800
 C2538 C 1.02778 0.15941 0.24363
 C2539 C 1.02297 0.17560 0.24735
 C2540 C 1.01407 0.18504 0.23561
 C2541 C 1.00961 0.17771 0.22028
 C2542 C 1.01459 0.16155 0.21649
 H2543 H 1.05306 0.09359 0.16912
 H2544 H 1.03955 0.11927 0.17773
 H2545 H 1.04907 0.10689 0.22942
 H2546 H 1.06204 0.08114 0.22066
 H2547 H 1.03329 0.13993 0.19851
 H2548 H 1.03256 0.12743 0.23450
 H2549 H 1.03491 0.15253 0.25277
 H2550 H 1.02646 0.18083 0.25935
 H2551 H 1.00271 0.18463 0.21100
 H2552 H 1.01104 0.15630 0.20453
 C2553 C 0.19211 0.58426 0.54229
 C2554 C 0.19811 0.59925 0.53600
 C2555 C 0.20240 0.61234 0.54681
 C2556 C 0.20068 0.61003 0.56416
 C2557 C 0.19473 0.59499 0.57043
 C2558 C 0.19022 0.58205 0.55955
 C2559 C 0.20760 0.62840 0.53946
 C2560 C 0.21584 0.64022 0.54798
 C2561 C 0.22040 0.65654 0.54081
 C2562 C 0.23329 0.66567 0.54837
 C2563 C 0.23765 0.68135 0.54245
 C2564 C 0.22911 0.68836 0.52883
 C2565 C 0.21613 0.67926 0.52128
 C2566 C 0.21178 0.66355 0.52722
 H2567 H 0.18867 0.57442 0.53369
 H2568 H 0.19920 0.60071 0.52260
 H2569 H 0.20331 0.61991 0.57294
 H2570 H 0.19306 0.59365 0.58377
 H2571 H 0.20483 0.63027 0.52637
 H2572 H 0.22000 0.63780 0.56060
 H2573 H 0.24002 0.66065 0.55895
 H2574 H 0.24764 0.68802 0.54866
 H2575 H 0.20917 0.68435 0.51090
 H2576 H 0.20139 0.65720 0.52138
 C2577 C 0.20508 0.08648 1.06998
 C2578 C 0.21281 0.10103 1.06454
 C2579 C 0.21570 0.10369 1.04749
 C2580 C 0.21124 0.09117 1.03599
 C2581 C 0.20349 0.07662 1.04144
 C2582 C 0.20019 0.07421 1.05846
 C2583 C 0.22336 0.11961 1.04230
 C2584 C 0.22149 0.12606 1.02698
 C2585 C 0.22791 0.14265 1.02221
 C2586 C 0.22031 0.15089 1.00881
 C2587 C 0.22553 0.16677 1.00421
 C2588 C 0.23860 0.17474 1.01284
 C2589 C 0.24654 0.16629 1.02596
 C2590 C 0.24132 0.15039 1.03055
 H2591 H 0.20260 0.08496 1.08316
 H2592 H 0.21623 0.11039 1.07368
 H2593 H 0.21378 0.09244 1.02281
 H2594 H 0.20006 0.06720 1.03239
 H2595 H 0.22966 0.12677 1.05190
 H2596 H 0.21387 0.11961 1.01785
 H2597 H 0.21006 0.14517 1.00208
 H2598 H 0.21913 0.17287 0.99402
 H2599 H 0.25674 0.17199 1.03279
 H2600 H 0.24790 0.14424 1.04056
 C2601 C 0.18078 0.68888 0.66117
 C2602 C 0.18583 0.69448 0.64552
 C2603 C 0.19990 0.70469 0.64403
 C2604 C 0.20911 0.70893 0.65842
 C2605 C 0.20428 0.70296 0.67405
 C2606 C 0.19005 0.69299 0.67547
 C2607 C 0.20517 0.70999 0.62726
 C2608 C 0.21167 0.72499 0.62422
 C2609 C 0.21693 0.72988 0.60729
 C2610 C 0.21424 0.74613 0.60173
 C2611 C 0.21894 0.75083 0.58561
 C2612 C 0.22685 0.73945 0.57501
 C2613 C 0.22986 0.72329 0.58077
 C2614 C 0.22488 0.71853 0.59670
 H2615 H 0.16981 0.68112 0.66219
 H2616 H 0.17866 0.69096 0.63457
 H2617 H 0.22023 0.71649 0.65754
 H2618 H 0.21151 0.70615 0.68505
 H2619 H 0.20283 0.70155 0.61694
 H2620 H 0.21238 0.73414 0.63414
 H2621 H 0.20824 0.75510 0.60977
 H2622 H 0.21655 0.76338 0.58150
 H2623 H 0.23589 0.71423 0.57285
 H2624 H 0.22744 0.70602 0.60081
 C2625 C 0.19350 0.20781 1.16601
 C2626 C 0.20007 0.21422 1.15125
 C2627 C 0.20462 0.20363 1.13813
 C2628 C 0.20249 0.18639 1.14011
 C2629 C 0.19593 0.18000 1.15489
 C2630 C 0.19124 0.19066 1.16790
 C2631 C 0.21060 0.21106 1.12234
 C2632 C 0.21962 0.20275 1.11106
 C2633 C 0.22515 0.20997 1.09501
 C2634 C 0.23875 0.20280 1.08690
 C2635 C 0.24403 0.20874 1.07145
 C2636 C 0.23572 0.22195 1.06365
 C2637 C 0.22204 0.22914 1.07176
 C2638 C 0.21677 0.22319 1.08725
 H2639 H 0.18995 0.21624 1.17590
 H2640 H 0.20148 0.22753 1.15003
 H2641 H 0.20529 0.17781 1.13013
 H2642 H 0.19398 0.16675 1.15596
 H2643 H 0.20784 0.22401 1.12028
 H2644 H 0.22373 0.19030 1.11384
 H2645 H 0.24532 0.19251 1.09251
 H2646 H 0.25456 0.20281 1.06555
 H2647 H 0.21524 0.23920 1.06603
 H2648 H 0.20589 0.22871 1.09282
 C2649 C 0.67828 0.55568 0.09145
 C2650 C 0.68311 0.54928 0.10691
 C2651 C 0.70001 0.54814 0.11125
 C2652 C 0.71203 0.55321 0.09957
 C2653 C 0.70718 0.55962 0.08411
 C2654 C 0.69027 0.56092 0.07988
 C2655 C 0.70454 0.54135 0.12786
 C2656 C 0.71902 0.54474 0.13560
 C2657 C 0.72342 0.53856 0.15249
 C2658 C 0.73560 0.54714 0.16171
 C2659 C 0.74021 0.54183 0.17765
 C2660 C 0.73284 0.52767 0.18473
 C2661 C 0.72079 0.51891 0.17540
 C2662 C 0.71616 0.52425 0.15943
 H2663 H 0.66515 0.55671 0.08857
 H2664 H 0.67360 0.54539 0.11562
 H2665 H 0.72519 0.55203 0.10216
 H2666 H 0.71665 0.56340 0.07532
 H2667 H 0.69516 0.53415 0.13425
 H2668 H 0.72773 0.55321 0.12985
 H2669 H 0.74149 0.55811 0.15662
 H2670 H 0.74956 0.54889 0.18442
 H2671 H 0.71492 0.50790 0.18041
 H2672 H 0.70710 0.51697 0.15254
 C2673 C 0.71273 1.05222 0.57760
 C2674 C 0.71939 1.04561 0.59227
 C2675 C 0.70894 1.04080 0.60538
 C2676 C 0.69162 1.04272 0.60352
 C2677 C 0.68498 1.04934 0.58887
 C2678 C 0.69547 1.05428 0.57583
 C2679 C 0.71652 1.03493 0.62117
 C2680 C 0.70836 1.02540 0.63212
 C2681 C 0.71524 1.02055 0.64857
 C2682 C 0.70825 1.00685 0.65670
 C2683 C 0.71346 1.00252 0.67274
 C2684 C 0.72573 1.01191 0.68111
 C2685 C 0.73290 1.02553 0.67289
 C2686 C 0.72769 1.02986 0.65681
 H2687 H 0.72103 1.05598 0.56769
 H2688 H 0.73276 1.04440 0.59345
 H2689 H 0.68317 1.03973 0.61354
 H2690 H 0.67167 1.05114 0.58791
 H2691 H 0.72933 1.03839 0.62360
 H2692 H 0.69615 1.02062 0.62888
 H2693 H 0.69855 0.99957 0.65070
 H2694 H 0.70760 0.99198 0.67869
 H2695 H 0.74228 1.03312 0.67901
 H2696 H 0.73304 1.04081 0.65119
 C2697 C 0.54087 0.19188 0.57214
 C2698 C 0.53265 0.19852 0.58592
 C2699 C 0.54165 0.20394 0.59998
 C2700 C 0.55916 0.20290 0.59981
 C2701 C 0.56736 0.19623 0.58599
 C2702 C 0.55827 0.19039 0.57217
 C2703 C 0.53234 0.20929 0.61498
 C2704 C 0.53894 0.21893 0.62697
 C2705 C 0.53024 0.22320 0.64267
 C2706 C 0.53580 0.23705 0.65174
 C2707 C 0.52903 0.24079 0.66730
 C2708 C 0.51660 0.23066 0.67428
 C2709 C 0.51073 0.21697 0.66504
 C2710 C 0.51751 0.21323 0.64941
 H2711 H 0.53362 0.18743 0.56159
 H2712 H 0.51919 0.19910 0.58575
 H2713 H 0.56655 0.20646 0.61056
 H2714 H 0.58075 0.19490 0.58641
 H2715 H 0.51952 0.20526 0.61596
 H2716 H 0.55119 0.22424 0.62521
 H2717 H 0.54563 0.24488 0.64690
 H2718 H 0.53388 0.25146 0.67401
 H2719 H 0.50128 0.20883 0.67011
 H2720 H 0.51319 0.20218 0.64303
 C2721 C 1.06612 0.20655 0.08279
 C2722 C 1.06023 0.21471 0.09700
 C2723 C 1.05349 0.20573 0.11037
 C2724 C 1.05315 0.18829 0.10936
 C2725 C 1.05909 0.18013 0.09515
 C2726 C 1.06552 0.18916 0.08164
 C2727 C 1.04761 0.21493 0.12533
 C2728 C 1.03628 0.20886 0.13599
 C2729 C 1.03046 0.21773 0.15119
 C2730 C 1.01569 0.21235 0.15877
 C2731 C 1.01020 0.21953 0.17365
 C2732 C 1.01942 0.23228 0.18145
 C2733 C 1.03408 0.23789 0.17373
 C2734 C 1.03958 0.23068 0.15882
 H2735 H 1.07103 0.21385 0.07262
 H2736 H 1.06082 0.22812 0.09750
 H2737 H 1.04866 0.18086 0.11962
 H2738 H 1.05888 0.16671 0.09481
 H2739 H 1.05233 0.22740 0.12708
 H2740 H 1.03052 0.19699 0.13330
 H2741 H 1.00844 0.20236 0.15326
 H2742 H 0.99889 0.21482 0.17923
 H2743 H 1.04160 0.24754 0.17945
 H2744 H 1.05125 0.23495 0.15371
 C2745 C 0.65400 0.19211 0.67391
 C2746 C 0.63908 0.19902 0.67932
 C2747 C 0.63607 0.20149 0.69640
 C2748 C 0.64850 0.19700 0.70800
 C2749 C 0.66345 0.19005 0.70256
 C2750 C 0.66635 0.18758 0.68547
 C2751 C 0.62003 0.20905 0.70137
 C2752 C 0.61355 0.20794 0.71674
 C2753 C 0.59693 0.21458 0.72110
 C2754 C 0.58823 0.20731 0.73434
 C2755 C 0.57223 0.21263 0.73841
 C2756 C 0.56460 0.22550 0.72940
 C2757 C 0.57357 0.23322 0.71653
 C2758 C 0.58958 0.22786 0.71245
 H2759 H 0.65593 0.19026 0.66067
 H2760 H 0.62979 0.20240 0.67010
 H2761 H 0.64695 0.19912 0.72124
 H2762 H 0.67292 0.18685 0.71165
 H2763 H 0.61283 0.21488 0.69158
 H2764 H 0.61995 0.20085 0.72622
 H2765 H 0.59367 0.19720 0.74134
 H2766 H 0.56577 0.20646 0.74847
 H2767 H 0.56815 0.24326 0.70944
 H2768 H 0.59612 0.23420 0.70256
 C2769 C 1.15596 0.19729 0.17742
 C2770 C 1.14154 0.20487 0.18324
 C2771 C 1.13906 0.20728 0.20040
 C2772 C 1.15154 0.20222 0.21168
 C2773 C 1.16600 0.19463 0.20583
 C2774 C 1.16831 0.19207 0.18866
 C2775 C 1.12348 0.21535 0.20586
 C2776 C 1.11713 0.21386 0.22124
 C2777 C 1.10090 0.22108 0.22598
 C2778 C 1.09172 0.21358 0.23877
 C2779 C 1.07598 0.21951 0.24300
 C2780 C 1.06913 0.23317 0.23458
 C2781 C 1.07863 0.24108 0.22222
 C2782 C 1.09436 0.23516 0.21802
 H2783 H 1.15745 0.19535 0.16413
 H2784 H 1.13219 0.20871 0.17428
 H2785 H 1.15037 0.20432 0.22496
 H2786 H 1.17549 0.19088 0.21467
 H2787 H 1.11644 0.22185 0.19638
 H2788 H 1.12326 0.20606 0.23033
 H2789 H 1.09656 0.20284 0.24523
 H2790 H 1.06906 0.21316 0.25265
 H2791 H 1.07385 0.25177 0.21564
 H2792 H 1.10133 0.24170 0.20856
 C2793 C 0.08454 0.68281 0.55001
 C2794 C 0.09985 0.68801 0.54376
 C2795 C 0.10399 0.70492 0.54322
 C2796 C 0.09222 0.71660 0.54873
 C2797 C 0.07687 0.71136 0.55503
 C2798 C 0.07292 0.69441 0.55584
 C2799 C 0.12057 0.70968 0.53666
 C2800 C 0.12806 0.72422 0.54001
 C2801 C 0.14512 0.72847 0.53437
 C2802 C 0.15389 0.74094 0.54296
 C2803 C 0.17005 0.74525 0.53833
 C2804 C 0.17786 0.73722 0.52489
 C2805 C 0.16900 0.72490 0.51608
 C2806 C 0.15278 0.72062 0.52069
 H2807 H 0.08187 0.66965 0.55052
 H2808 H 0.10860 0.67876 0.53950
 H2809 H 0.09464 0.72977 0.54801
 H2810 H 0.06798 0.72053 0.55916
 H2811 H 0.12721 0.70030 0.52973
 H2812 H 0.12203 0.73304 0.54815
 H2813 H 0.14827 0.74728 0.55345
 H2814 H 0.17646 0.75483 0.54540
 H2815 H 0.17456 0.71859 0.50555
 H2816 H 0.14630 0.71134 0.51335
 C2817 C 0.08474 0.19494 1.04314
 C2818 C 0.09880 0.20160 1.03534
 C2819 C 0.11460 0.20006 1.04272
 C2820 C 0.11605 0.19210 1.05826
 C2821 C 0.10192 0.18584 1.06625
 C2822 C 0.08622 0.18714 1.05869
 C2823 C 0.12926 0.20748 1.03442
 C2824 C 0.14413 0.20005 1.03432
 C2825 C 0.15903 0.20749 1.02647
 C2826 C 0.17081 0.19709 1.01898
 C2827 C 0.18555 0.20364 1.01249
 C2828 C 0.18904 0.22068 1.01380
 C2829 C 0.17722 0.23113 1.02123
 C2830 C 0.16228 0.22462 1.02736
 H2831 H 0.07265 0.19610 1.03725
 H2832 H 0.09738 0.20781 1.02345
 H2833 H 0.12802 0.19106 1.06441
 H2834 H 0.10317 0.17990 1.07829
 H2835 H 0.12754 0.21893 1.02761
 H2836 H 0.14535 0.18778 1.03965
 H2837 H 0.16864 0.18384 1.01830
 H2838 H 0.19454 0.19526 1.00705
 H2839 H 0.17964 0.24429 1.02250
 H2840 H 0.15359 0.23290 1.03338
 C2841 C 0.59214 0.57339 0.19946
 C2842 C 0.60657 0.56803 0.20753
 C2843 C 0.61010 0.55106 0.20888
 C2844 C 0.59850 0.53949 0.20250
 C2845 C 0.58403 0.54488 0.19444
 C2846 C 0.58080 0.56188 0.19263
 C2847 C 0.62593 0.54607 0.21701
 C2848 C 0.63347 0.53154 0.21409
 C2849 C 0.65008 0.52728 0.22097
 C2850 C 0.65970 0.51548 0.21253
 C2851 C 0.67569 0.51156 0.21813
 C2852 C 0.68242 0.51928 0.23244
 C2853 C 0.67259 0.53072 0.24121
 C2854 C 0.65658 0.53463 0.23560
 H2855 H 0.59001 0.58658 0.19824
 H2856 H 0.61520 0.57720 0.21244
 H2857 H 0.60044 0.52630 0.20381
 H2858 H 0.57532 0.53577 0.18958
 H2859 H 0.63216 0.55533 0.22461
 H2860 H 0.62799 0.52289 0.20527
 H2861 H 0.65496 0.50951 0.20133
 H2862 H 0.68287 0.50265 0.21107
 H2863 H 0.67729 0.53679 0.25237
 H2864 H 0.64936 0.54334 0.24282
 C2865 C 0.56952 1.03067 0.70314
 C2866 C 0.58356 1.02453 0.71144
 C2867 C 0.59804 1.03423 0.71271
 C2868 C 0.59808 1.05041 0.70627
 C2869 C 0.58396 1.05664 0.69833
 C2870 C 0.56970 1.04673 0.69651
 C2871 C 0.61319 1.02727 0.72038
 C2872 C 0.62799 1.02920 0.71307
 C2873 C 0.64348 1.02217 0.71985
 C2874 C 0.65527 1.01597 0.70867
 C2875 C 0.67059 1.01030 0.71446
 C2876 C 0.67461 1.01119 0.73154
 C2877 C 0.66279 1.01736 0.74280
 C2878 C 0.64722 1.02263 0.73701
 H2879 H 0.55853 1.02295 0.70184
 H2880 H 0.58330 1.01205 0.71639
 H2881 H 0.60904 1.05821 0.70734
 H2882 H 0.58422 1.06907 0.69325
 H2883 H 0.61201 1.01958 0.73137
 H2884 H 0.62867 1.03539 0.70110
 H2885 H 0.65266 1.01565 0.69538
 H2886 H 0.67956 1.00583 0.70548
 H2887 H 0.66566 1.01825 0.75600
 H2888 H 0.63840 1.02766 0.74583
 C2889 C 0.90891 0.43680 0.29852
 C2890 C 0.89403 0.44331 0.29239
 C2891 C 0.89136 0.46050 0.29222
 C2892 C 0.90402 0.47111 0.29823
 C2893 C 0.91892 0.46457 0.30437
 C2894 C 0.92156 0.44736 0.30446
 C2895 C 0.87548 0.46671 0.28518
 C2896 C 0.86922 0.48179 0.28832
 C2897 C 0.85289 0.48719 0.28162
 C2898 C 0.84350 0.49871 0.29068
 C2899 C 0.82759 0.50323 0.28524
 C2900 C 0.82082 0.49642 0.27049
 C2901 C 0.83060 0.48550 0.26101
 C2902 C 0.84647 0.48099 0.26646
 H2903 H 0.91054 0.42349 0.29867
 H2904 H 0.88453 0.43486 0.28780
 H2905 H 0.90267 0.48443 0.29792
 H2906 H 0.92857 0.47294 0.30878
 H2907 H 0.86822 0.45802 0.27778
 H2908 H 0.87552 0.49003 0.29698
 H2909 H 0.84826 0.50384 0.30229
 H2910 H 0.82044 0.51172 0.29283
 H2911 H 0.82590 0.48016 0.24948
 H2912 H 0.85362 0.47261 0.25877
 C2913 C 0.90043 0.94875 0.82642
 C2914 C 0.88573 0.95613 0.82089
 C2915 C 0.88300 0.95901 0.80382
 C2916 C 0.89558 0.95479 0.79239
 C2917 C 0.91026 0.94735 0.79794
 C2918 C 0.91277 0.94418 0.81497
 C2919 C 0.86695 0.96640 0.79855
 C2920 C 0.86062 0.96474 0.78310
 C2921 C 0.84392 0.97078 0.77814
 C2922 C 0.83613 0.96342 0.76425
 C2923 C 0.82019 0.96821 0.75936
 C2924 C 0.81165 0.98063 0.76817
 C2925 C 0.81962 0.98835 0.78182
 C2926 C 0.83561 0.98353 0.78673
 H2927 H 0.90211 0.94638 0.83962
 H2928 H 0.87633 0.95935 0.82997
 H2929 H 0.89428 0.95733 0.77921
 H2930 H 0.91976 0.94415 0.78896
 H2931 H 0.85961 0.97231 0.80815
 H2932 H 0.86729 0.95754 0.77392
 H2933 H 0.84229 0.95368 0.75732
 H2934 H 0.81450 0.96202 0.74874
 H2935 H 0.81345 0.99804 0.78881
 H2936 H 0.84138 0.98991 0.79716
 C2937 C 0.34434 0.32204 0.79952
 C2938 C 0.35823 0.31582 0.79125
 C2939 C 0.35971 0.29880 0.78795
 C2940 C 0.34674 0.28809 0.79294
 C2941 C 0.33285 0.29434 0.80131
 C2942 C 0.33153 0.31137 0.80472
 C2943 C 0.37492 0.29297 0.77924
 C2944 C 0.37991 0.27712 0.77883
 C2945 C 0.39595 0.27176 0.77147
 C2946 C 0.40300 0.25691 0.77709
 C2947 C 0.41848 0.25174 0.77127
 C2948 C 0.42728 0.26126 0.75953
 C2949 C 0.41995 0.27583 0.75339
 C2950 C 0.40443 0.28101 0.75924
 H2951 H 0.34368 0.33522 0.80202
 H2952 H 0.36794 0.32438 0.78752
 H2953 H 0.34705 0.27497 0.79026
 H2954 H 0.32298 0.28593 0.80494
 H2955 H 0.38284 0.30243 0.77393
 H2956 H 0.37276 0.26775 0.78526
 H2957 H 0.39669 0.24945 0.78635
 H2958 H 0.42366 0.24040 0.77623
 H2959 H 0.42633 0.28339 0.74426
 H2960 H 0.39917 0.29223 0.75412
 C2961 C 0.83234 0.29668 0.30510
 C2962 C 0.84701 0.28961 0.29911
 C2963 C 0.86017 0.29965 0.29353
 C2964 C 0.85833 0.31700 0.29416
 C2965 C 0.84366 0.32405 0.30013
 C2966 C 0.83056 0.31398 0.30580
 C2967 C 0.87583 0.29161 0.28804
 C2968 C 0.88723 0.29909 0.27841
 C2969 C 0.90328 0.29141 0.27355
 C2970 C 0.91194 0.29798 0.25988
 C2971 C 0.92745 0.29168 0.25532
 C2972 C 0.93475 0.27869 0.26440
 C2973 C 0.92607 0.27209 0.27808
 C2974 C 0.91056 0.27840 0.28265
 H2975 H 0.82237 0.28866 0.30927
 H2976 H 0.84810 0.27623 0.29887
 H2977 H 0.86831 0.32524 0.29054
 H2978 H 0.84270 0.33742 0.30073
 H2979 H 0.87769 0.27888 0.29179
 H2980 H 0.88465 0.31126 0.27339
 H2981 H 0.90672 0.30811 0.25275
 H2982 H 0.93379 0.29715 0.24477
 H2983 H 0.93138 0.26220 0.28548
 H2984 H 0.90462 0.27331 0.29359
 C2985 C 0.41649 0.78448 0.44731
 C2986 C 0.40210 0.77787 0.45442
 C2987 C 0.38952 0.78834 0.46032
 C2988 C 0.39163 0.80563 0.45896
 C2989 C 0.40602 0.81222 0.45188
 C2990 C 0.41851 0.80171 0.44588
 C2991 C 0.37393 0.78084 0.46663
 C2992 C 0.36336 0.78893 0.47663
 C2993 C 0.34695 0.78227 0.48166
 C2994 C 0.33892 0.78958 0.49532
 C2995 C 0.32288 0.78465 0.49975
 C2996 C 0.31445 0.77231 0.49055
 C2997 C 0.32257 0.76479 0.47702
 C2998 C 0.33861 0.76976 0.47255
 H2999 H 0.42599 0.77620 0.44268
 H3000 H 0.40071 0.76452 0.45516
 H3001 H 0.38200 0.81414 0.46274
 H3002 H 0.40719 0.82552 0.45055
 H3003 H 0.37129 0.76817 0.46299
 H3004 H 0.36683 0.80097 0.48155
 H3005 H 0.34499 0.79932 0.50246
 H3006 H 0.31701 0.79070 0.51025
 H3007 H 0.31638 0.75536 0.46956
 H3008 H 0.34409 0.76415 0.46162
 C3009 C 0.42299 0.28899 0.93797
 C3010 C 0.40988 0.28030 0.94533
 C3011 C 0.39628 0.28880 0.95211
 C3012 C 0.39611 0.30625 0.95141
 C3013 C 0.40920 0.31492 0.94402
 C3014 C 0.42268 0.30638 0.93704
 C3015 C 0.38201 0.27913 0.95862
 C3016 C 0.37112 0.28528 0.96962
 C3017 C 0.35573 0.27656 0.97485
 C3018 C 0.34753 0.28217 0.98920
 C3019 C 0.33211 0.27557 0.99368
 C3020 C 0.32444 0.26322 0.98383
 C3021 C 0.33287 0.25723 0.96972
 C3022 C 0.34830 0.26386 0.96522
 H3023 H 0.43330 0.28214 0.93276
 H3024 H 0.41027 0.26688 0.94559
 H3025 H 0.38562 0.31327 0.95595
 H3026 H 0.40854 0.32830 0.94324
 H3027 H 0.38064 0.26649 0.95424
 H3028 H 0.37347 0.29733 0.97516
 H3029 H 0.35290 0.29199 0.99678
 H3030 H 0.32600 0.28050 1.00463
 H3031 H 0.32727 0.24784 0.96177
 H3032 H 0.35394 0.25946 0.95382
 C3033 C 0.78622 0.44261 0.42114
 C3034 C 0.77913 0.44863 0.40641
 C3035 C 0.78923 0.45435 0.39339
 C3036 C 0.80664 0.45367 0.39530
 C3037 C 0.81372 0.44760 0.41002
 C3038 C 0.80358 0.44206 0.42313
 C3039 C 0.78124 0.46021 0.37777
 C3040 C 0.78852 0.47109 0.36747
 C3041 C 0.78101 0.47678 0.35156
 C3042 C 0.78688 0.49159 0.34456
 C3043 C 0.78102 0.49695 0.32907
 C3044 C 0.76920 0.48754 0.32009
 C3045 C 0.76312 0.47280 0.32719
 C3046 C 0.76899 0.46744 0.34274
 H3047 H 0.77813 0.43835 0.43103
 H3048 H 0.76570 0.44886 0.40519
 H3049 H 0.81485 0.45736 0.38531
 H3050 H 0.82713 0.44687 0.41102
 H3051 H 0.76873 0.45590 0.37514
 H3052 H 0.80035 0.47657 0.37103
 H3053 H 0.79620 0.49897 0.35103
 H3054 H 0.78604 0.50835 0.32400
 H3055 H 0.75414 0.46516 0.32055
 H3056 H 0.76447 0.45572 0.34746
 C3057 C 0.81068 0.96049 0.91774
 C3058 C 0.80404 0.96738 0.90317
 C3059 C 0.79764 0.95717 0.89041
 C3060 C 0.79821 0.93984 0.89247
 C3061 C 0.80485 0.93297 0.90705
 C3062 C 0.81117 0.94322 0.91981
 C3063 C 0.79123 0.96501 0.87491
 C3064 C 0.78054 0.95748 0.86439
 C3065 C 0.77445 0.96490 0.84856
 C3066 C 0.78286 0.97789 0.84040
 C3067 C 0.77710 0.98382 0.82502
 C3068 C 0.76290 0.97683 0.81738
 C3069 C 0.75447 0.96395 0.82562
 C3070 C 0.76020 0.95806 0.84098
 H3071 H 0.81548 0.96863 0.92742
 H3072 H 0.80389 0.98074 0.90187
 H3073 H 0.79400 0.93149 0.88273
 H3074 H 0.80539 0.91962 0.90824
 H3075 H 0.79511 0.97763 0.87252
 H3076 H 0.77553 0.94544 0.86765
 H3077 H 0.79416 0.98321 0.84549
 H3078 H 0.78403 0.99361 0.81894
 H3079 H 0.74353 0.95822 0.82011
 H3080 H 0.75354 0.94798 0.84690
 C3081 C 0.28536 0.80955 0.33518
 C3082 C 0.27759 0.80409 0.34976
 C3083 C 0.28702 0.79814 0.36325
 C3084 C 0.30449 0.79794 0.36190
 C3085 C 0.31225 0.80344 0.34733
 C3086 C 0.30278 0.80934 0.33383
 C3087 C 0.27832 0.79306 0.37875
 C3088 C 0.28485 0.78243 0.38983
 C3089 C 0.27682 0.77770 0.40580
 C3090 C 0.28268 0.76361 0.41414
 C3091 C 0.27652 0.75928 0.42981
 C3092 C 0.26433 0.76901 0.43764
 C3093 C 0.25815 0.78295 0.42915
 C3094 C 0.26436 0.78730 0.41344
 H3095 H 0.27779 0.81404 0.32494
 H3096 H 0.26414 0.80452 0.35050
 H3097 H 0.31227 0.79403 0.37220
 H3098 H 0.32570 0.80346 0.34673
 H3099 H 0.26594 0.79788 0.38069
 H3100 H 0.29657 0.77652 0.38700
 H3101 H 0.29230 0.75602 0.40863
 H3102 H 0.28160 0.74846 0.43594
 H3103 H 0.24890 0.79082 0.43487
 H3104 H 0.25976 0.79849 0.40769
 C3105 C 0.29263 0.31030 0.83000
 C3106 C 0.28566 0.30351 0.84439
 C3107 C 0.29575 0.29601 0.85654
 C3108 C 0.31307 0.29542 0.85390
 C3109 C 0.32003 0.30219 0.83945
 C3110 C 0.30989 0.30981 0.82741
 C3111 C 0.28782 0.28989 0.87207
 C3112 C 0.29494 0.27896 0.88245
 C3113 C 0.28738 0.27335 0.89837
 C3114 C 0.29356 0.25890 0.90584
 C3115 C 0.28761 0.25362 0.92129
 C3116 C 0.27534 0.26270 0.92975
 C3117 C 0.26896 0.27706 0.92220
 C3118 C 0.27496 0.28239 0.90673
 H3119 H 0.28454 0.31610 0.82090
 H3120 H 0.27233 0.30425 0.84611
 H3121 H 0.32140 0.29027 0.86314
 H3122 H 0.33340 0.30196 0.83793
 H3123 H 0.27543 0.29432 0.87469
 H3124 H 0.30669 0.27343 0.87907
 H3125 H 0.30318 0.25175 0.89977
 H3126 H 0.29284 0.24250 0.92671
 H3127 H 0.25966 0.28447 0.92845
 H3128 H 0.27018 0.29385 0.90172
 C3129 C 0.45913 0.30987 0.90937
 C3130 C 0.46540 0.30331 0.89452
 C3131 C 0.45476 0.29573 0.88276
 C3132 C 0.43756 0.29526 0.88602
 C3133 C 0.43132 0.30179 0.90090
 C3134 C 0.44205 0.30901 0.91279
 C3135 C 0.46202 0.28916 0.86707
 C3136 C 0.45431 0.27821 0.85693
 C3137 C 0.46144 0.27223 0.84093
 C3138 C 0.45495 0.25772 0.83354
 C3139 C 0.46092 0.25204 0.81815
 C3140 C 0.47353 0.26078 0.80981
 C3141 C 0.48000 0.27530 0.81721
 C3142 C 0.47398 0.28101 0.83248
 H3143 H 0.46763 0.31541 0.91834
 H3144 H 0.47866 0.30404 0.89225
 H3145 H 0.42881 0.29015 0.87708
 H3146 H 0.41805 0.30131 0.90311
 H3147 H 0.47450 0.29322 0.86417
 H3148 H 0.44246 0.27298 0.86057
 H3149 H 0.44516 0.25080 0.83966
 H3150 H 0.45557 0.24089 0.81275
 H3151 H 0.48950 0.28255 0.81102
 H3152 H 0.47893 0.29257 0.83727
 C3153 C 0.92927 0.30552 0.40811
 C3154 C 0.93415 0.29990 0.39238
 C3155 C 0.95105 0.29905 0.38817
 C3156 C 0.96305 0.30375 0.40019
 C3157 C 0.95815 0.30941 0.41592
 C3158 C 0.94123 0.31027 0.42005
 C3159 C 0.95556 0.29269 0.37140
 C3160 C 0.97030 0.29551 0.36412
 C3161 C 0.97462 0.28918 0.34728
 C3162 C 0.98731 0.29714 0.33835
 C3163 C 0.99182 0.29155 0.32248
 C3164 C 0.98378 0.27777 0.31521
 C3165 C 0.97122 0.26965 0.32425
 C3166 C 0.96675 0.27522 0.34014
 H3167 H 0.91614 0.30627 0.41093
 H3168 H 0.92465 0.29629 0.38341
 H3169 H 0.97622 0.30280 0.39770
 H3170 H 0.96758 0.31287 0.42500
 H3171 H 0.94596 0.28607 0.36456
 H3172 H 0.97936 0.30343 0.37025
 H3173 H 0.99368 0.30782 0.34362
 H3174 H 1.00155 0.29811 0.31588
 H3175 H 0.96489 0.25889 0.31912
 H3176 H 0.95734 0.26834 0.34682
 C3177 C 0.45677 0.40969 0.80815
 C3178 C 0.46413 0.39539 0.80173
 C3179 C 0.45426 0.38220 0.79588
 C3180 C 0.43681 0.38357 0.79662
 C3181 C 0.42947 0.39787 0.80306
 C3182 C 0.43939 0.41100 0.80900
 C3183 C 0.46253 0.36693 0.78992
 C3184 C 0.45532 0.35632 0.77918
 C3185 C 0.46312 0.34071 0.77351
 C3186 C 0.45731 0.33345 0.75866
 C3187 C 0.46352 0.31826 0.75325
 C3188 C 0.47566 0.30986 0.76264
 C3189 C 0.48163 0.31718 0.77747
 C3190 C 0.47539 0.33244 0.78289
 H3191 H 0.46463 0.41969 0.81269
 H3192 H 0.47757 0.39460 0.80141
 H3193 H 0.42876 0.37346 0.79278
 H3194 H 0.41605 0.39851 0.80391
 H3195 H 0.47516 0.36478 0.79411
 H3196 H 0.44335 0.35936 0.77378
 H3197 H 0.44778 0.33949 0.75128
 H3198 H 0.45858 0.31300 0.74179
 H3199 H 0.49082 0.31095 0.78511
 H3200 H 0.47984 0.33738 0.79467
 C3201 C 0.94444 0.42523 0.28489
 C3202 C 0.95055 0.41102 0.27703
 C3203 C 0.95716 0.39795 0.28645
 C3204 C 0.95757 0.39942 0.30398
 C3205 C 0.95144 0.41362 0.31183
 C3206 C 0.94460 0.42658 0.30239
 C3207 C 0.96253 0.38263 0.27771
 C3208 C 0.97357 0.37203 0.28424
 C3209 C 0.97836 0.35607 0.27636
 C3210 C 0.99291 0.34832 0.28201
 C3211 C 0.99730 0.33265 0.27612
 C3212 C 0.98719 0.32424 0.26444
 C3213 C 0.97279 0.33213 0.25845
 C3214 C 0.96837 0.34786 0.26438
 H3215 H 0.93933 0.43510 0.27733
 H3216 H 0.94999 0.41018 0.26353
 H3217 H 0.96204 0.38944 0.31175
 H3218 H 0.95150 0.41422 0.32534
 H3219 H 0.95744 0.38034 0.26538
 H3220 H 0.97975 0.37522 0.29586
 H3221 H 1.00079 0.35429 0.29127
 H3222 H 1.00849 0.32699 0.28103
 H3223 H 0.96463 0.32593 0.24960
 H3224 H 0.95684 0.35318 0.26000
 C3225 C 0.31698 0.91188 0.45417
 C3226 C 0.31140 0.89735 0.46176
 C3227 C 0.29436 0.89466 0.46442
 C3228 C 0.28300 0.90708 0.45977
 C3229 C 0.28861 0.92165 0.45220
 C3230 C 0.30564 0.92414 0.44924
 C3231 C 0.28908 0.87883 0.47214
 C3232 C 0.27390 0.87217 0.47005
 C3233 C 0.26930 0.85560 0.47655
 C3234 C 0.25676 0.84653 0.46833
 C3235 C 0.25260 0.83054 0.47355
 C3236 C 0.26082 0.82330 0.48723
 C3237 C 0.27298 0.83262 0.49583
 C3238 C 0.27713 0.84861 0.49060
 H3239 H 0.33016 0.91346 0.45192
 H3240 H 0.32041 0.88804 0.46530
 H3241 H 0.26983 0.90572 0.46210
 H3242 H 0.27969 0.93105 0.44869
 H3243 H 0.29855 0.87187 0.47868
 H3244 H 0.26489 0.87833 0.46216
 H3245 H 0.25042 0.85169 0.45759
 H3246 H 0.24311 0.82377 0.46668
 H3247 H 0.27942 0.82752 0.50655
 H3248 H 0.28643 0.85544 0.49765
 C3249 C 0.29045 0.41438 0.94089
 C3250 C 0.28308 0.39977 0.94671
 C3251 C 0.29293 0.38644 0.95204
 C3252 C 0.31036 0.38795 0.95117
 C3253 C 0.31771 0.40252 0.94528
 C3254 C 0.30785 0.41590 0.94008
 C3255 C 0.28466 0.37094 0.95764
 C3256 C 0.29187 0.36017 0.96813
 C3257 C 0.28425 0.34419 0.97330
 C3258 C 0.29056 0.33629 0.98756
 C3259 C 0.28478 0.32063 0.99222
 C3260 C 0.27256 0.31237 0.98266
 C3261 C 0.26595 0.32041 0.96855
 C3262 C 0.27175 0.33612 0.96389
 H3263 H 0.28257 0.42452 0.93698
 H3264 H 0.26964 0.39889 0.94711
 H3265 H 0.31839 0.37776 0.95457
 H3266 H 0.33114 0.40324 0.94447
 H3267 H 0.27205 0.36874 0.95336
 H3268 H 0.30384 0.36327 0.97358
 H3269 H 0.30024 0.34216 0.99499
 H3270 H 0.29020 0.31485 1.00314
 H3271 H 0.25665 0.31437 0.96080
 H3272 H 0.26683 0.34153 0.95257
 C3273 C 0.80201 0.33536 0.28891
 C3274 C 0.79535 0.34965 0.28167
 C3275 C 0.79618 0.36489 0.29014
 C3276 C 0.80337 0.36555 0.30617
 C3277 C 0.80965 0.35119 0.31356
 C3278 C 0.80909 0.33606 0.30493
 C3279 C 0.78892 0.37982 0.28239
 C3280 C 0.79625 0.39472 0.28364
 C3281 C 0.78889 0.40995 0.27661
 C3282 C 0.79944 0.42241 0.27053
 C3283 C 0.79292 0.43747 0.26498
 C3284 C 0.77575 0.44051 0.26586
 C3285 C 0.76516 0.42798 0.27185
 C3286 C 0.77165 0.41277 0.27703
 H3287 H 0.80146 0.32370 0.28219
 H3288 H 0.78973 0.34886 0.26937
 H3289 H 0.80384 0.37709 0.31312
 H3290 H 0.81504 0.35183 0.32596
 H3291 H 0.77770 0.37837 0.27496
 H3292 H 0.80835 0.39575 0.28960
 H3293 H 0.81277 0.42055 0.27024
 H3294 H 0.80139 0.44699 0.26064
 H3295 H 0.75189 0.43005 0.27274
 H3296 H 0.76325 0.40351 0.28200
   
