data_POSCAR
  _audit_creation_date              2014-09-24
  _audit_creation_method            'ToBaCCo'
  _symmetry_space_group_name_H-M    'P1'
  _symmetry_Int_Tables_number       1
  _symmetry_cell_setting            triclinic
  loop_
  _symmetry_equiv_pos_as_xyz
 x,y,z
_cell_length_a 44.1365
_cell_length_b 43.6748
_cell_length_c 53.1605
_cell_angle_alpha 90.005800
_cell_angle_beta 89.852800
_cell_angle_gamma 90.048200
loop_
  _atom_site_label
  _atom_site_type_symbol
  _atom_site_fract_x
  _atom_site_fract_y
  _atom_site_fract_z
Zr1 Zr 0.23746 0.24690 0.29198
 O2 O 0.25863 0.26802 0.32325
 O3 O 0.20622 0.21762 0.30999
 O4 O 0.20825 0.27606 0.31257
 O5 O 0.29662 0.19554 0.28325
 O6 O 0.18597 0.30546 0.28239
 O7 O 0.26548 0.21710 0.31266
 O8 O 0.17956 0.19723 0.27733
 O9 O 0.19930 0.25016 0.26886
 O10 O 0.23849 0.20820 0.26880
 O11 O 0.24233 0.28862 0.27257
 O12 O 0.27951 0.24849 0.27290
 Zr13 Zr 0.24605 0.25474 0.20471
 Zr14 Zr 0.20517 0.29061 0.24824
 Zr15 Zr 0.27891 0.21073 0.24839
 Zr16 Zr 0.20161 0.21245 0.24475
 O17 O 0.32684 0.21233 0.24786
 O18 O 0.15451 0.22081 0.24082
 O19 O 0.24185 0.21243 0.22367
 O20 O 0.20452 0.25288 0.22399
 O21 O 0.24552 0.29377 0.22753
 O22 O 0.28405 0.25119 0.22798
 C23 C 0.18491 0.20082 0.30086
 C24 C 0.28808 0.20015 0.30619
 C25 C 0.19033 0.29770 0.30547
 O26 O 0.15745 0.28837 0.24503
 O27 O 0.19188 0.31072 0.21399
 O28 O 0.21932 0.28584 0.18390
 C29 C 0.19917 0.30545 0.19091
 O30 O 0.30035 0.30319 0.28689
 Zr31 Zr 0.28247 0.28895 0.25168
 O32 O 0.27692 0.28379 0.18643
 O33 O 0.21052 0.33858 0.25151
 O34 O 0.27658 0.33707 0.25384
 O35 O 0.32988 0.28116 0.25275
 O36 O 0.30116 0.30778 0.21867
 C37 C 0.29670 0.30263 0.19514
 O38 O 0.22383 0.23408 0.17375
 O39 O 0.27360 0.16258 0.24900
 O40 O 0.27443 0.22535 0.18417
 O41 O 0.29371 0.19250 0.21348
 O42 O 0.20568 0.16407 0.24535
 O43 O 0.18819 0.19464 0.20926
 C44 C 0.29029 0.20195 0.19063
 H45 H 0.23755 0.18886 0.27849
 H46 H 0.18717 0.25363 0.21225
 H47 H 0.30338 0.25068 0.21850
 H48 H 0.24267 0.30624 0.28428
 H49 H 0.14382 0.20106 0.24328
 H50 H 0.14988 0.30969 0.24606
 H51 H 0.19001 0.34765 0.25023
 H52 H 0.29660 0.34668 0.25078
 H53 H 0.18506 0.15551 0.24769
 H54 H 0.29426 0.15379 0.24979
 H55 H 0.33401 0.19086 0.24704
 H56 H 0.34008 0.30111 0.24996
 H57 H 0.17106 0.18024 0.21159
 H58 H 0.23305 0.24245 0.15814
 H59 H 0.24951 0.25922 0.33875
 H60 H 0.31479 0.32026 0.28421
 Zr61 Zr 0.75517 0.75926 0.29486
 O62 O 0.73689 0.73702 0.32694
 O63 O 0.78461 0.79124 0.31173
 O64 O 0.78736 0.73347 0.31498
 O65 O 0.69205 0.80534 0.28695
 O66 O 0.80914 0.70262 0.28542
 O67 O 0.72530 0.78685 0.31597
 O68 O 0.80721 0.81471 0.27834
 O69 O 0.79300 0.75844 0.27109
 O70 O 0.75068 0.79729 0.27136
 O71 O 0.75275 0.71696 0.27600
 O72 O 0.71293 0.75391 0.27676
 Zr73 Zr 0.74529 0.74967 0.20769
 Zr74 Zr 0.78955 0.71718 0.25112
 Zr75 Zr 0.71016 0.79113 0.25201
 Zr76 Zr 0.78723 0.79542 0.24656
 O77 O 0.66252 0.78546 0.25255
 O78 O 0.83486 0.79045 0.24303
 O79 O 0.74664 0.79218 0.22651
 O80 O 0.78695 0.75451 0.22637
 O81 O 0.74919 0.71111 0.23096
 O82 O 0.70755 0.75045 0.23164
 C83 C 0.80323 0.81070 0.30199
 C84 C 0.70125 0.80171 0.30977
 C85 C 0.80525 0.71162 0.30832
 O86 O 0.83694 0.72319 0.24783
 O87 O 0.80363 0.69774 0.21678
 O88 O 0.77356 0.71967 0.18697
 C89 C 0.79522 0.70171 0.19381
 O90 O 0.69602 0.69813 0.29121
 Zr91 Zr 0.71246 0.71326 0.25569
 O92 O 0.71569 0.71869 0.19031
 O93 O 0.78772 0.66890 0.25410
 O94 O 0.72203 0.66578 0.25828
 O95 O 0.66462 0.71746 0.25728
 O96 O 0.69508 0.69237 0.22317
 C97 C 0.69822 0.69794 0.19957
 O98 O 0.76578 0.77014 0.17574
 O99 O 0.71144 0.83958 0.25218
 O100 O 0.71624 0.77921 0.18734
 O101 O 0.69311 0.80779 0.21776
 O102 O 0.77919 0.84328 0.24542
 O103 O 0.79930 0.81272 0.21052
 C104 C 0.69814 0.80069 0.19461
 H105 H 0.75018 0.81685 0.28077
 H106 H 0.80415 0.75480 0.21438
 H107 H 0.68812 0.74958 0.22241
 H108 H 0.75370 0.69959 0.28793
 H109 H 0.84404 0.81104 0.24492
 H110 H 0.84604 0.70249 0.24870
 H111 H 0.80885 0.66136 0.25276
 H112 H 0.70277 0.65458 0.25559
 H113 H 0.79905 0.85372 0.24692
 H114 H 0.69017 0.84665 0.25353
 H115 H 0.65354 0.80622 0.25180
 H116 H 0.65591 0.69678 0.25471
 H117 H 0.81588 0.82785 0.21229
 H118 H 0.75641 0.76092 0.16055
 H119 H 0.74570 0.74689 0.34209
 H120 H 0.68282 0.68001 0.28883
 Zr121 Zr 0.75535 0.24223 -0.29659
 O122 O 0.73906 0.26433 -0.32938
 O123 O 0.78627 0.21068 -0.31229
 O124 O 0.78819 0.26893 -0.31551
 O125 O 0.69038 0.19787 -0.29144
 O126 O 0.81088 0.29620 -0.28420
 O127 O 0.72674 0.21455 -0.31880
 O128 O 0.80436 0.18501 -0.27815
 O129 O 0.79150 0.24159 -0.27116
 O130 O 0.74799 0.20426 -0.27343
 O131 O 0.75313 0.28440 -0.27747
 O132 O 0.71206 0.24864 -0.28032
 Zr133 Zr 0.73965 0.25220 -0.20993
 Zr134 Zr 0.78820 0.28271 -0.25100
 Zr135 Zr 0.70638 0.21157 -0.25568
 Zr136 Zr 0.78276 0.20473 -0.24709
 O137 O 0.65903 0.21872 -0.25783
 O138 O 0.83018 0.20816 -0.24133
 O139 O 0.74106 0.20962 -0.22875
 O140 O 0.78238 0.24548 -0.22662
 O141 O 0.74657 0.29041 -0.23298
 O142 O 0.70354 0.25240 -0.23537
 C143 C 0.80320 0.19029 -0.30186
 C144 C 0.70176 0.20050 -0.31372
 C145 C 0.80714 0.28917 -0.30755
 O146 O 0.83510 0.27495 -0.24601
 O147 O 0.80185 0.30064 -0.21593
 O148 O 0.76729 0.28148 -0.18810
 C149 C 0.79098 0.29750 -0.19355
 O150 O 0.69830 0.30450 -0.29562
 Zr151 Zr 0.71144 0.28926 -0.25927
 O152 O 0.71072 0.28514 -0.19387
 O153 O 0.78809 0.33105 -0.25350
 O154 O 0.72219 0.33652 -0.26168
 O155 O 0.66368 0.28620 -0.26287
 O156 O 0.69252 0.31111 -0.22780
 C157 C 0.69474 0.30646 -0.20402
 O158 O 0.75699 0.23125 -0.17701
 O159 O 0.70596 0.16311 -0.25622
 O160 O 0.70853 0.22365 -0.19088
 O161 O 0.68751 0.19459 -0.22196
 O162 O 0.77280 0.15721 -0.24659
 O163 O 0.79166 0.18648 -0.21078
 C164 C 0.69130 0.20175 -0.19864
 H165 H 0.74770 0.18477 -0.28293
 H166 H 0.79861 0.24440 -0.21383
 H167 H 0.68363 0.25396 -0.22684
 H168 H 0.75542 0.30193 -0.28911
 H169 H 0.83884 0.18734 -0.24311
 H170 H 0.84511 0.29527 -0.24654
 H171 H 0.80939 0.33782 -0.25150
 H172 H 0.70298 0.34814 -0.26028
 H173 H 0.79230 0.14603 -0.24751
 H174 H 0.68455 0.15677 -0.25828
 H175 H 0.64941 0.19823 -0.25737
 H176 H 0.65535 0.30713 -0.26094
 H177 H 0.80790 0.17091 -0.21199
 H178 H 0.74709 0.24110 -0.16230
 H179 H 0.74868 0.25436 -0.34417
 H180 H 0.68487 0.32254 -0.29399
 Zr181 Zr 0.25396 0.74659 -0.29005
 O182 O 0.27331 0.72312 -0.32105
 O183 O 0.22599 0.77845 -0.30830
 O184 O 0.22161 0.72174 -0.31082
 O185 O 0.31578 0.79351 -0.28020
 O186 O 0.19755 0.69189 -0.28169
 O187 O 0.28544 0.77346 -0.31055
 O188 O 0.20221 0.80284 -0.27608
 O189 O 0.21502 0.74696 -0.26743
 O190 O 0.25804 0.78482 -0.26671
 O191 O 0.25402 0.70448 -0.27079
 O192 O 0.29520 0.74073 -0.27065
 Zr193 Zr 0.25976 0.73760 -0.20266
 Zr194 Zr 0.21617 0.70601 -0.24689
 Zr195 Zr 0.29739 0.77804 -0.24592
 Zr196 Zr 0.22038 0.78414 -0.24315
 O197 O 0.34484 0.77119 -0.24588
 O198 O 0.17258 0.77990 -0.24090
 O199 O 0.25988 0.78003 -0.22167
 O200 O 0.21896 0.74359 -0.22244
 O201 O 0.25568 0.69902 -0.22582
 O202 O 0.29844 0.73736 -0.22543
 C203 C 0.20689 0.79816 -0.29965
 C204 C 0.30839 0.78968 -0.30346
 C205 C 0.20246 0.70082 -0.30449
 O206 O 0.16880 0.71313 -0.24565
 O207 O 0.19865 0.68885 -0.21256
 O208 O 0.23051 0.70794 -0.18284
 C209 C 0.20715 0.69210 -0.18946
 O210 O 0.31097 0.68517 -0.28473
 Zr211 Zr 0.29351 0.70016 -0.24952
 O212 O 0.28745 0.70546 -0.18434
 O213 O 0.21713 0.65765 -0.24875
 O214 O 0.28321 0.65287 -0.25264
 O215 O 0.34149 0.70291 -0.24934
 O216 O 0.30862 0.67860 -0.21662
 C217 C 0.30429 0.68387 -0.19311
 O218 O 0.23841 0.75867 -0.17138
 O219 O 0.29718 0.82650 -0.24538
 O220 O 0.28853 0.76653 -0.18145
 O221 O 0.31354 0.79437 -0.21129
 O222 O 0.22919 0.83188 -0.24245
 O223 O 0.20714 0.80281 -0.20787
 C224 C 0.30728 0.78766 -0.18827
 H225 H 0.25927 0.80428 -0.27620
 H226 H 0.20140 0.74469 -0.21087
 H227 H 0.31742 0.73602 -0.21560
 H228 H 0.25301 0.68701 -0.28262
 H229 H 0.16382 0.80049 -0.24372
 H230 H 0.15920 0.69264 -0.24656
 H231 H 0.19577 0.65068 -0.24820
 H232 H 0.30220 0.64135 -0.24967
 H233 H 0.20964 0.84255 -0.24507
 H234 H 0.31861 0.83322 -0.24619
 H235 H 0.35428 0.79174 -0.24472
 H236 H 0.34941 0.68188 -0.24693
 H237 H 0.19064 0.81784 -0.21042
 H238 H 0.24673 0.74914 -0.15590
 H239 H 0.26545 0.73278 -0.33663
 H240 H 0.32377 0.66683 -0.28217
 Zr241 Zr 1.26275 1.26613 0.79448
 O242 O 1.24293 1.24285 0.82540
 O243 O 1.29276 1.29603 0.81309
 O244 O 1.29375 1.23871 0.81437
 O245 O 1.20285 1.31598 0.78587
 O246 O 1.31614 1.20878 0.78443
 O247 O 1.23217 1.29324 0.81577
 O248 O 1.31651 1.32098 0.78087
 O249 O 1.30135 1.26526 0.77143
 O250 O 1.26023 1.30518 0.77188
 O251 O 1.26026 1.22468 0.77431
 O252 O 1.22108 1.26279 0.77523
 Zr253 Zr 1.25536 1.26031 0.70699
 Zr254 Zr 1.29788 1.22499 0.75010
 Zr255 Zr 1.22035 1.30093 0.75131
 Zr256 Zr 1.29750 1.30339 0.74788
 O257 O 1.17260 1.29636 0.75164
 O258 O 1.34502 1.29681 0.74548
 O259 O 1.25755 1.30208 0.72673
 O260 O 1.29672 1.26338 0.72639
 O261 O 1.25782 1.22085 0.72929
 O262 O 1.21701 1.26101 0.73008
 C263 C 1.31203 1.31546 0.80429
 C264 C 1.21001 1.31057 0.80889
 C265 C 1.31165 1.21697 0.80748
 O266 O 1.34547 1.23001 0.74801
 O267 O 1.31285 1.20692 0.71519
 O268 O 1.28186 1.22933 0.68620
 C269 C 1.30348 1.21112 0.69245
 O270 O 1.20231 1.20768 0.78821
 Zr271 Zr 1.22040 1.22286 0.75327
 O272 O 1.22625 1.23029 0.68808
 O273 O 1.29478 1.17669 0.75154
 O274 O 1.22851 1.17507 0.75548
 O275 O 1.17259 1.22770 0.75331
 O276 O 1.20445 1.20295 0.71981
 C277 C 1.20886 1.20892 0.69640
 O278 O 1.27786 1.28181 0.67647
 O279 O 1.22297 1.34933 0.75176
 O280 O 1.22697 1.29035 0.68657
 O281 O 1.20423 1.31876 0.71722
 O282 O 1.29084 1.35148 0.74772
 O283 O 1.31156 1.32201 0.71279
 C284 C 1.20918 1.31197 0.69402
 H285 H 1.25995 1.32438 0.78178
 H286 H 1.31413 1.26367 0.71462
 H287 H 1.19786 1.26078 0.72042
 H288 H 1.26046 1.20682 0.78576
 H289 H 1.35482 1.31690 0.74845
 H290 H 1.35407 1.20906 0.74838
 H291 H 1.31577 1.16873 0.75048
 H292 H 1.20903 1.16451 0.75221
 H293 H 1.31088 1.36129 0.75015
 H294 H 1.20189 1.35704 0.75281
 H295 H 1.16412 1.31734 0.75087
 H296 H 1.16379 1.20715 0.75024
 H297 H 1.32876 1.33619 0.71547
 H298 H 1.26909 1.27345 0.66072
 H299 H 1.25148 1.25182 0.84102
 H300 H 1.18875 1.18995 0.78533
 Zr301 Zr 0.73623 0.74665 0.79090
 O302 O 0.75526 0.76687 0.82349
 O303 O 0.70486 0.71590 0.80691
 O304 O 0.70529 0.77373 0.81155
 O305 O 0.79831 0.69901 0.78255
 O306 O 0.68255 0.80312 0.78163
 O307 O 0.76421 0.71676 0.81142
 O308 O 0.68319 0.69292 0.77292
 O309 O 0.69897 0.74888 0.76673
 O310 O 0.74044 0.70923 0.76660
 O311 O 0.73978 0.78945 0.77299
 O312 O 0.77901 0.75135 0.77335
 Zr313 Zr 0.74839 0.75924 0.70424
 Zr314 Zr 0.70364 0.79056 0.74760
 Zr315 Zr 0.78152 0.71495 0.74762
 Zr316 Zr 0.70450 0.71253 0.74154
 O317 O 0.82926 0.71937 0.74833
 O318 O 0.65713 0.71885 0.73742
 O319 O 0.74554 0.71593 0.72182
 O320 O 0.70619 0.75406 0.72217
 O321 O 0.74466 0.79691 0.72836
 O322 O 0.78550 0.75655 0.72855
 C323 C 0.68613 0.69698 0.79671
 C324 C 0.78805 0.70152 0.80522
 C325 C 0.68673 0.79486 0.80461
 O326 O 0.65625 0.78590 0.74308
 O327 O 0.69052 0.81144 0.71367
 O328 O 0.72054 0.78965 0.68366
 C329 C 0.69896 0.80765 0.69067
 O330 O 0.79648 0.80559 0.78982
 Zr331 Zr 0.78075 0.79288 0.75352
 O332 O 0.77834 0.79122 0.68815
 O333 O 0.70635 0.83860 0.75220
 O334 O 0.77254 0.84046 0.75774
 O335 O 0.82847 0.78758 0.75524
 O336 O 0.79909 0.81523 0.72203
 C337 C 0.79601 0.81122 0.69824
 O338 O 0.72902 0.73945 0.67161
 O339 O 0.77918 0.66655 0.74690
 O340 O 0.77871 0.73169 0.68371
 O341 O 0.79793 0.69844 0.71272
 O342 O 0.71173 0.66458 0.73962
 O343 O 0.69280 0.69622 0.70516
 C344 C 0.79478 0.70833 0.68999
 H345 H 0.74010 0.68938 0.77559
 H346 H 0.68931 0.75441 0.70995
 H347 H 0.80514 0.75757 0.71955
 H348 H 0.73879 0.80652 0.78521
 H349 H 0.64736 0.69851 0.73905
 H350 H 0.64749 0.80670 0.74461
 H351 H 0.68543 0.84662 0.75078
 H352 H 0.79224 0.85117 0.75599
 H353 H 0.69168 0.65447 0.74099
 H354 H 0.80028 0.65897 0.74804
 H355 H 0.83766 0.69839 0.74717
 H356 H 0.83763 0.80823 0.75365
 H357 H 0.67586 0.68144 0.70658
 H358 H 0.73862 0.74924 0.65673
 H359 H 0.74586 0.75695 0.83840
 H360 H 0.81057 0.82314 0.78830
 Zr361 Zr 1.25269 0.74214 0.20015
 O362 O 1.23216 0.76634 0.17014
 O363 O 1.28094 0.71130 0.18059
 O364 O 1.28399 0.76882 0.17985
 O365 O 1.19145 0.69358 0.20843
 O366 O 1.30661 0.79868 0.20961
 O367 O 1.22288 0.71481 0.17910
 O368 O 1.30678 0.68757 0.21207
 O369 O 1.29171 0.74268 0.22237
 O370 O 1.25024 0.70281 0.22235
 O371 O 1.25043 0.78335 0.22058
 O372 O 1.21124 0.74550 0.21992
 Zr373 Zr 1.24711 0.74685 0.28773
 Zr374 Zr 1.28842 0.78267 0.24401
 Zr375 Zr 1.21055 0.70691 0.24332
 Zr376 Zr 1.28810 0.70428 0.24559
 O377 O 1.16283 0.71147 0.24456
 O378 O 1.33567 0.71083 0.24741
 O379 O 1.24840 0.70544 0.26728
 O380 O 1.28792 0.74400 0.26740
 O381 O 1.24898 0.78670 0.26583
 O382 O 1.20819 0.74642 0.26528
 C383 C 1.30079 0.69212 0.18875
 C384 C 1.19980 0.69854 0.18549
 C385 C 1.30211 0.79038 0.18664
 O386 O 1.33606 0.77805 0.24593
 O387 O 1.30337 0.80104 0.27844
 O388 O 1.27561 0.77648 0.30856
 C389 C 1.29622 0.79567 0.30155
 O390 O 1.19254 0.80179 0.20832
 Zr391 Zr 1.21104 0.78500 0.24252
 O392 O 1.21823 0.77645 0.30746
 O393 O 1.28526 0.83096 0.24227
 O394 O 1.21936 0.83281 0.24125
 O395 O 1.16329 0.77946 0.24267
 O396 O 1.19495 0.80375 0.27655
 C397 C 1.19986 0.79729 0.29980
 O398 O 1.26970 0.72463 0.31775
 O399 O 1.21281 0.65854 0.24170
 O400 O 1.21917 0.71624 0.30810
 O401 O 1.19552 0.68831 0.27763
 O402 O 1.28178 0.65613 0.24516
 O403 O 1.30239 0.68507 0.28033
 C404 C 1.20123 0.69467 0.30081
 H405 H 1.24968 0.68370 0.21235
 H406 H 1.30566 0.74358 0.27875
 H407 H 1.18924 0.74642 0.27529
 H408 H 1.25061 0.80130 0.20921
 H409 H 1.34539 0.69079 0.24406
 H410 H 1.34457 0.79903 0.24521
 H411 H 1.30622 0.83904 0.24321
 H412 H 1.20002 0.84333 0.24516
 H413 H 1.30187 0.64659 0.24234
 H414 H 1.19165 0.65104 0.24082
 H415 H 1.15434 0.69046 0.24490
 H416 H 1.15420 0.79967 0.24655
 H417 H 1.31983 0.67128 0.27734
 H418 H 1.26123 0.73280 0.33372
 H419 H 1.24020 0.75777 0.15417
 H420 H 1.17863 0.81902 0.21197
 Zr421 Zr 0.74969 1.24893 0.20837
 O422 O 0.77059 1.22694 0.17732
 O423 O 0.71881 1.27818 0.19022
 O424 O 0.71925 1.22109 0.18834
 O425 O 0.80839 1.30062 0.21626
 O426 O 0.69911 1.18918 0.21797
 O427 O 0.77729 1.27861 0.18720
 O428 O 0.69150 1.29801 0.22283
 O429 O 0.71155 1.24547 0.23159
 O430 O 0.75052 1.28776 0.23126
 O431 O 0.75484 1.20731 0.22781
 O432 O 0.79184 1.24757 0.22704
 Zr433 Zr 0.75830 1.24217 0.29567
 Zr434 Zr 0.71766 1.20514 0.25223
 Zr435 Zr 0.79102 1.28542 0.25126
 Zr436 Zr 0.71361 1.28339 0.25545
 O437 O 0.83895 1.28374 0.25141
 O438 O 0.66659 1.27463 0.25970
 O439 O 0.75394 1.28401 0.27616
 O440 O 0.71677 1.24316 0.27635
 O441 O 0.75793 1.20291 0.27295
 O442 O 0.79639 1.24542 0.27228
 C443 C 0.69717 1.29456 0.19932
 C444 C 0.79972 1.29585 0.19343
 C445 C 0.70231 1.19852 0.19509
 O446 O 0.66990 1.20686 0.25527
 O447 O 0.70454 1.18532 0.28668
 O448 O 0.73130 1.21117 0.31660
 C449 C 0.71150 1.19112 0.30972
 O450 O 0.81347 1.19371 0.21351
 Zr451 Zr 0.79493 1.20748 0.24868
 O452 O 0.78880 1.21281 0.31386
 O453 O 0.72373 1.15720 0.24959
 O454 O 0.78958 1.15933 0.24590
 O455 O 0.84233 1.21557 0.24838
 O456 O 0.81241 1.18788 0.28169
 C457 C 0.80755 1.19287 0.30519
 O458 O 0.73609 1.26234 0.32695
 O459 O 0.78584 1.33357 0.25054
 O460 O 0.78533 1.27370 0.31598
 O461 O 0.80603 1.30404 0.28552
 O462 O 0.71695 1.33182 0.25447
 O463 O 0.70045 1.30138 0.29098
 C464 C 0.80159 1.29665 0.30871
 H465 H 0.74951 1.30704 0.22152
 H466 H 0.69936 1.24240 0.28810
 H467 H 0.81557 1.24609 0.28190
 H468 H 0.75528 1.18974 0.21605
 H469 H 0.65577 1.29425 0.25715
 H470 H 0.66260 1.18542 0.25446
 H471 H 0.70332 1.14783 0.25079
 H472 H 0.80967 1.14989 0.24885
 H473 H 0.69616 1.33999 0.25238
 H474 H 0.80649 1.34238 0.24933
 H475 H 0.84621 1.30521 0.25183
 H476 H 0.85250 1.19566 0.25131
 H477 H 0.68289 1.31522 0.28881
 H478 H 0.74553 1.25403 0.34245
 H479 H 0.76149 1.23549 0.16177
 H480 H 0.82856 1.17728 0.21623
 O481 O 0.54000 1.05498 0.04640
 O482 O 0.57427 1.02676 0.02344
 C483 C 0.56737 1.04677 0.04068
 O484 O 0.45491 0.94590 0.04229
 O485 O 0.42121 0.97650 0.02106
 C486 C 0.42769 0.95437 0.03652
 O487 O 0.53859 0.94992 0.04694
 O488 O 0.57377 0.97570 0.02304
 C489 C 0.56625 0.95698 0.04106
 O490 O 0.45645 1.05935 0.04315
 O491 O 0.42198 1.03049 0.02115
 C492 C 0.42897 1.05184 0.03721
 Zr493 Zr 0.49816 1.04091 0.03140
 O494 O 0.49522 1.04172 0.07113
 O495 O 0.50045 1.08916 0.02880
 Zr496 Zr 0.49713 0.96404 0.03138
 O497 O 0.49433 0.96690 0.07103
 O498 O 0.50026 0.91569 0.03239
 O499 O 0.52469 1.00209 0.03650
 O500 O 0.47092 1.00279 0.03588
 O501 O 0.45791 1.06017 -0.04342
 O502 O 0.42270 1.03064 -0.02266
 C503 C 0.43027 1.05245 -0.03818
 O504 O 0.53930 0.95175 -0.04791
 O505 O 0.57396 0.97480 -0.02191
 C506 C 0.56680 0.95742 -0.04087
 O507 O 0.45565 0.94903 -0.04538
 O508 O 0.42136 0.97633 -0.02179
 C509 C 0.42824 0.95635 -0.03902
 O510 O 0.54130 1.05393 -0.04650
 O511 O 0.57509 1.02683 -0.02238
 C512 C 0.56853 1.04576 -0.04047
 Zr513 Zr 0.49909 1.04112 -0.03140
 O514 O 0.49601 1.04201 -0.07114
 O515 O 0.50349 1.08938 -0.03033
 Zr516 Zr 0.49780 0.96392 -0.03144
 O517 O 0.49641 0.95813 -0.07088
 O518 O 0.50058 0.91569 -0.02772
 Zr519 Zr 0.54393 1.00178 0.00019
 Zr520 Zr 0.45213 1.00312 -0.00045
 O521 O 0.47208 1.00301 -0.03644
 O522 O 0.52539 1.00213 -0.03638
 O523 O 0.47131 1.04734 -0.00017
 O524 O 0.52425 0.95789 0.00010
 O525 O 0.52563 1.04622 0.00017
 O526 O 0.47000 0.95829 -0.00028
 H527 H 0.45718 1.00290 0.05066
 H528 H 0.53793 0.93991 0.00021
 H529 H 0.45889 1.00361 -0.05148
 H530 H 0.53976 1.06387 0.00016
 H531 H 0.48581 0.90759 0.01986
 H532 H 0.48002 0.90788 -0.02390
 H533 H 0.49438 0.97878 -0.07826
 H534 H 0.51130 1.02757 -0.07784
 H535 H 0.48828 1.09718 -0.01822
 H536 H 0.50027 1.09698 0.04630
 H537 H 0.50731 1.02427 0.07740
 H538 H 0.49398 0.94553 0.07731
 O539 O 1.03948 0.56018 0.54456
 O540 O 1.07396 0.53079 0.52287
 C541 C 1.06693 0.55184 0.53923
 O542 O 0.95748 0.44938 0.54725
 O543 O 0.92232 0.47619 0.52424
 C544 C 0.92986 0.45636 0.54145
 O545 O 1.04107 0.45397 0.54864
 O546 O 1.07489 0.47896 0.52291
 C547 C 1.06839 0.46106 0.54171
 O548 O 0.95576 0.56212 0.54210
 O549 O 0.92160 0.53043 0.52246
 C550 C 0.92838 0.55316 0.53725
 Zr551 Zr 0.99770 0.54315 0.53153
 O552 O 0.99535 0.54136 0.57134
 O553 O 0.99719 0.59157 0.53330
 Zr554 Zr 0.99881 0.46667 0.53367
 O555 O 0.99769 0.47139 0.57326
 O556 O 1.00245 0.41840 0.53567
 O557 O 1.02563 0.50549 0.53722
 O558 O 0.97147 0.50478 0.53737
 O559 O 0.95545 0.55809 0.45653
 O560 O 0.92141 0.52868 0.47870
 C561 C 0.92813 0.55005 0.46250
 O562 O 1.03946 0.45168 0.45408
 O563 O 1.07411 0.47720 0.47849
 C564 C 1.06697 0.45865 0.46027
 O565 O 0.95601 0.44724 0.45771
 O566 O 0.92144 0.47457 0.48101
 C567 C 0.92852 0.45437 0.46399
 O568 O 1.03893 0.55414 0.45256
 O569 O 1.07384 0.52991 0.47755
 C570 C 1.06651 0.54752 0.45883
 Zr571 Zr 0.99734 0.54065 0.46851
 O572 O 0.99368 0.53930 0.42882
 O573 O 1.00028 0.58903 0.46781
 Zr574 Zr 0.99803 0.46359 0.47086
 O575 O 0.99644 0.45588 0.43162
 O576 O 1.00187 0.41566 0.47624
 Zr577 Zr 1.04392 0.50413 0.50057
 Zr578 Zr 0.95198 0.50289 0.50130
 O579 O 0.97121 0.50173 0.46506
 O580 O 1.02460 0.50224 0.46433
 O581 O 0.97023 0.54758 0.50002
 O582 O 1.02531 0.45979 0.50210
 O583 O 1.02422 0.54795 0.49958
 O584 O 0.97104 0.45862 0.50265
 H585 H 0.95801 0.50550 0.55231
 H586 H 1.03937 0.44211 0.50240
 H587 H 0.95771 0.50144 0.45021
 H588 H 1.03793 0.56588 0.49873
 H589 H 0.98664 0.40971 0.52460
 H590 H 0.98150 0.40760 0.48040
 H591 H 0.99080 0.47552 0.42368
 H592 H 1.00895 0.52454 0.42256
 H593 H 0.98457 0.59703 0.47940
 H594 H 1.00807 0.59950 0.51840
 H595 H 1.01330 0.53000 0.57742
 H596 H 0.99840 0.45038 0.58028
 O597 O 0.93375 0.54090 -0.04498
 O598 O 0.96335 0.57676 -0.02507
 C599 C 0.94143 0.56894 -0.04011
 O600 O 0.94365 0.45800 0.04481
 O601 O 0.97026 0.42362 0.02059
 C602 C 0.95138 0.43041 0.03859
 O603 O 0.94009 0.54247 0.04280
 O604 O 0.96491 0.57769 0.01803
 C605 C 0.94624 0.57032 0.03606
 O606 O 0.93861 0.45645 -0.04668
 O607 O 0.96894 0.42288 -0.02490
 C608 C 0.94764 0.42907 -0.04107
 Zr609 Zr 0.95349 0.49927 -0.03348
 O610 O 0.90568 0.49538 -0.03259
 O611 O 0.95466 0.50001 -0.07323
 Zr612 Zr 0.95655 0.50036 0.02928
 O613 O 0.90878 0.49884 0.02704
 O614 O 0.95509 0.49962 0.06911
 O615 O 0.94834 0.52733 -0.00210
 O616 O 0.95030 0.47256 -0.00159
 O617 O 1.04347 0.45926 -0.05158
 O618 O 1.02066 0.42419 -0.02545
 C619 C 1.03808 0.43144 -0.04433
 O620 O 1.04978 0.54549 0.03759
 O621 O 1.01864 0.57903 0.01669
 C622 C 1.04081 0.57287 0.03198
 O623 O 1.04775 0.46108 0.04209
 O624 O 1.02156 0.42491 0.01949
 C625 C 1.04073 0.43299 0.03686
 O626 O 1.04531 0.54389 -0.04972
 O627 O 1.01671 0.57818 -0.02702
 C628 C 1.03726 0.57145 -0.04373
 Zr629 Zr 1.02934 0.50142 -0.03646
 O630 O 1.07724 0.49890 -0.03789
 O631 O 1.02707 0.50387 -0.07618
 Zr632 Zr 1.03274 0.50255 0.02649
 O633 O 1.08057 0.49978 0.02380
 O634 O 1.03538 0.50653 0.06611
 Zr635 Zr 0.99184 0.54729 -0.00391
 Zr636 Zr 0.99446 0.45449 -0.00293
 O637 O 1.03748 0.47516 -0.00484
 O638 O 1.03634 0.52976 -0.00549
 O639 O 0.99189 0.47270 -0.03960
 O640 O 0.99422 0.52830 0.03237
 O641 O 0.99042 0.52721 -0.03989
 O642 O 0.99562 0.47426 0.03325
 H643 H 0.93276 0.45841 -0.00085
 H644 H 0.99493 0.54228 0.04702
 H645 H 1.05559 0.46176 -0.00518
 H646 H 0.98928 0.54059 -0.05491
 H647 H 0.97120 0.51331 0.07543
 H648 H 1.01978 0.49276 0.07330
 H649 H 1.08775 0.51787 0.01430
 H650 H 1.08538 0.51656 -0.02842
 H651 H 1.01120 0.48933 -0.08166
 H652 H 0.93327 0.49958 -0.07884
 H653 H 0.89825 0.50915 -0.01915
 H654 H 0.90129 0.49831 0.04462
 O655 O 0.54437 0.95770 0.54401
 O656 O 0.51730 0.92314 0.52040
 C657 C 0.53641 0.93006 0.53816
 O658 O 0.43803 1.04490 0.54043
 O659 O 0.46883 1.07855 0.51911
 C660 C 0.44699 1.07233 0.53484
 O661 O 0.44010 0.96057 0.54510
 O662 O 0.46462 0.92460 0.52098
 C663 C 0.44643 0.93249 0.53919
 O664 O 0.55165 1.04161 0.53911
 O665 O 0.52262 1.07704 0.51822
 C666 C 0.54451 1.06954 0.53345
 Zr667 Zr 0.53135 0.99991 0.52860
 O668 O 0.52848 1.00264 0.56825
 O669 O 0.57908 0.99547 0.52898
 Zr670 Zr 0.45586 1.00215 0.52989
 O671 O 0.46259 1.00403 0.56921
 O672 O 0.40825 1.00275 0.53467
 O673 O 0.49283 0.97341 0.53440
 O674 O 0.49450 1.02837 0.53353
 O675 O 0.54849 1.04034 0.45251
 O676 O 0.52241 1.07655 0.47527
 C677 C 0.54225 1.06844 0.45836
 O678 O 0.43953 0.95920 0.45183
 O679 O 0.46495 0.92373 0.47572
 C680 C 0.44630 0.93125 0.45778
 O681 O 0.43741 1.04367 0.45454
 O682 O 0.46819 1.07798 0.47506
 C683 C 0.44622 1.07127 0.45967
 O684 O 0.54466 0.95593 0.45210
 O685 O 0.51628 0.92237 0.47576
 C686 C 0.53638 0.92857 0.45854
 Zr687 Zr 0.53014 0.99886 0.46550
 O688 O 0.52518 0.99852 0.42597
 O689 O 0.57803 0.99889 0.46249
 Zr690 Zr 0.45431 1.00119 0.46676
 O691 O 0.45297 1.00403 0.42703
 O692 O 0.40641 0.99909 0.46843
 Zr693 Zr 0.49142 0.95403 0.49808
 Zr694 Zr 0.49436 1.04704 0.49707
 O695 O 0.49299 1.02695 0.46112
 O696 O 0.49137 0.97244 0.46141
 O697 O 0.53763 1.02661 0.49661
 O698 O 0.44849 0.97483 0.49863
 O699 O 0.53553 0.97228 0.49735
 O700 O 0.44986 1.02932 0.49809
 H701 H 0.49523 1.04252 0.54809
 H702 H 0.43045 0.96132 0.49880
 H703 H 0.49307 1.04033 0.44607
 H704 H 0.55293 0.95798 0.49765
 H705 H 0.39919 0.99476 0.51903
 H706 H 0.39945 1.01618 0.47923
 H707 H 0.46870 0.99003 0.42042
 H708 H 0.54597 0.99858 0.41888
 H709 H 0.58618 0.98418 0.47486
 H710 H 0.58696 1.00763 0.51468
 H711 H 0.54961 1.00247 0.57450
 H712 H 0.44216 1.00581 0.57683
 O713 O 1.06995 1.04994 0.53430
 O714 O 1.04182 1.02672 0.56523
 C715 C 1.06304 1.04515 0.55771
 O716 O 0.95631 1.05253 0.47011
 O717 O 0.98028 1.02045 0.44231
 C718 C 0.96122 1.04215 0.44762
 O719 O 0.96686 1.06283 0.53883
 O720 O 0.99147 1.03267 0.56769
 C721 C 0.97485 1.05605 0.56159
 O722 O 1.06875 1.03852 0.46500
 O723 O 1.03388 1.01455 0.43966
 C724 C 1.05823 1.03070 0.44317
 Zr725 Zr 1.05074 1.03193 0.50122
 O726 O 1.04983 1.08004 0.49708
 O727 O 1.09862 1.03230 0.50002
 Zr728 Zr 0.97567 1.04021 0.50475
 O729 O 0.98434 1.08743 0.49976
 O730 O 0.92871 1.04786 0.50980
 O731 O 1.01553 1.04375 0.52516
 O732 O 1.01217 1.03970 0.48034
 O733 O 1.05624 0.93625 0.47127
 O734 O 1.02850 0.96410 0.44300
 C735 C 1.04804 0.94300 0.44854
 O736 O 0.95643 0.94847 0.54579
 O737 O 0.98603 0.97860 0.57113
 C738 C 0.96570 0.95755 0.56765
 O739 O 0.94753 0.94692 0.47676
 O740 O 0.97554 0.96938 0.44538
 C741 C 0.95402 0.95147 0.45333
 O742 O 1.05773 0.93954 0.54110
 O743 O 1.03615 0.97347 0.56874
 C744 C 1.05265 0.94970 0.56360
 Zr745 Zr 1.04303 0.95545 0.50595
 O746 O 1.03808 0.90721 0.50626
 O747 O 1.09078 0.95074 0.50633
 Zr748 Zr 0.96728 0.96411 0.50961
 O749 O 0.95677 0.91694 0.51108
 O750 O 0.92059 0.97363 0.51473
 Zr751 Zr 1.01196 1.00079 0.54300
 Zr752 Zr 1.00638 0.99446 0.46777
 O753 O 1.00298 0.95209 0.48637
 O754 O 1.00621 0.95540 0.53035
 O755 O 1.05124 0.99109 0.48107
 O756 O 0.96741 1.00459 0.52952
 O757 O 1.05417 0.99486 0.52521
 O758 O 0.96375 1.00079 0.48501
 H759 H 1.01324 1.05619 0.46756
 H760 H 0.95087 1.00744 0.54194
 H761 H 1.00063 0.93309 0.47638
 H762 H 1.07269 0.99378 0.53566
 H763 H 0.91794 1.03197 0.50004
 H764 H 0.91199 0.97906 0.49814
 H765 H 0.97628 0.90590 0.51080
 H766 H 1.02590 0.90170 0.52125
 H767 H 1.09883 0.96143 0.49131
 H768 H 1.10533 1.01118 0.50360
 H769 H 1.07118 1.08641 0.49463
 H770 H 0.96431 1.09768 0.50002
 O771 O 0.44112 0.52818 -0.03156
 O772 O 0.47821 0.51228 -0.05888
 C773 C 0.45220 0.52484 -0.05400
 O774 O 0.54037 0.56230 0.04194
 O775 O 0.52189 0.52557 0.06873
 C776 C 0.53539 0.55138 0.06426
 O777 O 0.53920 0.56652 -0.02783
 O778 O 0.52634 0.53027 -0.05721
 C779 C 0.53669 0.55705 -0.05085
 O780 O 0.43623 0.52263 0.03801
 O781 O 0.47156 0.50715 0.06687
 C782 C 0.44535 0.51847 0.06090
 Zr783 Zr 0.45925 0.51640 0.00366
 O784 O 0.44549 0.56271 0.00521
 O785 O 0.41414 0.50067 -0.00038
 Zr786 Zr 0.52948 0.54438 0.00637
 O787 O 0.50673 0.58693 0.00742
 O788 O 0.57189 0.56689 0.00723
 O789 O 0.49338 0.53657 -0.01762
 O790 O 0.49142 0.53485 0.02735
 O791 O 0.47263 0.42422 0.03692
 O792 O 0.48880 0.45905 0.06621
 C793 C 0.47528 0.43383 0.05990
 O794 O 0.57954 0.46321 -0.02860
 O795 O 0.54523 0.48108 -0.05741
 C796 C 0.57063 0.46800 -0.05148
 O797 O 0.57748 0.46503 0.04128
 O798 O 0.53900 0.47768 0.06850
 C799 C 0.56607 0.46767 0.06365
 O800 O 0.48136 0.42419 -0.03269
 O801 O 0.49689 0.46235 -0.05948
 C802 C 0.48595 0.43531 -0.05497
 Zr803 Zr 0.48720 0.44433 0.00292
 O804 O 0.50640 0.40003 0.00590
 O805 O 0.44372 0.42484 -0.00202
 Zr806 Zr 0.55781 0.47262 0.00583
 O807 O 0.57458 0.42729 0.00836
 O808 O 0.60264 0.48992 0.00509
 Zr809 Zr 0.51032 0.49549 -0.03296
 Zr810 Zr 0.50659 0.49311 0.04236
 O811 O 0.52338 0.45244 0.02640
 O812 O 0.52582 0.45350 -0.01827
 O813 O 0.46639 0.47745 0.02535
 O814 O 0.55009 0.51127 -0.01548
 O815 O 0.46892 0.47899 -0.01871
 O816 O 0.54826 0.51003 0.02861
 H817 H 0.48479 0.55126 0.03900
 H818 H 0.56737 0.51814 -0.02599
 H819 H 0.52899 0.43538 0.03776
 H820 H 0.45264 0.47290 -0.03051
 H821 H 0.58752 0.55106 0.00453
 H822 H 0.60440 0.50515 0.01880
 H823 H 0.56751 0.41599 -0.00665
 H824 H 0.51921 0.39659 -0.00913
 H825 H 0.42955 0.43649 0.00876
 H826 H 0.41094 0.48419 0.01211
 H827 H 0.42307 0.56250 0.00432
 H828 H 0.52274 0.60270 0.00913
 C829 C 0.31558 1.20150 0.14869
 C830 C 0.32963 1.18623 0.12879
 C831 C 0.33342 1.15448 0.12948
 C832 C 0.32353 1.13803 0.15071
 C833 C 0.31009 1.15345 0.17104
 C834 C 0.30578 1.18532 0.17008
 N835 N 0.34910 1.14002 0.10909
 N836 N 0.34722 1.11153 0.10426
 C837 C 0.36528 1.09804 0.08468
 C838 C 0.35910 1.06817 0.07641
 C839 C 0.37853 1.05360 0.05923
 C840 C 0.40479 1.06856 0.05067
 C841 C 0.41010 1.09894 0.05812
 C842 C 0.39048 1.11362 0.07478
 H843 H 0.31271 1.22609 0.14750
 H844 H 0.33749 1.19918 0.11266
 H845 H 0.32671 1.11349 0.15176
 H846 H 0.30262 1.14046 0.18727
 H847 H 0.33970 1.05590 0.08381
 H848 H 0.37398 1.03018 0.05377
 H849 H 0.43016 1.11103 0.05176
 H850 H 0.39585 1.13666 0.08082
 C851 C 0.81859 0.70708 0.64728
 C852 C 0.83192 0.69122 0.62729
 C853 C 0.83641 0.65957 0.62873
 C854 C 0.82811 0.64391 0.65081
 C855 C 0.81537 0.65990 0.67110
 C856 C 0.81022 0.69161 0.66942
 N857 N 0.85075 0.64430 0.60803
 N858 N 0.84997 0.61537 0.60503
 C859 C 0.86638 0.60078 0.58499
 C860 C 0.86251 0.56933 0.58063
 C861 C 0.88107 0.55392 0.56330
 C862 C 0.90409 0.56980 0.55051
 C863 C 0.90692 0.60154 0.55401
 C864 C 0.88811 0.61695 0.57091
 H865 H 0.81500 0.73152 0.64548
 H866 H 0.83855 0.70359 0.61050
 H867 H 0.83178 0.61949 0.65245
 H868 H 0.80894 0.64739 0.68788
 H869 H 0.84589 0.55656 0.59137
 H870 H 0.87881 0.52935 0.56119
 H871 H 0.92463 0.61421 0.54442
 H872 H 0.89163 0.64122 0.57387
 C873 C 0.65677 0.83663 0.18245
 C874 C 0.64266 0.85596 0.16525
 C875 C 0.65351 0.85855 0.14064
 C876 C 0.67852 0.84086 0.13308
 C877 C 0.69266 0.82114 0.15034
 C878 C 0.68212 0.81915 0.17534
 N879 N 0.63814 0.87925 0.12414
 N880 N 0.64614 0.88545 0.10166
 C881 C 0.62831 0.90633 0.08689
 C882 C 0.63549 0.91179 0.06151
 C883 C 0.61639 0.92995 0.04648
 C884 C 0.58982 0.94255 0.05676
 C885 C 0.58362 0.93826 0.08242
 C886 C 0.60261 0.92053 0.09732
 H887 H 0.64789 0.83559 0.20144
 H888 H 0.62327 0.86933 0.17122
 H889 H 0.68716 0.84242 0.11405
 H890 H 0.71223 0.80808 0.14434
 H891 H 0.65528 0.90118 0.05319
 H892 H 0.62151 0.93281 0.02668
 H893 H 0.56341 0.94795 0.09086
 H894 H 0.59657 0.91718 0.11687
 C895 C 1.16875 0.34930 0.68273
 C896 C 1.15405 0.36825 0.66564
 C897 C 1.16325 0.36935 0.64052
 C898 C 1.18734 0.35075 0.63239
 C899 C 1.20212 0.33142 0.64958
 C900 C 1.19307 0.33072 0.67502
 N901 N 1.14682 0.38915 0.62405
 N902 N 1.15320 0.39408 0.60103
 C903 C 1.13405 0.41388 0.58645
 C904 C 1.13982 0.41866 0.56074
 C905 C 1.11941 0.43563 0.54600
 C906 C 1.09291 0.44762 0.55690
 C907 C 1.08805 0.44400 0.58280
 C908 C 1.10837 0.42751 0.59742
 H909 H 1.16098 0.34929 0.70207
 H910 H 1.13536 0.38233 0.67203
 H911 H 1.19463 0.35115 0.61294
 H912 H 1.22084 0.31746 0.64309
 H913 H 1.15956 0.40846 0.55200
 H914 H 1.12352 0.43806 0.52601
 H915 H 1.06794 0.45330 0.59170
 H916 H 1.10336 0.42463 0.61722
 C917 C 0.65378 1.16100 -0.18696
 C918 C 0.64107 1.14086 -0.16948
 C919 C 0.64997 1.14160 -0.14426
 C920 C 0.67133 1.16345 -0.13644
 C921 C 0.68402 1.18384 -0.15394
 C922 C 0.67566 1.18258 -0.17950
 N923 N 0.63655 1.12001 -0.12727
 N924 N 0.64370 1.11741 -0.10415
 C925 C 0.62839 1.09561 -0.08832
 C926 C 0.63355 1.09551 -0.06225
 C927 C 0.61575 1.07716 -0.04625
 C928 C 0.59262 1.05884 -0.05633
 C929 C 0.58888 1.05754 -0.08250
 C930 C 0.60660 1.07559 -0.09835
 H931 H 0.64675 1.15934 -0.20642
 H932 H 0.62444 1.12426 -0.17568
 H933 H 0.67837 1.16459 -0.11697
 H934 H 0.70092 1.20004 -0.14755
 H935 H 0.65031 1.11074 -0.05422
 H936 H 0.61867 1.07880 -0.02608
 H937 H 0.57109 1.04360 -0.09063
 H938 H 0.60229 1.07483 -0.11837
 C939 C 1.16272 0.65537 0.31289
 C940 C 1.14875 0.63642 0.33050
 C941 C 1.15772 0.63687 0.35566
 C942 C 1.18090 0.65688 0.36326
 C943 C 1.19492 0.67616 0.34557
 C944 C 1.18603 0.67549 0.32012
 N945 N 1.14190 0.61730 0.37280
 N946 N 1.14841 0.61393 0.39596
 C947 C 1.12997 0.59440 0.41147
 C948 C 1.13638 0.59095 0.43718
 C949 C 1.11673 0.57412 0.45282
 C950 C 1.09030 0.56101 0.44281
 C951 C 1.08475 0.56341 0.41692
 C952 C 1.10435 0.57973 0.40142
 H953 H 1.15515 0.65423 0.29355
 H954 H 1.13075 0.62122 0.32451
 H955 H 1.18801 0.65768 0.38272
 H956 H 1.21287 0.69129 0.35174
 H957 H 1.15607 0.60202 0.44522
 H958 H 1.12134 0.57264 0.47278
 H959 H 1.06467 0.55322 0.40872
 H960 H 1.09884 0.58165 0.38165
 C961 C 0.34821 0.82360 -0.17511
 C962 C 0.36084 0.84411 -0.15803
 C963 C 0.34805 0.84814 -0.13421
 C964 C 0.32277 0.83048 -0.12717
 C965 C 0.31006 0.80962 -0.14433
 C966 C 0.32238 0.80642 -0.16869
 N967 N 0.36136 0.87078 -0.11819
 N968 N 0.35222 0.87766 -0.09614
 C969 C 0.36791 0.90097 -0.08214
 C970 C 0.36243 0.90483 -0.05628
 C971 C 0.38055 0.92486 -0.04200
 C972 C 0.40425 0.94110 -0.05361
 C973 C 0.40825 0.93869 -0.07970
 C974 C 0.39028 0.91900 -0.09382
 H975 H 0.35842 0.82163 -0.19359
 H976 H 0.38044 0.85746 -0.16358
 H977 H 0.31261 0.83319 -0.10875
 H978 H 0.29006 0.79684 -0.13889
 H979 H 0.34516 0.89128 -0.04699
 H980 H 0.37732 0.92619 -0.02183
 H981 H 0.42633 0.95112 -0.08904
 H982 H 0.39475 0.91704 -0.11379
 C983 C 0.83785 0.33822 0.32051
 C984 C 0.85077 0.35808 0.33798
 C985 C 0.84237 0.35688 0.36331
 C986 C 0.82097 0.33502 0.37121
 C987 C 0.80800 0.31484 0.35364
 C988 C 0.81616 0.31641 0.32800
 N989 N 0.85672 0.37791 0.38020
 N990 N 0.85068 0.38060 0.40355
 C991 C 0.86740 0.40210 0.41866
 C992 C 0.86241 0.40396 0.44475
 C993 C 0.88093 0.42266 0.45987
 C994 C 0.90471 0.43944 0.44894
 C995 C 0.90856 0.43872 0.42276
 C996 C 0.89011 0.42045 0.40778
 H997 H 0.84488 0.34010 0.30104
 H998 H 0.86741 0.37467 0.33172
 H999 H 0.81432 0.33358 0.39079
 H1000 H 0.79133 0.29837 0.36003
 H1001 H 0.84493 0.39013 0.45345
 H1002 H 0.87774 0.42274 0.48005
 H1003 H 0.92668 0.45160 0.41392
 H1004 H 0.89439 0.41992 0.38772
 C1005 C 1.16572 0.34873 0.17784
 C1006 C 1.14657 0.36278 0.16050
 C1007 C 1.14289 0.35060 0.13637
 C1008 C 1.15956 0.32456 0.12935
 C1009 C 1.17908 0.31053 0.14671
 C1010 C 1.18192 0.32219 0.17133
 N1011 N 1.12178 0.36533 0.11991
 N1012 N 1.11470 0.35593 0.09799
 C1013 C 1.09321 0.37287 0.08317
 C1014 C 1.08753 0.36472 0.05802
 C1015 C 1.06872 0.38304 0.04285
 C1016 C 1.05561 0.40975 0.05278
 C1017 C 1.06004 0.41676 0.07828
 C1018 C 1.07849 0.39860 0.09329
 H1019 H 1.16741 0.35840 0.19655
 H1020 H 1.13400 0.38298 0.16605
 H1021 H 1.15718 0.31488 0.11071
 H1022 H 1.19109 0.28998 0.14117
 H1023 H 1.09851 0.34484 0.04995
 H1024 H 1.06575 0.37729 0.02320
 H1025 H 1.04996 0.43709 0.08646
 H1026 H 1.08195 0.40532 0.11267
 C1027 C 0.66321 0.84919 0.67804
 C1028 C 0.64325 0.86230 0.66084
 C1029 C 0.64057 0.85052 0.63650
 C1030 C 0.65915 0.82599 0.62909
 C1031 C 0.67947 0.81290 0.64632
 C1032 C 0.68123 0.82401 0.67117
 N1033 N 0.61839 0.86393 0.62025
 N1034 N 0.61254 0.85486 0.59799
 C1035 C 0.58976 0.87026 0.58338
 C1036 C 0.58678 0.86417 0.55754
 C1037 C 0.56724 0.88193 0.54260
 C1038 C 0.55057 0.90591 0.55349
 C1039 C 0.55212 0.91051 0.57957
 C1040 C 0.57136 0.89288 0.59437
 H1041 H 0.66403 0.85839 0.69695
 H1042 H 0.62920 0.88135 0.66670
 H1043 H 0.65756 0.81663 0.61028
 H1044 H 0.69285 0.79335 0.64051
 H1045 H 0.60066 0.84672 0.54879
 H1046 H 0.56671 0.87832 0.52244
 H1047 H 0.53947 0.92891 0.58835
 H1048 H 0.57273 0.89786 0.61428
 C1049 C 1.19903 0.68105 -0.14545
 C1050 C 1.18046 0.66979 -0.12620
 C1051 C 1.15219 0.65705 -0.13163
 C1052 C 1.14309 0.65449 -0.15684
 C1053 C 1.16193 0.66503 -0.17629
 C1054 C 1.19005 0.67921 -0.17095
 N1055 N 1.13370 0.64605 -0.11128
 N1056 N 1.10542 0.64094 -0.11358
 C1057 C 1.08759 0.62830 -0.09343
 C1058 C 1.05618 0.62519 -0.09648
 C1059 C 1.03884 0.60915 -0.07870
 C1060 C 1.05279 0.59592 -0.05766
 C1061 C 1.08395 0.60031 -0.05395
 C1062 C 1.10121 0.61662 -0.07155
 H1063 H 1.22043 0.69133 -0.14014
 H1064 H 1.18794 0.67151 -0.10687
 H1065 H 1.12149 0.64421 -0.16151
 H1066 H 1.15385 0.66285 -0.19544
 H1067 H 1.04537 0.63395 -0.11326
 H1068 H 1.01501 0.60519 -0.08228
 H1069 H 1.09523 0.58957 -0.03817
 H1070 H 1.12541 0.61858 -0.06873
 C1071 C 0.67852 1.14756 0.32309
 C1072 C 0.65861 1.13400 0.34018
 C1073 C 0.65355 1.14709 0.36381
 C1074 C 0.66979 1.17346 0.37073
 C1075 C 0.69007 1.18703 0.35362
 C1076 C 0.69408 1.17457 0.32938
 N1077 N 0.63109 1.13328 0.37966
 N1078 N 0.62303 1.14317 0.40122
 C1079 C 0.59982 1.12727 0.41511
 C1080 C 0.59417 1.13435 0.44050
 C1081 C 0.57367 1.11662 0.45472
 C1082 C 0.55874 1.09168 0.44355
 C1083 C 0.56312 1.08596 0.41782
 C1084 C 0.58329 1.10350 0.40377
 H1085 H 0.68114 1.13728 0.30467
 H1086 H 0.64635 1.11356 0.33472
 H1087 H 0.66630 1.18387 0.38899
 H1088 H 0.70159 1.20794 0.35896
 H1089 H 0.60653 1.15273 0.44951
 H1090 H 0.57080 1.12126 0.47460
 H1091 H 0.55170 1.06699 0.40873
 H1092 H 0.58663 1.09776 0.38415
 C1093 C 0.83226 0.66125 0.18100
 C1094 C 0.85087 0.64725 0.16316
 C1095 C 0.85064 0.65682 0.13808
 C1096 C 0.83079 0.68031 0.13075
 C1097 C 0.81185 0.69434 0.14865
 C1098 C 0.81271 0.68520 0.17409
 N1099 N 0.87093 0.64193 0.12091
 N1100 N 0.87434 0.64896 0.09780
 C1101 C 0.89524 0.63191 0.08238
 C1102 C 0.89716 0.63738 0.05635
 C1103 C 0.91540 0.61869 0.04092
 C1104 C 0.93167 0.59426 0.05148
 C1105 C 0.93088 0.58995 0.07763
 C1106 C 0.91304 0.60854 0.09290
 H1107 H 0.83350 0.65350 0.20032
 H1108 H 0.86594 0.62903 0.16899
 H1109 H 0.83014 0.68795 0.11139
 H1110 H 0.79718 0.71283 0.14273
 H1111 H 0.88373 0.65537 0.04792
 H1112 H 0.91550 0.62223 0.02075
 H1113 H 0.94339 0.57136 0.08622
 H1114 H 0.91246 0.60390 0.11289
 C1115 C 0.34999 1.18841 0.67244
 C1116 C 0.36455 1.17494 0.65171
 C1117 C 0.34786 1.16681 0.63022
 C1118 C 0.31662 1.17215 0.62981
 C1119 C 0.30221 1.18624 0.65017
 C1120 C 0.31872 1.19451 0.67171
 N1121 N 0.36163 1.15193 0.60904
 N1122 N 0.39003 1.15250 0.60472
 C1123 C 0.40310 1.13568 0.58414
 C1124 C 0.38616 1.11363 0.57101
 C1125 C 0.40025 1.09449 0.55350
 C1126 C 0.43139 1.09727 0.54843
 C1127 C 0.44788 1.12068 0.56024
 C1128 C 0.43385 1.13957 0.57817
 H1129 H 0.36326 1.19478 0.68873
 H1130 H 0.38867 1.17063 0.65256
 H1131 H 0.30345 1.16570 0.61348
 H1132 H 0.27808 1.19060 0.64913
 H1133 H 0.36240 1.11011 0.57517
 H1134 H 0.38706 1.07650 0.54471
 H1135 H 0.47194 1.12298 0.55689
 H1136 H 0.44721 1.15647 0.58811
 C1137 C 0.79308 0.31858 -0.14954
 C1138 C 0.80928 0.33121 -0.12941
 C1139 C 0.84041 0.33702 -0.13158
 C1140 C 0.85511 0.33065 -0.15446
 C1141 C 0.83882 0.31860 -0.17478
 C1142 C 0.80765 0.31221 -0.17251
 N1143 N 0.85615 0.35066 -0.11077
 N1144 N 0.88497 0.35131 -0.10917
 C1145 C 0.90021 0.36702 -0.08905
 C1146 C 0.93187 0.36498 -0.08692
 C1147 C 0.94759 0.38328 -0.06954
 C1148 C 0.93175 0.40415 -0.05436
 C1149 C 0.89998 0.40504 -0.05566
 C1150 C 0.88431 0.38650 -0.07266
 H1151 H 0.76913 0.31395 -0.14718
 H1152 H 0.79758 0.33630 -0.11198
 H1153 H 0.87905 0.33530 -0.15672
 H1154 H 0.85077 0.31373 -0.19214
 H1155 H 0.94447 0.35014 -0.09945
 H1156 H 0.97213 0.38265 -0.06919
 H1157 H 0.88734 0.42121 -0.04429
 H1158 H 0.85993 0.38862 -0.07386
 C1159 C 0.33129 0.83791 0.31423
 C1160 C 0.34967 0.85258 0.33180
 C1161 C 0.35133 0.84204 0.35658
 C1162 C 0.33362 0.81678 0.36389
 C1163 C 0.31485 0.80208 0.34626
 C1164 C 0.31379 0.81231 0.32110
 N1165 N 0.37112 0.85794 0.37348
 N1166 N 0.37656 0.85016 0.39614
 C1167 C 0.39665 0.86847 0.41128
 C1168 C 0.40175 0.86114 0.43669
 C1169 C 0.41946 0.88047 0.45199
 C1170 C 0.43197 0.90746 0.44197
 C1171 C 0.42791 0.91385 0.41631
 C1172 C 0.41062 0.89465 0.40117
 H1173 H 0.33100 0.84656 0.29514
 H1174 H 0.36305 0.87216 0.32600
 H1175 H 0.33441 0.80837 0.38303
 H1176 H 0.30177 0.78234 0.35213
 H1177 H 0.39131 0.84098 0.44480
 H1178 H 0.42213 0.87516 0.47175
 H1179 H 0.43754 0.93435 0.40803
 H1180 H 0.40752 0.90087 0.38163
 C1181 C 1.13542 1.17689 0.31126
 C1182 C 1.11816 1.15620 0.32520
 C1183 C 1.13092 1.14111 0.34573
 C1184 C 1.16066 1.14827 0.35323
 C1185 C 1.17781 1.16942 0.33955
 C1186 C 1.16555 1.18319 0.31805
 N1187 N 1.11344 1.11837 0.35850
 N1188 N 1.12577 1.09962 0.37359
 C1189 C 1.10867 1.07762 0.38749
 C1190 C 1.12360 1.06070 0.40593
 C1191 C 1.10708 1.04313 0.42295
 C1192 C 1.07535 1.04198 0.42147
 C1193 C 1.06048 1.05670 0.40159
 C1194 C 1.07709 1.07468 0.38470
 H1195 H 1.12549 1.18738 0.29476
 H1196 H 1.09518 1.15108 0.31947
 H1197 H 1.17079 1.13713 0.36933
 H1198 H 1.20106 1.17380 0.34498
 H1199 H 1.14792 1.06268 0.40811
 H1200 H 1.11891 1.03184 0.43818
 H1201 H 1.03599 1.05627 0.40034
 H1202 H 1.06515 1.08746 0.37037
 C1203 C 0.65280 0.65162 -0.19637
 C1204 C 0.63325 0.63438 -0.18139
 C1205 C 0.62670 0.64370 -0.15687
 C1206 C 0.64039 0.67029 -0.14718
 C1207 C 0.66027 0.68742 -0.16206
 C1208 C 0.66644 0.67837 -0.18689
 N1209 N 0.60666 0.62542 -0.14201
 N1210 N 0.59726 0.63446 -0.12067
 C1211 C 0.57843 0.61590 -0.10500
 C1212 C 0.57049 0.62708 -0.08132
 C1213 C 0.55541 0.60836 -0.06421
 C1214 C 0.54800 0.57796 -0.07054
 C1215 C 0.55439 0.56731 -0.09492
 C1216 C 0.56960 0.58617 -0.11206
 H1217 H 0.65730 0.64391 -0.21538
 H1218 H 0.62302 0.61380 -0.18893
 H1219 H 0.63582 0.67777 -0.12812
 H1220 H 0.67037 0.70796 -0.15432
 H1221 H 0.57707 0.65001 -0.07579
 H1222 H 0.55057 0.61742 -0.04566
 H1223 H 0.54892 0.54405 -0.10033
 H1224 H 0.57535 0.57718 -0.13044
 C1225 C 0.83184 1.14220 0.69080
 C1226 C 0.85350 1.12533 0.67773
 C1227 C 0.86719 1.13749 0.65628
 C1228 C 0.85808 1.16635 0.64727
 C1229 C 0.83603 1.18316 0.66019
 C1230 C 0.82324 1.17145 0.68236
 N1231 N 0.89003 1.11993 0.64389
 N1232 N 0.90619 1.13115 0.62637
 C1233 C 0.92800 1.11319 0.61311
 C1234 C 0.94162 1.12580 0.59179
 C1235 C 0.95890 1.10746 0.57588
 C1236 C 0.96309 1.07628 0.58132
 C1237 C 0.95163 1.06418 0.60383
 C1238 C 0.93393 1.08253 0.61963
 H1239 H 0.82214 1.13255 0.70778
 H1240 H 0.86012 1.10299 0.68463
 H1241 H 0.86817 1.17599 0.63046
 H1242 H 0.82987 1.20570 0.65342
 H1243 H 0.93733 1.14941 0.58671
 H1244 H 0.96776 1.11726 0.55863
 H1245 H 0.95450 1.04016 0.60826
 H1246 H 0.92376 1.07241 0.63622
 C1247 C 0.30571 0.66718 0.14641
 C1248 C 0.31924 0.64517 0.13089
 C1249 C 0.34423 0.62838 0.13941
 C1250 C 0.35640 0.63464 0.16320
 C1251 C 0.34301 0.65651 0.17863
 C1252 C 0.31713 0.67254 0.17066
 N1253 N 0.35704 0.60520 0.12370
 N1254 N 0.37888 0.58854 0.13119
 C1255 C 0.39257 0.56611 0.11529
 C1256 C 0.42037 0.55334 0.12232
 C1257 C 0.43683 0.53552 0.10527
 C1258 C 0.42542 0.53015 0.08101
 C1259 C 0.39618 0.54065 0.07496
 C1260 C 0.37994 0.55859 0.09191
 H1261 H 0.28576 0.67913 0.13981
 H1262 H 0.30990 0.64074 0.11243
 H1263 H 0.37600 0.62233 0.17005
 H1264 H 0.35260 0.66033 0.19711
 H1265 H 0.43012 0.55875 0.14047
 H1266 H 0.45923 0.52773 0.11050
 H1267 H 0.38653 0.53654 0.05656
 H1268 H 0.35818 0.56769 0.08632
 C1269 C 1.19341 0.81056 0.65774
 C1270 C 1.17570 0.82749 0.64110
 C1271 C 1.15533 0.84934 0.65015
 C1272 C 1.15276 0.85446 0.67604
 C1273 C 1.17013 0.83749 0.69276
 C1274 C 1.19069 0.81504 0.68395
 N1275 N 1.13685 0.86540 0.63268
 N1276 N 1.11938 0.88716 0.63922
 C1277 C 1.10072 0.90189 0.62102
 C1278 C 1.08680 0.92984 0.62677
 C1279 C 1.07019 0.94539 0.60838
 C1280 C 1.06733 0.93284 0.58416
 C1281 C 1.08018 0.90410 0.57899
 C1282 C 1.09675 0.88884 0.59717
 H1283 H 1.20880 0.79370 0.64996
 H1284 H 1.17771 0.82345 0.62106
 H1285 H 1.13702 0.87126 0.68338
 H1286 H 1.16714 0.84205 0.71265
 H1287 H 1.08958 0.93995 0.64522
 H1288 H 1.06042 0.96748 0.61285
 H1289 H 1.07796 0.89349 0.56067
 H1290 H 1.10680 0.86697 0.59244
 C1291 C 0.64734 0.31690 0.18851
 C1292 C 0.63003 0.33782 0.17502
 C1293 C 0.64312 0.35446 0.15539
 C1294 C 0.67322 0.34850 0.14814
 C1295 C 0.69045 0.32711 0.16137
 C1296 C 0.67785 0.31194 0.18214
 N1297 N 0.62557 0.37762 0.14342
 N1298 N 0.63764 0.39734 0.12897
 C1299 C 0.61997 0.41980 0.11622
 C1300 C 0.63390 0.43742 0.09759
 C1301 C 0.61641 0.45542 0.08163
 C1302 C 0.58474 0.45619 0.08436
 C1303 C 0.57109 0.44089 0.10463
 C1304 C 0.58861 0.42256 0.12042
 H1305 H 0.63719 0.30527 0.20446
 H1306 H 0.60674 0.34200 0.18050
 H1307 H 0.68359 0.36084 0.13270
 H1308 H 0.71401 0.32374 0.15632
 H1309 H 0.65807 0.43566 0.09440
 H1310 H 0.62741 0.46729 0.06621
 H1311 H 0.54671 0.44109 0.10702
 H1312 H 0.57746 0.40935 0.13498
 C1313 C 0.83666 0.85591 0.30848
 C1314 C 0.85460 0.87437 0.32369
 C1315 C 0.85758 0.86773 0.34917
 C1316 C 0.84200 0.84257 0.35958
 C1317 C 0.82389 0.82407 0.34439
 C1318 C 0.82129 0.83044 0.31863
 N1319 N 0.87682 0.88660 0.36407
 N1320 N 0.88109 0.88065 0.38712
 C1321 C 0.90011 0.89880 0.40271
 C1322 C 0.90248 0.89056 0.42788
 C1323 C 0.92024 0.90772 0.44406
 C1324 C 0.93609 0.93360 0.43528
 C1325 C 0.93418 0.94169 0.40979
 C1326 C 0.91610 0.92438 0.39352
 H1327 H 0.83493 0.86163 0.28872
 H1328 H 0.86642 0.89375 0.31557
 H1329 H 0.84396 0.83707 0.37936
 H1330 H 0.81236 0.80462 0.35268
 H1331 H 0.89033 0.87079 0.43500
 H1332 H 0.92155 0.90055 0.46353
 H1333 H 0.94619 0.96150 0.40261
 H1334 H 0.91451 0.93100 0.37394
 C1335 C 0.33882 0.36316 -0.18419
 C1336 C 0.36081 0.37848 -0.17035
 C1337 C 0.37565 0.36362 -0.15071
 C1338 C 0.36712 0.33364 -0.14400
 C1339 C 0.34464 0.31840 -0.15761
 C1340 C 0.33101 0.33283 -0.17824
 N1341 N 0.39932 0.37951 -0.13801
 N1342 N 0.41730 0.36602 -0.12306
 C1343 C 0.43993 0.38256 -0.10959
 C1344 C 0.45502 0.36782 -0.09000
 C1345 C 0.47257 0.38472 -0.07323
 C1346 C 0.47539 0.41660 -0.07612
 C1347 C 0.46279 0.43085 -0.09728
 C1348 C 0.44501 0.41394 -0.11391
 H1349 H 0.32850 0.37469 -0.20005
 H1350 H 0.36713 0.40163 -0.17548
 H1351 H 0.37819 0.32187 -0.12864
 H1352 H 0.33908 0.29493 -0.15292
 H1353 H 0.45153 0.34359 -0.08676
 H1354 H 0.48242 0.37317 -0.05717
 H1355 H 0.46458 0.45540 -0.09981
 H1356 H 0.43396 0.42572 -0.12927
 C1357 C 1.17358 0.35121 -0.17835
 C1358 C 1.15269 0.36370 -0.16161
 C1359 C 1.14818 0.35073 -0.13790
 C1360 C 1.16571 0.32537 -0.13062
 C1361 C 1.18700 0.31280 -0.14746
 C1362 C 1.19069 0.32533 -0.17171
 N1363 N 1.12525 0.36405 -0.12226
 N1364 N 1.11775 0.35483 -0.10037
 C1365 C 1.09425 0.37069 -0.08682
 C1366 C 1.08940 0.36494 -0.06111
 C1367 C 1.06914 0.38318 -0.04718
 C1368 C 1.05365 0.40737 -0.05892
 C1369 C 1.05706 0.41162 -0.08492
 C1370 C 1.07698 0.39350 -0.09872
 H1371 H 1.17596 0.36161 -0.19675
 H1372 H 1.13946 0.38337 -0.16733
 H1373 H 1.16262 0.31508 -0.11227
 H1374 H 1.19974 0.29275 -0.14188
 H1375 H 1.10234 0.34734 -0.05165
 H1376 H 1.06705 0.37968 -0.02708
 H1377 H 1.04522 0.42999 -0.09443
 H1378 H 1.07971 0.39820 -0.11859
 C1379 C 0.69543 0.82031 0.35419
 C1380 C 0.67773 0.83192 0.37386
 C1381 C 0.64686 0.83784 0.37035
 C1382 C 0.63389 0.83246 0.34664
 C1383 C 0.65171 0.82135 0.32677
 C1384 C 0.68267 0.81499 0.33037
 N1385 N 0.62976 0.85073 0.39075
 N1386 N 0.60092 0.85217 0.39089
 C1387 C 0.58471 0.86721 0.41085
 C1388 C 0.55289 0.86677 0.41105
 C1389 C 0.53660 0.88475 0.42830
 C1390 C 0.55209 0.90360 0.44534
 C1391 C 0.58386 0.90286 0.44595
 C1392 C 0.60005 0.88464 0.42904
 H1393 H 0.71918 0.81572 0.35759
 H1394 H 0.68808 0.83625 0.39196
 H1395 H 0.61015 0.83721 0.34338
 H1396 H 0.64115 0.81729 0.30871
 H1397 H 0.54073 0.85353 0.39711
 H1398 H 0.51211 0.88555 0.42720
 H1399 H 0.59618 0.91761 0.45874
 H1400 H 0.62456 0.88550 0.42935
 C1401 C 0.78917 0.67668 -0.15240
 C1402 C 0.80476 0.66317 -0.13244
 C1403 C 0.83623 0.65955 -0.13348
 C1404 C 0.85200 0.66900 -0.15515
 C1405 C 0.83628 0.68192 -0.17546
 C1406 C 0.80471 0.68614 -0.17417
 N1407 N 0.85119 0.64492 -0.11280
 N1408 N 0.87964 0.64667 -0.10903
 C1409 C 0.89387 0.63004 -0.08895
 C1410 C 0.92440 0.63558 -0.08317
 C1411 C 0.93956 0.61726 -0.06552
 C1412 C 0.92445 0.59275 -0.05385
 C1413 C 0.89354 0.58815 -0.05885
 C1414 C 0.87832 0.60674 -0.07604
 H1415 H 0.76485 0.67953 -0.15088
 H1416 H 0.79231 0.65569 -0.11597
 H1417 H 0.87630 0.66604 -0.15649
 H1418 H 0.84886 0.68917 -0.19194
 H1419 H 0.93671 0.65344 -0.09295
 H1420 H 0.96348 0.62100 -0.06221
 H1421 H 0.88141 0.56933 -0.05015
 H1422 H 0.85477 0.60191 -0.08009
 C1423 C 0.29148 1.17917 0.34998
 C1424 C 0.30803 1.16662 0.36988
 C1425 C 0.33906 1.16080 0.36731
 C1426 C 0.35333 1.16702 0.34418
 C1427 C 0.33661 1.17899 0.32400
 C1428 C 0.30553 1.18547 0.32678
 N1429 N 0.35500 1.14735 0.38809
 N1430 N 0.38380 1.14702 0.38986
 C1431 C 0.39885 1.13167 0.41027
 C1432 C 0.43039 1.13438 0.41298
 C1433 C 0.44595 1.11671 0.43087
 C1434 C 0.43010 1.09573 0.44600
 C1435 C 0.39840 1.09414 0.44407
 C1436 C 0.38288 1.11209 0.42658
 H1437 H 0.26759 1.18380 0.35271
 H1438 H 0.29666 1.16165 0.38749
 H1439 H 0.37722 1.16234 0.34164
 H1440 H 0.34810 1.18379 0.30641
 H1441 H 0.44306 1.14932 0.40056
 H1442 H 0.47044 1.11785 0.43166
 H1443 H 0.38575 1.07786 0.45535
 H1444 H 0.35857 1.10946 0.42497
 C1445 C 1.19572 0.67875 0.14149
 C1446 C 1.17889 0.66702 0.12146
 C1447 C 1.14776 0.66183 0.12400
 C1448 C 1.13361 0.66792 0.14720
 C1449 C 1.15060 0.67912 0.16752
 C1450 C 1.18181 0.68490 0.16478
 N1451 N 1.13166 0.64895 0.10311
 N1452 N 1.10287 0.64880 0.10139
 C1453 C 1.08784 0.63381 0.08082
 C1454 C 1.05625 0.63607 0.07841
 C1455 C 1.04076 0.61832 0.06054
 C1456 C 1.05675 0.59778 0.04514
 C1457 C 1.08848 0.59678 0.04666
 C1458 C 1.10393 0.61479 0.06414
 H1459 H 1.21973 0.68281 0.13881
 H1460 H 1.19014 0.66211 0.10378
 H1461 H 1.10962 0.66369 0.14968
 H1462 H 1.13926 0.68380 0.18520
 H1463 H 1.04352 0.65057 0.09112
 H1464 H 1.01623 0.61894 0.06006
 H1465 H 1.10120 0.58079 0.03518
 H1466 H 1.12829 0.61253 0.06552
 C1467 C 0.70047 1.17732 0.64311
 C1468 C 0.68472 1.16434 0.62292
 C1469 C 0.65316 1.16119 0.62380
 C1470 C 0.63745 1.17081 0.64543
 C1471 C 0.65328 1.18314 0.66593
 C1472 C 0.68497 1.18664 0.66495
 N1473 N 0.63800 1.14646 0.60321
 N1474 N 0.60960 1.14875 0.59936
 C1475 C 0.59480 1.13175 0.57973
 C1476 C 0.56461 1.13835 0.57348
 C1477 C 0.54864 1.11961 0.55660
 C1478 C 0.56249 1.09356 0.54624
 C1479 C 0.59317 1.08791 0.55158
 C1480 C 0.60924 1.10691 0.56796
 H1481 H 0.72486 1.17960 0.64180
 H1482 H 0.69716 1.15674 0.60649
 H1483 H 0.61310 1.16822 0.64668
 H1484 H 0.64070 1.19027 0.68244
 H1485 H 0.55314 1.15742 0.58236
 H1486 H 0.52505 1.12438 0.55288
 H1487 H 0.60443 1.06798 0.54383
 H1488 H 0.63249 1.10121 0.57240
 C1489 C 0.80229 0.31683 0.14970
 C1490 C 0.81836 0.32990 0.12972
 C1491 C 0.84924 0.33653 0.13206
 C1492 C 0.86388 0.33050 0.15498
 C1493 C 0.84764 0.31798 0.17524
 C1494 C 0.81671 0.31080 0.17272
 N1495 N 0.86457 0.35073 0.11131
 N1496 N 0.89331 0.35220 0.10936
 C1497 C 0.90748 0.36847 0.08897
 C1498 C 0.93903 0.36693 0.08570
 C1499 C 0.95356 0.38537 0.06768
 C1500 C 0.93660 0.40586 0.05306
 C1501 C 0.90497 0.40647 0.05567
 C1502 C 0.89049 0.38777 0.07325
 H1503 H 0.77848 0.31166 0.14720
 H1504 H 0.80674 0.33473 0.11225
 H1505 H 0.88767 0.33581 0.15731
 H1506 H 0.85938 0.31339 0.19271
 H1507 H 0.95245 0.35223 0.09769
 H1508 H 0.97804 0.38502 0.06625
 H1509 H 0.89157 0.42240 0.04474
 H1510 H 0.86615 0.38952 0.07536
 C1511 C 0.35039 0.82255 0.68609
 C1512 C 0.36819 0.83751 0.66822
 C1513 C 0.36258 0.83398 0.64257
 C1514 C 0.33862 0.81507 0.63479
 C1515 C 0.32029 0.80020 0.65272
 C1516 C 0.32582 0.80372 0.67881
 N1517 N 0.38070 0.85143 0.62534
 N1518 N 0.38134 0.84761 0.60158
 C1519 C 0.39935 0.86765 0.58606
 C1520 C 0.40428 0.86086 0.56053
 C1521 C 0.42080 0.88114 0.54512
 C1522 C 0.43196 0.90876 0.55505
 C1523 C 0.42741 0.91510 0.58068
 C1524 C 0.41152 0.89480 0.59601
 H1525 H 0.35589 0.82625 0.70571
 H1526 H 0.38648 0.85221 0.67443
 H1527 H 0.33372 0.81226 0.61498
 H1528 H 0.30184 0.78603 0.64603
 H1529 H 0.39507 0.84005 0.55253
 H1530 H 0.42386 0.87584 0.52537
 H1531 H 0.43593 0.93612 0.58888
 H1532 H 0.40813 0.90078 0.61557
 C1533 C 0.33245 1.21330 -0.14884
 C1534 C 0.34405 1.19620 -0.12883
 C1535 C 0.34938 1.16478 -0.13149
 C1536 C 0.34404 1.15077 -0.15488
 C1537 C 0.33309 1.16805 -0.17516
 C1538 C 0.32675 1.19943 -0.17223
 N1539 N 0.36118 1.14809 -0.11044
 N1540 N 0.36001 1.11900 -0.10869
 C1541 C 0.37371 1.10306 -0.08797
 C1542 C 0.36959 1.07131 -0.08545
 C1543 C 0.38590 1.05474 -0.06733
 C1544 C 0.40683 1.06978 -0.05180
 C1545 C 0.40970 1.10174 -0.05347
 C1546 C 0.39314 1.11827 -0.07120
 H1547 H 0.32774 1.23738 -0.14598
 H1548 H 0.34836 1.20736 -0.11100
 H1549 H 0.34843 1.12659 -0.15746
 H1550 H 0.32866 1.15667 -0.19288
 H1551 H 0.35471 1.05923 -0.09822
 H1552 H 0.38382 1.03003 -0.06671
 H1553 H 0.42601 1.11374 -0.04188
 H1554 H 0.39680 1.14272 -0.07267
 C1555 C 0.82679 0.70896 0.35191
 C1556 C 0.83885 0.69222 0.37199
 C1557 C 0.84454 0.66082 0.36955
 C1558 C 0.83908 0.64649 0.34632
 C1559 C 0.82765 0.66337 0.32601
 C1560 C 0.82094 0.69471 0.32870
 N1561 N 0.85668 0.64440 0.39065
 N1562 N 0.85638 0.61527 0.39224
 C1563 C 0.87028 0.59942 0.41293
 C1564 C 0.86767 0.56744 0.41473
 C1565 C 0.88432 0.55109 0.43277
 C1566 C 0.90403 0.56663 0.44905
 C1567 C 0.90538 0.59874 0.44810
 C1568 C 0.88850 0.61503 0.43039
 H1569 H 0.82185 0.73304 0.35459
 H1570 H 0.84325 0.70365 0.38969
 H1571 H 0.84371 0.62233 0.34387
 H1572 H 0.82310 0.65168 0.30845
 H1573 H 0.85378 0.55505 0.40140
 H1574 H 0.88351 0.52630 0.43277
 H1575 H 0.92083 0.61112 0.46022
 H1576 H 0.89101 0.63966 0.42948
 C1577 C 0.67863 1.19706 0.15243
 C1578 C 0.66505 1.18115 0.13264
 C1579 C 0.65946 1.14971 0.13456
 C1580 C 0.66684 1.13434 0.15695
 C1581 C 0.67987 1.15041 0.17706
 C1582 C 0.68621 1.18188 0.17487
 N1583 N 0.64512 1.13445 0.11389
 N1584 N 0.64471 1.10545 0.11128
 C1585 C 0.62845 1.09132 0.09097
 C1586 C 0.63101 1.05966 0.08685
 C1587 C 0.61280 1.04504 0.06884
 C1588 C 0.59149 1.06199 0.05510
 C1589 C 0.58989 1.09380 0.05852
 C1590 C 0.60833 1.10839 0.07609
 H1591 H 0.68315 1.22129 0.15022
 H1592 H 0.65915 1.19331 0.11559
 H1593 H 0.66231 1.11010 0.15896
 H1594 H 0.68566 1.13810 0.19407
 H1595 H 0.64637 1.04618 0.09818
 H1596 H 0.61400 1.02039 0.06677
 H1597 H 0.57341 1.10723 0.04823
 H1598 H 0.60580 1.13281 0.07883
 C1599 C 1.17936 0.70116 0.65252
 C1600 C 1.16551 0.68609 0.63236
 C1601 C 1.15876 0.65481 0.63383
 C1602 C 1.16518 0.63886 0.65616
 C1603 C 1.17836 0.65411 0.67662
 C1604 C 1.18592 0.68534 0.67488
 N1605 N 1.14439 0.64023 0.61281
 N1606 N 1.14399 0.61128 0.60976
 C1607 C 1.12782 0.59729 0.58931
 C1608 C 1.13106 0.56579 0.58473
 C1609 C 1.11295 0.55106 0.56672
 C1610 C 1.09098 0.56766 0.55342
 C1611 C 1.08868 0.59939 0.55728
 C1612 C 1.10708 0.61414 0.57485
 H1613 H 1.18490 0.72523 0.65066
 H1614 H 1.16040 0.69874 0.61538
 H1615 H 1.15979 0.61476 0.65784
 H1616 H 1.18341 0.64130 0.69354
 H1617 H 1.14690 0.55248 0.59574
 H1618 H 1.11473 0.52648 0.56436
 H1619 H 1.07171 0.61259 0.54736
 H1620 H 1.10405 0.63844 0.57797
 C1621 C 0.64577 0.83111 -0.18248
 C1622 C 0.63288 0.85110 -0.16503
 C1623 C 0.64425 0.85305 -0.14057
 C1624 C 0.66809 0.83371 -0.13329
 C1625 C 0.68097 0.81341 -0.15077
 C1626 C 0.67034 0.81241 -0.17574
 N1627 N 0.63129 0.87537 -0.12404
 N1628 N 0.64021 0.88051 -0.10166
 C1629 C 0.62541 0.90350 -0.08669
 C1630 C 0.63093 0.90538 -0.06072
 C1631 C 0.61354 0.92504 -0.04550
 C1632 C 0.59053 0.94290 -0.05627
 C1633 C 0.58663 0.94253 -0.08244
 C1634 C 0.60388 0.92315 -0.09750
 H1635 H 0.63695 0.83091 -0.20148
 H1636 H 0.61437 0.86577 -0.17078
 H1637 H 0.67710 0.83474 -0.11440
 H1638 H 0.70001 0.79947 -0.14503
 H1639 H 0.64758 0.89054 -0.05211
 H1640 H 0.61665 0.92475 -0.02530
 H1641 H 0.56906 0.95621 -0.09114
 H1642 H 0.59945 0.92267 -0.11752
 C1643 C 1.15005 0.33492 0.31805
 C1644 C 1.13698 0.35489 0.33541
 C1645 C 1.14803 0.35681 0.35997
 C1646 C 1.17195 0.33762 0.36736
 C1647 C 1.18503 0.31730 0.34996
 C1648 C 1.17451 0.31613 0.32496
 N1649 N 1.13429 0.37865 0.37656
 N1650 N 1.14275 0.38395 0.39905
 C1651 C 1.12688 0.40624 0.41403
 C1652 C 1.13310 0.40923 0.43983
 C1653 C 1.11511 0.42831 0.45511
 C1654 C 1.09071 0.44445 0.44460
 C1655 C 1.08585 0.44286 0.41856
 C1656 C 1.10372 0.42411 0.40344
 H1657 H 1.14128 0.33458 0.29904
 H1658 H 1.11841 0.36942 0.32957
 H1659 H 1.18072 0.33861 0.38634
 H1660 H 1.20397 0.30329 0.35582
 H1661 H 1.15095 0.39574 0.44829
 H1662 H 1.11903 0.42894 0.47520
 H1663 H 1.06720 0.45518 0.41004
 H1664 H 1.09857 0.42273 0.38358
 C1665 C 0.32357 0.79353 0.14310
 C1666 C 0.33589 0.81045 0.12322
 C1667 C 0.34173 0.84176 0.12603
 C1668 C 0.33621 0.85583 0.14937
 C1669 C 0.32453 0.83876 0.16947
 C1670 C 0.31766 0.80755 0.16640
 N1671 N 0.35416 0.85843 0.10521
 N1672 N 0.35378 0.88755 0.10405
 C1673 C 0.36814 0.90382 0.08382
 C1674 C 0.36567 0.93581 0.08264
 C1675 C 0.38304 0.95257 0.06532
 C1676 C 0.40329 0.93742 0.04922
 C1677 C 0.40446 0.90531 0.04945
 C1678 C 0.38687 0.88860 0.06645
 H1679 H 0.31856 0.76950 0.14022
 H1680 H 0.34040 0.79927 0.10542
 H1681 H 0.34101 0.87992 0.15207
 H1682 H 0.31999 0.85019 0.18717
 H1683 H 0.35139 0.94785 0.09595
 H1684 H 0.38237 0.97732 0.06583
 H1685 H 0.42025 0.89326 0.03737
 H1686 H 0.38923 0.86394 0.06693
 C1687 C 0.84879 0.32569 0.68108
 C1688 C 0.86231 0.34611 0.66423
 C1689 C 0.85158 0.34886 0.63960
 C1690 C 0.82779 0.32989 0.63155
 C1691 C 0.81435 0.30915 0.64839
 C1692 C 0.82430 0.30729 0.67353
 N1693 N 0.86518 0.37150 0.62362
 N1694 N 0.85641 0.37765 0.60136
 C1695 C 0.87172 0.40076 0.58680
 C1696 C 0.86499 0.40467 0.56116
 C1697 C 0.88231 0.42477 0.54622
 C1698 C 0.90655 0.44101 0.55689
 C1699 C 0.91186 0.43849 0.58283
 C1700 C 0.89467 0.41871 0.59762
 H1701 H 0.85707 0.32488 0.70023
 H1702 H 0.88078 0.36047 0.67059
 H1703 H 0.81927 0.33150 0.61253
 H1704 H 0.79538 0.29550 0.64199
 H1705 H 0.84724 0.39117 0.55255
 H1706 H 0.87799 0.42619 0.52623
 H1707 H 0.93036 0.45091 0.59150
 H1708 H 0.90015 0.41666 0.61739
 C1709 C 1.19845 1.19303 0.65203
 C1710 C 1.18335 1.17455 0.63472
 C1711 C 1.16237 1.15276 0.64298
 C1712 C 1.15648 1.14951 0.66878
 C1713 C 1.17154 1.16789 0.68611
 C1714 C 1.19270 1.18984 0.67792
 N1715 N 1.14718 1.13436 0.62481
 N1716 N 1.12770 1.11430 0.63110
 C1717 C 1.11246 1.09630 0.61267
 C1718 C 1.09017 1.07554 0.62038
 C1719 C 1.07422 1.05846 0.60259
 C1720 C 1.08050 1.06200 0.57681
 C1721 C 1.10329 1.08255 0.56924
 C1722 C 1.11911 1.09955 0.58699
 H1723 H 1.21470 1.20964 0.64513
 H1724 H 1.18797 1.17718 0.61482
 H1725 H 1.14027 1.13280 0.67556
 H1726 H 1.16654 1.16486 0.70591
 H1727 H 1.08494 1.07289 0.64018
 H1728 H 1.05681 1.04278 0.60901
 H1729 H 1.10876 1.08582 0.54955
 H1730 H 1.13633 1.11543 0.58059
 C1731 C 0.67665 0.68897 0.15679
 C1732 C 0.65641 0.67389 0.14097
 C1733 C 0.63871 0.64979 0.15011
 C1734 C 0.64186 0.64020 0.17514
 C1735 C 0.66200 0.65529 0.19102
 C1736 C 0.67930 0.68010 0.18210
 N1737 N 0.61752 0.63568 0.13360
 N1738 N 0.60096 0.61324 0.14022
 C1739 C 0.58040 0.59975 0.12278
 C1740 C 0.56857 0.57060 0.12763
 C1741 C 0.55211 0.55522 0.10909
 C1742 C 0.54730 0.56908 0.08557
 C1743 C 0.55725 0.59924 0.08158
 C1744 C 0.57370 0.61441 0.09998
 H1745 H 0.68954 0.70807 0.14938
 H1746 H 0.65413 0.68129 0.12162
 H1747 H 0.62846 0.62145 0.18250
 H1748 H 0.66358 0.64784 0.21041
 H1749 H 0.57352 0.55918 0.14523
 H1750 H 0.54467 0.53198 0.11265
 H1751 H 0.55349 0.61069 0.06378
 H1752 H 0.58215 0.63719 0.09600
 C1753 C 1.18659 0.80828 0.34472
 C1754 C 1.16941 0.82370 0.36275
 C1755 C 1.14802 0.84551 0.35546
 C1756 C 1.14409 0.85214 0.32985
 C1757 C 1.16125 0.83675 0.31176
 C1758 C 1.18258 0.81450 0.31899
 N1759 N 1.13061 0.86044 0.37450
 N1760 N 1.11058 0.88046 0.36955
 C1761 C 1.09377 0.89493 0.38926
 C1762 C 1.07346 0.91845 0.38341
 C1763 C 1.05788 0.93380 0.40258
 C1764 C 1.06248 0.92568 0.42789
 C1765 C 1.08233 0.90151 0.43355
 C1766 C 1.09782 0.88632 0.41446
 H1767 H 1.20280 0.79132 0.35096
 H1768 H 1.17262 0.81853 0.38249
 H1769 H 1.12769 0.86902 0.32383
 H1770 H 1.15758 0.84211 0.29211
 H1771 H 1.07012 0.92523 0.36402
 H1772 H 1.04277 0.95236 0.39762
 H1773 H 1.08634 0.89453 0.45280
 H1774 H 1.11326 0.86808 0.41949
 C1775 C 0.65238 0.34316 -0.19698
 C1776 C 0.63712 0.36442 -0.18206
 C1777 C 0.64717 0.37066 -0.15772
 C1778 C 0.67231 0.35479 -0.14807
 C1779 C 0.68736 0.33315 -0.16285
 C1780 C 0.67771 0.32742 -0.18755
 N1781 N 0.63110 0.39266 -0.14299
 N1782 N 0.64159 0.40253 -0.12229
 C1783 C 0.62502 0.42319 -0.10666
 C1784 C 0.63762 0.43181 -0.08368
 C1785 C 0.62050 0.44828 -0.06630
 C1786 C 0.59038 0.45638 -0.07171
 C1787 C 0.57843 0.44957 -0.09553
 C1788 C 0.59562 0.43294 -0.11290
 H1789 H 0.64437 0.33908 -0.21592
 H1790 H 0.61765 0.37636 -0.18958
 H1791 H 0.68027 0.35909 -0.12915
 H1792 H 0.70694 0.32149 -0.15521
 H1793 H 0.66029 0.42449 -0.07877
 H1794 H 0.63044 0.45349 -0.04819
 H1795 H 0.55528 0.45545 -0.10017
 H1796 H 0.58548 0.42658 -0.13067
 C1797 C 0.81908 1.17679 0.34929
 C1798 C 0.83530 1.15901 0.36635
 C1799 C 0.85748 1.13865 0.35786
 C1800 C 0.86342 1.13603 0.33203
 C1801 C 0.84719 1.15373 0.31490
 C1802 C 0.82486 1.17434 0.32336
 N1803 N 0.87379 1.12124 0.37599
 N1804 N 0.89475 1.10254 0.37017
 C1805 C 0.91052 1.08615 0.38936
 C1806 C 0.93484 1.06707 0.38294
 C1807 C 0.95132 1.05210 0.40176
 C1808 C 0.94357 1.05627 0.42721
 C1809 C 0.91869 1.07487 0.43339
 C1810 C 0.90237 1.08962 0.41473
 H1811 H 0.80199 1.19233 0.35642
 H1812 H 0.83064 1.16113 0.38629
 H1813 H 0.88054 1.12039 0.32512
 H1814 H 0.85222 1.15128 0.29505
 H1815 H 0.94128 1.06420 0.36342
 H1816 H 0.97036 1.03784 0.39648
 H1817 H 0.91183 1.07828 0.45277
 H1818 H 0.88353 1.10403 0.42022
 C1819 C 0.31322 0.66438 -0.14941
 C1820 C 0.32807 0.64473 -0.13281
 C1821 C 0.35007 0.62434 -0.14168
 C1822 C 0.35717 0.62363 -0.16738
 C1823 C 0.34226 0.64306 -0.18401
 C1824 C 0.32012 0.66366 -0.17522
 N1825 N 0.36501 0.60481 -0.12417
 N1826 N 0.38716 0.58779 -0.13043
 C1827 C 0.40180 0.56882 -0.11227
 C1828 C 0.43016 0.55614 -0.11781
 C1829 C 0.44633 0.54047 -0.09922
 C1830 C 0.43405 0.53723 -0.07492
 C1831 C 0.40475 0.54840 -0.07004
 C1832 C 0.38883 0.56412 -0.08847
 H1833 H 0.29625 0.67992 -0.14208
 H1834 H 0.32257 0.64546 -0.11295
 H1835 H 0.37415 0.60805 -0.17462
 H1836 H 0.34820 0.64195 -0.20377
 H1837 H 0.44026 0.55953 -0.13619
 H1838 H 0.46881 0.53202 -0.10357
 H1839 H 0.39437 0.54594 -0.05166
 H1840 H 0.36670 0.57328 -0.08389
 C1841 C 0.81873 0.82262 0.65611
 C1842 C 0.83911 0.83888 0.64111
 C1843 C 0.85596 0.86304 0.65123
 C1844 C 0.85174 0.87147 0.67643
 C1845 C 0.83148 0.85516 0.69151
 C1846 C 0.81508 0.83026 0.68160
 N1847 N 0.87785 0.87777 0.63562
 N1848 N 0.89362 0.90063 0.64262
 C1849 C 0.91545 0.91361 0.62579
 C1850 C 0.92656 0.94330 0.62989
 C1851 C 0.94481 0.95752 0.61165
 C1852 C 0.95192 0.94195 0.58930
 C1853 C 0.94263 0.91146 0.58627
 C1854 C 0.92460 0.89743 0.60429
 H1855 H 0.80656 0.80352 0.64794
 H1856 H 0.84226 0.83229 0.62164
 H1857 H 0.86452 0.89016 0.68457
 H1858 H 0.82909 0.86173 0.71106
 H1859 H 0.91987 0.95589 0.64654
 H1860 H 0.95183 0.98105 0.61434
 H1861 H 0.94836 0.89876 0.56941
 H1862 H 0.91696 0.87421 0.60097
 C1863 C 0.31677 0.31027 0.15148
 C1864 C 0.33793 0.32304 0.13497
 C1865 C 0.35932 0.34411 0.14372
 C1866 C 0.35893 0.35302 0.16907
 C1867 C 0.33784 0.34029 0.18560
 C1868 C 0.31680 0.31843 0.17707
 N1869 N 0.38124 0.35600 0.12651
 N1870 N 0.40149 0.37502 0.13324
 C1871 C 0.42290 0.38702 0.11562
 C1872 C 0.44108 0.41182 0.12261
 C1873 C 0.45958 0.42624 0.10483
 C1874 C 0.46021 0.41578 0.07980
 C1875 C 0.44338 0.38959 0.07334
 C1876 C 0.42480 0.37542 0.09105
 H1877 H 0.30095 0.29346 0.14430
 H1878 H 0.33799 0.31618 0.11540
 H1879 H 0.37514 0.36947 0.17619
 H1880 H 0.33844 0.34717 0.20517
 H1881 H 0.43992 0.42078 0.14158
 H1882 H 0.47236 0.44628 0.11043
 H1883 H 0.44348 0.38076 0.05430
 H1884 H 0.41125 0.35597 0.08531
   
