data_POSCAR
  _audit_creation_date              2014-09-24
  _audit_creation_method            'ToBaCCo'
  _symmetry_space_group_name_H-M    'P1'
  _symmetry_Int_Tables_number       1
  _symmetry_cell_setting            triclinic
  loop_
  _symmetry_equiv_pos_as_xyz
 x,y,z
_cell_length_a 78.6841
_cell_length_b 78.3418
_cell_length_c 79.5931
_cell_angle_alpha 89.964900
_cell_angle_beta 89.935800
_cell_angle_gamma 89.921200
loop_
  _atom_site_label
  _atom_site_type_symbol
  _atom_site_fract_x
  _atom_site_fract_y
  _atom_site_fract_z
N1 N 0.36128 0.31399 0.32667
 N2 N 0.36077 0.32589 0.31496
 C3 C 0.37376 0.32347 0.30422
 C4 C 0.38283 0.30939 0.30947
 C5 C 0.37465 0.30363 0.32370
 H6 H 0.37650 0.33134 0.29338
 H7 H 0.37817 0.29276 0.33134
 Cu8 Cu 0.34314 0.34335 0.31513
 Cu9 Cu 0.34465 0.31278 0.34476
 Cu10 Cu 0.31311 0.34376 0.34524
 N11 N 0.32540 0.36069 0.31553
 N12 N 0.31371 0.36075 0.32740
 C13 C 0.30315 0.37408 0.32488
 C14 C 0.30856 0.38268 0.31076
 C15 C 0.32265 0.37393 0.30512
 H16 H 0.29242 0.37731 0.33278
 H17 H 0.33034 0.37710 0.29429
 N18 N 0.31466 0.32549 0.36218
 N19 N 0.32668 0.31370 0.36202
 C20 C 0.32437 0.30315 0.37521
 C21 C 0.31027 0.30862 0.38395
 C22 C 0.30438 0.32275 0.37547
 H23 H 0.33235 0.29236 0.37830
 H24 H 0.29348 0.33046 0.37878
 H25 H 0.32506 0.32461 0.33190
 H26 H 0.33882 0.33853 0.34513
 N27 N 0.36118 0.81379 -0.17290
 N28 N 0.36118 0.82578 -0.18449
 C29 C 0.37437 0.82314 -0.19501
 C30 C 0.38293 0.80879 -0.18963
 C31 C 0.37433 0.80313 -0.17562
 H32 H 0.37755 0.83106 -0.20569
 H33 H 0.37744 0.79216 -0.16796
 Cu34 Cu 0.34394 0.84364 -0.18454
 Cu35 Cu 0.34425 0.81293 -0.15506
 Cu36 Cu 0.31318 0.84440 -0.15517
 N37 N 0.32631 0.86110 -0.18464
 N38 N 0.31431 0.86129 -0.17311
 C39 C 0.30391 0.87466 -0.17588
 C40 C 0.30976 0.88320 -0.18987
 C41 C 0.32395 0.87438 -0.19518
 H42 H 0.29302 0.87797 -0.16825
 H43 H 0.33197 0.87748 -0.20579
 N44 N 0.31422 0.82616 -0.13808
 N45 N 0.32606 0.81418 -0.13805
 C46 C 0.32345 0.80375 -0.12483
 C47 C 0.30936 0.80948 -0.11625
 C48 C 0.30378 0.82365 -0.12488
 H49 H 0.33124 0.79285 -0.12161
 H50 H 0.29297 0.83156 -0.12170
 H51 H 0.32511 0.82517 -0.16833
 H52 H 0.33876 0.83881 -0.15468
 N53 N 0.86082 0.31467 -0.17420
 N54 N 0.86054 0.32698 -0.18544
 C55 C 0.87353 0.32472 -0.19627
 C56 C 0.88228 0.31027 -0.19148
 C57 C 0.87398 0.30417 -0.17747
 H58 H 0.87649 0.33299 -0.20676
 H59 H 0.87731 0.29301 -0.17019
 Cu60 Cu 0.84337 0.34489 -0.18482
 Cu61 Cu 0.84435 0.31329 -0.15603
 Cu62 Cu 0.81281 0.34415 -0.15514
 N63 N 0.82513 0.36170 -0.18439
 N64 N 0.81320 0.36129 -0.17281
 C65 C 0.80226 0.37426 -0.17539
 C66 C 0.80770 0.38317 -0.18931
 C67 C 0.82220 0.37498 -0.19477
 H68 H 0.79124 0.37702 -0.16772
 H69 H 0.83003 0.37848 -0.20540
 N70 N 0.81450 0.32580 -0.13829
 N71 N 0.82654 0.31404 -0.13861
 C72 C 0.82438 0.30342 -0.12545
 C73 C 0.81034 0.30880 -0.11656
 C74 C 0.80435 0.32296 -0.12494
 H75 H 0.83243 0.29264 -0.12248
 H76 H 0.79345 0.33062 -0.12149
 H77 H 0.82516 0.32548 -0.16897
 H78 H 0.83865 0.33897 -0.15501
 N79 N 0.86079 0.81464 0.32698
 N80 N 0.86069 0.82678 0.31556
 C81 C 0.87379 0.82432 0.30491
 C82 C 0.88244 0.80992 0.31001
 C83 C 0.87396 0.80406 0.32402
 H84 H 0.87687 0.83237 0.29430
 H85 H 0.87717 0.79299 0.33150
 Cu86 Cu 0.84347 0.84463 0.31574
 Cu87 Cu 0.84386 0.81346 0.34482
 Cu88 Cu 0.81269 0.84479 0.34511
 N89 N 0.82569 0.86191 0.31585
 N90 N 0.81370 0.86193 0.32739
 C91 C 0.80307 0.87512 0.32458
 C92 C 0.80876 0.88370 0.31055
 C93 C 0.82308 0.87509 0.30526
 H94 H 0.79206 0.87821 0.33214
 H95 H 0.83095 0.87820 0.29454
 N96 N 0.81380 0.82637 0.36195
 N97 N 0.82566 0.81442 0.36184
 C98 C 0.82314 0.80391 0.37502
 C99 C 0.80907 0.80956 0.38370
 C100 C 0.80343 0.82377 0.37518
 H101 H 0.83101 0.79304 0.37818
 H102 H 0.79264 0.83166 0.37848
 H103 H 0.82483 0.82579 0.33168
 H104 H 0.83841 0.83927 0.34556
 N105 N 0.63898 0.68670 0.32694
 N106 N 0.63900 0.67462 0.31547
 C107 C 0.62601 0.67730 0.30477
 C108 C 0.61748 0.69177 0.30989
 C109 C 0.62596 0.69746 0.32395
 H110 H 0.62289 0.66932 0.29414
 H111 H 0.62277 0.70845 0.33154
 Cu112 Cu 0.65608 0.65663 0.31565
 Cu113 Cu 0.65549 0.68730 0.34520
 Cu114 Cu 0.68299 0.65279 0.34818
 N115 N 0.67333 0.63881 0.31622
 N116 N 0.68383 0.63740 0.32900
 C117 C 0.69418 0.62394 0.32648
 C118 C 0.68994 0.61666 0.31131
 C119 C 0.67671 0.62632 0.30507
 H120 H 0.70392 0.61970 0.33510
 H121 H 0.66999 0.62426 0.29340
 N122 N 0.68328 0.67204 0.36408
 N123 N 0.67301 0.68534 0.36280
 C124 C 0.67640 0.69632 0.37538
 C125 C 0.68940 0.68957 0.38489
 C126 C 0.69351 0.67424 0.37746
 H127 H 0.66986 0.70826 0.37757
 H128 H 0.70323 0.66538 0.38151
 H129 H 0.67476 0.67299 0.33381
 H130 H 0.65804 0.66133 0.34592
 N131 N 0.63961 0.18653 -0.17306
 N132 N 0.63995 0.17497 -0.18505
 C133 C 0.62677 0.17770 -0.19552
 C134 C 0.61784 0.19166 -0.18973
 C135 C 0.62623 0.19698 -0.17550
 H136 H 0.62380 0.17008 -0.20645
 H137 H 0.62280 0.20758 -0.16747
 Cu138 Cu 0.65743 0.15735 -0.18561
 Cu139 Cu 0.65635 0.18705 -0.15509
 Cu140 Cu 0.68720 0.15544 -0.15530
 N141 N 0.67459 0.13942 -0.18528
 N142 N 0.68618 0.13878 -0.17340
 C143 C 0.69636 0.12521 -0.17603
 C144 C 0.69080 0.11702 -0.19030
 C145 C 0.67699 0.12624 -0.19592
 H146 H 0.70694 0.12156 -0.16814
 H147 H 0.66929 0.12351 -0.20683
 N148 N 0.68610 0.17344 -0.13805
 N149 N 0.67433 0.18548 -0.13796
 C150 C 0.67691 0.19575 -0.12463
 C151 C 0.69092 0.18984 -0.11605
 C152 C 0.69648 0.17574 -0.12479
 H153 H 0.66919 0.20669 -0.12136
 H154 H 0.70725 0.16777 -0.12169
 H155 H 0.67580 0.17508 -0.16821
 H156 H 0.66161 0.16102 -0.15546
 N157 N 0.13846 0.68629 -0.17333
 N158 N 0.13878 0.67414 -0.18474
 C159 C 0.12573 0.67646 -0.19546
 C160 C 0.11689 0.69077 -0.19043
 C161 C 0.12521 0.69673 -0.17639
 H162 H 0.12281 0.66836 -0.20606
 H163 H 0.12184 0.70776 -0.16894
 Cu164 Cu 0.15616 0.65647 -0.18431
 Cu165 Cu 0.15519 0.68765 -0.15535
 Cu166 Cu 0.18652 0.65641 -0.15466
 N167 N 0.17385 0.63912 -0.18393
 N168 N 0.18569 0.63915 -0.17227
 C169 C 0.19625 0.62586 -0.17484
 C170 C 0.19069 0.61715 -0.18882
 C171 C 0.17649 0.62580 -0.19432
 H172 H 0.20713 0.62276 -0.16712
 H173 H 0.16870 0.62259 -0.20505
 N174 N 0.18519 0.67497 -0.13795
 N175 N 0.17325 0.68685 -0.13820
 C176 C 0.17570 0.69757 -0.12518
 C177 C 0.18981 0.69213 -0.11644
 C178 C 0.19555 0.67784 -0.12478
 H179 H 0.16781 0.70846 -0.12221
 H180 H 0.20641 0.67010 -0.12141
 H181 H 0.17451 0.67539 -0.16818
 H182 H 0.16080 0.66185 -0.15446
 N183 N 0.13832 0.18650 0.32689
 N184 N 0.13890 0.17474 0.31511
 C185 C 0.12578 0.17709 0.30449
 C186 C 0.11662 0.19102 0.30996
 C187 C 0.12484 0.19674 0.32416
 H188 H 0.12303 0.16926 0.29364
 H189 H 0.12125 0.20748 0.33192
 Cu190 Cu 0.15667 0.15745 0.31489
 Cu191 Cu 0.15500 0.18759 0.34492
 Cu192 Cu 0.18645 0.15654 0.34519
 N193 N 0.17417 0.13989 0.31542
 N194 N 0.18579 0.13961 0.32729
 C195 C 0.19619 0.12618 0.32480
 C196 C 0.19073 0.11767 0.31066
 C197 C 0.17677 0.12660 0.30498
 H198 H 0.20684 0.12279 0.33271
 H199 H 0.16909 0.12356 0.29414
 N200 N 0.18497 0.17475 0.36220
 N201 N 0.17299 0.18658 0.36211
 C202 C 0.17537 0.19709 0.37530
 C203 C 0.18948 0.19156 0.38397
 C204 C 0.19529 0.17743 0.37544
 H205 H 0.16744 0.20791 0.37843
 H206 H 0.20618 0.16968 0.37869
 H207 H 0.17467 0.17594 0.33196
 H208 H 0.16074 0.16183 0.34492
 N209 N 0.63990 0.31390 0.67240
 N210 N 0.64032 0.32545 0.68439
 C211 C 0.62709 0.32288 0.69487
 C212 C 0.61806 0.30903 0.68906
 C213 C 0.62643 0.30361 0.67483
 H214 H 0.62419 0.33051 0.70582
 H215 H 0.62295 0.29303 0.66684
 Cu216 Cu 0.65805 0.34277 0.68499
 Cu217 Cu 0.65672 0.31308 0.65448
 Cu218 Cu 0.68796 0.34419 0.65472
 N219 N 0.67547 0.36042 0.68469
 N220 N 0.68708 0.36088 0.67280
 C221 C 0.69738 0.37433 0.67539
 C222 C 0.69190 0.38266 0.68962
 C223 C 0.67800 0.37361 0.69527
 H224 H 0.70798 0.37786 0.66746
 H225 H 0.67029 0.37650 0.70616
 N226 N 0.68672 0.32619 0.63749
 N227 N 0.67482 0.31431 0.63741
 C228 C 0.67736 0.30394 0.62413
 C229 C 0.69146 0.30963 0.61556
 C230 C 0.69714 0.32369 0.62426
 H231 H 0.66955 0.29309 0.62090
 H232 H 0.70801 0.33150 0.62115
 H233 H 0.67622 0.32469 0.66763
 H234 H 0.66227 0.33897 0.65486
 N235 N 0.63945 0.81378 1.17293
 N236 N 0.63982 0.82520 1.18502
 C237 C 0.62662 0.82247 1.19549
 C238 C 0.61765 0.80864 1.18958
 C239 C 0.62604 0.80338 1.17529
 H240 H 0.62369 0.82998 1.20651
 H241 H 0.62261 0.79285 1.16720
 Cu242 Cu 0.65744 0.84260 1.18587
 Cu243 Cu 0.65631 0.81330 1.15500
 Cu244 Cu 0.68747 0.84455 1.15577
 N245 N 0.67476 0.86031 1.18588
 N246 N 0.68647 0.86098 1.17410
 C247 C 0.69672 0.87441 1.17701
 C248 C 0.69107 0.88250 1.19132
 C249 C 0.67714 0.87333 1.19668
 H250 H 0.70739 0.87807 1.16924
 H251 H 0.66932 0.87604 1.20753
 N252 N 0.68633 0.82678 1.13828
 N253 N 0.67444 0.81489 1.13799
 C254 C 0.67709 0.80468 1.12462
 C255 C 0.69127 0.81045 1.11623
 C256 C 0.69685 0.82444 1.12510
 H257 H 0.66931 0.79387 1.12120
 H258 H 0.70774 0.83230 1.12215
 H259 H 0.67569 0.82487 1.16828
 H260 H 0.66172 0.83926 1.15565
 N261 N 0.13939 0.31388 1.17246
 N262 N 0.13926 0.32579 1.18412
 C263 C 0.12595 0.32311 1.19446
 C264 C 0.11743 0.30882 1.18892
 C265 C 0.12621 0.30324 1.17498
 H266 H 0.12259 0.33098 1.20512
 H267 H 0.12316 0.29236 1.16720
 Cu268 Cu 0.15631 0.34377 1.18436
 Cu269 Cu 0.15645 0.31320 1.15472
 Cu270 Cu 0.18720 0.34490 1.15520
 N271 N 0.17375 0.36135 1.18466
 N272 N 0.18579 0.36172 1.17318
 C273 C 0.19615 0.37503 1.17622
 C274 C 0.19024 0.38335 1.19031
 C275 C 0.17605 0.37444 1.19540
 H276 H 0.20713 0.37841 1.16875
 H277 H 0.16805 0.37731 1.20608
 N278 N 0.18649 0.32675 1.13805
 N279 N 0.17477 0.31469 1.13789
 C280 C 0.17762 0.30432 1.12468
 C281 C 0.19174 0.31017 1.11625
 C282 C 0.19709 0.32437 1.12495
 H283 H 0.16997 0.29337 1.12136
 H284 H 0.20784 0.33237 1.12189
 H285 H 0.17530 0.32536 1.16823
 H286 H 0.16162 0.33901 1.15456
 N287 N 0.13910 0.81508 0.67301
 N288 N 0.13935 0.82716 0.68448
 C289 C 0.12618 0.82487 0.69509
 C290 C 0.11735 0.81064 0.68991
 C291 C 0.12579 0.80470 0.67591
 H292 H 0.12318 0.83293 0.70571
 H293 H 0.12247 0.79372 0.66839
 Cu294 Cu 0.15681 0.84469 0.68434
 Cu295 Cu 0.15595 0.81374 0.65511
 Cu296 Cu 0.18757 0.84456 0.65498
 N297 N 0.17474 0.86175 0.68427
 N298 N 0.18677 0.86161 0.67278
 C299 C 0.19753 0.87464 0.67566
 C300 C 0.19187 0.88330 0.68965
 C301 C 0.17743 0.87489 0.69485
 H302 H 0.20860 0.87761 0.66815
 H303 H 0.16952 0.87814 0.70549
 N304 N 0.18620 0.82626 0.63804
 N305 N 0.17414 0.81455 0.63806
 C306 C 0.17657 0.80399 0.62491
 C307 C 0.19080 0.80935 0.61634
 C308 C 0.19663 0.82344 0.62489
 H309 H 0.16857 0.79326 0.62174
 H310 H 0.20760 0.83108 0.62169
 H311 H 0.17518 0.82555 0.66832
 H312 H 0.16178 0.83937 0.65454
 N313 N 0.36075 0.68596 0.67255
 N314 N 0.36077 0.67416 0.68432
 C315 C 0.37397 0.67692 0.69474
 C316 C 0.38256 0.69115 0.68911
 C317 C 0.37393 0.69660 0.67505
 H318 H 0.37718 0.66916 0.70552
 H319 H 0.37705 0.70742 0.66721
 Cu320 Cu 0.34361 0.65628 0.68466
 Cu321 Cu 0.34379 0.68663 0.65477
 Cu322 Cu 0.31288 0.65509 0.65539
 N323 N 0.32605 0.63881 0.68505
 N324 N 0.31410 0.63839 0.67352
 C325 C 0.30374 0.62507 0.67655
 C326 C 0.30957 0.61680 0.69071
 C327 C 0.32369 0.62576 0.69584
 H328 H 0.29285 0.62162 0.66902
 H329 H 0.33163 0.62292 0.70656
 N330 N 0.31379 0.67312 0.63811
 N331 N 0.32555 0.68513 0.63789
 C332 C 0.32283 0.69543 0.62459
 C333 C 0.30875 0.68957 0.61615
 C334 C 0.30328 0.67547 0.62494
 H335 H 0.33053 0.70634 0.62124
 H336 H 0.29249 0.66751 0.62191
 H337 H 0.32479 0.67466 0.66830
 H338 H 0.33849 0.66087 0.65478
 N339 N 0.36097 0.18560 1.17264
 N340 N 0.36099 0.17375 1.18436
 C341 C 0.37421 0.17646 1.19479
 C342 C 0.38278 0.19072 1.18924
 C343 C 0.37414 0.19625 1.17521
 H344 H 0.37742 0.16866 1.20553
 H345 H 0.37724 0.20713 1.16742
 Cu346 Cu 0.34382 0.15589 1.18474
 Cu347 Cu 0.34396 0.18630 1.15489
 Cu348 Cu 0.31293 0.15488 1.15562
 N349 N 0.32618 0.13851 1.18519
 N350 N 0.31413 0.13821 1.17374
 C351 C 0.30370 0.12496 1.17683
 C352 C 0.30956 0.11661 1.19093
 C353 C 0.32381 0.12544 1.19596
 H354 H 0.29273 0.12160 1.16936
 H355 H 0.33184 0.12249 1.20659
 N356 N 0.31385 0.17288 1.13831
 N357 N 0.32566 0.18485 1.13804
 C358 C 0.32292 0.19514 1.12474
 C359 C 0.30876 0.18934 1.11636
 C360 C 0.30329 0.17526 1.12519
 H361 H 0.33066 0.20600 1.12133
 H362 H 0.29248 0.16732 1.12220
 H363 H 0.32500 0.17432 1.16847
 H364 H 0.33859 0.16048 1.15487
 N365 N 0.86053 0.68583 1.17313
 N366 N 0.86007 0.67422 1.18507
 C367 C 0.87328 0.67670 1.19555
 C368 C 0.88236 0.69055 1.18981
 C369 C 0.87402 0.69609 1.17560
 H370 H 0.87616 0.66899 1.20646
 H371 H 0.87754 0.70670 1.16765
 Cu372 Cu 0.84243 0.65686 1.18566
 Cu373 Cu 0.84377 0.68667 1.15517
 Cu374 Cu 0.81257 0.65544 1.15548
 N375 N 0.82512 0.63917 1.18536
 N376 N 0.81346 0.63869 1.17353
 C377 C 0.80320 0.62522 1.17621
 C378 C 0.80878 0.61690 1.19042
 C379 C 0.82267 0.62598 1.19596
 H380 H 0.79253 0.62172 1.16839
 H381 H 0.83040 0.62313 1.20684
 N382 N 0.81377 0.67348 1.13825
 N383 N 0.82567 0.68536 1.13812
 C384 C 0.82312 0.69573 1.12484
 C385 C 0.80898 0.69006 1.11634
 C386 C 0.80334 0.67598 1.12506
 H387 H 0.83094 0.70656 1.12156
 H388 H 0.79248 0.66816 1.12197
 H389 H 0.82436 0.67507 1.16831
 H390 H 0.83836 0.66085 1.15550
 N391 N 0.86114 0.18533 0.67293
 N392 N 0.86084 0.17329 0.68446
 C393 C 0.87392 0.17566 0.69512
 C394 C 0.88276 0.18988 0.68991
 C395 C 0.87442 0.19573 0.67584
 H396 H 0.87686 0.16764 0.70580
 H397 H 0.87780 0.20667 0.66825
 Cu398 Cu 0.84349 0.15562 0.68428
 Cu399 Cu 0.84447 0.18653 0.65491
 Cu400 Cu 0.81301 0.15555 0.65472
 N401 N 0.82559 0.13851 0.68418
 N402 N 0.81369 0.13855 0.67259
 C403 C 0.80297 0.12547 0.67543
 C404 C 0.80850 0.11689 0.68952
 C405 C 0.82283 0.12540 0.69481
 H406 H 0.79202 0.12241 0.66782
 H407 H 0.83062 0.12225 0.70556
 N408 N 0.81445 0.17378 0.63770
 N409 N 0.82645 0.18556 0.63775
 C410 C 0.82412 0.19603 0.62451
 C411 C 0.81002 0.19054 0.61584
 C412 C 0.80417 0.17646 0.62443
 H413 H 0.83210 0.20678 0.62134
 H414 H 0.79330 0.16872 0.62116
 H415 H 0.82526 0.17469 0.66808
 H416 H 0.83883 0.16090 0.65442
 N417 N 0.31396 0.36107 0.67318
 N418 N 0.32598 0.36108 0.68466
 C419 C 0.32338 0.37426 0.69522
 C420 C 0.30902 0.38283 0.69002
 C421 C 0.30332 0.37423 0.67604
 H422 H 0.33133 0.37746 0.70583
 H423 H 0.29234 0.37735 0.66848
 Cu424 Cu 0.34388 0.34394 0.68455
 Cu425 Cu 0.31310 0.34413 0.65530
 Cu426 Cu 0.34468 0.31317 0.65513
 N427 N 0.36135 0.32636 0.68451
 N428 N 0.36159 0.31436 0.67296
 C429 C 0.37493 0.30395 0.67574
 C430 C 0.38338 0.30978 0.68976
 C431 C 0.37454 0.32398 0.69506
 H432 H 0.37826 0.29302 0.66813
 H433 H 0.37753 0.33196 0.70573
 N434 N 0.32643 0.31414 0.63817
 N435 N 0.31440 0.32593 0.63826
 C436 C 0.30393 0.32325 0.62514
 C437 C 0.30968 0.30918 0.61647
 C438 C 0.32392 0.30368 0.62496
 H439 H 0.29298 0.33098 0.62204
 H440 H 0.33188 0.29292 0.62168
 H441 H 0.32546 0.32504 0.66845
 H442 H 0.33887 0.33887 0.65471
 N443 N 0.31393 0.86121 0.17288
 N444 N 0.32554 0.86080 0.18476
 C445 C 0.32284 0.87388 0.19543
 C446 C 0.30884 0.88283 0.18988
 C447 C 0.30346 0.87454 0.17558
 H448 H 0.33045 0.87673 0.20637
 H449 H 0.29278 0.87798 0.16773
 Cu450 Cu 0.34305 0.84324 0.18505
 Cu451 Cu 0.31325 0.84444 0.15482
 Cu452 Cu 0.34467 0.81333 0.15480
 N453 N 0.36078 0.82589 0.18474
 N454 N 0.36134 0.81424 0.17286
 C455 C 0.37479 0.80394 0.17551
 C456 C 0.38300 0.80948 0.18978
 C457 C 0.37388 0.82339 0.19536
 H458 H 0.37837 0.79327 0.16764
 H459 H 0.37664 0.83110 0.20629
 N460 N 0.32668 0.81455 0.13762
 N461 N 0.31471 0.82640 0.13762
 C462 C 0.30438 0.82382 0.12437
 C463 C 0.31017 0.80974 0.11574
 C464 C 0.32427 0.80413 0.12437
 H465 H 0.29348 0.83159 0.12120
 H466 H 0.33214 0.79327 0.12121
 H467 H 0.32513 0.82492 0.16780
 H468 H 0.33905 0.83912 0.15493
 N469 N 0.81377 0.36103 0.17293
 N470 N 0.82561 0.36076 0.18457
 C471 C 0.82297 0.37385 0.19527
 C472 C 0.80882 0.38267 0.19000
 C473 C 0.80326 0.37430 0.17583
 H474 H 0.83074 0.37688 0.20602
 H475 H 0.79244 0.37767 0.16820
 Cu476 Cu 0.84331 0.34346 0.18440
 Cu477 Cu 0.81288 0.34432 0.15478
 Cu478 Cu 0.84447 0.31343 0.15436
 N479 N 0.86096 0.32610 0.18408
 N480 N 0.86134 0.31439 0.17226
 C481 C 0.87477 0.30405 0.17488
 C482 C 0.88313 0.30957 0.18905
 C483 C 0.87413 0.32353 0.19462
 H484 H 0.87823 0.29331 0.16709
 H485 H 0.87706 0.33119 0.20550
 N486 N 0.82633 0.31455 0.13741
 N487 N 0.81427 0.32632 0.13758
 C488 C 0.80385 0.32374 0.12441
 C489 C 0.80966 0.30974 0.11567
 C490 C 0.82388 0.30419 0.12414
 H491 H 0.79290 0.33150 0.12137
 H492 H 0.83185 0.29345 0.12085
 H493 H 0.82497 0.32512 0.16780
 H494 H 0.83855 0.33933 0.15449
 N495 N 0.81397 0.86143 0.67327
 N496 N 0.82596 0.86101 0.68477
 C497 C 0.82359 0.87405 0.69556
 C498 C 0.80942 0.88301 0.69047
 C499 C 0.80360 0.87477 0.67632
 H500 H 0.83160 0.87692 0.70622
 H501 H 0.79275 0.87829 0.66875
 Cu502 Cu 0.84366 0.84364 0.68428
 Cu503 Cu 0.81276 0.84480 0.65511
 Cu504 Cu 0.84390 0.81342 0.65434
 N505 N 0.86093 0.82583 0.68383
 N506 N 0.86096 0.81408 0.67203
 C507 C 0.87426 0.80352 0.67443
 C508 C 0.88289 0.80895 0.68848
 C509 C 0.87421 0.82310 0.69419
 H510 H 0.87749 0.79279 0.66650
 H511 H 0.87740 0.83084 0.70498
 N512 N 0.82559 0.81485 0.63753
 N513 N 0.81373 0.82681 0.63780
 C514 C 0.80319 0.82443 0.62467
 C515 C 0.80872 0.81036 0.61586
 C516 C 0.82290 0.80456 0.62424
 H517 H 0.79236 0.83237 0.62167
 H518 H 0.83069 0.79372 0.62083
 H519 H 0.82490 0.82548 0.66786
 H520 H 0.83846 0.83938 0.65432
 N521 N 0.68577 0.63944 0.67342
 N522 N 0.67376 0.63955 0.68493
 C523 C 0.67624 0.62634 0.69551
 C524 C 0.69051 0.61764 0.69028
 C525 C 0.69629 0.62619 0.67627
 H526 H 0.66826 0.62321 0.70614
 H527 H 0.70724 0.62296 0.66870
 Cu528 Cu 0.65605 0.65687 0.68483
 Cu529 Cu 0.68677 0.65634 0.65548
 Cu530 Cu 0.65538 0.68753 0.65530
 N531 N 0.63864 0.67451 0.68476
 N532 N 0.63846 0.68649 0.67316
 C533 C 0.62513 0.69693 0.67589
 C534 C 0.61660 0.69114 0.68990
 C535 C 0.62540 0.67693 0.69526
 H536 H 0.62185 0.70784 0.66822
 H537 H 0.62231 0.66896 0.70592
 N538 N 0.67362 0.68642 0.63832
 N539 N 0.68558 0.67455 0.63840
 C540 C 0.69609 0.67719 0.62527
 C541 C 0.69044 0.69134 0.61664
 C542 C 0.67623 0.69691 0.62514
 H543 H 0.70699 0.66939 0.62215
 H544 H 0.66836 0.70774 0.62189
 H545 H 0.67457 0.67555 0.66852
 H546 H 0.66105 0.66174 0.65493
 N547 N 0.68607 0.13903 0.17266
 N548 N 0.67434 0.13940 0.18445
 C549 C 0.67689 0.12624 0.19506
 C550 C 0.69091 0.11728 0.18957
 C551 C 0.69647 0.12565 0.17537
 H552 H 0.66914 0.12332 0.20592
 H553 H 0.70722 0.12223 0.16758
 Cu554 Cu 0.65689 0.15702 0.18469
 Cu555 Cu 0.68690 0.15581 0.15461
 Cu556 Cu 0.65559 0.18703 0.15446
 N557 N 0.63923 0.17441 0.18431
 N558 N 0.63881 0.18614 0.17247
 C559 C 0.62537 0.19647 0.17510
 C560 C 0.61702 0.19086 0.18928
 C561 C 0.62605 0.17689 0.19486
 H562 H 0.62190 0.20719 0.16725
 H563 H 0.62315 0.16912 0.20573
 N564 N 0.67370 0.18576 0.13734
 N565 N 0.68562 0.17386 0.13742
 C566 C 0.69606 0.17639 0.12422
 C567 C 0.69041 0.19051 0.11555
 C568 C 0.67627 0.19618 0.12410
 H569 H 0.70695 0.16858 0.12112
 H570 H 0.66846 0.20706 0.12089
 H571 H 0.67500 0.17537 0.16756
 H572 H 0.66113 0.16125 0.15461
 N573 N 0.18565 0.63929 0.17344
 N574 N 0.17391 0.63987 0.18521
 C575 C 0.17633 0.62678 0.19595
 C576 C 0.19028 0.61764 0.19056
 C577 C 0.19593 0.62583 0.17629
 H578 H 0.16854 0.62403 0.20682
 H579 H 0.20665 0.62225 0.16854
 Cu580 Cu 0.15659 0.65764 0.18530
 Cu581 Cu 0.18673 0.65590 0.15524
 Cu582 Cu 0.15561 0.68727 0.15476
 N583 N 0.13900 0.67515 0.18462
 N584 N 0.13873 0.68672 0.17264
 C585 C 0.12535 0.69717 0.17502
 C586 C 0.11686 0.69183 0.18922
 C587 C 0.12575 0.67786 0.19505
 H588 H 0.12200 0.70780 0.16700
 H589 H 0.12273 0.67025 0.20598
 N590 N 0.17372 0.68581 0.13772
 N591 N 0.18559 0.67387 0.13790
 C592 C 0.19602 0.67624 0.12466
 C593 C 0.19039 0.69029 0.11585
 C594 C 0.17628 0.69607 0.12437
 H595 H 0.20687 0.66835 0.12160
 H596 H 0.16848 0.70693 0.12104
 H597 H 0.17508 0.67541 0.16801
 H598 H 0.16113 0.66124 0.15518
 N599 N 0.18564 0.13860 0.67410
 N600 N 0.17347 0.13898 0.68544
 C601 C 0.17575 0.12596 0.69629
 C602 C 0.19005 0.11707 0.69139
 C603 C 0.19605 0.12534 0.67732
 H604 H 0.16761 0.12307 0.70687
 H605 H 0.20708 0.12191 0.66993
 Cu606 Cu 0.15577 0.15636 0.68475
 Cu607 Cu 0.18700 0.15514 0.65589
 Cu608 Cu 0.15598 0.18661 0.65472
 N609 N 0.13863 0.17431 0.68414
 N610 N 0.13880 0.18609 0.67235
 C611 C 0.12562 0.19680 0.67472
 C612 C 0.11681 0.19142 0.68871
 C613 C 0.12531 0.17716 0.69443
 H614 H 0.12263 0.20764 0.66684
 H615 H 0.12197 0.16945 0.70521
 N616 N 0.17443 0.18498 0.63800
 N617 N 0.18624 0.17299 0.63845
 C618 C 0.19688 0.17518 0.62535
 C619 C 0.19146 0.18917 0.61634
 C620 C 0.17725 0.19511 0.62459
 H621 H 0.20771 0.16719 0.62250
 H622 H 0.16953 0.20594 0.62102
 H623 H 0.17476 0.17466 0.66856
 H624 H 0.16135 0.16079 0.65489
 N625 N 0.31440 0.63950 0.32659
 N626 N 0.32611 0.63996 0.31478
 C627 C 0.32362 0.62684 0.30412
 C628 C 0.30964 0.61783 0.30960
 C629 C 0.30406 0.62611 0.32384
 H630 H 0.33137 0.62399 0.29325
 H631 H 0.29336 0.62261 0.33164
 Cu632 Cu 0.34351 0.65759 0.31462
 Cu633 Cu 0.31353 0.65621 0.34469
 Cu634 Cu 0.34468 0.68751 0.34491
 N635 N 0.36109 0.67502 0.31504
 N636 N 0.36145 0.68670 0.32690
 C637 C 0.37482 0.69708 0.32431
 C638 C 0.38321 0.69156 0.31011
 C639 C 0.37426 0.67758 0.30450
 H640 H 0.37823 0.70778 0.33220
 H641 H 0.37720 0.66986 0.29361
 N642 N 0.32660 0.68613 0.36203
 N643 N 0.31475 0.67419 0.36196
 C644 C 0.30436 0.67661 0.37521
 C645 C 0.30997 0.69069 0.38392
 C646 C 0.32405 0.69645 0.37534
 H647 H 0.29353 0.66875 0.37835
 H648 H 0.33183 0.70731 0.37858
 H649 H 0.32542 0.67589 0.33181
 H650 H 0.33938 0.66177 0.34473
 N651 N 0.31475 0.13940 0.82722
 N652 N 0.32643 0.13941 0.81537
 C653 C 0.32362 0.12620 0.80491
 C654 C 0.30950 0.11757 0.81056
 C655 C 0.30412 0.12618 0.82471
 H656 H 0.33123 0.12304 0.79402
 H657 H 0.29334 0.12306 0.83256
 Cu658 Cu 0.34407 0.15675 0.81480
 Cu659 Cu 0.31420 0.15654 0.84500
 Cu660 Cu 0.34566 0.18753 0.84410
 N661 N 0.36164 0.17416 0.81435
 N662 N 0.36216 0.18617 0.82589
 C663 C 0.37556 0.19641 0.82290
 C664 C 0.38375 0.19046 0.80875
 C665 C 0.37471 0.17636 0.80361
 H666 H 0.37915 0.20726 0.83049
 H667 H 0.37754 0.16830 0.79294
 N668 N 0.32785 0.18673 0.86148
 N669 N 0.31585 0.17496 0.86183
 C670 C 0.30569 0.17783 0.87518
 C671 C 0.31164 0.19204 0.88349
 C672 C 0.32566 0.19739 0.87458
 H673 H 0.29483 0.17017 0.87866
 H674 H 0.33367 0.20819 0.87750
 H675 H 0.32606 0.17564 0.83149
 H676 H 0.33991 0.16183 0.84478
 N677 N 0.81501 0.63927 0.82640
 N678 N 0.82703 0.63963 0.81490
 C679 C 0.82473 0.62651 0.80419
 C680 C 0.81058 0.61758 0.80935
 C681 C 0.80469 0.62592 0.82343
 H682 H 0.83276 0.62359 0.79354
 H683 H 0.79379 0.62248 0.83099
 Cu684 Cu 0.84459 0.65708 0.81523
 Cu685 Cu 0.81370 0.65596 0.84450
 Cu686 Cu 0.84461 0.68748 0.84497
 N687 N 0.86170 0.67500 0.81551
 N688 N 0.86161 0.68685 0.82722
 C689 C 0.87472 0.69756 0.82463
 C690 C 0.88338 0.69211 0.81058
 C691 C 0.87489 0.67780 0.80504
 H692 H 0.87777 0.70843 0.83242
 H693 H 0.87814 0.67003 0.79428
 N694 N 0.82639 0.68604 0.86188
 N695 N 0.81461 0.67403 0.86173
 C696 C 0.80415 0.67640 0.87496
 C697 C 0.80966 0.69051 0.88370
 C698 C 0.82372 0.69634 0.87517
 H699 H 0.79338 0.66843 0.87807
 H700 H 0.83146 0.70722 0.87848
 H701 H 0.82555 0.67532 0.83149
 H702 H 0.83920 0.66157 0.84509
 N703 N 0.81772 0.13638 0.32924
 N704 N 0.82942 0.13683 0.31744
 C705 C 0.82613 0.12459 0.30602
 C706 C 0.81166 0.11608 0.31106
 C707 C 0.80664 0.12377 0.32583
 H708 H 0.83385 0.12187 0.29510
 H709 H 0.79594 0.12030 0.33365
 Cu710 Cu 0.84835 0.15267 0.31861
 Cu711 Cu 0.81835 0.15158 0.34854
 Cu712 Cu 0.84501 0.18661 0.34440
 N713 N 0.86339 0.17216 0.31658
 N714 N 0.86193 0.18551 0.32651
 C715 C 0.87410 0.19692 0.32257
 C716 C 0.88354 0.19032 0.30948
 C717 C 0.87650 0.17463 0.30595
 H718 H 0.87616 0.20893 0.32896
 H719 H 0.88072 0.16564 0.29650
 N720 N 0.82715 0.18502 0.36179
 N721 N 0.81729 0.17150 0.36355
 C722 C 0.80689 0.17392 0.37679
 C723 C 0.81043 0.18965 0.38363
 C724 C 0.82329 0.19639 0.37392
 H725 H 0.79752 0.16488 0.38119
 H726 H 0.82953 0.20854 0.37575
 H727 H 0.82761 0.17034 0.33312
 H728 H 0.84325 0.16088 0.34805
 N729 N 0.68520 0.36032 0.32683
 N730 N 0.67349 0.35992 0.31506
 C731 C 0.67595 0.37312 0.30446
 C732 C 0.68991 0.38212 0.30995
 C733 C 0.69552 0.37375 0.32413
 H734 H 0.66820 0.37601 0.29362
 H735 H 0.70624 0.37719 0.33190
 Cu736 Cu 0.65621 0.34219 0.31476
 Cu737 Cu 0.68613 0.34346 0.34480
 Cu738 Cu 0.65517 0.31196 0.34481
 N739 N 0.63874 0.32466 0.31504
 N740 N 0.63844 0.31284 0.32679
 C741 C 0.62511 0.30242 0.32412
 C742 C 0.61672 0.30806 0.30998
 C743 C 0.62559 0.32215 0.30449
 H744 H 0.62174 0.29164 0.33191
 H745 H 0.62262 0.33000 0.29370
 N746 N 0.67322 0.31332 0.36193
 N747 N 0.68500 0.32532 0.36192
 C748 C 0.69543 0.32282 0.37512
 C749 C 0.68991 0.30862 0.38372
 C750 C 0.67585 0.30288 0.37514
 H751 H 0.70623 0.33070 0.37827
 H752 H 0.66813 0.29193 0.37832
 H753 H 0.67436 0.32382 0.33179
 H754 H 0.66030 0.33773 0.34483
 N755 N 0.68541 0.86074 0.82765
 N756 N 0.67358 0.86089 0.81599
 C757 C 0.67632 0.87416 0.80556
 C758 C 0.69057 0.88268 0.81105
 C759 C 0.69607 0.87393 0.82506
 H760 H 0.66854 0.87745 0.79484
 H761 H 0.70695 0.87697 0.83279
 Cu762 Cu 0.65571 0.84379 0.81562
 Cu763 Cu 0.68601 0.84351 0.84535
 Cu764 Cu 0.65447 0.81260 0.84463
 N765 N 0.63825 0.82626 0.81519
 N766 N 0.63784 0.81411 0.82660
 C767 C 0.62449 0.80383 0.82358
 C768 C 0.61621 0.80989 0.80956
 C769 C 0.62515 0.82410 0.80450
 H770 H 0.62102 0.79286 0.83108
 H771 H 0.62226 0.83226 0.79392
 N772 N 0.67243 0.81327 0.86186
 N773 N 0.68445 0.82502 0.86214
 C774 C 0.69469 0.82206 0.87541
 C775 C 0.68876 0.80784 0.88374
 C776 C 0.67468 0.80255 0.87492
 H777 H 0.70558 0.82969 0.87884
 H778 H 0.66666 0.79176 0.87788
 H779 H 0.67385 0.82460 0.83176
 H780 H 0.66021 0.83827 0.84547
 N781 N 0.18546 0.36030 0.82703
 N782 N 0.17384 0.35987 0.81516
 C783 C 0.17635 0.37308 0.80459
 C784 C 0.19024 0.38213 0.81020
 C785 C 0.19575 0.37376 0.82442
 H786 H 0.16865 0.37599 0.79371
 H787 H 0.20638 0.37726 0.83229
 Cu788 Cu 0.15646 0.34221 0.81483
 Cu789 Cu 0.18623 0.34354 0.84510
 Cu790 Cu 0.15510 0.31225 0.84511
 N791 N 0.13883 0.32479 0.81522
 N792 N 0.13842 0.31309 0.82707
 C793 C 0.12503 0.30275 0.82449
 C794 C 0.11667 0.30831 0.81032
 C795 C 0.12566 0.32229 0.80469
 H796 H 0.12157 0.29205 0.83238
 H797 H 0.12274 0.33005 0.79383
 N798 N 0.17307 0.31355 0.86228
 N799 N 0.18492 0.32548 0.86231
 C800 C 0.19520 0.32298 0.87563
 C801 C 0.18949 0.30886 0.88426
 C802 C 0.17550 0.30315 0.87556
 H803 H 0.20600 0.33084 0.87886
 H804 H 0.16769 0.29227 0.87872
 H805 H 0.17461 0.32392 0.83206
 H806 H 0.16055 0.33801 0.84491
 N807 N 0.18506 0.86036 0.32666
 N808 N 0.17340 0.85969 0.31484
 C809 C 0.17576 0.87280 0.30411
 C810 C 0.18959 0.88203 0.30958
 C811 C 0.19521 0.87389 0.32388
 H812 H 0.16801 0.87552 0.29323
 H813 H 0.20581 0.87758 0.33170
 Cu814 Cu 0.15617 0.84187 0.31479
 Cu815 Cu 0.18615 0.84374 0.34482
 Cu816 Cu 0.15525 0.81222 0.34537
 N817 N 0.13871 0.82430 0.31544
 N818 N 0.13841 0.81279 0.32748
 C819 C 0.12508 0.80231 0.32510
 C820 C 0.11666 0.80757 0.31084
 C821 C 0.12554 0.82152 0.30497
 H822 H 0.12171 0.79174 0.33318
 H823 H 0.12256 0.82907 0.29399
 N824 N 0.17337 0.81380 0.36238
 N825 N 0.18514 0.82580 0.36217
 C826 C 0.19561 0.82349 0.37537
 C827 C 0.19009 0.80942 0.38419
 C828 C 0.17603 0.80354 0.37572
 H829 H 0.20641 0.83143 0.37839
 H830 H 0.16833 0.79264 0.37906
 H831 H 0.17447 0.82402 0.33218
 H832 H 0.16039 0.83814 0.34498
 C833 C 0.24276 0.99982 0.25641
 C834 C 0.25588 0.99969 0.24538
 C835 C 0.26298 1.01576 0.23865
 C836 C 0.26264 0.98355 0.23841
 C837 C 0.23564 0.98377 0.26320
 C838 C 0.23608 1.01600 0.26333
 C839 C 0.25454 1.02438 0.22565
 C840 C 0.26129 1.03946 0.21905
 C841 C 0.27653 1.04604 0.22540
 C842 C 0.28495 1.03751 0.23845
 C843 C 0.27819 1.02243 0.24507
 C844 C 0.25262 0.97360 0.22761
 C845 C 0.25913 0.95853 0.22072
 C846 C 0.27570 0.95330 0.22456
 C847 C 0.28570 0.96314 0.23539
 C848 C 0.27921 0.97822 0.24227
 C849 C 0.24498 0.97413 0.27485
 C850 C 0.23830 0.95897 0.28135
 C851 C 0.22224 0.95332 0.27623
 C852 C 0.21291 0.96287 0.26456
 C853 C 0.21957 0.97805 0.25808
 C854 C 0.24553 1.02506 0.27531
 C855 C 0.23919 1.04027 0.28206
 C856 C 0.22333 1.04650 0.27691
 C857 C 0.21392 1.03755 0.26487
 C858 C 0.22027 1.02236 0.25809
 H859 H 0.24279 1.01936 0.22060
 H860 H 0.25468 1.04594 0.20896
 H861 H 0.29674 1.04248 0.24345
 H862 H 0.28476 1.01602 0.25522
 H863 H 0.23984 0.97761 0.22443
 H864 H 0.25129 0.95103 0.21234
 H865 H 0.28707 0.98564 0.25068
 H866 H 0.25739 0.97841 0.27894
 H867 H 0.24562 0.95169 0.29038
 H868 H 0.20049 0.95859 0.26048
 H869 H 0.21227 0.98520 0.24895
 H870 H 0.25775 1.02029 0.27947
 H871 H 0.24659 1.04709 0.29135
 H872 H 0.20167 1.04228 0.26077
 H873 H 0.21291 1.01566 0.24871
 H874 H 0.29853 0.95920 0.23847
 C875 C 0.24362 0.49975 0.75684
 C876 C 0.25661 0.49980 0.74567
 C877 C 0.26351 0.51596 0.73893
 C878 C 0.26334 0.48375 0.73851
 C879 C 0.23663 0.48362 0.76359
 C880 C 0.23680 0.51585 0.76381
 C881 C 0.25415 0.52534 0.72710
 C882 C 0.26077 0.54041 0.72036
 C883 C 0.27682 0.54619 0.72538
 C884 C 0.28613 0.53693 0.73730
 C885 C 0.27949 0.52188 0.74407
 C886 C 0.25377 0.47466 0.72664
 C887 C 0.26016 0.45955 0.71971
 C888 C 0.27613 0.45343 0.72460
 C889 C 0.28567 0.46243 0.73650
 C890 C 0.27932 0.47755 0.74341
 C891 C 0.24656 0.47330 0.77417
 C892 C 0.23989 0.45818 0.78077
 C893 C 0.22326 0.45326 0.77686
 C894 C 0.21335 0.46347 0.76624
 C895 C 0.22000 0.47860 0.75965
 C896 C 0.24542 0.52412 0.77689
 C897 C 0.23896 0.53926 0.78367
 C898 C 0.22384 0.54624 0.77740
 C899 C 0.21528 0.53808 0.76424
 C900 C 0.22174 0.52294 0.75746
 H901 H 0.24178 0.52091 0.72304
 H902 H 0.25345 0.54747 0.71117
 H903 H 0.29854 0.54131 0.74129
 H904 H 0.28678 0.51492 0.75335
 H905 H 0.24143 0.47933 0.72272
 H906 H 0.25268 0.45271 0.71049
 H907 H 0.28680 0.48430 0.75266
 H908 H 0.25940 0.47704 0.77738
 H909 H 0.24767 0.45038 0.78898
 H910 H 0.20049 0.45976 0.76309
 H911 H 0.21222 0.48630 0.75139
 H912 H 0.25710 0.51880 0.78186
 H913 H 0.24569 0.54548 0.79382
 H914 H 0.20361 0.54339 0.75927
 H915 H 0.21506 0.51682 0.74723
 H916 H 0.29803 0.45778 0.74039
 C917 C 0.74342 0.00026 0.24505
 C918 C 0.75651 0.00016 0.25610
 C919 C 0.76322 -0.01602 0.26297
 C920 C 0.76360 0.01621 0.26292
 C921 C 0.73668 0.01638 0.23804
 C922 C 0.73641 -0.01585 0.23834
 C923 C 0.75389 -0.02500 0.27513
 C924 C 0.76034 -0.04012 0.28196
 C925 C 0.77615 -0.04637 0.27666
 C926 C 0.78538 -0.03756 0.26436
 C927 C 0.77891 -0.02246 0.25749
 C928 C 0.75424 0.02584 0.27457
 C929 C 0.76103 0.04087 0.28125
 C930 C 0.77720 0.04640 0.27631
 C931 C 0.78654 0.03685 0.26463
 C932 C 0.77979 0.02180 0.25798
 C933 C 0.74677 0.02636 0.22729
 C934 C 0.74030 0.04144 0.22040
 C935 C 0.72371 0.04666 0.22418
 C936 C 0.71364 0.03679 0.23497
 C937 C 0.72009 0.02170 0.24185
 C938 C 0.74506 -0.02454 0.22551
 C939 C 0.73846 -0.03970 0.21897
 C940 C 0.72316 -0.04629 0.22521
 C941 C 0.71457 -0.03772 0.23813
 C942 C 0.72118 -0.02257 0.24469
 H943 H 0.74169 -0.02022 0.27936
 H944 H 0.75305 -0.04687 0.29140
 H945 H 0.79758 -0.04233 0.26012
 H946 H 0.78610 -0.01588 0.24787
 H947 H 0.74176 0.02164 0.27856
 H948 H 0.75372 0.04811 0.29034
 H949 H 0.78714 0.01462 0.24891
 H950 H 0.75957 0.02237 0.22416
 H951 H 0.74820 0.04897 0.21206
 H952 H 0.70080 0.04073 0.23800
 H953 H 0.71218 0.01426 0.25021
 H954 H 0.75688 -0.01955 0.22057
 H955 H 0.74524 -0.04625 0.20902
 H956 H 0.70277 -0.04274 0.24310
 H957 H 0.71449 -0.01615 0.25476
 H958 H 0.79907 0.04100 0.26072
 C959 C 0.74410 0.50024 0.74422
 C960 C 0.75593 0.50021 0.75673
 C961 C 0.76222 0.48412 0.76445
 C962 C 0.76330 0.51632 0.76331
 C963 C 0.73703 0.51640 0.73738
 C964 C 0.73757 0.48419 0.73669
 C965 C 0.75093 0.47205 0.77126
 C966 C 0.75712 0.45688 0.77825
 C967 C 0.77466 0.45376 0.77870
 C968 C 0.78596 0.46590 0.77227
 C969 C 0.77980 0.48101 0.76522
 C970 C 0.76217 0.51996 0.78054
 C971 C 0.76913 0.53499 0.78697
 C972 C 0.77744 0.54647 0.77626
 C973 C 0.77879 0.54282 0.75907
 C974 C 0.77180 0.52778 0.75262
 C975 C 0.73815 0.51972 0.72008
 C976 C 0.73148 0.53481 0.71341
 C977 C 0.72348 0.54665 0.72396
 C978 C 0.72213 0.54334 0.74120
 C979 C 0.72883 0.52825 0.74790
 C980 C 0.74870 0.47190 0.72993
 C981 C 0.74228 0.45684 0.72297
 C982 C 0.72471 0.45402 0.72251
 C983 C 0.71358 0.46632 0.72900
 C984 C 0.71997 0.48133 0.73601
 H985 H 0.73735 0.47436 0.77113
 H986 H 0.74826 0.44762 0.78332
 H987 H 0.79956 0.46367 0.77266
 H988 H 0.78873 0.49021 0.76018
 H989 H 0.75578 0.51121 0.78898
 H990 H 0.76804 0.53766 0.80029
 H991 H 0.77309 0.52503 0.73934
 H992 H 0.74431 0.51067 0.71176
 H993 H 0.73254 0.53722 0.70004
 H994 H 0.71584 0.55236 0.74944
 H995 H 0.72754 0.52576 0.76123
 H996 H 0.76231 0.47399 0.73006
 H997 H 0.75101 0.44742 0.71795
 H998 H 0.69996 0.46428 0.72868
 H999 H 0.71118 0.49066 0.74109
 H1000 H 0.78529 0.55155 0.75069
 C1001 C 0.24308 0.50032 0.24534
 C1002 C 0.25604 0.50039 0.25652
 C1003 C 0.26286 0.48437 0.26372
 C1004 C 0.26302 0.51658 0.26303
 C1005 C 0.23618 0.51644 0.23849
 C1006 C 0.23615 0.48421 0.23847
 C1007 C 0.25273 0.47437 0.27441
 C1008 C 0.25917 0.45925 0.28127
 C1009 C 0.27578 0.45402 0.27748
 C1010 C 0.28589 0.46395 0.26679
 C1011 C 0.27948 0.47909 0.25998
 C1012 C 0.25456 0.52523 0.27602
 C1013 C 0.26123 0.54041 0.28244
 C1014 C 0.27642 0.54702 0.27596
 C1015 C 0.28483 0.53848 0.26290
 C1016 C 0.27812 0.52333 0.25642
 C1017 C 0.24412 0.52423 0.22469
 C1018 C 0.23756 0.53937 0.21800
 C1019 C 0.22299 0.54680 0.22502
 C1020 C 0.21512 0.53911 0.23889
 C1021 C 0.22171 0.52399 0.24562
 C1022 C 0.24647 0.47340 0.22875
 C1023 C 0.23983 0.45836 0.22199
 C1024 C 0.22282 0.45399 0.22490
 C1025 C 0.21250 0.46470 0.23464
 C1026 C 0.21913 0.47977 0.24137
 H1027 H 0.23991 0.47834 0.27748
 H1028 H 0.25124 0.45168 0.28954
 H1029 H 0.29873 0.45998 0.26373
 H1030 H 0.28742 0.48654 0.25163
 H1031 H 0.24287 0.52016 0.28119
 H1032 H 0.25461 0.54693 0.29252
 H1033 H 0.28469 0.51689 0.24627
 H1034 H 0.25536 0.51855 0.21913
 H1035 H 0.24378 0.54521 0.20730
 H1036 H 0.20386 0.54475 0.24444
 H1037 H 0.21555 0.51819 0.25637
 H1038 H 0.25960 0.47671 0.22629
 H1039 H 0.24791 0.45020 0.21444
 H1040 H 0.19933 0.46143 0.23698
 H1041 H 0.21101 0.48786 0.24894
 H1042 H 0.29658 0.54348 0.25780
 C1043 C 0.74297 0.99993 0.75633
 C1044 C 0.75582 0.99998 0.74500
 C1045 C 0.76255 1.01607 0.73788
 C1046 C 0.76284 0.98386 0.73830
 C1047 C 0.73631 0.98377 0.76321
 C1048 C 0.73602 1.01598 0.76335
 C1049 C 0.75207 1.02669 0.72814
 C1050 C 0.75853 1.04175 0.72120
 C1051 C 0.77552 1.04628 0.72392
 C1052 C 0.78598 1.03575 0.73369
 C1053 C 0.77953 1.02070 0.74063
 C1054 C 0.75494 0.97587 0.72462
 C1055 C 0.76165 0.96077 0.71802
 C1056 C 0.77633 0.95356 0.72503
 C1057 C 0.78417 0.96144 0.73878
 C1058 C 0.77744 0.97653 0.74541
 C1059 C 0.74501 0.97551 0.77628
 C1060 C 0.73867 0.96033 0.78304
 C1061 C 0.72357 0.95333 0.77680
 C1062 C 0.71494 0.96146 0.76364
 C1063 C 0.72132 0.97662 0.75682
 C1064 C 0.74617 1.02635 0.77364
 C1065 C 0.73961 1.04148 0.78034
 C1066 C 0.72286 1.04637 0.77679
 C1067 C 0.71271 1.03609 0.76649
 C1068 C 0.71924 1.02092 0.75984
 H1069 H 0.73894 1.02326 0.72586
 H1070 H 0.75032 1.04979 0.71367
 H1071 H 0.79912 1.03917 0.73593
 H1072 H 0.78775 1.01278 0.74827
 H1073 H 0.74364 0.98139 0.71906
 H1074 H 0.75547 0.95477 0.70740
 H1075 H 0.78360 0.98251 0.75605
 H1076 H 0.75667 0.98087 0.78122
 H1077 H 0.74548 0.95412 0.79317
 H1078 H 0.70327 0.95614 0.75871
 H1079 H 0.71460 0.98273 0.74659
 H1080 H 0.75913 1.02266 0.77650
 H1081 H 0.74756 1.04932 0.78832
 H1082 H 0.69976 1.03980 0.76361
 H1083 H 0.71128 1.01318 0.75180
 H1084 H 0.79552 0.95597 0.74430
 C1085 C 0.74291 0.49963 0.25626
 C1086 C 0.75588 0.49968 0.24507
 C1087 C 0.76277 0.51579 0.23813
 C1088 C 0.76273 0.48357 0.23820
 C1089 C 0.73601 0.48347 0.26294
 C1090 C 0.73606 0.51567 0.26337
 C1091 C 0.75244 0.52651 0.22834
 C1092 C 0.75905 0.54157 0.22153
 C1093 C 0.77603 0.54601 0.22444
 C1094 C 0.78633 0.53540 0.23428
 C1095 C 0.77975 0.52034 0.24108
 C1096 C 0.75459 0.47569 0.22461
 C1097 C 0.76109 0.46055 0.21788
 C1098 C 0.77579 0.45322 0.22469
 C1099 C 0.78390 0.46100 0.23834
 C1100 C 0.77737 0.47612 0.24510
 C1101 C 0.74473 0.47474 0.27569
 C1102 C 0.73816 0.45956 0.28225
 C1103 C 0.72280 0.45304 0.27613
 C1104 C 0.71411 0.46168 0.26332
 C1105 C 0.72072 0.47682 0.25671
 C1106 C 0.74609 0.52562 0.27417
 C1107 C 0.73961 0.54073 0.28099
 C1108 C 0.72308 0.54603 0.27705
 C1109 C 0.71307 0.53619 0.26621
 C1110 C 0.71951 0.52105 0.25943
 H1111 H 0.73934 0.52314 0.22587
 H1112 H 0.75097 0.54967 0.21392
 H1113 H 0.79947 0.53873 0.23664
 H1114 H 0.78786 0.51233 0.24874
 H1115 H 0.74325 0.48132 0.21922
 H1116 H 0.75471 0.45463 0.20732
 H1117 H 0.78370 0.48199 0.25568
 H1118 H 0.75658 0.47973 0.28057
 H1119 H 0.74499 0.45298 0.29213
 H1120 H 0.70223 0.45674 0.25849
 H1121 H 0.71395 0.48331 0.24673
 H1122 H 0.75887 0.52160 0.27735
 H1123 H 0.74745 0.54823 0.28938
 H1124 H 0.70028 0.54020 0.26303
 H1125 H 0.71167 0.51366 0.25097
 H1126 H 0.79529 0.45541 0.24369
 C1127 C 0.24424 0.00008 0.74528
 C1128 C 0.25693 0.00009 0.75676
 C1129 C 0.26394 -0.01593 0.76384
 C1130 C 0.26361 0.01627 0.76353
 C1131 C 0.23716 0.01626 0.73876
 C1132 C 0.23753 -0.01593 0.73800
 C1133 C 0.25347 -0.02709 0.77301
 C1134 C 0.26016 -0.04216 0.77975
 C1135 C 0.27736 -0.04621 0.77735
 C1136 C 0.28784 -0.03511 0.76824
 C1137 C 0.28119 -0.01999 0.76158
 C1138 C 0.25591 0.02368 0.77766
 C1139 C 0.26225 0.03892 0.78427
 C1140 C 0.27636 0.04679 0.77680
 C1141 C 0.28396 0.03950 0.76257
 C1142 C 0.27754 0.02430 0.75590
 C1143 C 0.24426 0.02377 0.72440
 C1144 C 0.23745 0.03891 0.71795
 C1145 C 0.22345 0.04659 0.72580
 C1146 C 0.21642 0.03919 0.74026
 C1147 C 0.22329 0.02408 0.74675
 C1148 C 0.24828 -0.02702 0.72906
 C1149 C 0.24182 -0.04203 0.72205
 C1150 C 0.22458 -0.04604 0.72390
 C1151 C 0.21382 -0.03501 0.73278
 C1152 C 0.22025 -0.01999 0.73977
 H1153 H 0.24018 -0.02405 0.77502
 H1154 H 0.25195 -0.05063 0.78685
 H1155 H 0.30115 -0.03813 0.76629
 H1156 H 0.28945 -0.01158 0.75450
 H1157 H 0.24501 0.01766 0.78351
 H1158 H 0.25622 0.04451 0.79522
 H1159 H 0.28345 0.01879 0.74485
 H1160 H 0.25505 0.01789 0.71820
 H1161 H 0.24302 0.04455 0.70681
 H1162 H 0.20560 0.04503 0.74643
 H1163 H 0.21775 0.01843 0.75791
 H1164 H 0.26162 -0.02399 0.72745
 H1165 H 0.25025 -0.05045 0.71516
 H1166 H 0.20047 -0.03800 0.73430
 H1167 H 0.21180 -0.01165 0.74670
 H1168 H 0.29485 0.04550 0.75669
 C1169 C 0.25722 0.24416 0.99991
 C1170 C 0.24470 0.25619 1.00001
 C1171 C 0.23804 0.26340 1.01597
 C1172 C 0.23700 0.26280 0.98426
 C1173 C 0.26490 0.23776 0.98406
 C1174 C 0.26379 0.23664 1.01575
 C1175 C 0.22061 0.26226 1.01960
 C1176 C 0.21416 0.26898 1.03457
 C1177 C 0.22504 0.27708 1.04597
 C1178 C 0.24242 0.27844 1.04233
 C1179 C 0.24890 0.27168 1.02737
 C1180 C 0.22990 0.25170 0.97231
 C1181 C 0.22277 0.25819 0.95753
 C1182 C 0.22250 0.27584 0.95466
 C1183 C 0.22931 0.28696 0.96665
 C1184 C 0.23646 0.28049 0.98139
 C1185 C 0.27201 0.24903 0.97223
 C1186 C 0.27912 0.24273 0.95734
 C1187 C 0.27932 0.22514 0.95422
 C1188 C 0.27250 0.21386 0.96608
 C1189 C 0.26539 0.22012 0.98094
 C1190 C 0.28120 0.23774 1.01950
 C1191 C 0.28753 0.23074 1.03439
 C1192 C 0.27655 0.22242 1.04559
 C1193 C 0.25921 0.22109 1.04181
 C1194 C 0.25286 0.22813 1.02693
 H1195 H 0.21204 0.25600 1.01092
 H1196 H 0.20069 0.26788 1.03724
 H1197 H 0.25094 0.28477 1.05102
 H1198 H 0.26234 0.27295 1.02464
 H1199 H 0.22988 0.23804 0.97444
 H1200 H 0.21746 0.24948 0.94837
 H1201 H 0.24176 0.28926 0.99049
 H1202 H 0.27205 0.26265 0.97453
 H1203 H 0.28444 0.25158 0.94829
 H1204 H 0.27264 0.20022 0.96383
 H1205 H 0.26007 0.21122 0.98994
 H1206 H 0.28982 0.24419 1.01097
 H1207 H 0.30096 0.23183 1.03717
 H1208 H 0.25061 0.21462 1.05033
 H1209 H 0.23944 0.22691 1.02409
 H1210 H 0.22912 0.30063 0.96458
 C1211 C 0.25534 0.74299 0.50005
 C1212 C 0.24418 0.75616 0.50002
 C1213 C 0.23722 0.76311 0.51587
 C1214 C 0.23738 0.76317 0.48414
 C1215 C 0.26237 0.73610 0.48420
 C1216 C 0.26213 0.73597 0.51592
 C1217 C 0.22490 0.75391 0.52484
 C1218 C 0.21825 0.76043 0.53982
 C1219 C 0.22388 0.77620 0.54595
 C1220 C 0.23623 0.78538 0.53706
 C1221 C 0.24288 0.77886 0.52207
 C1222 C 0.22569 0.75367 0.47468
 C1223 C 0.21899 0.76037 0.45981
 C1224 C 0.22391 0.77661 0.45430
 C1225 C 0.23567 0.78606 0.46364
 C1226 C 0.24240 0.77936 0.47850
 C1227 C 0.27503 0.74515 0.47556
 C1228 C 0.28184 0.73865 0.46064
 C1229 C 0.27602 0.72307 0.45424
 C1230 C 0.26333 0.71404 0.46281
 C1231 C 0.25652 0.72053 0.47773
 C1232 C 0.27361 0.74554 0.52554
 C1233 C 0.28016 0.73888 0.54050
 C1234 C 0.27529 0.72260 0.54593
 C1235 C 0.26375 0.71306 0.53641
 C1236 C 0.25720 0.71971 0.52146
 H1237 H 0.22042 0.74172 0.52019
 H1238 H 0.20869 0.75323 0.54658
 H1239 H 0.24070 0.79757 0.54169
 H1240 H 0.25253 0.78602 0.51543
 H1241 H 0.22173 0.74113 0.47888
 H1242 H 0.20993 0.75293 0.45267
 H1243 H 0.25158 0.78675 0.48550
 H1244 H 0.27966 0.75719 0.48043
 H1245 H 0.29166 0.74573 0.45414
 H1246 H 0.25872 0.70198 0.45797
 H1247 H 0.24661 0.71349 0.48414
 H1248 H 0.27753 0.75811 0.52141
 H1249 H 0.28907 0.74638 0.54777
 H1250 H 0.25986 0.70047 0.54052
 H1251 H 0.24821 0.71224 0.51430
 H1252 H 0.23962 0.79861 0.45946
 C1253 C 0.24308 0.74496 -0.00009
 C1254 C 0.25635 0.75595 0.00005
 C1255 C 0.26337 0.76289 -0.01576
 C1256 C 0.26337 0.76265 0.01596
 C1257 C 0.23613 0.73779 0.01566
 C1258 C 0.23604 0.73842 -0.01605
 C1259 C 0.27844 0.75626 -0.02257
 C1260 C 0.28502 0.76294 -0.03751
 C1261 C 0.27656 0.77625 -0.04578
 C1262 C 0.26143 0.78281 -0.03907
 C1263 C 0.25486 0.77615 -0.02412
 C1264 C 0.27992 0.75833 0.02099
 C1265 C 0.28662 0.76494 0.03588
 C1266 C 0.27687 0.77597 0.04584
 C1267 C 0.26033 0.78027 0.04091
 C1268 C 0.25361 0.77365 0.02603
 C1269 C 0.22026 0.74314 0.02175
 C1270 C 0.21374 0.73625 0.03662
 C1271 C 0.22301 0.72392 0.04549
 C1272 C 0.23888 0.71856 0.03946
 C1273 C 0.24542 0.72548 0.02461
 C1274 C 0.22030 0.74429 -0.02198
 C1275 C 0.21359 0.73786 -0.03695
 C1276 C 0.22259 0.72554 -0.04612
 C1277 C 0.23839 0.71977 -0.04031
 C1278 C 0.24508 0.72618 -0.02532
 H1279 H 0.28503 0.74587 -0.01639
 H1280 H 0.29671 0.75774 -0.04260
 H1281 H 0.25476 0.79308 -0.04537
 H1282 H 0.24316 0.78132 -0.01903
 H1283 H 0.28758 0.74976 0.01348
 H1284 H 0.29942 0.76151 0.03959
 H1285 H 0.24086 0.77718 0.02226
 H1286 H 0.21302 0.75276 0.01511
 H1287 H 0.20148 0.74052 0.04119
 H1288 H 0.24615 0.70902 0.04621
 H1289 H 0.25769 0.72122 0.02004
 H1290 H 0.21327 0.75390 -0.01509
 H1291 H 0.20139 0.74245 -0.04135
 H1292 H 0.24547 0.71027 -0.04730
 H1293 H 0.25727 0.72157 -0.02090
 H1294 H 0.25268 0.78881 0.04850
 C1295 C 0.24449 0.24315 0.50014
 C1296 C 0.25662 0.25553 0.50022
 C1297 C 0.26388 0.26230 0.48436
 C1298 C 0.26335 0.26290 0.51606
 C1299 C 0.23785 0.23551 0.51589
 C1300 C 0.23713 0.23668 0.48421
 C1301 C 0.27231 0.25145 0.47300
 C1302 C 0.27911 0.25802 0.45809
 C1303 C 0.27758 0.27547 0.45446
 C1304 C 0.26926 0.28634 0.46580
 C1305 C 0.26252 0.27980 0.48073
 C1306 C 0.28094 0.26278 0.51903
 C1307 C 0.28751 0.26957 0.53389
 C1308 C 0.27659 0.27667 0.54590
 C1309 C 0.25905 0.27707 0.54292
 C1310 C 0.25245 0.27028 0.52805
 C1311 C 0.22029 0.23570 0.51906
 C1312 C 0.21381 0.22873 0.53389
 C1313 C 0.22480 0.22136 0.54567
 C1314 C 0.24231 0.22085 0.54248
 C1315 C 0.24881 0.22783 0.52762
 C1316 C 0.22862 0.24773 0.47310
 C1317 C 0.22161 0.24140 0.45820
 C1318 C 0.22303 0.22400 0.45433
 C1319 C 0.23145 0.21294 0.46540
 C1320 C 0.23839 0.21923 0.48032
 H1321 H 0.27369 0.23795 0.47572
 H1322 H 0.28556 0.24950 0.44943
 H1323 H 0.26797 0.29986 0.46311
 H1324 H 0.25607 0.28836 0.48937
 H1325 H 0.28955 0.25723 0.50991
 H1326 H 0.30111 0.26924 0.53602
 H1327 H 0.23887 0.27079 0.52586
 H1328 H 0.21163 0.24146 0.51012
 H1329 H 0.20024 0.22914 0.53620
 H1330 H 0.25091 0.21507 0.55145
 H1331 H 0.26236 0.22726 0.52526
 H1332 H 0.22732 0.26119 0.47602
 H1333 H 0.21507 0.25007 0.44976
 H1334 H 0.23264 0.19945 0.46252
 H1335 H 0.24490 0.21053 0.48876
 H1336 H 0.25049 0.28265 0.55208
 C1337 C 0.75568 0.74341 1.00002
 C1338 C 0.74314 0.75543 1.00000
 C1339 C 0.73658 0.76293 1.01586
 C1340 C 0.73542 0.76184 0.98419
 C1341 C 0.76315 0.73665 0.98421
 C1342 C 0.76250 0.73630 1.01594
 C1343 C 0.71918 0.76176 1.01966
 C1344 C 0.71282 0.76883 1.03451
 C1345 C 0.72375 0.77726 1.04562
 C1346 C 0.74109 0.77863 1.04181
 C1347 C 0.74749 0.77153 1.02697
 C1348 C 0.72811 0.75061 0.97248
 C1349 C 0.72109 0.75691 0.95757
 C1350 C 0.72114 0.77449 0.95431
 C1351 C 0.72813 0.78574 0.96608
 C1352 C 0.73517 0.77946 0.98096
 C1353 C 0.77021 0.74764 0.97209
 C1354 C 0.77701 0.74103 0.95721
 C1355 C 0.77699 0.72338 0.95437
 C1356 C 0.77027 0.71237 0.96653
 C1357 C 0.76345 0.71896 0.98139
 C1358 C 0.77997 0.73752 1.01936
 C1359 C 0.78658 0.73091 1.03431
 C1360 C 0.77582 0.72287 1.04590
 C1361 C 0.75841 0.72146 1.04248
 C1362 C 0.75178 0.72809 1.02754
 H1363 H 0.71058 0.75522 1.01120
 H1364 H 0.69938 0.76769 1.03733
 H1365 H 0.74965 0.78520 1.05029
 H1366 H 0.76090 0.77280 1.02410
 H1367 H 0.72787 0.73700 0.97490
 H1368 H 0.71563 0.74809 0.94860
 H1369 H 0.74063 0.78834 0.98987
 H1370 H 0.77042 0.76131 0.97416
 H1371 H 0.78230 0.74965 0.94794
 H1372 H 0.77028 0.69869 0.96452
 H1373 H 0.75820 0.71027 0.99062
 H1374 H 0.78843 0.74377 1.01054
 H1375 H 0.80006 0.73208 1.03682
 H1376 H 0.74998 0.71521 1.05133
 H1377 H 0.73831 0.72678 1.02497
 H1378 H 0.72818 0.79936 0.96373
 C1379 C 0.75635 0.24314 0.49941
 C1380 C 0.74511 0.25625 0.49952
 C1381 C 0.73832 0.26320 0.51543
 C1382 C 0.73800 0.26314 0.48372
 C1383 C 0.76304 0.23623 0.48345
 C1384 C 0.76353 0.23622 0.51520
 C1385 C 0.72760 0.25322 0.52554
 C1386 C 0.72097 0.25986 0.54047
 C1387 C 0.72498 0.27654 0.54538
 C1388 C 0.73580 0.28647 0.53541
 C1389 C 0.74244 0.27984 0.52048
 C1390 C 0.72481 0.25443 0.47555
 C1391 C 0.71788 0.26094 0.46070
 C1392 C 0.72410 0.27619 0.45388
 C1393 C 0.73731 0.28489 0.46198
 C1394 C 0.74425 0.27838 0.47683
 C1395 C 0.77522 0.24547 0.47434
 C1396 C 0.78172 0.23894 0.45930
 C1397 C 0.77612 0.22312 0.45328
 C1398 C 0.76382 0.21396 0.46227
 C1399 C 0.75728 0.22050 0.47729
 C1400 C 0.77508 0.24596 0.52459
 C1401 C 0.78187 0.23949 0.53953
 C1402 C 0.77715 0.22325 0.54520
 C1403 C 0.76560 0.21351 0.53589
 C1404 C 0.75883 0.21996 0.52094
 H1405 H 0.72432 0.24035 0.52180
 H1406 H 0.71265 0.25204 0.54811
 H1407 H 0.73907 0.29935 0.53914
 H1408 H 0.75088 0.28763 0.51296
 H1409 H 0.71987 0.24265 0.48073
 H1410 H 0.70766 0.25413 0.45456
 H1411 H 0.75453 0.28517 0.48289
 H1412 H 0.77969 0.25768 0.47892
 H1413 H 0.79117 0.24618 0.45242
 H1414 H 0.75934 0.20175 0.45770
 H1415 H 0.74767 0.21336 0.48402
 H1416 H 0.77884 0.25853 0.52031
 H1417 H 0.79082 0.24712 0.54662
 H1418 H 0.76182 0.20095 0.54019
 H1419 H 0.74978 0.21234 0.51399
 H1420 H 0.74220 0.29671 0.45683
 C1421 C 0.74544 0.24282 -0.00033
 C1422 C 0.75667 0.25591 -0.00028
 C1423 C 0.76383 0.26277 -0.01608
 C1424 C 0.76334 0.26291 0.01564
 C1425 C 0.73841 0.23602 0.01552
 C1426 C 0.73850 0.23588 -0.01619
 C1427 C 0.77537 0.25298 -0.02547
 C1428 C 0.78223 0.25945 -0.04038
 C1429 C 0.77758 0.27574 -0.04601
 C1430 C 0.76599 0.28550 -0.03671
 C1431 C 0.75917 0.27906 -0.02178
 C1432 C 0.77573 0.25385 0.02466
 C1433 C 0.78228 0.26053 0.03960
 C1434 C 0.77649 0.27630 0.04562
 C1435 C 0.76401 0.28529 0.03671
 C1436 C 0.75743 0.27862 0.02179
 C1437 C 0.72513 0.24470 0.02362
 C1438 C 0.71828 0.23827 0.03855
 C1439 C 0.72465 0.22313 0.04547
 C1440 C 0.73803 0.21452 0.03748
 C1441 C 0.74490 0.22095 0.02257
 C1442 C 0.72801 0.24603 -0.02639
 C1443 C 0.72120 0.23940 -0.04123
 C1444 C 0.72480 0.22256 -0.04598
 C1445 C 0.73528 0.21241 -0.03585
 C1446 C 0.74207 0.21902 -0.02100
 H1447 H 0.77908 0.24037 -0.02121
 H1448 H 0.79118 0.25179 -0.04748
 H1449 H 0.76223 0.29808 -0.04099
 H1450 H 0.75010 0.28669 -0.01482
 H1451 H 0.78034 0.24167 0.02009
 H1452 H 0.79189 0.25344 0.04640
 H1453 H 0.74770 0.28566 0.01511
 H1454 H 0.72009 0.25640 0.01834
 H1455 H 0.70797 0.24507 0.04463
 H1456 H 0.74309 0.20282 0.04275
 H1457 H 0.75531 0.21425 0.01657
 H1458 H 0.72502 0.25902 -0.02277
 H1459 H 0.71306 0.24735 -0.04893
 H1460 H 0.73814 0.19937 -0.03941
 H1461 H 0.75020 0.21103 -0.01335
 H1462 H 0.75941 0.29747 0.04128
 C1463 C 0.74412 0.74353 0.49997
 C1464 C 0.75532 0.75666 0.49993
 C1465 C 0.76213 0.76354 0.48399
 C1466 C 0.76222 0.76376 0.51573
 C1467 C 0.73700 0.73668 0.51581
 C1468 C 0.73736 0.73653 0.48410
 C1469 C 0.77584 0.75536 0.47609
 C1470 C 0.78245 0.76184 0.46108
 C1471 C 0.77542 0.77656 0.45388
 C1472 C 0.76167 0.78471 0.46171
 C1473 C 0.75501 0.77820 0.47670
 C1474 C 0.77224 0.75356 0.52635
 C1475 C 0.77882 0.76030 0.54124
 C1476 C 0.77548 0.77729 0.54563
 C1477 C 0.76548 0.78749 0.53509
 C1478 C 0.75890 0.78077 0.52019
 C1479 C 0.72623 0.74682 0.52575
 C1480 C 0.71948 0.74037 0.54071
 C1481 C 0.72347 0.72375 0.54589
 C1482 C 0.73422 0.71360 0.53602
 C1483 C 0.74093 0.72001 0.52102
 C1484 C 0.72425 0.74514 0.47567
 C1485 C 0.71761 0.73851 0.46076
 C1486 C 0.72401 0.72320 0.45420
 C1487 C 0.73722 0.71466 0.46250
 C1488 C 0.74390 0.72132 0.47740
 H1489 H 0.78142 0.74402 0.48159
 H1490 H 0.79309 0.75545 0.45514
 H1491 H 0.75616 0.79612 0.45627
 H1492 H 0.74434 0.78456 0.48259
 H1493 H 0.77498 0.74043 0.52305
 H1494 H 0.78656 0.75229 0.54929
 H1495 H 0.75106 0.78878 0.51227
 H1496 H 0.72305 0.75969 0.52186
 H1497 H 0.71113 0.74832 0.54822
 H1498 H 0.73742 0.70074 0.53993
 H1499 H 0.74935 0.71206 0.51363
 H1500 H 0.71915 0.75694 0.48069
 H1501 H 0.70743 0.74525 0.45442
 H1502 H 0.74229 0.70284 0.45751
 H1503 H 0.75414 0.71463 0.48367
 H1504 H 0.76279 0.80064 0.53838
 C1505 C 1.00008 0.25645 0.24310
 C1506 C 1.00001 0.24362 0.25453
 C1507 C 1.01596 0.23669 0.26165
 C1508 C 0.98387 0.23688 0.26134
 C1509 C 0.98402 0.26338 0.23633
 C1510 C 1.01610 0.26318 0.23594
 C1511 C 1.02024 0.21946 0.25931
 C1512 C 1.03525 0.21288 0.26612
 C1513 C 1.04606 0.22345 0.27543
 C1514 C 1.04185 0.24066 0.27781
 C1515 C 1.02685 0.24725 0.27098
 C1516 C 0.97618 0.22252 0.25410
 C1517 C 0.96106 0.21606 0.26081
 C1518 C 0.95350 0.22396 0.27474
 C1519 C 0.96106 0.23843 0.28185
 C1520 C 0.97621 0.24485 0.27519
 C1521 C 0.97688 0.27830 0.24308
 C1522 C 0.96181 0.28491 0.23641
 C1523 C 0.95376 0.27656 0.22304
 C1524 C 0.96075 0.26152 0.21645
 C1525 C 0.97586 0.25497 0.22306
 C1526 C 1.02096 0.28014 0.23898
 C1527 C 1.03606 0.28652 0.23216
 C1528 C 1.04637 0.27604 0.22217
 C1529 C 1.04159 0.25911 0.21910
 C1530 C 1.02652 0.25269 0.22596
 H1531 H 1.01206 0.21115 0.25207
 H1532 H 1.03841 0.19956 0.26417
 H1533 H 1.05009 0.24894 0.28502
 H1534 H 1.02367 0.26054 0.27302
 H1535 H 0.98190 0.21632 0.24333
 H1536 H 0.95531 0.20486 0.25521
 H1537 H 0.98201 0.25600 0.28082
 H1538 H 0.98294 0.28478 0.25347
 H1539 H 0.95647 0.29653 0.24161
 H1540 H 0.95458 0.25493 0.20616
 H1541 H 0.98122 0.24337 0.21786
 H1542 H 1.01319 0.28838 0.24675
 H1543 H 1.03967 0.29962 0.23466
 H1544 H 1.04946 0.25091 0.21136
 H1545 H 1.02289 0.23960 0.22342
 H1546 H 0.95532 0.24467 0.29261
 C1547 C 0.50073 0.25617 0.74293
 C1548 C 0.50077 0.24413 0.75530
 C1549 C 0.51678 0.23762 0.76288
 C1550 C 0.48474 0.23683 0.76197
 C1551 C 0.48464 0.26336 0.73621
 C1552 C 0.51671 0.26281 0.73545
 C1553 C 0.51985 0.21996 0.76334
 C1554 C 0.53482 0.21359 0.77039
 C1555 C 0.54685 0.22477 0.77715
 C1556 C 0.54378 0.24240 0.77696
 C1557 C 0.52877 0.24879 0.76995
 C1558 C 0.47324 0.22836 0.75136
 C1559 C 0.45818 0.22158 0.75788
 C1560 C 0.45457 0.22309 0.77505
 C1561 C 0.46611 0.23131 0.78570
 C1562 C 0.48116 0.23805 0.77921
 C1563 C 0.47305 0.27184 0.74678
 C1564 C 0.45799 0.27860 0.74020
 C1565 C 0.45443 0.27700 0.72303
 C1566 C 0.46603 0.26874 0.71243
 C1567 C 0.48111 0.26204 0.71897
 C1568 C 0.51962 0.28049 0.73505
 C1569 C 0.53461 0.28697 0.72816
 C1570 C 0.54683 0.27587 0.72151
 C1571 C 0.54395 0.25823 0.72169
 C1572 C 0.52891 0.25172 0.72852
 H1573 H 0.51071 0.21112 0.75808
 H1574 H 0.53702 0.19993 0.77054
 H1575 H 0.55297 0.25117 0.78225
 H1576 H 0.52649 0.26243 0.77003
 H1577 H 0.47597 0.22695 0.73809
 H1578 H 0.44939 0.21511 0.74957
 H1579 H 0.48998 0.24437 0.78759
 H1580 H 0.47573 0.27330 0.76005
 H1581 H 0.44917 0.28512 0.74848
 H1582 H 0.46345 0.26749 0.69912
 H1583 H 0.48997 0.25568 0.71062
 H1584 H 0.51035 0.28926 0.74027
 H1585 H 0.53669 0.30064 0.72805
 H1586 H 0.55331 0.24951 0.71655
 H1587 H 0.52678 0.23806 0.72844
 H1588 H 0.46347 0.23249 0.79902
 C1589 C -0.00045 0.24469 0.74265
 C1590 C -0.00045 0.25669 0.75505
 C1591 C -0.01653 0.26399 0.76172
 C1592 C 0.01555 0.26315 0.76263
 C1593 C 0.01555 0.23811 0.73510
 C1594 C -0.01652 0.23736 0.73608
 C1595 C -0.02817 0.27225 0.75106
 C1596 C -0.04327 0.27901 0.75756
 C1597 C -0.04682 0.27765 0.77476
 C1598 C -0.03517 0.26962 0.78545
 C1599 C -0.02006 0.26291 0.77899
 C1600 C 0.01859 0.28080 0.76315
 C1601 C 0.03357 0.28712 0.77020
 C1602 C 0.04563 0.27588 0.77689
 C1603 C 0.04261 0.25826 0.77661
 C1604 C 0.02759 0.25192 0.76960
 C1605 C 0.01853 0.22044 0.73467
 C1606 C 0.03351 0.21399 0.72769
 C1607 C 0.04565 0.22512 0.72097
 C1608 C 0.04267 0.24275 0.72113
 C1609 C 0.02765 0.24923 0.72808
 C1610 C -0.02802 0.22899 0.74679
 C1611 C -0.04304 0.22206 0.74036
 C1612 C -0.04662 0.22333 0.72316
 C1613 C -0.03510 0.23149 0.71242
 C1614 C -0.02009 0.23839 0.71882
 H1615 H -0.02551 0.27351 0.73776
 H1616 H -0.05214 0.28532 0.74920
 H1617 H -0.03776 0.26857 0.79879
 H1618 H -0.01119 0.25671 0.78742
 H1619 H 0.00943 0.28967 0.75793
 H1620 H 0.03574 0.30077 0.77041
 H1621 H 0.02534 0.23828 0.76963
 H1622 H 0.00932 0.21165 0.73992
 H1623 H 0.03565 0.20033 0.72757
 H1624 H 0.05194 0.25148 0.71588
 H1625 H 0.02545 0.26288 0.72798
 H1626 H -0.02531 0.22774 0.76008
 H1627 H -0.05180 0.21564 0.74875
 H1628 H -0.03772 0.23250 0.69909
 H1629 H -0.01129 0.24466 0.71036
 H1630 H 0.05182 0.24944 0.78183
 C1631 C 0.49977 0.24343 0.24352
 C1632 C 0.49972 0.25643 0.25474
 C1633 C 0.48366 0.26337 0.26157
 C1634 C 0.51576 0.26315 0.26180
 C1635 C 0.51587 0.23655 0.23672
 C1636 C 0.48377 0.23664 0.23645
 C1637 C 0.47849 0.28002 0.25757
 C1638 C 0.46344 0.28665 0.26429
 C1639 C 0.45344 0.27668 0.27505
 C1640 C 0.45849 0.26000 0.27896
 C1641 C 0.47354 0.25337 0.27226
 C1642 C 0.52264 0.27854 0.25590
 C1643 C 0.53768 0.28492 0.26281
 C1644 C 0.54597 0.27595 0.27565
 C1645 C 0.53919 0.26052 0.28149
 C1646 C 0.52414 0.25414 0.27459
 C1647 C 0.52187 0.22051 0.24184
 C1648 C 0.53697 0.21397 0.23515
 C1649 C 0.54620 0.22345 0.22333
 C1650 C 0.54032 0.23955 0.21833
 C1651 C 0.52520 0.24607 0.22498
 C1652 C 0.47775 0.22053 0.24132
 C1653 C 0.46269 0.21411 0.23450
 C1654 C 0.45354 0.22373 0.22274
 C1655 C 0.45948 0.23985 0.21788
 C1656 C 0.47453 0.24628 0.22472
 H1657 H 0.48600 0.28783 0.24918
 H1658 H 0.45962 0.29955 0.26113
 H1659 H 0.45086 0.25215 0.28725
 H1660 H 0.47738 0.24049 0.27545
 H1661 H 0.51644 0.28555 0.24591
 H1662 H 0.54282 0.29685 0.25818
 H1663 H 0.51898 0.24224 0.27926
 H1664 H 0.51494 0.21310 0.25106
 H1665 H 0.54142 0.20153 0.23915
 H1666 H 0.54737 0.24701 0.20922
 H1667 H 0.52072 0.25849 0.22094
 H1668 H 0.48458 0.21300 0.25051
 H1669 H 0.45819 0.20165 0.23837
 H1670 H 0.45252 0.24739 0.20878
 H1671 H 0.47904 0.25874 0.22083
 H1672 H 0.54549 0.25348 0.29142
 C1673 C 1.00020 0.75675 0.74306
 C1674 C 1.00017 0.74485 0.75557
 C1675 C 1.01622 0.73762 0.76235
 C1676 C 0.98416 0.73838 0.76314
 C1677 C 0.98422 0.76322 0.73541
 C1678 C 1.01627 0.76398 0.73638
 C1679 C 1.02785 0.72917 0.75182
 C1680 C 1.04284 0.72232 0.75845
 C1681 C 1.04628 0.72379 0.77565
 C1682 C 1.03464 0.73204 0.78621
 C1683 C 1.01965 0.73884 0.77961
 C1684 C 0.98119 0.72072 0.76377
 C1685 C 0.96625 0.71437 0.77088
 C1686 C 0.95413 0.72560 0.77751
 C1687 C 0.95706 0.74323 0.77710
 C1688 C 0.97206 0.74960 0.77004
 C1689 C 0.98123 0.78088 0.73470
 C1690 C 0.96628 0.78722 0.72758
 C1691 C 0.95418 0.77598 0.72102
 C1692 C 0.95716 0.75835 0.72148
 C1693 C 0.97216 0.75199 0.72854
 C1694 C 1.02780 0.77243 0.74698
 C1695 C 1.04283 0.77925 0.74044
 C1696 C 1.04642 0.77778 0.72325
 C1697 C 1.03489 0.76953 0.71262
 C1698 C 1.01986 0.76274 0.71914
 H1699 H 1.02525 0.72779 0.73852
 H1700 H 1.05170 0.71584 0.75019
 H1701 H 1.03714 0.73319 0.79955
 H1702 H 1.01076 0.74519 0.78794
 H1703 H 0.99038 0.71186 0.75858
 H1704 H 0.96413 0.70071 0.77118
 H1705 H 0.97424 0.76325 0.76995
 H1706 H 0.99041 0.78976 0.73985
 H1707 H 0.96413 0.80088 0.72725
 H1708 H 0.94790 0.74953 0.71639
 H1709 H 0.97435 0.73834 0.72868
 H1710 H 1.02509 0.77380 0.76026
 H1711 H 1.05161 0.78571 0.74875
 H1712 H 1.03752 0.76836 0.69931
 H1713 H 1.01106 0.75638 0.71076
 H1714 H 0.94779 0.75203 0.78225
 C1715 C 0.50017 0.75672 0.24386
 C1716 C 0.50023 0.74380 0.25517
 C1717 C 0.51632 0.73705 0.26212
 C1718 C 0.48421 0.73699 0.26223
 C1719 C 0.48408 0.76360 0.23702
 C1720 C 0.51619 0.76346 0.23676
 C1721 C 0.52204 0.72068 0.25773
 C1722 C 0.53717 0.71429 0.26449
 C1723 C 0.54669 0.72421 0.27567
 C1724 C 0.54107 0.74060 0.28000
 C1725 C 0.52594 0.74699 0.27326
 C1726 C 0.47788 0.72116 0.25691
 C1727 C 0.46284 0.71471 0.26378
 C1728 C 0.45400 0.72403 0.27601
 C1729 C 0.46022 0.73990 0.28126
 C1730 C 0.47526 0.74636 0.27439
 C1731 C 0.47853 0.78001 0.24146
 C1732 C 0.46342 0.78653 0.23482
 C1733 C 0.45374 0.77670 0.22369
 C1734 C 0.45918 0.76027 0.21931
 C1735 C 0.47431 0.75375 0.22593
 C1736 C 0.52261 0.77925 0.24208
 C1737 C 0.53770 0.78560 0.23521
 C1738 C 0.54649 0.77621 0.22301
 C1739 C 0.54018 0.76039 0.21775
 C1740 C 0.52509 0.75403 0.22461
 H1741 H 0.51490 0.71291 0.24900
 H1742 H 0.54141 0.70161 0.26102
 H1743 H 0.54832 0.74839 0.28864
 H1744 H 0.52167 0.75965 0.27676
 H1745 H 0.48449 0.71387 0.24738
 H1746 H 0.45812 0.70244 0.25959
 H1747 H 0.47999 0.75862 0.27859
 H1748 H 0.48581 0.78773 0.25012
 H1749 H 0.45930 0.79925 0.23833
 H1750 H 0.45180 0.75255 0.21072
 H1751 H 0.47846 0.74107 0.22237
 H1752 H 0.51606 0.78658 0.25162
 H1753 H 0.54250 0.79783 0.23941
 H1754 H 0.54688 0.75300 0.20833
 H1755 H 0.52030 0.74179 0.22044
 H1756 H 0.45349 0.74722 0.29070
 C1757 C -0.00071 0.74435 0.24325
 C1758 C -0.00068 0.75611 0.25586
 C1759 C -0.01674 0.76331 0.26269
 C1760 C 0.01534 0.76241 0.26355
 C1761 C 0.01528 0.73782 0.23564
 C1762 C -0.01679 0.73727 0.23645
 C1763 C -0.02837 0.77181 0.25221
 C1764 C -0.04338 0.77859 0.25889
 C1765 C -0.04683 0.77702 0.27610
 C1766 C -0.03521 0.76869 0.28659
 C1767 C -0.02021 0.76192 0.27994
 C1768 C 0.01838 0.78006 0.26442
 C1769 C 0.03336 0.78623 0.27159
 C1770 C 0.04544 0.77485 0.27804
 C1771 C 0.04241 0.75724 0.27741
 C1772 C 0.02738 0.75105 0.27030
 C1773 C 0.01820 0.72015 0.23494
 C1774 C 0.03322 0.71377 0.22798
 C1775 C 0.04547 0.72496 0.22157
 C1776 C 0.04254 0.74261 0.22199
 C1777 C 0.02747 0.74901 0.22889
 C1778 C -0.02845 0.72881 0.24693
 C1779 C -0.04346 0.72210 0.24026
 C1780 C -0.04688 0.72368 0.22306
 C1781 C -0.03523 0.73195 0.21255
 C1782 C -0.02022 0.73864 0.21919
 H1783 H -0.02580 0.77324 0.23891
 H1784 H -0.05227 0.78507 0.25068
 H1785 H -0.03774 0.76740 0.29992
 H1786 H -0.01138 0.75543 0.28820
 H1787 H 0.00923 0.78904 0.25937
 H1788 H 0.03554 0.79987 0.27204
 H1789 H 0.02514 0.73741 0.27004
 H1790 H 0.00893 0.71131 0.23999
 H1791 H 0.03531 0.70010 0.22767
 H1792 H 0.05190 0.75139 0.21700
 H1793 H 0.02532 0.76267 0.22902
 H1794 H -0.02586 0.72732 0.26022
 H1795 H -0.05234 0.71561 0.24848
 H1796 H -0.03771 0.73319 0.19922
 H1797 H -0.01132 0.74501 0.21091
 H1798 H 0.05165 0.74832 0.28240
 C1799 C 0.49927 0.74472 0.74330
 C1800 C 0.49922 0.75669 0.75573
 C1801 C 0.48321 0.76319 0.76331
 C1802 C 0.51526 0.76392 0.76247
 C1803 C 0.51538 0.73759 0.73653
 C1804 C 0.48330 0.73806 0.73582
 C1805 C 0.48015 0.78085 0.76376
 C1806 C 0.46518 0.78723 0.77083
 C1807 C 0.45313 0.77604 0.77760
 C1808 C 0.45618 0.75842 0.77740
 C1809 C 0.47119 0.75201 0.77037
 C1810 C 0.52685 0.77239 0.75192
 C1811 C 0.54188 0.77914 0.75853
 C1812 C 0.54538 0.77758 0.77571
 C1813 C 0.53376 0.76935 0.78629
 C1814 C 0.51873 0.76265 0.77972
 C1815 C 0.52701 0.72916 0.74706
 C1816 C 0.54208 0.72244 0.74043
 C1817 C 0.54558 0.72399 0.72324
 C1818 C 0.53394 0.73221 0.71268
 C1819 C 0.51887 0.73889 0.71927
 C1820 C 0.48055 0.72036 0.73522
 C1821 C 0.46564 0.71383 0.72821
 C1822 C 0.45334 0.72491 0.72168
 C1823 C 0.45606 0.74258 0.72207
 C1824 C 0.47102 0.74913 0.72901
 H1825 H 0.48929 0.78968 0.75845
 H1826 H 0.46299 0.80088 0.77097
 H1827 H 0.44697 0.74965 0.78268
 H1828 H 0.47345 0.73837 0.77044
 H1829 H 0.52421 0.77383 0.73864
 H1830 H 0.55072 0.78562 0.75026
 H1831 H 0.50986 0.75631 0.78807
 H1832 H 0.52438 0.72772 0.76035
 H1833 H 0.55094 0.71597 0.74869
 H1834 H 0.53649 0.73344 0.69935
 H1835 H 0.50997 0.74521 0.71094
 H1836 H 0.48987 0.71160 0.74033
 H1837 H 0.46370 0.70015 0.72793
 H1838 H 0.44664 0.75127 0.71701
 H1839 H 0.47302 0.76281 0.72907
 H1840 H 0.53631 0.76813 0.79961
 C1841 C 0.39786 0.30233 0.30189
 C1842 C 0.41050 0.29641 0.29562
 C1843 C 0.42538 0.28951 0.28836
 C1844 C 0.43814 0.28365 0.28224
 C1845 C 0.39718 0.80183 0.80353
 C1846 C 0.40988 0.79569 0.79757
 C1847 C 0.42483 0.78860 0.79066
 C1848 C 0.43768 0.78274 0.78474
 C1849 C -0.10275 0.30325 0.80083
 C1850 C -0.09010 0.29736 0.79455
 C1851 C -0.07517 0.29048 0.78742
 C1852 C -0.06230 0.28464 0.78154
 C1853 C -0.10257 0.80274 0.30249
 C1854 C -0.08992 0.79680 0.29624
 C1855 C -0.07502 0.78991 0.28905
 C1856 C -0.06222 0.78404 0.28305
 C1857 C 0.60249 0.69902 0.30244
 C1858 C 0.58983 0.70497 0.29621
 C1859 C 0.57492 0.71178 0.28898
 C1860 C 0.56210 0.71749 0.28287
 C1861 C 0.60273 0.19899 0.80313
 C1862 C 0.59003 0.20512 0.79720
 C1863 C 0.57510 0.21220 0.79026
 C1864 C 0.56227 0.21807 0.78432
 C1865 C 1.10191 0.69784 0.80197
 C1866 C 1.08928 0.70378 0.79571
 C1867 C 1.07442 0.71074 0.78853
 C1868 C 1.06164 0.71668 0.78256
 C1869 C 1.10156 0.19806 0.30249
 C1870 C 1.08891 0.20393 0.29622
 C1871 C 1.07406 0.21078 0.28891
 C1872 C 1.06133 0.21658 0.28272
 C1873 C 0.60289 0.30181 0.69616
 C1874 C 0.59013 0.29570 0.70199
 C1875 C 0.57515 0.28859 0.70875
 C1876 C 0.56228 0.28267 0.71454
 C1877 C 0.60249 0.80141 0.19672
 C1878 C 0.58974 0.79546 0.20273
 C1879 C 0.57476 0.78862 0.20978
 C1880 C 0.56191 0.78290 0.21581
 C1881 C 1.10230 0.30152 0.19600
 C1882 C 1.08957 0.29548 0.20196
 C1883 C 1.07461 0.28855 0.20896
 C1884 C 1.06178 0.28276 0.21497
 C1885 C 1.10228 0.80361 0.69737
 C1886 C 1.08959 0.79769 0.70351
 C1887 C 1.07466 0.79076 0.71056
 C1888 C 1.06183 0.78485 0.71644
 C1889 C 0.39760 0.69859 0.69617
 C1890 C 0.41028 0.70484 0.70200
 C1891 C 0.42518 0.71206 0.70879
 C1892 C 0.43797 0.71806 0.71462
 C1893 C 0.39781 0.19809 0.19645
 C1894 C 0.41047 0.20417 0.20249
 C1895 C 0.42537 0.21115 0.20954
 C1896 C 0.43817 0.21697 0.21556
 C1897 C -0.10254 0.69767 0.19707
 C1898 C -0.08985 0.70365 0.20314
 C1899 C -0.07497 0.71065 0.21019
 C1900 C -0.06221 0.71660 0.21613
 C1901 C -0.10225 0.19699 0.69741
 C1902 C -0.08962 0.20301 0.70357
 C1903 C -0.07477 0.21008 0.71061
 C1904 C -0.06199 0.21612 0.71645
 C1905 C 0.30125 0.39785 0.30362
 C1906 C 0.29521 0.41063 0.29765
 C1907 C 0.28829 0.42565 0.29063
 C1908 C 0.28251 0.43855 0.28463
 C1909 C 0.30308 -0.10239 0.80324
 C1910 C 0.29714 -0.08959 0.79722
 C1911 C 0.29019 -0.07455 0.79026
 C1912 C 0.28430 -0.06166 0.78436
 C1913 C 0.80049 0.39741 0.80402
 C1914 C 0.79417 0.41012 0.79820
 C1915 C 0.78701 0.42516 0.79147
 C1916 C 0.78118 0.43813 0.78571
 C1917 C 0.80184 -0.10209 0.30352
 C1918 C 0.79579 -0.08943 0.29732
 C1919 C 0.78883 -0.07452 0.29010
 C1920 C 0.78299 -0.06173 0.28395
 C1921 C 0.30253 0.60176 0.69834
 C1922 C 0.29663 0.58910 0.70466
 C1923 C 0.28972 0.57423 0.71197
 C1924 C 0.28382 0.56149 0.71813
 C1925 C 0.30246 1.10162 0.19859
 C1926 C 0.29651 1.08900 0.20493
 C1927 C 0.28956 1.07414 0.21223
 C1928 C 0.28363 1.06137 0.21832
 C1929 C 0.80169 0.60177 0.19781
 C1930 C 0.79574 0.58906 0.20397
 C1931 C 0.78880 0.57414 0.21114
 C1932 C 0.78293 0.56135 0.21722
 C1933 C 0.80111 1.10192 0.69695
 C1934 C 0.79505 1.08928 0.70316
 C1935 C 0.78810 1.07440 0.71041
 C1936 C 0.78229 1.06162 0.71658
 C1937 C 0.69733 0.60171 0.30385
 C1938 C 0.70343 0.58908 0.29764
 C1939 C 0.71042 0.57421 0.29042
 C1940 C 0.71627 0.56141 0.28429
 C1941 C 0.69743 1.10261 0.80278
 C1942 C 0.70332 1.08981 0.79674
 C1943 C 0.71020 1.07476 0.78974
 C1944 C 0.71602 1.06186 0.78382
 C1945 C 0.19804 0.60207 0.80391
 C1946 C 0.20412 0.58938 0.79779
 C1947 C 0.21111 0.57445 0.79065
 C1948 C 0.21698 0.56164 0.78459
 C1949 C 0.19794 1.10249 0.30345
 C1950 C 0.20391 1.08974 0.29736
 C1951 C 0.21081 1.07478 0.29022
 C1952 C 0.21659 1.06193 0.28413
 C1953 C 0.69905 0.39785 0.69681
 C1954 C 0.70510 0.41063 0.70271
 C1955 C 0.71214 0.42564 0.70956
 C1956 C 0.71800 0.43853 0.71542
 C1957 C 0.69797 -0.10236 0.19884
 C1958 C 0.70374 -0.08960 0.20505
 C1959 C 0.71048 -0.07460 0.21222
 C1960 C 0.71624 -0.06172 0.21822
 C1961 C 0.19729 0.39835 0.19796
 C1962 C 0.20319 0.41100 0.20428
 C1963 C 0.21006 0.42588 0.21157
 C1964 C 0.21590 0.43866 0.21770
 C1965 C 0.19922 -0.10175 0.69707
 C1966 C 0.20524 -0.08910 0.70327
 C1967 C 0.21212 -0.07421 0.71047
 C1968 C 0.21787 -0.06140 0.71660
 C1969 C 0.30329 0.30127 0.39898
 C1970 C 0.29742 0.29519 0.41162
 C1971 C 0.29053 0.28818 0.42646
 C1972 C 0.28463 0.28231 0.43919
 C1973 C 0.30217 0.80230 -0.10123
 C1974 C 0.29621 0.79628 -0.08859
 C1975 C 0.28930 0.78925 -0.07376
 C1976 C 0.28346 0.78329 -0.06103
 C1977 C 0.80347 0.30137 -0.10151
 C1978 C 0.79763 0.29527 -0.08886
 C1979 C 0.79070 0.28830 -0.07401
 C1980 C 0.78474 0.28250 -0.06128
 C1981 C 0.80184 0.80229 0.39866
 C1982 C 0.79573 0.79627 0.41122
 C1983 C 0.78856 0.78931 0.42597
 C1984 C 0.78251 0.78345 0.43864
 C1985 C 0.69868 0.30247 0.60055
 C1986 C 0.70473 0.29647 0.58795
 C1987 C 0.71181 0.28948 0.57318
 C1988 C 0.71784 0.28354 0.56054
 C1989 C 0.69857 0.80343 1.10119
 C1990 C 0.70457 0.79751 1.08853
 C1991 C 0.71142 0.79053 1.07366
 C1992 C 0.71713 0.78451 1.06090
 C1993 C 0.19919 0.30306 1.10133
 C1994 C 0.20534 0.29709 1.08876
 C1995 C 0.21241 0.29011 1.07398
 C1996 C 0.21827 0.28416 1.06127
 C1997 C 0.19794 0.80198 0.60138
 C1998 C 0.20393 0.79590 0.58879
 C1999 C 0.21093 0.78891 0.57397
 C2000 C 0.21686 0.78306 0.56124
 C2001 C 0.30140 0.69665 0.60116
 C2002 C 0.29530 0.70262 0.58858
 C2003 C 0.28824 0.70962 0.57381
 C2004 C 0.28229 0.71558 0.56114
 C2005 C 0.30148 0.19635 1.10131
 C2006 C 0.29553 0.20226 1.08863
 C2007 C 0.28876 0.20923 1.07371
 C2008 C 0.28312 0.21523 1.06092
 C2009 C 0.80174 0.69722 1.10135
 C2010 C 0.79569 0.70318 1.08874
 C2011 C 0.78866 0.71009 1.07391
 C2012 C 0.78273 0.71594 1.06119
 C2013 C 0.80300 0.19782 0.60080
 C2014 C 0.79709 0.20384 0.58815
 C2015 C 0.79015 0.21074 0.57327
 C2016 C 0.78422 0.21651 0.56051
 C2017 C 0.69695 0.69688 0.39965
 C2018 C 0.70326 0.70297 0.41206
 C2019 C 0.71060 0.71007 0.42664
 C2020 C 0.71678 0.71609 0.43915
 C2021 C 0.69824 0.19692 -0.10107
 C2022 C 0.70437 0.20285 -0.08850
 C2023 C 0.71153 0.20977 -0.07375
 C2024 C 0.71761 0.21564 -0.06112
 C2025 C 0.19685 0.69957 -0.10149
 C2026 C 0.20275 0.70570 -0.08889
 C2027 C 0.20965 0.71275 -0.07408
 C2028 C 0.21555 0.71865 -0.06137
 C2029 C 0.19657 0.19885 0.39895
 C2030 C 0.20257 0.20485 0.41156
 C2031 C 0.20966 0.21170 0.42637
 C2032 C 0.21574 0.21740 0.43907
 C2033 C 0.30169 0.39782 0.69749
 C2034 C 0.29564 0.41044 0.70375
 C2035 C 0.28869 0.42529 0.71105
 C2036 C 0.28288 0.43807 0.71725
 C2037 C 0.30151 0.89782 0.19736
 C2038 C 0.29543 0.91043 0.20363
 C2039 C 0.28844 0.92525 0.21097
 C2040 C 0.28257 0.93799 0.21719
 C2041 C 0.80155 0.39767 0.19756
 C2042 C 0.79553 0.41029 0.20389
 C2043 C 0.78858 0.42514 0.21125
 C2044 C 0.78272 0.43789 0.21746
 C2045 C 0.80237 0.89804 0.69812
 C2046 C 0.79643 0.91068 0.70446
 C2047 C 0.78945 0.92552 0.71178
 C2048 C 0.78347 0.93825 0.71791
 C2049 C 0.69769 0.60256 0.69770
 C2050 C 0.70367 0.58986 0.70387
 C2051 C 0.71061 0.57493 0.71101
 C2052 C 0.71649 0.56209 0.71699
 C2053 C 0.69813 0.10224 0.19702
 C2054 C 0.70413 0.08958 0.20327
 C2055 C 0.71107 0.07473 0.21059
 C2056 C 0.71689 0.06198 0.21681
 C2057 C 0.19736 0.60256 0.19813
 C2058 C 0.20328 0.58988 0.20443
 C2059 C 0.21017 0.57497 0.21172
 C2060 C 0.21603 0.56217 0.21785
 C2061 C 0.19709 0.10208 0.69913
 C2062 C 0.20305 0.08946 0.70549
 C2063 C 0.21010 0.07462 0.71277
 C2064 C 0.21617 0.06189 0.71882
 C2065 C 0.30250 0.60277 0.30214
 C2066 C 0.29651 0.59009 0.29596
 C2067 C 0.28949 0.57520 0.28885
 C2068 C 0.28351 0.56240 0.28290
 C2069 C 0.30208 0.10255 0.80330
 C2070 C 0.29600 0.08989 0.79718
 C2071 C 0.28903 0.07499 0.79001
 C2072 C 0.28321 0.06219 0.78393
 C2073 C 0.80359 0.60246 0.80187
 C2074 C 0.79766 0.58972 0.79576
 C2075 C 0.79067 0.57474 0.78878
 C2076 C 0.78466 0.56189 0.78297
 C2077 C 0.80406 0.10145 0.30321
 C2078 C 0.79776 0.08904 0.29680
 C2079 C 0.79048 0.07435 0.28950
 C2080 C 0.78436 0.06168 0.28343
 C2081 C 0.69704 0.39720 0.30251
 C2082 C 0.70300 0.40989 0.29632
 C2083 C 0.70994 0.42482 0.28917
 C2084 C 0.71583 0.43764 0.28316
 C2085 C 0.69795 0.89770 0.80374
 C2086 C 0.70400 0.91035 0.79754
 C2087 C 0.71094 0.92521 0.79027
 C2088 C 0.71676 0.93798 0.78409
 C2089 C 0.19735 0.39730 0.80291
 C2090 C 0.20333 0.41006 0.79686
 C2091 C 0.21032 0.42503 0.78984
 C2092 C 0.21626 0.43786 0.78389
 C2093 C 0.19656 0.89720 0.30214
 C2094 C 0.20244 0.90996 0.29602
 C2095 C 0.20936 0.92497 0.28900
 C2096 C 0.21525 0.93785 0.28312
 C2097 C 0.39846 0.30267 0.69715
 C2098 C 0.41116 0.29673 0.70327
 C2099 C 0.42611 0.28982 0.71031
 C2100 C 0.43897 0.28397 0.71620
 C2101 C 0.39806 0.80234 0.19718
 C2102 C 0.41072 0.79638 0.20335
 C2103 C 0.42560 0.78945 0.21053
 C2104 C 0.43838 0.78359 0.21658
 C2105 C 0.89820 0.30236 0.19642
 C2106 C 0.91086 0.29637 0.20260
 C2107 C 0.92573 0.28943 0.20982
 C2108 C 0.93847 0.28355 0.21592
 C2109 C 0.89806 0.80160 0.69545
 C2110 C 0.91083 0.79548 0.70125
 C2111 C 0.92585 0.78845 0.70803
 C2112 C 0.93873 0.78263 0.71390
 C2113 C 0.60165 0.30095 0.30262
 C2114 C 0.58898 0.29509 0.29641
 C2115 C 0.57408 0.28834 0.28913
 C2116 C 0.56130 0.28266 0.28295
 C2117 C 0.60117 0.80298 0.80198
 C2118 C 0.58851 0.79716 0.79573
 C2119 C 0.57361 0.79035 0.78855
 C2120 C 0.56079 0.78453 0.78259
 C2121 C 0.10155 0.30117 0.80308
 C2122 C 0.08883 0.29519 0.79707
 C2123 C 0.07388 0.28827 0.79007
 C2124 C 0.06105 0.28250 0.78408
 C2125 C 0.10153 0.80023 0.30381
 C2126 C 0.08879 0.79412 0.29797
 C2127 C 0.07380 0.78711 0.29113
 C2128 C 0.06092 0.78136 0.28523
 C2129 C 0.60150 0.69826 0.69723
 C2130 C 0.58879 0.70420 0.70334
 C2131 C 0.57384 0.71112 0.71041
 C2132 C 0.56101 0.71700 0.71634
 C2133 C 0.60191 0.19797 0.19664
 C2134 C 0.58921 0.20388 0.20282
 C2135 C 0.57431 0.21074 0.21004
 C2136 C 0.56153 0.21656 0.21615
 C2137 C 0.10170 0.69916 0.19626
 C2138 C 0.08893 0.70530 0.20208
 C2139 C 0.07391 0.71239 0.20883
 C2140 C 0.06099 0.71826 0.21461
 C2141 C 0.10170 0.19893 0.69567
 C2142 C 0.08897 0.20519 0.70144
 C2143 C 0.07399 0.21239 0.70818
 C2144 C 0.06112 0.21834 0.71396
 C2145 C 0.39829 0.69873 0.30280
 C2146 C 0.41099 0.70465 0.29664
 C2147 C 0.42589 0.71149 0.28942
 C2148 C 0.43867 0.71724 0.28328
 C2149 C 0.39879 0.19738 0.80118
 C2150 C 0.41146 0.20326 0.79495
 C2151 C 0.42636 0.21015 0.78780
 C2152 C 0.43917 0.21604 0.78186
 C2153 C 0.89838 0.69960 0.80344
 C2154 C 0.91103 0.70585 0.79753
 C2155 C 0.92592 0.71301 0.79064
 C2156 C 0.93873 0.71892 0.78470
 C2157 C 0.89830 0.19779 0.30178
 C2158 C 0.91079 0.20395 0.29542
 C2159 C 0.92553 0.21105 0.28810
 C2160 C 0.93822 0.21700 0.28195
 C2161 C 0.30248 0.30200 0.60148
 C2162 C 0.29642 0.29611 0.58885
 C2163 C 0.28937 0.28933 0.57398
 C2164 C 0.28346 0.28357 0.56122
 C2165 C 0.30297 0.80239 0.10082
 C2166 C 0.29695 0.79625 0.08829
 C2167 C 0.28991 0.78910 0.07359
 C2168 C 0.28394 0.78307 0.06098
 C2169 C 0.80245 0.30249 0.10074
 C2170 C 0.79643 0.29643 0.08819
 C2171 C 0.78943 0.28935 0.07345
 C2172 C 0.78350 0.28336 0.06081
 C2173 C 0.80138 0.80327 0.60089
 C2174 C 0.79532 0.79728 0.58831
 C2175 C 0.78833 0.79027 0.57353
 C2176 C 0.78243 0.78431 0.56085
 C2177 C 0.30267 0.69783 0.39891
 C2178 C 0.29650 0.70373 0.41150
 C2179 C 0.28930 0.71053 0.42630
 C2180 C 0.28320 0.71628 0.43900
 C2181 C 0.30480 0.19954 0.89852
 C2182 C 0.29906 0.20573 0.91117
 C2183 C 0.29230 0.21278 0.92606
 C2184 C 0.28644 0.21856 0.93885
 C2185 C 0.80245 0.69758 0.89875
 C2186 C 0.79653 0.70358 0.91141
 C2187 C 0.78970 0.71059 0.92629
 C2188 C 0.78391 0.71650 0.93905
 C2189 C 0.80284 0.19709 0.39833
 C2190 C 0.79654 0.20320 0.41077
 C2191 C 0.78929 0.21023 0.42545
 C2192 C 0.78321 0.21615 0.43808
 C2193 C 0.69725 0.30142 0.39865
 C2194 C 0.70345 0.29550 0.41121
 C2195 C 0.71070 0.28869 0.42599
 C2196 C 0.71684 0.28297 0.43867
 C2197 C 0.69566 0.80026 0.89870
 C2198 C 0.70144 0.79401 0.91131
 C2199 C 0.70822 0.78691 0.92617
 C2200 C 0.71406 0.78108 0.93894
 C2201 C 0.19655 0.30163 0.89930
 C2202 C 0.20243 0.29555 0.91193
 C2203 C 0.20933 0.28850 0.92675
 C2204 C 0.21529 0.28261 0.93944
 C2205 C 0.19743 0.80239 0.39919
 C2206 C 0.20356 0.79649 0.41178
 C2207 C 0.21070 0.78956 0.42654
 C2208 C 0.21676 0.78365 0.43917
 C2209 C 0.69766 0.69854 0.60164
 C2210 C 0.70365 0.70449 0.58899
 C2211 C 0.71060 0.71133 0.57408
 C2212 C 0.71648 0.71706 0.56127
 C2213 C 0.69774 0.19772 0.10061
 C2214 C 0.70393 0.20367 0.08805
 C2215 C 0.71119 0.21054 0.07330
 C2216 C 0.71736 0.21632 0.06065
 C2217 C 0.19761 0.69740 0.10082
 C2218 C 0.20356 0.70344 0.08819
 C2219 C 0.21041 0.71057 0.07338
 C2220 C 0.21619 0.71667 0.06069
 C2221 C 0.19891 0.19599 0.60128
 C2222 C 0.20507 0.20173 0.58862
 C2223 C 0.21215 0.20849 0.57374
 C2224 C 0.21803 0.21431 0.56098
   
