data_POSCAR
  _audit_creation_date              2014-09-24
  _audit_creation_method            'ToBaCCo'
  _symmetry_space_group_name_H-M    'P1'
  _symmetry_Int_Tables_number       1
  _symmetry_cell_setting            triclinic
  loop_
  _symmetry_equiv_pos_as_xyz
 x,y,z
_cell_length_a 57.3178
_cell_length_b 57.2397
_cell_length_c 57.2260
_cell_angle_alpha 90.074100
_cell_angle_beta 90.014500
_cell_angle_gamma 89.992000
loop_
  _atom_site_label
  _atom_site_type_symbol
  _atom_site_fract_x
  _atom_site_fract_y
  _atom_site_fract_z
C1 C 0.26717 0.36917 -0.01214
 C2 C 0.26728 0.36919 0.01181
 C3 C 0.28687 0.35674 0.01865
 N4 N 0.29878 0.34926 -0.00033
 C5 C 0.28674 0.35673 -0.01921
 C6 C 0.29438 0.35413 0.04200
 C7 C 0.31326 0.33985 0.04889
 C8 C 0.32348 0.34014 0.07087
 C9 C 0.34046 0.32314 0.07082
 C10 C 0.34015 0.31293 0.04882
 N11 N 0.32335 0.32305 0.03567
 C12 C 0.35441 0.29405 0.04185
 C13 C 0.35705 0.28662 0.01846
 C14 C 0.36953 0.26706 0.01152
 C15 C 0.36953 0.26704 -0.01243
 C16 C 0.35704 0.28662 -0.01940
 N17 N 0.34955 0.29859 -0.00046
 C18 C 0.35442 0.29409 -0.04280
 C19 C 0.34011 0.31303 -0.04967
 C20 C 0.34042 0.32337 -0.07161
 C21 C 0.32340 0.34031 -0.07157
 C22 C 0.31311 0.33990 -0.04961
 N23 N 0.32326 0.32307 -0.03649
 C24 C 0.29413 0.35411 -0.04265
 H25 H 0.25436 0.37770 -0.02312
 H26 H 0.25457 0.37771 0.02291
 H27 H 0.31738 0.31713 -0.02040
 H28 H 0.31911 0.35136 0.08546
 H29 H 0.35169 0.31874 0.08538
 H30 H 0.37809 0.25432 0.02256
 H31 H 0.37809 0.25428 -0.02347
 H32 H 0.31903 0.35157 -0.08610
 H33 H 0.31748 0.31719 0.01954
 H34 H 0.35167 0.31908 -0.08618
 C35 C 0.73387 0.63111 -0.01220
 C36 C 0.73378 0.63108 0.01176
 C37 C 0.71424 0.64361 0.01865
 N38 N 0.70236 0.65116 -0.00031
 C39 C 0.71435 0.64365 -0.01922
 C40 C 0.70676 0.64623 0.04201
 C41 C 0.68792 0.66055 0.04896
 C42 C 0.67770 0.66024 0.07093
 C43 C 0.66073 0.67725 0.07096
 C44 C 0.66105 0.68749 0.04900
 N45 N 0.67784 0.67739 0.03581
 C46 C 0.64674 0.70635 0.04208
 C47 C 0.64407 0.71378 0.01872
 C48 C 0.63143 0.73325 0.01181
 C49 C 0.63145 0.73326 -0.01216
 C50 C 0.64410 0.71380 -0.01912
 N51 N 0.65168 0.70188 -0.00022
 C52 C 0.64680 0.70640 -0.04250
 C53 C 0.66113 0.68755 -0.04948
 C54 C 0.66081 0.67736 -0.07148
 C55 C 0.67779 0.66038 -0.07154
 C56 C 0.68806 0.66065 -0.04956
 N57 N 0.67795 0.67744 -0.03634
 C58 C 0.70697 0.64633 -0.04265
 H59 H 0.74662 0.62252 -0.02320
 H60 H 0.74645 0.62248 0.02283
 H61 H 0.68380 0.68330 -0.02020
 H62 H 0.68205 0.64898 0.08548
 H63 H 0.64949 0.68161 0.08552
 H64 H 0.62277 0.74592 0.02286
 H65 H 0.62280 0.74594 -0.02319
 H66 H 0.68215 0.64917 -0.08615
 H67 H 0.68371 0.68325 0.01970
 H68 H 0.64956 0.68174 -0.08603
 C69 C 0.63121 0.26710 0.98797
 C70 C 0.63126 0.26706 1.01193
 C71 C 0.64388 0.28652 1.01891
 N72 N 0.65142 0.29849 1.00002
 C73 C 0.64382 0.28660 0.98107
 C74 C 0.64660 0.29390 1.04231
 C75 C 0.66087 0.31277 1.04930
 C76 C 0.66054 0.32294 1.07131
 C77 C 0.67747 0.33997 1.07139
 C78 C 0.68773 0.33975 1.04940
 N79 N 0.67765 0.32295 1.03616
 C80 C 0.70659 0.35412 1.04250
 C81 C 0.71397 0.35684 1.01908
 C82 C 0.73345 0.36943 1.01208
 C83 C 0.73337 0.36946 0.98812
 C84 C 0.71387 0.35688 0.98121
 N85 N 0.70199 0.34931 1.00016
 C86 C 0.70641 0.35423 0.95784
 C87 C 0.68759 0.33989 0.95088
 C88 C 0.67738 0.34019 0.92889
 C89 C 0.66044 0.32316 0.92885
 C90 C 0.66076 0.31293 0.95082
 N91 N 0.67753 0.32305 0.96402
 C92 C 0.64647 0.29405 0.95772
 H93 H 0.62256 0.25444 0.97689
 H94 H 0.62264 0.25435 1.02294
 H95 H 0.68340 0.31720 0.98014
 H96 H 0.64932 0.31851 1.08586
 H97 H 0.68181 0.35117 1.08601
 H98 H 0.74618 0.37804 1.02310
 H99 H 0.74602 0.37809 0.97706
 H100 H 0.64922 0.31879 0.91428
 H101 H 0.68351 0.31712 1.02002
 H102 H 0.68173 0.35145 0.91435
 C103 C 0.26709 0.63056 0.98852
 C104 C 0.26706 0.63061 1.01248
 C105 C 0.28667 0.64304 1.01947
 N106 N 0.29866 0.65046 1.00055
 C107 C 0.28668 0.64297 0.98161
 C108 C 0.29415 0.64567 1.04288
 C109 C 0.31316 0.65987 1.04977
 C110 C 0.32352 0.65949 1.07170
 C111 C 0.34055 0.67641 1.07168
 C112 C 0.34017 0.68673 1.04973
 N113 N 0.32328 0.67668 1.03660
 C114 C 0.35446 0.70565 1.04279
 C115 C 0.35701 0.71310 1.01938
 C116 C 0.36946 0.73268 1.01235
 C117 C 0.36939 0.73262 0.98839
 C118 C 0.35689 0.71303 0.98152
 N119 N 0.34946 0.70109 1.00048
 C120 C 0.35419 0.70556 0.95815
 C121 C 0.33992 0.68666 0.95125
 C122 C 0.34018 0.67640 0.92928
 C123 C 0.32319 0.65942 0.92930
 C124 C 0.31301 0.65977 0.95129
 N125 N 0.32314 0.67659 0.96445
 C126 C 0.29412 0.64554 0.95824
 H127 H 0.25434 0.62203 0.97746
 H128 H 0.25428 0.62212 1.02350
 H129 H 0.31731 0.68250 0.98058
 H130 H 0.31919 0.64824 1.08626
 H131 H 0.35185 0.68072 1.08621
 H132 H 0.37804 0.74546 1.02334
 H133 H 0.37789 0.74534 0.97731
 H134 H 0.31878 0.64816 0.91474
 H135 H 0.31736 0.68260 1.02052
 H136 H 0.35139 0.68075 0.91469
 C137 C -0.01209 0.37802 0.27406
 C138 C 0.01177 0.37723 0.27328
 C139 C 0.01872 0.36054 0.28941
 N140 N -0.00019 0.35110 0.29988
 C141 C -0.01910 0.36173 0.29060
 C142 C 0.04223 0.35524 0.29473
 C143 C 0.04959 0.33888 0.31175
 C144 C 0.07249 0.33639 0.31923
 C145 C 0.07252 0.31944 0.33619
 C146 C 0.04964 0.31193 0.33870
 N147 N 0.03586 0.32355 0.32340
 C148 C 0.04234 0.29490 0.35507
 C149 C 0.01885 0.28952 0.36040
 C150 C 0.01197 0.27338 0.37710
 C151 C -0.01189 0.27409 0.37791
 C152 C -0.01897 0.29061 0.36162
 N153 N -0.00010 0.29994 0.35097
 C154 C -0.04253 0.29630 0.35671
 C155 C -0.04991 0.31257 0.33954
 C156 C -0.07294 0.31569 0.33266
 C157 C -0.07297 0.33267 0.31573
 C158 C -0.04996 0.33959 0.31259
 N159 N -0.03609 0.32745 0.32743
 C160 C -0.04265 0.35680 0.29635
 H161 H -0.02303 0.38930 0.26355
 H162 H 0.02273 0.38793 0.26223
 H163 H -0.01855 0.33045 0.33040
 H164 H 0.08762 0.34607 0.31337
 H165 H 0.08768 0.31359 0.34584
 H166 H 0.02298 0.26237 0.38781
 H167 H -0.02278 0.26357 0.38920
 H168 H -0.08824 0.33903 0.30659
 H169 H 0.01846 0.32012 0.31999
 H170 H -0.08818 0.30651 0.33902
 C171 C 0.01198 0.73266 0.63115
 C172 C -0.01195 0.73275 0.63118
 C173 C -0.01893 0.71330 0.64381
 N174 N -0.00008 0.70132 0.65137
 C175 C 0.01885 0.71317 0.64377
 C176 C -0.04229 0.70598 0.64651
 C177 C -0.04928 0.68713 0.66080
 C178 C -0.07126 0.67699 0.66045
 C179 C -0.07135 0.65998 0.67740
 C180 C -0.04940 0.66017 0.68769
 N181 N -0.03617 0.67695 0.67761
 C182 C -0.04252 0.64581 0.70659
 C183 C -0.01913 0.64308 0.71401
 C184 C -0.01215 0.63053 0.73355
 C185 C 0.01177 0.63046 0.73349
 C186 C 0.01867 0.64298 0.71395
 N187 N -0.00023 0.65056 0.70203
 C188 C 0.04201 0.64558 0.70651
 C189 C 0.04898 0.65988 0.68766
 C190 C 0.07093 0.65955 0.67746
 C191 C 0.07098 0.67655 0.66048
 C192 C 0.04905 0.68681 0.66077
 N193 N 0.03586 0.67672 0.67756
 C194 C 0.04217 0.70568 0.64645
 H195 H 0.02303 0.74531 0.62250
 H196 H -0.02294 0.74547 0.62254
 H197 H 0.01976 0.68260 0.68341
 H198 H -0.08578 0.68144 0.64919
 H199 H -0.08595 0.64881 0.68173
 H200 H -0.02316 0.62197 0.74630
 H201 H 0.02280 0.62186 0.74620
 H202 H 0.08554 0.68090 0.64926
 H203 H -0.02006 0.68275 0.68350
 H204 H 0.08546 0.64828 0.68185
 C205 C 1.01246 0.73304 0.36894
 C206 C 0.98855 0.73308 0.36896
 C207 C 0.98159 0.71350 0.35649
 N208 N 1.00046 0.70147 0.34897
 C209 C 1.01939 0.71341 0.35645
 C210 C 0.95823 0.70611 0.35388
 C211 C 0.95126 0.68720 0.33962
 C212 C 0.92929 0.67703 0.33997
 C213 C 0.92923 0.65998 0.32299
 C214 C 0.95116 0.66021 0.31273
 N215 N 0.96437 0.67702 0.32280
 C216 C 0.95801 0.64587 0.29384
 C217 C 0.98132 0.64316 0.28633
 C218 C 0.98812 0.63059 0.26674
 C219 C 1.01204 0.63054 0.26663
 C220 C 1.01912 0.64306 0.28618
 N221 N 1.00029 0.65064 0.29822
 C222 C 1.04252 0.64565 0.29357
 C223 C 1.04949 0.65992 0.31255
 C224 C 1.07142 0.65950 0.32286
 C225 C 1.07147 0.67649 0.33987
 C226 C 1.04958 0.68687 0.33953
 N227 N 1.03640 0.67681 0.32267
 C228 C 1.04274 0.70587 0.35382
 H229 H 1.02351 0.74579 0.37749
 H230 H 0.97755 0.74586 0.37752
 H231 H 1.02034 0.68277 0.31677
 H232 H 0.91477 0.68147 0.35122
 H233 H 0.91466 0.64877 0.31864
 H234 H 0.97701 0.62203 0.25405
 H235 H 1.02298 0.62191 0.25384
 H236 H 1.08603 0.68078 0.35114
 H237 H 0.98047 0.68283 0.31690
 H238 H 1.08592 0.64819 0.31851
 C239 C 1.01183 0.36906 0.73350
 C240 C 0.98792 0.36905 0.73336
 C241 C 0.98111 0.35653 0.71374
 N242 N 1.00007 0.34903 0.70187
 C243 C 1.01891 0.35655 0.71395
 C244 C 0.95780 0.35388 0.70620
 C245 C 0.95091 0.33956 0.68730
 C246 C 0.92897 0.33982 0.67706
 C247 C 0.92900 0.32280 0.66006
 C248 C 0.95096 0.31261 0.66037
 N249 N 0.96409 0.32275 0.67721
 C250 C 0.95792 0.29375 0.64603
 C251 C 0.98128 0.28636 0.64338
 C252 C 0.98825 0.26690 0.63072
 C253 C 1.01218 0.26690 0.63081
 C254 C 1.01906 0.28637 0.64351
 N255 N 1.00014 0.29829 0.65105
 C256 C 1.04239 0.29379 0.64630
 C257 C 1.04929 0.31265 0.66067
 C258 C 1.07125 0.32285 0.66041
 C259 C 1.07125 0.33983 0.67744
 C260 C 1.04928 0.33957 0.68767
 N261 N 1.03612 0.32277 0.67749
 C262 C 1.04233 0.35389 0.70661
 H263 H 1.02278 0.37763 0.74633
 H264 H 0.97682 0.37761 0.74605
 H265 H 1.02001 0.31691 0.68330
 H266 H 0.91441 0.35104 0.68144
 H267 H 0.91447 0.31840 0.64880
 H268 H 0.97726 0.25421 0.62201
 H269 H 1.02324 0.25422 0.62217
 H270 H 1.08581 0.35105 0.68184
 H271 H 0.98020 0.31691 0.68310
 H272 H 1.08579 0.31846 0.64918
 C273 C 0.36903 -0.01282 0.26602
 C274 C 0.36903 0.01113 0.26609
 C275 C 0.35648 0.01802 0.28564
 N276 N 0.34896 -0.00092 0.29755
 C277 C 0.35649 -0.01983 0.28555
 C278 C 0.35383 0.04139 0.29311
 C279 C 0.33953 0.04833 0.31199
 C280 C 0.33984 0.07031 0.32224
 C281 C 0.32286 0.07032 0.33924
 C282 C 0.31264 0.04835 0.33890
 N283 N 0.32273 0.03517 0.32207
 C284 C 0.29380 0.04143 0.35321
 C285 C 0.28635 0.01808 0.35584
 C286 C 0.26688 0.01116 0.36844
 C287 C 0.26684 -0.01280 0.36838
 C288 C 0.28629 -0.01976 0.35574
 N289 N 0.29824 -0.00085 0.34822
 C290 C 0.29367 -0.04313 0.35303
 C291 C 0.31253 -0.05010 0.33873
 C292 C 0.32271 -0.07208 0.33906
 C293 C 0.33972 -0.07213 0.32211
 C294 C 0.33949 -0.05016 0.31185
 N295 N 0.32268 -0.03695 0.32193
 C296 C 0.35384 -0.04325 0.29296
 H297 H 0.37763 -0.02383 0.25326
 H298 H 0.37761 0.02219 0.25340
 H299 H 0.31685 -0.02083 0.31606
 H300 H 0.35108 0.08486 0.31789
 H301 H 0.31850 0.08489 0.35050
 H302 H 0.25422 0.02221 0.37711
 H303 H 0.25414 -0.02383 0.37699
 H304 H 0.35093 -0.08673 0.31778
 H305 H 0.31688 0.01905 0.31618
 H306 H 0.31830 -0.08662 0.35030
 C307 C 0.73293 0.01202 0.63033
 C308 C 0.73300 -0.01193 0.63029
 C309 C 0.71346 -0.01897 0.64277
 N310 N 0.70145 -0.00007 0.65030
 C311 C 0.71336 0.01889 0.64284
 C312 C 0.70608 -0.04240 0.64539
 C313 C 0.68717 -0.04933 0.65969
 C314 C 0.67693 -0.07132 0.65941
 C315 C 0.65995 -0.07129 0.67639
 C316 C 0.66024 -0.04930 0.68660
 N317 N 0.67703 -0.03614 0.67649
 C318 C 0.64591 -0.04236 0.70546
 C319 C 0.64315 -0.01898 0.71286
 C320 C 0.63048 -0.01205 0.73232
 C321 C 0.63041 0.01191 0.73232
 C322 C 0.64305 0.01885 0.71286
 N323 N 0.65070 -0.00006 0.70095
 C324 C 0.64572 0.04223 0.70548
 C325 C 0.66008 0.04918 0.68667
 C326 C 0.65983 0.07117 0.67650
 C327 C 0.67684 0.07117 0.65954
 C328 C 0.68703 0.04918 0.65980
 N329 N 0.67688 0.03600 0.67656
 C330 C 0.70590 0.04225 0.64552
 H331 H 0.74563 0.02310 0.62181
 H332 H 0.74578 -0.02291 0.62172
 H333 H 0.68271 0.01986 0.68238
 H334 H 0.68131 -0.08592 0.64818
 H335 H 0.64872 -0.08585 0.68076
 H336 H 0.62185 -0.02309 0.74500
 H337 H 0.62173 0.02295 0.74500
 H338 H 0.68126 0.08575 0.64836
 H339 H 0.68286 -0.02000 0.68236
 H340 H 0.64861 0.08574 0.68090
 C341 C 0.26631 0.98776 0.63075
 C342 C 0.26627 1.01171 0.63066
 C343 C 0.28577 1.01878 0.64322
 N344 N 0.29772 0.99990 0.65085
 C345 C 0.28581 0.98093 0.64336
 C346 C 0.29318 1.04221 0.64582
 C347 C 0.31204 1.04918 0.66019
 C348 C 0.32232 1.07115 0.65990
 C349 C 0.33923 1.07118 0.67696
 C350 C 0.33886 1.04924 0.68722
 N351 N 0.32208 1.03605 0.67708
 C352 C 0.35311 1.04236 0.70615
 C353 C 0.35580 1.01902 0.71362
 C354 C 0.36839 1.01215 0.73314
 C355 C 0.36844 0.98819 0.73317
 C356 C 0.35586 0.98119 0.71368
 N357 N 0.34827 1.00006 0.70171
 C358 C 0.35322 0.95779 0.70630
 C359 C 0.33892 0.95078 0.68744
 C360 C 0.33921 0.92876 0.67729
 C361 C 0.32225 0.92870 0.66027
 C362 C 0.31206 0.95068 0.66048
 N363 N 0.32214 0.96392 0.67727
 C364 C 0.29324 0.95757 0.64612
 H365 H 0.25363 0.97666 0.62218
 H366 H 0.25355 1.02268 0.62200
 H367 H 0.31629 0.98008 0.68306
 H368 H 0.31802 1.08570 0.64862
 H369 H 0.35047 1.08574 0.68135
 H370 H 0.37699 1.02324 0.74582
 H371 H 0.37707 0.97720 0.74589
 H372 H 0.31788 0.91408 0.64907
 H373 H 0.31619 1.01996 0.68296
 H374 H 0.35042 0.91420 0.68173
 C375 C 0.73289 1.01264 0.36903
 C376 C 0.73286 0.98869 0.36904
 C377 C 0.71326 0.98176 0.35662
 N378 N 0.70128 1.00068 0.34916
 C379 C 0.71328 1.01961 0.35661
 C380 C 0.70582 0.95839 0.35403
 C381 C 0.68692 0.95142 0.33980
 C382 C 0.67673 0.92943 0.34015
 C383 C 0.65971 0.92938 0.32318
 C384 C 0.65997 0.95133 0.31293
 N385 N 0.67676 0.96455 0.32300
 C386 C 0.64565 0.95820 0.29406
 C387 C 0.64297 0.98155 0.28660
 C388 C 0.63045 0.98839 0.26703
 C389 C 0.63042 1.01234 0.26697
 C390 C 0.64291 1.01940 0.28653
 N391 N 0.65045 1.00052 0.29854
 C392 C 0.64551 1.04283 0.29397
 C393 C 0.65979 1.04979 0.31291
 C394 C 0.65943 1.07176 0.32323
 C395 C 0.67645 1.07181 0.34017
 C396 C 0.68680 1.04988 0.33979
 N397 N 0.67668 1.03668 0.32296
 C398 C 0.70581 1.04302 0.35400
 H399 H 0.74567 1.02367 0.37754
 H400 H 0.74561 0.97764 0.37756
 H401 H 0.68260 1.02060 0.31702
 H402 H 0.68115 0.91490 0.35139
 H403 H 0.64849 0.91480 0.31884
 H404 H 0.62191 0.97729 0.25431
 H405 H 0.62183 1.02331 0.25419
 H406 H 0.68079 1.08640 0.35143
 H407 H 0.68258 0.98067 0.31712
 H408 H 0.64814 1.08630 0.31893
 O409 O 0.85021 0.81836 0.47756
 O410 O 0.81791 0.85047 0.52287
 O411 O 0.85010 0.81831 0.52288
 O412 O 0.81800 0.85051 0.47755
 O413 O 0.79070 0.82321 0.47735
 O414 O 0.82292 0.79089 0.52283
 O415 O 0.79060 0.82318 0.52282
 O416 O 0.82304 0.79094 0.47735
 Cu417 Cu 0.83680 0.83716 0.50023
 Cu418 Cu 0.80406 0.80428 0.50007
 C419 C 0.84220 0.79916 0.46991
 C420 C 0.79874 0.84237 0.53038
 C421 C 0.84205 0.79911 0.53040
 C422 C 0.79887 0.84242 0.46991
 O423 O 0.18257 0.14963 0.52264
 O424 O 0.15060 0.18205 0.47739
 O425 O 0.18260 0.14972 0.47732
 O426 O 0.15053 0.18192 0.52270
 O427 O 0.17784 0.20921 0.52292
 O428 O 0.21005 0.17686 0.47738
 O429 O 0.17793 0.20932 0.47745
 O430 O 0.21001 0.17678 0.52286
 Cu431 Cu 0.16382 0.16309 0.50000
 Cu432 Cu 0.19674 0.19580 0.50016
 C433 C 0.20174 0.15762 0.53029
 C434 C 0.15875 0.20122 0.46989
 C435 C 0.20180 0.15773 0.46979
 C436 C 0.15864 0.20106 0.53035
 O437 O 0.14992 0.81689 0.52219
 O438 O 0.18206 0.84901 0.47688
 O439 O 0.14996 0.81680 0.47687
 O440 O 0.18202 0.84910 0.52219
 O441 O 0.20940 0.82187 0.52232
 O442 O 0.17720 0.78944 0.47683
 O443 O 0.20944 0.82178 0.47684
 O444 O 0.17717 0.78953 0.52232
 Cu445 Cu 0.16325 0.83569 0.49952
 Cu446 Cu 0.19607 0.80289 0.49958
 C447 C 0.15801 0.79774 0.52981
 C448 C 0.20123 0.84094 0.46931
 C449 C 0.15805 0.79762 0.46930
 C450 C 0.20118 0.84105 0.52981
 O451 O 0.81740 0.15045 0.47638
 O452 O 0.84968 0.18242 0.52180
 O453 O 0.81750 0.15028 0.52170
 O454 O 0.84954 0.18267 0.47649
 O455 O 0.82232 0.21006 0.47663
 O456 O 0.79016 0.17756 0.52200
 O457 O 0.82247 0.20982 0.52210
 O458 O 0.79005 0.17771 0.47652
 Cu459 Cu 0.83627 0.16371 0.49906
 Cu460 Cu 0.80349 0.19655 0.49933
 C461 C 0.79822 0.15855 0.46889
 C462 C 0.84165 0.20158 0.52951
 C463 C 0.79837 0.15834 0.52938
 C464 C 0.84147 0.20190 0.46906
 O465 O 0.47717 0.84981 0.81772
 O466 O 0.52256 0.81773 0.84977
 O467 O 0.52241 0.84987 0.81757
 O468 O 0.47732 0.81764 0.84990
 O469 O 0.47720 0.79023 0.82263
 O470 O 0.52245 0.82257 0.79018
 O471 O 0.52260 0.79031 0.82251
 O472 O 0.47704 0.82252 0.79032
 Cu473 Cu 0.49987 0.83651 0.83649
 Cu474 Cu 0.49982 0.80364 0.80364
 C475 C 0.46955 0.84170 0.79855
 C476 C 0.53015 0.79856 0.84167
 C477 C 0.52994 0.84177 0.79836
 C478 C 0.46975 0.79844 0.84184
 O479 O 0.47772 0.14971 0.18202
 O480 O 0.52306 0.18195 0.15009
 O481 O 0.52297 0.14977 0.18226
 O482 O 0.47782 0.18194 0.14991
 O483 O 0.47760 0.20931 0.17722
 O484 O 0.52290 0.17702 0.20969
 O485 O 0.52300 0.20933 0.17739
 O486 O 0.47750 0.17695 0.20947
 Cu487 Cu 0.50041 0.16310 0.16332
 Cu488 Cu 0.50024 0.19592 0.19622
 C489 C 0.47006 0.15777 0.20119
 C490 C 0.53058 0.20114 0.15823
 C491 C 0.53045 0.15785 0.20149
 C492 C 0.47020 0.20112 0.15799
 O493 O 0.52221 0.15046 0.81749
 O494 O 0.47712 0.18279 0.84981
 O495 O 0.47697 0.15058 0.81760
 O496 O 0.52237 0.18268 0.84969
 O497 O 0.52244 0.21004 0.82244
 O498 O 0.47687 0.17781 0.79022
 O499 O 0.47703 0.21015 0.82256
 O500 O 0.52228 0.17769 0.79010
 Cu501 Cu 0.49967 0.16388 0.83639
 Cu502 Cu 0.49965 0.19669 0.80356
 C503 C 0.52975 0.15850 0.79828
 C504 C 0.46956 0.20198 0.84176
 C505 C 0.46936 0.15865 0.79844
 C506 C 0.52997 0.20183 0.84160
 O507 O 0.47710 0.81727 0.14995
 O508 O 0.52216 0.84975 0.18217
 O509 O 0.52235 0.81751 0.14999
 O510 O 0.47692 0.84952 0.18212
 O511 O 0.47696 0.82232 0.20953
 O512 O 0.52255 0.79018 0.17727
 O513 O 0.52236 0.82255 0.20958
 O514 O 0.47714 0.78994 0.17723
 Cu515 Cu 0.49962 0.83626 0.16331
 Cu516 Cu 0.49976 0.80348 0.19617
 C517 C 0.46961 0.79807 0.15803
 C518 C 0.52977 0.84175 0.20137
 C519 C 0.53001 0.79839 0.15809
 C520 C 0.46937 0.84145 0.20131
 O521 O 0.81779 0.47812 0.84983
 O522 O 0.85000 0.52332 0.81765
 O523 O 0.81787 0.52342 0.84985
 O524 O 0.84988 0.47802 0.81762
 O525 O 0.82265 0.47798 0.79024
 O526 O 0.79050 0.52354 0.82260
 O527 O 0.82276 0.52345 0.79027
 O528 O 0.79042 0.47808 0.82258
 Cu529 Cu 0.83663 0.50072 0.83648
 Cu530 Cu 0.80381 0.50077 0.80365
 C531 C 0.79861 0.47056 0.84176
 C532 C 0.84194 0.53091 0.79847
 C533 C 0.79872 0.53104 0.84178
 C534 C 0.84179 0.47044 0.79843
 O535 O 0.18265 0.47801 0.15003
 O536 O 0.15033 0.52327 0.18218
 O537 O 0.18259 0.52332 0.15008
 O538 O 0.15046 0.47797 0.18218
 O539 O 0.17763 0.47797 0.20963
 O540 O 0.20987 0.52347 0.17741
 O541 O 0.17749 0.52343 0.20964
 O542 O 0.20994 0.47801 0.17735
 Cu543 Cu 0.16377 0.50064 0.16336
 Cu544 Cu 0.19649 0.50073 0.19628
 C545 C 0.20181 0.47047 0.15814
 C546 C 0.15832 0.53088 0.20140
 C547 C 0.20172 0.53094 0.15820
 C548 C 0.15851 0.47042 0.20138
 O549 O 0.81766 0.52186 0.15024
 O550 O 0.84953 0.47666 0.18280
 O551 O 0.81754 0.47656 0.15043
 O552 O 0.84968 0.52195 0.18254
 O553 O 0.82236 0.52228 0.20982
 O554 O 0.79007 0.47673 0.17757
 O555 O 0.82220 0.47683 0.21007
 O556 O 0.79020 0.52220 0.17739
 Cu557 Cu 0.83635 0.49922 0.16377
 Cu558 Cu 0.80343 0.49953 0.19647
 C559 C 0.79850 0.52957 0.15821
 C560 C 0.84138 0.46924 0.20201
 C561 C 0.79832 0.46909 0.15845
 C562 C 0.84157 0.52968 0.20166
 O563 O 0.14983 0.47634 0.81827
 O564 O 0.18209 0.52166 0.85041
 O565 O 0.14985 0.52165 0.81829
 O566 O 0.18210 0.47635 0.85037
 O567 O 0.20936 0.47625 0.82303
 O568 O 0.17699 0.52170 0.79083
 O569 O 0.20935 0.52172 0.82307
 O570 O 0.17696 0.47624 0.79080
 Cu571 Cu 0.16323 0.49900 0.83709
 Cu572 Cu 0.19592 0.49897 0.80416
 C573 C 0.15782 0.46875 0.79905
 C574 C 0.20122 0.52924 0.84229
 C575 C 0.15786 0.52922 0.79908
 C576 C 0.20124 0.46877 0.84224
 C577 C 0.26029 0.39574 0.08980
 C578 C 0.24472 0.38303 0.10753
 C579 C 0.23301 0.39775 0.12218
 C580 C 0.23805 0.42370 0.11763
 C581 C 0.23228 0.42743 0.09172
 C582 C 0.24395 0.41275 0.07711
 C583 C 0.27639 0.41129 0.10457
 C584 C 0.26469 0.42600 0.11921
 C585 C 0.27276 0.38020 0.07369
 C586 C 0.28272 0.36803 0.05967
 C587 C 0.22535 0.43979 0.13303
 C588 C 0.21470 0.45353 0.14492
 H589 H 0.24307 0.36416 0.10852
 H590 H 0.22132 0.39149 0.13572
 H591 H 0.22006 0.44047 0.08539
 H592 H 0.24173 0.41321 0.05827
 H593 H 0.29530 0.41076 0.10366
 H594 H 0.27358 0.43807 0.13084
 C595 C 0.74064 0.60447 0.08970
 C596 C 0.75555 0.58622 0.07694
 C597 C 0.76713 0.57149 0.09154
 C598 C 0.76270 0.57642 0.11753
 C599 C 0.73607 0.57553 0.12031
 C600 C 0.72447 0.59029 0.10567
 C601 C 0.75758 0.61699 0.10632
 C602 C 0.76919 0.60223 0.12096
 C603 C 0.72828 0.62006 0.07361
 C604 C 0.71837 0.63228 0.05963
 C605 C 0.77527 0.56029 0.13294
 C606 C 0.78579 0.54652 0.14488
 H607 H 0.75691 0.58498 0.05805
 H608 H 0.77840 0.55763 0.08516
 H609 H 0.72712 0.56433 0.13271
 H610 H 0.70558 0.59175 0.10554
 H611 H 0.76019 0.63578 0.10658
 H612 H 0.78175 0.60836 0.13378
 C613 C 0.74038 0.39585 0.91011
 C614 C 0.72425 0.41006 0.89410
 C615 C 0.73590 0.42477 0.87945
 C616 C 0.76252 0.42381 0.88227
 C617 C 0.76896 0.39798 0.87888
 C618 C 0.75731 0.38327 0.89354
 C619 C 0.75533 0.41409 0.92287
 C620 C 0.76695 0.42876 0.90825
 C621 C 0.72798 0.38032 0.92622
 C622 C 0.71805 0.36815 0.94022
 C623 C 0.77516 0.43989 0.86687
 C624 C 0.78577 0.45363 0.85498
 H625 H 0.70536 0.40864 0.89421
 H626 H 0.72698 0.43596 0.86702
 H627 H 0.78151 0.39180 0.86609
 H628 H 0.75987 0.36448 0.89331
 H629 H 0.75668 0.41535 0.94176
 H630 H 0.77825 0.44260 0.91463
 C631 C 0.25985 0.60396 0.91054
 C632 C 0.24485 0.58583 0.92334
 C633 C 0.23313 0.57116 0.90875
 C634 C 0.23751 0.57601 0.88276
 C635 C 0.26413 0.57492 0.87989
 C636 C 0.27588 0.58963 0.89451
 C637 C 0.24294 0.61657 0.89399
 C638 C 0.23119 0.60186 0.87937
 C639 C 0.27237 0.61948 0.92662
 C640 C 0.28239 0.63164 0.94061
 C641 C 0.22477 0.55993 0.86738
 C642 C 0.21411 0.54618 0.85550
 H643 H 0.24354 0.58464 0.94223
 H644 H 0.22178 0.55740 0.91516
 H645 H 0.27296 0.56365 0.86745
 H646 H 0.29477 0.59095 0.89459
 H647 H 0.24045 0.63537 0.89376
 H648 H 0.21862 0.60805 0.86660
 C649 C 0.09041 0.26029 0.39582
 C650 C 0.08254 0.26036 0.42144
 C651 C 0.09719 0.24854 0.43595
 C652 C 0.11830 0.23778 0.42344
 C653 C 0.13001 0.25828 0.41073
 C654 C 0.11532 0.27014 0.39619
 C655 C 0.09321 0.23439 0.38944
 C656 C 0.10787 0.22255 0.40396
 C657 C 0.07425 0.27292 0.38050
 C658 C 0.06016 0.28303 0.36859
 C659 C 0.13371 0.22494 0.43935
 C660 C 0.14558 0.21419 0.45301
 H661 H 0.06683 0.26895 0.42767
 H662 H 0.09402 0.24702 0.45459
 H663 H 0.14822 0.26304 0.41293
 H664 H 0.12093 0.28505 0.38593
 H665 H 0.08448 0.22609 0.37478
 H666 H 0.11171 0.20411 0.40174
 C667 C 0.08984 0.73961 0.60476
 C668 C 0.07711 0.75528 0.58716
 C669 C 0.09168 0.76690 0.57243
 C670 C 0.11760 0.76173 0.57671
 C671 C 0.11974 0.73504 0.57508
 C672 C 0.10513 0.72340 0.58983
 C673 C 0.10705 0.75587 0.61737
 C674 C 0.12166 0.76751 0.60261
 C675 C 0.07377 0.72722 0.62034
 C676 C 0.05980 0.71729 0.63253
 C677 C 0.13296 0.77435 0.56058
 C678 C 0.14481 0.78493 0.54679
 H679 H 0.05827 0.75712 0.58634
 H680 H 0.08532 0.77867 0.55901
 H681 H 0.13170 0.72607 0.56341
 H682 H 0.10459 0.70447 0.59081
 H683 H 0.10773 0.75801 0.63621
 H684 H 0.13486 0.77963 0.60880
 C685 C 0.91062 0.74052 0.39538
 C686 C 0.89433 0.75766 0.38275
 C687 C 0.87970 0.76944 0.39741
 C688 C 0.88281 0.76290 0.42324
 C689 C 0.90875 0.76706 0.42840
 C690 C 0.92335 0.75531 0.41377
 C691 C 0.89436 0.72449 0.40942
 C692 C 0.87973 0.73626 0.42407
 C693 C 0.92670 0.72797 0.37990
 C694 C 0.94066 0.71790 0.36776
 C695 C 0.86740 0.77566 0.43928
 C696 C 0.85549 0.78632 0.45299
 H697 H 0.89428 0.76029 0.36397
 H698 H 0.86710 0.78216 0.39119
 H699 H 0.91511 0.77827 0.44232
 H700 H 0.94221 0.75647 0.41517
 H701 H 0.89431 0.70558 0.40793
 H702 H 0.86715 0.72743 0.43515
 C703 C 0.91021 0.25968 0.60433
 C704 C 0.92287 0.24425 0.58643
 C705 C 0.90822 0.23263 0.57175
 C706 C 0.88231 0.23755 0.57636
 C707 C 0.87995 0.26424 0.57502
 C708 C 0.89462 0.27588 0.58974
 C709 C 0.89328 0.24319 0.61696
 C710 C 0.87859 0.23154 0.60224
 C711 C 0.92635 0.27210 0.61988
 C712 C 0.94034 0.28206 0.63207
 C713 C 0.86687 0.22493 0.56026
 C714 C 0.85493 0.21436 0.54649
 H715 H 0.94171 0.24257 0.58539
 H716 H 0.91453 0.22101 0.55813
 H717 H 0.86778 0.27320 0.56358
 H718 H 0.89503 0.29480 0.59091
 H719 H 0.89283 0.24090 0.63578
 H720 H 0.86556 0.21927 0.60844
 C721 C 0.39536 0.08920 0.25916
 C722 C 0.38273 0.10631 0.24284
 C723 C 0.39743 0.12101 0.23122
 C724 C 0.42328 0.11712 0.23709
 C725 C 0.42774 0.09118 0.23196
 C726 C 0.41308 0.07652 0.24355
 C727 C 0.41011 0.10464 0.27539
 C728 C 0.42480 0.11933 0.26379
 C729 C 0.37986 0.07305 0.27153
 C730 C 0.36771 0.05903 0.28146
 C731 C 0.43935 0.13257 0.22449
 C732 C 0.45310 0.14450 0.21395
 H733 H 0.36393 0.10686 0.24063
 H734 H 0.39122 0.13416 0.21906
 H735 H 0.44123 0.08487 0.22023
 H736 H 0.41401 0.05766 0.24174
 H737 H 0.40906 0.10413 0.29433
 H738 H 0.43634 0.13140 0.27278
 C739 C 0.60417 0.08998 0.73965
 C740 C 0.59209 0.07855 0.76066
 C741 C 0.57748 0.09319 0.77238
 C742 C 0.57632 0.11786 0.76197
 C743 C 0.56960 0.11422 0.73625
 C744 C 0.58424 0.09957 0.72452
 C745 C 0.61639 0.11168 0.74964
 C746 C 0.60173 0.12636 0.76139
 C747 C 0.61965 0.07386 0.72715
 C748 C 0.63181 0.05986 0.71716
 C749 C 0.56031 0.13329 0.77471
 C750 C 0.54662 0.14521 0.78538
 H751 H 0.59481 0.06053 0.76589
 H752 H 0.56767 0.08769 0.78764
 H753 H 0.55469 0.12248 0.72797
 H754 H 0.58187 0.09527 0.70619
 H755 H 0.63489 0.11522 0.74764
 H756 H 0.60767 0.14247 0.76946
 C757 C 0.39484 0.91012 0.74037
 C758 C 0.38838 0.90671 0.76617
 C759 C 0.40306 0.89205 0.77781
 C760 C 0.42276 0.88223 0.76251
 C761 C 0.43495 0.90378 0.75228
 C762 C 0.42029 0.91843 0.74066
 C763 C 0.39569 0.88537 0.73002
 C764 C 0.41039 0.87069 0.74168
 C765 C 0.37932 0.92624 0.72796
 C766 C 0.36714 0.94021 0.71800
 C767 C 0.43883 0.86681 0.77515
 C768 C 0.45258 0.85491 0.78574
 H769 H 0.37356 0.91506 0.77455
 H770 H 0.40081 0.88782 0.79617
 H771 H 0.45350 0.90724 0.75399
 H772 H 0.42628 0.93442 0.73243
 H773 H 0.38563 0.87987 0.71491
 H774 H 0.41292 0.85259 0.73656
 C775 C 0.60420 0.91036 0.25989
 C776 C 0.58982 0.89448 0.27599
 C777 C 0.57517 0.87981 0.26426
 C778 C 0.57635 0.88246 0.23759
 C779 C 0.60219 0.87897 0.23138
 C780 C 0.61684 0.89365 0.24311
 C781 C 0.58616 0.92307 0.24471
 C782 C 0.57154 0.90843 0.23300
 C783 C 0.61968 0.92650 0.27238
 C784 C 0.63180 0.94052 0.28238
 C785 C 0.56033 0.86702 0.22487
 C786 C 0.54664 0.85507 0.21423
 H787 H 0.59108 0.89470 0.29492
 H788 H 0.56388 0.86746 0.27315
 H789 H 0.60841 0.86609 0.21891
 H790 H 0.63563 0.89336 0.24070
 H791 H 0.58499 0.94195 0.24326
 H792 H 0.55785 0.91477 0.22154
 C793 C 0.39511 0.26056 0.91027
 C794 C 0.41317 0.24543 0.92299
 C795 C 0.42780 0.23373 0.90836
 C796 C 0.42296 0.23827 0.88238
 C797 C 0.42411 0.26493 0.87969
 C798 C 0.40945 0.27666 0.89436
 C799 C 0.38247 0.24375 0.89359
 C800 C 0.39713 0.23202 0.87892
 C801 C 0.37964 0.27305 0.92642
 C802 C 0.36754 0.28303 0.94048
 C803 C 0.43899 0.22555 0.86695
 C804 C 0.45268 0.21488 0.85503
 H805 H 0.41436 0.24401 0.94188
 H806 H 0.44151 0.22229 0.91471
 H807 H 0.43539 0.27381 0.86733
 H808 H 0.40818 0.29558 0.89456
 H809 H 0.36369 0.24131 0.89332
 H810 H 0.39091 0.21953 0.86606
 C811 C 0.60510 0.74040 0.90985
 C812 C 0.58724 0.75576 0.92264
 C813 C 0.57252 0.76738 0.90806
 C814 C 0.57706 0.76254 0.88207
 C815 C 0.57575 0.73586 0.87960
 C816 C 0.59050 0.72421 0.89421
 C817 C 0.61763 0.75697 0.89291
 C818 C 0.60288 0.76862 0.87829
 C819 C 0.62067 0.72800 0.92592
 C820 C 0.63287 0.71805 0.93989
 C821 C 0.56093 0.77517 0.86671
 C822 C 0.54714 0.78576 0.85485
 H823 H 0.58626 0.75738 0.94152
 H824 H 0.55893 0.77895 0.91446
 H825 H 0.56429 0.72691 0.86742
 H826 H 0.59168 0.70529 0.89455
 H827 H 0.63642 0.75931 0.89242
 H828 H 0.60902 0.78095 0.86527
 C829 C 0.39523 0.73925 0.08963
 C830 C 0.41624 0.72472 0.09770
 C831 C 0.43087 0.73649 0.11234
 C832 C 0.42306 0.76162 0.11749
 C833 C 0.39807 0.75935 0.12691
 C834 C 0.38342 0.74757 0.11225
 C835 C 0.40578 0.76136 0.07879
 C836 C 0.42039 0.77310 0.09341
 C837 C 0.37976 0.72673 0.07350
 C838 C 0.36763 0.71673 0.05947
 C839 C 0.43907 0.77440 0.13289
 C840 C 0.45275 0.78511 0.14479
 H841 H 0.41933 0.70676 0.09242
 H842 H 0.44650 0.72860 0.11960
 H843 H 0.39241 0.76634 0.14362
 H844 H 0.36520 0.74446 0.11638
 H845 H 0.40208 0.76729 0.06116
 H846 H 0.42920 0.78910 0.08831
 C847 C 0.60515 0.25967 0.09000
 C848 C 0.59017 0.27579 0.10533
 C849 C 0.57551 0.26408 0.11997
 C850 C 0.57729 0.23739 0.11782
 C851 C 0.60318 0.23179 0.12187
 C852 C 0.61784 0.24351 0.10723
 C853 C 0.58765 0.24387 0.07726
 C854 C 0.57302 0.23218 0.09186
 C855 C 0.62063 0.27216 0.07391
 C856 C 0.63275 0.28216 0.05992
 C857 C 0.56125 0.22468 0.13320
 C858 C 0.54752 0.21403 0.14506
 H859 H 0.59104 0.29473 0.10479
 H860 H 0.56382 0.27298 0.13196
 H861 H 0.60943 0.21972 0.13508
 H862 H 0.63666 0.24149 0.10789
 H863 H 0.58684 0.24202 0.05839
 H864 H 0.55968 0.22031 0.08549
 C865 C 0.25983 0.08902 0.60494
 C866 C 0.24398 0.07635 0.58743
 C867 C 0.23236 0.09099 0.57277
 C868 C 0.23770 0.11692 0.57701
 C869 C 0.26436 0.11889 0.57523
 C870 C 0.27599 0.10422 0.58992
 C871 C 0.24378 0.10637 0.61764
 C872 C 0.23214 0.12105 0.60294
 C873 C 0.27222 0.07288 0.62046
 C874 C 0.28215 0.05886 0.63262
 C875 C 0.22508 0.13236 0.56095
 C876 C 0.21451 0.14431 0.54722
 H877 H 0.24204 0.05749 0.58662
 H878 H 0.22048 0.08468 0.55940
 H879 H 0.27330 0.13080 0.56351
 H880 H 0.29491 0.10355 0.59079
 H881 H 0.24178 0.10708 0.63649
 H882 H 0.22015 0.13435 0.60920
 C883 C 0.73949 0.09002 0.39451
 C884 C 0.72345 0.10545 0.40948
 C885 C 0.73521 0.12015 0.42408
 C886 C 0.76185 0.11798 0.42226
 C887 C 0.76740 0.12188 0.39630
 C888 C 0.75563 0.10716 0.38170
 C889 C 0.75528 0.07737 0.41206
 C890 C 0.76702 0.09204 0.42663
 C891 C 0.72696 0.07384 0.37910
 C892 C 0.71693 0.05975 0.36706
 C893 C 0.77461 0.13343 0.43825
 C894 C 0.78530 0.14534 0.45195
 H895 H 0.70453 0.10491 0.40865
 H896 H 0.72637 0.13221 0.43576
 H897 H 0.77946 0.13504 0.38996
 H898 H 0.75760 0.10772 0.36284
 H899 H 0.75711 0.05851 0.41295
 H900 H 0.77890 0.08575 0.44000
 C901 C 0.73984 0.91074 0.60478
 C902 C 0.75574 0.89337 0.61759
 C903 C 0.76755 0.87871 0.60296
 C904 C 0.76229 0.88290 0.57699
 C905 C 0.76768 0.90884 0.57293
 C906 C 0.75589 0.92345 0.58752
 C907 C 0.72385 0.89558 0.58949
 C908 C 0.73566 0.88093 0.57487
 C909 C 0.72727 0.92687 0.62021
 C910 C 0.71721 0.94091 0.63229
 C911 C 0.77510 0.86749 0.56099
 C912 C 0.78581 0.85560 0.54729
 H913 H 0.75752 0.89262 0.63646
 H914 H 0.77947 0.86541 0.60930
 H915 H 0.77972 0.91518 0.55974
 H916 H 0.75785 0.94231 0.58682
 H917 H 0.70493 0.89625 0.59013
 H918 H 0.72685 0.86906 0.56298
 C919 C 0.25956 0.90918 0.39458
 C920 C 0.24756 0.88874 0.38202
 C921 C 0.23586 0.87410 0.39673
 C922 C 0.23734 0.88139 0.42252
 C923 C 0.22843 0.90666 0.42316
 C924 C 0.24010 0.92125 0.40849
 C925 C 0.27523 0.89777 0.41308
 C926 C 0.26355 0.88315 0.42777
 C927 C 0.27201 0.92527 0.37906
 C928 C 0.28198 0.93925 0.36691
 C929 C 0.22467 0.86601 0.43860
 C930 C 0.21406 0.85414 0.45235
 H931 H 0.24821 0.88598 0.36326
 H932 H 0.22649 0.85880 0.39057
 H933 H 0.21418 0.91258 0.43417
 H934 H 0.23583 0.93967 0.40694
 H935 H 0.29387 0.90084 0.41448
 H936 H 0.27219 0.87371 0.44176
 C937 C 0.08918 0.39446 0.74038
 C938 C 0.11217 0.38281 0.74772
 C939 C 0.12688 0.39741 0.75951
 C940 C 0.11712 0.42220 0.76276
 C941 C 0.09346 0.41881 0.77483
 C942 C 0.07879 0.40425 0.76307
 C943 C 0.09648 0.41602 0.72624
 C944 C 0.11117 0.43060 0.73800
 C945 C 0.07301 0.37906 0.72783
 C946 C 0.05898 0.36699 0.71778
 C947 C 0.13258 0.43817 0.77552
 C948 C 0.14453 0.45185 0.78618
 H949 H 0.11651 0.36473 0.74399
 H950 H 0.14383 0.39184 0.76587
 H951 H 0.08865 0.42712 0.79120
 H952 H 0.06141 0.40009 0.76938
 H953 H 0.09067 0.41951 0.70852
 H954 H 0.11793 0.44658 0.73036
 C955 C 0.08944 0.60509 0.25988
 C956 C 0.10163 0.61668 0.23901
 C957 C 0.11639 0.60210 0.22730
 C958 C 0.11749 0.57737 0.23762
 C959 C 0.09210 0.56888 0.23800
 C960 C 0.07738 0.58343 0.24969
 C961 C 0.10929 0.59547 0.27512
 C962 C 0.12405 0.58089 0.26340
 C963 C 0.07323 0.62048 0.27237
 C964 C 0.05917 0.63254 0.28240
 C965 C 0.13301 0.56142 0.22491
 C966 C 0.14500 0.54776 0.21427
 H967 H 0.09894 0.63474 0.23392
 H968 H 0.12634 0.60767 0.21216
 H969 H 0.08619 0.55282 0.22980
 H970 H 0.05887 0.57983 0.25148
 H971 H 0.11158 0.59978 0.29346
 H972 H 0.13898 0.57270 0.27171
 C973 C 0.91002 0.39610 0.26184
 C974 C 0.89376 0.38297 0.24502
 C975 C 0.87899 0.39727 0.23299
 C976 C 0.88196 0.42326 0.23900
 C977 C 0.90785 0.42847 0.23464
 C978 C 0.92258 0.41421 0.24663
 C979 C 0.89374 0.41039 0.27764
 C980 C 0.87897 0.42468 0.26562
 C981 C 0.92628 0.38105 0.27465
 C982 C 0.94047 0.36938 0.28492
 C983 C 0.86647 0.43894 0.22597
 C984 C 0.85456 0.45246 0.21509
 H985 H 0.89382 0.36413 0.24278
 H986 H 0.86638 0.39069 0.22044
 H987 H 0.91409 0.44217 0.22312
 H988 H 0.94143 0.41571 0.24538
 H989 H 0.89375 0.40934 0.29658
 H990 H 0.86634 0.43588 0.27427
 C991 C 0.91053 0.60527 0.74009
 C992 C 0.89484 0.59069 0.72394
 C993 C 0.88014 0.57608 0.73562
 C994 C 0.88258 0.57749 0.76231
 C995 C 0.87897 0.60340 0.76831
 C996 C 0.89368 0.61802 0.75662
 C997 C 0.92316 0.58737 0.75551
 C998 C 0.90849 0.57279 0.76717
 C999 C 0.92670 0.62069 0.72764
 C1000 C 0.94077 0.63274 0.71767
 C1001 C 0.86713 0.56150 0.77499
 C1002 C 0.85520 0.54781 0.78561
 H1003 H 0.89520 0.59180 0.70500
 H1004 H 0.86791 0.56466 0.72670
 H1005 H 0.86600 0.60970 0.78062
 H1006 H 0.89331 0.63685 0.75890
 H1007 H 0.94200 0.58626 0.75714
 H1008 H 0.91477 0.55919 0.77879
 C1009 C 0.74048 0.60568 0.91038
 C1010 C 0.75427 0.58652 0.92305
 C1011 C 0.76591 0.57188 0.90837
 C1012 C 0.76267 0.57780 0.88243
 C1013 C 0.77014 0.60347 0.88020
 C1014 C 0.75846 0.61814 0.89491
 C1015 C 0.72448 0.59258 0.89329
 C1016 C 0.73616 0.57792 0.87858
 C1017 C 0.72803 0.62114 0.92656
 C1018 C 0.71806 0.63323 0.94064
 C1019 C 0.77533 0.56175 0.86697
 C1020 C 0.78593 0.54801 0.85504
 H1021 H 0.75484 0.58462 0.94192
 H1022 H 0.77647 0.55745 0.91468
 H1023 H 0.78339 0.60958 0.86811
 H1024 H 0.76170 0.63682 0.89543
 H1025 H 0.70567 0.59469 0.89275
 H1026 H 0.72735 0.56745 0.86544
 C1027 C 0.26023 0.39457 0.91055
 C1028 C 0.27610 0.40805 0.89368
 C1029 C 0.26426 0.42262 0.87904
 C1030 C 0.23772 0.42227 0.88273
 C1031 C 0.23425 0.42795 0.90871
 C1032 C 0.24606 0.41341 0.92331
 C1033 C 0.24254 0.38192 0.89485
 C1034 C 0.23069 0.39650 0.88021
 C1035 C 0.27285 0.37919 0.92666
 C1036 C 0.28294 0.36716 0.94068
 C1037 C 0.22488 0.43822 0.86734
 C1038 C 0.21416 0.45188 0.85546
 H1039 H 0.29495 0.40626 0.89323
 H1040 H 0.27296 0.43332 0.86605
 H1041 H 0.22342 0.44216 0.91509
 H1042 H 0.24535 0.41516 0.94220
 H1043 H 0.23961 0.36319 0.89518
 H1044 H 0.21761 0.39025 0.86799
 C1045 C 0.26044 0.60522 0.08979
 C1046 C 0.24374 0.61800 0.10646
 C1047 C 0.23195 0.60341 0.12113
 C1048 C 0.23804 0.57750 0.11767
 C1049 C 0.26466 0.57619 0.12038
 C1050 C 0.27644 0.59078 0.10572
 C1051 C 0.24521 0.58721 0.07706
 C1052 C 0.23345 0.57266 0.09169
 C1053 C 0.27299 0.62061 0.07365
 C1054 C 0.28302 0.63264 0.05960
 C1055 C 0.22526 0.56154 0.13308
 C1056 C 0.21459 0.54785 0.14498
 H1057 H 0.24142 0.63682 0.10674
 H1058 H 0.21953 0.60973 0.13398
 H1059 H 0.27347 0.56487 0.13276
 H1060 H 0.29535 0.59195 0.10554
 H1061 H 0.24376 0.58600 0.05818
 H1062 H 0.22194 0.55899 0.08534
 C1063 C 0.74005 0.39468 0.08962
 C1064 C 0.76022 0.38282 0.10268
 C1065 C 0.77188 0.39743 0.11746
 C1066 C 0.76220 0.42245 0.11771
 C1067 C 0.73620 0.41980 0.12360
 C1068 C 0.72454 0.40519 0.10882
 C1069 C 0.75112 0.41575 0.07735
 C1070 C 0.76275 0.43033 0.09209
 C1071 C 0.72763 0.37926 0.07336
 C1072 C 0.71767 0.36721 0.05925
 C1073 C 0.77486 0.43845 0.13323
 C1074 C 0.78547 0.45215 0.14519
 H1075 H 0.76490 0.36456 0.10055
 H1076 H 0.78655 0.39170 0.12800
 H1077 H 0.72772 0.42858 0.13812
 H1078 H 0.70607 0.40143 0.11067
 H1079 H 0.74995 0.41894 0.05868
 H1080 H 0.77153 0.44601 0.08605
 C1081 C 0.91016 0.74036 0.60499
 C1082 C 0.89318 0.75678 0.61770
 C1083 C 0.87859 0.76858 0.60302
 C1084 C 0.88245 0.76277 0.57710
 C1085 C 0.88005 0.73610 0.57546
 C1086 C 0.89463 0.72431 0.59014
 C1087 C 0.92294 0.75592 0.58733
 C1088 C 0.90840 0.76768 0.57269
 C1089 C 0.92619 0.72780 0.62049
 C1090 C 0.94013 0.71775 0.63263
 C1091 C 0.86712 0.77555 0.56105
 C1092 C 0.85526 0.78623 0.54733
 H1093 H 0.89263 0.75892 0.63655
 H1094 H 0.86555 0.78083 0.60928
 H1095 H 0.86795 0.72726 0.56385
 H1096 H 0.89500 0.70538 0.59110
 H1097 H 0.94179 0.75756 0.58642
 H1098 H 0.91480 0.77939 0.55923
 C1099 C 0.91022 0.26165 0.39596
 C1100 C 0.89527 0.27743 0.41167
 C1101 C 0.88052 0.26541 0.42594
 C1102 C 0.88216 0.23878 0.42309
 C1103 C 0.90800 0.23297 0.42702
 C1104 C 0.92272 0.24497 0.41278
 C1105 C 0.89267 0.24629 0.38269
 C1106 C 0.87790 0.23425 0.39698
 C1107 C 0.92647 0.27449 0.38093
 C1108 C 0.94063 0.28480 0.36928
 C1109 C 0.86666 0.22576 0.43877
 C1110 C 0.85472 0.21492 0.45228
 H1111 H 0.89615 0.29638 0.41155
 H1112 H 0.86876 0.27405 0.43806
 H1113 H 0.91420 0.22048 0.43987
 H1114 H 0.94153 0.24275 0.41343
 H1115 H 0.89189 0.24503 0.36378
 H1116 H 0.86446 0.22266 0.39031
 C1117 C 0.09020 0.25961 0.60487
 C1118 C 0.10391 0.27565 0.58835
 C1119 C 0.11858 0.26393 0.57371
 C1120 C 0.11809 0.23732 0.57704
 C1121 C 0.09238 0.23043 0.57419
 C1122 C 0.07773 0.24214 0.58880
 C1123 C 0.10882 0.24520 0.61768
 C1124 C 0.12351 0.23347 0.60303
 C1125 C 0.07406 0.27210 0.62033
 C1126 C 0.06004 0.28209 0.63245
 C1127 C 0.13352 0.22460 0.56101
 C1128 C 0.14543 0.21394 0.54729
 H1129 H 0.10228 0.29455 0.58821
 H1130 H 0.12952 0.27278 0.56102
 H1131 H 0.08620 0.21747 0.56178
 H1132 H 0.05902 0.23919 0.58891
 H1133 H 0.11036 0.24433 0.63657
 H1134 H 0.13763 0.22253 0.60936
 C1135 C 0.08967 0.73927 0.39457
 C1136 C 0.07700 0.75449 0.41264
 C1137 C 0.09165 0.76613 0.42730
 C1138 C 0.11756 0.76144 0.42249
 C1139 C 0.12108 0.76764 0.39663
 C1140 C 0.10639 0.75597 0.38193
 C1141 C 0.10548 0.72311 0.40896
 C1142 C 0.12015 0.73477 0.42365
 C1143 C 0.07352 0.72685 0.37907
 C1144 C 0.05945 0.71691 0.36695
 C1145 C 0.13298 0.77411 0.43857
 C1146 C 0.14487 0.78474 0.45233
 H1147 H 0.05815 0.75601 0.41381
 H1148 H 0.08534 0.77762 0.44103
 H1149 H 0.13397 0.78006 0.39042
 H1150 H 0.10670 0.75838 0.36312
 H1151 H 0.10521 0.70418 0.40768
 H1152 H 0.13246 0.72584 0.43497
 C1153 C 0.60446 0.90996 0.73970
 C1154 C 0.58999 0.89409 0.72362
 C1155 C 0.57532 0.87950 0.73537
 C1156 C 0.57657 0.88222 0.76204
 C1157 C 0.57185 0.90821 0.76663
 C1158 C 0.58649 0.92277 0.75490
 C1159 C 0.61708 0.89327 0.75645
 C1160 C 0.60240 0.87867 0.76821
 C1161 C 0.61994 0.92602 0.72717
 C1162 C 0.63207 0.94000 0.71716
 C1163 C 0.56053 0.86687 0.77479
 C1164 C 0.54683 0.85500 0.78546
 H1165 H 0.59121 0.89426 0.70469
 H1166 H 0.56396 0.86716 0.72651
 H1167 H 0.55820 0.91463 0.77812
 H1168 H 0.58538 0.94166 0.75635
 H1169 H 0.63587 0.89292 0.75883
 H1170 H 0.60862 0.86581 0.78068
 C1171 C 0.39461 0.90984 0.25955
 C1172 C 0.41153 0.92246 0.24308
 C1173 C 0.42619 0.90781 0.23144
 C1174 C 0.42254 0.88194 0.23740
 C1175 C 0.39663 0.87725 0.23243
 C1176 C 0.38192 0.89194 0.24410
 C1177 C 0.41021 0.89525 0.27574
 C1178 C 0.42491 0.88057 0.26409
 C1179 C 0.37910 0.92599 0.27197
 C1180 C 0.36698 0.94005 0.28191
 C1181 C 0.43862 0.86652 0.22475
 C1182 C 0.45239 0.85463 0.21414
 H1183 H 0.41194 0.94127 0.24073
 H1184 H 0.43917 0.91409 0.21914
 H1185 H 0.39038 0.86360 0.22083
 H1186 H 0.36308 0.89087 0.24250
 H1187 H 0.40972 0.89630 0.29468
 H1188 H 0.43701 0.86905 0.27304
 C1189 C 0.60483 0.08959 0.26031
 C1190 C 0.61725 0.10479 0.24206
 C1191 C 0.60261 0.11942 0.23027
 C1192 C 0.57701 0.11738 0.23791
 C1193 C 0.57729 0.12155 0.26442
 C1194 C 0.59193 0.10693 0.27620
 C1195 C 0.58556 0.07684 0.24674
 C1196 C 0.57095 0.09143 0.23498
 C1197 C 0.62028 0.07350 0.27285
 C1198 C 0.63238 0.05949 0.28287
 C1199 C 0.56101 0.13275 0.22513
 C1200 C 0.54733 0.14463 0.21442
 H1201 H 0.63589 0.10416 0.23872
 H1202 H 0.60870 0.13132 0.21683
 H1203 H 0.56695 0.13483 0.27316
 H1204 H 0.59413 0.10769 0.29503
 H1205 H 0.58356 0.05798 0.24639
 H1206 H 0.55645 0.08506 0.22457
 C1207 C 0.39464 0.09019 0.74020
 C1208 C 0.42046 0.08341 0.73808
 C1209 C 0.43512 0.09807 0.74972
 C1210 C 0.42256 0.11810 0.76236
 C1211 C 0.40460 0.10611 0.77823
 C1212 C 0.38993 0.09143 0.76658
 C1213 C 0.39337 0.11559 0.73170
 C1214 C 0.40807 0.13029 0.74337
 C1215 C 0.37913 0.07404 0.72778
 C1216 C 0.36698 0.06002 0.71782
 C1217 C 0.43863 0.13354 0.77502
 C1218 C 0.45239 0.14544 0.78562
 H1219 H 0.42669 0.06840 0.72827
 H1220 H 0.45390 0.09562 0.74987
 H1221 H 0.40349 0.10893 0.79696
 H1222 H 0.37625 0.08168 0.77532
 H1223 H 0.38194 0.12150 0.71778
 H1224 H 0.40924 0.14881 0.73945
 C1225 C 0.60501 0.74031 0.08981
 C1226 C 0.58994 0.72409 0.10490
 C1227 C 0.57518 0.73573 0.11953
 C1228 C 0.57696 0.76242 0.11762
 C1229 C 0.57286 0.76778 0.09167
 C1230 C 0.58759 0.75617 0.07707
 C1231 C 0.61758 0.75637 0.10724
 C1232 C 0.60282 0.76801 0.12189
 C1233 C 0.62060 0.72791 0.07371
 C1234 C 0.63280 0.71798 0.05972
 C1235 C 0.56082 0.77503 0.13300
 C1236 C 0.54702 0.78560 0.14489
 H1237 H 0.59083 0.70516 0.10421
 H1238 H 0.56341 0.72675 0.13137
 H1239 H 0.55955 0.77968 0.08532
 H1240 H 0.58690 0.75814 0.05822
 H1241 H 0.63640 0.75839 0.10805
 H1242 H 0.60898 0.78001 0.13523
 C1243 C 0.39584 0.25975 0.08955
 C1244 C 0.40109 0.27295 0.11232
 C1245 C 0.41573 0.26118 0.12698
 C1246 C 0.42365 0.23740 0.11738
 C1247 C 0.43441 0.24277 0.09343
 C1248 C 0.41981 0.25451 0.07882
 C1249 C 0.38636 0.23591 0.09731
 C1250 C 0.40099 0.22415 0.11195
 C1251 C 0.38038 0.27228 0.07345
 C1252 C 0.36827 0.28231 0.05947
 C1253 C 0.43964 0.22464 0.13279
 C1254 C 0.45332 0.21398 0.14470
 H1255 H 0.39393 0.28999 0.11658
 H1256 H 0.42111 0.26814 0.14379
 H1257 H 0.45198 0.23780 0.08839
 H1258 H 0.42487 0.25957 0.06126
 H1259 H 0.36964 0.22890 0.09182
 H1260 H 0.39679 0.20706 0.11901
 C1261 C 0.60485 0.26004 0.90993
 C1262 C 0.58677 0.24496 0.92267
 C1263 C 0.57207 0.23333 0.90805
 C1264 C 0.57685 0.23789 0.88207
 C1265 C 0.60265 0.23155 0.87854
 C1266 C 0.61739 0.24321 0.89321
 C1267 C 0.59052 0.27621 0.89407
 C1268 C 0.57579 0.26456 0.87941
 C1269 C 0.62040 0.27245 0.92605
 C1270 C 0.63257 0.28240 0.94006
 C1271 C 0.56074 0.22525 0.86667
 C1272 C 0.54696 0.21465 0.85479
 H1273 H 0.58562 0.24352 0.94156
 H1274 H 0.55833 0.22194 0.91442
 H1275 H 0.60879 0.21905 0.86565
 H1276 H 0.63616 0.24070 0.89288
 H1277 H 0.59187 0.29513 0.89428
 H1278 H 0.56451 0.27349 0.86707
 C1279 C 0.39549 0.73980 0.91033
 C1280 C 0.41356 0.75494 0.92307
 C1281 C 0.42814 0.76667 0.90844
 C1282 C 0.42325 0.76215 0.88246
 C1283 C 0.39741 0.76837 0.87907
 C1284 C 0.38280 0.75661 0.89374
 C1285 C 0.40982 0.72374 0.89433
 C1286 C 0.42443 0.73549 0.87968
 C1287 C 0.38006 0.72728 0.92645
 C1288 C 0.36799 0.71727 0.94048
 C1289 C 0.43923 0.77489 0.86704
 C1290 C 0.45290 0.78556 0.85512
 H1291 H 0.41479 0.75635 0.94195
 H1292 H 0.44185 0.77812 0.91481
 H1293 H 0.39115 0.78087 0.86627
 H1294 H 0.36401 0.75903 0.89351
 H1295 H 0.40857 0.70481 0.89447
 H1296 H 0.43570 0.72663 0.86725
 C1297 C 0.74019 0.91073 0.39545
 C1298 C 0.75678 0.89393 0.38273
 C1299 C 0.76856 0.87930 0.39737
 C1300 C 0.76258 0.88294 0.42328
 C1301 C 0.73595 0.88035 0.42468
 C1302 C 0.72417 0.89497 0.41005
 C1303 C 0.75552 0.92351 0.41335
 C1304 C 0.76728 0.90892 0.42796
 C1305 C 0.72763 0.92681 0.37999
 C1306 C 0.71758 0.94078 0.36788
 C1307 C 0.77535 0.86756 0.43929
 C1308 C 0.78601 0.85566 0.45299
 H1309 H 0.75903 0.89354 0.36389
 H1310 H 0.78092 0.86637 0.39109
 H1311 H 0.72713 0.86808 0.43612
 H1312 H 0.70527 0.89522 0.40894
 H1313 H 0.75703 0.94239 0.41444
 H1314 H 0.77885 0.91531 0.44156
 C1315 C 0.25926 0.90966 0.60458
 C1316 C 0.24226 0.89321 0.61716
 C1317 C 0.23062 0.87850 0.60244
 C1318 C 0.23716 0.88172 0.57663
 C1319 C 0.26378 0.87883 0.57578
 C1320 C 0.27541 0.89353 0.59049
 C1321 C 0.24442 0.92234 0.58625
 C1322 C 0.23281 0.90767 0.57157
 C1323 C 0.27166 0.92583 0.62011
 C1324 C 0.28160 0.93988 0.63225
 C1325 C 0.22454 0.86626 0.56054
 C1326 C 0.21397 0.85432 0.54677
 H1327 H 0.23962 0.89309 0.63594
 H1328 H 0.21801 0.86578 0.60862
 H1329 H 0.27270 0.86631 0.56466
 H1330 H 0.29429 0.89361 0.59198
 H1331 H 0.24311 0.94122 0.58492
 H1332 H 0.22157 0.91399 0.55767
 C1333 C 0.25987 0.08923 0.39492
 C1334 C 0.24567 0.10809 0.38222
 C1335 C 0.23404 0.12278 0.39696
 C1336 C 0.23777 0.11714 0.42292
 C1337 C 0.26434 0.11738 0.42635
 C1338 C 0.27596 0.10270 0.41162
 C1339 C 0.24228 0.07677 0.41080
 C1340 C 0.23068 0.09142 0.42550
 C1341 C 0.27225 0.07309 0.37936
 C1342 C 0.28217 0.05907 0.36716
 C1343 C 0.22516 0.13257 0.43903
 C1344 C 0.21459 0.14449 0.45281
 H1345 H 0.24485 0.10978 0.36334
 H1346 H 0.22325 0.13706 0.39071
 H1347 H 0.27324 0.12816 0.43918
 H1348 H 0.29482 0.10091 0.41183
 H1349 H 0.23918 0.05806 0.41051
 H1350 H 0.21765 0.08525 0.43780
 C1351 C 0.74005 0.08998 0.60404
 C1352 C 0.72396 0.10458 0.58835
 C1353 C 0.73565 0.11920 0.57366
 C1354 C 0.76229 0.11778 0.57612
 C1355 C 0.76822 0.09188 0.57249
 C1356 C 0.75655 0.07729 0.58715
 C1357 C 0.75546 0.10786 0.61678
 C1358 C 0.76717 0.12250 0.60209
 C1359 C 0.72758 0.07389 0.61954
 C1360 C 0.71760 0.05990 0.63167
 C1361 C 0.77497 0.13316 0.56005
 C1362 C 0.78558 0.14507 0.54632
 H1363 H 0.70505 0.10357 0.58879
 H1364 H 0.72676 0.13071 0.56151
 H1365 H 0.78055 0.08556 0.55954
 H1366 H 0.75888 0.05847 0.58675
 H1367 H 0.75701 0.10896 0.63566
 H1368 H 0.77875 0.13614 0.60837
 C1369 C 0.91013 0.60438 0.25984
 C1370 C 0.89531 0.61665 0.24116
 C1371 C 0.88060 0.60195 0.22952
 C1372 C 0.88218 0.57647 0.23771
 C1373 C 0.87777 0.57738 0.26416
 C1374 C 0.89247 0.59207 0.27580
 C1375 C 0.92270 0.58460 0.24682
 C1376 C 0.90803 0.56995 0.23521
 C1377 C 0.92630 0.61988 0.27224
 C1378 C 0.94034 0.63201 0.28219
 C1379 C 0.86672 0.56040 0.22508
 C1380 C 0.85480 0.54665 0.21448
 H1381 H 0.89626 0.63521 0.23745
 H1382 H 0.86895 0.60794 0.21582
 H1383 H 0.86426 0.56743 0.27295
 H1384 H 0.89156 0.59471 0.29457
 H1385 H 0.94151 0.58231 0.24672
 H1386 H 0.91427 0.55510 0.22516
 C1387 C 0.91006 0.39557 0.74016
 C1388 C 0.91750 0.42129 0.73904
 C1389 C 0.90287 0.43599 0.75066
 C1390 C 0.88221 0.42356 0.76230
 C1391 C 0.89327 0.40483 0.77797
 C1392 C 0.90792 0.39012 0.76632
 C1393 C 0.88493 0.39517 0.73085
 C1394 C 0.87026 0.40991 0.74251
 C1395 C 0.92617 0.38001 0.72775
 C1396 C 0.94016 0.36782 0.71782
 C1397 C 0.86682 0.43966 0.77496
 C1398 C 0.85495 0.45344 0.78558
 H1399 H 0.93291 0.42743 0.72988
 H1400 H 0.90576 0.45472 0.75146
 H1401 H 0.88988 0.40324 0.79656
 H1402 H 0.91707 0.37593 0.77494
 H1403 H 0.87917 0.38429 0.71641
 H1404 H 0.85193 0.41166 0.73807
 C1405 C 0.08961 0.60393 0.74066
 C1406 C 0.10436 0.58839 0.72454
 C1407 C 0.11896 0.57369 0.73625
 C1408 C 0.11736 0.57598 0.76294
 C1409 C 0.09148 0.57224 0.76868
 C1410 C 0.07691 0.58691 0.75699
 C1411 C 0.10731 0.61665 0.75630
 C1412 C 0.12192 0.60193 0.76803
 C1413 C 0.07355 0.61947 0.72818
 C1414 C 0.05960 0.63165 0.71819
 C1415 C 0.13273 0.55990 0.77564
 C1416 C 0.14461 0.54616 0.78627
 H1417 H 0.10347 0.58893 0.70559
 H1418 H 0.13057 0.56162 0.72734
 H1419 H 0.08514 0.55920 0.78089
 H1420 H 0.05810 0.58644 0.75918
 H1421 H 0.10831 0.63551 0.75798
 H1422 H 0.13543 0.60820 0.77976
 C1423 C 0.09018 0.39611 0.26014
 C1424 C 0.10755 0.40899 0.27601
 C1425 C 0.12219 0.42357 0.26420
 C1426 C 0.11802 0.42382 0.23769
 C1427 C 0.09212 0.42998 0.23481
 C1428 C 0.07751 0.41544 0.24659
 C1429 C 0.10531 0.38358 0.24187
 C1430 C 0.11996 0.39816 0.23005
 C1431 C 0.07406 0.38075 0.27274
 C1432 C 0.06000 0.36880 0.28285
 C1433 C 0.13341 0.43979 0.22490
 C1434 C 0.14529 0.45349 0.21423
 H1435 H 0.10832 0.40681 0.29483
 H1436 H 0.13550 0.43389 0.27291
 H1437 H 0.08580 0.44451 0.22440
 H1438 H 0.05868 0.41751 0.24627
 H1439 H 0.10461 0.36491 0.23855
 H1440 H 0.13181 0.39199 0.21660
   
