data_POSCAR
  _audit_creation_date              2014-09-24
  _audit_creation_method            'ToBaCCo'
  _symmetry_space_group_name_H-M    'P1'
  _symmetry_Int_Tables_number       1
  _symmetry_cell_setting            triclinic
  loop_
  _symmetry_equiv_pos_as_xyz
 x,y,z
_cell_length_a 55.2891
_cell_length_b 55.3960
_cell_length_c 55.3328
_cell_angle_alpha 89.998800
_cell_angle_beta 90.019800
_cell_angle_gamma 89.984300
loop_
  _atom_site_label
  _atom_site_type_symbol
  _atom_site_fract_x
  _atom_site_fract_y
  _atom_site_fract_z
C1 C 0.24353 0.94787 -0.02241
 C2 C 0.24037 0.93646 0.00007
 C3 C 0.24423 0.94849 0.02188
 C4 C 0.24973 0.97340 0.02174
 C5 C 0.25079 0.98612 -0.00048
 C6 C 0.24771 0.97339 -0.02266
 C7 C 0.24798 0.98683 -0.04419
 C8 C 0.25305 1.01133 -0.04429
 C9 C 0.25575 1.02454 -0.02273
 C10 C 0.25492 1.01166 -0.00048
 C11 C 0.25400 0.98595 0.04331
 C12 C 0.25924 1.01040 0.04324
 C13 C 0.25859 1.02408 0.02179
 C14 C 0.26302 1.04944 0.02178
 C15 C 0.26564 1.06119 -0.00057
 C16 C 0.26056 1.04987 -0.02274
 H17 H 0.24382 0.97902 -0.06151
 H18 H 0.25537 1.01927 -0.06188
 H19 H 0.25360 0.97702 0.06067
 H20 H 0.26455 1.01798 0.06036
 H21 H 0.23692 0.91720 0.00089
 H22 H 0.26897 1.08047 -0.00058
 C23 C 0.75069 0.44826 0.47779
 C24 C 0.75036 0.43614 0.49994
 C25 C 0.75016 0.44858 0.52192
 C26 C 0.75041 0.47415 0.52190
 C27 C 0.75063 0.48680 0.49956
 C28 C 0.75070 0.47383 0.47742
 C29 C 0.75036 0.48680 0.45558
 C30 C 0.75063 0.51190 0.45539
 C31 C 0.75055 0.52516 0.47704
 C32 C 0.75080 0.51250 0.49937
 C33 C 0.75088 0.48741 0.54354
 C34 C 0.75093 0.51250 0.54335
 C35 C 0.75124 0.52546 0.52151
 C36 C 0.75154 0.55101 0.52116
 C37 C 0.75119 0.56316 0.49903
 C38 C 0.75065 0.55074 0.47704
 H39 H 0.74973 0.47776 0.43829
 H40 H 0.75104 0.52069 0.43797
 H41 H 0.75135 0.47863 0.56096
 H42 H 0.75059 0.52154 0.56065
 H43 H 0.75028 0.41655 0.50009
 H44 H 0.75133 0.58275 0.49891
 C45 C 0.73950 1.02194 1.05048
 C46 C 0.73597 1.00025 1.06283
 C47 C 0.73641 0.97773 1.05106
 C48 C 0.73792 0.97746 1.02526
 C49 C 0.74150 0.99949 1.01245
 C50 C 0.74250 1.02173 1.02515
 C51 C 0.74565 1.04326 1.01207
 C52 C 0.74805 1.04306 0.98710
 C53 C 0.74657 1.02142 0.97399
 C54 C 0.74356 0.99938 0.98677
 C55 C 0.73424 0.95626 1.01164
 C56 C 0.73672 0.95611 0.98665
 C57 C 0.74221 0.97728 0.97389
 C58 C 0.74511 0.97720 0.94845
 C59 C 0.74792 0.99910 0.93620
 C60 C 0.74819 1.02117 0.94844
 H61 H 0.74600 1.06065 1.02090
 H62 H 0.75112 1.06019 0.97828
 H63 H 0.72828 0.93961 1.01977
 H64 H 0.73342 0.93923 0.97740
 H65 H 0.73455 1.00111 1.08236
 H66 H 0.74964 0.99900 0.91667
 C67 C 0.25011 0.52086 0.55079
 C68 C 0.24986 0.49884 0.56313
 C69 C 0.24965 0.47676 0.55088
 C70 C 0.24980 0.47653 0.52527
 C71 C 0.24995 0.49871 0.51240
 C72 C 0.25006 0.52096 0.52518
 C73 C 0.24969 0.54264 0.51200
 C74 C 0.24984 0.54258 0.48688
 C75 C 0.24963 0.52083 0.47379
 C76 C 0.24997 0.49865 0.48666
 C77 C 0.25024 0.45478 0.51219
 C78 C 0.25014 0.45472 0.48705
 C79 C 0.25032 0.47640 0.47387
 C80 C 0.25040 0.47652 0.44826
 C81 C 0.24997 0.49855 0.43593
 C82 C 0.24953 0.52061 0.44820
 H83 H 0.24914 0.56000 0.52088
 H84 H 0.25024 0.55990 0.47792
 H85 H 0.25079 0.43747 0.52115
 H86 H 0.24978 0.43736 0.47817
 H87 H 0.24981 0.49888 0.58274
 H88 H 0.24997 0.49854 0.41632
 C89 C 0.94836 0.26840 -0.02145
 C90 C 0.93649 0.26794 0.00104
 C91 C 0.94906 0.26758 0.02291
 C92 C 0.97460 0.26834 0.02282
 C93 C 0.98729 0.26911 0.00055
 C94 C 0.97416 0.27017 -0.02159
 C95 C 0.98719 0.27538 -0.04277
 C96 C 1.01226 0.27624 -0.04285
 C97 C 1.02582 0.27192 -0.02178
 C98 C 1.01316 0.26993 0.00051
 C99 C 0.98770 0.27011 0.04443
 C100 C 1.01275 0.27123 0.04439
 C101 C 1.02614 0.26983 0.02278
 C102 C 1.05195 0.27059 0.02262
 C103 C 1.06382 0.27270 0.00025
 C104 C 1.05158 0.27204 -0.02200
 H105 H 0.97837 0.28042 -0.05939
 H106 H 1.02064 0.28183 -0.05953
 H107 H 0.97871 0.27168 0.06171
 H108 H 1.02110 0.27451 0.06167
 H109 H 0.91694 0.26656 0.00178
 H110 H 1.08341 0.27264 0.00009
 C111 C 0.44762 0.75985 0.47923
 C112 C 0.43554 0.76003 0.50143
 C113 C 0.44807 0.75952 0.52340
 C114 C 0.47370 0.75955 0.52330
 C115 C 0.48631 0.75946 0.50094
 C116 C 0.47325 0.75981 0.47883
 C117 C 0.48617 0.76124 0.45700
 C118 C 0.51131 0.76133 0.45675
 C119 C 0.52467 0.76007 0.47832
 C120 C 0.51206 0.75964 0.50068
 C121 C 0.48705 0.76080 0.54488
 C122 C 0.51220 0.76103 0.54463
 C123 C 0.52513 0.75998 0.52279
 C124 C 0.55075 0.76039 0.52237
 C125 C 0.56282 0.76088 0.50017
 C126 C 0.55029 0.76035 0.47822
 H127 H 0.47705 0.76291 0.43980
 H128 H 0.52007 0.76306 0.43938
 H129 H 0.47827 0.76227 0.56226
 H130 H 0.52131 0.76266 0.56183
 H131 H 0.41592 0.75980 0.50161
 H132 H 0.58244 0.76088 0.49997
 C133 C 0.02153 0.72851 -0.05084
 C134 C -0.00077 0.72669 -0.06290
 C135 C -0.02314 0.72788 -0.05091
 C136 C -0.02317 0.72833 -0.02515
 C137 C -0.00094 0.72993 -0.01230
 C138 C 0.02146 0.72945 -0.02507
 C139 C 0.04295 0.72764 -0.01150
 C140 C 0.04282 0.72894 0.01350
 C141 C 0.02114 0.73131 0.02639
 C142 C -0.00107 0.73092 0.01355
 C143 C -0.04447 0.72472 -0.01175
 C144 C -0.04457 0.72573 0.01331
 C145 C -0.02335 0.73042 0.02651
 C146 C -0.02331 0.73218 0.05231
 C147 C -0.00086 0.73233 0.06430
 C148 C 0.02110 0.73226 0.05189
 H149 H 0.06022 0.72388 -0.01968
 H150 H 0.06000 0.72703 0.02263
 H151 H -0.06126 0.71953 -0.02022
 H152 H -0.06142 0.72123 0.02198
 H153 H -0.00072 0.72655 -0.08248
 H154 H -0.00018 0.73378 0.08383
 C155 C 0.47760 0.24967 0.55210
 C156 C 0.49959 0.25005 0.56458
 C157 C 0.52178 0.25022 0.55247
 C158 C 0.52216 0.24992 0.52688
 C159 C 0.50001 0.24960 0.51386
 C160 C 0.47764 0.24951 0.52649
 C161 C 0.45600 0.24969 0.51316
 C162 C 0.45621 0.24933 0.48803
 C163 C 0.47808 0.24949 0.47509
 C164 C 0.50023 0.24938 0.48813
 C165 C 0.54403 0.24948 0.51394
 C166 C 0.54424 0.24943 0.48882
 C167 C 0.52260 0.24906 0.47551
 C168 C 0.52266 0.24881 0.44991
 C169 C 0.50069 0.24898 0.43741
 C170 C 0.47849 0.24933 0.44949
 H171 H 0.43855 0.25025 0.52193
 H172 H 0.43892 0.24880 0.47894
 H173 H 0.56132 0.24904 0.52301
 H174 H 0.56169 0.24980 0.48005
 H175 H 0.49944 0.25022 0.58419
 H176 H 0.50088 0.24884 0.41780
 C177 C 1.05252 0.02194 0.26347
 C178 C 1.06495 0.00001 0.26456
 C179 C 1.05300 -0.02241 0.26378
 C180 C 1.02713 -0.02250 0.26411
 C181 C 1.01424 -0.00025 0.26275
 C182 C 1.02699 0.02198 0.26250
 C183 C 1.01383 0.04370 0.26254
 C184 C 0.98872 0.04373 0.26194
 C185 C 0.97561 0.02203 0.26142
 C186 C 0.98845 -0.00018 0.26242
 C187 C 1.01366 -0.04381 0.26770
 C188 C 0.98854 -0.04373 0.26722
 C189 C 0.97554 -0.02226 0.26382
 C190 C 0.94993 -0.02211 0.26328
 C191 C 0.93765 -0.00007 0.26230
 C192 C 0.94999 0.02191 0.26117
 H193 H 1.02273 0.06103 0.26365
 H194 H 0.97977 0.06106 0.26257
 H195 H 1.02206 -0.06077 0.27220
 H196 H 0.97946 -0.06070 0.27048
 H197 H 1.08455 0.00069 0.26448
 H198 H 0.91803 -0.00006 0.26172
 C199 C 0.44911 0.47744 0.76050
 C200 C 0.43674 0.49946 0.76068
 C201 C 0.44894 0.52155 0.75990
 C202 C 0.47456 0.52181 0.75967
 C203 C 0.48749 0.49964 0.75954
 C204 C 0.47474 0.47738 0.76013
 C205 C 0.48798 0.45576 0.76145
 C206 C 0.51313 0.45586 0.76128
 C207 C 0.52618 0.47759 0.75983
 C208 C 0.51325 0.49975 0.75946
 C209 C 0.48762 0.54355 0.76069
 C210 C 0.51277 0.54365 0.76070
 C211 C 0.52600 0.52202 0.75962
 C212 C 0.55164 0.52196 0.75983
 C213 C 0.56402 0.49994 0.76025
 C214 C 0.55181 0.47784 0.75988
 H215 H 0.47912 0.43847 0.76324
 H216 H 0.52216 0.43864 0.76297
 H217 H 0.47859 0.56080 0.76217
 H218 H 0.52163 0.56097 0.76217
 H219 H 0.41711 0.49938 0.76066
 H220 H 0.58364 0.50002 0.76011
 C221 C 1.02251 0.94820 0.73495
 C222 C 0.99994 0.93648 0.73504
 C223 C 0.97810 0.94908 0.73526
 C224 C 0.97831 0.97456 0.73470
 C225 C 1.00065 0.98717 0.73443
 C226 C 1.02281 0.97401 0.73368
 C227 C 1.04415 0.98705 0.72923
 C228 C 1.04430 1.01210 0.72859
 C229 C 1.02312 1.02566 0.73232
 C230 C 1.00075 1.01302 0.73376
 C231 C 0.95675 0.98767 0.73259
 C232 C 0.95685 1.01267 0.73150
 C233 C 0.97847 1.02600 0.73337
 C234 C 0.97865 1.05176 0.73256
 C235 C 1.00108 1.06359 0.73098
 C236 C 1.02334 1.05139 0.73213
 H237 H 1.06094 0.97831 0.72462
 H238 H 1.06118 1.02045 0.72355
 H239 H 0.93947 0.97874 0.73067
 H240 H 0.93964 1.02101 0.72787
 H241 H 0.99907 0.91695 0.73617
 H242 H 1.00120 1.08315 0.73100
 C243 C 0.47866 0.55131 0.23937
 C244 C 0.50071 0.56364 0.23922
 C245 C 0.52284 0.55141 0.23986
 C246 C 0.52307 0.52584 0.23990
 C247 C 0.50085 0.51297 0.23999
 C248 C 0.47857 0.52574 0.23954
 C249 C 0.45688 0.51258 0.23814
 C250 C 0.45695 0.48749 0.23818
 C251 C 0.47870 0.47443 0.23954
 C252 C 0.50092 0.48728 0.23992
 C253 C 0.54484 0.51277 0.23875
 C254 C 0.54491 0.48767 0.23859
 C255 C 0.52321 0.47450 0.23964
 C256 C 0.52309 0.44893 0.23930
 C257 C 0.50101 0.43662 0.23889
 C258 C 0.47891 0.44887 0.23940
 H259 H 0.43957 0.52146 0.23641
 H260 H 0.43968 0.47852 0.23646
 H261 H 0.56213 0.52176 0.23731
 H262 H 0.56224 0.47878 0.23705
 H263 H 0.50065 0.58322 0.23940
 H264 H 0.50104 0.41703 0.23897
 O265 O 0.25259 0.18665 0.21453
 O266 O 0.28048 0.18113 0.24871
 O267 O 0.18919 0.21563 0.24881
 O268 O 0.18159 0.24516 0.27428
 O269 O 0.21877 0.24930 0.18511
 O270 O 0.25040 0.27704 0.17929
 O271 O 0.25308 0.28289 0.31065
 O272 O 0.22470 0.25105 0.31729
 O273 O 0.31464 0.25059 0.28119
 O274 O 0.32122 0.22237 0.25031
 O275 O 0.28500 0.31198 0.24973
 O276 O 0.25316 0.31738 0.21979
 O277 O 0.25340 0.31188 0.28147
 O278 O 0.22150 0.31533 0.24870
 O279 O 0.31410 0.28285 0.24892
 O280 O 0.32069 0.25174 0.22047
 O281 O 0.28579 0.25064 0.31052
 O282 O 0.25247 0.22271 0.31827
 O283 O 0.25257 0.21581 0.18557
 O284 O 0.28062 0.25000 0.18018
 O285 O 0.18955 0.24924 0.21417
 O286 O 0.18527 0.27880 0.24743
 O287 O 0.21857 0.18665 0.24831
 O288 O 0.25042 0.18065 0.27605
 Zr289 Zr 0.25129 0.20601 0.24739
 O290 O 0.27381 0.22689 0.26984
 Zr291 Zr 0.20860 0.24834 0.24730
 O292 O 0.22939 0.27082 0.27012
 Zr293 Zr 0.25123 0.24852 0.20482
 O294 O 0.27343 0.27111 0.22574
 Zr295 Zr 0.25284 0.25004 0.29143
 O296 O 0.23007 0.22733 0.27069
 Zr297 Zr 0.29497 0.25012 0.24873
 O298 O 0.27462 0.22708 0.22588
 Zr299 Zr 0.25231 0.29242 0.24889
 O300 O 0.22976 0.27160 0.22602
 O301 O 0.22891 0.22612 0.22498
 O302 O 0.27509 0.27259 0.27135
 C303 C 0.25327 0.19366 0.19239
 C304 C 0.19633 0.19349 0.24922
 C305 C 0.19657 0.24985 0.19199
 C306 C 0.25345 0.30504 0.30365
 C307 C 0.30791 0.25080 0.30341
 C308 C 0.30719 0.30501 0.24940
 H309 H 0.28421 0.21605 0.27953
 H310 H 0.28339 0.28122 0.21486
 H311 H 0.21863 0.21573 0.21468
 H312 H 0.21859 0.28087 0.28024
 H313 H 0.21217 0.23957 0.31170
 H314 H 0.18477 0.25777 0.28654
 H315 H 0.31535 0.24007 0.20803
 H316 H 0.27488 0.24495 0.16395
 H317 H 0.26499 0.21067 0.31411
 H318 H 0.23918 0.18705 0.28842
 H319 H 0.25629 0.33373 0.22638
 H320 H 0.23947 0.28960 0.18581
 H321 H 0.27452 0.16492 0.24391
 H322 H 0.31536 0.20928 0.23965
 H323 H 0.16868 0.27327 0.24344
 H324 H 0.22634 0.33147 0.25472
 O325 O 0.74913 0.81404 0.21740
 O326 O 0.72292 0.82097 0.25084
 O327 O 0.81284 0.78436 0.25143
 O328 O 0.81971 0.75491 0.27709
 O329 O 0.78304 0.75154 0.18748
 O330 O 0.75081 0.72340 0.18206
 O331 O 0.74839 0.71751 0.31268
 O332 O 0.77733 0.74914 0.31918
 O333 O 0.68700 0.75075 0.28397
 O334 O 0.68029 0.77871 0.24942
 O335 O 0.71617 0.68879 0.25182
 O336 O 0.74775 0.68359 0.22163
 O337 O 0.74787 0.68848 0.28354
 O338 O 0.77955 0.68510 0.25054
 O339 O 0.68724 0.71806 0.25146
 O340 O 0.68001 0.74897 0.22368
 O341 O 0.71614 0.74994 0.31301
 O342 O 0.74603 0.77718 0.32080
 O343 O 0.74918 0.78531 0.18801
 O344 O 0.72158 0.75148 0.18176
 O345 O 0.81195 0.75126 0.21687
 O346 O 0.81610 0.72156 0.24994
 O347 O 0.78358 0.81335 0.25120
 O348 O 0.74828 0.82110 0.27732
 Zr349 Zr 0.75047 0.79451 0.24994
 O350 O 0.72794 0.77376 0.27243
 Zr351 Zr 0.79288 0.75210 0.24987
 O352 O 0.77198 0.72950 0.27235
 Zr353 Zr 0.75041 0.75236 0.20710
 O354 O 0.72790 0.72990 0.22798
 Zr355 Zr 0.74879 0.75038 0.29371
 O356 O 0.77170 0.77339 0.27343
 Zr357 Zr 0.70645 0.75079 0.25121
 O358 O 0.72700 0.77365 0.22836
 Zr359 Zr 0.74890 0.70822 0.25101
 O360 O 0.77166 0.72908 0.22836
 O361 O 0.77282 0.77455 0.22745
 O362 O 0.72628 0.72806 0.27362
 C363 C 0.74849 0.80737 0.19518
 C364 C 0.80580 0.80648 0.25201
 C365 C 0.80518 0.75084 0.19462
 C366 C 0.74791 0.69538 0.30573
 C367 C 0.69396 0.75034 0.30614
 C368 C 0.69403 0.69587 0.25170
 H369 H 0.71822 0.78469 0.28269
 H370 H 0.71782 0.71994 0.21707
 H371 H 0.78316 0.78497 0.21724
 H372 H 0.78271 0.71932 0.28240
 H373 H 0.78888 0.76200 0.31460
 H374 H 0.81614 0.74248 0.28942
 H375 H 0.68674 0.75774 0.20964
 H376 H 0.72792 0.75597 0.16558
 H377 H 0.75690 0.79045 0.31595
 H378 H 0.76224 0.81873 0.28825
 H379 H 0.74461 0.66717 0.22805
 H380 H 0.76269 0.71142 0.18801
 H381 H 0.70998 0.81529 0.23985
 H382 H 0.68341 0.79002 0.26289
 H383 H 0.83273 0.72706 0.24607
 H384 H 0.77459 0.66893 0.25639
 O385 O 0.75138 0.18716 0.78291
 O386 O 0.72543 0.18000 0.74953
 O387 O 0.81454 0.21758 0.74961
 O388 O 0.82180 0.24702 0.72440
 O389 O 0.78417 0.25015 0.81345
 O390 O 0.75259 0.27601 0.82058
 O391 O 0.74941 0.28380 0.68811
 O392 O 0.77745 0.25269 0.68065
 O393 O 0.68834 0.25147 0.71785
 O394 O 0.67908 0.22631 0.74970
 O395 O 0.71838 0.31309 0.74909
 O396 O 0.75030 0.31851 0.77880
 O397 O 0.74949 0.31298 0.71710
 O398 O 0.78172 0.31622 0.74985
 O399 O 0.68916 0.28419 0.75064
 O400 O 0.68448 0.24709 0.78002
 O401 O 0.71695 0.25165 0.68830
 O402 O 0.75096 0.22334 0.68082
 O403 O 0.75122 0.21573 0.81248
 O404 O 0.72145 0.24946 0.81705
 O405 O 0.81347 0.25062 0.78447
 O406 O 0.81749 0.28047 0.75119
 O407 O 0.78565 0.18822 0.74889
 O408 O 0.75129 0.18164 0.72206
 Zr409 Zr 0.75241 0.20701 0.75059
 O410 O 0.72920 0.22785 0.72881
 Zr411 Zr 0.79456 0.24973 0.75121
 O412 O 0.77359 0.27195 0.72837
 Zr413 Zr 0.75186 0.24888 0.79365
 O414 O 0.72980 0.27214 0.77311
 Zr415 Zr 0.75003 0.25108 0.70723
 O416 O 0.77344 0.22858 0.72748
 Zr417 Zr 0.70814 0.25111 0.75022
 O418 O 0.72877 0.22755 0.77224
 Zr419 Zr 0.75084 0.29344 0.74978
 O420 O 0.77316 0.27250 0.77273
 O421 O 0.77454 0.22698 0.77328
 O422 O 0.72786 0.27362 0.72751
 C423 C 0.75083 0.19369 0.80517
 C424 C 0.80781 0.19539 0.74855
 C425 C 0.80637 0.25098 0.80664
 C426 C 0.74914 0.30596 0.69495
 C427 C 0.69488 0.25175 0.69559
 C428 C 0.69619 0.30632 0.74988
 H429 H 0.71891 0.21699 0.71907
 H430 H 0.72014 0.28236 0.78414
 H431 H 0.78498 0.21661 0.78345
 H432 H 0.78428 0.28202 0.71817
 H433 H 0.79077 0.24223 0.68641
 H434 H 0.81831 0.25938 0.71197
 H435 H 0.68401 0.26266 0.78876
 H436 H 0.72652 0.24372 0.83327
 H437 H 0.73744 0.21210 0.68405
 H438 H 0.76310 0.18717 0.70981
 H439 H 0.74720 0.33487 0.77218
 H440 H 0.76072 0.29016 0.81332
 H441 H 0.71233 0.18548 0.76043
 H442 H 0.68521 0.21133 0.74216
 H443 H 0.83409 0.27518 0.75548
 H444 H 0.77698 0.33230 0.74359
 O445 O 0.24842 0.81044 0.78493
 O446 O 0.27672 0.81634 0.75113
 O447 O 0.18568 0.78140 0.75017
 O448 O 0.17829 0.75219 0.72425
 O449 O 0.21495 0.74730 0.81370
 O450 O 0.24700 0.71960 0.81923
 O451 O 0.25010 0.71496 0.68800
 O452 O 0.22144 0.74674 0.68153
 O453 O 0.31144 0.74758 0.71776
 O454 O 0.31774 0.77523 0.74919
 O455 O 0.28168 0.68559 0.74871
 O456 O 0.24994 0.67982 0.77856
 O457 O 0.25030 0.68579 0.71698
 O458 O 0.21830 0.68200 0.74960
 O459 O 0.31092 0.71455 0.74985
 O460 O 0.31726 0.74550 0.77861
 O461 O 0.28243 0.74762 0.68856
 O462 O 0.24913 0.77514 0.68077
 O463 O 0.24848 0.78103 0.81365
 O464 O 0.27685 0.74716 0.81892
 O465 O 0.18609 0.74758 0.78426
 O466 O 0.18196 0.71832 0.75082
 O467 O 0.21472 0.81069 0.75100
 O468 O 0.24686 0.81694 0.72340
 Zr469 Zr 0.24761 0.79138 0.75189
 O470 O 0.27032 0.77073 0.72937
 Zr471 Zr 0.20521 0.74882 0.75132
 O472 O 0.22611 0.72661 0.72845
 Zr473 Zr 0.24759 0.74847 0.79411
 O474 O 0.27001 0.72619 0.77305
 Zr475 Zr 0.24951 0.74769 0.70748
 O476 O 0.22660 0.77019 0.72826
 Zr477 Zr 0.29164 0.74735 0.75026
 O478 O 0.27100 0.77013 0.77326
 Zr479 Zr 0.24902 0.70502 0.74966
 O480 O 0.22631 0.72551 0.77260
 O481 O 0.22527 0.77092 0.77398
 O482 O 0.27183 0.72503 0.72741
 C483 C 0.24890 0.80325 0.80702
 C484 C 0.19255 0.80361 0.75004
 C485 C 0.19283 0.74678 0.80651
 C486 C 0.25049 0.69277 0.69485
 C487 C 0.30458 0.74769 0.69555
 C488 C 0.30389 0.69242 0.74918
 H489 H 0.28066 0.78172 0.71981
 H490 H 0.27998 0.71600 0.78388
 H491 H 0.21485 0.78114 0.78430
 H492 H 0.21540 0.71660 0.71821
 H493 H 0.20889 0.75823 0.68709
 H494 H 0.18150 0.73966 0.71192
 H495 H 0.31173 0.75690 0.79122
 H496 H 0.27090 0.75184 0.83519
 H497 H 0.26122 0.78747 0.68534
 H498 H 0.23548 0.81076 0.71105
 H499 H 0.25310 0.66352 0.77184
 H500 H 0.23587 0.70721 0.81273
 H501 H 0.27062 0.83250 0.75595
 H502 H 0.31173 0.78818 0.75993
 H503 H 0.16533 0.72378 0.75476
 H504 H 0.22321 0.66592 0.74345
 O505 O 0.24883 0.31223 0.71745
 O506 O 0.21980 0.31708 0.75071
 O507 O 0.31187 0.28373 0.75194
 O508 O 0.31947 0.25434 0.77776
 O509 O 0.28282 0.24953 0.68834
 O510 O 0.25062 0.22101 0.68336
 O511 O 0.24811 0.21702 0.81402
 O512 O 0.27651 0.24867 0.82053
 O513 O 0.18652 0.25005 0.78463
 O514 O 0.18096 0.27782 0.74815
 O515 O 0.21612 0.18728 0.75336
 O516 O 0.24783 0.18180 0.72349
 O517 O 0.24794 0.18758 0.78531
 O518 O 0.27957 0.18395 0.75237
 O519 O 0.18703 0.21641 0.75263
 O520 O 0.17882 0.24644 0.72541
 O521 O 0.21558 0.24947 0.81375
 O522 O 0.24903 0.27703 0.82140
 O523 O 0.24895 0.28315 0.68840
 O524 O 0.22144 0.24928 0.68246
 O525 O 0.31169 0.24987 0.71776
 O526 O 0.31592 0.22050 0.75101
 O527 O 0.28243 0.31266 0.75124
 O528 O 0.25050 0.31922 0.77827
 Zr529 Zr 0.24978 0.29313 0.75028
 O530 O 0.22733 0.27259 0.77305
 Zr531 Zr 0.29255 0.25094 0.75069
 O532 O 0.27175 0.22860 0.77356
 Zr533 Zr 0.25016 0.25040 0.70790
 O534 O 0.22775 0.22815 0.72908
 Zr535 Zr 0.24839 0.24962 0.79464
 O536 O 0.27108 0.27218 0.77382
 Zr537 Zr 0.20613 0.24922 0.75198
 O538 O 0.22663 0.27180 0.72882
 Zr539 Zr 0.24878 0.20688 0.75249
 O540 O 0.27147 0.22750 0.72952
 O541 O 0.27230 0.27293 0.72810
 O542 O 0.22599 0.22691 0.77483
 C543 C 0.24831 0.30530 0.69531
 C544 C 0.30469 0.30587 0.75216
 C545 C 0.30495 0.24913 0.69551
 C546 C 0.24795 0.19479 0.80739
 C547 C 0.19342 0.24998 0.80682
 C548 C 0.19393 0.19424 0.75303
 H549 H 0.21728 0.28362 0.78284
 H550 H 0.21773 0.21799 0.71829
 H551 H 0.28263 0.28326 0.71780
 H552 H 0.28255 0.21864 0.78375
 H553 H 0.28913 0.26002 0.81485
 H554 H 0.31648 0.24161 0.78994
 H555 H 0.18615 0.25215 0.71015
 H556 H 0.22790 0.25338 0.66623
 H557 H 0.23664 0.28920 0.81721
 H558 H 0.26126 0.31286 0.79108
 H559 H 0.24480 0.16546 0.73014
 H560 H 0.26271 0.20928 0.68938
 H561 H 0.22540 0.33348 0.74613
 H562 H 0.18267 0.28856 0.76233
 H563 H 0.33254 0.22605 0.74719
 H564 H 0.27473 0.16783 0.75843
 O565 O 0.75219 0.68706 0.71568
 O566 O 0.77991 0.68131 0.74990
 O567 O 0.68864 0.71587 0.74958
 O568 O 0.68093 0.74526 0.77526
 O569 O 0.71867 0.74984 0.68632
 O570 O 0.75038 0.77769 0.68093
 O571 O 0.75222 0.78275 0.81226
 O572 O 0.72381 0.75098 0.81858
 O573 O 0.81394 0.75025 0.78305
 O574 O 0.82077 0.72262 0.75187
 O575 O 0.78450 0.81222 0.75155
 O576 O 0.75282 0.81772 0.72157
 O577 O 0.75266 0.81187 0.78322
 O578 O 0.72103 0.81552 0.75030
 O579 O 0.81363 0.78312 0.75095
 O580 O 0.82041 0.75216 0.72239
 O581 O 0.78491 0.75001 0.81221
 O582 O 0.75139 0.72255 0.81957
 O583 O 0.75248 0.71637 0.68686
 O584 O 0.78051 0.75054 0.68175
 O585 O 0.68927 0.74962 0.71521
 O586 O 0.68479 0.77905 0.74857
 O587 O 0.71800 0.68688 0.74912
 O588 O 0.74970 0.68077 0.77716
 Zr589 Zr 0.75075 0.70624 0.74859
 O590 O 0.77316 0.72698 0.77126
 Zr591 Zr 0.70810 0.74857 0.74845
 O592 O 0.72878 0.77091 0.77151
 Zr593 Zr 0.75101 0.74898 0.70624
 O594 O 0.77310 0.77143 0.72742
 Zr595 Zr 0.75208 0.75001 0.79287
 O596 O 0.72939 0.72743 0.77188
 Zr597 Zr 0.79450 0.75034 0.75045
 O598 O 0.77425 0.72743 0.72736
 Zr599 Zr 0.75184 0.79261 0.75055
 O600 O 0.72941 0.77194 0.72744
 O601 O 0.72855 0.72648 0.72614
 O602 O 0.77450 0.77270 0.77310
 C603 C 0.75301 0.69419 0.69359
 C604 C 0.69575 0.69371 0.74986
 C605 C 0.69643 0.75031 0.69307
 C606 C 0.75252 0.80492 0.80535
 C607 C 0.80708 0.74996 0.80523
 C608 C 0.80670 0.80528 0.75131
 H609 H 0.78345 0.71603 0.78093
 H610 H 0.78312 0.78160 0.71665
 H611 H 0.71833 0.71616 0.71572
 H612 H 0.71792 0.78090 0.78161
 H613 H 0.71123 0.73964 0.81282
 H614 H 0.68399 0.75786 0.78756
 H615 H 0.81508 0.74068 0.70977
 H616 H 0.77482 0.74564 0.66545
 H617 H 0.76362 0.71028 0.81521
 H618 H 0.73812 0.68693 0.78932
 H619 H 0.75587 0.83405 0.72825
 H620 H 0.73926 0.79013 0.68737
 H621 H 0.77392 0.66512 0.74507
 H622 H 0.81486 0.70954 0.74122
 H623 H 0.66822 0.77354 0.74446
 H624 H 0.72582 0.83164 0.75642
 O625 O 0.24910 0.68652 0.28299
 O626 O 0.22360 0.67904 0.24941
 O627 O 0.31273 0.71653 0.24985
 O628 O 0.32033 0.74574 0.22460
 O629 O 0.28184 0.74968 0.31325
 O630 O 0.25029 0.77572 0.31981
 O631 O 0.24805 0.78221 0.18721
 O632 O 0.27629 0.75114 0.18030
 O633 O 0.18688 0.74999 0.21672
 O634 O 0.17725 0.72550 0.24887
 O635 O 0.21683 0.81215 0.24765
 O636 O 0.24849 0.81779 0.27756
 O637 O 0.24808 0.81164 0.21593
 O638 O 0.28011 0.81515 0.24884
 O639 O 0.18748 0.78338 0.24913
 O640 O 0.18245 0.74663 0.27893
 O641 O 0.21574 0.74960 0.18742
 O642 O 0.24998 0.72167 0.18055
 O643 O 0.24872 0.71535 0.31229
 O644 O 0.21908 0.74926 0.31625
 O645 O 0.31138 0.74978 0.28450
 O646 O 0.31572 0.77943 0.25102
 O647 O 0.28381 0.68720 0.24927
 O648 O 0.24969 0.68037 0.22223
 Zr649 Zr 0.25058 0.70604 0.25049
 O650 O 0.22761 0.72670 0.22833
 Zr651 Zr 0.29279 0.74869 0.25107
 O652 O 0.27208 0.77070 0.22780
 Zr653 Zr 0.24971 0.74832 0.29314
 O654 O 0.22789 0.77142 0.27215
 Zr655 Zr 0.24865 0.74966 0.20666
 O656 O 0.27185 0.72734 0.22736
 Zr657 Zr 0.20638 0.75022 0.24928
 O658 O 0.22677 0.72684 0.27171
 Zr659 Zr 0.24919 0.79242 0.24880
 O660 O 0.27125 0.77169 0.27218
 O661 O 0.27254 0.72618 0.27320
 O662 O 0.22634 0.77246 0.22651
 C663 C 0.24830 0.69325 0.30518
 C664 C 0.30597 0.69434 0.24896
 C665 C 0.30411 0.75036 0.30661
 C666 C 0.24778 0.80443 0.19384
 C667 C 0.19361 0.74966 0.19452
 C668 C 0.19461 0.80547 0.24829
 H669 H 0.21741 0.71571 0.21863
 H670 H 0.21816 0.78178 0.28299
 H671 H 0.28285 0.71586 0.28355
 H672 H 0.28285 0.78065 0.21759
 H673 H 0.28963 0.74084 0.18632
 H674 H 0.31699 0.75799 0.21202
 H675 H 0.18190 0.76232 0.28744
 H676 H 0.22397 0.74367 0.33257
 H677 H 0.23668 0.71024 0.18396
 H678 H 0.26172 0.68566 0.21009
 H679 H 0.24550 0.83408 0.27076
 H680 H 0.25852 0.78977 0.31247
 H681 H 0.21036 0.68464 0.26007
 H682 H 0.18340 0.71041 0.24158
 H683 H 0.33226 0.77418 0.25558
 H684 H 0.27544 0.83118 0.24239
 O685 O 0.75059 0.31120 0.28396
 O686 O 0.77839 0.31699 0.24985
 O687 O 0.68742 0.28186 0.24991
 O688 O 0.67982 0.25251 0.22432
 O689 O 0.71727 0.24832 0.31345
 O690 O 0.74926 0.22056 0.31886
 O691 O 0.75111 0.21527 0.18763
 O692 O 0.72273 0.24712 0.18115
 O693 O 0.81297 0.24824 0.21677
 O694 O 0.81949 0.27586 0.24807
 O695 O 0.78350 0.18622 0.24803
 O696 O 0.75219 0.18055 0.27834
 O697 O 0.75157 0.18622 0.21674
 O698 O 0.72015 0.18255 0.24983
 O699 O 0.81272 0.21519 0.24888
 O700 O 0.81923 0.24624 0.27755
 O701 O 0.78377 0.24792 0.18776
 O702 O 0.75040 0.27537 0.18006
 O703 O 0.75098 0.28198 0.31286
 O704 O 0.77917 0.24799 0.31817
 O705 O 0.68817 0.24825 0.28424
 O706 O 0.68382 0.21879 0.25096
 O707 O 0.71641 0.31120 0.25036
 O708 O 0.74827 0.31733 0.22243
 Zr709 Zr 0.74934 0.29195 0.25108
 O710 O 0.77192 0.27122 0.22852
 Zr711 Zr 0.70701 0.24935 0.25114
 O712 O 0.72775 0.22708 0.22820
 Zr713 Zr 0.74973 0.24929 0.29356
 O714 O 0.77200 0.22690 0.27245
 Zr715 Zr 0.75096 0.24807 0.20693
 O716 O 0.72816 0.27061 0.22777
 Zr717 Zr 0.79341 0.24797 0.24938
 O718 O 0.77293 0.27085 0.27239
 Zr719 Zr 0.75084 0.20560 0.24933
 O720 O 0.72830 0.22617 0.27236
 O721 O 0.72722 0.27162 0.27350
 O722 O 0.77346 0.22551 0.22677
 C723 C 0.75141 0.30414 0.30607
 C724 C 0.69425 0.30407 0.24958
 C725 C 0.69509 0.24770 0.30644
 C726 C 0.75139 0.19311 0.19458
 C727 C 0.80597 0.24823 0.19461
 C728 C 0.80570 0.19306 0.24830
 H729 H 0.78217 0.28219 0.21884
 H730 H 0.78207 0.21677 0.28323
 H731 H 0.71691 0.28191 0.28386
 H732 H 0.71693 0.21703 0.21812
 H733 H 0.71017 0.25853 0.18684
 H734 H 0.68301 0.24001 0.21196
 H735 H 0.81379 0.25768 0.29015
 H736 H 0.77337 0.25282 0.33444
 H737 H 0.76250 0.28774 0.18449
 H738 H 0.73678 0.31106 0.21023
 H739 H 0.75530 0.16423 0.27167
 H740 H 0.73812 0.20812 0.31247
 H741 H 0.77230 0.33318 0.25458
 H742 H 0.81348 0.28889 0.25873
 H743 H 0.66722 0.22422 0.25508
 H744 H 0.72499 0.16643 0.24375
 N745 N 0.27337 0.10060 0.06184
 C746 C 0.26127 0.09385 0.08200
 N747 N 0.24992 0.07219 0.08236
 N748 N 0.25081 0.05768 0.06316
 C749 C 0.26323 0.06407 0.04292
 N750 N 0.27423 0.08607 0.04270
 C751 C 0.25977 0.10993 0.10229
 C752 C 0.25853 0.12405 0.11882
 C753 C 0.25709 0.14164 0.13782
 N754 N 0.25652 0.13480 0.16136
 N755 N 0.25527 0.15133 0.17885
 C756 C 0.25455 0.17523 0.17334
 N757 N 0.25511 0.18195 0.14974
 N758 N 0.25635 0.16545 0.13230
 N759 N 0.73651 0.59842 0.56538
 C760 C 0.75350 0.59494 0.58269
 N761 N 0.76985 0.57690 0.57997
 N762 N 0.76912 0.56267 0.56056
 C763 C 0.75192 0.56594 0.54331
 N764 N 0.73578 0.58421 0.54599
 C765 C 0.75453 0.61081 0.60313
 C766 C 0.75501 0.62482 0.61977
 C767 C 0.75514 0.64233 0.63885
 N768 N 0.75440 0.63542 0.66235
 N769 N 0.75389 0.65191 0.67990
 C770 C 0.75406 0.67584 0.67448
 N771 N 0.75483 0.68264 0.65093
 N772 N 0.75535 0.66618 0.63342
 N773 N 0.73042 0.93878 0.10369
 C774 C 0.73962 0.91767 0.09550
 N775 N 0.74757 0.91631 0.07239
 N776 N 0.74622 0.93550 0.05791
 C777 C 0.73670 0.95673 0.06581
 N778 N 0.72910 0.95790 0.08919
 C779 C 0.74148 0.89735 0.11145
 C780 C 0.74294 0.88083 0.12556
 C781 C 0.74457 0.86189 0.14316
 N782 N 0.74516 0.83839 0.13631
 N783 N 0.74647 0.82093 0.15286
 C784 C 0.74722 0.82644 0.17678
 N785 N 0.74663 0.84999 0.18353
 N786 N 0.74533 0.86741 0.16700
 N787 N 0.26507 0.43272 0.59838
 C788 C 0.24827 0.41527 0.59490
 N789 N 0.23195 0.41780 0.57677
 N790 N 0.23254 0.43717 0.56247
 C791 C 0.24955 0.45457 0.56576
 N792 N 0.26566 0.45206 0.58411
 C793 C 0.24730 0.39493 0.61092
 C794 C 0.24685 0.37841 0.62510
 C795 C 0.24668 0.35951 0.64283
 N796 N 0.24722 0.33596 0.63614
 N797 N 0.24760 0.31858 0.65283
 C798 C 0.24749 0.32422 0.67673
 N799 N 0.24692 0.34783 0.68331
 N800 N 0.24653 0.36516 0.66665
 N801 N 0.76630 0.06446 0.90113
 C802 C 0.75024 0.08265 0.90443
 N803 N 0.73369 0.08089 0.92242
 N804 N 0.73330 0.06154 0.93673
 C805 C 0.74953 0.04338 0.93364
 N806 N 0.76591 0.04513 0.91544
 C807 C 0.75011 0.10294 0.88834
 C808 C 0.75002 0.11953 0.87425
 C809 C 0.74999 0.13866 0.85678
 N810 N 0.75012 0.16211 0.86383
 N811 N 0.75028 0.17974 0.84741
 C812 C 0.75031 0.17446 0.82343
 N813 N 0.75016 0.15095 0.81649
 N814 N 0.75000 0.13336 0.83288
 N815 N 0.26486 0.56499 0.40100
 C816 C 0.24788 0.58229 0.40446
 N817 N 0.23144 0.57952 0.42242
 N818 N 0.23207 0.56006 0.43659
 C819 C 0.24926 0.54282 0.43335
 N820 N 0.26550 0.54557 0.41515
 C821 C 0.24693 0.60277 0.38862
 C822 C 0.24651 0.61943 0.37461
 C823 C 0.24640 0.63851 0.35709
 N824 N 0.24675 0.66200 0.36402
 N825 N 0.24721 0.67955 0.34752
 C826 C 0.24738 0.67415 0.32356
 N827 N 0.24699 0.65061 0.31674
 N828 N 0.24652 0.63310 0.33321
 N829 N 0.25715 0.92434 0.91741
 C830 C 0.24595 0.90261 0.91803
 N831 N 0.23391 0.89602 0.93828
 N832 N 0.23294 0.91079 0.95724
 C833 C 0.24372 0.93289 0.95672
 N834 N 0.25614 0.93908 0.93642
 C835 C 0.24720 0.88647 0.89778
 C836 C 0.24806 0.87238 0.88120
 C837 C 0.24882 0.85491 0.86206
 N838 N 0.24930 0.83104 0.86739
 N839 N 0.24952 0.81465 0.84979
 C840 C 0.24926 0.82155 0.82624
 N841 N 0.24883 0.84549 0.82093
 N842 N 0.24861 0.86191 0.83856
 N843 N 0.76840 0.42207 0.41893
 C844 C 0.75198 0.40406 0.41642
 N845 N 0.73510 0.40075 0.43386
 N846 N 0.73455 0.41507 0.45317
 C847 C 0.75077 0.43330 0.45565
 N848 N 0.76785 0.43641 0.43827
 C849 C 0.75287 0.38803 0.39610
 C850 C 0.75326 0.37389 0.37956
 C851 C 0.75335 0.35626 0.36058
 N852 N 0.75356 0.33245 0.36613
 N853 N 0.75308 0.31589 0.34870
 C854 C 0.75234 0.32258 0.32511
 N855 N 0.75217 0.34648 0.31957
 N856 N 0.75264 0.36306 0.33704
 N857 N 0.10442 0.27333 0.06228
 C858 C 0.09638 0.26180 0.08228
 N859 N 0.07346 0.25318 0.08264
 N860 N 0.05899 0.25619 0.06359
 C861 C 0.06672 0.26811 0.04352
 N862 N 0.08994 0.27631 0.04330
 C863 C 0.11226 0.25857 0.10254
 C864 C 0.12638 0.25625 0.11897
 C865 C 0.14409 0.25395 0.13779
 N866 N 0.13742 0.25349 0.16138
 N867 N 0.15411 0.25202 0.17873
 C868 C 0.17800 0.25099 0.17304
 N869 N 0.18456 0.25141 0.14940
 N870 N 0.16790 0.25287 0.13208
 N871 N 0.59944 0.77421 0.56580
 C872 C 0.59562 0.75757 0.58334
 N873 N 0.57680 0.74203 0.58114
 N874 N 0.56221 0.74316 0.56199
 C875 C 0.56585 0.75997 0.54448
 N876 N 0.58486 0.77534 0.54667
 C877 C 0.61199 0.75588 0.60341
 C878 C 0.62633 0.75462 0.61977
 C879 C 0.64409 0.75329 0.63865
 N880 N 0.63735 0.75276 0.66221
 N881 N 0.65401 0.75177 0.67962
 C882 C 0.67794 0.75129 0.67402
 N883 N 0.68457 0.75181 0.65040
 N884 N 0.66793 0.75280 0.63302
 N885 N 0.06176 0.72469 0.89723
 C886 C 0.08187 0.73595 0.90542
 N887 N 0.08210 0.74477 0.92825
 N888 N 0.06282 0.74219 0.94249
 C889 C 0.04264 0.73053 0.93462
 N890 N 0.04254 0.72215 0.91148
 C891 C 0.10237 0.73875 0.88979
 C892 C 0.11901 0.74077 0.87587
 C893 C 0.13806 0.74280 0.85838
 N894 N 0.16160 0.74312 0.86530
 N895 N 0.17914 0.74449 0.84881
 C896 C 0.17369 0.74556 0.82488
 N897 N 0.15009 0.74527 0.81808
 N898 N 0.13259 0.74391 0.83454
 N899 N 0.58193 0.23113 0.42450
 C900 C 0.58464 0.24749 0.40646
 N901 N 0.56723 0.26434 0.40292
 N902 N 0.54774 0.26491 0.41703
 C903 C 0.54504 0.24874 0.43528
 N904 N 0.56242 0.23170 0.43863
 C905 C 0.60510 0.24652 0.39056
 C906 C 0.62170 0.24608 0.37645
 C907 C 0.64066 0.24596 0.35877
 N908 N 0.63505 0.24586 0.33494
 N909 N 0.65245 0.24629 0.31832
 C910 C 0.67609 0.24686 0.32496
 N911 N 0.68169 0.24692 0.34888
 N912 N 0.66425 0.24650 0.36552
 N913 N 0.91504 0.74616 0.07183
 C914 C 0.91616 0.74060 0.09565
 N915 N 0.93722 0.73234 0.10496
 N916 N 0.95651 0.72954 0.09086
 C917 C 0.95558 0.73463 0.06680
 N918 N 0.93441 0.74333 0.05775
 C919 C 0.89549 0.74343 0.11109
 C920 C 0.87881 0.74542 0.12498
 C921 C 0.85981 0.74736 0.14254
 N922 N 0.86534 0.74815 0.16638
 N923 N 0.84789 0.74937 0.18291
 C924 C 0.82427 0.74982 0.17618
 N925 N 0.81876 0.74908 0.15225
 N926 N 0.83625 0.74784 0.13570
 N927 N 0.41837 0.23223 0.57780
 C928 C 0.41573 0.24870 0.59575
 N929 N 0.43316 0.26555 0.59912
 N930 N 0.45260 0.26602 0.58494
 C931 C 0.45523 0.24974 0.56678
 N932 N 0.43784 0.23270 0.56358
 C933 C 0.39531 0.24784 0.61172
 C934 C 0.37871 0.24747 0.62584
 C935 C 0.35967 0.24741 0.64346
 N936 N 0.36517 0.24759 0.66733
 N937 N 0.34769 0.24803 0.68386
 C938 C 0.32408 0.24833 0.67711
 N939 N 0.31859 0.24812 0.65316
 N940 N 0.33612 0.24768 0.63661
 N941 N 0.92885 0.25517 0.91681
 C942 C 0.90500 0.26068 0.91797
 N943 N 0.89564 0.26861 0.93912
 N944 N 0.90973 0.27118 0.95846
 C945 C 0.93382 0.26617 0.95748
 N946 N 0.94291 0.25776 0.93622
 C947 C 0.88962 0.25811 0.89724
 C948 C 0.87581 0.25628 0.88047
 C949 C 0.85834 0.25446 0.86138
 N950 N 0.83448 0.25331 0.86682
 N951 N 0.81801 0.25212 0.84932
 C952 C 0.82480 0.25206 0.82574
 N953 N 0.84875 0.25317 0.82031
 N954 N 0.86526 0.25438 0.83786
 N955 N 0.42225 0.74179 0.42007
 C956 C 0.40336 0.75725 0.41778
 N957 N 0.39917 0.77363 0.43548
 N958 N 0.41348 0.77464 0.45482
 C959 C 0.43259 0.75939 0.45707
 N960 N 0.43658 0.74280 0.43942
 C961 C 0.38735 0.75574 0.39741
 C962 C 0.37330 0.75461 0.38078
 C963 C 0.35582 0.75339 0.36165
 N964 N 0.33191 0.75278 0.36697
 N965 N 0.31550 0.75181 0.34938
 C966 C 0.32242 0.75142 0.32584
 N967 N 0.34641 0.75203 0.32053
 N968 N 0.36284 0.75301 0.33816
 N969 N 0.09987 0.06688 0.27693
 C970 C 0.09635 0.08347 0.25928
 N971 N 0.07819 0.08013 0.24315
 N972 N 0.06392 0.06080 0.24471
 C973 C 0.06724 0.04425 0.26254
 N974 N 0.08561 0.04757 0.27850
 C975 C 0.11245 0.10366 0.25708
 C976 C 0.12660 0.12012 0.25536
 C977 C 0.14421 0.13904 0.25348
 N978 N 0.13739 0.16257 0.25314
 N979 N 0.15396 0.18000 0.25169
 C980 C 0.17788 0.17446 0.25054
 N981 N 0.18459 0.15088 0.25085
 N982 N 0.16805 0.13348 0.25230
 N983 N 0.59972 0.56605 0.77353
 C984 C 0.59557 0.58354 0.75692
 N985 N 0.57673 0.58107 0.74140
 N986 N 0.56244 0.56172 0.74256
 C987 C 0.56641 0.54426 0.75935
 N988 N 0.58545 0.54672 0.77468
 C989 C 0.61165 0.60381 0.75519
 C990 C 0.62583 0.62030 0.75392
 C991 C 0.64351 0.63924 0.75261
 N992 N 0.63672 0.66278 0.75249
 N993 N 0.65333 0.68022 0.75155
 C994 C 0.67726 0.67467 0.75074
 N995 N 0.68394 0.65108 0.75085
 N996 N 0.66736 0.63368 0.75178
 N997 N 0.91807 0.07332 0.74805
 C998 C 0.91861 0.09609 0.73912
 N999 N 0.93895 0.10404 0.72811
 N1000 N 0.95807 0.08961 0.72588
 C1001 C 0.95766 0.06652 0.73436
 N1002 N 0.93726 0.05891 0.74580
 C1003 C 0.89817 0.11188 0.74152
 C1004 C 0.88157 0.12590 0.74320
 C1005 C 0.86254 0.14345 0.74489
 N1006 N 0.86803 0.16726 0.74600
 N1007 N 0.85055 0.18374 0.74719
 C1008 C 0.82694 0.17701 0.74728
 N1009 N 0.82146 0.15312 0.74618
 N1010 N 0.83898 0.13660 0.74499
 N1011 N 0.41925 0.57617 0.25736
 C1012 C 0.41681 0.59494 0.24182
 N1013 N 0.43445 0.59918 0.22536
 N1014 N 0.45389 0.58502 0.22437
 C1015 C 0.45632 0.56604 0.23972
 N1016 N 0.43871 0.56200 0.25637
 C1017 C 0.39641 0.61088 0.24339
 C1018 C 0.37980 0.62492 0.24458
 C1019 C 0.36075 0.64246 0.24586
 N1020 N 0.36621 0.66628 0.24676
 N1021 N 0.34870 0.68275 0.24777
 C1022 C 0.32510 0.67598 0.24790
 N1023 N 0.31965 0.65207 0.24701
 N1024 N 0.33720 0.63558 0.24600
 N1025 N 0.08402 0.92753 0.74798
 C1026 C 0.08253 0.90388 0.74185
 N1027 N 0.06128 0.89509 0.73353
 N1028 N 0.04217 0.90951 0.73121
 C1029 C 0.04346 0.93340 0.73689
 N1030 N 0.06482 0.94193 0.74564
 C1031 C 0.10298 0.88808 0.74419
 C1032 C 0.11948 0.87393 0.74577
 C1033 C 0.13832 0.85614 0.74726
 N1034 N 0.13259 0.83236 0.74748
 N1035 N 0.14990 0.81567 0.74842
 C1036 C 0.17356 0.82217 0.74913
 N1037 N 0.17927 0.84604 0.74893
 N1038 N 0.16193 0.86275 0.74799
 N1039 N 0.58215 0.42348 0.25768
 C1040 C 0.58450 0.40470 0.24213
 N1041 N 0.56698 0.40074 0.22546
 N1042 N 0.54773 0.41514 0.22431
 C1043 C 0.54538 0.43411 0.23968
 N1044 N 0.56288 0.43791 0.25652
 C1045 C 0.60463 0.38845 0.24391
 C1046 C 0.62102 0.37416 0.24522
 C1047 C 0.63989 0.35641 0.24658
 N1048 N 0.63421 0.33262 0.24698
 N1049 N 0.65157 0.31598 0.24798
 C1050 C 0.67522 0.32256 0.24861
 N1051 N 0.68087 0.34644 0.24823
 N1052 N 0.66348 0.36309 0.24722
 N1053 N 0.92590 0.91785 0.24666
 C1054 C 0.90603 0.91630 0.26094
 N1055 N 0.90083 0.93470 0.27621
 N1056 N 0.91508 0.95405 0.27725
 C1057 C 0.93512 0.95562 0.26315
 N1058 N 0.94017 0.93721 0.24770
 C1059 C 0.88997 0.89605 0.25915
 C1060 C 0.87580 0.87960 0.25772
 C1061 C 0.85811 0.86073 0.25609
 N1062 N 0.83428 0.86637 0.25519
 N1063 N 0.81767 0.84903 0.25385
 C1064 C 0.82431 0.82544 0.25336
 N1065 N 0.84822 0.81982 0.25425
 N1066 N 0.86485 0.83719 0.25560
 N1067 N 0.40101 0.43364 0.77499
 C1068 C 0.40504 0.41594 0.75857
 N1069 N 0.42382 0.41815 0.74297
 N1070 N 0.43818 0.43746 0.74383
 C1071 C 0.43432 0.45515 0.76042
 N1072 N 0.41535 0.45293 0.77584
 C1073 C 0.38886 0.39572 0.75712
 C1074 C 0.37462 0.37927 0.75603
 C1075 C 0.35693 0.36034 0.75489
 N1076 N 0.36371 0.33681 0.75485
 N1077 N 0.34709 0.31937 0.75397
 C1078 C 0.32316 0.32492 0.75311
 N1079 N 0.31649 0.34852 0.75315
 N1080 N 0.33308 0.36591 0.75403
 N1081 N 0.07081 0.25680 0.91668
 C1082 C 0.09433 0.26364 0.91712
 N1083 N 0.10348 0.27348 0.93755
 N1084 N 0.08954 0.27648 0.95692
 C1085 C 0.06579 0.26998 0.95669
 N1086 N 0.05688 0.25982 0.93612
 C1087 C 0.10971 0.26008 0.89655
 C1088 C 0.12355 0.25737 0.87995
 C1089 C 0.14109 0.25454 0.86106
 N1090 N 0.16485 0.25265 0.86673
 N1091 N 0.18144 0.25089 0.84939
 C1092 C 0.17485 0.25096 0.82576
 N1093 N 0.15099 0.25275 0.82009
 N1094 N 0.13437 0.25453 0.83748
 N1095 N 0.59820 0.77345 0.43374
 C1096 C 0.59380 0.75681 0.41633
 N1097 N 0.57484 0.74152 0.41897
 N1098 N 0.56067 0.74289 0.43841
 C1099 C 0.56490 0.75970 0.45580
 N1100 N 0.58405 0.77482 0.45316
 C1101 C 0.60977 0.75482 0.39599
 C1102 C 0.62390 0.75339 0.37946
 C1103 C 0.64157 0.75198 0.36053
 N1104 N 0.63484 0.75238 0.33695
 N1105 N 0.65149 0.75166 0.31953
 C1106 C 0.67540 0.75055 0.32513
 N1107 N 0.68202 0.75009 0.34876
 N1108 N 0.66539 0.75080 0.36615
 N1109 N 0.93705 0.72628 0.89669
 C1110 C 0.91666 0.73663 0.90536
 N1111 N 0.91600 0.74384 0.92875
 N1112 N 0.93520 0.74070 0.94301
 C1113 C 0.95573 0.73005 0.93458
 N1114 N 0.95617 0.72317 0.91096
 C1115 C 0.89636 0.74028 0.88962
 C1116 C 0.87995 0.74300 0.87552
 C1117 C 0.86119 0.74577 0.85781
 N1118 N 0.83756 0.74605 0.86439
 N1119 N 0.82025 0.74772 0.84767
 C1120 C 0.82602 0.74914 0.82384
 N1121 N 0.84971 0.74895 0.81737
 N1122 N 0.86698 0.74729 0.83406
 N1123 N 0.43505 0.23357 0.40150
 C1124 C 0.41757 0.25044 0.40451
 N1125 N 0.41981 0.26684 0.42257
 N1126 N 0.43895 0.26630 0.43723
 C1127 C 0.45640 0.24925 0.43439
 N1128 N 0.45417 0.23303 0.41613
 C1129 C 0.39749 0.25135 0.38810
 C1130 C 0.38114 0.25177 0.37369
 C1131 C 0.36229 0.25193 0.35587
 N1132 N 0.33868 0.25165 0.36252
 N1133 N 0.32129 0.25135 0.34582
 C1134 C 0.32696 0.25128 0.32192
 N1135 N 0.35062 0.25158 0.31536
 N1136 N 0.36798 0.25188 0.33204
 N1137 N 0.08014 0.75300 0.07554
 C1138 C 0.08292 0.73873 0.09526
 N1139 N 0.06567 0.72216 0.10050
 N1140 N 0.04626 0.71985 0.08644
 C1141 C 0.04348 0.73394 0.06654
 N1142 N 0.06071 0.75069 0.06145
 C1143 C 0.10328 0.74169 0.11106
 C1144 C 0.11986 0.74391 0.12505
 C1145 C 0.13888 0.74618 0.14255
 N1146 N 0.13339 0.74758 0.16637
 N1147 N 0.15088 0.74895 0.18285
 C1148 C 0.17448 0.74896 0.17610
 N1149 N 0.17996 0.74764 0.15219
 N1150 N 0.16243 0.74626 0.13568
 N1151 N 0.58078 0.26793 0.57853
 C1152 C 0.58331 0.25161 0.59663
 N1153 N 0.56581 0.23486 0.60010
 N1154 N 0.54642 0.23430 0.58582
 C1155 C 0.54393 0.25040 0.56748
 N1156 N 0.56138 0.26738 0.56423
 C1157 C 0.60379 0.25245 0.61255
 C1158 C 0.62048 0.25282 0.62655
 C1159 C 0.63968 0.25292 0.64401
 N1160 N 0.63440 0.25279 0.66791
 N1161 N 0.65205 0.25246 0.68429
 C1162 C 0.67559 0.25222 0.67734
 N1163 N 0.68086 0.25238 0.65335
 N1164 N 0.66318 0.25270 0.63694
 N1165 N 0.90064 0.27721 0.06775
 C1166 C 0.90580 0.26027 0.08465
 N1167 N 0.92544 0.24593 0.08159
 N1168 N 0.93953 0.24853 0.06221
 C1169 C 0.93452 0.26563 0.04532
 N1170 N 0.91471 0.27980 0.04840
 C1171 C 0.88994 0.25698 0.10491
 C1172 C 0.87588 0.25453 0.12138
 C1173 C 0.85827 0.25202 0.14026
 N1174 N 0.86501 0.25187 0.16383
 N1175 N 0.84839 0.25036 0.18124
 C1176 C 0.82450 0.24897 0.17561
 N1177 N 0.81788 0.24904 0.15198
 N1178 N 0.83447 0.25054 0.13461
 N1179 N 0.40010 0.77194 0.56804
 C1180 C 0.40473 0.75529 0.58538
 N1181 N 0.42382 0.74017 0.58262
 N1182 N 0.43791 0.74174 0.56313
 C1183 C 0.43347 0.75858 0.54582
 N1184 N 0.41418 0.77351 0.54857
 C1185 C 0.38885 0.75310 0.60578
 C1186 C 0.37477 0.75151 0.62234
 C1187 C 0.35708 0.74992 0.64126
 N1188 N 0.36379 0.74981 0.66485
 N1189 N 0.34712 0.74891 0.68225
 C1190 C 0.32320 0.74811 0.67661
 N1191 N 0.31662 0.74817 0.65296
 N1192 N 0.33326 0.74907 0.63561
 N1193 N 0.24229 0.07434 0.91870
 C1194 C 0.25481 0.09534 0.91810
 N1195 N 0.26922 0.10116 0.93700
 N1196 N 0.27122 0.08632 0.95583
 C1197 C 0.25912 0.06491 0.95648
 N1198 N 0.24433 0.05953 0.93758
 C1199 C 0.25256 0.11153 0.89798
 C1200 C 0.25097 0.12564 0.88147
 C1201 C 0.24946 0.14311 0.86238
 N1202 N 0.24875 0.16696 0.86774
 N1203 N 0.24805 0.18336 0.85016
 C1204 C 0.24803 0.17649 0.82661
 N1205 N 0.24867 0.15255 0.82127
 N1206 N 0.24938 0.13613 0.83888
 N1207 N 0.73258 0.57657 0.41808
 C1208 C 0.74897 0.59459 0.41539
 N1209 N 0.76600 0.59793 0.43268
 N1210 N 0.76672 0.58367 0.45203
 C1211 C 0.75051 0.56545 0.45471
 N1212 N 0.73330 0.56228 0.43746
 C1213 C 0.74782 0.61069 0.39511
 C1214 C 0.74722 0.62495 0.37866
 C1215 C 0.74690 0.64276 0.35984
 N1216 N 0.74705 0.66653 0.36559
 N1217 N 0.74728 0.68325 0.34830
 C1218 C 0.74740 0.67677 0.32464
 N1219 N 0.74721 0.65292 0.31890
 N1220 N 0.74699 0.63618 0.33622
 N1221 N 0.76201 0.07839 0.07805
 C1222 C 0.74432 0.08340 0.09426
 N1223 N 0.72497 0.06848 0.09585
 N1224 N 0.72327 0.04918 0.08160
 C1225 C 0.74080 0.04423 0.06515
 N1226 N 0.76031 0.05909 0.06378
 C1227 C 0.74652 0.10353 0.11039
 C1228 C 0.74811 0.11996 0.12457
 C1229 C 0.74967 0.13883 0.14223
 N1230 N 0.75074 0.13320 0.16603
 N1231 N 0.75151 0.15056 0.18265
 C1232 C 0.75124 0.17416 0.17604
 N1233 N 0.75024 0.17978 0.15216
 N1234 N 0.74946 0.16238 0.13552
 N1235 N 0.26748 0.58003 0.57654
 C1236 C 0.25104 0.58260 0.59455
 N1237 N 0.23428 0.56510 0.59800
 N1238 N 0.23384 0.54568 0.58382
 C1239 C 0.25008 0.54313 0.56559
 N1240 N 0.26705 0.56058 0.56233
 C1241 C 0.25184 0.60302 0.61050
 C1242 C 0.25216 0.61959 0.62464
 C1243 C 0.25219 0.63853 0.64236
 N1244 N 0.25227 0.63289 0.66618
 N1245 N 0.25181 0.65024 0.68283
 C1246 C 0.25121 0.67385 0.67625
 N1247 N 0.25117 0.67947 0.65234
 N1248 N 0.25163 0.66209 0.63566
 N1249 N 0.73378 0.93433 0.89874
 C1250 C 0.74756 0.91516 0.90522
 N1251 N 0.76034 0.91612 0.92612
 N1252 N 0.75928 0.93566 0.94014
 C1253 C 0.74531 0.95484 0.93379
 N1254 N 0.73272 0.95384 0.91274
 C1255 C 0.74926 0.89464 0.88951
 C1256 C 0.75045 0.87805 0.87548
 C1257 C 0.75158 0.85914 0.85781
 N1258 N 0.75125 0.83558 0.86450
 N1259 N 0.75173 0.81820 0.84783
 C1260 C 0.75253 0.82384 0.82394
 N1261 N 0.75291 0.84745 0.81736
 N1262 N 0.75244 0.86479 0.83401
 N1263 N 0.23532 0.43241 0.40069
 C1264 C 0.25224 0.41506 0.40415
 N1265 N 0.26849 0.41764 0.42234
 N1266 N 0.26774 0.43697 0.43669
 C1267 C 0.25062 0.45428 0.43341
 N1268 N 0.23457 0.45171 0.41502
 C1269 C 0.25339 0.39477 0.38804
 C1270 C 0.25400 0.37828 0.37382
 C1271 C 0.25435 0.35937 0.35608
 N1272 N 0.25389 0.33582 0.36278
 N1273 N 0.25370 0.31842 0.34611
 C1274 C 0.25392 0.32403 0.32220
 N1275 N 0.25442 0.34763 0.31560
 N1276 N 0.25461 0.36499 0.33224
 N1277 N 0.22446 0.90485 0.06822
 C1278 C 0.24376 0.90435 0.08334
 N1279 N 0.26309 0.91861 0.07853
 N1280 N 0.26307 0.93302 0.05925
 C1281 C 0.24364 0.93380 0.04422
 N1282 N 0.22443 0.91927 0.04895
 C1283 C 0.24422 0.88800 0.10345
 C1284 C 0.24472 0.87378 0.11993
 C1285 C 0.24542 0.85623 0.13899
 N1286 N 0.24579 0.83238 0.13357
 N1287 N 0.24655 0.81593 0.15110
 C1288 C 0.24699 0.82275 0.17467
 N1289 N 0.24660 0.84668 0.18006
 N1290 N 0.24584 0.86315 0.16250
 N1291 N 0.73250 0.42336 0.58125
 C1292 C 0.74886 0.40531 0.58399
 N1293 N 0.76565 0.40164 0.56654
 N1294 N 0.76619 0.41566 0.54701
 C1295 C 0.75005 0.43393 0.54429
 N1296 N 0.73305 0.43740 0.56168
 C1297 C 0.74795 0.38955 0.60455
 C1298 C 0.74755 0.37557 0.62124
 C1299 C 0.74746 0.35801 0.64030
 N1300 N 0.74737 0.33418 0.63482
 N1301 N 0.74782 0.31767 0.65230
 C1302 C 0.74840 0.32441 0.67588
 N1303 N 0.74844 0.34832 0.68136
 N1304 N 0.74800 0.36486 0.66384
 N1305 N 0.08445 0.07106 0.74808
 C1306 C 0.08396 0.09449 0.74102
 N1307 N 0.06360 0.10340 0.73081
 N1308 N 0.04434 0.08934 0.72767
 C1309 C 0.04461 0.06569 0.73439
 N1310 N 0.06512 0.05701 0.74491
 C1311 C 0.10444 0.11003 0.74462
 C1312 C 0.12094 0.12402 0.74725
 C1313 C 0.13975 0.14171 0.74983
 N1314 N 0.13400 0.16547 0.75084
 N1315 N 0.15129 0.18214 0.75222
 C1316 C 0.17497 0.17564 0.75265
 N1317 N 0.18071 0.15179 0.75175
 N1318 N 0.16338 0.13510 0.75035
 N1319 N 0.58159 0.57650 0.25959
 C1320 C 0.58412 0.59561 0.24450
 N1321 N 0.56682 0.59994 0.22769
 N1322 N 0.54760 0.58557 0.22597
 C1323 C 0.54506 0.56627 0.24089
 N1324 N 0.56234 0.56211 0.25787
 C1325 C 0.60428 0.61173 0.24680
 C1326 C 0.62070 0.62594 0.24844
 C1327 C 0.63959 0.64362 0.25002
 N1328 N 0.63395 0.66741 0.25062
 N1329 N 0.65134 0.68402 0.25139
 C1330 C 0.67499 0.67740 0.25157
 N1331 N 0.68060 0.65352 0.25104
 N1332 N 0.66318 0.63689 0.25026
 N1333 N 0.07299 0.91640 0.24920
 C1334 C 0.09650 0.91719 0.25605
 N1335 N 0.10548 0.93792 0.26538
 N1336 N 0.09134 0.95719 0.26799
 C1337 C 0.06756 0.95654 0.26163
 N1338 N 0.05888 0.93574 0.25184
 C1339 C 0.11190 0.89652 0.25339
 C1340 C 0.12563 0.87972 0.25154
 C1341 C 0.14295 0.86051 0.24980
 N1342 N 0.16681 0.86575 0.24801
 N1343 N 0.18317 0.84815 0.24727
 C1344 C 0.17626 0.82465 0.24831
 N1345 N 0.15231 0.81940 0.25002
 N1346 N 0.13592 0.83706 0.25077
 N1347 N 0.57691 0.41885 0.74109
 C1348 C 0.59602 0.41649 0.75628
 N1349 N 0.60038 0.43402 0.77280
 N1350 N 0.58603 0.45329 0.77417
 C1351 C 0.56673 0.45564 0.75917
 N1352 N 0.56255 0.43814 0.74247
 C1353 C 0.61211 0.39625 0.75435
 C1354 C 0.62628 0.37976 0.75295
 C1355 C 0.64392 0.36080 0.75158
 N1356 N 0.66774 0.36635 0.75009
 N1357 N 0.68433 0.34893 0.74937
 C1358 C 0.67768 0.32535 0.75013
 N1359 N 0.65378 0.31982 0.75157
 N1360 N 0.63717 0.33727 0.75229
 N1361 N 0.90172 0.06641 0.27254
 C1362 C 0.90601 0.08322 0.25528
 N1363 N 0.92499 0.08017 0.24007
 N1364 N 0.93930 0.06089 0.24214
 C1365 C 0.93517 0.04412 0.25958
 N1366 N 0.91600 0.04716 0.27461
 C1367 C 0.88999 0.10343 0.25271
 C1368 C 0.87582 0.11987 0.25096
 C1369 C 0.85814 0.13875 0.24937
 N1370 N 0.86483 0.16230 0.24991
 N1371 N 0.84816 0.17970 0.24930
 C1372 C 0.82426 0.17409 0.24817
 N1373 N 0.81767 0.15049 0.24755
 N1374 N 0.83432 0.13313 0.24815
 N1375 N 0.42354 0.58017 0.74036
 C1376 C 0.40451 0.58269 0.75561
 N1377 N 0.40034 0.56542 0.77244
 N1378 N 0.41477 0.54624 0.77404
 C1379 C 0.43399 0.54372 0.75897
 N1380 N 0.43800 0.56097 0.74196
 C1381 C 0.38831 0.60282 0.75345
 C1382 C 0.37406 0.61922 0.75192
 C1383 C 0.35633 0.63810 0.75048
 N1384 N 0.33252 0.63247 0.74918
 N1385 N 0.31587 0.64982 0.74854
 C1386 C 0.32244 0.67343 0.74918
 N1387 N 0.34634 0.67904 0.75040
 N1388 N 0.36301 0.66165 0.75105
 N1389 N 0.91910 0.92529 0.75598
 C1390 C 0.91628 0.90574 0.74149
 N1391 N 0.93340 0.90077 0.72469
 N1392 N 0.95275 0.91489 0.72241
 C1393 C 0.95561 0.93459 0.73675
 N1394 N 0.93848 0.93943 0.75370
 C1395 C 0.89606 0.88976 0.74448
 C1396 C 0.87966 0.87558 0.74667
 C1397 C 0.86086 0.85784 0.74880
 N1398 N 0.86663 0.83408 0.74962
 N1399 N 0.84933 0.81739 0.75073
 C1400 C 0.82565 0.82388 0.75107
 N1401 N 0.81990 0.84773 0.75035
 N1402 N 0.83723 0.86444 0.74922
 N1403 N 0.43474 0.40066 0.22662
 C1404 C 0.41733 0.40503 0.24329
 N1405 N 0.41989 0.42400 0.25855
 N1406 N 0.43927 0.43825 0.25709
 C1407 C 0.45665 0.43406 0.24023
 N1408 N 0.45409 0.41488 0.22516
 C1409 C 0.39702 0.38905 0.24532
 C1410 C 0.38051 0.37494 0.24675
 C1411 C 0.36159 0.35729 0.24810
 N1412 N 0.33800 0.36402 0.24845
 N1413 N 0.32057 0.34740 0.24908
 C1414 C 0.32619 0.32352 0.24935
 N1415 N 0.34983 0.31690 0.24906
 N1416 N 0.36722 0.33349 0.24844
   
