data_POSCAR
  _audit_creation_date              2014-09-24
  _audit_creation_method            'ToBaCCo'
  _symmetry_space_group_name_H-M    'P1'
  _symmetry_Int_Tables_number       1
  _symmetry_cell_setting            triclinic
  loop_
  _symmetry_equiv_pos_as_xyz
 x,y,z
_cell_length_a 46.6277
_cell_length_b 46.5892
_cell_length_c 46.6061
_cell_angle_alpha 89.980600
_cell_angle_beta 89.964900
_cell_angle_gamma 90.079100
loop_
  _atom_site_label
  _atom_site_type_symbol
  _atom_site_fract_x
  _atom_site_fract_y
  _atom_site_fract_z
C1 C 0.08545 0.02308 0.21384
 H2 H 0.08377 0.03948 0.23018
 C3 C 0.07104 0.02637 0.18771
 H4 H 0.05789 0.04516 0.18400
 C5 C 0.10572 -0.02081 0.19796
 H6 H 0.11997 -0.03869 0.20152
 C7 C 0.09171 -0.01838 0.17167
 H8 H 0.09483 -0.03468 0.15539
 N9 N 0.10246 -0.00021 0.21840
 C10 C 0.11988 -0.00735 0.31003
 H11 H 0.14300 -0.00864 0.30850
 C12 C 0.10656 -0.01004 0.33663
 H13 H 0.11942 -0.01315 0.35574
 C14 C 0.07490 -0.00195 0.28686
 H15 H 0.06275 0.00085 0.26732
 C16 C 0.06064 -0.00451 0.31320
 H17 H 0.03745 -0.00334 0.31401
 Zn18 Zn 0.12565 -0.00169 0.25169
 N19 N 0.10404 -0.00318 0.28589
 C20 C 0.14594 0.05125 0.27293
 N21 N 0.14877 0.03168 0.25143
 C22 C 0.16544 0.03716 0.22807
 C23 C 0.17988 0.06339 0.22558
 C24 C 0.16001 0.07763 0.27131
 C25 C 0.13174 -0.06014 0.25468
 C26 C 0.14517 -0.08676 0.25586
 C27 C 0.19098 -0.06277 0.25084
 C28 C 0.17657 -0.03644 0.24978
 N29 N 0.14744 -0.03573 0.25147
 H30 H 0.13197 0.04693 0.29090
 H31 H 0.16678 0.02151 0.21099
 H32 H 0.19267 0.06787 0.20669
 H33 H 0.15717 0.09327 0.28827
 H34 H 0.10863 -0.05881 0.25635
 H35 H 0.13229 -0.10602 0.25827
 H36 H 0.21418 -0.06323 0.24934
 H37 H 0.18859 -0.01669 0.24776
 C38 C 0.07670 -0.00860 0.33827
 C39 C 0.07449 0.00554 0.16635
 C40 C 0.17505 -0.08815 0.25390
 C41 C 0.17684 0.08389 0.24730
 C42 C 0.41376 0.02471 0.78728
 H43 H 0.41579 0.04174 0.77162
 C44 C 0.42733 0.02715 0.81395
 H45 H 0.44020 0.04591 0.81876
 C46 C 0.39340 -0.01995 0.80090
 H47 H 0.37942 -0.03783 0.79625
 C48 C 0.40657 -0.01838 0.82768
 H49 H 0.40310 -0.03533 0.84324
 N50 N 0.39710 0.00144 0.78133
 C51 C 0.38209 -0.00289 0.68913
 H52 H 0.35899 -0.00489 0.69016
 C53 C 0.39595 -0.00415 0.66272
 H54 H 0.38353 -0.00699 0.64328
 C55 C 0.42647 0.00303 0.71334
 H56 H 0.43817 0.00552 0.73320
 C57 C 0.44127 0.00189 0.68720
 H58 H 0.46443 0.00376 0.68687
 Zn59 Zn 0.37488 0.00087 0.74736
 N60 N 0.39736 0.00087 0.71370
 C61 C 0.35496 0.05419 0.72708
 N62 N 0.35148 0.03403 0.74795
 C63 C 0.33408 0.03885 0.77092
 C64 C 0.31956 0.06499 0.77363
 C65 C 0.34084 0.08047 0.72893
 C66 C 0.36968 -0.05753 0.74208
 C67 C 0.35672 -0.08440 0.74035
 C68 C 0.31054 -0.06150 0.74598
 C69 C 0.32444 -0.03488 0.74759
 N70 N 0.35355 -0.03353 0.74593
 H71 H 0.36951 0.05044 0.70946
 H72 H 0.33223 0.02276 0.78755
 H73 H 0.30618 0.06895 0.79221
 H74 H 0.34420 0.09656 0.71246
 H75 H 0.39277 -0.05570 0.74054
 H76 H 0.36982 -0.10340 0.73760
 H77 H 0.28740 -0.06264 0.74761
 H78 H 0.31206 -0.01546 0.75020
 C79 C 0.42577 -0.00172 0.66170
 C80 C 0.42341 0.00549 0.83441
 C81 C 0.32693 -0.08644 0.74241
 C82 C 0.32327 0.08607 0.75254
 C83 C 0.91375 0.52421 0.28769
 H84 H 0.91622 0.54119 0.27204
 C85 C 0.92733 0.52633 0.31440
 H86 H 0.94062 0.54482 0.31918
 C87 C 0.89238 0.48000 0.30122
 H88 H 0.87804 0.46243 0.29650
 C89 C 0.90552 0.48124 0.32805
 H90 H 0.90161 0.46430 0.34353
 N91 N 0.89662 0.50131 0.28168
 C92 C 0.88222 0.49742 0.18936
 H93 H 0.85908 0.49591 0.19025
 C94 C 0.89621 0.49581 0.16304
 H95 H 0.88385 0.49324 0.14353
 C96 C 0.92658 0.50235 0.21385
 H97 H 0.93820 0.50456 0.23378
 C98 C 0.94151 0.50085 0.18779
 H99 H 0.96470 0.50219 0.18760
 Zn100 Zn 0.87466 0.50111 0.24750
 N101 N 0.89742 0.50084 0.21403
 C102 C 0.85572 0.55480 0.22720
 N103 N 0.85166 0.53457 0.24791
 C104 C 0.83389 0.53947 0.27058
 C105 C 0.81957 0.56573 0.27314
 C106 C 0.84182 0.58122 0.22892
 C107 C 0.86897 0.44281 0.24209
 C108 C 0.85581 0.41607 0.23991
 C109 C 0.80973 0.43933 0.24476
 C110 C 0.82382 0.46582 0.24683
 N111 N 0.85297 0.46694 0.24575
 H112 H 0.87054 0.55098 0.20983
 H113 H 0.83157 0.52331 0.28710
 H114 H 0.80588 0.56972 0.29149
 H115 H 0.84563 0.59735 0.21259
 H116 H 0.89209 0.44444 0.24099
 H117 H 0.86880 0.39698 0.23730
 H118 H 0.78654 0.43838 0.24591
 H119 H 0.81156 0.48534 0.24928
 C120 C 0.92608 0.49755 0.16220
 C121 C 0.92291 0.50472 0.33485
 C122 C 0.82597 0.41427 0.24133
 C123 C 0.82386 0.58688 0.25223
 C124 C 0.58483 0.52451 0.71458
 H125 H 0.58300 0.54093 0.73089
 C126 C 0.57034 0.52758 0.68846
 H127 H 0.55698 0.54621 0.68472
 C128 C 0.60555 0.48081 0.69876
 H129 H 0.62001 0.46310 0.70232
 C130 C 0.59147 0.48302 0.67249
 H131 H 0.59474 0.46672 0.65625
 N132 N 0.60211 0.50142 0.71917
 C133 C 0.62020 0.49447 0.81070
 H134 H 0.64330 0.49324 0.80891
 C135 C 0.60719 0.49176 0.83744
 H136 H 0.62026 0.48867 0.85640
 C137 C 0.57495 0.49977 0.78802
 H138 H 0.56259 0.50254 0.76860
 C139 C 0.56099 0.49717 0.81452
 H140 H 0.53782 0.49829 0.81559
 Zn141 Zn 0.62542 0.50015 0.75238
 N142 N 0.60409 0.49860 0.78673
 C143 C 0.64560 0.55311 0.77357
 N144 N 0.64844 0.53358 0.75203
 C145 C 0.66517 0.53907 0.72872
 C146 C 0.67973 0.56524 0.72636
 C147 C 0.65979 0.57942 0.77208
 C148 C 0.63170 0.44177 0.75544
 C149 C 0.64522 0.41519 0.75652
 C150 C 0.69090 0.43928 0.75119
 C151 C 0.67645 0.46558 0.75022
 N152 N 0.64733 0.46621 0.75211
 H153 H 0.63158 0.54879 0.79150
 H154 H 0.66651 0.52345 0.71160
 H155 H 0.69262 0.56971 0.70753
 H156 H 0.65700 0.59502 0.78909
 H157 H 0.60860 0.44303 0.75725
 H158 H 0.63254 0.39584 0.75903
 H159 H 0.71407 0.43872 0.74956
 H160 H 0.68842 0.48535 0.74811
 C161 C 0.57735 0.49312 0.83940
 C162 C 0.57398 0.50673 0.66715
 C163 C 0.67504 0.41391 0.75436
 C164 C 0.67675 0.58566 0.74815
 C165 C 0.28547 0.08562 0.97632
 H166 H 0.26909 0.08394 0.95997
 C167 C 0.31149 0.07104 0.97304
 H168 H 0.31510 0.05777 0.95431
 C169 C 0.30151 0.10602 1.02011
 H170 H 0.29804 0.12036 1.03795
 C171 C 0.32770 0.09185 1.01768
 H172 H 0.34401 0.09495 1.03395
 N173 N 0.28103 0.10275 0.99956
 C174 C 0.18952 0.11997 1.00702
 H175 H 0.19099 0.14311 1.00830
 C176 C 0.16297 0.10654 1.00975
 H177 H 0.14384 0.11935 1.01290
 C178 C 0.21279 0.07502 1.00155
 H179 H 0.23235 0.06293 0.99871
 C180 C 0.18651 0.06066 1.00416
 H181 H 0.18576 0.03745 1.00296
 Zn182 Zn 0.24778 0.12591 1.00114
 N183 N 0.21367 0.10419 1.00277
 C184 C 0.22633 0.14591 0.94827
 N185 N 0.24785 0.14896 0.96775
 C186 C 0.27111 0.16576 0.96215
 C187 C 0.27346 0.18008 0.93586
 C188 C 0.22781 0.15986 0.92184
 C189 C 0.24493 0.13194 1.05955
 C190 C 0.24372 0.14533 1.08620
 C191 C 0.24854 0.19124 1.06234
 C192 C 0.24964 0.17687 1.03597
 N193 N 0.24805 0.14771 1.03519
 H194 H 0.20845 0.13184 0.95268
 H195 H 0.28822 0.16727 0.97774
 H196 H 0.29226 0.19297 0.93128
 H197 H 0.21083 0.15685 0.90626
 H198 H 0.24334 0.10881 1.05815
 H199 H 0.24137 0.13239 1.10541
 H200 H 0.24994 0.21446 1.06287
 H201 H 0.25158 0.18895 1.01626
 C202 C 0.16143 0.07666 1.00830
 C203 C 0.33286 0.07446 0.99383
 C204 C 0.24555 0.17523 1.08767
 C205 C 0.25172 0.17681 0.91544
 C206 C 0.71338 0.41303 0.97605
 H207 H 0.72909 0.41516 0.95909
 C208 C 0.68678 0.42674 0.97367
 H209 H 0.68209 0.43979 0.95502
 C210 C 0.69957 0.39237 1.02049
 H211 H 0.70413 0.37825 1.03827
 C212 C 0.67285 0.40566 1.01897
 H213 H 0.65724 0.40213 1.03585
 N214 N 0.71921 0.39617 0.99919
 C215 C 0.81147 0.38151 1.00370
 H216 H 0.81055 0.35837 1.00556
 C217 C 0.83781 0.39553 1.00505
 H218 H 0.85730 0.38319 1.00781
 C219 C 0.78707 0.42582 0.99803
 H220 H 0.76716 0.43743 0.99559
 C221 C 0.81313 0.44077 0.99925
 H222 H 0.81335 0.46396 0.99750
 Zn223 Zn 0.75324 0.37399 0.99973
 N224 N 0.78683 0.39667 1.00001
 C225 C 0.77380 0.35456 0.94627
 N226 N 0.75288 0.35081 0.96632
 C227 C 0.73003 0.33329 0.96127
 C228 C 0.72749 0.31894 0.93500
 C229 C 0.77211 0.34061 0.91986
 C230 C 0.75828 0.36833 1.05815
 C231 C 0.76002 0.35517 1.08491
 C232 C 0.75475 0.30907 1.06157
 C233 C 0.75313 0.32321 1.03509
 N234 N 0.75461 0.35236 1.03399
 H235 H 0.79132 0.36918 0.95021
 H236 H 0.71335 0.33122 0.97728
 H237 H 0.70900 0.30548 0.93087
 H238 H 0.78861 0.34419 0.90386
 H239 H 0.75969 0.39146 1.05653
 H240 H 0.76264 0.36827 1.10396
 H241 H 0.75325 0.28586 1.06235
 H242 H 0.75067 0.31097 1.01554
 C243 C 0.83869 0.42539 1.00277
 C244 C 0.66626 0.42275 0.99525
 C245 C 0.75815 0.32527 1.08672
 C246 C 0.74862 0.32293 0.91401
 C247 C 0.21303 0.91350 0.47642
 H248 H 0.22866 0.91591 0.45942
 C249 C 0.18623 0.92682 0.47417
 H250 H 0.18130 0.93988 0.45559
 C251 C 0.19961 0.89240 0.52078
 H252 H 0.20439 0.87823 0.53846
 C253 C 0.17269 0.90531 0.51939
 H254 H 0.15717 0.90145 0.53627
 N255 N 0.21913 0.89659 0.49945
 C256 C 0.31141 0.88213 0.50307
 H257 H 0.31049 0.85898 0.50464
 C258 C 0.33775 0.89613 0.50449
 H259 H 0.35725 0.88376 0.50700
 C260 C 0.28697 0.92652 0.49811
 H261 H 0.26705 0.93815 0.49594
 C262 C 0.31304 0.94146 0.49943
 H263 H 0.31325 0.96466 0.49800
 Zn264 Zn 0.25325 0.87462 0.49956
 N265 N 0.28676 0.89735 0.49972
 C266 C 0.27327 0.85559 0.44579
 N267 N 0.25262 0.85164 0.46608
 C268 C 0.22976 0.83409 0.46121
 C269 C 0.22692 0.81991 0.43490
 C270 C 0.27128 0.84182 0.41932
 C271 C 0.25879 0.86874 0.55782
 C272 C 0.26083 0.85547 0.58449
 C273 C 0.25561 0.80947 0.56104
 C274 C 0.25369 0.82367 0.53462
 N275 N 0.25499 0.85284 0.53364
 H276 H 0.29079 0.87025 0.44960
 H277 H 0.21329 0.83187 0.47743
 H278 H 0.20842 0.80640 0.43092
 H279 H 0.28757 0.84555 0.40314
 H280 H 0.26005 0.89188 0.55628
 H281 H 0.26353 0.86839 0.60364
 H282 H 0.25425 0.78627 0.56189
 H283 H 0.25112 0.81149 0.51506
 C284 C 0.33861 0.92602 0.50264
 C285 C 0.16580 0.92238 0.49575
 C286 C 0.25914 0.82561 0.58616
 C287 C 0.24777 0.82411 0.41368
 C288 C 0.78491 0.58426 0.47582
 H289 H 0.76854 0.58281 0.45944
 C290 C 0.81086 0.56958 0.47242
 H291 H 0.81440 0.55645 0.45358
 C292 C 0.80108 0.60428 0.51974
 H293 H 0.79772 0.61855 0.53765
 C294 C 0.82719 0.58999 0.51720
 H295 H 0.84353 0.59291 0.53347
 N296 N 0.78059 0.60129 0.49916
 C297 C 0.68930 0.61987 0.50645
 H298 H 0.69110 0.64300 0.50761
 C299 C 0.66259 0.60682 0.50935
 H300 H 0.64365 0.61990 0.51250
 C301 C 0.71195 0.57458 0.50120
 H302 H 0.73134 0.56220 0.49840
 C303 C 0.68549 0.56059 0.50399
 H304 H 0.68443 0.53739 0.50297
 Zn305 Zn 0.74768 0.62491 0.50069
 N306 N 0.71324 0.60374 0.50226
 C307 C 0.72670 0.64572 0.44792
 N308 N 0.74827 0.64807 0.46744
 C309 C 0.77190 0.66440 0.46206
 C310 C 0.77458 0.67903 0.43599
 C311 C 0.72850 0.66000 0.42169
 C312 C 0.74487 0.63117 0.55912
 C313 C 0.74392 0.64477 0.58567
 C314 C 0.74946 0.69041 0.56153
 C315 C 0.75030 0.67589 0.53526
 N316 N 0.74825 0.64675 0.53466
 H317 H 0.70851 0.63201 0.45218
 H318 H 0.78902 0.66534 0.47769
 H319 H 0.79366 0.69158 0.43158
 H320 H 0.71146 0.65759 0.40607
 H321 H 0.74291 0.60807 0.55788
 H322 H 0.74137 0.63214 0.60503
 H323 H 0.75122 0.71359 0.56205
 H324 H 0.75242 0.68783 0.51548
 C325 C 0.66064 0.57695 0.50813
 C326 C 0.83227 0.57278 0.49321
 C327 C 0.74624 0.67461 0.58690
 C328 C 0.75276 0.67653 0.41555
 C329 C 0.02394 0.21343 0.08501
 H330 H 0.04098 0.22909 0.08297
 C331 C 0.02634 0.18674 0.07144
 H332 H 0.04506 0.18193 0.05855
 C333 C -0.02064 0.19979 0.10546
 H334 H -0.03847 0.20444 0.11948
 C335 C -0.01911 0.17299 0.09228
 H336 H -0.03603 0.15741 0.09579
 N337 N 0.00075 0.21937 0.10174
 C338 C -0.00308 0.31156 0.11723
 H339 H -0.00490 0.31039 0.14034
 C340 C -0.00436 0.33808 0.10355
 H341 H -0.00703 0.35742 0.11620
 C342 C 0.00238 0.28759 0.07263
 H343 H 0.00469 0.26778 0.06079
 C344 C 0.00121 0.31384 0.05799
 H345 H 0.00289 0.31423 0.03480
 Zn346 Zn 0.00041 0.25329 0.12410
 N347 N 0.00045 0.28707 0.10177
 C348 C 0.05395 0.27326 0.14379
 N349 N 0.03367 0.25250 0.14736
 C350 C 0.03843 0.22948 0.16472
 C351 C 0.06461 0.22660 0.17912
 C352 C 0.08028 0.27123 0.15779
 C353 C -0.05789 0.25875 0.12957
 C354 C -0.08464 0.26082 0.14268
 C355 C -0.06152 0.25532 0.18879
 C356 C -0.03503 0.25338 0.17474
 N357 N -0.03384 0.25482 0.14560
 H358 H 0.05024 0.29091 0.12927
 H359 H 0.02224 0.21294 0.16664
 H360 H 0.06850 0.20798 0.19247
 H361 H 0.09645 0.28761 0.15436
 H362 H -0.05620 0.26014 0.10646
 H363 H -0.10368 0.26363 0.12967
 H364 H -0.06252 0.25387 0.21196
 H365 H -0.01557 0.25073 0.18704
 C366 C -0.00218 0.33929 0.07369
 C367 C 0.00471 0.16625 0.07541
 C368 C -0.08651 0.25902 0.17251
 C369 C 0.08581 0.24756 0.17531
 C370 C 0.02386 0.78492 0.41455
 H371 H 0.04026 0.76858 0.41597
 C372 C 0.02727 0.81096 0.42917
 H373 H 0.04615 0.81458 0.44222
 C374 C -0.02013 0.80095 0.39470
 H375 H -0.03810 0.79750 0.38053
 C376 C -0.01758 0.82713 0.40893
 H377 H -0.03389 0.84344 0.40605
 N378 N 0.00047 0.78048 0.39763
 C379 C -0.00700 0.68898 0.37913
 H380 H -0.00852 0.69081 0.35603
 C381 C -0.00956 0.66219 0.39213
 H382 H -0.01284 0.64324 0.37905
 C383 C -0.00107 0.71157 0.42438
 H384 H 0.00189 0.73096 0.43676
 C385 C -0.00351 0.68503 0.43832
 H386 H -0.00209 0.68392 0.46149
 Zn387 Zn -0.00121 0.74743 0.37405
 N388 N -0.00263 0.71292 0.39525
 C389 C 0.05149 0.72630 0.35324
 N390 N 0.03202 0.74790 0.35075
 C391 C 0.03752 0.77145 0.33433
 C392 C 0.06368 0.77404 0.31983
 C393 C 0.07780 0.72801 0.33909
 C394 C -0.05969 0.74453 0.36825
 C395 C -0.08639 0.74364 0.35495
 C396 C -0.06270 0.74937 0.30907
 C397 C -0.03629 0.75013 0.32334
 N398 N -0.03539 0.74795 0.35245
 H399 H 0.04717 0.70817 0.36701
 H400 H 0.02194 0.78861 0.33326
 H401 H 0.06818 0.79308 0.30726
 H402 H 0.09337 0.71096 0.34166
 H403 H -0.05821 0.74249 0.39132
 H404 H -0.10555 0.74105 0.36790
 H405 H -0.06332 0.75124 0.28589
 H406 H -0.01664 0.75232 0.31123
 C407 C -0.00780 0.66016 0.42196
 C408 C 0.00645 0.83234 0.42604
 C409 C -0.08798 0.74610 0.32510
 C410 C 0.08409 0.75222 0.32253
 C411 C 0.52466 0.28538 0.91456
 H412 H 0.54105 0.26904 0.91607
 C413 C 0.52794 0.31136 0.92930
 H414 H 0.54670 0.31494 0.94252
 C415 C 0.48080 0.30145 0.89444
 H416 H 0.46293 0.29802 0.88013
 C417 C 0.48322 0.32757 0.90878
 H418 H 0.46692 0.34387 0.90585
 N419 N 0.50139 0.28098 0.89748
 C420 C 0.49396 0.18945 0.87959
 H421 H 0.49260 0.19105 0.85647
 C422 C 0.49130 0.16281 0.89285
 H423 H 0.48811 0.14373 0.87995
 C424 C 0.49955 0.21251 0.92466
 H425 H 0.50241 0.23202 0.93686
 C426 C 0.49701 0.18613 0.93885
 H427 H 0.49826 0.18526 0.96204
 Zn428 Zn 0.49978 0.24786 0.87406
 N429 N 0.49822 0.21356 0.89550
 C430 C 0.55258 0.22658 0.85369
 N431 N 0.53312 0.24816 0.85093
 C432 C 0.53872 0.27159 0.83437
 C433 C 0.56496 0.27407 0.82001
 C434 C 0.57897 0.22819 0.83969
 C435 C 0.44135 0.24502 0.86809
 C436 C 0.41470 0.24408 0.85471
 C437 C 0.43848 0.24949 0.80889
 C438 C 0.46487 0.25032 0.82320
 N439 N 0.46570 0.24831 0.85233
 H440 H 0.54818 0.20856 0.86757
 H441 H 0.52315 0.28874 0.83308
 H442 H 0.56953 0.29302 0.80731
 H443 H 0.59453 0.21116 0.84248
 H444 H 0.44276 0.24311 0.89118
 H445 H 0.39544 0.24158 0.86750
 H446 H 0.43779 0.25119 0.78572
 H447 H 0.48456 0.25242 0.81112
 C448 C 0.49284 0.16110 0.92271
 C449 C 0.50710 0.33271 0.92611
 C450 C 0.41322 0.24635 0.82489
 C451 C 0.58536 0.25227 0.82299
 C452 C 0.52446 0.71368 0.58688
 H453 H 0.54151 0.72928 0.58453
 C454 C 0.52650 0.68698 0.57326
 H455 H 0.54498 0.68209 0.56005
 C456 C 0.48013 0.70026 0.60802
 H457 H 0.46254 0.70500 0.62230
 C458 C 0.48132 0.67345 0.59482
 H459 H 0.46436 0.65796 0.59857
 N460 N 0.50154 0.71974 0.60394
 C461 C 0.49793 0.81206 0.61842
 H462 H 0.49633 0.81120 0.64156
 C463 C 0.49653 0.83838 0.60438
 H464 H 0.49401 0.85793 0.61672
 C465 C 0.50293 0.78749 0.57409
 H466 H 0.50509 0.76753 0.56249
 C467 C 0.50164 0.81354 0.55912
 H468 H 0.50308 0.81369 0.53592
 Zn469 Zn 0.50146 0.75386 0.62597
 N470 N 0.50129 0.78735 0.60325
 C471 C 0.55515 0.77407 0.64495
 N472 N 0.53493 0.75334 0.64894
 C473 C 0.53984 0.73057 0.66657
 C474 C 0.56612 0.72793 0.68083
 C475 C 0.58158 0.77228 0.65878
 C476 C 0.44323 0.75941 0.63177
 C477 C 0.41652 0.76127 0.64496
 C478 C 0.43981 0.75581 0.69098
 C479 C 0.46628 0.75407 0.67685
 N480 N 0.46736 0.75556 0.64771
 H481 H 0.55132 0.79153 0.63022
 H482 H 0.52369 0.71403 0.66884
 H483 H 0.57013 0.70950 0.69442
 H484 H 0.59770 0.78864 0.65504
 H485 H 0.44483 0.76080 0.60865
 H486 H 0.39742 0.76397 0.63201
 H487 H 0.43889 0.75427 0.71416
 H488 H 0.48579 0.75146 0.68907
 C489 C 0.49842 0.83916 0.57451
 C490 C 0.50481 0.66663 0.57754
 C491 C 0.41475 0.75935 0.67479
 C492 C 0.58726 0.74887 0.67661
 C493 C 0.91801 0.97733 0.71141
 H494 H 0.91992 0.95954 0.72622
 C495 C 0.93213 0.97682 0.68629
 H496 H 0.94558 0.95866 0.68089
 C497 C 0.89679 1.02272 0.70082
 H498 H 0.88244 1.04014 0.70573
 C499 C 0.91200 1.02316 0.67315
 H500 H 0.90876 1.04112 0.65869
 N501 N 0.89979 1.00124 0.71853
 C502 C 0.88378 1.01033 0.81196
 H503 H 0.86152 1.01663 0.81030
 C504 C 0.89623 1.00861 0.83767
 H505 H 0.88410 1.01379 0.85682
 C506 C 0.92641 0.99555 0.78755
 H507 H 0.93764 0.98957 0.76818
 C508 C 0.94114 0.99354 0.81562
 H509 H 0.96334 0.98671 0.81642
 Zn510 Zn 0.87707 1.00112 0.75259
 N511 N 0.89948 1.00293 0.78642
 C512 C 0.85830 0.94948 0.77771
 N513 N 0.85517 0.96662 0.75420
 C514 C 0.83838 0.95836 0.73177
 C515 C 0.82397 0.93194 0.73256
 C516 C 0.84430 0.92308 0.77936
 C517 C 0.86786 1.05937 0.75790
 C518 C 0.85397 1.08566 0.75510
 C519 C 0.81086 1.06037 0.74119
 C520 C 0.82564 1.03437 0.74427
 N521 N 0.85377 1.03444 0.75210
 H522 H 0.87214 0.95583 0.79511
 H523 H 0.83666 0.97200 0.71307
 H524 H 0.81095 0.92531 0.71449
 H525 H 0.84730 0.90956 0.79804
 H526 H 0.89028 1.05881 0.76384
 H527 H 0.86557 1.10538 0.75933
 H528 H 0.78861 1.06032 0.73454
 H529 H 0.81488 1.01434 0.73971
 C530 C 0.92640 0.99931 0.83969
 C531 C 0.92880 1.00106 0.66596
 C532 C 0.82535 1.08623 0.74630
 C533 C 0.82711 0.91412 0.75658
 C534 C 0.41490 0.47869 0.21313
 H535 H 0.41701 0.46113 0.22817
 C536 C 0.43016 0.47825 0.18720
 H537 H 0.44420 0.46040 0.18233
 C538 C 0.39320 0.52283 0.20023
 H539 H 0.37829 0.53990 0.20477
 C540 C 0.40800 0.52324 0.17427
 H541 H 0.40458 0.54071 0.15930
 N542 N 0.39687 0.50086 0.21919
 C543 C 0.38122 0.50870 0.31128
 H544 H 0.35857 0.51347 0.30984
 C545 C 0.39443 0.50745 0.33804
 H546 H 0.38203 0.51164 0.35725
 C547 C 0.42480 0.49641 0.28802
 H548 H 0.43638 0.49176 0.26849
 C549 C 0.43890 0.49489 0.31451
 H550 H 0.46142 0.48928 0.31534
 Zn551 Zn 0.37404 0.50080 0.25309
 N552 N 0.39631 0.50271 0.28701
 C553 C 0.35595 0.44856 0.27751
 N554 N 0.35223 0.46623 0.25450
 C555 C 0.33501 0.45842 0.23224
 C556 C 0.32069 0.43194 0.23273
 C557 C 0.34207 0.42209 0.27886
 C558 C 0.36517 0.55909 0.25746
 C559 C 0.35131 0.58540 0.25468
 C560 C 0.30770 0.56011 0.24245
 C561 C 0.32245 0.53409 0.24549
 N562 N 0.35081 0.53415 0.25243
 H563 H 0.37024 0.45450 0.29469
 H564 H 0.33286 0.47246 0.21388
 H565 H 0.30732 0.42567 0.21479
 H566 H 0.34555 0.40814 0.29714
 H567 H 0.38774 0.55849 0.26279
 H568 H 0.36312 0.60512 0.25829
 H569 H 0.28525 0.56007 0.23650
 H570 H 0.31145 0.51404 0.24162
 C571 C 0.42339 0.50006 0.33973
 C572 C 0.42654 0.50075 0.16758
 C573 C 0.32245 0.58598 0.24674
 C574 C 0.32441 0.41359 0.25626
 C575 C 0.58523 0.98153 0.29080
 H576 H 0.58246 0.96308 0.27698
 C577 C 0.57185 0.98260 0.31628
 H578 H 0.55814 0.96504 0.32298
 C579 C 0.60779 1.02694 0.29842
 H580 H 0.62227 1.04384 0.29211
 C581 C 0.59347 1.02909 0.32648
 H582 H 0.59749 1.04768 0.33990
 N583 N 0.60368 1.00469 0.28191
 C584 C 0.61369 1.00762 0.18892
 H585 H 0.63637 1.01252 0.18865
 C586 C 0.59873 1.00519 0.16319
 H587 H 0.60982 1.00862 0.14304
 C588 C 0.57176 0.99627 0.21552
 H589 H 0.56150 0.99248 0.23596
 C590 C 0.55592 0.99359 0.19012
 H591 H 0.53339 0.98795 0.19102
 Zn592 Zn 0.62459 1.00256 0.24688
 N593 N 0.60024 1.00271 0.21437
 C594 C 0.64175 0.94940 0.22390
 N595 N 0.64622 0.96791 0.24610
 C596 C 0.66437 0.96107 0.26793
 C597 C 0.67903 0.93482 0.26773
 C598 C 0.65594 0.92312 0.22286
 C599 C 0.63395 1.06039 0.23796
 C600 C 0.64795 1.08676 0.23958
 C601 C 0.69127 1.06195 0.25359
 C602 C 0.67638 1.03589 0.25166
 N603 N 0.64808 1.03569 0.24447
 H604 H 0.62677 0.95459 0.20709
 H605 H 0.66709 0.97575 0.28570
 H606 H 0.69322 0.92936 0.28529
 H607 H 0.65196 0.90854 0.20519
 H608 H 0.61139 1.05963 0.23265
 H609 H 0.63621 1.10630 0.23502
 H610 H 0.71361 1.06206 0.25999
 H611 H 0.68717 1.01605 0.25684
 C612 C 0.56972 0.99772 0.16373
 C613 C 0.57631 1.00777 0.33520
 C614 C 0.67671 1.08764 0.24796
 C615 C 0.67468 0.91568 0.24495
 C616 C 0.08505 0.48163 0.78923
 H617 H 0.08223 0.46315 0.77547
 C618 C 0.07092 0.48292 0.81574
 H619 H 0.05705 0.46546 0.82237
 C620 C 0.10731 0.52651 0.79823
 H621 H 0.12194 0.54329 0.79188
 C622 C 0.09365 0.52865 0.82472
 H623 H 0.09768 0.54707 0.83833
 N624 N 0.10279 0.50335 0.78094
 C625 C 0.11303 0.50703 0.68796
 H626 H 0.13569 0.51205 0.68783
 C627 C 0.09822 0.50469 0.66214
 H628 H 0.10940 0.50831 0.64206
 C629 C 0.07105 0.49518 0.71425
 H630 H 0.06071 0.49113 0.73460
 C631 C 0.05537 0.49257 0.68875
 H632 H 0.03289 0.48674 0.68950
 Zn633 Zn 0.12372 0.50127 0.74592
 N634 N 0.09949 0.50182 0.71331
 C635 C 0.14101 0.44838 0.72240
 N636 N 0.14521 0.46656 0.74492
 C637 C 0.16317 0.45944 0.76682
 C638 C 0.17796 0.43329 0.76633
 C639 C 0.15534 0.42219 0.72107
 C640 C 0.13369 0.55912 0.73761
 C641 C 0.14799 0.58530 0.73965
 C642 C 0.19092 0.55984 0.75361
 C643 C 0.17577 0.53398 0.75125
 N644 N 0.14751 0.53419 0.74390
 H645 H 0.12618 0.45379 0.70552
 H646 H 0.16568 0.47387 0.78482
 H647 H 0.19203 0.42762 0.78393
 H648 H 0.15160 0.40786 0.70314
 H649 H 0.11115 0.55869 0.73215
 H650 H 0.13657 0.60507 0.73530
 H651 H 0.21321 0.55969 0.76015
 H652 H 0.18631 0.51397 0.75625
 C653 C 0.06927 0.49698 0.66247
 C654 C 0.07536 0.50668 0.83364
 C655 C 0.17668 0.58573 0.74822
 C656 C 0.17394 0.41452 0.74320
 C657 C 0.78717 0.91604 0.02161
 H658 H 0.77234 0.91828 0.03933
 C659 C 0.81322 0.93111 0.02177
 H660 H 0.81840 0.94513 0.03957
 C661 C 0.79942 0.89418 -0.02265
 H662 H 0.79460 0.87929 -0.03967
 C663 C 0.82548 0.90880 -0.02334
 H664 H 0.84023 0.90523 -0.04096
 N665 N 0.78074 0.89801 -0.00048
 C666 C 0.68865 0.88276 -0.00811
 H667 H 0.69000 0.86011 -0.01301
 C668 C 0.66195 0.89606 -0.00682
 H669 H 0.64271 0.88373 -0.01112
 C670 C 0.71204 0.92623 0.00451
 H671 H 0.73160 0.93772 0.00929
 C672 C 0.68562 0.94041 0.00607
 H673 H 0.68486 0.96292 0.01185
 Zn674 Zn 0.74673 0.87533 -0.00012
 N675 N 0.71295 0.89776 -0.00199
 C676 C 0.72220 0.85729 0.05206
 N677 N 0.74530 0.85363 0.03449
 C678 C 0.76754 0.83645 0.04236
 C679 C 0.76692 0.82204 0.06876
 C680 C 0.72073 0.84332 0.07846
 C681 C 0.74177 0.86607 -0.05827
 C682 C 0.74476 0.85217 -0.08453
 C683 C 0.75802 0.80890 -0.05918
 C684 C 0.75475 0.82368 -0.03321
 N685 N 0.74720 0.85191 -0.03332
 H686 H 0.70503 0.87153 0.04606
 H687 H 0.78597 0.83436 0.02840
 H688 H 0.78483 0.80867 0.07507
 H689 H 0.70237 0.84670 0.09231
 H690 H 0.73603 0.88855 -0.05772
 H691 H 0.74088 0.86384 -0.10427
 H692 H 0.76450 0.78658 -0.05911
 H693 H 0.75898 0.81285 -0.01316
 C694 C 0.66036 0.92500 0.00075
 C695 C 0.83256 0.92731 -0.00093
 C696 C 0.75336 0.82348 -0.08505
 C697 C 0.74328 0.82564 0.08698
 C698 C 0.28638 0.41532 0.52100
 H699 H 0.27126 0.41749 0.53848
 C700 C 0.31228 0.43064 0.52151
 H701 H 0.31705 0.44478 0.53932
 C702 C 0.29950 0.39341 0.47702
 H703 H 0.29506 0.37841 0.45999
 C704 C 0.32544 0.40828 0.47667
 H705 H 0.34049 0.40479 0.45929
 N706 N 0.28044 0.39718 0.49887
 C707 C 0.18842 0.38173 0.49054
 H708 H 0.18983 0.35906 0.48573
 C709 C 0.16170 0.39499 0.49174
 H710 H 0.14248 0.38261 0.48747
 C711 C 0.21172 0.42529 0.50302
 H712 H 0.23124 0.43685 0.50777
 C713 C 0.18527 0.43944 0.50449
 H714 H 0.18447 0.46196 0.51018
 Zn715 Zn 0.24648 0.37439 0.49876
 N716 N 0.21269 0.39679 0.49666
 C717 C 0.22170 0.35653 0.55089
 N718 N 0.24476 0.35262 0.53333
 C719 C 0.26683 0.33522 0.54124
 C720 C 0.26607 0.32090 0.56770
 C721 C 0.22009 0.34266 0.57734
 C722 C 0.24247 0.36550 0.44047
 C723 C 0.24523 0.35159 0.41418
 C724 C 0.25687 0.30784 0.43951
 C725 C 0.25387 0.32266 0.46551
 N726 N 0.24723 0.35111 0.46543
 H727 H 0.20468 0.37096 0.54488
 H728 H 0.28523 0.33291 0.52729
 H729 H 0.28384 0.30738 0.57405
 H730 H 0.20178 0.34628 0.59119
 H731 H 0.23735 0.38814 0.44105
 H732 H 0.24183 0.36342 0.39446
 H733 H 0.26257 0.28531 0.43957
 H734 H 0.25750 0.31162 0.48557
 C735 C 0.16004 0.42396 0.49921
 C736 C 0.33199 0.42696 0.49910
 C737 C 0.25285 0.32262 0.41363
 C738 C 0.24248 0.32480 0.58593
 C739 C 0.21013 0.58467 0.01845
 H740 H 0.22403 0.58171 0.03678
 C741 C 0.18350 0.57072 0.01738
 H742 H 0.17700 0.55683 0.03488
 C743 C 0.20087 0.60718 -0.02622
 H744 H 0.20716 0.62186 -0.04297
 C745 C 0.17425 0.59371 -0.02815
 H746 H 0.16055 0.59796 -0.04646
 N747 N 0.21834 0.60245 -0.00326
 C748 C 0.31132 0.61276 -0.00702
 H749 H 0.31138 0.63544 -0.01200
 C750 C 0.33719 0.59805 -0.00470
 H751 H 0.35721 0.60933 -0.00832
 C752 C 0.28518 0.57063 0.00476
 H753 H 0.26488 0.56019 0.00879
 C754 C 0.31074 0.55504 0.00733
 H755 H 0.31007 0.53253 0.01312
 Zn756 Zn 0.25342 0.62333 -0.00131
 N757 N 0.28603 0.59910 -0.00183
 C758 C 0.27682 0.64056 0.05165
 N759 N 0.25447 0.64493 0.03333
 C760 C 0.23269 0.66309 0.04032
 C761 C 0.23312 0.67788 0.06649
 C762 C 0.27808 0.65488 0.07786
 C763 C 0.26142 0.63292 -0.05921
 C764 C 0.25965 0.64716 -0.08542
 C765 C 0.24679 0.69054 -0.06005
 C766 C 0.24885 0.67542 -0.03416
 N767 N 0.25552 0.64698 -0.03431
 H768 H 0.29359 0.62557 0.04634
 H769 H 0.21482 0.66575 0.02577
 H770 H 0.21562 0.69210 0.07205
 H771 H 0.29587 0.65099 0.09230
 H772 H 0.26639 0.61025 -0.05872
 H773 H 0.26370 0.63556 -0.10515
 H774 H 0.24080 0.71299 -0.05996
 H775 H 0.24420 0.68617 -0.01417
 C776 C 0.33696 0.56907 0.00295
 C777 C 0.16538 0.57539 -0.00617
 C778 C 0.25179 0.67607 -0.08591
 C779 C 0.25607 0.67366 0.08541
 C780 C 0.71107 0.08671 0.51756
 H781 H 0.72478 0.08427 0.53611
 C782 C 0.68459 0.07248 0.51646
 H783 H 0.67796 0.05891 0.53414
 C784 C 0.70215 0.10814 0.47229
 H785 H 0.70854 0.12245 0.45526
 C786 C 0.67569 0.09435 0.47034
 H787 H 0.66213 0.09800 0.45182
 N788 N 0.71936 0.10409 0.49557
 C789 C 0.81228 0.11436 0.49171
 H790 H 0.81248 0.13700 0.48656
 C791 C 0.83805 0.09948 0.49414
 H792 H 0.85815 0.11059 0.49045
 C793 C 0.78586 0.07249 0.50379
 H794 H 0.76549 0.06222 0.50791
 C795 C 0.81130 0.05674 0.50649
 H796 H 0.81047 0.03428 0.51245
 Zn797 Zn 0.75431 0.12517 0.49746
 N798 N 0.78690 0.10090 0.49699
 C799 C 0.77783 0.14256 0.55033
 N800 N 0.75532 0.14676 0.53216
 C801 C 0.73333 0.16456 0.53941
 C802 C 0.73366 0.17908 0.56574
 C803 C 0.77900 0.15664 0.57668
 C804 C 0.76290 0.13487 0.43959
 C805 C 0.76089 0.14896 0.41331
 C806 C 0.74612 0.19189 0.43837
 C807 C 0.74846 0.17695 0.46435
 N808 N 0.75624 0.14878 0.46438
 H809 H 0.79479 0.12787 0.54481
 H810 H 0.71533 0.16706 0.52500
 H811 H 0.71597 0.19297 0.57153
 H812 H 0.79691 0.15285 0.59099
 H813 H 0.76865 0.11239 0.44020
 H814 H 0.76556 0.13744 0.39366
 H815 H 0.73925 0.21409 0.43832
 H816 H 0.74312 0.18755 0.48424
 C817 C 0.83762 0.07056 0.50202
 C818 C 0.66675 0.07645 0.49261
 C819 C 0.75194 0.17755 0.41261
 C820 C 0.75673 0.17498 0.58454
 C821 C 0.98122 0.70930 0.91602
 H822 H 0.96263 0.72294 0.91856
 C823 C 0.98226 0.68372 0.92923
 H824 H 0.96453 0.67677 0.94258
 C825 C 1.02705 0.70226 0.89426
 H826 H 1.04416 0.70884 0.88016
 C827 C 1.02917 0.67411 0.90843
 H828 H 1.04793 0.66089 0.90466
 N829 N 1.00458 0.71851 0.89800
 C830 C 1.00914 0.81286 0.88675
 H831 H 1.01502 0.81275 0.86429
 C832 C 1.00674 0.83772 0.90075
 H833 H 1.01094 0.85773 0.88965
 C834 C 0.99624 0.78545 0.92821
 H835 H 0.99132 0.76523 0.93844
 C836 C 0.99350 0.81252 0.94464
 H837 H 0.98717 0.81178 0.96701
 Zn838 Zn 1.00240 0.75349 0.87694
 N839 N 1.00309 0.78618 0.90110
 C840 C 0.94984 0.77738 0.85937
 N841 N 0.96760 0.75447 0.85564
 C842 C 0.96000 0.73220 0.83830
 C843 C 0.93374 0.73266 0.82373
 C844 C 0.92355 0.77869 0.84523
 C845 C 1.06000 0.76281 0.86624
 C846 C 1.08607 0.76078 0.85180
 C847 C 1.06058 0.74456 0.80966
 C848 C 1.03482 0.74694 0.82493
 N849 N 1.03510 0.75548 0.85288
 H850 H 0.95570 0.79461 0.87364
 H851 H 0.97412 0.71392 0.83615
 H852 H 0.92768 0.71478 0.81017
 H853 H 0.90956 0.79694 0.84859
 H854 H 1.05966 0.76908 0.88858
 H855 H 1.10582 0.76599 0.86289
 H856 H 1.06039 0.73710 0.78765
 H857 H 1.01486 0.74102 0.81478
 C858 C 0.99807 0.83762 0.93122
 C859 C 1.00762 0.66504 0.92508
 C860 C 1.08644 0.75110 0.82345
 C861 C 0.91536 0.75616 0.82731
 C862 C 0.48141 0.21129 0.41338
 H863 H 0.46289 0.22500 0.41603
 C864 C 0.48262 0.18475 0.42747
 H865 H 0.46506 0.17805 0.44115
 C866 C 0.52650 0.20249 0.39156
 H867 H 0.54341 0.20895 0.37714
 C868 C 0.52856 0.17596 0.40520
 H869 H 0.54704 0.16242 0.40134
 N870 N 0.50326 0.21967 0.39587
 C871 C 0.50675 0.31266 0.38582
 H872 H 0.51156 0.31294 0.36312
 C873 C 0.50451 0.33840 0.40083
 H874 H 0.50799 0.35856 0.38975
 C875 C 0.49540 0.28607 0.42777
 H876 H 0.49151 0.26564 0.43802
 C877 C 0.49290 0.31148 0.44365
 H878 H 0.48731 0.31057 0.46619
 Zn879 Zn 0.50115 0.25465 0.37494
 N880 N 0.50173 0.28722 0.39926
 C881 C 0.44816 0.27799 0.35776
 N882 N 0.46638 0.25551 0.35358
 C883 C 0.45917 0.23341 0.33587
 C884 C 0.43287 0.23361 0.32135
 C885 C 0.42182 0.27903 0.34370
 C886 C 0.55888 0.26337 0.36478
 C887 C 0.58504 0.26128 0.35049
 C888 C 0.55963 0.24644 0.30779
 C889 C 0.53379 0.24885 0.32293
 N890 N 0.53399 0.25669 0.35108
 H891 H 0.45366 0.29503 0.37240
 H892 H 0.47363 0.21544 0.33339
 H893 H 0.42713 0.21584 0.30750
 H894 H 0.40747 0.29692 0.34743
 H895 H 0.55846 0.26915 0.38725
 H896 H 0.60477 0.26595 0.36183
 H897 H 0.55949 0.23952 0.28560
 H898 H 0.51382 0.24350 0.31249
 C899 C 0.49712 0.33786 0.42987
 C900 C 0.50643 0.16694 0.42322
 C901 C 0.58548 0.25224 0.32192
 C902 C 0.41403 0.25666 0.32540
 C903 C 0.97897 0.28767 0.58392
 H904 H 0.96152 0.27252 0.58163
 C905 C 0.97844 0.31369 0.56878
 H906 H 0.96061 0.31844 0.55467
 C907 C 1.02291 0.30074 0.60592
 H908 H 1.03991 0.29624 0.62091
 C909 C 1.02324 0.32681 0.59126
 H910 H 1.04065 0.34182 0.59490
 N911 N 1.00109 0.28164 0.60201
 C912 C 1.00917 0.18938 0.61702
 H913 H 1.01413 0.19076 0.63965
 C914 C 1.00782 0.16264 0.60373
 H915 H 1.01213 0.14340 0.61605
 C916 C 0.99648 0.21274 0.57360
 H917 H 0.99171 0.23230 0.56211
 C918 C 0.99485 0.18627 0.55942
 H919 H 0.98904 0.18549 0.53694
 Zn920 Zn 1.00125 0.24750 0.62459
 N921 N 1.00304 0.21370 0.60205
 C922 C 0.94918 0.22280 0.64278
 N923 N 0.96688 0.24579 0.64669
 C924 C 0.95927 0.26775 0.66438
 C925 C 0.93300 0.26696 0.67903
 C926 C 0.92292 0.22115 0.65698
 C927 C 1.05961 0.24351 0.63297
 C928 C 1.08598 0.24599 0.64676
 C929 C 1.06093 0.25682 0.69089
 C930 C 1.03486 0.25412 0.67618
 N931 N 1.03476 0.24801 0.64761
 H932 H 0.95495 0.20586 0.62813
 H933 H 0.97332 0.28610 0.66670
 H934 H 0.92689 0.28466 0.69278
 H935 H 0.90895 0.20290 0.65336
 H936 H 1.05888 0.23878 0.61026
 H937 H 1.10559 0.24276 0.63468
 H938 H 1.06093 0.26207 0.71354
 H939 H 1.01488 0.25751 0.68741
 C940 C 1.00017 0.16100 0.57482
 C941 C 1.00082 0.33347 0.57260
 C942 C 1.08673 0.25305 0.67589
 C943 C 0.91464 0.24343 0.67515
 C944 C 0.47860 0.78728 0.08526
 H945 H 0.46101 0.77227 0.08313
 C946 C 0.47808 0.81336 0.07024
 H947 H 0.46015 0.81836 0.05635
 C948 C 0.52287 0.79998 0.10680
 H949 H 0.54004 0.79531 0.12155
 C950 C 0.52321 0.82609 0.09223
 H951 H 0.54071 0.84102 0.09567
 N952 N 0.50086 0.78106 0.10311
 C953 C 0.50898 0.68887 0.11823
 H954 H 0.51395 0.69025 0.14086
 C955 C 0.50773 0.66215 0.10491
 H956 H 0.51212 0.64290 0.11720
 C957 C 0.49618 0.71224 0.07485
 H958 H 0.49132 0.73179 0.06339
 C959 C 0.49465 0.68578 0.06064
 H960 H 0.48882 0.68501 0.03816
 Zn961 Zn 0.50090 0.74701 0.12577
 N962 N 0.50276 0.71318 0.10329
 C963 C 0.44880 0.72235 0.14391
 N964 N 0.46640 0.74544 0.14766
 C965 C 0.45849 0.76770 0.16485
 C966 C 0.43197 0.76716 0.17904
 C967 C 0.42229 0.72095 0.15768
 C968 C 0.55918 0.74249 0.13442
 C969 C 0.58557 0.74541 0.14809
 C970 C 0.56062 0.75813 0.19174
 C971 C 0.53451 0.75495 0.17718
 N972 N 0.53436 0.74768 0.14888
 H973 H 0.45482 0.70516 0.12967
 H974 H 0.47246 0.78613 0.16702
 H975 H 0.42561 0.78512 0.19235
 H976 H 0.40840 0.70262 0.15416
 H977 H 0.55843 0.73695 0.11189
 H978 H 0.60519 0.74168 0.13619
 H979 H 0.56074 0.76434 0.21413
 H980 H 0.51456 0.75899 0.18824
 C981 C 0.50009 0.66051 0.07599
 C982 C 0.50061 0.83296 0.07390
 C983 C 0.58637 0.75367 0.17687
 C984 C 0.41367 0.74358 0.17525
 O985 O -0.01583 0.98145 0.92227
 O986 O 0.03137 0.99469 0.92170
 O987 O -0.01951 0.91913 0.99190
 O988 O -0.01188 0.91827 1.03869
 O989 O -0.08383 0.98771 0.98609
 O990 O -0.08298 1.03711 0.99730
 O991 O 0.05304 0.99679 1.06707
 O992 O 0.05592 0.95170 1.04817
 O993 O 0.06244 1.05451 0.99816
 O994 O 0.03886 1.06084 0.95171
 O995 O -0.00541 1.06604 1.05662
 O996 O -0.05161 1.04319 1.06440
 O997 O 0.01362 1.02059 1.08348
 O998 O -0.03825 1.00781 1.08401
 O999 O 0.01755 1.08188 1.01655
 O1000 O 0.00370 1.08076 0.96523
 O1001 O 0.07865 1.01540 1.02249
 O1002 O 0.07683 0.96594 1.00332
 O1003 O -0.05492 1.00607 0.93831
 O1004 O -0.06130 1.05161 0.96150
 O1005 O -0.06772 0.94818 1.00976
 O1006 O -0.04330 0.94511 1.05674
 O1007 O 0.00236 0.93513 0.95123
 O1008 O 0.04980 0.95853 0.94846
 Zr1009 Zr 0.01040 0.97889 0.95884
 O1010 O 0.03786 1.00541 0.98294
 Zr1011 Zr -0.02393 0.95633 1.01718
 O1012 O 0.00282 0.98126 1.04369
 Zr1013 Zr -0.04714 1.01382 0.98222
 O1014 O -0.02205 1.04139 1.00780
 Zr1015 Zr 0.04283 0.98797 1.02414
 O1016 O 0.01742 0.95975 0.99922
 Zr1017 Zr 0.01900 1.04567 0.98968
 O1018 O -0.00712 1.02039 0.96253
 Zr1019 Zr -0.01458 1.02260 1.04813
 O1020 O -0.04304 0.99669 1.02381
 O1021 O -0.03034 0.97294 0.97630
 O1022 O 0.02606 1.02903 1.03060
 C1023 C -0.04010 0.99387 0.91850
 C1024 C -0.00841 0.91527 0.96698
 C1025 C -0.08759 0.96321 0.99811
 C1026 C 0.03856 1.00939 1.08682
 C1027 C 0.08214 1.04009 1.01084
 C1028 C 0.00683 1.08562 1.04158
 H1029 H 0.05650 1.00693 0.97292
 H1030 H -0.03193 1.06006 1.00948
 H1031 H -0.04268 0.96052 0.96425
 H1032 H 0.00504 0.97143 1.06236
 H1033 H 0.05116 0.93460 1.03648
 H1034 H 0.00603 0.92263 1.04913
 H1035 H -0.01404 1.08785 0.97445
 H1036 H -0.04568 1.05759 0.94839
 H1037 H 0.09394 0.96670 1.01593
 H1038 H 0.04717 0.94681 0.93087
 H1039 H -0.05793 1.05738 1.04994
 H1040 H -0.08592 1.03121 1.01750
 H1041 H 0.02571 1.01505 0.91962
 H1042 H 0.05393 1.04694 0.94626
 H1043 H -0.05830 0.95962 1.06062
 H1044 H -0.02903 0.99003 1.09103
 O1045 O 0.48277 0.48274 0.42327
 O1046 O 0.52999 0.49624 0.42259
 O1047 O 0.47964 0.42005 0.49251
 O1048 O 0.48741 0.41895 0.53930
 O1049 O 0.41507 0.48841 0.48724
 O1050 O 0.41584 0.53780 0.49897
 O1051 O 0.55222 0.49763 0.56786
 O1052 O 0.55509 0.45255 0.54882
 O1053 O 0.56129 0.55551 0.49906
 O1054 O 0.53730 0.56204 0.45277
 O1055 O 0.49364 0.56662 0.55800
 O1056 O 0.44737 0.54363 0.56572
 O1057 O 0.51275 0.52117 0.58453
 O1058 O 0.46099 0.50824 0.58522
 O1059 O 0.51653 0.58268 0.51798
 O1060 O 0.50235 0.58200 0.46679
 O1061 O 0.57765 0.51633 0.52317
 O1062 O 0.57579 0.46692 0.50390
 O1063 O 0.44369 0.50720 0.43959
 O1064 O 0.43727 0.55256 0.46304
 O1065 O 0.43141 0.44878 0.51060
 O1066 O 0.45589 0.44563 0.55757
 O1067 O 0.50125 0.43639 0.45183
 O1068 O 0.54859 0.45987 0.44899
 Zr1069 Zr 0.50920 0.48010 0.45969
 O1070 O 0.53670 0.50651 0.48384
 Zr1071 Zr 0.47517 0.45709 0.51803
 O1072 O 0.50194 0.48196 0.54458
 Zr1073 Zr 0.45165 0.51472 0.48350
 O1074 O 0.47680 0.54223 0.50910
 Zr1075 Zr 0.54186 0.48887 0.52493
 O1076 O 0.51643 0.46074 0.49993
 Zr1077 Zr 0.51778 0.54669 0.49084
 O1078 O 0.49158 0.52152 0.46368
 Zr1079 Zr 0.48444 0.52323 0.54929
 O1080 O 0.45596 0.49735 0.52496
 O1081 O 0.46856 0.47393 0.47729
 O1082 O 0.52501 0.52985 0.53165
 C1083 C 0.45843 0.49509 0.41968
 C1084 C 0.49061 0.41641 0.46750
 C1085 C 0.41146 0.46377 0.49904
 C1086 C 0.53777 0.51010 0.58771
 C1087 C 0.58107 0.54104 0.51154
 C1088 C 0.50591 0.58627 0.54308
 H1089 H 0.55529 0.50811 0.47374
 H1090 H 0.46690 0.56088 0.51093
 H1091 H 0.45623 0.46154 0.46520
 H1092 H 0.50426 0.47206 0.56320
 H1093 H 0.55031 0.43548 0.53710
 H1094 H 0.50526 0.42336 0.54985
 H1095 H 0.48460 0.58895 0.47612
 H1096 H 0.45287 0.55875 0.45001
 H1097 H 0.59295 0.46766 0.51644
 H1098 H 0.54591 0.44833 0.43129
 H1099 H 0.44109 0.55800 0.55143
 H1100 H 0.41293 0.53163 0.51909
 H1101 H 0.52405 0.51652 0.42051
 H1102 H 0.55242 0.54824 0.44721
 H1103 H 0.44085 0.46007 0.56154
 H1104 H 0.47019 0.49038 0.59203
 O1105 O 0.43779 -0.05193 0.49292
 O1106 O 0.45903 -0.05664 0.44838
 O1107 O 0.50871 -0.06181 0.55165
 O1108 O 0.54991 -0.04000 0.56140
 O1109 O 0.44806 0.00854 0.56249
 O1110 O 0.44177 0.05324 0.53882
 O1111 O 0.58340 0.01597 0.47888
 O1112 O 0.58409 -0.03017 0.49423
 O1113 O 0.51662 0.02089 0.41701
 O1114 O 0.46626 0.00889 0.41644
 O1115 O 0.52076 0.08351 0.48325
 O1116 O 0.50952 0.08459 0.53309
 O1117 O 0.56676 0.05591 0.50167
 O1118 O 0.54210 0.06253 0.54908
 O1119 O 0.49751 0.06686 0.44372
 O1120 O 0.45060 0.04208 0.43785
 O1121 O 0.55659 -0.00147 0.43381
 O1122 O 0.55633 -0.04978 0.45578
 O1123 O 0.42096 -0.01175 0.51520
 O1124 O 0.42125 0.03815 0.50240
 O1125 O 0.48755 -0.01468 0.57928
 O1126 O 0.53819 0.00073 0.57754
 O1127 O 0.48436 -0.07851 0.51274
 O1128 O 0.50109 -0.07672 0.46261
 Zr1129 Zr 0.48129 -0.04263 0.48546
 O1130 O 0.50684 -0.01760 0.45789
 Zr1131 Zr 0.51473 -0.01785 0.54336
 O1132 O 0.54218 0.00744 0.51797
 Zr1133 Zr 0.45692 0.01548 0.51877
 O1134 O 0.48195 0.04282 0.49291
 Zr1135 Zr 0.54697 -0.01053 0.47697
 O1136 O 0.52245 -0.03799 0.50365
 Zr1137 Zr 0.48917 0.02345 0.45285
 O1138 O 0.46159 -0.00270 0.47776
 Zr1139 Zr 0.52316 0.04760 0.51058
 O1140 O 0.49672 0.02328 0.53859
 O1141 O 0.47439 -0.02489 0.52588
 O1142 O 0.53001 0.03040 0.46982
 C1143 C 0.41769 -0.03678 0.50410
 C1144 C 0.49659 -0.08185 0.53715
 C1145 C 0.46285 -0.00306 0.58258
 C1146 C 0.58673 0.04100 0.48992
 C1147 C 0.54171 0.01007 0.41378
 C1148 C 0.50944 0.08684 0.45840
 H1149 H 0.50882 -0.02776 0.43936
 H1150 H 0.47192 0.06140 0.49111
 H1151 H 0.46218 -0.03718 0.53822
 H1152 H 0.56089 0.00910 0.52779
 H1153 H 0.57768 -0.04822 0.50347
 H1154 H 0.56662 -0.03608 0.54895
 H1155 H 0.44576 0.05825 0.45072
 H1156 H 0.41758 0.03048 0.48294
 H1157 H 0.57520 -0.04779 0.44613
 H1158 H 0.48940 -0.09440 0.46495
 H1159 H 0.48965 0.08876 0.52700
 H1160 H 0.45734 0.05997 0.55160
 H1161 H 0.44724 -0.04030 0.44172
 H1162 H 0.47360 -0.01039 0.41146
 H1163 H 0.52838 0.01885 0.58269
 H1164 H 0.55859 0.04995 0.55352
 O1165 O -0.05204 0.50694 1.06302
 O1166 O -0.05673 0.55148 1.04184
 O1167 O -0.06232 0.44824 0.99203
 O1168 O -0.04073 0.43864 0.95067
 O1169 O 0.00811 0.43716 1.05246
 O1170 O 0.05284 0.46072 1.05875
 O1171 O 0.01542 0.52101 0.91724
 O1172 O -0.03071 0.50588 0.91660
 O1173 O 0.02077 0.58283 0.98422
 O1174 O 0.00898 0.58334 1.03457
 O1175 O 0.08312 0.51638 0.97979
 O1176 O 0.08403 0.46651 0.99090
 O1177 O 0.05529 0.49807 0.93375
 O1178 O 0.06184 0.45063 0.95834
 O1179 O 0.06671 0.55592 1.00319
 O1180 O 0.04201 0.56173 1.05020
 O1181 O -0.00176 0.56618 0.94423
 O1182 O -0.05008 0.54431 0.94453
 O1183 O -0.01194 0.48451 1.07974
 O1184 O 0.03797 0.49714 1.07938
 O1185 O -0.01522 0.42049 1.01294
 O1186 O -0.00004 0.42232 0.96225
 O1187 O -0.07882 0.48717 1.01647
 O1188 O -0.07689 0.53736 0.99975
 Zr1189 Zr -0.04287 0.51441 1.01949
 O1190 O -0.01780 0.54199 0.99397
 Zr1191 Zr -0.01840 0.45650 0.98586
 O1192 O 0.00689 0.48190 0.95843
 Zr1193 Zr 0.01515 0.48090 1.04369
 O1194 O 0.04251 0.50675 1.01866
 Zr1195 Zr -0.01092 0.52299 0.95375
 O1196 O -0.03840 0.49630 0.97826
 Zr1197 Zr 0.02329 0.54689 1.01157
 O1198 O -0.00288 0.52198 1.03913
 Zr1199 Zr 0.04711 0.48915 0.97739
 O1200 O 0.02277 0.46114 1.00381
 O1201 O -0.02526 0.47392 1.02628
 O1202 O 0.03006 0.52999 0.97064
 C1203 C -0.03689 0.49570 1.08308
 C1204 C -0.08227 0.46276 1.00423
 C1205 C -0.00355 0.41711 1.03761
 C1206 C 0.04036 0.50986 0.91381
 C1207 C 0.00987 0.58617 0.95916
 C1208 C 0.08659 0.54120 0.99119
 H1209 H -0.02789 0.56055 0.99206
 H1210 H 0.06111 0.50848 1.02867
 H1211 H -0.03754 0.46158 1.03850
 H1212 H 0.00846 0.47211 0.93969
 H1213 H -0.04875 0.49665 0.92302
 H1214 H -0.03677 0.45110 0.93396
 H1215 H 0.05819 0.54886 1.05494
 H1216 H 0.03038 0.51662 1.08310
 H1217 H -0.04812 0.55401 0.92568
 H1218 H -0.09454 0.53501 1.01144
 H1219 H 0.08826 0.47254 1.01079
 H1220 H 0.05950 0.44797 1.04312
 H1221 H -0.04033 0.55814 1.05357
 H1222 H -0.01032 0.58833 1.02736
 H1223 H 0.01809 0.41711 0.97199
 H1224 H 0.04919 0.44623 0.94188
 O1225 O 0.01317 0.41504 0.51202
 O1226 O -0.00024 0.41474 0.46466
 O1227 O 0.07649 0.48354 0.51577
 O1228 O 0.07841 0.53023 0.50852
 O1229 O 0.00732 0.47889 0.57997
 O1230 O -0.04191 0.49076 0.57866
 O1231 O 0.00149 0.56054 0.44332
 O1232 O 0.04603 0.54031 0.44049
 O1233 O -0.05801 0.49312 0.43316
 O1234 O -0.06540 0.44647 0.45626
 O1235 O -0.06860 0.55113 0.50129
 O1236 O -0.04624 0.55841 0.54742
 O1237 O -0.02243 0.57715 0.48262
 O1238 O -0.01000 0.57693 0.53478
 O1239 O -0.08527 0.51143 0.47829
 O1240 O -0.08522 0.45995 0.49157
 O1241 O -0.01832 0.51684 0.41738
 O1242 O 0.03048 0.49610 0.41914
 O1243 O -0.01127 0.43146 0.55111
 O1244 O -0.05671 0.45513 0.55663
 O1245 O 0.04748 0.50157 0.56390
 O1246 O 0.05174 0.54864 0.53972
 O1247 O 0.06004 0.44326 0.49353
 O1248 O 0.03653 0.44064 0.44618
 Zr1249 Zr 0.01637 0.45155 0.48557
 O1250 O -0.00937 0.47640 0.45800
 Zr1251 Zr 0.03983 0.50939 0.52015
 O1252 O 0.01578 0.53653 0.49339
 Zr1253 Zr -0.01845 0.47541 0.54301
 O1254 O -0.04521 0.50169 0.51782
 Zr1255 Zr 0.00897 0.51728 0.45327
 O1256 O 0.03636 0.49161 0.47875
 Zr1257 Zr -0.04960 0.48390 0.47662
 O1258 O -0.02515 0.45606 0.50284
 Zr1259 Zr -0.02551 0.54169 0.51064
 O1260 O -0.00044 0.51669 0.53917
 O1261 O 0.02239 0.46880 0.52638
 O1262 O -0.03202 0.52453 0.46987
 C1263 C 0.00084 0.41149 0.53644
 C1264 C 0.08005 0.45868 0.50449
 C1265 C 0.03204 0.49040 0.58376
 C1266 C -0.01083 0.58045 0.45782
 C1267 C -0.04325 0.50583 0.41367
 C1268 C -0.08847 0.53652 0.48909
 H1269 H -0.01100 0.46656 0.43926
 H1270 H -0.06390 0.50371 0.52763
 H1271 H 0.03455 0.45654 0.53875
 H1272 H 0.02606 0.55499 0.49133
 H1273 H 0.06271 0.52804 0.44520
 H1274 H 0.07453 0.54060 0.49044
 H1275 H -0.09204 0.46899 0.50952
 H1276 H -0.06250 0.44194 0.54102
 H1277 H 0.03018 0.50888 0.40212
 H1278 H 0.04785 0.42281 0.44888
 H1279 H -0.06047 0.54403 0.55387
 H1280 H -0.03562 0.51082 0.58178
 H1281 H -0.02063 0.41309 0.47037
 H1282 H -0.05137 0.44074 0.44141
 H1283 H 0.03734 0.55267 0.55480
 H1284 H 0.00775 0.58392 0.52546
 O1285 O 0.51340 0.91626 0.01322
 O1286 O 0.50021 0.91603 -0.03414
 O1287 O 0.57686 0.98468 0.01727
 O1288 O 0.57886 1.03137 0.01015
 O1289 O 0.50752 0.97995 0.08128
 O1290 O 0.45834 0.99199 0.07988
 O1291 O 0.50211 1.06177 -0.05535
 O1292 O 0.54667 1.04158 -0.05800
 O1293 O 0.44262 0.99451 -0.06569
 O1294 O 0.43502 0.94788 -0.04262
 O1295 O 0.43193 1.05253 0.00249
 O1296 O 0.45413 1.05974 0.04862
 O1297 O 0.47815 1.07843 -0.01610
 O1298 O 0.49054 1.07812 0.03616
 O1299 O 0.41525 1.01290 -0.02065
 O1300 O 0.41514 0.96140 -0.00738
 O1301 O 0.48242 1.01813 -0.08135
 O1302 O 0.53119 0.99735 -0.07942
 O1303 O 0.48884 0.93263 0.05224
 O1304 O 0.44346 0.95646 0.05774
 O1305 O 0.54774 1.00263 0.06534
 O1306 O 0.55210 1.04977 0.04124
 O1307 O 0.56040 0.94444 -0.00504
 O1308 O 0.53702 0.94193 -0.05249
 Zr1309 Zr 0.51677 0.95280 -0.01314
 O1310 O 0.49113 0.97770 -0.04074
 Zr1311 Zr 0.54021 1.01055 0.02159
 O1312 O 0.51629 1.03776 -0.00522
 Zr1313 Zr 0.48182 0.97663 0.04425
 O1314 O 0.45517 1.00301 0.01902
 Zr1315 Zr 0.50957 1.01854 -0.04537
 O1316 O 0.53686 0.99282 -0.01984
 Zr1317 Zr 0.45086 0.98527 -0.02221
 O1318 O 0.47520 0.95735 0.00402
 Zr1319 Zr 0.47497 1.04298 0.01193
 O1320 O 0.49991 1.01789 0.04050
 O1321 O 0.52270 0.96998 0.02771
 O1322 O 0.46855 1.02586 -0.02888
 C1323 C 0.50095 0.91268 0.03756
 C1324 C 0.58041 0.95982 0.00598
 C1325 C 0.53226 0.99141 0.08514
 C1326 C 0.48976 1.08168 -0.04089
 C1327 C 0.45749 1.00717 -0.08515
 C1328 C 0.41207 1.03798 -0.00982
 H1329 H 0.48954 0.96788 -0.05948
 H1330 H 0.43647 1.00505 0.02878
 H1331 H 0.53479 0.95767 0.04009
 H1332 H 0.52660 1.05621 -0.00724
 H1333 H 0.56334 1.02930 -0.05326
 H1334 H 0.57508 1.04171 -0.00797
 H1335 H 0.40825 0.97048 0.01053
 H1336 H 0.43766 0.94333 0.04208
 H1337 H 0.53097 1.01015 -0.09643
 H1338 H 0.54835 0.92411 -0.04978
 H1339 H 0.43997 1.04531 0.05512
 H1340 H 0.46467 1.01203 0.08305
 H1341 H 0.47978 0.91444 -0.02858
 H1342 H 0.44907 0.94214 -0.05745
 H1343 H 0.53769 1.05377 0.05633
 H1344 H 0.50824 1.08518 0.02680
 O1345 O 0.48769 0.51345 0.08454
 O1346 O 0.53504 0.50019 0.08476
 O1347 O 0.48367 0.57688 0.01623
 O1348 O 0.49090 0.57884 -0.03046
 O1349 O 0.41967 0.50743 0.02083
 O1350 O 0.42107 0.45820 0.00887
 O1351 O 0.55616 0.50202 -0.06100
 O1352 O 0.55900 0.54656 -0.04073
 O1353 O 0.56652 0.44245 0.00634
 O1354 O 0.54346 0.43492 0.05291
 O1355 O 0.49842 0.43177 -0.05169
 O1356 O 0.45218 0.45402 -0.05876
 O1357 O 0.51687 0.47806 -0.07761
 O1358 O 0.46476 0.49030 -0.07728
 O1359 O 0.52150 0.41509 -0.01208
 O1360 O 0.50817 0.41506 0.03944
 O1361 O 0.58222 0.48221 -0.01734
 O1362 O 0.58037 0.53107 0.00344
 O1363 O 0.44865 0.48888 0.06816
 O1364 O 0.44317 0.44341 0.04442
 O1365 O 0.43561 0.54768 -0.00181
 O1366 O 0.45976 0.55210 -0.04888
 O1367 O 0.50602 0.56044 0.05641
 O1368 O 0.55342 0.53704 0.05887
 Zr1369 Zr 0.51406 0.51676 0.04802
 O1370 O 0.54163 0.49106 0.02311
 Zr1371 Zr 0.47937 0.54018 -0.00968
 O1372 O 0.50614 0.51620 -0.03689
 Zr1373 Zr 0.45668 0.48176 0.02420
 O1374 O 0.48186 0.45505 -0.00217
 Zr1375 Zr 0.54629 0.50945 -0.01773
 O1376 O 0.52079 0.53681 0.00800
 Zr1377 Zr 0.52307 0.45075 0.01555
 O1378 O 0.49688 0.47515 0.04347
 Zr1379 Zr 0.48895 0.47484 -0.04211
 O1380 O 0.46043 0.49984 -0.01703
 O1381 O 0.47323 0.52268 0.03086
 O1382 O 0.52975 0.46840 -0.02503
 C1383 C 0.46333 0.50102 0.08810
 C1384 C 0.49498 0.58045 0.04106
 C1385 C 0.41581 0.53217 0.00936
 C1386 C 0.54164 0.48971 -0.08091
 C1387 C 0.58599 0.45728 -0.00635
 C1388 C 0.51071 0.41190 -0.03717
 H1389 H 0.56036 0.48947 0.03292
 H1390 H 0.47210 0.43633 -0.00421
 H1391 H 0.46086 0.53480 0.04316
 H1392 H 0.50815 0.52651 -0.05533
 H1393 H 0.55426 0.56325 -0.02847
 H1394 H 0.50900 0.57503 -0.04081
 H1395 H 0.49031 0.40812 0.03032
 H1396 H 0.45882 0.43764 0.05754
 H1397 H 0.59738 0.53079 -0.00935
 H1398 H 0.55073 0.54836 0.07670
 H1399 H 0.44587 0.43964 -0.04447
 H1400 H 0.41794 0.46446 -0.01118
 H1401 H 0.52940 0.47977 0.08639
 H1402 H 0.55824 0.44903 0.05870
 H1403 H 0.44470 0.53766 -0.05292
 H1404 H 0.47398 0.50814 -0.08421
 O1405 O -0.08021 0.00845 0.52079
 O1406 O -0.08008 -0.03883 0.50719
 O1407 O -0.01150 0.01249 0.58375
 O1408 O 0.03528 0.00494 0.58522
 O1409 O -0.01686 0.07717 0.51543
 O1410 O -0.00534 0.07671 0.46619
 O1411 O 0.06562 -0.05872 0.50632
 O1412 O 0.04622 -0.06224 0.55130
 O1413 O -0.00237 -0.06850 0.44789
 O1414 O -0.04891 -0.04581 0.44117
 O1415 O 0.05509 0.00058 0.43759
 O1416 O 0.06189 0.04677 0.46135
 O1417 O 0.08165 -0.01886 0.48285
 O1418 O 0.08180 0.03258 0.49619
 O1419 O 0.01552 -0.02275 0.42108
 O1420 O -0.03621 -0.00983 0.42210
 O1421 O 0.02159 -0.08481 0.48716
 O1422 O 0.00183 -0.08372 0.53637
 O1423 O -0.06407 0.04800 0.49684
 O1424 O -0.04081 0.05465 0.45140
 O1425 O 0.00651 0.06100 0.55510
 O1426 O 0.05348 0.03689 0.55891
 O1427 O -0.05168 -0.00998 0.56739
 O1428 O -0.05357 -0.05730 0.54355
 Zr1429 Zr -0.04341 -0.01756 0.52360
 O1430 O -0.01863 -0.04450 0.49712
 Zr1431 Zr 0.01430 0.01723 0.54696
 O1432 O 0.04141 -0.00895 0.52213
 Zr1433 Zr -0.02020 0.04054 0.48926
 O1434 O 0.00593 0.01603 0.46179
 Zr1435 Zr 0.02245 -0.04917 0.51487
 O1436 O -0.00313 -0.02432 0.54303
 Zr1437 Zr -0.01165 -0.02524 0.45704
 O1438 O -0.03939 0.00032 0.48224
 Zr1439 Zr 0.04608 0.00896 0.48101
 O1440 O 0.02118 0.03684 0.50687
 O1441 O -0.02641 0.02334 0.52996
 O1442 O 0.02915 -0.03189 0.47404
 C1443 C -0.08391 0.03295 0.50867
 C1444 C -0.03633 0.00109 0.58738
 C1445 C -0.00503 0.08089 0.53999
 C1446 C 0.08524 -0.04387 0.49385
 C1447 C 0.01035 -0.08821 0.46230
 C1448 C 0.04041 -0.01153 0.41771
 H1449 H -0.02837 -0.06329 0.49534
 H1450 H 0.00766 0.02617 0.44324
 H1451 H -0.03868 0.03551 0.54233
 H1452 H 0.05999 -0.01104 0.53210
 H1453 H 0.03423 -0.05789 0.56829
 H1454 H 0.04617 -0.01268 0.58077
 H1455 H -0.02707 0.00803 0.41510
 H1456 H -0.05389 0.03901 0.44542
 H1457 H 0.01471 -0.10063 0.53568
 H1458 H -0.07134 -0.05499 0.55506
 H1459 H 0.04792 0.05265 0.44651
 H1460 H 0.01473 0.07994 0.47232
 H1461 H -0.08196 -0.03298 0.48686
 H1462 H -0.05460 -0.06072 0.45519
 H1463 H 0.05760 0.05188 0.54441
 H1464 H 0.08849 0.02343 0.51413
 O1465 O 0.73646 0.16924 0.26646
 O1466 O 0.78362 0.16909 0.25292
 O1467 O 0.73308 0.23812 0.32961
 O1468 O 0.74038 0.28488 0.33103
 O1469 O 0.66822 0.23306 0.26108
 O1470 O 0.66899 0.24456 0.21179
 O1471 O 0.80460 0.31483 0.25271
 O1472 O 0.80782 0.29522 0.29756
 O1473 O 0.81428 0.24674 0.19409
 O1474 O 0.79096 0.20013 0.18728
 O1475 O 0.74596 0.30473 0.18351
 O1476 O 0.69961 0.31170 0.20685
 O1477 O 0.76502 0.33116 0.22913
 O1478 O 0.71344 0.33136 0.24198
 O1479 O 0.76903 0.26502 0.16707
 O1480 O 0.75561 0.21355 0.16766
 O1481 O 0.83044 0.27077 0.23342
 O1482 O 0.82904 0.25079 0.28251
 O1483 O 0.69715 0.18550 0.24236
 O1484 O 0.69070 0.20894 0.19706
 O1485 O 0.68459 0.25608 0.30089
 O1486 O 0.70878 0.30306 0.30463
 O1487 O 0.75505 0.19776 0.31310
 O1488 O 0.80225 0.19539 0.28929
 Zr1489 Zr 0.76267 0.20591 0.26935
 O1490 O 0.78991 0.23061 0.24307
 Zr1491 Zr 0.72828 0.26379 0.29275
 O1492 O 0.75469 0.29083 0.26805
 Zr1493 Zr 0.70489 0.22945 0.23495
 O1494 O 0.72975 0.25550 0.20759
 Zr1495 Zr 0.79476 0.27165 0.26097
 O1496 O 0.76964 0.24612 0.28893
 Zr1497 Zr 0.77089 0.23773 0.20296
 O1498 O 0.74497 0.21008 0.22798
 Zr1499 Zr 0.73705 0.29564 0.22686
 O1500 O 0.70889 0.27082 0.25261
 O1501 O 0.72190 0.22308 0.27570
 O1502 O 0.77776 0.27851 0.22007
 C1503 C 0.71207 0.16559 0.25420
 C1504 C 0.74439 0.21327 0.33317
 C1505 C 0.66461 0.24483 0.28570
 C1506 C 0.78996 0.33458 0.24031
 C1507 C 0.83392 0.25947 0.20859
 C1508 C 0.75816 0.29004 0.16370
 H1509 H 0.80862 0.22076 0.24135
 H1510 H 0.71976 0.25733 0.18898
 H1511 H 0.70965 0.21084 0.28805
 H1512 H 0.75684 0.30939 0.27810
 H1513 H 0.80331 0.28317 0.31448
 H1514 H 0.75821 0.29554 0.32673
 H1515 H 0.73771 0.22263 0.16083
 H1516 H 0.70637 0.19601 0.19091
 H1517 H 0.84603 0.26361 0.28192
 H1518 H 0.79974 0.17762 0.30079
 H1519 H 0.69372 0.29772 0.19200
 H1520 H 0.66598 0.26469 0.21785
 H1521 H 0.77783 0.16727 0.23257
 H1522 H 0.80607 0.19460 0.20110
 H1523 H 0.69381 0.30716 0.29015
 H1524 H 0.72249 0.33800 0.25999
 O1525 O 0.75686 0.69580 0.68613
 O1526 O 0.80136 0.69089 0.70726
 O1527 O 0.69800 0.68536 0.75684
 O1528 O 0.68852 0.70671 0.79841
 O1529 O 0.68736 0.75617 0.69682
 O1530 O 0.71112 0.80098 0.69088
 O1531 O 0.77092 0.76224 0.83227
 O1532 O 0.75554 0.71612 0.83249
 O1533 O 0.83277 0.76817 0.76554
 O1534 O 0.83341 0.75626 0.71497
 O1535 O 0.76673 0.83056 0.76996
 O1536 O 0.71693 0.83174 0.75887
 O1537 O 0.74841 0.80241 0.81582
 O1538 O 0.70095 0.80941 0.79133
 O1539 O 0.80620 0.81413 0.74649
 O1540 O 0.81214 0.78965 0.69950
 O1541 O 0.81589 0.74542 0.80535
 O1542 O 0.79410 0.69694 0.80454
 O1543 O 0.73459 0.73610 0.66960
 O1544 O 0.74748 0.78598 0.67012
 O1545 O 0.67055 0.73264 0.73619
 O1546 O 0.67230 0.74760 0.78694
 O1547 O 0.73694 0.66885 0.73242
 O1548 O 0.78707 0.67045 0.74924
 Zr1549 Zr 0.76433 0.70473 0.72967
 O1550 O 0.79195 0.72952 0.75536
 Zr1551 Zr 0.70646 0.72922 0.76332
 O1552 O 0.73189 0.75427 0.79091
 Zr1553 Zr 0.73109 0.76306 0.70572
 O1554 O 0.75701 0.79017 0.73089
 Zr1555 Zr 0.77284 0.73622 0.79556
 O1556 O 0.74612 0.70899 0.77087
 Zr1557 Zr 0.79703 0.77073 0.73797
 O1558 O 0.77207 0.74484 0.71023
 Zr1559 Zr 0.73937 0.79460 0.77217
 O1560 O 0.71130 0.77053 0.74561
 O1561 O 0.72395 0.72255 0.72292
 O1562 O 0.78005 0.77730 0.77888
 C1563 C 0.74563 0.71109 0.66617
 C1564 C 0.71249 0.66542 0.74457
 C1565 C 0.66725 0.74446 0.71157
 C1566 C 0.76000 0.78727 0.83573
 C1567 C 0.83592 0.75725 0.79064
 C1568 C 0.79156 0.83401 0.75860
 H1569 H 0.81046 0.71937 0.75729
 H1570 H 0.75884 0.80884 0.72098
 H1571 H 0.71159 0.71038 0.71063
 H1572 H 0.72207 0.75578 0.80966
 H1573 H 0.74636 0.69811 0.82590
 H1574 H 0.70089 0.71065 0.81516
 H1575 H 0.79920 0.80575 0.69466
 H1576 H 0.76692 0.77833 0.66640
 H1577 H 0.80372 0.69877 0.82344
 H1578 H 0.78469 0.65288 0.73743
 H1579 H 0.72292 0.83601 0.73896
 H1580 H 0.69827 0.80752 0.70648
 H1581 H 0.80813 0.70738 0.69569
 H1582 H 0.83852 0.73705 0.72241
 H1583 H 0.66726 0.76585 0.77732
 H1584 H 0.69651 0.79669 0.80775
 O1585 O 0.30325 0.18606 0.74534
 O1586 O 0.30749 0.20705 0.70056
 O1587 O 0.31387 0.25734 0.80353
 O1588 O 0.29234 0.29866 0.81325
 O1589 O 0.24353 0.19672 0.81542
 O1590 O 0.19858 0.19038 0.79227
 O1591 O 0.23552 0.33169 0.73096
 O1592 O 0.28181 0.33256 0.74606
 O1593 O 0.23002 0.26454 0.66966
 O1594 O 0.24173 0.21410 0.66933
 O1595 O 0.16798 0.26925 0.73667
 O1596 O 0.16749 0.25805 0.78660
 O1597 O 0.19585 0.31517 0.75436
 O1598 O 0.18979 0.29089 0.80210
 O1599 O 0.18426 0.24594 0.69702
 O1600 O 0.20860 0.19872 0.69114
 O1601 O 0.25266 0.30463 0.68600
 O1602 O 0.30107 0.30455 0.70757
 O1603 O 0.26325 0.16936 0.76811
 O1604 O 0.21327 0.16960 0.75576
 O1605 O 0.26700 0.23633 0.83174
 O1606 O 0.25172 0.28705 0.82990
 O1607 O 0.33008 0.23276 0.76455
 O1608 O 0.32788 0.24922 0.71437
 Zr1609 Zr 0.29397 0.22955 0.73767
 O1610 O 0.26877 0.25500 0.71023
 Zr1611 Zr 0.26990 0.26338 0.79565
 O1612 O 0.24445 0.29073 0.77039
 Zr1613 Zr 0.23617 0.20538 0.77174
 O1614 O 0.20866 0.23031 0.74603
 Zr1615 Zr 0.26201 0.29529 0.72916
 O1616 O 0.28963 0.27087 0.75567
 Zr1617 Zr 0.22765 0.23732 0.70573
 O1618 O 0.25392 0.20983 0.73050
 Zr1619 Zr 0.20419 0.27164 0.76355
 O1620 O 0.22870 0.24533 0.79143
 O1621 O 0.27662 0.22290 0.77832
 O1622 O 0.22101 0.27827 0.72257
 C1623 C 0.28815 0.16600 0.75679
 C1624 C 0.33370 0.24510 0.78886
 C1625 C 0.25534 0.21164 0.83532
 C1626 C 0.21059 0.33506 0.74218
 C1627 C 0.24089 0.28963 0.66616
 C1628 C 0.16445 0.25797 0.71182
 H1629 H 0.27875 0.25686 0.69159
 H1630 H 0.19003 0.22030 0.74446
 H1631 H 0.28898 0.21074 0.79059
 H1632 H 0.24292 0.30953 0.78009
 H1633 H 0.29992 0.32623 0.75515
 H1634 H 0.28827 0.31535 0.80081
 H1635 H 0.19248 0.19407 0.70416
 H1636 H 0.22069 0.16591 0.73620
 H1637 H 0.29906 0.32339 0.69786
 H1638 H 0.34550 0.23749 0.71655
 H1639 H 0.16309 0.23820 0.78049
 H1640 H 0.19205 0.20603 0.80505
 H1641 H 0.29109 0.19512 0.69423
 H1642 H 0.26100 0.22134 0.66414
 H1643 H 0.23365 0.27726 0.83529
 H1644 H 0.20239 0.30749 0.80622
 O1645 O 0.19495 0.81502 0.24349
 O1646 O 0.19037 0.79394 0.19893
 O1647 O 0.18391 0.74421 0.30221
 O1648 O 0.20510 0.70268 0.31192
 O1649 O 0.25480 0.80420 0.31352
 O1650 O 0.29966 0.81020 0.29012
 O1651 O 0.26122 0.66876 0.22979
 O1652 O 0.21501 0.66855 0.24487
 O1653 O 0.26774 0.73555 0.16811
 O1654 O 0.25608 0.78608 0.16736
 O1655 O 0.32954 0.73094 0.23480
 O1656 O 0.33030 0.74204 0.28464
 O1657 O 0.30118 0.68513 0.25273
 O1658 O 0.30774 0.70957 0.30037
 O1659 O 0.31353 0.75446 0.19517
 O1660 O 0.28919 0.80159 0.18909
 O1661 O 0.24474 0.69576 0.18475
 O1662 O 0.19617 0.69657 0.20616
 O1663 O 0.23508 0.83152 0.26612
 O1664 O 0.28503 0.83091 0.25360
 O1665 O 0.23107 0.76484 0.33012
 O1666 O 0.24584 0.71402 0.32842
 O1667 O 0.16776 0.76864 0.26312
 O1668 O 0.16979 0.75193 0.21293
 Zr1669 Zr 0.20386 0.77146 0.23606
 O1670 O 0.22883 0.74575 0.20863
 Zr1671 Zr 0.22780 0.73773 0.29414
 O1672 O 0.25297 0.71009 0.26891
 Zr1673 Zr 0.26193 0.79534 0.26982
 O1674 O 0.28919 0.77011 0.24415
 Zr1675 Zr 0.23527 0.70550 0.22776
 O1676 O 0.20790 0.73022 0.25427
 Zr1677 Zr 0.27010 0.76308 0.20392
 O1678 O 0.24405 0.79084 0.22866
 Zr1679 Zr 0.29337 0.72880 0.26181
 O1680 O 0.26914 0.75542 0.28966
 O1681 O 0.22135 0.77818 0.27662
 O1682 O 0.27641 0.72214 0.22094
 C1683 C 0.21018 0.83498 0.25486
 C1684 C 0.16410 0.75645 0.28753
 C1685 C 0.24297 0.78943 0.33355
 C1686 C 0.28615 0.66526 0.24090
 C1687 C 0.25676 0.71048 0.16483
 C1688 C 0.33324 0.74228 0.20998
 H1689 H 0.21884 0.74385 0.19002
 H1690 H 0.30789 0.77999 0.24251
 H1691 H 0.20912 0.79047 0.28890
 H1692 H 0.25435 0.69133 0.27871
 H1693 H 0.19694 0.67513 0.25389
 H1694 H 0.20897 0.68594 0.29950
 H1695 H 0.30528 0.80631 0.20210
 H1696 H 0.27750 0.83467 0.23411
 H1697 H 0.19802 0.67767 0.19655
 H1698 H 0.15223 0.76373 0.21519
 H1699 H 0.33472 0.76192 0.27865
 H1700 H 0.30616 0.79455 0.30292
 H1701 H 0.20694 0.80547 0.19230
 H1702 H 0.23682 0.77882 0.16220
 H1703 H 0.26406 0.72362 0.33365
 H1704 H 0.29504 0.69308 0.30460
 O1705 O 0.23745 0.66844 0.76800
 O1706 O 0.28472 0.66834 0.75477
 O1707 O 0.23375 0.73719 0.83133
 O1708 O 0.24112 0.78395 0.83289
 O1709 O 0.16925 0.73224 0.76254
 O1710 O 0.17028 0.74397 0.71323
 O1711 O 0.30566 0.81407 0.75485
 O1712 O 0.30860 0.79441 0.79979
 O1713 O 0.31562 0.74619 0.69625
 O1714 O 0.29240 0.69944 0.68934
 O1715 O 0.24727 0.80400 0.68541
 O1716 O 0.20079 0.81092 0.70866
 O1717 O 0.26621 0.83037 0.73103
 O1718 O 0.21466 0.83070 0.74372
 O1719 O 0.27048 0.76433 0.66905
 O1720 O 0.25719 0.71288 0.66948
 O1721 O 0.33158 0.77012 0.73571
 O1722 O 0.32996 0.75002 0.78475
 O1723 O 0.19825 0.68480 0.74379
 O1724 O 0.19195 0.70829 0.69857
 O1725 O 0.18544 0.75521 0.80246
 O1726 O 0.20958 0.80219 0.80638
 O1727 O 0.25576 0.69684 0.81483
 O1728 O 0.30310 0.69454 0.79132
 Zr1729 Zr 0.26365 0.70511 0.77116
 O1730 O 0.29105 0.72986 0.74509
 Zr1731 Zr 0.22916 0.76296 0.79452
 O1732 O 0.25567 0.79005 0.76999
 Zr1733 Zr 0.20603 0.72873 0.73655
 O1734 O 0.23104 0.75479 0.70934
 Zr1735 Zr 0.29577 0.77088 0.76309
 O1736 O 0.27053 0.74528 0.79087
 Zr1737 Zr 0.27222 0.73703 0.70491
 O1738 O 0.24614 0.70936 0.72972
 Zr1739 Zr 0.23821 0.79489 0.72872
 O1740 O 0.20994 0.77006 0.75431
 O1741 O 0.22286 0.72228 0.77735
 O1742 O 0.27897 0.77778 0.72211
 C1743 C 0.21311 0.66484 0.75561
 C1744 C 0.24500 0.71231 0.83487
 C1745 C 0.16554 0.74395 0.78717
 C1746 C 0.29111 0.83379 0.74230
 C1747 C 0.33518 0.75894 0.71086
 C1748 C 0.25957 0.78932 0.66565
 H1749 H 0.30977 0.72004 0.74346
 H1750 H 0.22114 0.75663 0.69069
 H1751 H 0.21055 0.71000 0.78960
 H1752 H 0.25778 0.80861 0.78005
 H1753 H 0.30404 0.78230 0.81666
 H1754 H 0.25888 0.79475 0.82865
 H1755 H 0.23926 0.72190 0.66262
 H1756 H 0.20767 0.69542 0.69242
 H1757 H 0.34694 0.76287 0.78429
 H1758 H 0.30053 0.67675 0.80276
 H1759 H 0.19504 0.79702 0.69368
 H1760 H 0.16715 0.76403 0.71947
 H1761 H 0.27906 0.66657 0.73438
 H1762 H 0.30757 0.69403 0.70314
 H1763 H 0.19472 0.80634 0.79180
 H1764 H 0.22357 0.83724 0.76184
 O1765 O 0.25575 0.19494 0.18455
 O1766 O 0.30027 0.19032 0.20559
 O1767 O 0.19712 0.18381 0.25546
 O1768 O 0.18741 0.20504 0.29698
 O1769 O 0.18575 0.25470 0.19552
 O1770 O 0.20908 0.29967 0.18960
 O1771 O 0.26959 0.26122 0.33083
 O1772 O 0.25452 0.21495 0.33101
 O1773 O 0.33115 0.26782 0.26397
 O1774 O 0.33181 0.25608 0.21342
 O1775 O 0.26454 0.32957 0.26878
 O1776 O 0.21473 0.33035 0.25776
 O1777 O 0.24664 0.30120 0.31455
 O1778 O 0.19898 0.30773 0.29017
 O1779 O 0.30412 0.31356 0.24519
 O1780 O 0.31011 0.28925 0.19802
 O1781 O 0.31458 0.24479 0.30376
 O1782 O 0.29318 0.19614 0.30292
 O1783 O 0.23313 0.23510 0.16814
 O1784 O 0.24557 0.28510 0.16883
 O1785 O 0.16918 0.23096 0.23487
 O1786 O 0.17094 0.24580 0.28570
 O1787 O 0.23613 0.16768 0.23092
 O1788 O 0.28631 0.16973 0.24756
 Zr1789 Zr 0.26319 0.20382 0.22811
 O1790 O 0.29064 0.22882 0.25381
 Zr1791 Zr 0.20517 0.22775 0.26193
 O1792 O 0.23044 0.25294 0.28957
 Zr1793 Zr 0.22942 0.26192 0.20436
 O1794 O 0.25512 0.28921 0.22957
 Zr1795 Zr 0.27157 0.23525 0.29407
 O1796 O 0.24503 0.20785 0.26937
 Zr1797 Zr 0.29532 0.27012 0.23651
 O1798 O 0.27056 0.24405 0.20876
 Zr1799 Zr 0.23751 0.29337 0.27090
 O1800 O 0.20963 0.26912 0.24430
 O1801 O 0.22264 0.22130 0.22147
 O1802 O 0.27836 0.27643 0.27747
 C1803 C 0.24440 0.21020 0.16462
 C1804 C 0.21176 0.16400 0.24317
 C1805 C 0.16575 0.24284 0.21029
 C1806 C 0.25850 0.28617 0.33438
 C1807 C 0.33446 0.25686 0.28903
 C1808 C 0.28934 0.33326 0.25743
 H1809 H 0.30925 0.21884 0.25566
 H1810 H 0.25676 0.30793 0.21972
 H1811 H 0.21037 0.20905 0.20918
 H1812 H 0.22067 0.25432 0.30834
 H1813 H 0.24549 0.19687 0.32442
 H1814 H 0.19989 0.20885 0.31368
 H1815 H 0.29712 0.30536 0.19336
 H1816 H 0.26507 0.27761 0.16503
 H1817 H 0.30283 0.19801 0.32180
 H1818 H 0.28403 0.15215 0.23576
 H1819 H 0.22065 0.33474 0.23785
 H1820 H 0.19628 0.30613 0.20528
 H1821 H 0.30693 0.20692 0.19411
 H1822 H 0.33706 0.23686 0.22073
 H1823 H 0.16568 0.26401 0.27610
 H1824 H 0.19478 0.29502 0.30666
 O1825 O 0.74545 0.69706 0.31584
 O1826 O 0.70071 0.69260 0.29504
 O1827 O 0.80356 0.68696 0.24452
 O1828 O 0.81291 0.70869 0.20309
 O1829 O 0.81522 0.75729 0.30506
 O1830 O 0.79195 0.80207 0.31162
 O1831 O 0.73057 0.76514 0.17047
 O1832 O 0.74550 0.71894 0.16954
 O1833 O 0.66923 0.77036 0.23804
 O1834 O 0.66915 0.75841 0.28832
 O1835 O 0.73580 0.83261 0.23289
 O1836 O 0.78587 0.83344 0.24403
 O1837 O 0.75384 0.80494 0.18688
 O1838 O 0.80136 0.81144 0.21111
 O1839 O 0.69639 0.81616 0.25654
 O1840 O 0.69107 0.79150 0.30382
 O1841 O 0.68564 0.74808 0.19781
 O1842 O 0.70722 0.69957 0.19768
 O1843 O 0.76806 0.73716 0.33254
 O1844 O 0.75556 0.78718 0.33245
 O1845 O 0.83154 0.73401 0.26537
 O1846 O 0.82952 0.74936 0.21473
 O1847 O 0.76471 0.67045 0.26915
 O1848 O 0.71448 0.67252 0.25273
 Zr1849 Zr 0.73767 0.70647 0.27245
 O1850 O 0.71003 0.73167 0.24723
 Zr1851 Zr 0.79541 0.73096 0.23849
 O1852 O 0.76996 0.75641 0.21132
 Zr1853 Zr 0.77151 0.76444 0.29659
 O1854 O 0.74564 0.79195 0.27183
 Zr1855 Zr 0.72880 0.73867 0.20691
 O1856 O 0.75552 0.71104 0.23110
 Zr1857 Zr 0.70542 0.77276 0.26501
 O1858 O 0.73038 0.74644 0.29229
 Zr1859 Zr 0.76299 0.79662 0.23044
 O1860 O 0.79104 0.77213 0.25659
 O1861 O 0.77822 0.72403 0.27900
 O1862 O 0.72208 0.77961 0.22399
 C1863 C 0.75685 0.71216 0.33587
 C1864 C 0.78902 0.66697 0.25675
 C1865 C 0.83510 0.74559 0.29007
 C1866 C 0.74177 0.79010 0.16702
 C1867 C 0.66576 0.75963 0.21293
 C1868 C 0.71099 0.83603 0.24431
 H1869 H 0.69143 0.72161 0.24543
 H1870 H 0.74402 0.81056 0.28186
 H1871 H 0.79058 0.71169 0.29109
 H1872 H 0.77962 0.75802 0.19250
 H1873 H 0.75473 0.70087 0.17583
 H1874 H 0.80037 0.71275 0.18649
 H1875 H 0.70386 0.80786 0.30828
 H1876 H 0.73610 0.77958 0.33628
 H1877 H 0.69733 0.70169 0.17896
 H1878 H 0.71679 0.65482 0.26436
 H1879 H 0.77963 0.83787 0.26382
 H1880 H 0.80448 0.80885 0.29585
 H1881 H 0.69429 0.70894 0.30699
 H1882 H 0.66407 0.73909 0.28113
 H1883 H 0.83482 0.76748 0.22447
 H1884 H 0.80570 0.79872 0.19469
 O1885 O 0.68537 0.24464 0.80322
 O1886 O 0.70625 0.19986 0.80756
 O1887 O 0.75658 0.30289 0.81393
 O1888 O 0.79811 0.31235 0.79248
 O1889 O 0.69645 0.31467 0.74335
 O1890 O 0.69009 0.29150 0.69849
 O1891 O 0.83113 0.23038 0.73574
 O1892 O 0.83174 0.24516 0.78205
 O1893 O 0.76373 0.16881 0.72991
 O1894 O 0.71348 0.16846 0.74167
 O1895 O 0.76895 0.23564 0.66804
 O1896 O 0.75770 0.28585 0.66750
 O1897 O 0.81483 0.25369 0.69596
 O1898 O 0.79066 0.30115 0.68952
 O1899 O 0.74527 0.19610 0.68420
 O1900 O 0.69795 0.19056 0.70873
 O1901 O 0.80381 0.18529 0.75240
 O1902 O 0.80366 0.20661 0.80102
 O1903 O 0.66889 0.26741 0.76317
 O1904 O 0.66924 0.25500 0.71315
 O1905 O 0.73596 0.33100 0.76691
 O1906 O 0.78660 0.32919 0.75185
 O1907 O 0.73195 0.26390 0.83016
 O1908 O 0.74839 0.21365 0.82792
 Zr1909 Zr 0.72884 0.23696 0.79400
 O1910 O 0.75425 0.20948 0.76878
 Zr1911 Zr 0.76284 0.29490 0.76994
 O1912 O 0.79016 0.26962 0.74447
 Zr1913 Zr 0.70497 0.27097 0.73609
 O1914 O 0.72988 0.24524 0.70858
 Zr1915 Zr 0.79456 0.22838 0.76204
 O1916 O 0.77017 0.25492 0.78970
 Zr1917 Zr 0.73668 0.20494 0.72762
 O1918 O 0.70923 0.22975 0.75391
 Zr1919 Zr 0.77124 0.26273 0.70416
 O1920 O 0.74496 0.29063 0.72868
 O1921 O 0.72233 0.27759 0.77660
 O1922 O 0.77768 0.22175 0.72101
 C1923 C 0.66542 0.25610 0.78809
 C1924 C 0.74430 0.28824 0.83380
 C1925 C 0.71135 0.33455 0.75520
 C1926 C 0.83466 0.24164 0.71082
 C1927 C 0.78881 0.16540 0.74069
 C1928 C 0.75755 0.21082 0.66445
 H1929 H 0.75606 0.19083 0.77875
 H1930 H 0.71992 0.24366 0.68993
 H1931 H 0.71017 0.28989 0.78893
 H1932 H 0.80896 0.27934 0.74298
 H1933 H 0.82533 0.25425 0.80015
 H1934 H 0.81477 0.29996 0.78828
 H1935 H 0.69353 0.20339 0.69241
 H1936 H 0.66537 0.23550 0.72067
 H1937 H 0.82243 0.19681 0.79893
 H1938 H 0.73668 0.21588 0.84556
 H1939 H 0.73805 0.27938 0.66280
 H1940 H 0.70586 0.30408 0.69181
 H1941 H 0.69438 0.19349 0.79114
 H1942 H 0.72052 0.16340 0.76104
 H1943 H 0.77701 0.33445 0.73364
 H1944 H 0.80691 0.30557 0.70243
 C1945 C 0.06124 1.00865 1.13865
 C1946 C 0.05076 1.00983 1.11505
 C1947 C 0.56066 0.50961 0.63946
 C1948 C 0.55010 0.51063 0.61588
 C1949 C 0.43994 -0.00261 0.63432
 C1950 C 0.45073 -0.00309 0.61083
 C1951 C -0.05964 0.49634 1.13488
 C1952 C -0.04886 0.49570 1.11139
 C1953 C -0.06521 0.50648 0.36149
 C1954 C -0.05515 0.50688 0.38532
 C1955 C 0.43582 1.00765 -0.13742
 C1956 C 0.44573 1.00816 -0.11355
 C1957 C 0.56399 0.49103 -0.13287
 C1958 C 0.55362 0.48990 -0.10921
 C1959 C 0.06303 -0.01060 0.36585
 C1960 C 0.05246 -0.01159 0.38943
 C1961 C 0.13390 1.06288 1.01022
 C1962 C 0.11037 1.05223 1.01111
 C1963 C 0.63296 0.56353 0.51038
 C1964 C 0.60935 0.55308 0.51153
 C1965 C 0.63817 0.43537 -0.00686
 C1966 C 0.61436 0.44543 -0.00735
 C1967 C 0.13753 -0.06545 0.49369
 C1968 C 0.11362 -0.05566 0.49312
 C1969 C 0.36594 -0.05969 0.50367
 C1970 C 0.38941 -0.04886 0.50419
 C1971 C -0.13398 0.43972 1.00370
 C1972 C -0.11053 0.45061 1.00420
 C1973 C -0.14017 0.55935 0.48997
 C1974 C -0.11664 0.54877 0.48870
 C1975 C 0.36043 1.06099 -0.00922
 C1976 C 0.38394 1.05033 -0.01035
 C1977 C 0.00692 1.13802 1.06308
 C1978 C 0.00757 1.11410 1.05324
 C1979 C 0.50660 0.63846 0.56501
 C1980 C 0.50692 0.61462 0.55499
 C1981 C -0.00973 0.63240 0.43533
 C1982 C -0.01075 0.60874 0.44575
 C1983 C 0.49085 1.13349 -0.06365
 C1984 C 0.48982 1.10993 -0.05305
 C1985 C 0.51016 0.36025 -0.06029
 C1986 C 0.51126 0.38376 -0.04956
 C1987 C 0.00966 -0.14002 0.43945
 C1988 C 0.01086 -0.11644 0.45003
 C1989 C 0.49736 -0.13354 0.56017
 C1990 C 0.49674 -0.11010 0.54929
 C1991 C -0.00305 0.36529 1.06040
 C1992 C -0.00356 0.38881 1.04965
 C1993 C 0.75884 0.31292 0.11190
 C1994 C 0.75898 0.30227 0.13548
 C1995 C 0.26016 0.81202 0.61383
 C1996 C 0.26037 0.80148 0.63743
 C1997 C 0.74559 0.68854 0.61436
 C1998 C 0.74534 0.69919 0.63788
 C1999 C 0.24476 0.18778 0.11271
 C2000 C 0.24429 0.19839 0.13627
 C2001 C 0.25413 0.18969 0.88749
 C2002 C 0.25522 0.19986 0.86373
 C2003 C 0.75545 0.68978 0.38781
 C2004 C 0.75670 0.70021 0.36419
 C2005 C 0.24486 0.81132 0.38573
 C2006 C 0.24342 0.80121 0.36196
 C2007 C 0.74598 0.31004 0.88606
 C2008 C 0.74470 0.29993 0.86228
 C2009 C 0.81250 0.38652 0.24010
 C2010 C 0.80205 0.36286 0.23970
 C2011 C 0.31364 0.88572 0.74163
 C2012 C 0.30325 0.86204 0.74152
 C2013 C 0.18765 0.88684 0.25462
 C2014 C 0.19832 0.86331 0.25503
 C2015 C 0.68889 0.38641 0.75510
 C2016 C 0.69946 0.36285 0.75542
 C2017 C 0.68998 0.61346 0.74579
 C2018 C 0.70043 0.63711 0.74472
 C2019 C 0.18981 0.11181 0.24472
 C2020 C 0.20002 0.13556 0.24347
 C2021 C 0.31020 0.11390 0.75531
 C2022 C 0.29996 0.13760 0.75658
 C2023 C 0.81095 0.61480 0.25490
 C2024 C 0.80079 0.63855 0.25623
 C2025 C 0.88576 0.26009 0.18595
 C2026 C 0.86213 0.26033 0.19643
 C2027 C 0.38703 0.76008 0.68828
 C2028 C 0.36340 0.76004 0.69875
 C2029 C 0.38564 0.24561 0.81118
 C2030 C 0.36204 0.24517 0.80069
 C2031 C 0.88695 0.74560 0.31262
 C2032 C 0.86340 0.74535 0.30199
 C2033 C 0.11196 0.75486 0.30951
 C2034 C 0.13568 0.75613 0.29929
 C2035 C 0.61328 0.25480 0.81007
 C2036 C 0.63701 0.25595 0.79987
 C2037 C 0.61517 0.74618 0.68950
 C2038 C 0.63889 0.74487 0.69968
 C2039 C 0.11365 0.24463 0.18828
 C2040 C 0.13736 0.24322 0.19848
 C2041 C -0.06139 0.99658 0.86610
 C2042 C -0.05144 0.99475 0.88991
 C2043 C 0.43666 0.49750 0.36749
 C2044 C 0.44685 0.49588 0.39120
 C2045 C 0.56405 0.00888 0.36172
 C2046 C 0.55373 0.00986 0.38544
 C2047 C 0.06237 0.50820 0.86163
 C2048 C 0.05215 0.50944 0.88538
 C2049 C 0.05445 0.49348 0.63562
 C2050 C 0.04353 0.49135 0.61228
 C2051 C 0.55473 0.99428 0.13697
 C2052 C 0.54373 0.99223 0.11366
 C2053 C 0.44053 0.50050 0.14001
 C2054 C 0.45129 0.50080 0.11647
 C2055 C -0.05845 0.00061 0.63961
 C2056 C -0.04801 0.00082 0.61590
 C2057 C -0.13974 0.94101 0.99904
 C2058 C -0.11608 0.95151 0.99851
 C2059 C 0.35953 0.44102 0.49942
 C2060 C 0.38307 0.45180 0.49917
 C2061 C 0.36387 0.55436 0.00638
 C2062 C 0.38726 0.54355 0.00846
 C2063 C -0.13561 0.05565 0.50557
 C2064 C -0.11234 0.04461 0.50774
 C2065 C 0.63880 0.06332 0.49128
 C2066 C 0.61511 0.05296 0.49020
 C2067 C 0.13879 0.56323 0.99264
 C2068 C 0.11501 0.55304 0.99155
 C2069 C 0.13232 0.43722 0.50183
 C2070 C 0.10860 0.44732 0.50355
 C2071 C 0.63265 0.93831 0.00339
 C2072 C 0.60894 0.94843 0.00509
 C2073 C -0.00522 0.86322 0.94494
 C2074 C -0.00739 0.88665 0.95570
 C2075 C 0.49372 0.36462 0.44490
 C2076 C 0.49161 0.38790 0.45596
 C2077 C 0.00050 0.35960 0.55938
 C2078 C 0.00071 0.38313 0.54855
 C2079 C 0.50033 0.86065 0.06014
 C2080 C 0.50065 0.88427 0.04952
 C2081 C 0.49750 0.63277 0.06265
 C2082 C 0.49584 0.60903 0.05249
 C2083 C -0.00250 0.13324 0.56152
 C2084 C -0.00420 0.10948 0.55139
 C2085 C 0.50787 0.13894 0.43620
 C2086 C 0.50904 0.11522 0.44647
 C2087 C 0.00870 0.63839 0.93711
 C2088 C 0.00967 0.61458 0.94727
 C2089 C 0.24843 0.69024 0.88688
 C2090 C 0.24623 0.70084 0.86339
 C2091 C 0.74829 0.19149 0.38529
 C2092 C 0.74586 0.20192 0.36175
 C2093 C 0.25621 0.30854 0.38635
 C2094 C 0.25806 0.29791 0.36283
 C2095 C 0.75716 0.80950 0.88769
 C2096 C 0.75932 0.79895 0.86418
 C2097 C 0.74247 0.81246 0.11493
 C2098 C 0.74175 0.80208 0.13864
 C2099 C 0.24158 0.31177 0.61396
 C2100 C 0.24083 0.30152 0.63773
 C2101 C 0.75723 0.18836 0.61241
 C2102 C 0.75773 0.19884 0.63607
 C2103 C 0.25665 0.68737 0.11310
 C2104 C 0.25712 0.69815 0.13662
 C2105 C 0.19087 0.61291 0.75189
 C2106 C 0.20153 0.63636 0.75429
 C2107 C 0.68992 0.11355 0.25098
 C2108 C 0.70050 0.13708 0.25310
 C2109 C 0.81132 0.11351 0.74284
 C2110 C 0.80067 0.13701 0.74099
 C2111 C 0.30844 0.61328 0.24331
 C2112 C 0.29786 0.63681 0.24140
 C2113 C 0.31139 0.38553 0.25691
 C2114 C 0.30116 0.36174 0.25752
 C2115 C 0.81395 0.88613 0.75758
 C2116 C 0.80357 0.86241 0.75846
 C2117 C 0.68824 0.88792 0.24457
 C2118 C 0.69886 0.86433 0.24413
 C2119 C 0.18766 0.38685 0.74253
 C2120 C 0.19841 0.36332 0.74196
 C2121 C 0.11357 0.74744 0.80922
 C2122 C 0.13702 0.74512 0.79860
 C2123 C 0.61265 0.24852 0.30778
 C2124 C 0.63611 0.24612 0.29718
 C2125 C 0.61376 0.75722 0.19069
 C2126 C 0.63732 0.75918 0.20118
 C2127 C 0.11260 0.25590 0.68921
 C2128 C 0.13607 0.25762 0.69994
 C2129 C 0.88676 0.24252 0.68848
 C2130 C 0.86307 0.24171 0.69890
 C2131 C 0.38555 0.74290 0.18811
 C2132 C 0.36172 0.74225 0.19823
 C2133 C 0.38625 0.25703 0.31193
 C2134 C 0.36268 0.25734 0.30129
 C2135 C 0.88763 0.75686 0.81372
 C2136 C 0.86411 0.75745 0.80298
   
