data_POSCAR
  _audit_creation_date              2014-09-24
  _audit_creation_method            'ToBaCCo'
  _symmetry_space_group_name_H-M    'P1'
  _symmetry_Int_Tables_number       1
  _symmetry_cell_setting            triclinic
  loop_
  _symmetry_equiv_pos_as_xyz
 x,y,z
_cell_length_a 96.4506
_cell_length_b 91.0817
_cell_length_c 90.7498
_cell_angle_alpha 89.721300
_cell_angle_beta 90.384600
_cell_angle_gamma 90.163500
loop_
  _atom_site_label
  _atom_site_type_symbol
  _atom_site_fract_x
  _atom_site_fract_y
  _atom_site_fract_z
N1 N 0.32350 0.41938 0.88913
 N2 N 0.33439 0.42799 0.88772
 C3 C 0.33352 0.43537 0.87491
 C4 C 0.32131 0.43146 0.86793
 C5 C 0.31514 0.42129 0.87729
 H6 H 0.34085 0.44361 0.87128
 H7 H 0.30522 0.41593 0.87574
 Cu8 Cu 0.34783 0.43043 0.90345
 Cu9 Cu 0.32103 0.40701 0.90670
 Cu10 Cu 0.34762 0.40823 0.93272
 N11 N 0.36359 0.42947 0.91676
 N12 N 0.36325 0.42113 0.92859
 C13 C 0.37455 0.42386 0.93690
 C14 C 0.38252 0.43450 0.92986
 C15 C 0.37525 0.43761 0.91696
 H16 H 0.37660 0.41862 0.94739
 H17 H 0.37773 0.44586 0.90879
 N18 N 0.33245 0.39371 0.93342
 N19 N 0.32224 0.39314 0.92366
 C20 C 0.31364 0.38200 0.92740
 C21 C 0.31869 0.37530 0.94014
 C22 C 0.33067 0.38303 0.94349
 H23 H 0.30435 0.37908 0.92136
 H24 H 0.33772 0.38099 0.95256
 H25 H 0.33210 0.41910 0.92151
 H26 H 0.34209 0.40553 0.91066
 N27 N 0.43246 0.83835 0.45423
 N28 N 0.44364 0.83920 0.44611
 C29 C 0.45147 0.85053 0.45070
 C30 C 0.44479 0.85730 0.46237
 C31 C 0.43269 0.84920 0.46423
 H32 H 0.46110 0.85375 0.44558
 H33 H 0.42471 0.85083 0.47236
 Cu34 Cu 0.44689 0.82568 0.43007
 Cu35 Cu 0.41893 0.82274 0.45165
 Cu36 Cu 0.42045 0.80443 0.41831
 N37 N 0.44726 0.81620 0.41101
 N38 N 0.43707 0.80761 0.40664
 C39 C 0.44040 0.80168 0.39360
 C40 C 0.45326 0.80698 0.38951
 C41 C 0.45731 0.81624 0.40077
 H42 H 0.43401 0.79394 0.38759
 H43 H 0.46705 0.82209 0.40170
 N44 N 0.40460 0.80270 0.43185
 N45 N 0.40422 0.80949 0.44465
 C46 C 0.39239 0.80592 0.45156
 C47 C 0.38492 0.79636 0.44273
 C48 C 0.39297 0.79460 0.43029
 H49 H 0.38938 0.81012 0.46218
 H50 H 0.39065 0.78772 0.42092
 H51 H 0.42945 0.80781 0.43840
 H52 H 0.42174 0.82431 0.42930
 N53 N 0.93160 0.90907 0.81200
 N54 N 0.94189 0.91300 0.82071
 C55 C 0.95154 0.90236 0.82092
 C56 C 0.94718 0.89111 0.81177
 C57 C 0.93447 0.89579 0.80624
 H58 H 0.96108 0.90284 0.82722
 H59 H 0.92770 0.88988 0.79878
 Cu60 Cu 0.94180 0.93158 0.83112
 Cu61 Cu 0.91520 0.92150 0.80915
 Cu62 Cu 0.91444 0.95392 0.82920
 N63 N 0.93913 0.94698 0.84559
 N64 N 0.92822 0.95554 0.84496
 C65 C 0.92884 0.96520 0.85612
 C66 C 0.94088 0.96263 0.86429
 C67 C 0.94711 0.95089 0.85716
 H68 H 0.92113 0.97358 0.85793
 H69 H 0.95667 0.94544 0.86015
 N70 N 0.89950 0.94808 0.81546
 N71 N 0.89966 0.93575 0.80788
 C72 C 0.88802 0.93504 0.79958
 C73 C 0.88011 0.94751 0.80205
 C74 C 0.88778 0.95547 0.81224
 H75 H 0.88555 0.92614 0.79218
 H76 H 0.88504 0.96587 0.81707
 H77 H 0.92450 0.94113 0.81354
 H78 H 0.91663 0.93149 0.82958
 N79 N 0.41403 -0.12068 0.32105
 N80 N 0.42578 -0.11902 0.32831
 C81 C 0.43420 -0.13033 0.32514
 C82 C 0.42727 -0.13964 0.31551
 C83 C 0.41444 -0.13321 0.31329
 H84 H 0.44465 -0.13159 0.32935
 H85 H 0.40630 -0.13691 0.30594
 Cu86 Cu 0.42891 -0.10204 0.34096
 Cu87 Cu 0.39965 -0.10572 0.32094
 Cu88 Cu 0.41054 -0.07183 0.33359
 N89 N 0.42949 -0.08515 0.35416
 N90 N 0.42201 -0.07345 0.35117
 C91 C 0.42398 -0.06341 0.36175
 C92 C 0.43323 -0.06901 0.37198
 C93 C 0.43663 -0.08285 0.36679
 H94 H 0.41914 -0.05271 0.36184
 H95 H 0.44357 -0.09069 0.37190
 N96 N 0.39464 -0.07426 0.32035
 N97 N 0.39015 -0.08721 0.31591
 C98 C 0.37929 -0.08522 0.30673
 C99 C 0.37681 -0.07029 0.30544
 C100 C 0.38671 -0.06370 0.31430
 H101 H 0.37378 -0.09400 0.30120
 H102 H 0.38829 -0.05206 0.31595
 H103 H 0.41524 -0.09073 0.32132
 H104 H 0.40530 -0.09251 0.33884
 N105 N 0.82009 0.32765 0.34809
 N106 N 0.82947 0.31724 0.34730
 C107 C 0.82661 0.30673 0.35727
 C108 C 0.81480 0.31068 0.36480
 C109 C 0.81090 0.32406 0.35867
 H110 H 0.83261 0.29683 0.35883
 H111 H 0.80220 0.33080 0.36182
 Cu112 Cu 0.84456 0.31831 0.33334
 Cu113 Cu 0.82122 0.34533 0.33570
 Cu114 Cu 0.84249 0.34153 0.30512
 N115 N 0.85989 0.32058 0.31976
 N116 N 0.85895 0.32971 0.30856
 C117 C 0.87021 0.32833 0.30004
 C118 C 0.87874 0.31773 0.30625
 C119 C 0.87185 0.31308 0.31880
 H120 H 0.87172 0.33411 0.28973
 H121 H 0.87507 0.30456 0.32640
 N122 N 0.82892 0.35739 0.30715
 N123 N 0.82109 0.35927 0.31886
 C124 C 0.81383 0.37181 0.31711
 C125 C 0.81739 0.37816 0.30369
 C126 C 0.82693 0.36860 0.29773
 H127 H 0.80675 0.37616 0.32517
 H128 H 0.83235 0.36979 0.28741
 H129 H 0.82747 0.33236 0.31919
 H130 H 0.84137 0.34412 0.32733
 N131 N -0.17199 0.85460 0.80845
 N132 N -0.18437 0.85164 0.81362
 C133 C -0.19291 0.86289 0.81029
 C134 C -0.18540 0.87356 0.80262
 C135 C -0.17210 0.86782 0.80186
 H136 H -0.20375 0.86318 0.81321
 H137 H -0.16314 0.87254 0.79654
 Cu138 Cu -0.18777 0.83327 0.82424
 Cu139 Cu -0.15669 0.84089 0.80997
 Cu140 Cu -0.16598 0.80520 0.81855
 N141 N -0.18826 0.81564 0.83658
 N142 N -0.17975 0.80465 0.83426
 C143 C -0.18214 0.79401 0.84427
 C144 C -0.19270 0.79856 0.85348
 C145 C -0.19635 0.81237 0.84820
 H146 H -0.17650 0.78378 0.84482
 H147 H -0.20408 0.81965 0.85265
 N148 N -0.14875 0.81018 0.80807
 N149 N -0.14501 0.82388 0.80549
 C150 C -0.13294 0.82398 0.79820
 C151 C -0.12878 0.80962 0.79600
 C152 C -0.13908 0.80114 0.80252
 H153 H -0.12776 0.83386 0.79453
 H154 H -0.13965 0.78930 0.80302
 H155 H -0.17072 0.82448 0.80662
 H156 H -0.16349 0.82572 0.82570
 N157 N 0.93172 0.35032 0.42196
 N158 N 0.92284 0.35305 0.43250
 C159 C 0.92696 0.36531 0.43965
 C160 C 0.93910 0.37057 0.43319
 C161 C 0.94167 0.36067 0.42196
 H162 H 0.92151 0.36998 0.44886
 H163 H 0.95027 0.36072 0.41441
 Cu164 Cu 0.90687 0.34005 0.43570
 Cu165 Cu 0.93022 0.33335 0.40912
 Cu166 Cu 0.90167 0.31083 0.41362
 N167 N 0.89059 0.32728 0.43786
 N168 N 0.88876 0.31597 0.42911
 C169 C 0.87714 0.30878 0.43293
 C170 C 0.87120 0.31587 0.44476
 C171 C 0.88001 0.32767 0.44755
 H172 H 0.87327 0.29910 0.42741
 H173 H 0.87893 0.33574 0.45616
 N174 N 0.91587 0.30732 0.39857
 N175 N 0.92696 0.31570 0.39713
 C176 C 0.93504 0.31012 0.38649
 C177 C 0.92868 0.29769 0.38088
 C178 C 0.91653 0.29628 0.38876
 H179 H 0.94479 0.31480 0.38297
 H180 H 0.90891 0.28762 0.38767
 H181 H 0.90890 0.33196 0.41023
 H182 H 0.91901 0.32016 0.42331
 N183 N 0.43427 0.43006 0.85183
 N184 N 0.42568 0.44104 0.84972
 C185 C 0.42711 0.45069 0.86082
 C186 C 0.43727 0.44558 0.87044
 C187 C 0.44158 0.43240 0.86432
 H188 H 0.42140 0.46084 0.86160
 H189 H 0.44949 0.42510 0.86855
 Cu190 Cu 0.41384 0.44190 0.83235
 Cu191 Cu 0.43570 0.41420 0.83749
 Cu192 Cu 0.40943 0.41210 0.81099
 N193 N 0.39809 0.44010 0.81912
 N194 N 0.39611 0.42854 0.81073
 C195 C 0.38411 0.43035 0.80312
 C196 C 0.37825 0.44374 0.80710
 C197 C 0.38755 0.44952 0.81724
 H198 H 0.37984 0.42243 0.79549
 H199 H 0.38677 0.45987 0.82294
 N200 N 0.42413 0.39682 0.81338
 N201 N 0.43370 0.39750 0.82386
 C202 C 0.44193 0.38563 0.82299
 C203 C 0.43757 0.37708 0.81130
 C204 C 0.42627 0.38454 0.80538
 H205 H 0.45075 0.38352 0.83010
 H206 H 0.42006 0.38120 0.79601
 H207 H 0.42644 0.42314 0.81860
 H208 H 0.41474 0.41526 0.83284
 N209 N 0.80457 0.91702 0.93624
 N210 N 0.81556 0.91136 0.94273
 C211 C 0.81243 0.89777 0.94759
 C212 C 0.79872 0.89477 0.94390
 C213 C 0.79408 0.90730 0.93676
 H214 H 0.81964 0.89053 0.95316
 H215 H 0.78383 0.90927 0.93228
 Cu216 Cu 0.83288 0.92236 0.94392
 Cu217 Cu 0.80467 0.93661 0.92765
 Cu218 Cu 0.83744 0.95040 0.92050
 N219 N 0.84884 0.93543 0.94570
 N220 N 0.85058 0.94629 0.93631
 C221 C 0.86240 0.95344 0.93957
 C222 C 0.86842 0.94681 0.95179
 C223 C 0.85951 0.93534 0.95536
 H224 H 0.86626 0.96275 0.93339
 H225 H 0.86062 0.92760 0.96435
 N226 N 0.82068 0.95758 0.91050
 N227 N 0.80815 0.95274 0.91366
 C228 C 0.79891 0.95940 0.90473
 C229 C 0.80597 0.96893 0.89546
 C230 C 0.81978 0.96752 0.89953
 H231 H 0.78793 0.95698 0.90463
 H232 H 0.82861 0.97284 0.89451
 H233 H 0.82403 0.93212 0.92059
 H234 H 0.82310 0.94576 0.93584
 N235 N 0.32535 0.85346 0.32083
 N236 N 0.33330 0.85147 0.30932
 C237 C 0.33267 0.86331 0.30049
 C238 C 0.32372 0.87333 0.30666
 C239 C 0.31918 0.86670 0.31958
 H240 H 0.33808 0.86440 0.29015
 H241 H 0.31201 0.87117 0.32747
 Cu242 Cu 0.34358 0.83359 0.30648
 Cu243 Cu 0.32383 0.83856 0.33642
 Cu244 Cu 0.34385 0.80711 0.33188
 N245 N 0.35791 0.81879 0.30676
 N246 N 0.35802 0.80832 0.31673
 C247 C 0.36863 0.79918 0.31401
 C248 C 0.37560 0.80425 0.30164
 C249 C 0.36846 0.81679 0.29740
 H250 H 0.37089 0.78945 0.32044
 H251 H 0.37062 0.82392 0.28814
 N252 N 0.33169 0.81019 0.34891
 N253 N 0.32397 0.82200 0.35071
 C254 C 0.31677 0.82047 0.36334
 C255 C 0.32025 0.80714 0.36980
 C256 C 0.32974 0.80098 0.36032
 H257 H 0.30961 0.82850 0.36758
 H258 H 0.33472 0.79043 0.36153
 H259 H 0.34332 0.82971 0.33295
 H260 H 0.32817 0.82083 0.32378
 N261 N 0.80522 0.41876 0.45404
 N262 N 0.81620 0.41788 0.46260
 C263 C 0.81624 0.40480 0.46955
 C264 C 0.80454 0.39708 0.46515
 C265 C 0.79776 0.40635 0.45533
 H266 H 0.82418 0.40123 0.47722
 H267 H 0.78831 0.40414 0.44924
 Cu268 Cu 0.82937 0.43389 0.46367
 Cu269 Cu 0.80172 0.43582 0.44163
 Cu270 Cu 0.83088 0.45743 0.43504
 N271 N 0.84543 0.44608 0.46033
 N272 N 0.84623 0.45518 0.44909
 C273 C 0.85886 0.46157 0.44918
 C274 C 0.86636 0.45600 0.46105
 C275 C 0.85743 0.44625 0.46788
 H276 H 0.86245 0.46934 0.44100
 H277 H 0.85953 0.43958 0.47752
 N278 N 0.81402 0.45796 0.42248
 N279 N 0.80290 0.44996 0.42530
 C280 C 0.79337 0.45223 0.41468
 C281 C 0.79866 0.46216 0.40459
 C282 C 0.81177 0.46562 0.40995
 H283 H 0.78343 0.44675 0.41420
 H284 H 0.81930 0.47280 0.40484
 H285 H 0.82268 0.43660 0.43803
 H286 H 0.81566 0.45181 0.44939
 N287 N 0.91954 0.85498 -0.05163
 N288 N 0.93211 0.85256 -0.05647
 C289 C 0.94052 0.86349 -0.05198
 C290 C 0.93275 0.87332 -0.04384
 C291 C 0.91948 0.86749 -0.04386
 H292 H 0.95138 0.86428 -0.05472
 H293 H 0.91042 0.87190 -0.03855
 Cu294 Cu 0.93606 0.83573 -0.06865
 Cu295 Cu 0.90433 0.84152 -0.05526
 Cu296 Cu 0.91127 0.81091 -0.07657
 N297 N 0.93740 0.82295 -0.08557
 N298 N 0.92785 0.81309 -0.08863
 C299 C 0.93152 0.80586 -0.10092
 C300 C 0.94395 0.81170 -0.10590
 C301 C 0.94735 0.82251 -0.09584
 H302 H 0.92539 0.79730 -0.10604
 H303 H 0.95639 0.82955 -0.09594
 N304 N 0.89306 0.81446 -0.06742
 N305 N 0.89042 0.82649 -0.05991
 C306 C 0.87731 0.82600 -0.05512
 C307 C 0.87128 0.81305 -0.05977
 C308 C 0.88159 0.80592 -0.06754
 H309 H 0.87267 0.83417 -0.04814
 H310 H 0.88084 0.79532 -0.07280
 H311 H 0.91609 0.82294 -0.05770
 H312 H 0.91173 0.83312 -0.07498
 N313 N 0.31007 0.34221 0.80669
 N314 N 0.32239 0.34397 0.80088
 C315 C 0.32196 0.35522 0.79121
 C316 C 0.30860 0.36082 0.79097
 C317 C 0.30137 0.35221 0.80095
 H318 H 0.33080 0.35912 0.78505
 H319 H 0.29065 0.35324 0.80410
 Cu320 Cu 0.33789 0.33176 0.80679
 Cu321 Cu 0.30626 0.32773 0.82184
 Cu322 Cu 0.33241 0.30312 0.82981
 N323 N 0.35126 0.31607 0.80920
 N324 N 0.34922 0.30514 0.81844
 C325 C 0.35983 0.29568 0.81754
 C326 C 0.36897 0.30087 0.80707
 C327 C 0.36321 0.31387 0.80199
 H328 H 0.36048 0.28539 0.82350
 H329 H 0.36722 0.32102 0.79348
 N330 N 0.31452 0.30297 0.83992
 N331 N 0.30448 0.31231 0.83685
 C332 C 0.29371 0.30959 0.84581
 C333 C 0.29713 0.29792 0.85491
 C334 C 0.31040 0.29401 0.85085
 H335 H 0.28416 0.31577 0.84582
 H336 H 0.31678 0.28557 0.85581
 H337 H 0.32631 0.32488 0.82963
 H338 H 0.32084 0.31334 0.81354
 N339 N 0.16277 0.55735 0.54152
 N340 N 0.15908 0.54900 0.55269
 C341 C 0.14839 0.54041 0.54850
 C342 C 0.14516 0.54357 0.53389
 C343 C 0.15464 0.55430 0.52983
 H344 H 0.14287 0.53307 0.55582
 H345 H 0.15520 0.56006 0.51941
 Cu346 Cu 0.16770 0.55124 0.57208
 Cu347 Cu 0.17643 0.57307 0.54359
 Cu348 Cu 0.17700 0.58583 0.57927
 N349 N 0.17550 0.55671 0.59121
 N350 N 0.17830 0.57052 0.59410
 C351 C 0.18358 0.57160 0.60777
 C352 C 0.18448 0.55767 0.61379
 C353 C 0.17918 0.54843 0.60295
 H354 H 0.18740 0.58173 0.61248
 H355 H 0.17837 0.53659 0.60339
 N356 N 0.18295 0.59768 0.56237
 N357 N 0.18358 0.59260 0.54880
 C358 C 0.19001 0.60259 0.54022
 C359 C 0.19377 0.61441 0.54895
 C360 C 0.18903 0.61094 0.56287
 H361 H 0.19233 0.60106 0.52868
 H362 H 0.19049 0.61724 0.57283
 H363 H 0.18409 0.57044 0.56523
 H364 H 0.16574 0.57621 0.56214
 N365 N 0.59466 0.68355 0.04969
 N366 N 0.59743 0.69235 0.06074
 C367 C 0.60927 0.69971 0.05786
 C368 C 0.61414 0.69518 0.04426
 C369 C 0.60452 0.68497 0.03940
 H370 H 0.61404 0.70763 0.06516
 H371 H 0.60458 0.67904 0.02911
 Cu372 Cu 0.58486 0.69340 0.07745
 Cu373 Cu 0.57838 0.67104 0.04933
 Cu374 Cu 0.56366 0.66462 0.08354
 N375 N 0.57283 0.69265 0.09456
 N376 N 0.56437 0.68153 0.09684
 C377 C 0.55748 0.68376 0.10951
 C378 C 0.56187 0.69700 0.11550
 C379 C 0.57163 0.70229 0.10566
 H380 H 0.55005 0.67615 0.11414
 H381 H 0.57740 0.71245 0.10649
 N382 N 0.56091 0.65134 0.06649
 N383 N 0.56640 0.65416 0.05349
 C384 C 0.56379 0.64291 0.04437
 C385 C 0.55624 0.63243 0.05186
 C386 C 0.55442 0.63817 0.06586
 H387 H 0.56762 0.64215 0.03322
 H388 H 0.54941 0.63282 0.07506
 H389 H 0.56601 0.67873 0.06678
 H390 H 0.58171 0.66763 0.07130
 N391 N 0.66257 0.17903 0.63190
 N392 N 0.66802 0.16594 0.63035
 C393 C 0.67638 0.16598 0.61854
 C394 C 0.67625 0.17991 0.61234
 C395 C 0.66731 0.18790 0.62112
 H396 H 0.68249 0.15669 0.61507
 H397 H 0.66450 0.19931 0.61983
 Cu398 Cu 0.66457 0.15042 0.64454
 Cu399 Cu 0.64980 0.18343 0.64785
 Cu400 Cu 0.64863 0.15833 0.67655
 N401 N 0.66657 0.13799 0.66178
 N402 N 0.66111 0.14132 0.67458
 C403 C 0.66551 0.13140 0.68471
 C404 C 0.67404 0.12131 0.67774
 C405 C 0.67439 0.12589 0.66322
 H406 H 0.66276 0.13151 0.69624
 H407 H 0.68045 0.12117 0.65446
 N408 N 0.63682 0.17627 0.67593
 N409 N 0.63746 0.18575 0.66490
 C410 C 0.62799 0.19633 0.66691
 C411 C 0.62086 0.19356 0.67985
 C412 C 0.62681 0.18067 0.68529
 H413 H 0.62623 0.20521 0.65921
 H414 H 0.62386 0.17475 0.69514
 H415 H 0.66096 0.16988 0.66213
 H416 H 0.64427 0.16229 0.65457
 N417 N 1.09746 0.05702 0.20743
 N418 N 1.09985 0.05018 0.19499
 C419 C 1.11348 0.04720 0.19414
 C420 C 1.11993 0.05258 0.20670
 C421 C 1.10943 0.05872 0.21488
 H422 H 1.11832 0.04142 0.18516
 H423 H 1.11032 0.06358 0.22570
 Cu424 Cu 1.08474 0.04524 0.18154
 Cu425 Cu 1.07888 0.06218 0.21348
 Cu426 Cu 1.05597 0.06578 0.18418
 N427 N 1.06960 0.04351 0.16740
 N428 N 1.05837 0.05155 0.16849
 C429 C 1.04992 0.04873 0.15700
 C430 C 1.05616 0.03830 0.14816
 C431 C 1.06866 0.03526 0.15518
 H432 H 1.04005 0.05406 0.15520
 H433 H 1.07668 0.02791 0.15149
 N434 N 1.05308 0.07515 0.20344
 N435 N 1.06159 0.07328 0.21471
 C436 C 1.05741 0.08165 0.22598
 C437 C 1.04567 0.08930 0.22162
 C438 C 1.04318 0.08475 0.20726
 H439 H 1.06315 0.08285 0.23616
 H440 H 1.03517 0.08862 0.19984
 H441 H 1.06573 0.05172 0.19803
 H442 H 1.07620 0.06797 0.19215
 N443 N 0.08550 0.15385 1.06628
 N444 N 0.07356 0.15575 1.07286
 C445 C 0.06473 0.14509 1.06859
 C446 C 0.07152 0.13596 1.05880
 C447 C 0.08473 0.14190 1.05766
 H448 H 0.05422 0.14395 1.07252
 H449 H 0.09318 0.13796 1.05100
 Cu450 Cu 0.07097 0.17170 1.08681
 Cu451 Cu 0.10134 0.16670 1.06968
 Cu452 Cu 0.09373 0.19955 1.08685
 N453 N 0.07066 0.18669 1.10207
 N454 N 0.07961 0.19758 1.10196
 C455 C 0.07717 0.20643 1.11345
 C456 C 0.06609 0.20078 1.12132
 C457 C 0.06218 0.18823 1.11371
 H458 H 0.08305 0.21627 1.11582
 H459 H 0.05395 0.18067 1.11654
 N460 N 0.11090 0.19638 1.07581
 N461 N 0.11397 0.18375 1.06960
 C462 C 0.12640 0.18496 1.06306
 C463 C 0.13148 0.19903 1.06534
 C464 C 0.12134 0.20593 1.07352
 H465 H 0.13134 0.17622 1.05704
 H466 H 0.12145 0.21713 1.07741
 H467 H 0.09560 0.17760 1.08894
 H468 H 0.08803 0.18378 1.07097
 N469 N 0.15312 0.70119 0.68929
 N470 N 0.15126 0.69054 0.69889
 C471 C 0.13978 0.69341 0.70679
 C472 C 0.13416 0.70653 0.70169
 C473 C 0.14297 0.71114 0.69065
 H474 H 0.13566 0.68638 0.71534
 H475 H 0.14210 0.72103 0.68405
 Cu476 Cu 0.16420 0.67405 0.69969
 Cu477 Cu 0.16862 0.70154 0.67583
 Cu478 Cu 0.18418 0.66783 0.67007
 N479 N 0.17760 0.65804 0.69942
 N480 N 0.18544 0.65562 0.68787
 C481 C 0.19323 0.64359 0.69043
 C482 C 0.19012 0.63814 0.70434
 C483 C 0.18016 0.64767 0.70969
 H484 H 0.20034 0.63896 0.68256
 H485 H 0.17506 0.64705 0.72024
 N486 N 0.18552 0.68438 0.65586
 N487 N 0.17984 0.69726 0.65849
 C488 C 0.18190 0.70619 0.64691
 C489 C 0.18924 0.69868 0.63634
 C490 C 0.19151 0.68487 0.64244
 H491 H 0.17803 0.71730 0.64614
 H492 H 0.19675 0.67576 0.63733
 H493 H 0.16582 0.67948 0.67341
 H494 H 0.18188 0.68480 0.68369
 N495 N 1.17586 0.15362 0.18706
 N496 N 1.18645 0.15486 0.17811
 C497 C 1.19476 0.14310 0.17991
 C498 C 1.18900 0.13400 0.19057
 C499 C 1.17702 0.14111 0.19484
 H500 H 1.20420 0.14128 0.17384
 H501 H 1.16978 0.13763 0.20320
 Cu502 Cu 1.18831 0.17172 0.16499
 Cu503 Cu 1.16163 0.16853 0.18855
 Cu504 Cu 1.16145 0.19496 0.16115
 N505 N 1.18676 0.18504 0.14821
 N506 N 1.17602 0.19376 0.14659
 C507 C 1.17744 0.20165 0.13414
 C508 C 1.18978 0.19773 0.12756
 C509 C 1.19544 0.18714 0.13682
 H510 H 1.17018 0.20990 0.13038
 H511 H 1.20508 0.18131 0.13536
 N512 N 1.14621 0.19255 0.17522
 N513 N 1.14634 0.18253 0.18575
 C514 C 1.13461 0.18363 0.19360
 C515 C 1.12668 0.19493 0.18775
 C516 C 1.13439 0.20030 0.17607
 H517 H 1.13199 0.17662 0.20281
 H518 H 1.13170 0.20932 0.16883
 H519 H 1.16322 0.17295 0.16638
 H520 H 1.17160 0.18628 0.17920
 N521 N 0.63382 1.07597 0.58039
 N522 N 0.63621 1.08310 0.56802
 C523 C 0.62545 1.08089 0.55869
 C524 C 0.61576 1.07205 0.56572
 C525 C 0.62147 1.06916 0.57944
 H526 H 0.62479 1.08526 0.54762
 H527 H 0.61716 1.06208 0.58785
 Cu528 Cu 0.65344 1.09421 0.56507
 Cu529 Cu 0.64764 1.07493 0.59601
 Cu530 Cu 0.67612 1.09587 0.59502
 N531 N 0.66949 1.10789 0.56599
 N532 N 0.67784 1.10864 0.57755
 C533 C 0.68763 1.11886 0.57504
 C534 C 0.68548 1.12492 0.56119
 C535 C 0.67379 1.11773 0.55581
 H536 H 0.69576 1.12169 0.58277
 H537 H 0.66887 1.11941 0.54520
 N538 N 0.67267 1.08212 0.61113
 N539 N 0.66146 1.07392 0.61163
 C540 C 0.66227 1.06491 0.62343
 C541 C 0.67470 1.06757 0.63066
 C542 C 0.68102 1.07859 0.62253
 H543 H 0.65473 1.05655 0.62615
 H544 H 0.69110 1.08341 0.62452
 H545 H 0.65588 1.09839 0.58704
 H546 H 0.66633 1.08287 0.57968
 N547 N 0.57768 0.54243 0.16071
 N548 N 0.56502 0.54537 0.16499
 C549 C 0.55596 0.53778 0.15666
 C550 C 0.56337 0.52965 0.14653
 C551 C 0.57716 0.53290 0.14947
 H552 H 0.54482 0.53858 0.15758
 H553 H 0.58613 0.52922 0.14345
 Cu554 Cu 0.56150 0.56011 0.17979
 Cu555 Cu 0.59373 0.55234 0.16906
 Cu556 Cu 0.58772 0.57147 0.20131
 N557 N 0.56008 0.57783 0.19139
 N558 N 0.57020 0.58211 0.20014
 C559 C 0.56639 0.59449 0.20701
 C560 C 0.55320 0.59827 0.20214
 C561 C 0.54954 0.58742 0.19222
 H562 H 0.57293 0.60051 0.21461
 H563 H 0.53994 0.58650 0.18607
 N564 N 0.60624 0.56469 0.19556
 N565 N 0.60853 0.55797 0.18297
 C566 C 0.62201 0.55440 0.18223
 C567 C 0.62860 0.55907 0.19497
 C568 C 0.61823 0.56561 0.20318
 H569 H 0.62647 0.54810 0.17339
 H570 H 0.61922 0.57043 0.21400
 H571 H 0.58417 0.55215 0.18896
 H572 H 0.58493 0.57034 0.17945
 N573 N 0.64453 0.68314 0.17841
 N574 N 0.64367 0.68980 0.16557
 C575 C 0.63321 0.69960 0.16596
 C576 C 0.62734 0.69908 0.17988
 C577 C 0.63481 0.68849 0.18741
 H578 H 0.63017 0.70666 0.15690
 H579 H 0.63310 0.68466 0.19853
 Cu580 Cu 0.65655 0.68497 0.14991
 Cu581 Cu 0.65808 0.66809 0.18284
 Cu582 Cu 0.68062 0.65857 0.15499
 N583 N 0.66962 0.67977 0.13456
 N584 N 0.67852 0.66899 0.13638
 C585 C 0.68681 0.66833 0.12454
 C586 C 0.68304 0.67941 0.11489
 C587 C 0.67209 0.68645 0.12158
 H588 H 0.69567 0.66119 0.12356
 H589 H 0.66680 0.69615 0.11756
 N590 N 0.68107 0.64945 0.17469
 N591 N 0.67245 0.65310 0.18526
 C592 C 0.67574 0.64558 0.19757
 C593 C 0.68705 0.63683 0.19466
 C594 C 0.69016 0.63954 0.18003
 H595 H 0.67059 0.64674 0.20804
 H596 H 0.69853 0.63479 0.17381
 H597 H 0.67296 0.67519 0.16795
 H598 H 0.66032 0.66103 0.16135
 N599 N 0.15675 0.06711 1.05098
 N600 N 0.15338 0.06063 1.06342
 C601 C 0.13973 0.05753 1.06319
 C602 C 0.13427 0.06238 1.04987
 C603 C 0.14539 0.06841 1.04241
 H604 H 0.13427 0.05186 1.07189
 H605 H 0.14538 0.07279 1.03131
 Cu606 Cu 0.16735 0.05581 1.07819
 Cu607 Cu 0.17583 0.07196 1.04630
 Cu608 Cu 0.19833 0.07236 1.07623
 N609 N 0.18274 0.04968 1.09069
 N610 N 0.19486 0.05625 1.08995
 C611 C 0.20333 0.05059 1.10034
 C612 C 0.19614 0.03981 1.10800
 C613 C 0.18308 0.03955 1.10152
 H614 H 0.21377 0.05444 1.10242
 H615 H 0.17438 0.03273 1.10461
 N616 N 0.20210 0.08294 1.05775
 N617 N 0.19379 0.08218 1.04617
 C618 C 0.19884 0.09080 1.03541
 C619 C 0.21090 0.09740 1.04043
 C620 C 0.21267 0.09211 1.05467
 H621 H 0.19358 0.09288 1.02505
 H622 H 0.22084 0.09497 1.06236
 H623 H 0.18717 0.06014 1.06212
 H624 H 0.17856 0.07755 1.06775
 N625 N 0.59881 0.18581 0.55849
 N626 N 0.59585 0.17534 0.54906
 C627 C 0.60496 0.17595 0.53786
 C628 C 0.61394 0.18757 0.54039
 C629 C 0.60974 0.19352 0.55360
 H630 H 0.60482 0.16878 0.52840
 H631 H 0.61427 0.20280 0.55926
 Cu632 Cu 0.57994 0.16247 0.55192
 Cu633 Cu 0.58794 0.18936 0.57596
 Cu634 Cu 0.56328 0.16321 0.58451
 N635 N 0.56532 0.14853 0.55674
 N636 N 0.55922 0.14862 0.56963
 C637 C 0.54961 0.13792 0.57007
 C638 C 0.54963 0.13070 0.55671
 C639 C 0.55976 0.13773 0.54850
 H640 H 0.54285 0.13582 0.57930
 H641 H 0.56291 0.13513 0.53741
 N642 N 0.56870 0.17901 0.59800
 N643 N 0.57817 0.18900 0.59484
 C644 C 0.57862 0.19900 0.60574
 C645 C 0.56875 0.19522 0.61604
 C646 C 0.56270 0.18251 0.61082
 H647 H 0.58487 0.20887 0.60567
 H648 H 0.55402 0.17674 0.61564
 H649 H 0.58355 0.16737 0.57797
 H650 H 0.56944 0.17901 0.56988
 N651 N 0.09652 0.56600 0.69281
 N652 N 0.09306 0.55514 0.68404
 C653 C 0.10257 0.54444 0.68518
 C654 C 0.11264 0.54876 0.69523
 C655 C 0.10839 0.56252 0.69990
 H656 H 0.10229 0.53442 0.67886
 H657 H 0.11375 0.56971 0.70749
 Cu658 Cu 0.07725 0.55627 0.67084
 Cu659 Cu 0.08570 0.58412 0.69373
 Cu660 Cu 0.05793 0.58649 0.66931
 N661 N 0.06558 0.56053 0.65386
 N662 N 0.05817 0.57258 0.65331
 C663 C 0.05103 0.57304 0.64057
 C664 C 0.05416 0.56060 0.63259
 C665 C 0.06343 0.55286 0.64140
 H666 H 0.04395 0.58174 0.63750
 H667 H 0.06836 0.54252 0.63893
 N668 N 0.06284 0.60208 0.68310
 N669 N 0.07319 0.60133 0.69267
 C670 C 0.07356 0.61394 0.70045
 C671 C 0.06313 0.62304 0.69519
 C672 C 0.05659 0.61515 0.68425
 H673 H 0.08099 0.61646 0.70906
 H674 H 0.04781 0.61865 0.67766
 H675 H 0.06748 0.57522 0.68692
 H676 H 0.07883 0.58282 0.67217
 N677 N 0.64601 0.56436 0.07464
 N678 N 0.64704 0.57483 0.06467
 C679 C 0.63575 0.57452 0.05587
 C680 C 0.62725 0.56311 0.06041
 C681 C 0.63412 0.55690 0.07238
 H682 H 0.63408 0.58169 0.04650
 H683 H 0.63079 0.54756 0.07885
 Cu684 Cu 0.66347 0.58720 0.06331
 Cu685 Cu 0.66063 0.56077 0.08919
 Cu686 Cu 0.68770 0.58576 0.08996
 N687 N 0.67761 0.60240 0.06522
 N688 N 0.68696 0.60188 0.07579
 C689 C 0.69583 0.61319 0.07415
 C690 C 0.69189 0.62128 0.06183
 C691 C 0.68020 0.61409 0.05649
 H692 H 0.70468 0.61512 0.08125
 H693 H 0.67429 0.61683 0.04670
 N694 N 0.68536 0.57030 0.10507
 N695 N 0.67501 0.56080 0.10488
 C696 C 0.67632 0.55168 0.11657
 C697 C 0.68814 0.55556 0.12445
 C698 C 0.69355 0.56745 0.11682
 H699 H 0.66930 0.54274 0.11903
 H700 H 0.70273 0.57366 0.11968
 H701 H 0.66646 0.58255 0.08951
 H702 H 0.67718 0.56985 0.07832
 N703 N 0.07735 0.68717 0.60921
 N704 N 0.06678 0.67853 0.60626
 C705 C 0.05754 0.67930 0.61724
 C706 C 0.06249 0.68903 0.62774
 C707 C 0.07512 0.69386 0.62222
 H708 H 0.04784 0.67333 0.61745
 H709 H 0.08220 0.70156 0.62732
 Cu710 Cu 0.06600 0.66713 0.58833
 Cu711 Cu 0.09305 0.68885 0.59570
 Cu712 Cu 0.09359 0.66456 0.56613
 N713 N 0.06759 0.65142 0.57417
 N714 N 0.07825 0.65029 0.56530
 C715 C 0.07664 0.63805 0.55708
 C716 C 0.06439 0.63111 0.56122
 C717 C 0.05897 0.64002 0.57205
 H718 H 0.08404 0.63421 0.54907
 H719 H 0.04948 0.63831 0.57810
 N720 N 0.10802 0.67989 0.56933
 N721 N 0.10790 0.68882 0.58077
 C722 C 0.11900 0.69778 0.58006
 C723 C 0.12651 0.69446 0.56758
 C724 C 0.11920 0.68307 0.56100
 H725 H 0.12131 0.70635 0.58791
 H726 H 0.12191 0.67744 0.55097
 H727 H 0.08372 0.68189 0.57623
 H728 H 0.09114 0.66734 0.58848
 N729 N 0.58620 1.07158 0.63741
 N730 N 0.57585 1.08092 0.63680
 C731 C 0.56635 1.07599 0.62702
 C732 C 0.57100 1.06279 0.62115
 C733 C 0.58369 1.06046 0.62810
 H734 H 0.55675 1.08159 0.62451
 H735 H 0.59071 1.05139 0.62659
 Cu736 Cu 0.57566 1.09839 0.64919
 Cu737 Cu 0.60232 1.07422 0.65009
 Cu738 Cu 0.60442 1.10734 0.66819
 N739 N 0.57567 1.11401 0.66393
 N740 N 0.58716 1.11765 0.67082
 C741 C 0.58468 1.12868 0.68014
 C742 C 0.57071 1.13221 0.67938
 C743 C 0.56531 1.12261 0.66884
 H744 H 0.59252 1.13330 0.68731
 H745 H 0.55469 1.12181 0.66506
 N746 N 0.61887 1.09238 0.66961
 N747 N 0.61784 1.07945 0.66327
 C748 C 0.62828 1.07088 0.66815
 C749 C 0.63619 1.07880 0.67818
 C750 C 0.62993 1.09243 0.67870
 H751 H 0.62964 1.05953 0.66509
 H752 H 0.63251 1.10136 0.68603
 H753 H 0.59331 1.08806 0.66516
 H754 H 0.60099 1.09619 0.64805
 N755 N 0.42539 0.36379 0.91450
 N756 N 0.41299 0.36747 0.91900
 C757 C 0.41398 0.37939 0.92765
 C758 C 0.42790 0.38330 0.92887
 C759 C 0.43476 0.37317 0.92014
 H760 H 0.40529 0.38403 0.93345
 H761 H 0.44580 0.37211 0.91850
 Cu762 Cu 0.39717 0.35477 0.91560
 Cu763 Cu 0.42869 0.34612 0.90317
 Cu764 Cu 0.39987 0.32540 0.89363
 N765 N 0.38458 0.33823 0.91724
 N766 N 0.38573 0.32646 0.90902
 C767 C 0.37616 0.31651 0.91333
 C768 C 0.36862 0.32249 0.92482
 C769 C 0.37427 0.33628 0.92692
 H770 H 0.37488 0.30575 0.90854
 H771 H 0.37152 0.34411 0.93530
 N772 N 0.41800 0.32309 0.88391
 N773 N 0.42898 0.33084 0.88788
 C774 C 0.43967 0.32737 0.87916
 C775 C 0.43529 0.31694 0.86910
 C776 C 0.42145 0.31441 0.87251
 H777 H 0.44984 0.33236 0.87994
 H778 H 0.41432 0.30712 0.86688
 H779 H 0.40932 0.34638 0.89374
 H780 H 0.41166 0.33371 0.90981
 N781 N 0.93326 0.41441 0.35297
 N782 N 0.92742 0.42733 0.35136
 C783 C 0.93254 0.43649 0.36168
 C784 C 0.94211 0.42884 0.37033
 C785 C 0.94212 0.41478 0.36444
 H786 H 0.92946 0.44782 0.36273
 H787 H 0.94838 0.40553 0.36782
 Cu788 Cu 0.91359 0.43074 0.33596
 Cu789 Cu 0.92948 0.39810 0.33978
 Cu790 Cu 0.91258 0.40764 0.30746
 N791 N 0.89847 0.43134 0.32156
 N792 N 0.89812 0.42200 0.31057
 C793 C 0.88690 0.42459 0.30215
 C794 C 0.87975 0.43623 0.30812
 C795 C 0.88743 0.44034 0.32042
 H796 H 0.88431 0.41862 0.29223
 H797 H 0.88512 0.44912 0.32798
 N798 N 0.92334 0.38962 0.30962
 N799 N 0.92945 0.38569 0.32205
 C800 C 0.93615 0.37293 0.31993
 C801 C 0.93404 0.36862 0.30545
 C802 C 0.92582 0.37947 0.29929
 H803 H 0.94229 0.36738 0.32825
 H804 H 0.92217 0.38018 0.28802
 H805 H 0.92802 0.41297 0.32319
 H806 H 0.91119 0.40490 0.32939
 N807 N 0.30025 0.94427 0.41500
 N808 N 0.31187 0.95000 0.41015
 C809 C 0.30950 0.95637 0.39696
 C810 C 0.29563 0.95445 0.39335
 C811 C 0.29007 0.94675 0.40511
 H812 H 0.31733 0.96175 0.39036
 H813 H 0.27945 0.94316 0.40641
 Cu814 Cu 0.32884 0.94868 0.42180
 Cu815 Cu 0.29945 0.93399 0.43375
 Cu816 Cu 0.33128 0.92177 0.44710
 N817 N 0.34574 0.94562 0.43309
 N818 N 0.34667 0.93555 0.44347
 C819 C 0.35939 0.93636 0.44975
 C820 C 0.36687 0.94755 0.44284
 C821 C 0.35774 0.95307 0.43231
 H822 H 0.36292 0.92919 0.45852
 H823 H 0.35946 0.96219 0.42489
 N824 N 0.31332 0.91253 0.45263
 N825 N 0.30134 0.91787 0.44800
 C826 C 0.29105 0.90891 0.45230
 C827 C 0.29669 0.89714 0.45985
 C828 C 0.31088 0.89987 0.46003
 H829 H 0.28030 0.91037 0.44923
 H830 H 0.31885 0.89265 0.46429
 H831 H 0.31846 0.93883 0.44437
 H832 H 0.31839 0.92545 0.42887
 O833 O 0.21415 0.52114 0.74829
 O834 O 0.22132 0.51910 0.77292
 O835 O 0.25013 0.53543 0.72539
 O836 O 0.27239 0.52807 0.72351
 O837 O 0.22691 0.49897 0.70809
 O838 O 0.22379 0.47444 0.71449
 O839 O 0.28523 0.49010 0.76122
 O840 O 0.28474 0.51578 0.75808
 O841 O 0.24993 0.47778 0.78395
 O842 O 0.22535 0.48251 0.78171
 O843 O 0.26067 0.45640 0.74572
 O844 O 0.25746 0.46151 0.71890
 O845 O 0.28106 0.47255 0.74399
 O846 O 0.27404 0.47522 0.71717
 O847 O 0.24573 0.45865 0.76484
 O848 O 0.22080 0.46823 0.76520
 O849 O 0.26950 0.49152 0.78146
 O850 O 0.26800 0.51911 0.77739
 O851 O 0.20984 0.50373 0.73089
 O852 O 0.21137 0.47674 0.73299
 O853 O 0.24512 0.51479 0.70585
 O854 O 0.27025 0.50890 0.70930
 O855 O 0.23513 0.53802 0.74441
 O856 O 0.24145 0.53248 0.77077
 Zr857 Zr 0.23475 0.51716 0.75467
 O858 O 0.24614 0.50226 0.76782
 Zr859 Zr 0.25580 0.51311 0.72621
 O860 O 0.26857 0.49858 0.73836
 Zr861 Zr 0.22828 0.49123 0.72981
 O862 O 0.23991 0.47545 0.74146
 Zr863 Zr 0.26690 0.50253 0.76108
 O864 O 0.25580 0.51861 0.74876
 Zr865 Zr 0.23932 0.48070 0.76393
 O866 O 0.22663 0.49575 0.75238
 Zr867 Zr 0.26098 0.47714 0.73571
 O868 O 0.24896 0.49148 0.72243
 O869 O 0.23514 0.51265 0.73225
 O870 O 0.26014 0.48108 0.75818
 C871 C 0.20625 0.51486 0.73873
 C872 C 0.24161 0.54303 0.73308
 C873 C 0.23425 0.50822 0.70084
 C874 C 0.28865 0.47849 0.75409
 C875 C 0.26182 0.48230 0.78847
 C876 C 0.25439 0.45135 0.75709
 H877 H 0.24538 0.50495 0.77833
 H878 H 0.23613 0.46556 0.73947
 H879 H 0.22946 0.51951 0.72629
 H880 H 0.27831 0.49953 0.73518
 H881 H 0.28136 0.52566 0.75523
 H882 H 0.27996 0.52469 0.73008
 H883 H 0.22112 0.46059 0.75750
 H884 H 0.20732 0.47916 0.74267
 H885 H 0.27629 0.51711 0.78358
 H886 H 0.23517 0.54109 0.77042
 H887 H 0.24892 0.45602 0.72137
 H888 H 0.23269 0.47199 0.70975
 H889 H 0.21595 0.50985 0.77347
 H890 H 0.22770 0.49159 0.78711
 H891 H 0.26688 0.50010 0.70399
 H892 H 0.28185 0.48219 0.71842
 O893 O 0.22209 0.02203 0.24096
 O894 O 0.22571 0.02421 0.26670
 O895 O 0.25830 0.04021 0.22158
 O896 O 0.28143 0.03707 0.22389
 O897 O 0.24287 -0.00123 0.20737
 O898 O 0.24489 -0.02592 0.21713
 O899 O 0.29451 0.00768 0.26843
 O900 O 0.29083 0.03208 0.26022
 O901 O 0.25989 -0.00785 0.28810
 O902 O 0.23430 -0.00735 0.28176
 O903 O 0.27787 -0.03210 0.25598
 O904 O 0.27756 -0.03173 0.22851
 O905 O 0.29533 -0.01241 0.25369
 O906 O 0.29188 -0.01554 0.22636
 O907 O 0.26027 -0.02990 0.27233
 O908 O 0.23500 -0.02564 0.26902
 O909 O 0.27608 0.01015 0.28572
 O910 O 0.27110 0.03553 0.27622
 O911 O 0.22316 0.00143 0.22688
 O912 O 0.22864 -0.02375 0.23255
 O913 O 0.25959 0.01630 0.20505
 O914 O 0.28418 0.01613 0.21235
 O915 O 0.24069 0.04215 0.23803
 O916 O 0.24300 0.04146 0.26522
 Zr917 Zr 0.24183 0.02305 0.25101
 O918 O 0.25371 0.01302 0.26779
 Zr919 Zr 0.26718 0.01959 0.22656
 O920 O 0.28019 0.00946 0.24232
 Zr921 Zr 0.24334 -0.00669 0.22996
 O922 O 0.25523 -0.01806 0.24582
 Zr923 Zr 0.27484 0.01646 0.26352
 O924 O 0.26296 0.02805 0.24761
 Zr925 Zr 0.25096 -0.00979 0.26690
 O926 O 0.23781 0.00032 0.25117
 Zr927 Zr 0.27628 -0.01326 0.24250
 O928 O 0.26447 -0.00335 0.22546
 O929 O 0.24623 0.01585 0.22988
 O930 O 0.27196 -0.00616 0.26365
 C931 C 0.21678 0.01275 0.23184
 C932 C 0.24782 0.04693 0.22709
 C933 C 0.24999 0.00801 0.19975
 C934 C 0.30045 -0.00400 0.26367
 C935 C 0.26974 0.00025 0.29322
 C936 C 0.27086 -0.03658 0.26716
 H937 H 0.25116 0.01708 0.27748
 H938 H 0.25330 -0.02869 0.24515
 H939 H 0.24042 0.02073 0.22231
 H940 H 0.29001 0.01172 0.24025
 H941 H 0.28647 0.04066 0.25532
 H942 H 0.28909 0.03542 0.23101
 H943 H 0.23658 -0.03331 0.26153
 H944 H 0.22370 -0.02177 0.24186
 H945 H 0.27876 0.03648 0.28350
 H946 H 0.23529 0.04825 0.26273
 H947 H 0.26935 -0.03798 0.23038
 H948 H 0.25423 -0.02573 0.21265
 H949 H 0.22180 0.01419 0.26765
 H950 H 0.23584 0.00179 0.28739
 H951 H 0.28336 0.00595 0.20866
 H952 H 0.29821 -0.00702 0.22718
 O953 O 0.54241 0.72455 0.25492
 O954 O 0.53942 0.72764 0.28027
 O955 O 0.50802 0.69830 0.24123
 O956 O 0.48469 0.69945 0.24240
 O957 O 0.51903 0.73718 0.21701
 O958 O 0.51443 0.76302 0.22109
 O959 O 0.46920 0.73581 0.27974
 O960 O 0.47523 0.71095 0.27702
 O961 O 0.50178 0.75929 0.29470
 O962 O 0.52741 0.76029 0.28818
 O963 O 0.48104 0.77356 0.25878
 O964 O 0.48174 0.76750 0.23159
 O965 O 0.46588 0.75197 0.26087
 O966 O 0.46878 0.74992 0.23356
 O967 O 0.49949 0.77732 0.27404
 O968 O 0.52473 0.77523 0.27178
 O969 O 0.48816 0.73899 0.29680
 O970 O 0.49543 0.71308 0.29289
 O971 O 0.53904 0.74090 0.23615
 O972 O 0.53109 0.76606 0.23620
 O973 O 0.50455 0.71756 0.21928
 O974 O 0.48005 0.71682 0.22654
 O975 O 0.52564 0.70196 0.25761
 O976 O 0.52397 0.70900 0.28369
 Zr977 Zr 0.52297 0.72343 0.26526
 O978 O 0.51021 0.73538 0.27952
 Zr979 Zr 0.49727 0.71846 0.24104
 O980 O 0.48336 0.73020 0.25434
 Zr981 Zr 0.51818 0.74733 0.23787
 O982 O 0.50526 0.76045 0.25105
 Zr983 Zr 0.48959 0.72856 0.27644
 O984 O 0.50251 0.71534 0.26338
 Zr985 Zr 0.51051 0.75758 0.27343
 O986 O 0.52454 0.74592 0.26008
 Zr987 Zr 0.48475 0.75274 0.24941
 O988 O 0.49745 0.74076 0.23476
 O989 O 0.51773 0.72513 0.24306
 O990 O 0.49000 0.75088 0.27153
 C991 C 0.54659 0.73191 0.24364
 C992 C 0.51884 0.69398 0.24843
 C993 C 0.51300 0.72562 0.21189
 C994 C 0.46190 0.74533 0.27265
 C995 C 0.49326 0.75100 0.30181
 C996 C 0.48794 0.78124 0.26819
 H997 H 0.51325 0.73384 0.28984
 H998 H 0.50607 0.77083 0.24796
 H999 H 0.52394 0.71926 0.23679
 H1000 H 0.47382 0.72641 0.25302
 H1001 H 0.48039 0.70204 0.27417
 H1002 H 0.47715 0.70162 0.24938
 H1003 H 0.52296 0.78025 0.26227
 H1004 H 0.53651 0.76653 0.24549
 H1005 H 0.48795 0.71271 0.30033
 H1006 H 0.53223 0.70261 0.28273
 H1007 H 0.48872 0.77543 0.23249
 H1008 H 0.50508 0.76087 0.21708
 H1009 H 0.54193 0.73813 0.27912
 H1010 H 0.52668 0.75267 0.29595
 H1011 H 0.47985 0.72597 0.22062
 H1012 H 0.46396 0.74058 0.23582
 O1013 O -0.00507 0.77039 0.79858
 O1014 O 0.01917 0.77234 0.79823
 O1015 O -0.01791 0.78774 0.75688
 O1016 O -0.01400 0.78321 0.73289
 O1017 O -0.03462 0.74682 0.77274
 O1018 O -0.02628 0.72228 0.77312
 O1019 O 0.02848 0.75351 0.72618
 O1020 O 0.02206 0.77822 0.72927
 O1021 O 0.04230 0.73779 0.76664
 O1022 O 0.03352 0.73882 0.79209
 O1023 O 0.01410 0.71441 0.74308
 O1024 O -0.01164 0.71513 0.73972
 O1025 O 0.01461 0.73341 0.72378
 O1026 O -0.01148 0.73113 0.72398
 O1027 O 0.02704 0.71630 0.76402
 O1028 O 0.01996 0.72166 0.79041
 O1029 O 0.04274 0.75421 0.74771
 O1030 O 0.03512 0.78060 0.75188
 O1031 O -0.01869 0.75004 0.79624
 O1032 O -0.01327 0.72434 0.79172
 O1033 O -0.03425 0.76464 0.75509
 O1034 O -0.02440 0.76256 0.72954
 O1035 O -0.00513 0.79021 0.77787
 O1036 O 0.02079 0.78851 0.77887
 Zr1037 Zr 0.00663 0.77064 0.77908
 O1038 O 0.02341 0.75953 0.76937
 Zr1039 Zr -0.01318 0.76662 0.74923
 O1040 O 0.00294 0.75594 0.73798
 Zr1041 Zr -0.01368 0.74115 0.77557
 O1042 O 0.00203 0.72899 0.76531
 Zr1043 Zr 0.02233 0.76240 0.74643
 O1044 O 0.00626 0.77479 0.75620
 Zr1045 Zr 0.02136 0.73680 0.77270
 O1046 O 0.00559 0.74800 0.78407
 Zr1047 Zr 0.00178 0.73335 0.74252
 O1048 O -0.01526 0.74385 0.75256
 O1049 O -0.01273 0.76361 0.77186
 O1050 O 0.02116 0.73991 0.75001
 C1051 C -0.01444 0.76146 0.80328
 C1052 C -0.01410 0.79493 0.76840
 C1053 C -0.04058 0.75650 0.76455
 C1054 C 0.02453 0.74183 0.71941
 C1055 C 0.04849 0.74451 0.75608
 C1056 C 0.02348 0.70978 0.75206
 H1057 H 0.03231 0.76331 0.77331
 H1058 H 0.00080 0.71843 0.76748
 H1059 H -0.02028 0.76893 0.77684
 H1060 H 0.00228 0.75808 0.72731
 H1061 H 0.01742 0.78702 0.73327
 H1062 H -0.00529 0.78252 0.72728
 H1063 H 0.01407 0.71336 0.78717
 H1064 H -0.00551 0.72668 0.79851
 H1065 H 0.04295 0.78074 0.74486
 H1066 H 0.01767 0.79590 0.78612
 H1067 H -0.01080 0.70883 0.74859
 H1068 H -0.02858 0.72161 0.76250
 H1069 H 0.01985 0.76234 0.80248
 H1070 H 0.03836 0.74841 0.79168
 H1071 H -0.02910 0.75297 0.73081
 H1072 H -0.00988 0.73966 0.71742
 O1073 O -0.03555 0.00930 -0.01993
 O1074 O -0.02976 0.03430 -0.01767
 O1075 O 0.00132 -0.01084 -0.03538
 O1076 O 0.02383 -0.01159 -0.02860
 O1077 O -0.02036 -0.02986 0.00066
 O1078 O -0.02187 -0.02445 0.02638
 O1079 O 0.03592 0.02541 0.00925
 O1080 O 0.03459 0.02273 -0.01649
 O1081 O 0.00026 0.04634 0.02287
 O1082 O -0.02457 0.04298 0.01869
 O1083 O 0.01306 0.00837 0.04393
 O1084 O 0.01101 -0.01817 0.03877
 O1085 O 0.03300 0.00773 0.02675
 O1086 O 0.02701 -0.01912 0.02456
 O1087 O -0.00260 0.02687 0.04211
 O1088 O -0.02781 0.02630 0.03321
 O1089 O 0.01922 0.04500 0.00820
 O1090 O 0.01690 0.04130 -0.01913
 O1091 O -0.03826 -0.00839 -0.00233
 O1092 O -0.03612 -0.00700 0.02433
 O1093 O -0.00171 -0.03105 -0.01452
 O1094 O 0.02312 -0.02624 -0.00962
 O1095 O -0.01480 0.00725 -0.03750
 O1096 O -0.01005 0.03375 -0.03174
 Zr1097 Zr -0.01519 0.01698 -0.01640
 O1098 O -0.00389 0.03041 -0.00170
 Zr1099 Zr 0.00759 -0.01018 -0.01313
 O1100 O 0.02008 0.00222 0.00130
 Zr1101 Zr -0.01940 -0.00861 0.00950
 O1102 O -0.00803 0.00350 0.02515
 Zr1103 Zr 0.01715 0.02473 -0.00261
 O1104 O 0.00610 0.01228 -0.01852
 Zr1105 Zr -0.00972 0.02596 0.02012
 O1106 O -0.02233 0.01389 0.00532
 Zr1107 Zr 0.01318 -0.00117 0.02294
 O1108 O 0.00159 -0.01483 0.00866
 O1109 O -0.01335 -0.00535 -0.01213
 O1110 O 0.01130 0.02123 0.01914
 C1111 C -0.04263 -0.00081 -0.01343
 C1112 C -0.00778 -0.00351 -0.04276
 C1113 C -0.01256 -0.03662 -0.00850
 C1114 C 0.04003 0.01805 0.02059
 C1115 C 0.01169 0.05151 0.01778
 C1116 C 0.00649 0.01934 0.04928
 H1117 H -0.00523 0.04086 -0.00433
 H1118 H -0.01143 0.00121 0.03515
 H1119 H -0.01889 -0.01142 -0.01900
 H1120 H 0.02992 -0.00049 0.00009
 H1121 H 0.03097 0.02015 -0.02639
 H1122 H 0.03124 -0.00488 -0.02520
 H1123 H -0.02700 0.01839 0.04066
 H1124 H -0.04028 0.00281 0.02276
 H1125 H 0.02513 0.04767 -0.01754
 H1126 H -0.01660 0.03317 -0.04019
 H1127 H 0.00217 -0.01658 0.04399
 H1128 H -0.01286 -0.02954 0.02737
 H1129 H -0.03480 0.03429 -0.00821
 H1130 H -0.02270 0.04863 0.00958
 H1131 H 0.02050 -0.03179 -0.00066
 H1132 H 0.03444 -0.01760 0.01724
 O1133 O 0.04684 0.50879 0.49332
 O1134 O 0.04136 0.50744 0.46810
 O1135 O 0.01716 0.53770 0.51130
 O1136 O -0.00602 0.53989 0.51171
 O1137 O 0.02514 0.49663 0.53242
 O1138 O 0.01812 0.47197 0.52780
 O1139 O -0.02919 0.50802 0.47464
 O1140 O -0.01929 0.53154 0.47683
 O1141 O -0.00061 0.48046 0.45609
 O1142 O 0.02408 0.47516 0.46005
 O1143 O -0.02002 0.46758 0.49416
 O1144 O -0.01726 0.47271 0.52028
 O1145 O -0.03258 0.49104 0.49277
 O1146 O -0.02670 0.49266 0.52042
 O1147 O -0.00475 0.46263 0.47593
 O1148 O 0.02191 0.46110 0.47754
 O1149 O -0.01287 0.50173 0.45580
 O1150 O -0.00148 0.52643 0.45890
 O1151 O 0.04322 0.49172 0.51133
 O1152 O 0.03212 0.46761 0.51062
 O1153 O 0.01316 0.51810 0.53212
 O1154 O -0.01193 0.52241 0.52664
 O1155 O 0.03306 0.53320 0.49349
 O1156 O 0.02759 0.52790 0.46693
 Zr1157 Zr 0.02686 0.51266 0.48467
 O1158 O 0.01164 0.50263 0.47119
 Zr1159 Zr 0.00402 0.51931 0.51106
 O1160 O -0.01224 0.51024 0.49848
 Zr1161 Zr 0.02164 0.48795 0.51127
 O1162 O 0.00591 0.47722 0.49921
 Zr1163 Zr -0.00773 0.51184 0.47593
 O1164 O 0.00765 0.52293 0.48846
 Zr1165 Zr 0.00956 0.48027 0.47662
 O1166 O 0.02611 0.48981 0.48870
 Zr1167 Zr -0.01317 0.48762 0.50288
 O1168 O 0.00224 0.49695 0.51664
 O1169 O 0.02330 0.51027 0.50708
 O1170 O -0.00969 0.48953 0.48044
 C1171 C 0.05112 0.50034 0.50382
 C1172 C 0.02806 0.54110 0.50393
 C1173 C 0.02107 0.50860 0.53844
 C1174 C -0.03685 0.49898 0.48189
 C1175 C -0.00935 0.48937 0.45018
 C1176 C -0.01572 0.45973 0.48342
 H1177 H 0.01395 0.50406 0.46068
 H1178 H 0.00562 0.46671 0.50195
 H1179 H 0.03066 0.51491 0.51313
 H1180 H -0.02106 0.51525 0.50073
 H1181 H -0.01261 0.53946 0.47925
 H1182 H -0.01364 0.53951 0.50439
 H1183 H 0.01811 0.45460 0.48530
 H1184 H 0.03675 0.46715 0.50093
 H1185 H -0.00953 0.52786 0.45220
 H1186 H 0.03646 0.53342 0.46756
 H1187 H -0.01016 0.46491 0.51989
 H1188 H 0.00927 0.47463 0.53256
 H1189 H 0.04264 0.49666 0.46848
 H1190 H 0.02547 0.48410 0.45399
 H1191 H -0.01218 0.51349 0.53291
 H1192 H -0.03192 0.50161 0.51768
 O1193 O 0.49596 0.03873 0.51125
 O1194 O 0.47265 0.03018 0.51027
 O1195 O 0.51772 0.00705 0.53608
 O1196 O 0.52126 -0.01745 0.53564
 O1197 O 0.53379 0.02223 0.49494
 O1198 O 0.52882 0.01602 0.46974
 O1199 O 0.48669 -0.04264 0.50303
 O1200 O 0.48966 -0.03492 0.52750
 O1201 O 0.46398 -0.01171 0.48060
 O1202 O 0.46508 0.01475 0.47700
 O1203 O 0.50094 -0.02720 0.46319
 O1204 O 0.52548 -0.02142 0.46692
 O1205 O 0.50361 -0.04274 0.48566
 O1206 O 0.52840 -0.03317 0.48574
 O1207 O 0.48187 -0.01276 0.46115
 O1208 O 0.48045 0.01541 0.46180
 O1209 O 0.46661 -0.02669 0.50051
 O1210 O 0.47089 -0.01742 0.52611
 O1211 O 0.51170 0.03877 0.49258
 O1212 O 0.51087 0.02925 0.46747
 O1213 O 0.53618 0.00793 0.51546
 O1214 O 0.53481 -0.01970 0.51668
 O1215 O 0.49924 0.02237 0.53373
 O1216 O 0.47482 0.01393 0.52973
 Zr1217 Zr 0.49021 0.01655 0.51332
 O1218 O 0.47865 0.00006 0.50262
 Zr1219 Zr 0.51796 -0.00486 0.51631
 O1220 O 0.50742 -0.02245 0.50622
 Zr1221 Zr 0.51397 0.01654 0.48675
 O1222 O 0.50361 -0.00023 0.47514
 Zr1223 Zr 0.48596 -0.02056 0.50950
 O1224 O 0.49669 -0.00408 0.52146
 Zr1225 Zr 0.48235 0.00074 0.47987
 O1226 O 0.49251 0.01852 0.49029
 Zr1227 Zr 0.50998 -0.02078 0.48331
 O1228 O 0.52180 -0.00399 0.49351
 O1229 O 0.51132 0.01561 0.50937
 O1230 O 0.48873 -0.01992 0.48680
 C1231 C 0.50470 0.04519 0.50271
 C1232 C 0.51004 0.01760 0.54065
 C1233 C 0.54039 0.01802 0.50657
 C1234 C 0.49419 -0.04911 0.49337
 C1235 C 0.45980 -0.02207 0.48918
 C1236 C 0.48973 -0.02315 0.45664
 H1237 H 0.46871 0.00121 0.50493
 H1238 H 0.50538 0.00078 0.46447
 H1239 H 0.51635 0.02360 0.51446
 H1240 H 0.51090 -0.03189 0.51018
 H1241 H 0.49217 -0.02865 0.53599
 H1242 H 0.51565 -0.02650 0.53461
 H1243 H 0.48753 0.01276 0.45444
 H1244 H 0.50122 0.03290 0.46783
 H1245 H 0.46554 -0.02668 0.52711
 H1246 H 0.47467 0.02294 0.53583
 H1247 H 0.52359 -0.01338 0.45985
 H1248 H 0.53455 0.00718 0.47155
 H1249 H 0.47277 0.03355 0.49989
 H1250 H 0.46032 0.01537 0.48660
 H1251 H 0.54019 -0.01791 0.50759
 H1252 H 0.52760 -0.03912 0.49485
 O1253 O 0.49964 0.52765 0.02905
 O1254 O 0.47639 0.52165 0.02513
 O1255 O 0.51790 0.48944 0.04769
 O1256 O 0.51985 0.46556 0.04224
 O1257 O 0.53745 0.51161 0.01185
 O1258 O 0.53365 0.51131 -0.01447
 O1259 O 0.48503 0.45154 0.00231
 O1260 O 0.48830 0.45262 0.02841
 O1261 O 0.46673 0.48690 -0.01352
 O1262 O 0.46976 0.51406 -0.01076
 O1263 O 0.50353 0.47297 -0.03170
 O1264 O 0.52836 0.47587 -0.02514
 O1265 O 0.50297 0.45325 -0.01382
 O1266 O 0.52866 0.45952 -0.00952
 O1267 O 0.48517 0.48853 -0.03162
 O1268 O 0.48579 0.51601 -0.02555
 O1269 O 0.46697 0.46894 0.00399
 O1270 O 0.47096 0.47182 0.03093
 O1271 O 0.51674 0.53012 0.01200
 O1272 O 0.51690 0.52636 -0.01456
 O1273 O 0.53802 0.49257 0.02817
 O1274 O 0.53434 0.46595 0.02395
 O1275 O 0.50024 0.50595 0.04779
 O1276 O 0.47573 0.50151 0.04027
 Zr1277 Zr 0.49258 0.50600 0.02600
 O1278 O 0.48066 0.49315 0.01144
 Zr1279 Zr 0.51868 0.48207 0.02582
 O1280 O 0.50767 0.46792 0.01165
 Zr1281 Zr 0.51788 0.50951 0.00150
 O1282 O 0.50717 0.49647 -0.01408
 Zr1283 Zr 0.48631 0.47109 0.01431
 O1284 O 0.49728 0.48372 0.02996
 Zr1285 Zr 0.48571 0.49816 -0.01050
 O1286 O 0.49640 0.51244 0.00405
 Zr1287 Zr 0.51167 0.47420 -0.01021
 O1288 O 0.52389 0.48742 0.00397
 O1289 O 0.51386 0.50411 0.02326
 O1290 O 0.49043 0.47622 -0.00754
 C1291 C 0.50924 0.53506 0.02258
 C1292 C 0.51015 0.49887 0.05414
 C1293 C 0.54343 0.50395 0.02202
 C1294 C 0.49210 0.44687 -0.00867
 C1295 C 0.46136 0.47571 -0.00694
 C1296 C 0.49272 0.47869 -0.03774
 H1297 H 0.47070 0.49462 0.01347
 H1298 H 0.50967 0.49952 -0.02418
 H1299 H 0.51908 0.51034 0.03027
 H1300 H 0.51018 0.45756 0.01353
 H1301 H 0.49068 0.45649 0.03829
 H1302 H 0.51414 0.45722 0.03878
 H1303 H 0.49319 0.51427 -0.03282
 H1304 H 0.50728 0.53012 -0.01444
 H1305 H 0.46500 0.46300 0.02984
 H1306 H 0.47581 0.50883 0.04833
 H1307 H 0.52712 0.48505 -0.03087
 H1308 H 0.53872 0.50187 -0.01426
 H1309 H 0.47675 0.52630 0.01526
 H1310 H 0.46358 0.51195 -0.00235
 H1311 H 0.53991 0.46859 0.01520
 H1312 H 0.52632 0.45141 -0.00267
 O1313 O 0.75932 0.29228 0.49100
 O1314 O 0.75728 0.28560 0.51596
 O1315 O 0.77554 0.25341 0.47102
 O1316 O 0.76938 0.22957 0.46895
 O1317 O 0.74129 0.27628 0.45119
 O1318 O 0.71698 0.27645 0.45577
 O1319 O 0.73367 0.21580 0.50657
 O1320 O 0.75804 0.21757 0.50376
 O1321 O 0.72004 0.25311 0.52711
 O1322 O 0.72341 0.27956 0.52376
 O1323 O 0.70091 0.23906 0.48882
 O1324 O 0.70599 0.24144 0.46222
 O1325 O 0.71728 0.21853 0.48864
 O1326 O 0.72011 0.22478 0.46146
 O1327 O 0.70213 0.25581 0.50728
 O1328 O 0.70967 0.28254 0.50712
 O1329 O 0.73424 0.23327 0.52600
 O1330 O 0.76008 0.23631 0.52250
 O1331 O 0.74232 0.29495 0.47363
 O1332 O 0.71750 0.29125 0.47330
 O1333 O 0.75669 0.25742 0.45030
 O1334 O 0.75168 0.23053 0.45431
 O1335 O 0.77668 0.27089 0.48882
 O1336 O 0.77130 0.26521 0.51515
 Zr1337 Zr 0.75675 0.27048 0.49831
 O1338 O 0.74316 0.25803 0.51155
 Zr1339 Zr 0.75466 0.24659 0.47082
 O1340 O 0.74134 0.23281 0.48308
 Zr1341 Zr 0.73247 0.27438 0.47223
 O1342 O 0.71802 0.26187 0.48416
 Zr1343 Zr 0.74463 0.23579 0.50576
 O1344 O 0.75939 0.24802 0.49348
 Zr1345 Zr 0.72256 0.26377 0.50673
 O1346 O 0.73615 0.27751 0.49486
 Zr1347 Zr 0.72077 0.23949 0.47945
 O1348 O 0.73399 0.25226 0.46592
 O1349 O 0.75300 0.26869 0.47585
 O1350 O 0.72410 0.24157 0.50196
 C1351 C 0.75249 0.29988 0.48143
 C1352 C 0.78206 0.26337 0.47835
 C1353 C 0.75078 0.26886 0.44473
 C1354 C 0.72293 0.21136 0.49934
 C1355 C 0.72499 0.24110 0.53238
 C1356 C 0.69570 0.24598 0.49976
 H1357 H 0.74548 0.25944 0.52208
 H1358 H 0.70853 0.26523 0.48176
 H1359 H 0.75940 0.27497 0.47011
 H1360 H 0.74278 0.22242 0.48038
 H1361 H 0.76729 0.22159 0.50128
 H1362 H 0.76671 0.22190 0.47613
 H1363 H 0.70276 0.28158 0.49907
 H1364 H 0.71831 0.29558 0.48325
 H1365 H 0.75868 0.22758 0.52888
 H1366 H 0.77894 0.27253 0.51486
 H1367 H 0.70104 0.25083 0.46357
 H1368 H 0.71660 0.26692 0.45057
 H1369 H 0.74825 0.29074 0.51586
 H1370 H 0.73169 0.27745 0.52989
 H1371 H 0.74354 0.23364 0.44838
 H1372 H 0.72692 0.21689 0.46340
 O1373 O 0.74522 0.77513 -0.04670
 O1374 O 0.72229 0.77816 -0.04025
 O1375 O 0.76787 0.78701 -0.00745
 O1376 O 0.77009 0.77947 0.01583
 O1377 O 0.77802 0.74748 -0.03161
 O1378 O 0.76800 0.72348 -0.03201
 O1379 O 0.72756 0.75255 0.03030
 O1380 O 0.73525 0.77678 0.02788
 O1381 O 0.70433 0.74155 -0.00595
 O1382 O 0.70722 0.74458 -0.03314
 O1383 O 0.73563 0.71397 0.00705
 O1384 O 0.76017 0.71303 0.00497
 O1385 O 0.73941 0.73118 0.02737
 O1386 O 0.76572 0.72879 0.02022
 O1387 O 0.71788 0.71924 -0.00864
 O1388 O 0.71925 0.72630 -0.03591
 O1389 O 0.70900 0.75704 0.01303
 O1390 O 0.71807 0.78270 0.00934
 O1391 O 0.75795 0.75433 -0.04978
 O1392 O 0.75102 0.72839 -0.04631
 O1393 O 0.78251 0.76330 -0.01280
 O1394 O 0.77858 0.75815 0.01446
 O1395 O 0.75135 0.79248 -0.02459
 O1396 O 0.72569 0.79197 -0.01966
 Zr1397 Zr 0.73832 0.77369 -0.02484
 O1398 O 0.72344 0.76243 -0.01213
 Zr1399 Zr 0.76377 0.76529 -0.00131
 O1400 O 0.74987 0.75452 0.01283
 Zr1401 Zr 0.75667 0.74310 -0.02933
 O1402 O 0.74293 0.73067 -0.01618
 Zr1403 Zr 0.72984 0.76306 0.00997
 O1404 O 0.74415 0.77541 -0.00250
 Zr1405 Zr 0.72308 0.74002 -0.01755
 O1406 O 0.73656 0.75166 -0.03179
 Zr1407 Zr 0.74842 0.73255 0.00622
 O1408 O 0.76345 0.74300 -0.00719
 O1409 O 0.75813 0.76501 -0.02339
 O1410 O 0.72853 0.74095 0.00455
 C1411 C 0.75293 0.76664 -0.05442
 C1412 C 0.76226 0.79567 -0.01695
 C1413 C 0.78603 0.75618 -0.02438
 C1414 C 0.73152 0.73982 0.03474
 C1415 C 0.70097 0.74825 0.00594
 C1416 C 0.72387 0.71103 0.00107
 H1417 H 0.71424 0.76705 -0.01340
 H1418 H 0.74292 0.72032 -0.01939
 H1419 H 0.76465 0.77064 -0.02961
 H1420 H 0.75303 0.75547 0.02317
 H1421 H 0.73966 0.78564 0.02361
 H1422 H 0.76254 0.77939 0.02315
 H1423 H 0.72512 0.71747 -0.03482
 H1424 H 0.74226 0.73213 -0.05064
 H1425 H 0.71216 0.78285 0.01823
 H1426 H 0.72788 0.80009 -0.02660
 H1427 H 0.75932 0.70940 -0.00525
 H1428 H 0.77302 0.72177 -0.02261
 H1429 H 0.71948 0.76860 -0.04448
 H1430 H 0.70301 0.75409 -0.03050
 H1431 H 0.78285 0.74911 0.01055
 H1432 H 0.76451 0.73475 0.02920
 O1433 O 0.99385 0.19687 0.23690
 O1434 O 0.97091 0.20424 0.23882
 O1435 O 1.01485 0.23428 0.21921
 O1436 O 1.01721 0.25821 0.22481
 O1437 O 1.03220 0.21166 0.25605
 O1438 O 1.02763 0.21144 0.28172
 O1439 O 0.98283 0.27403 0.26190
 O1440 O 0.98499 0.27152 0.23623
 O1441 O 0.96176 0.23796 0.27792
 O1442 O 0.96396 0.21116 0.27520
 O1443 O 0.99847 0.25101 0.29783
 O1444 O 1.02317 0.24764 0.29264
 O1445 O 0.99924 0.27105 0.27979
 O1446 O 1.02479 0.26359 0.27677
 O1447 O 0.97952 0.23616 0.29661
 O1448 O 0.97977 0.20844 0.29029
 O1449 O 0.96375 0.25739 0.26228
 O1450 O 0.96662 0.25351 0.23488
 O1451 O 1.01026 0.19362 0.25480
 O1452 O 1.01024 0.19760 0.28135
 O1453 O 1.03381 0.23049 0.23958
 O1454 O 1.03089 0.25742 0.24376
 O1455 O 0.99693 0.21805 0.21804
 O1456 O 0.97223 0.22453 0.22387
 Zr1457 Zr 0.98801 0.21887 0.23927
 O1458 O 0.97609 0.23191 0.25348
 Zr1459 Zr 1.01487 0.24170 0.24105
 O1460 O 1.00394 0.25614 0.25473
 Zr1461 Zr 1.01233 0.21422 0.26518
 O1462 O 1.00176 0.22758 0.28029
 Zr1463 Zr 0.98252 0.25379 0.25115
 O1464 O 0.99357 0.24098 0.23582
 Zr1465 Zr 0.98045 0.22654 0.27557
 O1466 O 0.99090 0.21207 0.26135
 Zr1467 Zr 1.00714 0.24971 0.27674
 O1468 O 1.01925 0.23609 0.26311
 O1469 O 1.00922 0.21983 0.24325
 O1470 O 0.98594 0.24841 0.27312
 C1471 C 1.00268 0.18897 0.24403
 C1472 C 1.00740 0.22475 0.21236
 C1473 C 1.03868 0.21904 0.24611
 C1474 C 0.98962 0.27846 0.27327
 C1475 C 0.95746 0.25017 0.27247
 C1476 C 0.98724 0.24566 0.30319
 H1477 H 0.96612 0.23082 0.25109
 H1478 H 1.00385 0.22440 0.29049
 H1479 H 1.01444 0.21328 0.23665
 H1480 H 1.00692 0.26638 0.25290
 H1481 H 0.98717 0.26716 0.22655
 H1482 H 1.01083 0.26623 0.22744
 H1483 H 0.98647 0.21031 0.29838
 H1484 H 1.00065 0.19380 0.28047
 H1485 H 0.96095 0.26247 0.23620
 H1486 H 0.97238 0.21734 0.21570
 H1487 H 1.02165 0.23831 0.29802
 H1488 H 1.03265 0.22091 0.28241
 H1489 H 0.97047 0.19960 0.24869
 H1490 H 0.95816 0.21335 0.26644
 H1491 H 1.03639 0.25435 0.25249
 H1492 H 1.02295 0.27185 0.26992
 O1493 O 0.76636 0.96930 0.75742
 O1494 O 0.76568 0.97388 0.73169
 O1495 O 0.78227 1.00852 0.77595
 O1496 O 0.77721 1.03269 0.77521
 O1497 O 0.74534 0.98902 0.79385
 O1498 O 0.72165 0.98836 0.78631
 O1499 O 0.74352 1.04457 0.73332
 O1500 O 0.76794 1.04336 0.73957
 O1501 O 0.73003 1.00836 0.71516
 O1502 O 0.73387 0.98102 0.71972
 O1503 O 0.71039 1.02498 0.74862
 O1504 O 0.71261 1.02241 0.77682
 O1505 O 0.72727 1.04459 0.75144
 O1506 O 0.72659 1.03934 0.77816
 O1507 O 0.71152 1.00577 0.73276
 O1508 O 0.71818 0.97931 0.73484
 O1509 O 0.74671 1.02606 0.71565
 O1510 O 0.77165 1.02302 0.72262
 O1511 O 0.74827 0.96836 0.77345
 O1512 O 0.72363 0.97219 0.77013
 O1513 O 0.76141 1.00732 0.79490
 O1514 O 0.75859 1.03359 0.78854
 O1515 O 0.78407 0.99027 0.75905
 O1516 O 0.78053 0.99373 0.73208
 Zr1517 Zr 0.76478 0.99042 0.74798
 O1518 O 0.75273 1.00246 0.73266
 Zr1519 Zr 0.76177 1.01627 0.77348
 O1520 O 0.74980 1.02958 0.75922
 Zr1521 Zr 0.73866 0.98906 0.77177
 O1522 O 0.72554 1.00113 0.75763
 Zr1523 Zr 0.75466 1.02497 0.73721
 O1524 O 0.76802 1.01307 0.75154
 Zr1525 Zr 0.73167 0.99767 0.73575
 O1526 O 0.74377 0.98428 0.74984
 Zr1527 Zr 0.72879 1.02368 0.76120
 O1528 O 0.74061 1.01154 0.77671
 O1529 O 0.75959 0.99394 0.76986
 O1530 O 0.73379 1.01999 0.73938
 C1531 C 0.75896 0.96272 0.76722
 C1532 C 0.78900 0.99813 0.76960
 C1533 C 0.75436 0.99683 0.80077
 C1534 C 0.73311 1.05022 0.74005
 C1535 C 0.73653 1.01933 0.70947
 C1536 C 0.70556 1.01719 0.73796
 H1537 H 0.75577 1.00033 0.72251
 H1538 H 0.71578 0.99825 0.75924
 H1539 H 0.76531 0.98808 0.77678
 H1540 H 0.75136 1.04008 0.76142
 H1541 H 0.77695 1.03952 0.74314
 H1542 H 0.77478 1.04046 0.76801
 H1543 H 0.71133 0.98037 0.74283
 H1544 H 0.72529 0.96715 0.76066
 H1545 H 0.77129 1.03145 0.71568
 H1546 H 0.78776 0.98612 0.73355
 H1547 H 0.70583 1.01499 0.77338
 H1548 H 0.72061 0.99843 0.79020
 H1549 H 0.75636 0.96931 0.73122
 H1550 H 0.74134 0.98402 0.71291
 H1551 H 0.74968 1.03156 0.79353
 H1552 H 0.73471 1.04599 0.77774
 O1553 O 0.76157 0.55610 0.23694
 O1554 O 0.78512 0.54957 0.23847
 O1555 O 0.74037 0.51805 0.22269
 O1556 O 0.73952 0.49405 0.22960
 O1557 O 0.72527 0.54130 0.26008
 O1558 O 0.73213 0.54295 0.28521
 O1559 O 0.77577 0.48013 0.26535
 O1560 O 0.77200 0.48172 0.23986
 O1561 O 0.79759 0.51711 0.27841
 O1562 O 0.79519 0.54370 0.27376
 O1563 O 0.76301 0.50487 0.30107
 O1564 O 0.73742 0.50801 0.29707
 O1565 O 0.76043 0.48360 0.28394
 O1566 O 0.73545 0.49064 0.28339
 O1567 O 0.78055 0.52133 0.29827
 O1568 O 0.78065 0.54763 0.28932
 O1569 O 0.79483 0.49723 0.26364
 O1570 O 0.78993 0.49977 0.23640
 O1571 O 0.74611 0.55953 0.25550
 O1572 O 0.74900 0.55736 0.28223
 O1573 O 0.72297 0.52229 0.24402
 O1574 O 0.72633 0.49572 0.24928
 O1575 O 0.75839 0.53393 0.21972
 O1576 O 0.78346 0.52873 0.22444
 Zr1577 Zr 0.76848 0.53449 0.24041
 O1578 O 0.78154 0.52210 0.25437
 Zr1579 Zr 0.74212 0.51129 0.24489
 O1580 O 0.75416 0.49768 0.25874
 Zr1581 Zr 0.74591 0.53969 0.26753
 O1582 O 0.75783 0.52729 0.28254
 Zr1583 Zr 0.77526 0.50006 0.25371
 O1584 O 0.76306 0.51215 0.23844
 Zr1585 Zr 0.77874 0.52848 0.27633
 O1586 O 0.76697 0.54218 0.26222
 Zr1587 Zr 0.75258 0.50495 0.28061
 O1588 O 0.73928 0.51765 0.26697
 O1589 O 0.74761 0.53324 0.24575
 O1590 O 0.77349 0.50635 0.27560
 C1591 C 0.75250 0.56378 0.24380
 C1592 C 0.74755 0.52713 0.21493
 C1593 C 0.71835 0.53370 0.25066
 C1594 C 0.76949 0.47590 0.27709
 C1595 C 0.80170 0.50483 0.27310
 C1596 C 0.77374 0.51184 0.30585
 H1597 H 0.79130 0.52315 0.25125
 H1598 H 0.75637 0.53098 0.29263
 H1599 H 0.74173 0.53923 0.23911
 H1600 H 0.75118 0.48735 0.25767
 H1601 H 0.76890 0.48565 0.23020
 H1602 H 0.74528 0.48577 0.23311
 H1603 H 0.77322 0.54740 0.29677
 H1604 H 0.75817 0.56165 0.27990
 H1605 H 0.79583 0.49097 0.23781
 H1606 H 0.78271 0.53570 0.21604
 H1607 H 0.73996 0.51690 0.30270
 H1608 H 0.72726 0.53348 0.28674
 H1609 H 0.78575 0.55487 0.24795
 H1610 H 0.80034 0.54102 0.26478
 H1611 H 0.72179 0.49881 0.25851
 H1612 H 0.73570 0.48330 0.27541
 O1613 O 0.49386 0.20985 0.71826
 O1614 O 0.47026 0.21544 0.71714
 O1615 O 0.51508 0.24817 0.70435
 O1616 O 0.51614 0.27217 0.71070
 O1617 O 0.52744 0.22581 0.74398
 O1618 O 0.51894 0.22596 0.76871
 O1619 O 0.47542 0.28649 0.74015
 O1620 O 0.48198 0.28383 0.71559
 O1621 O 0.45386 0.24997 0.75327
 O1622 O 0.45724 0.22271 0.75023
 O1623 O 0.48553 0.26404 0.77894
 O1624 O 0.51074 0.26224 0.77868
 O1625 O 0.48822 0.28422 0.76119
 O1626 O 0.51466 0.27792 0.76269
 O1627 O 0.46862 0.24707 0.77501
 O1628 O 0.46975 0.22059 0.76830
 O1629 O 0.45720 0.26879 0.73710
 O1630 O 0.46506 0.26491 0.71086
 O1631 O 0.50779 0.20757 0.73858
 O1632 O 0.50213 0.21102 0.76501
 O1633 O 0.53106 0.24417 0.72738
 O1634 O 0.52689 0.27123 0.73193
 O1635 O 0.49751 0.23187 0.70033
 O1636 O 0.47215 0.23566 0.70231
 Zr1637 Zr 0.48614 0.23132 0.71995
 O1638 O 0.47171 0.24399 0.73150
 Zr1639 Zr 0.51181 0.25532 0.72611
 O1640 O 0.49816 0.26935 0.73745
 Zr1641 Zr 0.50642 0.22790 0.74961
 O1642 O 0.49303 0.24082 0.76243
 Zr1643 Zr 0.47773 0.26608 0.73002
 O1644 O 0.49155 0.25361 0.71724
 Zr1645 Zr 0.47280 0.23873 0.75400
 O1646 O 0.48597 0.22461 0.74220
 Zr1647 Zr 0.49778 0.26327 0.75981
 O1648 O 0.51261 0.25009 0.74874
 O1649 O 0.50644 0.23337 0.72743
 O1650 O 0.47759 0.26091 0.75235
 C1651 C 0.50256 0.20276 0.72639
 C1652 C 0.50842 0.23890 0.69629
 C1653 C 0.53508 0.23274 0.73468
 C1654 C 0.47976 0.29127 0.75265
 C1655 C 0.44991 0.26171 0.74657
 C1656 C 0.47435 0.25726 0.78266
 H1657 H 0.46229 0.24251 0.72738
 H1658 H 0.49362 0.23772 0.77286
 H1659 H 0.51281 0.22730 0.72157
 H1660 H 0.50098 0.27971 0.73613
 H1661 H 0.48620 0.27954 0.70668
 H1662 H 0.50937 0.28009 0.71243
 H1663 H 0.47704 0.22095 0.77600
 H1664 H 0.49351 0.20613 0.76162
 H1665 H 0.45878 0.27351 0.71091
 H1666 H 0.47378 0.22842 0.69437
 H1667 H 0.50969 0.25232 0.78301
 H1668 H 0.52379 0.23549 0.76984
 H1669 H 0.46887 0.21069 0.72686
 H1670 H 0.45217 0.22546 0.74113
 H1671 H 0.53109 0.26798 0.74137
 H1672 H 0.51320 0.28641 0.75603
 O1673 O 0.25380 0.77855 0.46667
 O1674 O 0.22992 0.77733 0.47099
 O1675 O 0.27187 0.78741 0.50868
 O1676 O 0.27108 0.77766 0.53148
 O1677 O 0.28835 0.75339 0.48193
 O1678 O 0.28157 0.72857 0.47708
 O1679 O 0.23304 0.74181 0.53754
 O1680 O 0.23720 0.76725 0.53932
 O1681 O 0.21420 0.73380 0.49740
 O1682 O 0.21877 0.74186 0.47164
 O1683 O 0.24716 0.70939 0.51005
 O1684 O 0.27292 0.71254 0.50958
 O1685 O 0.24853 0.72353 0.53333
 O1686 O 0.27404 0.72425 0.52848
 O1687 O 0.23123 0.71436 0.49215
 O1688 O 0.23339 0.72644 0.46715
 O1689 O 0.21548 0.74592 0.51919
 O1690 O 0.22071 0.77310 0.52014
 O1691 O 0.26919 0.76010 0.46256
 O1692 O 0.26596 0.73360 0.46139
 O1693 O 0.28955 0.76594 0.50351
 O1694 O 0.28354 0.75802 0.52892
 O1695 O 0.25560 0.79292 0.49127
 O1696 O 0.23003 0.78840 0.49362
 Zr1697 Zr 0.24519 0.77288 0.48726
 O1698 O 0.23091 0.75796 0.49663
 Zr1699 Zr 0.26940 0.76472 0.51227
 O1700 O 0.25605 0.74986 0.52297
 Zr1701 Zr 0.26769 0.74602 0.48093
 O1702 O 0.25458 0.73005 0.49030
 Zr1703 Zr 0.23528 0.75573 0.51920
 O1704 O 0.24871 0.77187 0.51020
 Zr1705 Zr 0.23389 0.73691 0.48792
 O1706 O 0.24697 0.75217 0.47715
 Zr1707 Zr 0.25802 0.72913 0.51320
 O1708 O 0.27251 0.74366 0.50348
 O1709 O 0.26581 0.76681 0.48984
 O1710 O 0.23736 0.73484 0.51046
 C1711 C 0.26321 0.77223 0.45894
 C1712 C 0.26576 0.79643 0.49985
 C1713 C 0.29493 0.76105 0.49157
 C1714 C 0.23893 0.72959 0.54097
 C1715 C 0.20918 0.73756 0.50992
 C1716 C 0.23697 0.70577 0.50163
 H1717 H 0.22131 0.76145 0.49505
 H1718 H 0.25619 0.72047 0.48556
 H1719 H 0.27224 0.77392 0.48521
 H1720 H 0.25819 0.74961 0.53364
 H1721 H 0.24054 0.77724 0.53679
 H1722 H 0.26402 0.77398 0.53843
 H1723 H 0.24068 0.71883 0.46716
 H1724 H 0.25715 0.73653 0.45658
 H1725 H 0.21417 0.77084 0.52823
 H1726 H 0.23155 0.79761 0.48797
 H1727 H 0.27111 0.70829 0.49974
 H1728 H 0.28569 0.72598 0.48677
 H1729 H 0.22915 0.76841 0.46485
 H1730 H 0.21325 0.75026 0.47517
 H1731 H 0.28836 0.74923 0.52517
 H1732 H 0.27310 0.73101 0.53691
 O1733 O 0.27521 0.27896 0.98852
 O1734 O 0.27373 0.27779 1.01454
 O1735 O 0.29832 0.24159 0.97634
 O1736 O 0.29768 0.21725 0.98056
 O1737 O 0.26027 0.25085 0.95421
 O1738 O 0.23633 0.24770 0.96017
 O1739 O 0.26591 0.20369 1.02108
 O1740 O 0.28900 0.21076 1.01729
 O1741 O 0.24372 0.23976 1.03393
 O1742 O 0.24209 0.26565 1.02548
 O1743 O 0.22854 0.21489 1.00046
 O1744 O 0.23289 0.21229 0.97430
 O1745 O 0.24957 0.19874 1.00357
 O1746 O 0.25031 0.20018 0.97555
 O1747 O 0.22596 0.23499 1.01489
 O1748 O 0.22803 0.26211 1.00905
 O1749 O 0.26231 0.22468 1.03663
 O1750 O 0.28670 0.23302 1.03145
 O1751 O 0.25878 0.27407 0.97105
 O1752 O 0.23468 0.26609 0.97421
 O1753 O 0.27887 0.23570 0.95661
 O1754 O 0.28029 0.21041 0.96699
 O1755 O 0.29596 0.26203 0.99045
 O1756 O 0.29168 0.26139 1.01771
 Zr1757 Zr 0.27656 0.25935 1.00076
 O1758 O 0.26574 0.24727 1.01692
 Zr1759 Zr 0.27955 0.23017 0.97915
 O1760 O 0.26935 0.21675 0.99457
 Zr1761 Zr 0.25226 0.25232 0.97559
 O1762 O 0.24063 0.23953 0.99043
 Zr1763 Zr 0.27192 0.22525 1.01589
 O1764 O 0.28386 0.23756 1.00068
 Zr1765 Zr 0.24445 0.24698 1.01193
 O1766 O 0.25502 0.26079 0.99690
 Zr1767 Zr 0.24793 0.21779 0.99046
 O1768 O 0.25823 0.23013 0.97402
 O1769 O 0.27341 0.25192 0.97941
 O1770 O 0.25065 0.22516 1.01187
 C1771 C 0.26797 0.28249 0.97707
 C1772 C 0.30257 0.25410 0.98112
 C1773 C 0.27075 0.24398 0.94898
 C1774 C 0.25685 0.19527 1.01499
 C1775 C 0.25120 0.23071 1.04140
 C1776 C 0.22175 0.22261 1.00976
 H1777 H 0.26764 0.25135 1.02681
 H1778 H 0.23069 0.24009 0.98776
 H1779 H 0.27842 0.25781 0.97196
 H1780 H 0.27296 0.20662 0.99399
 H1781 H 0.29716 0.21627 1.01365
 H1782 H 0.29655 0.21070 0.98919
 H1783 H 0.22186 0.25831 1.00119
 H1784 H 0.23520 0.27277 0.98278
 H1785 H 0.28724 0.22575 1.03960
 H1786 H 0.29764 0.27000 1.01542
 H1787 H 0.22652 0.22073 0.97328
 H1788 H 0.23764 0.23737 0.95714
 H1789 H 0.26384 0.28061 1.01363
 H1790 H 0.25049 0.26654 1.03171
 H1791 H 0.27173 0.21000 0.96092
 H1792 H 0.25852 0.19446 0.97870
 C1793 C 0.28964 0.37858 0.78478
 C1794 C 0.28477 0.39126 0.77771
 C1795 C 0.29363 0.39921 0.76822
 C1796 C 0.30715 0.39422 0.76583
 C1797 C 0.31197 0.38162 0.77303
 C1798 C 0.30333 0.37375 0.78270
 C1799 C 0.28891 0.41215 0.76151
 C1800 C 0.27554 0.41735 0.76442
 C1801 C 0.26665 0.40936 0.77387
 C1802 C 0.27128 0.39626 0.78032
 C1803 C 0.25343 0.41483 0.77702
 C1804 C 0.24921 0.42835 0.77125
 C1805 C 0.25805 0.43642 0.76201
 C1806 C 0.27110 0.43070 0.75841
 H1807 H 0.28276 0.37274 0.79211
 H1808 H 0.31407 0.40018 0.75857
 H1809 H 0.32252 0.37820 0.77109
 H1810 H 0.29574 0.41834 0.75433
 H1811 H 0.26451 0.39017 0.78766
 H1812 H 0.24650 0.40884 0.78424
 H1813 H 0.23912 0.43259 0.77416
 H1814 H 0.27809 0.43696 0.75147
 C1815 C 0.30663 -0.10616 0.30331
 C1816 C 0.30225 -0.09334 0.29597
 C1817 C 0.31106 -0.08653 0.28555
 C1818 C 0.32412 -0.09254 0.28278
 C1819 C 0.32832 -0.10534 0.28998
 C1820 C 0.31957 -0.11240 0.30014
 C1821 C 0.30660 -0.07399 0.27787
 C1822 C 0.29335 -0.06825 0.28032
 C1823 C 0.28458 -0.07497 0.29083
 C1824 C 0.28910 -0.08743 0.29863
 C1825 C 0.27138 -0.06914 0.29332
 C1826 C 0.26688 -0.05680 0.28548
 C1827 C 0.27546 -0.05008 0.27491
 C1828 C 0.28872 -0.05590 0.27241
 H1829 H 0.29975 -0.11155 0.31104
 H1830 H 0.33098 -0.08750 0.27482
 H1831 H 0.33843 -0.10977 0.28749
 H1832 H 0.31336 -0.06883 0.26985
 H1833 H 0.28232 -0.09261 0.30661
 H1834 H 0.26454 -0.07410 0.30137
 H1835 H 0.25666 -0.05250 0.28773
 H1836 H 0.29554 -0.05072 0.26446
 C1837 C 0.79575 0.89096 0.79708
 C1838 C 0.79107 0.90411 0.79058
 C1839 C 0.80060 0.91352 0.78344
 C1840 C 0.81461 0.90969 0.78296
 C1841 C 0.81918 0.89661 0.78937
 C1842 C 0.80987 0.88696 0.79648
 C1843 C 0.79600 0.92663 0.77691
 C1844 C 0.78196 0.93052 0.77749
 C1845 C 0.77241 0.92115 0.78466
 C1846 C 0.77700 0.90798 0.79111
 C1847 C 0.75843 0.92522 0.78544
 C1848 C 0.75400 0.93858 0.77945
 C1849 C 0.76342 0.94802 0.77236
 C1850 C 0.77738 0.94380 0.77124
 H1851 H 0.78828 0.88387 0.80244
 H1852 H 0.82206 0.91681 0.77759
 H1853 H 0.83012 0.89424 0.78867
 H1854 H 0.80335 0.93384 0.77147
 H1855 H 0.76966 0.90081 0.79661
 H1856 H 0.75096 0.91819 0.79091
 H1857 H 0.74319 0.94159 0.78047
 H1858 H 0.78479 0.95108 0.76599
 C1859 C 0.44700 0.84578 0.30549
 C1860 C 0.45216 0.83367 0.29777
 C1861 C 0.44295 0.82264 0.29274
 C1862 C 0.42871 0.82400 0.29543
 C1863 C 0.42364 0.83622 0.30290
 C1864 C 0.43272 0.84720 0.30802
 C1865 C 0.44812 0.81046 0.28511
 C1866 C 0.46239 0.80919 0.28244
 C1867 C 0.47155 0.82032 0.28739
 C1868 C 0.46638 0.83247 0.29498
 C1869 C 0.48581 0.81898 0.28491
 C1870 C 0.49103 0.80652 0.27806
 C1871 C 0.48209 0.79526 0.27331
 C1872 C 0.46772 0.79680 0.27525
 H1873 H 0.45409 0.85426 0.30921
 H1874 H 0.42151 0.81564 0.29171
 H1875 H 0.41259 0.83703 0.30477
 H1876 H 0.44107 0.80195 0.28136
 H1877 H 0.47344 0.84095 0.29882
 H1878 H 0.49296 0.82742 0.28860
 H1879 H 0.50215 0.80553 0.27671
 H1880 H 0.46077 0.78805 0.27186
 C1881 C -0.04810 0.86912 0.79584
 C1882 C -0.04075 0.85613 0.79288
 C1883 C -0.03072 0.85098 0.80309
 C1884 C -0.02817 0.85891 0.81602
 C1885 C -0.03539 0.87188 0.81879
 C1886 C -0.04541 0.87715 0.80876
 C1887 C -0.02336 0.83802 0.80019
 C1888 C -0.02580 0.83018 0.78715
 C1889 C -0.03578 0.83538 0.77691
 C1890 C -0.04320 0.84828 0.77985
 C1891 C -0.03821 0.82757 0.76389
 C1892 C -0.03095 0.81465 0.76106
 C1893 C -0.02106 0.80922 0.77117
 C1894 C -0.01850 0.81715 0.78422
 H1895 H -0.05570 0.87309 0.78794
 H1896 H -0.02055 0.85512 0.82398
 H1897 H -0.03319 0.87770 0.82890
 H1898 H -0.01571 0.83407 0.80808
 H1899 H -0.05086 0.85222 0.77198
 H1900 H -0.04581 0.83139 0.75592
 H1901 H -0.03323 0.80883 0.75095
 H1902 H -0.01100 0.81311 0.79219
 C1903 C -0.04835 -0.10925 -0.03633
 C1904 C -0.04388 -0.09603 -0.03003
 C1905 C -0.05368 -0.08628 -0.02400
 C1906 C -0.06779 -0.08993 -0.02435
 C1907 C -0.07217 -0.10307 -0.03073
 C1908 C -0.06253 -0.11285 -0.03684
 C1909 C -0.04926 -0.07297 -0.01789
 C1910 C -0.03517 -0.06919 -0.01792
 C1911 C -0.02535 -0.07892 -0.02397
 C1912 C -0.02975 -0.09234 -0.02986
 C1913 C -0.01131 -0.07491 -0.02430
 C1914 C -0.00708 -0.06124 -0.01900
 C1915 C -0.01678 -0.05148 -0.01304
 C1916 C -0.03080 -0.05564 -0.01234
 H1917 H -0.04074 -0.11664 -0.04086
 H1918 H -0.07545 -0.08257 -0.01982
 H1919 H -0.08316 -0.10541 -0.03098
 H1920 H -0.05680 -0.06546 -0.01332
 H1921 H -0.02223 -0.09980 -0.03453
 H1922 H -0.00365 -0.08222 -0.02891
 H1923 H 0.00378 -0.05825 -0.01963
 H1924 H -0.03839 -0.04809 -0.00796
 C1925 C -0.05593 0.39147 0.44963
 C1926 C -0.04744 0.40338 0.45379
 C1927 C -0.03565 0.40699 0.44533
 C1928 C -0.03258 0.39870 0.43285
 C1929 C -0.04096 0.38685 0.42883
 C1930 C -0.05273 0.38291 0.43717
 C1931 C -0.02704 0.41873 0.44952
 C1932 C -0.02999 0.42689 0.46219
 C1933 C -0.04180 0.42332 0.47065
 C1934 C -0.05046 0.41164 0.46639
 C1935 C -0.04475 0.43148 0.48327
 C1936 C -0.03613 0.44308 0.48750
 C1937 C -0.02432 0.44680 0.47921
 C1938 C -0.02133 0.43858 0.46652
 H1939 H -0.06485 0.38882 0.45631
 H1940 H -0.02358 0.40130 0.42624
 H1941 H -0.03805 0.38086 0.41909
 H1942 H -0.01800 0.42144 0.44300
 H1943 H -0.05950 0.40892 0.47292
 H1944 H -0.05378 0.42894 0.48987
 H1945 H -0.03881 0.44922 0.49725
 H1946 H -0.01237 0.44137 0.45990
 C1947 C 0.46270 -0.12454 0.46830
 C1948 C 0.46697 -0.11172 0.47549
 C1949 C 0.45768 -0.10425 0.48477
 C1950 C 0.44443 -0.11010 0.48715
 C1951 C 0.44027 -0.12299 0.48006
 C1952 C 0.44922 -0.13023 0.47026
 C1953 C 0.46169 -0.09093 0.49125
 C1954 C 0.47485 -0.08496 0.48844
 C1955 C 0.48429 -0.09275 0.47956
 C1956 C 0.48033 -0.10612 0.47324
 C1957 C 0.49740 -0.08680 0.47669
 C1958 C 0.50087 -0.07288 0.48188
 C1959 C 0.49137 -0.06473 0.49017
 C1960 C 0.47851 -0.07106 0.49382
 H1961 H 0.46999 -0.13001 0.46119
 H1962 H 0.43719 -0.10458 0.49431
 H1963 H 0.42985 -0.12693 0.48197
 H1964 H 0.45445 -0.08502 0.49812
 H1965 H 0.48750 -0.11193 0.46621
 H1966 H 0.50478 -0.09267 0.47000
 H1967 H 0.51087 -0.06831 0.47898
 H1968 H 0.47105 -0.06485 0.50012
 C1969 C 0.44840 0.39511 -0.06019
 C1970 C 0.45435 0.40456 -0.04975
 C1971 C 0.44572 0.41323 -0.04080
 C1972 C 0.43132 0.41250 -0.04264
 C1973 C 0.42544 0.40300 -0.05298
 C1974 C 0.43385 0.39389 -0.06169
 C1975 C 0.45161 0.42243 -0.03013
 C1976 C 0.46605 0.42316 -0.02838
 C1977 C 0.47473 0.41462 -0.03742
 C1978 C 0.46881 0.40531 -0.04800
 C1979 C 0.48918 0.41581 -0.03595
 C1980 C 0.49498 0.42576 -0.02596
 C1981 C 0.48642 0.43436 -0.01702
 C1982 C 0.47195 0.43271 -0.01805
 H1983 H 0.45524 0.38848 -0.06678
 H1984 H 0.42457 0.41910 -0.03590
 H1985 H 0.41426 0.40277 -0.05389
 H1986 H 0.44498 0.42909 -0.02326
 H1987 H 0.47545 0.39871 -0.05493
 H1988 H 0.49599 0.40939 -0.04283
 H1989 H 0.50615 0.42704 -0.02550
 H1990 H 0.46524 0.43958 -0.01149
 C1991 C 0.78656 0.37742 0.46739
 C1992 C 0.78247 0.36316 0.47123
 C1993 C 0.79221 0.35333 0.47747
 C1994 C 0.80590 0.35802 0.47983
 C1995 C 0.80990 0.37229 0.47596
 C1996 C 0.80030 0.38209 0.46963
 C1997 C 0.78812 0.33898 0.48114
 C1998 C 0.77443 0.33436 0.47856
 C1999 C 0.76472 0.34426 0.47232
 C2000 C 0.76878 0.35859 0.46877
 C2001 C 0.75111 0.33962 0.46954
 C2002 C 0.74716 0.32522 0.47269
 C2003 C 0.75669 0.31525 0.47883
 C2004 C 0.77030 0.31994 0.48191
 H2005 H 0.77898 0.38488 0.46270
 H2006 H 0.81353 0.35063 0.48457
 H2007 H 0.82058 0.37553 0.47772
 H2008 H 0.79560 0.33139 0.48587
 H2009 H 0.76133 0.36615 0.46396
 H2010 H 0.74356 0.34707 0.46478
 H2011 H 0.73660 0.32189 0.47030
 H2012 H 0.77777 0.31227 0.48652
 C2013 C 0.79504 0.87139 -0.04201
 C2014 C 0.78749 0.85852 -0.03914
 C2015 C 0.77554 0.85521 -0.04763
 C2016 C 0.77133 0.86491 -0.05881
 C2017 C 0.77885 0.87777 -0.06153
 C2018 C 0.79077 0.88113 -0.05319
 C2019 C 0.76802 0.84229 -0.04479
 C2020 C 0.77228 0.83267 -0.03352
 C2021 C 0.78418 0.83609 -0.02500
 C2022 C 0.79170 0.84895 -0.02786
 C2023 C 0.78845 0.82655 -0.01375
 C2024 C 0.78111 0.81364 -0.01102
 C2025 C 0.76931 0.80995 -0.01948
 C2026 C 0.76490 0.81962 -0.03070
 H2027 H 0.80411 0.87390 -0.03539
 H2028 H 0.76222 0.86256 -0.06546
 H2029 H 0.77539 0.88499 -0.07032
 H2030 H 0.75890 0.83972 -0.05135
 H2031 H 0.80085 0.85150 -0.02133
 H2032 H 0.79754 0.82901 -0.00711
 H2033 H 0.78482 0.80645 -0.00232
 H2034 H 0.75589 0.81692 -0.03736
 C2035 C 0.79403 0.30418 0.38017
 C2036 C 0.78779 0.29591 0.39147
 C2037 C 0.79583 0.28578 0.39971
 C2038 C 0.80989 0.28401 0.39648
 C2039 C 0.81598 0.29217 0.38519
 C2040 C 0.80815 0.30232 0.37691
 C2041 C 0.78975 0.27765 0.41113
 C2042 C 0.77574 0.27960 0.41456
 C2043 C 0.76763 0.28963 0.40628
 C2044 C 0.77368 0.29765 0.39472
 C2045 C 0.75368 0.29174 0.40996
 C2046 C 0.74798 0.28445 0.42210
 C2047 C 0.75605 0.27471 0.43060
 C2048 C 0.76985 0.27206 0.42651
 H2049 H 0.78786 0.31189 0.37381
 H2050 H 0.81622 0.27634 0.40272
 H2051 H 0.82690 0.29063 0.38309
 H2052 H 0.79599 0.27000 0.41751
 H2053 H 0.76748 0.30541 0.38843
 H2054 H 0.74729 0.29935 0.40373
 H2055 H 0.73734 0.28669 0.42504
 H2056 H 0.77625 0.26476 0.43312
 C2057 C 0.78884 0.79478 -0.12738
 C2058 C 0.78365 0.78754 -0.11484
 C2059 C 0.79132 0.77600 -0.10829
 C2060 C 0.80395 0.77178 -0.11450
 C2061 C 0.80902 0.77901 -0.12698
 C2062 C 0.80161 0.79065 -0.13351
 C2063 C 0.78634 0.76900 -0.09554
 C2064 C 0.77382 0.77346 -0.08918
 C2065 C 0.76607 0.78488 -0.09585
 C2066 C 0.77098 0.79179 -0.10867
 C2067 C 0.75366 0.78945 -0.08941
 C2068 C 0.74917 0.78313 -0.07623
 C2069 C 0.75691 0.77197 -0.06928
 C2070 C 0.76912 0.76697 -0.07602
 H2071 H 0.78290 0.80362 -0.13233
 H2072 H 0.80998 0.76296 -0.10963
 H2073 H 0.81892 0.77561 -0.13132
 H2074 H 0.79232 0.76025 -0.09045
 H2075 H 0.76507 0.80063 -0.11369
 H2076 H 0.74757 0.79816 -0.09439
 H2077 H 0.73973 0.78717 -0.07132
 H2078 H 0.77527 0.75850 -0.07071
 C2079 C 0.30139 0.44057 0.85254
 C2080 C 0.29632 0.44862 0.84039
 C2081 C 0.30567 0.45412 0.82975
 C2082 C 0.31988 0.45138 0.83134
 C2083 C 0.32485 0.44364 0.84357
 C2084 C 0.31570 0.43829 0.85434
 C2085 C 0.30072 0.46241 0.81777
 C2086 C 0.28651 0.46532 0.81628
 C2087 C 0.27713 0.45977 0.82686
 C2088 C 0.28209 0.45148 0.83886
 C2089 C 0.26291 0.46246 0.82517
 C2090 C 0.25798 0.47025 0.81293
 C2091 C 0.26720 0.47574 0.80229
 C2092 C 0.28150 0.47344 0.80418
 H2093 H 0.29427 0.43662 0.86086
 H2094 H 0.32718 0.45543 0.82326
 H2095 H 0.33592 0.44193 0.84467
 H2096 H 0.30790 0.46661 0.80964
 H2097 H 0.27489 0.44727 0.84699
 H2098 H 0.25557 0.45829 0.83316
 H2099 H 0.24691 0.47182 0.81166
 H2100 H 0.28867 0.47739 0.79590
 C2101 C 0.29377 -0.02918 0.37123
 C2102 C 0.28727 -0.02494 0.35802
 C2103 C 0.27531 -0.03252 0.35308
 C2104 C 0.26988 -0.04400 0.36164
 C2105 C 0.27636 -0.04808 0.37485
 C2106 C 0.28844 -0.04083 0.37968
 C2107 C 0.26908 -0.02859 0.33960
 C2108 C 0.27466 -0.01718 0.33103
 C2109 C 0.28645 -0.00942 0.33618
 C2110 C 0.29266 -0.01333 0.34963
 C2111 C 0.29201 0.00197 0.32767
 C2112 C 0.28622 0.00543 0.31398
 C2113 C 0.27471 -0.00243 0.30849
 C2114 C 0.26885 -0.01361 0.31724
 H2115 H 0.30296 -0.02336 0.37494
 H2116 H 0.26070 -0.04991 0.35805
 H2117 H 0.27207 -0.05714 0.38112
 H2118 H 0.26000 -0.03453 0.33573
 H2119 H 0.30180 -0.00748 0.35346
 H2120 H 0.30102 0.00804 0.33147
 H2121 H 0.29102 0.01405 0.30752
 H2122 H 0.26003 -0.01982 0.31317
 C2123 C -0.04127 -0.03291 -0.11670
 C2124 C -0.03662 -0.02548 -0.10403
 C2125 C -0.04515 -0.01481 -0.09745
 C2126 C -0.05805 -0.01155 -0.10380
 C2127 C -0.06257 -0.01887 -0.11646
 C2128 C -0.05435 -0.02977 -0.12307
 C2129 C -0.04072 -0.00767 -0.08456
 C2130 C -0.02787 -0.01113 -0.07810
 C2131 C -0.01922 -0.02162 -0.08483
 C2132 C -0.02362 -0.02868 -0.09777
 C2133 C -0.00643 -0.02513 -0.07831
 C2134 C -0.00246 -0.01874 -0.06496
 C2135 C -0.01112 -0.00859 -0.05790
 C2136 C -0.02371 -0.00459 -0.06477
 H2137 H -0.03457 -0.04106 -0.12151
 H2138 H -0.06472 -0.00337 -0.09892
 H2139 H -0.07267 -0.01603 -0.12082
 H2140 H -0.04737 0.00039 -0.07943
 H2141 H -0.01702 -0.03683 -0.10282
 H2142 H 0.00036 -0.03309 -0.08334
 H2143 H 0.00729 -0.02203 -0.05997
 H2144 H -0.03058 0.00311 -0.05943
 C2145 C -0.04970 0.44916 0.38593
 C2146 C -0.04123 0.45443 0.39741
 C2147 C -0.03272 0.44457 0.40542
 C2148 C -0.03279 0.42967 0.40181
 C2149 C -0.04112 0.42452 0.39032
 C2150 C -0.04970 0.43414 0.38214
 C2151 C -0.02429 0.44974 0.41692
 C2152 C -0.02426 0.46467 0.42057
 C2153 C -0.03270 0.47459 0.41256
 C2154 C -0.04111 0.46942 0.40100
 C2155 C -0.03273 0.48949 0.41641
 C2156 C -0.02476 0.49444 0.42832
 C2157 C -0.01647 0.48462 0.43649
 C2158 C -0.01613 0.46976 0.43234
 H2159 H -0.05608 0.45690 0.37989
 H2160 H -0.02633 0.42198 0.40785
 H2161 H -0.04080 0.41289 0.38804
 H2162 H -0.01783 0.44213 0.42308
 H2163 H -0.04762 0.47702 0.39488
 H2164 H -0.03913 0.49726 0.41039
 H2165 H -0.02528 0.50592 0.43130
 H2166 H -0.00994 0.46200 0.43862
 C2167 C 0.45178 -0.06369 0.39077
 C2168 C 0.45679 -0.05543 0.40276
 C2169 C 0.44799 -0.04510 0.40957
 C2170 C 0.43439 -0.04328 0.40444
 C2171 C 0.42961 -0.05131 0.39240
 C2172 C 0.43825 -0.06145 0.38537
 C2173 C 0.45294 -0.03663 0.42132
 C2174 C 0.46662 -0.03822 0.42633
 C2175 C 0.47545 -0.04855 0.41963
 C2176 C 0.47048 -0.05712 0.40787
 C2177 C 0.48909 -0.05015 0.42486
 C2178 C 0.49388 -0.04169 0.43669
 C2179 C 0.48515 -0.03138 0.44342
 C2180 C 0.47154 -0.02967 0.43805
 H2181 H 0.45854 -0.07145 0.38535
 H2182 H 0.42751 -0.03549 0.40961
 H2183 H 0.41908 -0.04956 0.38856
 H2184 H 0.44616 -0.02872 0.42651
 H2185 H 0.47726 -0.06501 0.40269
 H2186 H 0.49602 -0.05802 0.41989
 H2187 H 0.50438 -0.04332 0.44065
 H2188 H 0.46460 -0.02191 0.44320
 C2189 C 0.45532 0.44864 -0.10957
 C2190 C 0.46053 0.45588 -0.09703
 C2191 C 0.45296 0.46756 -0.09081
 C2192 C 0.44039 0.47187 -0.09730
 C2193 C 0.43529 0.46464 -0.10976
 C2194 C 0.44266 0.45296 -0.11608
 C2195 C 0.45808 0.47475 -0.07822
 C2196 C 0.47071 0.47044 -0.07177
 C2197 C 0.47836 0.45889 -0.07812
 C2198 C 0.47323 0.45167 -0.09067
 C2199 C 0.49099 0.45464 -0.07173
 C2200 C 0.49588 0.46151 -0.05898
 C2201 C 0.48827 0.47282 -0.05231
 C2202 C 0.47572 0.47735 -0.05894
 H2203 H 0.46124 0.43979 -0.11433
 H2204 H 0.43448 0.48085 -0.09273
 H2205 H 0.42548 0.46819 -0.11437
 H2206 H 0.45221 0.48366 -0.07343
 H2207 H 0.47909 0.44276 -0.09546
 H2208 H 0.49701 0.44582 -0.07646
 H2209 H 0.50551 0.45766 -0.05414
 H2210 H 0.46965 0.48597 -0.05393
 C2211 C 0.46085 0.78796 0.37183
 C2212 C 0.46842 0.78350 0.35955
 C2213 C 0.47640 0.79385 0.35159
 C2214 C 0.47702 0.80845 0.35645
 C2215 C 0.46968 0.81273 0.36898
 C2216 C 0.46139 0.80256 0.37658
 C2217 C 0.48353 0.78941 0.33890
 C2218 C 0.48288 0.77472 0.33426
 C2219 C 0.47526 0.76437 0.34263
 C2220 C 0.46806 0.76882 0.35515
 C2221 C 0.47471 0.74970 0.33823
 C2222 C 0.48117 0.74536 0.32532
 C2223 C 0.48833 0.75558 0.31649
 C2224 C 0.48943 0.77024 0.32122
 H2225 H 0.45466 0.78001 0.37784
 H2226 H 0.48314 0.81654 0.35058
 H2227 H 0.47024 0.82405 0.37255
 H2228 H 0.48944 0.79738 0.33261
 H2229 H 0.46206 0.76088 0.36139
 H2230 H 0.46902 0.74163 0.34460
 H2231 H 0.48024 0.73397 0.32206
 H2232 H 0.49485 0.77824 0.31449
 C2233 C -0.04988 0.79375 0.87435
 C2234 C -0.04225 0.78988 0.86184
 C2235 C -0.03293 0.80012 0.85555
 C2236 C -0.03134 0.81400 0.86191
 C2237 C -0.03887 0.81771 0.87443
 C2238 C -0.04820 0.80766 0.88077
 C2239 C -0.02535 0.79634 0.84301
 C2240 C -0.02693 0.78242 0.83668
 C2241 C -0.03618 0.77214 0.84301
 C2242 C -0.04378 0.77592 0.85555
 C2243 C -0.03777 0.75827 0.83660
 C2244 C -0.03046 0.75470 0.82389
 C2245 C -0.02135 0.76489 0.81738
 C2246 C -0.01954 0.77871 0.82398
 H2247 H -0.05695 0.78585 0.87920
 H2248 H -0.02428 0.82200 0.85722
 H2249 H -0.03748 0.82856 0.87902
 H2250 H -0.01827 0.80424 0.83816
 H2251 H -0.05090 0.76805 0.86037
 H2252 H -0.04479 0.75024 0.84132
 H2253 H -0.03206 0.74396 0.81908
 H2254 H -0.01265 0.78674 0.81904
 C2255 C 0.39455 0.78536 0.30040
 C2256 C 0.40591 0.77900 0.29327
 C2257 C 0.41046 0.78487 0.27968
 C2258 C 0.40359 0.79692 0.27345
 C2259 C 0.39234 0.80319 0.28062
 C2260 C 0.38767 0.79753 0.29416
 C2261 C 0.42189 0.77871 0.27259
 C2262 C 0.42895 0.76684 0.27898
 C2263 C 0.42441 0.76087 0.29251
 C2264 C 0.41286 0.76694 0.29955
 C2265 C 0.43167 0.74910 0.29890
 C2266 C 0.44357 0.74361 0.29217
 C2267 C 0.44834 0.74969 0.27885
 C2268 C 0.44075 0.76113 0.27219
 H2269 H 0.39120 0.78084 0.31084
 H2270 H 0.40697 0.80156 0.26305
 H2271 H 0.38731 0.81247 0.27541
 H2272 H 0.42542 0.78331 0.26222
 H2273 H 0.40940 0.76241 0.30998
 H2274 H 0.42834 0.74438 0.30927
 H2275 H 0.44923 0.73486 0.29761
 H2276 H 0.44428 0.76602 0.26197
 C2277 C -0.11177 0.78994 0.78907
 C2278 C -0.09946 0.78548 0.78220
 C2279 C -0.09152 0.79583 0.77419
 C2280 C -0.09612 0.81034 0.77294
 C2281 C -0.10830 0.81469 0.77986
 C2282 C -0.11618 0.80463 0.78816
 C2283 C -0.07895 0.79163 0.76784
 C2284 C -0.07403 0.77727 0.76966
 C2285 C -0.08204 0.76683 0.77747
 C2286 C -0.09479 0.77095 0.78354
 C2287 C -0.07690 0.75258 0.77955
 C2288 C -0.06365 0.74894 0.77464
 C2289 C -0.05542 0.75938 0.76728
 C2290 C -0.06090 0.77340 0.76440
 H2291 H -0.11766 0.78203 0.79542
 H2292 H -0.09020 0.81839 0.76677
 H2293 H -0.11145 0.82602 0.77867
 H2294 H -0.07278 0.79965 0.76188
 H2295 H -0.10084 0.76299 0.78969
 H2296 H -0.08290 0.74442 0.78548
 H2297 H -0.05966 0.73807 0.77699
 H2298 H -0.05459 0.78163 0.75894
 C2299 C 0.85291 0.29720 0.45086
 C2300 C 0.84048 0.29301 0.45767
 C2301 C 0.83326 0.30318 0.46645
 C2302 C 0.83876 0.31734 0.46839
 C2303 C 0.85117 0.32143 0.46153
 C2304 C 0.85831 0.31147 0.45258
 C2305 C 0.82064 0.29906 0.47297
 C2306 C 0.81511 0.28493 0.47070
 C2307 C 0.82245 0.27477 0.46200
 C2308 C 0.83510 0.27883 0.45563
 C2309 C 0.81687 0.26076 0.45952
 C2310 C 0.80396 0.25694 0.46525
 C2311 C 0.79641 0.26697 0.47374
 C2312 C 0.80220 0.28090 0.47665
 H2313 H 0.85834 0.28926 0.44422
 H2314 H 0.83338 0.32530 0.47509
 H2315 H 0.85503 0.33250 0.46305
 H2316 H 0.81503 0.30690 0.47961
 H2317 H 0.84065 0.27104 0.44888
 H2318 H 0.82238 0.25285 0.45289
 H2319 H 0.79977 0.24617 0.46284
 H2320 H 0.79642 0.28881 0.48303
 C2321 C 0.85377 0.79287 -0.05580
 C2322 C 0.84086 0.78816 -0.05038
 C2323 C 0.83132 0.79867 -0.04516
 C2324 C 0.83451 0.81362 -0.04596
 C2325 C 0.84729 0.81819 -0.05132
 C2326 C 0.85720 0.80791 -0.05591
 C2327 C 0.81882 0.79414 -0.03895
 C2328 C 0.81560 0.77920 -0.03795
 C2329 C 0.82475 0.76859 -0.04365
 C2330 C 0.83742 0.77314 -0.04977
 C2331 C 0.82101 0.75366 -0.04306
 C2332 C 0.80836 0.74936 -0.03680
 C2333 C 0.79958 0.75992 -0.03066
 C2334 C 0.80325 0.77479 -0.03135
 H2335 H 0.86130 0.78484 -0.05935
 H2336 H 0.82722 0.82180 -0.04220
 H2337 H 0.84946 0.82985 -0.05165
 H2338 H 0.81163 0.80224 -0.03475
 H2339 H 0.84461 0.76504 -0.05392
 H2340 H 0.82780 0.74536 -0.04751
 H2341 H 0.80552 0.73785 -0.03656
 H2342 H 0.79626 0.78301 -0.02703
 C2343 C -0.11256 -0.03495 -0.04357
 C2344 C -0.10016 -0.03069 -0.03665
 C2345 C -0.09358 -0.04035 -0.02660
 C2346 C -0.09954 -0.05411 -0.02365
 C2347 C -0.11191 -0.05827 -0.03061
 C2348 C -0.11853 -0.04877 -0.04067
 C2349 C -0.08114 -0.03612 -0.01971
 C2350 C -0.07519 -0.02237 -0.02282
 C2351 C -0.08177 -0.01273 -0.03291
 C2352 C -0.09425 -0.01693 -0.03970
 C2353 C -0.07569 0.00089 -0.03616
 C2354 C -0.06309 0.00489 -0.02963
 C2355 C -0.05642 -0.00459 -0.01961
 C2356 C -0.06263 -0.01818 -0.01616
 H2357 H -0.11756 -0.02739 -0.05114
 H2358 H -0.09462 -0.06166 -0.01599
 H2359 H -0.11618 -0.06901 -0.02821
 H2360 H -0.07605 -0.04354 -0.01202
 H2361 H -0.09929 -0.00954 -0.04745
 H2362 H -0.08060 0.00839 -0.04388
 H2363 H -0.05852 0.01539 -0.03250
 H2364 H -0.05752 -0.02570 -0.00860
 C2365 C -0.11243 0.47215 0.46105
 C2366 C -0.09881 0.47516 0.46582
 C2367 C -0.09181 0.46488 0.47491
 C2368 C -0.09838 0.45178 0.47894
 C2369 C -0.11188 0.44892 0.47425
 C2370 C -0.11911 0.45909 0.46540
 C2371 C -0.07836 0.46784 0.47993
 C2372 C -0.07176 0.48097 0.47603
 C2373 C -0.07858 0.49125 0.46683
 C2374 C -0.09211 0.48830 0.46178
 C2375 C -0.07168 0.50426 0.46281
 C2376 C -0.05814 0.50697 0.46781
 C2377 C -0.05139 0.49682 0.47708
 C2378 C -0.05833 0.48386 0.48115
 H2379 H -0.11789 0.48009 0.45425
 H2380 H -0.09310 0.44375 0.48580
 H2381 H -0.11661 0.43865 0.47754
 H2382 H -0.07304 0.45992 0.48692
 H2383 H -0.09741 0.49619 0.45477
 H2384 H -0.07670 0.51225 0.45571
 H2385 H -0.05297 0.51698 0.46442
 H2386 H -0.05317 0.47577 0.48805
 C2387 C 0.38784 -0.05180 0.45860
 C2388 C 0.40092 -0.04568 0.46199
 C2389 C 0.40688 -0.03525 0.45232
 C2390 C 0.39984 -0.03123 0.43942
 C2391 C 0.38681 -0.03710 0.43628
 C2392 C 0.38045 -0.04731 0.44587
 C2393 C 0.41970 -0.02880 0.45574
 C2394 C 0.42664 -0.03248 0.46884
 C2395 C 0.42083 -0.04300 0.47851
 C2396 C 0.40802 -0.04958 0.47501
 C2397 C 0.42792 -0.04665 0.49157
 C2398 C 0.44056 -0.03987 0.49506
 C2399 C 0.44634 -0.02924 0.48560
 C2400 C 0.43929 -0.02568 0.47244
 H2401 H 0.38328 -0.05961 0.46620
 H2402 H 0.40435 -0.02338 0.43181
 H2403 H 0.38187 -0.03359 0.42615
 H2404 H 0.42418 -0.02076 0.44830
 H2405 H 0.40352 -0.05759 0.48248
 H2406 H 0.42367 -0.05473 0.49910
 H2407 H 0.44576 -0.04292 0.50522
 H2408 H 0.44362 -0.01762 0.46493
 C2409 C 0.39865 0.43999 -0.04994
 C2410 C 0.40996 0.44790 -0.04429
 C2411 C 0.41777 0.45711 -0.05368
 C2412 C 0.41396 0.45844 -0.06853
 C2413 C 0.40241 0.45089 -0.07401
 C2414 C 0.39454 0.44158 -0.06480
 C2415 C 0.42918 0.46493 -0.04805
 C2416 C 0.43275 0.46377 -0.03307
 C2417 C 0.42474 0.45475 -0.02364
 C2418 C 0.41343 0.44688 -0.02930
 C2419 C 0.42829 0.45355 -0.00871
 C2420 C 0.43990 0.46088 -0.00321
 C2421 C 0.44812 0.46967 -0.01250
 C2422 C 0.44434 0.47129 -0.02741
 H2423 H 0.39278 0.43309 -0.04250
 H2424 H 0.41978 0.46548 -0.07588
 H2425 H 0.39981 0.45229 -0.08554
 H2426 H 0.43524 0.47191 -0.05528
 H2427 H 0.40736 0.43989 -0.02206
 H2428 H 0.42223 0.44671 -0.00133
 H2429 H 0.44261 0.45947 0.00831
 H2430 H 0.45071 0.47789 -0.03470
 C2431 C 0.35770 0.44580 0.78950
 C2432 C 0.34554 0.45310 0.78470
 C2433 C 0.34069 0.46537 0.79262
 C2434 C 0.34778 0.46997 0.80526
 C2435 C 0.35970 0.46269 0.80998
 C2436 C 0.36500 0.45068 0.80211
 C2437 C 0.32883 0.47293 0.78783
 C2438 C 0.32154 0.46834 0.77526
 C2439 C 0.32617 0.45596 0.76738
 C2440 C 0.33818 0.44844 0.77210
 C2441 C 0.31864 0.45132 0.75495
 C2442 C 0.30663 0.45878 0.75046
 C2443 C 0.30193 0.47114 0.75821
 C2444 C 0.30959 0.47588 0.77058
 H2445 H 0.36155 0.43655 0.78331
 H2446 H 0.34409 0.47924 0.81156
 H2447 H 0.36471 0.46660 0.81990
 H2448 H 0.32523 0.48238 0.79394
 H2449 H 0.34177 0.43900 0.76599
 H2450 H 0.32197 0.44182 0.74877
 H2451 H 0.30095 0.45476 0.74096
 H2452 H 0.30612 0.48530 0.77679
 C2453 C 0.36184 -0.04860 0.29957
 C2454 C 0.35169 -0.04162 0.29092
 C2455 C 0.34611 -0.04892 0.27850
 C2456 C 0.35081 -0.06298 0.27490
 C2457 C 0.36068 -0.06997 0.28375
 C2458 C 0.36629 -0.06287 0.29614
 C2459 C 0.33574 -0.04218 0.27003
 C2460 C 0.33061 -0.02839 0.27403
 C2461 C 0.33617 -0.02102 0.28639
 C2462 C 0.34684 -0.02760 0.29466
 C2463 C 0.33066 -0.00739 0.29048
 C2464 C 0.31939 -0.00141 0.28274
 C2465 C 0.31361 -0.00887 0.27062
 C2466 C 0.31960 -0.02218 0.26613
 H2467 H 0.36601 -0.04304 0.30915
 H2468 H 0.34673 -0.06862 0.26530
 H2469 H 0.36405 -0.08087 0.28075
 H2470 H 0.33138 -0.04785 0.26058
 H2471 H 0.35108 -0.02200 0.30421
 H2472 H 0.33478 -0.00158 0.29995
 H2473 H 0.31494 0.00878 0.28653
 H2474 H 0.31528 -0.02814 0.25685
 C2475 C 0.13372 0.54525 0.71132
 C2476 C 0.14611 0.53791 0.71485
 C2477 C 0.15041 0.52590 0.70620
 C2478 C 0.14221 0.52137 0.69427
 C2479 C 0.12993 0.52872 0.69083
 C2480 C 0.12555 0.54078 0.69923
 C2481 C 0.16288 0.51869 0.70953
 C2482 C 0.17117 0.52337 0.72138
 C2483 C 0.16682 0.53531 0.73010
 C2484 C 0.15430 0.54247 0.72681
 C2485 C 0.17515 0.54001 0.74187
 C2486 C 0.18779 0.53314 0.74483
 C2487 C 0.19235 0.52137 0.73613
 C2488 C 0.18386 0.51645 0.72449
 H2489 H 0.13049 0.55442 0.71801
 H2490 H 0.14535 0.51220 0.68752
 H2491 H 0.12400 0.52503 0.68139
 H2492 H 0.16620 0.50954 0.70283
 H2493 H 0.15102 0.55167 0.73347
 H2494 H 0.17198 0.54913 0.74867
 H2495 H 0.19408 0.53721 0.75387
 H2496 H 0.18723 0.50745 0.71762
 C2497 C 0.14214 0.03862 0.20671
 C2498 C 0.15563 0.03628 0.21205
 C2499 C 0.16179 0.04660 0.22170
 C2500 C 0.15435 0.05911 0.22580
 C2501 C 0.14079 0.06116 0.22072
 C2502 C 0.13456 0.05090 0.21123
 C2503 C 0.17516 0.04409 0.22733
 C2504 C 0.18230 0.03124 0.22369
 C2505 C 0.17612 0.02094 0.21403
 C2506 C 0.16288 0.02359 0.20817
 C2507 C 0.18322 0.00808 0.21046
 C2508 C 0.19632 0.00538 0.21643
 C2509 C 0.20262 0.01549 0.22609
 C2510 C 0.19551 0.02846 0.22963
 H2511 H 0.13735 0.03055 0.19954
 H2512 H 0.15891 0.06715 0.23315
 H2513 H 0.13515 0.07078 0.22424
 H2514 H 0.17988 0.05200 0.23474
 H2515 H 0.15814 0.01565 0.20081
 H2516 H 0.17864 0.00009 0.20307
 H2517 H 0.20155 -0.00466 0.21340
 H2518 H 0.20026 0.03643 0.23693
 C2519 C 0.61331 0.70828 0.20087
 C2520 C 0.60136 0.71476 0.20652
 C2521 C 0.59138 0.72080 0.19679
 C2522 C 0.59375 0.72056 0.18155
 C2523 C 0.60566 0.71389 0.17599
 C2524 C 0.61538 0.70739 0.18559
 C2525 C 0.57906 0.72661 0.20243
 C2526 C 0.57648 0.72603 0.21763
 C2527 C 0.58657 0.72015 0.22735
 C2528 C 0.59903 0.71476 0.22175
 C2529 C 0.58383 0.71924 0.24248
 C2530 C 0.57094 0.72348 0.24788
 C2531 C 0.56073 0.72907 0.23829
 C2532 C 0.56371 0.73066 0.22321
 H2533 H 0.62085 0.70364 0.20844
 H2534 H 0.58626 0.72520 0.17393
 H2535 H 0.60700 0.71337 0.16417
 H2536 H 0.57130 0.73106 0.19497
 H2537 H 0.60671 0.71010 0.22919
 H2538 H 0.59146 0.71477 0.25006
 H2539 H 0.56887 0.72221 0.25953
 H2540 H 0.55584 0.73479 0.21569
 C2541 C 0.11661 0.71265 0.72104
 C2542 C 0.10467 0.72018 0.72556
 C2543 C 0.09723 0.72890 0.71528
 C2544 C 0.10193 0.73010 0.70076
 C2545 C 0.11391 0.72280 0.69644
 C2546 C 0.12135 0.71399 0.70648
 C2547 C 0.08517 0.73624 0.71963
 C2548 C 0.08043 0.73499 0.73415
 C2549 C 0.08795 0.72646 0.74451
 C2550 C 0.10004 0.71914 0.74016
 C2551 C 0.08306 0.72512 0.75896
 C2552 C 0.07056 0.73166 0.76297
 C2553 C 0.06280 0.73984 0.75266
 C2554 C 0.06802 0.74176 0.73834
 H2555 H 0.12235 0.70599 0.72890
 H2556 H 0.09634 0.73671 0.69274
 H2557 H 0.11726 0.72390 0.68513
 H2558 H 0.07940 0.74277 0.71167
 H2559 H 0.10573 0.71250 0.74808
 H2560 H 0.08870 0.71866 0.76706
 H2561 H 0.06676 0.72996 0.77405
 H2562 H 0.06206 0.74786 0.73020
 C2563 C 0.62944 0.20772 0.53187
 C2564 C 0.64071 0.21291 0.52372
 C2565 C 0.64797 0.20324 0.51442
 C2566 C 0.64356 0.18860 0.51317
 C2567 C 0.63226 0.18352 0.52136
 C2568 C 0.62529 0.19298 0.53096
 C2569 C 0.65968 0.20829 0.50681
 C2570 C 0.66428 0.22282 0.50859
 C2571 C 0.65680 0.23253 0.51769
 C2572 C 0.64498 0.22755 0.52506
 C2573 C 0.66154 0.24694 0.51970
 C2574 C 0.67393 0.25152 0.51332
 C2575 C 0.68166 0.24186 0.50460
 C2576 C 0.67655 0.22765 0.50192
 H2577 H 0.62396 0.21521 0.53900
 H2578 H 0.64897 0.18104 0.50606
 H2579 H 0.62923 0.17210 0.52048
 H2580 H 0.66541 0.20084 0.49984
 H2581 H 0.63937 0.23495 0.53219
 H2582 H 0.65589 0.25451 0.52659
 H2583 H 0.67765 0.26254 0.51549
 H2584 H 0.68251 0.22007 0.49534
 C2585 C 0.63306 0.71361 0.03965
 C2586 C 0.64485 0.71829 0.03190
 C2587 C 0.65051 0.70919 0.02089
 C2588 C 0.64432 0.69562 0.01781
 C2589 C 0.63256 0.69111 0.02549
 C2590 C 0.62679 0.70003 0.03644
 C2591 C 0.66228 0.71375 0.01314
 C2592 C 0.66854 0.72729 0.01628
 C2593 C 0.66293 0.73642 0.02728
 C2594 C 0.65108 0.73189 0.03498
 C2595 C 0.66944 0.74981 0.03056
 C2596 C 0.68158 0.75394 0.02328
 C2597 C 0.68730 0.74486 0.01242
 C2598 C 0.68055 0.73165 0.00882
 H2599 H 0.62866 0.72064 0.04800
 H2600 H 0.64857 0.68849 0.00946
 H2601 H 0.62809 0.68051 0.02290
 H2602 H 0.66664 0.70671 0.00475
 H2603 H 0.64678 0.73888 0.04344
 H2604 H 0.66531 0.75695 0.03897
 H2605 H 0.68662 0.76414 0.02632
 H2606 H 0.68495 0.72443 0.00063
 C2607 C 0.11211 0.04817 0.04931
 C2608 C 0.09915 0.04503 0.04302
 C2609 C 0.09387 0.05400 0.03154
 C2610 C 0.10166 0.06609 0.02666
 C2611 C 0.11471 0.06898 0.03280
 C2612 C 0.12009 0.05998 0.04407
 C2613 C 0.08108 0.05056 0.02495
 C2614 C 0.07362 0.03811 0.02955
 C2615 C 0.07890 0.02923 0.04111
 C2616 C 0.09156 0.03280 0.04783
 C2617 C 0.07150 0.01682 0.04570
 C2618 C 0.05898 0.01315 0.03889
 C2619 C 0.05360 0.02181 0.02732
 C2620 C 0.06101 0.03433 0.02272
 H2621 H 0.11620 0.04106 0.05788
 H2622 H 0.09776 0.07314 0.01792
 H2623 H 0.12062 0.07823 0.02868
 H2624 H 0.07705 0.05740 0.01610
 H2625 H 0.09562 0.02592 0.05664
 H2626 H 0.07539 0.00992 0.05456
 H2627 H 0.05349 0.00349 0.04274
 H2628 H 0.05696 0.04119 0.01390
 C2629 C 0.12536 0.52599 0.52983
 C2630 C 0.11311 0.52191 0.52241
 C2631 C 0.10845 0.53028 0.51019
 C2632 C 0.11632 0.54227 0.50532
 C2633 C 0.12844 0.54628 0.51277
 C2634 C 0.13297 0.53839 0.52526
 C2635 C 0.09581 0.52681 0.50329
 C2636 C 0.08766 0.51518 0.50858
 C2637 C 0.09250 0.50652 0.52051
 C2638 C 0.10525 0.50986 0.52728
 C2639 C 0.08428 0.49496 0.52580
 C2640 C 0.07109 0.49247 0.51984
 C2641 C 0.06589 0.50142 0.50840
 C2642 C 0.07447 0.51249 0.50252
 H2643 H 0.12878 0.51966 0.53930
 H2644 H 0.11293 0.54877 0.49593
 H2645 H 0.13398 0.55589 0.50894
 H2646 H 0.09214 0.53343 0.49410
 H2647 H 0.10883 0.50338 0.53660
 H2648 H 0.08786 0.48814 0.53486
 H2649 H 0.06478 0.48382 0.52457
 H2650 H 0.07065 0.51951 0.49372
 C2651 C 0.60075 0.06303 0.54476
 C2652 C 0.58890 0.05543 0.53973
 C2653 C 0.57875 0.05086 0.54998
 C2654 C 0.58030 0.05440 0.56488
 C2655 C 0.59214 0.06171 0.56980
 C2656 C 0.60262 0.06583 0.55990
 C2657 C 0.56734 0.04254 0.54528
 C2658 C 0.56590 0.03865 0.53045
 C2659 C 0.57569 0.04363 0.52001
 C2660 C 0.58717 0.05198 0.52473
 C2661 C 0.57379 0.04010 0.50507
 C2662 C 0.56236 0.03167 0.50056
 C2663 C 0.55290 0.02631 0.51098
 C2664 C 0.55474 0.02988 0.52590
 H2665 H 0.60875 0.06618 0.53702
 H2666 H 0.57248 0.05126 0.57280
 H2667 H 0.59316 0.06401 0.58145
 H2668 H 0.55969 0.03890 0.55322
 H2669 H 0.59482 0.05562 0.51679
 H2670 H 0.58108 0.04395 0.49687
 H2671 H 0.56095 0.02923 0.48898
 H2672 H 0.54723 0.02614 0.53395
 C2673 C 0.61002 0.54331 0.05450
 C2674 C 0.59794 0.53836 0.04735
 C2675 C 0.58976 0.54833 0.03908
 C2676 C 0.59388 0.56307 0.03803
 C2677 C 0.60604 0.56786 0.04501
 C2678 C 0.61421 0.55806 0.05331
 C2679 C 0.57762 0.54340 0.03198
 C2680 C 0.57360 0.52860 0.03302
 C2681 C 0.58186 0.51864 0.04123
 C2682 C 0.59396 0.52357 0.04832
 C2683 C 0.57779 0.50391 0.04239
 C2684 C 0.56551 0.49910 0.03577
 C2685 C 0.55709 0.50889 0.02771
 C2686 C 0.56132 0.52363 0.02621
 H2687 H 0.61631 0.53559 0.06070
 H2688 H 0.58774 0.57089 0.03177
 H2689 H 0.60898 0.57930 0.04400
 H2690 H 0.57131 0.55107 0.02572
 H2691 H 0.60024 0.51591 0.05464
 H2692 H 0.58401 0.49613 0.04863
 H2693 H 0.56251 0.48771 0.03711
 H2694 H 0.55484 0.53133 0.02019
 C2695 C 0.03911 0.03824 0.12705
 C2696 C 0.03442 0.03283 0.11343
 C2697 C 0.04162 0.02122 0.10663
 C2698 C 0.05327 0.01514 0.11360
 C2699 C 0.05788 0.02059 0.12713
 C2700 C 0.05094 0.03226 0.13398
 C2701 C 0.03714 0.01597 0.09290
 C2702 C 0.02560 0.02224 0.08583
 C2703 C 0.01833 0.03379 0.09266
 C2704 C 0.02276 0.03898 0.10645
 C2705 C 0.00687 0.04008 0.08547
 C2706 C 0.00280 0.03518 0.07151
 C2707 C 0.01007 0.02383 0.06452
 C2708 C 0.02138 0.01731 0.07190
 H2709 H 0.03363 0.04726 0.13206
 H2710 H 0.05887 0.00620 0.10855
 H2711 H 0.06691 0.01561 0.13216
 H2712 H 0.04273 0.00712 0.08765
 H2713 H 0.01723 0.04789 0.11166
 H2714 H 0.00117 0.04893 0.09054
 H2715 H -0.00593 0.04043 0.06611
 H2716 H 0.02718 0.00861 0.06666
 C2717 C 0.04908 0.54191 0.61308
 C2718 C 0.04336 0.53801 0.59939
 C2719 C 0.03711 0.54890 0.59040
 C2720 C 0.03675 0.56348 0.59520
 C2721 C 0.04241 0.56725 0.60884
 C2722 C 0.04856 0.55653 0.61795
 C2723 C 0.03128 0.54507 0.57679
 C2724 C 0.03161 0.53048 0.57202
 C2725 C 0.03790 0.51957 0.58092
 C2726 C 0.04372 0.52340 0.59458
 C2727 C 0.03833 0.50502 0.57594
 C2728 C 0.03269 0.50136 0.56221
 C2729 C 0.02639 0.51215 0.55331
 C2730 C 0.02583 0.52669 0.55838
 H2731 H 0.05370 0.53351 0.62001
 H2732 H 0.03204 0.57196 0.58843
 H2733 H 0.04201 0.57862 0.61219
 H2734 H 0.02648 0.55344 0.56992
 H2735 H 0.04853 0.51503 0.60144
 H2736 H 0.04313 0.49651 0.58260
 H2737 H 0.03330 0.49008 0.55854
 H2738 H 0.02118 0.53517 0.55155
 C2739 C 0.55151 0.05747 0.60428
 C2740 C 0.54508 0.04831 0.59381
 C2741 C 0.55158 0.03509 0.58965
 C2742 C 0.56431 0.03123 0.59598
 C2743 C 0.57066 0.04038 0.60629
 C2744 C 0.56442 0.05366 0.61065
 C2745 C 0.54540 0.02602 0.57906
 C2746 C 0.53281 0.03003 0.57242
 C2747 C 0.52616 0.04315 0.57663
 C2748 C 0.53232 0.05220 0.58735
 C2749 C 0.51361 0.04710 0.56983
 C2750 C 0.50795 0.03841 0.55862
 C2751 C 0.51470 0.02555 0.55405
 C2752 C 0.52700 0.02129 0.56130
 H2753 H 0.54640 0.06756 0.60730
 H2754 H 0.56944 0.02115 0.59287
 H2755 H 0.58051 0.03684 0.61075
 H2756 H 0.55051 0.01597 0.57578
 H2757 H 0.52728 0.06233 0.59049
 H2758 H 0.50835 0.05711 0.57291
 H2759 H 0.49851 0.04203 0.55322
 H2760 H 0.53241 0.01147 0.55791
 C2761 C 0.54408 0.52299 0.12920
 C2762 C 0.53924 0.51605 0.11640
 C2763 C 0.54818 0.50676 0.10845
 C2764 C 0.56169 0.50430 0.11363
 C2765 C 0.56649 0.51142 0.12627
 C2766 C 0.55783 0.52102 0.13402
 C2767 C 0.54363 0.50048 0.09521
 C2768 C 0.53040 0.50369 0.08962
 C2769 C 0.52136 0.51278 0.09769
 C2770 C 0.52577 0.51874 0.11114
 C2771 C 0.50825 0.51620 0.09189
 C2772 C 0.50437 0.51121 0.07793
 C2773 C 0.51344 0.50253 0.06963
 C2774 C 0.52630 0.49847 0.07577
 H2775 H 0.53728 0.53040 0.13497
 H2776 H 0.56865 0.49715 0.10772
 H2777 H 0.57706 0.50951 0.12984
 H2778 H 0.55057 0.49353 0.08900
 H2779 H 0.51891 0.52588 0.11723
 H2780 H 0.50118 0.52311 0.09795
 H2781 H 0.49437 0.51445 0.07350
 H2782 H 0.53345 0.49187 0.06947
 C2783 C 0.19598 0.53938 0.63071
 C2784 C 0.20345 0.53608 0.64365
 C2785 C 0.20629 0.54730 0.65398
 C2786 C 0.20137 0.56151 0.65137
 C2787 C 0.19393 0.56469 0.63853
 C2788 C 0.19132 0.55376 0.62795
 C2789 C 0.21393 0.54415 0.66679
 C2790 C 0.21854 0.52983 0.66958
 C2791 C 0.21553 0.51853 0.65939
 C2792 C 0.20816 0.52176 0.64640
 C2793 C 0.21962 0.50409 0.66256
 C2794 C 0.22621 0.50080 0.67591
 C2795 C 0.22925 0.51197 0.68602
 C2796 C 0.22567 0.52651 0.68270
 H2797 H 0.19410 0.53083 0.62269
 H2798 H 0.20331 0.57020 0.65924
 H2799 H 0.19029 0.57581 0.63689
 H2800 H 0.21611 0.55278 0.67468
 H2801 H 0.20590 0.51311 0.63856
 H2802 H 0.21733 0.49527 0.65493
 H2803 H 0.22876 0.48949 0.67849
 H2804 H 0.22771 0.53507 0.69072
 C2805 C 0.21517 0.03110 0.12483
 C2806 C 0.21969 0.02435 0.13793
 C2807 C 0.20995 0.01763 0.14739
 C2808 C 0.19590 0.01741 0.14337
 C2809 C 0.19146 0.02427 0.13038
 C2810 C 0.20099 0.03143 0.12111
 C2811 C 0.21434 0.01166 0.16091
 C2812 C 0.22831 0.01266 0.16523
 C2813 C 0.23809 0.01910 0.15560
 C2814 C 0.23376 0.02470 0.14192
 C2815 C 0.25197 0.02040 0.16007
 C2816 C 0.25599 0.01612 0.17425
 C2817 C 0.24627 0.01016 0.18409
 C2818 C 0.23252 0.00799 0.17932
 H2819 H 0.22270 0.03633 0.11772
 H2820 H 0.18829 0.01226 0.15046
 H2821 H 0.18048 0.02430 0.12786
 H2822 H 0.20682 0.00673 0.16829
 H2823 H 0.24124 0.02985 0.13466
 H2824 H 0.25961 0.02526 0.15282
 H2825 H 0.26665 0.01784 0.17768
 H2826 H 0.22490 0.00359 0.18690
 C2827 C 0.68681 0.20033 0.59747
 C2828 C 0.69467 0.20539 0.58550
 C2829 C 0.70015 0.19523 0.57537
 C2830 C 0.69767 0.18020 0.57741
 C2831 C 0.68989 0.17524 0.58939
 C2832 C 0.68437 0.18523 0.59954
 C2833 C 0.70794 0.20027 0.56334
 C2834 C 0.71019 0.21537 0.56122
 C2835 C 0.70469 0.22552 0.57136
 C2836 C 0.69706 0.22046 0.58348
 C2837 C 0.70665 0.24060 0.56905
 C2838 C 0.71365 0.24563 0.55658
 C2839 C 0.71907 0.23568 0.54636
 C2840 C 0.71753 0.22051 0.54890
 H2841 H 0.68275 0.20818 0.60525
 H2842 H 0.70171 0.17227 0.56972
 H2843 H 0.68810 0.16356 0.59059
 H2844 H 0.71210 0.19248 0.55555
 H2845 H 0.69282 0.22827 0.59123
 H2846 H 0.70250 0.24853 0.57670
 H2847 H 0.71469 0.25735 0.55482
 H2848 H 0.72148 0.21276 0.54094
 C2849 C 0.69241 0.69946 0.09912
 C2850 C 0.70062 0.70442 0.08743
 C2851 C 0.70709 0.69416 0.07808
 C2852 C 0.70541 0.67909 0.08079
 C2853 C 0.69748 0.67425 0.09272
 C2854 C 0.69085 0.68439 0.10188
 C2855 C 0.71521 0.69916 0.06629
 C2856 C 0.71698 0.71427 0.06381
 C2857 C 0.71069 0.72448 0.07336
 C2858 C 0.70254 0.71949 0.08508
 C2859 C 0.71243 0.73955 0.07089
 C2860 C 0.71986 0.74451 0.05872
 C2861 C 0.72579 0.73451 0.04885
 C2862 C 0.72459 0.71936 0.05167
 H2863 H 0.68757 0.70737 0.10632
 H2864 H 0.71032 0.67107 0.07380
 H2865 H 0.69644 0.66257 0.09474
 H2866 H 0.72008 0.69130 0.05904
 H2867 H 0.69764 0.72734 0.09232
 H2868 H 0.70776 0.74750 0.07817
 H2869 H 0.72064 0.75623 0.05681
 H2870 H 0.72899 0.71152 0.04407
 C2871 C 0.54486 0.69984 0.13617
 C2872 C 0.54067 0.70640 0.14941
 C2873 C 0.54920 0.71711 0.15617
 C2874 C 0.56167 0.72122 0.14946
 C2875 C 0.56573 0.71471 0.13626
 C2876 C 0.55742 0.70392 0.12949
 C2877 C 0.54516 0.72350 0.16953
 C2878 C 0.53268 0.71930 0.17625
 C2879 C 0.52408 0.70872 0.16936
 C2880 C 0.52811 0.70236 0.15600
 C2881 C 0.51165 0.70448 0.17606
 C2882 C 0.50792 0.71034 0.18965
 C2883 C 0.51646 0.72067 0.19679
 C2884 C 0.52877 0.72529 0.18987
 H2885 H 0.53826 0.69167 0.13103
 H2886 H 0.56831 0.72947 0.15441
 H2887 H 0.57550 0.71804 0.13148
 H2888 H 0.55177 0.73163 0.17475
 H2889 H 0.52152 0.69418 0.15082
 H2890 H 0.50491 0.69643 0.17092
 H2891 H 0.49837 0.70662 0.19467
 H2892 H 0.53553 0.73314 0.19529
 C2893 C 0.05911 0.70640 0.64898
 C2894 C 0.05186 0.71078 0.66163
 C2895 C 0.04095 0.70192 0.66706
 C2896 C 0.03759 0.68879 0.65991
 C2897 C 0.04476 0.68457 0.64732
 C2898 C 0.05548 0.69336 0.64160
 C2899 C 0.03345 0.70637 0.67944
 C2900 C 0.03664 0.71964 0.68648
 C2901 C 0.04763 0.72847 0.68119
 C2902 C 0.05519 0.72398 0.66882
 C2903 C 0.05081 0.74168 0.68835
 C2904 C 0.04319 0.74613 0.70059
 C2905 C 0.03218 0.73748 0.70594
 C2906 C 0.02900 0.72420 0.69875
 H2907 H 0.06731 0.71333 0.64470
 H2908 H 0.02932 0.68182 0.66397
 H2909 H 0.04186 0.67435 0.64210
 H2910 H 0.02504 0.69957 0.68351
 H2911 H 0.06357 0.73080 0.66473
 H2912 H 0.05924 0.74857 0.68450
 H2913 H 0.04600 0.75633 0.70593
 H2914 H 0.02064 0.71731 0.70275
 C2915 C 0.54804 0.61880 0.21940
 C2916 C 0.54072 0.63149 0.22315
 C2917 C 0.53020 0.63687 0.21364
 C2918 C 0.52702 0.62923 0.20067
 C2919 C 0.53436 0.61657 0.19703
 C2920 C 0.54504 0.61133 0.20627
 C2921 C 0.52321 0.64987 0.21715
 C2922 C 0.52671 0.65762 0.22998
 C2923 C 0.53706 0.65204 0.23959
 C2924 C 0.54393 0.63899 0.23616
 C2925 C 0.54064 0.65976 0.25234
 C2926 C 0.53437 0.67316 0.25535
 C2927 C 0.52432 0.67908 0.24573
 C2928 C 0.52031 0.67107 0.23318
 H2929 H 0.55610 0.61478 0.22673
 H2930 H 0.51898 0.63316 0.19326
 H2931 H 0.53186 0.61107 0.18680
 H2932 H 0.51524 0.65409 0.20978
 H2933 H 0.55197 0.63483 0.24347
 H2934 H 0.54850 0.65560 0.25985
 H2935 H 0.53759 0.67901 0.26517
 H2936 H 0.51261 0.67552 0.22565
 C2937 C 0.05940 0.64170 0.71497
 C2938 C 0.05348 0.65499 0.71956
 C2939 C 0.04774 0.66469 0.70893
 C2940 C 0.04832 0.66120 0.69395
 C2941 C 0.05389 0.64785 0.68955
 C2942 C 0.05919 0.63788 0.69999
 C2943 C 0.04106 0.67751 0.71341
 C2944 C 0.03980 0.68068 0.72841
 C2945 C 0.04581 0.67128 0.73910
 C2946 C 0.05270 0.65850 0.73460
 C2947 C 0.04464 0.67475 0.75410
 C2948 C 0.03739 0.68730 0.75843
 C2949 C 0.03106 0.69641 0.74784
 C2950 C 0.03243 0.69307 0.73284
 H2951 H 0.06341 0.63399 0.72307
 H2952 H 0.04407 0.66857 0.68569
 H2953 H 0.05380 0.64518 0.67793
 H2954 H 0.03652 0.68481 0.70524
 H2955 H 0.05713 0.65114 0.74278
 H2956 H 0.04925 0.66775 0.76246
 H2957 H 0.03658 0.68978 0.77005
 H2958 H 0.02786 0.70022 0.72456
 C2959 C 0.05170 0.11957 0.05128
 C2960 C 0.04647 0.10703 0.04419
 C2961 C 0.05565 0.09742 0.03695
 C2962 C 0.06989 0.10050 0.03697
 C2963 C 0.07501 0.11299 0.04406
 C2964 C 0.06600 0.12268 0.05129
 C2965 C 0.05048 0.08487 0.02988
 C2966 C 0.03623 0.08174 0.03003
 C2967 C 0.02704 0.09131 0.03732
 C2968 C 0.03221 0.10393 0.04428
 C2969 C 0.01284 0.08798 0.03769
 C2970 C 0.00780 0.07518 0.03110
 C2971 C 0.01683 0.06559 0.02382
 C2972 C 0.03105 0.06905 0.02321
 H2973 H 0.04457 0.12692 0.05668
 H2974 H 0.07709 0.09322 0.03154
 H2975 H 0.08607 0.11493 0.04394
 H2976 H 0.05754 0.07749 0.02436
 H2977 H 0.02516 0.11126 0.04988
 H2978 H 0.00566 0.09516 0.04326
 H2979 H -0.00317 0.07274 0.03177
 H2980 H 0.03816 0.06164 0.01782
 C2981 C 0.06132 0.61122 0.54204
 C2982 C 0.05467 0.59828 0.53711
 C2983 C 0.04511 0.59104 0.54643
 C2984 C 0.04251 0.59658 0.56048
 C2985 C 0.04903 0.60938 0.56522
 C2986 C 0.05834 0.61699 0.55605
 C2987 C 0.03814 0.57844 0.54158
 C2988 C 0.04050 0.57290 0.52746
 C2989 C 0.05019 0.57986 0.51812
 C2990 C 0.05722 0.59255 0.52299
 C2991 C 0.05260 0.57399 0.50407
 C2992 C 0.04544 0.56140 0.49935
 C2993 C 0.03561 0.55459 0.50851
 C2994 C 0.03327 0.56045 0.52259
 H2995 H 0.06847 0.61695 0.53486
 H2996 H 0.03530 0.59108 0.56778
 H2997 H 0.04674 0.61329 0.57617
 H2998 H 0.03076 0.57301 0.54876
 H2999 H 0.06458 0.59799 0.51580
 H3000 H 0.06003 0.57910 0.49675
 H3001 H 0.04753 0.55706 0.48850
 H3002 H 0.02593 0.55519 0.52993
 C3003 C 0.53867 0.11505 0.53720
 C3004 C 0.53036 0.10314 0.53292
 C3005 C 0.52384 0.09439 0.54379
 C3006 C 0.52559 0.09782 0.55871
 C3007 C 0.53390 0.10968 0.56288
 C3008 C 0.54061 0.11833 0.55219
 C3009 C 0.51596 0.08216 0.53960
 C3010 C 0.51482 0.07833 0.52470
 C3011 C 0.52118 0.08716 0.51380
 C3012 C 0.52874 0.09965 0.51797
 C3013 C 0.52042 0.08294 0.49897
 C3014 C 0.51420 0.06963 0.49510
 C3015 C 0.50827 0.06057 0.50594
 C3016 C 0.50812 0.06531 0.52064
 H3017 H 0.54364 0.12172 0.52884
 H3018 H 0.52070 0.09120 0.56718
 H3019 H 0.53526 0.11187 0.57450
 H3020 H 0.51113 0.07533 0.54795
 H3021 H 0.53377 0.10633 0.50963
 H3022 H 0.52523 0.08958 0.49047
 H3023 H 0.51448 0.06613 0.48371
 H3024 H 0.50381 0.05826 0.52913
 C3025 C 0.53998 0.61085 0.05032
 C3026 C 0.53618 0.59727 0.04408
 C3027 C 0.54520 0.59038 0.03401
 C3028 C 0.55777 0.59710 0.03032
 C3029 C 0.56130 0.61069 0.03629
 C3030 C 0.55246 0.61772 0.04626
 C3031 C 0.54147 0.57693 0.02765
 C3032 C 0.52877 0.57030 0.03107
 C3033 C 0.51969 0.57715 0.04107
 C3034 C 0.52347 0.59058 0.04755
 C3035 C 0.50702 0.57040 0.04446
 C3036 C 0.50346 0.55689 0.03819
 C3037 C 0.51246 0.54992 0.02830
 C3038 C 0.52507 0.55682 0.02471
 H3039 H 0.53308 0.61625 0.05794
 H3040 H 0.56481 0.59194 0.02268
 H3041 H 0.57105 0.61567 0.03315
 H3042 H 0.54844 0.57166 0.01999
 H3043 H 0.51651 0.59584 0.05523
 H3044 H 0.49991 0.57548 0.05209
 H3045 H 0.49370 0.55184 0.04119
 H3046 H 0.53221 0.55153 0.01725
 C3047 C 0.68934 0.14378 0.54116
 C3048 C 0.69746 0.15483 0.53454
 C3049 C 0.71053 0.15849 0.54066
 C3050 C 0.71537 0.15090 0.55310
 C3051 C 0.70724 0.14001 0.55965
 C3052 C 0.69410 0.13637 0.55386
 C3053 C 0.71849 0.16980 0.53440
 C3054 C 0.71353 0.17760 0.52210
 C3055 C 0.70061 0.17373 0.51575
 C3056 C 0.69266 0.16238 0.52199
 C3057 C 0.69573 0.18147 0.50339
 C3058 C 0.70335 0.19322 0.49766
 C3059 C 0.71601 0.19755 0.50417
 C3060 C 0.72115 0.18944 0.51627
 H3061 H 0.67926 0.14117 0.53653
 H3062 H 0.72539 0.15351 0.55791
 H3063 H 0.71137 0.13443 0.56925
 H3064 H 0.72842 0.17271 0.53927
 H3065 H 0.68267 0.15956 0.51720
 H3066 H 0.68588 0.17863 0.49834
 H3067 H 0.69908 0.19919 0.48835
 H3068 H 0.73085 0.19260 0.52146
 C3069 C 0.69317 0.64229 0.04364
 C3070 C 0.70041 0.65402 0.03706
 C3071 C 0.71391 0.65756 0.04209
 C3072 C 0.71991 0.64943 0.05358
 C3073 C 0.71266 0.63784 0.06007
 C3074 C 0.69926 0.63404 0.05516
 C3075 C 0.72124 0.66915 0.03555
 C3076 C 0.71525 0.67734 0.02406
 C3077 C 0.70176 0.67390 0.01899
 C3078 C 0.69441 0.66223 0.02552
 C3079 C 0.69585 0.68226 0.00754
 C3080 C 0.70317 0.69405 0.00133
 C3081 C 0.71656 0.69766 0.00641
 C3082 C 0.72254 0.68907 0.01772
 H3083 H 0.68283 0.63964 0.03976
 H3084 H 0.73024 0.65203 0.05757
 H3085 H 0.71774 0.63174 0.06880
 H3086 H 0.73158 0.67185 0.03947
 H3087 H 0.68405 0.65957 0.02164
 H3088 H 0.68550 0.67982 0.00352
 H3089 H 0.69823 0.70050 -0.00726
 H3090 H 0.73281 0.69171 0.02189
 C3091 C 0.20784 0.61791 0.70675
 C3092 C 0.21280 0.60502 0.71360
 C3093 C 0.20540 0.59879 0.72550
 C3094 C 0.19330 0.60559 0.73044
 C3095 C 0.18848 0.61838 0.72363
 C3096 C 0.19560 0.62468 0.71167
 C3097 C 0.21010 0.58577 0.73217
 C3098 C 0.22211 0.57882 0.72708
 C3099 C 0.22963 0.58512 0.71531
 C3100 C 0.22496 0.59820 0.70868
 C3101 C 0.24154 0.57804 0.71018
 C3102 C 0.24574 0.56465 0.71634
 C3103 C 0.23820 0.55810 0.72786
 C3104 C 0.22650 0.56546 0.73334
 H3105 H 0.21355 0.62266 0.69765
 H3106 H 0.18749 0.60095 0.73953
 H3107 H 0.17898 0.62318 0.72763
 H3108 H 0.20432 0.58095 0.74120
 H3109 H 0.23069 0.60296 0.69957
 H3110 H 0.24745 0.58271 0.70118
 H3111 H 0.25476 0.55927 0.71184
 H3112 H 0.22045 0.56052 0.74211
 C3113 C 0.20841 0.11596 0.19459
 C3114 C 0.21362 0.10298 0.20097
 C3115 C 0.20471 0.09386 0.20931
 C3116 C 0.19076 0.09767 0.21092
 C3117 C 0.18570 0.11058 0.20461
 C3118 C 0.19445 0.11995 0.19654
 C3119 C 0.20986 0.08112 0.21603
 C3120 C 0.22384 0.07734 0.21455
 C3121 C 0.23277 0.08623 0.20603
 C3122 C 0.22761 0.09904 0.19929
 C3123 C 0.24671 0.08211 0.20442
 C3124 C 0.25172 0.06933 0.21125
 C3125 C 0.24293 0.06062 0.21996
 C3126 C 0.22898 0.06472 0.22150
 H3127 H 0.21531 0.12306 0.18843
 H3128 H 0.18378 0.09072 0.21717
 H3129 H 0.17486 0.11316 0.20610
 H3130 H 0.20300 0.07420 0.22249
 H3131 H 0.23447 0.10595 0.19284
 H3132 H 0.25371 0.08874 0.19787
 H3133 H 0.26248 0.06633 0.20982
 H3134 H 0.22199 0.05794 0.22794
 C3135 C 0.68738 1.10928 0.69849
 C3136 C 0.69601 1.09791 0.70377
 C3137 C 0.69909 1.08588 0.69455
 C3138 C 0.69340 1.08533 0.68033
 C3139 C 0.68500 1.09669 0.67512
 C3140 C 0.68200 1.10884 0.68405
 C3141 C 0.70777 1.07457 0.69965
 C3142 C 0.71336 1.07502 0.71395
 C3143 C 0.71012 1.08690 0.72330
 C3144 C 0.70156 1.09831 0.71811
 C3145 C 0.71526 1.08700 0.73780
 C3146 C 0.72325 1.07530 0.74311
 C3147 C 0.72663 1.06355 0.73388
 C3148 C 0.72181 1.06356 0.71923
 H3149 H 0.68516 1.11860 0.70545
 H3150 H 0.69555 1.07617 0.67317
 H3151 H 0.68087 1.09599 0.66403
 H3152 H 0.71009 1.06537 0.69254
 H3153 H 0.69911 1.10742 0.72528
 H3154 H 0.71278 1.09594 0.74516
 H3155 H 0.72663 1.07529 0.75452
 H3156 H 0.72400 1.05425 0.71222
 C3157 C 0.70837 0.62330 0.20270
 C3158 C 0.71538 0.61405 0.21262
 C3159 C 0.70841 0.60860 0.22517
 C3160 C 0.69465 0.61268 0.22773
 C3161 C 0.68776 0.62190 0.21783
 C3162 C 0.69449 0.62719 0.20517
 C3163 C 0.71517 0.59889 0.23479
 C3164 C 0.72870 0.59428 0.23182
 C3165 C 0.73581 0.59991 0.21944
 C3166 C 0.72915 0.60992 0.21000
 C3167 C 0.74922 0.59492 0.21637
 C3168 C 0.75516 0.58376 0.22491
 C3169 C 0.74790 0.57765 0.23686
 C3170 C 0.73491 0.58345 0.24060
 H3171 H 0.71373 0.62747 0.19309
 H3172 H 0.68916 0.60858 0.23730
 H3173 H 0.67705 0.62465 0.21996
 H3174 H 0.70973 0.59452 0.24428
 H3175 H 0.73451 0.61410 0.20038
 H3176 H 0.75484 0.59916 0.20696
 H3177 H 0.76518 0.57949 0.22180
 H3178 H 0.72912 0.57878 0.24970
 C3179 C 0.54918 0.14435 0.68716
 C3180 C 0.54235 0.15462 0.69607
 C3181 C 0.55014 0.16351 0.70583
 C3182 C 0.56455 0.16215 0.70644
 C3183 C 0.57125 0.15196 0.69762
 C3184 C 0.56374 0.14279 0.68790
 C3185 C 0.54346 0.17376 0.71474
 C3186 C 0.52906 0.17549 0.71385
 C3187 C 0.52119 0.16673 0.70404
 C3188 C 0.52787 0.15621 0.69533
 C3189 C 0.50684 0.16901 0.70279
 C3190 C 0.50049 0.18028 0.71069
 C3191 C 0.50831 0.18911 0.72032
 C3192 C 0.52253 0.18634 0.72215
 H3193 H 0.54307 0.13756 0.67981
 H3194 H 0.57067 0.16900 0.71375
 H3195 H 0.58241 0.15147 0.69851
 H3196 H 0.54950 0.18060 0.72215
 H3197 H 0.52184 0.14950 0.68778
 H3198 H 0.50063 0.16246 0.69529
 H3199 H 0.48954 0.18238 0.70898
 H3200 H 0.52872 0.19336 0.72924
 C3201 C 1.02888 0.11028 0.22252
 C3202 C 1.02399 0.12309 0.22917
 C3203 C 1.02900 0.12714 0.24325
 C3204 C 1.03836 0.11797 0.25069
 C3205 C 1.04328 0.10530 0.24393
 C3206 C 1.03894 0.10154 0.22959
 C3207 C 1.02496 0.14052 0.24944
 C3208 C 1.01615 0.15000 0.24159
 C3209 C 1.01075 0.14570 0.22774
 C3210 C 1.01460 0.13222 0.22168
 C3211 C 1.00193 0.15519 0.21994
 C3212 C 0.99894 0.16906 0.22551
 C3213 C 1.00469 0.17370 0.23900
 C3214 C 1.01304 0.16394 0.24715
 H3215 H 1.02524 0.10755 0.21157
 H3216 H 1.04218 0.12081 0.26157
 H3217 H 1.05078 0.09870 0.24987
 H3218 H 1.02903 0.14376 0.26012
 H3219 H 1.01068 0.12907 0.21091
 H3220 H 0.99764 0.15203 0.20935
 H3221 H 0.99244 0.17631 0.21899
 H3222 H 1.01746 0.16732 0.25762
 C3223 C 0.20223 0.63286 0.53047
 C3224 C 0.21007 0.64539 0.52693
 C3225 C 0.21839 0.65210 0.53792
 C3226 C 0.21871 0.64625 0.55220
 C3227 C 0.21071 0.63399 0.55568
 C3228 C 0.20236 0.62723 0.54492
 C3229 C 0.22607 0.66471 0.53459
 C3230 C 0.22529 0.67098 0.52050
 C3231 C 0.21693 0.66442 0.50948
 C3232 C 0.20951 0.65153 0.51271
 C3233 C 0.21587 0.67113 0.49557
 C3234 C 0.22269 0.68443 0.49277
 C3235 C 0.23094 0.69101 0.50374
 C3236 C 0.23238 0.68404 0.51749
 H3237 H 0.19575 0.62775 0.52213
 H3238 H 0.22504 0.65126 0.56072
 H3239 H 0.21119 0.62972 0.56682
 H3240 H 0.23239 0.66985 0.54306
 H3241 H 0.20306 0.64650 0.50429
 H3242 H 0.20948 0.66631 0.48699
 H3243 H 0.22138 0.68966 0.48211
 H3244 H 0.23849 0.68916 0.52614
 C3245 C 0.22717 0.11895 1.04090
 C3246 C 0.23326 0.13112 1.03390
 C3247 C 0.23120 0.13329 1.01860
 C3248 C 0.22353 0.12303 1.01048
 C3249 C 0.21739 0.11107 1.01754
 C3250 C 0.21886 0.10909 1.03284
 C3251 C 0.23643 0.14591 1.01173
 C3252 C 0.24348 0.15655 1.02000
 C3253 C 0.24596 0.15422 1.03520
 C3254 C 0.24092 0.14145 1.04205
 C3255 C 0.25305 0.16495 1.04337
 C3256 C 0.25714 0.17811 1.03667
 C3257 C 0.25419 0.18074 1.02170
 C3258 C 0.24765 0.16973 1.01337
 H3259 H 0.22838 0.11761 1.05270
 H3260 H 0.22197 0.12446 0.99872
 H3261 H 0.21128 0.10350 1.01100
 H3262 H 0.23461 0.14769 1.00004
 H3263 H 0.24257 0.13978 1.05377
 H3264 H 0.25510 0.16334 1.05502
 H3265 H 0.26214 0.18645 1.04333
 H3266 H 0.24544 0.17158 1.00178
 C3267 C 0.20456 0.69879 0.61393
 C3268 C 0.20872 0.70522 0.60051
 C3269 C 0.20116 0.71720 0.59462
 C3270 C 0.18946 0.72235 0.60198
 C3271 C 0.18551 0.71604 0.61532
 C3272 C 0.19311 0.70440 0.62159
 C3273 C 0.20554 0.72408 0.58161
 C3274 C 0.21747 0.71926 0.57442
 C3275 C 0.22492 0.70711 0.58007
 C3276 C 0.22048 0.70012 0.59306
 C3277 C 0.23680 0.70229 0.57270
 C3278 C 0.24135 0.70957 0.56000
 C3279 C 0.23416 0.72186 0.55446
 C3280 C 0.22214 0.72655 0.56173
 H3281 H 0.21050 0.68982 0.61864
 H3282 H 0.18348 0.73143 0.59754
 H3283 H 0.17646 0.72038 0.62076
 H3284 H 0.19979 0.73338 0.57725
 H3285 H 0.22628 0.69090 0.59749
 H3286 H 0.24261 0.69295 0.57680
 H3287 H 0.25058 0.70562 0.55459
 H3288 H 0.21637 0.73589 0.55754
 C3289 C 0.20994 0.20282 1.11095
 C3290 C 0.21556 0.20912 1.09815
 C3291 C 0.20678 0.21655 1.08807
 C3292 C 0.19256 0.21752 1.09090
 C3293 C 0.18707 0.21129 1.10367
 C3294 C 0.19568 0.20394 1.11385
 C3295 C 0.21232 0.22289 1.07530
 C3296 C 0.22653 0.22182 1.07241
 C3297 C 0.23535 0.21436 1.08243
 C3298 C 0.22982 0.20812 1.09529
 C3299 C 0.24951 0.21307 1.07927
 C3300 C 0.25482 0.21881 1.06614
 C3301 C 0.24610 0.22616 1.05607
 C3302 C 0.23199 0.22781 1.05944
 H3303 H 0.21673 0.19729 1.11873
 H3304 H 0.18569 0.22311 1.08325
 H3305 H 0.17603 0.21217 1.10549
 H3306 H 0.20556 0.22855 1.06757
 H3307 H 0.23657 0.20238 1.10298
 H3308 H 0.25642 0.20736 1.08680
 H3309 H 0.26571 0.21730 1.06376
 H3310 H 0.22509 0.23323 1.05168
 C3311 C 0.70777 0.55094 0.14220
 C3312 C 0.71320 0.54466 0.15518
 C3313 C 0.70463 0.53583 0.16419
 C3314 C 0.69086 0.53320 0.15987
 C3315 C 0.68553 0.53950 0.14693
 C3316 C 0.69387 0.54854 0.13801
 C3317 C 0.70995 0.52991 0.17741
 C3318 C 0.72371 0.53277 0.18174
 C3319 C 0.73232 0.54137 0.17253
 C3320 C 0.72703 0.54721 0.15931
 C3321 C 0.74603 0.54425 0.17681
 C3322 C 0.75109 0.53911 0.19033
 C3323 C 0.74258 0.53087 0.19983
 C3324 C 0.72893 0.52749 0.19528
 H3325 H 0.71444 0.55766 0.13537
 H3326 H 0.68417 0.52635 0.16656
 H3327 H 0.67480 0.53745 0.14404
 H3328 H 0.70332 0.52327 0.18440
 H3329 H 0.73363 0.55392 0.15236
 H3330 H 0.75278 0.55076 0.16985
 H3331 H 0.76163 0.54188 0.19347
 H3332 H 0.72220 0.52124 0.20250
 C3333 C 0.69492 1.05869 0.64572
 C3334 C 0.70047 1.05034 0.65738
 C3335 C 0.69148 1.04263 0.66694
 C3336 C 0.67711 1.04339 0.66466
 C3337 C 0.67168 1.05168 0.65301
 C3338 C 0.68050 1.05934 0.64339
 C3339 C 0.69697 1.03426 0.67858
 C3340 C 0.71136 1.03355 0.68084
 C3341 C 0.72036 1.04134 0.67134
 C3342 C 0.71486 1.04964 0.65964
 C3343 C 0.73471 1.04092 0.67388
 C3344 C 0.74008 1.03320 0.68596
 C3345 C 0.73122 1.02549 0.69549
 C3346 C 0.71687 1.02551 0.69271
 H3347 H 0.70187 1.06442 0.63833
 H3348 H 0.67008 1.03749 0.67180
 H3349 H 0.66054 1.05210 0.65156
 H3350 H 0.69007 1.02835 0.68591
 H3351 H 0.72176 1.05563 0.65237
 H3352 H 0.74175 1.04687 0.66675
 H3353 H 0.75115 1.03346 0.68802
 H3354 H 0.70992 1.01992 0.70024
 C3355 C 0.54936 0.20567 0.63024
 C3356 C 0.54418 0.21385 0.64195
 C3357 C 0.55344 0.22050 0.65208
 C3358 C 0.56779 0.21931 0.64986
 C3359 C 0.57288 0.21132 0.63793
 C3360 C 0.56368 0.20422 0.62826
 C3361 C 0.54816 0.22798 0.66431
 C3362 C 0.53377 0.22884 0.66647
 C3363 C 0.52460 0.22263 0.65595
 C3364 C 0.52987 0.21524 0.64376
 C3365 C 0.51027 0.22340 0.65805
 C3366 C 0.50502 0.22952 0.67087
 C3367 C 0.51400 0.23514 0.68173
 C3368 C 0.52837 0.23524 0.67925
 H3369 H 0.54223 0.20046 0.62258
 H3370 H 0.57504 0.22444 0.65739
 H3371 H 0.58398 0.21036 0.63645
 H3372 H 0.55523 0.23281 0.67228
 H3373 H 0.52281 0.21023 0.63588
 H3374 H 0.50313 0.21879 0.65004
 H3375 H 0.49391 0.22942 0.67253
 H3376 H 0.53537 0.23942 0.68765
 C3377 C 1.04667 0.20266 0.13960
 C3378 C 1.04102 0.20843 0.15259
 C3379 C 1.04890 0.21842 0.16112
 C3380 C 1.06219 0.22253 0.15653
 C3381 C 1.06770 0.21679 0.14361
 C3382 C 1.06005 0.20679 0.13501
 C3383 C 1.04344 0.22409 0.17417
 C3384 C 1.03020 0.21986 0.17888
 C3385 C 1.02223 0.20997 0.17035
 C3386 C 1.02767 0.20435 0.15721
 C3387 C 1.00905 0.20569 0.17526
 C3388 C 1.00397 0.21085 0.18869
 C3389 C 1.01192 0.22052 0.19737
 C3390 C 1.02496 0.22515 0.19219
 H3391 H 1.04059 0.19506 0.13304
 H3392 H 1.06835 0.23018 0.16294
 H3393 H 1.07806 0.22008 0.14050
 H3394 H 1.04956 0.23166 0.18074
 H3395 H 1.02159 0.19670 0.15069
 H3396 H 1.00278 0.19813 0.16887
 H3397 H 0.99393 0.20705 0.19240
 H3398 H 1.03131 0.23249 0.19877
 C3399 C 0.60219 0.19815 0.69890
 C3400 C 0.59094 0.20645 0.70419
 C3401 C 0.58650 0.21905 0.69633
 C3402 C 0.59347 0.22329 0.68354
 C3403 C 0.60457 0.21505 0.67837
 C3404 C 0.60909 0.20232 0.68586
 C3405 C 0.57512 0.22720 0.70129
 C3406 C 0.56805 0.22297 0.71407
 C3407 C 0.57260 0.21055 0.72214
 C3408 C 0.58400 0.20236 0.71716
 C3409 C 0.56552 0.20639 0.73494
 C3410 C 0.55377 0.21410 0.73941
 C3411 C 0.54883 0.22622 0.73124
 C3412 C 0.55627 0.23076 0.71870
 H3413 H 0.60548 0.18846 0.70492
 H3414 H 0.59032 0.23302 0.67748
 H3415 H 0.60953 0.21879 0.66839
 H3416 H 0.57169 0.23676 0.69510
 H3417 H 0.58736 0.19275 0.72329
 H3418 H 0.56887 0.19694 0.74131
 H3419 H 0.54830 0.21026 0.74908
 H3420 H 0.55258 0.23997 0.71217
 C3421 C 1.10811 0.19610 0.20693
 C3422 C 1.09539 0.20141 0.21205
 C3423 C 1.08751 0.21107 0.20312
 C3424 C 1.09241 0.21515 0.18919
 C3425 C 1.10507 0.20983 0.18418
 C3426 C 1.11309 0.20031 0.19299
 C3427 C 1.07488 0.21654 0.20825
 C3428 C 1.07003 0.21246 0.22221
 C3429 C 1.07782 0.20268 0.23111
 C3430 C 1.09049 0.19725 0.22599
 C3431 C 1.07277 0.19847 0.24497
 C3432 C 1.06008 0.20385 0.24995
 C3433 C 1.05233 0.21367 0.24122
 C3434 C 1.05742 0.21794 0.22736
 H3435 H 1.11416 0.18887 0.21393
 H3436 H 1.08647 0.22251 0.18219
 H3437 H 1.10851 0.21315 0.17334
 H3438 H 1.06884 0.22397 0.20140
 H3439 H 1.09650 0.18979 0.23283
 H3440 H 1.07858 0.19095 0.25192
 H3441 H 1.05635 0.20036 0.26064
 H3442 H 1.05144 0.22532 0.22041
 C3443 C 0.14338 0.70150 0.54761
 C3444 C 0.15539 0.70895 0.54288
 C3445 C 0.16367 0.71658 0.55326
 C3446 C 0.15987 0.71661 0.56813
 C3447 C 0.14787 0.70933 0.57269
 C3448 C 0.13945 0.70176 0.56253
 C3449 C 0.17561 0.72410 0.54865
 C3450 C 0.17942 0.72413 0.53376
 C3451 C 0.17119 0.71651 0.52335
 C3452 C 0.15921 0.70898 0.52796
 C3453 C 0.17516 0.71645 0.50851
 C3454 C 0.18728 0.72364 0.50406
 C3455 C 0.19562 0.73118 0.51432
 C3456 C 0.19147 0.73150 0.52917
 H3457 H 0.13696 0.69579 0.53963
 H3458 H 0.16614 0.72233 0.57623
 H3459 H 0.14526 0.70957 0.58427
 H3460 H 0.18194 0.72991 0.55665
 H3461 H 0.15291 0.70314 0.51997
 H3462 H 0.16899 0.71066 0.50036
 H3463 H 0.19022 0.72313 0.49257
 H3464 H 0.19783 0.73710 0.53728
 C3465 C 0.15189 0.19865 1.04837
 C3466 C 0.16424 0.20477 1.04299
 C3467 C 0.16957 0.21780 1.04928
 C3468 C 0.16242 0.22448 1.06085
 C3469 C 0.15010 0.21834 1.06610
 C3470 C 0.14468 0.20539 1.05991
 C3471 C 0.18188 0.22398 1.04386
 C3472 C 0.18891 0.21730 1.03219
 C3473 C 0.18355 0.20427 1.02591
 C3474 C 0.17128 0.19808 1.03135
 C3475 C 0.19058 0.19760 1.01427
 C3476 C 0.20285 0.20369 1.00894
 C3477 C 0.20837 0.21662 1.01509
 C3478 C 0.20125 0.22341 1.02672
 H3479 H 0.14782 0.18876 1.04335
 H3480 H 0.16635 0.23447 1.06582
 H3481 H 0.14487 0.22373 1.07509
 H3482 H 0.18595 0.23399 1.04868
 H3483 H 0.16719 0.18809 1.02651
 H3484 H 0.18661 0.18761 1.00934
 H3485 H 0.20807 0.19819 1.00001
 H3486 H 0.20538 0.23333 1.03164
 C3487 C 0.64749 0.55759 0.21414
 C3488 C 0.66090 0.55339 0.21851
 C3489 C 0.67016 0.54774 0.20794
 C3490 C 0.66605 0.54689 0.19316
 C3491 C 0.65270 0.55103 0.18892
 C3492 C 0.64316 0.55611 0.19938
 C3493 C 0.68328 0.54278 0.21233
 C3494 C 0.68730 0.54342 0.22717
 C3495 C 0.67829 0.54955 0.23770
 C3496 C 0.66511 0.55446 0.23331
 C3497 C 0.68261 0.55058 0.25246
 C3498 C 0.69569 0.54545 0.25675
 C3499 C 0.70448 0.53894 0.24641
 C3500 C 0.70023 0.53800 0.23163
 H3501 H 0.64034 0.56153 0.22236
 H3502 H 0.67309 0.54280 0.18490
 H3503 H 0.64984 0.55006 0.17742
 H3504 H 0.69029 0.53827 0.20424
 H3505 H 0.65810 0.55895 0.24141
 H3506 H 0.67590 0.55535 0.26067
 H3507 H 0.69889 0.54639 0.26818
 H3508 H 0.70714 0.53331 0.22354
 C3509 C 0.64965 1.05815 0.68973
 C3510 C 0.65957 1.05292 0.69981
 C3511 C 0.66750 1.06296 0.70821
 C3512 C 0.66522 1.07804 0.70653
 C3513 C 0.65535 1.08318 0.69646
 C3514 C 0.64739 1.07331 0.68802
 C3515 C 0.67754 1.05777 0.71817
 C3516 C 0.67975 1.04264 0.71983
 C3517 C 0.67166 1.03258 0.71159
 C3518 C 0.66157 1.03778 0.70171
 C3519 C 0.67405 1.01748 0.71310
 C3520 C 0.68468 1.01238 0.72228
 C3521 C 0.69291 1.02229 0.73033
 C3522 C 0.69019 1.03741 0.72929
 H3523 H 0.64354 1.05035 0.68348
 H3524 H 0.67098 1.08586 0.71311
 H3525 H 0.65393 1.09491 0.69540
 H3526 H 0.68373 1.06549 0.72449
 H3527 H 0.65544 1.03006 0.69533
 H3528 H 0.66797 1.00963 0.70684
 H3529 H 0.68669 1.00070 0.72282
 H3530 H 0.69670 1.04516 0.73519
 C3531 C 0.86424 0.45792 0.30413
 C3532 C 0.85257 0.46443 0.29749
 C3533 C 0.84339 0.45573 0.28896
 C3534 C 0.84599 0.44072 0.28726
 C3535 C 0.85772 0.43441 0.29369
 C3536 C 0.86698 0.44293 0.30209
 C3537 C 0.83181 0.46216 0.28217
 C3538 C 0.82931 0.47722 0.28371
 C3539 C 0.83845 0.48595 0.29221
 C3540 C 0.85003 0.47950 0.29905
 C3541 C 0.83578 0.50098 0.29381
 C3542 C 0.82403 0.50725 0.28726
 C3543 C 0.81483 0.49863 0.27886
 C3544 C 0.81767 0.48362 0.27701
 H3545 H 0.87139 0.46461 0.31049
 H3546 H 0.83905 0.43390 0.28080
 H3547 H 0.85954 0.42280 0.29210
 H3548 H 0.82478 0.45546 0.27567
 H3549 H 0.85706 0.48620 0.30557
 H3550 H 0.84266 0.50785 0.30028
 H3551 H 0.82206 0.51882 0.28892
 H3552 H 0.81058 0.47677 0.27074
 C3553 C 0.86068 0.96555 0.79761
 C3554 C 0.84783 0.96940 0.79128
 C3555 C 0.84061 0.95916 0.78242
 C3556 C 0.84636 0.94525 0.78009
 C3557 C 0.85913 0.94149 0.78645
 C3558 C 0.86648 0.95156 0.79528
 C3559 C 0.82777 0.96298 0.77608
 C3560 C 0.82200 0.97690 0.77856
 C3561 C 0.82920 0.98711 0.78749
 C3562 C 0.84208 0.98333 0.79372
 C3563 C 0.82333 1.00091 0.79014
 C3564 C 0.81038 1.00454 0.78418
 C3565 C 0.80308 0.99452 0.77527
 C3566 C 0.80907 0.98072 0.77242
 H3567 H 0.86612 0.97355 0.80428
 H3568 H 0.84097 0.93725 0.77335
 H3569 H 0.86317 0.93063 0.78446
 H3570 H 0.82225 0.95510 0.76929
 H3571 H 0.84759 0.99119 0.80055
 H3572 H 0.82871 1.00886 0.79697
 H3573 H 0.80605 1.01522 0.78657
 H3574 H 0.80351 0.97280 0.76572
 C3575 C 0.38611 0.29610 0.78718
 C3576 C 0.39741 0.28833 0.78158
 C3577 C 0.40418 0.27776 0.79052
 C3578 C 0.39959 0.27519 0.80491
 C3579 C 0.38824 0.28287 0.81034
 C3580 C 0.38138 0.29332 0.80152
 C3581 C 0.41540 0.26990 0.78493
 C3582 C 0.41997 0.27252 0.77054
 C3583 C 0.41326 0.28312 0.76159
 C3584 C 0.40197 0.29092 0.76715
 C3585 C 0.41814 0.28590 0.74732
 C3586 C 0.42980 0.27854 0.74211
 C3587 C 0.43657 0.26808 0.75100
 C3588 C 0.43141 0.26495 0.76511
 H3589 H 0.38081 0.30401 0.78021
 H3590 H 0.40471 0.26719 0.81193
 H3591 H 0.38486 0.28064 0.82148
 H3592 H 0.42061 0.26182 0.79180
 H3593 H 0.39680 0.29905 0.76030
 H3594 H 0.41315 0.29401 0.74032
 H3595 H 0.43368 0.28121 0.73125
 H3596 H 0.43671 0.25711 0.77218
 C3597 C 0.89593 0.29736 0.30394
 C3598 C 0.90736 0.29092 0.29707
 C3599 C 0.91465 0.29879 0.28611
 C3600 C 0.91041 0.31301 0.28228
 C3601 C 0.89892 0.31930 0.28905
 C3602 C 0.89149 0.31149 0.29984
 C3603 C 0.92589 0.29223 0.27899
 C3604 C 0.92978 0.27781 0.28255
 C3605 C 0.92246 0.26995 0.29351
 C3606 C 0.91138 0.27659 0.30078
 C3607 C 0.92633 0.25554 0.29701
 C3608 C 0.93740 0.24897 0.28980
 C3609 C 0.94487 0.25668 0.27896
 C3610 C 0.94091 0.27112 0.27534
 H3611 H 0.89024 0.29112 0.31210
 H3612 H 0.91581 0.31917 0.27384
 H3613 H 0.89581 0.33025 0.28577
 H3614 H 0.93149 0.29827 0.27058
 H3615 H 0.90577 0.27054 0.30919
 H3616 H 0.92084 0.24938 0.30540
 H3617 H 0.94026 0.23789 0.29293
 H3618 H 0.94665 0.27730 0.26715
 C3619 C 0.36673 0.78862 0.46071
 C3620 C 0.35382 0.78239 0.46402
 C3621 C 0.34533 0.77686 0.45255
 C3622 C 0.35002 0.77753 0.43797
 C3623 C 0.36294 0.78374 0.43477
 C3624 C 0.37137 0.78944 0.44608
 C3625 C 0.33228 0.77089 0.45585
 C3626 C 0.32759 0.77049 0.47047
 C3627 C 0.33616 0.77593 0.48192
 C3628 C 0.34924 0.78175 0.47864
 C3629 C 0.33141 0.77570 0.49648
 C3630 C 0.31813 0.77051 0.49965
 C3631 C 0.30942 0.76526 0.48835
 C3632 C 0.31434 0.76506 0.47378
 H3633 H 0.37318 0.79275 0.46959
 H3634 H 0.34367 0.77334 0.42903
 H3635 H 0.36621 0.78429 0.42339
 H3636 H 0.32572 0.76674 0.44705
 H3637 H 0.35577 0.78600 0.48743
 H3638 H 0.33786 0.77980 0.50538
 H3639 H 0.31461 0.77075 0.51095
 H3640 H 0.30768 0.76120 0.46494
 C3641 C 0.35674 0.30035 0.93557
 C3642 C 0.34670 0.29410 0.94490
 C3643 C 0.33713 0.30328 0.95215
 C3644 C 0.33774 0.31850 0.94998
 C3645 C 0.34785 0.32464 0.94091
 C3646 C 0.35748 0.31567 0.93369
 C3647 C 0.32712 0.29715 0.96148
 C3648 C 0.32654 0.28193 0.96370
 C3649 C 0.33612 0.27271 0.95654
 C3650 C 0.34616 0.27885 0.94720
 C3651 C 0.33530 0.25746 0.95862
 C3652 C 0.32479 0.25138 0.96728
 C3653 C 0.31506 0.26045 0.97421
 C3654 C 0.31623 0.27576 0.97264
 H3655 H 0.36417 0.29335 0.93012
 H3656 H 0.33045 0.32567 0.95539
 H3657 H 0.34810 0.33647 0.93954
 H3658 H 0.31974 0.30423 0.96693
 H3659 H 0.35347 0.27178 0.94165
 H3660 H 0.34256 0.25021 0.95324
 H3661 H 0.32405 0.23955 0.96826
 H3662 H 0.30863 0.28287 0.97768
 C3663 C 0.79710 0.47954 0.38307
 C3664 C 0.79102 0.48402 0.36969
 C3665 C 0.77972 0.47601 0.36376
 C3666 C 0.77463 0.46375 0.37137
 C3667 C 0.78072 0.45937 0.38467
 C3668 C 0.79205 0.46714 0.39064
 C3669 C 0.77378 0.48028 0.35027
 C3670 C 0.77903 0.49244 0.34257
 C3671 C 0.79025 0.50054 0.34855
 C3672 C 0.79614 0.49632 0.36208
 C3673 C 0.79551 0.51263 0.34077
 C3674 C 0.78993 0.51649 0.32706
 C3675 C 0.77889 0.50840 0.32089
 C3676 C 0.77339 0.49646 0.32885
 H3677 H 0.80573 0.48574 0.38756
 H3678 H 0.76599 0.45747 0.36698
 H3679 H 0.77664 0.44970 0.39010
 H3680 H 0.76518 0.47405 0.34570
 H3681 H 0.80480 0.50249 0.36661
 H3682 H 0.80409 0.51897 0.34519
 H3683 H 0.79439 0.52573 0.32121
 H3684 H 0.76495 0.49004 0.32422
 C3685 C 0.78708 0.97392 0.87704
 C3686 C 0.78225 0.98068 0.86410
 C3687 C 0.79065 0.99116 0.85682
 C3688 C 0.80358 0.99496 0.86284
 C3689 C 0.80838 0.98804 0.87564
 C3690 C 0.80031 0.97727 0.88273
 C3691 C 0.78618 0.99732 0.84343
 C3692 C 0.77357 0.99286 0.83707
 C3693 C 0.76506 0.98260 0.84449
 C3694 C 0.76937 0.97671 0.85805
 C3695 C 0.75257 0.97801 0.83798
 C3696 C 0.74884 0.98304 0.82396
 C3697 C 0.75744 0.99290 0.81628
 C3698 C 0.76963 0.99807 0.82311
 H3699 H 0.78072 0.96562 0.88227
 H3700 H 0.81011 1.00303 0.85745
 H3701 H 0.81852 0.99103 0.87987
 H3702 H 0.79272 1.00518 0.83774
 H3703 H 0.76293 0.96867 0.86363
 H3704 H 0.74590 0.97019 0.84354
 H3705 H 0.73936 0.97895 0.81899
 H3706 H 0.77640 1.00562 0.81731
 C3707 C 0.30207 0.80472 0.38945
 C3708 C 0.29682 0.79775 0.40212
 C3709 C 0.30466 0.78661 0.40915
 C3710 C 0.31761 0.78271 0.40353
 C3711 C 0.32268 0.78957 0.39090
 C3712 C 0.31495 0.80053 0.38364
 C3713 C 0.29943 0.77943 0.42161
 C3714 C 0.28639 0.78317 0.42716
 C3715 C 0.27854 0.79438 0.42029
 C3716 C 0.28380 0.80161 0.40779
 C3717 C 0.26558 0.79816 0.42609
 C3718 C 0.26047 0.79092 0.43860
 C3719 C 0.26817 0.77967 0.44540
 C3720 C 0.28114 0.77587 0.43955
 H3721 H 0.29597 0.81309 0.38393
 H3722 H 0.32378 0.77425 0.40883
 H3723 H 0.33272 0.78627 0.38685
 H3724 H 0.30546 0.77086 0.42694
 H3725 H 0.27776 0.81017 0.40245
 H3726 H 0.25941 0.80675 0.42100
 H3727 H 0.25049 0.79411 0.44291
 H3728 H 0.28732 0.76738 0.44480
 C3729 C 0.29245 0.27789 0.87307
 C3730 C 0.28582 0.27256 0.88567
 C3731 C 0.27533 0.28101 0.89234
 C3732 C 0.27138 0.29443 0.88602
 C3733 C 0.27817 0.29975 0.87354
 C3734 C 0.28896 0.29168 0.86716
 C3735 C 0.26931 0.27615 0.90549
 C3736 C 0.27392 0.26316 0.91223
 C3737 C 0.28419 0.25455 0.90539
 C3738 C 0.28992 0.25919 0.89202
 C3739 C 0.28898 0.24174 0.91235
 C3740 C 0.28416 0.23791 0.92631
 C3741 C 0.27430 0.24668 0.93342
 C3742 C 0.26891 0.25904 0.92608
 H3743 H 0.30056 0.27141 0.86809
 H3744 H 0.26333 0.30103 0.89096
 H3745 H 0.27527 0.31041 0.86923
 H3746 H 0.26145 0.28276 0.91077
 H3747 H 0.29797 0.25272 0.88688
 H3748 H 0.29681 0.23499 0.90723
 H3749 H 0.28843 0.22829 0.93172
 H3750 H 0.26139 0.26598 0.93148
 C3751 C 0.43931 0.29774 0.84970
 C3752 C 0.44739 0.29174 0.83838
 C3753 C 0.45990 0.29872 0.83426
 C3754 C 0.46416 0.31147 0.84153
 C3755 C 0.45610 0.31736 0.85272
 C3756 C 0.44362 0.31058 0.85700
 C3757 C 0.46796 0.29290 0.82290
 C3758 C 0.46369 0.28015 0.81557
 C3759 C 0.45127 0.27304 0.81977
 C3760 C 0.44319 0.27887 0.83114
 C3761 C 0.44706 0.26029 0.81240
 C3762 C 0.45488 0.25483 0.80075
 C3763 C 0.46710 0.26199 0.79622
 C3764 C 0.47155 0.27456 0.80390
 H3765 H 0.42978 0.29231 0.85289
 H3766 H 0.47373 0.31695 0.83852
 H3767 H 0.45966 0.32736 0.85790
 H3768 H 0.47750 0.29834 0.81971
 H3769 H 0.43361 0.27346 0.83427
 H3770 H 0.43759 0.25467 0.81548
 H3771 H 0.45114 0.24515 0.79506
 H3772 H 0.48088 0.28028 0.80053
 C3773 C 0.94822 0.28683 0.36661
 C3774 C 0.95325 0.27769 0.35546
 C3775 C 0.94385 0.26963 0.34661
 C3776 C 0.92958 0.27065 0.34927
 C3777 C 0.92466 0.27965 0.36052
 C3778 C 0.93391 0.28791 0.36919
 C3779 C 0.94885 0.26080 0.33519
 C3780 C 0.96314 0.25999 0.33249
 C3781 C 0.97254 0.26787 0.34150
 C3782 C 0.96755 0.27661 0.35297
 C3783 C 0.98679 0.26721 0.33865
 C3784 C 0.99166 0.25932 0.32661
 C3785 C 0.98240 0.25174 0.31732
 C3786 C 0.96815 0.25182 0.32058
 H3787 H 0.95547 0.29299 0.37336
 H3788 H 0.92221 0.26456 0.34260
 H3789 H 0.91359 0.28035 0.36224
 H3790 H 0.94162 0.25477 0.32828
 H3791 H 0.97477 0.28277 0.35978
 H3792 H 0.99414 0.27317 0.34547
 H3793 H 1.00266 0.25948 0.32431
 H3794 H 0.96087 0.24622 0.31337
 C3795 C 0.44445 0.35952 0.79124
 C3796 C 0.45167 0.34695 0.78655
 C3797 C 0.45831 0.33779 0.79705
 C3798 C 0.45772 0.34141 0.81202
 C3799 C 0.45080 0.35405 0.81656
 C3800 C 0.44414 0.36326 0.80626
 C3801 C 0.46556 0.32526 0.79245
 C3802 C 0.46640 0.32180 0.77742
 C3803 C 0.45989 0.33105 0.76690
 C3804 C 0.45254 0.34350 0.77152
 C3805 C 0.46072 0.32763 0.75191
 C3806 C 0.46764 0.31501 0.74735
 C3807 C 0.47400 0.30553 0.75764
 C3808 C 0.47349 0.30915 0.77272
 H3809 H 0.43949 0.36663 0.78319
 H3810 H 0.46277 0.33459 0.82022
 H3811 H 0.45064 0.35661 0.82819
 H3812 H 0.47057 0.31824 0.80055
 H3813 H 0.44753 0.35053 0.76342
 H3814 H 0.45583 0.33461 0.74369
 H3815 H 0.46783 0.31255 0.73568
 H3816 H 0.47816 0.30187 0.78081
 C3817 C 0.95159 0.34848 0.30363
 C3818 C 0.95739 0.33656 0.29615
 C3819 C 0.95133 0.33174 0.28279
 C3820 C 0.93968 0.33897 0.27707
 C3821 C 0.93399 0.35082 0.28456
 C3822 C 0.93988 0.35573 0.29786
 C3823 C 0.95700 0.31978 0.27534
 C3824 C 0.96866 0.31255 0.28107
 C3825 C 0.97485 0.31744 0.29433
 C3826 C 0.96918 0.32944 0.30179
 C3827 C 0.98650 0.31010 0.30000
 C3828 C 0.99171 0.29777 0.29282
 C3829 C 0.98542 0.29262 0.27980
 C3830 C 0.97403 0.30029 0.27387
 H3831 H 0.95636 0.35224 0.31377
 H3832 H 0.93499 0.33548 0.26679
 H3833 H 0.92491 0.35608 0.27991
 H3834 H 0.95227 0.31603 0.26514
 H3835 H 0.97388 0.33315 0.31202
 H3836 H 0.99139 0.31371 0.31014
 H3837 H 1.00044 0.29204 0.29771
 H3838 H 0.96898 0.29644 0.26389
 C3839 C 0.29414 0.87431 0.47549
 C3840 C 0.28688 0.86138 0.47924
 C3841 C 0.27462 0.85763 0.47144
 C3842 C 0.26967 0.86693 0.46030
 C3843 C 0.27684 0.87974 0.45674
 C3844 C 0.28916 0.88357 0.46419
 C3845 C 0.26759 0.84454 0.47470
 C3846 C 0.27266 0.83502 0.48562
 C3847 C 0.28470 0.83887 0.49371
 C3848 C 0.29172 0.85205 0.49051
 C3849 C 0.28969 0.82927 0.50463
 C3850 C 0.28317 0.81575 0.50708
 C3851 C 0.27147 0.81157 0.49871
 C3852 C 0.26609 0.82150 0.48823
 H3853 H 0.30358 0.87718 0.48135
 H3854 H 0.26030 0.86422 0.45422
 H3855 H 0.27283 0.88647 0.44784
 H3856 H 0.25832 0.84164 0.46853
 H3857 H 0.30105 0.85491 0.49661
 H3858 H 0.29885 0.83206 0.51102
 H3859 H 0.28757 0.80839 0.51525
 H3860 H 0.25709 0.81850 0.48168
 C3861 C 0.30170 0.35426 0.94305
 C3862 C 0.29637 0.34234 0.95121
 C3863 C 0.30218 0.33889 0.96515
 C3864 C 0.31303 0.34743 0.97077
 C3865 C 0.31825 0.35921 0.96265
 C3866 C 0.31276 0.36277 0.94866
 C3867 C 0.29715 0.32689 0.97325
 C3868 C 0.28639 0.31818 0.96761
 C3869 C 0.28041 0.32165 0.95377
 C3870 C 0.28542 0.33373 0.94565
 C3871 C 0.26967 0.31281 0.94820
 C3872 C 0.26518 0.30043 0.95606
 C3873 C 0.27130 0.29667 0.96969
 C3874 C 0.28175 0.30584 0.97548
 H3875 H 0.29733 0.35678 0.93231
 H3876 H 0.31755 0.34497 0.98147
 H3877 H 0.32658 0.36554 0.96750
 H3878 H 0.30174 0.32423 0.98388
 H3879 H 0.28090 0.33632 0.93498
 H3880 H 0.26493 0.31528 0.93762
 H3881 H 0.25718 0.29357 0.95124
 H3882 H 0.28665 0.30313 0.98593
 C3883 C 0.80137 0.40000 0.30309
 C3884 C 0.79704 0.41339 0.29680
 C3885 C 0.80419 0.41921 0.28452
 C3886 C 0.81551 0.41165 0.27878
 C3887 C 0.81976 0.39842 0.28508
 C3888 C 0.81274 0.39237 0.29725
 C3889 C 0.79993 0.43250 0.27814
 C3890 C 0.78862 0.44012 0.28388
 C3891 C 0.78144 0.43439 0.29617
 C3892 C 0.78568 0.42104 0.30255
 C3893 C 0.77019 0.44218 0.30190
 C3894 C 0.76616 0.45556 0.29558
 C3895 C 0.77325 0.46136 0.28335
 C3896 C 0.78445 0.45347 0.27754
 H3897 H 0.79580 0.39552 0.31241
 H3898 H 0.82111 0.41598 0.26939
 H3899 H 0.82865 0.39304 0.28038
 H3900 H 0.80544 0.43690 0.26871
 H3901 H 0.78017 0.41663 0.31197
 H3902 H 0.76457 0.43799 0.31133
 H3903 H 0.75753 0.46140 0.30035
 H3904 H 0.79011 0.45781 0.26819
   
