data_POSCAR
  _audit_creation_date              2014-09-24
  _audit_creation_method            'ToBaCCo'
  _symmetry_space_group_name_H-M    'P1'
  _symmetry_Int_Tables_number       1
  _symmetry_cell_setting            triclinic
  loop_
  _symmetry_equiv_pos_as_xyz
 x,y,z
_cell_length_a 59.1662
_cell_length_b 59.3231
_cell_length_c 59.0599
_cell_angle_alpha 89.442600
_cell_angle_beta 89.495000
_cell_angle_gamma 89.532600
loop_
  _atom_site_label
  _atom_site_type_symbol
  _atom_site_fract_x
  _atom_site_fract_y
  _atom_site_fract_z
C1 C 0.11343 -0.00124 0.22856
 C2 C 0.12867 0.01932 0.22973
 C3 C 0.14189 0.01966 0.24843
 C4 C 0.13882 -0.00078 0.26442
 C5 C 0.12936 -0.02157 0.23036
 C6 C 0.14259 -0.02140 0.24913
 C7 C 0.09990 -0.00123 0.25082
 C8 C 0.11326 -0.00102 0.26957
 H9 H 0.12815 0.03309 0.21744
 H10 H 0.14973 -0.00055 0.27963
 H11 H 0.12919 -0.03556 0.21861
 H12 H 0.08156 -0.00166 0.25170
 C13 C 0.38895 0.00015 0.73238
 C14 C 0.37301 -0.01997 0.73334
 C15 C 0.35932 -0.02030 0.75199
 C16 C 0.36281 -0.00022 0.76807
 C17 C 0.37349 0.02088 0.73397
 C18 C 0.35984 0.02081 0.75270
 C19 C 0.40136 -0.00060 0.75349
 C20 C 0.38692 -0.00076 0.77312
 H21 H 0.37329 -0.03339 0.72093
 H22 H 0.35151 -0.00044 0.78321
 H23 H 0.37448 0.03513 0.72230
 H24 H 0.41967 0.00015 0.75442
 C25 C 0.88588 0.50106 0.23006
 C26 C 0.87009 0.48093 0.23162
 C27 C 0.85681 0.48068 0.25050
 C28 C 0.86039 0.50089 0.26631
 C29 C 0.87052 0.52179 0.23194
 C30 C 0.85729 0.52185 0.25095
 C31 C 0.89936 0.50047 0.25212
 C32 C 0.88595 0.50044 0.27110
 H33 H 0.87029 0.46731 0.21942
 H34 H 0.84942 0.50076 0.28168
 H35 H 0.87152 0.53611 0.22036
 H36 H 0.91770 0.50100 0.25271
 C37 C 0.61425 0.49966 0.72942
 C38 C 0.62933 0.52034 0.73053
 C39 C 0.64285 0.52064 0.74901
 C40 C 0.64020 0.50005 0.76489
 C41 C 0.63039 0.47946 0.73080
 C42 C 0.64391 0.47959 0.74936
 C43 C 0.60107 0.49937 0.75188
 C44 C 0.61471 0.49955 0.77043
 H45 H 0.62862 0.53413 0.71828
 H46 H 0.65134 0.50025 0.77993
 H47 H 0.63019 0.46559 0.71891
 H48 H 0.58275 0.49882 0.75303
 C49 C 0.22872 0.11202 1.00060
 C50 C 0.22955 0.12691 1.02148
 C51 C 0.24793 0.14047 1.02203
 C52 C 0.26398 0.13806 1.00152
 C53 C 0.23021 0.12828 0.98042
 C54 C 0.24867 0.14185 0.98086
 C55 C 0.25118 0.09898 1.00047
 C56 C 0.26961 0.11268 1.00093
 H57 H 0.21717 0.12608 1.03518
 H58 H 0.27895 0.14923 1.00195
 H59 H 0.21845 0.12818 0.96638
 H60 H 0.25241 0.08072 0.99981
 C61 C 0.72918 0.38532 0.99854
 C62 C 0.73053 0.37002 0.97951
 C63 C 0.75042 0.35616 0.97957
 C64 C 0.76533 0.36019 0.99884
 C65 C 0.73091 0.37116 1.01870
 C66 C 0.75087 0.35733 1.01898
 C67 C 0.74999 0.39838 0.99765
 C68 C 0.77000 0.38442 0.99784
 H69 H 0.71858 0.37015 0.96559
 H70 H 0.78072 0.34926 0.99892
 H71 H 0.71946 0.37243 1.03317
 H72 H 0.75048 0.41670 0.99783
 C73 C 0.23027 0.89020 0.49811
 C74 C 0.23192 0.87437 0.47798
 C75 C 0.25084 0.86122 0.47782
 C76 C 0.26661 0.86499 0.49812
 C77 C 0.23226 0.87497 0.51902
 C78 C 0.25129 0.86188 0.51918
 C79 C 0.25225 0.90379 0.49745
 C80 C 0.27129 0.89053 0.49751
 H81 H 0.21965 0.87431 0.46438
 H82 H 0.28201 0.85413 0.49806
 H83 H 0.22059 0.87580 0.53331
 H84 H 0.25273 0.92208 0.49781
 C85 C 0.72913 0.61252 0.49940
 C86 C 0.73013 0.62765 0.52010
 C87 C 0.74870 0.64096 0.52053
 C88 C 0.76475 0.63808 0.50010
 C89 C 0.73090 0.62850 0.47902
 C90 C 0.74956 0.64182 0.47935
 C91 C 0.75142 0.59917 0.49949
 C92 C 0.77004 0.61263 0.49983
 H93 H 0.71774 0.62711 0.53380
 H94 H 0.77988 0.64905 0.50044
 H95 H 0.71916 0.62841 0.46497
 H96 H 0.75240 0.58088 0.49898
 C97 C -0.00023 0.22719 0.11243
 C98 C 0.02022 0.22814 0.12793
 C99 C 0.02068 0.24679 0.14109
 C100 C 0.00048 0.26298 0.13770
 C101 C -0.02078 0.22932 0.12816
 C102 C -0.02047 0.24807 0.14133
 C103 C 0.00027 0.24929 0.09877
 C104 C 0.00061 0.26801 0.11207
 H105 H 0.03381 0.21568 0.12769
 H106 H 0.00082 0.27817 0.14856
 H107 H -0.03495 0.21778 0.12794
 H108 H -0.00011 0.25010 0.08040
 C109 C -0.00214 0.73047 0.38702
 C110 C -0.02095 0.73165 0.37161
 C111 C -0.02100 0.75127 0.35752
 C112 C -0.00203 0.76636 0.36127
 C113 C 0.01909 0.73247 0.37215
 C114 C 0.01927 0.75132 0.35873
 C115 C -0.00305 0.75253 0.40046
 C116 C -0.00292 0.77138 0.38688
 H117 H -0.03474 0.71962 0.37183
 H118 H -0.00201 0.78160 0.35016
 H119 H 0.03343 0.72096 0.37340
 H120 H -0.00268 0.75320 0.41883
 C121 C 0.49930 0.22989 0.88832
 C122 C 0.47911 0.23190 0.87255
 C123 C 0.47935 0.25069 0.85919
 C124 C 0.49999 0.26594 0.86270
 C125 C 0.52010 0.23127 0.87286
 C126 C 0.52058 0.25016 0.85955
 C127 C 0.49929 0.25188 0.90178
 C128 C 0.49970 0.27075 0.88829
 H129 H 0.46523 0.22000 0.87268
 H130 H 0.50022 0.28123 0.85168
 H131 H 0.53412 0.21935 0.87374
 H132 H 0.49973 0.25247 0.92015
 C133 C 0.50051 0.72968 0.61193
 C134 C 0.52087 0.73029 0.62757
 C135 C 0.52136 0.74874 0.64101
 C136 C 0.50126 0.76508 0.63774
 C137 C 0.47988 0.73170 0.62756
 C138 C 0.48021 0.75024 0.64101
 C139 C 0.50122 0.75198 0.59860
 C140 C 0.50159 0.77049 0.61218
 H141 H 0.53445 0.71783 0.62713
 H142 H 0.50161 0.78010 0.64883
 H143 H 0.46566 0.72023 0.62711
 H144 H 0.50107 0.75305 0.58023
 C145 C 0.88655 1.00188 0.77214
 C146 C 0.87093 1.02076 0.77069
 C147 C 0.85651 1.01996 0.75144
 C148 C 0.86023 1.00034 0.73711
 C149 C 0.87191 0.98078 0.77165
 C150 C 0.85816 0.97988 0.75333
 C151 C 0.89954 1.00179 0.74951
 C152 C 0.88567 1.00098 0.73114
 H153 H 0.87142 1.03515 0.78194
 H154 H 0.84890 0.99960 0.72221
 H155 H 0.87311 0.96721 0.78411
 H156 H 0.91785 1.00240 0.74815
 C157 C 0.38762 0.49978 0.27296
 C158 C 0.37129 0.51979 0.27106
 C159 C 0.35765 0.51894 0.25262
 C160 C 0.36147 0.49805 0.23772
 C161 C 0.37272 0.47892 0.27261
 C162 C 0.35910 0.47794 0.25424
 C163 C 0.40066 0.49950 0.25043
 C164 C 0.38692 0.49861 0.23200
 H165 H 0.37134 0.53397 0.28258
 H166 H 0.35025 0.49729 0.22276
 H167 H 0.37361 0.46553 0.28528
 H168 H 0.41897 0.50019 0.24915
 C169 C 0.61301 1.00369 0.27004
 C170 C 0.62768 0.98239 0.26821
 C171 C 0.64104 0.98199 0.24926
 C172 C 0.63862 1.00313 0.23395
 C173 C 0.62855 1.02233 0.26866
 C174 C 0.64257 1.02212 0.24894
 C175 C 0.59955 1.00455 0.24790
 C176 C 0.61305 1.00417 0.22895
 H177 H 0.62646 0.96824 0.27998
 H178 H 0.64966 1.00291 0.21862
 H179 H 0.62854 1.03613 0.28067
 H180 H 0.58121 1.00433 0.24727
 C181 C 0.11268 0.50139 0.76907
 C182 C 0.12768 0.48037 0.76737
 C183 C 0.14102 0.48000 0.74846
 C184 C 0.13836 0.50091 0.73296
 C185 C 0.12884 0.52123 0.76750
 C186 C 0.14223 0.52112 0.74868
 C187 C 0.09933 0.50212 0.74693
 C188 C 0.11283 0.50181 0.72803
 H189 H 0.12653 0.46621 0.77914
 H190 H 0.14940 0.50076 0.71765
 H191 H 0.12885 0.53490 0.77964
 H192 H 0.08099 0.50196 0.74625
 C193 C 0.77193 0.88917 0.00009
 C194 C 0.76998 0.87312 0.02039
 C195 C 0.75162 0.85944 0.01959
 C196 C 0.73685 0.86295 -0.00150
 C197 C 0.77173 0.87405 -0.02066
 C198 C 0.75345 0.86039 -0.02155
 C199 C 0.74943 0.90210 -0.00051
 C200 C 0.73109 0.88831 -0.00132
 H201 H 0.78141 0.87336 0.03469
 H202 H 0.72194 0.85170 -0.00222
 H203 H 0.78448 0.87478 -0.03402
 H204 H 0.74809 0.92036 0.00005
 C205 C 0.27244 0.38877 0.50185
 C206 C 0.27012 0.37285 0.52223
 C207 C 0.25165 0.35931 0.52128
 C208 C 0.23718 0.36280 0.49997
 C209 C 0.27238 0.37353 0.48119
 C210 C 0.25400 0.36000 0.48014
 C211 C 0.25003 0.40185 0.50089
 C212 C 0.23160 0.38820 0.49993
 H213 H 0.28140 0.37306 0.53665
 H214 H 0.22221 0.35166 0.49914
 H215 H 0.28524 0.37416 0.46792
 H216 H 0.24881 0.42013 0.50131
 C217 C 0.26801 0.60849 -0.00037
 C218 C 0.26663 0.62421 -0.02098
 C219 C 0.24785 0.63765 -0.02114
 C220 C 0.23211 0.63434 -0.00043
 C221 C 0.26629 0.62391 0.02010
 C222 C 0.24760 0.63740 0.02021
 C223 C 0.24580 0.59530 -0.00037
 C224 C 0.22700 0.60888 -0.00045
 H225 H 0.27858 0.62356 -0.03505
 H226 H 0.21689 0.64544 -0.00040
 H227 H 0.27843 0.62359 0.03382
 H228 H 0.24502 0.57703 -0.00100
 C229 C 0.76903 0.11283 0.49976
 C230 C 0.76773 0.12768 0.48006
 C231 C 0.74813 0.14204 0.48020
 C232 C 0.73355 0.13890 0.50021
 C233 C 0.76805 0.12751 0.51928
 C234 C 0.74854 0.14189 0.51964
 C235 C 0.74790 0.10031 0.50016
 C236 C 0.72825 0.11477 0.50039
 H237 H 0.77916 0.12656 0.46556
 H238 H 0.71844 0.15020 0.50048
 H239 H 0.78014 0.12684 0.53307
 H240 H 0.74694 0.08204 0.49935
 C241 C 1.00128 0.77078 0.88966
 C242 C 1.02145 0.76906 0.87341
 C243 C 1.02069 0.75083 0.85958
 C244 C 0.99972 0.73594 0.86314
 C245 C 0.98048 0.77053 0.87459
 C246 C 0.97958 0.75238 0.86077
 C247 C 1.00090 0.74822 0.90254
 C248 C 1.00011 0.73000 0.88859
 H249 H 1.03566 0.78056 0.87363
 H250 H 0.99903 0.72115 0.85176
 H251 H 0.96707 0.78315 0.87545
 H252 H 1.00150 0.74677 0.92088
 C253 C 0.50078 0.27326 0.38952
 C254 C 0.52071 0.27167 0.37296
 C255 C 0.51995 0.25331 0.35929
 C256 C 0.49921 0.23821 0.36331
 C257 C 0.47973 0.27267 0.37481
 C258 C 0.47884 0.25440 0.36115
 C259 C 0.50087 0.25081 0.40256
 C260 C 0.50008 0.23247 0.38878
 H261 H 0.53486 0.28324 0.37298
 H262 H 0.49850 0.22332 0.35206
 H263 H 0.46620 0.28515 0.37579
 H264 H 0.50183 0.24950 0.42089
 C265 C 1.00044 0.26905 0.60961
 C266 C 0.97965 0.26705 0.62501
 C267 C 0.97979 0.24825 0.63845
 C268 C 1.00094 0.23317 0.63549
 C269 C 1.02062 0.26787 0.62547
 C270 C 1.02100 0.24919 0.63897
 C271 C 1.00130 0.24698 0.59632
 C272 C 1.00149 0.22820 0.60992
 H273 H 0.96525 0.27851 0.62405
 H274 H 1.00121 0.21796 0.64661
 H275 H 1.03403 0.28031 0.62535
 H276 H 1.00072 0.24624 0.57796
 C277 C 0.50028 0.76852 0.11095
 C278 C 0.47941 0.76664 0.12625
 C279 C 0.47936 0.74783 0.13967
 C280 C 0.50041 0.73261 0.13678
 C281 C 0.52038 0.76718 0.12690
 C282 C 0.52056 0.74848 0.14038
 C283 C 0.50104 0.74646 0.09762
 C284 C 0.50106 0.72766 0.11120
 H285 H 0.46512 0.77825 0.12530
 H286 H 0.50052 0.71737 0.14788
 H287 H 0.53387 0.77952 0.12686
 H288 H 0.50070 0.74575 0.07926
 O289 O -0.01378 0.93593 0.98941
 O290 O -0.00271 0.93569 1.02767
 O291 O -0.06311 0.98996 0.98675
 O292 O -0.06460 1.02677 0.99302
 O293 O -0.00943 0.98586 0.93582
 O294 O 0.02931 0.99508 0.93584
 O295 O -0.00298 1.04922 1.04343
 O296 O -0.03846 1.03393 1.04608
 O297 O 0.04357 0.99546 1.05019
 O298 O 0.04768 0.96022 1.03446
 O299 O 0.05134 1.04170 0.99659
 O300 O 0.03364 1.04817 0.96059
 O301 O 0.01550 1.06237 1.01200
 O302 O 0.00491 1.06270 0.97082
 O303 O 0.06441 1.01016 1.01457
 O304 O 0.06361 0.96952 1.00319
 O305 O 0.01261 1.01448 1.06329
 O306 O -0.02600 0.99925 1.06317
 O307 O 0.00529 0.94874 0.95821
 O308 O 0.04136 0.96703 0.95333
 O309 O -0.04073 1.00436 0.94880
 O310 O -0.04369 1.04135 0.96790
 O311 O -0.05022 0.95770 1.00368
 O312 O -0.03272 0.95787 1.04180
 Zr313 Zr -0.01609 0.96432 1.01036
 O314 O 0.00471 0.98331 1.03150
 Zr315 Zr -0.03433 1.01026 0.98320
 O316 O -0.01506 1.03111 1.00402
 Zr317 Zr 0.01126 0.98305 0.96448
 O318 O 0.03264 1.00329 0.98382
 Zr319 Zr -0.00945 1.01555 1.03556
 O320 O -0.03148 0.99600 1.01583
 Zr321 Zr 0.03625 0.98884 1.01619
 O322 O 0.01658 0.96732 0.99609
 Zr323 Zr 0.01733 1.03481 0.98974
 O324 O -0.00272 1.01564 0.96759
 O325 O -0.02079 0.97831 0.97824
 O326 O 0.02268 1.02088 1.02177
 C327 C -0.00429 0.93317 0.97001
 C328 C -0.06588 0.97013 0.99514
 C329 C -0.02888 0.99513 0.93309
 C330 C 0.00677 1.06480 1.03183
 C331 C 0.03223 1.00550 1.06577
 C332 C 0.06694 1.02995 1.00609
 H333 H 0.00636 0.97531 1.04619
 H334 H 0.04729 1.00477 0.97581
 H335 H -0.03041 0.96888 0.96858
 H336 H -0.02302 1.04572 1.00581
 H337 H -0.05169 1.02444 1.04273
 H338 H -0.06129 1.03488 1.00714
 H339 H 0.06974 0.97750 0.98973
 H340 H 0.04570 0.95611 0.96532
 H341 H -0.02552 1.00937 1.07642
 H342 H -0.04266 0.94459 1.04036
 H343 H 0.04434 1.03657 0.95499
 H344 H 0.02435 1.01089 0.93341
 H345 H -0.01387 0.92331 1.02730
 H346 H 0.03759 0.94774 1.03033
 H347 H -0.03251 1.04441 0.95570
 H348 H -0.00867 1.06860 0.97874
 O349 O 0.48987 0.48656 0.43757
 O350 O 0.52808 0.49770 0.43723
 O351 O 0.48731 0.43735 0.49178
 O352 O 0.49372 0.43584 0.52877
 O353 O 0.43660 0.49103 0.48779
 O354 O 0.43672 0.52964 0.49703
 O355 O 0.54411 0.49724 0.55127
 O356 O 0.54663 0.46186 0.53596
 O357 O 0.55085 0.54367 0.49724
 O358 O 0.53511 0.54794 0.46192
 O359 O 0.49738 0.55153 0.54373
 O360 O 0.46136 0.53370 0.55021
 O361 O 0.51283 0.51573 0.56450
 O362 O 0.47181 0.50526 0.56501
 O363 O 0.51530 0.56455 0.51202
 O364 O 0.50391 0.56374 0.47118
 O365 O 0.56390 0.51274 0.51631
 O366 O 0.56365 0.47426 0.50107
 O367 O 0.45880 0.50561 0.45050
 O368 O 0.45414 0.54164 0.46878
 O369 O 0.44952 0.45973 0.50631
 O370 O 0.46861 0.45667 0.54343
 O371 O 0.50422 0.45025 0.45939
 O372 O 0.54227 0.46772 0.45946
 Zr373 Zr 0.51091 0.48428 0.46603
 O374 O 0.53208 0.50499 0.48508
 Zr375 Zr 0.48388 0.46604 0.51221
 O376 O 0.50470 0.48524 0.53313
 Zr377 Zr 0.46523 0.51160 0.48491
 O378 O 0.48460 0.53289 0.50520
 Zr379 Zr 0.53617 0.49081 0.51746
 O380 O 0.51642 0.46889 0.49784
 Zr381 Zr 0.51689 0.53646 0.49065
 O382 O 0.49674 0.51689 0.46905
 Zr383 Zr 0.49054 0.51757 0.53686
 O384 O 0.46838 0.49760 0.51763
 O385 O 0.47888 0.47962 0.48014
 O386 O 0.52250 0.52289 0.52282
 C387 C 0.47048 0.49600 0.43486
 C388 C 0.49567 0.43461 0.47186
 C389 C 0.43386 0.47161 0.49706
 C390 C 0.53260 0.50699 0.56692
 C391 C 0.56641 0.53230 0.50726
 C392 C 0.50683 0.56710 0.53189
 H393 H 0.54673 0.50661 0.47702
 H394 H 0.47662 0.54750 0.50667
 H395 H 0.46920 0.47003 0.47069
 H396 H 0.50652 0.47730 0.54780
 H397 H 0.54324 0.44867 0.52645
 H398 H 0.50772 0.43917 0.53706
 H399 H 0.49050 0.56987 0.47920
 H400 H 0.46607 0.54590 0.45772
 H401 H 0.57690 0.47469 0.51123
 H402 H 0.54079 0.45785 0.44612
 H403 H 0.45594 0.54461 0.53868
 H404 H 0.43431 0.52468 0.51291
 H405 H 0.52765 0.48660 0.42478
 H406 H 0.53109 0.53780 0.44941
 H407 H 0.45654 0.46790 0.54656
 H408 H 0.47959 0.49157 0.57079
 O409 O 0.45360 -0.04430 0.49829
 O410 O 0.47243 -0.04806 0.46299
 O411 O 0.50839 -0.04674 0.54601
 O412 O 0.54022 -0.02786 0.55216
 O413 O 0.45713 0.00535 0.55132
 O414 O 0.44984 0.03928 0.53133
 O415 O 0.56414 0.01653 0.48549
 O416 O 0.56724 -0.01962 0.49974
 O417 O 0.51204 0.01532 0.43674
 O418 O 0.47578 0.00167 0.43583
 O419 O 0.51188 0.06553 0.48631
 O420 O 0.50099 0.06719 0.52612
 O421 O 0.54846 0.04742 0.50229
 O422 O 0.52828 0.05243 0.53938
 O423 O 0.49495 0.05032 0.45563
 O424 O 0.45858 0.02867 0.45283
 O425 O 0.54476 0.00070 0.45087
 O426 O 0.54774 -0.03677 0.46908
 O427 O 0.43773 -0.01323 0.51460
 O428 O 0.43538 0.02576 0.50261
 O429 O 0.48945 -0.01008 0.56554
 O430 O 0.52839 0.00419 0.56402
 O431 O 0.49048 -0.06209 0.51590
 O432 O 0.50746 -0.06076 0.47709
 Zr433 Zr 0.48753 -0.03513 0.49262
 O434 O 0.50638 -0.01467 0.47021
 Zr435 Zr 0.51149 -0.01233 0.53753
 O436 O 0.53196 0.00835 0.51684
 Zr437 Zr 0.46436 0.01013 0.51667
 O438 O 0.48278 0.03231 0.49559
 Zr439 Zr 0.53730 -0.00649 0.48509
 O440 O 0.51933 -0.02869 0.50696
 Zr441 Zr 0.49006 0.01635 0.46479
 O442 O 0.46964 -0.00511 0.48503
 Zr443 Zr 0.51465 0.03859 0.50960
 O444 O 0.49492 0.01880 0.53227
 O445 O 0.48047 -0.02030 0.52371
 O446 O 0.52147 0.02432 0.47817
 C447 C 0.43674 -0.03326 0.50656
 C448 C 0.49968 -0.06337 0.53548
 C449 C 0.46924 -0.00236 0.56761
 C450 C 0.56511 0.03668 0.49319
 C451 C 0.53261 0.00863 0.43472
 C452 C 0.50364 0.06680 0.46631
 H453 H 0.50864 -0.02279 0.45579
 H454 H 0.47395 0.04635 0.49339
 H455 H 0.47127 -0.03007 0.53380
 H456 H 0.54646 0.01095 0.52454
 H457 H 0.56311 -0.03404 0.50721
 H458 H 0.55339 -0.02343 0.54277
 H459 H 0.45460 0.04238 0.46145
 H460 H 0.43306 0.01879 0.48766
 H461 H 0.56269 -0.03415 0.46182
 H462 H 0.50047 -0.07565 0.48001
 H463 H 0.48585 0.07019 0.51975
 H464 H 0.46180 0.04615 0.54056
 H465 H 0.46710 -0.06360 0.46614
 H466 H 0.46769 -0.01190 0.44124
 H467 H 0.51977 0.01819 0.56721
 H468 H 0.54185 0.04347 0.54344
 O469 O -0.05008 0.45199 0.99587
 O470 O -0.03124 0.44829 0.96051
 O471 O 0.00431 0.44981 1.04375
 O472 O 0.03603 0.46867 1.05018
 O473 O -0.04689 0.50219 1.04847
 O474 O -0.05415 0.53583 1.02814
 O475 O 0.06063 0.51252 0.98350
 O476 O 0.06345 0.47641 0.99778
 O477 O 0.00894 0.51155 0.93430
 O478 O -0.02733 0.49793 0.93307
 O479 O 0.00853 0.56180 0.98369
 O480 O -0.00258 0.56374 1.02328
 O481 O 0.04494 0.54356 1.00003
 O482 O 0.02434 0.54874 1.03700
 O483 O -0.00834 0.54661 0.95297
 O484 O -0.04470 0.52491 0.94994
 O485 O 0.04149 0.49686 0.94876
 O486 O 0.04410 0.45933 0.96698
 O487 O -0.06605 0.48316 1.01190
 O488 O -0.06827 0.52211 0.99933
 O489 O -0.01475 0.48668 1.06300
 O490 O 0.02430 0.50076 1.06168
 O491 O -0.01328 0.43430 1.01353
 O492 O 0.00373 0.43549 0.97476
 Zr493 Zr -0.01617 0.46121 0.99017
 O494 O 0.00286 0.48156 0.96780
 Zr495 Zr 0.00749 0.48417 1.03516
 O496 O 0.02818 0.50467 1.01454
 Zr497 Zr -0.03945 0.50661 1.01383
 O498 O -0.02077 0.52869 0.99285
 Zr499 Zr 0.03368 0.48968 0.98290
 O500 O 0.01551 0.46763 1.00473
 Zr501 Zr -0.01331 0.51262 0.96215
 O502 O -0.03394 0.49124 0.98229
 Zr503 Zr 0.01102 0.53492 1.00707
 O504 O -0.00899 0.51530 1.02964
 O505 O -0.02343 0.47619 1.02115
 O506 O 0.01802 0.52053 0.97575
 C507 C -0.06697 0.46303 1.00407
 C508 C -0.00424 0.43312 1.03320
 C509 C -0.03491 0.49457 1.06489
 C510 C 0.06163 0.53268 0.99115
 C511 C 0.02953 0.50484 0.93249
 C512 C 0.00038 0.56308 0.96365
 H513 H 0.00522 0.47340 0.95342
 H514 H -0.02955 0.54275 0.99055
 H515 H -0.03267 0.46648 1.03126
 H516 H 0.04262 0.50724 1.02236
 H517 H 0.05920 0.46201 1.00523
 H518 H 0.04925 0.47274 1.04069
 H519 H -0.04876 0.53861 0.95852
 H520 H -0.07058 0.51484 0.98452
 H521 H 0.05910 0.46188 0.95982
 H522 H -0.00333 0.42063 0.97766
 H523 H -0.01775 0.56664 1.01694
 H524 H -0.04223 0.54287 1.03729
 H525 H -0.03661 0.43276 0.96366
 H526 H -0.03539 0.48432 0.93840
 H527 H 0.01566 0.51476 1.06481
 H528 H 0.03799 0.53991 1.04108
 O529 O 0.01263 0.43549 0.50929
 O530 O -0.00119 0.43636 0.47186
 O531 O 0.06468 0.48562 0.50797
 O532 O 0.06762 0.52231 0.49948
 O533 O 0.01512 0.48547 0.56221
 O534 O -0.02313 0.49713 0.56495
 O535 O 0.00312 0.54973 0.45434
 O536 O 0.03761 0.53229 0.44917
 O537 O -0.04621 0.49877 0.45203
 O538 O -0.05080 0.46394 0.46898
 O539 O -0.04742 0.54566 0.50504
 O540 O -0.02649 0.55001 0.54007
 O541 O -0.01203 0.56378 0.48695
 O542 O 0.00159 0.56337 0.52687
 O543 O -0.06328 0.51521 0.48848
 O544 O -0.06384 0.47441 0.50112
 O545 O -0.01552 0.51599 0.43629
 O546 O 0.02236 0.49850 0.43373
 O547 O -0.00312 0.44934 0.54173
 O548 O -0.03775 0.46985 0.54907
 O549 O 0.04620 0.50204 0.54658
 O550 O 0.04973 0.53851 0.52646
 O551 O 0.04895 0.45451 0.49239
 O552 O 0.02902 0.45667 0.45539
 Zr553 Zr 0.01488 0.46383 0.48778
 O554 O -0.00659 0.48428 0.46798
 Zr555 Zr 0.03746 0.50824 0.51259
 O556 O 0.01757 0.53049 0.49301
 Zr557 Zr -0.00792 0.48405 0.53529
 O558 O -0.02980 0.50574 0.51728
 Zr559 Zr 0.00873 0.51560 0.46224
 O560 O 0.03133 0.49447 0.48052
 Zr561 Zr -0.03658 0.49178 0.48555
 O562 O -0.01642 0.46891 0.50447
 Zr563 Zr -0.01342 0.53623 0.50968
 O564 O 0.00742 0.51565 0.53047
 O565 O 0.02266 0.47728 0.51919
 O566 O -0.02191 0.52289 0.47841
 C567 C 0.00470 0.43325 0.52947
 C568 C 0.06578 0.46557 0.49998
 C569 C 0.03516 0.49351 0.56333
 C570 C -0.00495 0.56581 0.46643
 C571 C -0.03567 0.50818 0.43543
 C572 C -0.06419 0.53517 0.49660
 H573 H -0.00973 0.47648 0.45362
 H574 H -0.04373 0.50817 0.52630
 H575 H 0.03243 0.46719 0.52837
 H576 H 0.02603 0.54459 0.49034
 H577 H 0.05064 0.52200 0.45168
 H578 H 0.06334 0.53170 0.48626
 H579 H -0.06879 0.48306 0.51453
 H580 H -0.04370 0.45956 0.53749
 H581 H 0.02126 0.50872 0.42038
 H582 H 0.03826 0.44268 0.45631
 H583 H -0.03822 0.53966 0.54596
 H584 H -0.01733 0.51263 0.56658
 H585 H 0.00932 0.42324 0.47163
 H586 H -0.04108 0.45080 0.47270
 H587 H 0.03945 0.54255 0.53912
 H588 H 0.01508 0.56810 0.51807
 O589 O 0.51192 0.93511 0.01097
 O590 O 0.49785 0.93583 -0.02637
 O591 O 0.56401 0.98514 0.00915
 O592 O 0.56699 1.02179 0.00056
 O593 O 0.51466 0.98538 0.06367
 O594 O 0.47641 0.99704 0.06647
 O595 O 0.50238 1.04911 -0.04447
 O596 O 0.53679 1.03157 -0.04971
 O597 O 0.45292 0.99821 -0.04638
 O598 O 0.44831 0.96348 -0.02920
 O599 O 0.45203 1.04540 0.00640
 O600 O 0.47306 1.04984 0.04134
 O601 O 0.48741 1.06334 -0.01185
 O602 O 0.50117 1.06304 0.02804
 O603 O 0.43603 1.01491 -0.00994
 O604 O 0.43542 0.97417 0.00292
 O605 O 0.48357 1.01532 -0.06229
 O606 O 0.52140 0.99773 -0.06492
 O607 O 0.49633 0.94912 0.04343
 O608 O 0.46174 0.96968 0.05077
 O609 O 0.54572 1.00179 0.04781
 O610 O 0.54924 1.03814 0.02748
 O611 O 0.54816 0.95400 -0.00623
 O612 O 0.52804 0.95598 -0.04310
 Zr613 Zr 0.51408 0.96334 -0.01068
 O614 O 0.49257 0.98374 -0.03049
 Zr615 Zr 0.53685 1.00782 0.01382
 O616 O 0.51693 1.03001 -0.00578
 Zr617 Zr 0.49152 0.98381 0.03683
 O618 O 0.46961 1.00546 0.01880
 Zr619 Zr 0.50793 1.01500 -0.03645
 O620 O 0.53056 0.99391 -0.01815
 Zr621 Zr 0.46267 0.99138 -0.01285
 O622 O 0.48285 0.96856 0.00611
 Zr623 Zr 0.48602 1.03588 0.01099
 O624 O 0.50690 1.01536 0.03180
 O625 O 0.52203 0.97692 0.02064
 O626 O 0.47738 1.02243 -0.02019
 C627 C 0.50409 0.93296 0.03120
 C628 C 0.56504 0.96508 0.00121
 C629 C 0.53472 0.99341 0.06467
 C630 C 0.49443 1.06527 -0.03240
 C631 C 0.46341 1.00753 -0.06307
 C632 C 0.43521 1.03492 -0.00194
 H633 H 0.48936 0.97588 -0.04480
 H634 H 0.45572 1.00796 0.02786
 H635 H 0.53183 0.96686 0.02982
 H636 H 0.52541 1.04408 -0.00854
 H637 H 0.54981 1.02127 -0.04721
 H638 H 0.56270 1.03106 -0.01274
 H639 H 0.43054 0.98290 0.01631
 H640 H 0.45572 0.95937 0.03925
 H641 H 0.52027 1.00789 -0.07831
 H642 H 0.53723 0.94196 -0.04216
 H643 H 0.46133 1.03954 0.04732
 H644 H 0.48221 1.01255 0.06800
 H645 H 0.50832 0.92269 -0.02659
 H646 H 0.45799 0.95033 -0.02542
 H647 H 0.53904 1.04226 0.04018
 H648 H 0.51461 1.06774 0.01915
 O649 O 0.43524 0.50914 0.01232
 O650 O 0.43613 0.47180 -0.00135
 O651 O 0.48507 0.50802 0.06485
 O652 O 0.52179 0.49959 0.06815
 O653 O 0.48554 0.56172 0.01472
 O654 O 0.49751 0.56416 -0.02350
 O655 O 0.54970 0.45403 0.00406
 O656 O 0.53191 0.44927 0.03857
 O657 O 0.49906 0.45155 -0.04570
 O658 O 0.46429 0.46846 -0.05080
 O659 O 0.54628 0.50428 -0.04697
 O660 O 0.55065 0.53919 -0.02621
 O661 O 0.56407 0.48635 -0.01125
 O662 O 0.56363 0.52625 0.00221
 O663 O 0.51585 0.48775 -0.06300
 O664 O 0.47498 0.50037 -0.06396
 O665 O 0.51592 0.43605 -0.01466
 O666 O 0.49808 0.43385 0.02316
 O667 O 0.44935 0.54129 -0.00363
 O668 O 0.47029 0.54820 -0.03828
 O669 O 0.50181 0.54635 0.04613
 O670 O 0.53828 0.52627 0.05012
 O671 O 0.45397 0.49244 0.04896
 O672 O 0.45611 0.45551 0.02922
 Zr673 Zr 0.46357 0.48766 0.01491
 O674 O 0.48423 0.46777 -0.00627
 Zr675 Zr 0.50799 0.51242 0.03770
 O676 O 0.53043 0.49273 0.01814
 Zr677 Zr 0.48420 0.53474 -0.00814
 O678 O 0.50614 0.51662 -0.02971
 Zr679 Zr 0.51546 0.46207 0.00939
 O680 O 0.49412 0.48048 0.03169
 Zr681 Zr 0.49210 0.48501 -0.03639
 O682 O 0.46901 0.50402 -0.01655
 Zr683 Zr 0.53654 0.50908 -0.01300
 O684 O 0.51575 0.52998 0.00752
 O685 O 0.47710 0.51896 0.02258
 O686 O 0.52312 0.47792 -0.02137
 C687 C 0.43310 0.52918 0.00422
 C688 C 0.46494 0.50006 0.06587
 C689 C 0.49342 0.56296 0.03485
 C690 C 0.56596 0.46594 -0.00401
 C691 C 0.50828 0.43506 -0.03491
 C692 C 0.53589 0.49581 -0.06381
 H693 H 0.47638 0.45346 -0.00937
 H694 H 0.50874 0.52551 -0.04371
 H695 H 0.46693 0.52817 0.03222
 H696 H 0.54447 0.49009 0.02674
 H697 H 0.52149 0.45187 0.05151
 H698 H 0.53118 0.48637 0.06406
 H699 H 0.48373 0.51369 -0.06893
 H700 H 0.45990 0.53669 -0.04415
 H701 H 0.50829 0.42053 0.02228
 H702 H 0.44200 0.45652 0.03833
 H703 H 0.54032 0.54510 -0.03797
 H704 H 0.51303 0.56578 -0.01763
 H705 H 0.42287 0.47166 0.00905
 H706 H 0.45105 0.47217 -0.04117
 H707 H 0.54247 0.53879 0.03974
 H708 H 0.56832 0.51748 0.01573
 O709 O -0.06687 0.01006 0.51123
 O710 O -0.06612 -0.02733 0.49755
 O711 O -0.01693 0.00881 0.56361
 O712 O 0.01976 0.00016 0.56683
 O713 O -0.01633 0.06246 0.51346
 O714 O -0.00450 0.06480 0.47516
 O715 O 0.04752 -0.04533 0.50280
 O716 O 0.02969 -0.05014 0.53726
 O717 O -0.00340 -0.04781 0.45308
 O718 O -0.03812 -0.03078 0.44807
 O719 O 0.04401 0.00476 0.45167
 O720 O 0.04842 0.03978 0.47237
 O721 O 0.06186 -0.01302 0.48744
 O722 O 0.06155 0.02682 0.50069
 O723 O 0.01348 -0.01168 0.43573
 O724 O -0.02736 0.00108 0.43485
 O725 O 0.01360 -0.06331 0.48403
 O726 O -0.00417 -0.06548 0.52189
 O727 O -0.05265 0.04216 0.49528
 O728 O -0.03188 0.04896 0.46055
 O729 O -0.00007 0.04703 0.54484
 O730 O 0.03630 0.02685 0.54880
 O731 O -0.04811 -0.00671 0.54782
 O732 O -0.04612 -0.04365 0.52811
 Zr733 Zr -0.03860 -0.01154 0.51375
 O734 O -0.01804 -0.03151 0.49255
 Zr735 Zr 0.00595 0.01309 0.53642
 O736 O 0.02829 -0.00664 0.51680
 Zr737 Zr -0.01787 0.03547 0.49063
 O738 O 0.00393 0.01727 0.46900
 Zr739 Zr 0.01325 -0.03729 0.50811
 O740 O -0.00801 -0.01882 0.53045
 Zr741 Zr -0.01021 -0.01431 0.46238
 O742 O -0.03318 0.00479 0.48227
 Zr743 Zr 0.03435 0.00968 0.48565
 O744 O 0.01368 0.03063 0.50622
 O745 O -0.02495 0.01972 0.52137
 O746 O 0.02085 -0.02146 0.47731
 C747 C -0.06894 0.03013 0.50317
 C748 C -0.03708 0.00092 0.56468
 C749 C -0.00838 0.06368 0.53357
 C750 C 0.06377 -0.03340 0.49474
 C751 C 0.00585 -0.06431 0.46383
 C752 C 0.03356 -0.00370 0.43487
 H753 H -0.02593 -0.04580 0.48948
 H754 H 0.00651 0.02613 0.45498
 H755 H -0.03506 0.02898 0.53104
 H756 H 0.04235 -0.00929 0.52538
 H757 H 0.01930 -0.04750 0.55022
 H758 H 0.02918 -0.01303 0.56270
 H759 H -0.01857 0.01436 0.42984
 H760 H -0.04229 0.03745 0.45469
 H761 H 0.00600 -0.07882 0.52098
 H762 H -0.06023 -0.04259 0.53723
 H763 H 0.03818 0.04558 0.46048
 H764 H 0.01104 0.06638 0.48099
 H765 H -0.07937 -0.02740 0.50798
 H766 H -0.05133 -0.02699 0.45771
 H767 H 0.04053 0.03934 0.53840
 H768 H 0.06614 0.01817 0.51432
 O769 O 0.73976 0.18588 0.26134
 O770 O 0.77889 0.18742 0.25385
 O771 O 0.73069 0.23748 0.31241
 O772 O 0.73576 0.27448 0.31525
 O773 O 0.68530 0.23393 0.25494
 O774 O 0.68848 0.24594 0.21667
 O775 O 0.79062 0.30162 0.25906
 O776 O 0.79063 0.28408 0.29385
 O777 O 0.80350 0.25068 0.21080
 O778 O 0.78972 0.21480 0.20491
 O779 O 0.74971 0.29518 0.20014
 O780 O 0.71241 0.29998 0.21499
 O781 O 0.76087 0.31468 0.23831
 O782 O 0.71870 0.31285 0.24534
 O783 O 0.76960 0.26468 0.18766
 O784 O 0.75975 0.22374 0.18664
 O785 O 0.81308 0.26864 0.24319
 O786 O 0.81014 0.25093 0.28110
 O787 O 0.71021 0.19876 0.24020
 O788 O 0.70793 0.21906 0.20470
 O789 O 0.69474 0.25139 0.28764
 O790 O 0.71193 0.28904 0.29292
 O791 O 0.74962 0.20629 0.29999
 O792 O 0.78931 0.20864 0.28541
 Zr793 Zr 0.75941 0.21485 0.26654
 O794 O 0.78178 0.23558 0.24795
 Zr795 Zr 0.72925 0.25903 0.28391
 O796 O 0.75106 0.28148 0.26688
 Zr797 Zr 0.71577 0.23361 0.23620
 O798 O 0.73639 0.25549 0.21697
 Zr799 Zr 0.78350 0.26725 0.26331
 O800 O 0.76243 0.24595 0.28317
 Zr801 Zr 0.76937 0.24225 0.21546
 O802 O 0.74822 0.21916 0.23290
 Zr803 Zr 0.73989 0.28647 0.23352
 O804 O 0.71658 0.26561 0.25129
 O805 O 0.72662 0.22762 0.26907
 O806 O 0.77266 0.27378 0.23033
 C807 C 0.72151 0.18302 0.25013
 C808 C 0.73927 0.21772 0.31535
 C809 C 0.68054 0.24196 0.27453
 C810 C 0.77953 0.31737 0.24893
 C811 C 0.81759 0.26088 0.22343
 C812 C 0.76087 0.28436 0.18490
 H813 H 0.79683 0.22819 0.24716
 H814 H 0.72977 0.25743 0.20176
 H815 H 0.71651 0.21731 0.27761
 H816 H 0.75156 0.29571 0.27544
 H817 H 0.78643 0.27365 0.30637
 H818 H 0.74979 0.28320 0.31320
 H819 H 0.74663 0.23151 0.17972
 H820 H 0.72060 0.20875 0.20086
 H821 H 0.82295 0.26155 0.28199
 H822 H 0.78732 0.19495 0.29497
 H823 H 0.70744 0.28822 0.20442
 H824 H 0.68491 0.26122 0.22234
 H825 H 0.77782 0.17452 0.26462
 H826 H 0.78491 0.20168 0.21418
 H827 H 0.70065 0.29210 0.28097
 H828 H 0.72505 0.31834 0.25969
 O829 O 0.75579 0.70674 0.69998
 O830 O 0.79095 0.70270 0.71778
 O831 O 0.70857 0.69985 0.75610
 O832 O 0.70003 0.71757 0.78791
 O833 O 0.70089 0.75514 0.70682
 O834 O 0.71974 0.78957 0.70110
 O835 O 0.76539 0.76088 0.81379
 O836 O 0.75286 0.72464 0.81495
 O837 O 0.81465 0.76395 0.76115
 O838 O 0.81640 0.75305 0.72408
 O839 O 0.76263 0.81339 0.76359
 O840 O 0.72332 0.81463 0.75433
 O841 O 0.74763 0.79231 0.80004
 O842 O 0.71047 0.79773 0.78048
 O843 O 0.79399 0.79992 0.74552
 O844 O 0.79839 0.77986 0.70843
 O845 O 0.80096 0.74687 0.79305
 O846 O 0.78402 0.70918 0.79399
 O847 O 0.73851 0.73835 0.68600
 O848 O 0.74877 0.77747 0.68565
 O849 O 0.68710 0.73739 0.73829
 O850 O 0.68802 0.74949 0.77826
 O851 O 0.73916 0.68622 0.73676
 O852 O 0.77787 0.68783 0.75247
 Zr853 Zr 0.76095 0.71402 0.73432
 O854 O 0.78242 0.73382 0.75401
 Zr855 Zr 0.71504 0.73443 0.75998
 O856 O 0.73483 0.75420 0.78140
 Zr857 Zr 0.73526 0.75993 0.71395
 O858 O 0.75529 0.78141 0.73340
 Zr859 Zr 0.76707 0.73978 0.78555
 O860 O 0.74615 0.71832 0.76659
 Zr861 Zr 0.78668 0.76587 0.73949
 O862 O 0.76743 0.74518 0.71809
 Zr863 Zr 0.74091 0.78554 0.76578
 O864 O 0.71915 0.76653 0.74513
 O865 O 0.72927 0.72842 0.72835
 O866 O 0.77289 0.77172 0.77155
 C867 C 0.74742 0.71867 0.68382
 C868 C 0.71998 0.68389 0.74678
 C869 C 0.68481 0.74656 0.71868
 C870 C 0.75677 0.78065 0.81600
 C871 C 0.81689 0.75572 0.78118
 C872 C 0.78235 0.81575 0.75474
 H873 H 0.79710 0.72589 0.75561
 H874 H 0.75685 0.79593 0.72522
 H875 H 0.71962 0.71886 0.71883
 H876 H 0.72692 0.75569 0.79613
 H877 H 0.74594 0.71035 0.81010
 H878 H 0.71013 0.71980 0.80092
 H879 H 0.78900 0.79330 0.70494
 H880 H 0.76398 0.77100 0.68273
 H881 H 0.79108 0.71095 0.80903
 H882 H 0.77565 0.67325 0.74477
 H883 H 0.72874 0.81805 0.73880
 H884 H 0.70994 0.79547 0.71340
 H885 H 0.78850 0.68737 0.71175
 H886 H 0.81194 0.73914 0.71622
 H887 H 0.68408 0.76370 0.77024
 H888 H 0.70685 0.78804 0.79373
 O889 O 0.24895 0.21210 0.80524
 O890 O 0.21242 0.20661 0.78992
 O891 O 0.29364 0.20041 0.74932
 O892 O 0.29985 0.21436 0.71467
 O893 O 0.30118 0.26060 0.79047
 O894 O 0.28109 0.29517 0.79276
 O895 O 0.23156 0.25476 0.68641
 O896 O 0.24624 0.21876 0.68879
 O897 O 0.18506 0.26226 0.73993
 O898 O 0.18501 0.25513 0.77821
 O899 O 0.23552 0.31168 0.72944
 O900 O 0.27544 0.31403 0.73729
 O901 O 0.24891 0.28752 0.69567
 O902 O 0.28717 0.29493 0.71216
 O903 O 0.20512 0.29977 0.75002
 O904 O 0.20277 0.28382 0.78971
 O905 O 0.19810 0.24187 0.70999
 O906 O 0.21656 0.20461 0.71297
 O907 O 0.26583 0.24507 0.81471
 O908 O 0.25303 0.28374 0.81100
 O909 O 0.31438 0.23982 0.76090
 O910 O 0.31152 0.24757 0.71975
 O911 O 0.26393 0.18847 0.77100
 O912 O 0.22467 0.18784 0.75684
 Zr913 Zr 0.24141 0.21607 0.77069
 O914 O 0.21854 0.23340 0.74955
 Zr915 Zr 0.28570 0.23417 0.74083
 O916 O 0.26444 0.25140 0.71792
 Zr917 Zr 0.26636 0.26405 0.78431
 O918 O 0.24488 0.28313 0.76316
 Zr919 Zr 0.23252 0.23625 0.71689
 O920 O 0.25484 0.21713 0.73751
 Zr921 Zr 0.21375 0.26668 0.76023
 O922 O 0.23450 0.24858 0.78331
 Zr923 Zr 0.25795 0.28402 0.72996
 O924 O 0.28109 0.26754 0.75188
 O925 O 0.27280 0.23141 0.77346
 O926 O 0.22626 0.26929 0.72724
 C927 C 0.25813 0.22538 0.81945
 C928 C 0.28305 0.18541 0.76105
 C929 C 0.31709 0.25091 0.77923
 C930 C 0.23901 0.27452 0.68168
 C931 C 0.18236 0.25194 0.72114
 C932 C 0.21593 0.31465 0.73841
 H933 H 0.20407 0.22515 0.74952
 H934 H 0.24314 0.29840 0.76950
 H935 H 0.28323 0.22305 0.78359
 H936 H 0.27159 0.25158 0.70273
 H937 H 0.25382 0.20510 0.69493
 H938 H 0.28964 0.21590 0.70158
 H939 H 0.21197 0.29758 0.79115
 H940 H 0.23834 0.27703 0.81534
 H941 H 0.20888 0.20468 0.69811
 H942 H 0.22739 0.17436 0.76651
 H943 H 0.26987 0.31945 0.75212
 H944 H 0.29035 0.29984 0.77951
 H945 H 0.21559 0.19216 0.79792
 H946 H 0.19029 0.24254 0.78795
 H947 H 0.31505 0.26271 0.72561
 H948 H 0.29026 0.28413 0.69983
 O949 O 0.26041 0.73748 0.18452
 O950 O 0.25298 0.77663 0.18553
 O951 O 0.31147 0.72891 0.23628
 O952 O 0.31461 0.73402 0.27333
 O953 O 0.25362 0.68399 0.23356
 O954 O 0.21549 0.68770 0.24582
 O955 O 0.25936 0.78995 0.29998
 O956 O 0.29404 0.78928 0.28211
 O957 O 0.21094 0.80252 0.24910
 O958 O 0.20476 0.78847 0.21319
 O959 O 0.20014 0.74959 0.29451
 O960 O 0.21440 0.71252 0.29998
 O961 O 0.23842 0.76069 0.31370
 O962 O 0.24517 0.71833 0.31229
 O963 O 0.18766 0.76912 0.26365
 O964 O 0.18615 0.75884 0.22276
 O965 O 0.24353 0.81196 0.26676
 O966 O 0.28121 0.80844 0.24863
 O967 O 0.23902 0.70842 0.19800
 O968 O 0.20357 0.70695 0.21863
 O969 O 0.28650 0.69332 0.25071
 O970 O 0.29208 0.71087 0.28839
 O971 O 0.29904 0.74745 0.20472
 O972 O 0.28486 0.78708 0.20633
 Zr973 Zr 0.26579 0.75753 0.21327
 O974 O 0.24771 0.78033 0.23388
 Zr975 Zr 0.28315 0.72784 0.25802
 O976 O 0.26663 0.75011 0.28036
 Zr977 Zr 0.23522 0.71455 0.23294
 O978 O 0.21647 0.73561 0.25475
 Zr979 Zr 0.26331 0.78228 0.26556
 O980 O 0.28268 0.76076 0.24436
 Zr981 Zr 0.21521 0.76835 0.24097
 O982 O 0.23214 0.74675 0.21795
 Zr983 Zr 0.23326 0.73936 0.28572
 O984 O 0.25050 0.71561 0.26499
 O985 O 0.26810 0.72499 0.22659
 O986 O 0.23033 0.77188 0.27248
 C987 C 0.24905 0.71931 0.18197
 C988 C 0.31434 0.73722 0.21632
 C989 C 0.27322 0.67917 0.24150
 C990 C 0.24919 0.77926 0.31603
 C991 C 0.22376 0.81655 0.25912
 C992 C 0.18499 0.76071 0.28355
 H993 H 0.24701 0.79525 0.22626
 H994 H 0.20124 0.72919 0.25692
 H995 H 0.27648 0.71470 0.21636
 H996 H 0.27528 0.75071 0.29458
 H997 H 0.30638 0.78483 0.27159
 H998 H 0.31293 0.74834 0.28162
 H999 H 0.17926 0.74581 0.23071
 H1000 H 0.19991 0.71943 0.20799
 H1001 H 0.28230 0.82136 0.25909
 H1002 H 0.29417 0.78483 0.19249
 H1003 H 0.20412 0.70713 0.28814
 H1004 H 0.22129 0.68420 0.26114
 H1005 H 0.26357 0.77527 0.17248
 H1006 H 0.21361 0.78320 0.19996
 H1007 H 0.28016 0.69964 0.29156
 H1008 H 0.25938 0.72485 0.31791
 O1009 O 0.18583 0.73328 0.75463
 O1010 O 0.18864 0.74753 0.71704
 O1011 O 0.24084 0.68591 0.75921
 O1012 O 0.27828 0.68577 0.75604
 O1013 O 0.23051 0.73684 0.81165
 O1014 O 0.23856 0.77574 0.81344
 O1015 O 0.30357 0.75102 0.70946
 O1016 O 0.28996 0.71505 0.70485
 O1017 O 0.24962 0.79594 0.70007
 O1018 O 0.21292 0.79868 0.71310
 O1019 O 0.29016 0.80211 0.75808
 O1020 O 0.29358 0.78185 0.79367
 O1021 O 0.31330 0.76817 0.74231
 O1022 O 0.31059 0.75488 0.78268
 O1023 O 0.26014 0.81535 0.73797
 O1024 O 0.21835 0.81267 0.74563
 O1025 O 0.27030 0.76598 0.68747
 O1026 O 0.25631 0.72711 0.68552
 O1027 O 0.19526 0.75112 0.78719
 O1028 O 0.21160 0.78769 0.79412
 O1029 O 0.25090 0.70662 0.79923
 O1030 O 0.28980 0.70567 0.78297
 O1031 O 0.21005 0.69887 0.73999
 O1032 O 0.21281 0.71888 0.70303
 Zr1033 Zr 0.21611 0.73355 0.73553
 O1034 O 0.23655 0.75592 0.71668
 Zr1035 Zr 0.25998 0.71496 0.76555
 O1036 O 0.28224 0.73588 0.74708
 Zr1037 Zr 0.22979 0.75878 0.78349
 O1038 O 0.25124 0.78165 0.76655
 Zr1039 Zr 0.26952 0.74282 0.71467
 O1040 O 0.24873 0.71933 0.73203
 Zr1041 Zr 0.23986 0.78674 0.73329
 O1042 O 0.21694 0.76548 0.75098
 Zr1043 Zr 0.28374 0.76752 0.76264
 O1044 O 0.26303 0.74583 0.78248
 O1045 O 0.22727 0.72744 0.76840
 O1046 O 0.27271 0.77426 0.72983
 C1047 C 0.18111 0.74140 0.77421
 C1048 C 0.22201 0.68306 0.74897
 C1049 C 0.23989 0.71747 0.81455
 C1050 C 0.31774 0.76081 0.72234
 C1051 C 0.26121 0.78552 0.68487
 C1052 C 0.27891 0.81795 0.74831
 H1053 H 0.22992 0.75814 0.70148
 H1054 H 0.25151 0.79582 0.77521
 H1055 H 0.21732 0.71697 0.77693
 H1056 H 0.29725 0.72850 0.74607
 H1057 H 0.28062 0.70140 0.70698
 H1058 H 0.28780 0.69008 0.74289
 H1059 H 0.22469 0.81808 0.76001
 H1060 H 0.20148 0.79205 0.78153
 H1061 H 0.26767 0.72839 0.67313
 H1062 H 0.19952 0.70881 0.70303
 H1063 H 0.28146 0.79240 0.79843
 H1064 H 0.25417 0.77090 0.81711
 H1065 H 0.17650 0.73615 0.71603
 H1066 H 0.20048 0.78783 0.71529
 H1067 H 0.29146 0.71642 0.79555
 H1068 H 0.31737 0.74181 0.77479
 O1069 O 0.25434 0.20599 0.20168
 O1070 O 0.28948 0.20188 0.21954
 O1071 O 0.20706 0.19914 0.25777
 O1072 O 0.19857 0.21686 0.28962
 O1073 O 0.19948 0.25437 0.20849
 O1074 O 0.21831 0.28882 0.20282
 O1075 O 0.26401 0.26015 0.31548
 O1076 O 0.25138 0.22391 0.31667
 O1077 O 0.31320 0.26318 0.26286
 O1078 O 0.31495 0.25216 0.22580
 O1079 O 0.26127 0.31262 0.26528
 O1080 O 0.22193 0.31389 0.25601
 O1081 O 0.24628 0.29160 0.30173
 O1082 O 0.20909 0.29701 0.28221
 O1083 O 0.29261 0.29908 0.24723
 O1084 O 0.29698 0.27905 0.21014
 O1085 O 0.29952 0.24610 0.29477
 O1086 O 0.28254 0.20841 0.29572
 O1087 O 0.23709 0.23760 0.18770
 O1088 O 0.24735 0.27673 0.18736
 O1089 O 0.18565 0.23667 0.23997
 O1090 O 0.18657 0.24881 0.27994
 O1091 O 0.23764 0.18550 0.23842
 O1092 O 0.27632 0.18704 0.25421
 Zr1093 Zr 0.25948 0.21325 0.23603
 O1094 O 0.28096 0.23303 0.25573
 Zr1095 Zr 0.21358 0.23370 0.26169
 O1096 O 0.23339 0.25346 0.28311
 Zr1097 Zr 0.23383 0.25918 0.21565
 O1098 O 0.25388 0.28064 0.23510
 Zr1099 Zr 0.26562 0.23902 0.28726
 O1100 O 0.24468 0.21758 0.26831
 Zr1101 Zr 0.28525 0.26506 0.24119
 O1102 O 0.26598 0.24439 0.21979
 Zr1103 Zr 0.23951 0.28479 0.26748
 O1104 O 0.21773 0.26580 0.24683
 O1105 O 0.22781 0.22768 0.23006
 O1106 O 0.27146 0.27093 0.27324
 C1107 C 0.24599 0.21792 0.18552
 C1108 C 0.21844 0.18318 0.24841
 C1109 C 0.18338 0.24579 0.22033
 C1110 C 0.25545 0.27995 0.31768
 C1111 C 0.31544 0.25498 0.28290
 C1112 C 0.28100 0.31493 0.25644
 H1113 H 0.29565 0.22508 0.25734
 H1114 H 0.25546 0.29516 0.22692
 H1115 H 0.21817 0.21813 0.22053
 H1116 H 0.22549 0.25498 0.29784
 H1117 H 0.24445 0.20962 0.31182
 H1118 H 0.20865 0.21913 0.30264
 H1119 H 0.28761 0.29250 0.20665
 H1120 H 0.26256 0.27025 0.18444
 H1121 H 0.28961 0.21019 0.31076
 H1122 H 0.27408 0.17246 0.24652
 H1123 H 0.22736 0.31730 0.24048
 H1124 H 0.20849 0.29471 0.21511
 H1125 H 0.28700 0.18655 0.21351
 H1126 H 0.31044 0.23833 0.21785
 H1127 H 0.18265 0.26302 0.27192
 H1128 H 0.20547 0.28734 0.29547
 O1129 O 0.73239 0.75666 0.18579
 O1130 O 0.74647 0.71923 0.18901
 O1131 O 0.68482 0.76201 0.24072
 O1132 O 0.68458 0.75922 0.27827
 O1133 O 0.73632 0.81388 0.22997
 O1134 O 0.77529 0.81555 0.23794
 O1135 O 0.74976 0.71280 0.30413
 O1136 O 0.71362 0.70832 0.29063
 O1137 O 0.79471 0.70271 0.25030
 O1138 O 0.79772 0.71533 0.21344
 O1139 O 0.80125 0.76085 0.29032
 O1140 O 0.78101 0.79651 0.29324
 O1141 O 0.76716 0.74549 0.31358
 O1142 O 0.75408 0.78566 0.31056
 O1143 O 0.81443 0.74042 0.26051
 O1144 O 0.81188 0.74770 0.21853
 O1145 O 0.76452 0.69054 0.27109
 O1146 O 0.72557 0.68867 0.25711
 O1147 O 0.75046 0.78909 0.19490
 O1148 O 0.78718 0.79597 0.21121
 O1149 O 0.70588 0.80187 0.25047
 O1150 O 0.70466 0.78606 0.28955
 O1151 O 0.69779 0.74249 0.21013
 O1152 O 0.71760 0.70564 0.21333
 Zr1153 Zr 0.73251 0.73797 0.21631
 O1154 O 0.75477 0.71931 0.23701
 Zr1155 Zr 0.71396 0.76837 0.25989
 O1156 O 0.73478 0.75014 0.28243
 Zr1157 Zr 0.75809 0.78572 0.22952
 O1158 O 0.78088 0.76898 0.25123
 Zr1159 Zr 0.74153 0.71772 0.27003
 O1160 O 0.71813 0.73489 0.24899
 Zr1161 Zr 0.78578 0.73574 0.24018
 O1162 O 0.76461 0.75320 0.21700
 Zr1163 Zr 0.76661 0.76548 0.28379
 O1164 O 0.74502 0.78511 0.26280
 O1165 O 0.72657 0.77083 0.22712
 O1166 O 0.77316 0.73269 0.27309
 C1167 C 0.74066 0.77606 0.18086
 C1168 C 0.68196 0.75162 0.22198
 C1169 C 0.71693 0.81696 0.23935
 C1170 C 0.75969 0.72567 0.31819
 C1171 C 0.78410 0.68775 0.26202
 C1172 C 0.81709 0.75090 0.27920
 H1173 H 0.75690 0.70410 0.23053
 H1174 H 0.79514 0.77754 0.25141
 H1175 H 0.71614 0.77929 0.21706
 H1176 H 0.72735 0.74931 0.29747
 H1177 H 0.69994 0.71039 0.28125
 H1178 H 0.68882 0.74626 0.28802
 H1179 H 0.81743 0.76202 0.22477
 H1180 H 0.79147 0.78332 0.20119
 H1181 H 0.72673 0.67644 0.26863
 H1182 H 0.70753 0.70555 0.20001
 H1183 H 0.79188 0.80093 0.28121
 H1184 H 0.77053 0.81934 0.25357
 H1185 H 0.73507 0.71814 0.17685
 H1186 H 0.78683 0.71735 0.20097
 H1187 H 0.71561 0.79846 0.29118
 H1188 H 0.74085 0.77796 0.31735
 O1189 O 0.70152 0.24865 0.79486
 O1190 O 0.71565 0.21135 0.79702
 O1191 O 0.76201 0.28852 0.80125
 O1192 O 0.79441 0.29357 0.78239
 O1193 O 0.71277 0.30356 0.74864
 O1194 O 0.70540 0.28734 0.71284
 O1195 O 0.81266 0.22778 0.73590
 O1196 O 0.81543 0.23877 0.77287
 O1197 O 0.75591 0.18533 0.73204
 O1198 O 0.71922 0.18705 0.74572
 O1199 O 0.76215 0.23814 0.68494
 O1200 O 0.75688 0.27832 0.68547
 O1201 O 0.80025 0.24781 0.70525
 O1202 O 0.78464 0.28727 0.70179
 O1203 O 0.74114 0.20878 0.69813
 O1204 O 0.70445 0.20782 0.71982
 O1205 O 0.78907 0.19475 0.74861
 O1206 O 0.79184 0.20931 0.78757
 O1207 O 0.68893 0.26844 0.76412
 O1208 O 0.68697 0.25969 0.72451
 O1209 O 0.74561 0.31307 0.76576
 O1210 O 0.78485 0.30838 0.75110
 O1211 O 0.74001 0.25990 0.81465
 O1212 O 0.75166 0.21962 0.81108
 Zr1213 Zr 0.73497 0.23951 0.78607
 O1214 O 0.75209 0.21671 0.76465
 Zr1215 Zr 0.76472 0.28289 0.76616
 O1216 O 0.78363 0.26157 0.74472
 Zr1217 Zr 0.71667 0.26908 0.74157
 O1218 O 0.73356 0.24778 0.71856
 Zr1219 Zr 0.78476 0.22863 0.75798
 O1220 O 0.76840 0.25066 0.78101
 Zr1221 Zr 0.73673 0.21537 0.73286
 O1222 O 0.71775 0.23615 0.75512
 Zr1223 Zr 0.76705 0.25846 0.71360
 O1224 O 0.74909 0.28173 0.73429
 O1225 O 0.73208 0.27205 0.77285
 O1226 O 0.76976 0.22570 0.72628
 C1227 C 0.68619 0.25941 0.78378
 C1228 C 0.75171 0.27784 0.81726
 C1229 C 0.72595 0.31777 0.75789
 C1230 C 0.81537 0.23648 0.71610
 C1231 C 0.77591 0.18071 0.73906
 C1232 C 0.75132 0.21969 0.68225
 H1233 H 0.75246 0.20160 0.77192
 H1234 H 0.72502 0.24772 0.70425
 H1235 H 0.72374 0.28223 0.78322
 H1236 H 0.79902 0.26773 0.74288
 H1237 H 0.81140 0.24548 0.78767
 H1238 H 0.80636 0.28245 0.77864
 H1239 H 0.70157 0.21812 0.70687
 H1240 H 0.68256 0.24477 0.73067
 H1241 H 0.80603 0.20068 0.78486
 H1242 H 0.74452 0.22224 0.82608
 H1243 H 0.74078 0.27508 0.68270
 H1244 H 0.71839 0.29637 0.70739
 H1245 H 0.71010 0.21398 0.81269
 H1246 H 0.71151 0.19207 0.75973
 H1247 H 0.77684 0.31369 0.73738
 H1248 H 0.79818 0.28904 0.71130
 C1249 C 0.07890 1.00130 1.16830
 C1250 C 0.08496 1.02292 1.15517
 C1251 C 0.07524 1.02443 1.13439
 C1252 C 0.06044 1.00416 1.12880
 C1253 C 0.04324 1.00256 1.14839
 C1254 C 0.05298 1.00105 1.16920
 C1255 C 0.08563 0.98196 1.15248
 C1256 C 0.07592 0.98347 1.13172
 C1257 C 0.08977 0.99976 1.19040
 C1258 C 0.09981 0.99894 1.20802
 C1259 C 0.05019 1.00555 1.10638
 C1260 C 0.04197 1.00600 1.08782
 H1261 H 0.09589 1.03593 1.16165
 H1262 H 0.07784 1.03871 1.12305
 H1263 H 0.02506 1.00262 1.14611
 H1264 H 0.04315 0.99981 1.18477
 H1265 H 0.09699 0.96828 1.15719
 H1266 H 0.07897 0.97107 1.11861
 C1267 C 0.57925 0.50237 0.66945
 C1268 C 0.55340 0.50058 0.67026
 C1269 C 0.54363 0.50217 0.64947
 C1270 C 0.56073 0.50538 0.62999
 C1271 C 0.57739 0.48555 0.63229
 C1272 C 0.58712 0.48396 0.65304
 C1273 C 0.58404 0.52471 0.65703
 C1274 C 0.57429 0.52630 0.63627
 C1275 C 0.59019 0.50076 0.69152
 C1276 C 0.60036 0.49989 0.70906
 C1277 C 0.55047 0.50686 0.60757
 C1278 C 0.54228 0.50740 0.58900
 H1279 H 0.54364 0.49828 0.68576
 H1280 H 0.52548 0.50124 0.64713
 H1281 H 0.58119 0.47376 0.61881
 H1282 H 0.59926 0.47082 0.65735
 H1283 H 0.59416 0.53813 0.66396
 H1284 H 0.57606 0.54105 0.62540
 C1285 C 0.42360 -0.00061 0.67155
 C1286 C 0.41513 0.01831 0.65580
 C1287 C 0.42453 0.01776 0.63470
 C1288 C 0.44149 -0.00165 0.63141
 C1289 C 0.42841 -0.02307 0.63770
 C1290 C 0.41900 -0.02252 0.65881
 C1291 C 0.44942 0.00163 0.67152
 C1292 C 0.45885 0.00108 0.65037
 C1293 C 0.41298 -0.00008 0.69400
 C1294 C 0.40293 0.00017 0.71181
 C1295 C 0.45143 -0.00217 0.60863
 C1296 C 0.45949 -0.00240 0.58986
 H1297 H 0.40284 0.03105 0.66080
 H1298 H 0.42030 0.03003 0.62161
 H1299 H 0.42672 -0.03741 0.62658
 H1300 H 0.40924 -0.03641 0.66579
 H1301 H 0.45939 0.00348 0.68672
 H1302 H 0.47693 0.00246 0.64744
 C1303 C -0.08029 0.49909 1.16882
 C1304 C -0.08540 0.51982 1.15394
 C1305 C -0.07611 0.51865 1.13281
 C1306 C -0.06262 0.49686 1.12864
 C1307 C -0.07916 0.47773 1.13399
 C1308 C -0.08846 0.47890 1.15512
 C1309 C -0.05443 0.49695 1.16886
 C1310 C -0.04512 0.49577 1.14769
 C1311 C -0.09074 0.50025 1.19131
 C1312 C -0.10055 0.50087 1.20923
 C1313 C -0.05277 0.49567 1.10586
 C1314 C -0.04472 0.49496 1.08710
 H1315 H -0.09541 0.53418 1.15952
 H1316 H -0.07816 0.53200 1.12027
 H1317 H -0.08321 0.46442 1.12224
 H1318 H -0.10047 0.46657 1.16148
 H1319 H -0.04434 0.49641 1.18412
 H1320 H -0.02702 0.49422 1.14481
 C1321 C -0.08608 0.50506 0.33442
 C1322 C -0.06179 0.49580 0.33487
 C1323 C -0.05185 0.49725 0.35551
 C1324 C -0.06714 0.50781 0.37373
 C1325 C -0.08866 0.49351 0.37388
 C1326 C -0.09862 0.49206 0.35322
 C1327 C -0.08438 0.52929 0.34315
 C1328 C -0.07441 0.53074 0.36383
 C1329 C -0.09660 0.50339 0.31208
 C1330 C -0.10479 0.50197 0.29353
 C1331 C -0.05624 0.50904 0.39593
 C1332 C -0.04699 0.50919 0.41404
 H1333 H -0.05315 0.48874 0.32025
 H1334 H -0.03469 0.49143 0.35854
 H1335 H -0.09551 0.48527 0.38891
 H1336 H -0.11398 0.48259 0.35056
 H1337 H -0.09048 0.54401 0.33392
 H1338 H -0.07197 0.54668 0.37230
 C1339 C 0.41350 1.00417 -0.16436
 C1340 C 0.40255 1.02209 -0.14909
 C1341 C 0.41233 1.02357 -0.12832
 C1342 C 0.43210 1.00699 -0.12488
 C1343 C 0.44842 1.01175 -0.14466
 C1344 C 0.43866 1.01027 -0.16539
 C1345 C 0.41251 0.98219 -0.15049
 C1346 C 0.42228 0.98367 -0.12976
 C1347 C 0.40322 1.00244 -0.18682
 C1348 C 0.39531 1.00091 -0.20550
 C1349 C 0.44284 1.00826 -0.10259
 C1350 C 0.45206 1.00846 -0.08445
 H1351 H 0.38837 1.03266 -0.15414
 H1352 H 0.40653 1.03542 -0.11559
 H1353 H 0.46610 1.01596 -0.14257
 H1354 H 0.44799 1.01321 -0.18104
 H1355 H 0.40479 0.96682 -0.15642
 H1356 H 0.42291 0.96956 -0.11794
 C1357 C 0.58700 0.49751 -0.16549
 C1358 C 0.58281 0.52092 -0.15536
 C1359 C 0.57275 0.52031 -0.13452
 C1360 C 0.56786 0.49635 -0.12583
 C1361 C 0.59075 0.48399 -0.12676
 C1362 C 0.60082 0.48460 -0.14762
 C1363 C 0.56376 0.48618 -0.16526
 C1364 C 0.55371 0.48557 -0.14443
 C1365 C 0.59758 0.49822 -0.18805
 C1366 C 0.60570 0.49884 -0.20683
 C1367 C 0.55683 0.49581 -0.10348
 C1368 C 0.54742 0.49564 -0.08528
 H1369 H 0.58737 0.53660 -0.16379
 H1370 H 0.56870 0.53547 -0.12511
 H1371 H 0.59838 0.47552 -0.11231
 H1372 H 0.61707 0.47666 -0.15105
 H1373 H 0.55590 0.47921 -0.18016
 H1374 H 0.53725 0.47808 -0.14149
 C1375 C 0.08493 -0.00260 0.33337
 C1376 C 0.08106 0.02085 0.34351
 C1377 C 0.07091 0.02037 0.36430
 C1378 C 0.06560 -0.00351 0.37293
 C1379 C 0.08830 -0.01623 0.37209
 C1380 C 0.09847 -0.01575 0.35128
 C1381 C 0.06152 -0.01357 0.33347
 C1382 C 0.05136 -0.01405 0.35425
 C1383 C 0.09564 -0.00204 0.31088
 C1384 C 0.10394 -0.00156 0.29218
 C1385 C 0.05450 -0.00392 0.39523
 C1386 C 0.04507 -0.00398 0.41341
 H1387 H 0.08591 0.03647 0.33511
 H1388 H 0.06705 0.03558 0.37371
 H1389 H 0.09573 -0.02484 0.38656
 H1390 H 0.11461 -0.02394 0.34791
 H1391 H 0.05361 -0.02039 0.31852
 H1392 H 0.03477 -0.02128 0.35711
 C1393 C 0.16914 1.07670 1.00246
 C1394 C 0.17032 1.05087 1.00389
 C1395 C 0.14961 1.04099 1.00522
 C1396 C 0.12986 1.05797 1.00499
 C1397 C 0.13341 1.07214 0.98339
 C1398 C 0.15407 1.08199 0.98206
 C1399 C 0.15515 1.08389 1.02322
 C1400 C 0.13449 1.07404 1.02455
 C1401 C 0.19108 1.08777 1.00113
 C1402 C 0.20850 1.09805 1.00052
 C1403 C 0.10755 1.04763 1.00621
 C1404 C 0.08902 1.03947 1.00659
 H1405 H 0.18599 1.04123 1.00387
 H1406 H 0.14751 1.02285 1.00635
 H1407 H 0.12080 1.07423 0.97027
 H1408 H 0.15919 1.09252 0.96780
 H1409 H 0.16099 1.09567 1.03581
 H1410 H 0.12261 1.07735 1.03826
 C1411 C 0.66900 0.57814 0.50212
 C1412 C 0.65954 0.57070 0.47932
 C1413 C 0.63874 0.56115 0.48103
 C1414 C 0.62948 0.56001 0.50539
 C1415 C 0.63007 0.58434 0.51386
 C1416 C 0.65086 0.59387 0.51215
 C1417 C 0.66854 0.55695 0.51724
 C1418 C 0.64771 0.54739 0.51896
 C1419 C 0.69111 0.58885 0.50040
 C1420 C 0.70870 0.59884 0.49952
 C1421 C 0.60704 0.54997 0.50701
 C1422 C 0.58846 0.54190 0.50763
 H1423 H 0.66841 0.57270 0.46326
 H1424 H 0.62975 0.55497 0.46643
 H1425 H 0.61547 0.59329 0.52064
 H1426 H 0.65407 0.61102 0.51746
 H1427 H 0.68326 0.55006 0.52580
 H1428 H 0.64455 0.53231 0.52901
 C1429 C 0.66926 0.41902 -0.00285
 C1430 C 0.65381 0.41168 0.01684
 C1431 C 0.63285 0.42130 0.01624
 C1432 C 0.62936 0.43734 -0.00400
 C1433 C 0.63504 0.42320 -0.02494
 C1434 C 0.65601 0.41357 -0.02434
 C1435 C 0.66960 0.44485 -0.00188
 C1436 C 0.64859 0.45450 -0.00248
 C1437 C 0.69162 0.40821 -0.00219
 C1438 C 0.70944 0.39821 -0.00175
 C1439 C 0.60672 0.44756 -0.00450
 C1440 C 0.58807 0.45588 -0.00453
 H1441 H 0.65890 0.39996 0.03012
 H1442 H 0.61999 0.41782 0.02899
 H1443 H 0.62362 0.42098 -0.03901
 H1444 H 0.66256 0.40310 -0.03791
 H1445 H 0.68494 0.45469 -0.00082
 H1446 H 0.64595 0.47262 -0.00194
 C1447 C 0.16841 -0.07715 0.49667
 C1448 C 0.16779 -0.05138 0.49425
 C1449 C 0.14643 -0.04260 0.49351
 C1450 C 0.12782 -0.06047 0.49528
 C1451 C 0.13287 -0.07361 0.51719
 C1452 C 0.15419 -0.08238 0.51792
 C1453 C 0.15437 -0.08581 0.47685
 C1454 C 0.13304 -0.07704 0.47612
 C1455 C 0.19117 -0.08707 0.49744
 C1456 C 0.20928 -0.09649 0.49791
 C1457 C 0.10482 -0.05110 0.49461
 C1458 C 0.08597 -0.04325 0.49442
 H1459 H 0.18278 -0.04097 0.49320
 H1460 H 0.14311 -0.02464 0.49182
 H1461 H 0.12076 -0.07583 0.53093
 H1462 H 0.16036 -0.09209 0.53230
 H1463 H 0.16066 -0.09777 0.46445
 H1464 H 0.12106 -0.08148 0.46311
 C1465 C 0.33479 -0.08178 0.50175
 C1466 C 0.35045 -0.08702 0.48159
 C1467 C 0.37122 -0.07740 0.48305
 C1468 C 0.37437 -0.06344 0.50455
 C1469 C 0.36892 -0.07968 0.52421
 C1470 C 0.34813 -0.08932 0.52274
 C1471 C 0.33401 -0.05594 0.50294
 C1472 C 0.35478 -0.04632 0.50440
 C1473 C 0.31230 -0.09203 0.50013
 C1474 C 0.29370 -0.10014 0.49884
 C1475 C 0.39676 -0.05292 0.50594
 C1476 C 0.41505 -0.04406 0.50657
 H1477 H 0.34564 -0.09741 0.46741
 H1478 H 0.38420 -0.07955 0.47012
 H1479 H 0.38038 -0.08331 0.53806
 H1480 H 0.34180 -0.10119 0.53534
 H1481 H 0.31848 -0.04606 0.50266
 H1482 H 0.35702 -0.02821 0.50538
 C1483 C -0.16800 0.41243 1.00119
 C1484 C -0.15892 0.41448 1.02536
 C1485 C -0.13836 0.42463 1.02640
 C1486 C -0.12884 0.43176 1.00317
 C1487 C -0.14733 0.44672 0.99264
 C1488 C -0.16788 0.43658 0.99160
 C1489 C -0.14929 0.39999 0.98802
 C1490 C -0.12873 0.41014 0.98906
 C1491 C -0.19028 0.40167 0.99999
 C1492 C -0.20879 0.39332 0.99896
 C1493 C -0.10669 0.44282 1.00410
 C1494 C -0.08855 0.45202 1.00439
 H1495 H -0.16786 0.40846 1.04035
 H1496 H -0.12970 0.42731 1.04227
 H1497 H -0.14454 0.46380 0.98654
 H1498 H -0.18265 0.44499 0.98461
 H1499 H -0.15196 0.38455 0.97872
 H1500 H -0.11380 0.40338 0.98065
 C1501 C -0.16602 0.58512 0.49817
 C1502 C -0.15235 0.58883 0.51976
 C1503 C -0.13145 0.57900 0.51922
 C1504 C -0.12630 0.56644 0.49715
 C1505 C -0.12999 0.58398 0.47823
 C1506 C -0.15090 0.59381 0.47877
 C1507 C -0.16657 0.55945 0.49525
 C1508 C -0.14569 0.54964 0.49471
 C1509 C -0.18859 0.59548 0.49878
 C1510 C -0.20735 0.60353 0.49929
 C1511 C -0.10391 0.55568 0.49666
 C1512 C -0.08568 0.54648 0.49649
 H1513 H -0.15852 0.59836 0.53419
 H1514 H -0.11972 0.58011 0.53319
 H1515 H -0.11732 0.58830 0.46555
 H1516 H -0.15614 0.60656 0.46655
 H1517 H -0.18200 0.54983 0.49372
 H1518 H -0.14324 0.53160 0.49272
 C1519 C 0.33364 1.08540 -0.00062
 C1520 C 0.34565 1.08556 0.02230
 C1521 C 0.36649 1.07562 0.02182
 C1522 C 0.37327 1.06651 -0.00153
 C1523 C 0.37104 1.08676 -0.01777
 C1524 C 0.35018 1.09670 -0.01729
 C1525 C 0.33328 1.06053 -0.00753
 C1526 C 0.35410 1.05061 -0.00801
 C1527 C 0.31110 1.09583 -0.00007
 C1528 C 0.29232 1.10383 0.00040
 C1529 C 0.39560 1.05562 -0.00196
 C1530 C 0.41377 1.04632 -0.00208
 H1531 H 0.33844 1.09285 0.03756
 H1532 H 0.37714 1.07440 0.03667
 H1533 H 0.38463 1.09276 -0.02867
 H1534 H 0.34589 1.11123 -0.02778
 H1535 H 0.31800 1.05151 -0.01170
 H1536 H 0.35666 1.03308 -0.01259
 C1537 C 0.00222 1.16706 1.07811
 C1538 C -0.00023 1.16767 1.05227
 C1539 C 0.00133 1.14692 1.04261
 C1540 C 0.00519 1.12768 1.05978
 C1541 C -0.01430 1.12984 1.07696
 C1542 C -0.01586 1.15054 1.08660
 C1543 C 0.02487 1.15500 1.08241
 C1544 C 0.02643 1.13428 1.07276
 C1545 C 0.00065 1.18910 1.08891
 C1546 C -0.00015 1.20668 1.09888
 C1547 C 0.00666 1.10532 1.04961
 C1548 C 0.00718 1.08681 1.04146
 H1549 H -0.00294 1.18300 1.04244
 H1550 H -0.00003 1.14446 1.02448
 H1551 H -0.02587 1.11629 1.08118
 H1552 H -0.02877 1.15475 1.09907
 H1553 H 0.03850 1.16213 1.09215
 H1554 H 0.04138 1.12365 1.07423
 C1555 C 0.50269 0.66971 0.57740
 C1556 C 0.48450 0.65335 0.58598
 C1557 C 0.48594 0.63258 0.57647
 C1558 C 0.50543 0.63020 0.55932
 C1559 C 0.52670 0.63675 0.57228
 C1560 C 0.52526 0.65753 0.58179
 C1561 C 0.50026 0.67018 0.55155
 C1562 C 0.50170 0.64936 0.54202
 C1563 C 0.50125 0.69180 0.58811
 C1564 C 0.50053 0.70934 0.59815
 C1565 C 0.50677 0.60777 0.54932
 C1566 C 0.50725 0.58918 0.54133
 H1567 H 0.47160 0.65771 0.59840
 H1568 H 0.47428 0.61913 0.58076
 H1569 H 0.54158 0.62604 0.57381
 H1570 H 0.53893 0.66464 0.59149
 H1571 H 0.49765 0.68547 0.54164
 H1572 H 0.50033 0.64680 0.52391
 C1573 C -0.00355 0.66947 0.42103
 C1574 C -0.00219 0.66927 0.44696
 C1575 C -0.00290 0.64814 0.45624
 C1576 C -0.00489 0.62936 0.43864
 C1577 C 0.01512 0.63295 0.42234
 C1578 C 0.01582 0.65403 0.41308
 C1579 C -0.02524 0.65662 0.41560
 C1580 C -0.02594 0.63552 0.42486
 C1581 C -0.00281 0.69192 0.41059
 C1582 C -0.00235 0.70977 0.40073
 C1583 C -0.00548 0.60662 0.44847
 C1584 C -0.00553 0.58791 0.45654
 H1585 H -0.00082 0.68434 0.45712
 H1586 H -0.00212 0.64510 0.47438
 H1587 H 0.02765 0.62006 0.41842
 H1588 H 0.02896 0.65922 0.40123
 H1589 H -0.03887 0.66351 0.40539
 H1590 H -0.04015 0.62433 0.42261
 C1591 C 0.49691 1.16885 -0.07786
 C1592 C 0.51483 1.15256 -0.08736
 C1593 C 0.51385 1.13149 -0.07811
 C1594 C 0.49504 1.12876 -0.06027
 C1595 C 0.47325 1.13599 -0.07230
 C1596 C 0.47423 1.15708 -0.08156
 C1597 C 0.50033 1.16842 -0.05215
 C1598 C 0.49935 1.14730 -0.04288
 C1599 C 0.49797 1.19130 -0.08828
 C1600 C 0.49872 1.20916 -0.09808
 C1601 C 0.49417 1.10603 -0.05045
 C1602 C 0.49396 1.08734 -0.04235
 H1603 H 0.52722 1.15719 -0.10021
 H1604 H 0.52539 1.11806 -0.08305
 H1605 H 0.45836 1.12550 -0.07343
 H1606 H 0.46016 1.16468 -0.09062
 H1607 H 0.50324 1.18334 -0.04212
 H1608 H 0.50142 1.14412 -0.02488
 C1609 C 0.50481 0.33396 -0.08420
 C1610 C 0.48542 0.35008 -0.09056
 C1611 C 0.48695 0.37075 -0.08085
 C1612 C 0.50773 0.37330 -0.06571
 C1613 C 0.52802 0.36735 -0.08096
 C1614 C 0.52649 0.34665 -0.09068
 C1615 C 0.50462 0.33315 -0.05821
 C1616 C 0.50616 0.35381 -0.04850
 C1617 C 0.50302 0.31161 -0.09447
 C1618 C 0.50146 0.29308 -0.10253
 C1619 C 0.50905 0.39552 -0.05508
 C1620 C 0.50925 0.41366 -0.04602
 H1621 H 0.47171 0.34567 -0.10173
 H1622 H 0.47455 0.38403 -0.08372
 H1623 H 0.54232 0.37839 -0.08386
 H1624 H 0.53947 0.33997 -0.10192
 H1625 H 0.50342 0.31769 -0.04829
 H1626 H 0.50628 0.35603 -0.03028
 C1627 C 0.00201 -0.16535 0.41436
 C1628 C -0.01777 -0.14944 0.40870
 C1629 C -0.01618 -0.12880 0.41846
 C1630 C 0.00504 -0.12605 0.43293
 C1631 C 0.02491 -0.13168 0.41702
 C1632 C 0.02331 -0.15235 0.40724
 C1633 C 0.00266 -0.16628 0.44033
 C1634 C 0.00426 -0.14564 0.45008
 C1635 C 0.00019 -0.18769 0.40403
 C1636 C -0.00132 -0.20623 0.39599
 C1637 C 0.00643 -0.10385 0.44362
 C1638 C 0.00672 -0.08572 0.45271
 H1639 H -0.03178 -0.15398 0.39795
 H1640 H -0.02884 -0.11566 0.41606
 H1641 H 0.03897 -0.12044 0.41371
 H1642 H 0.03601 -0.15881 0.39556
 H1643 H 0.00196 -0.18180 0.45020
 H1644 H 0.00493 -0.14350 0.46830
 C1645 C 0.50110 -0.16553 0.58478
 C1646 C 0.49811 -0.16583 0.55899
 C1647 C 0.49783 -0.14492 0.54925
 C1648 C 0.50056 -0.12574 0.56624
 C1649 C 0.52256 -0.13126 0.57880
 C1650 C 0.52284 -0.15219 0.58855
 C1651 C 0.48195 -0.15027 0.59362
 C1652 C 0.48167 -0.12934 0.58387
 C1653 C 0.50138 -0.18814 0.59507
 C1654 C 0.50153 -0.20689 0.60310
 C1655 C 0.50025 -0.10330 0.55559
 C1656 C 0.49999 -0.08499 0.54654
 H1657 H 0.49637 -0.18112 0.54923
 H1658 H 0.49584 -0.14232 0.53116
 H1659 H 0.53666 -0.11974 0.57996
 H1660 H 0.53718 -0.15859 0.59806
 H1661 H 0.46972 -0.15544 0.60641
 H1662 H 0.46919 -0.11658 0.58831
 C1663 C -0.00124 0.33154 1.08366
 C1664 C -0.00181 0.33076 1.05770
 C1665 C -0.00253 0.35151 1.04764
 C1666 C -0.00261 0.37102 1.06451
 C1667 C 0.01842 0.36706 1.07911
 C1668 C 0.01914 0.34629 1.08919
 C1669 C -0.02203 0.34565 1.09049
 C1670 C -0.02275 0.36642 1.08041
 C1671 C -0.00047 0.30911 1.09432
 C1672 C 0.00009 0.29048 1.10264
 C1673 C -0.00334 0.39331 1.05354
 C1674 C -0.00383 0.41153 1.04433
 H1675 H -0.00166 0.31527 1.04806
 H1676 H -0.00300 0.35378 1.02938
 H1677 H 0.03157 0.37947 1.08136
 H1678 H 0.03291 0.34092 1.10006
 H1679 H -0.03502 0.33985 1.10221
 H1680 H -0.03636 0.37841 1.08350
 C1681 C 0.76212 0.32813 0.07976
 C1682 C 0.74377 0.33766 0.09563
 C1683 C 0.74455 0.32912 0.11707
 C1684 C 0.76360 0.31182 0.12070
 C1685 C 0.78530 0.32405 0.11335
 C1686 C 0.78452 0.33264 0.09181
 C1687 C 0.75918 0.30247 0.08100
 C1688 C 0.75996 0.29390 0.10250
 C1689 C 0.76041 0.33768 0.05674
 C1690 C 0.75699 0.34639 0.03850
 C1691 C 0.76383 0.30253 0.14390
 C1692 C 0.76296 0.29456 0.16279
 H1693 H 0.73124 0.35012 0.09046
 H1694 H 0.73271 0.33426 0.13022
 H1695 H 0.79997 0.32578 0.12409
 H1696 H 0.79852 0.34171 0.08411
 H1697 H 0.75679 0.29194 0.06629
 H1698 H 0.75822 0.27603 0.10617
 C1699 C 0.26238 0.83070 0.58042
 C1700 C 0.26261 0.80483 0.58107
 C1701 C 0.26344 0.79597 0.60245
 C1702 C 0.26395 0.81383 0.62111
 C1703 C 0.24312 0.82875 0.61685
 C1704 C 0.24229 0.83759 0.59553
 C1705 C 0.28342 0.83766 0.59363
 C1706 C 0.28425 0.82878 0.61504
 C1707 C 0.26068 0.84058 0.55757
 C1708 C 0.25746 0.84967 0.53949
 C1709 C 0.26424 0.80424 0.64416
 C1710 C 0.26337 0.79602 0.66293
 H1711 H 0.26224 0.79440 0.56608
 H1712 H 0.26377 0.77793 0.60575
 H1713 H 0.23013 0.83213 0.62950
 H1714 H 0.22857 0.84852 0.58996
 H1715 H 0.29652 0.84853 0.58677
 H1716 H 0.29805 0.83206 0.62651
 C1717 C 0.75380 0.67459 0.58015
 C1718 C 0.74843 0.69994 0.57982
 C1719 C 0.74710 0.70914 0.60088
 C1720 C 0.75125 0.69203 0.62012
 C1721 C 0.77439 0.68135 0.61470
 C1722 C 0.77573 0.67215 0.59365
 C1723 C 0.73544 0.66409 0.59539
 C1724 C 0.73411 0.67326 0.61637
 C1725 C 0.75449 0.66418 0.55778
 C1726 C 0.75308 0.65430 0.54016
 C1727 C 0.74963 0.70168 0.64281
 C1728 C 0.74836 0.70941 0.66155
 H1729 H 0.74598 0.70981 0.56445
 H1730 H 0.74347 0.72689 0.60355
 H1731 H 0.78849 0.68107 0.62635
 H1732 H 0.79095 0.66402 0.58723
 H1733 H 0.72442 0.65060 0.59013
 H1734 H 0.72198 0.66763 0.62907
 C1735 C 0.25261 0.17397 0.08180
 C1736 C 0.25125 0.19981 0.08148
 C1737 C 0.24985 0.20897 0.10255
 C1738 C 0.24993 0.19135 0.12179
 C1739 C 0.27149 0.17726 0.11787
 C1740 C 0.27289 0.16810 0.09681
 C1741 C 0.23181 0.16637 0.09552
 C1742 C 0.23041 0.17549 0.11651
 C1743 C 0.25340 0.16360 0.05941
 C1744 C 0.25211 0.15377 0.04174
 C1745 C 0.24826 0.20096 0.14449
 C1746 C 0.24695 0.20867 0.16324
 H1747 H 0.25144 0.21000 0.06611
 H1748 H 0.24881 0.22703 0.10524
 H1749 H 0.28452 0.17473 0.13049
 H1750 H 0.28712 0.15776 0.09138
 H1751 H 0.21923 0.15480 0.08926
 H1752 H 0.21666 0.17176 0.12823
 C1753 C 0.25871 0.17885 0.92287
 C1754 C 0.25881 0.20468 0.92425
 C1755 C 0.25968 0.21516 0.90357
 C1756 C 0.26035 0.19872 0.88363
 C1757 C 0.23957 0.18376 0.88701
 C1758 C 0.23871 0.17334 0.90758
 C1759 C 0.27983 0.17269 0.90889
 C1760 C 0.28070 0.18315 0.88824
 C1761 C 0.25706 0.16703 0.94472
 C1762 C 0.25411 0.15614 0.96179
 C1763 C 0.26073 0.20946 0.86118
 C1764 C 0.26001 0.21726 0.84228
 H1765 H 0.25832 0.21391 0.94003
 H1766 H 0.25993 0.23337 0.90163
 H1767 H 0.22661 0.18155 0.87434
 H1768 H 0.22500 0.16221 0.91250
 H1769 H 0.29298 0.16122 0.91473
 H1770 H 0.29459 0.18064 0.87638
 C1771 C 0.76038 0.67845 0.42124
 C1772 C 0.76321 0.70411 0.42272
 C1773 C 0.76430 0.71462 0.40207
 C1774 C 0.76246 0.69839 0.38206
 C1775 C 0.74036 0.68562 0.38624
 C1776 C 0.73927 0.67517 0.40678
 C1777 C 0.78018 0.67030 0.40639
 C1778 C 0.78128 0.68080 0.38576
 C1779 C 0.75845 0.66665 0.44308
 C1780 C 0.75525 0.65588 0.46018
 C1781 C 0.76297 0.70922 0.35965
 C1782 C 0.76210 0.71721 0.34084
 H1783 H 0.76432 0.71318 0.43854
 H1784 H 0.76636 0.73271 0.40018
 H1785 H 0.72671 0.68486 0.37411
 H1786 H 0.72468 0.66546 0.41222
 H1787 H 0.79232 0.65751 0.41163
 H1788 H 0.79435 0.67699 0.37333
 C1789 C 0.25628 0.82561 0.41895
 C1790 C 0.27156 0.83652 0.40086
 C1791 C 0.27014 0.82672 0.38014
 C1792 C 0.25357 0.80695 0.37948
 C1793 C 0.23105 0.81665 0.38812
 C1794 C 0.23247 0.82643 0.40880
 C1795 C 0.26292 0.80054 0.41908
 C1796 C 0.26150 0.79072 0.39832
 C1797 C 0.25705 0.83674 0.44108
 C1798 C 0.25558 0.84719 0.45849
 C1799 C 0.25183 0.79666 0.35700
 C1800 C 0.25040 0.78860 0.33836
 H1801 H 0.28259 0.85066 0.40407
 H1802 H 0.27995 0.83249 0.36561
 H1803 H 0.21533 0.81589 0.37882
 H1804 H 0.21792 0.83404 0.41718
 H1805 H 0.26830 0.79134 0.43410
 H1806 H 0.26565 0.77309 0.39558
 C1807 C 0.75764 0.32263 0.92105
 C1808 C 0.77216 0.33477 0.90312
 C1809 C 0.77129 0.32527 0.88221
 C1810 C 0.75596 0.30453 0.88122
 C1811 C 0.73293 0.31270 0.89010
 C1812 C 0.73380 0.32218 0.91096
 C1813 C 0.76580 0.29800 0.92069
 C1814 C 0.76492 0.28847 0.89974
 C1815 C 0.75773 0.33342 0.94339
 C1816 C 0.75557 0.34349 0.96097
 C1817 C 0.75468 0.29456 0.85853
 C1818 C 0.75330 0.28679 0.83975
 H1819 H 0.78231 0.34949 0.90657
 H1820 H 0.78068 0.33188 0.86777
 H1821 H 0.71726 0.31115 0.88083
 H1822 H 0.71885 0.32873 0.91951
 H1823 H 0.77177 0.28888 0.93552
 H1824 H 0.77014 0.27118 0.89665
 C1825 C 0.82281 0.42116 0.25615
 C1826 C 0.81308 0.41236 0.27870
 C1827 C 0.80395 0.39135 0.27723
 C1828 C 0.80546 0.38126 0.25337
 C1829 C 0.83062 0.38202 0.24704
 C1830 C 0.83972 0.40293 0.24850
 C1831 C 0.80324 0.41979 0.23932
 C1832 C 0.79412 0.39883 0.23786
 C1833 C 0.83322 0.44354 0.25693
 C1834 C 0.84319 0.46116 0.25539
 C1835 C 0.79591 0.35857 0.25158
 C1836 C 0.78838 0.33979 0.25012
 H1837 H 0.81331 0.42176 0.29437
 H1838 H 0.79635 0.38277 0.29168
 H1839 H 0.84047 0.36739 0.24188
 H1840 H 0.85737 0.40618 0.24459
 H1841 H 0.79702 0.43406 0.22948
 H1842 H 0.78013 0.39515 0.22676
 C1843 C 0.32386 0.92093 0.75642
 C1844 C 0.33192 0.90754 0.73568
 C1845 C 0.32235 0.88687 0.73399
 C1846 C 0.30561 0.88148 0.75318
 C1847 C 0.28839 0.90102 0.75283
 C1848 C 0.29800 0.92178 0.75453
 C1849 C 0.32862 0.90538 0.77677
 C1850 C 0.31902 0.88464 0.77507
 C1851 C 0.33481 0.94303 0.75750
 C1852 C 0.34521 0.96041 0.75632
 C1853 C 0.29560 0.85901 0.75117
 C1854 C 0.28784 0.84034 0.74960
 H1855 H 0.34412 0.91380 0.72334
 H1856 H 0.32635 0.87545 0.72023
 H1857 H 0.27028 0.89875 0.75141
 H1858 H 0.28812 0.93728 0.75459
 H1859 H 0.33857 0.91024 0.79126
 H1860 H 0.32078 0.87174 0.78811
 C1861 C 0.17800 0.91994 0.26000
 C1862 C 0.18515 0.91077 0.23679
 C1863 C 0.19517 0.89009 0.23780
 C1864 C 0.19710 0.88049 0.26191
 C1865 C 0.17289 0.88090 0.27144
 C1866 C 0.16286 0.90162 0.27044
 C1867 C 0.19963 0.91938 0.27420
 C1868 C 0.20970 0.89857 0.27521
 C1869 C 0.16667 0.94196 0.25815
 C1870 C 0.15627 0.95924 0.25495
 C1871 C 0.20752 0.85795 0.26235
 C1872 C 0.21531 0.83914 0.26147
 H1873 H 0.18263 0.91980 0.22092
 H1874 H 0.20121 0.88141 0.22278
 H1875 H 0.16440 0.86622 0.27845
 H1876 H 0.14577 0.90469 0.27660
 H1877 H 0.20639 0.93395 0.28270
 H1878 H 0.22511 0.89533 0.28458
 C1879 C 0.68014 0.42120 0.75895
 C1880 C 0.67882 0.40831 0.73661
 C1881 C 0.68900 0.38770 0.73729
 C1882 C 0.69955 0.38187 0.76025
 C1883 C 0.68020 0.38453 0.77754
 C1884 C 0.67000 0.40521 0.77685
 C1885 C 0.70546 0.42211 0.76436
 C1886 C 0.71569 0.40139 0.76505
 C1887 C 0.66860 0.44315 0.75751
 C1888 C 0.65795 0.46034 0.75470
 C1889 C 0.71007 0.35938 0.76046
 C1890 C 0.71779 0.34052 0.75970
 H1891 H 0.67062 0.41484 0.72150
 H1892 H 0.68950 0.37659 0.72278
 H1893 H 0.67503 0.37136 0.78934
 H1894 H 0.65609 0.40976 0.78807
 H1895 H 0.71451 0.43761 0.76743
 H1896 H 0.73352 0.39913 0.76870
 C1897 C 0.67627 0.58030 0.75398
 C1898 C 0.67057 0.59514 0.77442
 C1899 C 0.67964 0.61617 0.77295
 C1900 C 0.69349 0.62026 0.75119
 C1901 C 0.67737 0.61497 0.73183
 C1902 C 0.66834 0.59401 0.73329
 C1903 C 0.70216 0.58016 0.75228
 C1904 C 0.71123 0.60120 0.75082
 C1905 C 0.66597 0.55791 0.75480
 C1906 C 0.65617 0.54026 0.75344
 C1907 C 0.70303 0.64295 0.74941
 C1908 C 0.71071 0.66166 0.74797
 H1909 H 0.66040 0.58961 0.78879
 H1910 H 0.67722 0.62868 0.78607
 H1911 H 0.67340 0.62666 0.71814
 H1912 H 0.65661 0.58776 0.72082
 H1913 H 0.71245 0.56493 0.75229
 H1914 H 0.72931 0.60400 0.74955
 C1915 C 0.17486 0.07948 0.25430
 C1916 C 0.20058 0.07946 0.25070
 C1917 C 0.20958 0.10055 0.24957
 C1918 C 0.19195 0.11953 0.25214
 C1919 C 0.17971 0.11440 0.27465
 C1920 C 0.17072 0.09332 0.27578
 C1921 C 0.16546 0.09413 0.23492
 C1922 C 0.17443 0.11515 0.23379
 C1923 C 0.16467 0.05704 0.25476
 C1924 C 0.15500 0.03935 0.25312
 C1925 C 0.20143 0.14226 0.25070
 C1926 C 0.20912 0.16098 0.24947
 H1927 H 0.21082 0.06427 0.24925
 H1928 H 0.22754 0.10342 0.24713
 H1929 H 0.17829 0.12627 0.28848
 H1930 H 0.16160 0.08710 0.29057
 H1931 H 0.15282 0.08847 0.22307
 H1932 H 0.16949 0.12747 0.22101
 C1933 C 0.32778 0.08134 0.76287
 C1934 C 0.33513 0.09630 0.74281
 C1935 C 0.32621 0.11749 0.74330
 C1936 C 0.31077 0.12176 0.76381
 C1937 C 0.32528 0.11588 0.78452
 C1938 C 0.33423 0.09461 0.78402
 C1939 C 0.30185 0.08187 0.76249
 C1940 C 0.29290 0.10313 0.76299
 C1941 C 0.33782 0.05868 0.76153
 C1942 C 0.34718 0.04080 0.75858
 C1943 C 0.30118 0.14467 0.76381
 C1944 C 0.29314 0.16340 0.76292
 H1945 H 0.34641 0.09072 0.72934
 H1946 H 0.32986 0.13003 0.73029
 H1947 H 0.32821 0.12738 0.79836
 H1948 H 0.34483 0.08788 0.79744
 H1949 H 0.29145 0.06690 0.76197
 H1950 H 0.27481 0.10635 0.76289
 C1951 C 0.82728 0.58314 0.26273
 C1952 C 0.82905 0.59365 0.28631
 C1953 C 0.82064 0.61515 0.28734
 C1954 C 0.81133 0.62394 0.26467
 C1955 C 0.79380 0.60643 0.25766
 C1956 C 0.80218 0.58499 0.25663
 C1957 C 0.83926 0.59981 0.24670
 C1958 C 0.83090 0.62119 0.24772
 C1959 C 0.83667 0.56024 0.26079
 C1960 C 0.84540 0.54215 0.25734
 C1961 C 0.80224 0.64704 0.26512
 C1962 C 0.79434 0.66584 0.26428
 H1963 H 0.83620 0.58500 0.30088
 H1964 H 0.82061 0.62490 0.30279
 H1965 H 0.77630 0.61050 0.25390
 H1966 H 0.79188 0.57072 0.25201
 H1967 H 0.85318 0.59520 0.23551
 H1968 H 0.83765 0.63488 0.23743
 C1969 C 0.92093 0.26003 0.17685
 C1970 C 0.90533 0.24026 0.17159
 C1971 C 0.88469 0.24174 0.18175
 C1972 C 0.88154 0.26285 0.19625
 C1973 C 0.88672 0.28270 0.18020
 C1974 C 0.90746 0.28122 0.16998
 C1975 C 0.92198 0.26067 0.20280
 C1976 C 0.90124 0.26216 0.21302
 C1977 C 0.94291 0.25768 0.16539
 C1978 C 0.96016 0.25414 0.15496
 C1979 C 0.85903 0.26377 0.20685
 C1980 C 0.84020 0.26314 0.21481
 H1981 H 0.91010 0.22626 0.16079
 H1982 H 0.87181 0.22901 0.17965
 H1983 H 0.87518 0.29671 0.17719
 H1984 H 0.91368 0.29395 0.15823
 H1985 H 0.93761 0.26010 0.21229
 H1986 H 0.89910 0.26286 0.23127
 C1987 C 0.42138 0.76134 0.67638
 C1988 C 0.41069 0.78501 0.67566
 C1989 C 0.38985 0.78612 0.68573
 C1990 C 0.38182 0.76343 0.69550
 C1991 C 0.40066 0.75568 0.71160
 C1992 C 0.42147 0.75458 0.70153
 C1993 C 0.40384 0.74597 0.66557
 C1994 C 0.38311 0.74706 0.67560
 C1995 C 0.44347 0.75939 0.66505
 C1996 C 0.46080 0.75612 0.65466
 C1997 C 0.35923 0.76396 0.70595
 C1998 C 0.34037 0.76314 0.71380
 H1999 H 0.41879 0.79960 0.66800
 H2000 H 0.38009 0.80165 0.68670
 H2001 H 0.39791 0.75152 0.72935
 H2002 H 0.43655 0.74948 0.71065
 H2003 H 0.40740 0.73514 0.65123
 H2004 H 0.36894 0.73718 0.66983
 C2005 C 0.42055 0.25740 0.82388
 C2006 C 0.42128 0.25714 0.79789
 C2007 C 0.40041 0.25608 0.78829
 C2008 C 0.38091 0.25538 0.80564
 C2009 C 0.38419 0.27627 0.82039
 C2010 C 0.40504 0.27733 0.82999
 C2011 C 0.40713 0.23632 0.83074
 C2012 C 0.38636 0.23526 0.82118
 C2013 C 0.44274 0.25772 0.83482
 C2014 C 0.46013 0.25585 0.84519
 C2015 C 0.35833 0.25392 0.79566
 C2016 C 0.33957 0.25248 0.78798
 H2017 H 0.43678 0.25780 0.78793
 H2018 H 0.39804 0.25581 0.77009
 H2019 H 0.37130 0.28913 0.82301
 H2020 H 0.41001 0.29109 0.84080
 H2021 H 0.41343 0.22330 0.84215
 H2022 H 0.37490 0.22137 0.82439
 C2023 C 0.92067 0.75737 0.32376
 C2024 C 0.92126 0.75626 0.29780
 C2025 C 0.90034 0.75502 0.28834
 C2026 C 0.88091 0.75500 0.30578
 C2027 C 0.88440 0.77634 0.31982
 C2028 C 0.90531 0.77759 0.32928
 C2029 C 0.90713 0.73660 0.33136
 C2030 C 0.88629 0.73536 0.32194
 C2031 C 0.94295 0.75788 0.33451
 C2032 C 0.96048 0.75605 0.34467
 C2033 C 0.85828 0.75341 0.29589
 C2034 C 0.83953 0.75206 0.28816
 H2035 H 0.93671 0.75651 0.28775
 H2036 H 0.89788 0.75418 0.27017
 H2037 H 0.87160 0.78936 0.32209
 H2038 H 0.91042 0.79166 0.33962
 H2039 H 0.91340 0.72391 0.34316
 H2040 H 0.87476 0.72165 0.32566
 C2041 C 0.08050 0.76242 0.32789
 C2042 C 0.08138 0.76175 0.30194
 C2043 C 0.10278 0.76252 0.29322
 C2044 C 0.12122 0.76388 0.31132
 C2045 C 0.11706 0.74357 0.32701
 C2046 C 0.09572 0.74280 0.33569
 C2047 C 0.09338 0.78380 0.33425
 C2048 C 0.11482 0.78457 0.32552
 C2049 C 0.05765 0.76076 0.33763
 C2050 C 0.03957 0.75751 0.34662
 C2051 C 0.14427 0.76406 0.30191
 C2052 C 0.16305 0.76307 0.29384
 H2053 H 0.06652 0.76085 0.29134
 H2054 H 0.10625 0.76226 0.27514
 H2055 H 0.12979 0.73088 0.33099
 H2056 H 0.09020 0.72944 0.34711
 H2057 H 0.08628 0.79716 0.34461
 H2058 H 0.12609 0.79858 0.32841
 C2059 C 0.58170 0.26041 0.82820
 C2060 C 0.59808 0.24335 0.83908
 C2061 C 0.61938 0.24405 0.83028
 C2062 C 0.62232 0.26174 0.81141
 C2063 C 0.61451 0.28409 0.82196
 C2064 C 0.59312 0.28339 0.83081
 C2065 C 0.58281 0.25548 0.80276
 C2066 C 0.60416 0.25619 0.79393
 C2067 C 0.55892 0.25889 0.83808
 C2068 C 0.54088 0.25590 0.84723
 C2069 C 0.64533 0.26195 0.80193
 C2070 C 0.66413 0.26119 0.79390
 H2071 H 0.59335 0.23173 0.85260
 H2072 H 0.63286 0.23305 0.83624
 H2073 H 0.62483 0.29912 0.82241
 H2074 H 0.58511 0.29781 0.83883
 H2075 H 0.56813 0.25186 0.79257
 H2076 H 0.60776 0.25315 0.77616
 C2077 C 0.58107 0.75340 0.67470
 C2078 C 0.59019 0.77618 0.68242
 C2079 C 0.61126 0.77473 0.69159
 C2080 C 0.62107 0.75065 0.69208
 C2081 C 0.62015 0.74269 0.66751
 C2082 C 0.59916 0.74413 0.65838
 C2083 C 0.58231 0.73797 0.69568
 C2084 C 0.60334 0.73653 0.70483
 C2085 C 0.55868 0.75423 0.66431
 C2086 C 0.54102 0.75296 0.65443
 C2087 C 0.64377 0.74892 0.70170
 C2088 C 0.66252 0.74758 0.70942
 H2089 H 0.58094 0.79199 0.68088
 H2090 H 0.62007 0.78934 0.69790
 H2091 H 0.63471 0.73647 0.65808
 H2092 H 0.59577 0.73915 0.64110
 H2093 H 0.56791 0.72904 0.70277
 H2094 H 0.60698 0.72633 0.71974
 C2095 C 0.08006 0.25194 0.17531
 C2096 C 0.09599 0.27072 0.16726
 C2097 C 0.11692 0.26944 0.17668
 C2098 C 0.11985 0.24949 0.19320
 C2099 C 0.11369 0.22861 0.17958
 C2100 C 0.09281 0.22988 0.17019
 C2101 C 0.07966 0.25349 0.20123
 C2102 C 0.10062 0.25221 0.21066
 C2103 C 0.05779 0.25259 0.16465
 C2104 C 0.04024 0.25118 0.15461
 C2105 C 0.14245 0.24793 0.20309
 C2106 C 0.16114 0.24670 0.21097
 H2107 H 0.09123 0.28389 0.15530
 H2108 H 0.13011 0.28151 0.17276
 H2109 H 0.12474 0.21406 0.17750
 H2110 H 0.08600 0.21640 0.16006
 H2111 H 0.06433 0.25548 0.21127
 H2112 H 0.10324 0.25308 0.22880
 C2113 C -0.07698 1.00032 0.83127
 C2114 C -0.05124 1.00315 0.82980
 C2115 C -0.04087 1.00168 0.85031
 C2116 C -0.05731 0.99752 0.87017
 C2117 C -0.07019 0.97617 0.86393
 C2118 C -0.08054 0.97764 0.84347
 C2119 C -0.08514 1.01818 0.84814
 C2120 C -0.07480 1.01671 0.86860
 C2121 C -0.08857 1.00172 0.80953
 C2122 C -0.09920 1.00225 0.79226
 C2123 C -0.04652 0.99604 0.89233
 C2124 C -0.03822 0.99528 0.91085
 H2125 H -0.04200 1.00606 0.81410
 H2126 H -0.02272 1.00331 0.85220
 H2127 H -0.07108 0.96120 0.87461
 H2128 H -0.09031 0.96391 0.83661
 H2129 H -0.09789 1.03089 0.84435
 H2130 H -0.07869 1.02816 0.88235
 C2131 C 0.42333 0.49918 0.33252
 C2132 C 0.41900 0.52019 0.34692
 C2133 C 0.42902 0.51919 0.36756
 C2134 C 0.44238 0.49728 0.37177
 C2135 C 0.45919 0.49569 0.35187
 C2136 C 0.44915 0.49669 0.33118
 C2137 C 0.41541 0.47930 0.34733
 C2138 C 0.42542 0.47830 0.36797
 C2139 C 0.41208 0.50010 0.31059
 C2140 C 0.40169 0.50034 0.29317
 C2141 C 0.45286 0.49630 0.39410
 C2142 C 0.46105 0.49587 0.41267
 H2143 H 0.40899 0.53460 0.34137
 H2144 H 0.42759 0.53275 0.37972
 H2145 H 0.47735 0.49394 0.35386
 H2146 H 0.45868 0.49581 0.31542
 H2147 H 0.40303 0.46705 0.34205
 H2148 H 0.42164 0.46521 0.38038
 C2149 C 0.57874 0.00619 0.33107
 C2150 C 0.58357 0.02831 0.34336
 C2151 C 0.57410 0.02940 0.36443
 C2152 C 0.56075 0.00827 0.37111
 C2153 C 0.57748 -0.01141 0.36827
 C2154 C 0.58695 -0.01250 0.34722
 C2155 C 0.55290 0.00425 0.33106
 C2156 C 0.54342 0.00535 0.35216
 C2157 C 0.58938 0.00501 0.30865
 C2158 C 0.59931 0.00422 0.29080
 C2159 C 0.55072 0.00922 0.39383
 C2160 C 0.54253 0.00936 0.41255
 H2161 H 0.59352 0.04193 0.33613
 H2162 H 0.57593 0.04394 0.37526
 H2163 H 0.58155 -0.02345 0.38162
 H2164 H 0.59910 -0.02549 0.34253
 H2165 H 0.54295 0.00222 0.31587
 H2166 H 0.52531 0.00426 0.35505
 C2167 C 0.07766 0.50346 0.82971
 C2168 C 0.08609 0.52289 0.84433
 C2169 C 0.07617 0.52373 0.86520
 C2170 C 0.05880 0.50507 0.86938
 C2171 C 0.07164 0.48295 0.86492
 C2172 C 0.08156 0.48211 0.84406
 C2173 C 0.05190 0.50654 0.82893
 C2174 C 0.04196 0.50739 0.84983
 C2175 C 0.08874 0.50252 0.80749
 C2176 C 0.09890 0.50186 0.78976
 C2177 C 0.04828 0.50576 0.89189
 C2178 C 0.03975 0.50572 0.91047
 H2179 H 0.09873 0.53495 0.83875
 H2180 H 0.08029 0.53650 0.87751
 H2181 H 0.07282 0.46915 0.87707
 H2182 H 0.09123 0.46758 0.83833
 H2183 H 0.04234 0.50794 0.81337
 H2184 H 0.02386 0.50952 0.85219
 C2185 C 0.08489 0.49760 0.66468
 C2186 C 0.06059 0.48874 0.66573
 C2187 C 0.05063 0.48733 0.64509
 C2188 C 0.06593 0.49492 0.62538
 C2189 C 0.08744 0.48044 0.62757
 C2190 C 0.09742 0.48185 0.64824
 C2191 C 0.08319 0.52029 0.65208
 C2192 C 0.07323 0.51888 0.63144
 C2193 C 0.09544 0.49918 0.68701
 C2194 C 0.10363 0.50047 0.70557
 C2195 C 0.05508 0.49364 0.60317
 C2196 C 0.04602 0.49319 0.58496
 H2197 H 0.05197 0.48397 0.68134
 H2198 H 0.03349 0.48135 0.64301
 H2199 H 0.09424 0.47000 0.61409
 H2200 H 0.11276 0.47262 0.65246
 H2201 H 0.08930 0.53608 0.65878
 H2202 H 0.07080 0.53347 0.62046
 C2203 C 0.58490 0.99900 0.16574
 C2204 C 0.56003 0.99191 0.16718
 C2205 C 0.54996 0.99015 0.14662
 C2206 C 0.56574 0.99566 0.12659
 C2207 C 0.58620 0.97985 0.12958
 C2208 C 0.59628 0.98161 0.15018
 C2209 C 0.58478 1.02108 0.15200
 C2210 C 0.57471 1.01933 0.13143
 C2211 C 0.59555 1.00096 0.18801
 C2212 C 0.60381 1.00253 0.20652
 C2213 C 0.55478 0.99401 0.10444
 C2214 C 0.54564 0.99331 0.08628
 H2215 H 0.55110 0.98854 0.18298
 H2216 H 0.53243 0.98527 0.14481
 H2217 H 0.59224 0.96831 0.11668
 H2218 H 0.61095 0.97157 0.15490
 H2219 H 0.59198 1.03672 0.15789
 H2220 H 0.57330 1.03348 0.11972
 C2221 C 0.41447 0.49912 0.16785
 C2222 C 0.40980 0.52078 0.15419
 C2223 C 0.41985 0.52102 0.13333
 C2224 C 0.43357 0.49957 0.12818
 C2225 C 0.41690 0.48012 0.13169
 C2226 C 0.40685 0.47988 0.15256
 C2227 C 0.44033 0.49701 0.16857
 C2228 C 0.45036 0.49725 0.14773
 C2229 C 0.40390 0.49887 0.19042
 C2230 C 0.39582 0.49871 0.20922
 C2231 C 0.44454 0.49981 0.10579
 C2232 C 0.45378 0.49996 0.08752
 H2233 H 0.39950 0.53469 0.16035
 H2234 H 0.41815 0.53514 0.12161
 H2235 H 0.41328 0.46765 0.11891
 H2236 H 0.39463 0.46721 0.15765
 H2237 H 0.44992 0.49547 0.18410
 H2238 H 0.46855 0.49591 0.14542
 C2239 C -0.08718 0.00093 0.66684
 C2240 C -0.06929 -0.01771 0.66380
 C2241 C -0.05936 -0.01770 0.64290
 C2242 C -0.06826 0.00096 0.62708
 C2243 C -0.06495 0.02296 0.64006
 C2244 C -0.07489 0.02294 0.66095
 C2245 C -0.10392 -0.00242 0.64746
 C2246 C -0.09397 -0.00240 0.62654
 C2247 C -0.09762 0.00092 0.68945
 C2248 C -0.10559 0.00093 0.70831
 C2249 C -0.05740 0.00096 0.60465
 C2250 C -0.04821 0.00095 0.58635
 H2251 H -0.06484 -0.02987 0.67690
 H2252 H -0.04639 -0.02984 0.63812
 H2253 H -0.05564 0.03730 0.63341
 H2254 H -0.07409 0.03728 0.67220
 H2255 H -0.12197 -0.00460 0.64995
 H2256 H -0.10350 -0.00457 0.61111
 C2257 C -0.16859 0.92457 0.99909
 C2258 C -0.15569 0.91967 0.97699
 C2259 C -0.13498 0.92943 0.97581
 C2260 C -0.12922 0.94311 0.99684
 C2261 C -0.13192 0.92663 1.01685
 C2262 C -0.15263 0.91687 1.01803
 C2263 C -0.16951 0.95036 1.00066
 C2264 C -0.14874 0.96015 0.99947
 C2265 C -0.19055 0.91355 1.00020
 C2266 C -0.20795 0.90324 1.00055
 C2267 C -0.10683 0.95327 0.99568
 C2268 C -0.08818 0.96114 0.99512
 H2269 H -0.16228 0.90946 0.96343
 H2270 H -0.12380 0.92760 0.96125
 H2271 H -0.11873 0.92298 1.02905
 H2272 H -0.15721 0.90486 1.03125
 H2273 H -0.18504 0.96006 1.00253
 H2274 H -0.14646 0.97826 1.00032
 C2275 C 0.33179 0.42451 0.50110
 C2276 C 0.34586 0.42124 0.52259
 C2277 C 0.36643 0.43133 0.52143
 C2278 C 0.37087 0.44368 0.49889
 C2279 C 0.35095 0.46024 0.49623
 C2280 C 0.33035 0.45012 0.49739
 C2281 C 0.34691 0.41582 0.48176
 C2282 C 0.36746 0.42591 0.48060
 C2283 C 0.30996 0.41320 0.50217
 C2284 C 0.29261 0.40278 0.50245
 C2285 C 0.39310 0.45421 0.49773
 C2286 C 0.41164 0.46235 0.49713
 H2287 H 0.34016 0.41187 0.53743
 H2288 H 0.37837 0.43060 0.53528
 H2289 H 0.35286 0.47827 0.49366
 H2290 H 0.31458 0.45947 0.49583
 H2291 H 0.34188 0.40289 0.46997
 H2292 H 0.38005 0.42164 0.46782
 C2293 C 0.32907 0.57435 0.00113
 C2294 C 0.34005 0.57567 0.02453
 C2295 C 0.36115 0.56635 0.02534
 C2296 C 0.36921 0.55663 0.00266
 C2297 C 0.36713 0.57619 -0.01438
 C2298 C 0.34605 0.58551 -0.01519
 C2299 C 0.32966 0.54924 -0.00487
 C2300 C 0.35080 0.53991 -0.00407
 C2301 C 0.30658 0.58487 0.00031
 C2302 C 0.28872 0.59475 -0.00016
 C2303 C 0.39201 0.54677 0.00347
 C2304 C 0.41080 0.53880 0.00395
 H2305 H 0.33193 0.58323 0.03920
 H2306 H 0.37111 0.56593 0.04069
 H2307 H 0.38100 0.58220 -0.02492
 H2308 H 0.34186 0.59949 -0.02643
 H2309 H 0.31483 0.53966 -0.00934
 H2310 H 0.35407 0.52230 -0.00785
 C2311 C -0.17185 0.07778 0.50065
 C2312 C -0.15726 0.08567 0.52038
 C2313 C -0.13647 0.07570 0.52108
 C2314 C -0.13228 0.05880 0.50197
 C2315 C -0.13666 0.07213 0.48003
 C2316 C -0.15745 0.08211 0.47933
 C2317 C -0.17272 0.05203 0.50318
 C2318 C -0.15188 0.04203 0.50388
 C2319 C -0.19400 0.08901 0.49998
 C2320 C -0.21157 0.09944 0.49970
 C2321 C -0.10978 0.04829 0.50267
 C2322 C -0.09115 0.03994 0.50305
 H2323 H -0.16280 0.09800 0.53276
 H2324 H -0.12420 0.07948 0.53403
 H2325 H -0.12450 0.07359 0.46622
 H2326 H -0.16312 0.09210 0.46493
 H2327 H -0.18828 0.04250 0.50432
 H2328 H -0.14959 0.02392 0.50562
 C2329 C 0.66594 0.08762 0.49602
 C2330 C 0.66393 0.07140 0.47603
 C2331 C 0.64338 0.06125 0.47475
 C2332 C 0.62680 0.06830 0.49358
 C2333 C 0.62558 0.09414 0.49196
 C2334 C 0.64615 0.10429 0.49324
 C2335 C 0.65985 0.07341 0.51703
 C2336 C 0.63932 0.06328 0.51575
 C2337 C 0.68825 0.09829 0.49753
 C2338 C 0.70685 0.10639 0.49888
 C2339 C 0.60467 0.05720 0.49249
 C2340 C 0.58658 0.04788 0.49233
 H2341 H 0.67746 0.06819 0.46392
 H2342 H 0.63933 0.04938 0.46155
 H2343 H 0.60995 0.10363 0.48995
 H2344 H 0.64811 0.12246 0.49234
 H2345 H 0.67071 0.07149 0.53165
 H2346 H 0.63264 0.05269 0.52928
 C2347 C 0.16333 0.58167 0.99491
 C2348 C 0.16129 0.56509 0.97523
 C2349 C 0.14053 0.55541 0.97378
 C2350 C 0.12380 0.56324 0.99215
 C2351 C 0.12322 0.58907 0.98997
 C2352 C 0.14399 0.59875 0.99141
 C2353 C 0.15654 0.56807 1.01609
 C2354 C 0.13580 0.55841 1.01465
 C2355 C 0.18582 0.59192 0.99656
 C2356 C 0.20446 0.59989 0.99797
 C2357 C 0.10145 0.55264 0.99087
 C2358 C 0.08321 0.54366 0.99054
 H2359 H 0.17495 0.56130 0.96344
 H2360 H 0.13643 0.54335 0.96077
 H2361 H 0.10786 0.59887 0.98748
 H2362 H 0.14641 0.61684 0.99017
 H2363 H 0.16710 0.56621 1.03095
 H2364 H 0.12863 0.54826 1.02828
 C2365 C 0.16765 0.41565 0.49962
 C2366 C 0.15444 0.41216 0.52185
 C2367 C 0.13360 0.42213 0.52190
 C2368 C 0.12804 0.43459 0.49972
 C2369 C 0.13121 0.41691 0.48112
 C2370 C 0.15205 0.40694 0.48107
 C2371 C 0.16828 0.44130 0.49602
 C2372 C 0.14746 0.45125 0.49607
 C2373 C 0.19016 0.40517 0.49960
 C2374 C 0.20892 0.39712 0.49969
 C2375 C 0.10569 0.44545 0.49978
 C2376 C 0.08743 0.45458 0.49986
 H2377 H 0.16087 0.40268 0.53627
 H2378 H 0.12218 0.42119 0.53636
 H2379 H 0.11822 0.41259 0.46907
 H2380 H 0.15693 0.39408 0.46898
 H2381 H 0.18373 0.45081 0.49363
 H2382 H 0.14508 0.46929 0.49372
 C2383 C 0.66700 0.91541 -0.00054
 C2384 C 0.64913 0.90222 -0.01351
 C2385 C 0.62825 0.91211 -0.01312
 C2386 C 0.62733 0.93421 0.00020
 C2387 C 0.64567 0.94907 -0.01060
 C2388 C 0.66652 0.93919 -0.01099
 C2389 C 0.65714 0.91816 0.02341
 C2390 C 0.63627 0.92805 0.02380
 C2391 C 0.68955 0.90502 -0.00094
 C2392 C 0.70835 0.89707 -0.00118
 C2393 C 0.60496 0.94500 0.00061
 C2394 C 0.58669 0.95409 0.00091
 H2395 H 0.65257 0.88650 -0.02221
 H2396 H 0.61379 0.90488 -0.02149
 H2397 H 0.64255 0.96589 -0.01736
 H2398 H 0.68126 0.94754 -0.01809
 H2399 H 0.66577 0.91278 0.03871
 H2400 H 0.62703 0.93115 0.03943
 C2401 C 0.00009 0.83038 0.92483
 C2402 C -0.02164 0.84345 0.91902
 C2403 C -0.02290 0.86422 0.92856
 C2404 C -0.00232 0.86987 0.94297
 C2405 C 0.01816 0.86680 0.92714
 C2406 C 0.01942 0.84603 0.91760
 C2407 C 0.00077 0.82970 0.95080
 C2408 C -0.00050 0.85052 0.96036
 C2409 C 0.00128 0.80831 0.91403
 C2410 C 0.00169 0.79087 0.90380
 C2411 C -0.00358 0.89233 0.95295
 C2412 C -0.00421 0.91096 0.96081
 H2413 H -0.03490 0.83693 0.90837
 H2414 H -0.03723 0.87550 0.92609
 H2415 H 0.03059 0.87978 0.92374
 H2416 H 0.03295 0.84120 0.90604
 H2417 H 0.00213 0.81429 0.96076
 H2418 H -0.00023 0.85296 0.97855
 C2419 C 0.49967 0.33251 0.42531
 C2420 C 0.47742 0.34521 0.42081
 C2421 C 0.47621 0.36576 0.43081
 C2422 C 0.49736 0.37158 0.44431
 C2423 C 0.51710 0.36923 0.42746
 C2424 C 0.51832 0.34869 0.41746
 C2425 C 0.50163 0.33136 0.45119
 C2426 C 0.50041 0.35196 0.46121
 C2427 C 0.50082 0.31068 0.41406
 C2428 C 0.50121 0.29336 0.40363
 C2429 C 0.49616 0.39382 0.45473
 C2430 C 0.49561 0.41238 0.46276
 H2431 H 0.46379 0.33861 0.41069
 H2432 H 0.46155 0.37679 0.42927
 H2433 H 0.52910 0.38254 0.42372
 H2434 H 0.53136 0.34437 0.40516
 H2435 H 0.50377 0.31579 0.46077
 H2436 H 0.50150 0.35406 0.47941
 C2437 C 0.00164 0.32974 0.57511
 C2438 C 0.00660 0.32958 0.54956
 C2439 C 0.00745 0.35061 0.54005
 C2440 C 0.00326 0.36965 0.55707
 C2441 C 0.02078 0.36575 0.57571
 C2442 C 0.01993 0.34477 0.58520
 C2443 C -0.02046 0.34323 0.57772
 C2444 C -0.01961 0.36422 0.56823
 C2445 C 0.00080 0.30741 0.58579
 C2446 C 0.00042 0.28966 0.59581
 C2447 C 0.00411 0.39230 0.54708
 C2448 C 0.00456 0.41101 0.53905
 H2449 H 0.00920 0.31434 0.53982
 H2450 H 0.01079 0.35340 0.52215
 H2451 H 0.03281 0.37833 0.58098
 H2452 H 0.03125 0.33937 0.59860
 H2453 H -0.03547 0.33684 0.58623
 H2454 H -0.03389 0.37582 0.56861
 C2455 C 0.50154 0.82935 0.07666
 C2456 C 0.50018 0.82940 0.05073
 C2457 C 0.50092 0.85047 0.04132
 C2458 C 0.50294 0.86935 0.05881
 C2459 C 0.52398 0.86322 0.07263
 C2460 C 0.52324 0.84219 0.08202
 C2461 C 0.48219 0.84487 0.08452
 C2462 C 0.48292 0.86590 0.07513
 C2463 C 0.50079 0.80696 0.08725
 C2464 C 0.50039 0.78917 0.09719
 C2465 C 0.50366 0.89204 0.04889
 C2466 C 0.50402 0.91076 0.04086
 H2467 H 0.49877 0.81427 0.04067
 H2468 H 0.50014 0.85340 0.02317
 H2469 H 0.53821 0.87441 0.07482
 H2470 H 0.53686 0.83534 0.09227
 H2471 H 0.46903 0.83977 0.09640
 H2472 H 0.47041 0.87883 0.07896
 C2473 C 0.49718 0.66437 0.08366
 C2474 C 0.48119 0.64813 0.09618
 C2475 C 0.47987 0.62745 0.08641
 C2476 C 0.49468 0.62504 0.06507
 C2477 C 0.51861 0.63115 0.07262
 C2478 C 0.51992 0.65181 0.08239
 C2479 C 0.48863 0.66517 0.05919
 C2480 C 0.48732 0.64451 0.04943
 C2481 C 0.49865 0.68671 0.09401
 C2482 C 0.49984 0.70526 0.10209
 C2483 C 0.49348 0.60281 0.05443
 C2484 C 0.49308 0.58460 0.04554
 H2485 H 0.47174 0.65250 0.11138
 H2486 H 0.46929 0.61410 0.09323
 H2487 H 0.53325 0.62019 0.07051
 H2488 H 0.53568 0.65853 0.08863
 H2489 H 0.48400 0.68062 0.05032
 H2490 H 0.48155 0.64227 0.03220
 C2491 C -0.00323 0.16497 0.58240
 C2492 C -0.01955 0.14901 0.59486
 C2493 C -0.02120 0.12836 0.58506
 C2494 C -0.00636 0.12572 0.56377
 C2495 C 0.01765 0.13140 0.57142
 C2496 C 0.01929 0.15202 0.58120
 C2497 C -0.01168 0.16594 0.55790
 C2498 C -0.01333 0.14532 0.54811
 C2499 C -0.00141 0.18727 0.59276
 C2500 C 0.00003 0.20580 0.60084
 C2501 C -0.00789 0.10352 0.55312
 C2502 C -0.00853 0.08532 0.54422
 H2503 H -0.02898 0.15352 0.61003
 H2504 H -0.03203 0.11520 0.59183
 H2505 H 0.03211 0.12019 0.56935
 H2506 H 0.03514 0.15847 0.58751
 H2507 H -0.01602 0.18147 0.54902
 H2508 H -0.01907 0.14319 0.53086
 C2509 C 0.50201 0.16852 0.41613
 C2510 C 0.49874 0.16897 0.44193
 C2511 C 0.49935 0.14817 0.45188
 C2512 C 0.50319 0.12893 0.43507
 C2513 C 0.52505 0.13500 0.42229
 C2514 C 0.52443 0.15583 0.41233
 C2515 C 0.48372 0.15258 0.40758
 C2516 C 0.48434 0.13176 0.41754
 C2517 C 0.50131 0.19103 0.40566
 C2518 C 0.50072 0.20978 0.39764
 C2519 C 0.50373 0.10660 0.44595
 C2520 C 0.50388 0.08837 0.45515
 H2521 H 0.49616 0.18429 0.45155
 H2522 H 0.49731 0.14569 0.47002
 H2523 H 0.53971 0.12393 0.42116
 H2524 H 0.53856 0.16260 0.40266
 H2525 H 0.47139 0.15723 0.39481
 H2526 H 0.47253 0.11857 0.41330
 C2527 C 0.00056 0.66557 0.91496
 C2528 C -0.00349 0.66550 0.94067
 C2529 C -0.00335 0.64449 0.95018
 C2530 C 0.00084 0.62557 0.93307
 C2531 C 0.02312 0.63172 0.92110
 C2532 C 0.02297 0.65276 0.91158
 C2533 C -0.01759 0.64998 0.90551
 C2534 C -0.01744 0.62895 0.91504
 C2535 C 0.00038 0.68831 0.90495
 C2536 C 0.00023 0.70720 0.89723
 C2537 C 0.00092 0.60302 0.94353
 C2538 C 0.00080 0.58468 0.95252
 H2539 H -0.00624 0.68063 0.95055
 H2540 H -0.00596 0.64165 0.96820
 H2541 H 0.03771 0.62054 0.92016
 H2542 H 0.03744 0.65959 0.90248
 H2543 H -0.02949 0.65500 0.89248
 H2544 H -0.02922 0.61596 0.91015
 C2545 C 0.23827 0.67092 0.91846
 C2546 C 0.23931 0.69676 0.91848
 C2547 C 0.23881 0.70622 0.89733
 C2548 C 0.23733 0.68890 0.87823
 C2549 C 0.21635 0.67481 0.88403
 C2550 C 0.21685 0.66535 0.90519
 C2551 C 0.25794 0.66346 0.90306
 C2552 C 0.25744 0.67288 0.88198
 C2553 C 0.23955 0.66034 0.94102
 C2554 C 0.24232 0.65062 0.95884
 C2555 C 0.23729 0.69898 0.85539
 C2556 C 0.23811 0.70729 0.83667
 H2557 H 0.24027 0.70675 0.93374
 H2558 H 0.23935 0.72431 0.89449
 H2559 H 0.20233 0.67251 0.87256
 H2560 H 0.20326 0.65496 0.91185
 H2561 H 0.27115 0.65175 0.90827
 H2562 H 0.27020 0.66923 0.86917
 C2563 C 0.73770 0.17305 0.42018
 C2564 C 0.73847 0.19890 0.41965
 C2565 C 0.73789 0.20791 0.39830
 C2566 C 0.73662 0.19018 0.37956
 C2567 C 0.71578 0.17599 0.38566
 C2568 C 0.71635 0.16697 0.40702
 C2569 C 0.75746 0.16548 0.40494
 C2570 C 0.75689 0.17446 0.38367
 C2571 C 0.73915 0.16296 0.44299
 C2572 C 0.74232 0.15369 0.46100
 C2573 C 0.73655 0.19983 0.35650
 C2574 C 0.73740 0.20783 0.33762
 H2575 H 0.73929 0.20923 0.43469
 H2576 H 0.73824 0.22595 0.39509
 H2577 H 0.70180 0.17329 0.37423
 H2578 H 0.70287 0.15658 0.41388
 H2579 H 0.77077 0.15401 0.41040
 H2580 H 0.76969 0.17066 0.37096
 C2581 C 0.25027 0.32570 0.42067
 C2582 C 0.26714 0.33734 0.40456
 C2583 C 0.26850 0.32784 0.38373
 C2584 C 0.25287 0.30760 0.38099
 C2585 C 0.22913 0.31647 0.38708
 C2586 C 0.22776 0.32600 0.40797
 C2587 C 0.25773 0.30087 0.42128
 C2588 C 0.25910 0.29133 0.40039
 C2589 C 0.24940 0.33645 0.44288
 C2590 C 0.25039 0.34651 0.46043
 C2591 C 0.25439 0.29757 0.35846
 C2592 C 0.25529 0.28953 0.33983
 H2593 H 0.27716 0.35183 0.40915
 H2594 H 0.27968 0.33415 0.37049
 H2595 H 0.21467 0.31532 0.37597
 H2596 H 0.21215 0.33301 0.41478
 H2597 H 0.26154 0.29158 0.43673
 H2598 H 0.26411 0.27387 0.39793
 C2599 C 0.75021 0.82601 0.91906
 C2600 C 0.75268 0.80024 0.91982
 C2601 C 0.75438 0.79077 0.89891
 C2602 C 0.75343 0.80804 0.87937
 C2603 C 0.77229 0.82481 0.88424
 C2604 C 0.77060 0.83425 0.90508
 C2605 C 0.72963 0.83073 0.90409
 C2606 C 0.73132 0.82127 0.88320
 C2607 C 0.74904 0.83670 0.94128
 C2608 C 0.74988 0.84680 0.95882
 C2609 C 0.75529 0.79810 0.85683
 C2610 C 0.75642 0.79014 0.83818
 H2611 H 0.75302 0.79032 0.93536
 H2612 H 0.75619 0.77272 0.89652
 H2613 H 0.78580 0.82891 0.87237
 H2614 H 0.78270 0.84646 0.91106
 H2615 H 0.71501 0.84056 0.90943
 H2616 H 0.71814 0.82301 0.87062
 C2617 C 0.74076 0.82248 0.07743
 C2618 C 0.72052 0.83011 0.09198
 C2619 C 0.71944 0.81967 0.11262
 C2620 C 0.73870 0.80264 0.11666
 C2621 C 0.76046 0.81602 0.11274
 C2622 C 0.76154 0.82642 0.09218
 C2623 C 0.73869 0.79674 0.07601
 C2624 C 0.73760 0.78628 0.09669
 C2625 C 0.74266 0.83428 0.05560
 C2626 C 0.74586 0.84516 0.03857
 C2627 C 0.73813 0.79192 0.13912
 C2628 C 0.73877 0.78415 0.15802
 H2629 H 0.70810 0.84254 0.08651
 H2630 H 0.70609 0.82315 0.12485
 H2631 H 0.77391 0.81721 0.12506
 H2632 H 0.77592 0.83651 0.08690
 H2633 H 0.73806 0.78757 0.06021
 H2634 H 0.73605 0.76814 0.09863
 C2635 C 0.23972 0.32210 0.57882
 C2636 C 0.24062 0.29629 0.57724
 C2637 C 0.23915 0.28560 0.59777
 C2638 C 0.23694 0.30183 0.61780
 C2639 C 0.21630 0.31672 0.61236
 C2640 C 0.21776 0.32740 0.59184
 C2641 C 0.25875 0.32817 0.59509
 C2642 C 0.25729 0.31755 0.61551
 C2643 C 0.24205 0.33410 0.55712
 C2644 C 0.24558 0.34505 0.54019
 C2645 C 0.23606 0.29085 0.64013
 C2646 C 0.23672 0.28285 0.65895
 H2647 H 0.24217 0.28721 0.56142
 H2648 H 0.23945 0.26737 0.59956
 H2649 H 0.20179 0.31863 0.62359
 H2650 H 0.20451 0.33845 0.58547
 H2651 H 0.27225 0.33983 0.59091
 H2652 H 0.26954 0.32012 0.62881
 C2653 C 0.74352 0.17540 0.57836
 C2654 C 0.76467 0.16803 0.59151
 C2655 C 0.76624 0.17737 0.61237
 C2656 C 0.74653 0.19325 0.61822
 C2657 C 0.72519 0.17904 0.61510
 C2658 C 0.72361 0.16967 0.59417
 C2659 C 0.74440 0.20127 0.57782
 C2660 C 0.74597 0.21065 0.59877
 C2661 C 0.74263 0.16473 0.55598
 C2662 C 0.74410 0.15466 0.53834
 C2663 C 0.74844 0.20308 0.64093
 C2664 C 0.75000 0.21077 0.65973
 H2665 H 0.77737 0.15642 0.58495
 H2666 H 0.78025 0.17377 0.62364
 H2667 H 0.71240 0.17661 0.62818
 H2668 H 0.70949 0.15924 0.58933
 H2669 H 0.74377 0.21131 0.56238
 H2670 H 0.74671 0.22874 0.60124
 C2671 C 0.24203 0.67321 0.07896
 C2672 C 0.26305 0.66626 0.09251
 C2673 C 0.26430 0.67612 0.11316
 C2674 C 0.24444 0.69202 0.11838
 C2675 C 0.22321 0.67763 0.11536
 C2676 C 0.22195 0.66774 0.09465
 C2677 C 0.24277 0.69907 0.07779
 C2678 C 0.24403 0.70896 0.09852
 C2679 C 0.24143 0.66199 0.05688
 C2680 C 0.24294 0.65148 0.03952
 C2681 C 0.24605 0.70235 0.14085
 C2682 C 0.24753 0.71029 0.15953
 H2683 H 0.27589 0.65458 0.08639
 H2684 H 0.27819 0.67288 0.12467
 H2685 H 0.21028 0.67545 0.12834
 H2686 H 0.20795 0.65712 0.08989
 H2687 H 0.24228 0.70874 0.06210
 H2688 H 0.24464 0.72711 0.10057
 C2689 C 0.17773 0.57971 0.74241
 C2690 C 0.16697 0.59507 0.76038
 C2691 C 0.17654 0.61577 0.76151
 C2692 C 0.19600 0.61923 0.74457
 C2693 C 0.18589 0.61405 0.72133
 C2694 C 0.17627 0.59326 0.72019
 C2695 C 0.20299 0.57894 0.74817
 C2696 C 0.21260 0.59974 0.74930
 C2697 C 0.16676 0.55760 0.74198
 C2698 C 0.15633 0.54028 0.74372
 C2699 C 0.20596 0.64177 0.74607
 C2700 C 0.21353 0.66052 0.74750
 H2701 H 0.15299 0.59008 0.77132
 H2702 H 0.17077 0.62849 0.77339
 H2703 H 0.18631 0.62565 0.70701
 H2704 H 0.16848 0.58705 0.70492
 H2705 H 0.21248 0.56345 0.75101
 H2706 H 0.23034 0.60205 0.75313
 C2707 C 0.67705 0.07981 0.24273
 C2708 C 0.70299 0.07914 0.24184
 C2709 C 0.71261 0.09993 0.24316
 C2710 C 0.69532 0.11930 0.24526
 C2711 C 0.68073 0.11314 0.26593
 C2712 C 0.67115 0.09245 0.26461
 C2713 C 0.67005 0.09594 0.22352
 C2714 C 0.67967 0.11670 0.22485
 C2715 C 0.66608 0.05770 0.24218
 C2716 C 0.65569 0.04036 0.24405
 C2717 C 0.70530 0.14181 0.24698
 C2718 C 0.71292 0.16053 0.24856
 H2719 H 0.71290 0.06375 0.24024
 H2720 H 0.73078 0.10234 0.24271
 H2721 H 0.67815 0.12407 0.28038
 H2722 H 0.66036 0.08569 0.27796
 H2723 H 0.65865 0.09143 0.21003
 H2724 H 0.67647 0.12998 0.21248
 C2725 C 0.82184 0.07741 0.73956
 C2726 C 0.82906 0.09112 0.71857
 C2727 C 0.81891 0.11182 0.71713
 C2728 C 0.80254 0.11674 0.73683
 C2729 C 0.81663 0.11330 0.75827
 C2730 C 0.82674 0.09270 0.75970
 C2731 C 0.79594 0.07638 0.73842
 C2732 C 0.78578 0.09709 0.73698
 C2733 C 0.83325 0.05546 0.74190
 C2734 C 0.84368 0.03828 0.74555
 C2735 C 0.79203 0.13923 0.73599
 C2736 C 0.78423 0.15806 0.73669
 H2737 H 0.84101 0.08508 0.70591
 H2738 H 0.82216 0.12351 0.70325
 H2739 H 0.81851 0.12597 0.77125
 H2740 H 0.83726 0.08776 0.77391
 H2741 H 0.78645 0.06079 0.73863
 H2742 H 0.76758 0.09924 0.73596
 C2743 C 0.32014 0.57632 0.24191
 C2744 C 0.31945 0.58877 0.26456
 C2745 C 0.30889 0.60917 0.26350
 C2746 C 0.29998 0.61524 0.23990
 C2747 C 0.28473 0.59550 0.23349
 C2748 C 0.29535 0.57497 0.23455
 C2749 C 0.33122 0.59287 0.22514
 C2750 C 0.32063 0.61333 0.22408
 C2751 C 0.33213 0.55464 0.24377
 C2752 C 0.34317 0.53775 0.24691
 C2753 C 0.28911 0.63756 0.23931
 C2754 C 0.28127 0.65637 0.23984
 H2755 H 0.32662 0.58210 0.28013
 H2756 H 0.30701 0.61996 0.27816
 H2757 H 0.26719 0.59746 0.22853
 H2758 H 0.28694 0.55935 0.23050
 H2759 H 0.34603 0.58885 0.21491
 H2760 H 0.32636 0.62683 0.21295
 C2761 C 0.32559 0.41816 0.25042
 C2762 C 0.33175 0.40300 0.23036
 C2763 C 0.32253 0.38205 0.23185
 C2764 C 0.30806 0.37834 0.25327
 C2765 C 0.29042 0.39750 0.25288
 C2766 C 0.29966 0.41847 0.25139
 C2767 C 0.33285 0.40469 0.27152
 C2768 C 0.32365 0.38379 0.27301
 C2769 C 0.33601 0.44047 0.24946
 C2770 C 0.34584 0.45813 0.25047
 C2771 C 0.29833 0.35573 0.25494
 C2772 C 0.29047 0.33708 0.25602
 H2773 H 0.34236 0.40827 0.21621
 H2774 H 0.32525 0.36935 0.21897
 H2775 H 0.27230 0.39483 0.25369
 H2776 H 0.28947 0.43376 0.25089
 H2777 H 0.34426 0.41106 0.28423
 H2778 H 0.32715 0.37226 0.28696
 C2779 C 0.82564 0.91959 0.74899
 C2780 C 0.83213 0.90459 0.72890
 C2781 C 0.82326 0.88348 0.73029
 C2782 C 0.80877 0.87946 0.75165
 C2783 C 0.79083 0.89833 0.75126
 C2784 C 0.79971 0.91946 0.74987
 C2785 C 0.83305 0.90618 0.77008
 C2786 C 0.82420 0.88512 0.77147
 C2787 C 0.83568 0.94209 0.74816
 C2788 C 0.84521 0.95991 0.74932
 C2789 C 0.79939 0.85669 0.75324
 C2790 C 0.79172 0.83795 0.75429
 H2791 H 0.84270 0.91008 0.71480
 H2792 H 0.82624 0.87087 0.71739
 H2793 H 0.77275 0.89536 0.75199
 H2794 H 0.78926 0.93458 0.74938
 H2795 H 0.84430 0.91269 0.78284
 H2796 H 0.82785 0.87360 0.78539
 C2797 C 0.67248 0.92115 0.23863
 C2798 C 0.66422 0.90559 0.25785
 C2799 C 0.67314 0.88441 0.25706
 C2800 C 0.68948 0.88075 0.23712
 C2801 C 0.70729 0.89928 0.23935
 C2802 C 0.69835 0.92052 0.24015
 C2803 C 0.66696 0.90860 0.21676
 C2804 C 0.67591 0.88733 0.21596
 C2805 C 0.66249 0.94382 0.24025
 C2806 C 0.65331 0.96177 0.24335
 C2807 C 0.69905 0.85784 0.23682
 C2808 C 0.70703 0.83907 0.23754
 H2809 H 0.65236 0.91076 0.27097
 H2810 H 0.66890 0.87147 0.26948
 H2811 H 0.72535 0.89600 0.24016
 H2812 H 0.70874 0.93543 0.24163
 H2813 H 0.65698 0.91579 0.20311
 H2814 H 0.67359 0.87629 0.20163
 C2815 C 0.17185 0.41893 0.73742
 C2816 C 0.17070 0.40846 0.71378
 C2817 C 0.17944 0.38710 0.71284
 C2818 C 0.18845 0.37837 0.73566
 C2819 C 0.16852 0.38078 0.75225
 C2820 C 0.15982 0.40204 0.75317
 C2821 C 0.19684 0.41743 0.74400
 C2822 C 0.20557 0.39612 0.74307
 C2823 C 0.16210 0.44169 0.73921
 C2824 C 0.15311 0.45971 0.74245
 C2825 C 0.19785 0.35539 0.73529
 C2826 C 0.20583 0.33663 0.73616
 H2827 H 0.16369 0.41706 0.69909
 H2828 H 0.17992 0.37739 0.69736
 H2829 H 0.16179 0.36697 0.76237
 H2830 H 0.14562 0.40641 0.76411
 H2831 H 0.20684 0.43183 0.74886
 H2832 H 0.22305 0.39228 0.74715
 C2833 C 0.07827 0.74071 0.82193
 C2834 C 0.09357 0.72143 0.83039
 C2835 C 0.11407 0.72055 0.81970
 C2836 C 0.11726 0.73904 0.80160
 C2837 C 0.11276 0.76124 0.81400
 C2838 C 0.09233 0.76211 0.82465
 C2839 C 0.07663 0.73735 0.79624
 C2840 C 0.09718 0.73647 0.78553
 C2841 C 0.05655 0.74237 0.83400
 C2842 C 0.03960 0.74535 0.84508
 C2843 C 0.13959 0.73866 0.79060
 C2844 C 0.15838 0.73942 0.78258
 H2845 H 0.08868 0.70946 0.84353
 H2846 H 0.12676 0.70783 0.82369
 H2847 H 0.12461 0.77512 0.81436
 H2848 H 0.08670 0.77675 0.83412
 H2849 H 0.06079 0.73575 0.78729
 H2850 H 0.09894 0.73412 0.76739
 C2851 C 0.57752 0.24259 0.32180
 C2852 C 0.59332 0.22444 0.33171
 C2853 C 0.61383 0.22328 0.32108
 C2854 C 0.61654 0.24039 0.30159
 C2855 C 0.61145 0.26338 0.31220
 C2856 C 0.59100 0.26454 0.32279
 C2857 C 0.57599 0.23719 0.29648
 C2858 C 0.59655 0.23602 0.28583
 C2859 C 0.55580 0.24455 0.33380
 C2860 C 0.53885 0.24770 0.34484
 C2861 C 0.63890 0.23971 0.29067
 C2862 C 0.65774 0.24022 0.28274
 H2863 H 0.58875 0.21340 0.34575
 H2864 H 0.62684 0.21124 0.32603
 H2865 H 0.62292 0.27758 0.31142
 H2866 H 0.58497 0.27974 0.33108
 H2867 H 0.56020 0.23446 0.28773
 H2868 H 0.59839 0.23230 0.26794
 C2869 C 0.57894 0.74358 0.17667
 C2870 C 0.59297 0.72176 0.17534
 C2871 C 0.61364 0.72330 0.18524
 C2872 C 0.61824 0.74653 0.19549
 C2873 C 0.59839 0.75076 0.21189
 C2874 C 0.57770 0.74922 0.20198
 C2875 C 0.59411 0.76184 0.16613
 C2876 C 0.61470 0.76337 0.17599
 C2877 C 0.55695 0.74269 0.16539
 C2878 C 0.53969 0.74402 0.15472
 C2879 C 0.64067 0.74842 0.20573
 C2880 C 0.65939 0.75005 0.21345
 H2881 H 0.58716 0.70645 0.16741
 H2882 H 0.62555 0.70930 0.18578
 H2883 H 0.60040 0.75458 0.22969
 H2884 H 0.56200 0.75170 0.21130
 H2885 H 0.58908 0.77266 0.15208
 H2886 H 0.62728 0.77549 0.17041
 C2887 C 0.07958 0.24473 0.67502
 C2888 C 0.09344 0.26502 0.66669
 C2889 C 0.11405 0.26663 0.67654
 C2890 C 0.11890 0.24780 0.69380
 C2891 C 0.11559 0.22577 0.68079
 C2892 C 0.09492 0.22417 0.67092
 C2893 C 0.07837 0.24717 0.70087
 C2894 C 0.09907 0.24877 0.71075
 C2895 C 0.05757 0.24372 0.66380
 C2896 C 0.04025 0.24490 0.65321
 C2897 C 0.14131 0.24967 0.70410
 C2898 C 0.15996 0.25103 0.71205
 H2899 H 0.08753 0.27713 0.65412
 H2900 H 0.12576 0.28008 0.67241
 H2901 H 0.12835 0.21258 0.67950
 H2902 H 0.08996 0.20961 0.66119
 H2903 H 0.06269 0.24753 0.71054
 H2904 H 0.10110 0.25054 0.72890
 C2905 C 0.91926 0.23641 0.67044
 C2906 C 0.90745 0.21393 0.66599
 C2907 C 0.88619 0.21274 0.67511
 C2908 C 0.87890 0.23415 0.68774
 C2909 C 0.88180 0.25338 0.67046
 C2910 C 0.90296 0.25456 0.66139
 C2911 C 0.91865 0.23907 0.69625
 C2912 C 0.89743 0.23788 0.70535
 C2913 C 0.94189 0.23849 0.66028
 C2914 C 0.95975 0.24196 0.65095
 C2915 C 0.85601 0.23354 0.69752
 C2916 C 0.83730 0.23428 0.70577
 H2917 H 0.91512 0.20017 0.65659
 H2918 H 0.87564 0.19797 0.67351
 H2919 H 0.86839 0.26505 0.66572
 H2920 H 0.90764 0.26726 0.64888
 H2921 H 0.93356 0.24157 0.70648
 H2922 H 0.89417 0.23937 0.72339
 C2923 C 0.41871 0.73677 0.17166
 C2924 C 0.41813 0.73846 0.19757
 C2925 C 0.39685 0.73753 0.20659
 C2926 C 0.37826 0.73501 0.18880
 C2927 C 0.38498 0.71391 0.17537
 C2928 C 0.40628 0.71484 0.16634
 C2929 C 0.40295 0.75570 0.16328
 C2930 C 0.38175 0.75478 0.17227
 C2931 C 0.44139 0.73854 0.16156
 C2932 C 0.45928 0.74178 0.15221
 C2933 C 0.35531 0.73460 0.19844
 C2934 C 0.33650 0.73532 0.20644
 H2935 H 0.43308 0.74014 0.20791
 H2936 H 0.39359 0.73843 0.22468
 H2937 H 0.37402 0.69952 0.17319
 H2938 H 0.41358 0.70124 0.15643
 H2939 H 0.40802 0.76873 0.15128
 H2940 H 0.36867 0.76700 0.16796
 C2941 C 0.41890 0.25012 0.32766
 C2942 C 0.41924 0.25182 0.30172
 C2943 C 0.39821 0.25312 0.29247
 C2944 C 0.37897 0.25261 0.31011
 C2945 C 0.38401 0.27193 0.32628
 C2946 C 0.40497 0.27063 0.33549
 C2947 C 0.40410 0.22967 0.33327
 C2948 C 0.38309 0.23097 0.32403
 C2949 C 0.44128 0.24935 0.33810
 C2950 C 0.45898 0.25050 0.34791
 C2951 C 0.35630 0.25405 0.30035
 C2952 C 0.33761 0.25490 0.29245
 H2953 H 0.43460 0.25194 0.29152
 H2954 H 0.39555 0.25438 0.27433
 H2955 H 0.37217 0.28546 0.33015
 H2956 H 0.41108 0.28309 0.34728
 H2957 H 0.40964 0.21541 0.34351
 H2958 H 0.37061 0.21781 0.32638
 C2959 C 0.92004 0.74927 0.82648
 C2960 C 0.92066 0.75226 0.80064
 C2961 C 0.89974 0.75397 0.79121
 C2962 C 0.88030 0.75253 0.80858
 C2963 C 0.88510 0.77103 0.82578
 C2964 C 0.90595 0.76932 0.83517
 C2965 C 0.90525 0.72853 0.83087
 C2966 C 0.88434 0.73025 0.82145
 C2967 C 0.94229 0.74805 0.83714
 C2968 C 0.95989 0.74884 0.84719
 C2969 C 0.85773 0.75440 0.79867
 C2970 C 0.83907 0.75548 0.79071
 H2971 H 0.93613 0.75292 0.79064
 H2972 H 0.89728 0.75613 0.77312
 H2973 H 0.87317 0.78432 0.83018
 H2974 H 0.91188 0.78117 0.84765
 H2975 H 0.91072 0.71380 0.84045
 H2976 H 0.87189 0.71697 0.82299
   
