data_POSCAR
  _audit_creation_date              2014-09-24
  _audit_creation_method            'ToBaCCo'
  _symmetry_space_group_name_H-M    'P1'
  _symmetry_Int_Tables_number       1
  _symmetry_cell_setting            triclinic
  loop_
  _symmetry_equiv_pos_as_xyz
 x,y,z
_cell_length_a 44.8034
_cell_length_b 46.4979
_cell_length_c 57.3522
_cell_angle_alpha 89.855000
_cell_angle_beta 89.991600
_cell_angle_gamma 89.990600
loop_
  _atom_site_label
  _atom_site_type_symbol
  _atom_site_fract_x
  _atom_site_fract_y
  _atom_site_fract_z
Zr1 Zr 0.24666 0.25294 0.29009
 O2 O 0.26902 0.27548 0.31695
 O3 O 0.21530 0.22873 0.30900
 O4 O 0.21739 0.28114 0.30742
 O5 O 0.29999 0.19986 0.28434
 O6 O 0.19648 0.30787 0.27823
 O7 O 0.27278 0.22515 0.31101
 O8 O 0.19014 0.20409 0.28077
 O9 O 0.20869 0.25523 0.26890
 O10 O 0.24592 0.21492 0.27076
 O11 O 0.25217 0.29036 0.26981
 O12 O 0.28781 0.25177 0.27213
 Zr13 Zr 0.25355 0.25271 0.20887
 Zr14 Zr 0.21523 0.29126 0.24746
 Zr15 Zr 0.28534 0.21462 0.25155
 Zr16 Zr 0.20910 0.21785 0.24889
 O17 O 0.33253 0.21554 0.25307
 O18 O 0.16300 0.22799 0.24744
 O19 O 0.24841 0.21492 0.22898
 O20 O 0.21289 0.25395 0.22716
 O21 O 0.25463 0.29108 0.22787
 O22 O 0.29130 0.25053 0.23027
 C23 C 0.19538 0.21071 0.30217
 C24 C 0.29243 0.20614 0.30539
 C25 C 0.19997 0.30108 0.29981
 O26 O 0.16825 0.29048 0.24380
 O27 O 0.20393 0.30906 0.21483
 O28 O 0.22925 0.28214 0.18813
 C29 C 0.21130 0.30262 0.19378
 O30 O 0.31012 0.30381 0.28149
 Zr31 Zr 0.29137 0.28783 0.25003
 O32 O 0.28401 0.27772 0.18987
 O33 O 0.22183 0.33629 0.24884
 O34 O 0.28670 0.33320 0.24920
 O35 O 0.33788 0.27940 0.25101
 O36 O 0.30955 0.30216 0.21801
 C37 C 0.30390 0.29582 0.19660
 O38 O 0.22975 0.23177 0.18190
 O39 O 0.27878 0.16956 0.25237
 O40 O 0.28001 0.22204 0.19139
 O41 O 0.30181 0.19616 0.22073
 O42 O 0.21184 0.17233 0.25011
 O43 O 0.19266 0.19971 0.21743
 C44 C 0.29725 0.20196 0.19908
 H45 H 0.24462 0.19738 0.28051
 H46 H 0.19570 0.25459 0.21633
 H47 H 0.31021 0.24888 0.22145
 H48 H 0.25296 0.30772 0.27976
 H49 H 0.15181 0.21028 0.25144
 H50 H 0.16148 0.31077 0.24382
 H51 H 0.20194 0.34536 0.24697
 H52 H 0.30654 0.34143 0.24548
 H53 H 0.19151 0.16487 0.25327
 H54 H 0.29876 0.16069 0.25421
 H55 H 0.33937 0.19527 0.25315
 H56 H 0.34833 0.29756 0.24706
 H57 H 0.17436 0.18851 0.22077
 H58 H 0.23879 0.23785 0.16688
 H59 H 0.26014 0.26919 0.33197
 H60 H 0.32464 0.31922 0.27780
 Zr61 Zr 0.75426 0.75483 0.28941
 O62 O 0.73108 0.73338 0.31653
 O63 O 0.78523 0.77924 0.30827
 O64 O 0.78252 0.72611 0.30740
 O65 O 0.70293 0.80964 0.28235
 O66 O 0.80224 0.69775 0.27881
 O67 O 0.72832 0.78338 0.30958
 O68 O 0.81441 0.79927 0.27994
 O69 O 0.79239 0.75050 0.26860
 O70 O 0.75705 0.79244 0.26952
 O71 O 0.74751 0.71721 0.26978
 O72 O 0.71348 0.75746 0.27108
 Zr73 Zr 0.74811 0.75365 0.20821
 Zr74 Zr 0.78456 0.71443 0.24763
 Zr75 Zr 0.71797 0.79413 0.24991
 Zr76 Zr 0.79399 0.78745 0.24802
 O77 O 0.67076 0.79552 0.25017
 O78 O 0.83956 0.77540 0.24595
 O79 O 0.75508 0.79163 0.22765
 O80 O 0.78858 0.75122 0.22676
 O81 O 0.74537 0.71576 0.22785
 O82 O 0.71042 0.75788 0.22941
 C83 C 0.80743 0.79462 0.30143
 C84 C 0.70949 0.80299 0.30356
 C85 C 0.79902 0.70522 0.30024
 O86 O 0.83158 0.71321 0.24434
 O87 O 0.79568 0.69576 0.21533
 O88 O 0.77135 0.72287 0.18808
 C89 C 0.78871 0.70204 0.19413
 O90 O 0.68835 0.70817 0.28166
 Zr91 Zr 0.70867 0.72095 0.24979
 O92 O 0.71621 0.72998 0.18952
 O93 O 0.77588 0.66975 0.24958
 O94 O 0.71096 0.67543 0.25146
 O95 O 0.66241 0.73061 0.24875
 O96 O 0.69216 0.70460 0.21799
 C97 C 0.69715 0.71119 0.19652
 O98 O 0.77281 0.77357 0.18115
 O99 O 0.72660 0.83886 0.25089
 O100 O 0.72195 0.78391 0.18998
 O101 O 0.70427 0.81360 0.21849
 O102 O 0.79346 0.83301 0.24956
 O103 O 0.81113 0.80502 0.21650
 C104 C 0.70708 0.80591 0.19706
 H105 H 0.75900 0.81002 0.27910
 H106 H 0.80578 0.74972 0.21599
 H107 H 0.69167 0.75999 0.22044
 H108 H 0.74589 0.70015 0.28007
 H109 H 0.85164 0.79256 0.24990
 H110 H 0.83745 0.69266 0.24478
 H111 H 0.79538 0.65985 0.24808
 H112 H 0.69077 0.66790 0.24794
 H113 H 0.81408 0.83944 0.25300
 H114 H 0.70699 0.84860 0.25210
 H115 H 0.66503 0.81610 0.24992
 H116 H 0.65171 0.71243 0.24538
 H117 H 0.82947 0.81613 0.21987
 H118 H 0.76380 0.76742 0.16616
 H119 H 0.74000 0.73974 0.33149
 H120 H 0.67287 0.69349 0.27851
 Zr121 Zr 0.75434 0.24648 -0.29067
 O122 O 0.73128 0.26793 -0.31786
 O123 O 0.78564 0.22230 -0.30945
 O124 O 0.78265 0.27523 -0.30855
 O125 O 0.70305 0.19166 -0.28380
 O126 O 0.80225 0.30354 -0.27989
 O127 O 0.72850 0.21798 -0.31096
 O128 O 0.81475 0.20239 -0.28102
 O129 O 0.79234 0.25080 -0.26974
 O130 O 0.75711 0.20882 -0.27084
 O131 O 0.74745 0.28407 -0.27105
 O132 O 0.71349 0.24379 -0.27247
 Zr133 Zr 0.74779 0.24751 -0.20950
 Zr134 Zr 0.78438 0.28684 -0.24878
 Zr135 Zr 0.71793 0.20710 -0.25133
 Zr136 Zr 0.79391 0.21382 -0.24919
 O137 O 0.67072 0.20563 -0.25171
 O138 O 0.83946 0.22580 -0.24675
 O139 O 0.75491 0.20956 -0.22894
 O140 O 0.78835 0.25002 -0.22793
 O141 O 0.74511 0.28544 -0.22911
 O142 O 0.71022 0.24331 -0.23081
 C143 C 0.80797 0.20716 -0.30253
 C144 C 0.70965 0.19838 -0.30499
 C145 C 0.79914 0.29607 -0.30134
 O146 O 0.83138 0.28810 -0.24536
 O147 O 0.79533 0.30542 -0.21644
 O148 O 0.77102 0.27815 -0.18926
 C149 C 0.78837 0.29901 -0.19527
 O150 O 0.68830 0.29301 -0.28308
 Zr151 Zr 0.70853 0.28027 -0.25116
 O152 O 0.71587 0.27123 -0.19087
 O153 O 0.77566 0.33151 -0.25071
 O154 O 0.71076 0.32579 -0.25285
 O155 O 0.66228 0.27061 -0.25018
 O156 O 0.69194 0.29665 -0.21938
 C157 C 0.69688 0.29007 -0.19791
 O158 O 0.77230 0.22749 -0.18238
 O159 O 0.72665 0.16238 -0.25234
 O160 O 0.72150 0.21726 -0.19139
 O161 O 0.70408 0.18757 -0.21999
 O162 O 0.79346 0.16827 -0.25101
 O163 O 0.81070 0.19608 -0.21762
 C164 C 0.70671 0.19525 -0.19855
 H165 H 0.75916 0.19129 -0.28047
 H166 H 0.80550 0.25149 -0.21712
 H167 H 0.69143 0.24119 -0.22189
 H168 H 0.74587 0.30114 -0.28133
 H169 H 0.85158 0.20864 -0.25064
 H170 H 0.83723 0.30865 -0.24574
 H171 H 0.79513 0.34142 -0.24914
 H172 H 0.69055 0.33331 -0.24938
 H173 H 0.81413 0.16191 -0.25437
 H174 H 0.70707 0.15261 -0.25362
 H175 H 0.66503 0.18504 -0.25151
 H176 H 0.65156 0.28878 -0.24683
 H177 H 0.82899 0.18485 -0.22093
 H178 H 0.76322 0.23363 -0.16742
 H179 H 0.74031 0.26162 -0.33280
 H180 H 0.67279 0.30767 -0.27996
 Zr181 Zr 0.24657 0.74867 -0.29094
 O182 O 0.27029 0.72667 -0.31739
 O183 O 0.21594 0.77280 -0.31057
 O184 O 0.21855 0.71980 -0.30881
 O185 O 0.29745 0.80365 -0.28403
 O186 O 0.19828 0.69186 -0.28007
 O187 O 0.27295 0.77691 -0.31125
 O188 O 0.18587 0.79263 -0.28287
 O189 O 0.20803 0.74470 -0.27054
 O190 O 0.24336 0.78660 -0.27169
 O191 O 0.25289 0.71142 -0.27057
 O192 O 0.28694 0.75144 -0.27212
 Zr193 Zr 0.25065 0.74898 -0.20956
 Zr194 Zr 0.21534 0.70899 -0.24890
 Zr195 Zr 0.28204 0.78842 -0.25163
 Zr196 Zr 0.20596 0.78200 -0.25059
 O197 O 0.32926 0.78970 -0.25211
 O198 O 0.16031 0.77021 -0.24856
 O199 O 0.24442 0.78655 -0.22981
 O200 O 0.21071 0.74616 -0.22871
 O201 O 0.25401 0.71068 -0.22852
 O202 O 0.28889 0.75270 -0.23028
 C203 C 0.19324 0.78790 -0.30427
 C204 C 0.29155 0.79678 -0.30530
 C205 C 0.20182 0.69911 -0.30156
 O206 O 0.16825 0.70780 -0.24631
 O207 O 0.20333 0.69099 -0.21647
 O208 O 0.22642 0.71894 -0.18931
 C209 C 0.20928 0.69787 -0.19520
 O210 O 0.31167 0.70041 -0.28115
 Zr211 Zr 0.29125 0.71546 -0.25003
 O212 O 0.28140 0.72484 -0.18999
 O213 O 0.22404 0.66429 -0.25005
 O214 O 0.28855 0.66994 -0.24938
 O215 O 0.33739 0.72569 -0.25004
 O216 O 0.30898 0.70177 -0.21772
 C217 C 0.30233 0.70764 -0.19641
 O218 O 0.22541 0.76925 -0.18305
 O219 O 0.27321 0.83311 -0.25257
 O220 O 0.27570 0.78034 -0.19154
 O221 O 0.29682 0.80734 -0.22051
 O222 O 0.20625 0.82749 -0.25330
 O223 O 0.18873 0.80046 -0.21950
 C224 C 0.29230 0.80108 -0.19894
 H225 H 0.24159 0.80401 -0.28156
 H226 H 0.19321 0.74491 -0.21822
 H227 H 0.30746 0.75501 -0.22113
 H228 H 0.25471 0.69414 -0.28052
 H229 H 0.14835 0.78736 -0.25283
 H230 H 0.16239 0.68725 -0.24646
 H231 H 0.20452 0.65443 -0.24864
 H232 H 0.30862 0.66250 -0.24530
 H233 H 0.18560 0.83369 -0.25694
 H234 H 0.29277 0.84289 -0.25403
 H235 H 0.33510 0.81026 -0.25209
 H236 H 0.34847 0.70792 -0.24599
 H237 H 0.17038 0.81145 -0.22315
 H238 H 0.23414 0.76339 -0.16786
 H239 H 0.26171 0.73279 -0.33257
 H240 H 0.32672 0.68556 -0.27723
 Zr241 Zr 1.25293 1.25527 0.78917
 O242 O 1.22740 1.23571 0.81594
 O243 O 1.28488 1.27782 0.80860
 O244 O 1.27867 1.22529 0.80811
 O245 O 1.20627 1.31375 0.78035
 O246 O 1.29755 1.19536 0.78025
 O247 O 1.22810 1.28572 0.80832
 O248 O 1.31589 1.29614 0.78070
 O249 O 1.29139 1.24817 0.76927
 O250 O 1.25900 1.29228 0.76898
 O251 O 1.24429 1.21782 0.76980
 O252 O 1.21310 1.26024 0.76991
 Zr253 Zr 1.24969 1.25306 0.70792
 Zr254 Zr 1.28186 1.21227 0.74852
 Zr255 Zr 1.22086 1.29616 0.74846
 Zr256 Zr 1.29627 1.28460 0.74840
 O257 O 1.17384 1.30051 0.74807
 O258 O 1.34096 1.26959 0.74789
 O259 O 1.25850 1.29090 0.72708
 O260 O 1.28920 1.24838 0.72741
 O261 O 1.24356 1.21580 0.72788
 O262 O 1.21159 1.26005 0.72818
 C263 C 1.30805 1.29204 0.80209
 C264 C 1.21136 1.30677 0.80174
 C265 C 1.29421 1.20347 0.80152
 O266 O 1.32876 1.20793 0.74602
 O267 O 1.29250 1.19203 0.71671
 O268 O 1.27215 1.22097 0.68870
 C269 C 1.28725 1.19881 0.69531
 O270 O 1.18445 1.21237 0.78042
 Zr271 Zr 1.20649 1.22375 0.74890
 O272 O 1.21808 1.22973 0.68869
 O273 O 1.27005 1.16831 0.75103
 O274 O 1.20570 1.17819 0.75045
 O275 O 1.16108 1.23649 0.74733
 O276 O 1.18926 1.20884 0.71684
 C277 C 1.19659 1.21337 0.69542
 O278 O 1.27632 1.27151 0.68130
 O279 O 1.23267 1.34022 0.74868
 O280 O 1.22554 1.28402 0.68874
 O281 O 1.20913 1.31547 0.71648
 O282 O 1.29880 1.33013 0.74915
 O283 O 1.31599 1.30025 0.71714
 C284 C 1.21176 1.30696 0.69524
 H285 H 1.26183 1.30988 0.77840
 H286 H 1.30668 1.24562 0.71709
 H287 H 1.19331 1.26305 0.71880
 H288 H 1.24117 1.20108 0.78022
 H289 H 1.35401 1.28603 0.75197
 H290 H 1.33317 1.18707 0.74692
 H291 H 1.28885 1.15714 0.75006
 H292 H 1.18516 1.17194 0.74651
 H293 H 1.31966 1.33535 0.75304
 H294 H 1.21378 1.35128 0.74934
 H295 H 1.16954 1.32139 0.74729
 H296 H 1.14912 1.21907 0.74390
 H297 H 1.33501 1.31008 0.72086
 H298 H 1.26766 1.26547 0.66617
 H299 H 1.23611 1.24186 0.83103
 H300 H 1.16838 1.19836 0.77703
 Zr301 Zr 0.74811 0.75226 0.79032
 O302 O 0.77296 0.77315 0.81672
 O303 O 0.71640 0.72957 0.81000
 O304 O 0.72134 0.78204 0.80839
 O305 O 0.79581 0.69445 0.78316
 O306 O 0.70183 0.81066 0.77979
 O307 O 0.77307 0.72269 0.81042
 O308 O 0.68623 0.70985 0.78224
 O309 O 0.70971 0.75781 0.76999
 O310 O 0.74325 0.71461 0.77089
 O311 O 0.75594 0.78936 0.77012
 O312 O 0.78832 0.74793 0.77147
 Zr313 Zr 0.75203 0.75208 0.70901
 Zr314 Zr 0.71848 0.79336 0.74852
 Zr315 Zr 0.78183 0.71125 0.75084
 Zr316 Zr 0.70604 0.72073 0.74990
 O317 O 0.82896 0.70841 0.75179
 O318 O 0.66096 0.73453 0.74859
 O319 O 0.74426 0.71468 0.72909
 O320 O 0.71225 0.75650 0.72817
 O321 O 0.75700 0.79011 0.72810
 O322 O 0.79015 0.74684 0.72964
 C323 C 0.69365 0.71471 0.80359
 C324 C 0.79012 0.70165 0.80436
 C325 C 0.70516 0.80318 0.80124
 O326 O 0.67152 0.79645 0.74553
 O327 O 0.70792 0.81255 0.71623
 O328 O 0.72919 0.78328 0.68898
 C329 C 0.71360 0.80534 0.69503
 O330 O 0.81546 0.79735 0.78068
 Zr331 Zr 0.79406 0.78386 0.74950
 O332 O 0.78362 0.77497 0.68935
 O333 O 0.72901 0.83766 0.75026
 O334 O 0.79334 0.82946 0.74953
 O335 O 0.83980 0.77215 0.74878
 O336 O 0.81145 0.79771 0.71709
 C337 C 0.80468 0.79199 0.69576
 O338 O 0.72580 0.73287 0.68257
 O339 O 0.77120 0.66692 0.75114
 O340 O 0.77584 0.71999 0.69079
 O341 O 0.79612 0.69220 0.71963
 O342 O 0.70442 0.67521 0.75188
 O343 O 0.68754 0.70357 0.71877
 C344 C 0.79183 0.69875 0.69809
 H345 H 0.74068 0.69718 0.78063
 H346 H 0.69482 0.75856 0.71769
 H347 H 0.80859 0.74398 0.72043
 H348 H 0.75849 0.80647 0.78017
 H349 H 0.64831 0.71785 0.75287
 H350 H 0.66654 0.81721 0.74591
 H351 H 0.70993 0.84831 0.74889
 H352 H 0.81367 0.83615 0.74541
 H353 H 0.68355 0.66973 0.75551
 H354 H 0.79033 0.65636 0.75250
 H355 H 0.83405 0.68767 0.75148
 H356 H 0.85138 0.78964 0.74478
 H357 H 0.66856 0.69363 0.72243
 H358 H 0.73463 0.73851 0.66736
 H359 H 0.76423 0.76729 0.83191
 H360 H 0.83109 0.81166 0.77687
 Zr361 Zr 1.25208 0.74663 0.20918
 O362 O 1.22766 0.76773 0.18255
 O363 O 1.28299 0.72292 0.18961
 O364 O 1.27923 0.77571 0.19054
 O365 O 1.20239 0.69045 0.21741
 O366 O 1.29939 0.80440 0.21870
 O367 O 1.22573 0.71773 0.18970
 O368 O 1.31295 0.70285 0.21742
 O369 O 1.29085 0.75139 0.22918
 O370 O 1.25612 0.70905 0.22901
 O371 O 1.24547 0.78415 0.22895
 O372 O 1.21199 0.74341 0.22836
 Zr373 Zr 1.24864 0.74799 0.29046
 Zr374 Zr 1.28330 0.78738 0.25027
 Zr375 Zr 1.21778 0.70684 0.24947
 Zr376 Zr 1.29363 0.71452 0.24977
 O377 O 1.17060 0.70478 0.24986
 O378 O 1.33910 0.72712 0.25080
 O379 O 1.25552 0.70999 0.27099
 O380 O 1.28846 0.75071 0.27110
 O381 O 1.24472 0.78576 0.27081
 O382 O 1.21034 0.74305 0.27006
 C383 C 1.30549 0.70768 0.19605
 C384 C 1.20791 0.69743 0.19609
 C385 C 1.29564 0.79682 0.19735
 O386 O 1.33046 0.78913 0.25181
 O387 O 1.29687 0.80526 0.28226
 O388 O 1.27145 0.77971 0.30990
 C389 C 1.28968 0.79967 0.30352
 O390 O 1.18629 0.79325 0.21827
 Zr391 Zr 1.20730 0.77989 0.24971
 O392 O 1.21766 0.77180 0.30986
 O393 O 1.27385 0.83194 0.24918
 O394 O 1.20903 0.82545 0.24902
 O395 O 1.16127 0.76932 0.25065
 O396 O 1.19021 0.79465 0.28189
 C397 C 1.19690 0.78908 0.30328
 O398 O 1.27469 0.72859 0.31697
 O399 O 1.22719 0.66224 0.24876
 O400 O 1.22331 0.71767 0.30934
 O401 O 1.20530 0.68753 0.28125
 O402 O 1.29356 0.66895 0.24838
 O403 O 1.31220 0.69717 0.28088
 C404 C 1.20853 0.69544 0.30260
 H405 H 1.25807 0.69150 0.21941
 H406 H 1.30600 0.75232 0.28151
 H407 H 1.19189 0.74068 0.27936
 H408 H 1.24327 0.80122 0.21874
 H409 H 1.35124 0.71012 0.24652
 H410 H 1.33610 0.80973 0.25128
 H411 H 1.29329 0.84205 0.25000
 H412 H 1.18883 0.83263 0.25297
 H413 H 1.31409 0.66273 0.24437
 H414 H 1.20774 0.65215 0.24801
 H415 H 1.16522 0.68412 0.25048
 H416 H 1.15015 0.78719 0.25424
 H417 H 1.33056 0.68629 0.27708
 H418 H 1.26618 0.73479 0.33212
 H419 H 1.23608 0.76139 0.16741
 H420 H 1.17103 0.80802 0.22180
 Zr421 Zr 0.74684 1.24815 0.20901
 O422 O 0.77015 1.22578 0.18255
 O423 O 0.71655 1.27281 0.18955
 O424 O 0.71784 1.22023 0.19110
 O425 O 0.80148 1.29979 0.21561
 O426 O 0.69620 1.19338 0.21989
 O427 O 0.77277 1.27662 0.18864
 O428 O 0.68892 1.29534 0.21749
 O429 O 0.70834 1.24573 0.22959
 O430 O 0.74570 1.28606 0.22841
 O431 O 0.75174 1.21058 0.22923
 O432 O 0.78755 1.24899 0.22754
 Zr433 Zr 0.75170 1.24802 0.29032
 Zr434 Zr 0.71428 1.20961 0.25104
 Zr435 Zr 0.78473 1.28607 0.24813
 Zr436 Zr 0.70828 1.28302 0.24966
 O437 O 0.83198 1.28525 0.24800
 O438 O 0.66214 1.27315 0.25150
 O439 O 0.74718 1.28584 0.27013
 O440 O 0.71150 1.24686 0.27139
 O441 O 0.75315 1.20968 0.27126
 O442 O 0.78998 1.25010 0.26948
 C443 C 0.69534 1.28956 0.19610
 C444 C 0.79346 1.29444 0.19451
 C445 C 0.70018 1.20030 0.19838
 O446 O 0.66725 1.21049 0.25423
 O447 O 0.70248 1.19130 0.28339
 O448 O 0.72653 1.21864 0.31053
 C449 C 0.70905 1.19790 0.30456
 O450 O 0.81012 1.19696 0.21852
 Zr451 Zr 0.79041 1.21285 0.24964
 O452 O 0.78176 1.22305 0.30983
 O453 O 0.72078 1.16458 0.24936
 O454 O 0.78556 1.16749 0.25004
 O455 O 0.83696 1.22114 0.24967
 O456 O 0.80724 1.19808 0.28197
 C457 C 0.80142 1.20458 0.30333
 O458 O 0.72735 1.26901 0.31696
 O459 O 0.77827 1.33112 0.24666
 O460 O 0.77785 1.27859 0.30824
 O461 O 0.80021 1.30457 0.27923
 O462 O 0.71067 1.32850 0.24749
 O463 O 0.69206 1.30175 0.28096
 C464 C 0.79527 1.29868 0.30081
 H465 H 0.74460 1.30361 0.21864
 H466 H 0.69406 1.24622 0.28199
 H467 H 0.80865 1.25163 0.27861
 H468 H 0.75274 1.19330 0.21922
 H469 H 0.65100 1.29086 0.24736
 H470 H 0.66043 1.19022 0.25391
 H471 H 0.70083 1.15555 0.25089
 H472 H 0.80523 1.15915 0.25415
 H473 H 0.69028 1.33566 0.24412
 H474 H 0.79834 1.33989 0.24522
 H475 H 0.83882 1.30552 0.24786
 H476 H 0.84719 1.20296 0.25390
 H477 H 0.67399 1.31327 0.27751
 H478 H 0.73593 1.26277 0.33210
 H479 H 0.76170 1.23213 0.16740
 H480 H 0.82467 1.18167 0.22245
 O481 O 0.48324 1.04923 0.02949
 O482 O 0.51146 0.95011 0.02792
 O483 O 0.44695 0.98334 0.02789
 O484 O 0.54808 1.01721 0.02759
 O485 O 0.46167 0.94454 0.01278
 O486 O 0.53287 1.05621 0.01325
 O487 O 0.55286 0.96882 0.01704
 O488 O 0.44167 1.03208 0.01775
 C489 C 0.45628 1.04534 0.03286
 C490 C 0.53820 0.95476 0.03173
 C491 C 0.44885 0.95699 0.02907
 C492 C 0.54597 1.04346 0.02924
 O493 O 0.51065 1.05095 -0.02970
 O494 O 0.48275 0.95182 -0.03091
 O495 O 0.44638 1.01763 -0.02881
 O496 O 0.54780 0.98428 -0.02954
 O497 O 0.53285 0.94510 -0.01529
 O498 O 0.46114 1.05650 -0.01390
 O499 O 0.55235 1.03259 -0.01914
 O500 O 0.44140 0.96892 -0.01857
 Co501 Co 0.49696 1.04786 -0.00020
 Co502 Co 0.49716 0.95327 -0.00139
 Co503 Co 0.44907 1.00051 -0.00047
 Co504 Co 0.54534 1.00072 -0.00098
 O505 O 0.49716 1.00058 -0.00076
 C506 C 0.53735 1.04641 -0.03377
 C507 C 0.45566 0.95558 -0.03384
 C508 C 0.44808 1.04398 -0.03003
 C509 C 0.54592 0.95802 -0.03122
 O510 O 0.98249 0.54897 0.52951
 O511 O 1.01202 0.45013 0.52817
 O512 O 0.94683 0.48342 0.52781
 O513 O 1.04818 0.51674 0.52810
 O514 O 0.96224 0.44457 0.51314
 O515 O 1.03253 0.55593 0.51420
 O516 O 1.05336 0.46852 0.51700
 O517 O 0.94125 0.53205 0.51701
 C518 C 0.95539 0.54530 0.53235
 C519 C 1.03881 0.45467 0.53185
 C520 C 0.94933 0.45713 0.52934
 C521 C 1.04574 0.54294 0.53004
 O522 O 1.01150 0.55093 0.47072
 O523 O 0.98321 0.45168 0.46931
 O524 O 0.94680 0.51702 0.47077
 O525 O 1.04841 0.48456 0.47066
 O526 O 1.03319 0.44532 0.48472
 O527 O 0.96169 0.55598 0.48559
 O528 O 1.05302 0.53290 0.48183
 O529 O 0.94169 0.46826 0.48157
 Co530 Co 0.99707 0.54765 0.50002
 Co531 Co 0.99761 0.45321 0.49883
 Co532 Co 0.94920 0.50020 0.49929
 Co533 Co 1.04572 0.50066 0.49939
 O534 O 0.99743 0.50043 0.49938
 C535 C 1.03831 0.54663 0.46702
 C536 C 0.95611 0.45509 0.46632
 C537 C 0.94897 0.54336 0.46933
 C538 C 1.04608 0.45834 0.46875
 O539 O 1.01751 0.46553 0.04322
 O540 O 1.01419 0.53644 -0.04587
 O541 O 1.02456 0.44824 -0.02783
 O542 O 1.02023 0.55426 0.02518
 O543 O 1.03683 0.48935 -0.04165
 O544 O 1.03532 0.51409 0.03928
 O545 O 1.03321 0.55149 -0.01475
 O546 O 1.03747 0.45241 0.01179
 C547 C 1.03904 0.45431 0.03318
 C548 C 1.03492 0.54922 -0.03611
 C549 C 1.04244 0.46345 -0.03926
 C550 C 1.03900 0.54030 0.03683
 O551 O 0.97959 0.53260 0.04438
 O552 O 0.98263 0.46634 -0.04680
 O553 O 0.97791 0.44486 0.02363
 O554 O 0.97264 0.55378 -0.02608
 O555 O 0.96021 0.51336 -0.04124
 O556 O 0.96097 0.48386 0.03826
 O557 O 0.96035 0.54829 0.01343
 O558 O 0.96432 0.45008 -0.01574
 Co559 Co 0.99828 0.49913 0.03688
 Co560 Co 0.99850 0.50122 -0.03956
 Co561 Co 1.00081 0.45376 -0.00200
 Co562 Co 0.99684 0.54708 -0.00064
 O563 O 0.99863 0.50031 -0.00133
 C564 C 0.95870 0.54535 0.03473
 C565 C 0.96226 0.45296 -0.03703
 C566 C 0.95846 0.45756 0.03543
 C567 C 0.95468 0.53916 -0.03794
 O568 O 0.53674 0.98780 0.54044
 O569 O 0.53392 1.01362 0.45984
 O570 O 0.53596 0.95172 0.48626
 O571 O 0.53240 1.05012 0.51432
 O572 O 0.51505 0.96528 0.45536
 O573 O 0.51367 1.03471 0.54545
 O574 O 0.51951 1.05363 0.47464
 O575 O 0.52459 0.94695 0.52604
 C576 C 0.54254 0.96201 0.53753
 C577 C 0.53798 1.03975 0.46264
 C578 C 0.53674 0.95367 0.46486
 C579 C 0.53424 1.04769 0.53564
 O580 O 0.45997 1.01138 0.54127
 O581 O 0.45917 0.98434 0.46133
 O582 O 0.46374 0.94889 0.51525
 O583 O 0.45936 1.04755 0.48659
 O584 O 0.47859 1.03295 0.45543
 O585 O 0.48310 0.96430 0.54609
 O586 O 0.47172 1.05210 0.52604
 O587 O 0.47571 0.94479 0.47558
 Co588 Co 0.49831 0.99949 0.53895
 Co589 Co 0.49670 0.99906 0.46244
 Co590 Co 0.49977 0.95289 0.50080
 Co591 Co 0.49595 1.04604 0.50043
 O592 O 0.49769 0.99938 0.50066
 C593 C 0.45421 1.03722 0.53821
 C594 C 0.45628 0.95802 0.46403
 C595 C 0.46252 0.95102 0.53660
 C596 C 0.45772 1.04537 0.46528
 O597 O 1.06100 1.02178 0.47634
 O598 O 0.94994 1.02577 0.52528
 O599 O 0.96984 1.01730 0.45509
 O600 O 1.04066 1.01230 0.54624
 O601 O 0.95472 1.03664 0.48576
 O602 O 1.05646 1.03190 0.51586
 O603 O 0.99227 1.03586 0.54121
 O604 O 1.01982 1.03707 0.46165
 C605 C 1.04693 1.04049 0.46493
 C606 C 0.96570 1.04212 0.53773
 C607 C 0.95742 1.03791 0.46448
 C608 C 1.05371 1.03282 0.53715
 O609 O 1.05788 0.97244 0.52587
 O610 O 0.94879 0.97792 0.47460
 O611 O 1.04083 0.98410 0.45559
 O612 O 0.96677 0.98521 0.54516
 O613 O 0.95129 0.96662 0.51434
 O614 O 1.05367 0.96288 0.48616
 O615 O 1.01507 0.96166 0.54036
 O616 O 0.99078 0.96485 0.45970
 Co617 Co 1.05247 0.99747 0.50104
 Co618 Co 0.95602 1.00153 0.50006
 Co619 Co 1.00527 1.00079 0.46241
 Co620 Co 1.00382 0.99882 0.53896
 O621 O 1.00439 0.99962 0.50063
 C622 C 1.04167 0.95546 0.53734
 C623 C 0.96371 0.96051 0.46249
 C624 C 1.05184 0.96255 0.46478
 C625 C 0.95386 0.96500 0.53562
 O626 O 0.55374 0.53642 -0.01501
 O627 O 0.45119 0.53600 0.01289
 O628 O 0.48936 0.53656 -0.04166
 O629 O 0.51700 0.53857 0.03828
 O630 O 0.44738 0.52379 -0.02672
 O631 O 0.55882 0.52434 0.02447
 O632 O 0.46747 0.51774 0.04381
 O633 O 0.53901 0.51711 -0.04593
 C634 C 0.55074 0.53800 -0.03630
 C635 C 0.45468 0.53801 0.03411
 C636 C 0.46244 0.54130 -0.03859
 C637 C 0.54412 0.54256 0.03569
 O638 O 0.55414 0.46616 0.01321
 O639 O 0.45173 0.46547 -0.01493
 O640 O 0.51744 0.46380 -0.04022
 O641 O 0.48978 0.46552 0.03977
 O642 O 0.44766 0.47766 0.02474
 O643 O 0.55910 0.47836 -0.02636
 O644 O 0.53914 0.48550 0.04406
 O645 O 0.46772 0.48405 -0.04582
 Co646 Co 0.55149 0.50129 -0.00093
 Co647 Co 0.45449 0.50075 -0.00100
 Co648 Co 0.50343 0.50035 -0.03914
 Co649 Co 0.50339 0.50186 0.03721
 O650 O 0.50317 0.50106 -0.00097
 C651 C 0.55122 0.46472 0.03453
 C652 C 0.45521 0.46358 -0.03616
 C653 C 0.54457 0.46000 -0.03756
 C654 C 0.46291 0.46049 0.03677
 C655 C 0.34526 1.15353 0.15076
 N656 N 0.35370 1.15431 0.17346
 N657 N 0.33813 1.16956 0.18885
 C658 C 0.31376 1.18478 0.18206
 N659 N 0.30540 1.18413 0.15933
 N660 N 0.32079 1.16861 0.14398
 C661 C 0.36226 1.13661 0.13388
 N662 N 0.34995 1.12945 0.11309
 N663 N 0.36527 1.11391 0.09775
 C664 C 0.39354 1.10523 0.10254
 N665 N 0.40596 1.11251 0.12328
 N666 N 0.39049 1.12780 0.13875
 C667 C 0.41021 1.08850 0.08532
 N668 N 0.44044 1.08636 0.08630
 N669 N 0.45539 1.07220 0.06981
 C670 C 0.44051 1.05945 0.05199
 N671 N 0.41031 1.06130 0.05126
 N672 N 0.39545 1.07565 0.06756
 C673 C 0.83972 0.65089 0.64930
 N674 N 0.84701 0.65005 0.67223
 N675 N 0.83125 0.66490 0.68773
 C676 C 0.80777 0.68133 0.68087
 N677 N 0.80047 0.68226 0.65792
 N678 N 0.81606 0.66711 0.64241
 C679 C 0.85736 0.63473 0.63230
 N680 N 0.84619 0.62900 0.61084
 N681 N 0.86219 0.61412 0.59548
 C682 C 0.89004 0.60475 0.60091
 N683 N 0.90132 0.61064 0.62232
 N684 N 0.88517 0.62525 0.63780
 C685 C 0.90739 0.58848 0.58380
 N686 N 0.93751 0.58579 0.58572
 N687 N 0.95309 0.57174 0.56952
 C688 C 0.93895 0.55963 0.55105
 N689 N 0.90886 0.56208 0.54934
 N690 N 0.89338 0.57634 0.56535
 C691 C 0.65727 0.85284 0.14872
 N692 N 0.66457 0.82500 0.14452
 N693 N 0.68127 0.81030 0.15962
 C694 C 0.69095 0.82284 0.17958
 N695 N 0.68362 0.85067 0.18379
 N696 N 0.66730 0.86550 0.16852
 C697 C 0.63827 0.86874 0.13239
 N698 N 0.63951 0.89787 0.13125
 N699 N 0.62236 0.91225 0.11624
 C700 C 0.60298 0.89804 0.10220
 N701 N 0.60153 0.86893 0.10353
 N702 N 0.61900 0.85452 0.11827
 C703 C 0.58492 0.91371 0.08510
 N704 N 0.55921 0.90222 0.07674
 N705 N 0.54364 0.91583 0.06028
 C706 C 0.55350 0.94119 0.05140
 N707 N 0.57915 0.95269 0.05980
 N708 N 0.59446 0.93931 0.07651
 C709 C 1.16223 0.35358 0.64655
 N710 N 1.16907 0.32555 0.64268
 N711 N 1.18592 0.31100 0.65777
 C712 C 1.19628 0.32388 0.67738
 N713 N 1.18949 0.35193 0.68121
 N714 N 1.17301 0.36660 0.66595
 C715 C 1.14265 0.36925 0.63047
 N716 N 1.14351 0.39839 0.62932
 N717 N 1.12563 0.41261 0.61475
 C718 C 1.10586 0.39822 0.60116
 N719 N 1.10480 0.36909 0.60248
 N720 N 1.12298 0.35485 0.61680
 C721 C 1.08704 0.41379 0.58448
 N722 N 1.06136 0.40198 0.57634
 N723 N 1.04520 0.41555 0.56018
 C724 C 1.05441 0.44120 0.55143
 N725 N 1.08001 0.45302 0.55964
 N726 N 1.09590 0.43968 0.57603
 C727 C 0.65626 1.14833 -0.15064
 N728 N 0.66651 1.13569 -0.17038
 N729 N 0.68306 1.15052 -0.18550
 C730 C 0.69042 1.17832 -0.18118
 N731 N 0.68052 1.19082 -0.16126
 N732 N 0.66360 1.17613 -0.14632
 C733 C 0.63705 1.13242 -0.13449
 N734 N 0.61777 1.14662 -0.12036
 N735 N 0.60015 1.13218 -0.10574
 C736 C 0.60146 1.10306 -0.10457
 N737 N 0.62083 1.08886 -0.11863
 N738 N 0.63813 1.10327 -0.13351
 C739 C 0.58341 1.08735 -0.08750
 N740 N 0.59294 1.06167 -0.07905
 N741 N 0.57778 1.04830 -0.06226
 C742 C 0.55229 1.05989 -0.05363
 N743 N 0.54242 1.08531 -0.06238
 N744 N 0.55784 1.09891 -0.07893
 C745 C 1.15915 0.64868 0.35127
 N746 N 1.16634 0.67657 0.35535
 N747 N 1.18305 0.69120 0.34021
 C748 C 1.19286 0.67853 0.32034
 N749 N 1.18567 0.65063 0.31627
 N750 N 1.16935 0.63588 0.33158
 C751 C 1.13994 0.63287 0.36750
 N752 N 1.14096 0.60373 0.36854
 N753 N 1.12348 0.58937 0.38332
 C754 C 1.10396 0.60363 0.39722
 N755 N 1.10273 0.63275 0.39601
 N756 N 1.12053 0.64714 0.38149
 C757 C 1.08558 0.58793 0.41409
 N758 N 1.05985 0.59948 0.42238
 N759 N 1.04404 0.58578 0.43867
 C760 C 1.05367 0.56027 0.44741
 N761 N 1.07933 0.54871 0.43907
 N762 N 1.09487 0.56217 0.42254
 C763 C 0.34066 0.84881 -0.15038
 N764 N 0.31661 0.83317 -0.14348
 N765 N 0.30094 0.81799 -0.15890
 C766 C 0.30858 0.81830 -0.18180
 N767 N 0.33248 0.83413 -0.18868
 N768 N 0.34832 0.84902 -0.17325
 C769 C 0.35825 0.86515 -0.13348
 N770 N 0.38622 0.87425 -0.13887
 N771 N 0.40227 0.88910 -0.12349
 C772 C 0.39072 0.89562 -0.10228
 N773 N 0.36270 0.88663 -0.09695
 N774 N 0.34680 0.87152 -0.11222
 C775 C 0.40796 0.91211 -0.08526
 N776 N 0.39381 0.92467 -0.06706
 N777 N 0.40920 0.93906 -0.05108
 C778 C 0.43933 0.94124 -0.05257
 N779 N 0.45361 0.92873 -0.07081
 N780 N 0.43812 0.91454 -0.08698
 C781 C 0.84349 0.34642 0.34947
 N782 N 0.81903 0.33127 0.35622
 N783 N 0.80351 0.31600 0.34077
 C784 C 0.81172 0.31570 0.31799
 N785 N 0.83607 0.33099 0.31127
 N786 N 0.85175 0.34598 0.32674
 C787 C 0.86073 0.36306 0.36642
 N788 N 0.88882 0.37208 0.36130
 N789 N 0.90451 0.38724 0.37671
 C790 C 0.89247 0.39417 0.39767
 N791 N 0.86435 0.38525 0.40272
 N792 N 0.84881 0.36984 0.38742
 C793 C 0.90935 0.41095 0.41474
 N794 N 0.89487 0.42354 0.43278
 N795 N 0.90994 0.43815 0.44881
 C796 C 0.94007 0.44054 0.44754
 N797 N 0.95467 0.42801 0.42946
 N798 N 0.93951 0.41359 0.41324
 C799 C 1.17100 0.35192 0.14127
 N800 N 1.18807 0.32880 0.13558
 N801 N 1.20130 0.31317 0.15220
 C802 C 1.19781 0.32005 0.17508
 N803 N 1.18085 0.34321 0.18066
 N804 N 1.16776 0.35882 0.16410
 C805 C 1.15514 0.36888 0.12344
 N806 N 1.13875 0.39197 0.13008
 N807 N 1.12289 0.40679 0.11457
 C808 C 1.12275 0.39919 0.09175
 N809 N 1.13938 0.37623 0.08495
 N810 N 1.15534 0.36134 0.10054
 C811 C 1.10309 0.41474 0.07545
 N812 N 1.10158 0.40803 0.05239
 N813 N 1.08192 0.42122 0.03844
 C814 C 1.06309 0.44146 0.04716
 N815 N 1.06495 0.44828 0.07008
 N816 N 1.08458 0.43528 0.08390
 C817 C 0.67496 0.85656 0.64298
 N818 N 0.68700 0.83059 0.63760
 N819 N 0.69985 0.81445 0.65404
 C820 C 0.70088 0.82359 0.67651
 N821 N 0.68892 0.84959 0.68184
 N822 N 0.67631 0.86581 0.66539
 C823 C 0.65937 0.87385 0.62521
 N824 N 0.65068 0.90119 0.63000
 N825 N 0.63499 0.91635 0.61452
 C826 C 0.62722 0.90469 0.59371
 N827 N 0.63609 0.87741 0.58884
 N828 N 0.65198 0.86232 0.60426
 C829 C 0.60763 0.92053 0.57755
 N830 N 0.59421 0.90676 0.55953
 N831 N 0.57427 0.92034 0.54623
 C832 C 0.56720 0.94828 0.55029
 N833 N 0.58105 0.96224 0.56803
 N834 N 0.60084 0.94859 0.58144
 C835 C 1.16779 0.65127 -0.14461
 N836 N 1.18609 0.67344 -0.13879
 N837 N 1.20012 0.68858 -0.15532
 C838 C 1.19626 0.68221 -0.17830
 N839 N 1.17810 0.65988 -0.18395
 N840 N 1.16422 0.64476 -0.16748
 C841 C 1.15107 0.63488 -0.12685
 N842 N 1.13346 0.61271 -0.13364
 N843 N 1.11706 0.59834 -0.11818
 C844 C 1.11753 0.60550 -0.09526
 N845 N 1.13532 0.62758 -0.08833
 N846 N 1.15183 0.64201 -0.10386
 C847 C 1.09769 0.59013 -0.07892
 N848 N 1.09672 0.59639 -0.05575
 N849 N 1.07732 0.58300 -0.04169
 C850 C 1.05820 0.56299 -0.05039
 N851 N 1.05948 0.55669 -0.07344
 N852 N 1.07883 0.56991 -0.08738
 C853 C 0.66779 1.14830 0.35647
 N854 N 0.66906 1.13900 0.33409
 N855 N 0.68240 1.15475 0.31770
 C856 C 0.69525 1.18034 0.32307
 N857 N 0.69428 1.18957 0.34552
 N858 N 0.68066 1.17390 0.36190
 C859 C 0.65180 1.13123 0.37418
 N860 N 0.64382 1.14293 0.39495
 N861 N 0.62785 1.12780 0.41033
 C862 C 0.61951 1.10032 0.40558
 N863 N 0.62782 1.08856 0.38494
 N864 N 0.64355 1.10374 0.36951
 C865 C 0.60033 1.08406 0.42180
 N866 N 0.59505 1.05563 0.41827
 N867 N 0.57602 1.04128 0.43185
 C868 C 0.56141 1.05482 0.44942
 N869 N 0.56688 1.08319 0.45310
 N870 N 0.58609 1.09751 0.43962
 C871 C 0.82929 0.65160 0.14257
 N872 N 0.83223 0.64505 0.16553
 N873 N 0.81898 0.66096 0.18177
 C874 C 0.80215 0.68408 0.17575
 N875 N 0.79896 0.69060 0.15275
 N876 N 0.81233 0.67466 0.13645
 C877 C 0.84531 0.63432 0.12504
 N878 N 0.84487 0.64125 0.10199
 N879 N 0.86073 0.62603 0.08661
 C880 C 0.87755 0.60331 0.09376
 N881 N 0.87772 0.59634 0.11675
 N882 N 0.86193 0.61150 0.13206
 C883 C 0.89679 0.58719 0.07752
 N884 N 0.91511 0.56646 0.08603
 N885 N 0.93410 0.55279 0.07211
 C886 C 0.93548 0.55910 0.04904
 N887 N 0.91688 0.57958 0.04031
 N888 N 0.89787 0.59342 0.05433
 C889 C 0.32558 1.14598 0.64431
 N890 N 0.32448 1.13744 0.66695
 N891 N 0.31199 1.15414 0.68309
 C892 C 0.29993 1.17996 0.67720
 N893 N 0.30074 1.18840 0.65451
 N894 N 0.31344 1.17177 0.63839
 C895 C 0.34089 1.12815 0.62679
 N896 N 0.34753 1.13895 0.60538
 N897 N 0.36296 1.12338 0.59005
 C898 C 0.37213 1.09631 0.59545
 N899 N 0.36515 1.08538 0.61675
 N900 N 0.34990 1.10102 0.63214
 C901 C 0.39109 1.07994 0.57921
 N902 N 0.39810 1.05201 0.58359
 N903 N 0.41723 1.03793 0.56991
 C904 C 0.43016 1.05131 0.55141
 N905 N 0.42288 1.07912 0.54690
 N906 N 0.40360 1.09312 0.56046
 C907 C 0.82971 0.34871 -0.14369
 N908 N 0.83210 0.35570 -0.16660
 N909 N 0.81853 0.34006 -0.18284
 C910 C 0.80191 0.31680 -0.17686
 N911 N 0.79923 0.30985 -0.15390
 N912 N 0.81293 0.32551 -0.13760
 C913 C 0.84623 0.36559 -0.12623
 N914 N 0.84650 0.35816 -0.10327
 N915 N 0.86294 0.37298 -0.08802
 C916 C 0.87965 0.39575 -0.09521
 N917 N 0.87909 0.40322 -0.11809
 N918 N 0.86274 0.38847 -0.13327
 C919 C 0.89948 0.41144 -0.07918
 N920 N 0.91771 0.43214 -0.08785
 N921 N 0.93711 0.44558 -0.07414
 C922 C 0.93902 0.43903 -0.05113
 N923 N 0.92054 0.41855 -0.04225
 N924 N 0.90112 0.40494 -0.05606
 C925 C 0.33257 0.84842 0.35477
 N926 N 0.34662 0.84151 0.33459
 N927 N 0.33267 0.82633 0.31825
 C928 C 0.30432 0.81694 0.32163
 N929 N 0.29024 0.82365 0.34190
 N930 N 0.30405 0.83934 0.35812
 C931 C 0.34876 0.86449 0.37281
 N932 N 0.33488 0.88441 0.38633
 N933 N 0.35031 0.89950 0.40203
 C934 C 0.38001 0.89480 0.40501
 N935 N 0.39369 0.87468 0.39165
 N936 N 0.37844 0.86003 0.37571
 C937 C 0.39765 0.91104 0.42211
 N938 N 0.42166 0.89842 0.43225
 N939 N 0.43942 0.91331 0.44634
 C940 C 0.43418 0.94155 0.45062
 N941 N 0.41006 0.95428 0.44057
 N942 N 0.39194 0.93919 0.42670
 C943 C 1.14891 1.16620 0.35398
 N944 N 1.15550 1.15345 0.33336
 N945 N 1.16961 1.16798 0.31665
 C946 C 1.17813 1.19563 0.32012
 N947 N 1.17165 1.20840 0.34079
 N948 N 1.15701 1.19401 0.35737
 C949 C 1.13448 1.14954 0.37252
 N950 N 1.11448 1.16185 0.38725
 N951 N 1.10099 1.14615 0.40366
 C952 C 1.10756 1.11779 0.40618
 N953 N 1.12780 1.10566 0.39162
 N954 N 1.14083 1.12119 0.37498
 C955 C 1.09247 1.09990 0.42363
 N956 N 1.10671 1.07674 0.43276
 N957 N 1.09243 1.05867 0.44689
 C958 C 1.06323 1.06284 0.45216
 N959 N 1.04896 1.08614 0.44317
 N960 N 1.06342 1.10452 0.42929
 C961 C 0.64326 0.67421 -0.14449
 N962 N 0.63518 0.67236 -0.16725
 N963 N 0.65090 0.68572 -0.18373
 C964 C 0.67531 0.70149 -0.17806
 N965 N 0.68324 0.70362 -0.15525
 N966 N 0.66752 0.69020 -0.13876
 C967 C 0.62698 0.65764 -0.12675
 N968 N 0.63591 0.65736 -0.10409
 N969 N 0.62220 0.64057 -0.08851
 C970 C 0.59911 0.62348 -0.09508
 N971 N 0.59004 0.62409 -0.11765
 N972 N 0.60368 0.64084 -0.13317
 C973 C 0.58533 0.60294 -0.07884
 N974 N 0.56533 0.58363 -0.08709
 N975 N 0.55407 0.56344 -0.07322
 C976 C 0.56222 0.56180 -0.05049
 N977 N 0.58192 0.58137 -0.04200
 N978 N 0.59338 0.60156 -0.05598
 C979 C 0.86013 1.16813 0.64599
 N980 N 0.86950 1.16861 0.66851
 N981 N 0.85301 1.18118 0.68494
 C982 C 0.82665 1.19389 0.67940
 N983 N 0.81744 1.19362 0.65684
 N984 N 0.83381 1.18087 0.64046
 C985 C 0.87753 1.15303 0.62808
 N986 N 0.86533 1.14724 0.60694
 N987 N 0.88044 1.13216 0.59112
 C988 C 0.90842 1.12254 0.59580
 N989 N 0.92077 1.12866 0.61684
 N990 N 0.90557 1.14356 0.63271
 C991 C 0.92423 1.10404 0.57915
 N992 N 0.95321 1.09680 0.58279
 N993 N 0.96681 1.07800 0.56889
 C994 C 0.95191 1.06563 0.55090
 N995 N 0.92304 1.07315 0.54707
 N996 N 0.90949 1.09212 0.56087
 C997 C 0.35572 0.66756 0.14391
 N998 N 0.36381 0.66539 0.16666
 N999 N 0.34804 0.67845 0.18323
 C1000 C 0.32356 0.69423 0.17766
 N1001 N 0.31557 0.69659 0.15488
 N1002 N 0.33133 0.68347 0.13829
 C1003 C 0.37245 0.65178 0.12596
 N1004 N 0.36349 0.65173 0.10331
 N1005 N 0.37791 0.63596 0.08748
 C1006 C 0.40183 0.61974 0.09378
 N1007 N 0.41088 0.62010 0.11636
 N1008 N 0.39650 0.63580 0.13213
 C1009 C 0.41674 0.60042 0.07719
 N1010 N 0.43833 0.58246 0.08507
 N1011 N 0.45072 0.56325 0.07097
 C1012 C 0.44218 0.56125 0.04835
 N1013 N 0.42086 0.57950 0.04021
 N1014 N 0.40829 0.59874 0.05444
 C1015 C 1.14351 0.82570 0.64507
 N1016 N 1.16823 0.81029 0.63952
 N1017 N 1.18428 0.79748 0.65612
 C1018 C 1.17648 0.79989 0.67896
 N1019 N 1.15164 0.81527 0.68443
 N1020 N 1.13542 0.82782 0.66781
 C1021 C 1.12654 0.84098 0.62698
 N1022 N 1.09905 0.85173 0.63173
 N1023 N 1.08430 0.86704 0.61581
 C1024 C 1.09660 0.87237 0.59460
 N1025 N 1.12404 0.86149 0.58977
 N1026 N 1.13867 0.84593 0.60563
 C1027 C 1.08140 0.89148 0.57798
 N1028 N 1.05250 0.89908 0.58146
 N1029 N 1.03945 0.91854 0.56777
 C1030 C 1.05487 0.93127 0.55017
 N1031 N 1.08367 0.92341 0.54648
 N1032 N 1.09666 0.90375 0.56007
 C1033 C 0.64611 0.33162 0.14427
 N1034 N 0.63886 0.33461 0.16712
 N1035 N 0.65430 0.32092 0.18359
 C1036 C 0.67757 0.30367 0.17783
 N1037 N 0.68471 0.30048 0.15494
 N1038 N 0.66929 0.31424 0.13845
 C1039 C 0.62988 0.34810 0.12643
 N1040 N 0.63814 0.34737 0.10362
 N1041 N 0.62425 0.36377 0.08786
 C1042 C 0.60159 0.38143 0.09440
 N1043 N 0.59322 0.38186 0.11713
 N1044 N 0.60706 0.36552 0.13283
 C1045 C 0.58737 0.40135 0.07785
 N1046 N 0.56715 0.42057 0.08591
 N1047 N 0.55538 0.44019 0.07177
 C1048 C 0.56321 0.44134 0.04895
 N1049 N 0.58315 0.42185 0.04065
 N1050 N 0.59510 0.40220 0.05491
 C1051 C 0.85769 0.83559 0.35308
 N1052 N 0.86787 0.83430 0.33079
 N1053 N 0.85202 0.82108 0.31432
 C1054 C 0.82552 0.80847 0.31959
 N1055 N 0.81550 0.80955 0.34192
 N1056 N 0.83121 0.82297 0.35833
 C1057 C 0.87448 0.85125 0.37102
 N1058 N 0.86142 0.85824 0.39162
 N1059 N 0.87618 0.87358 0.40748
 C1060 C 0.90464 0.88224 0.40341
 N1061 N 0.91781 0.87497 0.38292
 N1062 N 0.90297 0.85985 0.36699
 C1063 C 0.92044 0.90057 0.42021
 N1064 N 0.94999 0.90602 0.41750
 N1065 N 0.96396 0.92429 0.43163
 C1066 C 0.94889 0.93791 0.44892
 N1067 N 0.91939 0.93225 0.45181
 N1068 N 0.90545 0.91379 0.43777
 C1069 C 0.35840 0.33227 -0.14587
 N1070 N 0.36677 0.33397 -0.16860
 N1071 N 0.35104 0.32077 -0.18513
 C1072 C 0.32634 0.30533 -0.17955
 N1073 N 0.31810 0.30341 -0.15679
 N1074 N 0.33381 0.31666 -0.14025
 C1075 C 0.37491 0.34835 -0.12797
 N1076 N 0.36579 0.34855 -0.10535
 N1077 N 0.37993 0.36461 -0.08956
 C1078 C 0.40370 0.38101 -0.09586
 N1079 N 0.41293 0.38052 -0.11840
 N1080 N 0.39884 0.36451 -0.13413
 C1081 C 0.41826 0.40064 -0.07930
 N1082 N 0.43954 0.41893 -0.08718
 N1083 N 0.45160 0.43834 -0.07307
 C1084 C 0.44304 0.44020 -0.05044
 N1085 N 0.42204 0.42162 -0.04230
 N1086 N 0.40979 0.40218 -0.05653
 C1087 C 1.17075 0.35733 -0.14691
 N1088 N 1.17128 0.36607 -0.16951
 N1089 N 1.18420 0.34993 -0.18581
 C1090 C 1.19724 0.32450 -0.18012
 N1091 N 1.19691 0.31583 -0.15749
 N1092 N 1.18377 0.33188 -0.14120
 C1093 C 1.15544 0.37472 -0.12916
 N1094 N 1.14927 0.36359 -0.10778
 N1095 N 1.13399 0.37886 -0.09217
 C1096 C 1.12456 0.40592 -0.09725
 N1097 N 1.13108 0.41719 -0.11852
 N1098 N 1.14616 0.40185 -0.13419
 C1099 C 1.10572 0.42190 -0.08074
 N1100 N 1.09872 0.44993 -0.08467
 N1101 N 1.07957 0.46365 -0.07080
 C1102 C 1.06660 0.44979 -0.05255
 N1103 N 1.07389 0.42189 -0.04846
 N1104 N 1.09321 0.40825 -0.06221
 C1105 C 0.66614 0.85042 0.35551
 N1106 N 0.68466 0.82843 0.36144
 N1107 N 0.69862 0.81326 0.34498
 C1108 C 0.69446 0.81948 0.32202
 N1109 N 0.67597 0.84146 0.31619
 N1110 N 0.66212 0.85661 0.33259
 C1111 C 0.64997 0.86716 0.37323
 N1112 N 0.63219 0.88921 0.36640
 N1113 N 0.61647 0.90404 0.38194
 C1114 C 0.61789 0.89748 0.40497
 N1115 N 0.63586 0.87551 0.41194
 N1116 N 0.65167 0.86062 0.39633
 C1117 C 0.59873 0.91319 0.42146
 N1118 N 0.59863 0.90730 0.44472
 N1119 N 0.57959 0.92074 0.45896
 C1120 C 0.56000 0.94043 0.45037
 N1121 N 0.56043 0.94642 0.42722
 N1122 N 0.57944 0.93315 0.41309
 C1123 C 0.82854 0.65019 -0.14373
 N1124 N 0.81607 0.67592 -0.13815
 N1125 N 0.80367 0.69239 -0.15460
 C1126 C 0.80363 0.68384 -0.17724
 N1127 N 0.81615 0.65816 -0.18275
 N1128 N 0.82829 0.64163 -0.16632
 C1129 C 0.84298 0.63215 -0.12591
 N1130 N 0.85130 0.60482 -0.13107
 N1131 N 0.86584 0.58880 -0.11549
 C1132 C 0.87277 0.59957 -0.09419
 N1133 N 0.86427 0.62686 -0.08896
 N1134 N 0.84950 0.64281 -0.10449
 C1135 C 0.89130 0.58282 -0.07794
 N1136 N 0.90433 0.59573 -0.05935
 N1137 N 0.92364 0.58139 -0.04602
 C1138 C 0.93044 0.55352 -0.05065
 N1139 N 0.91693 0.54040 -0.06895
 N1140 N 0.89777 0.55481 -0.08238
 C1141 C 0.33379 1.15709 0.35749
 N1142 N 0.31527 1.17906 0.36344
 N1143 N 0.30205 1.19493 0.34695
 C1144 C 0.30706 1.18946 0.32399
 N1145 N 0.32561 1.16758 0.31818
 N1146 N 0.33867 1.15172 0.33458
 C1147 C 0.34883 1.13920 0.37513
 N1148 N 0.36547 1.11648 0.36808
 N1149 N 0.38018 1.10044 0.38346
 C1150 C 0.37890 1.10642 0.40657
 N1151 N 0.36207 1.12907 0.41377
 N1152 N 0.34722 1.14516 0.39830
 C1153 C 0.39711 1.08932 0.42284
 N1154 N 0.39811 1.09505 0.44608
 N1155 N 0.41661 1.08043 0.46005
 C1156 C 0.43471 1.05967 0.45119
 N1157 N 0.43331 1.05382 0.42808
 N1158 N 0.41485 1.06827 0.41422
 C1159 C 1.16555 0.64880 0.14445
 N1160 N 1.17868 0.67428 0.13899
 N1161 N 1.19235 0.68977 0.15536
 C1162 C 1.19308 0.68049 0.17784
 N1163 N 1.17988 0.65506 0.18327
 N1164 N 1.16647 0.63947 0.16688
 C1165 C 1.14998 0.63176 0.12664
 N1166 N 1.14183 0.60420 0.13122
 N1167 N 1.12670 0.58896 0.11554
 C1168 C 1.11895 0.60077 0.09473
 N1169 N 1.12718 0.62831 0.09009
 N1170 N 1.14256 0.64349 0.10571
 C1171 C 1.10037 0.58451 0.07824
 N1172 N 1.08625 0.59808 0.06038
 N1173 N 1.06739 0.58377 0.04667
 C1174 C 1.06220 0.55531 0.05017
 N1175 N 1.07674 0.54163 0.06776
 N1176 N 1.09541 0.55598 0.08158
 C1177 C 0.66568 1.15136 0.64318
 N1178 N 0.66229 1.14475 0.66608
 N1179 N 0.67639 1.15976 0.68243
 C1180 C 0.69453 1.18198 0.67656
 N1181 N 0.69809 1.18861 0.65362
 N1182 N 0.68386 1.17360 0.63720
 C1183 C 0.64915 1.13481 0.62558
 N1184 N 0.64982 1.14189 0.60256
 N1185 N 0.63359 1.12713 0.58712
 C1186 C 0.61623 1.10478 0.59421
 N1187 N 0.61585 1.09768 0.61716
 N1188 N 0.63196 1.11237 0.63252
 C1189 C 0.59669 1.08910 0.57801
 N1190 N 0.57824 1.06856 0.58661
 N1191 N 0.55899 1.05513 0.57279
 C1192 C 0.55745 1.06155 0.54975
 N1193 N 0.57617 1.08185 0.54092
 N1194 N 0.59546 1.09545 0.55485
 C1195 C 0.83755 0.34194 0.14300
 N1196 N 0.80813 0.33550 0.14063
 N1197 N 0.79413 0.31978 0.15677
 C1198 C 0.80897 0.31033 0.17598
 N1199 N 0.83829 0.31697 0.17838
 N1200 N 0.85239 0.33221 0.16207
 C1201 C 0.85344 0.35893 0.12530
 N1202 N 0.88285 0.35404 0.12137
 N1203 N 0.89778 0.36964 0.10578
 C1204 C 0.88406 0.39112 0.09383
 N1205 N 0.85465 0.39623 0.09784
 N1206 N 0.83953 0.38023 0.11319
 C1207 C 0.90132 0.40835 0.07709
 N1208 N 0.89530 0.43667 0.07335
 N1209 N 0.91295 0.45252 0.05962
 C1210 C 0.93691 0.44043 0.04889
 N1211 N 0.94246 0.41206 0.05234
 N1212 N 0.92516 0.39639 0.06628
 C1213 C 0.33474 0.84259 0.64459
 N1214 N 0.33909 0.84815 0.66753
 N1215 N 0.32491 0.83304 0.68382
 C1216 C 0.30568 0.81168 0.67792
 N1217 N 0.30125 0.80608 0.65488
 N1218 N 0.31557 0.82123 0.63851
 C1219 C 0.35115 0.85954 0.62706
 N1220 N 0.34931 0.85379 0.60386
 N1221 N 0.36519 0.86908 0.58848
 C1222 C 0.38338 0.89066 0.59580
 N1223 N 0.38496 0.89641 0.61894
 N1224 N 0.36919 0.88119 0.63423
 C1225 C 0.40231 0.90711 0.57956
 N1226 N 0.42115 0.92722 0.58823
 N1227 N 0.43969 0.94145 0.57428
 C1228 C 0.44013 0.93628 0.55103
 N1229 N 0.42104 0.91637 0.54215
 N1230 N 0.40244 0.90199 0.55620
 C1231 C 0.33860 1.15504 -0.14785
 N1232 N 0.32661 1.18099 -0.14237
 N1233 N 0.31216 1.19637 -0.15842
 C1234 C 0.30941 1.18642 -0.18055
 N1235 N 0.32143 1.16050 -0.18600
 N1236 N 0.33566 1.14503 -0.16992
 C1237 C 0.35484 1.13823 -0.13034
 N1238 N 0.36261 1.11052 -0.13465
 N1239 N 0.37764 1.09530 -0.11884
 C1240 C 0.38564 1.10734 -0.09824
 N1241 N 0.37793 1.13506 -0.09396
 N1242 N 0.36271 1.15022 -0.10969
 C1243 C 0.40232 1.09076 -0.08084
 N1244 N 0.41456 1.10415 -0.06216
 N1245 N 0.42948 1.08918 -0.04616
 C1246 C 0.43255 1.06027 -0.04819
 N1247 N 0.42033 1.04682 -0.06687
 N1248 N 0.40558 1.06185 -0.08299
 C1249 C 0.84476 0.65663 0.35002
 N1250 N 0.83222 0.68219 0.35590
 N1251 N 0.81757 0.69773 0.34006
 C1252 C 0.81520 0.68836 0.31775
 N1253 N 0.82787 0.66286 0.31187
 N1254 N 0.84230 0.64722 0.32774
 C1255 C 0.86070 0.63945 0.36747
 N1256 N 0.86839 0.61176 0.36297
 N1257 N 0.88275 0.59612 0.37891
 C1258 C 0.89013 0.60774 0.39981
 N1259 N 0.88255 0.63545 0.40425
 N1260 N 0.86799 0.65100 0.38840
 C1261 C 0.90594 0.59077 0.41746
 N1262 N 0.91774 0.60393 0.43640
 N1263 N 0.93175 0.58870 0.45273
 C1264 C 0.93430 0.55974 0.45080
 N1265 N 0.92252 0.54649 0.43185
 N1266 N 0.90867 0.56178 0.41540
 C1267 C 0.65284 1.15337 0.14867
 N1268 N 0.65475 1.14391 0.17102
 N1269 N 0.66969 1.15901 0.18688
 C1270 C 0.68345 1.18398 0.18092
 N1271 N 0.68163 1.19340 0.15855
 N1272 N 0.66647 1.17841 0.14273
 C1273 C 0.63637 1.13679 0.13123
 N1274 N 0.62943 1.14870 0.11031
 N1275 N 0.61445 1.13367 0.09443
 C1276 C 0.60610 1.10613 0.09882
 N1277 N 0.61314 1.09416 0.11972
 N1278 N 0.62790 1.10928 0.13569
 C1279 C 0.58993 1.08967 0.08114
 N1280 N 0.58682 1.06070 0.08306
 N1281 N 0.57268 1.04582 0.06658
 C1282 C 0.56097 1.05948 0.04774
 N1283 N 0.56388 1.08843 0.04594
 N1284 N 0.57820 1.10325 0.06230
 C1285 C 1.15487 0.65167 0.64885
 N1286 N 1.16776 0.67710 0.64298
 N1287 N 1.18293 0.69217 0.65874
 C1288 C 1.18550 0.68244 0.68097
 N1289 N 1.17253 0.65706 0.68686
 N1290 N 1.15758 0.64187 0.67105
 C1291 C 1.13812 0.63518 0.63153
 N1292 N 1.13009 0.60751 0.63584
 N1293 N 1.11490 0.59254 0.62001
 C1294 C 1.10700 0.60484 0.59943
 N1295 N 1.11492 0.63253 0.59519
 N1296 N 1.13031 0.64740 0.61092
 C1297 C 1.09038 0.58857 0.58189
 N1298 N 1.07800 0.60240 0.56343
 N1299 N 1.06339 0.58777 0.54713
 C1300 C 1.06080 0.55876 0.54862
 N1301 N 1.07313 0.54486 0.56709
 N1302 N 1.08757 0.55955 0.58352
 C1303 C 0.65824 0.85057 -0.14909
 N1304 N 0.67101 0.82507 -0.14328
 N1305 N 0.68628 0.81008 -0.15904
 C1306 C 0.68910 0.81998 -0.18121
 N1307 N 0.67628 0.84546 -0.18702
 N1308 N 0.66123 0.86056 -0.17122
 C1309 C 0.64115 0.86686 -0.13183
 N1310 N 0.63280 0.89444 -0.13615
 N1311 N 0.61717 0.90917 -0.12044
 C1312 C 0.60911 0.89673 -0.09996
 N1313 N 0.61736 0.86913 -0.09568
 N1314 N 0.63319 0.85448 -0.11130
 C1315 C 0.59198 0.91277 -0.08256
 N1316 N 0.57968 0.89884 -0.06411
 N1317 N 0.56458 0.91332 -0.04797
 C1318 C 0.56142 0.94226 -0.04962
 N1319 N 0.57367 0.95625 -0.06809
 N1320 N 0.58859 0.94171 -0.08435
 C1321 C 1.15206 0.34842 0.34891
 N1322 N 1.15444 0.35786 0.32659
 N1323 N 1.16954 0.34262 0.31089
 C1324 C 1.18298 0.31754 0.31702
 N1325 N 1.18067 0.30815 0.33936
 N1326 N 1.16536 0.32327 0.35501
 C1327 C 1.13550 0.36510 0.36623
 N1328 N 1.12818 0.35314 0.38705
 N1329 N 1.11324 0.36824 0.40290
 C1330 C 1.10530 0.39591 0.39858
 N1331 N 1.11269 0.40794 0.37778
 N1332 N 1.12743 0.39274 0.36183
 C1333 C 1.08924 0.41239 0.41631
 N1334 N 1.08654 0.44143 0.41464
 N1335 N 1.07263 0.45626 0.43128
 C1336 C 1.06077 0.44248 0.45001
 N1337 N 1.06326 0.41347 0.45152
 N1338 N 1.07734 0.39870 0.43502
 C1339 C 0.34086 0.84509 0.14710
 N1340 N 0.33844 0.85470 0.16933
 N1341 N 0.32402 0.83924 0.18530
 C1342 C 0.31129 0.81372 0.17959
 N1343 N 0.31356 0.80415 0.15732
 N1344 N 0.32820 0.81953 0.14137
 C1345 C 0.35711 0.86197 0.12966
 N1346 N 0.36454 0.85024 0.10882
 N1347 N 0.37964 0.86551 0.09309
 C1348 C 0.38767 0.89309 0.09759
 N1349 N 0.38012 0.90488 0.11839
 N1350 N 0.36521 0.88953 0.13419
 C1351 C 0.40411 0.90982 0.08016
 N1352 N 0.40737 0.93872 0.08242
 N1353 N 0.42182 0.95388 0.06622
 C1354 C 0.43371 0.94058 0.04734
 N1355 N 0.43065 0.91169 0.04520
 N1356 N 0.41603 0.89658 0.06128
 C1357 C 0.84539 0.34430 0.64897
 N1358 N 0.84274 0.35386 0.67120
 N1359 N 0.82814 0.33834 0.68706
 C1360 C 0.81548 0.31284 0.68120
 N1361 N 0.81804 0.30332 0.65894
 N1362 N 0.83286 0.31873 0.64313
 C1363 C 0.86146 0.36135 0.63153
 N1364 N 0.86893 0.34964 0.61070
 N1365 N 0.88354 0.36510 0.59482
 C1366 C 0.89100 0.39287 0.59913
 N1367 N 0.88345 0.40463 0.61994
 N1368 N 0.86903 0.38909 0.63591
 C1369 C 0.90675 0.40977 0.58143
 N1370 N 0.90921 0.43879 0.58334
 N1371 N 0.92294 0.45405 0.56681
 C1372 C 0.93485 0.44074 0.54794
 N1373 N 0.93258 0.41174 0.54616
 N1374 N 0.91868 0.39654 0.56256
 C1375 C 1.14864 1.16843 0.64468
 N1376 N 1.17162 1.18585 0.63842
 N1377 N 1.18665 1.20058 0.65452
 C1378 C 1.17925 1.19837 0.67744
 N1379 N 1.15615 1.18111 0.68363
 N1380 N 1.14114 1.16643 0.66756
 C1381 C 1.13286 1.15087 0.62737
 N1382 N 1.11089 1.13275 0.63439
 N1383 N 1.09739 1.11558 0.61918
 C1384 C 1.10526 1.11585 0.59634
 N1385 N 1.12706 1.13417 0.58919
 N1386 N 1.14064 1.15138 0.60446
 C1387 C 1.09119 1.09544 0.58023
 N1388 N 1.09780 1.09519 0.55708
 N1389 N 1.08562 1.07556 0.54303
 C1390 C 1.06657 1.05548 0.55173
 N1391 N 1.05993 1.05593 0.57479
 N1392 N 1.07194 1.07553 0.58875
 C1393 C 0.64885 0.66666 0.14596
 N1394 N 0.65654 0.69457 0.14241
 N1395 N 0.67204 0.70886 0.15850
 C1396 C 0.67991 0.69584 0.17882
 N1397 N 0.67188 0.66806 0.18245
 N1398 N 0.65689 0.65365 0.16621
 C1399 C 0.63326 0.65021 0.12798
 N1400 N 0.63937 0.62186 0.12529
 N1401 N 0.62543 0.60653 0.10906
 C1402 C 0.60447 0.61884 0.09519
 N1403 N 0.59809 0.64718 0.09797
 N1404 N 0.61248 0.66269 0.11397
 C1405 C 0.58905 0.60124 0.07783
 N1406 N 0.55972 0.60540 0.07281
 N1407 N 0.54529 0.58725 0.05877
 C1408 C 0.55989 0.56466 0.04902
 N1409 N 0.58931 0.56098 0.05369
 N1410 N 0.60356 0.57879 0.06796
 C1411 C 1.14783 0.83138 0.35485
 N1412 N 1.17068 0.81365 0.36080
 N1413 N 1.18619 0.79993 0.34439
 C1414 C 1.17945 0.80355 0.32147
 N1415 N 1.15654 0.82118 0.31556
 N1416 N 1.14103 0.83483 0.33195
 C1417 C 1.13135 0.84762 0.37259
 N1418 N 1.10906 0.86559 0.36598
 N1419 N 1.09495 0.88167 0.38163
 C1420 C 1.10250 0.88039 0.40452
 N1421 N 1.12461 0.86218 0.41125
 N1422 N 1.13879 0.84605 0.39554
 C1423 C 1.08809 0.90002 0.42106
 N1424 N 1.09476 0.89974 0.44420
 N1425 N 1.08272 0.91914 0.45855
 C1426 C 1.06377 0.93950 0.45014
 N1427 N 1.05699 0.93949 0.42711
 N1428 N 1.06883 0.92012 0.41287
 C1429 C 0.64905 0.33504 -0.14733
 N1430 N 0.65660 0.30710 -0.14372
 N1431 N 0.67192 0.29266 -0.15984
 C1432 C 0.67972 0.30555 -0.18023
 N1433 N 0.67182 0.33334 -0.18391
 N1434 N 0.65702 0.34791 -0.16765
 C1435 C 0.63365 0.35165 -0.12934
 N1436 N 0.63988 0.37999 -0.12678
 N1437 N 0.62606 0.39546 -0.11057
 C1438 C 0.60513 0.38331 -0.09659
 N1439 N 0.59866 0.35497 -0.09923
 N1440 N 0.61292 0.33931 -0.11521
 C1441 C 0.58972 0.40107 -0.07933
 N1442 N 0.56045 0.39679 -0.07416
 N1443 N 0.54597 0.41505 -0.06025
 C1444 C 0.56047 0.43786 -0.05076
 N1445 N 0.58983 0.44168 -0.05557
 N1446 N 0.60413 0.42375 -0.06972
 C1447 C 0.85161 1.16295 0.35480
 N1448 N 0.82900 1.18089 0.36086
 N1449 N 0.81298 1.19425 0.34449
 C1450 C 0.81892 1.19002 0.32151
 N1451 N 0.84151 1.17208 0.31551
 N1452 N 0.85754 1.15882 0.33184
 C1453 C 0.86913 1.14755 0.37250
 N1454 N 0.89209 1.13050 0.36576
 N1455 N 0.90750 1.11544 0.38139
 C1456 C 0.90061 1.11682 0.40439
 N1457 N 0.87777 1.13407 0.41126
 N1458 N 0.86232 1.14922 0.39556
 C1459 C 0.91670 1.09833 0.42096
 N1460 N 0.90998 1.09787 0.44410
 N1461 N 0.92353 1.07928 0.45841
 C1462 C 0.94416 1.06055 0.44999
 N1463 N 0.95102 1.06136 0.42698
 N1464 N 0.93763 1.07991 0.41277
 C1465 C 0.35338 0.66778 -0.14462
 N1466 N 0.32706 0.68058 -0.13917
 N1467 N 0.31086 0.69354 -0.15562
 C1468 C 0.32026 0.69384 -0.17814
 N1469 N 0.34655 0.68100 -0.18356
 N1470 N 0.36286 0.66830 -0.16709
 C1471 C 0.37092 0.65270 -0.12678
 N1472 N 0.39931 0.64428 -0.13140
 N1473 N 0.41483 0.62929 -0.11575
 C1474 C 0.40246 0.62198 -0.09496
 N1475 N 0.37412 0.63055 -0.09026
 N1476 N 0.35867 0.64577 -0.10585
 C1477 C 0.41876 0.60331 -0.07870
 N1478 N 0.40429 0.58985 -0.06097
 N1479 N 0.41847 0.57072 -0.04763
 C1480 C 0.44769 0.56458 -0.05143
 N1481 N 0.46230 0.57847 -0.06887
 N1482 N 0.44807 0.59742 -0.08230
 C1483 C 0.85433 0.83362 0.64402
 N1484 N 0.86166 0.83633 0.66687
 N1485 N 0.84598 0.82284 0.68329
 C1486 C 0.82238 0.80606 0.67747
 N1487 N 0.81513 0.80315 0.65459
 N1488 N 0.83079 0.81674 0.63814
 C1489 C 0.87101 0.84983 0.62632
 N1490 N 0.86284 0.84956 0.60349
 N1491 N 0.87727 0.86577 0.58790
 C1492 C 0.90037 0.88274 0.59464
 N1493 N 0.90865 0.88270 0.61739
 N1494 N 0.89427 0.86656 0.63292
 C1495 C 0.91525 0.90246 0.57834
 N1496 N 0.93585 0.92111 0.58668
 N1497 N 0.94834 0.94053 0.57275
 C1498 C 0.94086 0.94203 0.54988
 N1499 N 0.92053 0.92313 0.54130
 N1500 N 0.90785 0.90368 0.55535
 C1501 C 0.35476 0.33628 0.14502
 N1502 N 0.32910 0.32241 0.13941
 N1503 N 0.31297 0.30938 0.15584
 C1504 C 0.32173 0.31005 0.17850
 N1505 N 0.34734 0.32399 0.18411
 N1506 N 0.36362 0.33679 0.16765
 C1507 C 0.37224 0.35120 0.12708
 N1508 N 0.40031 0.36047 0.13179
 N1509 N 0.41578 0.37510 0.11588
 C1510 C 0.40367 0.38116 0.09474
 N1511 N 0.37564 0.37177 0.08997
 N1512 N 0.36026 0.35691 0.10582
 C1513 C 0.41984 0.39938 0.07809
 N1514 N 0.40531 0.41199 0.05998
 N1515 N 0.41933 0.43078 0.04623
 C1516 C 0.44844 0.43738 0.04998
 N1517 N 0.46312 0.42432 0.06779
 N1518 N 0.44905 0.40572 0.08164
   
