data_POSCAR
  _audit_creation_date              2014-09-24
  _audit_creation_method            'ToBaCCo'
  _symmetry_space_group_name_H-M    'P1'
  _symmetry_Int_Tables_number       1
  _symmetry_cell_setting            triclinic
  loop_
  _symmetry_equiv_pos_as_xyz
 x,y,z
_cell_length_a 72.3258
_cell_length_b 72.4344
_cell_length_c 72.2806
_cell_angle_alpha 89.993000
_cell_angle_beta 90.000600
_cell_angle_gamma 89.984800
loop_
  _atom_site_label
  _atom_site_type_symbol
  _atom_site_fract_x
  _atom_site_fract_y
  _atom_site_fract_z
C1 C 0.36545 1.35205 0.33832
 C2 C 0.36531 1.33809 0.35176
 C3 C 0.35205 1.33820 0.36552
 C4 C 0.33870 1.35223 0.36596
 C5 C 0.33894 1.36606 0.35284
 C6 C 0.35245 1.36597 0.33889
 C7 C 0.37623 1.35496 0.32296
 N8 N 0.37022 1.37043 0.31397
 C9 C 0.35563 1.37721 0.32387
 C10 C 0.32407 1.37738 0.35635
 N11 N 0.31456 1.37073 0.37127
 C12 C 0.32367 1.35529 0.37716
 C13 C 0.35493 1.32279 0.37628
 N14 N 0.36962 1.31331 0.36936
 C15 C 0.37601 1.32260 0.35432
 H16 H 0.38773 1.34632 0.31896
 H17 H 0.34726 1.38904 0.32023
 H18 H 0.32022 1.38912 0.34798
 H19 H 0.31994 1.34673 0.38883
 H20 H 0.34666 1.31858 0.38802
 H21 H 0.38766 1.31847 0.34588
 C22 C 0.36522 0.85186 0.83859
 C23 C 0.36518 0.83798 0.85210
 C24 C 0.35185 0.83801 0.86580
 C25 C 0.33833 0.85189 0.86612
 C26 C 0.33845 0.86564 0.85290
 C27 C 0.35199 0.86563 0.83899
 C28 C 0.37602 0.85479 0.82322
 N29 N 0.36968 0.87001 0.81422
 C30 C 0.35500 0.87675 0.82384
 C31 C 0.32346 0.87683 0.85631
 N32 N 0.31400 0.87020 0.87126
 C33 C 0.32323 0.85487 0.87727
 C34 C 0.35483 0.82265 0.87661
 N35 N 0.36962 0.81328 0.86977
 C36 C 0.37601 0.82260 0.85474
 H37 H 0.38759 0.84636 0.81888
 H38 H 0.34671 0.88853 0.81980
 H39 H 0.31953 0.88849 0.84785
 H40 H 0.31957 0.84638 0.88899
 H41 H 0.34653 0.81837 0.88831
 H42 H 0.38771 0.81854 0.84634
 C43 C 0.86556 1.35207 0.83830
 C44 C 0.86546 1.33813 0.85176
 C45 C 0.85221 1.33823 0.86553
 C46 C 0.83882 1.35223 0.86596
 C47 C 0.83902 1.36603 0.85281
 C48 C 0.85253 1.36596 0.83885
 C49 C 0.87633 1.35498 0.82293
 N50 N 0.87028 1.37042 0.81393
 C51 C 0.85568 1.37719 0.82382
 C52 C 0.82412 1.37732 0.85633
 N53 N 0.81465 1.37067 0.87127
 C54 C 0.82380 1.35526 0.87717
 C55 C 0.85514 1.32284 0.87631
 N56 N 0.86984 1.31339 0.86940
 C57 C 0.87620 1.32267 0.85434
 H58 H 0.88785 1.34635 0.81895
 H59 H 0.84729 1.38899 0.82017
 H60 H 0.82024 1.38905 0.84794
 H61 H 0.82011 1.34671 0.88886
 H62 H 0.84688 1.31864 0.88807
 H63 H 0.88785 1.31855 0.84590
 C64 C 0.86614 0.85234 0.33869
 C65 C 0.86618 0.83851 0.35226
 C66 C 0.85299 0.83862 0.36609
 C67 C 0.83952 0.85253 0.36648
 C68 C 0.83953 0.86623 0.35315
 C69 C 0.85300 0.86614 0.33917
 C70 C 0.87683 0.85521 0.32326
 N71 N 0.87064 0.87054 0.31416
 C72 C 0.85600 0.87727 0.32404
 C73 C 0.82448 0.87737 0.35652
 N74 N 0.81528 0.87071 0.37151
 C75 C 0.82446 0.85553 0.37770
 C76 C 0.85600 0.82328 0.37692
 N77 N 0.87069 0.81383 0.36997
 C78 C 0.87697 0.82308 0.35486
 H79 H 0.88841 0.84665 0.31929
 H80 H 0.84751 0.88897 0.32032
 H81 H 0.82019 0.88906 0.34824
 H82 H 0.82042 0.84715 0.38942
 H83 H 0.84777 0.81907 0.38869
 H84 H 0.88857 0.81894 0.34635
 C85 C 0.63361 0.64752 0.33904
 C86 C 0.63387 0.66147 0.35249
 C87 C 0.64752 0.66159 0.36586
 C88 C 0.66104 0.64772 0.36603
 C89 C 0.66068 0.63388 0.35286
 C90 C 0.64682 0.63379 0.33927
 C91 C 0.62254 0.64448 0.32390
 N92 N 0.62859 0.62913 0.31475
 C93 C 0.64350 0.62254 0.32430
 C94 C 0.67584 0.62280 0.35596
 N95 N 0.68542 0.62963 0.37063
 C96 C 0.67639 0.64487 0.37688
 C97 C 0.64484 0.67706 0.37657
 N98 N 0.62985 0.68634 0.37006
 C99 C 0.62306 0.67686 0.35531
 H100 H 0.61083 0.65296 0.32014
 H101 H 0.65199 0.61088 0.32044
 H102 H 0.67991 0.61099 0.34773
 H103 H 0.68070 0.65336 0.38841
 H104 H 0.65321 0.68121 0.38826
 H105 H 0.61141 0.68108 0.34692
 C106 C 0.63445 0.14808 0.83846
 C107 C 0.63405 0.16150 0.85244
 C108 C 0.64755 0.16164 0.86598
 C109 C 0.66170 0.14838 0.86568
 C110 C 0.66218 0.13534 0.85179
 C111 C 0.64845 0.13518 0.83809
 C112 C 0.62343 0.14490 0.82328
 N113 N 0.63039 0.13035 0.81349
 C114 C 0.64581 0.12443 0.82266
 C115 C 0.67773 0.12479 0.85448
 N116 N 0.68689 0.13096 0.86980
 C117 C 0.67696 0.14546 0.87668
 C118 C 0.64412 0.17661 0.87721
 N119 N 0.62894 0.18561 0.87074
 C120 C 0.62267 0.17638 0.85561
 H121 H 0.61158 0.15319 0.81952
 H122 H 0.65454 0.11296 0.81877
 H123 H 0.68170 0.11328 0.84584
 H124 H 0.68067 0.15389 0.88845
 H125 H 0.65250 0.18100 0.88882
 H126 H 0.61081 0.18028 0.84736
 C127 C 1.13435 0.64819 0.83936
 C128 C 1.13434 0.66163 0.85333
 C129 C 1.14790 0.66142 0.86681
 C130 C 1.16161 0.64772 0.86657
 C131 C 1.16166 0.63455 0.85279
 C132 C 1.14789 0.63471 0.83913
 C133 C 1.12330 0.64538 0.82413
 N134 N 1.12976 0.63050 0.81466
 C135 C 1.14482 0.62390 0.82379
 C136 C 1.17693 0.62358 0.85554
 N137 N 1.18630 0.62965 0.87078
 C138 C 1.17679 0.64448 0.87756
 C139 C 1.14494 0.67647 0.87804
 N140 N 1.12990 0.68581 0.87172
 C141 C 1.12332 0.67677 0.85660
 H142 H 1.11141 0.65359 0.82026
 H143 H 1.15324 0.61237 0.81934
 H144 H 1.18059 0.61191 0.84699
 H145 H 1.18079 0.65294 0.88920
 H146 H 1.15320 0.68035 0.88990
 H147 H 1.11173 0.68118 0.84823
 C148 C 1.13515 0.14851 0.33821
 C149 C 1.13538 0.16249 0.35162
 C150 C 1.14872 0.16238 0.36530
 C151 C 1.16207 0.14835 0.36568
 C152 C 1.16174 0.13450 0.35258
 C153 C 1.14813 0.13458 0.33872
 C154 C 1.12425 0.14558 0.32292
 N155 N 1.13019 0.13009 0.31394
 C156 C 1.14484 0.12331 0.32375
 C157 C 1.17662 0.12318 0.35603
 N158 N 1.18622 0.12984 0.37089
 C159 C 1.17716 0.14529 0.37680
 C160 C 1.14591 0.17780 0.37606
 N161 N 1.13119 0.18729 0.36922
 C162 C 1.12470 0.17798 0.35423
 H163 H 1.11273 0.15422 0.31899
 H164 H 1.15317 0.11147 0.32008
 H165 H 1.18041 0.11141 0.34766
 H166 H 1.18095 0.15386 0.38844
 H167 H 1.15426 0.18201 0.38775
 H168 H 1.11300 0.18211 0.34586
 C169 C 0.63399 1.35221 0.66129
 C170 C 0.63425 1.33829 0.64780
 C171 C 0.64785 1.33825 0.63438
 C172 C 0.66131 1.35216 0.63418
 C173 C 0.66096 1.36597 0.64739
 C174 C 0.64715 1.36598 0.66103
 C175 C 0.62296 1.35519 0.67647
 N176 N 0.62899 1.37055 0.68563
 C177 C 0.64384 1.37719 0.67603
 C178 C 0.67606 1.37711 0.64425
 N179 N 0.68559 1.37035 0.62951
 C180 C 0.67660 1.35509 0.62328
 C181 C 0.64518 1.32280 0.62364
 N182 N 0.63024 1.31346 0.63018
 C183 C 0.62348 1.32288 0.64498
 H184 H 0.61130 1.34667 0.68026
 H185 H 0.65230 1.38887 0.67988
 H186 H 0.68011 1.38892 0.65248
 H187 H 0.68088 1.34664 0.61170
 H188 H 0.65352 1.31871 0.61190
 H189 H 0.61187 1.31860 0.65340
 C190 C 0.63406 0.85200 1.16124
 C191 C 0.63431 0.83817 1.14766
 C192 C 0.64760 0.83846 1.13390
 C193 C 0.66088 0.85257 1.13360
 C194 C 0.66060 0.86618 1.14701
 C195 C 0.64702 0.86593 1.16086
 C196 C 0.62322 0.85476 1.17660
 N197 N 0.62916 0.87017 1.18572
 C198 C 0.64380 0.87703 1.17595
 C199 C 0.67554 0.87749 1.14388
 N200 N 0.68493 0.87110 1.12889
 C201 C 0.67598 0.85587 1.12249
 C202 C 0.64485 0.82307 1.12307
 N203 N 0.63026 0.81343 1.12995
 C204 C 0.62375 0.82261 1.14501
 H205 H 0.61171 0.84608 1.18051
 H206 H 0.65215 0.88882 1.17971
 H207 H 0.67936 0.88943 1.15204
 H208 H 0.68048 0.84741 1.11100
 H209 H 0.65320 0.81896 1.11134
 H210 H 0.61216 0.81833 1.15345
 C211 C 1.13392 1.35260 1.16039
 C212 C 1.13424 1.33865 1.14695
 C213 C 1.14797 1.33853 1.13365
 C214 C 1.16149 1.35239 1.13355
 C215 C 1.16109 1.36622 1.14665
 C216 C 1.14721 1.36632 1.16024
 C217 C 1.12282 1.35561 1.17553
 N218 N 1.12904 1.37082 1.18463
 C219 C 1.14394 1.37749 1.17530
 C220 C 1.17616 1.37737 1.14350
 N221 N 1.18594 1.37062 1.12881
 C222 C 1.17684 1.35526 1.12273
 C223 C 1.14533 1.32306 1.12293
 N224 N 1.13030 1.31380 1.12937
 C225 C 1.12344 1.32328 1.14408
 H226 H 1.11115 1.34722 1.17968
 H227 H 1.15221 1.38920 1.17950
 H228 H 1.17991 1.38910 1.15194
 H229 H 1.18074 1.34667 1.11114
 H230 H 1.15376 1.31889 1.11128
 H231 H 1.11175 1.31907 1.15242
 C232 C 1.13357 0.85269 0.66043
 C233 C 1.13343 0.83905 0.64666
 C234 C 1.14687 0.83901 0.63305
 C235 C 1.16071 0.85259 0.63306
 C236 C 1.16089 0.86596 0.64670
 C237 C 1.14724 0.86602 0.66046
 C238 C 1.12269 0.85571 0.67576
 N239 N 1.12945 0.87053 0.68512
 C240 C 1.14449 0.87690 0.67581
 C241 C 1.17626 0.87675 0.64384
 N242 N 1.18545 0.87029 0.62877
 C243 C 1.17598 0.85551 0.62207
 C244 C 1.14374 0.82380 0.62206
 N245 N 1.12878 0.81458 0.62873
 C246 C 1.12240 0.82387 0.64377
 H247 H 1.11103 0.84738 0.68006
 H248 H 1.15288 0.88857 0.67990
 H249 H 1.18045 0.88842 0.65219
 H250 H 1.18019 0.84713 0.61041
 H251 H 1.15213 0.81946 0.61046
 H252 H 1.11064 0.81985 0.65211
 C253 C 0.36676 0.64742 0.66052
 C254 C 0.36634 0.66132 0.64702
 C255 C 0.35251 0.66140 0.63383
 C256 C 0.33897 0.64756 0.63390
 C257 C 0.33947 0.63378 0.64706
 C258 C 0.35346 0.63372 0.66053
 C259 C 0.37799 0.64445 0.67557
 N260 N 0.37184 0.62928 0.68478
 C261 C 0.35685 0.62260 0.67560
 C262 C 0.32435 0.62264 0.64407
 N263 N 0.31447 0.62934 0.62943
 C264 C 0.32354 0.64467 0.62321
 C265 C 0.35507 0.67682 0.62302
 N266 N 0.37016 0.68610 0.62929
 C267 C 0.37713 0.67668 0.64399
 H268 H 0.38970 0.65284 0.67959
 H269 H 0.34861 0.61089 0.67991
 H270 H 0.32066 0.61094 0.65258
 H271 H 0.31957 0.65321 0.61162
 H272 H 0.34655 0.68094 0.61142
 H273 H 0.38890 0.68091 0.65221
 C274 C 0.36670 0.14751 1.16016
 C275 C 0.36629 0.16142 1.14667
 C276 C 0.35246 0.16152 1.13348
 C277 C 0.33891 0.14768 1.13354
 C278 C 0.33940 0.13390 1.14669
 C279 C 0.35338 0.13382 1.16016
 C280 C 0.37792 0.14454 1.17522
 N281 N 0.37175 0.12937 1.18442
 C282 C 0.35676 0.12270 1.17523
 C283 C 0.32428 0.12277 1.14370
 N284 N 0.31439 0.12948 1.12906
 C285 C 0.32347 0.14481 1.12285
 C286 C 0.35504 0.17695 1.12268
 N287 N 0.37014 0.18621 1.12897
 C288 C 0.37710 0.17676 1.14366
 H289 H 0.38963 0.15292 1.17924
 H290 H 0.34850 0.11100 1.17955
 H291 H 0.32058 0.11107 1.15222
 H292 H 0.31949 0.15336 1.11127
 H293 H 0.34653 0.18110 1.11109
 H294 H 0.38886 0.18097 1.15189
 C295 C 0.86780 0.64700 1.15991
 C296 C 0.86748 0.66079 1.14630
 C297 C 0.85369 0.66084 1.13306
 C298 C 0.84008 0.64706 1.13319
 C299 C 0.84045 0.63339 1.14654
 C300 C 0.85441 0.63337 1.16002
 C301 C 0.87898 0.64408 1.17502
 N302 N 0.87273 0.62901 1.18433
 C303 C 0.85771 0.62236 1.17518
 C304 C 0.82519 0.62238 1.14373
 N305 N 0.81555 0.62908 1.12903
 C306 C 0.82462 0.64418 1.12252
 C307 C 0.85630 0.67621 1.12220
 N308 N 0.87138 0.68550 1.12849
 C309 C 0.87830 0.67612 1.14324
 H310 H 0.89074 0.65243 1.17899
 H311 H 0.84939 0.61074 1.17957
 H312 H 0.82112 0.61071 1.15214
 H313 H 0.82027 0.65254 1.11089
 H314 H 0.84780 0.68032 1.11059
 H315 H 0.89001 0.68040 1.15151
 C316 C 0.86582 0.14846 0.66184
 C317 C 0.86547 0.16236 0.64833
 C318 C 0.85178 0.16239 0.63499
 C319 C 0.83831 0.14847 0.63492
 C320 C 0.83875 0.13469 0.64815
 C321 C 0.85265 0.13469 0.66170
 C322 C 0.87698 0.14547 0.67693
 N323 N 0.87102 0.13012 0.68614
 C324 C 0.85609 0.12348 0.67667
 C325 C 0.82366 0.12351 0.64511
 N326 N 0.81404 0.13023 0.63041
 C327 C 0.82297 0.14550 0.62410
 C328 C 0.85443 0.17779 0.62417
 N329 N 0.86944 0.18710 0.63058
 C330 C 0.87627 0.17772 0.64537
 H331 H 0.88868 0.15398 0.68061
 H332 H 0.84766 0.11179 0.68059
 H333 H 0.81968 0.11170 0.65338
 H334 H 0.81861 0.15391 0.61252
 H335 H 0.84604 0.18185 0.61246
 H336 H 0.88796 0.18198 0.65369
 C337 C 1.35395 0.36615 0.66044
 C338 C 1.33982 0.36587 0.64715
 C339 C 1.33943 0.35208 0.63393
 C340 C 1.35319 0.33844 0.63376
 C341 C 1.36716 0.33879 0.64672
 C342 C 1.36750 0.35268 0.66024
 C343 C 1.35731 0.37731 0.67548
 N344 N 1.37252 0.37088 0.68448
 C345 C 1.37884 0.35583 0.67518
 C346 C 1.37818 0.32364 0.64356
 N347 N 1.37124 0.31387 0.62896
 C348 C 1.35586 0.32304 0.62298
 C349 C 1.32385 0.35478 0.62336
 N350 N 1.31475 0.36989 0.62981
 C351 C 1.32447 0.37677 0.64437
 H352 H 1.34889 0.38884 0.67991
 H353 H 1.39074 0.34763 0.67907
 H354 H 1.38997 0.31985 0.65192
 H355 H 1.34714 0.31916 0.61148
 H356 H 1.31949 0.34632 0.61182
 H357 H 1.32043 0.38853 0.65267
 C358 C 1.35232 0.86479 1.16169
 C359 C 1.33831 0.86439 1.14829
 C360 C 1.33817 0.85064 1.13505
 C361 C 1.35211 0.83718 1.13496
 C362 C 1.36602 0.83771 1.14800
 C363 C 1.36612 0.85165 1.16151
 C364 C 1.35538 0.87600 1.17669
 N365 N 1.37080 0.87010 1.18586
 C366 C 1.37744 0.85516 1.17641
 C367 C 1.37725 0.82269 1.14483
 N368 N 1.37046 0.81284 1.13021
 C369 C 1.35501 0.82185 1.12417
 C370 C 1.32270 0.85327 1.12430
 N371 N 1.31345 0.86834 1.13067
 C372 C 1.32294 0.87520 1.14537
 H373 H 1.34684 0.88769 1.18035
 H374 H 1.38918 0.84679 1.18031
 H375 H 1.38907 0.81904 1.15321
 H376 H 1.34638 0.81789 1.11263
 H377 H 1.31854 0.84486 1.11264
 H378 H 1.31877 0.88694 1.15364
 C379 C 0.85327 0.36564 1.16124
 C380 C 0.83981 0.36596 1.14728
 C381 C 0.83972 0.35247 1.13375
 C382 C 0.85309 0.33842 1.13404
 C383 C 0.86617 0.33802 1.14792
 C384 C 0.86627 0.35173 1.16162
 C385 C 0.85638 0.37666 1.17642
 N386 N 0.87098 0.36978 1.18623
 C387 C 0.87701 0.35443 1.17707
 C388 C 0.87680 0.32253 1.14524
 N389 N 0.87064 0.31334 1.12994
 C390 C 0.85606 0.32319 1.12306
 C391 C 0.82467 0.35579 1.12256
 N392 N 0.81557 0.37089 1.12906
 C393 C 0.82483 0.37721 1.14415
 H394 H 0.84798 0.38842 1.18018
 H395 H 0.88853 0.34577 1.18098
 H396 H 0.88836 0.31862 1.15387
 H397 H 0.84761 0.31942 1.11132
 H398 H 0.82029 0.34738 1.11098
 H399 H 0.82087 0.38903 1.15242
 C400 C 0.85326 0.86624 0.66060
 C401 C 0.83937 0.86613 0.64705
 C402 C 0.83914 0.85243 0.63373
 C403 C 0.85282 0.83871 0.63371
 C404 C 0.86654 0.83884 0.64702
 C405 C 0.86672 0.85267 0.66060
 C406 C 0.85645 0.87732 0.67574
 N407 N 0.87146 0.87076 0.68497
 C408 C 0.87782 0.85568 0.67575
 C409 C 0.87745 0.82356 0.64404
 N410 N 0.87066 0.81412 0.62927
 C411 C 0.85557 0.82334 0.62288
 C412 C 0.82374 0.85523 0.62295
 N413 N 0.81457 0.87032 0.62937
 C414 C 0.82409 0.87708 0.64411
 H415 H 0.84806 0.88893 0.68004
 H416 H 0.88961 0.84740 0.67979
 H417 H 0.88915 0.81935 0.65237
 H418 H 0.84715 0.81918 0.61123
 H419 H 0.81951 0.84683 0.61132
 H420 H 0.81993 0.88877 0.65245
 C421 C 0.64665 0.63351 0.66009
 C422 C 0.66028 0.63341 0.64630
 C423 C 0.66029 0.64687 0.63272
 C424 C 0.64668 0.66068 0.63281
 C425 C 0.63331 0.66082 0.64648
 C426 C 0.63329 0.64715 0.66021
 C427 C 0.64371 0.62259 0.67539
 N428 N 0.62890 0.62930 0.68483
 C429 C 0.62246 0.64434 0.67559
 C430 C 0.62250 0.67618 0.64368
 N431 N 0.62894 0.68541 0.62862
 C432 C 0.64373 0.67597 0.62187
 C433 C 0.67551 0.64379 0.62171
 N434 N 0.68479 0.62885 0.62833
 C435 C 0.67550 0.62242 0.64336
 H436 H 0.65210 0.61096 0.67963
 H437 H 0.61078 0.65271 0.67976
 H438 H 0.61083 0.68035 0.65208
 H439 H 0.65211 0.68020 0.61021
 H440 H 0.67985 0.65222 0.61013
 H441 H 0.67956 0.61067 0.65167
 C442 C 0.64656 1.13419 1.16078
 C443 C 0.66048 1.13426 1.14728
 C444 C 0.66079 1.14794 1.13394
 C445 C 0.64722 1.16178 1.13399
 C446 C 0.63351 1.16166 1.14725
 C447 C 0.63325 1.14782 1.16083
 C448 C 0.64323 1.12301 1.17579
 N449 N 0.62822 1.12954 1.18522
 C450 C 0.62211 1.14479 1.17593
 C451 C 0.62258 1.17689 1.14420
 N452 N 0.62931 1.18650 1.12939
 C453 C 0.64448 1.17715 1.12316
 C454 C 0.67613 1.14494 1.12309
 N455 N 0.68518 1.12980 1.12955
 C456 C 0.67566 1.12319 1.14436
 H457 H 0.65180 1.11144 1.17978
 H458 H 0.61032 1.15320 1.17958
 H459 H 0.61098 1.18084 1.15276
 H460 H 0.65298 1.18087 1.11145
 H461 H 0.68065 1.15348 1.11167
 H462 H 0.67949 1.11123 1.15247
 C463 C 0.14823 0.63550 1.16191
 C464 C 0.16220 0.63590 1.14847
 C465 C 0.16229 0.64963 1.13521
 C466 C 0.14835 0.66308 1.13514
 C467 C 0.13447 0.66256 1.14821
 C468 C 0.13442 0.64864 1.16174
 C469 C 0.14521 0.62431 1.17694
 N470 N 0.12981 0.63021 1.18613
 C471 C 0.12314 0.64513 1.17667
 C472 C 0.12322 0.67756 1.14506
 N473 N 0.12996 0.68739 1.13040
 C474 C 0.14540 0.67839 1.12433
 C475 C 0.17773 0.64699 1.12441
 N476 N 0.18700 0.63194 1.13076
 C477 C 0.17757 0.62509 1.14551
 H478 H 0.15376 0.61263 1.18060
 H479 H 0.11140 0.65351 1.18058
 H480 H 0.11141 0.68122 1.15346
 H481 H 0.15400 0.68234 1.11276
 H482 H 0.18183 0.65539 1.11272
 H483 H 0.18177 0.61335 1.15377
 C484 C 0.14756 1.13507 0.66167
 C485 C 0.16150 1.13514 0.64818
 C486 C 0.16182 1.14882 0.63484
 C487 C 0.14824 1.16265 0.63487
 C488 C 0.13452 1.16254 0.64811
 C489 C 0.13426 1.14870 0.66170
 C490 C 0.14419 1.12387 0.67665
 N491 N 0.12916 1.13037 0.68604
 C492 C 0.12307 1.14565 0.67678
 C493 C 0.12356 1.17775 0.64502
 N494 N 0.13029 1.18732 0.63019
 C495 C 0.14549 1.17798 0.62400
 C496 C 0.17713 1.14577 0.62396
 N497 N 0.18616 1.13061 0.63041
 C498 C 0.17665 1.12404 0.64524
 H499 H 0.15274 1.11228 0.68063
 H500 H 0.11126 1.15404 0.68040
 H501 H 0.11194 1.18168 0.65355
 H502 H 0.15398 1.18168 0.61227
 H503 H 0.18164 1.15430 0.61252
 H504 H 0.18045 1.11206 0.65334
 C505 C 1.35354 0.63425 0.33899
 C506 C 1.33952 0.63446 0.35240
 C507 C 1.33902 0.64840 0.36545
 C508 C 1.35255 0.66225 0.36533
 C509 C 1.36638 0.66198 0.35222
 C510 C 1.36679 0.64794 0.33884
 C511 C 1.35701 0.62291 0.32413
 N512 N 1.37204 0.62940 0.31470
 C513 C 1.37804 0.64478 0.32385
 C514 C 1.37724 0.67728 0.35515
 N515 N 1.37034 0.68706 0.36977
 C516 C 1.35513 0.67776 0.37597
 C517 C 1.32359 0.64559 0.37619
 N518 N 1.31467 0.63027 0.37001
 C519 C 1.32438 0.62336 0.35546
 H520 H 1.34852 0.61126 0.32022
 H521 H 1.38979 0.65322 0.32016
 H522 H 1.38892 0.68114 0.34666
 H523 H 1.34651 0.68161 0.38756
 H524 H 1.31918 0.65413 0.38766
 H525 H 1.32044 0.61145 0.34732
 C526 C 1.35299 1.13464 0.83927
 C527 C 1.33911 1.13490 0.85280
 C528 C 1.33894 1.14867 0.86602
 C529 C 1.35268 1.16232 0.86594
 C530 C 1.36645 1.16198 0.85275
 C531 C 1.36660 1.14804 0.83924
 C532 C 1.35600 1.12348 0.82419
 N533 N 1.37111 1.12977 0.81494
 C534 C 1.37771 1.14477 0.82412
 C535 C 1.37750 1.17715 0.85575
 N536 N 1.37075 1.18692 0.87045
 C537 C 1.35548 1.17772 0.87667
 C538 C 1.32355 1.14593 0.87687
 N539 N 1.31439 1.13079 0.87059
 C540 C 1.32386 1.12397 0.85584
 H541 H 1.34769 1.11172 0.82019
 H542 H 1.38935 1.15310 0.81978
 H543 H 1.38916 1.18096 0.84722
 H544 H 1.34694 1.18158 0.88830
 H545 H 1.31937 1.15437 0.88850
 H546 H 1.31971 1.11220 0.84760
 C547 C 0.85396 0.63356 0.83989
 C548 C 0.84011 0.63360 0.85348
 C549 C 0.83985 0.64728 0.86682
 C550 C 0.85345 0.66106 0.86682
 C551 C 0.86713 0.66100 0.85347
 C552 C 0.86734 0.64719 0.83987
 C553 C 0.85714 0.62253 0.82472
 N554 N 0.87208 0.62917 0.81545
 C555 C 0.87840 0.64426 0.82468
 C556 C 0.87797 0.67634 0.85642
 N557 N 0.87116 0.68574 0.87121
 C558 C 0.85615 0.67644 0.87764
 C559 C 0.82448 0.64440 0.87763
 N560 N 0.81536 0.62929 0.87122
 C561 C 0.82488 0.62258 0.85645
 H562 H 0.84879 0.61090 0.82042
 H563 H 0.89013 0.65260 0.82060
 H564 H 0.88961 0.68062 0.84805
 H565 H 0.84773 0.68056 0.88931
 H566 H 0.82024 0.65278 0.88928
 H567 H 0.82074 0.61089 0.84810
 C568 C 0.85370 1.13367 0.33998
 C569 C 0.83985 1.13372 0.35358
 C570 C 0.83962 1.14739 0.36692
 C571 C 0.85324 1.16116 0.36692
 C572 C 0.86691 1.16109 0.35356
 C573 C 0.86710 1.14729 0.33996
 C574 C 0.85686 1.12264 0.32480
 N575 N 0.87181 1.12928 0.31552
 C576 C 0.87815 1.14435 0.32476
 C577 C 0.87777 1.17641 0.35652
 N578 N 0.87099 1.18580 0.37132
 C579 C 0.85596 1.17653 0.37775
 C580 C 0.82425 1.14452 0.37774
 N581 N 0.81512 1.12941 0.37132
 C582 C 0.82463 1.12271 0.35654
 H583 H 0.84850 1.11102 0.32050
 H584 H 0.88989 1.15268 0.32069
 H585 H 0.88942 1.18067 0.34815
 H586 H 0.84756 1.18065 0.38943
 H587 H 0.82002 1.15289 0.38940
 H588 H 0.82048 1.11103 0.34818
 C589 C 0.64696 0.36604 0.33927
 C590 C 0.66079 0.36627 0.35287
 C591 C 0.66120 0.35273 0.36634
 C592 C 0.64783 0.33871 0.36634
 C593 C 0.63422 0.33848 0.35291
 C594 C 0.63386 0.35222 0.33922
 C595 C 0.64353 0.37710 0.32420
 N596 N 0.62865 0.37034 0.31475
 C597 C 0.62274 0.35502 0.32405
 C598 C 0.62351 0.32309 0.35598
 N599 N 0.63029 0.31394 0.37093
 C600 C 0.64520 0.32343 0.37733
 C601 C 0.67644 0.35603 0.37725
 N602 N 0.68534 0.37121 0.37069
 C603 C 0.67580 0.37756 0.35577
 H604 H 0.65192 0.38880 0.32022
 H605 H 0.61107 0.34644 0.32041
 H606 H 0.61191 0.31865 0.34763
 H607 H 0.65353 0.31954 0.38915
 H608 H 0.68102 0.34763 0.38876
 H609 H 0.67953 0.38948 0.34755
 C610 C 0.64654 0.86612 0.83968
 C611 C 0.66042 0.86637 0.85323
 C612 C 0.66071 0.85299 0.86688
 C613 C 0.64719 0.83912 0.86711
 C614 C 0.63350 0.83888 0.85375
 C615 C 0.63321 0.85245 0.83991
 C616 C 0.64322 0.87698 0.82442
 N617 N 0.62823 0.87021 0.81533
 C618 C 0.62203 0.85518 0.82476
 C619 C 0.62270 0.82359 0.85701
 N620 N 0.62952 0.81450 0.87199
 C621 C 0.64451 0.82395 0.87824
 C622 C 0.67601 0.85627 0.87771
 N623 N 0.68505 0.87128 0.87094
 C624 C 0.67556 0.87753 0.85596
 H625 H 0.65148 0.88863 0.81997
 H626 H 0.61027 0.84680 0.82088
 H627 H 0.61106 0.81913 0.84872
 H628 H 0.65292 0.82008 0.89001
 H629 H 0.68051 0.84798 0.88933
 H630 H 0.67938 0.88932 0.84759
 C631 C 0.14697 0.36599 0.83918
 C632 C 0.16081 0.36619 0.85277
 C633 C 0.16123 0.35263 0.86622
 C634 C 0.14785 0.33862 0.86622
 C635 C 0.13423 0.33842 0.85279
 C636 C 0.13386 0.35218 0.83913
 C637 C 0.14354 0.37708 0.82413
 N638 N 0.12864 0.37033 0.81468
 C639 C 0.12272 0.35501 0.82397
 C640 C 0.12350 0.32304 0.85586
 N641 N 0.13029 0.31385 0.87079
 C642 C 0.14521 0.32332 0.87719
 C643 C 0.17648 0.35591 0.87712
 N644 N 0.18538 0.37110 0.87056
 C645 C 0.17583 0.37747 0.85566
 H646 H 0.15193 0.38877 0.82016
 H647 H 0.11105 0.34645 0.82032
 H648 H 0.11189 0.31862 0.84751
 H649 H 0.15355 0.31942 0.88899
 H650 H 0.18107 0.34750 0.88861
 H651 H 0.17956 0.38940 0.84745
 C652 C 0.14679 0.86634 0.33939
 C653 C 0.16044 0.86667 0.35317
 C654 C 0.16085 0.85307 0.36660
 C655 C 0.14762 0.83890 0.36638
 C656 C 0.13427 0.83854 0.35270
 C657 C 0.13389 0.85234 0.33910
 C658 C 0.14344 0.87740 0.32430
 N659 N 0.12878 0.87047 0.31462
 C660 C 0.12295 0.85504 0.32378
 C661 C 0.12380 0.82293 0.35543
 N662 N 0.13042 0.81380 0.37046
 C663 C 0.14501 0.82352 0.37726
 C664 C 0.17599 0.85645 0.37763
 N665 N 0.18484 0.87171 0.37115
 C666 C 0.17534 0.87804 0.35620
 H667 H 0.15172 0.88922 0.32048
 H668 H 0.11147 0.84631 0.31994
 H669 H 0.11218 0.81858 0.34705
 H670 H 0.15343 0.81945 0.38895
 H671 H 0.18059 0.84803 0.38910
 H672 H 0.17907 0.88998 0.34800
 O673 O 0.98211 0.93388 0.90782
 O674 O 0.98204 0.91240 0.88619
 C675 C 0.97579 0.92744 0.89275
 C676 C 0.96068 0.93732 0.88305
 C677 C 0.95445 0.93126 0.86569
 H678 H 0.96133 0.91981 0.85896
 O679 O 1.01856 1.06657 0.90796
 O680 O 1.01864 1.08812 0.88640
 C681 C 1.02488 1.07305 0.89290
 C682 C 1.03998 1.06322 0.88316
 C683 C 1.04615 1.06929 0.86578
 H684 H 1.03914 1.08067 0.85904
 O685 O 0.90795 0.98252 0.93316
 O686 O 0.88636 0.98258 0.91161
 C687 C 0.89289 0.97626 0.92666
 C688 C 0.88316 0.96118 0.93649
 C689 C 0.86579 0.95500 0.93041
 H690 H 0.85908 0.96192 0.91895
 O691 O 1.09255 1.01790 0.93325
 O692 O 1.11423 1.01786 0.91180
 C693 C 1.10765 1.02415 0.92683
 C694 C 1.11734 1.03920 0.93676
 C695 C 1.13460 1.04565 0.93060
 H696 H 1.14105 1.03933 0.91865
 O697 O 0.93321 0.90859 0.98186
 O698 O 0.91173 0.88699 0.98179
 C699 C 0.92678 0.89355 0.97553
 C700 C 0.93666 0.88387 0.96043
 C701 C 0.93061 0.86653 0.95421
 H702 H 0.91914 0.85981 0.96110
 O703 O 1.06724 1.09149 0.98232
 O704 O 1.08876 1.11305 0.98239
 C705 C 1.07373 1.10654 0.97604
 C706 C 1.06394 1.11627 0.96091
 C707 C 1.07010 1.13358 0.95470
 H708 H 1.08158 1.14024 0.96163
 O709 O 0.93334 1.01852 0.90790
 O710 O 0.91189 1.01863 0.88622
 C711 C 0.92693 1.02487 0.89283
 C712 C 0.93690 1.03990 0.88315
 C713 C 0.93086 1.04628 0.86581
 H714 H 0.91891 1.03997 0.85937
 O715 O 1.06708 0.98208 0.90785
 O716 O 1.08863 0.98197 0.88627
 C717 C 1.07354 0.97577 0.89279
 C718 C 1.06362 0.96074 0.88306
 C719 C 1.06970 0.95448 0.86571
 H720 H 1.08123 0.96129 0.85900
 O721 O 1.01806 0.90841 0.93313
 O722 O 1.01806 0.88682 0.91163
 C723 C 1.02435 0.89335 0.92668
 C724 C 1.03940 0.88364 0.93662
 C725 C 1.04575 0.86633 0.93053
 H726 H 1.03937 0.85988 0.91862
 O727 O 0.98256 1.09192 0.93339
 O728 O 0.98266 1.11355 0.91192
 C729 C 0.97632 1.10700 0.92695
 C730 C 0.96121 1.11674 0.93678
 C731 C 0.95497 1.13402 0.93058
 H732 H 0.96186 1.14067 0.91906
 O733 O 0.90810 1.06716 0.98194
 O734 O 0.88663 1.08879 0.98187
 C735 C 0.89311 1.07374 0.97557
 C736 C 0.88341 1.06396 0.96041
 C737 C 0.86618 1.07021 0.95398
 H738 H 0.85983 1.08217 0.96034
 O739 O 1.09199 0.93352 0.98226
 O740 O 1.11350 0.91193 0.98231
 C741 C 1.10704 0.92699 0.97600
 C742 C 1.11684 0.93677 0.96090
 C743 C 1.13426 0.93070 0.95484
 H744 H 1.14097 0.91935 0.96192
 O745 O 0.98249 1.06671 0.90797
 O746 O 0.98257 1.08824 0.88639
 C747 C 0.97622 1.07323 0.89291
 C748 C 0.96107 1.06348 0.88317
 C749 C 0.95496 1.06954 0.86576
 H750 H 0.96203 1.08086 0.85900
 O751 O 1.01819 0.93363 0.90774
 O752 O 1.01816 0.91216 0.88611
 C753 C 1.02450 0.92715 0.89268
 C754 C 1.03966 0.93695 0.88300
 C755 C 1.04599 0.93082 0.86568
 H756 H 1.03952 0.91900 0.85919
 O757 O 1.09235 0.98190 0.93321
 O758 O 1.11405 0.98178 0.91178
 C759 C 1.10740 0.97552 0.92680
 C760 C 1.11699 0.96042 0.93677
 C761 C 1.13434 0.95403 0.93078
 H762 H 1.14083 0.96036 0.91886
 O763 O 0.90801 1.01853 0.93322
 O764 O 0.88642 1.01863 0.91166
 C765 C 0.89297 1.02488 0.92673
 C766 C 0.88331 1.04001 0.93659
 C767 C 0.86601 1.04634 0.93047
 H768 H 0.85926 1.03945 0.91901
 O769 O 0.93359 1.09223 0.98206
 O770 O 0.91225 1.11398 0.98199
 C771 C 0.92725 1.10731 0.97572
 C772 C 0.93722 1.11690 0.96061
 C773 C 0.93113 1.13416 0.95415
 H774 H 0.91923 1.14066 0.96050
 O775 O 1.06654 0.90834 0.98216
 O776 O 1.08795 0.88665 0.98220
 C777 C 1.07296 0.89327 0.97586
 C778 C 1.06314 0.88362 0.96069
 C779 C 1.06923 0.86629 0.95448
 H780 H 1.08065 0.85956 0.96142
 O781 O 1.06734 1.01807 0.90785
 O782 O 1.08888 1.01804 0.88625
 C783 C 1.07386 1.02438 0.89280
 C784 C 1.06402 1.03950 0.88312
 C785 C 1.07013 1.04589 0.86581
 H786 H 1.08206 1.03954 0.85938
 O787 O 0.93329 0.98250 0.90784
 O788 O 0.91183 0.98255 0.88617
 C789 C 0.92684 0.97622 0.89275
 C790 C 0.93673 0.96114 0.88304
 C791 C 0.93062 0.95482 0.86570
 H792 H 0.91875 0.96124 0.85923
 O793 O 1.01865 1.09179 0.93337
 O794 O 1.01876 1.11344 0.91192
 C795 C 1.02503 1.10682 0.92695
 C796 C 1.04016 1.11641 0.93688
 C797 C 1.04657 1.13369 0.93081
 H798 H 1.04020 1.14020 0.91891
 O799 O 0.98200 0.90850 0.93306
 O800 O 0.98195 0.88690 0.91156
 C801 C 0.97565 0.89348 0.92659
 C802 C 0.96053 0.88382 0.93648
 C803 C 0.95422 0.86651 0.93040
 H804 H 0.96067 0.86002 0.91854
 O805 O 1.09254 1.06618 0.98230
 O806 O 1.11416 1.08764 0.98236
 C807 C 1.10760 1.07265 0.97601
 C808 C 1.11730 1.06289 0.96084
 C809 C 1.13458 1.06909 0.95454
 H810 H 1.14126 1.08057 0.96144
 O811 O 0.90782 0.93381 0.98180
 O812 O 0.88622 0.91233 0.98173
 C813 C 0.89278 0.92735 0.97544
 C814 C 0.88310 0.93723 0.96033
 C815 C 0.86576 0.93119 0.95399
 H816 H 0.85926 0.91935 0.96042
 Cu817 Cu 1.00010 0.92326 0.92259
 Cu818 Cu 1.00004 0.89741 0.89670
 Cu819 Cu 1.00056 1.07709 0.92282
 Cu820 Cu 1.00066 1.10301 0.89700
 Cu821 Cu 0.92280 1.00051 0.92269
 Cu822 Cu 0.89696 1.00061 0.89675
 Cu823 Cu 1.07767 1.00000 0.92269
 Cu824 Cu 1.10362 0.99989 0.89686
 C825 C 0.95186 0.95239 0.89152
 H826 H 0.95646 0.95699 0.90501
 C827 C 0.93940 0.93989 0.85691
 C828 C 1.04886 1.04819 0.89161
 H829 H 1.04427 1.04356 0.90510
 C830 C 1.06126 1.06077 0.85699
 C831 C 0.89160 0.95232 0.95158
 H832 H 0.90510 0.95688 0.95620
 C833 C 0.85698 0.94001 0.93905
 C834 C 1.10890 1.04782 0.95199
 H835 H 1.09546 1.04312 0.95663
 C836 C 1.14333 1.06060 0.93941
 C837 C 0.95176 0.89231 0.95159
 H838 H 0.95636 0.90578 0.95618
 C839 C 0.93927 0.85774 0.93919
 C840 C 1.04884 1.10790 0.95203
 H841 H 1.04416 1.09445 0.95661
 C842 C 1.06153 1.14240 0.93964
 C843 C 0.95208 1.04852 0.89165
 H844 H 0.95661 1.04390 0.90516
 C845 C 0.93983 1.06107 0.85696
 C846 C 1.04847 0.95201 0.89149
 H847 H 1.04385 0.95662 0.90498
 C848 C 1.06100 0.93951 0.85691
 C849 C 1.04810 0.89209 0.95180
 H850 H 1.04348 0.90555 0.95639
 C851 C 1.06066 0.85754 0.93938
 C852 C 0.95237 1.10838 0.95192
 H853 H 0.95696 1.09494 0.95663
 C854 C 0.93992 1.14284 0.93914
 C855 C 0.89179 1.04877 0.95170
 H856 H 0.90522 1.04408 0.95638
 C857 C 0.85733 1.06147 0.93903
 C858 C 1.10843 0.95177 0.95191
 H859 H 1.09492 0.95641 0.95640
 C860 C 1.14313 0.93920 0.93976
 O861 O 1.01770 0.93374 1.09254
 O862 O 1.01756 0.91223 1.11414
 C863 C 1.02392 0.92724 1.10763
 C864 C 1.03903 0.93699 1.11741
 C865 C 1.04511 0.93092 1.13483
 H866 H 1.03803 0.91960 1.14156
 O867 O 0.98204 1.06655 1.09229
 O868 O 0.98202 1.08804 1.11390
 C869 C 0.97569 1.07305 1.10732
 C870 C 0.96048 1.06329 1.11697
 C871 C 0.95427 1.06935 1.13434
 H872 H 0.96123 1.08073 1.14111
 O873 O 0.90766 1.01845 1.06668
 O874 O 0.88598 1.01852 1.08813
 C875 C 0.89260 1.02479 1.07311
 C876 C 0.88299 1.03994 1.06324
 C877 C 0.86566 1.04625 1.06931
 H878 H 0.85890 1.03940 1.08078
 O879 O 1.09213 0.98181 1.06740
 O880 O 1.11373 0.98166 1.08894
 C881 C 1.10715 0.97542 1.07388
 C882 C 1.11675 0.96029 1.06399
 C883 C 1.13396 0.95374 1.07018
 H884 H 1.14043 0.96003 1.08213
 O885 O 1.06641 0.90831 1.01827
 O886 O 1.08781 0.88662 1.01831
 C887 C 1.07279 0.89324 1.02458
 C888 C 1.06290 0.88360 1.03972
 C889 C 1.06895 0.86627 1.04600
 H890 H 1.08035 0.85950 1.03905
 O891 O 0.93348 1.09217 1.01816
 O892 O 0.91214 1.11392 1.01814
 C893 C 0.92710 1.10724 1.02449
 C894 C 0.93701 1.11683 1.03964
 C895 C 0.93094 1.13412 1.04604
 H896 H 0.91903 1.14057 1.03966
 O897 O 0.93274 0.98232 1.09209
 O898 O 0.91117 0.98234 1.11365
 C899 C 0.92621 0.97602 1.10713
 C900 C 0.93604 0.96092 1.11687
 C901 C 0.92983 0.95456 1.13415
 H902 H 0.91785 0.96091 1.14051
 O903 O 1.06694 1.01790 1.09269
 O904 O 1.08839 1.01785 1.11437
 C905 C 1.07339 1.02419 1.10777
 C906 C 1.06350 1.03928 1.11744
 C907 C 1.06961 1.04566 1.13475
 H908 H 1.08155 1.03931 1.14117
 O909 O 0.98169 0.90856 1.06701
 O910 O 0.98155 0.88692 1.08848
 C911 C 0.97533 0.89351 1.07342
 C912 C 0.96028 0.88384 1.06344
 C913 C 0.95399 0.86650 1.06945
 H914 H 0.96040 0.86000 1.08133
 O915 O 1.01836 1.09164 1.06714
 O916 O 1.01840 1.11324 1.08864
 C917 C 1.02473 1.10664 1.07363
 C918 C 1.03992 1.11624 1.06380
 C919 C 1.04634 1.13349 1.06995
 H920 H 1.03992 1.13997 1.08182
 O921 O 0.90772 0.93380 1.01789
 O922 O 0.88612 0.91231 1.01786
 C923 C 0.89265 0.92733 1.02417
 C924 C 0.88289 0.93720 1.03924
 C925 C 0.86553 0.93113 1.04550
 H926 H 0.85908 0.91927 1.03904
 O927 O 1.09252 1.06612 1.01841
 O928 O 1.11415 1.08757 1.01846
 C929 C 1.10758 1.07255 1.02474
 C930 C 1.11725 1.06272 1.03989
 C931 C 1.13462 1.06876 1.04612
 H932 H 1.14140 1.08011 1.03912
 O933 O 1.01812 1.06641 1.09254
 O934 O 1.01812 1.08790 1.11414
 C935 C 1.02439 1.07285 1.10763
 C936 C 1.03946 1.06300 1.11740
 C937 C 1.04564 1.06907 1.13479
 H938 H 1.03867 1.08047 1.14151
 O939 O 0.98163 0.93384 1.09235
 O940 O 0.98147 0.91233 1.11394
 C941 C 0.97524 0.92737 1.10738
 C942 C 0.96008 0.93721 1.11701
 C943 C 0.95380 0.93115 1.13436
 H944 H 0.96075 0.91977 1.14115
 O945 O 1.09232 1.01781 1.06745
 O946 O 1.11392 1.01774 1.08898
 C947 C 1.10739 1.02406 1.07393
 C948 C 1.11714 1.03908 1.06403
 C949 C 1.13444 1.04543 1.07018
 H950 H 1.14081 1.03911 1.08216
 O951 O 0.90760 0.98245 1.06660
 O952 O 0.88590 0.98247 1.08803
 C953 C 0.89250 0.97618 1.07300
 C954 C 0.88282 0.96112 1.06309
 C955 C 0.86543 0.95492 1.06909
 H956 H 0.85866 0.96181 1.08054
 O957 O 1.06718 1.09141 1.01842
 O958 O 1.08871 1.11296 1.01849
 C959 C 1.07366 1.10643 1.02476
 C960 C 1.06382 1.11612 1.03989
 C961 C 1.06998 1.13340 1.04617
 H962 H 1.08150 1.14006 1.03932
 O963 O 0.93314 0.90861 1.01795
 O964 O 0.91166 0.88700 1.01792
 C965 C 0.92668 0.89356 1.02425
 C966 C 0.93652 0.88388 1.03939
 C967 C 0.93048 0.86651 1.04554
 H968 H 0.91905 0.85978 1.03859
 O969 O 1.06683 0.98191 1.09272
 O970 O 1.08828 0.98177 1.11440
 C971 C 1.07323 0.97556 1.10780
 C972 C 1.06322 0.96055 1.11747
 C973 C 1.06923 0.95417 1.13482
 H974 H 1.08118 0.96046 1.14128
 O975 O 0.93291 1.01833 1.09208
 O976 O 0.91135 1.01841 1.11366
 C977 C 0.92643 1.02464 1.10714
 C978 C 0.93637 1.03965 1.11689
 C979 C 0.93030 1.04596 1.13424
 H980 H 0.91838 1.03959 1.14070
 O981 O 0.98228 1.09186 1.06696
 O982 O 0.98229 1.11346 1.08846
 C983 C 0.97603 1.10694 1.07339
 C984 C 0.96099 1.11671 1.06348
 C985 C 0.95483 1.13407 1.06956
 H986 H 0.96180 1.14076 1.08100
 O987 O 1.01776 0.90850 1.06715
 O988 O 1.01766 0.88689 1.08864
 C989 C 1.02403 0.89345 1.07363
 C990 C 1.03914 0.88373 1.06377
 C991 C 1.04550 0.86648 1.06997
 H992 H 1.03914 0.86013 1.08195
 O993 O 1.09190 0.93344 1.01838
 O994 O 1.11339 0.91183 1.01842
 C995 C 1.10690 0.92687 1.02473
 C996 C 1.11661 0.93657 1.03993
 C997 C 1.13385 0.93028 1.04626
 H998 H 1.14049 0.91877 1.03938
 O999 O 0.90794 1.06714 1.01803
 O1000 O 0.88646 1.08876 1.01802
 C1001 C 0.89290 1.07370 1.02432
 C1002 C 0.88312 1.06388 1.03940
 C1003 C 0.86582 1.07007 1.04574
 H1004 H 0.85942 1.08198 1.03932
 Cu1005 Cu 0.99971 0.92331 1.07761
 Cu1006 Cu 0.99955 0.89743 1.10346
 Cu1007 Cu 1.00020 1.07696 1.07758
 Cu1008 Cu 1.00020 1.10282 1.10345
 Cu1009 Cu 0.92262 0.92336 0.99988
 Cu1010 Cu 0.89677 0.89749 0.99982
 Cu1011 Cu 1.07706 0.92307 1.00026
 Cu1012 Cu 1.10281 0.89709 1.00031
 Cu1013 Cu 0.92291 1.07751 1.00006
 Cu1014 Cu 0.89722 1.10355 1.00000
 Cu1015 Cu 1.07771 1.07664 1.00036
 Cu1016 Cu 1.10361 1.10247 1.00043
 Cu1017 Cu 0.92239 1.00038 1.07722
 Cu1018 Cu 0.89642 1.00044 1.10303
 Cu1019 Cu 1.07741 0.99987 1.07791
 Cu1020 Cu 1.10325 0.99975 1.10385
 C1021 C 1.04804 0.95195 1.10895
 H1022 H 1.04354 0.95658 1.09543
 C1023 C 1.06024 0.93938 1.14365
 C1024 C 0.95156 1.04832 1.10846
 H1025 H 0.95615 1.04371 1.09495
 C1026 C 0.93917 1.06080 1.14309
 C1027 C 0.89150 1.04871 1.04816
 H1028 H 0.90496 1.04405 1.04354
 C1029 C 0.85697 1.06134 1.06069
 C1030 C 1.10827 0.95170 1.04876
 H1031 H 1.09487 0.95648 1.04409
 C1032 C 1.14263 0.93874 1.06140
 C1033 C 1.04785 0.89211 1.04856
 H1034 H 1.04323 0.90556 1.04391
 C1035 C 1.06039 0.85760 1.06116
 C1036 C 0.95212 1.10831 1.04838
 H1037 H 0.95668 1.09484 1.04374
 C1038 C 0.93977 1.14289 1.06097
 C1039 C 0.95124 0.95223 1.10849
 H1040 H 0.95590 0.95685 1.09502
 C1041 C 0.93864 0.93969 1.14305
 C1042 C 1.04834 1.04796 1.10896
 H1043 H 1.04376 1.04333 1.09547
 C1044 C 1.06075 1.06053 1.14357
 C1045 C 0.95155 0.89234 1.04830
 H1046 H 0.95614 0.90583 1.04377
 C1047 C 0.93910 0.85771 1.06058
 C1048 C 1.04866 1.10775 1.04867
 H1049 H 1.04398 1.09432 1.04403
 C1050 C 1.06136 1.14219 1.06121
 C1051 C 0.89133 0.95230 1.04803
 H1052 H 0.90484 0.95687 1.04347
 C1053 C 0.85668 0.93991 1.06041
 C1054 C 1.10874 1.04774 1.04880
 H1055 H 1.09526 1.04314 1.04418
 C1056 C 1.14332 1.06026 1.06129
 O1057 O 0.98234 0.43378 0.40777
 O1058 O 0.98233 0.41223 0.38622
 C1059 C 0.97605 0.42728 0.39271
 C1060 C 0.96095 0.43710 0.38296
 C1061 C 0.95474 0.43096 0.36562
 H1062 H 0.96170 0.41953 0.35892
 O1063 O 1.01892 0.56666 0.40791
 O1064 O 1.01901 0.58820 0.38634
 C1065 C 1.02527 0.57316 0.39287
 C1066 C 1.04035 0.56328 0.38313
 C1067 C 1.04664 0.56936 0.36578
 H1068 H 1.04025 0.58129 0.35938
 O1069 O 0.90824 0.48241 0.43293
 O1070 O 0.88668 0.48246 0.41135
 C1071 C 0.89318 0.47616 0.42643
 C1072 C 0.88342 0.46111 0.43629
 C1073 C 0.86604 0.45496 0.43022
 H1074 H 0.85934 0.46186 0.41875
 O1075 O 1.09275 0.51786 0.43312
 O1076 O 1.11441 0.51783 0.41165
 C1077 C 1.10783 0.52413 0.42669
 C1078 C 1.11754 0.53918 0.43661
 C1079 C 1.13481 0.54558 0.43046
 H1080 H 1.14124 0.53926 0.41850
 O1081 O 0.93341 0.40860 0.48182
 O1082 O 0.91192 0.38700 0.48174
 C1083 C 0.92698 0.39355 0.47550
 C1084 C 0.93689 0.38384 0.46042
 C1085 C 0.93082 0.36651 0.45420
 H1086 H 0.91932 0.35982 0.46107
 O1087 O 1.06761 0.59150 0.48221
 O1088 O 1.08914 0.61306 0.48229
 C1089 C 1.07411 0.60654 0.47593
 C1090 C 1.06429 0.61628 0.46081
 C1091 C 1.07051 0.63352 0.45446
 H1092 H 1.08243 0.63991 0.46089
 O1093 O 0.93376 0.51829 0.40766
 O1094 O 0.91236 0.51840 0.38593
 C1095 C 0.92740 0.52462 0.39256
 C1096 C 0.93742 0.53963 0.38290
 C1097 C 0.93150 0.54593 0.36549
 H1098 H 0.91965 0.53955 0.35893
 O1099 O 1.06743 0.48189 0.40777
 O1100 O 1.08897 0.48179 0.38617
 C1101 C 1.07390 0.47556 0.39271
 C1102 C 1.06396 0.46054 0.38300
 C1103 C 1.06999 0.45424 0.36563
 H1104 H 1.08188 0.46061 0.35915
 O1105 O 1.01833 0.40851 0.43327
 O1106 O 1.01836 0.38688 0.41180
 C1107 C 1.02465 0.39346 0.42683
 C1108 C 1.03978 0.38381 0.43669
 C1109 C 1.04616 0.36658 0.43047
 H1110 H 1.03936 0.35991 0.41892
 O1111 O 0.98277 0.59186 0.43326
 O1112 O 0.98286 0.61350 0.41180
 C1113 C 0.97650 0.60692 0.42680
 C1114 C 0.96132 0.61659 0.43659
 C1115 C 0.95508 0.63389 0.43043
 H1116 H 0.96201 0.64059 0.41896
 O1117 O 0.90823 0.56676 0.48173
 O1118 O 0.88671 0.58834 0.48167
 C1119 C 0.89321 0.57329 0.47539
 C1120 C 0.88351 0.56351 0.46023
 C1121 C 0.86616 0.56961 0.45400
 H1122 H 0.85943 0.58105 0.46093
 O1123 O 1.09246 0.43363 0.48232
 O1124 O 1.11400 0.41208 0.48238
 C1125 C 1.10754 0.42713 0.47608
 C1126 C 1.11734 0.43693 0.46100
 C1127 C 1.13479 0.43094 0.45497
 H1128 H 1.14154 0.41963 0.46208
 O1129 O 0.98284 0.56659 0.40791
 O1130 O 0.98293 0.58812 0.38634
 C1131 C 0.97659 0.57310 0.39283
 C1132 C 0.96150 0.56331 0.38304
 C1133 C 0.95544 0.56936 0.36561
 H1134 H 0.96245 0.58075 0.35890
 O1135 O 1.01841 0.43362 0.40776
 O1136 O 1.01841 0.41210 0.38618
 C1137 C 1.02472 0.42711 0.39271
 C1138 C 1.03987 0.43688 0.38300
 C1139 C 1.04604 0.43082 0.36561
 H1140 H 1.03908 0.41942 0.35887
 O1141 O 1.09264 0.48187 0.43320
 O1142 O 1.11433 0.48177 0.41175
 C1143 C 1.10772 0.47553 0.42679
 C1144 C 1.11739 0.46052 0.43681
 C1145 C 1.13477 0.45421 0.43086
 H1146 H 1.14124 0.46054 0.41893
 O1147 O 0.90824 0.51839 0.43279
 O1148 O 0.88670 0.51850 0.41120
 C1149 C 0.89322 0.52474 0.42628
 C1150 C 0.88351 0.53980 0.43618
 C1151 C 0.86619 0.54614 0.43009
 H1152 H 0.85972 0.53975 0.41819
 O1153 O 0.93366 0.59192 0.48175
 O1154 O 0.91226 0.61361 0.48167
 C1155 C 0.92728 0.60699 0.47540
 C1156 C 0.93724 0.61663 0.46032
 C1157 C 0.93115 0.63390 0.45391
 H1158 H 0.91922 0.64037 0.46026
 O1159 O 1.06707 0.40841 0.48212
 O1160 O 1.08850 0.38675 0.48214
 C1161 C 1.07352 0.39338 0.47578
 C1162 C 1.06371 0.38376 0.46059
 C1163 C 1.06994 0.36656 0.45411
 H1164 H 1.08186 0.36013 0.46050
 O1165 O 1.06743 0.51787 0.40780
 O1166 O 1.08895 0.51784 0.38618
 C1167 C 1.07391 0.52415 0.39273
 C1168 C 1.06407 0.53925 0.38302
 C1169 C 1.07005 0.54540 0.36560
 H1170 H 1.08141 0.53840 0.35880
 O1171 O 0.93351 0.48228 0.40758
 O1172 O 0.91209 0.48232 0.38587
 C1173 C 0.92707 0.47597 0.39250
 C1174 C 0.93693 0.46084 0.38287
 C1175 C 0.93079 0.45439 0.36560
 H1176 H 0.91884 0.46071 0.35916
 O1177 O 1.01886 0.59175 0.43344
 O1178 O 1.01897 0.61340 0.41198
 C1179 C 1.02522 0.60679 0.42703
 C1180 C 1.04036 0.61639 0.43692
 C1181 C 1.04673 0.63366 0.43082
 H1182 H 1.03992 0.64041 0.41931
 O1183 O 0.98224 0.40846 0.43309
 O1184 O 0.98225 0.38681 0.41164
 C1185 C 0.97593 0.39341 0.42665
 C1186 C 0.96080 0.38376 0.43652
 C1187 C 0.95447 0.36646 0.43043
 H1188 H 0.96092 0.35996 0.41858
 O1189 O 1.09285 0.56614 0.48222
 O1190 O 1.11448 0.58759 0.48229
 C1191 C 1.10791 0.57260 0.47593
 C1192 C 1.11758 0.56284 0.46073
 C1193 C 1.13487 0.56901 0.45442
 H1194 H 1.14159 0.58046 0.46132
 O1195 O 0.90802 0.43382 0.48169
 O1196 O 0.88641 0.41234 0.48161
 C1197 C 0.89298 0.42735 0.47532
 C1198 C 0.88332 0.43722 0.46018
 C1199 C 0.86597 0.43119 0.45385
 H1200 H 0.85946 0.41937 0.46031
 Cu1201 Cu 1.00032 0.42325 0.42263
 Cu1202 Cu 1.00033 0.39733 0.39680
 Cu1203 Cu 1.00085 0.57706 0.42278
 Cu1204 Cu 1.00095 0.60298 0.39696
 Cu1205 Cu 0.92309 0.50034 0.42240
 Cu1206 Cu 0.89730 0.50043 0.39641
 Cu1207 Cu 1.07791 0.49987 0.42262
 Cu1208 Cu 1.10384 0.49980 0.39677
 C1209 C 0.95210 0.45217 0.39136
 H1210 H 0.95671 0.45686 0.40483
 C1211 C 0.93962 0.43946 0.35683
 C1212 C 1.04907 0.54814 0.39156
 H1213 H 1.04450 0.54358 0.40508
 C1214 C 1.06146 0.56049 0.35686
 C1215 C 0.89185 0.45228 0.45140
 H1216 H 0.90535 0.45682 0.45601
 C1217 C 0.85720 0.43999 0.43889
 C1218 C 1.10912 0.54781 0.45185
 H1219 H 1.09568 0.54313 0.45650
 C1220 C 1.14359 0.56049 0.43927
 C1221 C 0.95201 0.39226 0.45162
 H1222 H 0.95662 0.40573 0.45620
 C1223 C 0.93949 0.35771 0.43920
 C1224 C 1.04911 0.60791 0.45205
 H1225 H 1.04442 0.59449 0.45669
 C1226 C 1.06182 0.64234 0.43947
 C1227 C 0.95252 0.54832 0.39148
 H1228 H 0.95699 0.54373 0.40502
 C1229 C 0.94044 0.56078 0.35672
 C1230 C 1.04880 0.45187 0.39148
 H1231 H 1.04424 0.45647 0.40499
 C1232 C 1.06110 0.43939 0.35681
 C1233 C 1.04853 0.39219 0.45187
 H1234 H 1.04383 0.40559 0.45659
 C1235 C 1.06126 0.35785 0.43906
 C1236 C 0.95243 0.60816 0.45166
 H1237 H 0.95703 0.59472 0.45634
 C1238 C 0.93999 0.64265 0.43897
 C1239 C 0.89197 0.54848 0.45136
 H1240 H 0.90545 0.54386 0.45595
 C1241 C 0.85739 0.56103 0.43893
 C1242 C 1.10886 0.45187 0.45196
 H1243 H 1.09531 0.45644 0.45642
 C1244 C 1.14363 0.43945 0.43988
 O1245 O 1.01794 0.43360 0.59244
 O1246 O 1.01782 0.41207 0.61401
 C1247 C 1.02416 0.42710 0.60753
 C1248 C 1.03924 0.43688 0.61734
 C1249 C 1.04528 0.43082 0.63477
 H1250 H 1.03820 0.41948 0.64148
 O1251 O 0.98216 0.56648 0.59209
 O1252 O 0.98214 0.58801 0.61366
 C1253 C 0.97584 0.57299 0.60713
 C1254 C 0.96069 0.56321 0.61683
 C1255 C 0.95451 0.56927 0.63422
 H1256 H 0.96147 0.58067 0.64096
 O1257 O 0.90795 0.51822 0.56665
 O1258 O 0.88626 0.51832 0.58810
 C1259 C 0.89288 0.52457 0.57306
 C1260 C 0.88325 0.53966 0.56313
 C1261 C 0.86588 0.54592 0.56912
 H1262 H 0.85909 0.53906 0.58058
 O1263 O 1.09230 0.48183 0.56747
 O1264 O 1.11385 0.48173 0.58905
 C1265 C 1.10732 0.47548 0.57398
 C1266 C 1.11699 0.46038 0.56409
 C1267 C 1.13425 0.45395 0.57025
 H1268 H 1.14070 0.46030 0.58219
 O1269 O 1.06681 0.40838 0.51823
 O1270 O 1.08822 0.38670 0.51827
 C1271 C 1.07319 0.39329 0.52453
 C1272 C 1.06327 0.38362 0.53963
 C1273 C 1.06935 0.36630 0.54589
 H1274 H 1.08078 0.35956 0.53894
 O1275 O 0.93365 0.59191 0.51783
 O1276 O 0.91225 0.61360 0.51780
 C1277 C 0.92725 0.60698 0.52412
 C1278 C 0.93710 0.61663 0.53926
 C1279 C 0.93101 0.63394 0.54553
 H1280 H 0.91955 0.64067 0.53863
 O1281 O 0.93304 0.48214 0.59210
 O1282 O 0.91148 0.48219 0.61368
 C1283 C 0.92652 0.47585 0.60715
 C1284 C 0.93635 0.46076 0.61689
 C1285 C 0.93016 0.45440 0.63418
 H1286 H 0.91820 0.46077 0.64055
 O1287 O 1.06701 0.51791 0.59269
 O1288 O 1.08842 0.51791 0.61441
 C1289 C 1.07343 0.52423 0.60777
 C1290 C 1.06355 0.53937 0.61737
 C1291 C 1.06964 0.54583 0.63466
 H1292 H 1.08152 0.53946 0.64119
 O1293 O 0.98192 0.40844 0.56689
 O1294 O 0.98180 0.38679 0.58835
 C1295 C 0.97554 0.39341 0.57331
 C1296 C 0.96041 0.38380 0.56339
 C1297 C 0.95395 0.36656 0.56954
 H1298 H 0.96031 0.36010 0.58146
 O1299 O 1.01835 0.59161 0.56676
 O1300 O 1.01833 0.61326 0.58820
 C1301 C 1.02467 0.60665 0.57320
 C1302 C 1.03984 0.61627 0.56337
 C1303 C 1.04602 0.63364 0.56938
 H1304 H 1.03905 0.64042 0.58077
 O1305 O 0.90790 0.43386 0.51780
 O1306 O 0.88630 0.41237 0.51773
 C1307 C 0.89282 0.42739 0.52406
 C1308 C 0.88308 0.43719 0.53917
 C1309 C 0.86573 0.43108 0.54539
 H1310 H 0.85904 0.41962 0.53848
 O1311 O 1.09279 0.56609 0.51834
 O1312 O 1.11442 0.58753 0.51843
 C1313 C 1.10783 0.57252 0.52471
 C1314 C 1.11746 0.56270 0.53989
 C1315 C 1.13482 0.56872 0.54615
 H1316 H 1.14163 0.58005 0.53914
 O1317 O 1.01824 0.56650 0.59228
 O1318 O 1.01822 0.58805 0.61383
 C1319 C 1.02452 0.57300 0.60735
 C1320 C 1.03960 0.56320 0.61714
 C1321 C 1.04583 0.56940 0.63446
 H1322 H 1.03894 0.58091 0.64110
 O1323 O 0.98189 0.43366 0.59229
 O1324 O 0.98175 0.41213 0.61386
 C1325 C 0.97551 0.42718 0.60732
 C1326 C 0.96037 0.43702 0.61699
 C1327 C 0.95410 0.43097 0.63435
 H1328 H 0.96105 0.41958 0.64113
 O1329 O 1.09242 0.51782 0.56749
 O1330 O 1.11398 0.51780 0.58906
 C1331 C 1.10748 0.52409 0.57399
 C1332 C 1.11726 0.53910 0.56407
 C1333 C 1.13455 0.54543 0.57024
 H1334 H 1.14089 0.53912 0.58225
 O1335 O 0.90779 0.48224 0.56672
 O1336 O 0.88611 0.48227 0.58817
 C1337 C 0.89270 0.47597 0.57314
 C1338 C 0.88301 0.46093 0.56321
 C1339 C 0.86569 0.45457 0.56929
 H1340 H 0.85921 0.46094 0.58119
 O1341 O 1.06748 0.59141 0.51830
 O1342 O 1.08900 0.61298 0.51840
 C1343 C 1.07392 0.60644 0.52464
 C1344 C 1.06396 0.61617 0.53967
 C1345 C 1.06999 0.63352 0.54594
 H1346 H 1.08189 0.63996 0.53953
 O1347 O 0.93328 0.40862 0.51791
 O1348 O 0.91179 0.38703 0.51785
 C1349 C 0.92680 0.39358 0.52421
 C1350 C 0.93660 0.38390 0.53938
 C1351 C 0.93039 0.36664 0.54568
 H1352 H 0.91888 0.35998 0.53881
 O1353 O 1.06695 0.48190 0.59275
 O1354 O 1.08836 0.48181 0.61447
 C1355 C 1.07334 0.47557 0.60784
 C1356 C 1.06335 0.46052 0.61748
 C1357 C 1.06933 0.45414 0.63485
 H1358 H 1.08124 0.46046 0.64135
 O1359 O 0.93315 0.51815 0.59209
 O1360 O 0.91160 0.51826 0.61368
 C1361 C 0.92668 0.52449 0.60715
 C1362 C 0.93662 0.53951 0.61686
 C1363 C 0.93059 0.54583 0.63422
 H1364 H 0.91870 0.53944 0.64071
 O1365 O 0.98226 0.59181 0.56679
 O1366 O 0.98223 0.61345 0.58825
 C1367 C 0.97596 0.60688 0.57321
 C1368 C 0.96090 0.61659 0.56328
 C1369 C 0.95455 0.63388 0.56940
 H1370 H 0.96095 0.64032 0.58132
 O1371 O 1.01803 0.40838 0.56704
 O1372 O 1.01795 0.38673 0.58849
 C1373 C 1.02432 0.39332 0.57349
 C1374 C 1.03947 0.38365 0.56364
 C1375 C 1.04588 0.36641 0.56983
 H1376 H 1.03951 0.36003 0.58179
 O1377 O 1.09230 0.43349 0.51843
 O1378 O 1.11382 0.41192 0.51850
 C1379 C 1.10730 0.42694 0.52481
 C1380 C 1.11697 0.43667 0.54003
 C1381 C 1.13426 0.43048 0.54634
 H1382 H 1.14096 0.41902 0.53944
 O1383 O 0.90815 0.56682 0.51783
 O1384 O 0.88663 0.58839 0.51780
 C1385 C 0.89312 0.57335 0.52412
 C1386 C 0.88335 0.56354 0.53922
 C1387 C 0.86600 0.56965 0.54547
 H1388 H 0.85956 0.58150 0.53898
 Cu1389 Cu 0.99996 0.42317 0.57751
 Cu1390 Cu 0.99982 0.39725 0.60333
 Cu1391 Cu 1.00025 0.57694 0.57733
 Cu1392 Cu 1.00023 0.60286 0.60314
 Cu1393 Cu 0.92280 0.42338 0.49981
 Cu1394 Cu 0.89695 0.39752 0.49973
 Cu1395 Cu 1.07752 0.42314 0.50027
 Cu1396 Cu 1.10329 0.39719 0.50033
 Cu1397 Cu 0.92306 0.57719 0.49979
 Cu1398 Cu 0.89731 0.60316 0.49973
 Cu1399 Cu 1.07803 0.57663 0.50026
 Cu1400 Cu 1.10394 0.60244 0.50037
 Cu1401 Cu 0.92264 0.50018 0.57725
 Cu1402 Cu 0.89669 0.50028 0.60307
 Cu1403 Cu 1.07752 0.49987 0.57795
 Cu1404 Cu 1.10331 0.49981 0.60393
 C1405 C 1.04822 0.45187 0.60892
 H1406 H 1.04374 0.45649 0.59539
 C1407 C 1.06035 0.43931 0.64364
 C1408 C 0.95177 0.54820 0.60836
 H1409 H 0.95632 0.54360 0.59485
 C1410 C 0.93946 0.56069 0.64302
 C1411 C 0.89178 0.54844 0.54805
 H1412 H 0.90528 0.54383 0.54350
 C1413 C 0.85714 0.56092 0.56040
 C1414 C 1.10854 0.45174 0.54888
 H1415 H 1.09511 0.45644 0.54423
 C1416 C 1.14301 0.43901 0.56145
 C1417 C 1.04819 0.39208 0.54846
 H1418 H 1.04355 0.40552 0.54382
 C1419 C 1.06081 0.35759 0.56103
 C1420 C 0.95217 0.60816 0.54811
 H1421 H 0.95680 0.59470 0.54350
 C1422 C 0.93961 0.64267 0.56061
 C1423 C 0.95153 0.45205 0.60848
 H1424 H 0.95618 0.45667 0.59501
 C1425 C 0.93897 0.43953 0.64306
 C1426 C 1.04843 0.54806 0.60881
 H1427 H 1.04383 0.54336 0.59535
 C1428 C 1.06086 0.56083 0.64333
 C1429 C 0.95173 0.39227 0.54821
 H1430 H 0.95645 0.40569 0.54357
 C1431 C 0.93895 0.35786 0.56077
 C1432 C 1.04878 0.60775 0.54838
 H1433 H 1.04423 0.59425 0.54381
 C1434 C 1.06110 0.64238 0.56078
 C1435 C 0.89150 0.45224 0.54805
 H1436 H 0.90498 0.45688 0.54346
 C1437 C 0.85693 0.43965 0.56046
 C1438 C 1.10890 0.54774 0.54881
 H1439 H 1.09542 0.54315 0.54418
 C1440 C 1.14348 0.56023 0.56135
 O1441 O 0.48194 0.93376 0.40737
 O1442 O 0.48192 0.91231 0.38572
 C1443 C 0.47563 0.92733 0.39229
 C1444 C 0.46058 0.93725 0.38257
 C1445 C 0.45427 0.93121 0.36521
 H1446 H 0.46065 0.91929 0.35879
 O1447 O 0.51864 1.06661 0.40783
 O1448 O 0.51879 1.08819 0.38630
 C1449 C 0.52499 1.07310 0.39279
 C1450 C 0.54004 1.06323 0.38303
 C1451 C 0.54616 1.06924 0.36561
 H1452 H 0.53915 1.08061 0.35887
 O1453 O 0.40816 0.98263 0.43269
 O1454 O 0.38655 0.98275 0.41116
 C1455 C 0.39307 0.97641 0.42621
 C1456 C 0.38330 0.96137 0.43606
 C1457 C 0.36585 0.95532 0.43006
 H1458 H 0.35913 0.96229 0.41863
 O1459 O 0.59247 1.01783 0.43314
 O1460 O 0.61417 1.01785 0.41171
 C1461 C 0.60757 1.02411 0.42676
 C1462 C 0.61727 1.03910 0.43676
 C1463 C 0.63460 1.04545 0.43071
 H1464 H 0.64107 1.03912 0.41878
 O1465 O 0.43315 0.90849 0.48140
 O1466 O 0.41156 0.88699 0.48127
 C1467 C 0.42665 0.89348 0.47505
 C1468 C 0.43652 0.88379 0.45994
 C1469 C 0.43043 0.86647 0.45369
 H1470 H 0.41899 0.85976 0.46063
 O1471 O 0.56720 1.09144 0.48228
 O1472 O 0.58878 1.11295 0.48239
 C1473 C 0.57374 1.10647 0.47602
 C1474 C 0.56399 1.11623 0.46088
 C1475 C 0.57017 1.13355 0.45472
 H1476 H 0.58164 1.14020 0.46168
 O1477 O 0.43358 1.01861 0.40745
 O1478 O 0.41211 1.01878 0.38579
 C1479 C 0.42716 1.02498 0.39239
 C1480 C 0.43715 1.04000 0.38273
 C1481 C 0.43121 1.04632 0.36534
 H1482 H 0.41935 1.03994 0.35879
 O1483 O 0.56715 0.98197 0.40764
 O1484 O 0.58872 0.98189 0.38608
 C1485 C 0.57364 0.97565 0.39259
 C1486 C 0.56370 0.96064 0.38284
 C1487 C 0.56983 0.95426 0.36554
 H1488 H 0.58183 0.96055 0.35916
 O1489 O 0.51793 0.90843 0.43276
 O1490 O 0.51798 0.88686 0.41123
 C1491 C 0.52426 0.89340 0.42629
 C1492 C 0.53935 0.88370 0.43620
 C1493 C 0.54575 0.86646 0.43002
 H1494 H 0.53938 0.86004 0.41808
 O1495 O 0.48263 1.09194 0.43322
 O1496 O 0.48276 1.11362 0.41180
 C1497 C 0.47638 1.10703 0.42679
 C1498 C 0.46122 1.11670 0.43659
 C1499 C 0.45492 1.13397 0.43038
 H1500 H 0.46180 1.14065 0.41888
 O1501 O 0.40825 1.06687 0.48191
 O1502 O 0.38672 1.08844 0.48188
 C1503 C 0.39320 1.07338 0.47560
 C1504 C 0.38346 1.06359 0.46048
 C1505 C 0.36603 1.06958 0.45440
 H1506 H 0.35925 1.08088 0.46150
 O1507 O 0.59204 0.93337 0.48195
 O1508 O 0.61356 0.91181 0.48197
 C1509 C 0.60710 0.92686 0.47568
 C1510 C 0.61690 0.93668 0.46061
 C1511 C 0.63432 0.93062 0.45453
 H1512 H 0.64100 0.91919 0.46150
 O1513 O 0.48259 1.06685 0.40771
 O1514 O 0.48273 1.08842 0.38617
 C1515 C 0.47636 1.07340 0.39265
 C1516 C 0.46124 1.06367 0.38286
 C1517 C 0.45516 1.06974 0.36544
 H1518 H 0.46216 1.08114 0.35873
 O1519 O 0.51801 0.93374 0.40745
 O1520 O 0.51802 0.91229 0.38580
 C1521 C 0.52433 0.92729 0.39238
 C1522 C 0.53951 0.93707 0.38273
 C1523 C 0.54572 0.93101 0.36535
 H1524 H 0.53869 0.91969 0.35857
 O1525 O 0.59240 0.98185 0.43302
 O1526 O 0.61412 0.98179 0.41161
 C1527 C 0.60747 0.97552 0.42663
 C1528 C 0.61709 0.96044 0.43659
 C1529 C 0.63447 0.95413 0.43065
 H1530 H 0.64104 0.96054 0.41881
 O1531 O 0.40823 1.01863 0.43275
 O1532 O 0.38663 1.01880 0.41122
 C1533 C 0.39319 1.02500 0.42630
 C1534 C 0.38349 1.04001 0.43629
 C1535 C 0.36613 1.04632 0.43029
 H1536 H 0.35969 1.04000 0.41834
 O1537 O 0.43364 1.09208 0.48184
 O1538 O 0.41223 1.11376 0.48176
 C1539 C 0.42724 1.10713 0.47548
 C1540 C 0.43716 1.11675 0.46035
 C1541 C 0.43101 1.13398 0.45389
 H1542 H 0.41908 1.14043 0.46023
 O1543 O 0.56651 0.90829 0.48179
 O1544 O 0.58793 0.88662 0.48178
 C1545 C 0.57294 0.89325 0.47545
 C1546 C 0.56313 0.88364 0.46024
 C1547 C 0.56927 0.86637 0.45392
 H1548 H 0.58074 0.85964 0.46080
 O1549 O 0.56733 1.01798 0.40766
 O1550 O 0.58888 1.01799 0.38608
 C1551 C 0.57385 1.02431 0.39262
 C1552 C 0.56401 1.03944 0.38295
 C1553 C 0.57007 1.04577 0.36560
 H1554 H 0.58196 1.03936 0.35913
 O1555 O 0.43348 0.98262 0.40735
 O1556 O 0.41201 0.98274 0.38569
 C1557 C 0.42702 0.97639 0.39225
 C1558 C 0.43686 0.96130 0.38252
 C1559 C 0.43087 0.95518 0.36509
 H1560 H 0.41951 0.96220 0.35831
 O1561 O 0.51872 1.09184 0.43323
 O1562 O 0.51889 1.11353 0.41182
 C1563 C 0.52512 1.10687 0.42685
 C1564 C 0.54024 1.11644 0.43682
 C1565 C 0.54667 1.13373 0.43080
 H1566 H 0.54032 1.14027 0.41891
 O1567 O 0.48185 0.90844 0.43264
 O1568 O 0.48185 0.88687 0.41112
 C1569 C 0.47551 0.89343 0.42614
 C1570 C 0.46036 0.88377 0.43598
 C1571 C 0.45396 0.86653 0.42980
 H1572 H 0.46034 0.86013 0.41786
 O1573 O 0.59245 1.06607 0.48233
 O1574 O 0.61413 1.08748 0.48244
 C1575 C 0.60755 1.07251 0.47608
 C1576 C 0.61726 1.06273 0.46091
 C1577 C 0.63462 1.06882 0.45472
 H1578 H 0.64134 1.08023 0.46169
 O1579 O 0.40788 0.93385 0.48136
 O1580 O 0.38618 0.91247 0.48124
 C1581 C 0.39281 0.92747 0.47499
 C1582 C 0.38316 0.93743 0.45990
 C1583 C 0.36576 0.93151 0.45364
 H1584 H 0.35920 0.91971 0.46010
 Cu1585 Cu 0.49993 0.92324 0.42222
 Cu1586 Cu 0.49995 0.89742 0.39630
 Cu1587 Cu 0.50064 1.07715 0.42265
 Cu1588 Cu 0.50081 1.10312 0.39687
 Cu1589 Cu 0.42301 1.00061 0.42222
 Cu1590 Cu 0.39716 1.00078 0.39629
 Cu1591 Cu 0.57767 0.99991 0.42250
 Cu1592 Cu 0.60365 0.99987 0.39670
 C1593 C 0.45186 0.95238 0.39103
 H1594 H 0.45644 0.95691 0.40456
 C1595 C 0.43945 0.94011 0.35631
 C1596 C 0.54891 1.04819 0.39147
 H1597 H 0.54437 1.04360 0.40499
 C1598 C 0.56121 1.06065 0.35678
 C1599 C 0.39174 0.95245 0.45111
 H1600 H 0.40529 0.95691 0.45568
 C1601 C 0.35697 0.94039 0.43874
 C1602 C 0.60880 1.04774 0.45196
 H1603 H 0.59530 1.04311 0.45653
 C1604 C 0.64340 1.06030 0.43961
 C1605 C 0.45163 0.89221 0.45113
 H1606 H 0.45628 0.90565 0.45577
 C1607 C 0.43902 0.85773 0.43859
 C1608 C 0.54890 1.10789 0.45196
 H1609 H 0.54421 1.09443 0.45650
 C1610 C 0.56162 1.14242 0.43967
 C1611 C 0.45227 1.04867 0.39129
 H1612 H 0.45675 1.04406 0.40482
 C1613 C 0.44014 1.06117 0.35656
 C1614 C 0.54846 0.95203 0.39125
 H1615 H 0.54385 0.95665 0.40474
 C1616 C 0.56091 0.93946 0.35665
 C1617 C 0.54804 0.89210 0.45141
 H1618 H 0.54338 0.90553 0.45607
 C1619 C 0.56070 0.85767 0.43880
 C1620 C 0.45237 1.10830 0.45170
 H1621 H 0.45701 1.09488 0.45642
 C1622 C 0.43981 1.14271 0.43891
 C1623 C 0.39197 1.04866 0.45147
 H1624 H 0.40550 1.04408 0.45598
 C1625 C 0.35724 1.06108 0.43928
 C1626 C 0.60851 0.95172 0.45168
 H1627 H 0.59498 0.95633 0.45616
 C1628 C 0.64321 0.93923 0.43954
 O1629 O 0.51759 0.93312 0.59204
 O1630 O 0.51746 0.91154 0.61357
 C1631 C 0.52382 0.92657 0.60711
 C1632 C 0.53892 0.93630 0.61693
 C1633 C 0.54501 0.93016 0.63432
 H1634 H 0.53804 0.91872 0.64097
 O1635 O 0.48205 1.06656 0.59233
 O1636 O 0.48203 1.08801 0.61398
 C1637 C 0.47572 1.07302 0.60739
 C1638 C 0.46058 1.06316 0.61705
 C1639 C 0.45429 1.06917 0.63442
 H1640 H 0.46076 1.08097 0.64095
 O1641 O 0.40796 1.01831 0.56664
 O1642 O 0.38627 1.01833 0.58809
 C1643 C 0.39290 1.02466 0.57310
 C1644 C 0.38331 1.03986 0.56329
 C1645 C 0.36605 1.04624 0.56945
 H1646 H 0.35930 1.03940 0.58094
 O1647 O 0.59182 0.98156 0.56721
 O1648 O 0.61339 0.98138 0.58878
 C1649 C 0.60685 0.97519 0.57368
 C1650 C 0.61655 0.96016 0.56372
 C1651 C 0.63386 0.95380 0.56980
 H1652 H 0.64033 0.96014 0.58172
 O1653 O 0.56649 0.90808 0.51790
 O1654 O 0.58791 0.88640 0.51791
 C1655 C 0.57288 0.89299 0.52418
 C1656 C 0.56293 0.88328 0.53923
 C1657 C 0.56898 0.86595 0.54552
 H1658 H 0.58086 0.85948 0.53909
 O1659 O 0.43373 1.09209 0.51794
 O1660 O 0.41235 1.11380 0.51789
 C1661 C 0.42735 1.10718 0.52421
 C1662 C 0.43721 1.11683 0.53936
 C1663 C 0.43122 1.13421 0.54552
 H1664 H 0.41989 1.14101 0.53848
 O1665 O 0.43297 0.98205 0.59194
 O1666 O 0.41139 0.98204 0.61350
 C1667 C 0.42642 0.97571 0.60696
 C1668 C 0.43620 0.96055 0.61664
 C1669 C 0.43000 0.95418 0.63392
 H1670 H 0.41813 0.96062 0.64038
 O1671 O 0.56650 1.01753 0.59259
 O1672 O 0.58794 1.01741 0.61429
 C1673 C 0.57294 1.02377 0.60769
 C1674 C 0.56314 1.03892 0.61737
 C1675 C 0.56926 1.04517 0.63471
 H1676 H 0.58065 1.03819 0.64147
 O1677 O 0.48150 0.90810 0.56649
 O1678 O 0.48136 0.88639 0.58789
 C1679 C 0.47512 0.89305 0.57287
 C1680 C 0.46002 0.88346 0.56290
 C1681 C 0.45362 0.86616 0.56893
 H1682 H 0.45999 0.85964 0.58081
 O1683 O 0.51823 1.09171 0.56708
 O1684 O 0.51827 1.11331 0.58858
 C1685 C 0.52459 1.10672 0.57356
 C1686 C 0.53977 1.11631 0.56371
 C1687 C 0.54619 1.13356 0.56984
 H1688 H 0.53977 1.14006 0.58171
 O1689 O 0.40779 0.93379 0.51746
 O1690 O 0.38610 0.91240 0.51738
 C1691 C 0.39270 0.92737 0.52373
 C1692 C 0.38300 0.93721 0.53886
 C1693 C 0.36567 0.93111 0.54516
 H1694 H 0.35920 0.91927 0.53869
 O1695 O 0.59230 1.06601 0.51846
 O1696 O 0.61398 1.08743 0.51858
 C1697 C 0.60735 1.07243 0.52485
 C1698 C 0.61694 1.06261 0.54006
 C1699 C 0.63420 1.06875 0.54647
 H1700 H 0.64096 1.08022 0.53963
 O1701 O 0.51811 1.06650 0.59246
 O1702 O 0.51816 1.08797 0.61409
 C1703 C 0.52443 1.07294 0.60754
 C1704 C 0.53949 1.06303 0.61727
 C1705 C 0.54592 1.06920 0.63454
 H1706 H 0.53963 1.08119 0.64090
 O1707 O 0.48154 0.93330 0.59189
 O1708 O 0.48137 0.91171 0.61341
 C1709 C 0.47516 0.92679 0.60691
 C1710 C 0.46005 0.93664 0.61661
 C1711 C 0.45372 0.93051 0.63392
 H1712 H 0.46052 0.91899 0.64061
 O1713 O 0.59197 1.01755 0.56741
 O1714 O 0.61354 1.01744 0.58898
 C1715 C 0.60703 1.02379 0.57394
 C1716 C 0.61679 1.03887 0.56410
 C1717 C 0.63404 1.04525 0.57036
 H1718 H 0.64041 1.03889 0.58233
 O1719 O 0.40785 0.98230 0.56641
 O1720 O 0.38615 0.98228 0.58785
 C1721 C 0.39274 0.97603 0.57279
 C1722 C 0.38303 0.96102 0.56283
 C1723 C 0.36567 0.95477 0.56888
 H1724 H 0.35895 0.96158 0.58041
 O1725 O 0.56706 1.09140 0.51838
 O1726 O 0.58864 1.11291 0.51849
 C1727 C 0.57356 1.10642 0.52472
 C1728 C 0.56369 1.11615 0.53982
 C1729 C 0.56986 1.13343 0.54609
 H1730 H 0.58141 1.14007 0.53925
 O1731 O 0.43302 0.90841 0.51748
 O1732 O 0.41144 0.88691 0.51738
 C1733 C 0.42648 0.89338 0.52373
 C1734 C 0.43625 0.88363 0.53886
 C1735 C 0.43009 0.86631 0.54504
 H1736 H 0.41862 0.85965 0.53810
 O1737 O 0.56650 0.98152 0.59253
 O1738 O 0.58793 0.98133 0.61423
 C1739 C 0.57290 0.97512 0.60759
 C1740 C 0.56294 0.96003 0.61719
 C1741 C 0.56890 0.95364 0.63454
 H1742 H 0.58075 0.96001 0.64112
 O1743 O 0.43323 1.01806 0.59203
 O1744 O 0.41166 1.01809 0.61359
 C1745 C 0.42675 1.02433 0.60711
 C1746 C 0.43665 1.03933 0.61691
 C1747 C 0.43061 1.04548 0.63431
 H1748 H 0.41911 1.03861 0.64101
 O1749 O 0.48217 1.09188 0.56704
 O1750 O 0.48214 1.11347 0.58855
 C1751 C 0.47587 1.10694 0.57348
 C1752 C 0.46085 1.11668 0.56352
 C1753 C 0.45454 1.13400 0.56961
 H1754 H 0.46088 1.14037 0.58159
 O1755 O 0.51757 0.90804 0.56651
 O1756 O 0.51746 0.88634 0.58791
 C1757 C 0.52382 0.89294 0.57291
 C1758 C 0.53893 0.88326 0.56304
 C1759 C 0.54512 0.86590 0.56908
 H1760 H 0.53821 0.85916 0.58053
 O1761 O 0.59185 0.93332 0.51805
 O1762 O 0.61337 0.91175 0.51808
 C1763 C 0.60686 0.92677 0.52440
 C1764 C 0.61655 0.93651 0.53960
 C1765 C 0.63389 0.93039 0.54582
 H1766 H 0.64062 0.91897 0.53887
 O1767 O 0.40818 1.06705 0.51801
 O1768 O 0.38668 1.08864 0.51801
 C1769 C 0.39317 1.07361 0.52434
 C1770 C 0.38343 1.06382 0.53948
 C1771 C 0.36619 1.07007 0.54590
 H1772 H 0.35981 1.08201 0.53952
 Cu1773 Cu 0.49956 0.92280 0.57709
 Cu1774 Cu 0.49940 0.89682 0.60285
 Cu1775 Cu 0.50014 1.07701 0.57758
 Cu1776 Cu 0.50015 1.10286 0.60347
 Cu1777 Cu 0.42262 0.92328 0.49943
 Cu1778 Cu 0.39664 0.89754 0.49930
 Cu1779 Cu 0.57708 0.92293 0.49992
 Cu1780 Cu 0.60285 0.89697 0.49993
 Cu1781 Cu 0.42309 1.07736 0.49993
 Cu1782 Cu 0.39734 1.10334 0.49988
 Cu1783 Cu 0.57760 1.07658 0.50035
 Cu1784 Cu 0.60356 1.10234 0.50048
 Cu1785 Cu 0.42267 1.00018 0.57711
 Cu1786 Cu 0.39669 1.00019 0.60291
 Cu1787 Cu 0.57705 0.99955 0.57778
 Cu1788 Cu 0.60286 0.99938 0.60375
 C1789 C 0.54784 0.95136 0.60858
 H1790 H 0.54335 0.95603 0.59507
 C1791 C 0.56001 0.93872 0.64324
 C1792 C 0.45177 1.04813 0.60849
 H1793 H 0.45637 1.04361 0.59497
 C1794 C 0.43932 1.06040 0.64318
 C1795 C 0.39179 1.04862 0.54818
 H1796 H 0.40521 1.04390 0.54350
 C1797 C 0.35738 1.06136 0.56088
 C1798 C 0.60809 0.95152 0.54852
 H1799 H 0.59461 0.95617 0.54393
 C1800 C 0.64266 0.93893 0.56092
 C1801 C 0.54780 0.89174 0.54799
 H1802 H 0.54324 0.90523 0.54340
 C1803 C 0.56016 0.85714 0.56043
 C1804 C 0.45217 1.10828 0.54831
 H1805 H 0.45675 1.09479 0.54374
 C1806 C 0.43974 1.14290 0.56068
 C1807 C 0.45132 0.95179 0.60819
 H1808 H 0.45599 0.95645 0.59473
 C1809 C 0.43868 0.93917 0.64268
 C1810 C 0.54811 1.04780 0.60887
 H1811 H 0.54345 1.04318 0.59541
 C1812 C 0.56079 1.06034 0.64340
 C1813 C 0.45134 0.89199 0.54776
 H1814 H 0.45602 0.90546 0.54322
 C1815 C 0.43867 0.85746 0.56007
 C1816 C 0.54852 1.10780 0.54859
 H1817 H 0.54383 1.09437 0.54397
 C1818 C 0.56123 1.14224 0.56111
 C1819 C 0.39148 0.95227 0.54769
 H1820 H 0.40497 0.95687 0.54309
 C1821 C 0.35689 0.93980 0.56016
 C1822 C 0.60844 1.04755 0.54885
 H1823 H 0.59502 1.04289 0.54413
 C1824 C 0.64286 1.06019 0.56163
 O1825 O 0.48237 0.43380 0.90779
 O1826 O 0.48235 0.41231 0.88618
 C1827 C 0.47610 0.42735 0.89271
 C1828 C 0.46106 0.43723 0.88293
 C1829 C 0.45492 0.43120 0.86553
 H1830 H 0.46185 0.41976 0.85882
 O1831 O 0.51898 0.56639 0.90804
 O1832 O 0.51917 0.58792 0.88647
 C1833 C 0.52537 0.57286 0.89301
 C1834 C 0.54048 0.56299 0.88332
 C1835 C 0.54674 0.56908 0.86598
 H1836 H 0.53988 0.58055 0.85926
 O1837 O 0.40826 0.48242 0.93289
 O1838 O 0.38672 0.48250 0.91130
 C1839 C 0.39321 0.47617 0.92636
 C1840 C 0.38344 0.46110 0.93619
 C1841 C 0.36607 0.45495 0.93009
 H1842 H 0.35938 0.46187 0.91861
 O1843 O 0.59289 0.51762 0.93346
 O1844 O 0.61460 0.51762 0.91203
 C1845 C 0.60799 0.52391 0.92706
 C1846 C 0.61766 0.53895 0.93701
 C1847 C 0.63498 0.54532 0.93094
 H1848 H 0.64147 0.53895 0.91904
 O1849 O 0.43335 0.40854 0.98178
 O1850 O 0.41185 0.38696 0.98170
 C1851 C 0.42692 0.39349 0.97546
 C1852 C 0.43683 0.38378 0.96039
 C1853 C 0.43080 0.36643 0.95418
 H1854 H 0.41938 0.35969 0.96113
 O1855 O 0.56750 0.59133 0.98247
 O1856 O 0.58901 0.61291 0.98258
 C1857 C 0.57398 0.60639 0.97623
 C1858 C 0.56419 0.61614 0.96111
 C1859 C 0.57026 0.63353 0.95503
 H1860 H 0.58167 0.64022 0.96203
 O1861 O 0.43376 0.51838 0.90771
 O1862 O 0.41235 0.51853 0.88599
 C1863 C 0.42739 0.52473 0.89262
 C1864 C 0.43741 0.53974 0.88296
 C1865 C 0.43147 0.54606 0.86557
 H1866 H 0.41959 0.53971 0.85904
 O1867 O 0.56760 0.48172 0.90801
 O1868 O 0.58917 0.48162 0.88644
 C1869 C 0.57409 0.47540 0.89296
 C1870 C 0.56414 0.46039 0.88322
 C1871 C 0.57020 0.45407 0.86587
 H1872 H 0.58217 0.46038 0.85946
 O1873 O 0.51825 0.40838 0.93330
 O1874 O 0.51825 0.38678 0.91180
 C1875 C 0.52451 0.39331 0.92687
 C1876 C 0.53954 0.38354 0.93679
 C1877 C 0.54566 0.36616 0.93076
 H1878 H 0.53874 0.35947 0.91928
 O1879 O 0.48294 0.59182 0.93329
 O1880 O 0.48310 0.61344 0.91181
 C1881 C 0.47672 0.60690 0.92682
 C1882 C 0.46160 0.61664 0.93661
 C1883 C 0.45537 0.63394 0.93043
 H1884 H 0.46227 0.64060 0.91893
 O1885 O 0.40843 0.56700 0.98170
 O1886 O 0.38695 0.58861 0.98164
 C1887 C 0.39343 0.57357 0.97534
 C1888 C 0.38371 0.56378 0.96019
 C1889 C 0.36641 0.56993 0.95385
 H1890 H 0.36001 0.58183 0.96026
 O1891 O 0.59241 0.43323 0.98237
 O1892 O 0.61388 0.41161 0.98242
 C1893 C 0.60746 0.42669 0.97613
 C1894 C 0.61732 0.43651 0.96109
 C1895 C 0.63478 0.43051 0.95510
 H1896 H 0.64149 0.41917 0.96218
 O1897 O 0.48291 0.56659 0.90791
 O1898 O 0.48308 0.58810 0.88632
 C1899 C 0.47668 0.57311 0.89283
 C1900 C 0.46154 0.56337 0.88306
 C1901 C 0.45545 0.56944 0.86564
 H1902 H 0.46247 0.58083 0.85893
 O1903 O 0.51844 0.43358 0.90786
 O1904 O 0.51843 0.41209 0.88625
 C1905 C 0.52476 0.42709 0.89281
 C1906 C 0.53994 0.43684 0.88313
 C1907 C 0.54608 0.43083 0.86571
 H1908 H 0.53900 0.41954 0.85892
 O1909 O 0.59280 0.48163 0.93343
 O1910 O 0.61452 0.48154 0.91202
 C1911 C 0.60787 0.47528 0.92703
 C1912 C 0.61749 0.46021 0.93701
 C1913 C 0.63488 0.45390 0.93109
 H1914 H 0.64140 0.46027 0.91921
 O1915 O 0.40836 0.51841 0.93297
 O1916 O 0.38681 0.51854 0.91138
 C1917 C 0.39334 0.52476 0.92647
 C1918 C 0.38365 0.53985 0.93635
 C1919 C 0.36627 0.54606 0.93033
 H1920 H 0.35951 0.53911 0.91892
 O1921 O 0.43395 0.59205 0.98182
 O1922 O 0.41259 0.61379 0.98175
 C1923 C 0.42760 0.60713 0.97548
 C1924 C 0.43757 0.61676 0.96040
 C1925 C 0.43149 0.63403 0.95397
 H1926 H 0.41958 0.64051 0.96032
 O1927 O 0.56697 0.40806 0.98217
 O1928 O 0.58831 0.38631 0.98221
 C1929 C 0.57335 0.39298 0.97586
 C1930 C 0.56345 0.38338 0.96071
 C1931 C 0.56943 0.36602 0.95441
 H1932 H 0.58124 0.35948 0.96088
 O1933 O 0.56770 0.51771 0.90803
 O1934 O 0.58926 0.51770 0.88646
 C1935 C 0.57422 0.52402 0.89299
 C1936 C 0.56439 0.53913 0.88329
 C1937 C 0.57052 0.54548 0.86597
 H1938 H 0.58239 0.53905 0.85949
 O1939 O 0.43362 0.48238 0.90761
 O1940 O 0.41221 0.48247 0.88589
 C1941 C 0.42720 0.47613 0.89250
 C1942 C 0.43711 0.46105 0.88282
 C1943 C 0.43110 0.45476 0.86544
 H1944 H 0.41926 0.46120 0.85891
 O1945 O 0.51900 0.59164 0.93341
 O1946 O 0.51920 0.61329 0.91196
 C1947 C 0.52540 0.60667 0.92702
 C1948 C 0.54047 0.61629 0.93702
 C1949 C 0.54679 0.63364 0.93107
 H1950 H 0.54040 0.64018 0.91921
 O1951 O 0.48216 0.40845 0.93306
 O1952 O 0.48215 0.38685 0.91156
 C1953 C 0.47581 0.39343 0.92658
 C1954 C 0.46067 0.38378 0.93642
 C1955 C 0.45431 0.36651 0.93028
 H1956 H 0.46072 0.36010 0.91836
 O1957 O 0.59279 0.56600 0.98247
 O1958 O 0.61441 0.58747 0.98255
 C1959 C 0.60786 0.57247 0.97620
 C1960 C 0.61759 0.56269 0.96106
 C1961 C 0.63493 0.56880 0.95484
 H1962 H 0.64163 0.58025 0.96176
 O1963 O 0.40799 0.43380 0.98159
 O1964 O 0.38637 0.41233 0.98149
 C1965 C 0.39296 0.42733 0.97520
 C1966 C 0.38332 0.43719 0.96005
 C1967 C 0.36598 0.43116 0.95370
 H1968 H 0.35946 0.41934 0.96014
 Cu1969 Cu 0.50031 0.42320 0.92266
 Cu1970 Cu 0.50030 0.39734 0.89678
 Cu1971 Cu 0.50094 0.57695 0.92282
 Cu1972 Cu 0.50116 0.60285 0.89697
 Cu1973 Cu 0.42315 0.50039 0.92246
 Cu1974 Cu 0.39736 0.50053 0.89646
 Cu1975 Cu 0.57809 0.49968 0.92287
 Cu1976 Cu 0.60407 0.49961 0.89707
 C1977 C 0.45219 0.45229 0.89137
 H1978 H 0.45671 0.45687 0.90489
 C1979 C 0.43993 0.43984 0.85667
 C1980 C 0.54926 0.54789 0.89176
 H1981 H 0.54464 0.54327 0.90524
 C1982 C 0.56178 0.56044 0.85720
 C1983 C 0.39185 0.45226 0.95129
 H1984 H 0.40535 0.45680 0.95593
 C1985 C 0.35722 0.43998 0.93874
 C1986 C 0.60916 0.54764 0.95217
 H1987 H 0.59568 0.54299 0.95675
 C1988 C 0.64374 0.56023 0.93977
 C1989 C 0.45191 0.39223 0.95156
 H1990 H 0.45652 0.40570 0.95616
 C1991 C 0.43940 0.35767 0.93909
 C1992 C 0.54916 0.60773 0.95214
 H1993 H 0.54455 0.59423 0.95663
 C1994 C 0.56167 0.64239 0.94000
 C1995 C 0.45255 0.54839 0.89151
 H1996 H 0.45703 0.54378 0.90504
 C1997 C 0.44042 0.56090 0.85678
 C1998 C 0.54893 0.45176 0.89166
 H1999 H 0.54438 0.45636 0.90518
 C2000 C 0.56123 0.43931 0.85697
 C2001 C 0.54840 0.39195 0.95189
 H2002 H 0.54389 0.40545 0.95648
 C2003 C 0.56061 0.35728 0.93945
 C2004 C 0.45273 0.60826 0.95172
 H2005 H 0.45731 0.59481 0.95642
 C2006 C 0.44030 0.64274 0.93900
 C2007 C 0.39215 0.54866 0.95142
 H2008 H 0.40563 0.54405 0.95602
 C2009 C 0.35753 0.56113 0.93894
 C2010 C 0.60890 0.45150 0.95210
 H2011 H 0.59535 0.45608 0.95654
 C2012 C 0.64369 0.43909 0.94008
 O2013 O 0.51782 0.43352 1.09249
 O2014 O 0.51766 0.41199 1.11407
 C2015 C 0.52404 0.42700 1.10758
 C2016 C 0.53917 0.43673 1.11736
 C2017 C 0.54520 0.43067 1.13480
 H2018 H 0.53807 0.41938 1.14154
 O2019 O 0.48214 0.56618 1.09240
 O2020 O 0.48216 0.58765 1.11403
 C2021 C 0.47583 0.57266 1.10747
 C2022 C 0.46067 0.56289 1.11715
 C2023 C 0.45457 0.56887 1.13459
 H2024 H 0.46169 0.58013 1.14141
 O2025 O 0.40783 0.51830 1.06668
 O2026 O 0.38611 0.51841 1.08808
 C2027 C 0.39279 0.52470 1.07309
 C2028 C 0.38326 0.53988 1.06319
 C2029 C 0.36604 0.54645 1.06933
 H2030 H 0.35951 0.54013 1.08124
 O2031 O 0.59236 0.48153 1.06732
 O2032 O 0.61393 0.48140 1.08889
 C2033 C 0.60739 0.47517 1.07380
 C2034 C 0.61706 0.46009 1.06390
 C2035 C 0.63445 0.45387 1.06990
 H2036 H 0.64121 0.46073 1.08136
 O2037 O 0.56666 0.40809 1.01828
 O2038 O 0.58801 0.38635 1.01835
 C2039 C 0.57299 0.39300 1.02459
 C2040 C 0.56304 0.38337 1.03970
 C2041 C 0.56904 0.36602 1.04594
 H2042 H 0.58043 0.35924 1.03899
 O2043 O 0.43386 0.59198 1.01792
 O2044 O 0.41252 0.61373 1.01788
 C2045 C 0.42749 0.60706 1.02423
 C2046 C 0.43732 0.61662 1.03945
 C2047 C 0.43129 0.63395 1.04573
 H2048 H 0.41995 0.64078 1.03874
 O2049 O 0.43284 0.48213 1.09208
 O2050 O 0.41124 0.48215 1.11362
 C2051 C 0.42629 0.47582 1.10711
 C2052 C 0.43612 0.46073 1.11685
 C2053 C 0.42993 0.45438 1.13414
 H2054 H 0.41796 0.46073 1.14050
 O2055 O 0.56711 0.51757 1.09262
 O2056 O 0.58853 0.51752 1.11434
 C2057 C 0.57353 0.52385 1.10772
 C2058 C 0.56361 0.53893 1.11739
 C2059 C 0.56964 0.54525 1.13475
 H2060 H 0.58155 0.53888 1.14121
 O2061 O 0.48177 0.40844 1.06693
 O2062 O 0.48160 0.38679 1.08838
 C2063 C 0.47538 0.39341 1.07333
 C2064 C 0.46027 0.38381 1.06337
 C2065 C 0.45387 0.36652 1.06944
 H2066 H 0.46024 0.36002 1.08133
 O2067 O 0.51835 0.59133 1.06712
 O2068 O 0.51838 0.61292 1.08863
 C2069 C 0.52470 0.60634 1.07360
 C2070 C 0.53989 0.61597 1.06380
 C2071 C 0.54618 0.63326 1.06993
 H2072 H 0.53929 0.63999 1.08140
 O2073 O 0.40780 0.43390 1.01768
 O2074 O 0.38619 0.41243 1.01761
 C2075 C 0.39271 0.42746 1.02392
 C2076 C 0.38292 0.43730 1.03899
 C2077 C 0.36551 0.43126 1.04510
 H2078 H 0.35879 0.41989 1.03808
 O2079 O 0.59275 0.56595 1.01857
 O2080 O 0.61437 0.58742 1.01867
 C2081 C 0.60780 0.57240 1.02493
 C2082 C 0.61745 0.56256 1.04009
 C2083 C 0.63477 0.56865 1.04639
 H2084 H 0.64152 0.58010 1.03951
 O2085 O 0.51821 0.56607 1.09249
 O2086 O 0.51823 0.58755 1.11411
 C2087 C 0.52449 0.57251 1.10758
 C2088 C 0.53956 0.56264 1.11734
 C2089 C 0.54566 0.56864 1.13477
 H2090 H 0.53863 0.57999 1.14152
 O2091 O 0.48175 0.43366 1.09232
 O2092 O 0.48157 0.41213 1.11389
 C2093 C 0.47535 0.42718 1.10735
 C2094 C 0.46018 0.43702 1.11699
 C2095 C 0.45391 0.43098 1.13435
 H2096 H 0.46087 0.41961 1.14114
 O2097 O 0.59257 0.51751 1.06746
 O2098 O 0.61413 0.51745 1.08904
 C2099 C 0.60763 0.52376 1.07397
 C2100 C 0.61738 0.53881 1.06410
 C2101 C 0.63468 0.54514 1.07027
 H2102 H 0.64111 0.53874 1.08219
 O2103 O 0.40763 0.48229 1.06667
 O2104 O 0.38589 0.48231 1.08806
 C2105 C 0.39252 0.47602 1.07305
 C2106 C 0.38284 0.46098 1.06308
 C2107 C 0.36551 0.45463 1.06911
 H2108 H 0.35906 0.46097 1.08105
 O2109 O 0.56740 0.59122 1.01857
 O2110 O 0.58891 0.61279 1.01870
 C2111 C 0.57386 0.60624 1.02494
 C2112 C 0.56394 0.61592 1.04004
 C2113 C 0.57008 0.63318 1.04642
 H2114 H 0.58200 0.63961 1.04004
 O2115 O 0.43319 0.40865 1.01787
 O2116 O 0.41169 0.38707 1.01781
 C2117 C 0.42670 0.39362 1.02417
 C2118 C 0.43648 0.38393 1.03934
 C2119 C 0.43033 0.36662 1.04555
 H2120 H 0.41886 0.35995 1.03863
 O2121 O 0.56706 0.48158 1.09266
 O2122 O 0.58848 0.48144 1.11438
 C2123 C 0.57344 0.47523 1.10775
 C2124 C 0.56341 0.46022 1.11742
 C2125 C 0.56938 0.45385 1.13479
 H2126 H 0.58133 0.46013 1.14126
 O2127 O 0.43294 0.51811 1.09220
 O2128 O 0.41136 0.51821 1.11375
 C2129 C 0.42646 0.52442 1.10726
 C2130 C 0.43644 0.53938 1.11703
 C2131 C 0.43041 0.54567 1.13441
 H2132 H 0.41844 0.53937 1.14081
 O2133 O 0.48225 0.59151 1.06709
 O2134 O 0.48227 0.61309 1.08861
 C2135 C 0.47597 0.60657 1.07356
 C2136 C 0.46095 0.61635 1.06363
 C2137 C 0.45460 0.63362 1.06983
 H2138 H 0.46092 0.63992 1.08186
 O2139 O 0.51787 0.40829 1.06710
 O2140 O 0.51773 0.38665 1.08856
 C2141 C 0.52412 0.39322 1.07356
 C2142 C 0.53924 0.38350 1.06371
 C2143 C 0.54557 0.36622 1.06989
 H2144 H 0.53918 0.35985 1.08184
 O2145 O 0.59231 0.43304 1.01846
 O2146 O 0.61378 0.41141 1.01853
 C2147 C 0.60730 0.42646 1.02483
 C2148 C 0.61703 0.43625 1.03997
 C2149 C 0.63438 0.43016 1.04622
 H2150 H 0.64086 0.41834 1.03972
 O2151 O 0.40837 0.56688 1.01781
 O2152 O 0.38691 0.58852 1.01778
 C2153 C 0.39334 0.57345 1.02409
 C2154 C 0.38354 0.56370 1.03921
 C2155 C 0.36629 0.57001 1.04550
 H2156 H 0.35971 0.58157 1.03865
 Cu2157 Cu 0.49982 0.42313 1.07756
 Cu2158 Cu 0.49962 0.39722 1.10338
 Cu2159 Cu 0.50023 0.57663 1.07762
 Cu2160 Cu 0.50026 0.60247 1.10351
 Cu2161 Cu 0.42273 0.42338 0.99973
 Cu2162 Cu 0.39686 0.39753 0.99965
 Cu2163 Cu 0.57745 0.42277 1.00031
 Cu2164 Cu 0.60314 0.39673 1.00038
 Cu2165 Cu 0.42329 0.57731 0.99981
 Cu2166 Cu 0.39759 0.60334 0.99976
 Cu2167 Cu 0.57796 0.57647 1.00051
 Cu2168 Cu 0.60384 0.60231 1.00063
 Cu2169 Cu 0.42247 0.50020 1.07726
 Cu2170 Cu 0.39646 0.50028 1.10303
 Cu2171 Cu 0.57763 0.49955 1.07786
 Cu2172 Cu 0.60343 0.49944 1.10384
 C2173 C 0.54823 0.45164 1.10890
 H2174 H 0.54375 0.45627 1.09536
 C2175 C 0.56033 0.43910 1.14363
 C2176 C 0.45165 0.54801 1.10860
 H2177 H 0.45617 0.54345 1.09506
 C2178 C 0.43941 0.56040 1.14334
 C2179 C 0.39181 0.54851 1.04803
 H2180 H 0.40522 0.54372 1.04339
 C2181 C 0.35744 0.56150 1.06057
 C2182 C 0.60856 0.45131 1.04881
 H2183 H 0.59506 0.45590 1.04425
 C2184 C 0.64322 0.43890 1.06117
 C2185 C 0.54800 0.39189 1.04853
 H2186 H 0.54341 0.40536 1.04390
 C2187 C 0.56046 0.35734 1.06108
 C2188 C 0.45229 0.60804 1.04836
 H2189 H 0.45689 0.59459 1.04370
 C2190 C 0.43979 0.64256 1.06096
 C2191 C 0.45133 0.45203 1.10846
 H2192 H 0.45598 0.45665 1.09499
 C2193 C 0.43876 0.43952 1.14304
 C2194 C 0.54849 0.54764 1.10887
 H2195 H 0.54397 0.54306 1.09534
 C2196 C 0.56073 0.56009 1.14359
 C2197 C 0.45157 0.39232 1.04822
 H2198 H 0.45625 0.40577 1.04364
 C2199 C 0.43891 0.35781 1.06061
 C2200 C 0.54874 0.60751 1.04873
 H2201 H 0.54411 0.59407 1.04406
 C2202 C 0.56128 0.64198 1.06135
 C2203 C 0.39136 0.45231 1.04793
 H2204 H 0.40487 0.45691 1.04340
 C2205 C 0.35670 0.43979 1.06020
 C2206 C 0.60897 0.54752 1.04891
 H2207 H 0.59550 0.54290 1.04426
 C2208 C 0.64350 0.56005 1.06149
 C2209 C 1.10860 1.10849 1.26419
 C2210 C 1.10344 1.12611 1.27039
 C2211 C 1.11043 1.13319 1.28694
 C2212 C 1.12302 1.12295 1.29782
 C2213 C 1.12808 1.10519 1.29147
 C2214 C 1.12090 1.09807 1.27498
 C2215 C 1.10129 1.10118 1.24649
 N2216 N 1.10375 1.08320 1.24173
 N2217 N 1.09724 1.07672 1.22575
 C2218 C 1.08807 1.08796 1.21382
 N2219 N 1.08562 1.10593 1.21859
 N2220 N 1.09206 1.11239 1.23458
 C2221 C 1.08098 1.08087 1.19594
 C2222 C 1.07459 1.09315 1.18230
 C2223 C 1.06807 1.08655 1.16536
 C2224 C 1.06761 1.06750 1.16168
 C2225 C 1.07391 1.05521 1.17536
 C2226 C 1.08058 1.06182 1.19227
 H2227 H 1.09396 1.13453 1.26242
 H2228 H 1.10619 1.14697 1.29071
 H2229 H 1.13731 1.09644 1.29928
 H2230 H 1.12514 1.08441 1.27062
 H2231 H 1.07483 1.10792 1.18460
 H2232 H 1.06366 1.09643 1.15502
 H2233 H 1.07350 1.04044 1.17308
 H2234 H 1.08529 1.05198 1.20251
 C2235 C 1.10812 0.60923 0.76401
 C2236 C 1.10650 0.62810 0.76831
 C2237 C 1.11347 0.63503 0.78495
 C2238 C 1.12230 0.62328 0.79765
 C2239 C 1.12389 0.60442 0.79339
 C2240 C 1.11684 0.59746 0.77679
 C2241 C 1.10088 0.60194 0.74625
 N2242 N 1.10126 0.58356 0.74253
 N2243 N 1.09488 0.57705 0.72652
 C2244 C 1.08787 0.58866 0.71352
 N2245 N 1.08748 0.60703 0.71725
 N2246 N 1.09384 0.61353 0.73327
 C2247 C 1.08088 0.58148 0.69562
 C2248 C 1.07516 0.59370 0.68163
 C2249 C 1.06868 0.58699 0.66472
 C2250 C 1.06769 0.56790 0.66138
 C2251 C 1.07338 0.55567 0.67536
 C2252 C 1.07992 0.56237 0.69228
 H2253 H 1.09988 0.63757 0.75880
 H2254 H 1.11224 0.64965 0.78771
 H2255 H 1.13042 0.59500 0.80299
 H2256 H 1.11831 0.58286 0.77395
 H2257 H 1.07580 0.60849 0.68367
 H2258 H 1.06471 0.59679 0.65412
 H2259 H 1.07258 0.54088 0.67330
 H2260 H 1.08414 0.55256 0.70277
 C2261 C 0.60907 1.10867 0.76368
 C2262 C 0.62673 1.10362 0.76992
 C2263 C 0.63375 1.11067 0.78648
 C2264 C 0.62338 1.12319 0.79732
 C2265 C 0.60560 1.12816 0.79090
 C2266 C 0.59855 1.12094 0.77441
 C2267 C 0.60175 1.10126 0.74602
 N2268 N 0.58373 1.10367 0.74128
 N2269 N 0.57722 1.09709 0.72534
 C2270 C 0.58847 1.08789 0.71344
 N2271 N 0.60648 1.08550 0.71819
 N2272 N 0.61297 1.09201 0.73415
 C2273 C 0.58133 1.08073 0.69562
 C2274 C 0.59358 1.07426 0.68199
 C2275 C 0.58692 1.06768 0.66509
 C2276 C 0.56782 1.06726 0.66145
 C2277 C 0.55556 1.07365 0.67512
 C2278 C 0.56224 1.08037 0.69198
 H2279 H 0.63522 1.09419 0.76199
 H2280 H 0.64755 1.10651 0.79033
 H2281 H 0.59676 1.13733 0.79866
 H2282 H 0.58485 1.12509 0.77002
 H2283 H 0.60837 1.07447 0.68426
 H2284 H 0.59677 1.06320 0.65475
 H2285 H 0.54076 1.07328 0.67287
 H2286 H 0.55241 1.08515 0.70222
 C2287 C 0.60708 0.60756 1.26497
 C2288 C 0.61955 0.59724 1.27565
 C2289 C 0.62666 0.60433 1.29217
 C2290 C 0.62138 0.62197 1.29866
 C2291 C 0.60857 0.63209 1.28793
 C2292 C 0.60164 0.62503 1.27134
 C2293 C 0.59994 0.60030 1.24718
 N2294 N 0.59069 0.61151 1.23529
 N2295 N 0.58447 0.60512 1.21918
 C2296 C 0.58717 0.58722 1.21428
 N2297 N 0.59636 0.57598 1.22620
 N2298 N 0.60265 0.58239 1.24229
 C2299 C 0.58036 0.58020 1.19627
 C2300 C 0.58010 0.56117 1.19248
 C2301 C 0.57365 0.55463 1.17546
 C2302 C 0.56745 0.56697 1.16178
 C2303 C 0.56781 0.58601 1.16557
 C2304 C 0.57410 0.59253 1.18262
 H2305 H 0.62399 0.58367 1.27117
 H2306 H 0.63605 0.59565 1.29988
 H2307 H 0.60413 0.64577 1.29184
 H2308 H 0.59201 0.63336 1.26346
 H2309 H 0.58473 0.55129 1.20272
 H2310 H 0.57333 0.53987 1.17309
 H2311 H 0.56348 0.59593 1.15523
 H2312 H 0.57425 0.60729 1.18501
 C2313 C 0.89155 0.89194 1.26405
 C2314 C 0.87925 0.90233 1.27487
 C2315 C 0.87229 0.89527 1.29148
 C2316 C 0.87758 0.87761 1.29791
 C2317 C 0.89015 0.86739 1.28699
 C2318 C 0.89692 0.87442 1.27032
 C2319 C 0.89864 0.89921 1.24624
 N2320 N 0.90783 0.88800 1.23431
 N2321 N 0.91410 0.89443 1.21823
 C2322 C 0.91151 0.91236 1.21341
 N2323 N 0.90237 0.92361 1.22535
 N2324 N 0.89603 0.91716 1.24141
 C2325 C 0.91846 0.91943 1.19546
 C2326 C 0.91878 0.93847 1.19173
 C2327 C 0.92541 0.94506 1.17480
 C2328 C 0.93172 0.93275 1.16114
 C2329 C 0.93128 0.91371 1.16486
 C2330 C 0.92481 0.90713 1.18183
 H2331 H 0.87485 0.91593 1.27045
 H2332 H 0.86306 0.90400 1.29930
 H2333 H 0.89455 0.85368 1.29084
 H2334 H 0.90640 0.86603 1.26233
 H2335 H 0.91409 0.94833 1.20197
 H2336 H 0.92579 0.95983 1.17248
 H2337 H 0.93570 0.90382 1.15453
 H2338 H 0.92462 0.89237 1.18417
 C2339 C 0.89146 0.39188 0.76395
 C2340 C 0.87920 0.40231 0.77478
 C2341 C 0.87216 0.39523 0.79135
 C2342 C 0.87731 0.37751 0.79773
 C2343 C 0.88985 0.36726 0.78680
 C2344 C 0.89670 0.37430 0.77018
 C2345 C 0.89865 0.39915 0.74617
 N2346 N 0.90783 0.38791 0.73426
 N2347 N 0.91418 0.39432 0.71821
 C2348 C 0.91169 0.41227 0.71340
 N2349 N 0.90256 0.42355 0.72533
 N2350 N 0.89614 0.41711 0.74136
 C2351 C 0.91871 0.41932 0.69547
 C2352 C 0.91909 0.43837 0.69174
 C2353 C 0.92576 0.44494 0.67481
 C2354 C 0.93206 0.43261 0.66117
 C2355 C 0.93159 0.41357 0.66489
 C2356 C 0.92507 0.40701 0.68185
 H2357 H 0.87491 0.41595 0.77040
 H2358 H 0.86296 0.40399 0.79918
 H2359 H 0.89415 0.35350 0.79060
 H2360 H 0.90615 0.36587 0.76218
 H2361 H 0.91440 0.44823 0.70197
 H2362 H 0.92617 0.45970 0.67250
 H2363 H 0.93600 0.40366 0.65458
 H2364 H 0.92484 0.39225 0.68420
 C2365 C 0.39070 0.89128 0.76329
 C2366 C 0.39191 0.87234 0.76737
 C2367 C 0.38509 0.86542 0.78406
 C2368 C 0.37683 0.87724 0.79707
 C2369 C 0.37559 0.89618 0.79302
 C2370 C 0.38249 0.90313 0.77634
 C2371 C 0.39792 0.89854 0.74551
 N2372 N 0.39786 0.91695 0.74187
 N2373 N 0.40433 0.92339 0.72586
 C2374 C 0.41110 0.91171 0.71280
 N2375 N 0.41115 0.89332 0.71646
 N2376 N 0.40471 0.88688 0.73246
 C2377 C 0.41822 0.91881 0.69492
 C2378 C 0.42393 0.90652 0.68099
 C2379 C 0.43056 0.91313 0.66410
 C2380 C 0.43173 0.93220 0.66073
 C2381 C 0.42606 0.94451 0.67465
 C2382 C 0.41937 0.93790 0.69155
 H2383 H 0.39811 0.86280 0.75765
 H2384 H 0.38601 0.85074 0.78663
 H2385 H 0.36948 0.90565 0.80285
 H2386 H 0.38134 0.91780 0.77366
 H2387 H 0.42315 0.89173 0.68305
 H2388 H 0.43452 0.90328 0.65355
 H2389 H 0.42699 0.95929 0.67255
 H2390 H 0.41517 0.94776 0.70198
 C2391 C 0.39140 0.39189 1.26399
 C2392 C 0.37916 0.40233 1.27484
 C2393 C 0.37213 0.39526 1.29141
 C2394 C 0.37726 0.37753 1.29778
 C2395 C 0.38978 0.36727 1.28684
 C2396 C 0.39663 0.37431 1.27021
 C2397 C 0.39857 0.39916 1.24621
 N2398 N 0.40773 0.38792 1.23429
 N2399 N 0.41405 0.39433 1.21823
 C2400 C 0.41155 0.41228 1.21341
 N2401 N 0.40243 0.42355 1.22535
 N2402 N 0.39604 0.41712 1.24140
 C2403 C 0.41854 0.41933 1.19547
 C2404 C 0.41889 0.43837 1.19173
 C2405 C 0.42554 0.44494 1.17479
 C2406 C 0.43186 0.43261 1.16115
 C2407 C 0.43141 0.41357 1.16489
 C2408 C 0.42491 0.40701 1.18186
 H2409 H 0.37488 0.41598 1.27047
 H2410 H 0.36295 0.40402 1.29926
 H2411 H 0.39407 0.35351 1.29063
 H2412 H 0.40606 0.36588 1.26220
 H2413 H 0.41419 0.44824 1.20194
 H2414 H 0.42592 0.45970 1.17246
 H2415 H 0.43583 0.40366 1.15458
 H2416 H 0.42470 0.39225 1.18421
 C2417 C 0.89291 1.10862 0.73580
 C2418 C 0.89825 1.12610 0.72939
 C2419 C 0.89120 1.13314 0.71284
 C2420 C 0.87835 1.12299 0.70219
 C2421 C 0.87316 1.10533 0.70872
 C2422 C 0.88040 1.09826 0.72520
 C2423 C 0.90019 1.10136 0.75354
 N2424 N 0.89752 1.08345 0.75846
 N2425 N 0.90392 1.07703 0.77450
 C2426 C 0.91319 1.08827 0.78635
 N2427 N 0.91585 1.10617 0.78143
 N2428 N 0.90952 1.11257 0.76536
 C2429 C 0.92011 1.08125 0.80433
 C2430 C 0.92649 1.09356 0.81793
 C2431 C 0.93283 1.08702 0.83497
 C2432 C 0.93312 1.06798 0.83877
 C2433 C 0.92682 1.05566 0.82513
 C2434 C 0.92032 1.06222 0.80813
 H2435 H 0.90791 1.13445 0.73721
 H2436 H 0.89558 1.14683 0.70889
 H2437 H 0.86375 1.09664 0.70108
 H2438 H 0.87602 1.08469 0.72971
 H2439 H 0.92637 1.10832 0.81553
 H2440 H 0.93724 1.09692 0.84528
 H2441 H 0.92710 1.04090 0.82750
 H2442 H 0.91561 1.05235 0.79792
 C2443 C 0.89424 0.60799 0.23516
 C2444 C 0.88572 0.59612 0.22234
 C2445 C 0.87873 0.60299 0.20566
 C2446 C 0.88018 0.62186 0.20138
 C2447 C 0.88882 0.63369 0.21412
 C2448 C 0.89573 0.62686 0.23081
 C2449 C 0.90136 0.60084 0.25301
 N2450 N 0.90828 0.61255 0.26595
 N2451 N 0.91452 0.60620 0.28208
 C2452 C 0.91413 0.58786 0.28597
 N2453 N 0.90726 0.57613 0.27301
 N2454 N 0.90099 0.58249 0.25689
 C2455 C 0.92096 0.58086 0.30400
 C2456 C 0.92184 0.56180 0.30758
 C2457 C 0.92820 0.55527 0.32464
 C2458 C 0.93381 0.56765 0.33852
 C2459 C 0.93292 0.58670 0.33494
 C2460 C 0.92661 0.59323 0.31789
 H2461 H 0.88435 0.58151 0.22521
 H2462 H 0.87234 0.59350 0.19603
 H2463 H 0.88993 0.64833 0.21136
 H2464 H 0.90219 0.63641 0.24035
 H2465 H 0.91766 0.55188 0.29718
 H2466 H 0.92893 0.54051 0.32689
 H2467 H 0.93684 0.59661 0.34545
 H2468 H 0.92604 0.60800 0.31567
 C2469 C 0.39338 1.10832 0.23519
 C2470 C 0.38491 1.09644 0.22235
 C2471 C 0.37787 1.10331 0.20569
 C2472 C 0.37922 1.12220 0.20146
 C2473 C 0.38779 1.13405 0.21424
 C2474 C 0.39475 1.12721 0.23091
 C2475 C 0.40059 1.10117 0.25302
 N2476 N 0.40751 1.11289 0.26594
 N2477 N 0.41384 1.10655 0.28203
 C2478 C 0.41356 1.08821 0.28590
 N2479 N 0.40667 1.07647 0.27296
 N2480 N 0.40031 1.08281 0.25687
 C2481 C 0.42049 1.08122 0.30390
 C2482 C 0.42141 1.06216 0.30747
 C2483 C 0.42785 1.05565 0.32450
 C2484 C 0.43349 1.06804 0.33837
 C2485 C 0.43257 1.08708 0.33479
 C2486 C 0.42618 1.09360 0.31776
 H2487 H 0.38364 1.08181 0.22518
 H2488 H 0.37153 1.09382 0.19604
 H2489 H 0.38881 1.14870 0.21153
 H2490 H 0.40115 1.13678 0.24046
 H2491 H 0.41721 1.05224 0.29709
 H2492 H 0.42861 1.04088 0.32676
 H2493 H 0.43651 1.09700 0.34528
 H2494 H 0.42558 1.10837 0.31554
 C2495 C 0.39354 0.60819 0.73550
 C2496 C 0.38506 0.59631 0.72266
 C2497 C 0.37800 0.60320 0.70602
 C2498 C 0.37934 0.62210 0.70180
 C2499 C 0.38792 0.63393 0.71458
 C2500 C 0.39491 0.62707 0.73123
 C2501 C 0.40077 0.60102 0.75331
 N2502 N 0.40772 0.61272 0.76624
 N2503 N 0.41407 0.60636 0.78231
 C2504 C 0.41377 0.58802 0.78617
 N2505 N 0.40686 0.57629 0.77323
 N2506 N 0.40048 0.58266 0.75715
 C2507 C 0.42072 0.58101 0.80415
 C2508 C 0.42162 0.56194 0.80772
 C2509 C 0.42807 0.55541 0.82474
 C2510 C 0.43375 0.56778 0.83860
 C2511 C 0.43286 0.58683 0.83503
 C2512 C 0.42646 0.59337 0.81801
 H2513 H 0.38379 0.58169 0.72547
 H2514 H 0.37165 0.59371 0.69636
 H2515 H 0.38894 0.64859 0.71188
 H2516 H 0.40132 0.63664 0.74079
 H2517 H 0.41738 0.55203 0.79734
 H2518 H 0.42880 0.54065 0.82698
 H2519 H 0.43683 0.59674 0.84552
 H2520 H 0.42588 0.60814 0.81580
 C2521 C 1.10849 0.89183 0.73604
 C2522 C 1.09657 0.88342 0.72319
 C2523 C 1.10343 0.87644 0.70651
 C2524 C 1.12234 0.87781 0.70225
 C2525 C 1.13423 0.88629 0.71505
 C2526 C 1.12740 0.89319 0.73176
 C2527 C 1.10131 0.89907 0.75384
 N2528 N 1.11304 0.90594 0.76680
 N2529 N 1.10666 0.91236 0.78284
 C2530 C 1.08827 0.91221 0.78662
 N2531 N 1.07652 0.90537 0.77365
 N2532 N 1.08291 0.89892 0.75761
 C2533 C 1.08123 0.91928 0.80454
 C2534 C 1.06212 0.92041 0.80798
 C2535 C 1.05555 0.92703 0.82492
 C2536 C 1.06793 0.93264 0.83882
 C2537 C 1.08702 0.93149 0.83538
 C2538 C 1.09359 0.92493 0.81844
 H2539 H 1.08192 0.88215 0.72602
 H2540 H 1.09390 0.87017 0.69684
 H2541 H 1.14890 0.88733 0.71231
 H2542 H 1.13699 0.89955 0.74132
 H2543 H 1.05221 0.91625 0.79756
 H2544 H 1.04076 0.92795 0.82707
 H2545 H 1.09692 0.93541 0.84591
 H2546 H 1.10839 0.92417 0.81632
 C2547 C 1.10777 0.39199 0.23550
 C2548 C 1.11613 0.40385 0.22256
 C2549 C 1.12305 0.39693 0.20587
 C2550 C 1.12169 0.37803 0.20171
 C2551 C 1.11323 0.36621 0.21459
 C2552 C 1.10638 0.37310 0.23128
 C2553 C 1.10065 0.39919 0.25334
 N2554 N 1.09378 0.38750 0.26632
 N2555 N 1.08751 0.39388 0.28242
 C2556 C 1.08781 0.41223 0.28624
 N2557 N 1.09465 0.42394 0.27325
 N2558 N 1.10095 0.41756 0.25715
 C2559 C 1.08091 0.41925 0.30424
 C2560 C 1.08001 0.43832 0.30778
 C2561 C 1.07354 0.44487 0.32480
 C2562 C 1.06786 0.43250 0.33866
 C2563 C 1.06878 0.41344 0.33512
 C2564 C 1.07519 0.40690 0.31811
 H2565 H 1.11741 0.41848 0.22533
 H2566 H 1.12932 0.40641 0.19614
 H2567 H 1.11221 0.35155 0.21193
 H2568 H 1.10006 0.36355 0.24091
 H2569 H 1.08423 0.44823 0.29739
 H2570 H 1.07279 0.45963 0.32703
 H2571 H 1.06481 0.40354 0.34562
 H2572 H 1.07579 0.39213 0.31592
 C2573 C 0.60776 0.89156 0.23563
 C2574 C 0.62001 0.90201 0.22483
 C2575 C 0.62710 0.89497 0.20828
 C2576 C 0.62203 0.87723 0.20189
 C2577 C 0.60947 0.86695 0.21276
 C2578 C 0.60256 0.87397 0.22938
 C2579 C 0.60058 0.89884 0.25340
 N2580 N 0.59140 0.88763 0.26534
 N2581 N 0.58513 0.89408 0.28141
 C2582 C 0.58770 0.91202 0.28621
 N2583 N 0.59682 0.92326 0.27424
 N2584 N 0.60316 0.91679 0.25819
 C2585 C 0.58081 0.91911 0.30417
 C2586 C 0.58059 0.93816 0.30790
 C2587 C 0.57406 0.94478 0.32486
 C2588 C 0.56774 0.93250 0.33854
 C2589 C 0.56807 0.91345 0.33481
 C2590 C 0.57444 0.90684 0.31782
 H2591 H 0.62426 0.91566 0.22921
 H2592 H 0.63628 0.90376 0.20047
 H2593 H 0.60522 0.85319 0.20892
 H2594 H 0.59312 0.86553 0.23736
 H2595 H 0.58530 0.94799 0.29765
 H2596 H 0.57376 0.95954 0.32718
 H2597 H 0.56364 0.90357 0.34515
 H2598 H 0.57456 0.89208 0.31548
 C2599 C 0.60755 0.39198 0.73550
 C2600 C 0.61998 0.40235 0.72481
 C2601 C 0.62706 0.39530 0.70826
 C2602 C 0.62181 0.37766 0.70175
 C2603 C 0.60905 0.36749 0.71250
 C2604 C 0.60214 0.37451 0.72912
 C2605 C 0.60043 0.39921 0.75332
 N2606 N 0.59117 0.38799 0.76518
 N2607 N 0.58496 0.39436 0.78131
 C2608 C 0.58768 0.41224 0.78625
 N2609 N 0.59688 0.42349 0.77436
 N2610 N 0.60316 0.41710 0.75825
 C2611 C 0.58087 0.41924 0.80427
 C2612 C 0.58070 0.43826 0.80812
 C2613 C 0.57425 0.44479 0.82515
 C2614 C 0.56796 0.43243 0.83877
 C2615 C 0.56822 0.41341 0.83493
 C2616 C 0.57452 0.40690 0.81787
 H2617 H 0.62440 0.41591 0.72930
 H2618 H 0.63641 0.40400 0.70054
 H2619 H 0.60463 0.35381 0.70857
 H2620 H 0.59256 0.36615 0.73701
 H2621 H 0.58540 0.44814 0.79792
 H2622 H 0.57400 0.45954 0.82756
 H2623 H 0.56381 0.40348 0.84522
 H2624 H 0.57459 0.39215 0.81543
 C2625 C 1.26431 1.10805 1.10818
 C2626 C 1.27513 1.09768 1.12049
 C2627 C 1.29173 1.10475 1.12744
 C2628 C 1.29816 1.12240 1.12213
 C2629 C 1.28723 1.13261 1.10955
 C2630 C 1.27057 1.12557 1.10279
 C2631 C 1.24651 1.10077 1.10110
 N2632 N 1.23458 1.11197 1.09189
 N2633 N 1.21851 1.10554 1.08564
 C2634 C 1.21369 1.08761 1.08827
 N2635 N 1.22564 1.07638 1.09743
 N2636 N 1.24169 1.08284 1.10375
 C2637 C 1.19574 1.08054 1.08135
 C2638 C 1.19201 1.06149 1.08108
 C2639 C 1.17507 1.05490 1.07450
 C2640 C 1.16142 1.06720 1.06816
 C2641 C 1.16515 1.08624 1.06854
 C2642 C 1.18212 1.09282 1.07497
 H2643 H 1.27073 1.08409 1.12491
 H2644 H 1.29957 1.09603 1.13668
 H2645 H 1.29107 1.14631 1.10513
 H2646 H 1.26258 1.13395 1.09330
 H2647 H 1.20224 1.05165 1.08580
 H2648 H 1.17275 1.04013 1.07417
 H2649 H 1.15483 1.09613 1.06411
 H2650 H 1.18446 1.10759 1.07512
 C2651 C 1.26440 0.60792 0.60851
 C2652 C 1.27520 0.59755 0.62084
 C2653 C 1.29180 0.60462 0.62780
 C2654 C 1.29823 0.62227 0.62249
 C2655 C 1.28732 0.63247 0.60989
 C2656 C 1.27067 0.62544 0.60311
 C2657 C 1.24661 0.60065 0.60139
 N2658 N 1.23471 0.61185 0.59215
 N2659 N 1.21865 0.60543 0.58586
 C2660 C 1.21381 0.58751 0.58848
 N2661 N 1.22572 0.57627 0.59768
 N2662 N 1.24177 0.58272 0.60404
 C2663 C 1.19588 0.58045 0.58152
 C2664 C 1.19212 0.56141 0.58126
 C2665 C 1.17519 0.55483 0.57464
 C2666 C 1.16158 0.56715 0.56825
 C2667 C 1.16533 0.58619 0.56861
 C2668 C 1.18229 0.59275 0.57509
 H2669 H 1.27079 0.58396 0.62525
 H2670 H 1.29962 0.59590 0.63706
 H2671 H 1.29116 0.64617 0.60547
 H2672 H 1.26269 0.63382 0.59361
 H2673 H 1.20232 0.55156 0.58602
 H2674 H 1.17285 0.54007 0.57431
 H2675 H 1.15503 0.59608 0.56414
 H2676 H 1.18465 0.60751 0.57523
 C2677 C 0.76325 1.10868 0.60941
 C2678 C 0.77634 1.09691 0.61764
 C2679 C 0.79299 1.10395 0.62451
 C2680 C 0.79695 1.12290 0.62322
 C2681 C 0.78389 1.13464 0.61493
 C2682 C 0.76724 1.12763 0.60813
 C2683 C 0.74549 1.10132 0.60226
 N2684 N 0.73240 1.11290 0.59541
 N2685 N 0.71641 1.10638 0.58905
 C2686 C 0.71280 1.08798 0.58923
 N2687 N 0.72590 1.07638 0.59605
 N2688 N 0.74190 1.08291 0.60244
 C2689 C 0.69495 1.08079 0.58216
 C2690 C 0.69161 1.06169 0.58117
 C2691 C 0.67474 1.05499 0.57449
 C2692 C 0.66083 1.06723 0.56867
 C2693 C 0.66416 1.08632 0.56971
 C2694 C 0.68101 1.09301 0.57634
 H2695 H 0.77374 1.08224 0.61883
 H2696 H 0.80285 1.09453 0.63064
 H2697 H 0.78640 1.14934 0.61397
 H2698 H 0.75748 1.13712 0.60191
 H2699 H 0.70205 1.05187 0.58548
 H2700 H 0.67267 1.04021 0.57367
 H2701 H 0.65361 1.09613 0.56563
 H2702 H 0.68304 1.10781 0.57699
 C2703 C 0.76444 0.60787 1.10847
 C2704 C 0.77747 0.59604 1.11672
 C2705 C 0.79421 0.60297 1.12345
 C2706 C 0.79835 0.62188 1.12202
 C2707 C 0.78535 0.63368 1.11372
 C2708 C 0.76860 0.62678 1.10705
 C2709 C 0.74659 0.60063 1.10144
 N2710 N 0.73355 0.61228 1.09463
 N2711 N 0.71748 0.60585 1.08837
 C2712 C 0.71375 0.58747 1.08862
 N2713 N 0.72681 0.57580 1.09541
 N2714 N 0.74288 0.58224 1.10170
 C2715 C 0.69582 0.58038 1.08167
 C2716 C 0.69238 0.56130 1.08070
 C2717 C 0.67544 0.55469 1.07412
 C2718 C 0.66155 0.56701 1.06840
 C2719 C 0.66498 0.58607 1.06942
 C2720 C 0.68190 0.59268 1.07594
 H2721 H 0.77474 0.58140 1.11802
 H2722 H 0.80403 0.59351 1.12960
 H2723 H 0.78799 0.64835 1.11264
 H2724 H 0.75890 0.63632 1.10082
 H2725 H 0.70279 0.55143 1.08493
 H2726 H 0.67329 0.53992 1.07331
 H2727 H 0.65445 0.59593 1.06542
 H2728 H 0.68402 0.60746 1.07659
 C2729 C 1.26433 0.89167 0.89308
 C2730 C 1.27075 0.87419 0.89846
 C2731 C 1.28730 0.86716 0.89144
 C2732 C 1.29795 0.87732 0.87857
 C2733 C 1.29140 0.89496 0.87334
 C2734 C 1.27492 0.90202 0.88056
 C2735 C 1.24658 0.89891 0.90034
 N2736 N 1.24167 0.91682 0.89766
 N2737 N 1.22562 0.92324 0.90404
 C2738 C 1.21376 0.91199 0.91328
 N2739 N 1.21868 0.89409 0.91595
 N2740 N 1.23475 0.88770 0.90965
 C2741 C 1.19578 0.91901 0.92017
 C2742 C 1.18216 0.90670 0.92649
 C2743 C 1.16512 0.91325 0.93279
 C2744 C 1.16132 0.93228 0.93310
 C2745 C 1.17499 0.94461 0.92687
 C2746 C 1.19199 0.93805 0.92041
 H2747 H 1.26294 0.86584 0.90813
 H2748 H 1.29127 0.85349 0.89584
 H2749 H 1.29904 0.90365 0.86393
 H2750 H 1.27040 0.91558 0.87616
 H2751 H 1.18455 0.89194 0.92636
 H2752 H 1.15479 0.90334 0.93715
 H2753 H 1.17263 0.95937 0.92717
 H2754 H 1.20222 0.94792 0.91575
 C2755 C 1.26495 0.39226 0.39318
 C2756 C 1.27557 0.40264 0.38070
 C2757 C 1.29205 0.39557 0.37346
 C2758 C 1.29854 0.37789 0.37862
 C2759 C 1.28787 0.36772 0.39145
 C2760 C 1.27133 0.37476 0.39850
 C2761 C 1.24720 0.39949 0.40044
 N2762 N 1.23539 0.38825 0.40974
 N2763 N 1.21931 0.39460 0.41606
 C2764 C 1.21436 0.41249 0.41340
 N2765 N 1.22619 0.42377 0.40416
 N2766 N 1.24225 0.41739 0.39778
 C2767 C 1.19636 0.41946 0.42030
 C2768 C 1.19250 0.43848 0.42052
 C2769 C 1.17547 0.44498 0.42698
 C2770 C 1.16186 0.43260 0.43324
 C2771 C 1.16573 0.41358 0.43296
 C2772 C 1.18279 0.40710 0.42665
 H2773 H 1.27108 0.41623 0.37634
 H2774 H 1.29971 0.40427 0.36407
 H2775 H 1.29178 0.35402 0.39581
 H2776 H 1.26350 0.36639 0.40813
 H2777 H 1.20268 0.44838 0.41583
 H2778 H 1.17305 0.45973 0.42726
 H2779 H 1.15545 0.40364 0.43734
 H2780 H 1.18524 0.39235 0.42654
 C2781 C 0.76454 0.89186 0.39304
 C2782 C 0.76879 0.87297 0.39445
 C2783 C 0.78546 0.86609 0.38753
 C2784 C 0.79826 0.87792 0.37897
 C2785 C 0.79407 0.89681 0.37760
 C2786 C 0.77742 0.90372 0.38460
 C2787 C 0.74672 0.89905 0.40020
 N2788 N 0.74290 0.91741 0.39990
 N2789 N 0.72681 0.92379 0.40621
 C2790 C 0.71383 0.91207 0.41305
 N2791 N 0.71766 0.89372 0.41335
 N2792 N 0.73375 0.88735 0.40707
 C2793 C 0.69583 0.91909 0.41993
 C2794 C 0.68193 0.90674 0.42555
 C2795 C 0.66492 0.91328 0.43191
 C2796 C 0.66139 0.93234 0.43287
 C2797 C 0.67528 0.94471 0.42729
 C2798 C 0.69230 0.93816 0.42087
 H2799 H 0.75921 0.86342 0.40084
 H2800 H 0.78814 0.85144 0.38857
 H2801 H 0.80374 0.90629 0.37126
 H2802 H 0.77461 0.91834 0.38330
 H2803 H 0.68412 0.89197 0.42492
 H2804 H 0.65440 0.90338 0.43581
 H2805 H 0.67306 0.95947 0.42808
 H2806 H 0.70271 0.94807 0.41672
 C2807 C 0.76503 0.39210 0.89324
 C2808 C 0.77561 0.40250 0.88074
 C2809 C 0.79208 0.39545 0.87348
 C2810 C 0.79862 0.37779 0.87863
 C2811 C 0.78798 0.36760 0.89147
 C2812 C 0.77145 0.37461 0.89855
 C2813 C 0.74727 0.39929 0.90054
 N2814 N 0.73549 0.38802 0.90983
 N2815 N 0.71941 0.39434 0.91618
 C2816 C 0.71444 0.41224 0.91358
 N2817 N 0.72626 0.42355 0.90436
 N2818 N 0.74232 0.41720 0.89794
 C2819 C 0.69645 0.41917 0.92052
 C2820 C 0.69260 0.43819 0.92083
 C2821 C 0.67557 0.44467 0.92730
 C2822 C 0.66194 0.43226 0.93347
 C2823 C 0.66580 0.41324 0.93311
 C2824 C 0.68287 0.40679 0.92680
 H2825 H 0.77108 0.41608 0.87640
 H2826 H 0.79972 0.40417 0.86407
 H2827 H 0.79193 0.35390 0.89582
 H2828 H 0.76365 0.36622 0.90819
 H2829 H 0.70279 0.44812 0.91620
 H2830 H 0.67315 0.45941 0.92765
 H2831 H 0.65551 0.40328 0.93743
 H2832 H 0.68532 0.39204 0.92661
 C2833 C 0.73559 0.89274 1.10770
 C2834 C 0.72291 0.88394 1.09587
 C2835 C 0.70629 0.87690 1.10280
 C2836 C 0.70192 0.87858 1.12167
 C2837 C 0.71453 0.88749 1.13345
 C2838 C 0.73117 0.89445 1.12656
 C2839 C 0.75339 0.89995 1.10051
 N2840 N 0.76623 0.90705 1.11222
 N2841 N 0.78229 0.91339 1.10586
 C2842 C 0.78622 0.91294 1.08749
 N2843 N 0.77336 0.90587 1.07575
 N2844 N 0.75730 0.89950 1.08213
 C2845 C 0.80418 0.91991 1.08048
 C2846 C 0.80775 0.92085 1.06138
 C2847 C 0.82473 0.92739 1.05485
 C2848 C 0.83855 0.93309 1.06728
 C2849 C 0.83499 0.93212 1.08637
 C2850 C 0.81801 0.92565 1.09289
 H2851 H 0.72585 0.88239 1.08127
 H2852 H 0.69676 0.87028 1.09335
 H2853 H 0.71171 0.88878 1.14809
 H2854 H 0.74060 0.90113 1.13608
 H2855 H 0.79739 0.91662 1.05143
 H2856 H 0.82697 0.92818 1.04006
 H2857 H 0.84545 0.93610 1.09631
 H2858 H 0.81580 0.92502 1.10769
 C2859 C 0.73635 0.39168 0.60821
 C2860 C 0.73229 0.37273 0.60702
 C2861 C 0.71565 0.36579 0.61392
 C2862 C 0.70267 0.37760 0.62224
 C2863 C 0.70669 0.39654 0.62344
 C2864 C 0.72333 0.40351 0.61647
 C2865 C 0.75410 0.39895 0.60096
 N2866 N 0.75774 0.41735 0.60107
 N2867 N 0.77374 0.42381 0.59460
 C2868 C 0.78678 0.41214 0.58778
 N2869 N 0.78312 0.39376 0.58767
 N2870 N 0.76713 0.38731 0.59410
 C2871 C 0.80465 0.41926 0.58068
 C2872 C 0.81857 0.40697 0.57492
 C2873 C 0.83547 0.41360 0.56835
 C2874 C 0.83887 0.43267 0.56731
 C2875 C 0.82496 0.44497 0.57303
 C2876 C 0.80805 0.43834 0.57965
 H2877 H 0.74199 0.36320 0.60079
 H2878 H 0.71310 0.35110 0.61302
 H2879 H 0.69688 0.40601 0.62959
 H2880 H 0.72598 0.41818 0.61760
 H2881 H 0.81649 0.39219 0.57561
 H2882 H 0.84600 0.40375 0.56436
 H2883 H 0.82708 0.45975 0.57219
 H2884 H 0.79763 0.44820 0.58390
 C2885 C 0.23636 0.89147 0.60768
 C2886 C 0.22349 0.88306 0.59578
 C2887 C 0.20682 0.87609 0.60267
 C2888 C 0.20261 0.87746 0.62160
 C2889 C 0.21546 0.88589 0.63348
 C2890 C 0.23213 0.89278 0.62662
 C2891 C 0.25411 0.89878 0.60048
 N2892 N 0.26704 0.90569 0.61221
 N2893 N 0.28302 0.91221 0.60582
 C2894 C 0.28677 0.91214 0.58741
 N2895 N 0.27383 0.90525 0.57566
 N2896 N 0.25785 0.89870 0.58206
 C2897 C 0.30463 0.91934 0.58037
 C2898 C 0.30806 0.92052 0.56126
 C2899 C 0.32495 0.92724 0.55469
 C2900 C 0.33882 0.93290 0.56708
 C2901 C 0.33538 0.93172 0.58618
 C2902 C 0.31849 0.92506 0.59275
 H2903 H 0.22628 0.88182 0.58111
 H2904 H 0.19712 0.86984 0.59316
 H2905 H 0.21276 0.88691 0.64817
 H2906 H 0.24171 0.89912 0.63621
 H2907 H 0.29767 0.91631 0.55133
 H2908 H 0.32710 0.92818 0.53990
 H2909 H 0.34588 0.93567 0.59610
 H2910 H 0.31638 0.92426 0.60755
 C2911 C 0.23582 0.39205 1.10745
 C2912 C 0.22955 0.37450 1.10217
 C2913 C 0.21295 0.36747 1.10908
 C2914 C 0.20211 0.37770 1.12172
 C2915 C 0.20855 0.39538 1.12690
 C2916 C 0.22508 0.40245 1.11980
 C2917 C 0.25357 0.39932 1.10022
 N2918 N 0.25838 0.41727 1.10277
 N2919 N 0.27440 0.42372 1.09634
 C2920 C 0.28631 0.41247 1.08716
 N2921 N 0.28149 0.39453 1.08462
 N2922 N 0.26545 0.38811 1.09098
 C2923 C 0.30423 0.41953 1.08016
 C2924 C 0.31786 0.40724 1.07381
 C2925 C 0.33483 0.41381 1.06738
 C2926 C 0.33856 0.43285 1.06697
 C2927 C 0.32488 0.44516 1.07324
 C2928 C 0.30794 0.43858 1.07982
 H2929 H 0.23748 0.36610 1.09265
 H2930 H 0.20910 0.35374 1.10475
 H2931 H 0.20077 0.40412 1.13618
 H2932 H 0.22950 0.41606 1.12413
 H2933 H 0.31552 0.39247 1.07401
 H2934 H 0.34517 0.40391 1.06300
 H2935 H 0.32720 0.45993 1.07287
 H2936 H 0.29771 0.44843 1.08451
 C2937 C 0.73699 1.10988 0.89103
 C2938 C 0.73072 1.10469 0.87341
 C2939 C 0.71408 1.11156 0.86643
 C2940 C 0.70318 1.12404 0.87677
 C2941 C 0.70964 1.12918 0.89450
 C2942 C 0.72622 1.12213 0.90152
 C2943 C 0.75471 1.10259 0.89831
 N2944 N 0.75949 1.10499 0.91632
 N2945 N 0.77544 1.09844 0.92280
 C2946 C 0.78733 1.08927 0.91151
 N2947 N 0.78256 1.08689 0.89349
 N2948 N 0.76658 1.09338 0.88704
 C2949 C 0.80516 1.08209 0.91861
 C2950 C 0.81877 1.07566 0.90631
 C2951 C 0.83565 1.06901 0.91293
 C2952 C 0.83929 1.06847 0.93203
 C2953 C 0.82564 1.07482 0.94434
 C2954 C 0.80880 1.08161 0.93771
 H2955 H 0.73867 1.09527 0.86494
 H2956 H 0.71022 1.10729 0.85265
 H2957 H 0.70184 1.13836 0.90331
 H2958 H 0.73064 1.12640 0.91518
 H2959 H 0.81649 1.07595 0.89151
 H2960 H 0.84597 1.06456 0.90304
 H2961 H 0.82789 1.07435 0.95915
 H2962 H 0.79858 1.08635 0.94757
 C2963 C 0.73638 0.60853 0.39169
 C2964 C 0.72337 0.59663 0.38352
 C2965 C 0.70667 0.60353 0.37663
 C2966 C 0.70256 0.62245 0.37784
 C2967 C 0.71554 0.63432 0.38606
 C2968 C 0.73225 0.62746 0.39288
 C2969 C 0.75420 0.60133 0.39885
 N2970 N 0.76722 0.61303 0.40563
 N2971 N 0.78327 0.60665 0.41198
 C2972 C 0.78702 0.58827 0.41185
 N2973 N 0.77400 0.57655 0.40510
 N2974 N 0.75794 0.58295 0.39872
 C2975 C 0.80496 0.58123 0.41886
 C2976 C 0.80845 0.56216 0.41985
 C2977 C 0.82542 0.55559 0.42642
 C2978 C 0.83928 0.56795 0.43210
 C2979 C 0.83579 0.58700 0.43110
 C2980 C 0.81884 0.59357 0.42459
 H2981 H 0.72608 0.58197 0.38239
 H2982 H 0.69686 0.59401 0.37055
 H2983 H 0.71292 0.64900 0.38696
 H2984 H 0.74194 0.63704 0.39905
 H2985 H 0.79806 0.55226 0.41563
 H2986 H 0.82761 0.54083 0.42723
 H2987 H 0.84629 0.59689 0.43508
 H2988 H 0.81668 0.60834 0.42393
 C2989 C 0.23591 1.10830 0.39260
 C2990 C 0.22524 1.09792 0.38017
 C2991 C 0.20873 1.10499 0.37300
 C2992 C 0.20227 1.12268 0.37817
 C2993 C 0.21301 1.13285 0.39093
 C2994 C 0.22957 1.12581 0.39792
 C2995 C 0.25369 1.10107 0.39981
 N2996 N 0.26552 1.11231 0.40908
 N2997 N 0.28161 1.10595 0.41537
 C2998 C 0.28655 1.08805 0.41272
 N2999 N 0.27469 1.07678 0.40351
 N3000 N 0.25862 1.08316 0.39715
 C3001 C 0.30455 1.08108 0.41961
 C3002 C 0.30841 1.06206 0.41983
 C3003 C 0.32543 1.05556 0.42631
 C3004 C 0.33903 1.06793 0.43259
 C3005 C 0.33516 1.08695 0.43230
 C3006 C 0.31811 1.09344 0.42597
 H3007 H 0.22970 1.08432 0.37582
 H3008 H 0.20103 1.09629 0.36365
 H3009 H 0.20912 1.14657 0.39529
 H3010 H 0.23744 1.13418 0.40751
 H3011 H 0.29823 1.05216 0.41513
 H3012 H 0.32785 1.04081 0.42659
 H3013 H 0.34544 1.09689 0.43670
 H3014 H 0.31566 1.10818 0.42586
 C3015 C 0.23627 0.60810 0.89184
 C3016 C 0.22571 0.62054 0.90231
 C3017 C 0.20914 0.62768 0.89537
 C3018 C 0.20248 0.62246 0.87774
 C3019 C 0.21312 0.60971 0.86745
 C3020 C 0.22976 0.60275 0.87436
 C3021 C 0.25407 0.60088 0.89899
 N3022 N 0.26587 0.59164 0.88768
 N3023 N 0.28197 0.58534 0.89401
 C3024 C 0.28694 0.58794 0.91194
 N3025 N 0.27511 0.59712 0.92329
 N3026 N 0.25904 0.60349 0.91693
 C3027 C 0.30493 0.58102 0.91891
 C3028 C 0.30876 0.58069 0.93798
 C3029 C 0.32575 0.57416 0.94449
 C3030 C 0.33937 0.56794 0.93208
 C3031 C 0.33555 0.56836 0.91301
 C3032 C 0.31852 0.57474 0.90651
 H3033 H 0.23030 0.62492 0.91588
 H3034 H 0.20152 0.63702 0.90417
 H3035 H 0.20906 0.60533 0.85377
 H3036 H 0.23755 0.59316 0.86592
 H3037 H 0.29856 0.58532 0.94791
 H3038 H 0.32814 0.57377 0.95927
 H3039 H 0.34584 0.56402 0.90304
 H3040 H 0.31610 0.57494 0.89173
 C3041 C 1.10928 1.26287 1.10835
 C3042 C 1.12821 1.26709 1.10698
 C3043 C 1.13506 1.28380 1.11378
 C3044 C 1.12318 1.29666 1.12217
 C3045 C 1.10426 1.29246 1.12353
 C3046 C 1.09738 1.27578 1.11666
 C3047 C 1.10207 1.24507 1.10122
 N3048 N 1.08365 1.24136 1.10142
 N3049 N 1.07721 1.22534 1.09507
 C3050 C 1.08892 1.21231 1.08830
 N3051 N 1.10732 1.21603 1.08810
 N3052 N 1.11375 1.23206 1.09441
 C3053 C 1.08181 1.19442 1.08132
 C3054 C 1.09411 1.18048 1.07567
 C3055 C 1.08747 1.16358 1.06917
 C3056 C 1.06836 1.16021 1.06809
 C3057 C 1.05605 1.17413 1.07371
 C3058 C 1.06269 1.19104 1.08027
 H3059 H 1.13779 1.25748 1.10069
 H3060 H 1.14973 1.28651 1.11274
 H3061 H 1.09472 1.30218 1.12973
 H3062 H 1.08272 1.27300 1.11792
 H3063 H 1.10892 1.18255 1.07638
 H3064 H 1.09732 1.15303 1.06524
 H3065 H 1.04125 1.17204 1.07284
 H3066 H 1.05282 1.20148 1.08443
 C3067 C 1.10762 0.76366 0.60780
 C3068 C 1.10607 0.76804 0.62669
 C3069 C 1.11289 0.78475 0.63349
 C3070 C 1.12148 0.79748 0.62161
 C3071 C 1.12300 0.79315 0.60272
 C3072 C 1.11611 0.77645 0.59588
 C3073 C 1.10053 0.74581 0.60067
 N3074 N 1.10093 0.74190 0.58229
 N3075 N 1.09465 0.72580 0.57596
 C3076 C 1.08775 0.71291 0.58774
 N3077 N 1.08735 0.71684 0.60611
 N3078 N 1.09359 0.73293 0.61244
 C3079 C 1.08087 0.69492 0.58078
 C3080 C 1.07513 0.68112 0.59320
 C3081 C 1.06874 0.66413 0.58670
 C3082 C 1.06785 0.66051 0.56762
 C3083 C 1.07356 0.67429 0.55518
 C3084 C 1.08001 0.69130 0.56168
 H3085 H 1.09964 0.75853 0.63628
 H3086 H 1.11173 0.78755 0.64815
 H3087 H 1.12937 0.80275 0.59318
 H3088 H 1.11752 0.77355 0.58125
 H3089 H 1.07569 0.68338 0.60800
 H3090 H 1.06474 0.65369 0.59666
 H3091 H 1.07283 0.67201 0.54039
 H3092 H 1.08425 0.70162 0.55171
 C3093 C 0.60922 1.26261 0.60898
 C3094 C 0.59733 1.27544 0.61747
 C3095 C 0.60422 1.29209 0.62442
 C3096 C 0.62312 1.29633 0.62297
 C3097 C 0.63498 1.28355 0.61443
 C3098 C 0.62813 1.26688 0.60756
 C3099 C 0.60199 1.24487 0.60173
 N3100 N 0.61367 1.23192 0.59480
 N3101 N 0.60723 1.21595 0.58835
 C3102 C 0.58883 1.21223 0.58853
 N3103 N 0.57713 1.22519 0.59544
 N3104 N 0.58358 1.24116 0.60191
 C3105 C 0.58171 1.19439 0.58142
 C3106 C 0.56259 1.19104 0.58031
 C3107 C 0.55594 1.17417 0.57366
 C3108 C 0.56825 1.16026 0.56800
 C3109 C 0.58735 1.16361 0.56912
 C3110 C 0.59400 1.18047 0.57571
 H3111 H 0.58269 1.27263 0.61879
 H3112 H 0.59470 1.30174 0.63073
 H3113 H 0.64964 1.28630 0.61333
 H3114 H 0.63769 1.25733 0.60114
 H3115 H 0.55272 1.20147 0.58452
 H3116 H 0.54114 1.17210 0.57276
 H3117 H 0.59720 1.15306 0.56516
 H3118 H 0.60881 1.18252 0.57645
 C3119 C 0.60935 0.76241 1.10901
 C3120 C 0.61763 0.77532 1.09706
 C3121 C 0.62451 0.79201 1.10392
 C3122 C 0.62320 0.79622 1.12285
 C3123 C 0.61491 0.78333 1.13478
 C3124 C 0.60810 0.76663 1.12795
 C3125 C 0.60210 0.74465 1.10182
 N3126 N 0.59521 0.73172 1.11355
 N3127 N 0.58874 0.71574 1.10715
 C3128 C 0.58884 0.71200 1.08874
 N3129 N 0.59571 0.72494 1.07700
 N3130 N 0.60221 0.74092 1.08340
 C3131 C 0.58168 0.69415 1.08168
 C3132 C 0.58064 0.69071 1.06256
 C3133 C 0.57395 0.67384 1.05596
 C3134 C 0.56818 0.66001 1.06832
 C3135 C 0.56922 0.66345 1.08742
 C3136 C 0.57585 0.68032 1.09402
 H3137 H 0.61881 0.77255 1.08239
 H3138 H 0.63064 0.80175 1.09436
 H3139 H 0.61393 0.78604 1.14947
 H3140 H 0.60186 0.75701 1.13757
 H3141 H 0.58493 0.70107 1.05265
 H3142 H 0.57311 0.67169 1.04116
 H3143 H 0.56517 0.65298 1.09731
 H3144 H 0.57654 0.68244 1.10883
 C3145 C 0.89145 1.26277 0.89061
 C3146 C 0.88303 1.27564 0.90248
 C3147 C 0.87593 1.29221 0.89554
 C3148 C 0.87717 1.29633 0.87658
 C3149 C 0.88565 1.28350 0.86472
 C3150 C 0.89267 1.26690 0.87164
 C3151 C 0.89885 1.24512 0.89791
 N3152 N 0.90581 1.23214 0.88627
 N3153 N 0.91237 1.21624 0.89278
 C3154 C 0.91229 1.21262 0.91122
 N3155 N 0.90536 1.22561 0.92287
 N3156 N 0.89877 1.24151 0.91635
 C3157 C 0.91950 1.19485 0.91842
 C3158 C 0.92059 1.19157 0.93756
 C3159 C 0.92729 1.17476 0.94430
 C3160 C 0.93302 1.16082 0.93204
 C3161 C 0.93195 1.16410 0.91291
 C3162 C 0.92530 1.18092 0.90618
 H3163 H 0.88187 1.27293 0.91717
 H3164 H 0.86969 1.30191 0.90505
 H3165 H 0.88660 1.28615 0.85002
 H3166 H 0.89903 1.25731 0.86207
 H3167 H 0.91632 1.20202 0.94739
 H3168 H 0.92816 1.17273 0.95911
 H3169 H 0.93596 1.15354 0.90310
 H3170 H 0.92457 1.18292 0.89135
 C3171 C 0.89215 0.76307 0.39099
 C3172 C 0.88382 0.77595 0.40292
 C3173 C 0.87680 0.79257 0.39604
 C3174 C 0.87801 0.79674 0.37709
 C3175 C 0.88641 0.78391 0.36518
 C3176 C 0.89336 0.76726 0.37204
 C3177 C 0.89945 0.74534 0.39822
 N3178 N 0.90635 0.73238 0.38652
 N3179 N 0.91281 0.71641 0.39296
 C3180 C 0.91267 0.71269 0.41138
 N3181 N 0.90580 0.72566 0.42309
 N3182 N 0.89931 0.74164 0.41664
 C3183 C 0.91978 0.69485 0.41849
 C3184 C 0.92077 0.69144 0.43762
 C3185 C 0.92739 0.67456 0.44427
 C3186 C 0.93314 0.66069 0.43196
 C3187 C 0.93214 0.66409 0.41284
 C3188 C 0.92557 0.68097 0.40619
 H3189 H 0.88267 0.77320 0.41760
 H3190 H 0.87060 0.80227 0.40559
 H3191 H 0.88734 0.78659 0.35048
 H3192 H 0.89966 0.75767 0.36243
 H3193 H 0.91649 0.70184 0.44750
 H3194 H 0.92820 0.67244 0.45908
 H3195 H 0.93617 0.65358 0.40298
 H3196 H 0.92492 0.68306 0.39137
 C3197 C 0.39116 1.26263 0.39050
 C3198 C 0.38273 1.27549 0.40239
 C3199 C 0.37566 1.29207 0.39546
 C3200 C 0.37692 1.29622 0.37651
 C3201 C 0.38539 1.28340 0.36464
 C3202 C 0.39239 1.26679 0.37153
 C3203 C 0.39856 1.24497 0.39778
 N3204 N 0.40556 1.23202 0.38612
 N3205 N 0.41213 1.21611 0.39262
 C3206 C 0.41203 1.21247 0.41105
 N3207 N 0.40507 1.22543 0.42272
 N3208 N 0.39846 1.24133 0.41622
 C3209 C 0.41927 1.19470 0.41823
 C3210 C 0.42033 1.19139 0.43738
 C3211 C 0.42706 1.17458 0.44409
 C3212 C 0.43287 1.16068 0.43183
 C3213 C 0.43182 1.16400 0.41270
 C3214 C 0.42514 1.18081 0.40598
 H3215 H 0.38156 1.27276 0.41707
 H3216 H 0.36941 1.30176 0.40499
 H3217 H 0.38635 1.28608 0.34994
 H3218 H 0.39876 1.25721 0.36196
 H3219 H 0.41600 1.20180 0.44721
 H3220 H 0.42790 1.17253 0.45891
 H3221 H 0.43590 1.15347 0.40288
 H3222 H 0.42445 1.18283 0.39116
 C3223 C 0.39140 0.76267 0.89086
 C3224 C 0.38286 0.77546 0.90276
 C3225 C 0.37571 0.79202 0.89585
 C3226 C 0.37700 0.79621 0.87691
 C3227 C 0.38556 0.78346 0.86503
 C3228 C 0.39265 0.76688 0.87191
 C3229 C 0.39889 0.74503 0.89811
 N3230 N 0.40594 0.73214 0.88643
 N3231 N 0.41259 0.71625 0.89288
 C3232 C 0.41250 0.71256 0.91131
 N3233 N 0.40548 0.72547 0.92300
 N3234 N 0.39880 0.74135 0.91654
 C3235 C 0.41981 0.69480 0.91844
 C3236 C 0.42089 0.69145 0.93758
 C3237 C 0.42764 0.67463 0.94425
 C3238 C 0.43342 0.66075 0.93195
 C3239 C 0.43237 0.66412 0.91283
 C3240 C 0.42568 0.68094 0.90616
 H3241 H 0.38167 0.77268 0.91743
 H3242 H 0.36938 0.80165 0.90538
 H3243 H 0.38655 0.78617 0.85034
 H3244 H 0.39909 0.75736 0.86233
 H3245 H 0.41657 0.70184 0.94744
 H3246 H 0.42849 0.67255 0.95906
 H3247 H 0.43643 0.65361 0.90298
 H3248 H 0.42496 0.68299 0.89134
 C3249 C 1.10860 0.73645 0.89321
 C3250 C 1.09680 0.72365 0.88457
 C3251 C 1.10376 0.70703 0.87762
 C3252 C 1.12265 0.70278 0.87921
 C3253 C 1.13441 0.71548 0.88800
 C3254 C 1.12748 0.73213 0.89488
 C3255 C 1.10134 0.75426 0.90026
 N3256 N 1.11298 0.76722 0.90724
 N3257 N 1.10653 0.78330 0.91340
 C3258 C 1.08816 0.78714 0.91288
 N3259 N 1.07650 0.77417 0.90594
 N3260 N 1.08295 0.75808 0.89974
 C3261 C 1.08105 0.80511 0.91966
 C3262 C 1.06193 0.80861 0.92046
 C3263 C 1.05530 0.82559 0.92687
 C3264 C 1.06763 0.83946 0.93259
 C3265 C 1.08673 0.83598 0.93171
 C3266 C 1.09335 0.81901 0.92537
 H3267 H 1.08218 0.72650 0.88308
 H3268 H 1.09432 0.69743 0.87112
 H3269 H 1.14906 0.71273 0.88923
 H3270 H 1.13698 0.74165 0.90143
 H3271 H 1.05206 0.79821 0.91623
 H3272 H 1.04051 0.82778 0.92757
 H3273 H 1.09660 0.84649 0.93571
 H3274 H 1.10816 0.81686 0.92484
 C3275 C 1.10983 0.23800 0.39045
 C3276 C 1.10850 0.23384 0.37149
 C3277 C 1.11544 0.21721 0.36457
 C3278 C 1.12395 0.20438 0.37640
 C3279 C 1.12531 0.20853 0.39535
 C3280 C 1.11830 0.22512 0.40230
 C3281 C 1.10250 0.25567 0.39776
 N3282 N 1.10263 0.25928 0.41621
 N3283 N 1.09608 0.27519 0.42273
 C3284 C 1.08913 0.28818 0.41109
 N3285 N 1.08900 0.28457 0.39266
 N3286 N 1.09552 0.26866 0.38613
 C3287 C 1.08191 0.30595 0.41831
 C3288 C 1.07610 0.31988 0.40608
 C3289 C 1.06940 0.33667 0.41282
 C3290 C 1.06828 0.33992 0.43195
 C3291 C 1.07405 0.32599 0.44420
 C3292 C 1.08081 0.30920 0.43746
 H3293 H 1.10210 0.24343 0.36195
 H3294 H 1.11440 0.21454 0.34988
 H3295 H 1.13159 0.19883 0.40484
 H3296 H 1.11955 0.22786 0.41697
 H3297 H 1.07684 0.31790 0.39125
 H3298 H 1.06536 0.34723 0.40301
 H3299 H 1.07316 0.32800 0.45902
 H3300 H 1.08510 0.29876 0.44728
 C3301 C 0.60876 0.73723 0.39111
 C3302 C 0.59688 0.72436 0.38270
 C3303 C 0.60379 0.70769 0.37580
 C3304 C 0.62270 0.70348 0.37723
 C3305 C 0.63456 0.71631 0.38570
 C3306 C 0.62768 0.73300 0.39253
 C3307 C 0.60151 0.75499 0.39830
 N3308 N 0.61318 0.76796 0.40523
 N3309 N 0.60672 0.78395 0.41162
 C3310 C 0.58832 0.78768 0.41139
 N3311 N 0.57664 0.77471 0.40448
 N3312 N 0.58310 0.75871 0.39806
 C3313 C 0.58119 0.80554 0.41846
 C3314 C 0.56207 0.80893 0.41944
 C3315 C 0.55541 0.82580 0.42609
 C3316 C 0.56771 0.83967 0.43186
 C3317 C 0.58682 0.83628 0.43084
 C3318 C 0.59348 0.81942 0.42425
 H3319 H 0.58223 0.72714 0.38139
 H3320 H 0.59428 0.69800 0.36954
 H3321 H 0.64923 0.71359 0.38679
 H3322 H 0.63724 0.74258 0.39889
 H3323 H 0.55221 0.79853 0.41516
 H3324 H 0.54061 0.82792 0.42690
 H3325 H 0.59667 0.84679 0.43488
 H3326 H 0.60829 0.81733 0.42360
 C3327 C 0.60727 0.23617 0.89203
 C3328 C 0.60566 0.23186 0.87314
 C3329 C 0.61262 0.21525 0.86622
 C3330 C 0.62141 0.20255 0.87801
 C3331 C 0.62297 0.20681 0.89691
 C3332 C 0.61594 0.22341 0.90386
 C3333 C 0.60010 0.25396 0.89925
 N3334 N 0.60049 0.25781 0.91764
 N3335 N 0.59418 0.27387 0.92403
 C3336 C 0.58723 0.28679 0.91230
 N3337 N 0.58684 0.28293 0.89392
 N3338 N 0.59312 0.26686 0.88754
 C3339 C 0.58034 0.30476 0.91933
 C3340 C 0.57471 0.31863 0.90694
 C3341 C 0.56833 0.33562 0.91347
 C3342 C 0.56733 0.33915 0.93257
 C3343 C 0.57292 0.32528 0.94498
 C3344 C 0.57937 0.30829 0.93843
 H3345 H 0.59910 0.24135 0.86361
 H3346 H 0.61143 0.21251 0.85156
 H3347 H 0.62950 0.19722 0.90636
 H3348 H 0.61739 0.22627 0.91849
 H3349 H 0.57536 0.31645 0.89213
 H3350 H 0.56443 0.34611 0.90354
 H3351 H 0.57211 0.32749 0.95977
 H3352 H 0.58352 0.29790 0.94837
 C3353 C 0.89209 0.73649 1.10728
 C3354 C 0.87319 0.73216 1.10598
 C3355 C 0.86644 0.71544 1.11282
 C3356 C 0.87841 0.70264 1.12120
 C3357 C 0.89731 0.70693 1.12249
 C3358 C 0.90409 0.72364 1.11557
 C3359 C 0.89919 0.75433 1.10015
 N3360 N 0.91757 0.75818 1.10036
 N3361 N 0.92389 0.77427 1.09405
 C3362 C 0.91209 0.78721 1.08727
 N3363 N 0.89372 0.78335 1.08705
 N3364 N 0.88741 0.76726 1.09334
 C3365 C 0.91906 0.80519 1.08035
 C3366 C 0.90665 0.81902 1.07469
 C3367 C 0.91316 0.83601 1.06829
 C3368 C 0.93224 0.83957 1.06731
 C3369 C 0.94466 0.82574 1.07293
 C3370 C 0.93815 0.80875 1.07940
 H3371 H 0.86353 0.74173 1.09970
 H3372 H 0.85177 0.71266 1.11184
 H3373 H 0.90691 0.69727 1.12867
 H3374 H 0.91873 0.72649 1.11679
 H3375 H 0.89186 0.81681 1.07533
 H3376 H 0.90322 0.84648 1.06435
 H3377 H 0.95944 0.82799 1.07214
 H3378 H 0.94810 0.79839 1.08358
 C3379 C 0.89060 0.23776 0.60902
 C3380 C 0.90246 0.22493 0.61752
 C3381 C 0.89553 0.20834 0.62458
 C3382 C 0.87660 0.20416 0.62323
 C3383 C 0.86476 0.21695 0.61467
 C3384 C 0.87166 0.23357 0.60768
 C3385 C 0.89787 0.25545 0.60168
 N3386 N 0.88623 0.26841 0.59469
 N3387 N 0.89272 0.28434 0.58818
 C3388 C 0.91113 0.28801 0.58835
 N3389 N 0.92279 0.27504 0.59532
 N3390 N 0.91630 0.25911 0.60185
 C3391 C 0.91830 0.30581 0.58119
 C3392 C 0.93743 0.30913 0.58015
 C3393 C 0.94414 0.32597 0.57346
 C3394 C 0.93188 0.33988 0.56769
 C3395 C 0.91276 0.33656 0.56874
 C3396 C 0.90606 0.31973 0.57537
 H3397 H 0.91712 0.22768 0.61878
 H3398 H 0.90503 0.19867 0.63090
 H3399 H 0.85009 0.21426 0.61363
 H3400 H 0.86211 0.24313 0.60126
 H3401 H 0.94727 0.29871 0.58444
 H3402 H 0.95895 0.32802 0.57262
 H3403 H 0.90294 0.34710 0.56470
 H3404 H 0.89124 0.31770 0.57606
 C3405 C 0.39102 0.73689 0.60777
 C3406 C 0.40299 0.72403 0.61609
 C3407 C 0.39616 0.70740 0.62314
 C3408 C 0.37723 0.70320 0.62195
 C3409 C 0.36528 0.71601 0.61356
 C3410 C 0.37209 0.73267 0.60659
 C3411 C 0.39819 0.75463 0.60046
 N3412 N 0.38646 0.76758 0.59359
 N3413 N 0.39285 0.78357 0.58713
 C3414 C 0.41125 0.78730 0.58722
 N3415 N 0.42300 0.77434 0.59406
 N3416 N 0.41660 0.75836 0.60055
 C3417 C 0.41832 0.80517 0.58013
 C3418 C 0.43743 0.80859 0.57908
 C3419 C 0.44404 0.82550 0.57250
 C3420 C 0.43170 0.83939 0.56685
 C3421 C 0.41260 0.83596 0.56788
 C3422 C 0.40599 0.81905 0.57441
 H3423 H 0.41765 0.72681 0.61722
 H3424 H 0.40574 0.69772 0.62932
 H3425 H 0.35060 0.71330 0.61266
 H3426 H 0.36246 0.74224 0.60030
 H3427 H 0.44732 0.79819 0.58330
 H3428 H 0.45883 0.82764 0.57166
 H3429 H 0.40272 0.84648 0.56392
 H3430 H 0.39119 0.81695 0.57510
 C3431 C 0.39110 0.23705 1.10768
 C3432 C 0.37216 0.23285 1.10643
 C3433 C 0.36533 0.21617 1.11331
 C3434 C 0.37724 0.20331 1.12167
 C3435 C 0.39618 0.20748 1.12290
 C3436 C 0.40304 0.22414 1.11595
 C3437 C 0.39829 0.25484 1.10050
 N3438 N 0.41670 0.25855 1.10066
 N3439 N 0.42313 0.27458 1.09430
 C3440 C 0.41141 0.28760 1.08753
 N3441 N 0.39300 0.28387 1.08736
 N3442 N 0.38659 0.26784 1.09370
 C3443 C 0.41850 0.30550 1.08056
 C3444 C 0.40619 0.31942 1.07489
 C3445 C 0.41282 0.33634 1.06842
 C3446 C 0.43192 0.33975 1.06741
 C3447 C 0.44424 0.32584 1.07305
 C3448 C 0.43762 0.30892 1.07956
 H3449 H 0.36255 0.24247 1.10017
 H3450 H 0.35064 0.21347 1.11237
 H3451 H 0.40573 0.19777 1.12905
 H3452 H 0.41770 0.22690 1.11712
 H3453 H 0.39138 0.31732 1.07555
 H3454 H 0.40295 0.34688 1.06447
 H3455 H 0.45904 0.32797 1.07222
 H3456 H 0.44750 0.29849 1.08375
 C3457 C 1.10748 1.10871 0.73571
 C3458 C 1.10196 1.12614 0.72930
 C3459 C 1.10892 1.13323 0.71273
 C3460 C 1.12187 1.12319 0.70208
 C3461 C 1.12721 1.10558 0.70861
 C3462 C 1.12006 1.09845 0.72510
 C3463 C 1.10034 1.10140 0.75349
 N3464 N 1.10314 1.08350 0.75836
 N3465 N 1.09689 1.07703 0.77445
 C3466 C 1.08765 1.08821 0.78638
 N3467 N 1.08485 1.10610 0.78150
 N3468 N 1.09103 1.11255 0.76539
 C3469 C 1.08089 1.08112 0.80439
 C3470 C 1.07460 1.09339 0.81807
 C3471 C 1.06834 1.08679 0.83511
 C3472 C 1.06803 1.06774 0.83884
 C3473 C 1.07428 1.05546 0.82514
 C3474 C 1.08070 1.06207 0.80813
 H3475 H 1.09224 1.13441 0.73713
 H3476 H 1.10443 1.14688 0.70876
 H3477 H 1.13668 1.09694 0.70096
 H3478 H 1.12456 1.08492 0.72961
 H3479 H 1.07471 1.10815 0.81572
 H3480 H 1.06398 1.09667 0.84547
 H3481 H 1.07400 1.04069 0.82746
 H3482 H 1.08535 1.05224 0.79786
 C3483 C 1.10841 0.60818 0.23577
 C3484 C 1.09800 0.62071 0.22524
 C3485 C 1.10503 0.62800 0.20876
 C3486 C 1.12270 0.62285 0.20217
 C3487 C 1.13291 0.60999 0.21277
 C3488 C 1.12591 0.60289 0.22930
 C3489 C 1.10123 0.60081 0.25351
 N3490 N 1.11252 0.59146 0.26523
 N3491 N 1.10620 0.58502 0.28128
 C3492 C 1.08829 0.58759 0.28628
 N3493 N 1.07695 0.59688 0.27453
 N3494 N 1.08330 0.60340 0.25850
 C3495 C 1.08136 0.58053 0.30424
 C3496 C 1.06231 0.58020 0.30811
 C3497 C 1.05584 0.57358 0.32509
 C3498 C 1.06828 0.56727 0.33866
 C3499 C 1.08732 0.56766 0.33478
 C3500 C 1.09377 0.57413 0.31776
 H3501 H 1.08441 0.62504 0.22980
 H3502 H 1.09630 0.63742 0.20117
 H3503 H 1.14662 0.60565 0.20879
 H3504 H 1.13431 0.59323 0.23706
 H3505 H 1.05237 0.58492 0.29796
 H3506 H 1.04108 0.57322 0.32752
 H3507 H 1.09731 0.56324 0.34502
 H3508 H 1.10854 0.57432 0.31530
 C3509 C 0.60677 1.10804 0.23505
 C3510 C 0.60122 1.12545 0.22860
 C3511 C 0.60810 1.13249 0.21197
 C3512 C 0.62099 1.12240 0.20130
 C3513 C 0.62636 1.10481 0.20786
 C3514 C 0.61929 1.09774 0.22441
 C3515 C 0.59973 1.10081 0.25290
 N3516 N 0.60253 1.08292 0.25782
 N3517 N 0.59638 1.07652 0.27397
 C3518 C 0.58723 1.08776 0.28591
 N3519 N 0.58443 1.10564 0.28098
 N3520 N 0.59051 1.11202 0.26481
 C3521 C 0.58058 1.08076 0.30399
 C3522 C 0.57442 1.09309 0.31767
 C3523 C 0.56824 1.08657 0.33477
 C3524 C 0.56790 1.06753 0.33857
 C3525 C 0.57403 1.05519 0.32487
 C3526 C 0.58036 1.06173 0.30780
 H3527 H 0.59155 1.13376 0.23645
 H3528 H 0.60359 1.14612 0.20798
 H3529 H 0.63579 1.09614 0.20019
 H3530 H 0.62381 1.08422 0.22894
 H3531 H 0.57454 1.10785 0.31527
 H3532 H 0.56398 1.09650 0.34513
 H3533 H 0.57371 1.04043 0.32724
 H3534 H 0.58492 1.05184 0.29753
 C3535 C 0.60809 0.60820 0.73590
 C3536 C 0.61642 0.59635 0.72294
 C3537 C 0.62319 0.60325 0.70619
 C3538 C 0.62172 0.62214 0.70199
 C3539 C 0.61329 0.63396 0.71489
 C3540 C 0.60659 0.62708 0.73165
 C3541 C 0.60111 0.60098 0.75379
 N3542 N 0.59433 0.61264 0.76684
 N3543 N 0.58817 0.60622 0.78297
 C3544 C 0.58849 0.58785 0.78673
 N3545 N 0.59524 0.57617 0.77367
 N3546 N 0.60143 0.58260 0.75754
 C3547 C 0.58167 0.58076 0.80473
 C3548 C 0.58070 0.56168 0.80818
 C3549 C 0.57423 0.55507 0.82517
 C3550 C 0.56863 0.56739 0.83911
 C3551 C 0.56966 0.58646 0.83568
 C3552 C 0.57607 0.59307 0.81870
 H3553 H 0.61778 0.58173 0.72573
 H3554 H 0.62942 0.59377 0.69645
 H3555 H 0.61217 0.64860 0.71218
 H3556 H 0.60027 0.63662 0.74130
 H3557 H 0.58483 0.55181 0.79772
 H3558 H 0.57340 0.54030 0.82732
 H3559 H 0.56576 0.59632 0.84624
 H3560 H 0.57673 0.60785 0.81658
 C3561 C 0.89272 0.89207 0.73577
 C3562 C 0.88419 0.90386 0.72288
 C3563 C 0.87728 0.89689 0.70621
 C3564 C 0.87882 0.87801 0.70202
 C3565 C 0.88745 0.86626 0.71485
 C3566 C 0.89429 0.87319 0.73153
 C3567 C 0.89981 0.89932 0.75361
 N3568 N 0.90673 0.88769 0.76661
 N3569 N 0.91296 0.89412 0.78270
 C3570 C 0.91258 0.91249 0.78648
 N3571 N 0.90569 0.92414 0.77346
 N3572 N 0.89942 0.91770 0.75738
 C3573 C 0.91946 0.91958 0.80446
 C3574 C 0.92040 0.93866 0.80792
 C3575 C 0.92689 0.94527 0.82490
 C3576 C 0.93256 0.93294 0.83882
 C3577 C 0.93156 0.91388 0.83537
 C3578 C 0.92513 0.90728 0.81839
 H3579 H 0.88277 0.91847 0.72568
 H3580 H 0.87088 0.90632 0.69652
 H3581 H 0.88863 0.85161 0.71215
 H3582 H 0.90075 0.86370 0.74112
 H3583 H 0.91620 0.94853 0.79748
 H3584 H 0.92769 0.96004 0.82706
 H3585 H 0.93552 0.90401 0.84591
 H3586 H 0.92451 0.89249 0.81627
 C3587 C 0.89232 0.39115 0.23616
 C3588 C 0.89751 0.37355 0.22993
 C3589 C 0.89059 0.36652 0.21332
 C3590 C 0.87805 0.37681 0.20243
 C3591 C 0.87297 0.39455 0.20882
 C3592 C 0.88006 0.40160 0.22536
 C3593 C 0.89956 0.39847 0.25389
 N3594 N 0.89707 0.41646 0.25860
 N3595 N 0.90348 0.42297 0.27460
 C3596 C 0.91258 0.41175 0.28660
 N3597 N 0.91506 0.39377 0.28189
 N3598 N 0.90871 0.38728 0.26586
 C3599 C 0.91955 0.41890 0.30450
 C3600 C 0.92586 0.40668 0.31822
 C3601 C 0.93230 0.41335 0.33516
 C3602 C 0.93276 0.43242 0.33876
 C3603 C 0.92651 0.44466 0.32500
 C3604 C 0.91992 0.43797 0.30810
 H3605 H 0.90695 0.36511 0.23792
 H3606 H 0.89484 0.35276 0.20948
 H3607 H 0.86379 0.40334 0.20101
 H3608 H 0.87581 0.41525 0.22973
 H3609 H 0.92563 0.39190 0.31598
 H3610 H 0.93667 0.40352 0.34557
 H3611 H 0.92692 0.45943 0.32722
 H3612 H 0.91527 0.44777 0.29779
 C3613 C 0.39230 0.89222 0.23540
 C3614 C 0.40269 0.87967 0.22488
 C3615 C 0.39562 0.87234 0.20844
 C3616 C 0.37794 0.87749 0.20187
 C3617 C 0.36775 0.89036 0.21246
 C3618 C 0.37479 0.89750 0.22896
 C3619 C 0.39952 0.89963 0.25310
 N3620 N 0.38824 0.90901 0.26482
 N3621 N 0.39459 0.91550 0.28084
 C3622 C 0.41251 0.91295 0.28581
 N3623 N 0.42383 0.90363 0.27407
 N3624 N 0.41746 0.89707 0.25807
 C3625 C 0.41948 0.92005 0.30374
 C3626 C 0.43853 0.92040 0.30757
 C3627 C 0.44502 0.92704 0.32454
 C3628 C 0.43261 0.93335 0.33812
 C3629 C 0.41356 0.93295 0.33427
 C3630 C 0.40708 0.92647 0.31727
 H3631 H 0.41628 0.87534 0.22943
 H3632 H 0.40433 0.86290 0.20085
 H3633 H 0.35403 0.89470 0.20850
 H3634 H 0.36640 0.90718 0.23671
 H3635 H 0.44846 0.91567 0.29741
 H3636 H 0.45979 0.92741 0.32694
 H3637 H 0.40359 0.93737 0.34453
 H3638 H 0.39231 0.92626 0.31483
 C3639 C 0.39399 0.39223 0.73517
 C3640 C 0.38531 0.40399 0.72236
 C3641 C 0.37836 0.39702 0.70571
 C3642 C 0.38002 0.37816 0.70145
 C3643 C 0.38885 0.36644 0.71418
 C3644 C 0.39572 0.37338 0.73085
 C3645 C 0.40102 0.39947 0.75303
 N3646 N 0.40799 0.38782 0.76601
 N3647 N 0.41413 0.39424 0.78214
 C3648 C 0.41361 0.41258 0.78600
 N3649 N 0.40669 0.42424 0.77300
 N3650 N 0.40051 0.41782 0.75687
 C3651 C 0.42036 0.41964 0.80403
 C3652 C 0.42123 0.43871 0.80755
 C3653 C 0.42760 0.44529 0.82460
 C3654 C 0.43320 0.43294 0.83852
 C3655 C 0.43226 0.41388 0.83501
 C3656 C 0.42596 0.40731 0.81798
 H3657 H 0.38377 0.41858 0.72521
 H3658 H 0.37181 0.40642 0.69609
 H3659 H 0.39012 0.35182 0.71144
 H3660 H 0.40231 0.36391 0.74038
 H3661 H 0.41709 0.44860 0.79711
 H3662 H 0.42836 0.46005 0.82680
 H3663 H 0.43616 0.40399 0.84555
 H3664 H 0.42538 0.39253 0.81581
 C3665 C 1.10706 0.89172 1.26478
 C3666 C 1.10197 0.87411 1.27107
 C3667 C 1.10898 0.86714 1.28767
 C3668 C 1.12154 0.87748 1.29848
 C3669 C 1.12650 0.89524 1.29204
 C3670 C 1.11931 0.90224 1.27552
 C3671 C 1.09979 0.89895 1.24703
 N3672 N 1.10230 0.91691 1.24221
 N3673 N 1.09591 0.92334 1.22616
 C3674 C 1.08681 0.91206 1.21422
 N3675 N 1.08431 0.89411 1.21905
 N3676 N 1.09063 0.88771 1.23512
 C3677 C 1.07990 0.91911 1.19625
 C3678 C 1.07357 0.90682 1.18261
 C3679 C 1.06724 0.91339 1.16558
 C3680 C 1.06693 0.93243 1.16182
 C3681 C 1.07317 0.94474 1.17551
 C3682 C 1.07964 0.93815 1.19250
 H3683 H 1.09253 0.86563 1.26313
 H3684 H 1.10481 0.85337 1.29155
 H3685 H 1.13567 0.90408 1.29980
 H3686 H 1.12349 0.91590 1.27111
 H3687 H 1.07371 0.89206 1.18497
 H3688 H 1.06287 0.90350 1.15524
 H3689 H 1.07287 0.95950 1.17316
 H3690 H 1.08432 0.94801 1.20274
 C3691 C 1.10675 0.39169 0.76497
 C3692 C 1.11918 0.40210 0.77559
 C3693 C 1.12642 0.39508 0.79208
 C3694 C 1.12130 0.37740 0.79861
 C3695 C 1.10852 0.36718 0.78795
 C3696 C 1.10147 0.37418 0.77137
 C3697 C 1.09949 0.39893 0.74721
 N3698 N 1.09026 0.38771 0.73533
 N3699 N 1.08399 0.39411 0.71923
 C3700 C 1.08663 0.41203 0.71435
 N3701 N 1.09579 0.42328 0.72627
 N3702 N 1.10213 0.41686 0.74234
 C3703 C 1.07980 0.41907 0.69635
 C3704 C 1.07958 0.43811 0.69257
 C3705 C 1.07319 0.44469 0.67555
 C3706 C 1.06700 0.43238 0.66184
 C3707 C 1.06729 0.41334 0.66562
 C3708 C 1.07354 0.40677 0.68268
 H3709 H 1.12350 0.41570 0.77109
 H3710 H 1.13575 0.40384 0.79974
 H3711 H 1.10420 0.35348 0.79192
 H3712 H 1.09187 0.36578 0.76354
 H3713 H 1.08422 0.44797 0.70283
 H3714 H 1.07290 0.45945 0.67320
 H3715 H 1.06296 0.40344 0.65526
 H3716 H 1.07365 0.39201 0.68506
 C3717 C 0.60645 0.89116 0.76459
 C3718 C 0.60501 0.87229 0.76893
 C3719 C 0.61200 0.86547 0.78561
 C3720 C 0.62067 0.87732 0.79831
 C3721 C 0.62204 0.89620 0.79403
 C3722 C 0.61498 0.90305 0.77738
 C3723 C 0.59926 0.89832 0.74676
 N3724 N 0.59958 0.91669 0.74294
 N3725 N 0.59327 0.92308 0.72684
 C3726 C 0.58641 0.91137 0.71386
 N3727 N 0.58608 0.89302 0.71770
 N3728 N 0.59235 0.88663 0.73380
 C3729 C 0.57955 0.91842 0.69586
 C3730 C 0.57391 0.90611 0.68192
 C3731 C 0.56759 0.91270 0.66490
 C3732 C 0.56666 0.93177 0.66141
 C3733 C 0.57225 0.94409 0.67534
 C3734 C 0.57864 0.93750 0.69236
 H3735 H 0.59854 0.86272 0.75942
 H3736 H 0.61094 0.85083 0.78839
 H3737 H 0.62844 0.90571 0.80363
 H3738 H 0.61630 0.91766 0.77452
 H3739 H 0.57452 0.89133 0.68408
 H3740 H 0.56368 0.90283 0.65435
 H3741 H 0.57149 0.95886 0.67316
 H3742 H 0.58280 0.94738 0.70280
 C3743 C 0.60675 0.39161 1.26500
 C3744 C 0.60148 0.37411 1.27143
 C3745 C 0.60853 0.36713 1.28802
 C3746 C 0.62132 0.37738 1.29866
 C3747 C 0.62643 0.39504 1.29210
 C3748 C 0.61920 0.40204 1.27560
 C3749 C 0.59949 0.39883 1.24724
 N3750 N 0.60215 0.41674 1.24232
 N3751 N 0.59580 0.42314 1.22625
 C3752 C 0.58660 0.41189 1.21437
 N3753 N 0.58394 0.39399 1.21929
 N3754 N 0.59022 0.38761 1.23539
 C3755 C 0.57976 0.41891 1.19636
 C3756 C 0.57342 0.40660 1.18274
 C3757 C 0.56717 0.41315 1.16567
 C3758 C 0.56695 0.43218 1.16185
 C3759 C 0.57322 0.44450 1.17551
 C3760 C 0.57962 0.43794 1.19254
 H3761 H 0.59188 0.36570 1.26361
 H3762 H 0.60422 0.35344 1.29201
 H3763 H 0.63577 0.40381 1.29975
 H3764 H 0.62351 0.41563 1.27108
 H3765 H 0.57347 0.39185 1.18516
 H3766 H 0.56278 0.40325 1.15535
 H3767 H 0.57299 0.45926 1.17312
 H3768 H 0.58431 0.44781 1.20277
 C3769 C 0.89292 1.10819 1.26456
 C3770 C 0.88448 1.09634 1.27745
 C3771 C 0.87761 1.10323 1.29417
 C3772 C 0.87912 1.12210 1.29842
 C3773 C 0.88767 1.13391 1.28560
 C3774 C 0.89446 1.12706 1.26887
 C3775 C 0.89995 1.10101 1.24668
 N3776 N 0.90684 1.11269 1.23370
 N3777 N 0.91303 1.10632 1.21757
 C3778 C 0.91261 1.08797 1.21370
 N3779 N 0.90575 1.07627 1.22669
 N3780 N 0.89953 1.08265 1.24283
 C3781 C 0.91943 1.08095 1.19568
 C3782 C 0.92027 1.06188 1.19212
 C3783 C 0.92669 1.05533 1.17509
 C3784 C 0.93240 1.06769 1.16123
 C3785 C 0.93151 1.08675 1.16478
 C3786 C 0.92514 1.09329 1.18180
 H3787 H 0.88308 1.08173 1.27461
 H3788 H 0.87128 1.09376 1.30385
 H3789 H 0.88882 1.14855 1.28833
 H3790 H 0.90086 1.13660 1.25928
 H3791 H 0.91604 1.05198 1.20251
 H3792 H 0.92741 1.04056 1.17285
 H3793 H 0.93550 1.09664 1.15428
 H3794 H 0.92459 1.10807 1.18401
 C3795 C 0.89324 0.60808 0.76451
 C3796 C 0.88481 0.59623 0.77740
 C3797 C 0.87793 0.60312 0.79411
 C3798 C 0.87941 0.62200 0.79835
 C3799 C 0.88795 0.63382 0.78552
 C3800 C 0.89475 0.62696 0.76880
 C3801 C 0.90028 0.60090 0.74663
 N3802 N 0.90715 0.61259 0.73364
 N3803 N 0.91335 0.60622 0.71751
 C3804 C 0.91296 0.58787 0.71366
 N3805 N 0.90612 0.57616 0.72666
 N3806 N 0.89990 0.58254 0.74279
 C3807 C 0.91978 0.58084 0.69564
 C3808 C 0.92065 0.56177 0.69209
 C3809 C 0.92707 0.55522 0.67506
 C3810 C 0.93272 0.56759 0.66118
 C3811 C 0.93181 0.58664 0.66472
 C3812 C 0.92545 0.59319 0.68174
 H3813 H 0.88344 0.58162 0.77457
 H3814 H 0.87161 0.59364 0.80380
 H3815 H 0.88907 0.64846 0.78825
 H3816 H 0.90114 0.63650 0.75920
 H3817 H 0.91646 0.55187 0.70249
 H3818 H 0.92781 0.54046 0.67283
 H3819 H 0.93576 0.59654 0.65421
 H3820 H 0.92487 0.60796 0.68394
 C3821 C 0.39217 1.10813 0.76418
 C3822 C 0.37327 1.10673 0.76849
 C3823 C 0.36642 1.11373 0.78514
 C3824 C 0.37828 1.12235 0.79788
 C3825 C 0.39718 1.12376 0.79361
 C3826 C 0.40407 1.11668 0.77697
 C3827 C 0.39933 1.10081 0.74640
 N3828 N 0.41772 1.10099 0.74257
 N3829 N 0.42407 1.09449 0.72653
 C3830 C 0.41229 1.08757 0.71363
 N3831 N 0.39391 1.08738 0.71748
 N3832 N 0.38758 1.09385 0.73352
 C3833 C 0.41927 1.08047 0.69570
 C3834 C 0.40687 1.07479 0.68184
 C3835 C 0.41338 1.06826 0.66487
 C3836 C 0.43245 1.06717 0.66134
 C3837 C 0.44488 1.07277 0.67520
 C3838 C 0.43837 1.07936 0.69218
 H3839 H 0.36369 1.10027 0.75898
 H3840 H 0.35176 1.11267 0.78788
 H3841 H 0.40669 1.13016 0.80322
 H3842 H 0.41870 1.11798 0.77411
 H3843 H 0.39208 1.07554 0.68402
 H3844 H 0.40344 1.06435 0.65437
 H3845 H 0.45966 1.07188 0.67299
 H3846 H 0.44832 1.08353 0.70256
 C3847 C 0.39368 0.60772 1.26503
 C3848 C 0.38114 0.59744 1.27567
 C3849 C 0.37402 0.60456 1.29218
 C3850 C 0.37935 0.62218 1.29869
 C3851 C 0.39226 0.63223 1.28801
 C3852 C 0.39920 0.62514 1.27144
 C3853 C 0.40076 0.60047 1.24720
 N3854 N 0.41007 0.61165 1.23534
 N3855 N 0.41619 0.60527 1.21919
 C3856 C 0.41333 0.58742 1.21421
 N3857 N 0.40408 0.57620 1.22610
 N3858 N 0.39789 0.58260 1.24224
 C3859 C 0.42002 0.58043 1.19614
 C3860 C 0.42008 0.56142 1.19224
 C3861 C 0.42643 0.55490 1.17517
 C3862 C 0.43274 0.56725 1.16156
 C3863 C 0.43255 0.58627 1.16544
 C3864 C 0.42636 0.59277 1.18254
 H3865 H 0.37665 0.58391 1.27117
 H3866 H 0.36457 0.59593 1.29986
 H3867 H 0.39676 0.64588 1.29196
 H3868 H 0.40888 0.63343 1.26359
 H3869 H 0.41539 0.55153 1.20245
 H3870 H 0.42662 0.54015 1.17273
 H3871 H 0.43696 0.59621 1.15515
 H3872 H 0.42635 0.60751 1.18501
 C3873 C 1.10935 1.26313 0.89240
 C3874 C 1.09745 1.27587 0.88381
 C3875 C 1.10431 1.29249 0.87676
 C3876 C 1.12319 1.29680 0.87823
 C3877 C 1.13507 1.28413 0.88692
 C3878 C 1.12824 1.26748 0.89389
 C3879 C 1.10216 1.24536 0.89965
 N3880 N 1.11385 1.23245 0.90664
 N3881 N 1.10744 1.21643 0.91301
 C3882 C 1.08905 1.21263 0.91269
 N3883 N 1.07735 1.22555 0.90573
 N3884 N 1.08377 1.24157 0.89933
 C3885 C 1.08196 1.19472 0.91969
 C3886 C 1.06285 1.19128 0.92062
 C3887 C 1.05621 1.17436 0.92715
 C3888 C 1.06853 1.16047 0.93285
 C3889 C 1.08763 1.16391 0.93190
 C3890 C 1.09427 1.18083 0.92543
 H3891 H 1.08283 1.27299 0.88244
 H3892 H 1.09478 1.30206 0.87034
 H3893 H 1.14971 1.28694 0.88806
 H3894 H 1.13781 1.25800 0.90041
 H3895 H 1.05297 1.20169 0.91638
 H3896 H 1.04142 1.17222 0.92793
 H3897 H 1.09750 1.15339 0.93589
 H3898 H 1.10907 1.18295 0.92481
 C3899 C 1.10985 0.76271 0.39157
 C3900 C 1.11811 0.77567 0.40346
 C3901 C 1.12489 0.79239 0.39655
 C3902 C 1.12348 0.79656 0.37762
 C3903 C 1.11521 0.78362 0.36574
 C3904 C 1.10851 0.76689 0.37262
 C3905 C 1.10269 0.74493 0.39881
 N3906 N 1.09584 0.73195 0.38711
 N3907 N 1.08942 0.71596 0.39355
 C3908 C 1.08954 0.71226 0.41197
 N3909 N 1.09637 0.72525 0.42368
 N3910 N 1.10282 0.74123 0.41724
 C3911 C 1.08240 0.69442 0.41908
 C3912 C 1.08131 0.69102 0.43820
 C3913 C 1.07459 0.67417 0.44483
 C3914 C 1.06883 0.66032 0.43249
 C3915 C 1.06994 0.66372 0.41338
 C3916 C 1.07661 0.68056 0.40675
 H3917 H 1.11936 0.77292 0.41813
 H3918 H 1.13101 0.80216 0.40607
 H3919 H 1.11416 0.78630 0.35105
 H3920 H 1.10227 0.75724 0.36304
 H3921 H 1.08558 0.70141 0.44809
 H3922 H 1.07370 0.67206 0.45963
 H3923 H 1.06591 0.65322 0.40350
 H3924 H 1.07734 0.68264 0.39194
 C3925 C 0.60939 1.26321 0.39258
 C3926 C 0.62827 1.26758 0.39408
 C3927 C 0.63509 1.28423 0.38710
 C3928 C 0.62321 1.29689 0.37838
 C3929 C 0.60433 1.29255 0.37691
 C3930 C 0.59748 1.27593 0.38397
 C3931 C 0.60221 1.24544 0.39983
 N3932 N 0.58382 1.24163 0.39950
 N3933 N 0.57741 1.22561 0.40590
 C3934 C 0.58912 1.21270 0.41286
 N3935 N 0.60750 1.21651 0.41320
 N3936 N 0.61391 1.23254 0.40683
 C3937 C 0.58204 1.19478 0.41984
 C3938 C 0.59435 1.18089 0.42558
 C3939 C 0.58772 1.16395 0.43201
 C3940 C 0.56862 1.16050 0.43294
 C3941 C 0.55630 1.17440 0.42726
 C3942 C 0.56293 1.19134 0.42077
 H3943 H 0.63785 1.25811 0.40060
 H3944 H 0.64973 1.28706 0.38824
 H3945 H 0.59479 1.30211 0.37048
 H3946 H 0.58286 1.27304 0.38259
 H3947 H 0.60915 1.18302 0.42497
 H3948 H 0.59759 1.15343 0.43599
 H3949 H 0.54150 1.17225 0.42802
 H3950 H 0.55304 1.20174 0.41654
 C3951 C 0.60876 0.76372 0.89365
 C3952 C 0.59680 0.77645 0.88513
 C3953 C 0.60359 0.79310 0.87810
 C3954 C 0.62247 0.79746 0.87950
 C3955 C 0.63440 0.78481 0.88816
 C3956 C 0.62764 0.76813 0.89512
 C3957 C 0.60166 0.74589 0.90082
 N3958 N 0.61342 0.73300 0.90774
 N3959 N 0.60711 0.71691 0.91400
 C3960 C 0.58874 0.71300 0.91364
 N3961 N 0.57696 0.72590 0.90677
 N3962 N 0.58329 0.74199 0.90047
 C3963 C 0.58176 0.69500 0.92050
 C3964 C 0.56267 0.69142 0.92137
 C3965 C 0.55614 0.67440 0.92775
 C3966 C 0.56855 0.66055 0.93336
 C3967 C 0.58763 0.66413 0.93248
 C3968 C 0.59415 0.68115 0.92616
 H3969 H 0.58218 0.77353 0.88379
 H3970 H 0.59402 0.80266 0.87171
 H3971 H 0.64904 0.78765 0.88924
 H3972 H 0.63726 0.75866 0.90158
 H3973 H 0.55273 0.70179 0.91719
 H3974 H 0.54136 0.67215 0.92848
 H3975 H 0.59756 0.65365 0.93641
 H3976 H 0.60895 0.68337 0.92558
 C3977 C 0.89186 1.26335 1.10876
 C3978 C 0.89707 1.26965 1.12635
 C3979 C 0.89017 1.28626 1.13332
 C3980 C 0.87763 1.29710 1.12297
 C3981 C 0.87247 1.29061 1.10526
 C3982 C 0.87956 1.27406 1.09826
 C3983 C 0.89916 1.24564 1.10151
 N3984 N 0.89673 1.24085 1.08350
 N3985 N 0.90326 1.22489 1.07705
 C3986 C 0.91242 1.21302 1.08836
 N3987 N 0.91483 1.21782 1.10637
 N3988 N 0.90837 1.23379 1.11279
 C3989 C 0.91955 1.19517 1.08129
 C3990 C 0.92589 1.18156 1.09362
 C3991 C 0.93243 1.16465 1.08703
 C3992 C 0.93295 1.16098 1.06793
 C3993 C 0.92670 1.17464 1.05560
 C3994 C 0.92002 1.19151 1.06220
 H3995 H 0.90653 1.26173 1.13483
 H3996 H 0.89445 1.29015 1.14708
 H3997 H 0.86326 1.29837 1.09644
 H3998 H 0.87528 1.26961 1.08462
 H3999 H 0.92560 1.18386 1.10842
 H4000 H 0.93680 1.15433 1.09694
 H4001 H 0.92716 1.17237 1.04080
 H4002 H 0.91534 1.20174 1.05232
 C4003 C 0.89177 0.76329 0.60808
 C4004 C 0.87284 0.76750 0.60672
 C4005 C 0.86596 0.78417 0.61358
 C4006 C 0.87782 0.79702 0.62202
 C4007 C 0.89675 0.79283 0.62338
 C4008 C 0.90365 0.77618 0.61645
 C4009 C 0.89900 0.74552 0.60089
 N4010 N 0.91741 0.74178 0.60111
 N4011 N 0.92385 0.72577 0.59471
 C4012 C 0.91215 0.71280 0.58785
 N4013 N 0.89375 0.71654 0.58763
 N4014 N 0.88732 0.73255 0.59400
 C4015 C 0.91924 0.69491 0.58081
 C4016 C 0.90693 0.68104 0.57506
 C4017 C 0.91355 0.66414 0.56852
 C4018 C 0.93264 0.66071 0.56750
 C4019 C 0.94498 0.67457 0.57323
 C4020 C 0.93836 0.69147 0.57982
 H4021 H 0.86327 0.75790 0.60039
 H4022 H 0.85128 0.78686 0.61254
 H4023 H 0.90626 0.80254 0.62962
 H4024 H 0.91831 0.77341 0.61771
 H4025 H 0.89212 0.68315 0.57572
 H4026 H 0.90367 0.65364 0.56451
 H4027 H 0.95977 0.67242 0.57241
 H4028 H 0.94824 0.70186 0.58407
 C4029 C 0.39237 1.26389 0.60764
 C4030 C 0.37478 1.27022 0.60245
 C4031 C 0.36784 1.28685 0.60934
 C4032 C 0.37821 1.29767 0.62187
 C4033 C 0.39594 1.29119 0.62695
 C4034 C 0.40290 1.27463 0.61988
 C4035 C 0.39957 1.24612 0.60045
 N4036 N 0.41753 1.24125 0.60299
 N4037 N 0.42392 1.22521 0.59662
 C4038 C 0.41260 1.21333 0.58751
 N4039 N 0.39465 1.21820 0.58498
 N4040 N 0.38828 1.23427 0.59128
 C4041 C 0.41961 1.19538 0.58058
 C4042 C 0.40726 1.18182 0.57422
 C4043 C 0.41379 1.16483 0.56783
 C4044 C 0.43285 1.16103 0.56748
 C4045 C 0.44522 1.17462 0.57377
 C4046 C 0.43867 1.19158 0.58031
 H4047 H 0.36628 1.26229 0.59302
 H4048 H 0.35408 1.29075 0.60509
 H4049 H 0.40479 1.29895 0.63612
 H4050 H 0.41655 1.27019 0.62413
 H4051 H 0.39248 1.18423 0.57437
 H4052 H 0.40385 1.15456 0.56342
 H4053 H 0.45999 1.17224 0.57345
 H4054 H 0.44857 1.20176 0.58502
 C4055 C 0.39197 0.76302 1.10889
 C4056 C 0.40240 0.77378 1.12120
 C4057 C 0.39531 0.79030 1.12829
 C4058 C 0.37757 0.79669 1.12314
 C4059 C 0.36731 0.78582 1.11056
 C4060 C 0.37437 0.76925 1.10366
 C4061 C 0.39927 0.74531 1.10164
 N4062 N 0.38804 0.73347 1.09236
 N4063 N 0.39448 0.71748 1.08595
 C4064 C 0.41245 0.71266 1.08847
 N4065 N 0.42371 0.72451 1.09770
 N4066 N 0.41725 0.74049 1.10418
 C4067 C 0.41952 0.69480 1.08138
 C4068 C 0.43859 0.69105 1.08108
 C4069 C 0.44518 0.67418 1.07436
 C4070 C 0.43286 0.66061 1.06791
 C4071 C 0.41379 0.66436 1.06830
 C4072 C 0.40721 0.68126 1.07487
 H4073 H 0.41606 0.76940 1.12549
 H4074 H 0.40407 0.79809 1.13753
 H4075 H 0.35354 0.78962 1.10626
 H4076 H 0.36594 0.76130 1.09418
 H4077 H 0.44846 0.70121 1.08589
 H4078 H 0.45997 0.67184 1.07402
 H4079 H 0.40388 0.65411 1.06378
 H4080 H 0.39243 0.68363 1.07503
 C4081 C 0.89201 0.73672 0.89226
 C4082 C 0.87311 0.73241 0.89367
 C4083 C 0.86632 0.71568 0.88687
 C4084 C 0.87824 0.70289 0.87843
 C4085 C 0.89713 0.70717 0.87702
 C4086 C 0.90396 0.72388 0.88390
 C4087 C 0.89915 0.75455 0.89938
 N4088 N 0.91754 0.75837 0.89915
 N4089 N 0.92389 0.77443 0.90548
 C4090 C 0.91213 0.78739 0.91228
 N4091 N 0.89375 0.78356 0.91251
 N4092 N 0.88740 0.76749 0.90621
 C4093 C 0.91914 0.80533 0.91923
 C4094 C 0.90675 0.81920 0.92487
 C4095 C 0.91329 0.83615 0.93133
 C4096 C 0.93238 0.83965 0.93238
 C4097 C 0.94478 0.82579 0.92677
 C4098 C 0.93823 0.80883 0.92025
 H4099 H 0.86350 0.74197 0.90000
 H4100 H 0.85166 0.71291 0.88794
 H4101 H 0.90669 0.69751 0.87078
 H4102 H 0.91859 0.72673 0.88260
 H4103 H 0.89196 0.81704 0.92418
 H4104 H 0.90337 0.84665 0.93525
 H4105 H 0.95956 0.82798 0.92762
 H4106 H 0.94817 0.79845 0.91609
 C4107 C 0.89195 0.23675 0.39236
 C4108 C 0.87305 0.23247 0.39379
 C4109 C 0.86622 0.21575 0.38700
 C4110 C 0.87810 0.20294 0.37854
 C4111 C 0.89701 0.20718 0.37712
 C4112 C 0.90387 0.22388 0.38399
 C4113 C 0.89913 0.25458 0.39945
 N4114 N 0.91753 0.25835 0.39921
 N4115 N 0.92393 0.27442 0.40551
 C4116 C 0.91219 0.28740 0.41230
 N4117 N 0.89380 0.28362 0.41255
 N4118 N 0.88741 0.26755 0.40627
 C4119 C 0.91924 0.30534 0.41923
 C4120 C 0.90689 0.31924 0.42485
 C4121 C 0.91347 0.33619 0.43131
 C4122 C 0.93256 0.33964 0.43237
 C4123 C 0.94493 0.32575 0.42677
 C4124 C 0.93835 0.30880 0.42026
 H4125 H 0.86346 0.24205 0.40012
 H4126 H 0.85155 0.21301 0.38808
 H4127 H 0.90654 0.19750 0.37088
 H4128 H 0.91851 0.22670 0.38267
 H4129 H 0.89209 0.31711 0.42416
 H4130 H 0.90357 0.34671 0.43521
 H4131 H 0.95971 0.32791 0.42763
 H4132 H 0.94826 0.29839 0.41611
 C4133 C 0.39134 0.73715 0.39092
 C4134 C 0.37380 0.73077 0.39619
 C4135 C 0.36689 0.71413 0.38932
 C4136 C 0.37724 0.70334 0.37674
 C4137 C 0.39490 0.70990 0.37153
 C4138 C 0.40184 0.72648 0.37859
 C4139 C 0.39855 0.75489 0.39817
 N4140 N 0.41653 0.75972 0.39567
 N4141 N 0.42296 0.77571 0.40214
 C4142 C 0.41165 0.78758 0.41130
 N4143 N 0.39368 0.78275 0.41377
 N4144 N 0.38728 0.76674 0.40738
 C4145 C 0.41871 0.80545 0.41835
 C4146 C 0.40639 0.81906 0.42469
 C4147 C 0.41298 0.83598 0.43120
 C4148 C 0.43206 0.83966 0.43170
 C4149 C 0.44439 0.82601 0.42544
 C4150 C 0.43779 0.80913 0.41878
 H4151 H 0.36533 0.73866 0.40568
 H4152 H 0.35317 0.71016 0.39365
 H4153 H 0.40373 0.70218 0.36230
 H4154 H 0.41545 0.73098 0.37426
 H4155 H 0.39160 0.81675 0.42442
 H4156 H 0.40307 0.84630 0.43557
 H4157 H 0.45917 0.82829 0.42588
 H4158 H 0.44766 0.79890 0.41411
 C4159 C 0.39195 0.23694 0.89157
 C4160 C 0.40238 0.22626 0.87918
 C4161 C 0.39538 0.20969 0.87214
 C4162 C 0.37774 0.20315 0.87743
 C4163 C 0.36747 0.21394 0.89008
 C4164 C 0.37443 0.23057 0.89693
 C4165 C 0.39916 0.25470 0.89877
 N4166 N 0.38789 0.26652 0.90801
 N4167 N 0.39427 0.28255 0.91439
 C4168 C 0.41222 0.28742 0.91186
 N4169 N 0.42353 0.27557 0.90266
 N4170 N 0.41713 0.25957 0.89622
 C4171 C 0.41924 0.30532 0.91890
 C4172 C 0.43831 0.30905 0.91931
 C4173 C 0.44486 0.32596 0.92596
 C4174 C 0.43250 0.33958 0.93223
 C4175 C 0.41343 0.33584 0.93175
 C4176 C 0.40689 0.31890 0.92524
 H4177 H 0.41596 0.23076 0.87478
 H4178 H 0.40414 0.20197 0.86285
 H4179 H 0.35377 0.21001 0.89448
 H4180 H 0.36601 0.23846 0.90647
 H4181 H 0.44821 0.29886 0.91463
 H4182 H 0.45964 0.32828 0.92639
 H4183 H 0.40349 0.34613 0.93613
 H4184 H 0.39211 0.31654 0.92499
 C4185 C 1.10836 0.73719 1.10908
 C4186 C 1.09796 0.72641 1.12141
 C4187 C 1.10508 0.70991 1.12850
 C4188 C 1.12282 0.70354 1.12333
 C4189 C 1.13305 0.71441 1.11073
 C4190 C 1.12596 0.73097 1.10382
 C4191 C 1.10104 0.75489 1.10183
 N4192 N 1.11226 0.76676 1.09258
 N4193 N 1.10580 0.78274 1.08617
 C4194 C 1.08782 0.78753 1.08867
 N4195 N 1.07657 0.77564 1.09787
 N4196 N 1.08305 0.75967 1.10435
 C4197 C 1.08073 0.80538 1.08158
 C4198 C 1.06165 0.80908 1.08120
 C4199 C 1.05503 0.82594 1.07448
 C4200 C 1.06735 0.83955 1.06811
 C4201 C 1.08643 0.83586 1.06858
 C4202 C 1.09303 0.81896 1.07515
 H4203 H 1.08431 0.73079 1.12572
 H4204 H 1.09635 0.70211 1.13776
 H4205 H 1.14682 0.71062 1.10641
 H4206 H 1.13437 0.73892 1.09433
 H4207 H 1.05179 0.79888 1.08595
 H4208 H 1.04025 0.82823 1.07408
 H4209 H 1.09633 0.84615 1.06413
 H4210 H 1.10782 0.81665 1.07538
 C4211 C 1.10894 0.23713 0.60867
 C4212 C 1.09858 0.22654 0.62118
 C4213 C 1.10563 0.21005 0.62834
 C4214 C 1.12326 0.20348 0.62305
 C4215 C 1.13346 0.21415 0.61025
 C4216 C 1.12644 0.23072 0.60328
 C4217 C 1.10164 0.25482 0.60138
 N4218 N 1.11283 0.26665 0.59204
 N4219 N 1.10636 0.28264 0.58566
 C4220 C 1.08840 0.28747 0.58827
 N4221 N 1.07718 0.27562 0.59754
 N4222 N 1.08368 0.25965 0.60400
 C4223 C 1.08128 0.30534 0.58125
 C4224 C 1.06219 0.30900 0.58092
 C4225 C 1.05554 0.32588 0.57428
 C4226 C 1.06782 0.33954 0.56794
 C4227 C 1.08691 0.33588 0.56837
 C4228 C 1.09355 0.31897 0.57486
 H4229 H 1.08500 0.23106 0.62560
 H4230 H 1.09689 0.20241 0.63772
 H4231 H 1.14714 0.21016 0.60584
 H4232 H 1.13481 0.23854 0.59364
 H4233 H 1.05236 0.29877 0.58564
 H4234 H 1.04074 0.32814 0.57390
 H4235 H 1.09678 0.34621 0.56395
 H4236 H 1.10834 0.31667 0.57506
 C4237 C 0.60782 0.73635 0.60769
 C4238 C 0.60646 0.73206 0.62661
 C4239 C 0.61332 0.71537 0.63343
 C4240 C 0.62175 0.70256 0.62151
 C4241 C 0.62314 0.70683 0.60260
 C4242 C 0.61621 0.72351 0.59575
 C4243 C 0.60059 0.75414 0.60054
 N4244 N 0.60077 0.75795 0.58213
 N4245 N 0.59431 0.77397 0.57577
 C4246 C 0.58742 0.78688 0.58755
 N4247 N 0.58724 0.78305 0.60594
 N4248 N 0.59367 0.76703 0.61229
 C4249 C 0.58033 0.80478 0.58054
 C4250 C 0.57457 0.81859 0.59294
 C4251 C 0.56802 0.83551 0.58641
 C4252 C 0.56698 0.83904 0.56732
 C4253 C 0.57268 0.82523 0.55490
 C4254 C 0.57930 0.80830 0.56144
 H4255 H 0.60012 0.74162 0.63623
 H4256 H 0.61227 0.71262 0.64810
 H4257 H 0.62939 0.69716 0.59305
 H4258 H 0.61748 0.72635 0.58110
 H4259 H 0.57526 0.81641 0.60775
 H4260 H 0.56403 0.84597 0.59634
 H4261 H 0.57185 0.82744 0.54011
 H4262 H 0.58354 0.79795 0.55149
 C4263 C 0.60811 0.23647 1.10813
 C4264 C 0.62558 0.23003 1.10269
 C4265 C 0.63255 0.21339 1.10957
 C4266 C 0.62232 0.20270 1.12233
 C4267 C 0.60471 0.20930 1.12766
 C4268 C 0.59772 0.22586 1.12060
 C4269 C 0.60088 0.25423 1.10095
 N4270 N 0.58293 0.25912 1.10362
 N4271 N 0.57650 0.27516 1.09727
 C4272 C 0.58776 0.28702 1.08805
 N4273 N 0.60570 0.28213 1.08540
 N4274 N 0.61211 0.26607 1.09168
 C4275 C 0.58071 0.30495 1.08114
 C4276 C 0.59303 0.31855 1.07480
 C4277 C 0.58646 0.33552 1.06839
 C4278 C 0.56739 0.33926 1.06797
 C4279 C 0.55505 0.32563 1.07426
 C4280 C 0.56164 0.30870 1.08083
 H4281 H 0.63397 0.23786 1.09308
 H4282 H 0.64621 0.20938 1.10512
 H4283 H 0.59597 0.20164 1.13701
 H4284 H 0.58417 0.23040 1.12505
 H4285 H 0.60782 0.31619 1.07499
 H4286 H 0.59638 0.34582 1.06400
 H4287 H 0.54027 0.32796 1.07390
 H4288 H 0.55176 0.29849 1.08552
 C4289 C 1.26371 1.10937 0.89196
 C4290 C 1.27672 1.09758 0.88362
 C4291 C 1.29332 1.10459 0.87665
 C4292 C 1.29735 1.12353 0.87793
 C4293 C 1.28440 1.13529 0.88636
 C4294 C 1.26777 1.12831 0.89326
 C4295 C 1.24597 1.10201 0.89915
 N4296 N 1.23289 1.11357 0.90604
 N4297 N 1.21690 1.10702 0.91239
 C4298 C 1.21331 1.08862 0.91216
 N4299 N 1.22641 1.07704 0.90530
 N4300 N 1.24239 1.08360 0.89892
 C4301 C 1.19545 1.08138 0.91917
 C4302 C 1.19216 1.06227 0.92011
 C4303 C 1.17529 1.05551 0.92671
 C4304 C 1.16132 1.06771 0.93248
 C4305 C 1.16460 1.08680 0.93150
 C4306 C 1.18146 1.09356 0.92496
 H4307 H 1.27407 1.08292 0.88240
 H4308 H 1.30312 1.09515 0.87043
 H4309 H 1.28698 1.14997 0.88734
 H4310 H 1.25808 1.13780 0.89957
 H4311 H 1.20264 1.05249 0.91583
 H4312 H 1.17326 1.04072 0.92749
 H4313 H 1.15401 1.09657 0.93554
 H4314 H 1.18346 1.10836 0.92433
 C4315 C 1.26390 0.60887 0.39122
 C4316 C 1.26785 0.62785 0.39227
 C4317 C 1.28449 0.63482 0.38538
 C4318 C 1.29757 0.62300 0.37723
 C4319 C 1.29364 0.60403 0.37617
 C4320 C 1.27702 0.59704 0.38312
 C4321 C 1.24617 0.60155 0.39848
 N4322 N 1.24261 0.58313 0.39844
 N4323 N 1.22664 0.57662 0.40492
 C4324 C 1.21355 0.58825 0.41170
 N4325 N 1.21713 0.60666 0.41174
 N4326 N 1.23309 0.61316 0.40529
 C4327 C 1.19571 0.58108 0.41884
 C4328 C 1.18179 0.59331 0.42467
 C4329 C 1.16493 0.58662 0.43130
 C4330 C 1.16160 0.56754 0.43233
 C4331 C 1.17551 0.55529 0.42653
 C4332 C 1.19238 0.56198 0.41985
 H4333 H 1.25807 0.63738 0.39838
 H4334 H 1.28697 0.64952 0.38618
 H4335 H 1.30353 0.59456 0.37015
 H4336 H 1.27445 0.58235 0.38210
 H4337 H 1.18382 0.60810 0.42401
 H4338 H 1.15439 0.59643 0.43537
 H4339 H 1.17344 0.54050 0.42735
 H4340 H 1.20281 0.55216 0.41554
 C4341 C 0.76421 1.10820 0.39237
 C4342 C 0.76838 1.12711 0.39375
 C4343 C 0.78507 1.13401 0.38694
 C4344 C 0.79799 1.12221 0.37851
 C4345 C 0.79385 1.10331 0.37711
 C4346 C 0.77717 1.09637 0.38400
 C4347 C 0.74642 1.10095 0.39953
 N4348 N 0.74270 1.08256 0.39927
 N4349 N 0.72666 1.07612 0.40565
 C4350 C 0.71366 1.08778 0.41255
 N4351 N 0.71740 1.10615 0.41280
 N4352 N 0.73342 1.11259 0.40645
 C4353 C 0.69575 1.08068 0.41956
 C4354 C 0.68186 1.09297 0.42536
 C4355 C 0.66493 1.08635 0.43187
 C4356 C 0.66148 1.06728 0.43280
 C4357 C 0.67536 1.05497 0.42703
 C4358 C 0.69230 1.06159 0.42047
 H4359 H 0.75874 1.13664 0.40007
 H4360 H 0.78772 1.14867 0.38799
 H4361 H 0.80360 1.09384 0.37088
 H4362 H 0.77443 1.08173 0.38272
 H4363 H 0.68398 1.10775 0.42477
 H4364 H 0.65441 1.09620 0.43591
 H4365 H 0.67320 1.04020 0.42779
 H4366 H 0.70270 1.05173 0.41618
 C4367 C 0.76447 0.60809 0.89230
 C4368 C 0.76862 0.62700 0.89363
 C4369 C 0.78531 0.63391 0.88680
 C4370 C 0.79823 0.62209 0.87840
 C4371 C 0.79410 0.60318 0.87704
 C4372 C 0.77743 0.59625 0.88395
 C4373 C 0.74669 0.60084 0.89949
 N4374 N 0.74299 0.58246 0.89930
 N4375 N 0.72697 0.57601 0.90572
 C4376 C 0.71395 0.58769 0.91258
 N4377 N 0.71767 0.60607 0.91277
 N4378 N 0.73369 0.61250 0.90638
 C4379 C 0.69606 0.58059 0.91963
 C4380 C 0.68215 0.59289 0.92539
 C4381 C 0.66523 0.58627 0.93192
 C4382 C 0.66181 0.56720 0.93294
 C4383 C 0.67571 0.55489 0.92723
 C4384 C 0.69264 0.56151 0.92064
 H4385 H 0.75897 0.63654 0.89994
 H4386 H 0.78795 0.64857 0.88782
 H4387 H 0.80386 0.59371 0.87083
 H4388 H 0.77470 0.58160 0.88270
 H4389 H 0.68425 0.60767 0.92472
 H4390 H 0.65470 0.59612 0.93592
 H4391 H 0.67358 0.54012 0.92805
 H4392 H 0.70306 0.55164 0.91640
 C4393 C 1.26276 0.88971 1.10925
 C4394 C 1.27573 0.90150 1.11763
 C4395 C 1.29233 0.89450 1.12463
 C4396 C 1.29638 0.87557 1.12335
 C4397 C 1.28347 0.86380 1.11489
 C4398 C 1.26684 0.87077 1.10795
 C4399 C 1.24505 0.89708 1.10198
 N4400 N 1.23198 0.88553 1.09506
 N4401 N 1.21602 0.89211 1.08864
 C4402 C 1.21246 0.91052 1.08883
 N4403 N 1.22555 0.92207 1.09572
 N4404 N 1.24150 0.91549 1.10217
 C4405 C 1.19465 0.91779 1.08174
 C4406 C 1.19142 0.93692 1.08075
 C4407 C 1.17458 0.94372 1.07411
 C4408 C 1.16059 0.93156 1.06834
 C4409 C 1.16381 0.91246 1.06935
 C4410 C 1.18064 0.90565 1.07593
 H4411 H 1.27307 0.91616 1.11884
 H4412 H 1.30210 0.90395 1.13086
 H4413 H 1.28608 0.84912 1.11390
 H4414 H 1.25717 0.86128 1.10161
 H4415 H 1.20192 0.94667 1.08504
 H4416 H 1.17260 0.95852 1.07330
 H4417 H 1.15319 0.90272 1.06530
 H4418 H 1.18259 0.89085 1.07659
 C4419 C 1.26368 0.39100 0.60902
 C4420 C 1.26781 0.37207 0.60779
 C4421 C 1.28454 0.36519 0.61454
 C4422 C 1.29754 0.37705 0.62275
 C4423 C 1.29343 0.39597 0.62402
 C4424 C 1.27671 0.40288 0.61719
 C4425 C 1.24588 0.39824 0.60186
 N4426 N 1.24221 0.41664 0.60198
 N4427 N 1.22618 0.42309 0.59558
 C4428 C 1.21313 0.41142 0.58880
 N4429 N 1.21681 0.39303 0.58868
 N4430 N 1.23284 0.38658 0.59506
 C4431 C 1.19525 0.41854 0.58173
 C4432 C 1.18133 0.40627 0.57596
 C4433 C 1.16444 0.41292 0.56938
 C4434 C 1.16105 0.43200 0.56835
 C4435 C 1.17495 0.44428 0.57409
 C4436 C 1.19186 0.43763 0.58072
 H4437 H 1.25810 0.36250 0.60162
 H4438 H 1.28717 0.35051 0.61359
 H4439 H 1.30325 0.40548 0.63008
 H4440 H 1.27401 0.41753 0.61835
 H4441 H 1.18341 0.39149 0.57662
 H4442 H 1.15390 0.40309 0.56536
 H4443 H 1.17285 0.45906 0.57326
 H4444 H 1.20228 0.44748 0.58498
 C4445 C 0.76357 0.89135 0.60833
 C4446 C 0.77650 0.90324 0.61666
 C4447 C 0.79320 0.89636 0.62355
 C4448 C 0.79740 0.87746 0.62220
 C4449 C 0.78451 0.86560 0.61382
 C4450 C 0.76779 0.87245 0.60700
 C4451 C 0.74576 0.89855 0.60114
 N4452 N 0.73280 0.88686 0.59425
 N4453 N 0.71676 0.89325 0.58786
 C4454 C 0.71298 0.91161 0.58807
 N4455 N 0.72595 0.92332 0.59494
 N4456 N 0.74199 0.91692 0.60135
 C4457 C 0.69506 0.91867 0.58102
 C4458 C 0.69157 0.93774 0.58006
 C4459 C 0.67462 0.94432 0.57348
 C4460 C 0.66076 0.93199 0.56774
 C4461 C 0.66425 0.91292 0.56870
 C4462 C 0.68120 0.90634 0.57523
 H4463 H 0.77372 0.91787 0.61790
 H4464 H 0.80294 0.90586 0.62975
 H4465 H 0.78720 0.85095 0.61280
 H4466 H 0.75817 0.86288 0.60071
 H4467 H 0.70195 0.94763 0.58434
 H4468 H 0.67243 0.95909 0.57270
 H4469 H 0.65376 0.90305 0.56467
 H4470 H 0.68335 0.89157 0.57585
 C4471 C 0.76471 0.39222 1.10800
 C4472 C 0.77748 0.38364 1.09611
 C4473 C 0.79418 0.37670 1.10299
 C4474 C 0.79852 0.37827 1.12187
 C4475 C 0.78580 0.38696 1.13372
 C4476 C 0.76910 0.39382 1.12688
 C4477 C 0.74684 0.39932 1.10088
 N4478 N 0.73395 0.40625 1.11265
 N4479 N 0.71783 0.41251 1.10635
 C4480 C 0.71388 0.41214 1.08798
 N4481 N 0.72678 0.40525 1.07618
 N4482 N 0.74291 0.39895 1.08250
 C4483 C 0.69586 0.41904 1.08104
 C4484 C 0.69224 0.42003 1.06195
 C4485 C 0.67521 0.42651 1.05549
 C4486 C 0.66139 0.43211 1.06797
 C4487 C 0.66500 0.43108 1.08704
 C4488 C 0.68203 0.42466 1.09350
 H4489 H 0.77456 0.38219 1.08149
 H4490 H 0.80377 0.37025 1.09349
 H4491 H 0.78859 0.38815 1.14837
 H4492 H 0.75960 0.40031 1.13646
 H4493 H 0.70260 0.41588 1.05196
 H4494 H 0.67293 0.42735 1.04071
 H4495 H 0.65455 0.43499 1.09703
 H4496 H 0.68428 0.42399 1.10829
 C4497 C 0.73601 1.10847 1.10841
 C4498 C 0.73156 1.10664 1.12726
 C4499 C 0.71486 1.11351 1.13413
 C4500 C 0.70225 1.12244 1.12236
 C4501 C 0.70667 1.12424 1.10351
 C4502 C 0.72333 1.11730 1.09660
 C4503 C 0.75383 1.10133 1.10119
 N4504 N 0.75772 1.10186 1.08281
 N4505 N 0.77378 1.09553 1.07638
 C4506 C 0.78667 1.08844 1.08807
 N4507 N 0.78278 1.08792 1.10645
 N4508 N 0.76671 1.09421 1.11286
 C4509 C 0.80462 1.08149 1.08099
 C4510 C 0.81848 1.07570 1.09334
 C4511 C 0.83542 1.06920 1.08674
 C4512 C 0.83891 1.06825 1.06763
 C4513 C 0.82507 1.07404 1.05527
 C4514 C 0.80812 1.08060 1.06188
 H4515 H 0.74098 1.09994 1.13676
 H4516 H 0.71199 1.11212 1.14876
 H4517 H 0.69714 1.13086 1.09407
 H4518 H 0.72630 1.11893 1.08201
 H4519 H 0.81632 1.07629 1.10815
 H4520 H 0.84591 1.06516 1.09664
 H4521 H 0.82725 1.07327 1.04047
 H4522 H 0.79774 1.08488 1.05197
 C4523 C 0.73581 0.60780 0.60738
 C4524 C 0.73143 0.60626 0.62627
 C4525 C 0.71469 0.61305 0.63308
 C4526 C 0.70193 0.62161 0.62120
 C4527 C 0.70626 0.62315 0.60231
 C4528 C 0.72299 0.61628 0.59546
 C4529 C 0.75368 0.60071 0.60025
 N4530 N 0.75757 0.60103 0.58186
 N4531 N 0.77368 0.59472 0.57553
 C4532 C 0.78660 0.58786 0.58733
 N4533 N 0.78270 0.58754 0.60570
 N4534 N 0.76659 0.59382 0.61202
 C4535 C 0.80460 0.58093 0.58036
 C4536 C 0.81844 0.57528 0.59280
 C4537 C 0.83544 0.56881 0.58631
 C4538 C 0.83901 0.56776 0.56723
 C4539 C 0.82519 0.57340 0.55478
 C4540 C 0.80818 0.57992 0.56127
 H4541 H 0.74096 0.59984 0.63586
 H4542 H 0.71189 0.61188 0.64774
 H4543 H 0.69662 0.62950 0.59278
 H4544 H 0.72589 0.61768 0.58083
 H4545 H 0.81622 0.57595 0.60760
 H4546 H 0.84590 0.56488 0.59628
 H4547 H 0.82744 0.57255 0.53999
 H4548 H 0.79782 0.58410 0.55129
 C4549 C 0.23683 1.10907 0.60911
 C4550 C 0.23243 1.10727 0.62797
 C4551 C 0.21579 1.11421 0.63490
 C4552 C 0.20318 1.12319 0.62317
 C4553 C 0.20754 1.12497 0.60431
 C4554 C 0.22415 1.11795 0.59734
 C4555 C 0.25459 1.10184 0.60182
 N4556 N 0.25840 1.10234 0.58342
 N4557 N 0.27441 1.09593 0.57694
 C4558 C 0.28731 1.08878 0.58858
 N4559 N 0.28348 1.08828 0.60697
 N4560 N 0.26747 1.09465 0.61345
 C4561 C 0.30519 1.08174 0.58142
 C4562 C 0.31908 1.07587 0.59370
 C4563 C 0.33596 1.06930 0.58703
 C4564 C 0.33937 1.06835 0.56791
 C4565 C 0.32550 1.07420 0.55561
 C4566 C 0.30861 1.08084 0.56229
 H4567 H 0.24186 1.10053 0.63744
 H4568 H 0.21296 1.11284 0.64954
 H4569 H 0.19801 1.13163 0.59489
 H4570 H 0.22707 1.11956 0.58274
 H4571 H 0.31698 1.07646 0.60852
 H4572 H 0.34647 1.06520 0.59688
 H4573 H 0.32762 1.07344 0.54080
 H4574 H 0.29821 1.08518 0.55243
 C4575 C 0.23756 0.61056 1.10904
 C4576 C 0.22464 0.59877 1.11751
 C4577 C 0.20809 0.60578 1.12462
 C4578 C 0.20404 0.62471 1.12336
 C4579 C 0.21691 0.63648 1.11483
 C4580 C 0.23349 0.62950 1.10779
 C4581 C 0.25521 0.60319 1.10164
 N4582 N 0.26826 0.61474 1.09467
 N4583 N 0.28416 0.60816 1.08812
 C4584 C 0.28770 0.58975 1.08822
 N4585 N 0.27463 0.57819 1.09516
 N4586 N 0.25874 0.58477 1.10174
 C4587 C 0.30546 0.58247 1.08102
 C4588 C 0.30864 0.56334 1.07993
 C4589 C 0.32545 0.55654 1.07323
 C4590 C 0.33948 0.56869 1.06750
 C4591 C 0.33629 0.58780 1.06859
 C4592 C 0.31949 0.59461 1.07523
 H4593 H 0.22730 0.58411 1.11869
 H4594 H 0.19836 0.59633 1.13091
 H4595 H 0.21430 0.65116 1.11387
 H4596 H 0.24312 0.63900 1.10139
 H4597 H 0.29813 0.55360 1.08419
 H4598 H 0.32740 0.54174 1.07235
 H4599 H 0.34692 0.59753 1.06457
 H4600 H 0.31757 0.60941 1.07596
 C4601 C 0.73579 0.89307 0.89180
 C4602 C 0.72308 0.88447 0.90374
 C4603 C 0.70644 0.87739 0.89692
 C4604 C 0.70208 0.87882 0.87803
 C4605 C 0.71470 0.88754 0.86612
 C4606 C 0.73137 0.89454 0.87291
 C4607 C 0.75360 0.90030 0.89893
 N4608 N 0.76648 0.90726 0.88717
 N4609 N 0.78256 0.91360 0.89352
 C4610 C 0.78646 0.91327 0.91190
 N4611 N 0.77356 0.90635 0.92367
 N4612 N 0.75748 0.89998 0.91732
 C4613 C 0.80443 0.92021 0.91890
 C4614 C 0.80798 0.92115 0.93801
 C4615 C 0.82498 0.92762 0.94455
 C4616 C 0.83884 0.93326 0.93215
 C4617 C 0.83530 0.93230 0.91305
 C4618 C 0.81830 0.92589 0.90651
 H4619 H 0.72600 0.88312 0.91837
 H4620 H 0.69690 0.87095 0.90647
 H4621 H 0.71187 0.88864 0.85147
 H4622 H 0.74082 0.90106 0.86330
 H4623 H 0.79760 0.91696 0.94795
 H4624 H 0.82720 0.92841 0.95935
 H4625 H 0.84579 0.93624 0.90313
 H4626 H 0.81610 0.92526 0.89171
 C4627 C 0.73601 0.39306 0.39165
 C4628 C 0.73153 0.39472 0.37279
 C4629 C 0.71488 0.38770 0.36597
 C4630 C 0.70233 0.37878 0.37782
 C4631 C 0.70675 0.37717 0.39668
 C4632 C 0.72338 0.38427 0.40354
 C4633 C 0.75381 0.40030 0.39880
 N4634 N 0.75773 0.39988 0.41718
 N4635 N 0.77380 0.40625 0.42353
 C4636 C 0.78666 0.41327 0.41177
 N4637 N 0.78273 0.41369 0.39340
 N4638 N 0.76665 0.40736 0.38706
 C4639 C 0.80464 0.42021 0.41877
 C4640 C 0.81850 0.42588 0.40638
 C4641 C 0.83550 0.43228 0.41291
 C4642 C 0.83905 0.43325 0.43200
 C4643 C 0.82520 0.42763 0.44441
 C4644 C 0.80819 0.42116 0.43788
 H4645 H 0.74092 0.40138 0.36323
 H4646 H 0.71200 0.38894 0.35134
 H4647 H 0.69727 0.37057 0.40619
 H4648 H 0.72635 0.38277 0.41814
 H4649 H 0.81630 0.42525 0.39157
 H4650 H 0.84599 0.43622 0.40297
 H4651 H 0.82742 0.42842 0.45921
 H4652 H 0.79781 0.41697 0.44782
 C4653 C 0.23553 0.89357 0.39204
 C4654 C 0.23100 0.89525 0.37320
 C4655 C 0.21435 0.88822 0.36641
 C4656 C 0.20184 0.87928 0.37827
 C4657 C 0.20630 0.87764 0.39712
 C4658 C 0.22294 0.88475 0.40394
 C4659 C 0.25335 0.90083 0.39913
 N4660 N 0.25734 0.90041 0.41749
 N4661 N 0.27344 0.90680 0.42378
 C4662 C 0.28623 0.91384 0.41196
 N4663 N 0.28222 0.91427 0.39362
 N4664 N 0.26613 0.90792 0.38734
 C4665 C 0.30424 0.92079 0.41888
 C4666 C 0.31805 0.92645 0.40642
 C4667 C 0.33509 0.93282 0.41287
 C4668 C 0.33875 0.93376 0.43194
 C4669 C 0.32493 0.92817 0.44442
 C4670 C 0.30789 0.92173 0.43797
 H4671 H 0.24036 0.90194 0.36362
 H4672 H 0.21145 0.88948 0.35178
 H4673 H 0.19685 0.87100 0.40663
 H4674 H 0.22596 0.88323 0.41854
 H4675 H 0.31577 0.92583 0.39163
 H4676 H 0.34554 0.93674 0.40288
 H4677 H 0.32723 0.92895 0.45920
 H4678 H 0.29755 0.91756 0.44796
 C4679 C 0.23606 0.39294 0.89150
 C4680 C 0.23157 0.39461 0.87265
 C4681 C 0.21492 0.38759 0.86584
 C4682 C 0.20238 0.37866 0.87769
 C4683 C 0.20682 0.37703 0.89654
 C4684 C 0.22345 0.38414 0.90339
 C4685 C 0.25386 0.40020 0.89864
 N4686 N 0.25778 0.39979 0.91702
 N4687 N 0.27385 0.40618 0.92337
 C4688 C 0.28670 0.41322 0.91161
 N4689 N 0.28276 0.41364 0.89324
 N4690 N 0.26669 0.40729 0.88690
 C4691 C 0.30467 0.42018 0.91861
 C4692 C 0.31852 0.42588 0.90621
 C4693 C 0.33552 0.43229 0.91275
 C4694 C 0.33907 0.43325 0.93184
 C4695 C 0.32522 0.42761 0.94425
 C4696 C 0.30822 0.42113 0.93771
 H4697 H 0.24095 0.40129 0.86308
 H4698 H 0.21203 0.38884 0.85121
 H4699 H 0.19735 0.37041 0.90605
 H4700 H 0.22643 0.38263 0.91799
 H4701 H 0.31632 0.42525 0.89141
 H4702 H 0.34601 0.43624 0.90281
 H4703 H 0.32744 0.42840 0.95905
 H4704 H 0.29784 0.41693 0.94766
   
