data_POSCAR
  _audit_creation_date              2014-09-24
  _audit_creation_method            'ToBaCCo'
  _symmetry_space_group_name_H-M    'P1'
  _symmetry_Int_Tables_number       1
  _symmetry_cell_setting            triclinic
  loop_
  _symmetry_equiv_pos_as_xyz
 x,y,z
_cell_length_a 44.5912
_cell_length_b 44.1873
_cell_length_c 44.3663
_cell_angle_alpha 90.329600
_cell_angle_beta 89.814000
_cell_angle_gamma 90.037300
loop_
  _atom_site_label
  _atom_site_type_symbol
  _atom_site_fract_x
  _atom_site_fract_y
  _atom_site_fract_z
C1 C 0.34293 1.35873 0.31160
 C2 C 0.36621 1.34070 0.32306
 C3 C 0.36074 1.31946 0.34606
 C4 C 0.33173 1.31752 0.35882
 C5 C 0.30804 1.33449 0.34670
 C6 C 0.31380 1.35448 0.32294
 H7 H 0.38859 1.34274 0.31384
 H8 H 0.32711 1.30159 0.37670
 H9 H 0.29532 1.36745 0.31381
 C10 C 0.35803 0.87566 0.83250
 C11 C 0.33161 0.87674 0.84983
 C12 C 0.32385 0.85263 0.86902
 C13 C 0.34328 0.82753 0.87066
 C14 C 0.36974 0.82623 0.85343
 C15 C 0.37695 0.85046 0.83463
 H16 H 0.31711 0.89624 0.84792
 H17 H 0.33764 0.80884 0.88524
 H18 H 0.39749 0.84963 0.82163
 C19 C 0.85610 1.37366 0.82702
 C20 C 0.82935 1.37439 0.84387
 C21 C 0.82336 1.35231 0.86588
 C22 C 0.84496 1.32969 0.87102
 C23 C 0.87186 1.32877 0.85449
 C24 C 0.87720 1.35086 0.83255
 H25 H 0.81316 1.39200 0.83936
 H26 H 0.84081 1.31271 0.88799
 H27 H 0.89796 1.35034 0.81986
 C28 C 0.85945 0.87570 0.33196
 C29 C 0.83299 0.87640 0.34923
 C30 C 0.82565 0.85225 0.36834
 C31 C 0.84532 0.82755 0.37030
 C32 C 0.87191 0.82655 0.35329
 C33 C 0.87881 0.85078 0.33426
 H34 H 0.81804 0.89557 0.34739
 H35 H 0.83965 0.80897 0.38500
 H36 H 0.89939 0.85018 0.32130
 C37 C 0.62994 0.64243 0.32034
 C38 C 0.66079 0.63618 0.32260
 C39 C 0.67692 0.64430 0.34863
 C40 C 0.66206 0.65897 0.37244
 C41 C 0.63165 0.66646 0.37005
 C42 C 0.61573 0.65813 0.34418
 H43 H 0.67229 0.62439 0.30451
 H44 H 0.67438 0.66565 0.39240
 H45 H 0.59214 0.66386 0.34288
 C46 C 0.65227 0.14354 0.82480
 C47 C 0.67670 0.13435 0.84263
 C48 C 0.67747 0.14091 0.87374
 C49 C 0.65383 0.15789 0.88646
 C50 C 0.62949 0.16708 0.86896
 C51 C 0.62844 0.15927 0.83831
 H52 H 0.69483 0.12183 0.83216
 H53 H 0.65403 0.16393 0.91018
 H54 H 0.60972 0.16672 0.82472
 C55 C 1.12736 0.64150 0.82057
 C56 C 1.11366 0.65905 0.84337
 C57 C 1.13040 0.66945 0.86808
 C58 C 1.16100 0.66236 0.86994
 C59 C 1.17514 0.64601 0.84682
 C60 C 1.15823 0.63570 0.82220
 H61 H 1.08993 0.66418 0.84226
 H62 H 1.17398 0.67042 0.88897
 H63 H 1.16904 0.62231 0.80481
 C64 C 1.14956 0.14790 0.32586
 C65 C 1.17169 0.13162 0.34173
 C66 C 1.17257 0.13310 0.37372
 C67 C 1.14940 0.14867 0.38914
 C68 C 1.12703 0.16373 0.37337
 C69 C 1.12772 0.16405 0.34208
 H70 H 1.18893 0.11961 0.32926
 H71 H 1.14890 0.14983 0.41355
 H72 H 1.11044 0.17651 0.33025
 C73 C 0.62330 1.35815 0.66633
 C74 C 0.61879 1.33575 0.64433
 C75 C 0.63831 1.33305 0.61962
 C76 C 0.66222 1.35340 0.61667
 C77 C 0.66727 1.37605 0.63851
 C78 C 0.64740 1.37836 0.66315
 H79 H 0.60021 1.32017 0.64671
 H80 H 0.67716 1.35090 0.59759
 H81 H 0.65089 1.39574 0.68005
 C82 C 0.63115 0.85152 1.17493
 C83 C 0.65480 0.87228 1.17155
 C84 C 0.67355 0.87137 1.14606
 C85 C 0.66823 0.84951 1.12356
 C86 C 0.64466 0.82861 1.12644
 C87 C 0.62621 0.82986 1.15218
 H88 H 0.65889 0.88911 1.18884
 H89 H 0.68240 0.84869 1.10374
 H90 H 0.60790 0.81400 1.15464
 C91 C 1.12257 1.36944 1.16633
 C92 C 1.14149 1.39191 1.15428
 C93 C 1.16589 1.38423 1.13569
 C94 C 1.16896 1.35405 1.12619
 C95 C 1.14914 1.33157 1.13607
 C96 C 1.12679 1.33904 1.15740
 H97 H 1.13867 1.41525 1.16143
 H98 H 1.18643 1.34788 1.11038
 H99 H 1.11202 1.32159 1.16598
 C100 C 1.13371 0.84992 0.67669
 C101 C 1.12942 0.82719 0.65478
 C102 C 1.14763 0.82579 0.62883
 C103 C 1.17033 0.84751 0.62504
 C104 C 1.17495 0.87035 0.64668
 C105 C 1.15643 0.87149 0.67228
 H106 H 1.11184 0.81065 0.65802
 H107 H 1.18433 0.84664 0.60509
 H108 H 1.16007 0.88908 0.68891
 C109 C 0.34962 0.63857 0.67635
 C110 C 0.32196 0.63204 0.66272
 C111 C 0.30491 0.65539 0.64968
 C112 C 0.31533 0.68540 0.65226
 C113 C 0.34308 0.69197 0.66538
 C114 C 0.36051 0.66842 0.67688
 H115 H 0.31434 0.60879 0.66181
 H116 H 0.30244 0.70392 0.64298
 H117 H 0.38204 0.67340 0.68705
 C118 C 0.35596 0.14535 1.18444
 C119 C 0.33934 0.12696 1.16486
 C120 C 0.33416 0.13611 1.13497
 C121 C 0.34662 0.16332 1.12439
 C122 C 0.36490 0.18075 1.14345
 C123 C 0.36879 0.17203 1.17349
 H124 H 0.32974 0.10601 1.17306
 H125 H 0.34372 0.16980 1.10105
 H126 H 0.38279 0.18568 1.18820
 C127 C 0.85766 0.62738 1.17208
 C128 C 0.87080 0.65634 1.17280
 C129 C 0.86234 0.67874 1.15213
 C130 C 0.84032 0.67200 1.13059
 C131 C 0.82646 0.64343 1.12995
 C132 C 0.83541 0.62125 1.15047
 H133 H 0.88793 0.66159 1.18921
 H134 H 0.83332 0.68920 1.11483
 H135 H 0.82494 0.59915 1.14954
 C136 C 0.84241 0.15642 0.70053
 C137 C 0.81266 0.15504 0.69018
 C138 C 0.80525 0.16305 0.66056
 C139 C 0.82712 0.17675 0.64241
 C140 C 0.85607 0.18194 0.65374
 C141 C 0.86417 0.17004 0.68202
 H142 H 0.79564 0.14467 0.70424
 H143 H 0.82136 0.18445 0.62001
 H144 H 0.88685 0.17295 0.69019
 C145 C 1.34966 0.35306 0.67452
 C146 C 1.32520 0.36189 0.65685
 C147 C 1.32416 0.35460 0.62605
 C148 C 1.34700 0.33639 0.61348
 C149 C 1.37202 0.32813 0.63078
 C150 C 1.37358 0.33762 0.66104
 H151 H 1.30731 0.37496 0.66709
 H152 H 1.34595 0.32978 0.58995
 H153 H 1.39241 0.33093 0.67487
 C154 C 1.35619 0.84903 1.18796
 C155 C 1.36583 0.82597 1.16792
 C156 C 1.34526 0.81074 1.14951
 C157 C 1.31515 0.81942 1.15027
 C158 C 1.30533 0.84297 1.16882
 C159 C 1.32570 0.85779 1.18787
 H160 H 1.38906 0.81887 1.16756
 H161 H 1.29904 0.80821 1.13575
 H162 H 1.31770 0.87588 1.20236
 C163 C 0.85026 0.35922 1.17436
 C164 C 0.82574 0.36806 1.15642
 C165 C 0.82561 0.36262 1.12522
 C166 C 0.84949 0.34643 1.11219
 C167 C 0.87391 0.33736 1.12968
 C168 C 0.87472 0.34466 1.16049
 H169 H 0.80706 0.37994 1.16664
 H170 H 0.84935 0.34110 1.08832
 H171 H 0.89362 0.33728 1.17384
 C172 C 0.87539 0.87055 0.67287
 C173 C 0.89250 0.85433 0.65155
 C174 C 0.87876 0.83783 0.62832
 C175 C 0.84752 0.83838 0.62582
 C176 C 0.83011 0.85585 0.64580
 C177 C 0.84402 0.87180 0.66949
 H178 H 0.91665 0.85320 0.65393
 H179 H 0.83673 0.82575 0.60787
 H180 H 0.83047 0.88452 0.68542
 C181 C 0.63683 0.62084 0.66372
 C182 C 0.61779 0.64601 0.66160
 C183 C 0.62476 0.67007 0.64243
 C184 C 0.65095 0.66856 0.62488
 C185 C 0.67030 0.64359 0.62666
 C186 C 0.66298 0.61965 0.64603
 H187 H 0.59748 0.64701 0.67498
 H188 H 0.65663 0.68699 0.60999
 H189 H 0.67771 0.60029 0.64770
 C190 C 0.64471 1.13135 1.17439
 C191 C 0.67122 1.13033 1.15723
 C192 C 0.67807 1.15332 1.13662
 C193 C 0.65776 1.17733 1.13295
 C194 C 0.63094 1.17883 1.14976
 C195 C 0.62475 1.15563 1.17055
 H196 H 0.68663 1.11171 1.16025
 H197 H 0.66314 1.19490 1.11697
 H198 H 0.60419 1.15627 1.18357
 C199 C 0.14154 0.62662 1.17103
 C200 C 0.12285 0.65225 1.16933
 C201 C 0.12896 0.67575 1.14894
 C202 C 0.15432 0.67332 1.13017
 C203 C 0.17338 0.64814 1.13160
 C204 C 0.16669 0.62477 1.15182
 H205 H 0.10331 0.65398 1.18371
 H206 H 0.15968 0.69112 1.11445
 H207 H 0.18126 0.60522 1.15279
 C208 C 0.14288 1.12773 0.67189
 C209 C 0.12268 1.15160 0.66722
 C210 C 0.12895 1.17450 0.64618
 C211 C 0.15604 1.17306 0.62987
 C212 C 0.17654 1.14935 0.63427
 C213 C 0.16964 1.12664 0.65517
 H214 H 0.10191 1.15222 0.67991
 H215 H 0.16146 1.19040 0.61366
 H216 H 0.18525 1.10831 0.65886
 C217 C 1.36878 0.64833 0.32458
 C218 C 1.37274 0.67087 0.34665
 C219 C 1.35441 0.67207 0.37258
 C220 C 1.33183 0.65002 0.37604
 C221 C 1.32747 0.62730 0.35414
 C222 C 1.34618 0.62654 0.32864
 H223 H 1.39023 0.68746 0.34333
 H224 H 1.31763 0.65051 0.39586
 H225 H 1.34284 0.60905 0.31184
 C226 C 1.37673 1.14236 0.83184
 C227 C 1.35406 1.12070 0.83631
 C228 C 1.33494 1.12264 0.86146
 C229 C 1.33900 1.14609 0.88249
 C230 C 1.36119 1.16820 0.87825
 C231 C 1.38015 1.16588 0.85293
 H232 H 1.35098 1.10256 0.82013
 H233 H 1.32451 1.14744 0.90206
 H234 H 1.39757 1.18246 0.84921
 C235 C 0.86720 0.65024 0.82115
 C236 C 0.87202 0.67243 0.84348
 C237 C 0.85403 0.67359 0.86958
 C238 C 0.83101 0.65218 0.87315
 C239 C 0.82581 0.62989 0.85107
 C240 C 0.84413 0.62899 0.82529
 H241 H 0.88988 0.68871 0.84046
 H242 H 0.81717 0.65290 0.89322
 H243 H 0.84005 0.61184 0.80832
 C244 C 0.88167 1.13517 0.33412
 C245 C 0.85829 1.11421 0.33799
 C246 C 0.83875 1.11653 0.36282
 C247 C 0.84300 1.13992 0.38394
 C248 C 0.86607 1.16109 0.38018
 C249 C 0.88557 1.15828 0.35549
 H250 H 0.85505 1.09629 0.32158
 H251 H 0.82809 1.14206 0.40312
 H252 H 0.90357 1.17444 0.35250
 C253 C 0.65974 0.34559 0.29941
 C254 C 0.66829 0.36417 0.32369
 C255 C 0.67667 0.35137 0.35146
 C256 C 0.67330 0.32000 0.35594
 C257 C 0.66357 0.30122 0.33211
 C258 C 0.65927 0.31414 0.30358
 H259 H 0.66984 0.38843 0.32068
 H260 H 0.67822 0.31046 0.37781
 H261 H 0.65253 0.29973 0.28495
 C262 C 0.64209 0.87442 0.83225
 C263 C 0.66817 0.87839 0.84943
 C264 C 0.67933 0.85470 0.86710
 C265 C 0.66369 0.82696 0.86787
 C266 C 0.63744 0.82279 0.85095
 C267 C 0.62683 0.84673 0.83335
 H268 H 0.68016 0.89965 0.84828
 H269 H 0.67224 0.80846 0.88121
 H270 H 0.60654 0.84371 0.82036
 C271 C 0.12761 0.37480 0.83224
 C272 C 0.12621 0.34279 0.83145
 C273 C 0.14199 0.32566 0.85302
 C274 C 0.15977 0.34055 0.87464
 C275 C 0.16032 0.37215 0.87628
 C276 C 0.14336 0.38887 0.85592
 H277 H 0.11387 0.33119 0.81386
 H278 H 0.17300 0.32750 0.89037
 H279 H 0.14463 0.41333 0.85719
 C280 C 0.14485 0.87037 0.32960
 C281 C 0.13189 0.84130 0.32865
 C282 C 0.14193 0.81824 0.34786
 C283 C 0.16558 0.82429 0.36775
 C284 C 0.17929 0.85293 0.36847
 C285 C 0.16848 0.87588 0.34982
 H286 H 0.11361 0.83656 0.31336
 H287 H 0.17386 0.80646 0.38213
 H288 H 0.17881 0.89804 0.35081
 O289 O 0.96298 0.88195 0.86579
 O290 O 0.96003 0.84450 0.83283
 C291 C 0.95195 0.87064 0.84191
 C292 C 0.92966 0.88835 0.82464
 C293 C 0.92516 0.88284 0.79383
 H294 H 0.93813 0.86549 0.78237
 O295 O 1.03737 1.09380 0.84346
 O296 O 1.03813 1.12434 0.80439
 C297 C 1.04721 1.10053 0.81748
 C298 C 1.07035 1.08104 0.80305
 C299 C 1.08229 1.08828 0.77461
 H300 H 1.07324 1.10732 0.76245
 O301 O 0.84959 0.96961 0.90546
 O302 O 0.81389 0.96790 0.87129
 C303 C 0.82498 0.95862 0.89594
 C304 C 0.81004 0.93400 0.91331
 C305 C 0.78441 0.91879 0.90206
 H306 H 0.77464 0.92560 0.88086
 O307 O 1.15084 1.00960 0.89069
 O308 O 1.18551 1.00320 0.85566
 C309 C 1.17580 1.01697 0.87894
 C310 C 1.19346 1.04221 0.89198
 C311 C 1.22223 1.04855 0.88080
 H312 H 1.23174 1.03433 0.86327
 O313 O 0.88847 0.85181 0.99428
 O314 O 0.85212 0.81830 0.99889
 C315 C 0.87630 0.82696 0.98645
 C316 C 0.88973 0.80877 0.96165
 C317 C 0.87706 0.78093 0.95287
 H318 H 0.85812 0.77196 0.96527
 O319 O 1.12233 1.14453 0.95756
 O320 O 1.15953 1.17713 0.95356
 C321 C 1.13433 1.16712 0.94462
 C322 C 1.11920 1.18118 0.91834
 C323 C 1.13113 1.20713 0.90466
 H324 H 1.15111 1.21766 0.91379
 O325 O 0.89292 1.02474 0.86042
 O326 O 0.85613 1.02490 0.82734
 C327 C 0.88140 1.03488 0.83638
 C328 C 0.89631 1.05975 0.81946
 C329 C 0.87982 1.07535 0.79773
 H330 H 0.85720 1.06810 0.79254
 O331 O 1.10601 0.94929 0.85523
 O332 O 1.14040 0.94323 0.81989
 C333 C 1.11538 0.93597 0.83154
 C334 C 1.09706 0.91157 0.81781
 C335 C 1.10456 0.89905 0.78953
 H336 H 1.12376 0.90783 0.77752
 O337 O 1.01983 0.84005 0.90823
 O338 O 1.01679 0.80173 0.87633
 C339 C 1.02838 0.81400 0.89957
 C340 C 1.05242 0.79844 0.91664
 C341 C 1.06210 0.76906 0.90871
 H342 H 1.05161 0.75709 0.89018
 O343 O 0.98515 1.14475 0.88279
 O344 O 0.98621 1.17599 0.84417
 C345 C 0.97659 1.16897 0.87021
 C346 C 0.95453 1.18863 0.88568
 C347 C 0.94733 1.21713 0.87399
 H348 H 0.95880 1.22524 0.85406
 O349 O 0.86552 1.11965 0.96831
 O350 O 0.83324 1.15734 0.96554
 C351 C 0.84139 1.13070 0.95809
 C352 C 0.82229 1.11228 0.93779
 C353 C 0.79283 1.12130 0.93208
 H354 H 0.78412 1.14170 0.94256
 O355 O 1.14264 0.88157 0.98487
 O356 O 1.17494 0.84397 0.98803
 C357 C 1.16616 0.86825 0.97559
 C358 C 1.18292 0.88063 0.94951
 C359 C 1.21053 0.86811 0.94079
 H360 H 1.22016 0.85003 0.95398
 O361 O 0.97844 1.09947 0.84677
 O362 O 0.97870 1.13061 0.80814
 C363 C 0.96663 1.10894 0.82255
 C364 C 0.93763 1.09581 0.81216
 C365 C 0.92035 1.11104 0.79032
 H366 H 0.92874 1.13154 0.78001
 O367 O 1.02122 0.87687 0.86326
 O368 O 1.01805 0.83875 0.83110
 C369 C 1.03010 0.86343 0.83945
 C370 C 1.05513 0.87630 0.82169
 C371 C 1.06283 0.86408 0.79344
 H372 H 1.04967 0.84567 0.78421
 O373 O 1.14709 0.95095 0.89676
 O374 O 1.18168 0.94460 0.86167
 C375 C 1.17074 0.93795 0.88729
 C376 C 1.18521 0.91452 0.90616
 C377 C 1.21293 0.90171 0.89781
 H378 H 1.22407 0.90939 0.87757
 O379 O 0.85167 1.02926 0.90107
 O380 O 0.81459 1.02801 0.86835
 C381 C 0.82729 1.04013 0.89102
 C382 C 0.81468 1.06790 0.90531
 C383 C 0.78522 1.07785 0.89927
 H384 H 0.77072 1.06471 0.88466
 O385 O 0.90846 1.15913 0.96339
 O386 O 0.87661 1.19715 0.96059
 C387 C 0.89984 1.18350 0.95106
 C388 C 0.91673 1.19566 0.92501
 C389 C 0.90965 1.22410 0.91290
 H390 H 0.89243 1.23774 0.92350
 O391 O 1.09839 0.84342 0.98819
 O392 O 1.13060 0.80571 0.99104
 C393 C 1.10703 0.81724 0.97993
 C394 C 1.09022 0.80021 0.95653
 C395 C 1.09892 0.77071 0.94880
 H396 H 1.11719 0.76011 0.96080
 O397 O 1.10927 1.00793 0.85025
 O398 O 1.14383 1.00192 0.81505
 C399 C 1.12029 1.01499 0.82481
 C400 C 1.10611 1.03926 0.80683
 C401 C 1.11764 1.04682 0.77840
 H402 H 1.13627 1.03405 0.76917
 O403 O 0.88863 0.96577 0.86202
 O404 O 0.85322 0.96565 0.82743
 C405 C 0.87743 0.95491 0.83797
 C406 C 0.89288 0.92942 0.82257
 C407 C 0.88808 0.92304 0.79182
 H408 H 0.87279 0.93679 0.77883
 O409 O 1.04293 1.14052 0.87922
 O410 O 1.04399 1.17138 0.84038
 C411 C 1.05430 1.16314 0.86572
 C412 C 1.08006 1.17945 0.87963
 C413 C 1.09194 1.20605 0.86677
 H414 H 1.08196 1.21555 0.84671
 O415 O 0.96156 0.84313 0.90965
 O416 O 0.95807 0.80531 0.87723
 C417 C 0.94956 0.81839 0.90134
 C418 C 0.92517 0.80496 0.91967
 C419 C 0.91228 0.77716 0.91130
 H420 H 0.92116 0.76514 0.89198
 O421 O 1.15872 1.09906 0.96058
 O422 O 1.19639 1.13107 0.95603
 C423 C 1.18356 1.10637 0.94865
 C424 C 1.19728 1.08605 0.92567
 C425 C 1.22607 1.09198 0.91415
 H426 H 1.23844 1.11112 0.92287
 O427 O 0.85148 0.89638 0.99106
 O428 O 0.81500 0.86295 0.99543
 C429 C 0.82656 0.88571 0.98230
 C430 C 0.81130 0.89880 0.95578
 C431 C 0.78586 0.88438 0.94436
 H432 H 0.77673 0.86497 0.95602
 Cu433 Cu 0.99164 0.86427 0.88994
 Cu434 Cu 0.98771 0.81871 0.85120
 Cu435 Cu 1.01110 1.11636 0.86673
 Cu436 Cu 1.01197 1.15336 0.82008
 Cu437 Cu 0.87408 0.99722 0.88576
 Cu438 Cu 0.83081 0.99652 0.84530
 Cu439 Cu 1.12485 0.97990 0.87677
 Cu440 Cu 1.16633 0.97257 0.83456
 C441 C 0.91367 0.91191 0.83870
 H442 H 0.91732 0.91654 0.86242
 C443 C 0.90474 0.90025 0.77725
 C444 C 1.08227 1.05630 0.81883
 H445 H 1.07362 1.05089 0.84100
 C446 C 1.10615 1.07141 0.76217
 C447 C 0.82315 0.92377 0.94032
 H448 H 0.84319 0.93466 0.94887
 C449 C 0.77251 0.89362 0.91747
 C450 C 1.18124 1.06094 0.91457
 H451 H 1.15888 1.05636 0.92301
 C452 C 1.23873 1.07337 0.89156
 C453 C 0.91393 0.82043 0.94501
 H454 H 0.92350 0.84209 0.95129
 C455 C 0.88805 0.76499 0.92760
 C456 C 1.09361 1.16762 0.90567
 H457 H 1.08470 1.14718 0.91567
 C458 C 1.11759 1.21983 0.87913
 C459 C 0.92532 1.07014 0.82662
 H460 H 0.93794 1.05880 0.84405
 C461 C 0.89113 1.10127 0.78364
 C462 C 1.07217 0.90020 0.83351
 H463 H 1.06649 0.90947 0.85546
 C464 C 1.08741 0.87531 0.77700
 C465 C 1.06667 0.81374 0.94063
 H466 H 1.05995 0.83658 0.94649
 C467 C 1.08531 0.75503 0.92490
 C468 C 0.93936 1.17824 0.91137
 H469 H 0.94457 1.15607 0.92025
 C470 C 0.92487 1.23500 0.88734
 C471 C 0.83293 1.08533 0.92468
 H472 H 0.85572 1.07822 0.92916
 C473 C 0.77411 1.10430 0.91320
 C474 C 1.17061 0.90404 0.93224
 H475 H 1.14908 0.91350 0.93861
 C476 C 1.22583 0.87850 0.91511
 O477 O 1.02948 0.91194 1.16687
 O478 O 1.02854 0.88174 1.20625
 C479 C 1.03991 0.90396 1.19223
 C480 C 1.06607 0.92020 1.20496
 C481 C 1.07726 0.91292 1.23366
 H482 H 1.06605 0.89603 1.24723
 O483 O 0.98784 1.12306 1.14368
 O484 O 0.98997 1.16085 1.17632
 C485 C 0.97836 1.13608 1.16743
 C486 C 0.95329 1.12252 1.18456
 C487 C 0.94787 1.13110 1.21457
 H488 H 0.96256 1.14739 1.22534
 O489 O 0.85539 1.05276 1.10904
 O490 O 0.82115 1.05939 1.14441
 C491 C 0.83218 1.06627 1.11896
 C492 C 0.81870 1.09089 1.10100
 C493 C 0.79074 1.10357 1.10882
 H494 H 0.77848 1.09454 1.12780
 O495 O 1.15478 0.97485 1.11291
 O496 O 1.19102 0.97550 1.14665
 C497 C 1.17804 0.96306 1.12439
 C498 C 1.18892 0.93354 1.11321
 C499 C 1.21016 0.91749 1.13007
 H500 H 1.22030 0.92761 1.14987
 O501 O 1.09887 0.84889 1.04701
 O502 O 1.13043 0.81058 1.04964
 C503 C 1.10739 0.82450 1.05934
 C504 C 1.09103 0.81301 1.08600
 C505 C 1.09735 0.78428 1.09775
 H506 H 1.11317 0.76986 1.08604
 O507 O 0.90990 1.16424 1.02212
 O508 O 0.87810 1.20232 1.01957
 C509 C 0.90162 1.19046 1.03052
 C510 C 0.91939 1.20666 1.05377
 C511 C 0.91254 1.23661 1.06260
 H512 H 0.89437 1.24862 1.05184
 O513 O 0.89326 0.99580 1.15538
 O514 O 0.85889 1.00223 1.19073
 C515 C 0.88254 0.98934 1.18114
 C516 C 0.89738 0.96625 1.19990
 C517 C 0.88554 0.95878 1.22824
 H518 H 0.86587 0.97049 1.23665
 O519 O 1.12260 1.04207 1.14927
 O520 O 1.15932 1.04320 1.18245
 C521 C 1.13518 1.05402 1.17212
 C522 C 1.12155 1.08102 1.18624
 C523 C 1.13444 1.09508 1.21170
 H524 H 1.15439 1.08575 1.22193
 O525 O 0.96806 0.86877 1.13212
 O526 O 0.96727 0.83830 1.17134
 C527 C 0.95731 0.84595 1.14571
 C528 C 0.93297 0.82817 1.13158
 C529 C 0.92397 0.80051 1.14393
 H530 H 0.93535 0.79206 1.16369
 O531 O 1.04827 1.15738 1.09906
 O532 O 1.05030 1.19547 1.13136
 C533 C 1.05990 1.18213 1.10774
 C534 C 1.08553 1.19504 1.09090
 C535 C 1.09984 1.22113 1.10170
 H536 H 1.09141 1.23221 1.12181
 O537 O 0.85080 0.90164 1.04932
 O538 O 0.81431 0.86827 1.05389
 C539 C 0.82593 0.89360 1.06086
 C540 C 0.81065 0.91381 1.08286
 C541 C 0.78259 0.90598 1.09507
 H542 H 0.77201 0.88522 1.08777
 O543 O 1.16281 1.10602 1.01858
 O544 O 1.20059 1.13795 1.01423
 C545 C 1.18853 1.11527 1.02690
 C546 C 1.20407 1.09955 1.05185
 C547 C 1.23408 1.10628 1.05940
 H548 H 1.24657 1.12306 1.04684
 O549 O 1.04691 1.12218 1.14515
 O550 O 1.04853 1.16033 1.17738
 C551 C 1.05807 1.13480 1.16843
 C552 C 1.08331 1.12034 1.18440
 C553 C 1.09661 1.13439 1.20943
 H554 H 1.08722 1.15527 1.21817
 O555 O 0.97075 0.91568 1.16712
 O556 O 0.96954 0.88539 1.20643
 C557 C 0.96007 0.90866 1.19269
 C558 C 0.93550 0.92707 1.20583
 C559 C 0.92328 0.91988 1.23412
 H560 H 0.93318 0.90187 1.24714
 O561 O 1.15901 1.03336 1.10410
 O562 O 1.19566 1.03368 1.13737
 C563 C 1.18482 1.04211 1.11229
 C564 C 1.20213 1.06293 1.09293
 C565 C 1.23218 1.06915 1.09942
 H566 H 1.24315 1.05775 1.11792
 O567 O 0.85237 0.99355 1.11422
 O568 O 0.81804 0.99996 1.14957
 C569 C 0.82781 0.98581 1.12650
 C570 C 0.81127 0.95926 1.11452
 C571 C 0.78323 0.95107 1.12647
 H572 H 0.77293 0.96520 1.14361
 O573 O 1.12351 1.14904 1.01680
 O574 O 1.16113 1.18123 1.01337
 C575 C 1.13651 1.17310 1.02551
 C576 C 1.12324 1.19083 1.05086
 C577 C 1.13748 1.21689 1.06233
 H578 H 1.15780 1.22512 1.05175
 O579 O 0.89039 0.85848 1.05323
 O580 O 0.85406 0.82495 1.05776
 C581 C 0.87903 0.83571 1.06640
 C582 C 0.89484 0.82254 1.09258
 C583 C 0.88605 0.79468 1.10524
 H584 H 0.86774 0.78211 1.09528
 O585 O 1.11439 0.98442 1.15347
 O586 O 1.15055 0.98553 1.18731
 C587 C 1.12480 0.97654 1.17881
 C588 C 1.10725 0.95606 1.19829
 C589 C 1.11763 0.94902 1.22715
 H590 H 1.13788 0.95961 1.23555
 O591 O 0.89869 1.05336 1.14786
 O592 O 0.86493 1.05971 1.18381
 C593 C 0.89011 1.06632 1.17196
 C594 C 0.90984 1.08892 1.18654
 C595 C 0.90483 1.09768 1.21658
 H596 H 0.88642 1.08760 1.22882
 O597 O 0.99025 1.16223 1.10011
 O598 O 0.99233 1.20004 1.13271
 C599 C 0.98179 1.18833 1.10882
 C600 C 0.95908 1.20523 1.09155
 C601 C 0.95253 1.23522 1.09941
 H602 H 0.96495 1.24610 1.11739
 O603 O 1.02582 0.86620 1.13024
 O604 O 1.02498 0.83559 1.16934
 C605 C 1.03455 0.84224 1.14318
 C606 C 1.05600 0.82203 1.12749
 C607 C 1.06259 0.79327 1.13896
 H608 H 1.05174 0.78572 1.15946
 O609 O 1.14331 0.88609 1.04388
 O610 O 1.17479 0.84777 1.04711
 C611 C 1.16621 0.87383 1.05568
 C612 C 1.18229 0.88940 1.08049
 C613 C 1.20267 0.87335 1.09848
 H614 H 1.20744 0.84976 1.09373
 O615 O 0.86502 1.12712 1.02617
 O616 O 0.83305 1.16507 1.02326
 C617 C 0.84144 1.14052 1.03533
 C618 C 0.82369 1.12748 1.06031
 C619 C 0.79581 1.13983 1.06832
 H620 H 0.78708 1.15875 1.05567
 Cu621 Cu 0.99869 0.89390 1.14531
 Cu622 Cu 0.99758 0.85740 1.19249
 Cu623 Cu 1.01797 1.13723 1.11893
 Cu624 Cu 1.02028 1.18298 1.15769
 Cu625 Cu 0.87414 0.88023 1.02181
 Cu626 Cu 0.83022 0.84027 1.02702
 Cu627 Cu 1.11764 0.86882 1.01562
 Cu628 Cu 1.15594 0.82323 1.01906
 Cu629 Cu 0.89061 1.13892 0.99529
 Cu630 Cu 0.85215 1.18436 0.99176
 Cu631 Cu 1.13804 1.12165 0.98884
 Cu632 Cu 1.18299 1.16026 0.98371
 Cu633 Cu 0.87811 1.02326 1.12783
 Cu634 Cu 0.83712 1.03116 1.17049
 Cu635 Cu 1.13416 1.00882 1.12642
 Cu636 Cu 1.17795 1.00953 1.16666
 C637 C 1.08117 0.94193 1.18754
 H638 H 1.07322 0.94710 1.16511
 C639 C 1.10306 0.92735 1.24484
 C640 C 0.93430 1.10122 1.17078
 H641 H 0.93826 1.09462 1.14755
 C642 C 0.92387 1.11861 1.23093
 C643 C 0.83478 1.10284 1.07656
 H644 H 0.85646 1.09345 1.07065
 C645 C 0.77897 1.12805 1.09240
 C646 C 1.17543 0.91952 1.08815
 H647 H 1.15882 0.93171 1.07523
 C648 C 1.21647 0.88730 1.12327
 C649 C 1.07015 0.83159 1.10090
 H650 H 1.06545 0.85392 1.09216
 C651 C 1.08322 0.77418 1.12428
 C652 C 0.94280 1.19128 1.06839
 H653 H 0.94780 1.16802 1.06239
 C654 C 0.92927 1.25104 1.08542
 C655 C 0.92252 0.95048 1.18900
 H656 H 0.93145 0.95583 1.16693
 C657 C 0.89804 0.93541 1.24533
 C658 C 1.09583 1.09358 1.17315
 H659 H 1.08597 1.08297 1.15347
 C660 C 1.12212 1.12198 1.22326
 C661 C 0.91849 0.83884 1.10580
 H662 H 0.92522 0.86040 1.09642
 C663 C 0.90077 0.78338 1.13093
 C664 C 1.09711 1.18027 1.06527
 H665 H 1.08625 1.15989 1.05711
 C666 C 1.12579 1.23222 1.08773
 C667 C 0.82461 0.94063 1.09251
 H668 H 0.84643 0.94656 1.08351
 C669 C 0.76862 0.92446 1.11693
 C670 C 1.18839 1.07780 1.06879
 H671 H 1.16511 1.07302 1.06371
 C672 C 1.24825 1.09068 1.08292
 O673 O 0.95589 0.37885 0.35292
 O674 O 0.95164 0.34043 0.32131
 C675 C 0.94326 0.36639 0.33039
 C676 C 0.91762 0.38203 0.31604
 C677 C 0.90360 0.37072 0.28969
 H678 H 0.91231 0.35079 0.27838
 O679 O 1.03015 0.58450 0.33489
 O680 O 1.03091 0.61482 0.29560
 C681 C 1.04054 0.59154 0.30917
 C682 C 1.06510 0.57333 0.29563
 C683 C 1.07785 0.58167 0.26783
 H684 H 1.06826 0.60031 0.25551
 O685 O 0.83797 0.46755 0.40002
 O686 O 0.80215 0.46753 0.36587
 C687 C 0.81251 0.45845 0.39083
 C688 C 0.79548 0.43592 0.40859
 C689 C 0.76678 0.42664 0.39961
 H690 H 0.75603 0.43735 0.38058
 O691 O 1.14895 0.50382 0.38439
 O692 O 1.18330 0.49817 0.34895
 C693 C 1.17364 0.51172 0.37240
 C694 C 1.19060 0.53769 0.38525
 C695 C 1.21878 0.54590 0.37350
 H696 H 1.22879 0.53232 0.35575
 O697 O 0.87910 0.35399 0.48268
 O698 O 0.84333 0.31977 0.48709
 C699 C 0.86767 0.32887 0.47500
 C700 C 0.88276 0.31024 0.45166
 C701 C 0.87407 0.28009 0.44701
 H702 H 0.85642 0.27042 0.46075
 O703 O 1.11368 0.63838 0.44779
 O704 O 1.15044 0.67143 0.44324
 C705 C 1.12529 0.66103 0.43459
 C706 C 1.10938 0.67456 0.40854
 C707 C 1.11852 0.70223 0.39557
 H708 H 1.13740 0.71436 0.40498
 O709 O 0.88423 0.51728 0.35237
 O710 O 0.84840 0.51657 0.31818
 C711 C 0.87413 0.52528 0.32689
 C712 C 0.89198 0.54538 0.30724
 C713 C 0.88170 0.55200 0.27824
 H714 H 0.86131 0.54155 0.27001
 O715 O 1.10293 0.44416 0.34918
 O716 O 1.13647 0.43940 0.31279
 C717 C 1.11155 0.43194 0.32465
 C718 C 1.09207 0.40942 0.30943
 C719 C 1.09586 0.40314 0.27870
 H720 H 1.11337 0.41450 0.26608
 O721 O 1.01281 0.33891 0.39695
 O722 O 1.00981 0.30057 0.36505
 C723 C 1.02087 0.31261 0.38865
 C724 C 1.04344 0.29597 0.40651
 C725 C 1.04958 0.26552 0.40009
 H726 H 1.03742 0.25401 0.38230
 O727 O 0.97581 0.63476 0.37255
 O728 O 0.97655 0.66518 0.33331
 C729 C 0.96710 0.65872 0.35953
 C730 C 0.94564 0.67912 0.37503
 C731 C 0.93960 0.70807 0.36361
 H732 H 0.95097 0.71573 0.34344
 O733 O 0.85434 0.61836 0.45914
 O734 O 0.82282 0.65659 0.45538
 C735 C 0.83093 0.63007 0.44779
 C736 C 0.81379 0.61276 0.42490
 C737 C 0.78955 0.62594 0.40936
 H738 H 0.78221 0.64869 0.41478
 O739 O 1.13967 0.37195 0.47215
 O740 O 1.17065 0.33322 0.47515
 C741 C 1.16262 0.35760 0.46259
 C742 C 1.17925 0.36911 0.43599
 C743 C 1.20292 0.35247 0.42266
 H744 H 1.21019 0.33128 0.43236
 O745 O 0.97126 0.58808 0.33705
 O746 O 0.97189 0.61828 0.29766
 C747 C 0.96047 0.59619 0.31190
 C748 C 0.93384 0.58029 0.29969
 C749 C 0.92268 0.58718 0.27086
 H750 H 0.93421 0.60349 0.25687
 O751 O 1.01471 0.37561 0.35154
 O752 O 1.01086 0.33787 0.31904
 C753 C 1.02331 0.36236 0.32755
 C754 C 1.04853 0.37564 0.31017
 C755 C 1.05260 0.36971 0.27912
 H756 H 1.03689 0.35544 0.26705
 O757 O 1.14553 0.44452 0.38898
 O758 O 1.17916 0.43881 0.35286
 C759 C 1.16850 0.43120 0.37828
 C760 C 1.18202 0.40561 0.39485
 C761 C 1.20545 0.38878 0.38194
 H762 H 1.21490 0.39545 0.36044
 O763 O 0.84445 0.52675 0.39401
 O764 O 0.80892 0.52593 0.35956
 C765 C 0.82135 0.53842 0.38209
 C766 C 0.80944 0.56761 0.39316
 C767 C 0.78577 0.58129 0.37775
 H768 H 0.77515 0.56971 0.35901
 O769 O 0.90093 0.65291 0.45473
 O770 O 0.86970 0.69144 0.45152
 C771 C 0.89269 0.67714 0.44208
 C772 C 0.90958 0.68823 0.41563
 C773 C 0.90389 0.71705 0.40397
 H774 H 0.88805 0.73162 0.41546
 O775 O 1.09225 0.33812 0.47651
 O776 O 1.12320 0.29940 0.47987
 C777 C 1.09998 0.31161 0.46860
 C778 C 1.08216 0.29530 0.44550
 C779 C 1.08844 0.26496 0.43817
 H780 H 1.10596 0.25293 0.44996
 O781 O 1.10701 0.50251 0.34407
 O782 O 1.14144 0.49746 0.30859
 C783 C 1.11774 0.50996 0.31859
 C784 C 1.10304 0.53382 0.30060
 C785 C 1.11538 0.54249 0.27282
 H786 H 1.13516 0.53105 0.26431
 O787 O 0.87856 0.45938 0.35845
 O788 O 0.84240 0.45933 0.32464
 C789 C 0.86634 0.44811 0.33511
 C790 C 0.87971 0.42170 0.31967
 C791 C 0.86601 0.41009 0.29384
 H792 H 0.84609 0.42095 0.28515
 O793 O 1.03371 0.63041 0.37095
 O794 O 1.03432 0.66091 0.33175
 C795 C 1.04469 0.65298 0.35717
 C796 C 1.06987 0.67006 0.37070
 C797 C 1.07926 0.69743 0.35808
 H798 H 1.06749 0.70619 0.33869
 O799 O 0.95510 0.34355 0.39894
 O800 O 0.95181 0.30462 0.36776
 C801 C 0.94336 0.31841 0.39161
 C802 C 0.91961 0.30517 0.41095
 C803 C 0.91059 0.27503 0.40674
 H804 H 0.92169 0.26143 0.38973
 O805 O 1.15223 0.59436 0.45239
 O806 O 1.18926 0.62713 0.44816
 C807 C 1.17724 0.60204 0.44098
 C808 C 1.19215 0.58193 0.41861
 C809 C 1.22033 0.58964 0.40667
 H810 H 1.23137 0.60979 0.41490
 O811 O 0.83607 0.39311 0.48153
 O812 O 0.79981 0.35951 0.48606
 C813 C 0.81079 0.38264 0.47325
 C814 C 0.79477 0.39762 0.44815
 C815 C 0.76630 0.38784 0.43816
 H816 H 0.75507 0.36912 0.44910
 Cu817 Cu 0.98508 0.36328 0.37793
 Cu818 Cu 0.98081 0.31706 0.33999
 Cu819 Cu 1.00254 0.60620 0.35764
 Cu820 Cu 1.00342 0.64266 0.31047
 Cu821 Cu 0.86471 0.49272 0.38001
 Cu822 Cu 0.82171 0.49231 0.33881
 Cu823 Cu 1.12288 0.47424 0.37042
 Cu824 Cu 1.16367 0.46783 0.32738
 C825 C 0.90558 0.40775 0.33053
 H826 H 0.91589 0.41656 0.35085
 C827 C 0.87754 0.38485 0.27864
 C828 C 1.07775 0.54920 0.31173
 H829 H 1.06847 0.54299 0.33342
 C830 C 1.10331 0.56661 0.25642
 C831 C 0.80895 0.42170 0.43318
 H832 H 0.83115 0.42882 0.44008
 C833 C 0.75212 0.40264 0.41408
 C834 C 1.17763 0.55575 0.40799
 H835 H 1.15570 0.54995 0.41679
 C836 C 1.23388 0.57190 0.38398
 C837 C 0.90571 0.32257 0.43366
 H838 H 0.91240 0.34593 0.43697
 C839 C 0.88782 0.26229 0.42467
 C840 C 1.08487 0.65894 0.39600
 H841 H 1.07780 0.63759 0.40559
 C842 C 1.10331 0.71392 0.37029
 C843 C 0.91834 0.55924 0.31766
 H844 H 0.92626 0.55434 0.34017
 C845 C 0.89661 0.57297 0.26003
 C846 C 1.06834 0.39561 0.32496
 H847 H 1.06526 0.40047 0.34874
 C848 C 1.07604 0.38391 0.26330
 C849 C 1.05953 0.31057 0.42959
 H850 H 1.05495 0.33414 0.43462
 C851 C 1.07208 0.24995 0.41561
 C852 C 0.93068 0.66951 0.40118
 H853 H 0.93494 0.64707 0.40988
 C854 C 0.91873 0.72718 0.37792
 C855 C 0.82326 0.58339 0.41683
 H856 H 0.84212 0.57317 0.42825
 C857 C 0.77589 0.61027 0.38545
 C858 C 1.16943 0.39586 0.42211
 H859 H 1.15093 0.40846 0.43186
 C860 C 1.21589 0.36223 0.39550
 O861 O 1.02231 0.40315 0.65503
 O862 O 1.02009 0.37192 0.69357
 C863 C 1.03238 0.39399 0.68013
 C864 C 1.05911 0.40872 0.69329
 C865 C 1.06862 0.40171 0.72263
 H866 H 1.05595 0.38599 0.73633
 O867 O 0.97840 0.62394 0.63353
 O868 O 0.98218 0.66179 0.66593
 C869 C 0.96970 0.63740 0.65743
 C870 C 0.94455 0.62477 0.67525
 C871 C 0.93708 0.63700 0.70359
 H872 H 0.95032 0.65540 0.71274
 O873 O 0.85137 0.55002 0.60231
 O874 O 0.81700 0.55617 0.63767
 C875 C 0.82781 0.56301 0.61208
 C876 C 0.81348 0.58676 0.59361
 C877 C 0.78486 0.59819 0.60082
 H878 H 0.77286 0.58903 0.61991
 O879 O 1.14882 0.46859 0.60205
 O880 O 1.18521 0.46975 0.63551
 C881 C 1.17312 0.45785 0.61231
 C882 C 1.18643 0.43081 0.59705
 C883 C 1.21615 0.42116 0.60247
 H884 H 1.23033 0.43364 0.61795
 O885 O 1.09494 0.34248 0.53546
 O886 O 1.12630 0.30411 0.53892
 C887 C 1.10334 0.31828 0.54836
 C888 C 1.08665 0.30697 0.57500
 C889 C 1.09374 0.27877 0.58771
 H890 H 1.11069 0.26476 0.57714
 O891 O 0.89968 0.66190 0.51291
 O892 O 0.86807 0.70012 0.51019
 C893 C 0.89154 0.68829 0.52112
 C894 C 0.90960 0.70474 0.54396
 C895 C 0.90322 0.73493 0.55231
 H896 H 0.88491 0.74701 0.54184
 O897 O 0.88988 0.49292 0.64802
 O898 O 0.85569 0.49902 0.68357
 C899 C 0.87905 0.48585 0.67354
 C900 C 0.89309 0.46139 0.69131
 C901 C 0.88120 0.45355 0.71949
 H902 H 0.86255 0.46635 0.72864
 O903 O 1.11115 0.53219 0.63983
 O904 O 1.14593 0.53340 0.67505
 C905 C 1.12180 0.54374 0.66381
 C906 C 1.10568 0.56966 0.67799
 C907 C 1.10997 0.57797 0.70849
 H908 H 1.12550 0.56549 0.72242
 O909 O 0.96047 0.36266 0.61806
 O910 O 0.95912 0.33062 0.65603
 C911 C 0.94973 0.33920 0.63047
 C912 C 0.92633 0.32144 0.61499
 C913 C 0.92164 0.29116 0.62269
 H914 H 0.93536 0.28088 0.63994
 O915 O 1.03944 0.65664 0.58812
 O916 O 1.04347 0.69411 0.62092
 C917 C 1.05196 0.68101 0.59684
 C918 C 1.07694 0.69397 0.57905
 C919 C 1.08993 0.72172 0.58742
 H920 H 1.08065 0.73410 0.60633
 O921 O 0.84208 0.40148 0.53931
 O922 O 0.80583 0.36792 0.54440
 C923 C 0.81779 0.39316 0.55161
 C924 C 0.80370 0.41307 0.57466
 C925 C 0.77566 0.40589 0.58722
 H926 H 0.76428 0.38562 0.57973
 O927 O 1.15155 0.60077 0.51097
 O928 O 1.18833 0.63392 0.50702
 C929 C 1.17617 0.61161 0.52041
 C930 C 1.19000 0.59951 0.54826
 C931 C 1.21243 0.61633 0.56269
 H932 H 1.22057 0.63704 0.55259
 O933 O 1.03647 0.61672 0.63091
 O934 O 1.03972 0.65419 0.66384
 C935 C 1.04733 0.62789 0.65491
 C936 C 1.06871 0.61023 0.67305
 C937 C 1.07268 0.61757 0.70341
 H938 H 1.05983 0.63586 0.71344
 O939 O 0.96342 0.40808 0.65565
 O940 O 0.96109 0.37634 0.69373
 C941 C 0.95241 0.40046 0.68094
 C942 C 0.92866 0.41946 0.69505
 C943 C 0.91625 0.41187 0.72325
 H944 H 0.92507 0.39266 0.73530
 O945 O 1.15087 0.52791 0.59756
 O946 O 1.18609 0.53005 0.63225
 C947 C 1.17518 0.53915 0.60744
 C948 C 1.18991 0.56421 0.59074
 C949 C 1.21270 0.58145 0.60459
 H950 H 1.22060 0.57559 0.62685
 O951 O 0.84831 0.49119 0.60778
 O952 O 0.81400 0.49736 0.64321
 C953 C 0.82363 0.48354 0.61991
 C954 C 0.80646 0.45766 0.60748
 C955 C 0.77837 0.45018 0.61960
 H956 H 0.76872 0.46427 0.63716
 O957 O 1.11491 0.64552 0.50643
 O958 O 1.15167 0.67861 0.50187
 C959 C 1.12717 0.67041 0.51401
 C960 C 1.11343 0.68916 0.53816
 C961 C 1.12621 0.71697 0.54688
 H962 H 1.14557 0.72554 0.53486
 O963 O 0.87884 0.35596 0.54127
 O964 O 0.84315 0.32173 0.54607
 C965 C 0.86842 0.33237 0.55389
 C966 C 0.88613 0.31772 0.57795
 C967 C 0.88111 0.28741 0.58653
 H968 H 0.86382 0.27415 0.57556
 O969 O 1.10856 0.47374 0.64411
 O970 O 1.14432 0.47459 0.67830
 C971 C 1.11900 0.46502 0.66921
 C972 C 1.10149 0.44347 0.68785
 C973 C 1.11012 0.43684 0.71749
 H974 H 1.12952 0.44791 0.72722
 O975 O 0.89350 0.55149 0.64254
 O976 O 0.85943 0.55763 0.67818
 C977 C 0.88432 0.56489 0.66623
 C978 C 0.90271 0.58942 0.67961
 C979 C 0.89549 0.60193 0.70793
 H980 H 0.87646 0.59306 0.72015
 O981 O 0.98115 0.66064 0.58823
 O982 O 0.98534 0.69848 0.62059
 C983 C 0.97364 0.68692 0.59712
 C984 C 0.95052 0.70393 0.58049
 C985 C 0.94454 0.73419 0.58776
 H986 H 0.95771 0.74565 0.60485
 O987 O 1.01832 0.35894 0.61723
 O988 O 1.01672 0.32745 0.65563
 C989 C 1.02697 0.33477 0.62990
 C990 C 1.04943 0.31516 0.61479
 C991 C 1.05675 0.28690 0.62702
 H992 H 1.04545 0.27925 0.64723
 O993 O 1.13748 0.38206 0.53003
 O994 O 1.16932 0.34400 0.53293
 C995 C 1.16130 0.37067 0.54051
 C996 C 1.18002 0.38851 0.56159
 C997 C 1.20962 0.37985 0.56672
 H998 H 1.21877 0.36033 0.55500
 O999 O 0.85753 0.62202 0.51737
 O1000 O 0.82529 0.65969 0.51409
 C1001 C 0.83399 0.63530 0.52645
 C1002 C 0.81683 0.62227 0.55178
 C1003 C 0.78836 0.63337 0.55918
 H1004 H 0.77878 0.65134 0.54581
 Cu1005 Cu 0.99119 0.38665 0.63286
 Cu1006 Cu 0.98891 0.34860 0.67877
 Cu1007 Cu 1.00850 0.63571 0.60689
 Cu1008 Cu 1.01319 0.68094 0.64605
 Cu1009 Cu 0.86246 0.37948 0.51080
 Cu1010 Cu 0.81945 0.33884 0.51643
 Cu1011 Cu 1.11293 0.36236 0.50312
 Cu1012 Cu 1.15036 0.31630 0.50727
 Cu1013 Cu 0.88130 0.63510 0.48636
 Cu1014 Cu 0.84335 0.68086 0.48254
 Cu1015 Cu 1.12932 0.61657 0.47957
 Cu1016 Cu 1.17373 0.65592 0.47447
 Cu1017 Cu 0.87415 0.52096 0.62154
 Cu1018 Cu 0.83307 0.52821 0.66421
 Cu1019 Cu 1.12650 0.50037 0.61740
 Cu1020 Cu 1.16919 0.50193 0.65851
 C1021 C 1.07573 0.42951 0.67610
 H1022 H 1.06880 0.43457 0.65330
 C1023 C 1.09380 0.41607 0.73495
 C1024 C 0.92740 0.60085 0.66361
 H1025 H 0.93291 0.59152 0.64165
 C1026 C 0.91269 0.62570 0.72029
 C1027 C 0.82909 0.59880 0.56891
 H1028 H 0.85126 0.59036 0.56342
 C1029 C 0.77201 0.62145 0.58348
 C1030 C 1.16869 0.41421 0.57646
 H1031 H 1.14572 0.42097 0.57235
 C1032 C 1.22789 0.39594 0.58673
 C1033 C 1.06431 0.32490 0.58862
 H1034 H 1.05900 0.34683 0.57925
 C1035 C 1.07889 0.26855 0.61378
 C1036 C 0.93332 0.68957 0.55824
 H1037 H 0.93795 0.66615 0.55257
 C1038 C 0.92102 0.74978 0.57394
 C1039 C 0.91701 0.44442 0.67940
 H1040 H 0.92598 0.45011 0.65743
 C1041 C 0.89231 0.42874 0.73560
 C1042 C 1.08489 0.58600 0.66057
 H1043 H 1.08159 0.58018 0.63705
 C1044 C 1.09284 0.60160 0.72134
 C1045 C 0.90889 0.33442 0.59230
 H1046 H 0.91269 0.35783 0.58622
 C1047 C 0.89934 0.27388 0.60857
 C1048 C 1.08865 0.67804 0.55425
 H1049 H 1.07897 0.65641 0.54802
 C1050 C 1.11471 0.73341 0.57162
 C1051 C 0.81881 0.43917 0.58479
 H1052 H 0.84066 0.44466 0.57559
 C1053 C 0.76276 0.42440 0.60973
 C1054 C 1.17883 0.57337 0.56244
 H1055 H 1.16079 0.56077 0.55192
 C1056 C 1.22346 0.60791 0.59093
 O1057 O 0.62392 1.03557 0.64373
 O1058 O 0.65961 1.03624 0.67810
 C1059 C 0.63575 1.04721 0.66711
 C1060 C 0.62208 1.07408 0.68151
 C1061 C 0.63544 1.08693 0.70700
 H1062 H 0.65527 1.07664 0.71656
 O1063 O 0.39421 0.99483 0.65618
 O1064 O 0.35975 1.00125 0.69144
 C1065 C 0.38343 0.98837 0.68189
 C1066 C 0.39815 0.96522 0.70064
 C1067 C 0.38635 0.95805 0.72903
 H1068 H 0.36694 0.97014 0.73752
 O1069 O 0.54756 1.15213 0.59704
 O1070 O 0.55056 1.19122 0.62804
 C1071 C 0.55894 1.17751 0.60419
 C1072 C 0.58220 1.19116 0.58465
 C1073 C 0.59136 1.22117 0.58932
 H1074 H 0.58055 1.23446 0.60675
 O1075 O 0.46683 0.86555 0.63329
 O1076 O 0.46629 0.83544 0.67277
 C1077 C 0.45592 0.84303 0.64729
 C1078 C 0.43046 0.82622 0.63388
 C1079 C 0.41669 0.80203 0.64914
 H1080 H 0.42509 0.79464 0.67076
 O1081 O 0.66371 1.10201 0.51798
 O1082 O 0.69963 1.13615 0.51402
 C1083 C 0.68804 1.11370 0.52740
 C1084 C 0.70181 1.10216 0.55528
 C1085 C 0.72056 1.12107 0.57271
 H1086 H 0.72640 1.14351 0.56493
 O1087 O 0.35129 0.90106 0.54916
 O1088 O 0.31430 0.86820 0.55345
 C1089 C 0.32621 0.89336 0.56050
 C1090 C 0.31104 0.91361 0.58249
 C1091 C 0.28272 0.90609 0.59425
 H1092 H 0.27176 0.88576 0.58633
 O1093 O 0.48831 1.11949 0.64452
 O1094 O 0.49180 1.15796 0.67621
 C1095 C 0.47943 1.13334 0.66806
 C1096 C 0.45379 1.12110 0.68541
 C1097 C 0.44714 1.13183 0.71452
 H1098 H 0.46159 1.14862 0.72482
 O1099 O 0.52883 0.90942 0.66579
 O1100 O 0.52864 0.87958 0.70546
 C1101 C 0.53979 0.90163 0.69097
 C1102 C 0.56630 0.91790 0.70291
 C1103 C 0.57625 0.91308 0.73256
 H1104 H 0.56398 0.89800 0.74728
 O1105 O 0.66014 0.96949 0.60883
 O1106 O 0.69579 0.97036 0.64313
 C1107 C 0.68364 0.95814 0.62034
 C1108 C 0.69573 0.92954 0.60787
 C1109 C 0.72066 0.91507 0.62095
 H1110 H 0.73262 0.92575 0.63937
 O1111 O 0.35595 1.05131 0.60969
 O1112 O 0.32150 1.05786 0.64488
 C1113 C 0.33243 1.06448 0.61932
 C1114 C 0.31831 1.08819 0.60071
 C1115 C 0.29026 1.10073 0.60846
 H1116 H 0.27844 1.09243 0.62806
 O1117 O 0.40798 1.15841 0.51944
 O1118 O 0.37633 1.19666 0.51774
 C1119 C 0.39988 1.18449 0.52844
 C1120 C 0.41783 1.20016 0.55211
 C1121 C 0.41074 1.22985 0.56185
 H1122 H 0.39232 1.24189 0.55160
 O1123 O 0.59962 0.84787 0.54683
 O1124 O 0.63072 0.80917 0.54933
 C1125 C 0.60792 0.82348 0.55919
 C1126 C 0.59118 0.81195 0.58557
 C1127 C 0.59629 0.78258 0.59615
 H1128 H 0.61180 0.76809 0.58411
 O1129 O 0.39885 1.05253 0.64915
 O1130 O 0.36482 1.05899 0.68480
 C1131 C 0.39003 1.06565 0.67308
 C1132 C 0.40956 1.08858 0.68746
 C1133 C 0.40324 1.09947 0.71657
 H1134 H 0.38379 1.09088 0.72830
 O1135 O 0.61778 0.97776 0.64848
 O1136 O 0.65328 0.97901 0.68299
 C1137 C 0.62755 0.97033 0.67423
 C1138 C 0.60904 0.95144 0.69439
 C1139 C 0.61809 0.94699 0.72423
 H1140 H 0.63830 0.95776 0.73251
 O1141 O 0.52458 0.86391 0.62939
 O1142 O 0.52427 0.83333 0.66854
 C1143 C 0.53359 0.84005 0.64227
 C1144 C 0.55513 0.82009 0.62640
 C1145 C 0.56058 0.79065 0.63671
 H1146 H 0.54886 0.78240 0.65644
 O1147 O 0.48953 1.15519 0.59846
 O1148 O 0.49270 1.19380 0.63000
 C1149 C 0.48129 1.18148 0.60671
 C1150 C 0.45795 1.19810 0.58969
 C1151 C 0.45110 1.22778 0.59820
 H1152 H 0.46372 1.23825 0.61626
 O1153 O 0.36253 1.12208 0.52333
 O1154 O 0.33071 1.16021 0.52108
 C1155 C 0.33921 1.13563 0.53293
 C1156 C 0.32198 1.12296 0.55839
 C1157 C 0.29405 1.13517 0.56631
 H1158 H 0.28479 1.15337 0.55302
 O1159 O 0.64651 0.88214 0.54152
 O1160 O 0.67758 0.84341 0.54395
 C1161 C 0.67003 0.86985 0.55209
 C1162 C 0.68832 0.88600 0.57475
 C1163 C 0.71282 0.87166 0.58829
 H1164 H 0.71918 0.84908 0.58113
 O1165 O 0.47011 0.91331 0.66721
 O1166 O 0.46951 0.88335 0.70677
 C1167 C 0.45986 0.90657 0.69302
 C1168 C 0.43560 0.92532 0.70640
 C1169 C 0.42330 0.91832 0.73474
 H1170 H 0.43283 0.90006 0.74769
 O1171 O 0.54733 1.11678 0.64372
 O1172 O 0.55076 1.15568 0.67484
 C1173 C 0.55939 1.12961 0.66643
 C1174 C 0.58451 1.11429 0.68211
 C1175 C 0.59807 1.12673 0.70821
 H1176 H 0.58943 1.14736 0.71825
 O1177 O 0.35335 0.99244 0.61516
 O1178 O 0.31881 0.99874 0.65032
 C1179 C 0.32870 0.98473 0.62723
 C1180 C 0.31205 0.95849 0.61485
 C1181 C 0.28379 0.95059 0.62640
 H1182 H 0.27355 0.96462 0.64366
 O1183 O 0.66265 1.02858 0.60092
 O1184 O 0.69788 1.02971 0.63571
 C1185 C 0.68711 1.03916 0.61101
 C1186 C 0.70162 1.06494 0.59573
 C1187 C 0.72037 1.08395 0.61255
 H1188 H 0.72641 1.07790 0.63538
 O1189 O 0.39052 0.85769 0.55390
 O1190 O 0.35337 0.82502 0.55811
 C1191 C 0.37832 0.83541 0.56719
 C1192 C 0.39263 0.82240 0.59426
 C1193 C 0.37912 0.79838 0.60986
 H1194 H 0.35869 0.78812 0.60145
 O1195 O 0.62250 1.14240 0.51340
 O1196 O 0.65823 1.17663 0.50864
 C1197 C 0.63372 1.16780 0.52051
 C1198 C 0.61847 1.18667 0.54349
 C1199 C 0.62744 1.21669 0.54858
 H1200 H 0.64517 1.22642 0.53498
 Cu1201 Cu 0.63778 1.00251 0.62169
 Cu1202 Cu 0.68049 1.00359 0.66318
 Cu1203 Cu 0.37887 1.02227 0.62881
 Cu1204 Cu 0.33761 1.03000 0.67128
 Cu1205 Cu 0.51800 1.13175 0.61809
 Cu1206 Cu 0.52174 1.17850 0.65547
 Cu1207 Cu 0.49757 0.89120 0.64513
 Cu1208 Cu 0.49732 0.85509 0.69253
 C1209 C 0.59656 1.08771 0.66932
 H1210 H 0.58659 1.07806 0.64921
 C1211 C 0.62377 1.11304 0.72052
 C1212 C 0.42296 0.94899 0.68964
 H1213 H 0.43185 0.95420 0.66752
 C1214 C 0.39842 0.93445 0.74608
 C1215 C 0.59567 1.17416 0.56149
 H1216 H 0.58892 1.15085 0.55798
 C1217 C 0.61405 1.23412 0.57148
 C1218 C 0.41850 0.83583 0.60626
 H1219 H 0.42870 0.85471 0.59461
 C1220 C 0.39106 0.78813 0.63714
 C1221 C 0.69259 1.07407 0.56694
 H1222 H 0.67713 1.06002 0.55427
 C1223 C 0.72905 1.11230 0.60172
 C1224 C 0.32536 0.94000 0.59272
 H1225 H 0.34738 0.94568 0.58405
 C1226 C 0.26888 0.92439 0.61634
 C1227 C 0.43500 1.09931 0.67221
 H1228 H 0.43984 1.09115 0.64964
 C1229 C 0.42202 1.12098 0.73047
 C1230 C 0.58282 0.93727 0.68401
 H1231 H 0.57580 0.94059 0.66092
 C1232 C 0.60208 0.92776 0.74333
 C1233 C 0.68016 0.91500 0.58445
 H1234 H 0.66082 0.92582 0.57449
 C1235 C 0.72913 0.88593 0.61133
 C1236 C 0.33377 1.09928 0.57546
 H1237 H 0.35554 1.09007 0.56957
 C1238 C 0.27785 1.12424 0.59117
 C1239 C 0.44154 1.18453 0.56629
 H1240 H 0.44673 1.16148 0.55970
 C1241 C 0.42743 1.24379 0.58504
 C1242 C 0.57039 0.83048 0.60070
 H1243 H 0.56650 0.85329 0.59277
 C1244 C 0.58107 0.77171 0.62169
 O1245 O 0.60522 0.94767 0.35415
 O1246 O 0.63908 0.94126 0.31833
 C1247 C 0.61420 0.93422 0.33040
 C1248 C 0.59573 0.90977 0.31710
 C1249 C 0.60236 0.89808 0.28835
 H1250 H 0.62062 0.90790 0.27569
 O1251 O 0.39085 1.02120 0.35481
 O1252 O 0.35423 1.02023 0.32154
 C1253 C 0.37937 1.03060 0.33042
 C1254 C 0.39486 1.05486 0.31323
 C1255 C 0.37997 1.07022 0.28985
 H1256 H 0.35752 1.06363 0.28326
 O1257 O 0.48204 1.14151 0.38037
 O1258 O 0.48373 1.17288 0.34193
 C1259 C 0.47361 1.16584 0.36774
 C1260 C 0.45094 1.18536 0.38287
 C1261 C 0.44248 1.21345 0.37069
 H1262 H 0.45349 1.22169 0.35055
 O1263 O 0.52049 0.83598 0.40918
 O1264 O 0.51729 0.79756 0.37741
 C1265 C 0.52876 0.80978 0.40067
 C1266 C 0.55225 0.79393 0.41804
 C1267 C 0.56142 0.76426 0.41056
 H1268 H 0.55097 0.75230 0.39199
 O1269 O 0.64197 0.87850 0.48293
 O1270 O 0.67372 0.84035 0.48549
 C1271 C 0.66499 0.86473 0.47314
 C1272 C 0.68147 0.87697 0.44687
 C1273 C 0.70930 0.86482 0.43847
 H1274 H 0.71901 0.84690 0.45181
 O1275 O 0.36243 1.11535 0.46515
 O1276 O 0.33004 1.15297 0.46312
 C1277 C 0.33825 1.12649 0.45509
 C1278 C 0.31952 1.10825 0.43408
 C1279 C 0.28969 1.11630 0.42834
 H1280 H 0.28006 1.13595 0.43942
 O1281 O 0.53489 1.09013 0.34171
 O1282 O 0.53604 1.12103 0.30289
 C1283 C 0.54518 1.09725 0.31594
 C1284 C 0.56913 1.07856 0.30180
 C1285 C 0.58187 1.08697 0.27402
 H1286 H 0.57271 1.10607 0.26205
 O1287 O 0.46391 0.87845 0.36706
 O1288 O 0.46077 0.84052 0.33468
 C1289 C 0.45277 0.86678 0.34344
 C1290 C 0.43040 0.88388 0.32584
 C1291 C 0.42408 0.87525 0.29618
 H1292 H 0.43586 0.85623 0.28619
 O1293 O 0.65205 1.00678 0.38870
 O1294 O 0.68628 0.99996 0.35332
 C1295 C 0.67715 1.01358 0.37688
 C1296 C 0.69554 1.03801 0.39037
 C1297 C 0.72445 1.04412 0.37942
 H1298 H 0.73369 1.03023 0.36148
 O1299 O 0.34951 0.96725 0.40234
 O1300 O 0.31354 0.96405 0.36854
 C1301 C 0.32489 0.95580 0.39346
 C1302 C 0.31017 0.93203 0.41214
 C1303 C 0.28332 0.91769 0.40281
 H1304 H 0.27278 0.92436 0.38195
 O1305 O 0.62349 1.13727 0.45503
 O1306 O 0.66026 1.17031 0.45015
 C1307 C 0.63517 1.15980 0.44166
 C1308 C 0.61994 1.17322 0.41535
 C1309 C 0.63358 1.19695 0.39927
 H1310 H 0.65473 1.20641 0.40670
 O1311 O 0.38887 0.85027 0.49488
 O1312 O 0.35199 0.81734 0.49940
 C1313 C 0.37644 0.82550 0.48718
 C1314 C 0.38989 0.80681 0.46278
 C1315 C 0.37685 0.77909 0.45409
 H1316 H 0.35760 0.77059 0.46634
 O1317 O 0.38888 0.96251 0.35958
 O1318 O 0.35347 0.96076 0.32504
 C1319 C 0.37780 0.95065 0.33598
 C1320 C 0.39342 0.92454 0.32182
 C1321 C 0.38685 0.91503 0.29217
 H1322 H 0.37026 0.92696 0.27902
 O1323 O 0.60940 1.00631 0.34908
 O1324 O 0.64354 1.00001 0.31354
 C1325 C 0.62023 1.01334 0.32356
 C1326 C 0.60606 1.03781 0.30577
 C1327 C 0.61836 1.04657 0.27798
 H1328 H 0.63772 1.03469 0.26911
 O1329 O 0.46237 0.83990 0.41098
 O1330 O 0.45886 0.80173 0.37895
 C1331 C 0.45031 0.81511 0.40290
 C1332 C 0.42574 0.80205 0.42126
 C1333 C 0.41255 0.77436 0.41304
 H1334 H 0.42147 0.76216 0.39386
 O1335 O 0.54036 1.13464 0.37936
 O1336 O 0.54189 1.16556 0.34055
 C1337 C 0.55247 1.15661 0.36554
 C1338 C 0.57974 1.17128 0.37800
 C1339 C 0.59415 1.19440 0.36195
 H1340 H 0.58480 1.20228 0.34090
 O1341 O 0.35273 0.89576 0.49077
 O1342 O 0.31587 0.86281 0.49536
 C1343 C 0.32763 0.88539 0.48215
 C1344 C 0.31199 0.89851 0.45589
 C1345 C 0.28508 0.88538 0.44663
 H1346 H 0.27544 0.86729 0.45985
 O1347 O 0.66119 1.09291 0.45978
 O1348 O 0.69816 1.12579 0.45553
 C1349 C 0.68601 1.10073 0.44820
 C1350 C 0.70006 1.08069 0.42531
 C1351 C 0.72896 1.08652 0.41409
 H1352 H 0.74153 1.10526 0.42337
 O1353 O 0.52197 0.87319 0.36427
 O1354 O 0.51867 0.83499 0.33222
 C1355 C 0.53060 0.85983 0.34031
 C1356 C 0.55496 0.87326 0.32198
 C1357 C 0.56189 0.86177 0.29317
 H1358 H 0.54887 0.84319 0.28405
 O1359 O 0.47596 1.09447 0.34554
 O1360 O 0.47718 1.12597 0.30720
 C1361 C 0.46500 1.10393 0.32095
 C1362 C 0.43684 1.09055 0.30896
 C1363 C 0.42140 1.10550 0.28597
 H1364 H 0.43068 1.12585 0.27609
 O1365 O 0.35128 1.02644 0.39683
 O1366 O 0.31424 1.02399 0.36410
 C1367 C 0.32677 1.03671 0.38658
 C1368 C 0.31354 1.06423 0.40066
 C1369 C 0.28385 1.07318 0.39461
 H1370 H 0.26981 1.05961 0.37995
 O1371 O 0.64657 0.94848 0.39503
 O1372 O 0.68071 0.94164 0.35956
 C1373 C 0.66985 0.93504 0.38525
 C1374 C 0.68402 0.91126 0.40387
 C1375 C 0.71197 0.89879 0.39581
 H1376 H 0.72338 0.90693 0.37591
 O1377 O 0.59897 0.83932 0.48846
 O1378 O 0.63070 0.80117 0.49125
 C1379 C 0.60706 0.81281 0.48061
 C1380 C 0.58964 0.79554 0.45806
 C1381 C 0.59778 0.76573 0.45100
 H1382 H 0.61580 0.75501 0.46326
 O1383 O 0.40541 1.15481 0.46050
 O1384 O 0.37351 1.19283 0.45846
 C1385 C 0.39659 1.17928 0.44848
 C1386 C 0.41295 1.19165 0.42222
 C1387 C 0.40457 1.21948 0.40959
 H1388 H 0.38676 1.23259 0.41989
 Cu1389 Cu 0.62490 0.97795 0.37529
 Cu1390 Cu 0.66578 0.97003 0.33257
 Cu1391 Cu 0.37359 0.99446 0.38178
 Cu1392 Cu 0.33017 0.99194 0.34149
 Cu1393 Cu 0.63920 1.11521 0.48688
 Cu1394 Cu 0.68277 1.15554 0.48154
 Cu1395 Cu 0.61863 0.86582 0.51470
 Cu1396 Cu 0.65628 0.81969 0.51771
 Cu1397 Cu 0.38789 1.13400 0.49227
 Cu1398 Cu 0.34960 1.17957 0.48972
 Cu1399 Cu 0.37480 0.87929 0.52197
 Cu1400 Cu 0.33023 0.84001 0.52699
 Cu1401 Cu 0.50811 1.11204 0.36554
 Cu1402 Cu 0.50983 1.14932 0.31920
 Cu1403 Cu 0.49257 0.86065 0.39112
 Cu1404 Cu 0.48843 0.81484 0.35262
 C1405 C 0.57185 0.89741 0.33359
 H1406 H 0.56685 0.90617 0.35590
 C1407 C 0.58548 0.87410 0.27602
 C1408 C 0.42345 1.06511 0.32241
 H1409 H 0.43483 1.05397 0.34081
 C1410 C 0.39303 1.09581 0.27663
 C1411 C 0.43624 1.17494 0.40884
 H1412 H 0.44235 1.15321 0.41818
 C1413 C 0.41920 1.23061 0.38386
 C1414 C 0.56653 0.80927 0.44188
 H1415 H 0.56032 0.83238 0.44728
 C1416 C 0.58420 0.75003 0.42717
 C1417 C 0.66913 0.90036 0.42960
 H1418 H 0.64747 0.90962 0.43581
 C1419 C 0.72488 0.87563 0.41316
 C1420 C 0.33111 1.08198 0.42036
 H1421 H 0.35408 1.07548 0.42483
 C1422 C 0.27171 1.09886 0.40891
 C1423 C 0.58127 1.05379 0.31736
 H1424 H 0.57201 1.04753 0.33904
 C1425 C 0.60672 1.07130 0.26204
 C1426 C 0.41532 0.90883 0.33837
 H1427 H 0.42024 0.91563 0.36132
 C1428 C 0.40263 0.89067 0.27913
 C1429 C 0.68369 1.05622 0.41347
 H1430 H 0.66120 1.05184 0.42167
 C1431 C 0.74139 1.06831 0.39104
 C1432 C 0.32431 0.92209 0.43878
 H1433 H 0.34535 0.93211 0.44580
 C1434 C 0.27084 0.89400 0.42004
 C1435 C 0.59280 1.16086 0.40479
 H1436 H 0.58231 1.14244 0.41692
 C1437 C 0.62100 1.20724 0.37237
 C1438 C 0.41447 0.81791 0.44634
 H1439 H 0.42428 0.83950 0.45251
 C1440 C 0.38788 0.76271 0.42912
 O1441 O 0.45535 0.38014 0.85427
 O1442 O 0.45203 0.34124 0.82310
 C1443 C 0.44343 0.36730 0.83150
 C1444 C 0.41841 0.38249 0.81580
 C1445 C 0.40440 0.36945 0.79030
 H1446 H 0.41280 0.34857 0.78057
 O1447 O 0.52948 0.58508 0.83229
 O1448 O 0.53104 0.61574 0.79327
 C1449 C 0.54020 0.59220 0.80677
 C1450 C 0.56431 0.57345 0.79327
 C1451 C 0.57562 0.57984 0.76442
 H1452 H 0.56545 0.59765 0.75133
 O1453 O 0.34087 0.47023 0.89491
 O1454 O 0.30404 0.46839 0.86187
 C1455 C 0.31527 0.46051 0.88696
 C1456 C 0.29889 0.43932 0.90691
 C1457 C 0.26847 0.43277 0.90213
 H1458 H 0.25628 0.44393 0.88428
 O1459 O 0.64771 0.50724 0.88381
 O1460 O 0.68224 0.50102 0.84862
 C1461 C 0.67231 0.51508 0.87167
 C1462 C 0.68886 0.54154 0.88384
 C1463 C 0.71689 0.54970 0.87190
 H1464 H 0.72707 0.53570 0.85458
 O1465 O 0.38031 0.35709 0.98529
 O1466 O 0.34407 0.32341 0.99001
 C1467 C 0.36850 0.33200 0.97793
 C1468 C 0.38307 0.31302 0.95460
 C1469 C 0.37303 0.28343 0.94896
 H1470 H 0.35489 0.27417 0.96233
 O1471 O 0.61085 0.64146 0.94647
 O1472 O 0.64673 0.67547 0.94153
 C1473 C 0.62179 0.66442 0.93325
 C1474 C 0.60546 0.67772 0.90758
 C1475 C 0.61319 0.70633 0.89600
 H1476 H 0.63101 0.71915 0.90651
 O1477 O 0.38328 0.52019 0.84457
 O1478 O 0.34727 0.51816 0.81064
 C1479 C 0.37275 0.52788 0.81915
 C1480 C 0.39052 0.54861 0.79984
 C1481 C 0.38074 0.55711 0.77087
 H1482 H 0.35987 0.54839 0.76191
 O1483 O 0.60252 0.44675 0.84971
 O1484 O 0.63657 0.44051 0.81403
 C1485 C 0.61142 0.43368 0.82576
 C1486 C 0.59208 0.41054 0.81141
 C1487 C 0.59789 0.40028 0.78196
 H1488 H 0.61674 0.40964 0.76981
 O1489 O 0.51234 0.34113 0.89949
 O1490 O 0.50929 0.30251 0.86792
 C1491 C 0.52046 0.31478 0.89129
 C1492 C 0.54341 0.29820 0.90860
 C1493 C 0.55047 0.26842 0.90053
 H1494 H 0.53838 0.25753 0.88233
 O1495 O 0.47411 0.63433 0.86916
 O1496 O 0.47526 0.66522 0.83028
 C1497 C 0.46533 0.65828 0.85623
 C1498 C 0.44329 0.67808 0.87163
 C1499 C 0.43700 0.70714 0.86065
 H1500 H 0.44848 0.71529 0.84074
 O1501 O 0.35195 0.61563 0.95575
 O1502 O 0.32062 0.65407 0.95245
 C1503 C 0.32855 0.62766 0.94462
 C1504 C 0.31139 0.61113 0.92137
 C1505 C 0.28717 0.62476 0.90621
 H1506 H 0.27954 0.64717 0.91257
 O1507 O 0.63687 0.37628 0.97431
 O1508 O 0.66888 0.33840 0.97758
 C1509 C 0.66042 0.36277 0.96523
 C1510 C 0.67799 0.37547 0.93995
 C1511 C 0.70620 0.36360 0.93235
 H1512 H 0.71536 0.34527 0.94552
 O1513 O 0.47076 0.58849 0.83273
 O1514 O 0.47235 0.61908 0.79365
 C1515 C 0.46072 0.59677 0.80732
 C1516 C 0.43450 0.58122 0.79399
 C1517 C 0.42502 0.58846 0.76487
 H1518 H 0.43788 0.60425 0.75141
 O1519 O 0.51415 0.37842 0.85468
 O1520 O 0.51089 0.33992 0.82297
 C1521 C 0.52310 0.36463 0.83118
 C1522 C 0.54847 0.37723 0.81380
 C1523 C 0.55461 0.36712 0.78441
 H1524 H 0.54014 0.35033 0.77411
 O1525 O 0.64489 0.44826 0.88962
 O1526 O 0.67936 0.44182 0.85442
 C1527 C 0.66835 0.43506 0.87992
 C1528 C 0.68222 0.41107 0.89834
 C1529 C 0.71048 0.39892 0.89092
 H1530 H 0.72257 0.40782 0.87177
 O1531 O 0.34453 0.52861 0.88715
 O1532 O 0.30845 0.52658 0.85328
 C1533 C 0.32078 0.53933 0.87570
 C1534 C 0.30806 0.56768 0.88756
 C1535 C 0.28445 0.58167 0.87240
 H1536 H 0.27437 0.57081 0.85296
 O1537 O 0.39858 0.65025 0.95096
 O1538 O 0.36722 0.68872 0.94801
 C1539 C 0.39021 0.67455 0.93846
 C1540 C 0.40694 0.68607 0.91214
 C1541 C 0.40100 0.71502 0.90096
 H1542 H 0.38501 0.72926 0.91265
 O1543 O 0.59170 0.33943 0.97880
 O1544 O 0.62363 0.30152 0.98171
 C1545 C 0.60015 0.31322 0.97050
 C1546 C 0.58275 0.29694 0.94689
 C1547 C 0.59015 0.26719 0.93771
 H1548 H 0.60842 0.25530 0.94844
 O1549 O 0.60655 0.50449 0.84313
 O1550 O 0.64096 0.49831 0.80777
 C1551 C 0.61719 0.51099 0.81739
 C1552 C 0.60207 0.53386 0.79867
 C1553 C 0.61298 0.54048 0.76978
 H1554 H 0.63213 0.52826 0.76091
 O1555 O 0.38007 0.46224 0.85255
 O1556 O 0.34343 0.46023 0.81930
 C1557 C 0.36766 0.44983 0.82995
 C1558 C 0.38104 0.42273 0.81605
 C1559 C 0.36714 0.40928 0.79123
 H1560 H 0.34718 0.41935 0.78172
 O1561 O 0.53207 0.63164 0.86799
 O1562 O 0.53304 0.66246 0.82904
 C1563 C 0.54283 0.65462 0.85466
 C1564 C 0.56694 0.67246 0.86905
 C1565 C 0.57484 0.70092 0.85776
 H1566 H 0.56284 0.70980 0.83857
 O1567 O 0.45462 0.34618 0.90155
 O1568 O 0.45159 0.30698 0.87067
 C1569 C 0.44307 0.32093 0.89436
 C1570 C 0.41938 0.30780 0.91364
 C1571 C 0.40925 0.27821 0.90847
 H1572 H 0.41970 0.26500 0.89080
 O1573 O 0.65028 0.59843 0.95033
 O1574 O 0.68635 0.63216 0.94503
 C1575 C 0.67484 0.60669 0.93832
 C1576 C 0.68987 0.58661 0.91603
 C1577 C 0.71793 0.59441 0.90380
 H1578 H 0.72872 0.61495 0.91139
 O1579 O 0.34069 0.39934 0.98200
 O1580 O 0.30410 0.36610 0.98709
 C1581 C 0.31540 0.38891 0.97391
 C1582 C 0.29917 0.40360 0.94891
 C1583 C 0.26894 0.39674 0.94321
 H1584 H 0.25705 0.38056 0.95709
 Cu1585 Cu 0.48441 0.36557 0.88039
 Cu1586 Cu 0.48068 0.31881 0.84294
 Cu1587 Cu 0.50149 0.60665 0.85435
 Cu1588 Cu 0.50302 0.64353 0.80747
 Cu1589 Cu 0.36580 0.49556 0.87324
 Cu1590 Cu 0.32202 0.49302 0.83296
 Cu1591 Cu 0.62216 0.47720 0.87032
 Cu1592 Cu 0.66343 0.46967 0.82782
 C1593 C 0.40674 0.40941 0.82811
 H1594 H 0.41710 0.41954 0.84779
 C1595 C 0.37851 0.38286 0.77823
 C1596 C 0.57755 0.55023 0.81012
 H1597 H 0.56934 0.54549 0.83261
 C1598 C 0.60017 0.56362 0.75262
 C1599 C 0.31392 0.42491 0.93065
 H1600 H 0.33738 0.42989 0.93459
 C1601 C 0.25352 0.41163 0.92024
 C1602 C 0.67568 0.55999 0.90610
 H1603 H 0.65385 0.55408 0.91510
 C1604 C 0.73168 0.57611 0.88164
 C1605 C 0.40639 0.32496 0.93694
 H1606 H 0.41395 0.34794 0.94087
 C1607 C 0.38593 0.26583 0.92588
 C1608 C 0.58216 0.66117 0.89409
 H1609 H 0.57625 0.63905 0.90271
 C1610 C 0.59769 0.71829 0.87113
 C1611 C 0.41745 0.56085 0.81107
 H1612 H 0.42476 0.55526 0.83362
 C1613 C 0.39824 0.57678 0.75324
 C1614 C 0.56719 0.39906 0.82702
 H1615 H 0.56269 0.40676 0.84982
 C1616 C 0.57913 0.37866 0.76813
 C1617 C 0.55926 0.31215 0.93212
 H1618 H 0.55384 0.33525 0.93833
 C1619 C 0.57382 0.25279 0.91454
 C1620 C 0.42827 0.66782 0.89750
 H1621 H 0.43275 0.64532 0.90592
 C1622 C 0.41586 0.72578 0.87521
 C1623 C 0.32122 0.58235 0.91219
 H1624 H 0.34001 0.57184 0.92345
 C1625 C 0.27401 0.61009 0.88142
 C1626 C 0.66637 0.39937 0.92304
 H1627 H 0.64445 0.40839 0.92866
 C1628 C 0.72282 0.37523 0.90801
 O1629 O 0.52571 0.41159 1.15676
 O1630 O 0.52438 0.37979 1.19484
 C1631 C 0.53662 0.40190 1.18125
 C1632 C 0.56519 0.41470 1.19284
 C1633 C 0.58159 0.39842 1.21424
 H1634 H 0.57243 0.37781 1.22368
 O1635 O 0.47863 0.62603 1.13541
 O1636 O 0.48198 0.66442 1.16725
 C1637 C 0.47020 0.63944 1.15946
 C1638 C 0.44582 0.62618 1.17791
 C1639 C 0.43881 0.63777 1.20667
 H1640 H 0.45211 0.65606 1.21596
 O1641 O 0.35270 0.55271 1.10405
 O1642 O 0.31824 0.55942 1.13922
 C1643 C 0.32911 0.56584 1.11353
 C1644 C 0.31442 0.58886 1.09443
 C1645 C 0.28623 0.60092 1.10223
 H1646 H 0.27513 0.59310 1.12242
 O1647 O 0.65004 0.47517 1.10068
 O1648 O 0.68749 0.47689 1.13294
 C1649 C 0.67447 0.46439 1.11054
 C1650 C 0.68696 0.43662 1.09594
 C1651 C 0.71666 0.42697 1.10115
 H1652 H 0.73127 0.44001 1.11573
 O1653 O 0.59378 0.34536 1.03787
 O1654 O 0.62564 0.30739 1.04102
 C1655 C 0.60272 0.32141 1.05078
 C1656 C 0.58686 0.31048 1.07801
 C1657 C 0.59439 0.28259 1.09112
 H1658 H 0.61095 0.26832 1.08027
 O1659 O 0.39934 0.65745 1.00955
 O1660 O 0.36731 0.69530 1.00631
 C1661 C 0.39058 0.68358 1.01777
 C1662 C 0.40558 0.69971 1.04279
 C1663 C 0.39018 0.72340 1.05685
 H1664 H 0.36931 0.73143 1.04737
 O1665 O 0.38981 0.49508 1.15036
 O1666 O 0.35492 0.50100 1.18524
 C1667 C 0.37836 0.48773 1.17552
 C1668 C 0.39165 0.46263 1.19303
 C1669 C 0.37597 0.45036 1.21755
 H1670 H 0.35491 0.46042 1.22454
 O1671 O 0.61408 0.53990 1.13810
 O1672 O 0.64960 0.54144 1.17252
 C1673 C 0.62523 0.55171 1.16168
 C1674 C 0.60927 0.57775 1.17586
 C1675 C 0.61412 0.58650 1.20617
 H1676 H 0.63002 0.57428 1.21990
 O1677 O 0.46324 0.37044 1.12092
 O1678 O 0.46233 0.33831 1.15882
 C1679 C 0.45247 0.34707 1.13346
 C1680 C 0.42851 0.32959 1.11833
 C1681 C 0.42360 0.29934 1.12603
 H1682 H 0.43742 0.28895 1.14313
 O1683 O 0.53650 0.66000 1.08690
 O1684 O 0.53931 0.69876 1.11828
 C1685 C 0.54808 0.68516 1.09455
 C1686 C 0.57270 0.69816 1.07621
 C1687 C 0.58534 0.72624 1.08400
 H1688 H 0.57574 0.73905 1.10247
 O1689 O 0.34263 0.40658 1.03999
 O1690 O 0.30629 0.37311 1.04528
 C1691 C 0.31798 0.39854 1.05186
 C1692 C 0.30304 0.41906 1.07364
 C1693 C 0.27321 0.41420 1.08254
 H1694 H 0.26081 0.39554 1.07279
 O1695 O 0.65102 0.60497 1.00860
 O1696 O 0.68721 0.63858 1.00331
 C1697 C 0.67611 0.61580 1.01672
 C1698 C 0.69235 0.60250 1.04248
 C1699 C 0.72011 0.61449 1.05087
 H1700 H 0.72984 0.63245 1.03754
 O1701 O 0.53683 0.62140 1.13068
 O1702 O 0.53974 0.65987 1.16246
 C1703 C 0.54825 0.63373 1.15383
 C1704 C 0.57125 0.61746 1.17136
 C1705 C 0.57611 0.62549 1.20138
 H1706 H 0.56309 0.64365 1.21141
 O1707 O 0.46619 0.41410 1.15975
 O1708 O 0.46471 0.38245 1.19794
 C1709 C 0.45509 0.40597 1.18488
 C1710 C 0.42940 0.42289 1.19800
 C1711 C 0.41325 0.41089 1.22253
 H1712 H 0.42082 0.39017 1.23288
 O1713 O 0.65410 0.53432 1.09603
 O1714 O 0.69041 0.53696 1.12950
 C1715 C 0.67906 0.54526 1.10464
 C1716 C 0.69423 0.56849 1.08575
 C1717 C 0.72209 0.58129 1.09410
 H1718 H 0.73319 0.57346 1.11423
 O1719 O 0.34846 0.49446 1.10971
 O1720 O 0.31347 0.50112 1.14440
 C1721 C 0.32320 0.48755 1.12102
 C1722 C 0.30543 0.46299 1.10711
 C1723 C 0.27554 0.45797 1.11570
 H1724 H 0.26505 0.47268 1.13225
 O1725 O 0.61240 0.64844 1.00502
 O1726 O 0.64854 0.68215 1.00005
 C1727 C 0.62421 0.67361 1.01232
 C1728 C 0.60996 0.69258 1.03603
 C1729 C 0.62235 0.72071 1.04423
 H1730 H 0.64187 0.72913 1.03237
 O1731 O 0.38170 0.36327 1.04365
 O1732 O 0.34591 0.32915 1.04857
 C1733 C 0.37105 0.34004 1.05659
 C1734 C 0.38838 0.32583 1.08113
 C1735 C 0.38343 0.29550 1.08949
 H1736 H 0.36659 0.28210 1.07800
 O1737 O 0.61213 0.48151 1.14433
 O1738 O 0.64922 0.48218 1.17709
 C1739 C 0.62377 0.47229 1.16872
 C1740 C 0.60820 0.44871 1.18658
 C1741 C 0.62412 0.43194 1.20819
 H1742 H 0.64744 0.43700 1.21279
 O1743 O 0.39443 0.55350 1.14475
 O1744 O 0.36030 0.55973 1.18032
 C1745 C 0.38534 0.56674 1.16852
 C1746 C 0.40405 0.59076 1.18217
 C1747 C 0.39731 0.60253 1.21084
 H1748 H 0.37850 0.59328 1.22309
 O1749 O 0.47793 0.66169 1.08937
 O1750 O 0.48027 0.70002 1.12134
 C1751 C 0.46844 0.68722 1.09857
 C1752 C 0.44255 0.70130 1.08329
 C1753 C 0.42585 0.72440 1.09772
 H1754 H 0.43232 0.73256 1.11983
 O1755 O 0.52103 0.36446 1.12153
 O1756 O 0.51957 0.33319 1.16010
 C1757 C 0.52947 0.34014 1.13421
 C1758 C 0.55126 0.31990 1.11891
 C1759 C 0.55892 0.29188 1.13159
 H1760 H 0.54837 0.28480 1.15241
 O1761 O 0.63610 0.38506 1.03204
 O1762 O 0.66848 0.34748 1.03510
 C1763 C 0.66028 0.37418 1.04235
 C1764 C 0.67940 0.39275 1.06257
 C1765 C 0.70912 0.38415 1.06748
 H1766 H 0.71799 0.36414 1.05641
 O1767 O 0.35542 0.61965 1.01427
 O1768 O 0.32334 0.65748 1.01101
 C1769 C 0.33221 0.63338 1.02373
 C1770 C 0.31589 0.62155 1.05024
 C1771 C 0.28781 0.63333 1.05834
 H1772 H 0.27767 0.65056 1.04443
 Cu1773 Cu 0.49429 0.39360 1.13617
 Cu1774 Cu 0.49246 0.35571 1.18211
 Cu1775 Cu 0.50715 0.63850 1.10737
 Cu1776 Cu 0.51089 0.68477 1.14534
 Cu1777 Cu 0.36500 0.38489 1.01236
 Cu1778 Cu 0.32145 0.34451 1.01836
 Cu1779 Cu 0.61116 0.36506 1.00535
 Cu1780 Cu 0.64968 0.31978 1.00938
 Cu1781 Cu 0.37947 0.63185 0.98278
 Cu1782 Cu 0.34157 0.67783 0.97918
 Cu1783 Cu 0.62740 0.62004 0.97797
 Cu1784 Cu 0.67085 0.66046 0.97194
 Cu1785 Cu 0.37484 0.52341 1.12371
 Cu1786 Cu 0.33334 0.53108 1.16593
 Cu1787 Cu 0.62913 0.50765 1.11644
 Cu1788 Cu 0.67294 0.50965 1.15623
 C1789 C 0.57861 0.44006 1.17927
 H1790 H 0.56658 0.45214 1.16191
 C1791 C 0.61109 0.40644 1.22146
 C1792 C 0.42849 0.60250 1.16607
 H1793 H 0.43352 0.59373 1.14376
 C1794 C 0.41466 0.62599 1.22349
 C1795 C 0.32889 0.59915 1.06825
 H1796 H 0.35073 0.59020 1.06226
 C1797 C 0.27262 0.62311 1.08415
 C1798 C 0.66858 0.41926 1.07652
 H1799 H 0.64560 0.42610 1.07257
 C1800 C 0.72790 0.40103 1.08636
 C1801 C 0.56513 0.32883 1.09199
 H1802 H 0.55956 0.35055 1.08230
 C1803 C 0.58051 0.27307 1.11799
 C1804 C 0.43206 0.68895 1.05587
 H1805 H 0.44375 0.67014 1.04538
 C1806 C 0.39907 0.73475 1.08483
 C1807 C 0.41852 0.44892 1.18360
 H1808 H 0.43037 0.45782 1.16422
 C1809 C 0.38621 0.42422 1.23217
 C1810 C 0.58766 0.59342 1.15880
 H1811 H 0.58370 0.58707 1.13552
 C1812 C 0.59692 0.61005 1.21912
 C1813 C 0.41105 0.34260 1.09563
 H1814 H 0.41494 0.36596 1.08943
 C1815 C 0.40151 0.28198 1.11155
 C1816 C 0.58498 0.68165 1.05202
 H1817 H 0.57565 0.65975 1.04623
 C1818 C 0.61037 0.73762 1.06836
 C1819 C 0.31886 0.44363 1.08586
 H1820 H 0.34203 0.44724 1.07938
 C1821 C 0.25927 0.43357 1.10362
 C1822 C 0.67970 0.57928 1.05979
 H1823 H 0.65803 0.57020 1.05345
 C1824 C 0.73515 0.60452 1.07665
 N1825 N 1.13179 1.16716 1.25255
 N1826 N 1.13930 1.17500 1.28024
 C1827 C 1.14863 1.14976 1.29438
 C1828 C 1.14664 1.12585 1.27401
 N1829 N 1.13548 1.13774 1.24833
 H1830 H 1.14857 1.10194 1.27881
 N1831 N 1.07079 0.61767 0.76883
 N1832 N 1.07905 0.62926 0.79508
 C1833 C 1.10926 0.62880 0.79560
 C1834 C 1.11926 0.61602 0.76872
 N1835 N 1.09451 0.60943 0.75273
 H1836 H 1.14207 0.61368 0.76065
 N1837 N 0.66908 1.12447 0.74838
 N1838 N 0.67755 1.13159 0.77606
 C1839 C 0.65240 1.13727 0.79200
 C1840 C 0.62803 1.13377 0.77287
 N1841 N 0.63950 1.12567 0.74588
 H1842 H 0.60443 1.13457 0.77858
 N1843 N 0.57513 0.62829 1.26585
 N1844 N 0.58328 0.63779 1.29288
 C1845 C 0.61313 0.63349 1.29504
 C1846 C 0.62298 0.62040 1.26814
 N1847 N 0.59850 0.61779 1.25058
 H1848 H 0.64565 0.61504 1.26122
 N1849 N 0.86368 0.94299 1.28781
 N1850 N 0.85268 0.92775 1.31100
 C1851 C 0.86645 0.90059 1.31099
 C1852 C 0.88624 0.89972 1.28705
 N1853 N 0.88393 0.92657 1.27315
 H1854 H 0.89962 0.88074 1.27946
 N1855 N 0.85703 0.43683 0.77710
 N1856 N 0.84665 0.42293 0.80134
 C1857 C 0.86176 0.39664 0.80355
 C1858 C 0.88182 0.39494 0.77975
 N1859 N 0.87818 0.42048 0.76370
 H1860 H 0.89660 0.37637 0.77409
 N1861 N 0.36423 0.94292 0.78854
 N1862 N 0.35267 0.92794 0.81162
 C1863 C 0.36564 0.90039 0.81155
 C1864 C 0.38555 0.89904 0.78769
 N1865 N 0.38409 0.92599 0.77390
 H1866 H 0.39843 0.87974 0.78005
 N1867 N 0.33863 0.41663 1.25808
 N1868 N 0.32628 0.39923 1.27883
 C1869 C 0.34788 0.38061 1.28912
 C1870 C 0.37419 0.38746 1.27375
 N1871 N 0.36738 0.41004 1.25454
 H1872 H 0.39597 0.37704 1.27616
 N1873 N 0.84173 1.11838 0.76936
 N1874 N 0.82800 1.13289 0.74750
 C1875 C 0.84930 1.14314 0.72846
 C1876 C 0.87707 1.13461 0.73994
 N1877 N 0.87113 1.11878 0.76526
 H1878 H 0.89898 1.13731 0.72972
 N1879 N 0.86577 0.56237 0.21606
 N1880 N 0.85453 0.57653 0.19248
 C1881 C 0.86592 0.60484 0.19267
 C1882 C 0.88499 0.60734 0.21721
 N1883 N 0.88411 0.58042 0.23121
 H1884 H 0.89680 0.62715 0.22532
 N1885 N 0.37176 1.14398 0.26286
 N1886 N 0.36214 1.15814 0.23857
 C1887 C 0.36057 1.13733 0.21630
 C1888 C 0.36948 1.10970 0.22782
 N1889 N 0.37621 1.11493 0.25698
 H1890 H 0.37358 1.08883 0.21560
 N1891 N 0.40755 0.58998 0.70108
 N1892 N 0.39530 0.60687 0.67987
 C1893 C 0.36767 0.61434 0.68970
 C1894 C 0.36336 0.60158 0.71774
 N1895 N 0.38875 0.58641 0.72397
 H1896 H 0.34522 0.60594 0.73344
 N1897 N 1.08022 0.83881 0.73602
 N1898 N 1.09176 0.83141 0.70944
 C1899 C 1.11456 0.85074 0.70413
 C1900 C 1.11654 0.87028 0.72856
 N1901 N 1.09473 0.86210 0.74801
 H1902 H 1.13233 0.88854 0.73179
 N1903 N 1.07517 0.40853 0.21539
 N1904 N 1.08899 0.40604 0.18911
 C1905 C 1.10085 0.37801 0.18770
 C1906 C 1.09343 0.36321 0.21423
 N1907 N 1.07758 0.38323 0.23102
 H1908 H 1.10272 0.34217 0.22241
 N1909 N 0.57614 0.84061 0.23293
 N1910 N 0.58750 0.83404 0.20606
 C1911 C 0.61164 0.85202 0.20210
 C1912 C 0.61464 0.86983 0.22763
 N1913 N 0.59206 0.86208 0.24638
 H1914 H 0.63183 0.88645 0.23214
 N1915 N 0.56643 0.34993 0.72269
 N1916 N 0.57729 0.34407 0.69547
 C1917 C 0.60325 0.35952 0.69293
 C1918 C 0.60797 0.37497 0.71963
 N1919 N 0.58451 0.36843 0.73767
 H1920 H 0.62707 0.38881 0.72550
 N1921 N 1.29764 1.07477 1.09867
 N1922 N 1.32097 1.08610 1.11321
 C1923 C 1.31677 1.11624 1.11490
 C1924 C 1.29004 1.12311 1.10080
 N1925 N 1.27881 1.09654 1.09097
 H1926 H 1.27828 1.14454 1.10100
 N1927 N 1.24158 0.65812 0.60345
 N1928 N 1.26294 0.67154 0.61918
 C1929 C 1.27871 0.64960 0.63303
 C1930 C 1.26584 0.62196 0.62536
 N1931 N 1.24294 0.62842 0.60671
 H1932 H 1.27308 0.59944 0.63141
 N1933 N 0.73289 1.13557 0.65071
 N1934 N 0.75337 1.14884 0.66765
 C1935 C 0.77682 1.15537 0.64954
 C1936 C 0.76968 1.14604 0.62050
 N1937 N 0.74227 1.13332 0.62246
 H1938 H 0.78452 1.14444 0.60118
 N1939 N 0.77467 0.64178 1.06901
 N1940 N 0.79875 0.65291 1.08237
 C1941 C 0.80255 0.63705 1.10786
 C1942 C 0.77983 0.61567 1.10968
 N1943 N 0.76279 0.61944 1.08493
 H1944 H 0.77563 0.59985 1.12771
 N1945 N 1.26300 0.83814 0.91711
 N1946 N 1.28918 0.83055 0.90520
 C1947 C 1.29718 0.85286 0.88613
 C1948 C 1.27467 0.87454 0.88684
 N1949 N 1.25375 0.86443 0.90641
 H1950 H 1.27364 0.89558 0.87459
 N1951 N 1.23063 0.33508 0.35076
 N1952 N 1.25560 0.32753 0.33650
 C1953 C 1.27834 0.33072 0.35623
 C1954 C 1.26624 0.34114 0.38325
 N1955 N 1.23636 0.34343 0.37884
 H1956 H 1.27830 0.35064 0.40222
 N1957 N 0.76376 0.83718 0.41740
 N1958 N 0.79043 0.83031 0.40618
 C1959 C 0.79749 0.85202 0.38614
 C1960 C 0.77403 0.87249 0.38542
 N1961 N 0.75339 0.86238 0.40525
 H1962 H 0.77228 0.89273 0.37198
 N1963 N 0.76274 0.33814 0.91437
 N1964 N 0.78966 0.33142 0.90367
 C1965 C 0.79638 0.35219 0.88251
 C1966 C 0.77231 0.37200 0.88068
 N1967 N 0.75178 0.36239 0.90092
 H1968 H 0.77006 0.39147 0.86626
 N1969 N 0.72767 0.93083 1.15320
 N1970 N 0.70245 0.91744 1.16161
 C1971 C 0.69871 0.89316 1.14346
 C1972 C 0.72264 0.89217 1.12358
 N1973 N 0.74030 0.91604 1.13040
 H1974 H 0.72689 0.87538 1.10631
 N1975 N 0.72397 0.43010 0.64832
 N1976 N 0.69830 0.41762 0.65671
 C1977 C 0.69215 0.39547 0.63660
 C1978 C 0.71506 0.39496 0.61546
 N1979 N 0.73453 0.41677 0.62366
 H1980 H 0.71754 0.38002 0.59629
 N1981 N 0.22657 0.93221 0.65068
 N1982 N 0.20156 0.91861 0.65940
 C1983 C 0.19921 0.89292 0.64303
 C1984 C 0.22372 0.89127 0.62398
 N1985 N 0.24034 0.91620 0.62943
 H1986 H 0.22919 0.87316 0.60846
 N1987 N 0.21187 0.44813 1.12757
 N1988 N 0.18641 0.43547 1.13648
 C1989 C 0.18746 0.40610 1.12794
 C1990 C 0.21451 0.40135 1.11330
 N1991 N 0.22906 0.42799 1.11362
 H1992 H 0.22371 0.38025 1.10504
 N1993 N 0.72808 1.12652 0.93209
 N1994 N 0.70227 1.13710 0.92214
 C1995 C 0.70119 1.13133 0.89226
 C1996 C 0.72744 1.11618 0.88431
 N1997 N 0.74353 1.11383 0.90987
 H1998 H 0.73497 1.10912 0.86216
 N1999 N 0.75287 0.62168 0.33750
 N2000 N 0.72648 0.62988 0.32678
 C2001 C 0.70921 0.63722 0.35071
 C2002 C 0.72612 0.63360 0.37658
 N2003 N 0.75319 0.62388 0.36727
 H2004 H 0.71878 0.63518 0.39981
 N2005 N 0.22392 1.11388 0.42997
 N2006 N 0.19719 1.12310 0.42124
 C2007 C 0.19646 1.12138 0.39084
 C2008 C 0.22404 1.11011 0.38120
 N2009 N 0.24044 1.10605 0.40641
 H2010 H 0.23221 1.10732 0.35836
 N2011 N 0.25038 0.62245 0.83403
 N2012 N 0.22402 0.63142 0.82388
 C2013 C 0.20739 0.63897 0.84821
 C2014 C 0.22461 0.63467 0.87371
 N2015 N 0.25122 0.62427 0.86381
 H2016 H 0.21762 0.63610 0.89707
 N2017 N 1.16927 1.26513 1.09451
 N2018 N 1.17647 1.29102 1.10778
 C2019 C 1.15181 1.30100 1.12251
 C2020 C 1.12913 1.28032 1.11765
 N2021 N 1.14088 1.25831 1.09998
 H2022 H 1.10592 1.28225 1.12458
 N2023 N 1.14916 0.77598 0.56475
 N2024 N 1.15843 0.80057 0.57921
 C2025 C 1.14335 0.80184 0.60560
 C2026 C 1.12447 0.77704 0.60676
 N2027 N 1.12869 0.76146 0.58084
 H2028 H 1.10976 0.77064 0.62503
 N2029 N 0.64154 1.28018 0.55845
 N2030 N 0.64844 1.30680 0.57045
 C2031 C 0.63475 1.30817 0.59758
 C2032 C 0.61935 1.28150 0.60183
 N2033 N 0.62407 1.26461 0.57694
 H2034 H 0.60735 1.27450 0.62181
 N2035 N 0.64450 0.78043 1.06117
 N2036 N 0.65419 0.80470 1.07589
 C2037 C 0.63967 0.80547 1.10261
 C2038 C 0.62073 0.78074 1.10370
 N2039 N 0.62432 0.76569 1.07743
 H2040 H 0.60662 0.77382 1.12226
 N2041 N 0.93480 1.27859 0.85521
 N2042 N 0.92144 1.30361 0.84596
 C2043 C 0.89442 1.30478 0.85967
 C2044 C 0.89173 1.27953 0.87774
 N2045 N 0.91738 1.26380 0.87436
 H2046 H 0.87262 1.27268 0.89111
 N2047 N 0.92993 0.77093 0.34621
 N2048 N 0.91822 0.79751 0.33920
 C2049 C 0.89240 0.80026 0.35494
 C2050 C 0.88872 0.77439 0.37180
 N2051 N 0.91258 0.75669 0.36585
 H2052 H 0.87018 0.76869 0.38643
 N2053 N 0.42800 1.27577 0.35358
 N2054 N 0.41334 1.29974 0.34358
 C2055 C 0.38519 1.29839 0.35482
 C2056 C 0.38319 1.27251 0.37219
 N2057 N 0.41035 1.25904 0.37080
 H2058 H 0.36355 1.26352 0.38337
 N2059 N 0.42716 0.77024 0.84468
 N2060 N 0.41567 0.79712 0.83850
 C2061 C 0.38991 0.79965 0.85438
 C2062 C 0.38601 0.77332 0.87045
 N2063 N 0.40973 0.75558 0.86389
 H2064 H 0.36744 0.76741 0.88496
 N2065 N 1.11130 0.70805 0.93590
 N2066 N 1.12382 0.68496 0.92155
 C2067 C 1.11647 0.68763 0.89227
 C2068 C 1.09888 0.71320 0.88910
 N2069 N 1.09633 0.72542 0.91692
 H2070 H 1.09134 0.72341 0.86834
 N2071 N 1.05982 0.20082 0.39390
 N2072 N 1.07386 0.17693 0.38260
 C2073 C 1.10318 0.18041 0.38903
 C2074 C 1.10675 0.20733 0.40445
 N2075 N 1.07915 0.21942 0.40701
 H2076 H 1.12761 0.21865 0.40986
 N2077 N 0.61028 0.70311 0.43827
 N2078 N 0.62369 0.68060 0.42380
 C2079 C 0.61700 0.68375 0.39442
 C2080 C 0.59888 0.70891 0.39131
 N2081 N 0.59535 0.72049 0.41924
 H2082 H 0.59173 0.71944 0.37056
 N2083 N 0.56228 0.20594 0.88801
 N2084 N 0.57634 0.18300 0.87492
 C2085 C 0.60545 0.18556 0.88241
 C2086 C 0.60882 0.21079 0.90071
 N2087 N 0.58129 0.22302 0.90352
 H2088 H 0.62954 0.22079 0.90860
 N2089 N 0.90287 0.74596 1.17095
 N2090 N 0.89337 0.71837 1.17728
 C2091 C 0.87641 0.70910 1.15390
 C2092 C 0.87578 0.73224 1.13290
 N2093 N 0.89267 0.75485 1.14442
 H2094 H 0.86501 0.73215 1.11110
 N2095 N 0.91766 0.22608 0.62824
 N2096 N 0.90702 0.20107 0.64060
 C2097 C 0.87701 0.20185 0.63737
 C2098 C 0.86959 0.22825 0.62245
 N2099 N 0.89560 0.24281 0.61731
 H2100 H 0.84742 0.23750 0.61889
 N2101 N 0.34939 0.77207 0.66822
 N2102 N 0.33573 0.74670 0.67609
 C2103 C 0.35325 0.72366 0.66660
 C2104 C 0.37809 0.73576 0.65234
 N2105 N 0.37490 0.76602 0.65413
 H2106 H 0.39510 0.72388 0.63947
 N2107 N 0.42203 0.23448 1.12902
 N2108 N 0.41316 0.20729 1.13744
 C2109 C 0.38351 0.20564 1.13200
 C2110 C 0.37433 0.23291 1.11991
 N2111 N 0.39916 0.25035 1.11860
 H2112 H 0.35168 0.24015 1.11503
 N2113 N 1.14006 1.06287 0.71959
 N2114 N 1.15050 1.07710 0.69556
 C2115 C 1.13642 1.10405 0.69445
 C2116 C 1.11693 1.10582 0.71868
 N2117 N 1.11985 1.07967 0.73388
 H2118 H 1.10323 1.12491 0.72532
 N2119 N 1.14072 0.56183 0.21632
 N2120 N 1.15176 0.57751 0.19349
 C2121 C 1.13570 0.60331 0.19174
 C2122 C 1.11423 0.60271 0.21439
 N2123 N 1.11815 0.57651 0.22926
 H2124 H 1.09840 0.62022 0.22042
 N2125 N 0.64209 1.06504 0.22028
 N2126 N 0.65284 1.08027 0.19700
 C2127 C 0.63824 1.10697 0.19631
 C2128 C 0.61807 1.10752 0.22007
 N2129 N 0.62115 1.08092 0.23452
 H2130 H 0.60368 1.12603 0.22687
 N2131 N 0.63274 0.55441 0.70905
 N2132 N 0.64322 0.56897 0.68520
 C2133 C 0.62995 0.59638 0.68517
 C2134 C 0.61103 0.59812 0.70975
 N2135 N 0.61333 0.57151 0.72409
 H2136 H 0.59836 0.61753 0.71749
 N2137 N 0.92806 0.89533 0.72812
 N2138 N 0.92105 0.88790 0.70011
 C2139 C 0.89102 0.88420 0.69912
 C2140 C 0.87974 0.88992 0.72780
 N2141 N 0.90368 0.89664 0.74512
 H2142 H 0.85698 0.88702 0.73582
 N2143 N 0.83271 0.37936 0.24856
 N2144 N 0.82478 0.37386 0.22042
 C2145 C 0.84964 0.36489 0.20554
 C2146 C 0.87327 0.36460 0.22598
 N2147 N 0.86169 0.37416 0.25248
 H2148 H 0.89683 0.36073 0.22149
 N2149 N 0.41836 0.86750 0.23206
 N2150 N 0.40648 0.85559 0.20747
 C2151 C 0.37683 0.86161 0.20833
 C2152 C 0.37103 0.87828 0.23434
 N2153 N 0.39753 0.88106 0.24860
 H2154 H 0.34951 0.88496 0.24353
 N2155 N 0.33300 0.37078 0.75113
 N2156 N 0.32439 0.36408 0.72340
 C2157 C 0.34953 0.35916 0.70721
 C2158 C 0.37396 0.36259 0.72612
 N2159 N 0.36260 0.36991 0.75331
 H2160 H 0.39753 0.36235 0.72021
 N2161 N 1.13413 0.93701 1.28878
 N2162 N 1.14617 0.92214 1.31150
 C2163 C 1.13528 0.89364 1.31045
 C2164 C 1.11568 0.89174 1.28632
 N2165 N 1.11580 0.91922 1.27335
 H2166 H 1.10426 0.87195 1.27760
 N2167 N 1.10974 0.43435 0.78374
 N2168 N 1.11851 0.42396 0.81010
 C2169 C 1.11619 0.39345 0.80925
 C2170 C 1.10502 0.38551 0.78106
 N2171 N 1.10169 0.41175 0.76592
 H2172 H 1.10171 0.36309 0.77170
 N2173 N 0.63091 0.94074 0.78821
 N2174 N 0.64228 0.92717 0.81213
 C2175 C 0.63179 0.89854 0.81186
 C2176 C 0.61341 0.89510 0.78707
 N2177 N 0.61349 0.92187 0.77291
 H2178 H 0.60320 0.87454 0.77859
 N2179 N 0.63215 0.35665 1.22663
 N2180 N 0.64486 0.33953 1.24724
 C2181 C 0.65017 0.35722 1.27157
 C2182 C 0.64055 0.38633 1.26480
 N2183 N 0.62929 0.38472 1.23665
 H2184 H 0.63912 0.40582 1.27963
 N2185 N 0.93792 1.14466 1.27747
 N2186 N 0.92763 1.14938 1.30511
 C2187 C 0.90152 1.13413 1.30742
 C2188 C 0.89611 1.11999 1.28018
 N2189 N 0.91933 1.12713 1.26201
 H2190 H 0.87658 1.10689 1.27403
 N2191 N 0.92030 0.66186 0.76153
 N2192 N 0.90897 0.66902 0.78827
 C2193 C 0.88616 0.64969 0.79357
 C2194 C 0.88396 0.63040 0.76898
 N2195 N 0.90564 0.63872 0.74943
 H2196 H 0.86812 0.61220 0.76573
 N2197 N 0.43230 1.15276 0.77447
 N2198 N 0.42109 1.15893 0.80147
 C2199 C 0.39657 1.14140 0.80500
 C2200 C 0.39314 1.12428 0.77911
 N2201 N 0.41586 1.13204 0.76052
 H2202 H 0.37546 1.10828 0.77424
 N2203 N 0.42286 0.66061 1.26593
 N2204 N 0.41140 0.66715 1.29277
 C2205 C 0.38816 0.64812 1.29729
 C2206 C 0.38582 0.62969 1.27213
 N2207 N 0.40784 0.63816 1.25302
 H2208 H 0.36947 0.61210 1.26817
 N2209 N 1.16060 1.24808 0.86091
 N2210 N 1.16788 1.27606 0.85333
 C2211 C 1.14226 1.29222 0.85250
 C2212 C 1.11883 1.27302 0.86012
 N2213 N 1.13130 1.24568 0.86512
 H2214 H 1.09576 1.27909 0.86484
 N2215 N 1.10089 0.75110 0.33007
 N2216 N 1.11036 0.77862 0.32342
 C2217 C 1.12788 0.78787 0.34637
 C2218 C 1.12889 0.76477 0.36744
 N2219 N 1.11163 0.74221 0.35640
 H2220 H 1.14003 0.76492 0.38906
 N2221 N 0.63646 1.22739 0.32422
 N2222 N 0.64805 1.25229 0.31274
 C2223 C 0.65567 1.27061 0.33598
 C2224 C 0.64873 1.25551 0.36250
 N2225 N 0.63638 1.22890 0.35398
 H2226 H 0.64958 1.26413 0.38536
 N2227 N 0.58941 0.75975 0.83631
 N2228 N 0.59914 0.78733 0.83041
 C2229 C 0.62112 0.79356 0.85027
 C2230 C 0.62457 0.76856 0.86868
 N2231 N 0.60425 0.74791 0.85922
 H2232 H 0.63996 0.76596 0.88725
 N2233 N 0.94106 1.29791 1.11186
 N2234 N 0.92708 1.32120 1.12442
 C2235 C 0.89810 1.31906 1.11627
 C2236 C 0.89474 1.29371 1.09819
 N2237 N 0.92211 1.28099 1.09613
 H2238 H 0.87400 1.28389 1.09010
 N2239 N 0.93715 0.80034 0.58781
 N2240 N 0.92678 0.82411 0.60281
 C2241 C 0.89735 0.81915 0.60777
 C2242 C 0.88992 0.79151 0.59494
 N2243 N 0.91542 0.78053 0.58276
 H2244 H 0.86903 0.77920 0.59710
 N2245 N 0.43717 1.28677 0.61766
 N2246 N 0.42273 1.30912 0.63114
 C2247 C 0.39514 1.31014 0.61899
 C2248 C 0.39328 1.28763 0.59706
 N2249 N 0.41995 1.27312 0.59743
 H2250 H 0.37350 1.28032 0.58496
 N2251 N 0.34848 0.74916 1.09770
 N2252 N 0.33352 0.76876 1.11440
 C2253 C 0.35394 0.78537 1.12951
 C2254 C 0.38230 0.77497 1.12162
 N2255 N 0.37772 0.75249 1.10149
 H2256 H 0.40391 0.78346 1.12880
 N2257 N 0.85411 0.72204 0.93467
 N2258 N 0.84454 0.69769 0.92002
 C2259 C 0.85889 0.69702 0.89320
 C2260 C 0.87761 0.72193 0.89199
 N2261 N 0.87405 0.73698 0.91831
 H2262 H 0.89171 0.72880 0.87340
 N2263 N 0.86108 0.21624 0.43916
 N2264 N 0.85486 0.18902 0.42817
 C2265 C 0.86880 0.18692 0.40122
 C2266 C 0.88363 0.21376 0.39603
 N2267 N 0.87834 0.23147 0.42019
 H2268 H 0.89569 0.22026 0.37591
 N2269 N 0.35145 0.72157 0.43484
 N2270 N 0.34187 0.69721 0.42019
 C2271 C 0.35822 0.69488 0.39461
 C2272 C 0.37825 0.71885 0.39427
 N2273 N 0.37336 0.73498 0.41971
 H2274 H 0.39425 0.72440 0.37686
 N2275 N 0.35380 0.22216 0.93602
 N2276 N 0.34656 0.19579 0.92373
 C2277 C 0.36345 0.19255 0.89860
 C2278 C 0.38135 0.21791 0.89606
 N2279 N 0.37464 0.23589 0.91973
 H2280 H 0.39667 0.22333 0.87801
 N2281 N 1.07363 0.73158 1.15791
 N2282 N 1.08535 0.70506 1.16508
 C2283 C 1.11001 0.70118 1.14773
 C2284 C 1.11287 0.72644 1.12962
 N2285 N 1.08976 0.74481 1.13661
 H2286 H 1.13033 0.73134 1.11345
 N2287 N 1.06924 0.22620 0.64761
 N2288 N 1.08210 0.20091 0.65685
 C2289 C 1.10842 0.19831 0.64195
 C2290 C 1.11110 0.22307 0.62305
 N2291 N 1.08622 0.23989 0.62727
 H2292 H 1.12959 0.22882 0.60837
 N2293 N 0.56819 0.72689 0.65113
 N2294 N 0.57901 0.69966 0.65704
 C2295 C 0.60491 0.69687 0.64145
 C2296 C 0.60959 0.72336 0.62585
 N2297 N 0.58620 0.74149 0.63238
 H2298 H 0.62854 0.72923 0.61182
 N2299 N 0.57178 0.23124 1.15278
 N2300 N 0.58472 0.20590 1.16182
 C2301 C 0.61057 0.20294 1.14614
 C2302 C 0.61286 0.22758 1.12700
 N2303 N 0.58823 0.24464 1.13182
 H2304 H 0.63087 0.23297 1.11159
 N2305 N 1.28176 1.06208 0.85898
 N2306 N 1.30747 1.07438 0.85030
 C2307 C 1.31007 1.10084 0.86533
 C2308 C 1.28504 1.10436 0.88339
 N2309 N 1.26788 1.07971 0.87887
 H2310 H 1.27943 1.12359 0.89745
 N2311 N 1.27586 0.56529 0.34886
 N2312 N 1.30075 0.57927 0.34030
 C2313 C 1.30323 0.60448 0.35739
 C2314 C 1.27890 0.60543 0.37673
 N2315 N 1.26226 0.58059 0.37074
 H2316 H 1.27357 0.62302 0.39287
 N2317 N 0.78445 1.05710 0.35853
 N2318 N 0.81045 1.06913 0.35038
 C2319 C 0.81342 1.09518 0.36606
 C2320 C 0.78831 1.09872 0.38401
 N2321 N 0.77073 1.07449 0.37873
 H2322 H 0.78297 1.11767 0.39854
 N2323 N 0.77296 0.56914 0.84590
 N2324 N 0.79797 0.58269 0.83711
 C2325 C 0.80117 0.60765 0.85443
 C2326 C 0.77715 0.60890 0.87416
 N2327 N 0.75997 0.58449 0.86812
 H2328 H 0.77244 0.62633 0.89067
 N2329 N 1.22824 0.84280 1.15287
 N2330 N 1.25138 0.83092 1.16713
 C2331 C 1.27367 0.85163 1.16662
 C2332 C 1.26342 0.87660 1.15118
 N2333 N 1.23514 0.87008 1.14294
 H2334 H 1.27637 0.89580 1.14343
 N2335 N 1.27445 0.37563 0.56682
 N2336 N 1.29978 0.36357 0.57643
 C2337 C 1.29988 0.36639 0.60668
 C2338 C 1.27369 0.38116 0.61530
 N2339 N 1.25852 0.38646 0.58970
 H2340 H 1.26556 0.38595 0.63783
 N2341 N 0.75476 0.83991 0.62630
 N2342 N 0.78134 0.83100 0.63593
 C2343 C 0.79740 0.85620 0.64167
 C2344 C 0.77975 0.88104 0.63507
 N2345 N 0.75332 0.86983 0.62541
 H2346 H 0.78651 0.90456 0.63436
 N2347 N 0.77433 0.38059 1.06626
 N2348 N 0.80017 0.36961 1.07578
 C2349 C 0.80084 0.37358 1.10593
 C2350 C 0.77443 0.38791 1.11454
 N2351 N 0.75860 0.39180 1.08908
 H2352 H 0.76665 0.39343 1.13703
 N2353 N 0.74021 1.16657 1.08718
 N2354 N 0.71358 1.17394 1.09820
 C2355 C 0.70635 1.15289 1.11886
 C2356 C 0.72971 1.13225 1.12010
 N2357 N 0.75044 1.14163 1.09997
 H2358 H 0.73134 1.11243 1.13414
 N2359 N 0.73133 0.65742 0.57633
 N2360 N 0.70437 0.66391 0.58701
 C2361 C 0.69819 0.64341 0.60852
 C2362 C 0.72247 0.62406 0.61070
 N2363 N 0.74274 0.63363 0.59023
 H2364 H 0.72513 0.60519 0.62585
 N2365 N 0.23926 1.16282 0.58578
 N2366 N 0.21252 1.17014 0.59650
 C2367 C 0.20508 1.14902 0.61701
 C2368 C 0.22843 1.12840 0.61850
 N2369 N 0.24935 1.13786 0.59864
 H2370 H 0.22989 1.10845 0.63239
 N2371 N 0.23196 0.65933 1.07759
 N2372 N 0.20564 0.66657 1.08941
 C2373 C 0.20033 0.64699 1.11200
 C2374 C 0.22450 0.62743 1.11363
 N2375 N 0.24381 0.63593 1.09178
 H2376 H 0.22772 0.60913 1.12933
 N2377 N 0.74432 0.84676 0.91308
 N2378 N 0.71983 0.83571 0.90045
 C2379 C 0.70761 0.85818 0.88422
 C2380 C 0.72581 0.88360 0.88721
 N2381 N 0.74842 0.87544 0.90552
 H2382 H 0.72257 0.90592 0.87788
 N2383 N 0.70176 0.41303 0.39660
 N2384 N 0.68105 0.40011 0.37951
 C2385 C 0.68953 0.37114 0.37511
 C2386 C 0.71629 0.36673 0.39027
 N2387 N 0.72312 0.39344 0.40340
 H2388 H 0.73108 0.34736 0.38867
 N2389 N 0.23703 0.85101 0.42360
 N2390 N 0.21296 0.83937 0.41073
 C2391 C 0.20504 0.85843 0.38861
 C2392 C 0.22534 0.88231 0.38831
 N2393 N 0.24498 0.87676 0.41062
 H2394 H 0.22591 0.90150 0.37331
 N2395 N 0.20164 0.42746 0.91711
 N2396 N 0.17602 0.41742 0.90590
 C2397 C 0.18065 0.38856 0.89687
 C2398 C 0.21010 0.38119 0.90306
 N2399 N 0.22230 0.40606 0.91563
 H2400 H 0.22229 0.36115 0.89603
   
