data_POSCAR
  _audit_creation_date              2014-09-24
  _audit_creation_method            'ToBaCCo'
  _symmetry_space_group_name_H-M    'P1'
  _symmetry_Int_Tables_number       1
  _symmetry_cell_setting            triclinic
  loop_
  _symmetry_equiv_pos_as_xyz
 x,y,z
_cell_length_a 59.8032
_cell_length_b 59.7576
_cell_length_c 59.7299
_cell_angle_alpha 90.021800
_cell_angle_beta 89.974000
_cell_angle_gamma 89.975800
loop_
  _atom_site_label
  _atom_site_type_symbol
  _atom_site_fract_x
  _atom_site_fract_y
  _atom_site_fract_z
O1 O 0.87527 0.15548 0.81653
 O2 O 0.90013 0.12625 0.81050
 O3 O 0.81715 0.12374 0.84422
 O4 O 0.80880 0.10219 0.87359
 O5 O 0.84446 0.18301 0.87553
 O6 O 0.87551 0.18940 0.89964
 O7 O 0.87625 0.06623 0.90498
 O8 O 0.85028 0.06064 0.87690
 O9 O 0.93318 0.09392 0.87574
 O10 O 0.94037 0.12557 0.85056
 O11 O 0.90613 0.12381 0.93278
 O12 O 0.87457 0.14846 0.94030
 O13 O 0.87634 0.09313 0.93203
 O14 O 0.85022 0.12541 0.93915
 O15 O 0.93305 0.12407 0.90588
 O16 O 0.93946 0.15005 0.87357
 O17 O 0.90638 0.06697 0.87629
 O18 O 0.87700 0.06332 0.84692
 O19 O 0.87588 0.18241 0.84360
 O20 O 0.90043 0.18896 0.87506
 O21 O 0.81751 0.15614 0.87554
 O22 O 0.81257 0.12422 0.90161
 O23 O 0.84393 0.12456 0.81713
 O24 O 0.87510 0.09753 0.81284
 Zr25 Zr 0.87437 0.12544 0.83483
 O26 O 0.89559 0.10481 0.85395
 Zr27 Zr 0.83521 0.12567 0.87439
 O28 O 0.85452 0.10444 0.89482
 Zr29 Zr 0.87459 0.16484 0.87418
 O30 O 0.89541 0.14564 0.89517
 Zr31 Zr 0.87608 0.08483 0.87520
 O32 O 0.85455 0.10388 0.85450
 Zr33 Zr 0.91526 0.12427 0.87553
 O34 O 0.89606 0.14519 0.85440
 Zr35 Zr 0.87590 0.12391 0.91478
 O36 O 0.85487 0.14539 0.89594
 O37 O 0.85371 0.14633 0.85353
 O38 O 0.89692 0.10319 0.89630
 C39 C 0.87611 0.17599 0.82303
 C40 C 0.82347 0.12358 0.82364
 C41 C 0.82394 0.17665 0.87611
 C42 C 0.87643 0.07260 0.92553
 C43 C 0.92690 0.07336 0.87621
 C44 C 0.92664 0.12386 0.92640
 H45 H 0.90480 0.09548 0.84384
 H46 H 0.90456 0.15578 0.90448
 H47 H 0.84410 0.15588 0.84399
 H48 H 0.84451 0.09490 0.90389
 H49 H 0.83998 0.06384 0.86433
 H50 H 0.81487 0.08796 0.87944
 H51 H 0.93689 0.16040 0.88624
 H52 H 0.91206 0.18379 0.86445
 H53 H 0.88024 0.04795 0.85227
 H54 H 0.87046 0.10250 0.79769
 H55 H 0.88548 0.16028 0.93644
 H56 H 0.86567 0.18393 0.91180
 H57 H 0.91227 0.13563 0.81671
 H58 H 0.93686 0.11403 0.83922
 H59 H 0.81679 0.13637 0.91207
 H60 H 0.84008 0.11258 0.93664
 O61 O 0.84433 0.68320 0.37493
 O62 O 0.87350 0.68922 0.39987
 O63 O 0.87619 0.65546 0.31680
 O64 O 0.89772 0.62609 0.30846
 O65 O 0.81691 0.62421 0.34410
 O66 O 0.81047 0.60015 0.37521
 O67 O 0.93355 0.59475 0.37605
 O68 O 0.93916 0.62277 0.34999
 O69 O 0.90577 0.62411 0.43299
 O70 O 0.87409 0.64925 0.44012
 O71 O 0.87600 0.56703 0.40595
 O72 O 0.85141 0.55947 0.37436
 O73 O 0.90668 0.56773 0.37613
 O74 O 0.87444 0.56061 0.34996
 O75 O 0.87570 0.59395 0.43286
 O76 O 0.84970 0.62620 0.43926
 O77 O 0.93276 0.62352 0.40615
 O78 O 0.93643 0.65279 0.37668
 O79 O 0.81743 0.65616 0.37555
 O80 O 0.81086 0.62473 0.40014
 O81 O 0.84382 0.62418 0.31715
 O82 O 0.87570 0.59810 0.31225
 O83 O 0.87530 0.68255 0.34360
 O84 O 0.90223 0.68688 0.37482
 Zr85 Zr 0.87436 0.66489 0.37408
 O86 O 0.89496 0.64579 0.39533
 Zr87 Zr 0.87422 0.62533 0.33489
 O88 O 0.89540 0.60490 0.35424
 Zr89 Zr 0.83501 0.62558 0.37429
 O90 O 0.85417 0.60461 0.39516
 Zr91 Zr 0.91496 0.62452 0.37582
 O92 O 0.89595 0.64522 0.35425
 Zr93 Zr 0.87548 0.62426 0.41503
 O94 O 0.85459 0.64536 0.39578
 Zr95 Zr 0.87592 0.58498 0.37566
 O96 O 0.85448 0.60381 0.35458
 O97 O 0.85353 0.64620 0.35338
 O98 O 0.89658 0.60347 0.39670
 C99 C 0.82384 0.67672 0.37577
 C100 C 0.87633 0.67603 0.32313
 C101 C 0.82331 0.62361 0.32357
 C102 C 0.92719 0.57421 0.37624
 C103 C 0.92630 0.62366 0.42665
 C104 C 0.87593 0.57344 0.42647
 H105 H 0.90425 0.65591 0.40454
 H106 H 0.84403 0.59531 0.40432
 H107 H 0.84401 0.65573 0.34375
 H108 H 0.90496 0.59582 0.34424
 H109 H 0.93597 0.63533 0.33966
 H110 H 0.91192 0.62021 0.31453
 H111 H 0.83935 0.61355 0.43667
 H112 H 0.81600 0.63533 0.41178
 H113 H 0.95180 0.64745 0.37992
 H114 H 0.89725 0.70202 0.37017
 H115 H 0.83957 0.56335 0.38525
 H116 H 0.81596 0.58798 0.36539
 H117 H 0.86404 0.68305 0.41198
 H118 H 0.88562 0.66058 0.43661
 H119 H 0.86357 0.58765 0.31647
 H120 H 0.88730 0.56308 0.33983
 O121 O 0.37478 0.15516 0.31688
 O122 O 0.39976 0.12589 0.31101
 O123 O 0.31672 0.12339 0.34464
 O124 O 0.30841 0.10188 0.37406
 O125 O 0.34394 0.18278 0.37580
 O126 O 0.37496 0.18933 0.39987
 O127 O 0.37578 0.06618 0.40576
 O128 O 0.34985 0.06048 0.37764
 O129 O 0.43274 0.09386 0.37630
 O130 O 0.43991 0.12540 0.35107
 O131 O 0.40567 0.12386 0.43327
 O132 O 0.37405 0.14857 0.44068
 O133 O 0.37584 0.09318 0.43266
 O134 O 0.34976 0.12548 0.43966
 O135 O 0.43258 0.12409 0.40636
 O136 O 0.43894 0.14998 0.37398
 O137 O 0.40595 0.06686 0.37702
 O138 O 0.37660 0.06303 0.34769
 O139 O 0.37534 0.18216 0.34387
 O140 O 0.39991 0.18881 0.37531
 O141 O 0.31703 0.15587 0.37587
 O142 O 0.31207 0.12410 0.40201
 O143 O 0.34352 0.12415 0.31757
 O144 O 0.37473 0.09718 0.31338
 Zr145 Zr 0.37394 0.12515 0.33530
 O146 O 0.39513 0.10460 0.35453
 Zr147 Zr 0.33476 0.12544 0.37483
 O148 O 0.35406 0.10433 0.39539
 Zr149 Zr 0.37409 0.16467 0.37450
 O150 O 0.39491 0.14558 0.39559
 Zr151 Zr 0.37565 0.08467 0.37587
 O152 O 0.35415 0.10362 0.35504
 Zr153 Zr 0.41478 0.12417 0.37602
 O154 O 0.39559 0.14500 0.35480
 Zr155 Zr 0.37542 0.12389 0.41528
 O156 O 0.35439 0.14527 0.39632
 O157 O 0.35324 0.14606 0.35391
 O158 O 0.39648 0.10314 0.39689
 C159 C 0.37557 0.17570 0.32330
 C160 C 0.32306 0.12316 0.32407
 C161 C 0.32344 0.17639 0.37639
 C162 C 0.37592 0.07258 0.42632
 C163 C 0.42642 0.07333 0.37686
 C164 C 0.42618 0.12392 0.42688
 H165 H 0.40435 0.09524 0.34445
 H166 H 0.40405 0.15576 0.40487
 H167 H 0.34363 0.15556 0.34434
 H168 H 0.34406 0.09482 0.40449
 H169 H 0.33956 0.06363 0.36504
 H170 H 0.31444 0.08774 0.38015
 H171 H 0.43637 0.16036 0.38662
 H172 H 0.41152 0.18365 0.36468
 H173 H 0.37982 0.04768 0.35311
 H174 H 0.37012 0.10211 0.29820
 H175 H 0.38503 0.16033 0.43683
 H176 H 0.36518 0.18387 0.41207
 H177 H 0.41181 0.13545 0.31714
 H178 H 0.43635 0.11389 0.33971
 H179 H 0.31632 0.13623 0.41247
 H180 H 0.33958 0.11268 0.43715
 O181 O 0.12484 0.34436 0.31656
 O182 O 0.09994 0.37368 0.31071
 O183 O 0.18300 0.37601 0.34423
 O184 O 0.19145 0.39744 0.37363
 O185 O 0.15560 0.31671 0.37548
 O186 O 0.12454 0.31032 0.39958
 O187 O 0.12417 0.43349 0.40532
 O188 O 0.15014 0.43905 0.37718
 O189 O 0.06713 0.40598 0.37601
 O190 O 0.05982 0.37441 0.35082
 O191 O 0.09415 0.37594 0.43296
 O192 O 0.12566 0.35117 0.44036
 O193 O 0.12404 0.40652 0.43227
 O194 O 0.15007 0.37414 0.43924
 O195 O 0.06721 0.37580 0.40612
 O196 O 0.06069 0.34988 0.37377
 O197 O 0.09402 0.43288 0.37662
 O198 O 0.12337 0.43653 0.34725
 O199 O 0.12420 0.31741 0.34357
 O200 O 0.09960 0.31089 0.37504
 O201 O 0.18260 0.34353 0.37546
 O202 O 0.18767 0.37535 0.40159
 O203 O 0.15618 0.37529 0.31719
 O204 O 0.12505 0.40233 0.31300
 Zr205 Zr 0.12577 0.37439 0.33495
 O206 O 0.10467 0.39506 0.35419
 Zr207 Zr 0.16498 0.37402 0.37443
 O208 O 0.14577 0.39525 0.39498
 Zr209 Zr 0.12551 0.33494 0.37419
 O210 O 0.10478 0.35414 0.39528
 Zr211 Zr 0.12425 0.41495 0.37547
 O212 O 0.14567 0.39589 0.35464
 Zr213 Zr 0.08496 0.37560 0.37573
 O214 O 0.10406 0.35466 0.35451
 Zr215 Zr 0.12437 0.37578 0.41492
 O216 O 0.14530 0.35429 0.39596
 O217 O 0.14642 0.35344 0.35355
 O218 O 0.10337 0.39659 0.39654
 C219 C 0.12399 0.32384 0.32301
 C220 C 0.17665 0.37624 0.32367
 C221 C 0.17612 0.32304 0.37603
 C222 C 0.12401 0.42707 0.42586
 C223 C 0.07352 0.42650 0.37651
 C224 C 0.07364 0.37596 0.42661
 H225 H 0.09547 0.40443 0.34411
 H226 H 0.09561 0.34401 0.40459
 H227 H 0.15600 0.34390 0.34397
 H228 H 0.15582 0.40474 0.40406
 H229 H 0.16041 0.43585 0.36457
 H230 H 0.18545 0.41166 0.37959
 H231 H 0.06326 0.33950 0.38640
 H232 H 0.08800 0.31609 0.36443
 H233 H 0.12021 0.45191 0.35266
 H234 H 0.12963 0.39735 0.29782
 H235 H 0.11467 0.33941 0.43652
 H236 H 0.13437 0.31575 0.41175
 H237 H 0.08786 0.36418 0.31687
 H238 H 0.06341 0.38588 0.33945
 H239 H 0.18342 0.36321 0.41204
 H240 H 0.16024 0.38694 0.43674
 O241 O 0.62498 0.84428 0.31643
 O242 O 0.60008 0.87353 0.31048
 O243 O 0.68307 0.87603 0.34413
 O244 O 0.69135 0.89764 0.37349
 O245 O 0.65578 0.81676 0.37538
 O246 O 0.62475 0.81027 0.39946
 O247 O 0.62393 0.93346 0.40508
 O248 O 0.64990 0.93908 0.37697
 O249 O 0.56701 0.90570 0.37582
 O250 O 0.55982 0.87413 0.35063
 O251 O 0.59406 0.87584 0.43279
 O252 O 0.62568 0.85116 0.44022
 O253 O 0.62384 0.90653 0.43208
 O254 O 0.64998 0.87426 0.43913
 O255 O 0.56715 0.87555 0.40592
 O256 O 0.56082 0.84955 0.37354
 O257 O 0.59381 0.93270 0.37640
 O258 O 0.62316 0.93643 0.34702
 O259 O 0.62439 0.81734 0.34345
 O260 O 0.59981 0.81076 0.37493
 O261 O 0.68270 0.84366 0.37541
 O262 O 0.68766 0.87552 0.40150
 O263 O 0.65629 0.87523 0.31706
 O264 O 0.62508 0.90226 0.31286
 Zr265 Zr 0.62584 0.87432 0.33479
 O266 O 0.60462 0.89490 0.35399
 Zr267 Zr 0.66499 0.87410 0.37431
 O268 O 0.64568 0.89527 0.39482
 Zr269 Zr 0.62564 0.83489 0.37407
 O270 O 0.60482 0.85403 0.39514
 Zr271 Zr 0.62410 0.91488 0.37526
 O272 O 0.64564 0.89589 0.35448
 Zr273 Zr 0.58495 0.87539 0.37554
 O274 O 0.60416 0.85453 0.35434
 Zr275 Zr 0.62431 0.87576 0.41477
 O276 O 0.64534 0.85433 0.39585
 O277 O 0.64651 0.85344 0.35343
 O278 O 0.60327 0.89647 0.39634
 C279 C 0.62417 0.82376 0.32289
 C280 C 0.67676 0.87619 0.32355
 C281 C 0.67628 0.82315 0.37596
 C282 C 0.62374 0.92707 0.42562
 C283 C 0.57334 0.92624 0.37632
 C284 C 0.57355 0.87577 0.42643
 H285 H 0.59540 0.90423 0.34390
 H286 H 0.59568 0.84387 0.40444
 H287 H 0.65613 0.84391 0.34388
 H288 H 0.65567 0.90481 0.40390
 H289 H 0.66019 0.93591 0.36437
 H290 H 0.68530 0.91182 0.37950
 H291 H 0.56334 0.83924 0.38624
 H292 H 0.58821 0.81590 0.36428
 H293 H 0.61994 0.95180 0.35242
 H294 H 0.62975 0.89731 0.29769
 H295 H 0.61471 0.83938 0.43640
 H296 H 0.63452 0.81577 0.41165
 H297 H 0.58797 0.86409 0.31667
 H298 H 0.56338 0.88560 0.33925
 H299 H 0.68341 0.86341 0.41197
 H300 H 0.66012 0.88709 0.43662
 O301 O 0.62522 0.65534 0.18301
 O302 O 0.60028 0.62616 0.18898
 O303 O 0.68329 0.62345 0.15532
 O304 O 0.69161 0.60186 0.12595
 O305 O 0.65611 0.68279 0.12404
 O306 O 0.62509 0.68929 0.09995
 O307 O 0.62414 0.56611 0.09442
 O308 O 0.65009 0.56045 0.12251
 O309 O 0.56724 0.59396 0.12372
 O310 O 0.56009 0.62561 0.14889
 O311 O 0.59437 0.62378 0.06670
 O312 O 0.62598 0.64833 0.05921
 O313 O 0.62411 0.59301 0.06743
 O314 O 0.65030 0.62524 0.06036
 O315 O 0.56745 0.62411 0.09358
 O316 O 0.56107 0.65010 0.12591
 O317 O 0.59401 0.56692 0.12315
 O318 O 0.62338 0.56318 0.15249
 O319 O 0.62468 0.68228 0.15597
 O320 O 0.60015 0.68888 0.12450
 O321 O 0.68301 0.65584 0.12402
 O322 O 0.68792 0.62394 0.09794
 O323 O 0.65649 0.62433 0.18239
 O324 O 0.62527 0.59738 0.18664
 Zr325 Zr 0.62607 0.62530 0.16467
 O326 O 0.60484 0.60473 0.14550
 Zr327 Zr 0.66526 0.62543 0.12514
 O328 O 0.64593 0.60426 0.10466
 Zr329 Zr 0.62595 0.66470 0.12537
 O330 O 0.60512 0.64557 0.10434
 Zr331 Zr 0.62433 0.58470 0.12424
 O332 O 0.64586 0.60368 0.14499
 Zr333 Zr 0.58521 0.62425 0.12394
 O334 O 0.60443 0.64511 0.14511
 Zr335 Zr 0.62460 0.62379 0.08471
 O336 O 0.64564 0.64521 0.10359
 O337 O 0.64678 0.64613 0.14601
 O338 O 0.60352 0.60312 0.10315
 C339 C 0.62443 0.67586 0.17654
 C340 C 0.67696 0.62330 0.17589
 C341 C 0.67662 0.67637 0.12346
 C342 C 0.62398 0.57244 0.07385
 C343 C 0.57354 0.57341 0.12325
 C344 C 0.57386 0.62389 0.07307
 H345 H 0.59561 0.59542 0.15561
 H346 H 0.59600 0.65574 0.09502
 H347 H 0.65640 0.65565 0.15556
 H348 H 0.65593 0.59469 0.09558
 H349 H 0.66040 0.56362 0.13509
 H350 H 0.68555 0.58767 0.12001
 H351 H 0.56366 0.66045 0.11324
 H352 H 0.58852 0.68376 0.13512
 H353 H 0.62013 0.54781 0.14712
 H354 H 0.62991 0.60235 0.20180
 H355 H 0.61511 0.66019 0.06308
 H356 H 0.63490 0.68379 0.08778
 H357 H 0.58819 0.63563 0.18279
 H358 H 0.56361 0.61411 0.16025
 H359 H 0.68371 0.63607 0.08748
 H360 H 0.66040 0.61236 0.06284
 O361 O 0.37469 0.84495 0.68331
 O362 O 0.39966 0.87420 0.68916
 O363 O 0.31658 0.87674 0.65569
 O364 O 0.30824 0.89828 0.62631
 O365 O 0.34381 0.81736 0.62443
 O366 O 0.37482 0.81083 0.60030
 O367 O 0.37561 0.93400 0.59451
 O368 O 0.34968 0.93969 0.62265
 O369 O 0.43258 0.90628 0.62385
 O370 O 0.43980 0.87470 0.64898
 O371 O 0.40544 0.87629 0.56686
 O372 O 0.37381 0.85162 0.55952
 O373 O 0.37563 0.90701 0.56756
 O374 O 0.34952 0.87474 0.56061
 O375 O 0.43239 0.87607 0.59370
 O376 O 0.43880 0.85014 0.62606
 O377 O 0.40579 0.93330 0.62325
 O378 O 0.37643 0.93709 0.65259
 O379 O 0.37524 0.81796 0.65631
 O380 O 0.39979 0.81133 0.62482
 O381 O 0.31688 0.84428 0.62443
 O382 O 0.31189 0.87609 0.59832
 O383 O 0.34341 0.87596 0.68271
 O384 O 0.37462 0.90293 0.68684
 Zr385 Zr 0.37382 0.87497 0.66492
 O386 O 0.39499 0.89552 0.64565
 Zr387 Zr 0.33460 0.87471 0.62547
 O388 O 0.35388 0.89584 0.60489
 Zr389 Zr 0.37395 0.83548 0.62568
 O390 O 0.39474 0.85458 0.60457
 Zr391 Zr 0.37548 0.91549 0.62438
 O392 O 0.35400 0.89653 0.64523
 Zr393 Zr 0.41464 0.87597 0.62410
 O394 O 0.39547 0.85514 0.64535
 Zr395 Zr 0.37522 0.87628 0.58493
 O396 O 0.35422 0.85490 0.60391
 O397 O 0.35311 0.85407 0.64633
 O398 O 0.39629 0.89703 0.60329
 C399 C 0.37549 0.82441 0.67688
 C400 C 0.32293 0.87695 0.67625
 C401 C 0.32330 0.82376 0.62389
 C402 C 0.37573 0.92757 0.57397
 C403 C 0.42626 0.92682 0.62337
 C404 C 0.42596 0.87623 0.57319
 H405 H 0.40422 0.90486 0.65573
 H406 H 0.40387 0.84440 0.59526
 H407 H 0.34351 0.84457 0.65591
 H408 H 0.34387 0.90537 0.59581
 H409 H 0.33939 0.93654 0.63525
 H410 H 0.31426 0.91243 0.62023
 H411 H 0.43623 0.83978 0.61340
 H412 H 0.41141 0.81649 0.63542
 H413 H 0.37963 0.95245 0.64718
 H414 H 0.37002 0.89799 0.70203
 H415 H 0.38480 0.83985 0.56334
 H416 H 0.36500 0.81630 0.58813
 H417 H 0.41171 0.86465 0.68299
 H418 H 0.43622 0.88615 0.66039
 H419 H 0.31612 0.86396 0.58786
 H420 H 0.33935 0.88755 0.56315
 O421 O 0.87516 0.34440 0.68338
 O422 O 0.90006 0.37362 0.68932
 O423 O 0.81701 0.37618 0.65583
 O424 O 0.80857 0.39768 0.62647
 O425 O 0.84427 0.31685 0.62447
 O426 O 0.87528 0.31042 0.60031
 O427 O 0.87592 0.43359 0.59486
 O428 O 0.85002 0.43922 0.62303
 O429 O 0.93295 0.40587 0.62401
 O430 O 0.94019 0.37423 0.64916
 O431 O 0.90580 0.37601 0.56704
 O432 O 0.87427 0.35135 0.55960
 O433 O 0.87596 0.40667 0.56785
 O434 O 0.84986 0.37436 0.56083
 O435 O 0.93276 0.37573 0.59387
 O436 O 0.93925 0.34975 0.62615
 O437 O 0.90613 0.43286 0.62349
 O438 O 0.87680 0.43654 0.65293
 O439 O 0.87573 0.31746 0.65633
 O440 O 0.90024 0.31088 0.62482
 O441 O 0.81732 0.34374 0.62453
 O442 O 0.81231 0.37564 0.59846
 O443 O 0.84384 0.37535 0.68284
 O444 O 0.87501 0.40235 0.68705
 Zr445 Zr 0.87424 0.37443 0.66506
 O446 O 0.89540 0.39504 0.64587
 Zr447 Zr 0.83500 0.37420 0.62562
 O448 O 0.85425 0.39540 0.60512
 Zr449 Zr 0.87439 0.33501 0.62575
 O450 O 0.89516 0.35418 0.60468
 Zr451 Zr 0.87584 0.41502 0.62466
 O452 O 0.85437 0.39599 0.64544
 Zr453 Zr 0.91504 0.37555 0.62426
 O454 O 0.89589 0.35465 0.64545
 Zr455 Zr 0.87560 0.37590 0.58511
 O456 O 0.85463 0.35444 0.60402
 O457 O 0.85355 0.35354 0.64644
 O458 O 0.89665 0.39662 0.60352
 C459 C 0.87599 0.32388 0.67690
 C460 C 0.82337 0.37635 0.67638
 C461 C 0.82375 0.32323 0.62394
 C462 C 0.87604 0.42720 0.57432
 C463 C 0.92661 0.42641 0.62355
 C464 C 0.92631 0.37595 0.57337
 H465 H 0.90462 0.40437 0.65596
 H466 H 0.90429 0.34403 0.59535
 H467 H 0.84396 0.34401 0.65601
 H468 H 0.84422 0.40494 0.59607
 H469 H 0.83975 0.43602 0.63564
 H470 H 0.81463 0.41191 0.62062
 H471 H 0.93666 0.33940 0.61349
 H472 H 0.91188 0.31604 0.63540
 H473 H 0.88002 0.45191 0.64756
 H474 H 0.87041 0.39738 0.70222
 H475 H 0.88517 0.33952 0.56344
 H476 H 0.86544 0.31589 0.58816
 H477 H 0.91216 0.36418 0.68310
 H478 H 0.93668 0.38576 0.66052
 H479 H 0.81650 0.36348 0.58801
 H480 H 0.83973 0.38721 0.56334
 O481 O 0.81694 0.87483 0.15532
 O482 O 0.81105 0.89971 0.12601
 O483 O 0.84457 0.81658 0.12360
 O484 O 0.87388 0.80815 0.10206
 O485 O 0.87581 0.84396 0.18289
 O486 O 0.89987 0.87502 0.18932
 O487 O 0.90552 0.87547 0.06607
 O488 O 0.87742 0.84950 0.06050
 O489 O 0.87625 0.93255 0.09370
 O490 O 0.85116 0.93988 0.12533
 O491 O 0.93319 0.90545 0.12361
 O492 O 0.94062 0.87393 0.14836
 O493 O 0.93245 0.87555 0.09300
 O494 O 0.93943 0.84947 0.12539
 O495 O 0.90639 0.93244 0.12382
 O496 O 0.87411 0.93896 0.14984
 O497 O 0.87685 0.90565 0.06675
 O498 O 0.84752 0.87631 0.06309
 O499 O 0.84393 0.87544 0.18228
 O500 O 0.87538 0.90002 0.18878
 O501 O 0.87581 0.81696 0.15601
 O502 O 0.90186 0.81188 0.12415
 O503 O 0.81755 0.84342 0.12438
 O504 O 0.81336 0.87460 0.09732
 Zr505 Zr 0.83528 0.87386 0.12526
 O506 O 0.85449 0.89499 0.10460
 Zr507 Zr 0.87472 0.83461 0.12554
 O508 O 0.89523 0.85382 0.10431
 Zr509 Zr 0.87451 0.87409 0.16470
 O510 O 0.89557 0.89483 0.14549
 Zr511 Zr 0.87572 0.87539 0.08465
 O512 O 0.85493 0.85396 0.10371
 Zr513 Zr 0.87603 0.91469 0.12407
 O514 O 0.85484 0.89557 0.14500
 Zr515 Zr 0.91516 0.87523 0.12378
 O516 O 0.89624 0.85428 0.14528
 O517 O 0.85388 0.85319 0.14618
 O518 O 0.89678 0.89626 0.10302
 C519 C 0.82338 0.87569 0.17585
 C520 C 0.82403 0.82294 0.12342
 C521 C 0.87638 0.82343 0.17652
 C522 C 0.92607 0.87561 0.07242
 C523 C 0.87673 0.92616 0.07317
 C524 C 0.92686 0.92598 0.12361
 H525 H 0.84441 0.90420 0.09526
 H526 H 0.90488 0.90399 0.15562
 H527 H 0.84433 0.84361 0.15574
 H528 H 0.90429 0.84377 0.09478
 H529 H 0.86482 0.83922 0.06370
 H530 H 0.87988 0.81414 0.08786
 H531 H 0.88677 0.93640 0.16018
 H532 H 0.86479 0.91164 0.18360
 H533 H 0.85291 0.87946 0.04770
 H534 H 0.79821 0.86999 0.10230
 H535 H 0.93677 0.88489 0.16016
 H536 H 0.91205 0.86521 0.18384
 H537 H 0.81722 0.91182 0.13547
 H538 H 0.83978 0.93630 0.11387
 H539 H 0.91231 0.81613 0.13628
 H540 H 0.93698 0.83933 0.11253
 O541 O 0.37501 0.34428 0.18349
 O542 O 0.39994 0.37355 0.18942
 O543 O 0.31698 0.37606 0.15567
 O544 O 0.30864 0.39750 0.12624
 O545 O 0.34437 0.31668 0.12450
 O546 O 0.37547 0.31022 0.10045
 O547 O 0.37604 0.43341 0.09476
 O548 O 0.35004 0.43903 0.12287
 O549 O 0.43300 0.40575 0.12422
 O550 O 0.44015 0.37416 0.14946
 O551 O 0.40609 0.37581 0.06720
 O552 O 0.37461 0.35109 0.05967
 O553 O 0.37620 0.40643 0.06780
 O554 O 0.35017 0.37407 0.06077
 O555 O 0.43294 0.37557 0.09414
 O556 O 0.43933 0.34965 0.12647
 O557 O 0.40616 0.43273 0.12351
 O558 O 0.37674 0.43646 0.15285
 O559 O 0.37569 0.31731 0.15647
 O560 O 0.40036 0.31074 0.12505
 O561 O 0.31741 0.34356 0.12444
 O562 O 0.31247 0.37538 0.09828
 O563 O 0.34371 0.37527 0.18278
 O564 O 0.37486 0.40224 0.18708
 Zr565 Zr 0.37417 0.37431 0.16511
 O566 O 0.39536 0.39493 0.14595
 Zr567 Zr 0.33508 0.37402 0.12552
 O568 O 0.35438 0.39520 0.10504
 Zr569 Zr 0.37448 0.33484 0.12585
 O570 O 0.39531 0.35400 0.10483
 Zr571 Zr 0.37588 0.41487 0.12462
 O572 O 0.35437 0.39584 0.14537
 Zr573 Zr 0.41510 0.37541 0.12446
 O574 O 0.39590 0.35452 0.14560
 Zr575 Zr 0.37581 0.37569 0.08514
 O576 O 0.35479 0.35425 0.10402
 O577 O 0.35355 0.35340 0.14644
 O578 O 0.39679 0.39645 0.10360
 C579 C 0.37585 0.32374 0.17704
 C580 C 0.32327 0.37627 0.17624
 C581 C 0.32385 0.32305 0.12390
 C582 C 0.37623 0.42699 0.07422
 C583 C 0.42665 0.42628 0.12367
 C584 C 0.42658 0.37577 0.07362
 H585 H 0.40454 0.40428 0.15605
 H586 H 0.40449 0.34385 0.09555
 H587 H 0.34393 0.34388 0.15599
 H588 H 0.34437 0.40472 0.09594
 H589 H 0.33973 0.43584 0.13546
 H590 H 0.31469 0.41170 0.12033
 H591 H 0.43677 0.33926 0.11383
 H592 H 0.41194 0.31591 0.13570
 H593 H 0.37995 0.45182 0.14745
 H594 H 0.37024 0.39727 0.20224
 H595 H 0.38552 0.33929 0.06357
 H596 H 0.36568 0.31568 0.08825
 H597 H 0.41202 0.36402 0.18329
 H598 H 0.43657 0.38569 0.16079
 H599 H 0.31672 0.36321 0.08786
 H600 H 0.34001 0.38690 0.06323
 O601 O 0.37481 0.65583 0.81668
 O602 O 0.39978 0.62659 0.81074
 O603 O 0.31677 0.62398 0.84444
 O604 O 0.30845 0.60249 0.87384
 O605 O 0.34399 0.68337 0.87565
 O606 O 0.37504 0.68983 0.89975
 O607 O 0.37591 0.56665 0.90536
 O608 O 0.34994 0.56100 0.87726
 O609 O 0.43283 0.59439 0.87593
 O610 O 0.43996 0.62602 0.85076
 O611 O 0.40575 0.62429 0.93299
 O612 O 0.37420 0.64894 0.94050
 O613 O 0.37594 0.59361 0.93234
 O614 O 0.34981 0.62593 0.93936
 O615 O 0.43266 0.62454 0.90609
 O616 O 0.43904 0.65051 0.87377
 O617 O 0.40605 0.56737 0.87657
 O618 O 0.37665 0.56364 0.84726
 O619 O 0.37539 0.68278 0.84372
 O620 O 0.39997 0.68937 0.87516
 O621 O 0.31708 0.65646 0.87569
 O622 O 0.31219 0.62460 0.90183
 O623 O 0.34354 0.62481 0.81735
 O624 O 0.37476 0.59786 0.81307
 Zr625 Zr 0.37399 0.62579 0.83504
 O626 O 0.39520 0.60519 0.85421
 Zr627 Zr 0.33482 0.62601 0.87460
 O628 O 0.35415 0.60484 0.89508
 Zr629 Zr 0.37415 0.66523 0.87433
 O630 O 0.39499 0.64608 0.89535
 Zr631 Zr 0.37574 0.58520 0.87551
 O632 O 0.35420 0.60421 0.85476
 Zr633 Zr 0.41487 0.62470 0.87574
 O634 O 0.39565 0.64558 0.85458
 Zr635 Zr 0.37551 0.62436 0.91501
 O636 O 0.35447 0.64579 0.89613
 O637 O 0.35329 0.64666 0.85371
 O638 O 0.39656 0.60363 0.89657
 C639 C 0.37561 0.67636 0.82314
 C640 C 0.32309 0.62380 0.82386
 C641 C 0.32348 0.67698 0.87623
 C642 C 0.37604 0.57306 0.92590
 C643 C 0.42653 0.57384 0.87641
 C644 C 0.42626 0.62435 0.92661
 H645 H 0.40442 0.59586 0.84410
 H646 H 0.40413 0.65624 0.90465
 H647 H 0.34367 0.65618 0.84416
 H648 H 0.34415 0.59530 0.90417
 H649 H 0.33963 0.56418 0.86468
 H650 H 0.31451 0.58830 0.87976
 H651 H 0.43645 0.66087 0.88643
 H652 H 0.41160 0.68421 0.86454
 H653 H 0.37988 0.54828 0.85264
 H654 H 0.37014 0.60282 0.79791
 H655 H 0.38507 0.66078 0.93660
 H656 H 0.36522 0.68437 0.91192
 H657 H 0.41184 0.63611 0.81689
 H658 H 0.43641 0.61452 0.83939
 H659 H 0.31639 0.63678 0.91225
 H660 H 0.33969 0.61308 0.93688
 O661 O 0.12466 0.65582 0.68349
 O662 O 0.09976 0.62654 0.68938
 O663 O 0.18285 0.62408 0.65586
 O664 O 0.19130 0.60260 0.62647
 O665 O 0.15551 0.68339 0.62458
 O666 O 0.12450 0.68980 0.60045
 O667 O 0.12403 0.56663 0.59479
 O668 O 0.14994 0.56103 0.62296
 O669 O 0.06695 0.59426 0.62407
 O670 O 0.05966 0.62587 0.64924
 O671 O 0.09408 0.62416 0.56710
 O672 O 0.12560 0.64893 0.55970
 O673 O 0.12397 0.59358 0.56783
 O674 O 0.15000 0.62592 0.56084
 O675 O 0.06711 0.62438 0.59394
 O676 O 0.06059 0.65038 0.62626
 O677 O 0.09381 0.56730 0.62347
 O678 O 0.12313 0.56363 0.65287
 O679 O 0.12406 0.68276 0.65646
 O680 O 0.09953 0.68929 0.62498
 O681 O 0.18250 0.65654 0.62461
 O682 O 0.18757 0.62468 0.59849
 O683 O 0.15601 0.62486 0.68290
 O684 O 0.12485 0.59785 0.68708
 Zr685 Zr 0.12561 0.62577 0.66513
 O686 O 0.10449 0.60513 0.64590
 Zr687 Zr 0.16486 0.62606 0.62566
 O688 O 0.14564 0.60485 0.60513
 Zr689 Zr 0.12541 0.66520 0.62585
 O690 O 0.10468 0.64602 0.60477
 Zr691 Zr 0.12407 0.58518 0.62464
 O692 O 0.14550 0.60424 0.64545
 Zr693 Zr 0.08483 0.62461 0.62433
 O694 O 0.10393 0.64552 0.64555
 Zr695 Zr 0.12428 0.62433 0.58516
 O696 O 0.14522 0.64580 0.60410
 O697 O 0.14628 0.64669 0.64652
 O698 O 0.10325 0.60357 0.60355
 C699 C 0.12382 0.67634 0.67703
 C700 C 0.17648 0.62388 0.67643
 C701 C 0.17604 0.67704 0.62404
 C702 C 0.12391 0.57304 0.57425
 C703 C 0.07332 0.57373 0.62357
 C704 C 0.07356 0.62417 0.57344
 H705 H 0.09528 0.59579 0.65598
 H706 H 0.09553 0.65615 0.59545
 H707 H 0.15586 0.65622 0.65609
 H708 H 0.15569 0.59533 0.59606
 H709 H 0.16020 0.56423 0.63557
 H710 H 0.18529 0.58838 0.62055
 H711 H 0.06314 0.66071 0.61359
 H712 H 0.08789 0.68411 0.63557
 H713 H 0.11996 0.54826 0.64748
 H714 H 0.12943 0.60282 0.70226
 H715 H 0.11460 0.66069 0.56352
 H716 H 0.13434 0.68434 0.58828
 H717 H 0.08768 0.63602 0.68319
 H718 H 0.06322 0.61439 0.66062
 H719 H 0.18335 0.63683 0.58805
 H720 H 0.16018 0.61312 0.56337
 O721 O 0.12504 0.15521 0.18325
 O722 O 0.10008 0.12597 0.18909
 O723 O 0.18321 0.12340 0.15569
 O724 O 0.19165 0.10189 0.12631
 O725 O 0.15603 0.18277 0.12441
 O726 O 0.12505 0.18925 0.10023
 O727 O 0.12430 0.06610 0.09448
 O728 O 0.15022 0.06043 0.12263
 O729 O 0.06730 0.09380 0.12375
 O730 O 0.06003 0.12541 0.14891
 O731 O 0.09454 0.12375 0.06681
 O732 O 0.12615 0.14843 0.05949
 O733 O 0.12433 0.09306 0.06755
 O734 O 0.15045 0.12532 0.06060
 O735 O 0.06754 0.12397 0.09362
 O736 O 0.06102 0.14992 0.12595
 O737 O 0.09411 0.06680 0.12319
 O738 O 0.12343 0.06305 0.15256
 O739 O 0.12452 0.18217 0.15624
 O740 O 0.10005 0.18878 0.12474
 O741 O 0.18297 0.15586 0.12444
 O742 O 0.18801 0.12403 0.09832
 O743 O 0.15633 0.12421 0.18268
 O744 O 0.12513 0.09724 0.18680
 Zr745 Zr 0.12596 0.12518 0.16487
 O746 O 0.10483 0.10459 0.14560
 Zr747 Zr 0.16526 0.12542 0.12546
 O748 O 0.14603 0.10427 0.10487
 Zr749 Zr 0.12589 0.16464 0.12563
 O750 O 0.10514 0.14551 0.10451
 Zr751 Zr 0.12440 0.08463 0.12435
 O752 O 0.14583 0.10362 0.14521
 Zr753 Zr 0.08522 0.12412 0.12403
 O754 O 0.10434 0.14498 0.14528
 Zr755 Zr 0.12471 0.12380 0.08490
 O756 O 0.14568 0.14521 0.10389
 O757 O 0.14670 0.14607 0.14630
 O758 O 0.10362 0.10306 0.10325
 C759 C 0.12423 0.17574 0.17681
 C760 C 0.17681 0.12321 0.17625
 C761 C 0.17654 0.17638 0.12388
 C762 C 0.12420 0.07248 0.07391
 C763 C 0.07363 0.07326 0.12329
 C764 C 0.07401 0.12379 0.07312
 H765 H 0.09559 0.09526 0.15567
 H766 H 0.09602 0.15567 0.09519
 H767 H 0.15627 0.15558 0.15589
 H768 H 0.15606 0.09473 0.09580
 H769 H 0.16049 0.06360 0.13524
 H770 H 0.18563 0.08772 0.12027
 H771 H 0.06363 0.16028 0.11331
 H772 H 0.08839 0.18361 0.13530
 H773 H 0.12024 0.04769 0.14715
 H774 H 0.12969 0.10219 0.20199
 H775 H 0.11516 0.16020 0.06329
 H776 H 0.13491 0.18379 0.08808
 H777 H 0.08803 0.13549 0.18291
 H778 H 0.06356 0.11393 0.16029
 H779 H 0.18379 0.13616 0.08786
 H780 H 0.16061 0.11250 0.06313
 O781 O 0.68358 0.37548 0.84471
 O782 O 0.68950 0.40032 0.87402
 O783 O 0.65606 0.31720 0.87636
 O784 O 0.62675 0.30879 0.89795
 O785 O 0.62478 0.34455 0.81711
 O786 O 0.60063 0.37559 0.81074
 O787 O 0.59508 0.37609 0.93394
 O788 O 0.62320 0.35016 0.93951
 O789 O 0.62423 0.43321 0.90635
 O790 O 0.64933 0.44052 0.87470
 O791 O 0.56732 0.40607 0.87640
 O792 O 0.55998 0.37451 0.85161
 O793 O 0.56812 0.37616 0.90699
 O794 O 0.56112 0.35012 0.87464
 O795 O 0.59409 0.43308 0.87621
 O796 O 0.62639 0.43958 0.85020
 O797 O 0.62370 0.40631 0.93329
 O798 O 0.65307 0.37698 0.93691
 O799 O 0.65659 0.37608 0.81776
 O800 O 0.62512 0.40057 0.81122
 O801 O 0.62482 0.31756 0.84398
 O802 O 0.59878 0.31248 0.87584
 O803 O 0.68305 0.34405 0.87560
 O804 O 0.68718 0.37523 0.90270
 Zr805 Zr 0.66527 0.37449 0.87476
 O806 O 0.64606 0.39564 0.89541
 Zr807 Zr 0.62588 0.33522 0.87446
 O808 O 0.60537 0.35447 0.89569
 Zr809 Zr 0.62602 0.37469 0.83532
 O810 O 0.60496 0.39546 0.85453
 Zr811 Zr 0.62486 0.37604 0.91536
 O812 O 0.64566 0.35458 0.89630
 Zr813 Zr 0.62448 0.41533 0.87596
 O814 O 0.64568 0.39619 0.85503
 Zr815 Zr 0.58540 0.37585 0.87622
 O816 O 0.60432 0.35488 0.85473
 O817 O 0.64669 0.35381 0.85382
 O818 O 0.60376 0.39689 0.89701
 C819 C 0.67713 0.37634 0.82418
 C820 C 0.67660 0.32355 0.87653
 C821 C 0.62425 0.32401 0.82347
 C822 C 0.57456 0.37621 0.92754
 C823 C 0.62378 0.42682 0.92689
 C824 C 0.57362 0.42662 0.87640
 H825 H 0.65613 0.40486 0.90476
 H826 H 0.59564 0.40461 0.84440
 H827 H 0.65625 0.34423 0.84426
 H828 H 0.59632 0.34441 0.90521
 H829 H 0.63580 0.33989 0.93630
 H830 H 0.62074 0.31480 0.91215
 H831 H 0.61372 0.43704 0.83986
 H832 H 0.63564 0.41225 0.81643
 H833 H 0.64769 0.38014 0.95230
 H834 H 0.70234 0.37061 0.89773
 H835 H 0.56377 0.38552 0.83986
 H836 H 0.58850 0.36573 0.81619
 H837 H 0.68328 0.41246 0.86462
 H838 H 0.66070 0.43697 0.88619
 H839 H 0.58832 0.31673 0.86372
 H840 H 0.56367 0.33992 0.88743
 O841 O 0.12459 0.84494 0.81684
 O842 O 0.09967 0.87422 0.81097
 O843 O 0.18268 0.87665 0.84459
 O844 O 0.19098 0.89815 0.87403
 O845 O 0.15539 0.81727 0.87572
 O846 O 0.12433 0.81081 0.89983
 O847 O 0.12361 0.93394 0.90573
 O848 O 0.14955 0.93962 0.87762
 O849 O 0.06662 0.90633 0.87628
 O850 O 0.05947 0.87476 0.85102
 O851 O 0.09363 0.87627 0.93324
 O852 O 0.12524 0.85153 0.94060
 O853 O 0.12351 0.90693 0.93264
 O854 O 0.14952 0.87463 0.93963
 O855 O 0.06674 0.87609 0.90635
 O856 O 0.06037 0.85021 0.87395
 O857 O 0.09344 0.93331 0.87697
 O858 O 0.12284 0.93706 0.84765
 O859 O 0.12398 0.81795 0.84382
 O860 O 0.09942 0.81130 0.87525
 O861 O 0.18233 0.84415 0.87579
 O862 O 0.18727 0.87595 0.90197
 O863 O 0.15590 0.87591 0.81753
 O864 O 0.12472 0.90292 0.81337
 Zr865 Zr 0.12546 0.87495 0.83526
 O866 O 0.10425 0.89553 0.85450
 Zr867 Zr 0.16461 0.87462 0.87478
 O868 O 0.14529 0.89575 0.89534
 Zr869 Zr 0.12525 0.83544 0.87446
 O870 O 0.10441 0.85456 0.89553
 Zr871 Zr 0.12373 0.91545 0.87584
 O872 O 0.14525 0.89647 0.85501
 Zr873 Zr 0.08456 0.87599 0.87599
 O874 O 0.10377 0.85514 0.85477
 Zr875 Zr 0.12390 0.87622 0.91524
 O876 O 0.14495 0.85483 0.89628
 O877 O 0.14613 0.85401 0.85386
 O878 O 0.10287 0.89701 0.89686
 C879 C 0.12376 0.82440 0.82326
 C880 C 0.17636 0.87687 0.82401
 C881 C 0.17591 0.82364 0.87630
 C882 C 0.12346 0.92749 0.92625
 C883 C 0.07295 0.92687 0.87681
 C884 C 0.07312 0.87624 0.92687
 H885 H 0.09505 0.90489 0.84442
 H886 H 0.09525 0.84438 0.90481
 H887 H 0.15574 0.84450 0.84428
 H888 H 0.15530 0.90526 0.90444
 H889 H 0.15986 0.93645 0.86503
 H890 H 0.18494 0.91231 0.88009
 H891 H 0.06293 0.83982 0.88657
 H892 H 0.08779 0.81650 0.86468
 H893 H 0.11963 0.95242 0.85307
 H894 H 0.12933 0.89798 0.79819
 H895 H 0.11423 0.83980 0.93676
 H896 H 0.13416 0.81625 0.91200
 H897 H 0.08759 0.86472 0.81712
 H898 H 0.06303 0.88628 0.83969
 H899 H 0.18301 0.86381 0.91241
 H900 H 0.15976 0.88738 0.93708
 O901 O 0.68335 0.12474 0.65559
 O902 O 0.68918 0.09985 0.62627
 O903 O 0.65583 0.18304 0.62396
 O904 O 0.62651 0.19154 0.60247
 O905 O 0.62459 0.15576 0.68329
 O906 O 0.60042 0.12475 0.68971
 O907 O 0.59473 0.12427 0.56649
 O908 O 0.62288 0.15018 0.56088
 O909 O 0.62390 0.06712 0.59403
 O910 O 0.64901 0.05977 0.62565
 O911 O 0.56702 0.09436 0.62406
 O912 O 0.55970 0.12589 0.64886
 O913 O 0.56781 0.12427 0.59349
 O914 O 0.56090 0.15035 0.62589
 O915 O 0.59377 0.06732 0.62419
 O916 O 0.62604 0.06072 0.65016
 O917 O 0.62336 0.09402 0.56710
 O918 O 0.65274 0.12332 0.56342
 O919 O 0.65637 0.12419 0.68259
 O920 O 0.62488 0.09972 0.68916
 O921 O 0.62463 0.18275 0.65642
 O922 O 0.59855 0.18787 0.62460
 O923 O 0.68279 0.15615 0.62469
 O924 O 0.68690 0.12497 0.59760
 Zr925 Zr 0.66499 0.12575 0.62557
 O926 O 0.64574 0.10465 0.60493
 Zr927 Zr 0.62564 0.16509 0.62594
 O928 O 0.60509 0.14590 0.60473
 Zr929 Zr 0.62579 0.12562 0.66507
 O930 O 0.60469 0.10490 0.64588
 Zr931 Zr 0.62455 0.12428 0.58502
 O932 O 0.64538 0.14569 0.60406
 Zr933 Zr 0.62417 0.08500 0.62442
 O934 O 0.64540 0.10408 0.64533
 Zr935 Zr 0.58512 0.12455 0.62423
 O936 O 0.60409 0.14547 0.64570
 O937 O 0.64645 0.14646 0.64653
 O938 O 0.60344 0.10347 0.60341
 C939 C 0.67691 0.12390 0.67613
 C940 C 0.67636 0.17665 0.62375
 C941 C 0.62407 0.17630 0.67693
 C942 C 0.57422 0.12419 0.57292
 C943 C 0.62344 0.07351 0.57350
 C944 C 0.57331 0.07381 0.62401
 H945 H 0.65580 0.09541 0.59556
 H946 H 0.59537 0.09576 0.65603
 H947 H 0.65603 0.15602 0.65608
 H948 H 0.59604 0.15597 0.59522
 H949 H 0.63549 0.16043 0.56407
 H950 H 0.62052 0.18555 0.58827
 H951 H 0.61339 0.06331 0.66053
 H952 H 0.63540 0.08804 0.68393
 H953 H 0.64734 0.12017 0.54804
 H954 H 0.70206 0.12954 0.60255
 H955 H 0.56353 0.11492 0.66063
 H956 H 0.58829 0.13463 0.68427
 H957 H 0.68299 0.08775 0.63573
 H958 H 0.66037 0.06331 0.61415
 H959 H 0.58811 0.18366 0.63677
 H960 H 0.56340 0.16050 0.61305
 N961 N 0.37655 0.79664 0.73195
 C962 C 0.37706 0.77472 0.72610
 N963 N 0.37717 0.76914 0.70410
 N964 N 0.37677 0.78499 0.68842
 C965 C 0.37623 0.80698 0.69421
 N966 N 0.37615 0.81251 0.71627
 C967 C 0.37722 0.75761 0.74296
 C968 C 0.37723 0.74321 0.75710
 C969 C 0.37709 0.72609 0.77396
 N970 N 0.37658 0.70417 0.76809
 N971 N 0.37620 0.68829 0.78375
 C972 C 0.37632 0.69381 0.80582
 N973 N 0.37686 0.71578 0.81162
 N974 N 0.37724 0.73165 0.79596
 N975 N 0.37728 0.23096 0.29607
 C976 C 0.37717 0.22538 0.27408
 N977 N 0.37664 0.20346 0.26822
 N978 N 0.37623 0.18759 0.28390
 C979 C 0.37632 0.19313 0.30596
 N980 N 0.37686 0.21511 0.31175
 C981 C 0.37735 0.24249 0.25721
 C982 C 0.37739 0.25689 0.24307
 C983 C 0.37728 0.27402 0.22622
 N984 N 0.37749 0.26846 0.20422
 N985 N 0.37713 0.28432 0.18856
 C986 C 0.37655 0.30630 0.19436
 N987 N 0.37637 0.31181 0.21643
 N988 N 0.37673 0.29594 0.23209
 N989 N 0.62317 0.79602 0.26782
 C990 C 0.62266 0.77410 0.27365
 N991 N 0.62253 0.76851 0.29564
 N992 N 0.62291 0.78436 0.31133
 C993 C 0.62344 0.80634 0.30556
 N994 N 0.62355 0.81188 0.28350
 C995 C 0.62254 0.75701 0.25678
 C996 C 0.62258 0.74264 0.24262
 C997 C 0.62277 0.72555 0.22575
 N998 N 0.62329 0.70363 0.23160
 N999 N 0.62372 0.68777 0.21592
 C1000 C 0.62367 0.69330 0.19386
 N1001 N 0.62313 0.71527 0.18808
 N1002 N 0.62269 0.73113 0.20376
 N1003 N 0.12296 0.29603 0.26796
 C1004 C 0.12240 0.27412 0.27382
 N1005 N 0.12223 0.26856 0.29582
 N1006 N 0.12263 0.28443 0.31149
 C1007 C 0.12322 0.30640 0.30569
 N1008 N 0.12336 0.31191 0.28362
 C1009 C 0.12227 0.25699 0.25697
 C1010 C 0.12230 0.24258 0.24284
 C1011 C 0.12250 0.22546 0.22599
 N1012 N 0.12302 0.20355 0.23186
 N1013 N 0.12348 0.18767 0.21619
 C1014 C 0.12343 0.19318 0.19413
 N1015 N 0.12289 0.21515 0.18833
 N1016 N 0.12243 0.23102 0.20399
 N1017 N 0.12203 0.73164 0.70418
 C1018 C 0.12215 0.72609 0.72619
 N1019 N 0.12270 0.70418 0.73206
 N1020 N 0.12313 0.68829 0.71640
 C1021 C 0.12303 0.69379 0.69434
 N1022 N 0.12245 0.71576 0.68853
 C1023 C 0.12199 0.74322 0.74303
 C1024 C 0.12199 0.75762 0.75716
 C1025 C 0.12215 0.77473 0.77403
 N1026 N 0.12201 0.76915 0.79602
 N1027 N 0.12243 0.78501 0.81170
 C1028 C 0.12300 0.80698 0.80592
 N1029 N 0.12312 0.81251 0.78386
 N1030 N 0.12270 0.79665 0.76818
 N1031 N 0.87788 0.23125 0.79589
 C1032 C 0.87776 0.22568 0.77389
 N1033 N 0.87722 0.20376 0.76801
 N1034 N 0.87679 0.18790 0.78368
 C1035 C 0.87688 0.19343 0.80574
 N1036 N 0.87745 0.21540 0.81155
 C1037 C 0.87792 0.24277 0.75705
 C1038 C 0.87791 0.25714 0.74291
 C1039 C 0.87772 0.27423 0.72606
 N1040 N 0.87781 0.26864 0.70407
 N1041 N 0.87736 0.28449 0.68840
 C1042 C 0.87679 0.30646 0.69420
 N1043 N 0.87673 0.31200 0.71626
 N1044 N 0.87719 0.29614 0.73193
 N1045 N 0.79607 0.37767 0.73161
 C1046 C 0.77413 0.37829 0.72597
 N1047 N 0.76834 0.37842 0.70402
 N1048 N 0.78404 0.37792 0.68818
 C1049 C 0.80604 0.37727 0.69378
 N1050 N 0.81176 0.37717 0.71578
 C1051 C 0.75725 0.37846 0.74303
 C1052 C 0.74310 0.37844 0.75740
 C1053 C 0.72626 0.37823 0.77449
 N1054 N 0.70430 0.37830 0.76891
 N1055 N 0.68864 0.37780 0.78477
 C1056 C 0.69442 0.37720 0.80675
 N1057 N 0.71644 0.37715 0.81229
 N1058 N 0.73210 0.37765 0.79641
 N1059 N 0.26800 0.62167 0.79636
 C1060 C 0.27374 0.62179 0.77439
 N1061 N 0.29568 0.62242 0.76869
 N1062 N 0.31140 0.62294 0.78448
 C1063 C 0.30572 0.62285 0.80650
 N1064 N 0.28372 0.62219 0.81215
 C1065 C 0.25682 0.62160 0.75737
 C1066 C 0.24264 0.62162 0.74303
 C1067 C 0.22574 0.62184 0.72598
 N1068 N 0.23152 0.62175 0.70403
 N1069 N 0.21583 0.62228 0.68820
 C1070 C 0.19382 0.62294 0.69382
 N1071 N 0.18810 0.62300 0.71583
 N1072 N 0.20380 0.62247 0.73164
 N1073 N 0.26802 0.12105 0.29645
 C1074 C 0.27381 0.12112 0.27449
 N1075 N 0.29576 0.12172 0.26885
 N1076 N 0.31144 0.12224 0.28467
 C1077 C 0.30572 0.12220 0.30668
 N1078 N 0.28371 0.12157 0.31228
 C1079 C 0.25693 0.12092 0.25742
 C1080 C 0.24279 0.12093 0.24304
 C1081 C 0.22595 0.12115 0.22594
 N1082 N 0.23179 0.12105 0.20400
 N1083 N 0.21613 0.12159 0.18813
 C1084 C 0.19411 0.12225 0.19368
 N1085 N 0.18834 0.12232 0.21568
 N1086 N 0.20399 0.12178 0.23154
 N1087 N 0.76837 0.12165 0.79614
 C1088 C 0.77411 0.12181 0.77417
 N1089 N 0.79604 0.12240 0.76847
 N1090 N 0.81177 0.12284 0.78426
 C1091 C 0.80610 0.12272 0.80628
 N1092 N 0.78410 0.12209 0.81193
 C1093 C 0.75719 0.12168 0.75715
 C1094 C 0.74301 0.12173 0.74281
 C1095 C 0.72613 0.12197 0.72574
 N1096 N 0.73194 0.12253 0.70380
 N1097 N 0.71626 0.12305 0.68796
 C1098 C 0.69423 0.12303 0.69354
 N1099 N 0.68849 0.12244 0.71554
 N1100 N 0.70417 0.12193 0.73137
 N1101 N 0.70421 0.87730 0.26835
 C1102 C 0.72615 0.87785 0.27403
 N1103 N 0.73188 0.87802 0.29600
 N1104 N 0.71614 0.87762 0.31180
 C1105 C 0.69414 0.87703 0.30617
 N1106 N 0.68848 0.87689 0.28415
 C1107 C 0.74309 0.87794 0.25699
 C1108 C 0.75727 0.87786 0.24263
 C1109 C 0.77416 0.87759 0.22554
 N1110 N 0.79612 0.87766 0.23114
 N1111 N 0.81181 0.87714 0.21529
 C1112 C 0.80605 0.87654 0.19329
 N1113 N 0.78403 0.87649 0.18774
 N1114 N 0.76835 0.87700 0.20360
 N1115 N 0.76863 0.70394 0.37761
 C1116 C 0.77423 0.72592 0.37751
 N1117 N 0.79613 0.73175 0.37695
 N1118 N 0.81197 0.71607 0.37648
 C1119 C 0.80642 0.69403 0.37655
 N1120 N 0.78447 0.68826 0.37714
 C1121 C 0.75717 0.74279 0.37773
 C1122 C 0.74283 0.75696 0.37777
 C1123 C 0.72580 0.77386 0.37764
 N1124 N 0.73144 0.79582 0.37747
 N1125 N 0.71563 0.81154 0.37705
 C1126 C 0.69366 0.80580 0.37677
 N1127 N 0.68807 0.78378 0.37696
 N1128 N 0.70388 0.76806 0.37739
 N1129 N 0.76861 0.29589 0.62232
 C1130 C 0.77426 0.27393 0.62206
 N1131 N 0.79619 0.26814 0.62231
 N1132 N 0.81199 0.28385 0.62281
 C1133 C 0.80638 0.30588 0.62309
 N1134 N 0.78440 0.31161 0.62282
 C1135 C 0.75724 0.25702 0.62183
 C1136 C 0.74291 0.24283 0.62179
 C1137 C 0.72588 0.22592 0.62193
 N1138 N 0.73153 0.20396 0.62249
 N1139 N 0.71573 0.18825 0.62295
 C1140 C 0.69374 0.19398 0.62287
 N1141 N 0.68815 0.21601 0.62228
 N1142 N 0.70396 0.23172 0.62182
 N1143 N 0.73181 0.70361 0.12182
 C1144 C 0.72619 0.72559 0.12160
 N1145 N 0.70427 0.73141 0.12188
 N1146 N 0.68845 0.71572 0.12237
 C1147 C 0.69402 0.69369 0.12261
 N1148 N 0.71599 0.68792 0.12231
 C1149 C 0.74324 0.74248 0.12140
 C1150 C 0.75757 0.75666 0.12138
 C1151 C 0.77458 0.77359 0.12155
 N1152 N 0.76890 0.79554 0.12215
 N1153 N 0.78468 0.81127 0.12262
 C1154 C 0.80667 0.80557 0.12253
 N1155 N 0.81230 0.78355 0.12191
 N1156 N 0.79651 0.76783 0.12143
 N1157 N 0.26873 0.29567 0.12233
 C1158 C 0.27439 0.27371 0.12216
 N1159 N 0.29632 0.26793 0.12244
 N1160 N 0.31211 0.28366 0.12289
 C1161 C 0.30649 0.30568 0.12308
 N1162 N 0.28451 0.31140 0.12278
 C1163 C 0.25738 0.25679 0.12199
 C1164 C 0.24306 0.24259 0.12200
 C1165 C 0.22604 0.22568 0.12218
 N1166 N 0.23169 0.20371 0.12240
 N1167 N 0.21590 0.18800 0.12284
 C1168 C 0.19391 0.19373 0.12309
 N1169 N 0.18831 0.21576 0.12285
 N1170 N 0.20411 0.23147 0.12240
 N1171 N 0.26828 0.70430 0.87777
 C1172 C 0.27390 0.72628 0.87794
 N1173 N 0.29582 0.73207 0.87769
 N1174 N 0.31164 0.71637 0.87724
 C1175 C 0.30608 0.69433 0.87704
 N1176 N 0.28410 0.68859 0.87733
 C1177 C 0.25684 0.74319 0.87812
 C1178 C 0.24250 0.75738 0.87812
 C1179 C 0.22545 0.77430 0.87796
 N1180 N 0.23108 0.79627 0.87781
 N1181 N 0.21528 0.81199 0.87738
 C1182 C 0.19330 0.80627 0.87708
 N1183 N 0.18771 0.78424 0.87726
 N1184 N 0.20352 0.76852 0.87768
 N1185 N 0.26826 0.20368 0.37790
 C1186 C 0.27389 0.22564 0.37805
 N1187 N 0.29580 0.23145 0.37779
 N1188 N 0.31162 0.21575 0.37737
 C1189 C 0.30605 0.19372 0.37719
 N1190 N 0.28408 0.18797 0.37748
 C1191 C 0.25685 0.24253 0.37818
 C1192 C 0.24253 0.25672 0.37813
 C1193 C 0.22553 0.27365 0.37790
 N1194 N 0.23121 0.29560 0.37767
 N1195 N 0.21544 0.31135 0.37717
 C1196 C 0.19345 0.30566 0.37687
 N1197 N 0.18782 0.28364 0.37712
 N1198 N 0.20360 0.26790 0.37762
 N1199 N 0.51868 0.62380 1.04577
 C1200 C 0.52430 0.62360 1.02379
 N1201 N 0.54622 0.62347 1.01797
 N1202 N 0.56205 0.62355 1.03367
 C1203 C 0.55647 0.62377 1.05572
 N1204 N 0.53449 0.62388 1.06147
 C1205 C 0.50726 0.62361 1.00690
 C1206 C 0.49291 0.62366 0.99273
 C1207 C 0.47585 0.62378 0.97585
 N1208 N 0.48146 0.62400 0.95387
 N1209 N 0.46564 0.62418 0.93818
 C1210 C 0.44366 0.62416 0.94394
 N1211 N 0.43810 0.62393 0.96599
 N1212 N 0.45393 0.62375 0.98169
 N1213 N 0.48144 0.12373 0.45403
 C1214 C 0.47587 0.12356 0.47603
 N1215 N 0.45397 0.12351 0.48192
 N1216 N 0.43810 0.12362 0.46626
 C1217 C 0.44361 0.12379 0.44419
 N1218 N 0.46557 0.12384 0.43838
 C1219 C 0.49298 0.12354 0.49287
 C1220 C 0.50739 0.12356 0.50698
 C1221 C 0.52450 0.12364 0.52380
 N1222 N 0.51895 0.12374 0.54580
 N1223 N 0.53482 0.12390 0.56145
 C1224 C 0.55678 0.12398 0.55562
 N1225 N 0.56228 0.12387 0.53355
 N1226 N 0.54640 0.12371 0.51790
 N1227 N 0.54588 0.87637 0.48156
 C1228 C 0.52395 0.87631 0.47576
 N1229 N 0.51834 0.87608 0.45378
 N1230 N 0.53416 0.87591 0.43806
 C1231 C 0.55614 0.87595 0.44380
 N1232 N 0.56171 0.87619 0.46585
 C1233 C 0.50689 0.87642 0.49268
 C1234 C 0.49255 0.87648 0.50687
 C1235 C 0.47550 0.87649 0.52380
 N1236 N 0.45357 0.87656 0.51802
 N1237 N 0.43776 0.87649 0.53376
 C1238 C 0.44335 0.87634 0.55580
 N1239 N 0.46534 0.87628 0.56151
 N1240 N 0.48114 0.87635 0.54578
 N1241 N 1.04606 0.37647 0.48175
 C1242 C 1.02414 0.37648 0.47596
 N1243 N 1.01849 0.37633 0.45399
 N1244 N 1.03429 0.37618 0.43826
 C1245 C 1.05627 0.37616 0.44398
 N1246 N 1.06187 0.37631 0.46602
 C1247 C 1.00712 0.37654 0.49288
 C1248 C 0.99280 0.37653 0.50707
 C1249 C 0.97578 0.37646 0.52399
 N1250 N 0.95386 0.37652 0.51822
 N1251 N 0.93806 0.37636 0.53396
 C1252 C 0.94367 0.37614 0.55599
 N1253 N 0.96565 0.37610 0.56170
 N1254 N 0.98144 0.37625 0.54596
 N1255 N -0.04707 0.87614 1.01818
 C1256 C -0.02516 0.87628 1.02400
 N1257 N -0.01957 0.87621 1.04599
 N1258 N -0.03541 0.87600 1.06168
 C1259 C -0.05740 0.87584 1.05595
 N1260 N -0.06292 0.87593 1.03387
 C1261 C -0.00807 0.87642 1.00712
 C1262 C 0.00632 0.87649 0.99297
 C1263 C 0.02343 0.87651 0.97610
 N1264 N 0.04534 0.87656 0.98195
 N1265 N 0.06120 0.87649 0.96627
 C1266 C 0.05568 0.87635 0.94421
 N1267 N 0.03372 0.87632 0.93842
 N1268 N 0.01786 0.87639 0.95410
 N1269 N -0.01817 0.12357 -0.04630
 C1270 C -0.02380 0.12337 -0.02432
 N1271 N -0.04572 0.12331 -0.01850
 N1272 N -0.06154 0.12346 -0.03421
 C1273 C -0.05596 0.12367 -0.05626
 N1274 N -0.03398 0.12371 -0.06201
 C1275 C -0.00676 0.12331 -0.00742
 C1276 C 0.00757 0.12330 0.00677
 C1277 C 0.02458 0.12336 0.02370
 N1278 N 0.01889 0.12353 0.04567
 N1279 N 0.03467 0.12366 0.06142
 C1280 C 0.05666 0.12363 0.05572
 N1281 N 0.06229 0.12345 0.03369
 N1282 N 0.04651 0.12332 0.01794
 N1283 N 0.12353 1.04622 1.01943
 C1284 C 0.12338 1.02423 1.02496
 N1285 N 0.12349 1.01834 1.04688
 N1286 N 0.12376 1.03398 1.06280
 C1287 C 0.12392 1.05607 1.05733
 N1288 N 0.12380 1.06186 1.03532
 C1289 C 0.12319 1.00741 1.00780
 C1290 C 0.12309 0.99332 0.99335
 C1291 C 0.12305 0.97653 0.97616
 N1292 N 0.12305 0.95452 0.98166
 N1293 N 0.12315 0.93891 0.96573
 C1294 C 0.12326 0.94477 0.94376
 N1295 N 0.12324 0.96684 0.93831
 N1296 N 0.12314 0.98245 0.95425
 N1297 N 0.12355 0.48207 0.45377
 C1298 C 0.12341 0.47617 0.47569
 N1299 N 0.12345 0.45417 0.48122
 N1300 N 0.12363 0.43854 0.46532
 C1301 C 0.12378 0.44437 0.44334
 N1302 N 0.12373 0.46643 0.43785
 C1303 C 0.12334 0.49299 0.49285
 C1304 C 0.12333 0.50708 0.50730
 C1305 C 0.12338 0.52391 0.52445
 N1306 N 0.12348 0.51802 0.54637
 N1307 N 0.12363 0.53367 0.56228
 C1308 C 0.12371 0.55573 0.55679
 N1309 N 0.12360 0.56154 0.53480
 N1310 N 0.12344 0.54590 0.51890
 N1311 N 0.37668 0.48201 1.04635
 C1312 C 0.37684 0.47612 1.02442
 N1313 N 0.37683 0.45412 1.01887
 N1314 N 0.37666 0.43848 1.03476
 C1315 C 0.37648 0.44430 1.05675
 N1316 N 0.37651 0.46636 1.06225
 C1317 C 0.37689 0.49295 1.00727
 C1318 C 0.37687 0.50707 0.99283
 C1319 C 0.37677 0.52390 0.97569
 N1320 N 0.37665 0.51803 0.95375
 N1321 N 0.37644 0.53368 0.93786
 C1322 C 0.37633 0.55574 0.94337
 N1323 N 0.37646 0.56155 0.96536
 N1324 N 0.37667 0.54590 0.98125
 N1325 N 0.87627 0.54626 0.48176
 C1326 C 0.87651 0.52428 0.47616
 N1327 N 0.87657 0.51842 0.45423
 N1328 N 0.87639 0.53409 0.43836
 C1329 C 0.87614 0.55613 0.44391
 N1330 N 0.87610 0.56193 0.46590
 C1331 C 0.87660 0.50744 0.49325
 C1332 C 0.87663 0.49330 0.50763
 C1333 C 0.87658 0.47644 0.52470
 N1334 N 0.87652 0.45446 0.51908
 N1335 N 0.87636 0.43878 0.53491
 C1336 C 0.87626 0.44454 0.55691
 N1337 N 0.87634 0.46658 0.56249
 N1338 N 0.87650 0.48226 0.54665
 N1339 N 0.87728 1.04526 -0.01926
 C1340 C 0.87741 1.02330 -0.02493
 N1341 N 0.87722 1.01750 -0.04687
 N1342 N 0.87692 1.03322 -0.06270
 C1343 C 0.87678 1.05525 -0.05708
 N1344 N 0.87698 1.06097 -0.03508
 C1345 C 0.87759 1.00641 -0.00788
 C1346 C 0.87766 0.99224 0.00647
 C1347 C 0.87763 0.97538 0.02354
 N1348 N 0.87784 0.95340 0.01792
 N1349 N 0.87761 0.93772 0.03376
 C1350 C 0.87715 0.94348 0.05575
 N1351 N 0.87697 0.96552 0.06133
 N1352 N 0.87720 0.98121 0.04548
 N1353 N 0.62294 -0.01784 0.45332
 C1354 C 0.62275 -0.02365 0.47527
 N1355 N 0.62288 -0.04563 0.48089
 N1356 N 0.62318 -0.06133 0.46505
 C1357 C 0.62339 -0.05558 0.44305
 N1358 N 0.62324 -0.03354 0.43747
 C1359 C 0.62256 -0.00677 0.49235
 C1360 C 0.62249 0.00739 0.50673
 C1361 C 0.62252 0.02427 0.52382
 N1362 N 0.62293 0.01844 0.54575
 N1363 N 0.62316 0.03413 0.56162
 C1364 C 0.62300 0.05617 0.55606
 N1365 N 0.62256 0.06194 0.53407
 N1366 N 0.62233 0.04625 0.51822
 N1367 N 0.48155 1.04587 0.37737
 C1368 C 0.47584 1.02392 0.37788
 N1369 N 0.45391 1.01821 0.37812
 N1370 N 0.43815 1.03398 0.37785
 C1371 C 0.44381 1.05599 0.37732
 N1372 N 0.46580 1.06165 0.37710
 C1373 C 0.49278 1.00693 0.37793
 C1374 C 0.50700 0.99264 0.37786
 C1375 C 0.52393 0.97565 0.37765
 N1376 N 0.51821 0.95371 0.37714
 N1377 N 0.53396 0.93793 0.37675
 C1378 C 0.55595 0.94358 0.37684
 N1379 N 0.56161 0.96559 0.37737
 N1380 N 0.54587 0.98136 0.37776
 N1381 N -0.01803 -0.04650 0.12277
 C1382 C -0.02378 -0.02455 0.12272
 N1383 N -0.04572 -0.01885 0.12298
 N1384 N -0.06145 -0.03464 0.12326
 C1385 C -0.05576 -0.05665 0.12331
 N1386 N -0.03376 -0.06229 0.12305
 C1387 C -0.00685 -0.00753 0.12253
 C1388 C 0.00735 0.00678 0.12245
 C1389 C 0.02427 0.02379 0.12245
 N1390 N 0.01852 0.04574 0.12285
 N1391 N 0.03425 0.06153 0.12306
 C1392 C 0.05626 0.05589 0.12287
 N1393 N 0.06195 0.03389 0.12244
 N1394 N 0.04622 0.01810 0.12224
 N1395 N 0.51838 0.54599 0.12273
 C1396 C 0.52409 0.52404 0.12229
 N1397 N 0.54603 0.51831 0.12211
 N1398 N 0.56178 0.53406 0.12237
 C1399 C 0.55614 0.55608 0.12283
 N1400 N 0.53414 0.56176 0.12298
 C1401 C 0.50714 0.50705 0.12223
 C1402 C 0.49293 0.49275 0.12228
 C1403 C 0.47600 0.47574 0.12246
 N1404 N 0.48175 0.45380 0.12301
 N1405 N 0.46602 0.43801 0.12335
 C1406 C 0.44401 0.44365 0.12318
 N1407 N 0.43833 0.46565 0.12262
 N1408 N 0.45405 0.48143 0.12227
 N1409 N -0.01828 0.45392 0.62284
 C1410 C -0.02403 0.47587 0.62241
 N1411 N -0.04597 0.48156 0.62229
 N1412 N -0.06170 0.46578 0.62260
 C1413 C -0.05602 0.44377 0.62306
 N1414 N -0.03401 0.43813 0.62316
 C1415 C -0.00710 0.49288 0.62228
 C1416 C 0.00710 0.50720 0.62229
 C1417 C 0.02401 0.52422 0.62242
 N1418 N 0.01824 0.54616 0.62289
 N1419 N 0.03396 0.56197 0.62321
 C1420 C 0.05597 0.55635 0.62308
 N1421 N 0.06168 0.53435 0.62258
 N1422 N 0.04596 0.51855 0.62226
 N1423 N 0.48170 0.54635 0.87680
 C1424 C 0.47599 0.52439 0.87724
 N1425 N 0.45406 0.51869 0.87747
 N1426 N 0.43830 0.53446 0.87726
 C1427 C 0.44394 0.55647 0.87680
 N1428 N 0.46594 0.56213 0.87658
 C1429 C 0.49296 0.50738 0.87729
 C1430 C 0.50719 0.49308 0.87725
 C1431 C 0.52416 0.47607 0.87712
 N1432 N 0.51845 0.45411 0.87710
 N1433 N 0.53421 0.43833 0.87688
 C1434 C 0.55621 0.44399 0.87666
 N1435 N 0.56185 0.46601 0.87669
 N1436 N 0.54610 0.48178 0.87692
 N1437 N 0.62318 0.54596 1.01947
 C1438 C 0.62304 0.52399 1.02511
 N1439 N 0.62320 0.51820 1.04706
 N1440 N 0.62349 0.53391 1.06290
 C1441 C 0.62365 0.55597 1.05733
 N1442 N 0.62347 0.56167 1.03530
 C1443 C 0.62287 0.50709 1.00804
 C1444 C 0.62281 0.49293 0.99367
 C1445 C 0.62286 0.47606 0.97657
 N1446 N 0.62268 0.45408 0.98217
 N1447 N 0.62292 0.43839 0.96631
 C1448 C 0.62335 0.44415 0.94432
 N1449 N 0.62350 0.46620 0.93877
 N1450 N 0.62326 0.48188 0.95464
 N1451 N 0.37645 1.04636 0.48083
 C1452 C 0.37651 1.02436 0.47530
 N1453 N 0.37640 1.01846 0.45338
 N1454 N 0.37624 1.03409 0.43746
 C1455 C 0.37616 1.05618 0.44292
 N1456 N 0.37629 1.06199 0.46493
 C1457 C 0.37656 1.00755 0.49247
 C1458 C 0.37653 0.99346 0.50693
 C1459 C 0.37643 0.97665 0.52410
 N1460 N 0.37632 0.95464 0.51858
 N1461 N 0.37611 0.93902 0.53449
 C1462 C 0.37600 0.94486 0.55647
 N1463 N 0.37612 0.96693 0.56195
 N1464 N 0.37633 0.98256 0.54603
 N1465 N -0.01858 0.62274 0.45406
 C1466 C -0.02425 0.62298 0.47603
 N1467 N -0.04618 0.62338 0.48181
 N1468 N -0.06197 0.62354 0.46607
 C1469 C -0.05635 0.62332 0.44403
 N1470 N -0.03436 0.62290 0.43832
 C1471 C -0.00724 0.62300 0.49296
 C1472 C 0.00708 0.62310 0.50715
 C1473 C 0.02409 0.62330 0.52407
 N1474 N 0.01842 0.62355 0.54605
 N1475 N 0.03421 0.62383 0.56178
 C1476 C 0.05620 0.62388 0.55606
 N1477 N 0.06182 0.62362 0.53402
 N1478 N 0.04602 0.62334 0.51829
 N1479 N 0.45443 0.37643 1.01862
 C1480 C 0.47632 0.37642 1.02451
 N1481 N 0.48186 0.37620 1.04651
 N1482 N 0.46598 0.37599 1.06216
 C1483 C 0.44403 0.37599 1.05633
 N1484 N 0.43854 0.37622 1.03426
 C1485 C 0.49343 0.37656 1.00769
 C1486 C 0.50783 0.37662 0.99358
 C1487 C 0.52492 0.37663 0.97673
 N1488 N 0.54682 0.37655 0.98259
 N1489 N 0.56268 0.37644 0.96692
 C1490 C 0.55715 0.37640 0.94486
 N1491 N 0.53519 0.37649 0.93907
 N1492 N 0.51934 0.37660 0.95474
 N1493 N 0.48141 -0.04573 0.62305
 C1494 C 0.47569 -0.02378 0.62266
 N1495 N 0.45375 -0.01806 0.62242
 N1496 N 0.43800 -0.03382 0.62258
 C1497 C 0.44366 -0.05583 0.62300
 N1498 N 0.46565 -0.06150 0.62321
 C1499 C 0.49264 -0.00679 0.62271
 C1500 C 0.50687 0.00749 0.62283
 C1501 C 0.52384 0.02446 0.62306
 N1502 N 0.51814 0.04643 0.62316
 N1503 N 0.53391 0.06218 0.62347
 C1504 C 0.55590 0.05649 0.62371
 N1505 N 0.56153 0.03446 0.62360
 N1506 N 0.54576 0.01872 0.62329
 N1507 N -0.01774 0.54659 0.37706
 C1508 C -0.02353 0.52465 0.37725
 N1509 N -0.04548 0.51901 0.37712
 N1510 N -0.06118 0.53483 0.37681
 C1511 C -0.05546 0.55682 0.37660
 N1512 N -0.03345 0.56242 0.37675
 C1513 C -0.00665 0.50760 0.37743
 C1514 C 0.00750 0.49324 0.37749
 C1515 C 0.02435 0.47616 0.37745
 N1516 N 0.01852 0.45424 0.37700
 N1517 N 0.03419 0.43838 0.37676
 C1518 C 0.05622 0.44392 0.37695
 N1519 N 0.06198 0.46590 0.37742
 N1520 N 0.04631 0.48175 0.37766
 N1521 N -0.01884 1.04669 0.87696
 C1522 C -0.02456 1.02474 0.87743
 N1523 N -0.04650 1.01906 0.87753
 N1524 N -0.06225 1.03484 0.87716
 C1525 C -0.05661 1.05687 0.87667
 N1526 N -0.03458 1.06248 0.87659
 C1527 C -0.00762 1.00772 0.87765
 C1528 C 0.00660 0.99340 0.87773
 C1529 C 0.02355 0.97637 0.87771
 N1530 N 0.01782 0.95442 0.87723
 N1531 N 0.03356 0.93863 0.87701
 C1532 C 0.05556 0.94425 0.87724
 N1533 N 0.06123 0.96626 0.87774
 N1534 N 0.04549 0.98205 0.87797
 N1535 N 0.76832 0.62192 0.29585
 C1536 C 0.77415 0.62161 0.27391
 N1537 N 0.79612 0.62183 0.26830
 N1538 N 0.81178 0.62237 0.28415
 C1539 C 0.80601 0.62271 0.30614
 N1540 N 0.78398 0.62246 0.31171
 C1541 C 0.75730 0.62135 0.25683
 C1542 C 0.74314 0.62130 0.24247
 C1543 C 0.72625 0.62144 0.22542
 N1544 N 0.73202 0.62127 0.20346
 N1545 N 0.71631 0.62173 0.18765
 C1546 C 0.69431 0.62240 0.19327
 N1547 N 0.68860 0.62254 0.21528
 N1548 N 0.70430 0.62207 0.23109
 N1549 N 0.29562 0.87832 0.73152
 C1550 C 0.27367 0.87892 0.72590
 N1551 N 0.26788 0.87903 0.70395
 N1552 N 0.28358 0.87852 0.68810
 C1553 C 0.30559 0.87789 0.69368
 N1554 N 0.31131 0.87781 0.71569
 C1555 C 0.25678 0.87911 0.74299
 C1556 C 0.24260 0.87910 0.75736
 C1557 C 0.22569 0.87888 0.77443
 N1558 N 0.20375 0.87830 0.76878
 N1559 N 0.18804 0.87777 0.78460
 C1560 C 0.19373 0.87781 0.80662
 N1561 N 0.21574 0.87843 0.81222
 N1562 N 0.23145 0.87896 0.79639
 N1563 N 0.20397 0.37770 0.26846
 C1564 C 0.22591 0.37830 0.27411
 N1565 N 0.23168 0.37836 0.29606
 N1566 N 0.21598 0.37781 0.31189
 C1567 C 0.19398 0.37718 0.30628
 N1568 N 0.18827 0.37716 0.28428
 C1569 C 0.24280 0.37852 0.25706
 C1570 C 0.25698 0.37853 0.24272
 C1571 C 0.27390 0.37833 0.22570
 N1572 N 0.29582 0.37771 0.23140
 N1573 N 0.31156 0.37718 0.21561
 C1574 C 0.30589 0.37723 0.19359
 N1575 N 0.28390 0.37788 0.18794
 N1576 N 0.26817 0.37841 0.20374
 N1577 N 0.87765 0.73117 0.29573
 C1578 C 0.87831 0.72548 0.27377
 N1579 N 0.87846 0.70354 0.26800
 N1580 N 0.87795 0.68774 0.28373
 C1581 C 0.87726 0.69337 0.30575
 N1582 N 0.87714 0.71538 0.31146
 C1583 C 0.87850 0.74251 0.25686
 C1584 C 0.87849 0.75685 0.24268
 C1585 C 0.87828 0.77389 0.22580
 N1586 N 0.87806 0.76825 0.20382
 N1587 N 0.87755 0.78406 0.18812
 C1588 C 0.87724 0.80605 0.19387
 N1589 N 0.87749 0.81165 0.21591
 N1590 N 0.87800 0.79583 0.23161
 N1591 N 0.62275 0.29635 0.76836
 C1592 C 0.62250 0.27441 0.77418
 N1593 N 0.62271 0.26879 0.79616
 N1594 N 0.62317 0.28463 0.81186
 C1595 C 0.62344 0.30662 0.80611
 N1596 N 0.62320 0.31219 0.78407
 C1597 C 0.62231 0.25734 0.75729
 C1598 C 0.62229 0.24297 0.74312
 C1599 C 0.62244 0.22589 0.72623
 N1600 N 0.62266 0.20396 0.73205
 N1601 N 0.62308 0.18812 0.71634
 C1602 C 0.62330 0.19369 0.69429
 N1603 N 0.62305 0.21568 0.68855
 N1604 N 0.62264 0.23151 0.70425
 N1605 N 0.76879 0.20408 0.87781
 C1606 C 0.77445 0.22604 0.87804
 N1607 N 0.79638 0.23179 0.87776
 N1608 N 0.81217 0.21606 0.87724
 C1609 C 0.80656 0.19403 0.87699
 N1610 N 0.78457 0.18834 0.87729
 C1611 C 0.75742 0.24298 0.87829
 C1612 C 0.74311 0.25721 0.87834
 C1613 C 0.72609 0.27416 0.87823
 N1614 N 0.73175 0.29611 0.87767
 N1615 N 0.71597 0.31185 0.87725
 C1616 C 0.69398 0.30617 0.87737
 N1617 N 0.68836 0.28416 0.87796
 N1618 N 0.70415 0.26842 0.87838
 N1619 N 0.26814 0.79644 0.62242
 C1620 C 0.27379 0.77447 0.62223
 N1621 N 0.29571 0.76867 0.62245
 N1622 N 0.31152 0.78439 0.62288
 C1623 C 0.30592 0.80642 0.62310
 N1624 N 0.28394 0.81215 0.62285
 C1625 C 0.25677 0.75756 0.62208
 C1626 C 0.24246 0.74336 0.62210
 C1627 C 0.22546 0.72642 0.62229
 N1628 N 0.23114 0.70446 0.62251
 N1629 N 0.21538 0.68873 0.62297
 C1630 C 0.19338 0.69442 0.62323
 N1631 N 0.18775 0.71644 0.62299
 N1632 N 0.20352 0.73218 0.62253
   
