data_POSCAR
  _audit_creation_date              2014-09-24
  _audit_creation_method            'ToBaCCo'
  _symmetry_space_group_name_H-M    'P1'
  _symmetry_Int_Tables_number       1
  _symmetry_cell_setting            triclinic
  loop_
  _symmetry_equiv_pos_as_xyz
 x,y,z
_cell_length_a 52.4635
_cell_length_b 49.1551
_cell_length_c 53.7033
_cell_angle_alpha 90.033500
_cell_angle_beta 90.222400
_cell_angle_gamma 89.822700
loop_
  _atom_site_label
  _atom_site_type_symbol
  _atom_site_fract_x
  _atom_site_fract_y
  _atom_site_fract_z
O1 O 0.36781 0.32456 -0.02497
 O2 O 0.33302 0.36270 0.02280
 O3 O 0.36780 0.32502 0.02352
 O4 O 0.33099 0.36051 -0.02584
 O5 O 0.30240 0.32781 -0.02478
 O6 O 0.33846 0.29296 0.02426
 O7 O 0.30333 0.33100 0.02354
 O8 O 0.33883 0.29217 -0.02401
 Cu9 Cu 0.35279 0.34646 -0.00126
 Cu10 Cu 0.31782 0.30780 -0.00005
 C11 C 0.35948 0.30181 -0.03260
 C12 C 0.31226 0.35349 0.03132
 C13 C 0.35936 0.30270 0.03213
 C14 C 0.31035 0.35002 -0.03389
 O15 O 0.65540 0.62819 0.02843
 O16 O 0.61774 0.65837 -0.02294
 O17 O 0.65531 0.62369 -0.01967
 O18 O 0.61630 0.66117 0.02543
 O19 O 0.64282 0.69585 0.02376
 O20 O 0.68252 0.65769 -0.02110
 O21 O 0.64500 0.69237 -0.02470
 O22 O 0.68157 0.66324 0.02713
 Cu23 Cu 0.63347 0.63944 0.00299
 Cu24 Cu 0.66563 0.68075 0.00105
 C25 C 0.67493 0.64070 0.03655
 C26 C 0.62509 0.68058 -0.03266
 C27 C 0.67571 0.63402 -0.02804
 C28 C 0.62277 0.68487 0.03235
 O29 O 0.64658 0.32051 1.02973
 O30 O 0.68460 0.35753 0.98351
 O31 O 0.64896 0.32082 0.98133
 O32 O 0.68224 0.35700 1.03191
 O33 O 0.71096 0.32423 1.03351
 O34 O 0.67810 0.28839 0.98272
 O35 O 0.71404 0.32543 0.98525
 O36 O 0.67568 0.28804 1.03091
 Cu37 Cu 0.66267 0.34223 1.00642
 Cu38 Cu 0.69766 0.30327 1.00804
 C39 C 0.65468 0.29800 1.03832
 C40 C 0.70598 0.34798 0.97671
 C41 C 0.65771 0.29825 0.97357
 C42 C 0.70221 0.34669 1.04159
 O43 O 0.35310 0.61003 0.96926
 O44 O 0.38748 0.64579 1.01954
 O45 O 0.35091 0.60966 1.01766
 O46 O 0.38940 0.64559 0.97079
 O47 O 0.36074 0.67852 0.96947
 O48 O 0.32297 0.64320 1.01728
 O49 O 0.35945 0.67928 1.01767
 O50 O 0.32412 0.64267 0.96886
 Cu51 Cu 0.37311 0.62449 0.99453
 Cu52 Cu 0.33897 0.66420 0.99324
 C53 C 0.33263 0.62021 0.96057
 C54 C 0.37950 0.66884 1.02696
 C55 C 0.33024 0.62016 1.02546
 C56 C 0.38154 0.66809 0.96197
 O57 O -0.02284 0.36626 0.32086
 O58 O 0.02509 0.32910 0.35771
 O59 O 0.02680 0.36432 0.32108
 O60 O -0.02456 0.33016 0.35631
 O61 O -0.02533 0.29767 0.32805
 O62 O 0.02685 0.33037 0.29421
 O63 O 0.02428 0.29554 0.33046
 O64 O -0.02236 0.33364 0.29260
 Cu65 Cu 0.00121 0.35078 0.34178
 Cu66 Cu 0.00081 0.31095 0.30863
 C67 C -0.03060 0.35647 0.30031
 C68 C 0.03275 0.30587 0.35054
 C69 C 0.03554 0.35309 0.30153
 C70 C -0.03390 0.30804 0.34803
 O71 O 0.02428 0.65966 0.63132
 O72 O -0.02075 0.62232 0.67032
 O73 O -0.02538 0.65886 0.63477
 O74 O 0.02852 0.62609 0.66834
 O75 O 0.02884 0.66047 0.69476
 O76 O -0.02557 0.69152 0.66287
 O77 O -0.02036 0.65560 0.69792
 O78 O 0.02361 0.69407 0.65773
 Cu79 Cu 0.00152 0.63838 0.64842
 Cu80 Cu 0.00161 0.67878 0.68101
 C81 C 0.03172 0.68314 0.63780
 C82 C -0.02792 0.63224 0.69096
 C83 C -0.03473 0.68096 0.64324
 C84 C 0.03796 0.63798 0.68730
 O85 O 0.98022 0.66488 0.36708
 O86 O 1.03018 0.62848 0.33222
 O87 O 1.02964 0.66654 0.36627
 O88 O 0.98045 0.62695 0.33338
 O89 O 0.97769 0.65907 0.30483
 O90 O 1.02928 0.69672 0.33595
 O91 O 1.02708 0.65878 0.30204
 O92 O 0.97998 0.69712 0.33848
 Cu93 Cu 1.00536 0.64352 0.35266
 Cu94 Cu 1.00338 0.68102 0.31735
 C95 C 0.97188 0.68748 0.35890
 C96 C 1.03683 0.63719 0.31095
 C97 C 1.03791 0.68849 0.35679
 C98 C 0.97037 0.63644 0.31365
 O99 O 0.97195 0.33713 0.63399
 O100 O 1.02161 0.37016 0.67272
 O101 O 1.02156 0.33447 0.63714
 O102 O 0.97218 0.37484 0.66873
 O103 O 0.96755 0.34227 0.69655
 O104 O 1.01772 0.30219 0.66531
 O105 O 1.01671 0.33819 0.70113
 O106 O 0.96873 0.30464 0.66212
 Cu107 Cu 0.99711 0.35741 0.65033
 Cu108 Cu 0.99222 0.31866 0.68412
 C109 C 0.96232 0.31480 0.64131
 C110 C 1.02750 0.35975 0.69365
 C111 C 1.02815 0.31140 0.64570
 C112 C 0.96155 0.36563 0.68817
 O113 O 0.34292 -0.02089 0.38129
 O114 O 0.37440 0.03165 0.34304
 O115 O 0.34245 0.03215 0.38000
 O116 O 0.37643 -0.02120 0.34540
 O117 O 0.34492 -0.02309 0.31816
 O118 O 0.31033 0.02971 0.35339
 O119 O 0.34232 0.02995 0.31641
 O120 O 0.31148 -0.02250 0.35390
 Cu121 Cu 0.36226 0.00557 0.36514
 Cu122 Cu 0.32419 0.00331 0.33264
 C123 C 0.32155 -0.03033 0.37418
 C124 C 0.36355 0.03986 0.32319
 C125 C 0.32049 0.03981 0.37282
 C126 C 0.36663 -0.03119 0.32580
 O127 O 0.61990 0.02743 0.64710
 O128 O 0.65401 -0.02628 0.61292
 O129 O 0.62248 -0.02513 0.65039
 O130 O 0.65285 0.02693 0.61058
 O131 O 0.68417 0.03039 0.63789
 O132 O 0.65538 -0.02317 0.67606
 O133 O 0.68672 -0.02239 0.63862
 O134 O 0.65156 0.02965 0.67416
 Cu135 Cu 0.63414 0.00048 0.62751
 Cu136 Cu 0.67265 0.00391 0.65933
 C137 C 0.62970 0.03745 0.66670
 C138 C 0.67623 -0.03342 0.61980
 C139 C 0.63392 -0.03310 0.67002
 C140 C 0.67370 0.03771 0.61763
 O141 O 0.33573 1.03337 0.63528
 O142 O 0.36642 0.97441 0.66612
 O143 O 0.32962 0.98095 0.63406
 O144 O 0.37405 1.02657 0.66642
 O145 O 0.34705 1.03030 0.69764
 O146 O 0.30243 0.98458 0.66512
 O147 O 0.33898 0.97808 0.69699
 O148 O 0.30910 1.03689 0.66681
 Cu149 Cu 0.35420 1.00358 0.64733
 Cu150 Cu 0.32172 1.00792 0.68477
 C151 C 0.31692 1.04501 0.64578
 C152 C 0.35771 0.96610 0.68682
 C153 C 0.30850 0.97484 0.64402
 C154 C 0.36830 1.03602 0.68767
 O155 O 0.61835 0.97124 0.34714
 O156 O 0.65191 1.02299 0.38500
 O157 O 0.61857 1.02408 0.34944
 O158 O 0.65092 0.96984 0.38466
 O159 O 0.68251 0.97001 0.35768
 O160 O 0.64957 1.02357 0.32175
 O161 O 0.68332 1.02279 0.35789
 O162 O 0.65053 0.97081 0.32079
 Cu163 Cu 0.63180 0.99686 0.36931
 Cu164 Cu 0.66964 0.99686 0.33684
 C165 C 0.62878 0.96232 0.32738
 C166 C 0.67344 1.03183 0.37782
 C167 C 0.62844 1.03297 0.32952
 C168 C 0.67235 0.96082 0.37739
 C169 C 0.81117 0.80022 0.51258
 C170 C 0.81143 0.79926 0.48731
 C171 C 0.82997 0.78196 0.47394
 C172 C 0.79514 0.81738 0.47188
 C173 C 0.79654 0.82138 0.52601
 C174 C 0.82782 0.78218 0.52774
 C175 C 0.85600 0.78831 0.47465
 C176 C 0.87344 0.77271 0.46122
 C177 C 0.86513 0.75031 0.44718
 C178 C 0.83910 0.74371 0.44680
 C179 C 0.82157 0.75967 0.45987
 C180 C 0.80647 0.83492 0.45461
 C181 C 0.79149 0.85214 0.43994
 C182 C 0.76477 0.85198 0.44200
 C183 C 0.75343 0.83425 0.45927
 C184 C 0.76849 0.81710 0.47408
 C185 C 0.77630 0.81405 0.54155
 C186 C 0.76273 0.83405 0.55452
 C187 C 0.76966 0.86155 0.55255
 C188 C 0.79011 0.86878 0.53713
 C189 C 0.80335 0.84886 0.52384
 C190 C 0.82589 0.75375 0.52610
 C191 C 0.84258 0.73702 0.53959
 C192 C 0.86150 0.74845 0.55499
 C193 C 0.86314 0.77697 0.55667
 C194 C 0.84638 0.79362 0.54334
 H195 H 0.86268 0.80560 0.48533
 H196 H 0.89345 0.77806 0.46179
 H197 H 0.83233 0.72661 0.43592
 H198 H 0.80150 0.75466 0.45910
 H199 H 0.82701 0.83558 0.45273
 H200 H 0.80089 0.86589 0.42723
 H201 H 0.75938 0.80344 0.48709
 H202 H 0.77096 0.79290 0.54350
 H203 H 0.74715 0.82802 0.56645
 H204 H 0.79569 0.88987 0.53526
 H205 H 0.81910 0.85477 0.51205
 H206 H 0.81151 0.74455 0.51430
 H207 H 0.84056 0.71517 0.53812
 H208 H 0.87777 0.78651 0.56792
 H209 H 0.84834 0.81550 0.54467
 H210 H 0.73291 0.83332 0.46109
 C211 C 0.18500 0.19476 0.51729
 C212 C 0.18277 0.19269 0.49215
 C213 C 0.16393 0.20903 0.47791
 C214 C 0.19802 0.17287 0.47771
 C215 C 0.20437 0.17895 0.53146
 C216 C 0.16683 0.21141 0.53184
 C217 C 0.14547 0.19587 0.46335
 C218 C 0.12809 0.21096 0.44923
 C219 C 0.12901 0.23955 0.44917
 C220 C 0.14753 0.25269 0.46385
 C221 C 0.16487 0.23755 0.47806
 C222 C 0.19430 0.14484 0.48085
 C223 C 0.20787 0.12624 0.46630
 C224 C 0.22558 0.13545 0.44869
 C225 C 0.22948 0.16352 0.44581
 C226 C 0.21554 0.18211 0.46001
 C227 C 0.23037 0.18040 0.52545
 C228 C 0.24824 0.16449 0.53829
 C229 C 0.24045 0.14712 0.55758
 C230 C 0.21448 0.14621 0.56389
 C231 C 0.19665 0.16201 0.55102
 C232 C 0.17489 0.23562 0.54316
 C233 C 0.15763 0.25151 0.55666
 C234 C 0.13230 0.24295 0.55957
 C235 C 0.12441 0.21845 0.54859
 C236 C 0.14150 0.20291 0.53461
 H237 H 0.14445 0.17387 0.46304
 H238 H 0.11381 0.20022 0.43848
 H239 H 0.14898 0.27466 0.46392
 H240 H 0.17929 0.24804 0.48885
 H241 H 0.18064 0.13745 0.49429
 H242 H 0.20466 0.10467 0.46884
 H243 H 0.21845 0.20371 0.45729
 H244 H 0.23680 0.19376 0.51075
 H245 H 0.26816 0.16590 0.53325
 H246 H 0.20783 0.13275 0.57842
 H247 H 0.17671 0.16052 0.55595
 H248 H 0.19442 0.24235 0.54121
 H249 H 0.16408 0.27031 0.56508
 H250 H 0.10491 0.21160 0.55053
 H251 H 0.13509 0.18417 0.52604
 H252 H 0.24293 0.17101 0.43220
 C253 C 0.17869 0.82071 0.49075
 C254 C 0.17825 0.82205 0.51597
 C255 C 0.15911 0.80707 0.53062
 C256 C 0.19591 0.83990 0.52998
 C257 C 0.19470 0.83941 0.47606
 C258 C 0.16208 0.80182 0.47668
 C259 C 0.13321 0.81400 0.52884
 C260 C 0.11532 0.80085 0.54376
 C261 C 0.12310 0.78037 0.56036
 C262 C 0.14901 0.77328 0.56188
 C263 C 0.16694 0.78679 0.54731
 C264 C 0.18618 0.86035 0.54550
 C265 C 0.20267 0.87775 0.55825
 C266 C 0.22923 0.87482 0.55592
 C267 C 0.23890 0.85396 0.54066
 C268 C 0.22238 0.83664 0.52783
 C269 C 0.21518 0.82931 0.46211
 C270 C 0.23028 0.84706 0.44822
 C271 C 0.22462 0.87499 0.44768
 C272 C 0.20400 0.88500 0.46156
 C273 C 0.18925 0.86735 0.47580
 C274 C 0.16409 0.77360 0.48004
 C275 C 0.14862 0.75594 0.46631
 C276 C 0.13076 0.76621 0.44906
 C277 C 0.12878 0.79457 0.44593
 C278 C 0.14443 0.81215 0.45945
 H279 H 0.12697 0.82986 0.51620
 H280 H 0.09540 0.80650 0.54225
 H281 H 0.15539 0.75765 0.57470
 H282 H 0.18692 0.78143 0.54898
 H283 H 0.16579 0.86318 0.54733
 H284 H 0.19461 0.89382 0.56957
 H285 H 0.23021 0.82066 0.51624
 H286 H 0.21953 0.80775 0.46214
 H287 H 0.24599 0.83896 0.43747
 H288 H 0.19939 0.90649 0.46141
 H289 H 0.17340 0.87537 0.48642
 H290 H 0.17786 0.76529 0.49307
 H291 H 0.15094 0.73424 0.46893
 H292 H 0.11489 0.80326 0.43325
 H293 H 0.14255 0.83390 0.45671
 H294 H 0.25925 0.85086 0.53883
 C295 C 0.80856 0.19898 0.48117
 C296 C 0.80828 0.20112 0.50639
 C297 C 0.82643 0.21910 0.51965
 C298 C 0.79211 0.18322 0.52200
 C299 C 0.79336 0.17799 0.46816
 C300 C 0.82614 0.21546 0.46574
 C301 C 0.85248 0.21263 0.52028
 C302 C 0.86944 0.22881 0.53381
 C303 C 0.86066 0.25191 0.54661
 C304 C 0.83465 0.25869 0.54551
 C305 C 0.81759 0.24218 0.53235
 C306 C 0.80366 0.16585 0.53941
 C307 C 0.78892 0.14850 0.55398
 C308 C 0.76221 0.14828 0.55163
 C309 C 0.75061 0.16580 0.53421
 C310 C 0.76544 0.18319 0.51958
 C311 C 0.77142 0.18539 0.45477
 C312 C 0.75721 0.16559 0.44223
 C313 C 0.76520 0.13832 0.44242
 C314 C 0.78724 0.13098 0.45572
 C315 C 0.80109 0.15066 0.46875
 C316 C 0.82491 0.24399 0.46579
 C317 C 0.84232 0.25922 0.45191
 C318 C 0.86129 0.24618 0.43773
 C319 C 0.86223 0.21757 0.43762
 C320 C 0.84477 0.20241 0.45135
 H321 H 0.85954 0.19478 0.51065
 H322 H 0.88943 0.22325 0.53439
 H323 H 0.82747 0.27629 0.55543
 H324 H 0.79750 0.24733 0.53208
 H325 H 0.82420 0.16539 0.54147
 H326 H 0.79851 0.13495 0.56688
 H327 H 0.75613 0.19673 0.50648
 H328 H 0.76529 0.20644 0.45415
 H329 H 0.74032 0.17159 0.43191
 H330 H 0.79366 0.11002 0.45602
 H331 H 0.81803 0.14471 0.47899
 H332 H 0.81050 0.25442 0.47661
 H333 H 0.84081 0.28119 0.45214
 H334 H 0.87685 0.20684 0.42734
 H335 H 0.84622 0.18043 0.45122
 H336 H 0.73008 0.16636 0.53217
 C337 C 0.51507 0.81158 0.80532
 C338 C 0.48930 0.80817 0.80563
 C339 C 0.47235 0.82213 0.78749
 C340 C 0.47667 0.79260 0.82575
 C341 C 0.53176 0.79657 0.82298
 C342 C 0.52762 0.83113 0.78811
 C343 C 0.45345 0.83990 0.79621
 C344 C 0.43936 0.85574 0.77957
 C345 C 0.44364 0.85389 0.75378
 C346 C 0.46182 0.83514 0.74500
 C347 C 0.47600 0.81932 0.76172
 C348 C 0.47775 0.80188 0.85045
 C349 C 0.46474 0.78804 0.86921
 C350 C 0.45072 0.76450 0.86362
 C351 C 0.44999 0.75501 0.83894
 C352 C 0.46262 0.76917 0.82009
 C353 C 0.53141 0.76804 0.82401
 C354 C 0.54642 0.75417 0.84144
 C355 C 0.56214 0.76858 0.85808
 C356 C 0.56277 0.79715 0.85663
 C357 C 0.54782 0.81098 0.83916
 C358 C 0.54810 0.82255 0.77326
 C359 C 0.55960 0.84057 0.75660
 C360 C 0.55072 0.86746 0.75441
 C361 C 0.53062 0.87622 0.76966
 C362 C 0.51946 0.85836 0.78663
 H363 H 0.45042 0.84247 0.81602
 H364 H 0.42584 0.87026 0.78703
 H365 H 0.46528 0.83294 0.72524
 H366 H 0.49032 0.80544 0.75463
 H367 H 0.48831 0.82011 0.85507
 H368 H 0.46563 0.79567 0.88812
 H369 H 0.46148 0.76188 0.80108
 H370 H 0.51942 0.75656 0.81138
 H371 H 0.54585 0.73216 0.84177
 H372 H 0.57439 0.80888 0.86938
 H373 H 0.54830 0.83301 0.83866
 H374 H 0.55490 0.80175 0.77429
 H375 H 0.57510 0.83337 0.74506
 H376 H 0.52378 0.89700 0.76866
 H377 H 0.50432 0.86575 0.79851
 H378 H 0.43912 0.73703 0.83418
 C379 C 0.51529 0.19014 0.19118
 C380 C 0.48954 0.19238 0.19264
 C381 C 0.47484 0.17661 0.21114
 C382 C 0.47494 0.20865 0.17425
 C383 C 0.53012 0.20588 0.17280
 C384 C 0.52963 0.17020 0.20642
 C385 C 0.45652 0.15788 0.20301
 C386 C 0.44386 0.14146 0.22012
 C387 C 0.44907 0.14364 0.24576
 C388 C 0.46698 0.16297 0.25390
 C389 C 0.47972 0.17934 0.23673
 C390 C 0.47407 0.20054 0.14922
 C391 C 0.46041 0.21588 0.13180
 C392 C 0.44765 0.23974 0.13909
 C393 C 0.44865 0.24789 0.16416
 C394 C 0.46198 0.23225 0.18168
 C395 C 0.52971 0.23441 0.17293
 C396 C 0.54361 0.24899 0.15528
 C397 C 0.55816 0.23524 0.13726
 C398 C 0.55848 0.20663 0.13727
 C399 C 0.54471 0.19211 0.15496
 C400 C 0.54658 0.17923 0.22487
 C401 C 0.56068 0.16045 0.23883
 C402 C 0.55849 0.13247 0.23403
 C403 C 0.54166 0.12350 0.21539
 C404 C 0.52716 0.14225 0.20181
 H405 H 0.45261 0.15538 0.18332
 H406 H 0.43049 0.12650 0.21319
 H407 H 0.47112 0.16545 0.27354
 H408 H 0.49359 0.19395 0.24336
 H409 H 0.48392 0.18229 0.14324
 H410 H 0.46000 0.20928 0.11256
 H411 H 0.46247 0.23870 0.20097
 H412 H 0.51877 0.24534 0.18678
 H413 H 0.54327 0.27100 0.15597
 H414 H 0.56913 0.19544 0.12338
 H415 H 0.54510 0.17009 0.15449
 H416 H 0.54876 0.20078 0.22849
 H417 H 0.57366 0.16775 0.25306
 H418 H 0.53963 0.10199 0.21150
 H419 H 0.51429 0.13504 0.18745
 H420 H 0.43878 0.26610 0.17021
 C421 C 0.49855 0.18799 0.81676
 C422 C 0.52444 0.18878 0.81572
 C423 C 0.53947 0.17275 0.79752
 C424 C 0.53922 0.20496 0.83397
 C425 C 0.48443 0.20431 0.83546
 C426 C 0.48278 0.17042 0.80030
 C427 C 0.55872 0.15528 0.80623
 C428 C 0.57321 0.13997 0.78961
 C429 C 0.56895 0.14194 0.76382
 C430 C 0.54977 0.15963 0.75505
 C431 C 0.53521 0.17499 0.77177
 C432 C 0.54062 0.19684 0.85896
 C433 C 0.55496 0.21190 0.87602
 C434 C 0.56780 0.23547 0.86836
 C435 C 0.56620 0.24366 0.84335
 C436 C 0.55223 0.22830 0.82620
 C437 C 0.48509 0.23282 0.83503
 C438 C 0.47109 0.24789 0.85233
 C439 C 0.45612 0.23468 0.87032
 C440 C 0.45560 0.20608 0.87066
 C441 C 0.46951 0.19106 0.85330
 C442 C 0.46111 0.18156 0.78867
 C443 C 0.44456 0.16508 0.77505
 C444 C 0.44946 0.13715 0.77259
 C445 C 0.47136 0.12599 0.78376
 C446 C 0.48770 0.14242 0.79783
 H447 H 0.56228 0.15316 0.82602
 H448 H 0.58749 0.12619 0.79701
 H449 H 0.54625 0.16182 0.73528
 H450 H 0.52071 0.18869 0.76466
 H451 H 0.53074 0.17876 0.86515
 H452 H 0.55586 0.20532 0.89525
 H453 H 0.55136 0.23470 0.80692
 H454 H 0.49618 0.24336 0.82109
 H455 H 0.47159 0.26988 0.85133
 H456 H 0.44462 0.19528 0.88450
 H457 H 0.46879 0.16905 0.85385
 H458 H 0.45681 0.20304 0.79046
 H459 H 0.42783 0.17411 0.76648
 H460 H 0.47530 0.10440 0.78231
 H461 H 0.50378 0.13314 0.80727
 H462 H 0.57610 0.26167 0.83705
 C463 C 0.47840 0.81727 0.18307
 C464 C 0.50415 0.82015 0.18507
 C465 C 0.51619 0.83817 0.20400
 C466 C 0.52159 0.80550 0.16795
 C467 C 0.46686 0.80099 0.16274
 C468 C 0.46042 0.83136 0.20005
 C469 C 0.50902 0.86562 0.20638
 C470 C 0.52036 0.88210 0.22452
 C471 C 0.53954 0.87162 0.24016
 C472 C 0.54707 0.84434 0.23739
 C473 C 0.53549 0.82779 0.21950
 C474 C 0.53775 0.82025 0.15227
 C475 C 0.55355 0.80674 0.13538
 C476 C 0.55368 0.77815 0.13406
 C477 C 0.53787 0.76343 0.15029
 C478 C 0.52198 0.77698 0.16708
 C479 C 0.45312 0.77737 0.16836
 C480 C 0.44177 0.76218 0.14934
 C481 C 0.44352 0.77075 0.12445
 C482 C 0.45721 0.79449 0.11888
 C483 C 0.46892 0.80942 0.13787
 C484 C 0.46212 0.82825 0.22599
 C485 C 0.44616 0.84326 0.24167
 C486 C 0.42805 0.86143 0.23167
 C487 C 0.42581 0.86368 0.20566
 C488 C 0.44176 0.84872 0.19003
 H489 H 0.49469 0.87431 0.19416
 H490 H 0.51453 0.90319 0.22598
 H491 H 0.56176 0.83575 0.24926
 H492 H 0.54144 0.80674 0.21790
 H493 H 0.53769 0.84229 0.15273
 H494 H 0.56523 0.81871 0.12297
 H495 H 0.50993 0.76526 0.17936
 H496 H 0.45128 0.77071 0.18749
 H497 H 0.43110 0.74410 0.15408
 H498 H 0.45888 0.80142 0.09982
 H499 H 0.47931 0.82774 0.13328
 H500 H 0.47610 0.81457 0.23406
 H501 H 0.44805 0.84076 0.26162
 H502 H 0.41230 0.87772 0.19736
 H503 H 0.44012 0.85140 0.17007
 H504 H 0.53788 0.74140 0.15014
 C505 C 0.82216 0.51897 0.83031
 C506 C 0.82056 0.49134 0.82944
 C507 C 0.80372 0.47641 0.84668
 C508 C 0.83605 0.47435 0.81230
 C509 C 0.84034 0.53464 0.81479
 C510 C 0.80575 0.53508 0.84736
 C511 C 0.80942 0.47523 0.87219
 C512 C 0.79400 0.46020 0.88821
 C513 C 0.77249 0.44652 0.87896
 C514 C 0.76665 0.44804 0.85347
 C515 C 0.78236 0.46262 0.83737
 C516 C 0.85130 0.45347 0.82217
 C517 C 0.86567 0.43681 0.80653
 C518 C 0.86492 0.44041 0.78057
 C519 C 0.84958 0.46136 0.77066
 C520 C 0.83520 0.47814 0.78639
 C521 C 0.83164 0.55769 0.80181
 C522 C 0.84849 0.57333 0.78783
 C523 C 0.87430 0.56606 0.78638
 C524 C 0.88312 0.54313 0.79942
 C525 C 0.86635 0.52778 0.81385
 C526 C 0.77911 0.53449 0.84509
 C527 C 0.76391 0.55014 0.86095
 C528 C 0.77508 0.56677 0.87931
 C529 C 0.80181 0.56742 0.88136
 C530 C 0.81698 0.55182 0.86546
 H531 H 0.82598 0.48566 0.87955
 H532 H 0.79876 0.45933 0.90784
 H533 H 0.75024 0.43746 0.84597
 H534 H 0.77785 0.46329 0.81768
 H535 H 0.85230 0.45024 0.84210
 H536 H 0.87763 0.42127 0.81484
 H537 H 0.82325 0.49389 0.77838
 H538 H 0.81173 0.56354 0.80245
 H539 H 0.84130 0.59089 0.77782
 H540 H 0.90306 0.53740 0.79876
 H541 H 0.87373 0.51072 0.82440
 H542 H 0.77013 0.52214 0.83087
 H543 H 0.74342 0.54955 0.85858
 H544 H 0.81100 0.57973 0.89548
 H545 H 0.83752 0.55259 0.86739
 H546 H 0.84836 0.46448 0.75073
 C547 C 0.17937 0.51573 0.16965
 C548 C 0.17898 0.48816 0.17151
 C549 C 0.19331 0.47083 0.15387
 C550 C 0.16267 0.47400 0.18998
 C551 C 0.16148 0.53273 0.18417
 C552 C 0.19658 0.53006 0.15215
 C553 C 0.18682 0.47063 0.12851
 C554 C 0.19953 0.45330 0.11206
 C555 C 0.21913 0.43620 0.12071
 C556 C 0.22573 0.43660 0.14609
 C557 C 0.21268 0.45357 0.16261
 C558 C 0.14491 0.45462 0.18187
 C559 C 0.12918 0.44145 0.19893
 C560 C 0.13099 0.44722 0.22454
 C561 C 0.14897 0.46647 0.23267
 C562 C 0.16475 0.47963 0.21555
 C563 C 0.17065 0.54982 0.20306
 C564 C 0.15365 0.56512 0.21739
 C565 C 0.12735 0.56403 0.21252
 C566 C 0.11829 0.54736 0.19320
 C567 C 0.13524 0.53165 0.17924
 C568 C 0.22313 0.52685 0.15378
 C569 C 0.23918 0.54104 0.13762
 C570 C 0.22899 0.55866 0.11944
 C571 C 0.20233 0.56158 0.11781
 C572 C 0.18635 0.54760 0.13412
 H573 H 0.17168 0.48364 0.12156
 H574 H 0.19426 0.45341 0.09254
 H575 H 0.24070 0.42345 0.15315
 H576 H 0.21772 0.45337 0.18219
 H577 H 0.14294 0.45001 0.16223
 H578 H 0.11528 0.42704 0.19201
 H579 H 0.17868 0.49413 0.22226
 H580 H 0.19089 0.55086 0.20700
 H581 H 0.16099 0.57799 0.23212
 H582 H 0.09807 0.54618 0.18923
 H583 H 0.12794 0.51862 0.16460
 H584 H 0.23141 0.51368 0.16783
 H585 H 0.25959 0.53862 0.13972
 H586 H 0.19374 0.57450 0.10376
 H587 H 0.16591 0.55027 0.13249
 H588 H 0.15108 0.47107 0.25228
 C589 C 0.81004 0.49279 0.19071
 C590 C 0.80957 0.52023 0.18729
 C591 C 0.79273 0.53313 0.16835
 C592 C 0.82670 0.53843 0.20165
 C593 C 0.82904 0.47966 0.20721
 C594 C 0.79340 0.47433 0.17618
 C595 C 0.79339 0.52477 0.14333
 C596 C 0.77636 0.53581 0.12602
 C597 C 0.75895 0.55603 0.13324
 C598 C 0.75906 0.56527 0.15800
 C599 C 0.77579 0.55384 0.17543
 C600 C 0.82657 0.53849 0.22778
 C601 C 0.84381 0.55463 0.24104
 C602 C 0.86136 0.57114 0.22839
 C603 C 0.86091 0.57158 0.20221
 C604 C 0.84368 0.55544 0.18899
 C605 C 0.82103 0.46591 0.22864
 C606 C 0.83879 0.45257 0.24379
 C607 C 0.86470 0.45225 0.23732
 C608 C 0.87267 0.46598 0.21580
 C609 C 0.85497 0.47977 0.20093
 C610 C 0.76675 0.47655 0.17717
 C611 C 0.75151 0.46075 0.16141
 C612 C 0.76270 0.44252 0.14439
 C613 C 0.78940 0.43988 0.14409
 C614 C 0.80455 0.45543 0.15997
 H615 H 0.80690 0.50947 0.13727
 H616 H 0.77695 0.52879 0.10691
 H617 H 0.74583 0.58091 0.16394
 H618 H 0.77518 0.56076 0.19458
 H619 H 0.81325 0.52589 0.23789
 H620 H 0.84337 0.55424 0.26120
 H621 H 0.84405 0.55566 0.16882
 H622 H 0.80104 0.46553 0.23358
 H623 H 0.83227 0.44192 0.26021
 H624 H 0.89258 0.46599 0.21055
 H625 H 0.86135 0.49012 0.18429
 H626 H 0.75785 0.49092 0.18974
 H627 H 0.73100 0.46296 0.16241
 H628 H 0.79874 0.42650 0.13094
 H629 H 0.82509 0.45360 0.15882
 H630 H 0.87435 0.58385 0.19193
 C631 C 0.19498 0.48037 0.80823
 C632 C 0.19516 0.50802 0.80757
 C633 C 0.20965 0.52382 0.82629
 C634 C 0.17862 0.52345 0.79006
 C635 C 0.17642 0.46470 0.79320
 C636 C 0.21152 0.46508 0.82579
 C637 C 0.20153 0.52438 0.85113
 C638 C 0.21516 0.53916 0.86892
 C639 C 0.23733 0.55323 0.86218
 C640 C 0.24551 0.55252 0.83731
 C641 C 0.23155 0.53816 0.81939
 C642 C 0.16035 0.54162 0.79936
 C643 C 0.14335 0.55466 0.78323
 C644 C 0.14438 0.54993 0.75742
 C645 C 0.16314 0.53222 0.74807
 C646 C 0.18019 0.51920 0.76424
 C647 C 0.18462 0.44916 0.77285
 C648 C 0.16680 0.43626 0.75743
 C649 C 0.14061 0.43824 0.76255
 C650 C 0.13255 0.45317 0.78341
 C651 C 0.15031 0.46643 0.79853
 C652 C 0.23815 0.46723 0.82456
 C653 C 0.25357 0.45422 0.84224
 C654 C 0.24262 0.43885 0.86151
 C655 C 0.21589 0.43651 0.86240
 C656 C 0.20053 0.44934 0.84462
 H657 H 0.18460 0.51341 0.85667
 H658 H 0.20862 0.53932 0.88803
 H659 H 0.26250 0.56336 0.83173
 H660 H 0.23799 0.53788 0.80026
 H661 H 0.15871 0.54507 0.81921
 H662 H 0.12890 0.56787 0.79106
 H663 H 0.19443 0.50554 0.75668
 H664 H 0.20472 0.44771 0.76851
 H665 H 0.17344 0.42468 0.74154
 H666 H 0.11246 0.45510 0.78763
 H667 H 0.14372 0.47839 0.81420
 H668 H 0.24695 0.47916 0.81001
 H669 H 0.27406 0.45609 0.84072
 H670 H 0.20675 0.42528 0.87721
 H671 H 0.18000 0.44768 0.84600
 H672 H 0.16465 0.52849 0.72826
 C673 C 0.31198 0.38704 0.06613
 C674 C 0.29848 0.36937 0.05034
 C675 C 0.27183 0.36777 0.05227
 C676 C 0.25873 0.38422 0.06941
 C677 C 0.27255 0.40181 0.08533
 C678 C 0.29916 0.40292 0.08365
 C679 C 0.25950 0.41834 0.10236
 C680 C 0.23278 0.41809 0.10326
 C681 C 0.21916 0.40079 0.08724
 C682 C 0.23203 0.38379 0.07060
 H683 H 0.26126 0.35441 0.03995
 H684 H 0.31003 0.41634 0.09565
 H685 H 0.27006 0.43192 0.11450
 H686 H 0.22112 0.37053 0.05849
 H687 H 0.33253 0.38851 0.06499
 H688 H 0.19853 0.40028 0.08779
 C689 C 0.70525 0.64608 0.07207
 C690 C 0.69038 0.62899 0.05692
 C691 C 0.69125 0.60072 0.06072
 C692 C 0.70741 0.58959 0.07899
 C693 C 0.72227 0.60701 0.09415
 C694 C 0.72087 0.63522 0.09068
 C695 C 0.73865 0.59593 0.11219
 C696 C 0.74089 0.56763 0.11488
 C697 C 0.72618 0.55044 0.09969
 C698 C 0.70940 0.56133 0.08203
 H699 H 0.68004 0.58738 0.04893
 H700 H 0.73216 0.64885 0.10209
 H701 H 0.75019 0.60926 0.12369
 H702 H 0.69823 0.54766 0.07055
 H703 H 0.70479 0.66793 0.06950
 H704 H 0.72758 0.52855 0.10164
 C705 C 0.74808 0.35845 0.95736
 C706 C 0.72176 0.36349 0.95902
 C707 C 0.71074 0.38393 0.94415
 C708 C 0.72582 0.39926 0.92788
 C709 C 0.75238 0.39443 0.92679
 C710 C 0.76330 0.37391 0.94150
 C711 C 0.76756 0.41018 0.91095
 C712 C 0.75645 0.43026 0.89580
 C713 C 0.73001 0.43458 0.89662
 C714 C 0.71482 0.41934 0.91270
 H715 H 0.69041 0.38783 0.94513
 H716 H 0.78360 0.36986 0.94079
 H717 H 0.78794 0.40658 0.91010
 H718 H 0.69449 0.42323 0.91323
 H719 H 0.75701 0.34287 0.96871
 H720 H 0.72120 0.45003 0.88505
 C721 C 0.33089 0.58626 0.92585
 C722 C 0.31853 0.60575 0.94072
 C723 C 0.29254 0.61123 0.93662
 C724 C 0.27896 0.59720 0.91811
 C725 C 0.29164 0.57787 0.90303
 C726 C 0.31762 0.57259 0.90703
 C727 C 0.27806 0.56394 0.88443
 C728 C 0.25184 0.56859 0.88116
 C729 C 0.23934 0.58759 0.89640
 C730 C 0.25283 0.60196 0.91458
 H731 H 0.28276 0.62603 0.94815
 H732 H 0.32762 0.55777 0.89573
 H733 H 0.28770 0.54904 0.87288
 H734 H 0.24279 0.61662 0.92602
 H735 H 0.35092 0.58176 0.92861
 H736 H 0.21914 0.59145 0.89405
 C737 C 0.06237 0.26637 0.35678
 C738 C 0.05155 0.29065 0.36577
 C739 C 0.05863 0.30013 0.38953
 C740 C 0.07609 0.28547 0.40419
 C741 C 0.08682 0.26110 0.39493
 C742 C 0.07990 0.25178 0.37119
 C743 C 0.10419 0.24637 0.40960
 C744 C 0.11090 0.25550 0.43358
 C745 C 0.10012 0.27980 0.44258
 C746 C 0.08292 0.29467 0.42801
 H747 H 0.05039 0.31877 0.39676
 H748 H 0.08795 0.23313 0.36381
 H749 H 0.11266 0.22792 0.40224
 H750 H 0.07481 0.31327 0.43544
 H751 H 0.05731 0.25863 0.33854
 H752 H 0.10470 0.28712 0.46108
 C753 C 0.06648 0.68271 0.60632
 C754 C 0.05017 0.69758 0.62199
 C755 C 0.05160 0.72612 0.62228
 C756 C 0.06900 0.73966 0.60689
 C757 C 0.08562 0.72443 0.59153
 C758 C 0.08420 0.69600 0.59138
 C759 C 0.10331 0.73788 0.57647
 C760 C 0.10427 0.76639 0.57613
 C761 C 0.08739 0.78143 0.59103
 C762 C 0.07001 0.76817 0.60646
 H763 H 0.03890 0.73774 0.63413
 H764 H 0.09672 0.68404 0.57965
 H765 H 0.11614 0.72624 0.56477
 H766 H 0.05735 0.78018 0.61800
 H767 H 0.06575 0.66069 0.60587
 H768 H 0.08798 0.80345 0.59101
 C769 C 0.95038 0.73113 0.37009
 C770 C 0.95282 0.70288 0.37335
 C771 C 0.93713 0.68959 0.39063
 C772 C 0.91914 0.70435 0.40446
 C773 C 0.91724 0.73286 0.40138
 C774 C 0.93289 0.74603 0.38412
 C775 C 0.89966 0.74772 0.41555
 C776 C 0.88355 0.73441 0.43238
 C777 C 0.88512 0.70605 0.43497
 C778 C 0.90295 0.69113 0.42127
 H779 H 0.93871 0.66776 0.39310
 H780 H 0.93159 0.76784 0.38146
 H781 H 0.89825 0.76959 0.41330
 H782 H 0.90404 0.66929 0.42379
 H783 H 0.96234 0.74180 0.35694
 H784 H 0.87281 0.69553 0.44792
 C785 C 0.94124 0.27160 0.62869
 C786 C 0.94406 0.29981 0.62541
 C787 C 0.92966 0.31307 0.60686
 C788 C 0.91249 0.29827 0.59193
 C789 C 0.91024 0.26982 0.59521
 C790 C 0.92467 0.25672 0.61363
 C791 C 0.89351 0.25489 0.58012
 C792 C 0.87844 0.26801 0.56211
 C793 C 0.88031 0.29633 0.55924
 C794 C 0.89739 0.31133 0.57387
 H795 H 0.93156 0.33484 0.60429
 H796 H 0.92310 0.23496 0.61644
 H797 H 0.89184 0.23308 0.58264
 H798 H 0.89871 0.33312 0.57114
 H799 H 0.95223 0.26088 0.64273
 H800 H 0.86880 0.30675 0.54542
 C801 C 0.36196 0.07283 0.28782
 C802 C 0.37566 0.06094 0.30760
 C803 C 0.40102 0.06895 0.31191
 C804 C 0.41269 0.08811 0.29630
 C805 C 0.39874 0.09968 0.27636
 C806 C 0.37334 0.09210 0.27243
 C807 C 0.41051 0.11833 0.26041
 C808 C 0.43626 0.12533 0.26376
 C809 C 0.44989 0.11395 0.28384
 C810 C 0.43819 0.09558 0.30001
 H811 H 0.41183 0.05990 0.32705
 H812 H 0.36237 0.10081 0.25726
 H813 H 0.39963 0.12727 0.24527
 H814 H 0.44922 0.08688 0.31516
 H815 H 0.34237 0.06717 0.28416
 H816 H 0.46983 0.11871 0.28669
 C817 C 0.58949 0.06316 0.67590
 C818 C 0.61533 0.05797 0.68122
 C819 C 0.62709 0.07187 0.70103
 C820 C 0.61313 0.09021 0.71568
 C821 C 0.58701 0.09479 0.71054
 C822 C 0.57545 0.08136 0.69045
 C823 C 0.57280 0.11226 0.72588
 C824 C 0.58433 0.12518 0.74639
 C825 C 0.61050 0.12104 0.75085
 C826 C 0.62475 0.10372 0.73567
 H827 H 0.64703 0.06820 0.70527
 H828 H 0.55548 0.08465 0.68618
 H829 H 0.55261 0.11507 0.72234
 H830 H 0.64480 0.10064 0.73976
 H831 H 0.57996 0.05274 0.66075
 H832 H 0.61997 0.13114 0.76622
 C833 C 0.35626 0.92939 0.71883
 C834 C 0.36946 0.94252 0.69956
 C835 C 0.39413 0.93361 0.69335
 C836 C 0.40585 0.91257 0.70695
 C837 C 0.39250 0.89989 0.72656
 C838 C 0.36758 0.90814 0.73208
 C839 C 0.40451 0.87977 0.74090
 C840 C 0.43005 0.87256 0.73647
 C841 C 0.44299 0.88481 0.71652
 C842 C 0.43095 0.90452 0.70180
 H843 H 0.40452 0.94365 0.67858
 H844 H 0.35707 0.89859 0.74702
 H845 H 0.39414 0.87016 0.75592
 H846 H 0.44151 0.91402 0.68687
 H847 H 0.33715 0.93570 0.72383
 H848 H 0.46275 0.87991 0.71285
 C849 C 0.62985 0.92513 0.29583
 C850 C 0.61557 0.94223 0.31148
 C851 C 0.58880 0.94101 0.31068
 C852 C 0.57646 0.92350 0.29380
 C853 C 0.59110 0.90647 0.27811
 C854 C 0.61775 0.90724 0.27946
 C855 C 0.57889 0.88932 0.26097
 C856 C 0.55219 0.88926 0.25887
 C857 C 0.53776 0.90631 0.27445
 C858 C 0.54978 0.92315 0.29190
 H859 H 0.57762 0.95435 0.32248
 H860 H 0.62925 0.89435 0.26756
 H861 H 0.59018 0.87650 0.24879
 H862 H 0.53823 0.93609 0.30371
 H863 H 0.65049 0.92567 0.29617
 H864 H 0.51715 0.90643 0.27325
 C865 C 0.36397 0.26273 0.93771
 C866 C 0.37408 0.28643 0.94851
 C867 C 0.39845 0.29527 0.94130
 C868 C 0.41259 0.28058 0.92371
 C869 C 0.40222 0.25679 0.91297
 C870 C 0.37788 0.24809 0.92003
 C871 C 0.41641 0.24206 0.89543
 C872 C 0.44099 0.25060 0.88859
 C873 C 0.45108 0.27431 0.89942
 C874 C 0.43699 0.28919 0.91677
 H875 H 0.40655 0.31346 0.94952
 H876 H 0.36964 0.22989 0.91198
 H877 H 0.40821 0.22406 0.88696
 H878 H 0.44527 0.30732 0.92490
 H879 H 0.34525 0.25550 0.94289
 H880 H 0.47007 0.28115 0.89477
 C881 C 0.58602 0.68345 0.94033
 C882 C 0.61039 0.69308 0.94671
 C883 C 0.62055 0.71523 0.93354
 C884 C 0.60650 0.72785 0.91451
 C885 C 0.58185 0.71832 0.90851
 C886 C 0.57184 0.69601 0.92144
 C887 C 0.56755 0.73146 0.88988
 C888 C 0.57761 0.75400 0.87712
 C889 C 0.60235 0.76292 0.88301
 C890 C 0.61663 0.75002 0.90154
 H891 H 0.63938 0.72279 0.93814
 H892 H 0.55299 0.68839 0.91705
 H893 H 0.54840 0.72453 0.88576
 H894 H 0.63558 0.75745 0.90580
 H895 H 0.57775 0.66643 0.95019
 H896 H 0.61073 0.77989 0.87318
 C897 C 0.41030 0.67015 0.06275
 C898 C 0.39366 0.68385 0.04643
 C899 C 0.39059 0.71216 0.04876
 C900 C 0.40394 0.72664 0.06713
 C901 C 0.42024 0.71261 0.08380
 C902 C 0.42333 0.68438 0.08141
 C903 C 0.43315 0.72709 0.10253
 C904 C 0.43034 0.75546 0.10447
 C905 C 0.41450 0.76924 0.08749
 C906 C 0.40129 0.75495 0.06907
 H907 H 0.37804 0.72299 0.03608
 H908 H 0.43583 0.67330 0.09394
 H909 H 0.44555 0.71639 0.11544
 H910 H 0.38895 0.76603 0.05639
 H911 H 0.41295 0.64835 0.06131
 H912 H 0.41198 0.79107 0.08880
 C913 C 0.64961 0.25972 0.06852
 C914 C 0.63967 0.28330 0.05724
 C915 C 0.61544 0.29280 0.06433
 C916 C 0.60132 0.27891 0.08241
 C917 C 0.61158 0.25528 0.09365
 C918 C 0.63573 0.24588 0.08660
 C919 C 0.59753 0.24138 0.11170
 C920 C 0.57314 0.25053 0.11859
 C921 C 0.56311 0.27409 0.10733
 C922 C 0.57710 0.28818 0.08944
 H923 H 0.60752 0.31094 0.05577
 H924 H 0.64386 0.22779 0.09503
 H925 H 0.60568 0.22352 0.12053
 H926 H 0.56890 0.30622 0.08097
 H927 H 0.66824 0.25199 0.06346
 H928 H 0.54424 0.28137 0.11208
 C929 C 0.28529 0.08306 0.64662
 C930 C 0.30332 0.06767 0.63330
 C931 C 0.30686 0.07297 0.60780
 C932 C 0.29175 0.09252 0.59557
 C933 C 0.27322 0.10727 0.60909
 C934 C 0.27048 0.10275 0.63467
 C935 C 0.25720 0.12575 0.59672
 C936 C 0.25910 0.12951 0.57085
 C937 C 0.27805 0.11532 0.55765
 C938 C 0.29427 0.09703 0.56991
 H939 H 0.32064 0.06120 0.59730
 H940 H 0.25645 0.11397 0.64533
 H941 H 0.24295 0.13691 0.60718
 H942 H 0.30836 0.08594 0.55921
 H943 H 0.28228 0.07955 0.66630
 H944 H 0.27979 0.11771 0.53769
 C945 C 0.67489 0.06408 0.41264
 C946 C 0.68647 0.05158 0.39191
 C947 C 0.71152 0.05917 0.38557
 C948 C 0.72477 0.07859 0.39968
 C949 C 0.71271 0.09137 0.42008
 C950 C 0.68778 0.08396 0.42639
 C951 C 0.72588 0.11119 0.43388
 C952 C 0.75117 0.11770 0.42793
 C953 C 0.76318 0.10450 0.40799
 C954 C 0.75001 0.08529 0.39380
 H955 H 0.72100 0.04969 0.36988
 H956 H 0.67829 0.09342 0.44206
 H957 H 0.71669 0.12125 0.44944
 H958 H 0.75960 0.07557 0.37831
 H959 H 0.65568 0.05879 0.41811
 H960 H 0.78268 0.10939 0.40322
 C961 C 0.67653 0.92694 0.59055
 C962 C 0.68998 0.94524 0.60579
 C963 C 0.71666 0.94308 0.60747
 C964 C 0.72977 0.92302 0.59398
 C965 C 0.71601 0.90444 0.57900
 C966 C 0.68940 0.90658 0.57743
 C967 C 0.72911 0.88418 0.56573
 C968 C 0.75583 0.88266 0.56679
 C969 C 0.76935 0.90144 0.58142
 C970 C 0.75643 0.92133 0.59506
 H971 H 0.72725 0.95726 0.61898
 H972 H 0.67856 0.89259 0.56597
 H973 H 0.71861 0.86991 0.55424
 H974 H 0.76729 0.93545 0.60636
 H975 H 0.65597 0.92816 0.58901
 H976 H 0.78995 0.90047 0.58253
 C977 C 0.32033 0.93387 0.40751
 C978 C 0.30764 0.94995 0.38972
 C979 C 0.28110 0.94759 0.38698
 C980 C 0.26729 0.92958 0.40187
 C981 C 0.28018 0.91310 0.41946
 C982 C 0.30672 0.91538 0.42212
 C983 C 0.26622 0.89491 0.43421
 C984 C 0.23955 0.89361 0.43195
 C985 C 0.22696 0.91033 0.41464
 C986 C 0.24072 0.92802 0.39957
 H987 H 0.27106 0.96020 0.37356
 H988 H 0.31691 0.90302 0.43559
 H989 H 0.27594 0.88217 0.44774
 H990 H 0.23058 0.94060 0.38623
 H991 H 0.34077 0.93541 0.40993
 H992 H 0.20643 0.90944 0.41262
 C993 C 0.04684 0.36801 0.73549
 C994 C 0.04693 0.37275 0.70968
 C995 C 0.06578 0.38962 0.69945
 C996 C 0.08448 0.40139 0.71483
 C997 C 0.08392 0.39678 0.74082
 C998 C 0.06502 0.38008 0.75094
 C999 C 0.10231 0.40885 0.75627
 C1000 C 0.12161 0.42509 0.74607
 C1001 C 0.12235 0.42916 0.72020
 C1002 C 0.10383 0.41757 0.70471
 H1003 H 0.06617 0.39318 0.67954
 H1004 H 0.06436 0.37626 0.77080
 H1005 H 0.10180 0.40542 0.77620
 H1006 H 0.10465 0.42126 0.68484
 H1007 H 0.03246 0.35516 0.74380
 H1008 H 0.13700 0.44178 0.71204
 C1009 C 0.07303 0.60405 0.30789
 C1010 C 0.05585 0.62199 0.29622
 C1011 C 0.05669 0.62513 0.27023
 C1012 C 0.07426 0.61031 0.25599
 C1013 C 0.09172 0.59259 0.26792
 C1014 C 0.09097 0.58965 0.29388
 C1015 C 0.10938 0.57788 0.25365
 C1016 C 0.10933 0.58016 0.22758
 C1017 C 0.09172 0.59754 0.21588
 C1018 C 0.07446 0.61270 0.22998
 H1019 H 0.04332 0.63869 0.26101
 H1020 H 0.10413 0.57606 0.30333
 H1021 H 0.12277 0.56422 0.26270
 H1022 H 0.06114 0.62610 0.22053
 H1023 H 0.07274 0.60136 0.32790
 H1024 H 0.09151 0.59953 0.19579
 C1025 C 0.94832 0.36670 0.25953
 C1026 C 0.95081 0.37192 0.28515
 C1027 C 0.93566 0.39224 0.29615
 C1028 C 0.91816 0.40713 0.28175
 C1029 C 0.91616 0.40206 0.25589
 C1030 C 0.93128 0.38178 0.24498
 C1031 C 0.89893 0.41721 0.24143
 C1032 C 0.88325 0.43691 0.25257
 C1033 C 0.88504 0.44153 0.27831
 C1034 C 0.90253 0.42693 0.29277
 H1035 H 0.93727 0.39626 0.31594
 H1036 H 0.92990 0.37755 0.22522
 H1037 H 0.89733 0.41337 0.22160
 H1038 H 0.90373 0.43100 0.31257
 H1039 H 0.95987 0.35121 0.25065
 H1040 H 0.87306 0.45668 0.28714
 C1041 C 0.95322 0.58788 0.70378
 C1042 C 0.95506 0.61618 0.70706
 C1043 C 0.94071 0.62886 0.72584
 C1044 C 0.92452 0.61347 0.74102
 C1045 C 0.92309 0.58495 0.73776
 C1046 C 0.93752 0.57237 0.71911
 C1047 C 0.90703 0.56952 0.75300
 C1048 C 0.89191 0.58230 0.77107
 C1049 C 0.89320 0.61064 0.77404
 C1050 C 0.90955 0.62610 0.75928
 H1051 H 0.94186 0.65070 0.72840
 H1052 H 0.93659 0.55056 0.71630
 H1053 H 0.90582 0.54767 0.75046
 H1054 H 0.91033 0.64793 0.76200
 H1055 H 0.96420 0.57764 0.68952
 H1056 H 0.88166 0.62077 0.78795
 C1057 C 0.68343 0.59256 0.94797
 C1058 C 0.69075 0.61902 0.95516
 C1059 C 0.71347 0.62988 0.94540
 C1060 C 0.72858 0.61456 0.92896
 C1061 C 0.72100 0.58801 0.92213
 C1062 C 0.69840 0.57725 0.93169
 C1063 C 0.73620 0.57258 0.90593
 C1064 C 0.75894 0.58330 0.89630
 C1065 C 0.76621 0.60982 0.90311
 C1066 C 0.75120 0.62528 0.91929
 H1067 H 0.71953 0.65018 0.95059
 H1068 H 0.69230 0.55694 0.92663
 H1069 H 0.73051 0.55204 0.90115
 H1070 H 0.75728 0.64564 0.92422
 H1071 H 0.66613 0.58345 0.95501
 H1072 H 0.78343 0.61875 0.89570
 C1073 C 0.27397 0.35015 0.93766
 C1074 C 0.29613 0.36274 0.94710
 C1075 C 0.30350 0.38805 0.93708
 C1076 C 0.28887 0.40052 0.91823
 C1077 C 0.26681 0.38747 0.90902
 C1078 C 0.25960 0.36229 0.91879
 C1079 C 0.25215 0.39983 0.89028
 C1080 C 0.25887 0.42545 0.88075
 C1081 C 0.28089 0.43830 0.89003
 C1082 C 0.29580 0.42592 0.90852
 H1083 H 0.32041 0.39820 0.94403
 H1084 H 0.24271 0.35203 0.91195
 H1085 H 0.23553 0.38939 0.88306
 H1086 H 0.31258 0.43634 0.91539
 H1087 H 0.26763 0.33069 0.94475
 H1088 H 0.28637 0.45821 0.88335
 C1089 C 0.32219 0.57981 0.05099
 C1090 C 0.31524 0.60611 0.04292
 C1091 C 0.29267 0.61783 0.05237
 C1092 C 0.27730 0.60352 0.06921
 C1093 C 0.28430 0.57699 0.07672
 C1094 C 0.30684 0.56539 0.06759
 C1095 C 0.26858 0.56244 0.09312
 C1096 C 0.24597 0.57416 0.10236
 C1097 C 0.23953 0.60082 0.09505
 C1098 C 0.25495 0.61528 0.07859
 H1099 H 0.28691 0.63809 0.04661
 H1100 H 0.31257 0.54510 0.07320
 H1101 H 0.27375 0.54184 0.09829
 H1102 H 0.24938 0.63570 0.07321
 H1103 H 0.33938 0.57008 0.04423
 H1104 H 0.22261 0.61068 0.10223
 C1105 C 0.73600 0.34792 0.07297
 C1106 C 0.71472 0.36005 0.06126
 C1107 C 0.70639 0.38579 0.06960
 C1108 C 0.71939 0.39934 0.08882
 C1109 C 0.74069 0.38687 0.10027
 C1110 C 0.74870 0.36110 0.09237
 C1111 C 0.75401 0.40058 0.11912
 C1112 C 0.74688 0.42706 0.12626
 C1113 C 0.72546 0.43918 0.11492
 C1114 C 0.71174 0.42538 0.09650
 H1115 H 0.69009 0.39559 0.06089
 H1116 H 0.76502 0.35127 0.10096
 H1117 H 0.77016 0.39070 0.12798
 H1118 H 0.69550 0.43532 0.08787
 H1119 H 0.74293 0.32812 0.06722
 H1120 H 0.71973 0.45969 0.11972
 C1121 C 0.93405 0.71777 0.64157
 C1122 C 0.94502 0.69424 0.63094
 C1123 C 0.93575 0.68510 0.60770
 C1124 C 0.91662 0.69979 0.59502
 C1125 C 0.90618 0.72347 0.60594
 C1126 C 0.91478 0.73205 0.62931
 C1127 C 0.88765 0.73861 0.59313
 C1128 C 0.87967 0.73094 0.56913
 C1129 C 0.88987 0.70711 0.55851
 C1130 C 0.90808 0.69161 0.57139
 H1131 H 0.94385 0.66709 0.59911
 H1132 H 0.90693 0.75014 0.63795
 H1133 H 0.87961 0.75659 0.60182
 H1134 H 0.91586 0.67355 0.56264
 H1135 H 0.94043 0.72540 0.65946
 H1136 H 0.88429 0.70081 0.53996
 C1137 C 0.93558 0.27076 0.35122
 C1138 C 0.94638 0.29480 0.36092
 C1139 C 0.93718 0.30494 0.38380
 C1140 C 0.91799 0.29107 0.39684
 C1141 C 0.90754 0.26696 0.38682
 C1142 C 0.91635 0.25711 0.36395
 C1143 C 0.88867 0.25286 0.39994
 C1144 C 0.88025 0.26217 0.42329
 C1145 C 0.89062 0.28633 0.43301
 C1146 C 0.90923 0.30069 0.41988
 H1147 H 0.94514 0.32337 0.39171
 H1148 H 0.90853 0.23866 0.35600
 H1149 H 0.88057 0.23456 0.39193
 H1150 H 0.91704 0.31910 0.42793
 H1151 H 0.94200 0.26232 0.33368
 H1152 H 0.88478 0.29384 0.45107
 C1153 C 0.05235 0.26908 0.64071
 C1154 C 0.04680 0.29595 0.63326
 C1155 C 0.06005 0.30693 0.61279
 C1156 C 0.07826 0.29139 0.59998
 C1157 C 0.08302 0.26421 0.60724
 C1158 C 0.07008 0.25332 0.62769
 C1159 C 0.10065 0.24841 0.59390
 C1160 C 0.11402 0.25969 0.57381
 C1161 C 0.10967 0.28690 0.56713
 C1162 C 0.09176 0.30258 0.57997
 H1163 H 0.05637 0.32765 0.60682
 H1164 H 0.07363 0.23258 0.63361
 H1165 H 0.10418 0.22746 0.59923
 H1166 H 0.08846 0.32343 0.57423
 H1167 H 0.04262 0.25992 0.65635
 H1168 H 0.11981 0.29584 0.55164
 C1169 C 0.06646 0.72766 0.35870
 C1170 C 0.05626 0.70399 0.36957
 C1171 C 0.06416 0.69673 0.39382
 C1172 C 0.08117 0.71325 0.40721
 C1173 C 0.09104 0.73699 0.39608
 C1174 C 0.08380 0.74383 0.37175
 C1175 C 0.10765 0.75377 0.40960
 C1176 C 0.11417 0.74757 0.43441
 C1177 C 0.10431 0.72378 0.44524
 C1178 C 0.08810 0.70671 0.43173
 H1179 H 0.05656 0.67867 0.40265
 H1180 H 0.09121 0.76197 0.36293
 H1181 H 0.11545 0.77171 0.40077
 H1182 H 0.08062 0.68865 0.44062
 H1183 H 0.06098 0.73387 0.34008
 H1184 H 0.10866 0.71863 0.46439
 C1185 C 0.63751 0.93068 0.70250
 C1186 C 0.62219 0.94610 0.68622
 C1187 C 0.59566 0.94211 0.68618
 C1188 C 0.58452 0.92338 0.70261
 C1189 C 0.60016 0.90790 0.71882
 C1190 C 0.62663 0.91159 0.71848
 C1191 C 0.58905 0.88932 0.73536
 C1192 C 0.56244 0.88644 0.73637
 C1193 C 0.54704 0.90203 0.72032
 C1194 C 0.55798 0.92019 0.70345
 H1195 H 0.58364 0.95410 0.67388
 H1196 H 0.63890 0.89996 0.73081
 H1197 H 0.60104 0.87758 0.74789
 H1198 H 0.54567 0.93191 0.69123
 H1199 H 0.65799 0.93333 0.70282
 H1200 H 0.52649 0.89996 0.72071
 C1201 C 0.40621 0.94155 0.31808
 C1202 C 0.38087 0.94789 0.31162
 C1203 C 0.36953 0.93455 0.29123
 C1204 C 0.38346 0.91554 0.27723
 C1205 C 0.40906 0.90975 0.28365
 C1206 C 0.42018 0.92271 0.30421
 C1207 C 0.42329 0.89151 0.26912
 C1208 C 0.41232 0.87897 0.24814
 C1209 C 0.38665 0.88442 0.24227
 C1210 C 0.37236 0.90251 0.25668
 H1211 H 0.34998 0.93913 0.28609
 H1212 H 0.43977 0.91848 0.30943
 H1213 H 0.44315 0.88781 0.27368
 H1214 H 0.35271 0.90655 0.25157
 H1215 H 0.41543 0.95148 0.33369
 H1216 H 0.37764 0.87474 0.22642
 C1217 C 0.59904 0.07289 0.32755
 C1218 C 0.61493 0.05422 0.31523
 C1219 C 0.61701 0.05535 0.28918
 C1220 C 0.60289 0.07454 0.27551
 C1221 C 0.58715 0.09345 0.28811
 C1222 C 0.58550 0.09255 0.31414
 C1223 C 0.57303 0.11264 0.27447
 C1224 C 0.57386 0.11267 0.24835
 C1225 C 0.58923 0.09361 0.23594
 C1226 C 0.60385 0.07486 0.24941
 H1227 H 0.62898 0.04075 0.27954
 H1228 H 0.57346 0.10680 0.32409
 H1229 H 0.56095 0.12715 0.28407
 H1230 H 0.61569 0.06045 0.23943
 H1231 H 0.59721 0.07236 0.34762
 H1232 H 0.59012 0.09346 0.21579
 C1233 C 0.41258 0.05329 0.69447
 C1234 C 0.38666 0.05355 0.70102
 C1235 C 0.37849 0.07037 0.72060
 C1236 C 0.39596 0.08681 0.73345
 C1237 C 0.42207 0.08606 0.72699
 C1238 C 0.43016 0.06925 0.70745
 C1239 C 0.43958 0.10225 0.74007
 C1240 C 0.43120 0.11965 0.75911
 C1241 C 0.40520 0.12052 0.76517
 C1242 C 0.38773 0.10409 0.75258
 H1243 H 0.35851 0.07088 0.72569
 H1244 H 0.45007 0.06849 0.70218
 H1245 H 0.45961 0.10173 0.73519
 H1246 H 0.36780 0.10499 0.75773
 H1247 H 0.41935 0.04040 0.67951
 H1248 H 0.39846 0.13375 0.77990
 C1249 C 0.58222 0.69003 0.05626
 C1250 C 0.60674 0.69964 0.05056
 C1251 C 0.61580 0.72316 0.06257
 C1252 C 0.60065 0.73675 0.08018
 C1253 C 0.57601 0.72692 0.08565
 C1254 C 0.56696 0.70361 0.07354
 C1255 C 0.56081 0.74052 0.10316
 C1256 C 0.56994 0.76376 0.11558
 C1257 C 0.59456 0.77326 0.11009
 C1258 C 0.60974 0.75994 0.09252
 H1259 H 0.63471 0.73071 0.05846
 H1260 H 0.54812 0.69579 0.07750
 H1261 H 0.54174 0.73318 0.10686
 H1262 H 0.62862 0.76770 0.08868
 H1263 H 0.57472 0.67203 0.04724
 H1264 H 0.60225 0.79086 0.11960
 C1265 C 0.36986 0.25946 0.05421
 C1266 C 0.37398 0.28751 0.05121
 C1267 C 0.39202 0.30063 0.06645
 C1268 C 0.40564 0.28587 0.08460
 C1269 C 0.40157 0.25757 0.08710
 C1270 C 0.38364 0.24459 0.07184
 C1271 C 0.41543 0.24269 0.10486
 C1272 C 0.43301 0.25574 0.12056
 C1273 C 0.43661 0.28394 0.11835
 C1274 C 0.42318 0.29887 0.10037
 H1275 H 0.39519 0.32230 0.06443
 H1276 H 0.38024 0.22295 0.07358
 H1277 H 0.41234 0.22098 0.10671
 H1278 H 0.42649 0.32055 0.09883
 H1279 H 0.35615 0.24886 0.04264
 H1280 H 0.45016 0.29432 0.13026
 C1281 C 0.64833 0.25508 0.95075
 C1282 C 0.64378 0.28303 0.95410
 C1283 C 0.62532 0.29610 0.93924
 C1284 C 0.61143 0.28138 0.92141
 C1285 C 0.61574 0.25312 0.91865
 C1286 C 0.63433 0.24022 0.93329
 C1287 C 0.60134 0.23824 0.90135
 C1288 C 0.58302 0.25131 0.88641
 C1289 C 0.57925 0.27948 0.88885
 C1290 C 0.59321 0.29438 0.90634
 H1291 H 0.62179 0.31770 0.94153
 H1292 H 0.63796 0.21861 0.93133
 H1293 H 0.60452 0.21655 0.89929
 H1294 H 0.58972 0.31603 0.90812
 H1295 H 0.66239 0.24454 0.96202
 H1296 H 0.56514 0.28983 0.87749
 C1297 C 0.41412 0.66766 0.92802
 C1298 C 0.39666 0.68222 0.94273
 C1299 C 0.39364 0.71033 0.93883
 C1300 C 0.40790 0.72376 0.92051
 C1301 C 0.42503 0.70881 0.90547
 C1302 C 0.42803 0.68079 0.90943
 C1303 C 0.43888 0.72216 0.88680
 C1304 C 0.43627 0.75037 0.88336
 C1305 C 0.41958 0.76511 0.89872
 C1306 C 0.40537 0.75190 0.91702
 H1307 H 0.38042 0.72182 0.95023
 H1308 H 0.44115 0.66902 0.89817
 H1309 H 0.45193 0.71074 0.87515
 H1310 H 0.39243 0.76370 0.92843
 H1311 H 0.41674 0.64599 0.93064
 H1312 H 0.41723 0.78684 0.89625
 C1313 C 0.67806 0.93374 0.41658
 C1314 C 0.68585 0.93980 0.39218
 C1315 C 0.70715 0.92621 0.38227
 C1316 C 0.72074 0.90721 0.39663
 C1317 C 0.71309 0.90172 0.42132
 C1318 C 0.69160 0.91495 0.43105
 C1319 C 0.72726 0.88341 0.43596
 C1320 C 0.74898 0.87038 0.42621
 C1321 C 0.75596 0.87554 0.40139
 C1322 C 0.74204 0.89382 0.38678
 H1323 H 0.71328 0.93054 0.36343
 H1324 H 0.68540 0.91095 0.44991
 H1325 H 0.72175 0.87987 0.45511
 H1326 H 0.74803 0.89759 0.36781
 H1327 H 0.66174 0.94393 0.42468
 H1328 H 0.77223 0.86539 0.39319
 C1329 C 0.26869 0.94681 0.64261
 C1330 C 0.29092 0.95617 0.63091
 C1331 C 0.29639 0.94741 0.60656
 C1332 C 0.27994 0.92955 0.59408
 C1333 C 0.25772 0.92016 0.60607
 C1334 C 0.25227 0.92891 0.63033
 C1335 C 0.24134 0.90218 0.59361
 C1336 C 0.24675 0.89357 0.56920
 C1337 C 0.26887 0.90316 0.55745
 C1338 C 0.28534 0.92093 0.56979
 H1339 H 0.31342 0.95451 0.59726
 H1340 H 0.23530 0.92192 0.63980
 H1341 H 0.22453 0.89468 0.60303
 H1342 H 0.30224 0.92804 0.56028
 H1343 H 0.26405 0.95320 0.66136
 H1344 H 0.27328 0.89722 0.53853
 C1345 C 0.31972 0.07958 0.40180
 C1346 C 0.30646 0.06029 0.38749
 C1347 C 0.27969 0.06009 0.38792
 C1348 C 0.26628 0.07866 0.40282
 C1349 C 0.27980 0.09826 0.41690
 C1350 C 0.30650 0.09861 0.41617
 C1351 C 0.26638 0.11696 0.43166
 C1352 C 0.23968 0.11585 0.43305
 C1353 C 0.22644 0.09604 0.41935
 C1354 C 0.23962 0.07774 0.40417
 H1355 H 0.26933 0.04501 0.37719
 H1356 H 0.31716 0.11340 0.42692
 H1357 H 0.27666 0.13207 0.44243
 H1358 H 0.22897 0.06277 0.39361
 H1359 H 0.34036 0.08005 0.40171
 H1360 H 0.20584 0.09502 0.42014
 C1361 C 0.67844 0.06368 0.57755
 C1362 C 0.68623 0.05879 0.60223
 C1363 C 0.70674 0.07374 0.61210
 C1364 C 0.71963 0.09286 0.59748
 C1365 C 0.71205 0.09723 0.57252
 C1366 C 0.69129 0.08268 0.56280
 C1367 C 0.72563 0.11574 0.55768
 C1368 C 0.74674 0.12986 0.56750
 C1369 C 0.75358 0.12573 0.59257
 C1370 C 0.74021 0.10741 0.60738
 H1371 H 0.71286 0.07037 0.63116
 H1372 H 0.68514 0.08579 0.54373
 H1373 H 0.72023 0.11856 0.53835
 H1374 H 0.74612 0.10446 0.62656
 H1375 H 0.66271 0.05246 0.56949
 H1376 H 0.76937 0.13672 0.60079
 C1377 C 0.94340 0.59474 0.30886
 C1378 C 0.95003 0.62098 0.30077
 C1379 C 0.93719 0.63229 0.28017
 C1380 C 0.91814 0.61756 0.26773
 C1381 C 0.91180 0.59112 0.27591
 C1382 C 0.92450 0.57993 0.29652
 C1383 C 0.89305 0.57622 0.26321
 C1384 C 0.88049 0.58737 0.24237
 C1385 C 0.88677 0.61382 0.23459
 C1386 C 0.90541 0.62877 0.24715
 H1387 H 0.94202 0.65253 0.27376
 H1388 H 0.91987 0.55969 0.30305
 H1389 H 0.88865 0.55571 0.26920
 H1390 H 0.90994 0.64907 0.24070
 H1391 H 0.95297 0.58553 0.32466
 H1392 H 0.87715 0.62302 0.21882
 C1393 C 0.93900 0.41005 0.69501
 C1394 C 0.94257 0.38257 0.70152
 C1395 C 0.92870 0.37178 0.72155
 C1396 C 0.91201 0.38833 0.73528
 C1397 C 0.90907 0.41608 0.72897
 C1398 C 0.92245 0.42665 0.70863
 C1399 C 0.89322 0.43290 0.74341
 C1400 C 0.88028 0.42235 0.76416
 C1401 C 0.88282 0.39450 0.76975
 C1402 C 0.89854 0.37768 0.75550
 H1403 H 0.93115 0.35062 0.72672
 H1404 H 0.92040 0.44785 0.70346
 H1405 H 0.89164 0.45435 0.73896
 H1406 H 0.90037 0.35640 0.76047
 H1407 H 0.94943 0.41892 0.67969
 H1408 H 0.87266 0.38567 0.78527
 C1409 C 0.07157 0.64053 0.72027
 C1410 C 0.05954 0.62567 0.70118
 C1411 C 0.06784 0.59899 0.69612
 C1412 C 0.08745 0.58712 0.71040
 C1413 C 0.09906 0.60221 0.72975
 C1414 C 0.09118 0.62896 0.73434
 C1415 C 0.11808 0.59019 0.74452
 C1416 C 0.12555 0.56307 0.74052
 C1417 C 0.11422 0.54834 0.72095
 C1418 C 0.09538 0.56027 0.70599
 H1419 H 0.05874 0.58729 0.68148
 H1420 H 0.09993 0.64083 0.74906
 H1421 H 0.12694 0.60192 0.75928
 H1422 H 0.08670 0.54835 0.69127
 H1423 H 0.06571 0.66116 0.72450
 H1424 H 0.11944 0.52732 0.71763
 C1425 C 0.06770 0.35212 0.26733
 C1426 C 0.05564 0.36653 0.28665
 C1427 C 0.06216 0.39394 0.29072
 C1428 C 0.07989 0.40695 0.27519
 C1429 C 0.09147 0.39228 0.25559
 C1430 C 0.08549 0.36481 0.25204
 C1431 C 0.10852 0.40538 0.23956
 C1432 C 0.11406 0.43316 0.24255
 C1433 C 0.10279 0.44750 0.26236
 C1434 C 0.08589 0.43451 0.27855
 H1435 H 0.05298 0.40533 0.30549
 H1436 H 0.09426 0.35324 0.23716
 H1437 H 0.11740 0.39395 0.22465
 H1438 H 0.07720 0.44613 0.29343
 H1439 H 0.06318 0.33097 0.26383
 H1440 H 0.10655 0.46896 0.26497
   
