data_POSCAR
  _audit_creation_date              2014-09-24
  _audit_creation_method            'ToBaCCo'
  _symmetry_space_group_name_H-M    'P1'
  _symmetry_Int_Tables_number       1
  _symmetry_cell_setting            triclinic
  loop_
  _symmetry_equiv_pos_as_xyz
 x,y,z
_cell_length_a 49.1520
_cell_length_b 52.0025
_cell_length_c 49.8090
_cell_angle_alpha 88.244200
_cell_angle_beta 89.203300
_cell_angle_gamma 89.814000
loop_
  _atom_site_label
  _atom_site_type_symbol
  _atom_site_fract_x
  _atom_site_fract_y
  _atom_site_fract_z
N1 N 0.34084 1.36184 0.29134
 N2 N 0.32080 1.37375 0.30358
 C3 C 0.31254 1.39388 0.28806
 C4 C 0.32829 1.39450 0.26480
 C5 C 0.34604 1.37391 0.26755
 H6 H 0.29631 1.40697 0.29330
 H7 H 0.36143 1.36804 0.25324
 Cu8 Cu 0.30711 1.36158 0.33840
 Cu9 Cu 0.35758 1.33085 0.30672
 Cu10 Cu 0.34394 1.31850 0.37442
 N11 N 0.30125 1.35623 0.37672
 N12 N 0.31573 1.33954 0.39086
 C13 C 0.30718 1.33961 0.41668
 C14 C 0.28623 1.35735 0.41866
 C15 C 0.28306 1.36758 0.39297
 H16 H 0.31531 1.32743 0.43265
 H17 H 0.26840 1.38199 0.38655
 N18 N 0.37157 1.29937 0.35386
 N19 N 0.37710 1.30443 0.32821
 C20 C 0.39690 1.28840 0.31998
 C21 C 0.40387 1.27231 0.34140
 C22 C 0.38743 1.27971 0.36250
 H23 H 0.40525 1.28808 0.29980
 H24 H 0.38707 1.27128 0.38262
 H25 H 0.32927 1.31929 0.33612
 H26 H 0.35322 1.34560 0.34422
 N27 N 0.35775 0.87600 0.80335
 N28 N 0.33653 0.88700 0.81459
 C29 C 0.32438 0.90269 0.79638
 C30 C 0.33890 0.90150 0.77250
 C31 C 0.35999 0.88448 0.77761
 H32 H 0.30656 0.91430 0.80029
 H33 H 0.37583 0.87875 0.76371
 Cu34 Cu 0.32763 0.88074 0.85225
 Cu35 Cu 0.38095 0.85194 0.82337
 Cu36 Cu 0.34952 0.82529 0.88056
 N37 N 0.31716 0.87047 0.88869
 N38 N 0.32600 0.84888 0.89993
 C39 C 0.31452 0.84584 0.92453
 C40 C 0.29757 0.86668 0.92876
 C41 C 0.29969 0.88188 0.90565
 H42 H 0.31744 0.82925 0.93782
 H43 H 0.28867 0.89951 0.90125
 N44 N 0.38115 0.80936 0.86269
 N45 N 0.39366 0.82004 0.84155
 C46 C 0.41468 0.80498 0.83434
 C47 C 0.41538 0.78379 0.85176
 C48 C 0.39389 0.78716 0.86949
 H49 H 0.42810 0.80890 0.81733
 H50 H 0.38804 0.77441 0.88612
 H51 H 0.34611 0.83886 0.84066
 H52 H 0.36878 0.85626 0.86365
 N53 N 0.84048 1.36285 0.78807
 N54 N 0.81913 1.37371 0.79928
 C55 C 0.81108 1.39390 0.78375
 C56 C 0.82830 1.39568 0.76156
 C57 C 0.84672 1.37570 0.76493
 H58 H 0.79397 1.40624 0.78825
 H59 H 0.86317 1.37069 0.75139
 Cu60 Cu 0.80380 1.36070 0.83319
 Cu61 Cu 0.85715 1.33190 0.80368
 Cu62 Cu 0.83215 1.31006 0.86557
 N63 N 0.79734 1.35370 0.87131
 N64 N 0.80879 1.33398 0.88389
 C65 C 0.80043 1.33307 0.90971
 C66 C 0.78282 1.35338 0.91349
 C67 C 0.78126 1.36611 0.88878
 H68 H 0.80618 1.31834 0.92436
 H69 H 0.76889 1.38278 0.88379
 N70 N 0.86349 1.29449 0.84756
 N71 N 0.87393 1.30322 0.82448
 C72 C 0.89632 1.28928 0.81868
 C73 C 0.89985 1.27103 0.83914
 C74 C 0.87875 1.27484 0.85701
 H75 H 0.90910 1.29218 0.80102
 H76 H 0.87514 1.26442 0.87584
 H77 H 0.82439 1.31821 0.82530
 H78 H 0.84721 1.34058 0.84285
 N79 N 0.86197 0.88105 0.30450
 N80 N 0.84695 0.89719 0.31812
 C81 C 0.83864 0.91644 0.30143
 C82 C 0.84910 0.91185 0.27605
 C83 C 0.86384 0.88935 0.27876
 H84 H 0.82564 0.93220 0.30721
 H85 H 0.87474 0.87950 0.26308
 Cu86 Cu 0.83840 0.89055 0.35585
 Cu87 Cu 0.87660 0.84966 0.32040
 Cu88 Cu 0.86990 0.84227 0.38951
 N89 N 0.82530 0.87779 0.39075
 N90 N 0.83777 0.85909 0.40406
 C91 C 0.82463 0.85442 0.42760
 C92 C 0.80266 0.87102 0.42891
 C93 C 0.80367 0.88555 0.40525
 H94 H 0.83041 0.83979 0.44237
 H95 H 0.78957 0.90052 0.39899
 N96 N 0.89359 0.82032 0.36775
 N97 N 0.89634 0.82341 0.34145
 C98 C 0.91368 0.80556 0.33229
 C99 C 0.92177 0.79023 0.35380
 C100 C 0.90864 0.79996 0.37598
 H101 H 0.91939 0.80339 0.31143
 H102 H 0.90972 0.79260 0.39648
 H103 H 0.85084 0.84531 0.35392
 H104 H 0.88134 0.86642 0.35642
 N105 N 0.60473 0.65457 0.31477
 N106 N 0.62123 0.63786 0.30372
 C107 C 0.60711 0.62361 0.28661
 C108 C 0.58034 0.63183 0.28715
 C109 C 0.57955 0.65155 0.30516
 H110 H 0.61571 0.60876 0.27432
 H111 H 0.56219 0.66331 0.31037
 Cu112 Cu 0.65984 0.63749 0.31185
 Cu113 Cu 0.61766 0.67986 0.33967
 Cu114 Cu 0.67563 0.65857 0.37255
 N115 N 0.69664 0.63476 0.32539
 N116 N 0.70272 0.64250 0.34947
 C117 C 0.72903 0.63702 0.35438
 C118 C 0.74002 0.62555 0.33201
 C119 C 0.71892 0.62441 0.31400
 H120 H 0.73933 0.64102 0.37284
 H121 H 0.71956 0.61614 0.29435
 N122 N 0.65065 0.68472 0.38693
 N123 N 0.62961 0.69406 0.37358
 C124 C 0.61808 0.71310 0.38758
 C125 C 0.63246 0.71561 0.41095
 C126 C 0.65293 0.69735 0.40994
 H127 H 0.60037 0.72405 0.38141
 H128 H 0.66880 0.69406 0.42448
 H129 H 0.66048 0.67588 0.33890
 H130 H 0.63900 0.64972 0.35440
 N131 N 0.60161 0.15042 0.81743
 N132 N 0.61682 0.13210 0.80745
 C133 C 0.60260 0.11984 0.78877
 C134 C 0.57709 0.13109 0.78724
 C135 C 0.57717 0.15042 0.80571
 H136 H 0.61023 0.10408 0.77712
 H137 H 0.56101 0.16394 0.80990
 Cu138 Cu 0.65366 0.12649 0.82012
 Cu139 Cu 0.61525 0.17416 0.84343
 Cu140 Cu 0.67061 0.15059 0.87906
 N141 N 0.69098 0.12510 0.83260
 N142 N 0.69746 0.13377 0.85620
 C143 C 0.72400 0.12893 0.86067
 C144 C 0.73471 0.11695 0.83848
 C145 C 0.71321 0.11480 0.82105
 H146 H 0.73467 0.13380 0.87867
 H147 H 0.71357 0.10590 0.80171
 N148 N 0.64632 0.17784 0.89219
 N149 N 0.62636 0.18792 0.87782
 C150 C 0.61474 0.20720 0.89134
 C151 C 0.62791 0.20914 0.91545
 C152 C 0.64781 0.19028 0.91540
 H153 H 0.59766 0.21864 0.88440
 H154 H 0.66265 0.18629 0.93081
 H155 H 0.65710 0.16632 0.84434
 H156 H 0.63308 0.14304 0.86115
 N157 N 1.10277 0.64531 0.82498
 N158 N 1.11888 0.62885 0.81310
 C159 C 1.10505 0.61727 0.79367
 C160 C 1.07887 0.62686 0.79363
 C161 C 1.07803 0.64462 0.81375
 H162 H 1.11340 0.60315 0.78034
 H163 H 1.06094 0.65652 0.81942
 Cu164 Cu 1.15652 0.62415 0.82359
 Cu165 Cu 1.11520 0.66655 0.85392
 Cu166 Cu 1.18371 0.66276 0.86903
 N167 N 1.19456 0.62160 0.83346
 N168 N 1.20500 0.63627 0.85167
 C169 C 1.23151 0.63032 0.85464
 C170 C 1.23800 0.61116 0.83707
 C171 C 1.21415 0.60607 0.82392
 H172 H 1.24518 0.63950 0.86820
 H173 H 1.21129 0.59200 0.80868
 N174 N 1.15890 0.68830 0.88444
 N175 N 1.13289 0.69030 0.87841
 C176 C 1.12198 0.71031 0.89153
 C177 C 1.14211 0.72105 0.90670
 C178 C 1.16515 0.70664 0.90172
 H179 H 1.10099 0.71652 0.89032
 H180 H 1.18511 0.70955 0.90989
 H181 H 1.15456 0.66794 0.83926
 H182 H 1.14743 0.64367 0.86692
 N183 N 1.09428 0.13881 0.33292
 N184 N 1.10959 0.12078 0.32254
 C185 C 1.09563 0.10900 0.30341
 C186 C 1.07014 0.12010 0.30196
 C187 C 1.06987 0.13892 0.32101
 H188 H 1.10349 0.09368 0.29128
 H189 H 1.05352 0.15221 0.32533
 Cu190 Cu 1.14604 0.11387 0.33532
 Cu191 Cu 1.10780 0.16119 0.36037
 Cu192 Cu 1.17834 0.16255 0.36383
 N193 N 1.18445 0.11197 0.34332
 N194 N 1.19719 0.13090 0.35472
 C195 C 1.22374 0.12472 0.35698
 C196 C 1.22771 0.10074 0.34629
 C197 C 1.20236 0.09324 0.33785
 H198 H 1.23908 0.13697 0.36521
 H199 H 1.19739 0.07561 0.32808
 N200 N 1.15452 0.18898 0.37944
 N201 N 1.12770 0.18846 0.37823
 C202 C 1.11741 0.20897 0.39086
 C203 C 1.13879 0.22278 0.40079
 C204 C 1.16199 0.20958 0.39324
 H205 H 1.09597 0.21333 0.39302
 H206 H 1.18277 0.21453 0.39766
 H207 H 1.14377 0.16033 0.34000
 H208 H 1.14388 0.14277 0.37322
 N209 N 0.63904 1.34772 0.69897
 N210 N 0.65058 1.37025 0.69418
 C211 C 0.65652 1.38083 0.71781
 C212 C 0.64878 1.36369 0.73827
 C213 C 0.63780 1.34293 0.72563
 H214 H 0.66655 1.39913 0.71990
 H215 H 0.62935 1.32570 0.73513
 Cu216 Cu 0.65829 1.38264 0.65734
 Cu217 Cu 0.62563 1.32672 0.67018
 Cu218 Cu 0.66592 1.33520 0.61364
 N219 N 0.67392 1.38878 0.62133
 N220 N 0.67887 1.36953 0.60542
 C221 C 0.69203 1.37818 0.58312
 C222 C 0.69458 1.40440 0.58464
 C223 C 0.68299 1.41066 0.60913
 H224 H 0.69839 1.36637 0.56665
 H225 H 0.68204 1.42950 0.61772
 N226 N 0.64005 1.30676 0.61851
 N227 N 0.62427 1.30336 0.63997
 C228 C 0.60611 1.28468 0.63533
 C229 C 0.61044 1.27663 0.60942
 C230 C 0.63205 1.29089 0.59943
 H231 H 0.58967 1.27893 0.64885
 H232 H 0.64022 1.29090 0.57915
 H233 H 0.66220 1.33591 0.65538
 H234 H 0.63338 1.34958 0.63508
 N235 N 0.62211 0.86727 1.19240
 N236 N 0.63529 0.88716 1.18180
 C237 C 0.64351 0.90226 1.20148
 C238 C 0.63487 0.89143 1.22576
 C239 C 0.62102 0.86937 1.21935
 H240 H 0.65599 0.91922 1.19840
 H241 H 0.61284 0.85490 1.23326
 Cu242 Cu 0.64348 0.89031 1.14358
 Cu243 Cu 0.61242 0.83833 1.17014
 Cu244 Cu 0.66000 0.83383 1.11811
 N245 N 0.66175 0.88845 1.10903
 N246 N 0.67015 0.86628 1.09993
 C247 C 0.68612 0.87065 1.07803
 C248 C 0.68687 0.89692 1.07280
 C249 C 0.67118 0.90763 1.09282
 H250 H 0.69659 0.85591 1.06699
 H251 H 0.66847 0.92790 1.09641
 N252 N 0.63782 0.80450 1.13200
 N253 N 0.61852 0.80653 1.15057
 C254 C 0.60627 0.78355 1.15450
 C255 C 0.61866 0.76637 1.13765
 C256 C 0.63857 0.78011 1.12381
 H257 H 0.59036 0.77946 1.16921
 H258 H 0.65253 0.77284 1.10886
 H259 H 0.65033 0.84511 1.15646
 H260 H 0.62400 0.84978 1.13017
 N261 N 1.13222 1.37089 1.19585
 N262 N 1.13277 1.39256 1.18157
 C263 C 1.13035 1.41238 1.19817
 C264 C 1.12799 1.40251 1.22419
 C265 C 1.12905 1.37612 1.22201
 H266 H 1.13117 1.43245 1.19184
 H267 H 1.12866 1.36186 1.23829
 Cu268 Cu 1.13922 1.39319 1.14301
 Cu269 Cu 1.13768 1.33785 1.17947
 Cu270 Cu 1.14985 1.33781 1.11107
 N271 N 1.15781 1.39237 1.10842
 N272 N 1.16419 1.37069 1.09692
 C273 C 1.18023 1.37597 1.07523
 C274 C 1.18333 1.40240 1.07289
 C275 C 1.16884 1.41214 1.09419
 H276 H 1.18893 1.36173 1.06227
 H277 H 1.16779 1.43203 1.09984
 N278 N 1.13900 1.30652 1.13200
 N279 N 1.13511 1.30671 1.15828
 C280 C 1.12423 1.28419 1.16670
 C281 C 1.12079 1.26908 1.14471
 C282 C 1.13054 1.28372 1.12298
 H283 H 1.11708 1.28004 1.18699
 H284 H 1.12945 1.27897 1.10204
 H285 H 1.16109 1.35165 1.14624
 H286 H 1.12324 1.34937 1.14158
 N287 N 1.13746 0.86784 0.70291
 N288 N 1.14700 0.88829 0.68985
 C289 C 1.15212 0.90666 0.70747
 C290 C 1.14516 0.89727 0.73292
 C291 C 1.13574 0.87261 0.72932
 H292 H 1.16024 0.92546 0.70211
 H293 H 1.12870 0.85902 0.74475
 Cu294 Cu 1.15151 0.88927 0.65102
 Cu295 Cu 1.12874 0.83676 0.68407
 Cu296 Cu 1.16466 0.83219 0.62380
 N297 N 1.16621 0.88687 0.61488
 N298 N 1.17343 0.86471 0.60498
 C299 C 1.18729 0.86905 0.58170
 C300 C 1.18793 0.89535 0.57656
 C301 C 1.17434 0.90605 0.59795
 H302 H 1.19658 0.85431 0.56975
 H303 H 1.17242 0.92632 0.60189
 N304 N 1.14565 0.80268 0.64170
 N305 N 1.13245 0.80460 0.66484
 C306 C 1.12051 0.78205 0.67131
 C307 C 1.12598 0.76517 0.65109
 C308 C 1.14187 0.77882 0.63253
 H309 H 1.10746 0.77865 0.68870
 H310 H 1.14919 0.77222 0.61335
 H311 H 1.16310 0.84492 0.66308
 H312 H 1.13146 0.84758 0.64276
 N313 N 0.40893 0.63467 0.67282
 N314 N 0.39934 0.61116 0.67231
 C315 C 0.41769 0.59468 0.68292
 C316 C 0.43972 0.60874 0.69084
 C317 C 0.43348 0.63412 0.68460
 H318 H 0.41469 0.57422 0.68601
 H319 H 0.44557 0.65085 0.68861
 Cu320 Cu 0.36240 0.60430 0.66145
 Cu321 Cu 0.38848 0.66407 0.65833
 Cu322 Cu 0.33147 0.64770 0.62215
 N323 N 0.32378 0.60167 0.65405
 N324 N 0.31186 0.61857 0.63795
 C325 C 0.28596 0.61143 0.63417
 C326 C 0.28132 0.58899 0.64900
 C327 C 0.30571 0.58328 0.66147
 H328 H 0.27165 0.62165 0.62140
 H329 H 0.31014 0.56678 0.67447
 N330 N 0.34940 0.68108 0.61827
 N331 N 0.37054 0.68804 0.63239
 C332 C 0.37876 0.71158 0.62335
 C333 C 0.36197 0.71938 0.60252
 C334 C 0.34360 0.69967 0.60005
 H335 H 0.39673 0.72136 0.63002
 H336 H 0.32780 0.69848 0.58525
 H337 H 0.34888 0.64952 0.65850
 H338 H 0.37278 0.64042 0.63083
 N339 N 0.41272 0.12280 1.15527
 N340 N 0.39713 0.10639 1.16884
 C341 C 0.41191 0.09436 1.18799
 C342 C 0.43810 0.10386 1.18633
 C343 C 0.43800 0.12180 1.16529
 H344 H 0.40391 0.08053 1.20270
 H345 H 0.45458 0.13419 1.15869
 Cu346 Cu 0.35867 0.10287 1.16123
 Cu347 Cu 0.39791 0.14588 1.12780
 Cu348 Cu 0.33054 0.15763 1.13180
 N349 N 0.31928 0.10816 1.15831
 N350 N 0.30824 0.12854 1.14625
 C351 C 0.28099 0.12532 1.14583
 C352 C 0.27484 0.10212 1.15885
 C353 C 0.29953 0.09185 1.16655
 H354 H 0.26672 0.13878 1.13681
 H355 H 0.30291 0.07344 1.17667
 N356 N 0.35572 0.18131 1.11305
 N357 N 0.38179 0.17592 1.11043
 C358 C 0.39414 0.19486 1.09593
 C359 C 0.37491 0.21332 1.08964
 C360 C 0.35070 0.20421 1.10066
 H361 H 0.41557 0.19536 1.09070
 H362 H 0.33090 0.21322 1.09917
 H363 H 0.35902 0.14175 1.15816
 H364 H 0.35348 0.12536 1.12576
 N365 N 0.90339 0.64008 1.16953
 N366 N 0.89045 0.62053 1.18113
 C367 C 0.90713 0.60857 1.19874
 C368 C 0.93182 0.62123 1.19788
 C369 C 0.92883 0.64104 1.17904
 H370 H 0.90155 0.59236 1.21176
 H371 H 0.94351 0.65580 1.17359
 Cu372 Cu 0.85286 0.61317 1.17260
 Cu373 Cu 0.88574 0.66397 1.14448
 Cu374 Cu 0.81541 0.65963 1.14360
 N375 N 0.81656 0.60622 1.15956
 N376 N 0.80205 0.62460 1.14797
 C377 C 0.77754 0.61527 1.14170
 C378 C 0.77665 0.58968 1.14980
 C379 C 0.80172 0.58448 1.16110
 H380 H 0.76138 0.62643 1.13245
 H381 H 0.80848 0.56640 1.17004
 N382 N 0.83544 0.68984 1.12965
 N383 N 0.86224 0.69142 1.12954
 C384 C 0.86969 0.71434 1.11850
 C385 C 0.84643 0.72753 1.11105
 C386 C 0.82510 0.71147 1.11835
 H387 H 0.89046 0.72087 1.11588
 H388 H 0.80365 0.71515 1.11549
 H389 H 0.85101 0.65990 1.16672
 H390 H 0.85121 0.64317 1.13406
 N391 N 0.90239 0.14483 0.67259
 N392 N 0.88895 0.12491 0.68280
 C393 C 0.90451 0.11245 0.70106
 C394 C 0.92911 0.12506 0.70208
 C395 C 0.92718 0.14547 0.68370
 H396 H 0.89839 0.09554 0.71279
 H397 H 0.94234 0.16008 0.67922
 Cu398 Cu 0.85284 0.11652 0.67057
 Cu399 Cu 0.88619 0.16865 0.64618
 Cu400 Cu 0.81569 0.16497 0.64501
 N401 N 0.81516 0.11165 0.66071
 N402 N 0.80080 0.13072 0.65027
 C403 C 0.77544 0.12251 0.64557
 C404 C 0.77389 0.09692 0.65355
 C405 C 0.79939 0.09058 0.66314
 H406 H 0.75930 0.13438 0.63730
 H407 H 0.80593 0.07208 0.67124
 N408 N 0.83620 0.19434 0.62997
 N409 N 0.86301 0.19586 0.62985
 C410 C 0.87049 0.21803 0.61708
 C411 C 0.84720 0.23065 0.60855
 C412 C 0.82592 0.21510 0.61701
 H413 H 0.89126 0.22425 0.61374
 H414 H 0.80449 0.21845 0.61366
 H415 H 0.85166 0.16347 0.66760
 H416 H 0.85173 0.14877 0.63387
 N417 N 1.37618 0.35972 0.69298
 N418 N 1.39319 0.34589 0.67878
 C419 C 1.41841 0.34832 0.68857
 C420 C 1.41705 0.36461 0.71002
 C421 C 1.38998 0.37155 0.71224
 H422 H 1.43631 0.33860 0.68105
 H423 H 1.38090 0.38381 0.72708
 Cu424 Cu 1.38054 0.32597 0.64894
 Cu425 Cu 1.33708 0.35949 0.68684
 Cu426 Cu 1.31902 0.33889 0.62399
 N427 N 1.36542 0.30501 0.62105
 N428 N 1.34171 0.31107 0.61065
 C429 C 1.33665 0.29546 0.59033
 C430 C 1.35820 0.27843 0.58798
 C431 C 1.37611 0.28495 0.60788
 H432 H 1.31849 0.29644 0.57832
 H433 H 1.39564 0.27615 0.61206
 N434 N 1.29416 0.35827 0.64730
 N435 N 1.30071 0.36520 0.67163
 C436 C 1.27922 0.37702 0.68296
 C437 C 1.25812 0.37744 0.66488
 C438 C 1.26829 0.36552 0.64244
 H439 H 1.27909 0.38505 0.70273
 H440 H 1.25757 0.36217 0.62406
 H441 H 1.33259 0.32864 0.66129
 H442 H 1.34604 0.35993 0.64738
 N443 N 1.38147 0.86221 1.19231
 N444 N 1.39843 0.84960 1.17683
 C445 C 1.42393 0.85242 1.18582
 C446 C 1.42276 0.86763 1.20815
 C447 C 1.39554 0.87354 1.21167
 H448 H 1.44182 0.84360 1.17716
 H449 H 1.38652 0.88459 1.22757
 Cu450 Cu 1.38520 0.82954 1.14740
 Cu451 Cu 1.34223 0.86115 1.18751
 Cu452 Cu 1.32221 0.84082 1.12516
 N453 N 1.36895 0.80775 1.12092
 N454 N 1.34440 0.81272 1.11193
 C455 C 1.33818 0.79574 1.09319
 C456 C 1.35995 0.77901 1.09044
 C457 C 1.37917 0.78716 1.10834
 H458 H 1.31912 0.79557 1.08259
 H459 H 1.39910 0.77888 1.11174
 N460 N 1.29830 0.86055 1.14890
 N461 N 1.30558 0.86738 1.17307
 C462 C 1.28472 0.87985 1.18469
 C463 C 1.26331 0.88087 1.16695
 C464 C 1.27258 0.86845 1.14447
 H465 H 1.28523 0.88795 1.20441
 H466 H 1.26138 0.86528 1.12633
 H467 H 1.33748 0.83079 1.16139
 H468 H 1.34954 0.86253 1.14748
 N469 N 0.88872 0.37749 1.17525
 N470 N 0.89605 0.35457 1.18452
 C471 C 0.91689 0.35724 1.20168
 C472 C 0.92384 0.38312 1.20169
 C473 C 0.90577 0.39522 1.18436
 H474 H 0.92691 0.34154 1.21237
 H475 H 0.90363 0.41572 1.18051
 Cu476 Cu 0.87922 0.32401 1.16977
 Cu477 Cu 0.85477 0.38348 1.15619
 Cu478 Cu 0.81454 0.33011 1.15015
 N479 N 0.86333 0.29984 1.14475
 N480 N 0.83768 0.30227 1.13784
 C481 C 0.83208 0.28549 1.11877
 C482 C 0.85543 0.27182 1.11303
 C483 C 0.87493 0.28114 1.13012
 H484 H 0.81276 0.28441 1.10873
 H485 H 0.89624 0.27589 1.13062
 N486 N 0.79951 0.36485 1.14867
 N487 N 0.81499 0.38544 1.15007
 C488 C 0.79894 0.40649 1.14885
 C489 C 0.77224 0.39859 1.14629
 C490 C 0.77335 0.37209 1.14617
 H491 H 0.80610 0.42604 1.15032
 H492 H 0.75640 0.35900 1.14480
 H493 H 0.83989 0.35190 1.17557
 H494 H 0.84928 0.34864 1.13942
 N495 N 0.87982 0.86804 0.69920
 N496 N 0.89660 0.85376 0.68522
 C497 C 0.92224 0.85797 0.69300
 C498 C 0.92143 0.87571 0.71308
 C499 C 0.89420 0.88166 0.71663
 H500 H 0.94000 0.84820 0.68527
 H501 H 0.88546 0.89445 0.73116
 Cu502 Cu 0.88338 0.82933 0.65986
 Cu503 Cu 0.84058 0.86674 0.69412
 Cu504 Cu 0.82409 0.84528 0.63119
 N505 N 0.86994 0.81084 0.62965
 N506 N 0.84699 0.81763 0.61816
 C507 C 0.84306 0.80293 0.59688
 C508 C 0.86460 0.78588 0.59509
 C509 C 0.88132 0.79134 0.61622
 H510 H 0.82575 0.80456 0.58376
 H511 H 0.90052 0.78222 0.62105
 N512 N 0.79889 0.86549 0.65334
 N513 N 0.80485 0.87282 0.67770
 C514 C 0.78325 0.88512 0.68816
 C515 C 0.76268 0.88546 0.66949
 C516 C 0.77326 0.87290 0.64764
 H517 H 0.78264 0.89337 0.70783
 H518 H 0.76291 0.86911 0.62915
 H519 H 0.83476 0.83504 0.66937
 H520 H 0.85110 0.86490 0.65514
 N521 N 0.66467 0.61331 0.68163
 N522 N 0.64302 0.62373 0.69268
 C523 C 0.63784 0.61167 0.71647
 C524 C 0.65733 0.59279 0.72042
 C525 C 0.67405 0.59429 0.69794
 H526 H 0.62177 0.61681 0.73038
 H527 H 0.69222 0.58312 0.69414
 Cu528 Cu 0.62585 0.65390 0.67626
 Cu529 Cu 0.68078 0.62709 0.64851
 Cu530 Cu 0.63901 0.66807 0.61117
 N531 N 0.60994 0.68383 0.65825
 N532 N 0.61562 0.68966 0.63291
 C533 C 0.60255 0.71152 0.62570
 C534 C 0.58795 0.71972 0.64772
 C535 C 0.59301 0.70175 0.66803
 H536 H 0.60361 0.72072 0.60593
 H537 H 0.58531 0.70195 0.68846
 N538 N 0.67121 0.65101 0.59589
 N539 N 0.68723 0.63584 0.61040
 C540 C 0.70783 0.62765 0.59486
 C541 C 0.70479 0.63833 0.56944
 C542 C 0.68140 0.65311 0.57064
 H543 H 0.72405 0.61502 0.60159
 H544 H 0.67274 0.66481 0.55457
 H545 H 0.66241 0.66354 0.64390
 H546 H 0.64261 0.63441 0.63529
 N547 N 0.68349 1.13625 1.20753
 N548 N 0.67989 1.15793 1.21996
 C549 C 0.68362 1.15391 1.24645
 C550 C 0.68822 1.12791 1.25110
 C551 C 0.68761 1.11711 1.22600
 H552 H 0.68018 1.16822 1.26145
 H553 H 0.69039 1.09704 1.22151
 Cu554 Cu 0.66359 1.18758 1.20183
 Cu555 Cu 0.68379 1.13556 1.16816
 Cu556 Cu 0.66849 1.19336 1.13524
 N557 N 0.63844 1.20940 1.18150
 N558 N 0.64107 1.21217 1.15528
 C559 C 0.62216 1.22878 1.14605
 C560 C 0.60648 1.23650 1.16757
 C561 C 0.61733 1.22388 1.18987
 H562 H 0.61984 1.23465 1.12517
 H563 H 0.61071 1.22541 1.21057
 N564 N 0.68628 1.16487 1.11724
 N565 N 0.69261 1.14282 1.12951
 C566 C 0.70731 1.12859 1.11227
 C567 C 0.70981 1.14235 1.08807
 C568 C 0.69608 1.16512 1.09195
 H569 H 0.71646 1.11014 1.11726
 H570 H 0.69470 1.18136 1.07794
 H571 H 0.69237 1.17386 1.16493
 H572 H 0.65596 1.16469 1.16060
 N573 N 0.15443 0.61263 1.18221
 N574 N 0.13467 0.62510 1.19434
 C575 C 0.13055 0.61412 1.21897
 C576 C 0.14886 0.59389 1.22224
 C577 C 0.16340 0.59334 1.19835
 H578 H 0.11626 0.62106 1.23382
 H579 H 0.18034 0.58090 1.19356
 Cu580 Cu 0.11897 0.65667 1.17757
 Cu581 Cu 0.16969 0.62463 1.14811
 Cu582 Cu 0.17174 0.68873 1.14437
 N583 N 0.11780 0.69399 1.16876
 N584 N 0.14005 0.70635 1.16072
 C585 C 0.13523 0.73180 1.16092
 C586 C 0.10820 0.73562 1.16785
 C587 C 0.09750 0.71121 1.17221
 H588 H 0.14959 0.74644 1.15421
 H589 H 0.07701 0.70641 1.17877
 N590 N 0.19238 0.66765 1.11926
 N591 N 0.19146 0.64237 1.12090
 C592 C 0.20833 0.63256 1.10237
 C593 C 0.22042 0.65276 1.08822
 C594 C 0.20994 0.67482 1.09943
 H595 H 0.21192 0.61225 1.09975
 H596 H 0.21512 0.69453 1.09404
 H597 H 0.15919 0.66294 1.17385
 H598 H 0.14146 0.66278 1.14109
 N599 N 0.16433 1.11705 0.69134
 N600 N 0.14766 1.13213 0.70452
 C601 C 0.14501 1.12301 0.73005
 C602 C 0.16092 1.10110 0.73291
 C603 C 0.17288 1.09785 0.70791
 H604 H 0.13246 1.13159 0.74541
 H605 H 0.18654 1.08260 0.70206
 Cu606 Cu 0.13111 1.16203 0.68661
 Cu607 Cu 0.17271 1.12273 0.65330
 Cu608 Cu 0.15688 1.18378 0.62775
 N609 N 0.11383 1.19027 0.66657
 N610 N 0.12456 1.19911 0.64379
 C611 C 0.11037 1.21981 0.63504
 C612 C 0.08944 1.22404 0.65318
 C613 C 0.09214 1.20489 0.67295
 H614 H 0.11510 1.23105 0.61695
 H615 H 0.07977 1.20222 0.69095
 N616 N 0.18122 1.15982 0.60914
 N617 N 0.18713 1.13656 0.61876
 C618 C 0.20445 1.12513 0.60163
 C619 C 0.20928 1.14188 0.58007
 C620 C 0.19424 1.16367 0.58542
 H621 H 0.21311 1.10614 0.60471
 H622 H 0.19316 1.18115 0.57315
 H623 H 0.17286 1.16102 0.65940
 H624 H 0.14262 1.14928 0.64119
 N625 N 1.36168 0.61728 0.31499
 N626 N 1.36129 0.63864 0.30019
 C627 C 1.36498 0.63296 0.27420
 C628 C 1.36766 0.60657 0.27275
 C629 C 1.36557 0.59722 0.29898
 H630 H 1.36516 0.64688 0.25762
 H631 H 1.36636 0.57733 0.30593
 Cu632 Cu 1.35606 0.67161 0.31658
 Cu633 Cu 1.35675 0.61720 0.35385
 Cu634 Cu 1.33216 0.67381 0.37985
 N635 N 1.36087 0.70174 0.33802
 N636 N 1.35216 0.70282 0.36306
 C637 C 1.36103 0.72488 0.37352
 C638 C 1.37619 0.73807 0.35388
 C639 C 1.37533 0.72290 0.33158
 H640 H 1.35777 0.73030 0.39412
 H641 H 1.38574 0.72615 0.31252
 N642 N 1.32688 0.64005 0.39820
 N643 N 1.33868 0.61902 0.38937
 C644 C 1.33136 0.59892 0.40542
 C645 C 1.31363 0.60754 0.42492
 C646 C 1.31108 0.63373 0.41976
 H647 H 1.33631 0.57909 0.40155
 H648 H 1.29795 0.64697 0.43016
 H649 H 1.32929 0.64642 0.34935
 H650 H 1.36316 0.65532 0.36262
 N651 N 1.36843 1.10758 0.81810
 N652 N 1.37966 1.12772 0.80582
 C653 C 1.38271 1.12298 0.77943
 C654 C 1.37262 1.09864 0.77508
 C655 C 1.36389 1.08944 0.80009
 H656 H 1.39061 1.13658 0.76444
 H657 H 1.35399 1.07128 0.80478
 Cu658 Cu 1.38664 1.15904 0.82551
 Cu659 Cu 1.35832 1.10741 0.85606
 Cu660 Cu 1.33673 1.16510 0.87490
 N661 N 1.37841 1.19193 0.84233
 N662 N 1.35811 1.19437 0.85976
 C663 C 1.35676 1.21897 0.86719
 C664 C 1.37730 1.23248 0.85408
 C665 C 1.39077 1.21489 0.83846
 H666 H 1.34246 1.22638 0.88175
 H667 H 1.40797 1.21852 0.82512
 N668 N 1.32789 1.13389 0.89582
 N669 N 1.33806 1.11144 0.88943
 C670 C 1.32935 1.09341 0.90745
 C671 C 1.31236 1.10517 0.92577
 C672 C 1.31156 1.13080 0.91764
 H673 H 1.33372 1.07307 0.90639
 H674 H 1.30002 1.14602 0.92683
 H675 H 1.34890 1.15089 0.83845
 H676 H 1.37429 1.15022 0.86597
 N677 N 0.86264 0.61495 0.81593
 N678 N 0.86259 0.63676 0.80189
 C679 C 0.86586 0.63189 0.77564
 C680 C 0.86788 0.60555 0.77321
 C681 C 0.86589 0.59539 0.79915
 H682 H 0.86622 0.64635 0.75955
 H683 H 0.86629 0.57528 0.80538
 Cu684 Cu 0.85825 0.66916 0.81957
 Cu685 Cu 0.85792 0.61382 0.85482
 Cu686 Cu 0.83496 0.67005 0.88322
 N687 N 0.86406 0.69844 0.84187
 N688 N 0.85560 0.69919 0.86701
 C689 C 0.86491 0.72104 0.87771
 C690 C 0.87999 0.73437 0.85806
 C691 C 0.87880 0.71947 0.83566
 H692 H 0.86191 0.72627 0.89839
 H693 H 0.88896 0.72295 0.81651
 N694 N 0.82813 0.63559 0.89991
 N695 N 0.83952 0.61471 0.89021
 C696 C 0.83107 0.59407 0.90483
 C697 C 0.81293 0.60206 0.92423
 C698 C 0.81137 0.62856 0.92056
 H699 H 0.83545 0.57437 0.89985
 H700 H 0.79822 0.64156 0.93129
 H701 H 0.83098 0.64387 0.85169
 H702 H 0.86517 0.65144 0.86511
 N703 N 0.86726 1.10631 0.32082
 N704 N 0.87251 1.12798 0.30750
 C705 C 0.87304 1.12368 0.28094
 C706 C 0.86766 1.09792 0.27751
 C707 C 0.86421 1.08744 0.30323
 H708 H 0.87611 1.13831 0.26528
 H709 H 0.85921 1.06771 0.30876
 Cu710 Cu 0.87714 1.15979 0.32635
 Cu711 Cu 0.86321 1.10502 0.35993
 Cu712 Cu 0.84320 1.16380 0.38508
 N713 N 0.87520 1.19160 0.34535
 N714 N 0.86245 1.19343 0.36860
 C715 C 0.86504 1.21773 0.37708
 C716 C 0.88004 1.23165 0.35788
 C717 C 0.88610 1.21442 0.33813
 H718 H 0.85676 1.22466 0.39575
 H719 H 0.89824 1.21800 0.32016
 N720 N 0.83459 1.13036 0.40333
 N721 N 0.84459 1.10837 0.39491
 C722 C 0.83555 1.08905 0.41120
 C723 C 0.81851 1.09924 0.43044
 C724 C 0.81823 1.12546 0.42486
 H725 H 0.83899 1.06884 0.40776
 H726 H 0.80632 1.13973 0.43518
 H727 H 0.84202 1.13813 0.35361
 H728 H 0.87428 1.14183 0.37233
 N729 N 0.61823 0.36837 0.30462
 N730 N 0.60438 0.35060 0.31820
 C731 C 0.57800 0.35233 0.31145
 C732 C 0.57540 0.37211 0.29239
 C733 C 0.60129 0.38185 0.28851
 H734 H 0.56214 0.33974 0.31933
 H735 H 0.60734 0.39758 0.27504
 Cu736 Cu 0.62186 0.32610 0.34285
 Cu737 Cu 0.65681 0.37311 0.30978
 Cu738 Cu 0.69206 0.32994 0.34646
 N739 N 0.64442 0.29899 0.36012
 N740 N 0.67116 0.30066 0.36156
 C741 C 0.68084 0.27953 0.37444
 C742 C 0.65915 0.26360 0.38115
 C743 C 0.63637 0.27644 0.37167
 H744 H 0.70211 0.27602 0.37850
 H745 H 0.61552 0.26992 0.37323
 N746 N 0.70580 0.36450 0.33890
 N747 N 0.69204 0.38130 0.32421
 C748 C 0.70651 0.40312 0.32125
 C749 C 0.73063 0.39976 0.33485
 C750 C 0.72958 0.37505 0.34583
 H751 H 0.69997 0.42011 0.31001
 H752 H 0.74503 0.36537 0.35768
 H753 H 0.65775 0.32723 0.32173
 H754 H 0.65601 0.34787 0.35178
 N755 N 0.60609 0.88675 0.82427
 N756 N 0.58999 0.87182 0.83910
 C757 C 0.56460 0.87323 0.82947
 C758 C 0.56487 0.88979 0.80726
 C759 C 0.59148 0.89813 0.80452
 H760 H 0.54757 0.86210 0.83733
 H761 H 0.59971 0.91096 0.78896
 Cu762 Cu 0.60401 0.84913 0.86717
 Cu763 Cu 0.64445 0.89042 0.83255
 Cu764 Cu 0.67105 0.84606 0.87837
 N765 N 0.62045 0.81880 0.88363
 N766 N 0.64650 0.81801 0.88928
 C767 C 0.65173 0.79599 0.90321
 C768 C 0.62789 0.78198 0.90542
 C769 C 0.60838 0.79705 0.89300
 H770 H 0.67118 0.79079 0.91176
 H771 H 0.58681 0.79313 0.89201
 N772 N 0.69353 0.87261 0.85951
 N773 N 0.68354 0.88846 0.84085
 C774 C 0.70366 0.90363 0.83100
 C775 C 0.72730 0.89737 0.84440
 C776 C 0.72019 0.87777 0.86247
 H777 H 0.70117 0.91866 0.81576
 H778 H 0.73345 0.86813 0.87674
 H779 H 0.64808 0.85236 0.84466
 H780 H 0.64448 0.87624 0.87159
 N781 N 0.10822 0.38018 0.81954
 N782 N 0.09515 0.35985 0.82928
 C783 C 0.07044 0.35893 0.81804
 C784 C 0.06820 0.37963 0.80007
 C785 C 0.09252 0.39264 0.80142
 H786 H 0.05555 0.34400 0.82215
 H787 H 0.09830 0.40987 0.79005
 Cu788 Cu 0.11168 0.33585 0.85524
 Cu789 Cu 0.14402 0.38903 0.83212
 Cu790 Cu 0.18175 0.34193 0.85979
 N791 N 0.13509 0.30901 0.87187
 N792 N 0.16172 0.31160 0.87352
 C793 C 0.17210 0.29092 0.88661
 C794 C 0.15106 0.27425 0.89324
 C795 C 0.12785 0.28619 0.88343
 H796 H 0.19339 0.28838 0.89120
 H797 H 0.10722 0.27908 0.88513
 N798 N 0.19564 0.37659 0.85423
 N799 N 0.18117 0.39511 0.84288
 C800 C 0.19659 0.41642 0.84010
 C801 C 0.22196 0.41078 0.85039
 C802 C 0.22068 0.38540 0.85918
 H803 H 0.18999 0.43452 0.83106
 H804 H 0.23691 0.37404 0.86802
 H805 H 0.14727 0.34223 0.83541
 H806 H 0.14488 0.35692 0.86907
 N807 N 0.10283 0.88686 0.32660
 N808 N 0.08631 0.87558 0.34423
 C809 C 0.06050 0.87835 0.33576
 C810 C 0.06117 0.89195 0.31144
 C811 C 0.08827 0.89716 0.30633
 H812 H 0.04285 0.87006 0.34589
 H813 H 0.09682 0.90665 0.28854
 Cu814 Cu 0.10041 0.85667 0.37552
 Cu815 Cu 0.14190 0.88531 0.33054
 Cu816 Cu 0.16825 0.83842 0.36955
 N817 N 0.11663 0.82800 0.39662
 N818 N 0.14136 0.81899 0.39196
 C819 C 0.14387 0.79573 0.40447
 C820 C 0.11971 0.79031 0.41813
 C821 C 0.10314 0.81137 0.41306
 H822 H 0.16170 0.78355 0.40337
 H823 H 0.08190 0.81327 0.41860
 N824 N 0.19064 0.86735 0.35576
 N825 N 0.17991 0.88543 0.34016
 C826 C 0.19907 0.90270 0.33291
 C827 C 0.22324 0.89525 0.34461
 C828 C 0.21726 0.87269 0.35909
 H829 H 0.19555 0.91968 0.32034
 H830 H 0.23117 0.86106 0.37097
 H831 H 0.13034 0.84347 0.35065
 H832 H 0.14150 0.86666 0.37612
 O833 O 1.01026 0.90490 0.87453
 O834 O 1.01819 0.87461 0.84535
 C835 C 1.00755 0.89606 0.85122
 C836 C 0.99117 0.91035 0.83092
 C837 C 0.98824 0.90053 0.80521
 H838 H 0.99883 0.88304 0.79998
 O839 O 1.07133 1.08915 0.88158
 O840 O 1.08295 1.11734 0.84948
 C841 C 1.08719 1.09635 0.86248
 C842 C 1.11073 1.08011 0.85528
 C843 C 1.12388 1.08360 0.83027
 H844 H 1.11652 1.09823 0.81620
 O845 O 0.89900 0.97997 0.87345
 O846 O 0.87865 0.98072 0.83424
 C847 C 0.88035 0.97214 0.85832
 C848 C 0.86070 0.95257 0.86870
 C849 C 0.83751 0.94668 0.85400
 H850 H 0.83402 0.95708 0.83527
 O851 O 1.16019 1.01680 0.95080
 O852 O 1.19948 1.01397 0.92917
 C853 C 1.18462 1.02405 0.94710
 C854 C 1.19568 1.04496 0.96316
 C855 C 1.22314 1.05174 0.96059
 H856 H 1.23660 1.04090 0.94770
 O857 O 0.90581 0.87629 0.95482
 O858 O 0.87368 0.84821 0.94668
 C859 C 0.89816 0.85582 0.94391
 C860 C 0.91781 0.84140 0.92712
 C861 C 0.90935 0.82008 0.91260
 H862 H 0.88851 0.81342 0.91433
 O863 O 1.11075 1.12458 1.00095
 O864 O 1.14263 1.15302 1.00877
 C865 C 1.12380 1.14478 0.99406
 C866 C 1.11741 1.15832 0.96833
 C867 C 1.13126 1.18087 0.96033
 H868 H 1.14613 1.18896 0.97350
 O869 O 0.94891 1.02739 0.84715
 O870 O 0.92853 1.02825 0.80799
 C871 C 0.94690 1.03641 0.82325
 C872 C 0.96539 1.05732 0.81354
 C873 C 0.96194 1.06914 0.78797
 H874 H 0.94644 1.06221 0.77476
 O875 O 1.13180 0.96765 0.90778
 O876 O 1.17093 0.96546 0.88564
 C877 C 1.14641 0.95836 0.88919
 C878 C 1.13464 0.93956 0.87111
 C879 C 1.14564 0.93680 0.84530
 H880 H 1.16329 0.94807 0.83937
 O881 O 1.04831 0.86703 0.92524
 O882 O 1.05705 0.83715 0.89588
 C883 C 1.05960 0.84591 0.91923
 C884 C 1.07660 0.83208 0.93947
 C885 C 1.09061 0.80926 0.93324
 H886 H 1.08828 0.80099 0.91371
 O887 O 1.01187 1.12873 0.89860
 O888 O 1.02384 1.15720 0.86693
 C889 C 1.00731 1.14943 0.88523
 C890 C 0.98189 1.16397 0.89005
 C891 C 0.97588 1.18597 0.87420
 H892 H 0.99086 1.19311 0.85975
 O893 O 0.88374 1.10072 0.93511
 O894 O 0.85463 1.13157 0.92433
 C895 C 0.86545 1.10987 0.91975
 C896 C 0.85735 1.09522 0.89607
 C897 C 0.83409 1.10204 0.88125
 H898 H 0.82134 1.11787 0.88752
 O899 O 1.13149 0.89967 1.02218
 O900 O 1.16064 0.86882 1.03288
 C901 C 1.15504 0.88963 1.02017
 C902 C 1.17590 0.90164 1.00214
 C903 C 1.20122 0.88952 0.99849
 H904 H 1.20560 0.87192 1.00975
 O905 O 1.02094 1.09200 0.86597
 O906 O 1.03272 1.12059 0.83434
 C907 C 1.01934 1.10075 0.84193
 C908 C 1.00093 1.08852 0.82279
 C909 C 0.99738 1.09976 0.79709
 H910 H 1.00886 1.11679 0.79130
 O911 O 1.06063 0.90253 0.88926
 O912 O 1.06861 0.87302 0.85922
 C913 C 1.07519 0.89370 0.87037
 C914 C 1.09991 0.90791 0.86154
 C915 C 1.11102 0.90547 0.83550
 H916 H 1.10145 0.89284 0.82156
 O917 O 1.15754 0.96646 0.95274
 O918 O 1.19670 0.96356 0.93088
 C919 C 1.18066 0.95588 0.94966
 C920 C 1.18847 0.93384 0.96751
 C921 C 1.21358 0.92127 0.96393
 H922 H 1.22784 0.92841 0.94871
 O923 O 0.90230 1.03001 0.87182
 O924 O 0.88172 1.03056 0.83273
 C925 C 0.88450 1.03938 0.85605
 C926 C 0.86706 1.06091 0.86483
 C927 C 0.84405 1.06821 0.85009
 H928 H 0.83881 1.05746 0.83264
 O929 O 0.92120 1.13461 0.94292
 O930 O 0.89261 1.16573 0.93166
 C931 C 0.91595 1.15530 0.92976
 C932 C 0.93702 1.16677 0.91150
 C933 C 0.93134 1.18876 0.89538
 H934 H 0.91162 1.19799 0.89700
 O935 O 1.09395 0.86631 1.01326
 O936 O 1.12325 0.83556 1.02385
 C937 C 1.10536 0.84505 1.00817
 C938 C 1.09869 0.83180 0.98319
 C939 C 1.11227 0.80906 0.97670
 H940 H 1.12610 0.80035 0.99106
 O941 O 1.13570 1.01748 0.90500
 O942 O 1.17493 1.01491 0.88314
 C943 C 1.15144 1.02485 0.88583
 C944 C 1.14219 1.04517 0.86657
 C945 C 1.15515 1.04886 0.84140
 H946 H 1.17218 1.03668 0.83622
 O947 O 0.94608 0.97690 0.84998
 O948 O 0.92585 0.97755 0.81073
 C949 C 0.94307 0.96771 0.82689
 C950 C 0.95921 0.94491 0.81910
 C951 C 0.95579 0.93414 0.79382
 H952 H 0.94163 0.94272 0.77963
 O953 O 1.06251 1.12665 0.91404
 O954 O 1.07447 1.15495 0.88222
 C955 C 1.07573 1.14658 0.90638
 C956 C 1.09350 1.15952 0.92558
 C957 C 1.10712 1.18246 0.91817
 H958 H 1.10373 1.19156 0.89865
 O959 O 0.99717 0.87045 0.91088
 O960 O 1.00540 0.84016 0.88182
 C961 C 0.99000 0.85013 0.89946
 C962 C 0.96289 0.83869 0.90567
 C963 C 0.95397 0.81756 0.89144
 H964 H 0.96769 0.80860 0.87728
 O965 O 1.14495 1.08836 1.01304
 O966 O 1.17722 1.11649 1.02058
 C967 C 1.16940 1.09592 1.00995
 C968 C 1.18848 1.08068 0.99336
 C969 C 1.21608 1.08760 0.98997
 H970 H 1.22409 1.10417 0.99986
 O971 O 0.87265 0.91359 0.94283
 O972 O 0.84011 0.88579 0.93509
 C973 C 0.85353 0.90583 0.92823
 C974 C 0.84739 0.92015 0.90284
 C975 C 0.82415 0.91454 0.88790
 H976 H 0.81015 0.89983 0.89530
 Cu977 Cu 1.02842 0.88911 0.90307
 Cu978 Cu 1.03817 0.85302 0.86783
 Cu979 Cu 1.04062 1.10632 0.89336
 Cu980 Cu 1.05482 1.14041 0.85512
 Cu981 Cu 0.92622 1.00350 0.86446
 Cu982 Cu 0.90181 1.00436 0.81740
 Cu983 Cu 1.14243 0.99238 0.93137
 Cu984 Cu 1.18958 0.98920 0.90522
 C985 C 0.97691 0.93280 0.83757
 H986 H 0.97893 0.94039 0.85745
 C987 C 0.97041 0.91212 0.78673
 C988 C 1.11986 1.06074 0.87320
 H989 H 1.10981 1.05804 0.89258
 C990 C 1.14579 1.06781 0.82289
 C991 C 0.86527 0.93943 0.89321
 H992 H 0.88318 0.94390 0.90458
 C993 C 0.81881 0.92797 0.86358
 C994 C 1.17860 1.05925 0.97991
 H995 H 1.15733 1.05408 0.98188
 C996 C 1.23343 1.07289 0.97383
 C997 C 0.94471 0.85040 0.92363
 H998 H 0.95121 0.86719 0.93414
 C999 C 0.92716 0.80852 0.89429
 C1000 C 1.09845 1.14787 0.95088
 H1001 H 1.08820 1.13009 0.95662
 C1002 C 1.12623 1.19301 0.93532
 C1003 C 0.98516 1.06703 0.83068
 H1004 H 0.98761 1.05845 0.85059
 C1005 C 0.97794 1.09031 0.77956
 C1006 C 1.11170 0.92523 0.87903
 H1007 H 1.10313 0.92744 0.89900
 C1008 C 1.13351 0.92048 0.82696
 C1009 C 1.08064 0.84299 0.96460
 H1010 H 1.07044 0.86080 0.96937
 C1011 C 1.10882 0.79789 0.95165
 C1012 C 0.96244 1.15464 0.90878
 H1013 H 0.96681 1.13738 0.92069
 C1014 C 0.95055 1.19831 0.87643
 C1015 C 0.87348 1.07444 0.88783
 H1016 H 0.89146 1.06907 0.89905
 C1017 C 0.82733 1.08862 0.85819
 C1018 C 1.16986 0.92397 0.98683
 H1019 H 1.15021 0.93316 0.98930
 C1020 C 1.22010 0.89905 0.97929
 O1021 O 0.98090 0.90856 1.14034
 O1022 O 0.96839 0.88086 1.17258
 C1023 C 0.98155 0.90080 1.16476
 C1024 C 0.99831 0.91473 1.18406
 C1025 C 0.99894 0.90664 1.21123
 H1026 H 0.98656 0.89054 1.21823
 O1027 O 0.94082 1.09954 1.11698
 O1028 O 0.93289 1.12906 1.14706
 C1029 C 0.92642 1.10831 1.13601
 C1030 C 0.90226 1.09373 1.14548
 C1031 C 0.89320 1.09459 1.17236
 H1032 H 0.90372 1.10664 1.18622
 O1033 O 0.84412 1.03694 1.05418
 O1034 O 0.80547 1.03934 1.07700
 C1035 C 0.82113 1.04750 1.05815
 C1036 C 0.81306 1.07014 1.04135
 C1037 C 0.78893 1.08359 1.04707
 H1038 H 0.77546 1.07664 1.06309
 O1039 O 1.09756 0.97331 1.13514
 O1040 O 1.11803 0.97244 1.17430
 C1041 C 1.11525 0.96374 1.15094
 C1042 C 1.13254 0.94213 1.14213
 C1043 C 1.15586 0.93496 1.15651
 H1044 H 1.16143 0.94586 1.17375
 O1045 O 1.07868 0.86670 1.06371
 O1046 O 1.10834 0.83631 1.07440
 C1047 C 1.08468 0.84595 1.07647
 C1048 C 1.06463 0.83368 1.09523
 C1049 C 1.07301 0.81393 1.11297
 H1050 H 1.09354 0.80635 1.11141
 O1051 O 0.90600 1.13653 0.99332
 O1052 O 0.87755 1.16792 0.98256
 C1053 C 0.89513 1.15807 0.99835
 C1054 C 0.90194 1.17098 1.02357
 C1055 C 0.88774 1.19315 1.03122
 H1056 H 0.87321 1.20177 1.01754
 O1057 O 0.86739 0.98482 1.09993
 O1058 O 0.82835 0.98677 1.12225
 C1059 C 0.85192 0.97712 1.11913
 C1060 C 0.86154 0.95715 1.13846
 C1061 C 0.84999 0.95547 1.16435
 H1062 H 0.83393 0.96871 1.16965
 O1063 O 1.05400 1.02627 1.15766
 O1064 O 1.07426 1.02548 1.19689
 C1065 C 1.05686 1.03521 1.18091
 C1066 C 1.04024 1.05758 1.18893
 C1067 C 1.04219 1.06759 1.21479
 H1068 H 1.05548 1.05850 1.22947
 O1069 O 0.94038 0.87370 1.09186
 O1070 O 0.92761 0.84589 1.12383
 C1071 C 0.92648 0.85426 1.09959
 C1072 C 0.90791 0.84214 1.08043
 C1073 C 0.89301 0.81996 1.08800
 H1074 H 0.89610 0.81068 1.10750
 O1075 O 1.00431 1.13161 1.09568
 O1076 O 0.99596 1.16198 1.12465
 C1077 C 1.01143 1.15195 1.10712
 C1078 C 1.03853 1.16335 1.10100
 C1079 C 1.04772 1.18407 1.11573
 H1080 H 1.03434 1.19263 1.13047
 O1081 O 0.85666 0.91474 0.99285
 O1082 O 0.82422 0.88678 0.98535
 C1083 C 0.83215 0.90738 0.99585
 C1084 C 0.81306 0.92292 1.01210
 C1085 C 0.78524 0.91661 1.01459
 H1086 H 0.77715 0.90033 1.00427
 O1087 O 1.12829 1.08894 1.06292
 O1088 O 1.16082 1.11669 1.07088
 C1089 C 1.14731 1.09664 1.07763
 C1090 C 1.15322 1.08224 1.10300
 C1091 C 1.17706 1.08687 1.11736
 H1092 H 1.19167 1.10080 1.10946
 O1093 O 0.99077 1.09767 1.13248
 O1094 O 0.98271 1.12819 1.16140
 C1095 C 0.99315 1.10662 1.15580
 C1096 C 1.00875 1.09220 1.17650
 C1097 C 1.01037 1.10150 1.20255
 H1098 H 0.99943 1.11885 1.20753
 O1099 O 0.93122 0.91103 1.12414
 O1100 O 0.91872 0.88357 1.15662
 C1101 C 0.91506 0.90449 1.14325
 C1102 C 0.89213 0.92166 1.15024
 C1103 C 0.88025 0.92018 1.17605
 H1104 H 0.88782 0.90617 1.19069
 O1105 O 1.10052 1.02343 1.13284
 O1106 O 1.12100 1.02238 1.17199
 C1107 C 1.11931 1.03106 1.14793
 C1108 C 1.13929 1.05027 1.13740
 C1109 C 1.16309 1.05524 1.15157
 H1110 H 1.16662 1.04463 1.17018
 O1111 O 0.84127 0.98658 1.05508
 O1112 O 0.80216 0.98888 1.07711
 C1113 C 0.81688 0.97923 1.05880
 C1114 C 0.80577 0.95866 1.04228
 C1115 C 0.77809 0.95249 1.04393
 H1116 H 0.76450 0.96358 1.05647
 O1117 O 1.09534 1.12633 1.05100
 O1118 O 1.12739 1.15443 1.05937
 C1119 C 1.10292 1.14677 1.06201
 C1120 C 1.08328 1.16103 1.07891
 C1121 C 1.09185 1.18218 1.09354
 H1122 H 1.11261 1.18901 1.09154
 O1123 O 0.89057 0.87822 1.00506
 O1124 O 0.85844 0.84998 0.99738
 C1125 C 0.87734 0.85815 1.01207
 C1126 C 0.88349 0.84455 1.03786
 C1127 C 0.86852 0.82273 1.04607
 H1128 H 0.85315 0.81529 1.03303
 O1129 O 1.05036 0.97605 1.15868
 O1130 O 1.07060 0.97518 1.19793
 C1131 C 1.05210 0.96723 1.18266
 C1132 C 1.03293 0.94705 1.19270
 C1133 C 1.03364 0.93829 1.21962
 H1134 H 1.04768 0.94688 1.23331
 O1135 O 0.86981 1.03471 1.09923
 O1136 O 0.83111 1.03605 1.12222
 C1137 C 0.85553 1.04334 1.11845
 C1138 C 0.86772 1.06169 1.13679
 C1139 C 0.85877 1.06272 1.16360
 H1140 H 0.84210 1.05051 1.17034
 O1141 O 0.95324 1.13478 1.08080
 O1142 O 0.94443 1.16465 1.11018
 C1143 C 0.94190 1.15586 1.08685
 C1144 C 0.92469 1.16976 1.06696
 C1145 C 0.91024 1.19191 1.07422
 H1146 H 0.91271 1.19950 1.09406
 O1147 O 0.99043 0.87009 1.10985
 O1148 O 0.97825 0.84227 1.14201
 C1149 C 0.99509 0.84973 1.12385
 C1150 C 1.02103 0.83560 1.11940
 C1151 C 1.03035 0.81642 1.13787
 H1152 H 1.01812 0.81096 1.15537
 O1153 O 1.11500 0.90186 1.07213
 O1154 O 1.14477 0.87148 1.08262
 C1155 C 1.13349 0.89293 1.08738
 C1156 C 1.14165 0.90761 1.11101
 C1157 C 1.16514 0.90088 1.12549
 H1158 H 1.17778 0.88504 1.11907
 O1159 O 0.86817 1.10354 0.98518
 O1160 O 0.83956 1.13489 0.97466
 C1161 C 0.84496 1.11412 0.98762
 C1162 C 0.82461 1.10267 1.00665
 C1163 C 0.80027 1.11575 1.01251
 H1164 H 0.79599 1.13388 1.00218
 Cu1165 Cu 0.96203 0.89337 1.11316
 Cu1166 Cu 0.94688 0.86014 1.15178
 Cu1167 Cu 0.97305 1.11300 1.10339
 Cu1168 Cu 0.96308 1.14931 1.13844
 Cu1169 Cu 0.88461 0.89851 0.97462
 Cu1170 Cu 0.84594 0.86478 0.96538
 Cu1171 Cu 1.10178 0.88671 1.04184
 Cu1172 Cu 1.13706 0.84990 1.05456
 Cu1173 Cu 0.89767 1.11576 0.96511
 Cu1174 Cu 0.86333 1.15323 0.95210
 Cu1175 Cu 1.11668 1.10422 1.03121
 Cu1176 Cu 1.15521 1.13805 1.04071
 Cu1177 Cu 0.85948 1.01059 1.07470
 Cu1178 Cu 0.81268 1.01289 1.10166
 Cu1179 Cu 1.07352 0.99990 1.14218
 Cu1180 Cu 1.09793 0.99875 1.18925
 C1181 C 1.01504 0.93526 1.17509
 H1182 H 1.01482 0.94148 1.15414
 C1183 C 1.01670 0.91822 1.22904
 C1184 C 0.88953 1.07711 1.12796
 H1185 H 0.89661 1.07620 1.10730
 C1186 C 0.87195 1.07851 1.18184
 C1187 C 0.83058 1.07968 1.02090
 H1188 H 0.84943 1.06963 1.01672
 C1189 C 0.78235 1.10635 1.03276
 C1190 C 1.12565 0.92840 1.11938
 H1191 H 1.10745 0.93363 1.10845
 C1192 C 1.17238 0.91444 1.14830
 C1193 C 1.03837 0.84386 1.09810
 H1194 H 1.03196 0.85926 1.08446
 C1195 C 1.05648 0.80568 1.13466
 C1196 C 0.92063 1.15963 1.04149
 H1197 H 0.93132 1.14228 1.03599
 C1198 C 0.89146 1.20355 1.05670
 C1199 C 0.88286 0.94044 1.13163
 H1200 H 0.89201 0.94186 1.11172
 C1201 C 0.85965 0.93748 1.18352
 C1202 C 1.02333 1.06998 1.17001
 H1203 H 1.02221 1.06284 1.14985
 C1204 C 1.02709 1.08944 1.22176
 C1205 C 0.90324 0.85406 1.05512
 H1206 H 0.91435 0.87132 1.04920
 C1207 C 0.87309 0.81043 1.07103
 C1208 C 1.05641 1.15204 1.08247
 H1209 H 1.04973 1.13556 1.07155
 C1210 C 1.07433 1.19337 1.11233
 C1211 C 0.82302 0.94405 1.02598
 H1212 H 0.84446 0.94872 1.02472
 C1213 C 0.76774 0.93164 1.03020
 C1214 C 1.13463 1.06377 1.11309
 H1215 H 1.11615 1.06019 1.10222
 C1216 C 1.18234 1.07327 1.14160
 O1217 O 1.05470 0.52799 0.65253
 O1218 O 1.07564 0.52698 0.69139
 C1219 C 1.05868 0.53743 0.67538
 C1220 C 1.04397 0.56122 0.68291
 C1221 C 1.04727 0.57182 0.70838
 H1222 H 1.06019 0.56230 0.72309
 O1223 O 0.86828 0.49230 0.59889
 O1224 O 0.82930 0.49635 0.62089
 C1225 C 0.85212 0.48523 0.61786
 C1226 C 0.85989 0.46368 0.63634
 C1227 C 0.84516 0.45866 0.66037
 H1228 H 0.82835 0.47109 0.66556
 O1229 O 1.01028 0.63660 0.58952
 O1230 O 1.00333 0.66740 0.61830
 C1231 C 1.01846 0.65645 0.60113
 C1232 C 1.04660 0.66574 0.59618
 C1233 C 1.05753 0.68407 0.61295
 H1234 H 1.04470 0.69284 0.62802
 O1235 O 0.93536 0.37859 0.58835
 O1236 O 0.92262 0.35053 0.62012
 C1237 C 0.92139 0.35913 0.59603
 C1238 C 0.90286 0.34705 0.57692
 C1239 C 0.88956 0.32377 0.58359
 H1240 H 0.89363 0.31383 0.60254
 O1241 O 1.13150 0.58602 0.55646
 O1242 O 1.16626 0.61144 0.56385
 C1243 C 1.15159 0.59211 0.57063
 C1244 C 1.15744 0.57661 0.59538
 C1245 C 1.18277 0.57805 0.60799
 H1246 H 1.19845 0.59047 0.59935
 O1247 O 0.85290 0.42156 0.49084
 O1248 O 0.81854 0.39549 0.48419
 C1249 C 0.82802 0.41560 0.49446
 C1250 C 0.81044 0.43231 0.51116
 C1251 C 0.78254 0.42698 0.51578
 H1252 H 0.77325 0.41035 0.50713
 O1253 O 0.94609 0.60691 0.61195
 O1254 O 0.93949 0.63680 0.64192
 C1255 C 0.93235 0.61608 0.63121
 C1256 C 0.90827 0.60185 0.64133
 C1257 C 0.90019 0.60238 0.66854
 H1258 H 0.91109 0.61430 0.68224
 O1259 O 0.97806 0.41197 0.63628
 O1260 O 0.96532 0.38394 0.66809
 C1261 C 0.97906 0.40358 0.66046
 C1262 C 0.99700 0.41619 0.67977
 C1263 C 0.99986 0.40555 0.70579
 H1264 H 0.98814 0.38870 0.71175
 O1265 O 1.09505 0.47241 0.63065
 O1266 O 1.11603 0.47126 0.66955
 C1267 C 1.11254 0.46236 0.64636
 C1268 C 1.12897 0.44011 0.63765
 C1269 C 1.15152 0.43181 0.65260
 H1270 H 1.15697 0.44212 0.67027
 O1271 O 0.84858 0.54461 0.55153
 O1272 O 0.81000 0.54917 0.57403
 C1273 C 0.82585 0.55588 0.55473
 C1274 C 0.81791 0.57720 0.53602
 C1275 C 0.79224 0.58886 0.53835
 H1276 H 0.77793 0.58179 0.55358
 O1277 O 0.91178 0.64112 0.48772
 O1278 O 0.88375 0.67284 0.47679
 C1279 C 0.90135 0.66289 0.49248
 C1280 C 0.90880 0.67640 0.51704
 C1281 C 0.89642 0.69990 0.52267
 H1282 H 0.88324 0.70859 0.50780
 O1283 O 1.07469 0.36690 0.55845
 O1284 O 1.10298 0.33539 0.56925
 C1285 C 1.07973 0.34590 0.57121
 C1286 C 1.05852 0.33421 0.58912
 C1287 C 1.06329 0.31103 0.60363
 H1288 H 1.08242 0.30096 0.60093
 O1289 O 0.87471 0.54211 0.59658
 O1290 O 0.83608 0.54555 0.61940
 C1291 C 0.86083 0.55162 0.61555
 C1292 C 0.87377 0.56959 0.63359
 C1293 C 0.86611 0.56991 0.66074
 H1294 H 0.85019 0.55712 0.66821
 O1295 O 1.04890 0.47741 0.65537
 O1296 O 1.06976 0.47620 0.69428
 C1297 C 1.05096 0.46842 0.67927
 C1298 C 1.03215 0.44779 0.68916
 C1299 C 1.03510 0.43639 0.71498
 H1300 H 1.05036 0.44352 0.72833
 O1301 O 0.98584 0.37439 0.60401
 O1302 O 0.97313 0.34636 0.63582
 C1303 C 0.98971 0.35349 0.61730
 C1304 C 1.01432 0.33794 0.61168
 C1305 C 1.01940 0.31480 0.62607
 H1306 H 1.00428 0.30760 0.64035
 O1307 O 0.95893 0.64146 0.57517
 O1308 O 0.95120 0.67197 0.60406
 C1309 C 0.94811 0.66286 0.58093
 C1310 C 0.93107 0.67658 0.56060
 C1311 C 0.91776 0.69996 0.56623
 H1312 H 0.92055 0.70867 0.58547
 O1313 O 0.87345 0.60883 0.47914
 O1314 O 0.84520 0.64043 0.46841
 C1315 C 0.85030 0.61952 0.48126
 C1316 C 0.82955 0.60797 0.49965
 C1317 C 0.80363 0.61919 0.50207
 H1318 H 0.79848 0.63585 0.48958
 O1319 O 1.11160 0.40132 0.56665
 O1320 O 1.14020 0.36999 0.57728
 C1321 C 1.12959 0.39174 0.58207
 C1322 C 1.13777 0.40589 0.60606
 C1323 C 1.16061 0.39816 0.62105
 H1324 H 1.17288 0.38204 0.61468
 O1325 O 0.92822 0.41641 0.62042
 O1326 O 0.91546 0.38857 0.65243
 C1327 C 0.91205 0.40973 0.63944
 C1328 C 0.88907 0.42671 0.64660
 C1329 C 0.87415 0.42195 0.67040
 H1330 H 0.87973 0.40583 0.68350
 O1331 O 0.99609 0.60333 0.62628
 O1332 O 0.98945 0.63430 0.65501
 C1333 C 0.99918 0.61238 0.64946
 C1334 C 1.01467 0.59758 0.67006
 C1335 C 1.01761 0.60737 0.69576
 H1336 H 1.00801 0.62548 0.70053
 O1337 O 0.84414 0.49472 0.55299
 O1338 O 0.80526 0.49942 0.57497
 C1339 C 0.81932 0.48888 0.55672
 C1340 C 0.80660 0.46902 0.54052
 C1341 C 0.77881 0.46422 0.54370
 H1342 H 0.76670 0.47604 0.55689
 O1343 O 1.10087 0.52195 0.62748
 O1344 O 1.12213 0.52053 0.66622
 C1345 C 1.12063 0.52855 0.64192
 C1346 C 1.14209 0.54561 0.63023
 C1347 C 1.16751 0.54723 0.64251
 H1348 H 1.17115 0.53598 0.66073
 O1349 O 0.88523 0.38367 0.50255
 O1350 O 0.85143 0.35707 0.49538
 C1351 C 0.87121 0.36414 0.50960
 C1352 C 0.87786 0.34987 0.53482
 C1353 C 0.86454 0.32684 0.54195
 H1354 H 0.84987 0.31899 0.52842
 O1355 O 1.10083 0.62563 0.54638
 O1356 O 1.13491 0.65139 0.55518
 C1357 C 1.11003 0.64515 0.55799
 C1358 C 1.09167 0.66008 0.57558
 C1359 C 1.10212 0.67887 0.59239
 H1360 H 1.12363 0.68343 0.59180
 Cu1361 Cu 1.07255 0.50018 0.63776
 Cu1362 Cu 1.09772 0.49876 0.68440
 Cu1363 Cu 0.86290 0.51811 0.57281
 Cu1364 Cu 0.81617 0.52314 0.59942
 Cu1365 Cu 0.97837 0.61924 0.59754
 Cu1366 Cu 0.97002 0.65615 0.63229
 Cu1367 Cu 0.95817 0.39801 0.60894
 Cu1368 Cu 0.94278 0.36449 0.64726
 C1369 C 1.02757 0.57430 0.66393
 H1370 H 1.02543 0.56672 0.64406
 C1371 C 1.03384 0.59473 0.71498
 C1372 C 0.88193 0.44770 0.62976
 H1373 H 0.89324 0.45133 0.61121
 C1374 C 0.85229 0.43784 0.67762
 C1375 C 1.06379 0.65392 0.57741
 H1376 H 1.05567 0.63914 0.56494
 C1377 C 1.08519 0.69042 0.61146
 C1378 C 0.89704 0.35977 0.55238
 H1379 H 0.90687 0.37791 0.54729
 C1380 C 0.87016 0.31377 0.56634
 C1381 C 1.13739 0.56007 0.60649
 H1382 H 1.11781 0.55883 0.59692
 C1383 C 1.18823 0.56291 0.63121
 C1384 C 0.82219 0.45340 0.52376
 H1385 H 0.84376 0.45716 0.52134
 C1386 C 0.76666 0.44325 0.53179
 C1387 C 0.89498 0.58536 0.62409
 H1388 H 0.90124 0.58469 0.60317
 C1389 C 0.87970 0.58572 0.67851
 C1390 C 1.01289 0.43757 0.67177
 H1391 H 1.01100 0.44564 0.65158
 C1392 C 1.01902 0.41526 0.72342
 C1393 C 1.12225 0.42704 0.61442
 H1394 H 1.10460 0.43311 0.60305
 C1395 C 1.16756 0.41098 0.64441
 C1396 C 0.83635 0.58676 0.51645
 H1397 H 0.85641 0.57820 0.51490
 C1398 C 0.78495 0.60983 0.52151
 C1399 C 0.92639 0.66504 0.53589
 H1400 H 0.93577 0.64671 0.53164
 C1401 C 0.90008 0.71162 0.54738
 C1402 C 1.03385 0.34726 0.59307
 H1403 H 1.03020 0.36529 0.58224
 C1404 C 1.04393 0.30124 0.62232
 O1405 O 1.12570 0.46549 0.40121
 O1406 O 1.16387 0.46174 0.37773
 C1407 C 1.13907 0.45583 0.38201
 C1408 C 1.12542 0.43817 0.36399
 C1409 C 1.13293 0.43792 0.33679
 H1410 H 1.14920 0.45035 0.32937
 O1411 O 0.95174 0.52934 0.34391
 O1412 O 0.93095 0.53114 0.30496
 C1413 C 0.94987 0.53850 0.32008
 C1414 C 0.96902 0.55877 0.31022
 C1415 C 0.96638 0.56955 0.28418
 H1416 H 0.95123 0.56211 0.27088
 O1417 O 1.01687 0.63223 0.39426
 O1418 O 1.02935 0.66029 0.36236
 C1419 C 1.01298 0.65315 0.38102
 C1420 C 0.98866 0.66884 0.38682
 C1421 C 0.98487 0.69288 0.37390
 H1422 H 1.00063 0.70058 0.36059
 O1423 O 1.03982 0.36598 0.42051
 O1424 O 1.04777 0.33552 0.39162
 C1425 C 1.05102 0.34476 0.41469
 C1426 C 1.06899 0.33149 0.43458
 C1427 C 1.08399 0.30945 0.42762
 H1428 H 1.08143 0.30119 0.40811
 O1429 O 1.12797 0.39836 0.51668
 O1430 O 1.15627 0.36679 0.52734
 C1431 C 1.15115 0.38766 0.51446
 C1432 C 1.17187 0.39889 0.49570
 C1433 C 1.19673 0.38610 0.49148
 H1434 H 1.20127 0.36872 0.50309
 O1435 O 0.88881 0.60647 0.42910
 O1436 O 0.86045 0.63794 0.41825
 C1437 C 0.87078 0.61606 0.41371
 C1438 C 0.86222 0.60159 0.39017
 C1439 C 0.83917 0.60900 0.37531
 H1440 H 0.82701 0.62531 0.38135
 O1441 O 1.07403 0.59036 0.37682
 O1442 O 1.08657 0.61835 0.34484
 C1443 C 1.08977 0.59700 0.35747
 C1444 C 1.11151 0.57936 0.34912
 C1445 C 1.12239 0.58131 0.32304
 H1446 H 1.11506 0.59630 0.30936
 O1447 O 1.00186 0.40206 0.36834
 O1448 O 1.00861 0.37123 0.33952
 C1449 C 0.99867 0.39301 0.34510
 C1450 C 0.98314 0.40824 0.32474
 C1451 C 0.98033 0.40008 0.29806
 H1452 H 0.98975 0.38235 0.29176
 O1453 O 1.15769 0.51351 0.44304
 O1454 O 1.19627 0.50914 0.42049
 C1455 C 1.18227 0.51991 0.43870
 C1456 C 1.19439 0.54066 0.45436
 C1457 C 1.22207 0.54660 0.45140
 H1458 H 1.23496 0.53522 0.43848
 O1459 O 0.89938 0.48468 0.37063
 O1460 O 0.87863 0.48627 0.33162
 C1461 C 0.88000 0.47793 0.35582
 C1462 C 0.85900 0.46001 0.36682
 C1463 C 0.83477 0.45620 0.35294
 H1464 H 0.83141 0.46671 0.33419
 O1465 O 1.11468 0.62421 0.49601
 O1466 O 1.14753 0.65164 0.50409
 C1467 C 1.12792 0.64446 0.48973
 C1468 C 1.12004 0.65947 0.46542
 C1469 C 1.12312 0.68630 0.46373
 H1470 H 1.13168 0.69636 0.48036
 O1471 O 0.89867 0.38016 0.45225
 O1472 O 0.86458 0.35413 0.44435
 C1473 C 0.88952 0.36018 0.44142
 C1474 C 0.90810 0.34469 0.42447
 C1475 C 0.89831 0.32412 0.40956
 H1476 H 0.87717 0.31839 0.41133
 O1477 O 0.94539 0.47890 0.34546
 O1478 O 0.92485 0.48090 0.30638
 C1479 C 0.94160 0.47008 0.32228
 C1480 C 0.95602 0.44656 0.31386
 C1481 C 0.95377 0.43838 0.28750
 H1482 H 0.94222 0.44988 0.27312
 O1483 O 1.13341 0.51483 0.39713
 O1484 O 1.17195 0.51054 0.37439
 C1485 C 1.14905 0.52143 0.37755
 C1486 C 1.14033 0.54211 0.35852
 C1487 C 1.15110 0.54417 0.33219
 H1488 H 1.16603 0.53025 0.32575
 O1489 O 0.98826 0.37053 0.40751
 O1490 O 0.99531 0.33983 0.37864
 C1491 C 0.98037 0.35036 0.39633
 C1492 C 0.95286 0.34000 0.40271
 C1493 C 0.94258 0.31988 0.38789
 H1494 H 0.95554 0.31069 0.37322
 O1495 O 1.06728 0.62762 0.40978
 O1496 O 1.07946 0.65616 0.37820
 C1497 C 1.08062 0.64752 0.40230
 C1498 C 1.09710 0.66080 0.42221
 C1499 C 1.10075 0.68756 0.42048
 H1500 H 1.09202 0.69863 0.40392
 O1501 O 0.86918 0.42024 0.44090
 O1502 O 0.83454 0.39465 0.43363
 C1503 C 0.84936 0.41377 0.42658
 C1504 C 0.84399 0.42853 0.40131
 C1505 C 0.82002 0.42470 0.38696
 H1506 H 0.80497 0.41112 0.39470
 O1507 O 1.14651 0.58568 0.50595
 O1508 O 1.18029 0.61241 0.51266
 C1509 C 1.17110 0.59239 0.50196
 C1510 C 1.18892 0.57674 0.48450
 C1511 C 1.21658 0.58292 0.48046
 H1512 H 1.22532 0.59925 0.49018
 O1513 O 1.05166 0.40157 0.38485
 O1514 O 1.05854 0.37189 0.35472
 C1515 C 1.06560 0.39258 0.36567
 C1516 C 1.08986 0.40685 0.35589
 C1517 C 1.09795 0.40640 0.32872
 H1518 H 1.08679 0.39481 0.31491
 O1519 O 1.02389 0.59452 0.36228
 O1520 O 1.03636 0.62256 0.33036
 C1521 C 1.02260 0.60296 0.33813
 C1522 C 1.00438 0.59033 0.31907
 C1523 C 1.00155 0.60060 0.29284
 H1524 H 1.01335 0.61729 0.28651
 O1525 O 0.90452 0.53441 0.36700
 O1526 O 0.88380 0.53559 0.32795
 C1527 C 0.88708 0.54441 0.35114
 C1528 C 0.87056 0.56661 0.35956
 C1529 C 0.84778 0.57444 0.34473
 H1530 H 0.84204 0.56364 0.32747
 O1531 O 1.15358 0.46324 0.44503
 O1532 O 1.19189 0.45863 0.42214
 C1533 C 1.17615 0.45177 0.44146
 C1534 C 1.18378 0.42981 0.45951
 C1535 C 1.20825 0.41641 0.45523
 H1536 H 1.22201 0.42266 0.43916
 O1537 O 1.08904 0.36652 0.50773
 O1538 O 1.11739 0.33498 0.51832
 C1539 C 1.09979 0.34497 0.50260
 C1540 C 1.09284 0.33192 0.47751
 C1541 C 1.10763 0.31015 0.46999
 H1542 H 1.12286 0.30215 0.48337
 O1543 O 0.92676 0.63975 0.43770
 O1544 O 0.89884 0.67148 0.42656
 C1545 C 0.92210 0.66087 0.42511
 C1546 C 0.94399 0.67267 0.40828
 C1547 C 0.94056 0.69686 0.39543
 H1548 H 0.92183 0.70752 0.39838
 Cu1549 Cu 1.13883 0.48971 0.42396
 Cu1550 Cu 1.18503 0.48440 0.39668
 Cu1551 Cu 0.92748 0.50666 0.36060
 Cu1552 Cu 0.90273 0.50854 0.31369
 Cu1553 Cu 1.12006 0.60275 0.52545
 Cu1554 Cu 1.16075 0.63432 0.53469
 Cu1555 Cu 1.09797 0.38643 0.53644
 Cu1556 Cu 1.13196 0.34859 0.54917
 Cu1557 Cu 0.90303 0.62082 0.45931
 Cu1558 Cu 0.86925 0.65890 0.44634
 Cu1559 Cu 0.87982 0.40402 0.47234
 Cu1560 Cu 0.83881 0.37270 0.46368
 Cu1561 Cu 1.04437 0.60847 0.38915
 Cu1562 Cu 1.05940 0.64218 0.35077
 Cu1563 Cu 1.01965 0.38792 0.39822
 Cu1564 Cu 1.02848 0.35118 0.36367
 C1565 C 1.10362 0.42291 0.37334
 H1566 H 1.09735 0.42354 0.39427
 C1567 C 1.11884 0.42263 0.31890
 C1568 C 0.98827 0.56916 0.32748
 H1569 H 0.98999 0.56139 0.34781
 C1570 C 0.98240 0.59051 0.27540
 C1571 C 0.96825 0.65901 0.40410
 H1572 H 0.97092 0.64021 0.41370
 C1573 C 0.96084 0.70697 0.37803
 C1574 C 1.07342 0.34239 0.45974
 H1575 H 1.06242 0.35960 0.46513
 C1576 C 1.10377 0.29912 0.44499
 C1577 C 1.16580 0.42099 0.47993
 H1578 H 1.14656 0.43078 0.48287
 C1579 C 1.21486 0.39458 0.47108
 C1580 C 0.87757 0.58022 0.38226
 H1581 H 0.89540 0.57442 0.39351
 C1582 C 0.83186 0.59550 0.35250
 C1583 C 1.12039 0.55965 0.36666
 H1584 H 1.11190 0.55812 0.38684
 C1585 C 1.14179 0.56359 0.31412
 C1586 C 0.97092 0.43152 0.33227
 H1587 H 0.97258 0.43779 0.35272
 C1588 C 0.96594 0.41542 0.27928
 C1589 C 1.17805 0.55561 0.47127
 H1590 H 1.15662 0.55112 0.47365
 C1591 C 1.23322 0.56765 0.46426
 C1592 C 0.86325 0.44637 0.39116
 H1593 H 0.88194 0.44924 0.40194
 C1594 C 0.81507 0.43876 0.36300
 C1595 C 1.10693 0.64696 0.44465
 H1596 H 1.10395 0.62631 0.44616
 C1597 C 1.11313 0.70041 0.44148
 C1598 C 0.93554 0.35215 0.42114
 H1599 H 0.94314 0.36826 0.43207
 C1600 C 0.91539 0.31209 0.39088
 O1601 O 0.50917 0.89877 0.37087
 O1602 O 0.51660 0.86668 0.34370
 C1603 C 0.50619 0.88854 0.34823
 C1604 C 0.48974 0.90179 0.32729
 C1605 C 0.48654 0.89086 0.30213
 H1606 H 0.49695 0.87307 0.29768
 O1607 O 0.57171 1.08316 0.37086
 O1608 O 0.58261 1.11172 0.33890
 C1609 C 0.58756 1.09089 0.35193
 C1610 C 0.61273 1.07632 0.34579
 C1611 C 0.63140 1.08622 0.32667
 H1612 H 0.62664 1.10372 0.31526
 O1613 O 0.39885 0.97372 0.36801
 O1614 O 0.37793 0.97375 0.32910
 C1615 C 0.37959 0.96610 0.35348
 C1616 C 0.35897 0.94819 0.36519
 C1617 C 0.33473 0.94334 0.35169
 H1618 H 0.33144 0.95288 0.33243
 O1619 O 0.66043 1.01197 0.44083
 O1620 O 0.70004 1.00778 0.42004
 C1621 C 0.68522 1.01827 0.43776
 C1622 C 0.69664 1.03845 0.45454
 C1623 C 0.72448 1.04404 0.45354
 H1624 H 0.73804 1.03287 0.44107
 O1625 O 0.40349 0.87687 0.45377
 O1626 O 0.37109 0.84884 0.44629
 C1627 C 0.39559 0.85631 0.44317
 C1628 C 0.41488 0.84148 0.42633
 C1629 C 0.40543 0.82110 0.41098
 H1630 H 0.38419 0.81558 0.41205
 O1631 O 0.61178 1.11733 0.49062
 O1632 O 0.64381 1.14577 0.49801
 C1633 C 0.62512 1.13727 0.48329
 C1634 C 0.61920 1.15038 0.45717
 C1635 C 0.63449 1.17181 0.44833
 H1636 H 0.65020 1.17923 0.46100
 O1637 O 0.44957 1.01931 0.34007
 O1638 O 0.42877 1.01948 0.30114
 C1639 C 0.44753 1.02763 0.31594
 C1640 C 0.46665 1.04759 0.30536
 C1641 C 0.46523 1.05662 0.27854
 H1642 H 0.45067 1.04834 0.26517
 O1643 O 0.63079 0.96326 0.39848
 O1644 O 0.66977 0.95998 0.37632
 C1645 C 0.64515 0.95323 0.38020
 C1646 C 0.63303 0.93348 0.36343
 C1647 C 0.64391 0.92865 0.33797
 H1648 H 0.66102 0.94004 0.33081
 O1649 O 0.54706 0.86407 0.42400
 O1650 O 0.55491 0.83217 0.39680
 C1651 C 0.55775 0.84231 0.41946
 C1652 C 0.57412 0.82912 0.44064
 C1653 C 0.58505 0.80436 0.43695
 H1654 H 0.58089 0.79441 0.41867
 O1655 O 0.51173 1.12238 0.38831
 O1656 O 0.52294 1.15084 0.35638
 C1657 C 0.50678 1.14307 0.37498
 C1658 C 0.48152 1.15777 0.38050
 C1659 C 0.47595 1.18086 0.36614
 H1660 H 0.49088 1.18854 0.35191
 O1661 O 0.38354 1.09440 0.42804
 O1662 O 0.35414 1.12467 0.41615
 C1663 C 0.36504 1.10283 0.41253
 C1664 C 0.35654 1.08699 0.39000
 C1665 C 0.33063 1.08988 0.37861
 H1666 H 0.31651 1.10388 0.38655
 O1667 O 0.63193 0.90019 0.51900
 O1668 O 0.66057 0.86916 0.53047
 C1669 C 0.65514 0.88955 0.51686
 C1670 C 0.67558 0.90038 0.49754
 C1671 C 0.70123 0.88863 0.49475
 H1672 H 0.70631 0.87225 0.50763
 O1673 O 0.52108 1.08478 0.35646
 O1674 O 0.53209 1.11318 0.32438
 C1675 C 0.51940 1.09301 0.33228
 C1676 C 0.50193 1.07940 0.31337
 C1677 C 0.50056 1.08780 0.28638
 H1678 H 0.51296 1.10385 0.27932
 O1679 O 0.55945 0.89746 0.38563
 O1680 O 0.56679 0.86601 0.35768
 C1681 C 0.57364 0.88740 0.36719
 C1682 C 0.59822 0.90103 0.35690
 C1683 C 0.60924 0.89646 0.33120
 H1684 H 0.59976 0.88252 0.31861
 O1685 O 0.65624 0.96220 0.44365
 O1686 O 0.69531 0.95788 0.42192
 C1687 C 0.67919 0.95118 0.44103
 C1688 C 0.68704 0.93011 0.46013
 C1689 C 0.71245 0.91799 0.45758
 H1690 H 0.72654 0.92452 0.44192
 O1691 O 0.40343 1.02326 0.36530
 O1692 O 0.38210 1.02308 0.32660
 C1693 C 0.38518 1.03215 0.34978
 C1694 C 0.36686 1.05269 0.35910
 C1695 C 0.34108 1.05590 0.34781
 H1696 H 0.33542 1.04368 0.33166
 O1697 O 0.42116 1.12866 0.43449
 O1698 O 0.39235 1.15915 0.42193
 C1699 C 0.41585 1.14898 0.42073
 C1700 C 0.43704 1.16058 0.40277
 C1701 C 0.43198 1.18375 0.38846
 H1702 H 0.41272 1.19359 0.39119
 O1703 O 0.59414 0.86686 0.51190
 O1704 O 0.62260 0.83573 0.52356
 C1705 C 0.60473 0.84502 0.50777
 C1706 C 0.59676 0.83056 0.48396
 C1707 C 0.60724 0.80586 0.48003
 H1708 H 0.62035 0.79739 0.49512
 O1709 O 0.63664 1.01320 0.39478
 O1710 O 0.67623 1.00993 0.37378
 C1711 C 0.65314 1.02068 0.37627
 C1712 C 0.64547 1.04257 0.35809
 C1713 C 0.66440 1.05352 0.33952
 H1714 H 0.68487 1.04584 0.33802
 O1715 O 0.44562 0.96902 0.34405
 O1716 O 0.42484 0.96885 0.30511
 C1717 C 0.44214 0.95923 0.32131
 C1718 C 0.45796 0.93605 0.31416
 C1719 C 0.45436 0.92434 0.28939
 H1720 H 0.44031 0.93259 0.27491
 O1721 O 0.56257 1.11994 0.40391
 O1722 O 0.57372 1.14846 0.37201
 C1723 C 0.57572 1.13984 0.39606
 C1724 C 0.59448 1.15224 0.41482
 C1725 C 0.60959 1.17413 0.40663
 H1726 H 0.60650 1.18303 0.38695
 O1727 O 0.49564 0.86760 0.40998
 O1728 O 0.50311 0.83567 0.38269
 C1729 C 0.48786 0.84696 0.39957
 C1730 C 0.46014 0.83682 0.40560
 C1731 C 0.45015 0.81666 0.39057
 H1732 H 0.46345 0.80736 0.37628
 O1733 O 0.64573 1.08143 0.50439
 O1734 O 0.67785 1.10971 0.51193
 C1735 C 0.67022 1.08897 0.50157
 C1736 C 0.68951 1.07354 0.48547
 C1737 C 0.71747 1.07945 0.48360
 H1738 H 0.72565 1.09536 0.49444
 O1739 O 0.36968 0.91348 0.44146
 O1740 O 0.33683 0.88564 0.43496
 C1741 C 0.35036 0.90537 0.42736
 C1742 C 0.34430 0.91873 0.40154
 C1743 C 0.32005 0.91411 0.38787
 H1744 H 0.30506 0.90107 0.39675
 Cu1745 Cu 0.52729 0.88505 0.40053
 Cu1746 Cu 0.53628 0.84665 0.36785
 Cu1747 Cu 0.54064 1.09982 0.38319
 Cu1748 Cu 0.55390 1.13396 0.34476
 Cu1749 Cu 0.42666 0.99627 0.35814
 Cu1750 Cu 0.40157 0.99639 0.31140
 Cu1751 Cu 0.64206 0.98806 0.42148
 Cu1752 Cu 0.68929 0.98341 0.39585
 C1753 C 0.47578 0.92464 0.33292
 H1754 H 0.47814 0.93311 0.35234
 C1755 C 0.46886 0.90196 0.28315
 C1756 C 0.61967 1.05412 0.36094
 H1757 H 0.60537 1.04650 0.37587
 C1758 C 0.65729 1.07530 0.32378
 C1759 C 0.36343 0.93596 0.39016
 H1760 H 0.38223 0.93943 0.40054
 C1761 C 0.31486 0.92664 0.36305
 C1762 C 0.67943 1.05299 0.47089
 H1763 H 0.65788 1.04869 0.47168
 C1764 C 0.73501 1.06438 0.46800
 C1765 C 0.44236 0.84911 0.42358
 H1766 H 0.44967 0.86522 0.43470
 C1767 C 0.42280 0.80920 0.39255
 C1768 C 0.59916 1.14079 0.44031
 H1769 H 0.58776 1.12385 0.44673
 C1770 C 0.62986 1.18371 0.42315
 C1771 C 0.48524 1.05899 0.32257
 H1772 H 0.48601 1.05258 0.34345
 C1773 C 0.48221 1.07658 0.26889
 C1774 C 0.61015 0.91972 0.37267
 H1775 H 0.60175 0.92341 0.39242
 C1776 C 0.63201 0.91043 0.32144
 C1777 C 0.57997 0.84192 0.46433
 H1778 H 0.57211 0.86114 0.46716
 C1779 C 0.60164 0.79254 0.45660
 C1780 C 0.46201 1.14790 0.39890
 H1781 H 0.46594 1.12989 0.40968
 C1782 C 0.45117 1.19392 0.36994
 C1783 C 0.37436 1.06815 0.38029
 H1784 H 0.39428 1.06568 0.38908
 C1785 C 0.32244 1.07391 0.35791
 C1786 C 0.66878 0.92127 0.48029
 H1787 H 0.64891 0.93017 0.48203
 C1788 C 0.71972 0.89720 0.47467
 O1789 O 0.47774 0.91098 0.63924
 O1790 O 0.46628 0.88248 0.67108
 C1791 C 0.47916 0.90264 0.66342
 C1792 C 0.49663 0.91612 0.68253
 C1793 C 0.49903 0.90691 0.70921
 H1794 H 0.48738 0.89027 0.71603
 O1795 O 0.44008 1.10114 0.61080
 O1796 O 0.43369 1.13222 0.63944
 C1797 C 0.42659 1.11090 0.62986
 C1798 C 0.40275 1.09668 0.64079
 C1799 C 0.39532 1.09727 0.66818
 H1800 H 0.40662 1.10922 0.68153
 O1801 O 0.34366 1.03738 0.55237
 O1802 O 0.30492 1.04128 0.57474
 C1803 C 0.32079 1.04837 0.55559
 C1804 C 0.31302 1.07010 0.53731
 C1805 C 0.28908 1.08420 0.54204
 H1806 H 0.27574 1.07855 0.55866
 O1807 O 0.59512 0.97317 0.63271
 O1808 O 0.61569 0.97357 0.67179
 C1809 C 0.61301 0.96427 0.64870
 C1810 C 0.63095 0.94301 0.64029
 C1811 C 0.65405 0.93632 0.65519
 H1812 H 0.65883 0.94727 0.67262
 O1813 O 0.57898 0.86964 0.56190
 O1814 O 0.60765 0.83872 0.57366
 C1815 C 0.58418 0.84894 0.57508
 C1816 C 0.56281 0.83697 0.59256
 C1817 C 0.56742 0.81328 0.60611
 H1818 H 0.58656 0.80327 0.60329
 O1819 O 0.40599 1.13241 0.48451
 O1820 O 0.37758 1.16336 0.47220
 C1821 C 0.39522 1.15424 0.48835
 C1822 C 0.40219 1.16852 0.51262
 C1823 C 0.38916 1.19187 0.51795
 H1824 H 0.37578 1.20027 0.50301
 O1825 O 0.36488 0.98610 0.60011
 O1826 O 0.32572 0.98919 0.62200
 C1827 C 0.34894 0.97877 0.61915
 C1828 C 0.35756 0.95784 0.63800
 C1829 C 0.34386 0.95353 0.66269
 H1830 H 0.32706 0.96595 0.66799
 O1831 O 0.55234 1.02760 0.65277
 O1832 O 0.57298 1.02821 0.69176
 C1833 C 0.55587 1.03773 0.67535
 C1834 C 0.54058 1.06134 0.68203
 C1835 C 0.54437 1.07331 0.70669
 H1836 H 0.55789 1.06480 0.72151
 O1837 O 0.43739 0.87569 0.59108
 O1838 O 0.42573 0.84684 0.62249
 C1839 C 0.42460 0.85539 0.59836
 C1840 C 0.40788 0.84230 0.57838
 C1841 C 0.39890 0.81669 0.58249
 H1842 H 0.40460 0.80589 0.60049
 O1843 O 0.50291 1.13094 0.58531
 O1844 O 0.49604 1.16373 0.61166
 C1845 C 0.51060 1.15218 0.59442
 C1846 C 0.53698 1.16311 0.58507
 C1847 C 0.54324 1.18904 0.58912
 H1848 H 0.52857 1.20153 0.59866
 O1849 O 0.35454 0.91584 0.49182
 O1850 O 0.32223 0.88740 0.48563
 C1851 C 0.33018 0.90825 0.49558
 C1852 C 0.31129 0.92379 0.51209
 C1853 C 0.28365 0.91708 0.51543
 H1854 H 0.27557 0.90048 0.50564
 O1855 O 0.62837 1.08348 0.55410
 O1856 O 0.66059 1.11165 0.56175
 C1857 C 0.64716 1.09168 0.56881
 C1858 C 0.65307 1.07774 0.59441
 C1859 C 0.67827 1.08032 0.60709
 H1860 H 0.69378 1.09267 0.59801
 O1861 O 0.49049 1.09951 0.62450
 O1862 O 0.48446 1.13208 0.65135
 C1863 C 0.49423 1.10995 0.64689
 C1864 C 0.51044 1.09652 0.66786
 C1865 C 0.51398 1.10782 0.69274
 H1866 H 0.50434 1.12611 0.69654
 O1867 O 0.42783 0.91331 0.62296
 O1868 O 0.41621 0.88495 0.65488
 C1869 C 0.41189 0.90596 0.64190
 C1870 C 0.38825 0.92217 0.64895
 C1871 C 0.37443 0.91816 0.67352
 H1872 H 0.38120 0.90301 0.68731
 O1873 O 0.59828 1.02260 0.62772
 O1874 O 0.61930 1.02274 0.66660
 C1875 C 0.61762 1.03016 0.64212
 C1876 C 0.63845 1.04754 0.63016
 C1877 C 0.66374 1.05006 0.64241
 H1878 H 0.66772 1.03937 0.66093
 O1879 O 0.34015 0.98731 0.55458
 O1880 O 0.30090 0.99093 0.57615
 C1881 C 0.31556 0.98054 0.55821
 C1882 C 0.30422 0.95976 0.54206
 C1883 C 0.27665 0.95327 0.54443
 H1884 H 0.26323 0.96428 0.55720
 O1885 O 0.59474 1.11989 0.54013
 O1886 O 0.62655 1.14854 0.54756
 C1887 C 0.60197 1.14107 0.54979
 C1888 C 0.58161 1.15735 0.56348
 C1889 C 0.58729 1.18329 0.56753
 H1890 H 0.60646 1.19146 0.56049
 O1891 O 0.38887 0.87956 0.50396
 O1892 O 0.35710 0.85078 0.49685
 C1893 C 0.37632 0.85912 0.51097
 C1894 C 0.38422 0.84471 0.53565
 C1895 C 0.37535 0.81945 0.54006
 H1896 H 0.36246 0.81126 0.52521
 O1897 O 0.54790 0.97714 0.65613
 O1898 O 0.56838 0.97752 0.69522
 C1899 C 0.54988 0.96899 0.68031
 C1900 C 0.53120 0.94861 0.69078
 C1901 C 0.53354 0.93888 0.71726
 H1902 H 0.54820 0.94716 0.73054
 O1903 O 0.36951 1.03606 0.59738
 O1904 O 0.33084 1.03874 0.62024
 C1905 C 0.35541 1.04552 0.61625
 C1906 C 0.36806 1.06425 0.63387
 C1907 C 0.36063 1.06511 0.66107
 H1908 H 0.34448 1.05263 0.66857
 O1909 O 0.45151 1.13462 0.57242
 O1910 O 0.44376 1.16625 0.59999
 C1911 C 0.44065 1.15624 0.57731
 C1912 C 0.42379 1.16941 0.55650
 C1913 C 0.41024 1.19273 0.56163
 H1914 H 0.41265 1.20169 0.58079
 O1915 O 0.48791 0.87460 0.60644
 O1916 O 0.47637 0.84596 0.63812
 C1917 C 0.49274 0.85392 0.61974
 C1918 C 0.51805 0.83944 0.61430
 C1919 C 0.52312 0.81592 0.62786
 H1920 H 0.50781 0.80784 0.64145
 O1921 O 0.61654 0.90357 0.56939
 O1922 O 0.64552 0.87285 0.58093
 C1923 C 0.63455 0.89452 0.58515
 C1924 C 0.64203 0.90920 0.60897
 C1925 C 0.66524 0.90278 0.62408
 H1926 H 0.67839 0.88722 0.61791
 O1927 O 0.36807 1.09917 0.47813
 O1928 O 0.33957 1.13018 0.46622
 C1929 C 0.34496 1.11004 0.48022
 C1930 C 0.32467 1.09994 0.50011
 C1931 C 0.30053 1.11367 0.50503
 H1932 H 0.29638 1.13091 0.49311
 Cu1933 Cu 0.45877 0.89642 0.61166
 Cu1934 Cu 0.44486 0.86214 0.64978
 Cu1935 Cu 0.47177 1.11348 0.59536
 Cu1936 Cu 0.46371 1.15201 0.62812
 Cu1937 Cu 0.38226 0.89938 0.47340
 Cu1938 Cu 0.34354 0.86529 0.46536
 Cu1939 Cu 0.60259 0.88827 0.53953
 Cu1940 Cu 0.63701 0.85105 0.55338
 Cu1941 Cu 0.39757 1.11051 0.45732
 Cu1942 Cu 0.36311 1.14745 0.44272
 Cu1943 Cu 0.61707 1.09758 0.52164
 Cu1944 Cu 0.65533 1.13184 0.53074
 Cu1945 Cu 0.35844 1.01142 0.57388
 Cu1946 Cu 0.31157 1.01543 0.60033
 Cu1947 Cu 0.57109 1.00008 0.63855
 Cu1948 Cu 0.59587 1.00060 0.68545
 C1949 C 0.51252 0.93724 0.67365
 H1950 H 0.51109 0.94423 0.65301
 C1951 C 0.51754 0.91811 0.72662
 C1952 C 0.38910 1.08001 0.62395
 H1953 H 0.39504 1.07916 0.60294
 C1954 C 0.37477 1.08085 0.67868
 C1955 C 0.33057 1.07802 0.51615
 H1956 H 0.34935 1.06759 0.51273
 C1957 C 0.28276 1.10616 0.52619
 C1958 C 0.62521 0.92947 0.61715
 H1959 H 0.60722 0.93442 0.60576
 C1960 C 0.67141 0.91632 0.64724
 C1961 C 0.53794 0.84976 0.59660
 H1962 H 0.53432 0.86816 0.58646
 C1963 C 0.54776 0.80278 0.62396
 C1964 C 0.41975 1.15764 0.53183
 H1965 H 0.42960 1.13943 0.52794
 C1966 C 0.39253 1.20390 0.54259
 C1967 C 0.37980 0.94215 0.63140
 H1968 H 0.39041 0.94530 0.61237
 C1969 C 0.35238 0.93385 0.68073
 C1970 C 0.52345 1.07307 0.66282
 H1971 H 0.52087 1.06435 0.64355
 C1972 C 0.53089 1.09644 0.71223
 C1973 C 0.40066 0.85594 0.55473
 H1974 H 0.40732 0.87563 0.55140
 C1975 C 0.38291 0.80494 0.56305
 C1976 C 0.55625 1.14743 0.57206
 H1977 H 0.55169 1.12737 0.56898
 C1978 C 0.56816 1.19913 0.57995
 C1979 C 0.32127 0.94522 0.52546
 H1980 H 0.34262 0.95015 0.52359
 C1981 C 0.26629 0.93204 0.53127
 C1982 C 0.63339 1.06119 0.60604
 H1983 H 0.61388 1.05921 0.59646
 C1984 C 0.68394 1.06602 0.63079
 O1985 O 0.55296 0.52587 1.15227
 O1986 O 0.57433 0.52582 1.19087
 C1987 C 0.55718 0.53584 1.17478
 C1988 C 0.54258 0.55979 1.18175
 C1989 C 0.54634 0.57112 1.20675
 H1990 H 0.55945 0.56200 1.22157
 O1991 O 0.36673 0.48916 1.10069
 O1992 O 0.32787 0.49343 1.12285
 C1993 C 0.35061 0.48216 1.11972
 C1994 C 0.35824 0.46049 1.13818
 C1995 C 0.34357 0.45567 1.16228
 H1996 H 0.32685 0.46822 1.16746
 O1997 O 0.50876 0.63379 1.08704
 O1998 O 0.50353 0.66464 1.11608
 C1999 C 0.51788 0.65340 1.09848
 C2000 C 0.54622 0.66174 1.09246
 C2001 C 0.55850 0.68107 1.10735
 H2002 H 0.54672 0.69149 1.12203
 O2003 O 0.43538 0.37487 1.09179
 O2004 O 0.42334 0.34637 1.12341
 C2005 C 0.42228 0.35481 1.09925
 C2006 C 0.40544 0.34180 1.07936
 C2007 C 0.39966 0.31530 1.08150
 H2008 H 0.40742 0.30383 1.09826
 O2009 O 0.62980 0.57891 1.05190
 O2010 O 0.66451 0.60472 1.05826
 C2011 C 0.64998 0.58555 1.06570
 C2012 C 0.65594 0.57113 1.09098
 C2013 C 0.68155 0.57262 1.10300
 H2014 H 0.69747 0.58412 1.09339
 O2015 O 0.35325 0.41788 0.99552
 O2016 O 0.31934 0.39118 0.98920
 C2017 C 0.32849 0.41146 0.99926
 C2018 C 0.31034 0.42786 1.01548
 C2019 C 0.28242 0.42226 1.01872
 H2020 H 0.27375 0.40570 1.00934
 O2021 O 0.44462 0.60479 1.11038
 O2022 O 0.43940 0.63464 1.14061
 C2023 C 0.43158 0.61402 1.13006
 C2024 C 0.40769 0.59982 1.14090
 C2025 C 0.40006 0.60084 1.16819
 H2026 H 0.41112 0.61308 1.18145
 O2027 O 0.47637 0.41022 1.13944
 O2028 O 0.46379 0.38248 1.17161
 C2029 C 0.47743 0.40211 1.16372
 C2030 C 0.49584 0.41475 1.18259
 C2031 C 0.50014 0.40357 1.20816
 H2032 H 0.48880 0.38655 1.21437
 O2033 O 0.59420 0.47092 1.13113
 O2034 O 0.61657 0.47131 1.16928
 C2035 C 0.61316 0.46244 1.14610
 C2036 C 0.63199 0.44282 1.13586
 C2037 C 0.65899 0.44171 1.14458
 H2038 H 0.66559 0.45478 1.15969
 O2039 O 0.34691 0.54168 1.05347
 O2040 O 0.30875 0.54687 1.07650
 C2041 C 0.32469 0.55366 1.05728
 C2042 C 0.31788 0.57634 1.03984
 C2043 C 0.29651 0.59294 1.04705
 H2044 H 0.28436 0.58854 1.06490
 O2045 O 0.41076 0.63586 0.98503
 O2046 O 0.38210 0.66675 0.97313
 C2047 C 0.39987 0.65756 0.98916
 C2048 C 0.40673 0.67150 1.01367
 C2049 C 0.39221 0.69369 1.02030
 H2050 H 0.37768 0.70167 1.00620
 O2051 O 0.57542 0.36714 1.06271
 O2052 O 0.60481 0.33707 1.07512
 C2053 C 0.58133 0.34722 1.07684
 C2054 C 0.56095 0.33611 1.09597
 C2055 C 0.56777 0.31503 1.11275
 H2056 H 0.58778 0.30638 1.11094
 O2057 O 0.37341 0.53896 1.09802
 O2058 O 0.33516 0.54268 1.12140
 C2059 C 0.35988 0.54872 1.11708
 C2060 C 0.37317 0.56711 1.13449
 C2061 C 0.36596 0.56802 1.16170
 H2062 H 0.35017 0.55537 1.16974
 O2063 O 0.54777 0.47518 1.15618
 O2064 O 0.56966 0.47444 1.19451
 C2065 C 0.55053 0.46639 1.18005
 C2066 C 0.53199 0.44581 1.19055
 C2067 C 0.53640 0.43383 1.21584
 H2068 H 0.55270 0.44040 1.22832
 O2069 O 0.48583 0.37258 1.10831
 O2070 O 0.47379 0.34482 1.14064
 C2071 C 0.49058 0.35235 1.12246
 C2072 C 0.51652 0.33833 1.11838
 C2073 C 0.52392 0.31742 1.13543
 H2074 H 0.50988 0.31053 1.15095
 O2075 O 0.45766 0.63760 1.07196
 O2076 O 0.45052 0.66884 1.10008
 C2077 C 0.44705 0.65917 1.07726
 C2078 C 0.42956 0.67240 1.05700
 C2079 C 0.41460 0.69463 1.06334
 H2080 H 0.41681 0.70306 1.08282
 O2081 O 0.37225 0.60343 0.97886
 O2082 O 0.34369 0.63431 0.96668
 C2083 C 0.34928 0.61454 0.98116
 C2084 C 0.32965 0.60567 1.00224
 C2085 C 0.30806 0.62186 1.00966
 H2086 H 0.30473 0.63961 0.99830
 O2087 O 0.61359 0.40089 1.06764
 O2088 O 0.64361 0.37093 1.07891
 C2089 C 0.63268 0.39272 1.08260
 C2090 C 0.64188 0.40884 1.10455
 C2091 C 0.66879 0.40757 1.11374
 H2092 H 0.68311 0.39438 1.10473
 O2093 O 0.42670 0.41326 1.12294
 O2094 O 0.41397 0.38538 1.15490
 C2095 C 0.41037 0.40644 1.14174
 C2096 C 0.38718 0.42332 1.14857
 C2097 C 0.37235 0.41884 1.17247
 H2098 H 0.37802 0.40290 1.18577
 O2099 O 0.49474 0.60082 1.12422
 O2100 O 0.48865 0.63258 1.15212
 C2101 C 0.49805 0.61039 1.14713
 C2102 C 0.51343 0.59597 1.16807
 C2103 C 0.51671 0.60645 1.19341
 H2104 H 0.50732 0.62476 1.19777
 O2105 O 0.34143 0.49161 1.05556
 O2106 O 0.30258 0.49661 1.07750
 C2107 C 0.31666 0.48567 1.05953
 C2108 C 0.30450 0.46501 1.04390
 C2109 C 0.27664 0.45968 1.04612
 H2110 H 0.26360 0.47168 1.05823
 O2111 O 0.59867 0.51977 1.12679
 O2112 O 0.62047 0.51967 1.16526
 C2113 C 0.61868 0.52672 1.14068
 C2114 C 0.64034 0.54265 1.12787
 C2115 C 0.66619 0.54389 1.13937
 H2116 H 0.67013 0.53335 1.15801
 O2117 O 0.38616 0.38001 1.00650
 O2118 O 0.35297 0.35278 0.99896
 C2119 C 0.37288 0.35987 1.01298
 C2120 C 0.38120 0.34456 1.03689
 C2121 C 0.37608 0.31812 1.03892
 H2122 H 0.36537 0.30890 1.02297
 O2123 O 0.59807 0.61770 1.04193
 O2124 O 0.63244 0.64358 1.04935
 C2125 C 0.60766 0.63736 1.05300
 C2126 C 0.59025 0.65286 1.07092
 C2127 C 0.60210 0.67172 1.08643
 H2128 H 0.62376 0.67540 1.08467
 Cu2129 Cu 0.57081 0.49795 1.13798
 Cu2130 Cu 0.59685 0.49782 1.18428
 Cu2131 Cu 0.36096 0.51493 1.07461
 Cu2132 Cu 0.31460 0.52042 1.10164
 Cu2133 Cu 0.47695 0.61637 1.09528
 Cu2134 Cu 0.46934 0.65409 1.12896
 Cu2135 Cu 0.45719 0.39534 1.11221
 Cu2136 Cu 0.44221 0.36191 1.15077
 C2137 C 0.52604 0.57240 1.16256
 H2138 H 0.52363 0.56427 1.14298
 C2139 C 0.53314 0.59426 1.21276
 C2140 C 0.38011 0.44428 1.13160
 H2141 H 0.39143 0.44777 1.11303
 C2142 C 0.35067 0.43496 1.17968
 C2143 C 0.56227 0.64801 1.07401
 H2144 H 0.55318 0.63288 1.06268
 C2145 C 0.58652 0.68565 1.10472
 C2146 C 0.39609 0.35615 1.05700
 H2147 H 0.40041 0.37657 1.05524
 C2148 C 0.38573 0.30326 1.06082
 C2149 C 0.63555 0.55597 1.10349
 H2150 H 0.61565 0.55496 1.09449
 C2151 C 0.68699 0.55856 1.12687
 C2152 C 0.32110 0.44930 1.02811
 H2153 H 0.34265 0.45339 1.02625
 C2154 C 0.26549 0.43843 1.03362
 C2155 C 0.39416 0.58284 1.12429
 H2156 H 0.40006 0.58175 1.10330
 C2157 C 0.37979 0.58428 1.17884
 C2158 C 0.51150 0.43618 1.17414
 H2159 H 0.50853 0.44466 1.15426
 C2160 C 0.52061 0.41268 1.22472
 C2161 C 0.62371 0.42659 1.11564
 H2162 H 0.60298 0.42773 1.10856
 C2163 C 0.67771 0.42456 1.13318
 C2164 C 0.33430 0.58286 1.01733
 H2165 H 0.35131 0.57063 1.01207
 C2166 C 0.29182 0.61603 1.03242
 C2167 C 0.42559 0.66117 1.03200
 H2168 H 0.43644 0.64370 1.02722
 C2169 C 0.39547 0.70506 1.04527
 C2170 C 0.53516 0.34739 1.09865
 H2171 H 0.52989 0.36380 1.08582
 C2172 C 0.54962 0.30572 1.13270
 O2173 O 0.62562 0.45645 0.89530
 O2174 O 0.66435 0.45226 0.87296
 C2175 C 0.63991 0.44539 0.87753
 C2176 C 0.62815 0.42362 0.86300
 C2177 C 0.64175 0.41293 0.84081
 H2178 H 0.66070 0.42114 0.83329
 O2179 O 0.45397 0.51957 0.84111
 O2180 O 0.43275 0.51932 0.80242
 C2181 C 0.45174 0.52755 0.81689
 C2182 C 0.47057 0.54755 0.80590
 C2183 C 0.46961 0.55535 0.77875
 H2184 H 0.45614 0.54573 0.76526
 O2185 O 0.51339 0.62553 0.88832
 O2186 O 0.52574 0.65361 0.85641
 C2187 C 0.50931 0.64637 0.87501
 C2188 C 0.48483 0.66190 0.88096
 C2189 C 0.48089 0.68626 0.86864
 H2190 H 0.49655 0.69404 0.85532
 O2191 O 0.53978 0.35670 0.92748
 O2192 O 0.54602 0.32419 0.90071
 C2193 C 0.54961 0.33456 0.92316
 C2194 C 0.56629 0.32155 0.94424
 C2195 C 0.57749 0.29686 0.94076
 H2196 H 0.57291 0.28646 0.92287
 O2197 O 0.62712 0.39597 1.01715
 O2198 O 0.65595 0.36505 1.02851
 C2199 C 0.65019 0.38517 1.01462
 C2200 C 0.67015 0.39548 0.99459
 C2201 C 0.69484 0.38246 0.99021
 H2202 H 0.69955 0.36540 1.00225
 O2203 O 0.38815 0.59779 0.92866
 O2204 O 0.35912 0.62827 0.91656
 C2205 C 0.37003 0.60642 0.91285
 C2206 C 0.36217 0.59102 0.88966
 C2207 C 0.33802 0.59633 0.87563
 H2208 H 0.32463 0.61156 0.88217
 O2209 O 0.57140 0.58419 0.87184
 O2210 O 0.58403 0.61204 0.83979
 C2211 C 0.58729 0.59072 0.85254
 C2212 C 0.60930 0.57298 0.84452
 C2213 C 0.62233 0.57610 0.81941
 H2214 H 0.61636 0.59188 0.80602
 O2215 O 0.50378 0.39324 0.87455
 O2216 O 0.50993 0.36098 0.84732
 C2217 C 0.50059 0.38331 0.85183
 C2218 C 0.48520 0.39755 0.83073
 C2219 C 0.48115 0.38662 0.80572
 H2220 H 0.49008 0.36806 0.80158
 O2221 O 0.65539 0.50668 0.93628
 O2222 O 0.69430 0.50245 0.91424
 C2223 C 0.68001 0.51324 0.93217
 C2224 C 0.69192 0.53405 0.94795
 C2225 C 0.71964 0.54007 0.94527
 H2226 H 0.73266 0.52890 0.93227
 O2227 O 0.40192 0.47670 0.87124
 O2228 O 0.38010 0.47707 0.83277
 C2229 C 0.38171 0.47016 0.85739
 C2230 C 0.35974 0.45465 0.87015
 C2231 C 0.33383 0.45415 0.85872
 H2232 H 0.33006 0.46515 0.84033
 O2233 O 0.61115 0.61608 0.99120
 O2234 O 0.64435 0.64341 0.99841
 C2235 C 0.62435 0.63627 0.98456
 C2236 C 0.61612 0.65160 0.96060
 C2237 C 0.62208 0.67784 0.95834
 H2238 H 0.63346 0.68657 0.97412
 O2239 O 0.39932 0.37729 0.95599
 O2240 O 0.36474 0.35180 0.94807
 C2241 C 0.38963 0.35773 0.94483
 C2242 C 0.40710 0.34208 0.92721
 C2243 C 0.39518 0.32406 0.91072
 H2244 H 0.37337 0.32105 0.91162
 O2245 O 0.44747 0.46895 0.84574
 O2246 O 0.42584 0.46871 0.80729
 C2247 C 0.44281 0.45860 0.82348
 C2248 C 0.45665 0.43412 0.81683
 C2249 C 0.45217 0.42240 0.79215
 H2250 H 0.43913 0.43160 0.77733
 O2251 O 0.62921 0.50686 0.89166
 O2252 O 0.66795 0.50253 0.86931
 C2253 C 0.64506 0.51356 0.87238
 C2254 C 0.63703 0.53483 0.85382
 C2255 C 0.64998 0.53827 0.82868
 H2256 H 0.66547 0.52471 0.82273
 O2257 O 0.48875 0.36107 0.91200
 O2258 O 0.49465 0.32882 0.88477
 C2259 C 0.47990 0.34089 0.90134
 C2260 C 0.45142 0.33275 0.90675
 C2261 C 0.43909 0.31420 0.89084
 H2262 H 0.45100 0.30405 0.87604
 O2263 O 0.56342 0.62170 0.90439
 O2264 O 0.57591 0.65027 0.87300
 C2265 C 0.57668 0.64169 0.89717
 C2266 C 0.59303 0.65458 0.91753
 C2267 C 0.59919 0.68102 0.91545
 H2268 H 0.59223 0.69247 0.89833
 O2269 O 0.36941 0.41710 0.94550
 O2270 O 0.33440 0.39177 0.93862
 C2271 C 0.34932 0.41080 0.93146
 C2272 C 0.34375 0.42563 0.90638
 C2273 C 0.31809 0.42491 0.89444
 H2274 H 0.30198 0.41351 0.90386
 O2275 O 0.64389 0.57793 1.00087
 O2276 O 0.67760 0.60490 1.00702
 C2277 C 0.66841 0.58482 0.99652
 C2278 C 0.68624 0.56947 0.97882
 C2279 C 0.71393 0.57574 0.97509
 H2280 H 0.72261 0.59182 0.98529
 O2281 O 0.55378 0.38938 0.88912
 O2282 O 0.55994 0.35709 0.86197
 C2283 C 0.56773 0.37835 0.87116
 C2284 C 0.59316 0.39039 0.86071
 C2285 C 0.60710 0.37994 0.83885
 H2286 H 0.59926 0.36296 0.82952
 O2287 O 0.52171 0.58793 0.85665
 O2288 O 0.53396 0.61567 0.82436
 C2289 C 0.52065 0.59584 0.83233
 C2290 C 0.50358 0.58170 0.81346
 C2291 C 0.50213 0.58935 0.78619
 H2292 H 0.51382 0.60563 0.77842
 O2293 O 0.40796 0.52568 0.86610
 O2294 O 0.38664 0.52556 0.82740
 C2295 C 0.39007 0.53496 0.85036
 C2296 C 0.37256 0.55650 0.85892
 C2297 C 0.34849 0.56213 0.84514
 H2298 H 0.34315 0.55044 0.82846
 O2299 O 0.65022 0.45701 0.94087
 O2300 O 0.68904 0.45264 0.91871
 C2301 C 0.67320 0.44614 0.93812
 C2302 C 0.68122 0.42514 0.95710
 C2303 C 0.70569 0.41181 0.95299
 H2304 H 0.71913 0.41765 0.93650
 O2305 O 0.58932 0.36195 1.01269
 O2306 O 0.61791 0.33111 1.02488
 C2307 C 0.59957 0.33983 1.00929
 C2308 C 0.59067 0.32444 0.98650
 C2309 C 0.60144 0.29983 0.98280
 H2310 H 0.61560 0.29209 0.99736
 O2311 O 0.42466 0.63323 0.93467
 O2312 O 0.39595 0.66396 0.92249
 C2313 C 0.41938 0.65376 0.92117
 C2314 C 0.44067 0.66548 0.90348
 C2315 C 0.43696 0.68984 0.89102
 H2316 H 0.41839 0.70050 0.89480
 Cu2317 Cu 0.63614 0.48217 0.91809
 Cu2318 Cu 0.68281 0.47707 0.89156
 Cu2319 Cu 0.43038 0.49762 0.85973
 Cu2320 Cu 0.40456 0.49757 0.81335
 Cu2321 Cu 0.61744 0.59486 1.02078
 Cu2322 Cu 0.65820 0.62677 1.02887
 Cu2323 Cu 0.59848 0.38463 1.03894
 Cu2324 Cu 0.63347 0.34794 1.05312
 Cu2325 Cu 0.40179 0.61439 0.95774
 Cu2326 Cu 0.36733 0.65134 0.94331
 Cu2327 Cu 0.38037 0.40075 0.97671
 Cu2328 Cu 0.33936 0.36927 0.96811
 Cu2329 Cu 0.54133 0.60218 0.88364
 Cu2330 Cu 0.55636 0.63579 0.84525
 Cu2331 Cu 0.52100 0.37807 0.90384
 Cu2332 Cu 0.52838 0.33929 0.87125
 C2333 C 0.60373 0.41233 0.87254
 H2334 H 0.59329 0.42021 0.88973
 C2335 C 0.63118 0.39110 0.82877
 C2336 C 0.48789 0.56062 0.82302
 H2337 H 0.48846 0.55490 0.84410
 C2338 C 0.48529 0.57609 0.76890
 C2339 C 0.46472 0.65182 0.89846
 H2340 H 0.46751 0.63290 0.90775
 C2341 C 0.45696 0.70045 0.87355
 C2342 C 0.57277 0.33494 0.96740
 H2343 H 0.56468 0.35410 0.97009
 C2344 C 0.59500 0.28577 0.96010
 C2345 C 0.66364 0.41698 0.97812
 H2346 H 0.64443 0.42683 0.98105
 C2347 C 0.71253 0.39036 0.96923
 C2348 C 0.37917 0.57089 0.88126
 H2349 H 0.39780 0.56663 0.89191
 C2350 C 0.33091 0.58181 0.85342
 C2351 C 0.61659 0.55214 0.86148
 H2352 H 0.60659 0.54959 0.88090
 C2353 C 0.64247 0.55870 0.81116
 C2354 C 0.47321 0.42150 0.83596
 H2355 H 0.47615 0.42998 0.85529
 C2356 C 0.46461 0.39881 0.78642
 C2357 C 0.67544 0.54866 0.96506
 H2358 H 0.65402 0.54412 0.96726
 C2359 C 0.73071 0.56086 0.95868
 C2360 C 0.36440 0.44069 0.89418
 H2361 H 0.38436 0.44111 0.90312
 C2362 C 0.31282 0.43960 0.87095
 C2363 C 0.60129 0.64022 0.94035
 H2364 H 0.59639 0.61993 0.94227
 C2365 C 0.61291 0.69295 0.93636
 C2366 C 0.43526 0.34627 0.92520
 H2367 H 0.44442 0.36079 0.93729
 C2368 C 0.41089 0.31033 0.89236
 C2369 C 1.04884 1.11431 1.28270
 C2370 C 1.02303 1.12471 1.28311
 C2371 C 1.01089 1.11599 1.26074
 C2372 C 1.03023 1.10090 1.24833
 O2373 O 1.05323 1.09972 1.26177
 H2374 H 1.01429 1.13751 1.29764
 H2375 H 0.99053 1.12052 1.25405
 C2376 C 1.05719 0.62056 0.77492
 C2377 C 1.03121 0.63052 0.77600
 C2378 C 1.01855 0.62137 0.75413
 C2379 C 1.03776 0.60645 0.74131
 O2380 O 1.06122 0.60581 0.75403
 H2381 H 1.02271 0.64340 0.79060
 H2382 H 0.99792 0.62548 0.74801
 C2383 C 0.55621 1.12513 0.76986
 C2384 C 0.53098 1.13686 0.76987
 C2385 C 0.51763 1.12682 0.74893
 C2386 C 0.53568 1.10975 0.73753
 O2387 O 0.55905 1.10848 0.75043
 H2388 H 0.52331 1.15131 0.78322
 H2389 H 0.49730 1.13177 0.74247
 C2390 C 0.55803 0.62315 1.27033
 C2391 C 0.53155 0.63176 1.27246
 C2392 C 0.51831 0.62116 1.25171
 C2393 C 0.53766 0.60678 1.23850
 O2394 O 0.56179 0.60783 1.24985
 H2395 H 0.52309 0.64481 1.28691
 H2396 H 0.49723 0.62411 1.24641
 C2397 C 0.84552 0.92607 1.25229
 C2398 C 0.83037 0.94832 1.24956
 C2399 C 0.83295 0.95562 1.22310
 C2400 C 0.84950 0.93720 1.21167
 O2401 O 0.85707 0.91934 1.22947
 H2402 H 0.81910 0.95822 1.26497
 H2403 H 0.82425 0.97270 1.21371
 C2404 C 0.82736 0.41339 0.73999
 C2405 C 0.80856 0.43300 0.73699
 C2406 C 0.81515 0.44518 0.71311
 C2407 C 0.83752 0.43208 0.70328
 O2408 O 0.84485 0.41283 0.71966
 H2409 H 0.79197 0.43782 0.75046
 H2410 H 0.80468 0.46153 0.70412
 C2411 C 0.33382 0.91579 0.74716
 C2412 C 0.31269 0.93282 0.74279
 C2413 C 0.31632 0.94198 0.71702
 C2414 C 0.33946 0.92980 0.70760
 O2415 O 0.34997 0.91390 0.72595
 H2416 H 0.29669 0.93808 0.75673
 H2417 H 0.30357 0.95590 0.70662
 C2418 C 0.32688 0.41183 1.24295
 C2419 C 0.30889 0.43216 1.24049
 C2420 C 0.31501 0.44384 1.21622
 C2421 C 0.33630 0.42972 1.20566
 O2422 O 0.34339 0.41033 1.22194
 H2423 H 0.29327 0.43788 1.25463
 H2424 H 0.30513 0.46069 1.20759
 C2425 C 0.95164 1.11892 0.72028
 C2426 C 0.97679 1.13050 0.71883
 C2427 C 0.99059 1.12070 0.74037
 C2428 C 0.97276 1.10385 0.75348
 O2429 O 0.94916 1.10265 0.74111
 H2430 H 0.98404 1.14472 0.70413
 H2431 H 1.01106 1.12566 0.74596
 C2432 C 0.95494 0.61643 0.21567
 C2433 C 0.97962 0.62889 0.21358
 C2434 C 0.99397 0.62027 0.23532
 C2435 C 0.97689 0.60321 0.24905
 O2436 O 0.95328 0.60081 0.23700
 H2437 H 0.98614 0.64295 0.19839
 H2438 H 1.01426 0.62612 0.24061
 C2439 C 0.45994 1.09863 0.20553
 C2440 C 0.48590 1.10849 0.20336
 C2441 C 0.49835 1.10091 0.22660
 C2442 C 0.47898 1.08700 0.24119
 O2443 O 0.45574 1.08550 0.22831
 H2444 H 0.49451 1.12027 0.18712
 H2445 H 0.51892 1.10535 0.23230
 C2446 C 0.46235 0.59861 0.70669
 C2447 C 0.48065 0.58074 0.69739
 C2448 C 0.49378 0.57154 0.71964
 C2449 C 0.48238 0.58448 0.74075
 O2450 O 0.46302 0.60063 0.73302
 H2451 H 0.48269 0.57393 0.67715
 H2452 H 0.50824 0.55581 0.72070
 C2453 C 1.14780 0.91075 0.75826
 C2454 C 1.16201 0.93333 0.76046
 C2455 C 1.15912 0.93970 0.78657
 C2456 C 1.14326 0.92051 0.79859
 O2457 O 1.13633 0.90287 0.78129
 H2458 H 1.17299 0.94404 0.74484
 H2459 H 1.16707 0.95684 0.79535
 C2460 C 1.12746 0.41696 0.24905
 C2461 C 1.13415 0.44260 0.25033
 C2462 C 1.13225 0.44804 0.27682
 C2463 C 1.12442 0.42533 0.28975
 O2464 O 1.12143 0.40640 0.27289
 H2465 H 1.14003 0.45568 0.23398
 H2466 H 1.13567 0.46652 0.28559
 C2467 C 0.64298 0.89965 0.25245
 C2468 C 0.66672 0.91273 0.25681
 C2469 C 0.66647 0.91753 0.28343
 C2470 C 0.64229 0.90731 0.29351
 O2471 O 0.62812 0.89611 0.27464
 H2472 H 0.68239 0.91812 0.24225
 H2473 H 0.68213 0.92757 0.29391
 C2474 C 0.65195 0.36608 0.76739
 C2475 C 0.66099 0.34624 0.78395
 C2476 C 0.65679 0.35435 0.80940
 C2477 C 0.64544 0.37854 0.80653
 O2478 O 0.64224 0.38567 0.78099
 H2479 H 0.66841 0.32757 0.77810
 H2480 H 0.65971 0.34324 0.82787
 C2481 C 1.24812 1.08985 1.16283
 C2482 C 1.24252 1.07186 1.18297
 C2483 C 1.21675 1.06381 1.17848
 C2484 C 1.20843 1.07731 1.15564
 O2485 O 1.22754 1.09330 1.14624
 H2486 H 1.25584 1.06514 1.19881
 H2487 H 1.20592 1.04928 1.19028
 C2488 C 1.25589 0.57423 0.65038
 C2489 C 1.25174 0.55244 0.66629
 C2490 C 1.22563 0.54526 0.66163
 C2491 C 1.21575 0.56321 0.64308
 O2492 O 1.23424 0.58073 0.63619
 H2493 H 1.26599 0.54292 0.67969
 H2494 H 1.21538 0.52864 0.67050
 C2495 C 0.74994 1.08029 0.65237
 C2496 C 0.74783 1.05641 0.66493
 C2497 C 0.72259 1.04785 0.65883
 C2498 C 0.71119 1.06718 0.64291
 O2499 O 0.72785 1.08688 0.63894
 H2500 H 0.76285 1.04647 0.67709
 H2501 H 0.71387 1.02947 0.66487
 C2502 C 0.75323 0.57242 1.14790
 C2503 C 0.75136 0.54827 1.15998
 C2504 C 0.72605 0.53970 1.15394
 C2505 C 0.71446 0.55925 1.13850
 O2506 O 0.73099 0.57907 1.13477
 H2507 H 0.76649 0.53825 1.17195
 H2508 H 0.71729 0.52127 1.15981
 C2509 C 1.27881 0.87072 0.95144
 C2510 C 1.27829 0.85617 0.97501
 C2511 C 1.25668 0.86530 0.98936
 C2512 C 1.24553 0.88474 0.97336
 O2513 O 1.25914 0.88810 0.95044
 H2514 H 1.29174 0.84051 0.98083
 H2515 H 1.24981 0.85823 1.00893
 C2516 C 1.27055 0.36326 0.44116
 C2517 C 1.27317 0.35202 0.46647
 C2518 C 1.25285 0.36254 0.48159
 C2519 C 1.23948 0.37952 0.46439
 O2520 O 1.25030 0.38001 0.43994
 H2521 H 1.28776 0.33762 0.47304
 H2522 H 1.24831 0.35821 0.50255
 C2523 C 0.78173 0.87262 0.45011
 C2524 C 0.78095 0.85793 0.47360
 C2525 C 0.75766 0.86524 0.48659
 C2526 C 0.74599 0.88389 0.46997
 O2527 O 0.76071 0.88834 0.44792
 H2528 H 0.79543 0.84349 0.48033
 H2529 H 0.75023 0.85768 0.50578
 C2530 C 0.76698 0.35904 0.93773
 C2531 C 0.76875 0.34583 0.96207
 C2532 C 0.74896 0.35621 0.97792
 C2533 C 0.73669 0.37499 0.96197
 O2534 O 0.74775 0.37673 0.93767
 H2535 H 0.78235 0.33016 0.96742
 H2536 H 0.74394 0.35042 0.99843
 C2537 C 0.70368 0.91116 1.05287
 C2538 C 0.69577 0.93415 1.04088
 C2539 C 0.71849 0.94357 1.02820
 C2540 C 0.73864 0.92567 1.03348
 O2541 O 0.72972 0.90595 1.04853
 H2542 H 0.67621 0.94363 1.04261
 H2543 H 0.72075 0.96221 1.01819
 C2544 C 0.70787 0.42160 0.56475
 C2545 C 0.69871 0.44593 0.55800
 C2546 C 0.71840 0.45621 0.54149
 C2547 C 0.73827 0.43742 0.53962
 O2548 O 0.73176 0.41629 0.55365
 H2549 H 0.68051 0.45537 0.56525
 H2550 H 0.71936 0.47585 0.53370
 C2551 C 0.20345 0.90975 0.55573
 C2552 C 0.19456 0.93268 0.54430
 C2553 C 0.21665 0.94286 0.53113
 C2554 C 0.23743 0.92542 0.53553
 O2555 O 0.22951 0.90530 0.55056
 H2556 H 0.17486 0.94171 0.54692
 H2557 H 0.21808 0.96169 0.52136
 C2558 C 0.20061 0.41759 1.05415
 C2559 C 0.19346 0.44181 1.04466
 C2560 C 0.21658 0.45197 1.03353
 C2561 C 0.23621 0.43324 1.03712
 O2562 O 0.22660 0.41227 1.04966
 H2563 H 0.17413 0.45149 1.04717
 H2564 H 0.21938 0.47139 1.02553
 C2565 C 0.76265 1.10738 0.83466
 C2566 C 0.77239 1.09736 0.81110
 C2567 C 0.79826 1.08958 0.81646
 C2568 C 0.80244 1.09533 0.84300
 O2569 O 0.78085 1.10634 0.85402
 H2570 H 0.76183 1.09565 0.79233
 H2571 H 0.81225 1.08064 0.80259
 C2572 C 0.76784 0.61559 0.32847
 C2573 C 0.77782 0.60596 0.30482
 C2574 C 0.80347 0.59772 0.31041
 C2575 C 0.80730 0.60284 0.33715
 O2576 O 0.78570 0.61391 0.34811
 H2577 H 0.76755 0.60483 0.28582
 H2578 H 0.81760 0.58893 0.29657
 C2579 C 0.25337 1.08638 0.34354
 C2580 C 0.25599 1.06424 0.32927
 C2581 C 0.28234 1.05684 0.33212
 C2582 C 0.29407 1.07504 0.34803
 O2583 O 0.27636 1.09302 0.35499
 H2584 H 0.24049 1.05445 0.31827
 H2585 H 0.29140 1.03971 0.32403
 C2586 C 0.26462 0.59887 0.83303
 C2587 C 0.27094 0.58356 0.81175
 C2588 C 0.29695 0.57558 0.81595
 C2589 C 0.30461 0.58646 0.83973
 O2590 O 0.28494 0.60078 0.84998
 H2591 H 0.25815 0.57878 0.79511
 H2592 H 0.30860 0.56317 0.80308
 C2593 C 1.10505 1.24508 1.14426
 C2594 C 1.09079 1.23500 1.16618
 C2595 C 1.07728 1.21438 1.15700
 C2596 C 1.08443 1.21321 1.13019
 O2597 O 1.10140 1.23179 1.12235
 H2598 H 1.08979 1.24214 1.18633
 H2599 H 1.06393 1.20159 1.16851
 C2600 C 1.11391 0.73956 0.64862
 C2601 C 1.10096 0.72647 0.66960
 C2602 C 1.08951 0.70566 0.65850
 C2603 C 1.09632 0.70755 0.63155
 O2604 O 1.11132 0.72804 0.62544
 H2605 H 1.09923 0.73194 0.69035
 H2606 H 1.07694 0.69122 0.66864
 C2607 C 0.59348 1.25965 0.59383
 C2608 C 0.58768 1.26434 0.56712
 C2609 C 0.57504 1.24275 0.55908
 C2610 C 0.57413 1.22656 0.58148
 O2611 O 0.58544 1.23666 0.60265
 H2612 H 0.59315 1.28105 0.55475
 H2613 H 0.56886 1.23855 0.53891
 C2614 C 0.61411 0.73869 1.13634
 C2615 C 0.63311 0.72073 1.14458
 C2616 C 0.62413 0.69801 1.13529
 C2617 C 0.60040 0.70387 1.12189
 O2618 O 0.59426 0.72863 1.12241
 H2619 H 0.65196 0.72412 1.15486
 H2620 H 0.63437 0.67958 1.13677
 C2621 C 0.92138 1.25166 0.84224
 C2622 C 0.94350 1.24913 0.82528
 C2623 C 0.95792 1.22885 0.83581
 C2624 C 0.94344 1.22055 0.85849
 O2625 O 0.92125 1.23444 0.86228
 H2626 H 0.94849 1.26060 0.80741
 H2627 H 0.97647 1.22099 0.82747
 C2628 C 0.93924 0.76741 0.35298
 C2629 C 0.95694 0.76204 0.33219
 C2630 C 0.96818 0.73884 0.33907
 C2631 C 0.95628 0.73173 0.36348
 O2632 O 0.93871 0.74910 0.37193
 H2633 H 0.96098 0.77355 0.31411
 H2634 H 0.98263 0.72810 0.32722
 C2635 C 0.42375 1.25113 0.34168
 C2636 C 0.44281 1.24694 0.32173
 C2637 C 0.45641 1.22521 0.32985
 C2638 C 0.44447 1.21765 0.35412
 O2639 O 0.42465 1.23343 0.36126
 H2640 H 0.44624 1.25823 0.30339
 H2641 H 0.47251 1.21572 0.31889
 C2642 C 0.43443 0.76192 0.85122
 C2643 C 0.45635 0.76018 0.83383
 C2644 C 0.46808 0.73697 0.83981
 C2645 C 0.45241 0.72615 0.86049
 O2646 O 0.43196 0.74136 0.86736
 H2647 H 0.46295 0.77410 0.81853
 H2648 H 0.48569 0.72896 0.82983
 C2649 C 1.14009 0.74287 0.92477
 C2650 C 1.16011 0.74885 0.94261
 C2651 C 1.15090 0.76998 0.95523
 C2652 C 1.12582 0.77552 0.94421
 O2653 O 1.11923 0.75907 0.92555
 H2654 H 1.17922 0.73901 0.94603
 H2655 H 1.16166 0.78039 0.97024
 C2656 C 1.13732 0.24592 0.41700
 C2657 C 1.15892 0.25519 0.43111
 C2658 C 1.14909 0.27616 0.44370
 C2659 C 1.12217 0.27828 0.43630
 O2660 O 1.11496 0.25994 0.41996
 H2661 H 1.17937 0.24749 0.43226
 H2662 H 1.16040 0.28870 0.45640
 C2663 C 0.62756 0.73414 0.43217
 C2664 C 0.63856 0.73193 0.45738
 C2665 C 0.62978 0.75309 0.47036
 C2666 C 0.61417 0.76694 0.45199
 O2667 O 0.61270 0.75523 0.42879
 H2668 H 0.65145 0.71670 0.46537
 H2669 H 0.63460 0.75763 0.49077
 C2670 C 0.62217 0.22758 0.93652
 C2671 C 0.63214 0.22533 0.96215
 C2672 C 0.62273 0.24642 0.97483
 C2673 C 0.60781 0.26025 0.95587
 O2674 O 0.60732 0.24860 0.93261
 H2675 H 0.64476 0.21012 0.97060
 H2676 H 0.62660 0.25094 0.99546
 C2677 C 0.84477 0.75279 1.09721
 C2678 C 0.82159 0.76246 1.08530
 C2679 C 0.82912 0.78546 1.07378
 C2680 C 0.85630 0.78818 1.07972
 O2681 O 0.86585 0.76838 1.09401
 H2682 H 0.80171 0.75364 1.08471
 H2683 H 0.81629 0.79872 1.06252
 C2684 C 0.84508 0.25481 0.59270
 C2685 C 0.82204 0.26242 0.57905
 C2686 C 0.82849 0.28543 0.56696
 C2687 C 0.85496 0.29025 0.57428
 O2688 O 0.86509 0.27166 0.58996
 H2689 H 0.80285 0.25235 0.57793
 H2690 H 0.81525 0.29747 0.55471
 C2691 C 0.36486 0.74141 0.58354
 C2692 C 0.35490 0.74101 0.55789
 C2693 C 0.36089 0.76431 0.54666
 C2694 C 0.37385 0.77773 0.56640
 O2695 O 0.37662 0.76357 0.58886
 H2696 H 0.34460 0.72543 0.54835
 H2697 H 0.35620 0.77031 0.52628
 C2698 C 0.37914 0.23649 1.07271
 C2699 C 0.38581 0.23587 1.04583
 C2700 C 0.38843 0.26096 1.03769
 C2701 C 0.38358 0.27498 1.06039
 O2702 O 0.37800 0.26013 1.08180
 H2703 H 0.38854 0.21910 1.03372
 H2704 H 0.39394 0.26820 1.01776
 C2705 C 1.16377 1.08554 0.75604
 C2706 C 1.18020 1.06402 0.75813
 C2707 C 1.17636 1.05458 0.78375
 C2708 C 1.15777 1.07099 0.79546
 O2709 O 1.15021 1.08978 0.77858
 H2710 H 1.19321 1.05597 0.74281
 H2711 H 1.18562 1.03743 0.79241
 C2712 C 1.15349 0.57886 0.24547
 C2713 C 1.17265 0.55945 0.24777
 C2714 C 1.17104 0.55077 0.27388
 C2715 C 1.15104 0.56556 0.28566
 O2716 O 1.14038 0.58252 0.26835
 H2717 H 1.18637 0.55254 0.23240
 H2718 H 1.18325 0.53566 0.28304
 C2719 C 0.68902 1.11547 0.27630
 C2720 C 0.69768 1.12709 0.29918
 C2721 C 0.69079 1.11056 0.31983
 C2722 C 0.67771 1.09035 0.30826
 O2723 O 0.67675 1.09323 0.28173
 H2724 H 0.70664 1.14597 0.30071
 H2725 H 0.69204 1.11432 0.34103
 C2726 C 0.66073 0.57650 0.74468
 C2727 C 0.68017 0.55758 0.74803
 C2728 C 0.67624 0.54803 0.77361
 C2729 C 0.65466 0.56194 0.78392
 O2730 O 0.64532 0.57918 0.76629
 H2731 H 0.69541 0.55154 0.73365
 H2732 H 0.68795 0.53289 0.78337
 C2733 C 0.94425 0.88426 0.72926
 C2734 C 0.97083 0.87628 0.72585
 C2735 C 0.98460 0.88641 0.74656
 C2736 C 0.96540 0.89994 0.76093
 O2737 O 0.94091 0.89874 0.75040
 H2738 H 0.97902 0.86389 0.71065
 H2739 H 1.00594 0.88376 0.75100
 C2740 C 0.94314 0.39569 0.21694
 C2741 C 0.95439 0.41897 0.20889
 C2742 C 0.96790 0.42728 0.23051
 C2743 C 0.96345 0.40891 0.25067
 O2744 O 0.94870 0.38936 0.24235
 H2745 H 0.95195 0.42928 0.18986
 H2746 H 0.97746 0.44587 0.23229
 C2747 C 0.44398 0.87437 0.22481
 C2748 C 0.47060 0.86617 0.22210
 C2749 C 0.48378 0.87576 0.24351
 C2750 C 0.46429 0.88930 0.25750
 O2751 O 0.44017 0.88856 0.24614
 H2752 H 0.47927 0.85412 0.20683
 H2753 H 0.50499 0.87304 0.24845
 C2754 C 0.43923 0.37153 0.72798
 C2755 C 0.46541 0.36213 0.72601
 C2756 C 0.47864 0.37156 0.74741
 C2757 C 0.45963 0.38621 0.76076
 O2758 O 0.43567 0.38630 0.74894
 H2759 H 0.47368 0.34940 0.71116
 H2760 H 0.49959 0.36799 0.75279
 C2761 C 1.03896 0.89701 1.29262
 C2762 C 1.01274 0.88787 1.29544
 C2763 C 1.00021 0.89501 1.27203
 C2764 C 1.01979 0.90805 1.25684
 O2765 O 1.04320 0.90929 1.26938
 H2766 H 1.00410 0.87670 1.31213
 H2767 H 0.97946 0.89090 1.26662
 C2768 C 1.04555 0.38598 0.78215
 C2769 C 1.02021 0.37480 0.78388
 C2770 C 1.00620 0.38510 0.76272
 C2771 C 1.02416 0.40173 0.74949
 O2772 O 1.04799 0.40239 0.76146
 H2773 H 1.01295 0.36062 0.79859
 H2774 H 0.98551 0.38062 0.75744
 C2775 C 0.54249 0.89499 0.78862
 C2776 C 0.51685 0.88448 0.79127
 C2777 C 0.50351 0.89225 0.76862
 C2778 C 0.52204 0.90697 0.75385
 O2779 O 0.54567 0.90872 0.76606
 H2780 H 0.50907 0.87202 0.80738
 H2781 H 0.48291 0.88739 0.76340
 C2782 C 0.55216 0.37999 1.27873
 C2783 C 0.52650 0.36987 1.28300
 C2784 C 0.51063 0.38171 1.26407
 C2785 C 0.52781 0.39816 1.24963
 O2786 O 0.55294 0.39728 1.25871
 H2787 H 0.52020 0.35523 1.29768
 H2788 H 0.48925 0.37823 1.26084
 C2789 C 0.86404 1.08480 1.25203
 C2790 C 0.85108 1.06150 1.25015
 C2791 C 0.85158 1.05631 1.22356
 C2792 C 0.86501 1.07681 1.21098
 O2793 O 0.87258 1.09418 1.22835
 H2794 H 0.84221 1.04972 1.26627
 H2795 H 0.84359 1.03922 1.21468
 C2796 C 0.86977 0.59121 0.74830
 C2797 C 0.86485 0.56522 0.74699
 C2798 C 0.86759 0.55981 0.72057
 C2799 C 0.87412 0.58291 0.70767
 O2800 O 0.87556 0.60205 0.72450
 H2801 H 0.85957 0.55185 0.76329
 H2802 H 0.86549 0.54115 0.71180
 C2803 C 0.36932 1.08578 0.74933
 C2804 C 0.35725 1.06206 0.74734
 C2805 C 0.35744 1.05722 0.72073
 C2806 C 0.36955 1.07842 0.70813
 O2807 O 0.37697 1.09579 0.72559
 H2808 H 0.34926 1.04964 0.76337
 H2809 H 0.35011 1.03990 0.71183
 C2810 C 0.37019 0.59148 1.24840
 C2811 C 0.36611 0.56529 1.24795
 C2812 C 0.36885 0.55920 1.22171
 C2813 C 0.37464 0.58210 1.20809
 O2814 O 0.37556 0.60178 1.22428
 H2815 H 0.36127 0.55226 1.26467
 H2816 H 0.36715 0.54024 1.21351
 C2817 C 1.15295 1.25085 0.90756
 C2818 C 1.17648 1.24164 0.91934
 C2819 C 1.16940 1.21895 0.93178
 C2820 C 1.14218 1.21578 0.92645
 O2821 O 1.13210 1.23508 0.91169
 H2822 H 1.19638 1.25046 0.91918
 H2823 H 1.18264 1.20602 0.94300
 C2824 C 1.11207 0.76746 0.43157
 C2825 C 1.08882 0.76486 0.44732
 C2826 C 1.08758 0.73951 0.45466
 C2827 C 1.10995 0.72843 0.44271
 O2828 O 1.12496 0.74527 0.42864
 H2829 H 1.07415 0.77956 0.45240
 H2830 H 1.07152 0.72991 0.46615
 C2831 C 0.65997 1.23987 0.39495
 C2832 C 0.68314 1.22912 0.40601
 C2833 C 0.67483 1.20672 0.41830
 C2834 C 0.64728 1.20526 0.41360
 O2835 O 0.63818 1.22532 0.39936
 H2836 H 0.70358 1.23678 0.40553
 H2837 H 0.68740 1.19292 0.42914
 C2838 C 0.62308 0.75925 0.92284
 C2839 C 0.62417 0.75989 0.95034
 C2840 C 0.61995 0.73522 0.95910
 C2841 C 0.61684 0.72121 0.93616
 O2842 O 0.61837 0.73593 0.91399
 H2843 H 0.62757 0.77648 0.96244
 H2844 H 0.61914 0.72838 0.97984
 C2845 C 0.85884 1.25392 1.09081
 C2846 C 0.84044 1.25197 1.07032
 C2847 C 0.85053 1.23344 1.05428
 C2848 C 0.87444 1.22523 1.06612
 O2849 O 0.87951 1.23774 1.08837
 H2850 H 0.82177 1.26271 1.06742
 H2851 H 0.84093 1.22638 1.03655
 C2852 C 0.86882 0.76659 0.57453
 C2853 C 0.85310 0.76528 0.55201
 C2854 C 0.86292 0.74490 0.53856
 C2855 C 0.88413 0.73505 0.55385
 O2856 O 0.88769 0.74834 0.57583
 H2857 H 0.83630 0.77760 0.54612
 H2858 H 0.85479 0.73803 0.52007
 C2859 C 0.36102 1.25900 0.56935
 C2860 C 0.34265 1.25480 0.54928
 C2861 C 0.35229 1.23406 0.53622
 C2862 C 0.37601 1.22694 0.54916
 O2863 O 0.38132 1.24213 0.56937
 H2864 H 0.32416 1.26534 0.54480
 H2865 H 0.34245 1.22484 0.51980
 C2866 C 0.36202 0.75849 1.07312
 C2867 C 0.34216 0.75213 1.05519
 C2868 C 0.35214 0.73145 1.04223
 C2869 C 0.37745 0.72658 1.05310
 O2870 O 0.38341 0.74294 1.07204
 H2871 H 0.32267 0.76136 1.05189
 H2872 H 0.34177 0.72093 1.02702
 C2873 C 0.89667 0.75772 0.86029
 C2874 C 0.91258 0.76755 0.83938
 C2875 C 0.92598 0.78773 0.84949
 C2876 C 0.91733 0.78893 0.87589
 O2877 O 0.89929 0.77081 0.88255
 H2878 H 0.91454 0.76069 0.81915
 H2879 H 0.94025 0.80025 0.83879
 C2880 C 0.88979 0.25837 0.35841
 C2881 C 0.90098 0.27111 0.33617
 C2882 C 0.91086 0.29349 0.34539
 C2883 C 0.90490 0.29286 0.37257
 O2884 O 0.89195 0.27160 0.38062
 H2885 H 0.90270 0.26442 0.31582
 H2886 H 0.92208 0.30816 0.33398
 C2887 C 0.39158 0.76036 0.35634
 C2888 C 0.40725 0.77108 0.33568
 C2889 C 0.42061 0.79090 0.34659
 C2890 C 0.41217 0.79100 0.37311
 O2891 O 0.39426 0.77262 0.37912
 H2892 H 0.40924 0.76496 0.31519
 H2893 H 0.43496 0.80373 0.33643
 C2894 C 0.38283 0.25990 0.85669
 C2895 C 0.36437 0.27868 0.84935
 C2896 C 0.37366 0.30057 0.86026
 C2897 C 0.39698 0.29343 0.87373
 O2898 O 0.40260 0.26867 0.87168
 H2899 H 0.34555 0.27630 0.83868
 H2900 H 0.36381 0.31921 0.85981
 C2901 C 1.09500 0.75938 1.16851
 C2902 C 1.10711 0.78114 1.17787
 C2903 C 1.09049 0.80094 1.17043
 C2904 C 1.06986 0.79015 1.15602
 O2905 O 1.07249 0.76475 1.15498
 H2906 H 1.12655 0.78252 1.18769
 H2907 H 1.09488 0.82121 1.17205
 C2908 C 1.07036 0.24395 0.65186
 C2909 C 1.04938 0.24732 0.67009
 C2910 C 1.03616 0.26902 0.66135
 C2911 C 1.05010 0.27744 0.63841
 O2912 O 1.07087 0.26216 0.63270
 H2913 H 1.04436 0.23551 0.68772
 H2914 H 1.01880 0.27778 0.67107
 C2915 C 0.57093 0.74285 0.64919
 C2916 C 0.55327 0.74799 0.67007
 C2917 C 0.54174 0.77110 0.66333
 C2918 C 0.55339 0.77839 0.63886
 O2919 O 0.57115 0.76123 0.63028
 H2920 H 0.54928 0.73632 0.68804
 H2921 H 0.52706 0.78155 0.67518
 C2922 C 0.58392 0.25507 1.16625
 C2923 C 0.56537 0.25974 1.18655
 C2924 C 0.54890 0.27890 1.17653
 C2925 C 0.55883 0.28451 1.15092
 O2926 O 0.57998 0.26998 1.14476
 H2927 H 0.56421 0.25055 1.20632
 H2928 H 0.53239 0.28825 1.18705
 C2929 C 1.29631 1.09232 0.94731
 C2930 C 1.30513 1.07091 0.96166
 C2931 C 1.28300 1.06249 0.97609
 C2932 C 1.26228 1.07937 0.96945
 O2933 O 1.27029 1.09747 0.95184
 H2934 H 1.32489 1.06173 0.96051
 H2935 H 1.28148 1.04491 0.98822
 C2936 C 1.29701 0.59090 0.44296
 C2937 C 1.30518 0.56669 0.45160
 C2938 C 1.28254 0.55542 0.46259
 C2939 C 1.26222 0.57361 0.45994
 O2940 O 1.27090 0.59524 0.44802
 H2941 H 1.32489 0.55778 0.44872
 H2942 H 1.28057 0.53576 0.47011
 C2943 C 0.80052 1.08436 0.44889
 C2944 C 0.80737 1.06063 0.45996
 C2945 C 0.78387 1.05108 0.47099
 C2946 C 0.76438 1.06964 0.46581
 O2947 O 0.77440 1.08989 0.45233
 H2948 H 0.82678 1.05082 0.45865
 H2949 H 0.78077 1.03207 0.47997
 C2950 C 0.79539 0.58472 0.94067
 C2951 C 0.80307 0.56000 0.94809
 C2952 C 0.77999 0.54831 0.95746
 C2953 C 0.75987 0.56673 0.95515
 O2954 O 0.76912 0.58894 0.94499
 H2955 H 0.82283 0.55112 0.94542
 H2956 H 0.77770 0.52834 0.96384
 C2957 C 1.23661 0.89315 1.17087
 C2958 C 1.22848 0.90490 1.19407
 C2959 C 1.20306 0.91417 1.18904
 C2960 C 1.19754 0.90752 1.16299
 O2961 O 1.21791 0.89460 1.15202
 H2962 H 1.23977 0.90662 1.21241
 H2963 H 1.19017 0.92442 1.20289
 C2964 C 1.23086 0.38873 0.66849
 C2965 C 1.22142 0.39890 0.69210
 C2966 C 1.19616 0.40823 0.68649
 C2967 C 1.19197 0.40308 0.65980
 O2968 O 1.21301 0.39106 0.64890
 H2969 H 1.23175 0.39960 0.71110
 H2970 H 1.18253 0.41768 0.70031
 C2971 C 0.73538 0.89686 0.67224
 C2972 C 0.72579 0.90815 0.69517
 C2973 C 0.70031 0.91659 0.68914
 C2974 C 0.69618 0.90995 0.66283
 O2975 O 0.71748 0.89779 0.65261
 H2976 H 0.73612 0.91005 0.71403
 H2977 H 0.68650 0.92637 0.70252
 C2978 C 0.74757 0.41463 1.14511
 C2979 C 0.74663 0.44028 1.15124
 C2980 C 0.72012 0.44738 1.14818
 C2981 C 0.70685 0.42554 1.14023
 O2982 O 0.72355 0.40565 1.13829
 H2983 H 0.76322 0.45232 1.15731
 H2984 H 0.71168 0.46640 1.15081
 C2985 C 0.72641 1.13614 1.06428
 C2986 C 0.72474 1.14922 1.03985
 C2987 C 0.74507 1.13943 1.02435
 C2988 C 0.75774 1.12106 1.04047
 O2989 O 0.74626 1.11892 1.06469
 H2990 H 0.71068 1.16442 1.03415
 H2991 H 0.75011 1.14524 1.00385
 C2992 C 0.72388 0.63508 0.54696
 C2993 C 0.72271 0.64755 0.52219
 C2994 C 0.74546 0.63962 0.50862
 C2995 C 0.75862 0.62284 0.52622
 O2996 O 0.74546 0.62013 0.54938
 H2997 H 0.70745 0.66106 0.51508
 H2998 H 0.75164 0.64550 0.48843
 C2999 C 0.22758 1.13772 0.55705
 C3000 C 0.22911 1.15351 0.53439
 C3001 C 0.24941 1.14343 0.51901
 C3002 C 0.25893 1.12222 0.53356
 O3003 O 0.24548 1.11873 0.55659
 H3004 H 0.21711 1.17052 0.52978
 H3005 H 0.25649 1.15108 0.49976
 C3006 C 0.24121 0.65070 1.06694
 C3007 C 0.25042 0.67088 1.05079
 C3008 C 0.27012 0.66058 1.03481
 C3009 C 0.27153 0.63478 1.04248
 O3010 O 0.25392 0.62887 1.06201
 H3011 H 0.24388 0.69076 1.05093
 H3012 H 0.28249 0.67104 1.02009
 C3013 C 0.75394 0.90995 0.84091
 C3014 C 0.76074 0.92603 0.81941
 C3015 C 0.78630 0.93440 0.82443
 C3016 C 0.79328 0.92301 0.84888
 O3017 O 0.77357 0.90801 0.85879
 H3018 H 0.74848 0.93118 0.80218
 H3019 H 0.79804 0.94749 0.81167
 C3020 C 0.75289 0.41830 0.33685
 C3021 C 0.75431 0.44150 0.32279
 C3022 C 0.77803 0.45239 0.33042
 C3023 C 0.78930 0.43501 0.34867
 O3024 O 0.77400 0.41432 0.35260
 H3025 H 0.73981 0.44953 0.30867
 H3026 H 0.78578 0.47098 0.32378
 C3027 C 0.24927 0.90913 0.34190
 C3028 C 0.25409 0.92825 0.32268
 C3029 C 0.27946 0.93706 0.32757
 C3030 C 0.28848 0.92270 0.34955
 O3031 O 0.27006 0.90564 0.35826
 H3032 H 0.24059 0.93520 0.30707
 H3033 H 0.28959 0.95262 0.31662
 C3034 C 0.24593 0.42740 0.85113
 C3035 C 0.24835 0.45123 0.83845
 C3036 C 0.27410 0.45915 0.84381
 C3037 C 0.28530 0.43956 0.85949
 O3038 O 0.26818 0.42034 0.86394
 H3039 H 0.23328 0.46148 0.82663
 H3040 H 0.28334 0.47721 0.83740
   
