data_POSCAR
  _audit_creation_date              2014-09-24
  _audit_creation_method            'ToBaCCo'
  _symmetry_space_group_name_H-M    'P1'
  _symmetry_Int_Tables_number       1
  _symmetry_cell_setting            triclinic
  loop_
  _symmetry_equiv_pos_as_xyz
 x,y,z
_cell_length_a 85.0076
_cell_length_b 86.0938
_cell_length_c 84.2093
_cell_angle_alpha 90.133100
_cell_angle_beta 89.981600
_cell_angle_gamma 90.037000
loop_
  _atom_site_label
  _atom_site_type_symbol
  _atom_site_fract_x
  _atom_site_fract_y
  _atom_site_fract_z
C1 C 0.30239 0.43506 0.92303
 C2 C 0.30134 0.42414 0.93524
 C3 C 0.31270 0.42361 0.94693
 C4 C 0.32527 0.43420 0.94658
 C5 C 0.32627 0.44508 0.93457
 C6 C 0.31475 0.44546 0.92259
 C7 C 0.29370 0.43709 0.90949
 N8 N 0.30047 0.44845 0.90065
 C9 C 0.31332 0.45375 0.90864
 C10 C 0.33998 0.45327 0.93688
 N11 N 0.34750 0.44769 0.95003
 C12 C 0.33840 0.43594 0.95592
 C13 C 0.30931 0.41096 0.95637
 N14 N 0.29619 0.40382 0.95058
 C15 C 0.29125 0.41195 0.93771
 H16 H 0.28336 0.43049 0.90618
 H17 H 0.32147 0.46242 0.90429
 H18 H 0.34423 0.46229 0.92908
 H19 H 0.34087 0.42904 0.96633
 H20 H 0.31633 0.40684 0.96621
 H21 H 0.28120 0.40907 0.93038
 C22 C 0.43781 0.82771 0.44805
 C23 C 0.42619 0.81618 0.44921
 C24 C 0.42537 0.80454 0.43792
 C25 C 0.43613 0.80426 0.42531
 C26 C 0.44756 0.81561 0.42415
 C27 C 0.44836 0.82745 0.43562
 C28 C 0.44081 0.84089 0.45679
 N29 N 0.45299 0.84884 0.45002
 C30 C 0.45761 0.84049 0.43700
 C31 C 0.45572 0.81291 0.41028
 N32 N 0.44948 0.80020 0.40299
 C33 C 0.43750 0.79485 0.41218
 C34 C 0.41238 0.79564 0.44136
 N35 N 0.40523 0.80158 0.45449
 C36 C 0.41368 0.81414 0.45937
 H37 H 0.43407 0.84447 0.46704
 H38 H 0.46694 0.84348 0.42885
 H39 H 0.46511 0.82004 0.40558
 H40 H 0.43017 0.78490 0.40949
 H41 H 0.40808 0.78598 0.43435
 H42 H 0.41084 0.82148 0.46941
 C43 C 0.93667 0.92173 0.80388
 C44 C 0.92470 0.93288 0.80465
 C45 C 0.92423 0.94338 0.81708
 C46 C 0.93584 0.94285 0.82893
 C47 C 0.94759 0.93181 0.82815
 C48 C 0.94803 0.92118 0.81550
 C49 C 0.93938 0.90956 0.79368
 N50 N 0.95220 0.90139 0.79876
 C51 C 0.95753 0.90865 0.81217
 C52 C 0.95667 0.93346 0.84152
 N53 N 0.95084 0.94529 0.85060
 C54 C 0.93803 0.95107 0.84279
 C55 C 0.91078 0.95216 0.81517
 N56 N 0.90311 0.94712 0.80195
 C57 C 0.91164 0.93537 0.79545
 H58 H 0.93220 0.90698 0.78344
 H59 H 0.96724 0.90495 0.81952
 H60 H 0.96685 0.92642 0.84416
 H61 H 0.93037 0.96022 0.84694
 H62 H 0.90662 0.96111 0.82318
 H63 H 0.90852 0.92894 0.78485
 C64 C 0.43528 -0.07667 0.30028
 C65 C 0.42369 -0.06506 0.30069
 C66 C 0.42409 -0.05391 0.31247
 C67 C 0.43593 -0.05420 0.32400
 C68 C 0.44730 -0.06565 0.32369
 C69 C 0.44697 -0.07697 0.31165
 C70 C 0.43736 -0.08946 0.29072
 N71 N 0.45010 -0.09770 0.29590
 C72 C 0.45597 -0.08995 0.30879
 C73 C 0.45645 -0.06370 0.33708
 N74 N 0.45078 -0.05139 0.34549
 C75 C 0.43828 -0.04551 0.33745
 C76 C 0.41092 -0.04485 0.31083
 N77 N 0.40236 -0.05024 0.29834
 C78 C 0.41016 -0.06258 0.29200
 H79 H 0.42983 -0.09236 0.28083
 H80 H 0.46582 -0.09348 0.31602
 H81 H 0.46603 -0.07112 0.34078
 H82 H 0.43117 -0.03575 0.34121
 H83 H 0.40770 -0.03520 0.31841
 H84 H 0.40597 -0.06970 0.28227
 C85 C 0.80035 0.31460 0.32472
 C86 C 0.80063 0.32693 0.31386
 C87 C 0.81232 0.32773 0.30242
 C88 C 0.82396 0.31614 0.30170
 C89 C 0.82354 0.30397 0.31238
 C90 C 0.81171 0.30320 0.32391
 C91 C 0.79133 0.31163 0.33798
 N92 N 0.79703 0.29871 0.34527
 C93 C 0.80945 0.29347 0.33661
 C94 C 0.83671 0.29512 0.30990
 N95 N 0.84533 0.30157 0.29803
 C96 C 0.83754 0.31442 0.29285
 C97 C 0.81006 0.34140 0.29421
 N98 N 0.79733 0.34885 0.30041
 C99 C 0.79155 0.34003 0.31243
 H100 H 0.78189 0.31885 0.34243
 H101 H 0.81665 0.28351 0.33949
 H102 H 0.83991 0.28485 0.31655
 H103 H 0.84179 0.32235 0.28385
 H104 H 0.81745 0.34579 0.28476
 H105 H 0.78145 0.34289 0.31970
 C106 C -0.18317 0.82873 0.80276
 C107 C -0.17101 0.81773 0.80280
 C108 C -0.17096 0.80588 0.81389
 C109 C -0.18316 0.80489 0.82513
 C110 C -0.19508 0.81573 0.82500
 C111 C -0.19506 0.82773 0.81380
 C112 C -0.18576 0.84199 0.79404
 N113 N -0.19897 0.84924 0.79958
 C114 C -0.20467 0.84036 0.81170
 C115 C -0.20486 0.81252 0.83750
 N116 N -0.19931 0.79989 0.84553
 C117 C -0.18594 0.79519 0.83784
 C118 C -0.15736 0.79747 0.81153
 N119 N -0.14918 0.80394 0.79931
 C120 C -0.15753 0.81632 0.79392
 H121 H -0.17804 0.84619 0.78480
 H122 H -0.21503 0.84270 0.81873
 H123 H -0.21514 0.81930 0.84042
 H124 H -0.17840 0.78567 0.84123
 H125 H -0.15351 0.78767 0.81855
 H126 H -0.15408 0.82385 0.78426
 C127 C 0.94812 0.32730 0.44048
 C128 C 0.94827 0.31616 0.42831
 C129 C 0.93684 0.30472 0.42777
 C130 C 0.92509 0.30425 0.43948
 C131 C 0.92505 0.31521 0.45150
 C132 C 0.93660 0.32682 0.45195
 C133 C 0.95684 0.34053 0.44310
 N134 N 0.95084 0.34830 0.45591
 C135 C 0.93845 0.33973 0.46136
 C136 C 0.91181 0.31276 0.46048
 N137 N 0.90367 0.30061 0.45422
 C138 C 0.91177 0.29529 0.44137
 C139 C 0.93926 0.29631 0.41406
 N140 N 0.95186 0.30237 0.40627
 C141 C 0.95743 0.31450 0.41498
 H142 H 0.96635 0.34439 0.43556
 H143 H 0.93087 0.34260 0.47124
 H144 H 0.90830 0.31956 0.47070
 H145 H 0.90795 0.28605 0.43354
 H146 H 0.93196 0.28688 0.40979
 H147 H 0.96732 0.32178 0.41181
 C148 C 0.44563 0.43144 0.82564
 C149 C 0.44624 0.41933 0.81449
 C150 C 0.43523 0.41853 0.80243
 C151 C 0.42344 0.42989 0.80135
 C152 C 0.42287 0.44180 0.81236
 C153 C 0.43401 0.44253 0.82460
 C154 C 0.45422 0.43462 0.83910
 N155 N 0.44807 0.44741 0.84645
 C156 C 0.43566 0.45226 0.83744
 C157 C 0.40982 0.45061 0.80899
 N158 N 0.40240 0.44437 0.79617
 C159 C 0.41070 0.43166 0.79144
 C160 C 0.43811 0.40508 0.79404
 N161 N 0.45059 0.39768 0.80074
 C162 C 0.45563 0.40640 0.81323
 H163 H 0.46383 0.42758 0.84338
 H164 H 0.42816 0.46212 0.83981
 H165 H 0.40575 0.46052 0.81578
 H166 H 0.40768 0.42415 0.78158
 H167 H 0.43121 0.40074 0.78419
 H168 H 0.46532 0.40351 0.82101
 C169 C 0.80415 0.92081 0.93414
 C170 C 0.80483 0.93280 0.92289
 C171 C 0.81653 0.94390 0.92389
 C172 C 0.82771 0.94318 0.93610
 C173 C 0.82707 0.93139 0.94712
 C174 C 0.81513 0.92013 0.94617
 C175 C 0.79451 0.90809 0.93571
 N176 N 0.79926 0.89952 0.94847
 C177 C 0.81195 0.90700 0.95489
 C178 C 0.83985 0.93316 0.95698
 N179 N 0.84839 0.94579 0.95227
 C180 C 0.84082 0.95194 0.93944
 C181 C 0.81484 0.95361 0.91107
 N182 N 0.80241 0.94868 0.90222
 C183 C 0.79620 0.93594 0.90944
 H184 H 0.78474 0.90551 0.92793
 H185 H 0.81888 0.90313 0.96487
 H186 H 0.84253 0.92556 0.96681
 H187 H 0.84466 0.96175 0.93245
 H188 H 0.82225 0.96348 0.90837
 H189 H 0.78648 0.92910 0.90496
 C190 C 0.30161 0.82872 0.31102
 C191 C 0.30216 0.81727 0.32288
 C192 C 0.31339 0.80565 0.32210
 C193 C 0.32419 0.80527 0.30952
 C194 C 0.32356 0.81649 0.29787
 C195 C 0.31224 0.82826 0.29866
 C196 C 0.29282 0.84205 0.30916
 N197 N 0.29794 0.84983 0.29600
 C198 C 0.30983 0.84122 0.28957
 C199 C 0.33609 0.81408 0.28786
 N200 N 0.34446 0.80168 0.29316
 C201 C 0.33718 0.79618 0.30641
 C202 C 0.31182 0.79677 0.33553
 N203 N 0.29994 0.80266 0.34453
 C204 C 0.29395 0.81521 0.33683
 H205 H 0.28385 0.84594 0.31735
 H206 H 0.31656 0.84397 0.27907
 H207 H 0.33903 0.82111 0.27765
 H208 H 0.34142 0.78676 0.31373
 H209 H 0.31894 0.78678 0.33853
 H210 H 0.28467 0.82264 0.34128
 C211 C 0.80209 0.42314 0.43733
 C212 C 0.80259 0.43415 0.42509
 C213 C 0.81409 0.44555 0.42503
 C214 C 0.82531 0.44607 0.43730
 C215 C 0.82472 0.43524 0.44932
 C216 C 0.81307 0.42375 0.44936
 C217 C 0.79304 0.41007 0.43981
 N218 N 0.79836 0.40272 0.45306
 C219 C 0.81056 0.41114 0.45899
 C220 C 0.83744 0.43775 0.45899
 N221 N 0.84603 0.44990 0.45326
 C222 C 0.83848 0.45508 0.43994
 C223 C 0.81212 0.45404 0.41131
 N224 N 0.79973 0.44806 0.40307
 C225 C 0.79387 0.43590 0.41149
 H226 H 0.78379 0.40586 0.43209
 H227 H 0.81739 0.40821 0.46939
 H228 H 0.84004 0.43091 0.46939
 H229 H 0.84243 0.46428 0.43220
 H230 H 0.81948 0.46357 0.40743
 H231 H 0.78396 0.42877 0.40802
 C232 C 0.93791 0.82660 -0.05110
 C233 C 0.92643 0.81498 -0.05190
 C234 C 0.92624 0.80463 -0.06445
 C235 C 0.93774 0.80575 -0.07639
 C236 C 0.94904 0.81726 -0.07562
 C237 C 0.94914 0.82780 -0.06287
 C238 C 0.93998 0.83890 -0.04091
 N239 N 0.95218 0.84770 -0.04620
 C240 C 0.95791 0.84092 -0.05963
 C241 C 0.95805 0.81609 -0.08911
 N242 N 0.95264 0.80407 -0.09822
 C243 C 0.94013 0.79775 -0.09035
 C244 C 0.91299 0.79552 -0.06269
 N245 N 0.90514 0.80023 -0.04943
 C246 C 0.91341 0.81207 -0.04275
 H247 H 0.93286 0.84138 -0.03056
 H248 H 0.96725 0.84556 -0.06695
 H249 H 0.96790 0.82357 -0.09180
 H250 H 0.93281 0.78830 -0.09448
 H251 H 0.90898 0.78667 -0.07089
 H252 H 0.91008 0.81839 -0.03215
 C253 C 0.30519 0.32883 0.81288
 C254 C 0.30430 0.31752 0.82488
 C255 C 0.31519 0.30562 0.82520
 C256 C 0.32710 0.30483 0.81376
 C257 C 0.32807 0.31593 0.80202
 C258 C 0.31699 0.32801 0.80155
 C259 C 0.29670 0.34213 0.80987
 N260 N 0.30303 0.34939 0.79702
 C261 C 0.31546 0.34078 0.79191
 C262 C 0.34153 0.31284 0.79340
 N263 N 0.34873 0.30017 0.79974
 C264 C 0.33985 0.29519 0.81215
 C265 C 0.31232 0.29693 0.83850
 N266 N 0.29998 0.30322 0.84649
 C267 C 0.29491 0.31581 0.83817
 H268 H 0.28691 0.34640 0.81684
 H269 H 0.32291 0.34354 0.78188
 H270 H 0.34609 0.31976 0.78372
 H271 H 0.34256 0.28541 0.81971
 H272 H 0.31896 0.28683 0.84217
 H273 H 0.28554 0.32353 0.84183
 C274 C 0.17525 0.56512 0.54722
 C275 C 0.18708 0.57646 0.54701
 C276 C 0.19826 0.57686 0.55888
 C277 C 0.19778 0.56585 0.57112
 C278 C 0.18611 0.55465 0.57138
 C279 C 0.17469 0.55430 0.55931
 C280 C 0.16225 0.56282 0.53783
 N281 N 0.15366 0.55090 0.54390
 C282 C 0.16126 0.54557 0.55704
 C283 C 0.18812 0.54618 0.58511
 N284 N 0.20071 0.55199 0.59315
 C285 C 0.20666 0.56403 0.58460
 C286 C 0.20740 0.58984 0.55641
 N287 N 0.20200 0.59738 0.54332
 C288 C 0.18960 0.58916 0.53748
 H289 H 0.15919 0.56957 0.52746
 H290 H 0.15701 0.53649 0.56480
 H291 H 0.18065 0.53681 0.58915
 H292 H 0.21670 0.57104 0.58793
 H293 H 0.21677 0.59388 0.56408
 H294 H 0.18262 0.59231 0.52724
 C295 C 0.57666 0.68387 0.04987
 C296 C 0.56412 0.67323 0.04983
 C297 C 0.55233 0.67445 0.06113
 C298 C 0.55289 0.68625 0.07263
 C299 C 0.56518 0.69672 0.07258
 C300 C 0.57709 0.69553 0.06117
 C301 C 0.59045 0.68490 0.04125
 N302 N 0.59917 0.69683 0.04720
 C303 C 0.59099 0.70339 0.05933
 C304 C 0.56358 0.70600 0.08575
 N305 N 0.55063 0.70139 0.09397
 C306 C 0.54396 0.68934 0.08594
 C307 C 0.54235 0.66207 0.05899
 N308 N 0.54773 0.65327 0.04670
 C309 C 0.56106 0.66006 0.04103
 H310 H 0.59414 0.67712 0.03185
 H311 H 0.59494 0.71306 0.06653
 H312 H 0.57155 0.71519 0.08927
 H313 H 0.53386 0.68274 0.08989
 H314 H 0.53201 0.65960 0.06604
 H315 H 0.56837 0.65546 0.03161
 C316 C 0.68777 0.19680 0.67782
 C317 C 0.67654 0.19608 0.69004
 C318 C 0.67764 0.18467 0.70156
 C319 C 0.68996 0.17383 0.70106
 C320 C 0.70103 0.17466 0.68910
 C321 C 0.69993 0.18617 0.67746
 C322 C 0.68896 0.20562 0.66419
 N323 N 0.70148 0.20044 0.65561
 C324 C 0.70826 0.18861 0.66376
 C325 C 0.71071 0.16199 0.69056
 N326 N 0.70577 0.15331 0.70306
 C327 C 0.69310 0.16056 0.70963
 C328 C 0.66468 0.18607 0.71121
 N329 N 0.65567 0.19803 0.70589
 C330 C 0.66288 0.20420 0.69292
 H331 H 0.68086 0.21458 0.66044
 H332 H 0.71836 0.18197 0.65987
 H333 H 0.72038 0.15912 0.68273
 H334 H 0.68611 0.15608 0.71934
 H335 H 0.66198 0.17878 0.72130
 H336 H 0.65827 0.21354 0.68572
 C337 C 1.07360 0.06612 0.20221
 C338 C 1.06210 0.07774 0.20256
 C339 C 1.05058 0.07816 0.19102
 C340 C 1.05040 0.06686 0.17900
 C341 C 1.06171 0.05537 0.17864
 C342 C 1.07350 0.05501 0.19034
 C343 C 1.08687 0.06383 0.21115
 N344 N 1.09503 0.05164 0.20500
 C345 C 1.08685 0.04611 0.19229
 C346 C 1.05909 0.04667 0.16516
 N347 N 1.04644 0.05257 0.15719
 C348 C 1.04115 0.06499 0.16578
 C349 C 1.04193 0.09147 0.19350
 N350 N 1.04800 0.09917 0.20622
 C351 C 1.06031 0.09074 0.21186
 H352 H 1.09045 0.07080 0.22123
 H353 H 1.09069 0.03681 0.18454
 H354 H 1.06639 0.03708 0.16136
 H355 H 1.03130 0.07236 0.16287
 H356 H 1.03246 0.09563 0.18605
 H357 H 1.06772 0.09397 0.22177
 C358 C 0.06168 0.17360 1.05197
 C359 C 0.07350 0.18492 1.05156
 C360 C 0.07454 0.19582 1.06354
 C361 C 0.06371 0.19556 1.07610
 C362 C 0.05202 0.18442 1.07654
 C363 C 0.05102 0.17325 1.06437
 C364 C 0.05878 0.16096 1.04250
 N365 N 0.04666 0.15272 1.04881
 C366 C 0.04176 0.16023 1.06218
 C367 C 0.04376 0.18668 1.09045
 N368 N 0.05016 0.19892 1.09857
 C369 C 0.06243 0.20430 1.08967
 C370 C 0.08784 0.20454 1.06071
 N371 N 0.09494 0.19910 1.04732
 C372 C 0.08614 0.18712 1.04164
 H373 H 0.06528 0.15788 1.03191
 H374 H 0.03266 0.15618 1.07014
 H375 H 0.03410 0.17949 1.09439
 H376 H 0.06999 0.21400 1.09252
 H377 H 0.09241 0.21364 1.06830
 H378 H 0.08887 0.18024 1.03123
 C379 C 0.17723 0.69619 0.68723
 C380 C 0.18804 0.69527 0.67465
 C381 C 0.19955 0.68390 0.67470
 C382 C 0.20047 0.67332 0.68733
 C383 C 0.18988 0.67433 0.69973
 C384 C 0.17822 0.68581 0.69967
 C385 C 0.16395 0.70504 0.68969
 N386 N 0.15682 0.70019 0.70328
 C387 C 0.16559 0.68847 0.70947
 C388 C 0.19258 0.66193 0.70958
 N389 N 0.20450 0.65326 0.70346
 C390 C 0.20945 0.66023 0.68985
 C391 C 0.20770 0.68516 0.66066
 N392 N 0.20147 0.69701 0.65206
 C393 C 0.18941 0.70324 0.66057
 H394 H 0.15938 0.71378 0.68171
 H395 H 0.16283 0.68204 0.72013
 H396 H 0.18600 0.65927 0.72023
 H397 H 0.21834 0.65571 0.68189
 H398 H 0.21745 0.67791 0.65700
 H399 H 0.18185 0.71258 0.65662
 C400 C 1.18532 0.17401 0.19817
 C401 C 1.17315 0.18502 0.19815
 C402 C 1.17253 0.19624 0.18642
 C403 C 1.18408 0.19660 0.17450
 C404 C 1.19602 0.18579 0.17459
 C405 C 1.19668 0.17447 0.18647
 C406 C 1.18831 0.16110 0.20734
 N407 N 1.20121 0.15371 0.20143
 C408 C 1.20641 0.16194 0.18870
 C409 C 1.20494 0.18818 0.16125
 N410 N 1.19881 0.20026 0.15280
 C411 C 1.18600 0.20549 0.16105
 C412 C 1.15908 0.20479 0.18893
 N413 N 1.15150 0.19905 0.20189
 C414 C 1.16008 0.18694 0.20757
 H415 H 1.18118 0.15704 0.21714
 H416 H 1.21640 0.15895 0.18135
 H417 H 1.21516 0.18136 0.15816
 H418 H 1.17812 0.21466 0.15741
 H419 H 1.15489 0.21418 0.18153
 H420 H 1.15707 0.17996 0.21780
 C421 C 0.67749 1.05246 0.56059
 C422 C 0.68925 1.05182 0.57219
 C423 C 0.70015 1.06364 0.57342
 C424 C 0.69947 1.07624 0.56290
 C425 C 0.68791 1.07686 0.55139
 C426 C 0.67672 1.06488 0.55027
 C427 C 0.66461 1.04327 0.55783
 N428 N 0.65582 1.04979 0.54615
 C429 C 0.66323 1.06300 0.54134
 C430 C 0.68972 1.09072 0.54348
 N431 N 0.70212 1.09868 0.54987
 C432 C 0.70804 1.08973 0.56183
 C433 C 0.70918 1.06060 0.58666
 N434 N 0.70391 1.04726 0.59350
 C435 C 0.69176 1.04181 0.58459
 H436 H 0.66168 1.03276 0.56422
 H437 H 0.65874 1.07107 0.53262
 H438 H 0.68209 1.09473 0.53409
 H439 H 0.71797 1.09251 0.56932
 H440 H 0.71834 1.06801 0.59141
 H441 H 0.68493 1.03150 0.58710
 C442 C 0.56028 0.55274 0.17673
 C443 C 0.57159 0.55314 0.18888
 C444 C 0.57085 0.56454 0.20049
 C445 C 0.55883 0.57570 0.20014
 C446 C 0.54768 0.57519 0.18825
 C447 C 0.54840 0.56367 0.17653
 C448 C 0.55883 0.54403 0.16302
 N449 N 0.54641 0.54953 0.15454
 C450 C 0.53995 0.56149 0.16283
 C451 C 0.53842 0.58817 0.18981
 N452 N 0.54373 0.59670 0.20232
 C453 C 0.55618 0.58906 0.20878
 C454 C 0.58386 0.56285 0.21000
 N455 N 0.59255 0.55071 0.20451
 C456 C 0.58509 0.54472 0.19157
 H457 H 0.56673 0.53492 0.15916
 H458 H 0.53001 0.56840 0.15906
 H459 H 0.52883 0.59136 0.18204
 H460 H 0.56339 0.59335 0.21844
 H461 H 0.58683 0.57008 0.22009
 H462 H 0.58945 0.53531 0.18425
 C463 C 0.67215 0.68251 0.19573
 C464 C 0.68448 0.67170 0.19617
 C465 C 0.69619 0.67228 0.18484
 C466 C 0.69575 0.68354 0.17290
 C467 C 0.68359 0.69418 0.17234
 C468 C 0.67167 0.69369 0.18392
 C469 C 0.65883 0.68427 0.20481
 N470 N 0.65021 0.69623 0.19889
 C471 C 0.65801 0.70205 0.18609
 C472 C 0.68577 0.70294 0.15878
 N473 N 0.69890 0.69775 0.15115
 C474 C 0.70505 0.68594 0.15983
 C475 C 0.70597 0.65984 0.18736
 N476 N 0.70047 0.65155 0.19992
 C477 C 0.68733 0.65882 0.20544
 H478 H 0.65570 0.67730 0.21501
 H479 H 0.65388 0.71140 0.17861
 H480 H 0.67802 0.71197 0.15450
 H481 H 0.71548 0.67936 0.15680
 H482 H 0.71618 0.65691 0.18029
 H483 H 0.67993 0.65466 0.21498
 C484 C 0.17397 0.06769 1.05168
 C485 C 0.18548 0.07943 1.05226
 C486 C 0.19731 0.07876 1.06356
 C487 C 0.19786 0.06643 1.07441
 C488 C 0.18663 0.05489 1.07371
 C489 C 0.17467 0.05552 1.06233
 C490 C 0.16024 0.06585 1.04308
 N491 N 0.15265 0.05294 1.04842
 C492 C 0.16153 0.04656 1.06011
 C493 C 0.18905 0.04521 1.08639
 N494 N 0.20144 0.05062 1.09499
 C495 C 0.20698 0.06358 1.08764
 C496 C 0.20619 0.09202 1.06205
 N497 N 0.20013 0.10078 1.05011
 C498 C 0.18744 0.09314 1.04407
 H499 H 0.15575 0.07376 1.03420
 H500 H 0.15851 0.03628 1.06684
 H501 H 0.18195 0.03518 1.08934
 H502 H 0.21635 0.07093 1.09205
 H503 H 0.21632 0.09503 1.06920
 H504 H 0.17986 0.09743 1.03473
 C505 C 0.57429 0.19737 0.56284
 C506 C 0.56288 0.19698 0.57481
 C507 C 0.55183 0.18521 0.57518
 C508 C 0.55200 0.17367 0.56334
 C509 C 0.56329 0.17411 0.55148
 C510 C 0.57458 0.18601 0.55127
 C511 C 0.58734 0.20652 0.56075
 N512 N 0.59574 0.20096 0.54824
 C513 C 0.58792 0.18844 0.54228
 C514 C 0.56135 0.16104 0.54232
 N515 N 0.54919 0.15258 0.54825
 C516 C 0.54341 0.16026 0.56114
 C517 C 0.54329 0.18708 0.58900
 N518 N 0.54902 0.19964 0.59699
 C519 C 0.56094 0.20576 0.58827
 H520 H 0.59068 0.21626 0.56817
 H521 H 0.59207 0.18107 0.53273
 H522 H 0.56842 0.15793 0.53211
 H523 H 0.53402 0.15616 0.56874
 H524 H 0.53414 0.17941 0.59328
 H525 H 0.56800 0.21571 0.59161
 C526 C 0.07568 0.56561 0.69979
 C527 C 0.06402 0.57719 0.69942
 C528 C 0.05228 0.57658 0.68802
 C529 C 0.05200 0.56447 0.67683
 C530 C 0.06339 0.55309 0.67732
 C531 C 0.07523 0.55365 0.68883
 C532 C 0.08934 0.56377 0.70849
 N533 N 0.09713 0.55106 0.70291
 C534 C 0.08845 0.54480 0.69096
 C535 C 0.06124 0.54367 0.66432
 N536 N 0.04885 0.54909 0.65577
 C537 C 0.04305 0.56179 0.66343
 C538 C 0.04323 0.58968 0.68980
 N539 N 0.04911 0.59833 0.70196
 C540 C 0.06185 0.59074 0.70791
 H541 H 0.09364 0.57154 0.71763
 H542 H 0.09163 0.53469 0.68402
 H543 H 0.06852 0.53384 0.66113
 H544 H 0.03361 0.56909 0.65914
 H545 H 0.03312 0.59267 0.68263
 H546 H 0.06936 0.59497 0.71735
 C547 C 0.67366 0.55383 0.06093
 C548 C 0.68468 0.55288 0.07329
 C549 C 0.69656 0.56379 0.07448
 C550 C 0.69758 0.57583 0.06333
 C551 C 0.68673 0.57678 0.05115
 C552 C 0.67467 0.56570 0.04996
 C553 C 0.66034 0.54541 0.05744
 N554 N 0.65319 0.55185 0.04460
 C555 C 0.66194 0.56428 0.03995
 C556 C 0.69005 0.59006 0.04272
 N557 N 0.70266 0.59722 0.04948
 C558 C 0.70733 0.58853 0.06210
 C559 C 0.70490 0.56053 0.08808
 N560 N 0.69837 0.54792 0.09521
 C561 C 0.68600 0.54317 0.08616
 H562 H 0.65589 0.53567 0.06419
 H563 H 0.65921 0.57189 0.03013
 H564 H 0.68337 0.59444 0.03276
 H565 H 0.71703 0.59126 0.06994
 H566 H 0.71462 0.56728 0.09273
 H567 H 0.67836 0.53345 0.08879
 C568 C 0.06412 0.69795 0.57136
 C569 C 0.07593 0.69707 0.55970
 C570 C 0.07510 0.68580 0.54795
 C571 C 0.06249 0.67528 0.54765
 C572 C 0.05086 0.67628 0.55903
 C573 C 0.05167 0.68764 0.57091
 C574 C 0.06249 0.70663 0.58507
 N575 N 0.04941 0.70170 0.59292
 C576 C 0.04272 0.69015 0.58422
 C577 C 0.04094 0.66387 0.55688
 N578 N 0.04631 0.65517 0.54452
 C579 C 0.05947 0.66217 0.53872
 C580 C 0.08851 0.68701 0.53893
 N581 N 0.09752 0.69874 0.54483
 C582 C 0.08989 0.70493 0.55756
 H583 H 0.07066 0.71531 0.58938
 H584 H 0.03227 0.68372 0.58747
 H585 H 0.03082 0.66117 0.56416
 H586 H 0.06685 0.65760 0.52935
 H587 H 0.09147 0.67980 0.52882
 H588 H 0.09435 0.71415 0.56507
 C589 C 0.56385 1.05136 0.67544
 C590 C 0.57593 1.05104 0.68677
 C591 C 0.57646 1.06215 0.69862
 C592 C 0.56488 1.07373 0.69932
 C593 C 0.55299 1.07403 0.68820
 C594 C 0.55251 1.06277 0.67612
 C595 C 0.56098 1.04264 0.66205
 N596 N 0.54814 1.04846 0.65436
 C597 C 0.54293 1.06082 0.66312
 C598 C 0.54396 1.08694 0.69132
 N599 N 0.55004 1.09465 0.70413
 C600 C 0.56290 1.08644 0.70901
 C601 C 0.58995 1.05959 0.70727
 N602 N 0.59765 1.04718 0.70095
 C603 C 0.58907 1.04188 0.68842
 H604 H 0.56830 1.03314 0.65808
 H605 H 0.53300 1.06817 0.66040
 H606 H 0.53398 1.09048 0.68427
 H607 H 0.57057 1.08930 0.71881
 H608 H 0.59412 1.06666 0.71704
 H609 H 0.59218 1.03217 0.68087
 C610 C 0.44593 0.32824 0.93763
 C611 C 0.44535 0.31656 0.92593
 C612 C 0.43375 0.30529 0.92658
 C613 C 0.42262 0.30546 0.93885
 C614 C 0.42326 0.31689 0.95033
 C615 C 0.43497 0.32831 0.94969
 C616 C 0.45515 0.34129 0.93962
 N617 N 0.44999 0.34941 0.95260
 C618 C 0.43761 0.34129 0.95875
 C619 C 0.41043 0.31495 0.96006
 N620 N 0.40190 0.30264 0.95473
 C621 C 0.40935 0.29672 0.94176
 C622 C 0.43543 0.29601 0.91341
 N623 N 0.44775 0.30131 0.90468
 C624 C 0.45392 0.31389 0.91229
 H625 H 0.46454 0.34469 0.93171
 H626 H 0.43066 0.34440 0.96900
 H627 H 0.40741 0.32223 0.97010
 H628 H 0.40508 0.28724 0.93448
 H629 H 0.42812 0.28613 0.91043
 H630 H 0.46359 0.32090 0.90798
 C631 C 0.94392 0.43583 0.32567
 C632 C 0.94494 0.42483 0.31332
 C633 C 0.93409 0.42516 0.30110
 C634 C 0.92207 0.43623 0.30104
 C635 C 0.92097 0.44695 0.31319
 C636 C 0.93201 0.44674 0.32557
 C637 C 0.95229 0.43801 0.33951
 N638 N 0.94576 0.44999 0.34792
 C639 C 0.93328 0.45527 0.33928
 C640 C 0.90737 0.45531 0.31075
 N641 N 0.90016 0.44980 0.29746
 C642 C 0.90918 0.43817 0.29143
 C643 C 0.93696 0.41264 0.29147
 N644 N 0.94924 0.40448 0.29750
 C645 C 0.95429 0.41193 0.31085
 H646 H 0.96211 0.43093 0.34321
 H647 H 0.92556 0.46475 0.34242
 H648 H 0.90266 0.46416 0.31856
 H649 H 0.90641 0.43130 0.28102
 H650 H 0.93028 0.40956 0.28098
 H651 H 0.96353 0.40787 0.31864
 C652 C 0.30481 0.93348 0.42320
 C653 C 0.30464 0.92203 0.43499
 C654 C 0.31658 0.92137 0.44605
 C655 C 0.32885 0.93227 0.44550
 C656 C 0.32897 0.94363 0.43395
 C657 C 0.31683 0.94421 0.42264
 C658 C 0.29520 0.93616 0.41043
 N659 N 0.30098 0.94833 0.40184
 C660 C 0.31427 0.95333 0.40946
 C661 C 0.34249 0.95220 0.43606
 N662 N 0.35074 0.94633 0.44862
 C663 C 0.34227 0.93407 0.45437
 C664 C 0.31382 0.90854 0.45541
 N665 N 0.30048 0.90138 0.45025
 C666 C 0.29480 0.90968 0.43777
 H667 H 0.28477 0.92946 0.40780
 H668 H 0.32201 0.96252 0.40557
 H669 H 0.34608 0.96172 0.42855
 H670 H 0.34533 0.92688 0.46440
 H671 H 0.32134 0.90442 0.46487
 H672 H 0.28433 0.90692 0.43104
 O673 O 0.25099 0.54160 0.72830
 O674 O 0.27785 0.53607 0.72966
 O675 O 0.23071 0.50253 0.70471
 O676 O 0.23007 0.47670 0.70781
 O677 O 0.21007 0.51994 0.74776
 O678 O 0.21645 0.51692 0.77527
 O679 O 0.27179 0.45841 0.74463
 O680 O 0.26775 0.46404 0.71779
 O681 O 0.29315 0.49581 0.76593
 O682 O 0.28838 0.52423 0.76629
 O683 O 0.25329 0.47718 0.78678
 O684 O 0.22500 0.47850 0.78179
 O685 O 0.25351 0.45769 0.76436
 O686 O 0.22428 0.46344 0.76342
 O687 O 0.27257 0.49543 0.78752
 O688 O 0.27153 0.52414 0.78319
 O689 O 0.29220 0.47816 0.74585
 O690 O 0.28663 0.48501 0.71762
 O691 O 0.23291 0.54095 0.74825
 O692 O 0.23450 0.53363 0.77597
 O693 O 0.20924 0.50208 0.72786
 O694 O 0.21513 0.47390 0.72837
 O695 O 0.24976 0.52107 0.70547
 O696 O 0.27818 0.51693 0.71080
 Zr697 Zr 0.26009 0.51887 0.72808
 O698 O 0.27526 0.50431 0.74104
 Zr699 Zr 0.23182 0.49213 0.72730
 O700 O 0.24598 0.47628 0.73985
 Zr701 Zr 0.23314 0.51791 0.75669
 O702 O 0.24704 0.50309 0.77075
 Zr703 Zr 0.26982 0.48109 0.73583
 O704 O 0.25567 0.49562 0.72151
 Zr705 Zr 0.27093 0.50669 0.76545
 O706 O 0.25705 0.52273 0.75261
 Zr707 Zr 0.24285 0.47983 0.76432
 O708 O 0.22733 0.49462 0.75175
 O709 O 0.23630 0.51527 0.73242
 O710 O 0.26666 0.48347 0.76024
 C711 C 0.24048 0.54802 0.73715
 C712 C 0.23858 0.51372 0.69843
 C713 C 0.20290 0.51271 0.73650
 C714 C 0.26464 0.45153 0.75610
 C715 C 0.29918 0.48479 0.75756
 C716 C 0.26478 0.48416 0.79368
 H717 H 0.28632 0.50668 0.73830
 H718 H 0.24470 0.50503 0.78208
 H719 H 0.22954 0.52236 0.72620
 H720 H 0.24342 0.46552 0.73662
 H721 H 0.26435 0.46956 0.70807
 H722 H 0.23770 0.46825 0.70970
 H723 H 0.26253 0.52239 0.79040
 H724 H 0.24492 0.53871 0.77527
 H725 H 0.29384 0.47596 0.71734
 H726 H 0.27716 0.52565 0.70318
 H727 H 0.22582 0.48791 0.78850
 H728 H 0.21114 0.50672 0.77432
 H729 H 0.27794 0.53977 0.74080
 H730 H 0.29483 0.52336 0.75655
 H731 H 0.20941 0.47509 0.73854
 H732 H 0.22616 0.45650 0.75424
 O733 O 0.20839 0.02271 0.25024
 O734 O 0.21374 0.02067 0.27721
 O735 O 0.24988 0.04331 0.23070
 O736 O 0.27563 0.03816 0.22952
 O737 O 0.22925 0.00314 0.20834
 O738 O 0.22948 -0.02386 0.21394
 O739 O 0.29099 0.00012 0.27077
 O740 O 0.28712 0.02662 0.26813
 O741 O 0.25084 -0.01841 0.29168
 O742 O 0.22266 -0.01715 0.28650
 O743 O 0.26894 -0.03922 0.25061
 O744 O 0.26861 -0.03361 0.22265
 O745 O 0.29049 -0.01866 0.25172
 O746 O 0.28454 -0.01632 0.22212
 O747 O 0.25063 -0.03910 0.27027
 O748 O 0.22163 -0.03269 0.26860
 O749 O 0.27071 -0.00074 0.29155
 O750 O 0.26581 0.02759 0.28693
 O751 O 0.20752 0.00401 0.23109
 O752 O 0.21284 -0.02378 0.23230
 O753 O 0.24844 0.02152 0.20806
 O754 O 0.27701 0.01829 0.21431
 O755 O 0.23066 0.04361 0.24948
 O756 O 0.23467 0.03731 0.27810
 Zr757 Zr 0.23130 0.02111 0.25937
 O758 O 0.24475 0.00674 0.27433
 Zr759 Zr 0.25847 0.02045 0.23096
 O760 O 0.27340 0.00668 0.24506
 Zr761 Zr 0.23015 -0.00615 0.23135
 O762 O 0.24408 -0.02143 0.24484
 Zr763 Zr 0.26864 0.01017 0.26927
 O764 O 0.25530 0.02571 0.25522
 Zr765 Zr 0.24060 -0.01675 0.26906
 O766 O 0.22548 -0.00242 0.25556
 Zr767 Zr 0.26809 -0.01679 0.24100
 O768 O 0.25408 -0.00305 0.22567
 O769 O 0.23468 0.01721 0.23524
 O770 O 0.26451 -0.01335 0.26518
 C771 C 0.20123 0.01505 0.23927
 C772 C 0.23888 0.05014 0.23853
 C773 C 0.23725 0.01382 0.20141
 C774 C 0.29728 -0.01120 0.26310
 C775 C 0.26261 -0.01154 0.29821
 C776 C 0.26147 -0.04574 0.26205
 H777 H 0.24240 0.00924 0.28555
 H778 H 0.24133 -0.03226 0.24206
 H779 H 0.22804 0.02401 0.22857
 H780 H 0.28451 0.00914 0.24263
 H781 H 0.28229 0.03660 0.26492
 H782 H 0.28340 0.03605 0.23797
 H783 H 0.22343 -0.04002 0.25972
 H784 H 0.20752 -0.02271 0.24271
 H785 H 0.27482 0.02684 0.29436
 H786 H 0.22657 0.04556 0.27724
 H787 H 0.25831 -0.03896 0.22264
 H788 H 0.23997 -0.02394 0.20883
 H789 H 0.20913 0.01012 0.27707
 H790 H 0.22355 -0.00749 0.29282
 H791 H 0.27472 0.00898 0.20779
 H792 H 0.29246 -0.00823 0.22454
 O793 O 0.49602 0.77061 0.29001
 O794 O 0.52299 0.76774 0.28641
 O795 O 0.48047 0.79275 0.24722
 O796 O 0.48067 0.78815 0.22116
 O797 O 0.45561 0.75291 0.26564
 O798 O 0.46037 0.72565 0.26452
 O799 O 0.52148 0.74952 0.20742
 O800 O 0.51938 0.77602 0.21214
 O801 O 0.53878 0.72889 0.24830
 O802 O 0.53203 0.73017 0.27670
 O803 O 0.49930 0.71021 0.22691
 O804 O 0.47174 0.71633 0.22573
 O805 O 0.50205 0.73138 0.20606
 O806 O 0.47248 0.73419 0.21029
 O807 O 0.51694 0.70913 0.24712
 O808 O 0.51384 0.71510 0.27628
 O809 O 0.54055 0.74736 0.22917
 O810 O 0.53661 0.77565 0.23482
 O811 O 0.47671 0.75230 0.28885
 O812 O 0.47724 0.72470 0.28269
 O813 O 0.45734 0.77157 0.24668
 O814 O 0.46535 0.76889 0.21821
 O815 O 0.49743 0.79200 0.26809
 O816 O 0.52584 0.78494 0.26593
 Zr817 Zr 0.50665 0.76923 0.26750
 O818 O 0.52202 0.75478 0.25449
 Zr819 Zr 0.48057 0.77006 0.23808
 O820 O 0.49513 0.75626 0.22362
 Zr821 Zr 0.47814 0.74280 0.26579
 O822 O 0.49209 0.72747 0.25228
 Zr823 Zr 0.51879 0.75895 0.23020
 O824 O 0.50442 0.77454 0.24318
 Zr825 Zr 0.51592 0.73136 0.25757
 O826 O 0.50183 0.74566 0.27229
 Zr827 Zr 0.49010 0.73280 0.22800
 O828 O 0.47433 0.74665 0.24140
 O829 O 0.48297 0.76614 0.26223
 O830 O 0.51381 0.73547 0.23335
 C831 C 0.48452 0.76297 0.29615
 C832 C 0.48752 0.79907 0.25909
 C833 C 0.44972 0.76400 0.25736
 C834 C 0.51392 0.73868 0.20018
 C835 C 0.54619 0.73590 0.23709
 C836 C 0.50969 0.70309 0.23522
 H837 H 0.53303 0.75687 0.25766
 H838 H 0.48888 0.71667 0.25454
 H839 H 0.47613 0.77300 0.26866
 H840 H 0.49354 0.75909 0.21236
 H841 H 0.51625 0.78595 0.21719
 H842 H 0.48970 0.78617 0.21405
 H843 H 0.50481 0.70824 0.27386
 H844 H 0.48718 0.72523 0.28879
 H845 H 0.54451 0.77493 0.22618
 H846 H 0.52463 0.79298 0.27430
 H847 H 0.47081 0.71087 0.23600
 H848 H 0.45599 0.72617 0.25364
 H849 H 0.52238 0.75699 0.29051
 H850 H 0.53892 0.73941 0.27613
 H851 H 0.45840 0.75980 0.21984
 H852 H 0.47553 0.74248 0.20277
 O853 O 0.04376 0.73019 0.74927
 O854 O 0.03836 0.73302 0.77621
 O855 O 0.00190 0.70986 0.73012
 O856 O -0.02379 0.71536 0.72917
 O857 O 0.02337 0.74880 0.70680
 O858 O 0.02335 0.77605 0.71172
 O859 O -0.03844 0.75503 0.76940
 O860 O -0.03514 0.72835 0.76727
 O861 O 0.00216 0.77330 0.78971
 O862 O 0.03043 0.77112 0.78440
 O863 O -0.01570 0.79321 0.74829
 O864 O -0.01528 0.78696 0.72041
 O865 O -0.03742 0.77311 0.74978
 O866 O -0.03154 0.76991 0.72019
 O867 O 0.00259 0.79321 0.76794
 O868 O 0.03154 0.78640 0.76627
 O869 O -0.01799 0.75595 0.79005
 O870 O -0.01381 0.72743 0.78609
 O871 O 0.04495 0.74835 0.72968
 O872 O 0.04017 0.77618 0.73002
 O873 O 0.00350 0.73113 0.70715
 O874 O -0.02493 0.73478 0.71340
 O875 O 0.02114 0.70968 0.74887
 O876 O 0.01714 0.71674 0.77737
 Zr877 Zr 0.02085 0.73243 0.75832
 O878 O 0.00770 0.74748 0.77296
 Zr879 Zr -0.00636 0.73285 0.73003
 O880 O -0.02098 0.74734 0.74375
 Zr881 Zr 0.02252 0.75887 0.72959
 O882 O 0.00897 0.77482 0.74278
 Zr883 Zr -0.01628 0.74441 0.76804
 O884 O -0.00326 0.72820 0.75439
 Zr885 Zr 0.01235 0.77072 0.76712
 O886 O 0.02713 0.75573 0.75390
 Zr887 Zr -0.01511 0.77056 0.73908
 O888 O -0.00148 0.75608 0.72408
 O889 O 0.01750 0.73574 0.73412
 O890 O -0.01162 0.76770 0.76333
 C891 C 0.05105 0.73745 0.73814
 C892 C 0.01284 0.70305 0.73802
 C893 C 0.01493 0.73820 0.70022
 C894 C -0.04442 0.76624 0.76136
 C895 C -0.00973 0.76681 0.79642
 C896 C -0.00823 0.79980 0.75971
 H897 H 0.01001 0.74524 0.78423
 H898 H 0.01192 0.78552 0.73978
 H899 H 0.02401 0.72865 0.72760
 H900 H -0.03214 0.74506 0.74138
 H901 H -0.03053 0.71817 0.76436
 H902 H -0.03163 0.71798 0.73742
 H903 H 0.02978 0.79358 0.75728
 H904 H 0.04532 0.77550 0.74054
 H905 H -0.02282 0.72856 0.79350
 H906 H 0.02510 0.70834 0.77669
 H907 H -0.00487 0.79210 0.72030
 H908 H 0.01287 0.77605 0.70659
 H909 H 0.04319 0.74348 0.77581
 H910 H 0.02911 0.76186 0.79120
 H911 H -0.02258 0.74391 0.70668
 H912 H -0.03967 0.76211 0.72284
 O913 O 0.04002 0.02122 0.00311
 O914 O 0.03506 0.01723 -0.02389
 O915 O -0.00171 0.04201 0.02133
 O916 O -0.02758 0.03677 0.02142
 O917 O 0.01896 0.00347 0.04554
 O918 O 0.01866 -0.02392 0.04135
 O919 O -0.04213 -0.00413 -0.01748
 O920 O -0.03877 0.02268 -0.01587
 O921 O -0.00139 -0.02277 -0.03698
 O922 O 0.02680 -0.02064 -0.03140
 O923 O -0.02008 -0.04168 0.00440
 O924 O -0.01930 -0.03467 0.03269
 O925 O -0.04156 -0.02147 0.00286
 O926 O -0.03602 -0.01817 0.03201
 O927 O -0.00123 -0.04225 -0.01470
 O928 O 0.02764 -0.03552 -0.01295
 O929 O -0.02145 -0.00536 -0.03790
 O930 O -0.01726 0.02318 -0.03451
 O931 O 0.04074 0.00316 0.02282
 O932 O 0.03581 -0.02456 0.02346
 O933 O -0.00083 0.02120 0.04464
 O934 O -0.02905 0.01778 0.03821
 O935 O 0.01726 0.04151 0.00229
 O936 O 0.01405 0.03369 -0.02594
 Zr937 Zr 0.01724 0.01855 -0.00635
 O938 O 0.00407 0.00331 -0.02074
 Zr939 Zr -0.01035 0.01908 0.02165
 O940 O -0.02490 0.00426 0.00819
 Zr941 Zr 0.01826 -0.00718 0.02304
 O942 O 0.00483 -0.02338 0.01005
 Zr943 Zr -0.01996 0.00658 -0.01612
 O944 O -0.00689 0.02304 -0.00280
 Zr945 Zr 0.00854 -0.01980 -0.01432
 O946 O 0.02327 -0.00466 -0.00126
 Zr947 Zr -0.01925 -0.01891 0.01343
 O948 O -0.00577 -0.00406 0.02820
 O949 O 0.01353 0.01588 0.01789
 O950 O -0.01546 -0.01661 -0.01084
 C951 C 0.04706 0.01400 0.01444
 C952 C 0.00915 0.04852 0.01303
 C953 C 0.01049 0.01424 0.05182
 C954 C -0.04835 -0.01497 -0.00905
 C955 C -0.01314 -0.01635 -0.04396
 C956 C -0.01238 -0.04858 -0.00669
 H957 H 0.00650 0.00529 -0.03204
 H958 H 0.00769 -0.03402 0.01331
 H959 H 0.02001 0.02309 0.02431
 H960 H -0.03607 0.00663 0.01040
 H961 H -0.03415 0.03290 -0.01312
 H962 H -0.03579 0.03348 0.01382
 H963 H 0.02582 -0.04242 -0.00376
 H964 H 0.04101 -0.02433 0.01294
 H965 H -0.02621 0.02194 -0.04196
 H966 H 0.02213 0.04199 -0.02543
 H967 H -0.00940 -0.04068 0.03222
 H968 H 0.00806 -0.02381 0.04623
 H969 H 0.04002 0.00688 -0.02284
 H970 H 0.02572 -0.01142 -0.03829
 H971 H -0.02706 0.00856 0.04491
 H972 H -0.04354 -0.00973 0.02964
 O973 O 0.02078 0.50279 0.54139
 O974 O 0.01902 0.47621 0.53651
 O975 O 0.04004 0.52140 0.49853
 O976 O 0.03406 0.52161 0.47264
 O977 O -0.00047 0.54289 0.52000
 O978 O -0.02763 0.53687 0.52076
 O979 O -0.00454 0.48011 0.45915
 O980 O 0.02239 0.48357 0.46197
 O981 O -0.02137 0.46045 0.50087
 O982 O -0.01934 0.46620 0.52900
 O983 O -0.04362 0.49924 0.48172
 O984 O -0.03873 0.52712 0.48217
 O985 O -0.02331 0.49892 0.45982
 O986 O -0.02184 0.52781 0.46539
 O987 O -0.04268 0.48115 0.50128
 O988 O -0.03521 0.48344 0.53030
 O989 O -0.00401 0.46034 0.48036
 O990 O 0.02468 0.46579 0.48391
 O991 O 0.00150 0.52112 0.54244
 O992 O -0.02673 0.51938 0.53796
 O993 O 0.01758 0.54306 0.50008
 O994 O 0.01367 0.53625 0.47156
 O995 O 0.04124 0.50345 0.51825
 O996 O 0.03532 0.47529 0.51495
 Zr997 Zr 0.01864 0.49332 0.51848
 O998 O 0.00395 0.47810 0.50567
 Zr999 Zr 0.01664 0.52040 0.49051
 O1000 O 0.00242 0.50602 0.47619
 Zr1001 Zr -0.00943 0.52017 0.51993
 O1002 O -0.02512 0.50634 0.50669
 Zr1003 Zr 0.00651 0.48250 0.48131
 O1004 O 0.02244 0.49685 0.49401
 Zr1005 Zr -0.01976 0.48287 0.51057
 O1006 O -0.00504 0.49672 0.52505
 Zr1007 Zr -0.02125 0.50962 0.48226
 O1008 O -0.00711 0.52520 0.49557
 O1009 O 0.01416 0.51675 0.51470
 O1010 O -0.01721 0.48613 0.48624
 C1011 C 0.01298 0.51348 0.54864
 C1012 C 0.04742 0.51411 0.50958
 C1013 C 0.00997 0.54969 0.51144
 C1014 C -0.01606 0.48763 0.45295
 C1015 C -0.01453 0.45383 0.48906
 C1016 C -0.04978 0.48828 0.48997
 H1017 H 0.00678 0.46724 0.50821
 H1018 H -0.03605 0.50884 0.50975
 H1019 H 0.02111 0.52357 0.52106
 H1020 H 0.00450 0.50821 0.46486
 H1021 H 0.03260 0.48706 0.46637
 H1022 H 0.03159 0.51335 0.46486
 H1023 H -0.04291 0.49187 0.52854
 H1024 H -0.02533 0.50936 0.54352
 H1025 H 0.02379 0.45828 0.47501
 H1026 H 0.04386 0.47646 0.52290
 H1027 H -0.04436 0.52660 0.49243
 H1028 H -0.02839 0.54129 0.50994
 H1029 H 0.00854 0.47636 0.54163
 H1030 H -0.00940 0.46031 0.52804
 H1031 H 0.00415 0.54244 0.47397
 H1032 H -0.01351 0.52579 0.45744
 O1033 O 0.50174 0.04172 0.51906
 O1034 O 0.47481 0.03617 0.51645
 O1035 O 0.52149 0.00191 0.54109
 O1036 O 0.52217 -0.02383 0.53676
 O1037 O 0.54308 0.02100 0.49928
 O1038 O 0.53719 0.01922 0.47153
 O1039 O 0.48180 -0.04097 0.49803
 O1040 O 0.48510 -0.03641 0.52516
 O1041 O 0.46046 -0.00258 0.47819
 O1042 O 0.46508 0.02574 0.47934
 O1043 O 0.50061 -0.02051 0.45737
 O1044 O 0.52907 -0.01848 0.46285
 O1045 O 0.50095 -0.04071 0.47915
 O1046 O 0.52970 -0.03445 0.48025
 O1047 O 0.48155 -0.00204 0.45721
 O1048 O 0.48230 0.02653 0.46289
 O1049 O 0.46106 -0.02102 0.49744
 O1050 O 0.46612 -0.01564 0.52604
 O1051 O 0.52020 0.04195 0.49944
 O1052 O 0.51920 0.03596 0.47142
 O1053 O 0.54351 0.00243 0.51841
 O1054 O 0.53790 -0.02559 0.51658
 O1055 O 0.50211 0.02010 0.54084
 O1056 O 0.47402 0.01636 0.53449
 Zr1057 Zr 0.49258 0.01898 0.51783
 O1058 O 0.47781 0.00482 0.50387
 Zr1059 Zr 0.52097 -0.00761 0.51800
 O1060 O 0.50728 -0.02297 0.50426
 Zr1061 Zr 0.52018 0.01935 0.48984
 O1062 O 0.50664 0.00513 0.47472
 Zr1063 Zr 0.48329 -0.01859 0.50798
 O1064 O 0.49697 -0.00453 0.52332
 Zr1065 Zr 0.48264 0.00832 0.47974
 O1066 O 0.49616 0.02388 0.49361
 Zr1067 Zr 0.51090 -0.01833 0.48004
 O1068 O 0.52601 -0.00407 0.49378
 O1069 O 0.51649 0.01570 0.51389
 O1070 O 0.48695 -0.01511 0.48379
 C1071 C 0.51245 0.04851 0.51076
 C1072 C 0.51320 0.01259 0.54778
 C1073 C 0.55002 0.01334 0.51034
 C1074 C 0.48972 -0.04739 0.48676
 C1075 C 0.45425 -0.01387 0.48599
 C1076 C 0.48923 -0.01319 0.45068
 H1077 H 0.46669 0.00700 0.50649
 H1078 H 0.50916 0.00757 0.46354
 H1079 H 0.52308 0.02251 0.52064
 H1080 H 0.50991 -0.03382 0.50702
 H1081 H 0.48830 -0.03132 0.53521
 H1082 H 0.51496 -0.03245 0.53403
 H1083 H 0.49140 0.02509 0.45571
 H1084 H 0.50869 0.04086 0.47206
 H1085 H 0.45895 -0.02474 0.52571
 H1086 H 0.47471 0.02486 0.54243
 H1087 H 0.52776 -0.00917 0.45612
 H1088 H 0.54240 0.00895 0.47197
 H1089 H 0.47529 0.04057 0.50561
 H1090 H 0.45863 0.02460 0.48904
 H1091 H 0.54377 -0.02403 0.50655
 H1092 H 0.52824 -0.04134 0.48952
 O1093 O 0.53989 0.52324 -0.00276
 O1094 O 0.53384 0.52058 -0.02964
 O1095 O 0.49850 0.54282 0.01786
 O1096 O 0.47290 0.53720 0.01943
 O1097 O 0.52071 0.50352 0.03984
 O1098 O 0.52070 0.47631 0.03421
 O1099 O 0.45736 0.49798 -0.02125
 O1100 O 0.46032 0.52469 -0.01824
 O1101 O 0.49700 0.48046 -0.04299
 O1102 O 0.52560 0.48297 -0.03859
 O1103 O 0.48088 0.45970 -0.00139
 O1104 O 0.48202 0.46551 0.02660
 O1105 O 0.45888 0.47975 -0.00178
 O1106 O 0.46560 0.48225 0.02756
 O1107 O 0.49861 0.46013 -0.02157
 O1108 O 0.52735 0.46716 -0.02094
 O1109 O 0.47734 0.49833 -0.04241
 O1110 O 0.48118 0.52657 -0.03758
 O1111 O 0.54168 0.50464 0.01634
 O1112 O 0.53713 0.47682 0.01555
 O1113 O 0.50079 0.52111 0.04032
 O1114 O 0.47231 0.51746 0.03494
 O1115 O 0.51716 0.54345 -0.00148
 O1116 O 0.51259 0.53687 -0.02996
 Zr1117 Zr 0.51679 0.52087 -0.01130
 O1118 O 0.50320 0.50610 -0.02583
 Zr1119 Zr 0.49034 0.51979 0.01775
 O1120 O 0.47539 0.50547 0.00424
 Zr1121 Zr 0.51934 0.49392 0.01682
 O1122 O 0.50549 0.47817 0.00366
 Zr1123 Zr 0.47938 0.50896 -0.02007
 O1124 O 0.49278 0.52495 -0.00656
 Zr1125 Zr 0.50809 0.48274 -0.02072
 O1126 O 0.52322 0.49750 -0.00757
 Zr1127 Zr 0.48151 0.48220 0.00820
 O1128 O 0.49549 0.49648 0.02308
 O1129 O 0.51410 0.51711 0.01292
 O1130 O 0.48424 0.48558 -0.01608
 C1131 C 0.54749 0.51583 0.00804
 C1132 C 0.50915 0.54984 0.00973
 C1133 C 0.51238 0.51396 0.04684
 C1134 C 0.45160 0.48667 -0.01315
 C1135 C 0.48517 0.48746 -0.04925
 C1136 C 0.48814 0.45330 -0.01306
 H1137 H 0.50516 0.50862 -0.03711
 H1138 H 0.50859 0.46744 0.00636
 H1139 H 0.52073 0.52412 0.01941
 H1140 H 0.46429 0.50762 0.00699
 H1141 H 0.46488 0.53486 -0.01520
 H1142 H 0.46460 0.53446 0.01169
 H1143 H 0.52620 0.46010 -0.01176
 H1144 H 0.54191 0.47769 0.00487
 H1145 H 0.47193 0.52568 -0.04470
 H1146 H 0.52059 0.54525 -0.02937
 H1147 H 0.49240 0.46034 0.02621
 H1148 H 0.51043 0.47623 0.03974
 H1149 H 0.53872 0.51014 -0.02950
 H1150 H 0.52384 0.49225 -0.04525
 H1151 H 0.47481 0.50812 0.04128
 H1152 H 0.45748 0.49020 0.02546
 O1153 O 0.79163 0.25180 0.48070
 O1154 O 0.78686 0.22510 0.48297
 O1155 O 0.75040 0.26995 0.45866
 O1156 O 0.72438 0.26998 0.46321
 O1157 O 0.76917 0.29187 0.50061
 O1158 O 0.76802 0.28621 0.52818
 O1159 O 0.70860 0.22949 0.50161
 O1160 O 0.71328 0.23243 0.47460
 O1161 O 0.74890 0.20975 0.52141
 O1162 O 0.77693 0.21535 0.52074
 O1163 O 0.72892 0.24879 0.54246
 O1164 O 0.72980 0.27686 0.53696
 O1165 O 0.70838 0.24827 0.52065
 O1166 O 0.71366 0.27689 0.51950
 O1167 O 0.74824 0.23060 0.54255
 O1168 O 0.77733 0.23271 0.53673
 O1169 O 0.72947 0.20957 0.50290
 O1170 O 0.73491 0.21444 0.47406
 O1171 O 0.79128 0.27003 0.50034
 O1172 O 0.78525 0.26894 0.52843
 O1173 O 0.75063 0.29187 0.48116
 O1174 O 0.72224 0.28527 0.48351
 O1175 O 0.76968 0.25167 0.45893
 O1176 O 0.76662 0.22374 0.46514
 Zr1177 Zr 0.76889 0.24209 0.48186
 O1178 O 0.75523 0.22705 0.49594
 Zr1179 Zr 0.74104 0.26924 0.48183
 O1180 O 0.72605 0.25509 0.49555
 Zr1181 Zr 0.76844 0.26931 0.50994
 O1182 O 0.75455 0.25559 0.52510
 Zr1183 Zr 0.73129 0.23150 0.49193
 O1184 O 0.74490 0.24559 0.47652
 Zr1185 Zr 0.75872 0.23208 0.52004
 O1186 O 0.77391 0.24582 0.50607
 Zr1187 Zr 0.73064 0.25891 0.51976
 O1188 O 0.74453 0.27432 0.50605
 O1189 O 0.76479 0.26557 0.48588
 O1190 O 0.73480 0.23538 0.51609
 C1191 C 0.79818 0.26255 0.48907
 C1192 C 0.76159 0.26227 0.45199
 C1193 C 0.76143 0.29855 0.48944
 C1194 C 0.70189 0.23707 0.51292
 C1195 C 0.73744 0.20316 0.51409
 C1196 C 0.73675 0.23782 0.54913
 H1197 H 0.75786 0.21614 0.49335
 H1198 H 0.75697 0.25821 0.53627
 H1199 H 0.77147 0.27229 0.47914
 H1200 H 0.71498 0.25729 0.49279
 H1201 H 0.71834 0.23581 0.46459
 H1202 H 0.71625 0.26215 0.46570
 H1203 H 0.77520 0.24126 0.54430
 H1204 H 0.79074 0.25882 0.52766
 H1205 H 0.72603 0.20698 0.47457
 H1206 H 0.77508 0.22474 0.45708
 H1207 H 0.73934 0.27601 0.54362
 H1208 H 0.75735 0.29080 0.52805
 H1209 H 0.79141 0.22566 0.49378
 H1210 H 0.77651 0.20934 0.51072
 H1211 H 0.72394 0.29137 0.49334
 H1212 H 0.70674 0.27518 0.51022
 O1213 O 0.79382 0.75020 -0.02217
 O1214 O 0.78980 0.72346 -0.01948
 O1215 O 0.75156 0.76636 -0.04433
 O1216 O 0.72570 0.76634 -0.03949
 O1217 O 0.77042 0.79009 -0.00337
 O1218 O 0.76919 0.78509 0.02450
 O1219 O 0.71171 0.72568 -0.00036
 O1220 O 0.71610 0.72834 -0.02748
 O1221 O 0.75245 0.70781 0.01982
 O1222 O 0.78054 0.71430 0.01860
 O1223 O 0.73141 0.74656 0.03988
 O1224 O 0.73114 0.77417 0.03421
 O1225 O 0.71096 0.74482 0.01829
 O1226 O 0.71551 0.77394 0.01613
 O1227 O 0.75125 0.72892 0.04035
 O1228 O 0.78029 0.73194 0.03444
 O1229 O 0.73323 0.70661 0.00112
 O1230 O 0.73836 0.71102 -0.02777
 O1231 O 0.79303 0.76884 -0.00295
 O1232 O 0.78707 0.76830 0.02518
 O1233 O 0.75140 0.78895 -0.02231
 O1234 O 0.72318 0.78143 -0.01958
 O1235 O 0.77204 0.74938 -0.04386
 O1236 O 0.76944 0.72134 -0.03724
 Zr1237 Zr 0.77137 0.73995 -0.02078
 O1238 O 0.75832 0.72475 -0.00625
 Zr1239 Zr 0.74258 0.76610 -0.02107
 O1240 O 0.72815 0.75175 -0.00704
 Zr1241 Zr 0.77022 0.76774 0.00673
 O1242 O 0.75684 0.75387 0.02228
 Zr1243 Zr 0.73424 0.72832 -0.01026
 O1244 O 0.74724 0.74254 -0.02604
 Zr1245 Zr 0.76171 0.73037 0.01776
 O1246 O 0.77636 0.74432 0.00335
 Zr1247 Zr 0.73280 0.75627 0.01702
 O1248 O 0.74611 0.77186 0.00296
 O1249 O 0.76649 0.76335 -0.01719
 O1250 O 0.73772 0.73284 0.01379
 C1251 C 0.80010 0.76129 -0.01407
 C1252 C 0.76324 0.75936 -0.05091
 C1253 C 0.76221 0.79618 -0.01456
 C1254 C 0.70484 0.73322 0.01088
 C1255 C 0.74122 0.70073 0.01259
 C1256 C 0.73946 0.73588 0.04674
 H1257 H 0.76130 0.71388 -0.00861
 H1258 H 0.75920 0.75678 0.03338
 H1259 H 0.77292 0.77011 -0.02412
 H1260 H 0.71699 0.75353 -0.00979
 H1261 H 0.72101 0.73153 -0.03763
 H1262 H 0.71829 0.75776 -0.03731
 H1263 H 0.77784 0.74053 0.04185
 H1264 H 0.79277 0.75829 0.02472
 H1265 H 0.72970 0.70332 -0.02711
 H1266 H 0.77784 0.72245 -0.04535
 H1267 H 0.74121 0.77448 0.04008
 H1268 H 0.75844 0.78949 0.02408
 H1269 H 0.79424 0.72419 -0.00864
 H1270 H 0.77992 0.70775 0.00896
 H1271 H 0.72487 0.78803 -0.01008
 H1272 H 0.70806 0.77131 0.00752
 O1273 O 0.95777 0.25422 0.27078
 O1274 O 0.96265 0.22776 0.27015
 O1275 O 0.99894 0.27372 0.29233
 O1276 O 1.02478 0.27456 0.28780
 O1277 O 0.97982 0.29376 0.24961
 O1278 O 0.98117 0.28677 0.22217
 O1279 O 1.04074 0.23172 0.25176
 O1280 O 1.03609 0.23614 0.27851
 O1281 O 1.00143 0.21084 0.23228
 O1282 O 0.97303 0.21627 0.23260
 O1283 O 1.02064 0.24954 0.20981
 O1284 O 1.02046 0.27706 0.21393
 O1285 O 1.04123 0.24927 0.23162
 O1286 O 1.03560 0.27858 0.23237
 O1287 O 1.00200 0.23064 0.21021
 O1288 O 0.97286 0.23279 0.21558
 O1289 O 1.02011 0.21183 0.25153
 O1290 O 1.01443 0.21817 0.27993
 O1291 O 0.95784 0.27194 0.25074
 O1292 O 0.96410 0.26908 0.22265
 O1293 O 0.99833 0.29470 0.26905
 O1294 O 1.02693 0.28827 0.26678
 O1295 O 0.97946 0.25562 0.29290
 O1296 O 0.98292 0.22728 0.28785
 Zr1297 Zr 0.98056 0.24487 0.27038
 O1298 O 0.99435 0.22930 0.25702
 Zr1299 Zr 1.00818 0.27226 0.26927
 O1300 O 1.02341 0.25758 0.25650
 Zr1301 Zr 0.98081 0.27076 0.24116
 O1302 O 0.99511 0.25652 0.22676
 Zr1303 Zr 1.01813 0.23424 0.26121
 O1304 O 1.00441 0.24893 0.27580
 Zr1305 Zr 0.99118 0.23312 0.23261
 O1306 O 0.97572 0.24734 0.24596
 Zr1307 Zr 1.01899 0.26025 0.23215
 O1308 O 1.00470 0.27618 0.24487
 O1309 O 0.98445 0.26817 0.26535
 O1310 O 1.01497 0.23689 0.23683
 C1311 C 0.95106 0.26466 0.26222
 C1312 C 0.98769 0.26649 0.29934
 C1313 C 0.98745 0.30093 0.26059
 C1314 C 1.04753 0.23843 0.24000
 C1315 C 1.01269 0.20478 0.24036
 C1316 C 1.01327 0.23809 0.20346
 H1317 H 0.99179 0.21850 0.26007
 H1318 H 0.99281 0.25864 0.21547
 H1319 H 0.97768 0.27509 0.27179
 H1320 H 1.03446 0.25995 0.25926
 H1321 H 1.03099 0.23995 0.28835
 H1322 H 1.03258 0.26618 0.28630
 H1323 H 0.97490 0.24122 0.20789
 H1324 H 0.95867 0.25899 0.22402
 H1325 H 1.02335 0.21075 0.27993
 H1326 H 0.97460 0.22872 0.29598
 H1327 H 1.01022 0.27714 0.20836
 H1328 H 0.99165 0.29180 0.22242
 H1329 H 0.95864 0.22721 0.25913
 H1330 H 0.97377 0.21039 0.24265
 H1331 H 1.02494 0.29421 0.25694
 H1332 H 1.04340 0.27639 0.24079
 O1333 O 0.75210 1.04033 0.72732
 O1334 O 0.77889 1.03492 0.72930
 O1335 O 0.73251 0.99917 0.70662
 O1336 O 0.73168 0.97372 0.71203
 O1337 O 0.71065 1.01996 0.74750
 O1338 O 0.71655 1.01940 0.77533
 O1339 O 0.77254 0.95875 0.75083
 O1340 O 0.76936 0.96231 0.72365
 O1341 O 0.79358 0.99821 0.76944
 O1342 O 0.78857 1.02648 0.76713
 O1343 O 0.75378 0.98060 0.79089
 O1344 O 0.72554 0.98185 0.78584
 O1345 O 0.75346 0.95951 0.76978
 O1346 O 0.72446 0.96573 0.76852
 O1347 O 0.77265 0.99926 0.79039
 O1348 O 0.77139 1.02763 0.78366
 O1349 O 0.79305 0.97887 0.75106
 O1350 O 0.78814 0.98322 0.72221
 O1351 O 0.73342 1.04127 0.74670
 O1352 O 0.73444 1.03627 0.77489
 O1353 O 0.71046 1.00061 0.72910
 O1354 O 0.71639 0.97265 0.73232
 O1355 O 0.75112 1.01814 0.70606
 O1356 O 0.77945 1.01429 0.71217
 Zr1357 Zr 0.76113 1.01766 0.72896
 O1358 O 0.77611 1.00436 0.74348
 Zr1359 Zr 0.73305 0.99080 0.73005
 O1360 O 0.74698 0.97620 0.74424
 Zr1361 Zr 0.73359 1.01898 0.75705
 O1362 O 0.74732 1.00551 0.77266
 Zr1363 Zr 0.77090 0.98074 0.74026
 O1364 O 0.75697 0.99391 0.72442
 Zr1365 Zr 0.77128 1.00877 0.76749
 O1366 O 0.75757 1.02355 0.75300
 Zr1367 Zr 0.74334 0.98178 0.76826
 O1368 O 0.72801 0.99533 0.75409
 O1369 O 0.73727 1.01433 0.73316
 O1370 O 0.76723 0.98514 0.76431
 C1371 C 0.74140 1.04744 0.73533
 C1372 C 0.74021 1.00998 0.69951
 C1373 C 0.70382 1.01179 0.73670
 C1374 C 0.76468 0.95264 0.76228
 C1375 C 0.79982 0.98657 0.76221
 C1376 C 0.76514 0.98823 0.79729
 H1377 H 0.78721 1.00656 0.74076
 H1378 H 0.74481 1.00836 0.78375
 H1379 H 0.73062 1.02086 0.72622
 H1380 H 0.74444 0.96522 0.74187
 H1381 H 0.76614 0.96700 0.71342
 H1382 H 0.73949 0.96563 0.71468
 H1383 H 0.76244 1.02625 0.79104
 H1384 H 0.74494 1.04119 0.77411
 H1385 H 0.79542 0.97424 0.72292
 H1386 H 0.77857 1.02235 0.70382
 H1387 H 0.72627 0.99182 0.79166
 H1388 H 0.71148 1.00904 0.77530
 H1389 H 0.77885 1.03951 0.74009
 H1390 H 0.79530 1.02477 0.75770
 H1391 H 0.71025 0.97479 0.74207
 H1392 H 0.72617 0.95823 0.75978
 O1393 O 0.74685 0.54031 0.22959
 O1394 O 0.77342 0.53407 0.23062
 O1395 O 0.72504 0.50019 0.20919
 O1396 O 0.72300 0.47487 0.21439
 O1397 O 0.70556 0.52135 0.25129
 O1398 O 0.71232 0.52054 0.27869
 O1399 O 0.76531 0.45796 0.25161
 O1400 O 0.76116 0.46176 0.22462
 O1401 O 0.78812 0.49649 0.26973
 O1402 O 0.78405 0.52458 0.26869
 O1403 O 0.74797 0.47980 0.29235
 O1404 O 0.71991 0.48173 0.28812
 O1405 O 0.74701 0.45910 0.27129
 O1406 O 0.71780 0.46614 0.27028
 O1407 O 0.76794 0.49731 0.29165
 O1408 O 0.76709 0.52614 0.28547
 O1409 O 0.78644 0.47743 0.25111
 O1410 O 0.78041 0.48223 0.22249
 O1411 O 0.72883 0.54179 0.24955
 O1412 O 0.73116 0.53639 0.27786
 O1413 O 0.70375 0.50248 0.23245
 O1414 O 0.70883 0.47401 0.23537
 O1415 O 0.74443 0.51836 0.20819
 O1416 O 0.77288 0.51350 0.21349
 Zr1417 Zr 0.75512 0.51736 0.23079
 O1418 O 0.77001 0.50340 0.24472
 Zr1419 Zr 0.72598 0.49163 0.23251
 O1420 O 0.73992 0.47626 0.24587
 Zr1421 Zr 0.72870 0.51942 0.25984
 O1422 O 0.74220 0.50506 0.27480
 Zr1423 Zr 0.76388 0.48005 0.24125
 O1424 O 0.74985 0.49387 0.22609
 Zr1425 Zr 0.76609 0.50755 0.26899
 O1426 O 0.75267 0.52309 0.25503
 Zr1427 Zr 0.73720 0.48157 0.27003
 O1428 O 0.72198 0.49605 0.25675
 O1429 O 0.73132 0.51492 0.23578
 O1430 O 0.76108 0.48417 0.26546
 C1431 C 0.73659 0.54773 0.23790
 C1432 C 0.73300 0.51070 0.20192
 C1433 C 0.69796 0.51379 0.24058
 C1434 C 0.75788 0.45204 0.26344
 C1435 C 0.79383 0.48488 0.26205
 C1436 C 0.75994 0.48659 0.29855
 H1437 H 0.78109 0.50530 0.24168
 H1438 H 0.74009 0.50777 0.28601
 H1439 H 0.72470 0.52174 0.22911
 H1440 H 0.73697 0.46540 0.24343
 H1441 H 0.75765 0.46660 0.21457
 H1442 H 0.73103 0.46677 0.21620
 H1443 H 0.75865 0.52455 0.29340
 H1444 H 0.74164 0.54117 0.27638
 H1445 H 0.78747 0.47307 0.22284
 H1446 H 0.77194 0.52155 0.20512
 H1447 H 0.72080 0.49175 0.29382
 H1448 H 0.70690 0.51036 0.27891
 H1449 H 0.77394 0.53853 0.24145
 H1450 H 0.78986 0.52345 0.25857
 H1451 H 0.70286 0.47653 0.24514
 H1452 H 0.71955 0.45820 0.26196
 O1453 O 0.54257 0.22503 0.75422
 O1454 O 0.53675 0.22732 0.78116
 O1455 O 0.50201 0.20437 0.73346
 O1456 O 0.47600 0.20922 0.73265
 O1457 O 0.52242 0.24481 0.71213
 O1458 O 0.52184 0.27185 0.71808
 O1459 O 0.45939 0.24728 0.77319
 O1460 O 0.46344 0.22074 0.77025
 O1461 O 0.49863 0.26615 0.79516
 O1462 O 0.52722 0.26437 0.79086
 O1463 O 0.48140 0.28679 0.75452
 O1464 O 0.48330 0.28124 0.72584
 O1465 O 0.46025 0.26614 0.75434
 O1466 O 0.46669 0.26451 0.72517
 O1467 O 0.49989 0.28657 0.77397
 O1468 O 0.52875 0.28020 0.77327
 O1469 O 0.47920 0.24803 0.79433
 O1470 O 0.48422 0.21973 0.78957
 O1471 O 0.54368 0.24389 0.73533
 O1472 O 0.53833 0.27160 0.73659
 O1473 O 0.50333 0.22634 0.71131
 O1474 O 0.47490 0.22909 0.71681
 O1475 O 0.52023 0.20418 0.75323
 O1476 O 0.51600 0.21046 0.78168
 Zr1477 Zr 0.51950 0.22666 0.76303
 O1478 O 0.50554 0.24076 0.77782
 Zr1479 Zr 0.49294 0.22716 0.73401
 O1480 O 0.47764 0.24093 0.74780
 Zr1481 Zr 0.52104 0.25399 0.73525
 O1482 O 0.50683 0.26917 0.74868
 Zr1483 Zr 0.48181 0.23726 0.77206
 O1484 O 0.49564 0.22186 0.75828
 Zr1485 Zr 0.50978 0.26426 0.77292
 O1486 O 0.52526 0.25020 0.75951
 Zr1487 Zr 0.48293 0.26451 0.74422
 O1488 O 0.49725 0.25076 0.72909
 O1489 O 0.51659 0.23059 0.73886
 O1490 O 0.48599 0.26081 0.76839
 C1491 C 0.54986 0.23277 0.74342
 C1492 C 0.51262 0.19761 0.74187
 C1493 C 0.51459 0.23413 0.70494
 C1494 C 0.45324 0.25863 0.76550
 C1495 C 0.48675 0.25908 0.80124
 C1496 C 0.48887 0.29320 0.76608
 H1497 H 0.50757 0.23821 0.78908
 H1498 H 0.50962 0.28002 0.74614
 H1499 H 0.52339 0.22385 0.73225
 H1500 H 0.46660 0.23848 0.74507
 H1501 H 0.46839 0.21083 0.76699
 H1502 H 0.46739 0.21204 0.74001
 H1503 H 0.52742 0.28736 0.76420
 H1504 H 0.54338 0.27061 0.74713
 H1505 H 0.47504 0.22045 0.79680
 H1506 H 0.52424 0.20233 0.78098
 H1507 H 0.49294 0.28755 0.72715
 H1508 H 0.51138 0.27199 0.71293
 H1509 H 0.54128 0.23792 0.78112
 H1510 H 0.52577 0.25493 0.79736
 H1511 H 0.47688 0.23882 0.71089
 H1512 H 0.45928 0.25579 0.72682
 O1513 O 0.27001 0.79202 0.50022
 O1514 O 0.26647 0.78585 0.52723
 O1515 O 0.29374 0.75309 0.48048
 O1516 O 0.29020 0.72732 0.47889
 O1517 O 0.25274 0.77158 0.45731
 O1518 O 0.22501 0.76898 0.46213
 O1519 O 0.25079 0.70841 0.51764
 O1520 O 0.27766 0.71380 0.51556
 O1521 O 0.22933 0.74601 0.53941
 O1522 O 0.22967 0.77442 0.53520
 O1523 O 0.21075 0.72835 0.49749
 O1524 O 0.21730 0.73100 0.46905
 O1525 O 0.23275 0.70871 0.49770
 O1526 O 0.23490 0.71542 0.46887
 O1527 O 0.20919 0.74619 0.51734
 O1528 O 0.21392 0.77491 0.51729
 O1529 O 0.24867 0.72782 0.53894
 O1530 O 0.27703 0.73415 0.53528
 O1531 O 0.25130 0.79212 0.48087
 O1532 O 0.22375 0.78544 0.48055
 O1533 O 0.27228 0.75357 0.45730
 O1534 O 0.27089 0.72538 0.46225
 O1535 O 0.29212 0.77114 0.50017
 O1536 O 0.28493 0.76649 0.52821
 Zr1537 Zr 0.26905 0.76909 0.50895
 O1538 O 0.25505 0.75428 0.52297
 Zr1539 Zr 0.27114 0.74306 0.47977
 O1540 O 0.25744 0.72709 0.49266
 Zr1541 Zr 0.24247 0.76929 0.48000
 O1542 O 0.22737 0.75443 0.49274
 Zr1543 Zr 0.26001 0.73109 0.51709
 O1544 O 0.27535 0.74582 0.50425
 Zr1545 Zr 0.23124 0.75725 0.51724
 O1546 O 0.24507 0.77342 0.50448
 Zr1547 Zr 0.23351 0.73123 0.48812
 O1548 O 0.24730 0.74611 0.47375
 O1549 O 0.26621 0.76616 0.48461
 O1550 O 0.23613 0.73404 0.51250
 C1551 C 0.26204 0.79880 0.48923
 C1552 C 0.29966 0.76394 0.48915
 C1553 C 0.26424 0.76437 0.45062
 C1554 C 0.24003 0.70195 0.50914
 C1555 C 0.23700 0.73467 0.54563
 C1556 C 0.20341 0.73510 0.50894
 H1557 H 0.25714 0.75630 0.53434
 H1558 H 0.21634 0.75662 0.48980
 H1559 H 0.27295 0.77327 0.47838
 H1560 H 0.26057 0.71636 0.48988
 H1561 H 0.28758 0.71925 0.51291
 H1562 H 0.28751 0.71855 0.48595
 H1563 H 0.20725 0.77344 0.50779
 H1564 H 0.22369 0.79000 0.49135
 H1565 H 0.27666 0.72489 0.54225
 H1566 H 0.29256 0.77522 0.52801
 H1567 H 0.21029 0.74008 0.47031
 H1568 H 0.22604 0.75888 0.45658
 H1569 H 0.25569 0.79011 0.52630
 H1570 H 0.23907 0.77345 0.54205
 H1571 H 0.26120 0.72685 0.45592
 H1572 H 0.24422 0.70875 0.47057
 O1573 O 0.26543 0.29474 0.99941
 O1574 O 0.26254 0.28980 1.02643
 O1575 O 0.28974 0.25531 0.98101
 O1576 O 0.28655 0.22956 0.98006
 O1577 O 0.24825 0.27252 0.95751
 O1578 O 0.22071 0.26949 0.96251
 O1579 O 0.24813 0.21197 1.02085
 O1580 O 0.27472 0.21749 1.01816
 O1581 O 0.22591 0.24978 1.04078
 O1582 O 0.22554 0.27792 1.03532
 O1583 O 0.20738 0.23005 0.99966
 O1584 O 0.21358 0.23085 0.97162
 O1585 O 0.22968 0.21074 1.00132
 O1586 O 0.23222 0.21630 0.97168
 O1587 O 0.20562 0.24854 1.01884
 O1588 O 0.20980 0.27738 1.01738
 O1589 O 0.24606 0.23245 1.04121
 O1590 O 0.27423 0.23894 1.03657
 O1591 O 0.24662 0.29382 0.98017
 O1592 O 0.21901 0.28641 0.98056
 O1593 O 0.26801 0.25475 0.95800
 O1594 O 0.26697 0.22653 0.96430
 O1595 O 0.28801 0.27420 0.99984
 O1596 O 0.28106 0.27067 1.02824
 Zr1597 Zr 0.26504 0.27222 1.00897
 O1598 O 0.25138 0.25791 1.02379
 Zr1599 Zr 0.26727 0.24504 0.98089
 O1600 O 0.25417 0.22939 0.99479
 Zr1601 Zr 0.23818 0.27077 0.98033
 O1602 O 0.22353 0.25605 0.99380
 Zr1603 Zr 0.25689 0.23464 1.01896
 O1604 O 0.27178 0.24894 1.00518
 Zr1605 Zr 0.22745 0.26006 1.01811
 O1606 O 0.24092 0.27594 1.00458
 Zr1607 Zr 0.23013 0.23275 0.99030
 O1608 O 0.24332 0.24739 0.97506
 O1609 O 0.26202 0.26823 0.98482
 O1610 O 0.23289 0.23678 1.01448
 C1611 C 0.25729 0.30098 0.98823
 C1612 C 0.29558 0.26659 0.98914
 C1613 C 0.25982 0.26527 0.95102
 C1614 C 0.23731 0.20482 1.01306
 C1615 C 0.23418 0.23921 1.04760
 C1616 C 0.19997 0.23711 1.01084
 H1617 H 0.25353 0.26052 1.03502
 H1618 H 0.21244 0.25787 0.99081
 H1619 H 0.26859 0.27521 0.97826
 H1620 H 0.25752 0.21861 0.99254
 H1621 H 0.28452 0.22287 1.01497
 H1622 H 0.28454 0.22147 0.98812
 H1623 H 0.20304 0.27527 1.00806
 H1624 H 0.21924 0.29169 0.99101
 H1625 H 0.27413 0.23010 1.04410
 H1626 H 0.28870 0.27935 1.02747
 H1627 H 0.20730 0.24051 0.97156
 H1628 H 0.22191 0.25922 0.95736
 H1629 H 0.25152 0.29347 1.02585
 H1630 H 0.23502 0.27750 1.04210
 H1631 H 0.25741 0.22784 0.95774
 H1632 H 0.24098 0.20920 0.97433
 C1633 C 0.28742 0.39197 0.77709
 C1634 C 0.30317 0.38739 0.77522
 C1635 C 0.30828 0.37340 0.78175
 C1636 C 0.29782 0.36390 0.79023
 C1637 C 0.28220 0.36897 0.79197
 N1638 N 0.27750 0.38267 0.78550
 C1639 C 0.28145 0.40691 0.77076
 N1640 N 0.26865 0.41356 0.77771
 C1641 C 0.26281 0.42750 0.77296
 C1642 C 0.26997 0.43569 0.76047
 C1643 C 0.28291 0.42883 0.75284
 C1644 C 0.28864 0.41447 0.75788
 H1645 H 0.32052 0.37022 0.78043
 H1646 H 0.27368 0.36201 0.79830
 H1647 H 0.25275 0.43227 0.77917
 H1648 H 0.28879 0.43463 0.74311
 H1649 H 0.31164 0.39465 0.76916
 H1650 H 0.29852 0.40941 0.75166
 C1651 C 0.28182 -0.10712 0.27949
 C1652 C 0.29529 -0.11384 0.27279
 C1653 C 0.30055 -0.12818 0.27818
 C1654 C 0.29263 -0.13607 0.29049
 C1655 C 0.27923 -0.12873 0.29701
 N1656 N 0.27431 -0.11471 0.29144
 C1657 C 0.27599 -0.09172 0.27430
 N1658 N 0.26703 -0.08308 0.28442
 C1659 C 0.26186 -0.06858 0.28066
 C1660 C 0.26588 -0.06190 0.26601
 C1661 C 0.27471 -0.07078 0.25525
 C1662 C 0.27965 -0.08567 0.25926
 H1663 H 0.31113 -0.13267 0.27279
 H1664 H 0.27245 -0.13405 0.30637
 H1665 H 0.25500 -0.06217 0.28928
 H1666 H 0.27784 -0.06622 0.24369
 H1667 H 0.30208 -0.10798 0.26374
 H1668 H 0.28618 -0.09230 0.25056
 C1669 C 0.78305 0.89187 0.78392
 C1670 C 0.77694 0.88499 0.79768
 C1671 C 0.78278 0.87073 0.80278
 C1672 C 0.79494 0.86314 0.79440
 C1673 C 0.80074 0.87059 0.78065
 N1674 N 0.79476 0.88447 0.77592
 C1675 C 0.77758 0.90722 0.77816
 N1676 N 0.78695 0.91539 0.76804
 C1677 C 0.78298 0.92971 0.76256
 C1678 C 0.76885 0.93673 0.76738
 C1679 C 0.75887 0.92839 0.77754
 C1680 C 0.76310 0.91365 0.78284
 H1681 H 0.77791 0.86608 0.81360
 H1682 H 0.80987 0.86546 0.77346
 H1683 H 0.79103 0.93570 0.75470
 H1684 H 0.74774 0.93323 0.78139
 H1685 H 0.76805 0.89062 0.80482
 H1686 H 0.75497 0.90744 0.79038
 C1687 C 0.46696 0.86027 0.27721
 C1688 C 0.45339 0.86705 0.27080
 C1689 C 0.44788 0.88109 0.27688
 C1690 C 0.45567 0.88859 0.28957
 C1691 C 0.46931 0.88127 0.29559
 N1692 N 0.47441 0.86756 0.28941
 C1693 C 0.47296 0.84503 0.27164
 N1694 N 0.48213 0.83644 0.28156
 C1695 C 0.48743 0.82203 0.27762
 C1696 C 0.48333 0.81534 0.26297
 C1697 C 0.47434 0.82421 0.25236
 C1698 C 0.46924 0.83903 0.25657
 H1699 H 0.43729 0.88569 0.27165
 H1700 H 0.47605 0.88624 0.30517
 H1701 H 0.49441 0.81566 0.28615
 H1702 H 0.47109 0.81964 0.24082
 H1703 H 0.44673 0.86145 0.26147
 H1704 H 0.46249 0.84562 0.24805
 C1705 C -0.02997 0.86028 0.77892
 C1706 C -0.04372 0.86690 0.77273
 C1707 C -0.04952 0.88067 0.77915
 C1708 C -0.04185 0.88806 0.79199
 C1709 C -0.02799 0.88095 0.79775
 N1710 N -0.02261 0.86750 0.79123
 C1711 C -0.02370 0.84525 0.77304
 N1712 N -0.01407 0.83682 0.78265
 C1713 C -0.00850 0.82258 0.77845
 C1714 C -0.01280 0.81590 0.76384
 C1715 C -0.02230 0.82460 0.75355
 C1716 C -0.02766 0.83927 0.75802
 H1717 H -0.06027 0.88512 0.77413
 H1718 H -0.02130 0.88591 0.80738
 H1719 H -0.00115 0.81631 0.78674
 H1720 H -0.02572 0.82003 0.74207
 H1721 H -0.05034 0.86136 0.76334
 H1722 H -0.03478 0.84573 0.74972
 C1723 C -0.03283 -0.10935 -0.02652
 C1724 C -0.04833 -0.11445 -0.02407
 C1725 C -0.05320 -0.12859 -0.03047
 C1726 C -0.04275 -0.13774 -0.03938
 C1727 C -0.02738 -0.13217 -0.04168
 N1728 N -0.02290 -0.11831 -0.03533
 C1729 C -0.02726 -0.09415 -0.02044
 N1730 N -0.01523 -0.08686 -0.02805
 C1731 C -0.00996 -0.07257 -0.02361
 C1732 C -0.01700 -0.06470 -0.01081
 C1733 C -0.02910 -0.07223 -0.00249
 C1734 C -0.03420 -0.08693 -0.00720
 H1735 H -0.06529 -0.13212 -0.02875
 H1736 H -0.01890 -0.13885 -0.04840
 H1737 H -0.00053 -0.06728 -0.03032
 H1738 H -0.03478 -0.06671 0.00755
 H1739 H -0.05682 -0.10746 -0.01770
 H1740 H -0.04344 -0.09251 -0.00047
 C1741 C -0.03448 0.39189 0.47261
 C1742 C -0.04801 0.38496 0.47896
 C1743 C -0.05275 0.37037 0.47361
 C1744 C -0.04423 0.36247 0.46168
 C1745 C -0.03066 0.36994 0.45569
 N1746 N -0.02630 0.38418 0.46117
 C1747 C -0.02917 0.40759 0.47751
 N1748 N -0.01965 0.41582 0.46760
 C1749 C -0.01461 0.43044 0.47108
 C1750 C -0.01927 0.43768 0.48528
 C1751 C -0.02882 0.42928 0.49581
 C1752 C -0.03369 0.41427 0.49205
 H1753 H -0.06338 0.36569 0.47869
 H1754 H -0.02336 0.36463 0.44673
 H1755 H -0.00720 0.43645 0.46263
 H1756 H -0.03252 0.43428 0.50702
 H1757 H -0.05524 0.39082 0.48767
 H1758 H -0.04076 0.40802 0.50059
 C1759 C 0.47110 -0.10834 0.46540
 C1760 C 0.47634 -0.11481 0.45104
 C1761 C 0.47046 -0.12911 0.44600
 C1762 C 0.45912 -0.13717 0.45506
 C1763 C 0.45419 -0.13011 0.46940
 N1764 N 0.46016 -0.11617 0.47403
 C1765 C 0.47664 -0.09298 0.47115
 N1766 N 0.46764 -0.08496 0.48175
 C1767 C 0.47170 -0.07062 0.48722
 C1768 C 0.48557 -0.06344 0.48189
 C1769 C 0.49521 -0.07166 0.47127
 C1770 C 0.49087 -0.08640 0.46597
 H1771 H 0.47468 -0.13348 0.43476
 H1772 H 0.44571 -0.13555 0.47712
 H1773 H 0.46392 -0.06474 0.49545
 H1774 H 0.50612 -0.06671 0.46698
 H1775 H 0.48459 -0.10881 0.44345
 H1776 H 0.49871 -0.09251 0.45801
 C1777 C 0.46734 0.39200 -0.03059
 C1778 C 0.45390 0.38545 -0.02369
 C1779 C 0.44824 0.37126 -0.02917
 C1780 C 0.45572 0.36335 -0.04178
 C1781 C 0.46915 0.37051 -0.04846
 N1782 N 0.47445 0.38439 -0.04282
 C1783 C 0.47350 0.40730 -0.02535
 N1784 N 0.48207 0.41606 -0.03566
 C1785 C 0.48735 0.43054 -0.03188
 C1786 C 0.48384 0.43708 -0.01699
 C1787 C 0.47547 0.42804 -0.00603
 C1788 C 0.47043 0.41316 -0.01008
 H1789 H 0.43775 0.36690 -0.02354
 H1790 H 0.47560 0.36521 -0.05808
 H1791 H 0.49385 0.43708 -0.04067
 H1792 H 0.47274 0.43248 0.00570
 H1793 H 0.44745 0.39133 -0.01439
 H1794 H 0.46421 0.40642 -0.00126
 C1795 C 0.78217 0.35946 0.47080
 C1796 C 0.79763 0.36432 0.47395
 C1797 C 0.80290 0.37852 0.46815
 C1798 C 0.79288 0.38802 0.45915
 C1799 C 0.77755 0.38265 0.45608
 N1800 N 0.77268 0.36869 0.46185
 C1801 C 0.77626 0.34428 0.47648
 N1802 N 0.76499 0.33668 0.46798
 C1803 C 0.75967 0.32233 0.47212
 C1804 C 0.76586 0.31474 0.48549
 C1805 C 0.77708 0.32266 0.49471
 C1806 C 0.78223 0.33738 0.49030
 H1807 H 0.81495 0.38187 0.47044
 H1808 H 0.76941 0.38957 0.44924
 H1809 H 0.75092 0.31673 0.46473
 H1810 H 0.78205 0.31741 0.50525
 H1811 H 0.80577 0.35708 0.48046
 H1812 H 0.79079 0.34324 0.49769
 C1813 C 0.78015 0.85726 -0.03591
 C1814 C 0.77481 0.86388 -0.05013
 C1815 C 0.78101 0.87802 -0.05523
 C1816 C 0.79276 0.88576 -0.04638
 C1817 C 0.79770 0.87861 -0.03214
 N1818 N 0.79142 0.86484 -0.02745
 C1819 C 0.77454 0.84193 -0.03015
 N1820 N 0.78333 0.83426 -0.01915
 C1821 C 0.77940 0.81994 -0.01366
 C1822 C 0.76592 0.81233 -0.01939
 C1823 C 0.75644 0.82018 -0.03041
 C1824 C 0.76063 0.83496 -0.03573
 H1825 H 0.77674 0.88248 -0.06639
 H1826 H 0.80644 0.88384 -0.02455
 H1827 H 0.78705 0.81438 -0.00511
 H1828 H 0.74584 0.81486 -0.03503
 H1829 H 0.76626 0.85812 -0.05759
 H1830 H 0.75295 0.84073 -0.04405
 C1831 C 0.78166 0.28076 0.38954
 C1832 C 0.79717 0.27814 0.38447
 C1833 C 0.80216 0.28396 0.36990
 C1834 C 0.79181 0.29245 0.36026
 C1835 C 0.77642 0.29495 0.36583
 N1836 N 0.77182 0.28918 0.38014
 C1837 C 0.77603 0.27514 0.40514
 N1838 N 0.76441 0.28305 0.41282
 C1839 C 0.75925 0.27893 0.42753
 C1840 C 0.76598 0.26621 0.43544
 C1841 C 0.77761 0.25762 0.42748
 C1842 C 0.78259 0.26197 0.41238
 H1843 H 0.81425 0.28211 0.36641
 H1844 H 0.76802 0.30137 0.35880
 H1845 H 0.75017 0.28583 0.43315
 H1846 H 0.78301 0.24759 0.43297
 H1847 H 0.80557 0.27206 0.39182
 H1848 H 0.79146 0.25504 0.40649
 C1849 C 0.78162 0.78091 -0.11282
 C1850 C 0.77454 0.79389 -0.11983
 C1851 C 0.78074 0.80005 -0.13376
 C1852 C 0.79423 0.79353 -0.14095
 C1853 C 0.80089 0.78041 -0.13346
 N1854 N 0.79458 0.77465 -0.11983
 C1855 C 0.77596 0.77444 -0.09753
 N1856 N 0.78604 0.76589 -0.08852
 C1857 C 0.78205 0.76039 -0.07393
 C1858 C 0.76717 0.76367 -0.06746
 C1859 C 0.75642 0.77198 -0.07677
 C1860 C 0.76068 0.77723 -0.09181
 H1861 H 0.77488 0.81011 -0.13852
 H1862 H 0.81114 0.77467 -0.13820
 H1863 H 0.79070 0.75396 -0.06719
 H1864 H 0.74473 0.77455 -0.07237
 H1865 H 0.76457 0.79966 -0.11447
 H1866 H 0.75203 0.78344 -0.09874
 C1867 C 0.28464 0.46250 0.85516
 C1868 C 0.28215 0.44717 0.86023
 C1869 C 0.28746 0.44257 0.87512
 C1870 C 0.29536 0.45311 0.88505
 C1871 C 0.29804 0.46821 0.87939
 N1872 N 0.29267 0.47247 0.86480
 C1873 C 0.27902 0.46797 0.83950
 N1874 N 0.28646 0.48010 0.83238
 C1875 C 0.28206 0.48557 0.81790
 C1876 C 0.26942 0.47874 0.80970
 C1877 C 0.26141 0.46640 0.81698
 C1878 C 0.26610 0.46105 0.83184
 H1879 H 0.28557 0.43068 0.87875
 H1880 H 0.30411 0.47669 0.88664
 H1881 H 0.28854 0.49517 0.81280
 H1882 H 0.25150 0.46085 0.81121
 H1883 H 0.27642 0.43867 0.85272
 H1884 H 0.25949 0.45173 0.83728
 C1885 C 0.28253 -0.03432 0.35924
 C1886 C 0.27628 -0.04790 0.36587
 C1887 C 0.28231 -0.05358 0.38008
 C1888 C 0.29482 -0.04596 0.38791
 C1889 C 0.30082 -0.03240 0.38066
 N1890 N 0.29464 -0.02708 0.36679
 C1891 C 0.27670 -0.02800 0.34395
 N1892 N 0.28624 -0.01856 0.33525
 C1893 C 0.28189 -0.01282 0.32085
 C1894 C 0.26719 -0.01668 0.31432
 C1895 C 0.25703 -0.02606 0.32329
 C1896 C 0.26166 -0.03161 0.33809
 H1897 H 0.27725 -0.06422 0.38450
 H1898 H 0.31028 -0.02582 0.38594
 H1899 H 0.29009 -0.00558 0.31438
 H1900 H 0.24548 -0.02914 0.31886
 H1901 H 0.26709 -0.05445 0.36003
 H1902 H 0.25341 -0.03856 0.34479
 C1903 C -0.03179 -0.03951 -0.10542
 C1904 C -0.02593 -0.05321 -0.11223
 C1905 C -0.03162 -0.05821 -0.12690
 C1906 C -0.04338 -0.04978 -0.13498
 C1907 C -0.04902 -0.03616 -0.12753
 N1908 N -0.04318 -0.03151 -0.11326
 C1909 C -0.02636 -0.03367 -0.08977
 N1910 N -0.03548 -0.02321 -0.08184
 C1911 C -0.03146 -0.01740 -0.06737
 C1912 C -0.01747 -0.02214 -0.05996
 C1913 C -0.00777 -0.03273 -0.06801
 C1914 C -0.01209 -0.03843 -0.08290
 H1915 H -0.02694 -0.06896 -0.13151
 H1916 H -0.05786 -0.02895 -0.13299
 H1917 H -0.03930 -0.00923 -0.06163
 H1918 H 0.00322 -0.03659 -0.06286
 H1919 H -0.01731 -0.06032 -0.10625
 H1920 H -0.00416 -0.04629 -0.08891
 C1921 C -0.03896 0.46740 0.39185
 C1922 C -0.05343 0.47223 0.38559
 C1923 C -0.05849 0.46646 0.37100
 C1924 C -0.04935 0.45563 0.36242
 C1925 C -0.03503 0.45086 0.36940
 N1926 N -0.03033 0.45678 0.38363
 C1927 C -0.03302 0.47321 0.40734
 N1928 N -0.02206 0.46473 0.41532
 C1929 C -0.01627 0.46918 0.42970
 C1930 C -0.02159 0.48292 0.43695
 C1931 C -0.03265 0.49198 0.42878
 C1932 C -0.03829 0.48725 0.41400
 H1933 H -0.06981 0.47037 0.36682
 H1934 H -0.02732 0.44270 0.36357
 H1935 H -0.00772 0.46183 0.43553
 H1936 H -0.03696 0.50277 0.43378
 H1937 H -0.06104 0.48014 0.39195
 H1938 H -0.04654 0.49469 0.40790
 C1939 C 0.46707 -0.03462 0.38990
 C1940 C 0.45118 -0.03290 0.38576
 C1941 C 0.44585 -0.03855 0.37125
 C1942 C 0.45623 -0.04600 0.36075
 C1943 C 0.47195 -0.04794 0.36553
 N1944 N 0.47691 -0.04226 0.37979
 C1945 C 0.47316 -0.02845 0.40511
 N1946 N 0.48533 -0.03574 0.41251
 C1947 C 0.49097 -0.03091 0.42683
 C1948 C 0.48422 -0.01803 0.43455
 C1949 C 0.47200 -0.01011 0.42683
 C1950 C 0.46651 -0.01521 0.41217
 H1951 H 0.43352 -0.03725 0.36836
 H1952 H 0.48033 -0.05365 0.35783
 H1953 H 0.50049 -0.03731 0.43228
 H1954 H 0.46652 -0.00001 0.43218
 H1955 H 0.44283 -0.02746 0.39373
 H1956 H 0.45718 -0.00878 0.40643
 C1957 C 0.46332 0.46669 -0.11046
 C1958 C 0.44916 0.47172 -0.11726
 C1959 C 0.44417 0.46545 -0.13167
 C1960 C 0.45307 0.45390 -0.13948
 C1961 C 0.46718 0.44913 -0.13208
 N1962 N 0.47179 0.45553 -0.11805
 C1963 C 0.46906 0.47272 -0.09500
 N1964 N 0.47984 0.46427 -0.08674
 C1965 C 0.48541 0.46884 -0.07231
 C1966 C 0.47998 0.48265 -0.06530
 C1967 C 0.46912 0.49168 -0.07376
 C1968 C 0.46374 0.48686 -0.08859
 H1969 H 0.43306 0.46949 -0.13626
 H1970 H 0.47476 0.44052 -0.13737
 H1971 H 0.49381 0.46152 -0.06624
 H1972 H 0.46477 0.50254 -0.06894
 H1973 H 0.44167 0.48013 -0.11144
 H1974 H 0.45564 0.49428 -0.09490
 C1975 C 0.46358 0.78200 0.35831
 C1976 C 0.44808 0.77975 0.36361
 C1977 C 0.44348 0.78567 0.37832
 C1978 C 0.45421 0.79391 0.38782
 C1979 C 0.46956 0.79602 0.38203
 N1980 N 0.47377 0.79015 0.36763
 C1981 C 0.46899 0.77633 0.34260
 N1982 N 0.48140 0.78350 0.33549
 C1983 C 0.48677 0.77926 0.32090
 C1984 C 0.47949 0.76711 0.31249
 C1985 C 0.46692 0.75930 0.31979
 C1986 C 0.46169 0.76381 0.33480
 H1987 H 0.43142 0.78408 0.38207
 H1988 H 0.47826 0.80220 0.38896
 H1989 H 0.49656 0.78557 0.31581
 H1990 H 0.46102 0.74976 0.31386
 H1991 H 0.43940 0.77387 0.35638
 H1992 H 0.45213 0.75743 0.34020
 C1993 C -0.02944 0.78946 0.85779
 C1994 C -0.02401 0.80333 0.86463
 C1995 C -0.02991 0.80817 0.87928
 C1996 C -0.04143 0.79937 0.88732
 C1997 C -0.04665 0.78560 0.87983
 N1998 N -0.04063 0.78114 0.86558
 C1999 C -0.02373 0.78375 0.84217
 N2000 N -0.03253 0.77308 0.83416
 C2001 C -0.02824 0.76736 0.81972
 C2002 C -0.01430 0.77243 0.81242
 C2003 C -0.00492 0.78325 0.82058
 C2004 C -0.00952 0.78885 0.83542
 H2005 H -0.02555 0.81903 0.88392
 H2006 H -0.05531 0.77813 0.88524
 H2007 H -0.03585 0.75902 0.81391
 H2008 H 0.00601 0.78739 0.81551
 H2009 H -0.01556 0.81068 0.85868
 H2010 H -0.00184 0.79691 0.84150
 C2011 C 0.38797 0.78561 0.27465
 C2012 C 0.38328 0.80102 0.27197
 C2013 C 0.36893 0.80623 0.27793
 C2014 C 0.35915 0.79622 0.28663
 C2015 C 0.36430 0.78090 0.28910
 N2016 N 0.37838 0.77609 0.28320
 C2017 C 0.40342 0.77971 0.26918
 N2018 N 0.41026 0.76776 0.27715
 C2019 C 0.42476 0.76223 0.27331
 C2020 C 0.43335 0.76891 0.26080
 C2021 C 0.42628 0.78091 0.25210
 C2022 C 0.41135 0.78628 0.25619
 H2023 H 0.36573 0.81825 0.27607
 H2024 H 0.35714 0.77274 0.29564
 H2025 H 0.42967 0.75287 0.28029
 H2026 H 0.43235 0.78631 0.24224
 H2027 H 0.39076 0.80917 0.26579
 H2028 H 0.40615 0.79545 0.24918
 C2029 C -0.10494 0.78900 0.78163
 C2030 C -0.10943 0.80460 0.77996
 C2031 C -0.12394 0.80949 0.78580
 C2032 C -0.13407 0.79896 0.79338
 C2033 C -0.12903 0.78351 0.79504
 N2034 N -0.11480 0.77900 0.78923
 C2035 C -0.08957 0.78323 0.77577
 N2036 N -0.08299 0.77059 0.78281
 C2037 C -0.06878 0.76482 0.77829
 C2038 C -0.06028 0.77187 0.76592
 C2039 C -0.06703 0.78472 0.75828
 C2040 C -0.08163 0.79039 0.76311
 H2041 H -0.12708 0.82161 0.78463
 H2042 H -0.13644 0.77496 0.80073
 H2043 H -0.06410 0.75484 0.78448
 H2044 H -0.06100 0.79048 0.74861
 H2045 H -0.10173 0.81307 0.77454
 H2046 H -0.08664 0.80016 0.75685
 C2047 C 0.85958 0.28413 0.47071
 C2048 C 0.86403 0.29957 0.47367
 C2049 C 0.87848 0.30496 0.46821
 C2050 C 0.88861 0.29507 0.45975
 C2051 C 0.88359 0.27978 0.45676
 N2052 N 0.86939 0.27477 0.46222
 C2053 C 0.84426 0.27805 0.47625
 N2054 N 0.83688 0.26669 0.46777
 C2055 C 0.82242 0.26117 0.47186
 C2056 C 0.81450 0.26724 0.48515
 C2057 C 0.82219 0.27856 0.49433
 C2058 C 0.83702 0.28392 0.48998
 H2059 H 0.88156 0.31696 0.47038
 H2060 H 0.89100 0.27175 0.45031
 H2061 H 0.81701 0.25235 0.46450
 H2062 H 0.81669 0.28346 0.50481
 H2063 H 0.85632 0.30757 0.47981
 H2064 H 0.84271 0.29257 0.49735
 C2065 C 0.86118 0.78350 -0.03286
 C2066 C 0.86568 0.79888 -0.02968
 C2067 C 0.88008 0.80434 -0.03519
 C2068 C 0.89011 0.79461 -0.04394
 C2069 C 0.88503 0.77939 -0.04720
 N2070 N 0.87088 0.77430 -0.04167
 C2071 C 0.84592 0.77731 -0.02723
 N2072 N 0.83859 0.76590 -0.03567
 C2073 C 0.82421 0.76025 -0.03149
 C2074 C 0.81632 0.76623 -0.01813
 C2075 C 0.82395 0.77763 -0.00900
 C2076 C 0.83871 0.78311 -0.01344
 H2077 H 0.88321 0.81630 -0.03281
 H2078 H 0.89237 0.77150 -0.05392
 H2079 H 0.81883 0.75138 -0.03882
 H2080 H 0.81846 0.78245 0.00152
 H2081 H 0.85806 0.80679 -0.02330
 H2082 H 0.84436 0.79179 -0.00608
 C2083 C -0.10902 -0.03823 -0.02849
 C2084 C -0.11554 -0.05222 -0.02307
 C2085 C -0.12981 -0.05745 -0.02930
 C2086 C -0.13775 -0.04895 -0.04116
 C2087 C -0.13069 -0.03492 -0.04617
 N2088 N -0.11680 -0.03011 -0.03987
 C2089 C -0.09366 -0.03224 -0.02274
 N2090 N -0.08590 -0.02152 -0.03168
 C2091 C -0.07165 -0.01564 -0.02746
 C2092 C -0.06426 -0.02060 -0.01344
 C2093 C -0.07217 -0.03143 -0.00389
 C2094 C -0.08685 -0.03720 -0.00842
 H2095 H -0.13421 -0.06841 -0.02497
 H2096 H -0.13607 -0.02758 -0.05498
 H2097 H -0.06602 -0.00729 -0.03520
 H2098 H -0.06704 -0.03550 0.00711
 H2099 H -0.10961 -0.05938 -0.01442
 H2100 H -0.09272 -0.04530 -0.00063
 C2101 C -0.11128 0.46648 0.47169
 C2102 C -0.11802 0.45294 0.47790
 C2103 C -0.13228 0.44754 0.47190
 C2104 C -0.14004 0.45540 0.45947
 C2105 C -0.13274 0.46896 0.45357
 N2106 N -0.11882 0.47399 0.45970
 C2107 C -0.09585 0.47245 0.47727
 N2108 N -0.08764 0.48233 0.46775
 C2109 C -0.07316 0.48785 0.47171
 C2110 C -0.06599 0.48329 0.48599
 C2111 C -0.07439 0.47343 0.49617
 C2112 C -0.08931 0.46811 0.49194
 H2113 H -0.13677 0.43690 0.47690
 H2114 H -0.13799 0.47573 0.44421
 H2115 H -0.06714 0.49548 0.46352
 H2116 H -0.06943 0.46979 0.50740
 H2117 H -0.11225 0.44619 0.48699
 H2118 H -0.09555 0.46075 0.50020
 C2119 C 0.39384 -0.03727 0.46614
 C2120 C 0.38773 -0.05139 0.47167
 C2121 C 0.37340 -0.05682 0.46589
 C2122 C 0.36494 -0.04839 0.45435
 C2123 C 0.37174 -0.03439 0.44894
 N2124 N 0.38572 -0.02932 0.45488
 C2125 C 0.40907 -0.03101 0.47190
 N2126 N 0.41708 -0.02063 0.46274
 C2127 C 0.43129 -0.01471 0.46710
 C2128 C 0.43834 -0.01929 0.48142
 C2129 C 0.43010 -0.02968 0.49120
 C2130 C 0.41550 -0.03545 0.48657
 H2131 H 0.36934 -0.06786 0.47033
 H2132 H 0.36598 -0.02720 0.44022
 H2133 H 0.43719 -0.00669 0.45920
 H2134 H 0.43494 -0.03338 0.50247
 H2135 H 0.39404 -0.05848 0.48012
 H2136 H 0.40935 -0.04318 0.49455
 C2137 C 0.39071 0.46333 -0.03187
 C2138 C 0.38390 0.44972 -0.02584
 C2139 C 0.36948 0.44457 -0.03177
 C2140 C 0.36166 0.45276 -0.04393
 C2141 C 0.36908 0.46631 -0.04969
 N2142 N 0.38309 0.47110 -0.04362
 C2143 C 0.40615 0.46932 -0.02629
 N2144 N 0.41384 0.47998 -0.03537
 C2145 C 0.42813 0.48589 -0.03131
 C2146 C 0.43565 0.48100 -0.01733
 C2147 C 0.42784 0.47023 -0.00765
 C2148 C 0.41311 0.46445 -0.01199
 H2149 H 0.36486 0.43390 -0.02695
 H2150 H 0.36380 0.47336 -0.05882
 H2151 H 0.43368 0.49418 -0.03915
 H2152 H 0.43309 0.46624 0.00333
 H2153 H 0.38967 0.44278 -0.01690
 H2154 H 0.40733 0.45641 -0.00407
 C2155 C 0.35932 0.46074 0.77707
 C2156 C 0.36353 0.44508 0.77506
 C2157 C 0.37778 0.43973 0.78117
 C2158 C 0.38786 0.44988 0.78936
 C2159 C 0.38320 0.46545 0.79110
 N2160 N 0.36924 0.47038 0.78508
 C2161 C 0.34412 0.46693 0.77132
 N2162 N 0.33777 0.47956 0.77868
 C2163 C 0.32366 0.48567 0.77435
 C2164 C 0.31502 0.47899 0.76186
 C2165 C 0.32155 0.46617 0.75388
 C2166 C 0.33605 0.46016 0.75851
 H2167 H 0.38066 0.42756 0.77984
 H2168 H 0.39064 0.47374 0.79717
 H2169 H 0.31916 0.49560 0.78080
 H2170 H 0.31539 0.46066 0.74412
 H2171 H 0.35578 0.43688 0.76926
 H2172 H 0.34086 0.45041 0.75201
 C2173 C 0.35803 -0.03266 0.28390
 C2174 C 0.36281 -0.03109 0.29977
 C2175 C 0.37734 -0.03693 0.30449
 C2176 C 0.38719 -0.04442 0.29351
 C2177 C 0.38182 -0.04610 0.27782
 N2178 N 0.36758 -0.04026 0.27347
 C2179 C 0.34271 -0.02652 0.27840
 N2180 N 0.33530 -0.03343 0.26590
 C2181 C 0.32100 -0.02861 0.26058
 C2182 C 0.31327 -0.01611 0.26800
 C2183 C 0.32093 -0.00860 0.28064
 C2184 C 0.33559 -0.01369 0.28581
 H2185 H 0.38071 -0.03579 0.31682
 H2186 H 0.38901 -0.05180 0.26896
 H2187 H 0.31560 -0.03470 0.25073
 H2188 H 0.31555 0.00118 0.28666
 H2189 H 0.35534 -0.02570 0.30860
 H2190 H 0.34128 -0.00753 0.29543
 C2191 C 0.14152 0.53387 0.71762
 C2192 C 0.13657 0.53176 0.70187
 C2193 C 0.12209 0.53758 0.69706
 C2194 C 0.11241 0.54559 0.70781
 C2195 C 0.11800 0.54793 0.72335
 N2196 N 0.13222 0.54208 0.72781
 C2197 C 0.15678 0.52760 0.72313
 N2198 N 0.16494 0.53515 0.73474
 C2199 C 0.17941 0.53036 0.73963
 C2200 C 0.18655 0.51730 0.73261
 C2201 C 0.17804 0.50906 0.72106
 C2202 C 0.16320 0.51410 0.71636
 H2203 H 0.11858 0.53596 0.68482
 H2204 H 0.11095 0.55409 0.73200
 H2205 H 0.18549 0.53700 0.74867
 H2206 H 0.18290 0.49879 0.71545
 H2207 H 0.14388 0.52589 0.69322
 H2208 H 0.15688 0.50745 0.70751
 C2209 C 0.13951 0.03605 0.22127
 C2210 C 0.13497 0.05153 0.22381
 C2211 C 0.12039 0.05661 0.21842
 C2212 C 0.11022 0.04640 0.21043
 C2213 C 0.11532 0.03108 0.20782
 N2214 N 0.12965 0.02636 0.21321
 C2215 C 0.15498 0.03025 0.22673
 N2216 N 0.16214 0.01851 0.21863
 C2217 C 0.17666 0.01315 0.22263
 C2218 C 0.18490 0.01977 0.23545
 C2219 C 0.17747 0.03154 0.24424
 C2220 C 0.16256 0.03674 0.23998
 H2221 H 0.11725 0.06865 0.22027
 H2222 H 0.10788 0.02281 0.20172
 H2223 H 0.18187 0.00397 0.21558
 H2224 H 0.18323 0.03688 0.25434
 H2225 H 0.14269 0.05978 0.22958
 H2226 H 0.15707 0.04572 0.24707
 C2227 C 0.60641 0.71207 0.21702
 C2228 C 0.61097 0.69656 0.21937
 C2229 C 0.62534 0.69137 0.21339
 C2230 C 0.63524 0.70150 0.20497
 C2231 C 0.63013 0.71685 0.20266
 N2232 N 0.61607 0.72165 0.20863
 C2233 C 0.59117 0.71816 0.22294
 N2234 N 0.58469 0.73075 0.21569
 C2235 C 0.57059 0.73679 0.22018
 C2236 C 0.56205 0.73009 0.23272
 C2237 C 0.56869 0.71732 0.24060
 C2238 C 0.58321 0.71138 0.23581
 H2239 H 0.62855 0.67934 0.21512
 H2240 H 0.63738 0.72510 0.19633
 H2241 H 0.56599 0.74668 0.21378
 H2242 H 0.56262 0.71182 0.25040
 H2243 H 0.60345 0.68836 0.22543
 H2244 H 0.58811 0.70169 0.24227
 C2245 C 0.11283 0.71597 0.72077
 C2246 C 0.11789 0.70082 0.72419
 C2247 C 0.13238 0.69570 0.71853
 C2248 C 0.14192 0.70555 0.70939
 C2249 C 0.13638 0.72057 0.70611
 N2250 N 0.12217 0.72531 0.71176
 C2251 C 0.09731 0.72177 0.72611
 N2252 N 0.09014 0.73324 0.71769
 C2253 C 0.07561 0.73871 0.72150
 C2254 C 0.06734 0.73248 0.73447
 C2255 C 0.07473 0.72096 0.74357
 C2256 C 0.08968 0.71565 0.73950
 H2257 H 0.13590 0.68388 0.72098
 H2258 H 0.14336 0.72858 0.69917
 H2259 H 0.07044 0.74768 0.71420
 H2260 H 0.06892 0.71594 0.75380
 H2261 H 0.11061 0.69278 0.73076
 H2262 H 0.09514 0.70690 0.74686
 C2263 C 0.64041 0.21748 0.53344
 C2264 C 0.63553 0.21967 0.54921
 C2265 C 0.62088 0.21423 0.55403
 C2266 C 0.61097 0.20654 0.54325
 C2267 C 0.61640 0.20428 0.52765
 N2268 N 0.63079 0.20971 0.52320
 C2269 C 0.65590 0.22314 0.52790
 N2270 N 0.66346 0.21550 0.51594
 C2271 C 0.67797 0.21985 0.51071
 C2272 C 0.68573 0.23258 0.51768
 C2273 C 0.67791 0.24082 0.52973
 C2274 C 0.66305 0.23620 0.53480
 H2275 H 0.61749 0.21581 0.56631
 H2276 H 0.60917 0.19840 0.51895
 H2277 H 0.68349 0.21322 0.50132
 H2278 H 0.68330 0.25082 0.53535
 H2279 H 0.64306 0.22522 0.55790
 H2280 H 0.65724 0.24290 0.54396
 C2281 C 0.64433 0.71177 0.03241
 C2282 C 0.63989 0.71328 0.04839
 C2283 C 0.62516 0.70814 0.05324
 C2284 C 0.61475 0.70137 0.04230
 C2285 C 0.61986 0.69947 0.02655
 N2286 N 0.63431 0.70469 0.02203
 C2287 C 0.65965 0.71774 0.02673
 N2288 N 0.66698 0.71070 0.01425
 C2289 C 0.68124 0.71552 0.00878
 C2290 C 0.68895 0.72817 0.01598
 C2291 C 0.68136 0.73578 0.02859
 C2292 C 0.66678 0.73066 0.03393
 H2293 H 0.62196 0.70937 0.06562
 H2294 H 0.61223 0.69424 0.01776
 H2295 H 0.68660 0.70936 -0.00104
 H2296 H 0.68672 0.74566 0.03445
 H2297 H 0.64775 0.71826 0.05714
 H2298 H 0.66111 0.73691 0.04352
 C2299 C 0.10821 0.03562 0.03389
 C2300 C 0.11331 0.03342 0.04957
 C2301 C 0.12781 0.03928 0.05433
 C2302 C 0.13735 0.04743 0.04359
 C2303 C 0.13163 0.04985 0.02814
 N2304 N 0.11740 0.04395 0.02373
 C2305 C 0.09293 0.02931 0.02840
 N2306 N 0.08485 0.03675 0.01671
 C2307 C 0.07044 0.03186 0.01169
 C2308 C 0.06329 0.01880 0.01865
 C2309 C 0.07170 0.01071 0.03034
 C2310 C 0.08647 0.01585 0.03517
 H2311 H 0.13145 0.03758 0.06651
 H2312 H 0.13857 0.05613 0.01951
 H2313 H 0.06445 0.03840 0.00256
 H2314 H 0.06681 0.00045 0.03591
 H2315 H 0.10610 0.02746 0.05822
 H2316 H 0.09273 0.00928 0.04409
 C2317 C 0.10948 0.53523 0.52660
 C2318 C 0.11441 0.55050 0.52353
 C2319 C 0.12893 0.55560 0.52918
 C2320 C 0.13865 0.54561 0.53796
 C2321 C 0.13321 0.53047 0.54093
 N2322 N 0.11897 0.52576 0.53531
 C2323 C 0.09394 0.52943 0.52125
 N2324 N 0.08685 0.51778 0.52950
 C2325 C 0.07228 0.51237 0.52572
 C2326 C 0.06386 0.51884 0.51298
 C2327 C 0.07119 0.53052 0.50401
 C2328 C 0.08618 0.53578 0.50804
 H2329 H 0.13234 0.56750 0.52696
 H2330 H 0.14030 0.52234 0.54757
 H2331 H 0.06717 0.50327 0.53292
 H2332 H 0.06527 0.53576 0.49397
 H2333 H 0.10702 0.55863 0.51723
 H2334 H 0.09158 0.54469 0.50082
 C2335 C 0.61157 0.03294 0.53050
 C2336 C 0.61668 0.02983 0.54601
 C2337 C 0.63117 0.03544 0.55112
 C2338 C 0.64068 0.04423 0.54089
 C2339 C 0.63499 0.04744 0.52558
 N2340 N 0.62077 0.04180 0.52083
 C2341 C 0.59622 0.02712 0.52470
 N2342 N 0.58816 0.03535 0.51356
 C2343 C 0.57364 0.03097 0.50840
 C2344 C 0.56636 0.01764 0.51463
 C2345 C 0.57475 0.00873 0.52570
 C2346 C 0.58964 0.01336 0.53068
 H2347 H 0.63476 0.03310 0.56319
 H2348 H 0.64192 0.05420 0.51733
 H2349 H 0.56766 0.03812 0.49974
 H2350 H 0.56977 -0.00177 0.53066
 H2351 H 0.60946 0.02340 0.55429
 H2352 H 0.59588 0.00619 0.53911
 C2353 C 0.60935 0.53723 0.02558
 C2354 C 0.61425 0.55269 0.02357
 C2355 C 0.62876 0.55745 0.02963
 C2356 C 0.63844 0.54692 0.03775
 C2357 C 0.63312 0.53155 0.03943
 N2358 N 0.61892 0.52720 0.03348
 C2359 C 0.59375 0.53168 0.02012
 N2360 N 0.58721 0.51912 0.02737
 C2361 C 0.57271 0.51363 0.02348
 C2362 C 0.56378 0.52095 0.01163
 C2363 C 0.57048 0.53367 0.00369
 C2364 C 0.58542 0.53903 0.00784
 H2365 H 0.63215 0.56949 0.02834
 H2366 H 0.64023 0.52297 0.04544
 H2367 H 0.56811 0.50372 0.02986
 H2368 H 0.56412 0.53962 -0.00563
 H2369 H 0.60684 0.56121 0.01787
 H2370 H 0.59033 0.54875 0.00141
 C2371 C 0.02839 0.03646 0.11382
 C2372 C 0.02273 0.05036 0.12036
 C2373 C 0.02861 0.05565 0.13484
 C2374 C 0.04037 0.04729 0.14301
 C2375 C 0.04573 0.03340 0.13588
 N2376 N 0.03974 0.02850 0.12176
 C2377 C 0.02294 0.03051 0.09822
 N2378 N 0.03214 0.02015 0.09025
 C2379 C 0.02826 0.01451 0.07568
 C2380 C 0.01438 0.01940 0.06815
 C2381 C 0.00452 0.02977 0.07631
 C2382 C 0.00868 0.03526 0.09133
 H2383 H 0.02407 0.06654 0.13921
 H2384 H 0.05455 0.02622 0.14142
 H2385 H 0.03620 0.00647 0.06988
 H2386 H -0.00640 0.03371 0.07108
 H2387 H 0.01414 0.05743 0.11427
 H2388 H 0.00068 0.04302 0.09738
 C2389 C 0.03397 0.53196 0.61092
 C2390 C 0.04957 0.52970 0.61586
 C2391 C 0.05441 0.53528 0.63061
 C2392 C 0.04382 0.54319 0.64054
 C2393 C 0.02837 0.54542 0.63507
 N2394 N 0.02391 0.53986 0.62061
 C2395 C 0.02840 0.52646 0.59522
 N2396 N 0.01622 0.53394 0.58804
 C2397 C 0.01088 0.52985 0.57338
 C2398 C 0.01796 0.51756 0.56500
 C2399 C 0.03026 0.50945 0.57239
 C2400 C 0.03544 0.51380 0.58745
 H2401 H 0.06656 0.53368 0.63403
 H2402 H 0.01981 0.55143 0.64232
 H2403 H 0.00128 0.53636 0.56822
 H2404 H 0.03597 0.49978 0.56651
 H2405 H 0.05814 0.52405 0.60831
 H2406 H 0.04479 0.50719 0.59292
 C2407 C 0.53027 0.03284 0.61071
 C2408 C 0.52425 0.04644 0.61763
 C2409 C 0.53001 0.05151 0.63224
 C2410 C 0.54200 0.04327 0.64017
 C2411 C 0.54763 0.02962 0.63272
 N2412 N 0.54177 0.02494 0.61847
 C2413 C 0.52503 0.02721 0.59491
 N2414 N 0.53456 0.01742 0.58657
 C2415 C 0.53088 0.01222 0.57175
 C2416 C 0.51690 0.01703 0.56437
 C2417 C 0.50671 0.02677 0.57294
 C2418 C 0.51064 0.03177 0.58817
 H2419 H 0.52521 0.06218 0.63691
 H2420 H 0.55660 0.02251 0.63807
 H2421 H 0.53906 0.00467 0.56564
 H2422 H 0.49568 0.03060 0.56784
 H2423 H 0.51551 0.05345 0.61171
 H2424 H 0.50240 0.03906 0.59451
 C2425 C 0.53125 0.53448 0.10908
 C2426 C 0.52875 0.54991 0.11381
 C2427 C 0.53385 0.55484 0.12868
 C2428 C 0.54151 0.54450 0.13895
 C2429 C 0.54420 0.52925 0.13361
 N2430 N 0.53907 0.52468 0.11900
 C2431 C 0.52574 0.52882 0.09343
 N2432 N 0.53386 0.51739 0.08580
 C2433 C 0.52967 0.51217 0.07111
 C2434 C 0.51662 0.51860 0.06325
 C2435 C 0.50786 0.53005 0.07118
 C2436 C 0.51232 0.53513 0.08621
 H2437 H 0.53197 0.56684 0.13200
 H2438 H 0.55009 0.52091 0.14111
 H2439 H 0.53669 0.50322 0.06551
 H2440 H 0.49759 0.53524 0.06573
 H2441 H 0.52315 0.55823 0.10603
 H2442 H 0.50525 0.54386 0.09210
 C2443 C 0.21829 0.53628 0.63744
 C2444 C 0.22052 0.55181 0.63292
 C2445 C 0.21468 0.55696 0.61841
 C2446 C 0.20653 0.54676 0.60832
 C2447 C 0.20425 0.53139 0.61341
 N2448 N 0.21009 0.52661 0.62764
 C2449 C 0.22424 0.53030 0.65278
 N2450 N 0.21680 0.51809 0.65980
 C2451 C 0.22135 0.51235 0.67412
 C2452 C 0.23411 0.51900 0.68230
 C2453 C 0.24220 0.53131 0.67503
 C2454 C 0.23737 0.53693 0.66032
 H2455 H 0.21634 0.56902 0.61524
 H2456 H 0.19808 0.52311 0.60602
 H2457 H 0.21482 0.50278 0.67920
 H2458 H 0.25221 0.53673 0.68077
 H2459 H 0.22641 0.56005 0.64060
 H2460 H 0.24396 0.54629 0.65494
 C2461 C 0.21694 0.03272 0.13920
 C2462 C 0.20141 0.03013 0.13422
 C2463 C 0.19637 0.03597 0.11969
 C2464 C 0.20670 0.04445 0.11000
 C2465 C 0.22210 0.04697 0.11550
 N2466 N 0.22676 0.04116 0.12977
 C2467 C 0.22263 0.02700 0.15474
 N2468 N 0.23428 0.03487 0.16242
 C2469 C 0.23948 0.03066 0.17707
 C2470 C 0.23277 0.01787 0.18492
 C2471 C 0.22112 0.00932 0.17695
 C2472 C 0.21609 0.01377 0.16190
 H2473 H 0.18425 0.03413 0.11626
 H2474 H 0.23048 0.05341 0.10843
 H2475 H 0.24858 0.03754 0.18270
 H2476 H 0.21574 -0.00076 0.18240
 H2477 H 0.19303 0.02404 0.14160
 H2478 H 0.20720 0.00687 0.15599
 C2479 C 0.71664 0.21608 0.61045
 C2480 C 0.71895 0.20053 0.61482
 C2481 C 0.71380 0.19540 0.62957
 C2482 C 0.70625 0.20564 0.64008
 C2483 C 0.70365 0.22099 0.63506
 N2484 N 0.70886 0.22577 0.62057
 C2485 C 0.72240 0.22199 0.59502
 N2486 N 0.71457 0.23373 0.58762
 C2487 C 0.71907 0.23924 0.57317
 C2488 C 0.73215 0.23283 0.56531
 C2489 C 0.74060 0.22104 0.57300
 C2490 C 0.73583 0.21566 0.58780
 H2491 H 0.71559 0.18335 0.63267
 H2492 H 0.69781 0.22924 0.64276
 H2493 H 0.71226 0.24842 0.56774
 H2494 H 0.75087 0.21583 0.56755
 H2495 H 0.72450 0.19230 0.60687
 H2496 H 0.74269 0.20669 0.59352
 C2497 C 0.71742 0.71377 0.10733
 C2498 C 0.71989 0.69832 0.11200
 C2499 C 0.71368 0.69308 0.12632
 C2500 C 0.70494 0.70309 0.13609
 C2501 C 0.70237 0.71836 0.13081
 N2502 N 0.70859 0.72324 0.11676
 C2503 C 0.72387 0.71979 0.09218
 N2504 N 0.71630 0.73156 0.08459
 C2505 C 0.72126 0.73720 0.07035
 C2506 C 0.73460 0.73086 0.06286
 C2507 C 0.74282 0.71904 0.07075
 C2508 C 0.73756 0.71354 0.08537
 H2509 H 0.71555 0.68108 0.12959
 H2510 H 0.69570 0.72647 0.13794
 H2511 H 0.71459 0.74639 0.06477
 H2512 H 0.75324 0.71387 0.06556
 H2513 H 0.72626 0.69021 0.10458
 H2514 H 0.74424 0.70453 0.09124
 C2515 C 0.53599 0.71896 0.13869
 C2516 C 0.55185 0.72008 0.13421
 C2517 C 0.55662 0.71436 0.11950
 C2518 C 0.54570 0.70743 0.10917
 C2519 C 0.52998 0.70634 0.11418
 N2520 N 0.52559 0.71201 0.12861
 C2521 C 0.53039 0.72466 0.15430
 N2522 N 0.51734 0.71812 0.16088
 C2523 C 0.51174 0.72252 0.17534
 C2524 C 0.51941 0.73419 0.18411
 C2525 C 0.53269 0.74130 0.17737
 C2526 C 0.53816 0.73663 0.16251
 H2527 H 0.56895 0.71506 0.11640
 H2528 H 0.52116 0.70113 0.10661
 H2529 H 0.50141 0.71677 0.18000
 H2530 H 0.53893 0.75044 0.18360
 H2531 H 0.56063 0.72495 0.14207
 H2532 H 0.54826 0.74249 0.15751
 C2533 C 0.03327 0.71702 0.63799
 C2534 C 0.03016 0.70177 0.63296
 C2535 C 0.03553 0.69677 0.61820
 C2536 C 0.04407 0.70683 0.60833
 C2537 C 0.04727 0.72189 0.61394
 N2538 N 0.04187 0.72654 0.62842
 C2539 C 0.02780 0.72276 0.65364
 N2540 N 0.03603 0.73421 0.66113
 C2541 C 0.03198 0.73958 0.67578
 C2542 C 0.01894 0.73332 0.68381
 C2543 C 0.01005 0.72183 0.67607
 C2544 C 0.01438 0.71659 0.66103
 H2545 H 0.03321 0.68490 0.61467
 H2546 H 0.05382 0.73003 0.60675
 H2547 H 0.03911 0.74854 0.68122
 H2548 H -0.00021 0.71677 0.68167
 H2549 H 0.02395 0.69361 0.64044
 H2550 H 0.00718 0.70787 0.65529
 C2551 C 0.52740 0.64138 0.21575
 C2552 C 0.52550 0.63625 0.20003
 C2553 C 0.53079 0.62155 0.19567
 C2554 C 0.53806 0.61186 0.20685
 C2555 C 0.53994 0.61749 0.22241
 N2556 N 0.53467 0.63191 0.22640
 C2557 C 0.52216 0.65701 0.22085
 N2558 N 0.52954 0.66409 0.23326
 C2559 C 0.52563 0.67863 0.23825
 C2560 C 0.51364 0.68695 0.23055
 C2561 C 0.50565 0.67968 0.21798
 C2562 C 0.50980 0.66476 0.21316
 H2563 H 0.52950 0.61796 0.18342
 H2564 H 0.54546 0.61042 0.23143
 H2565 H 0.53205 0.68372 0.24806
 H2566 H 0.49620 0.68553 0.21179
 H2567 H 0.52036 0.64360 0.19102
 H2568 H 0.50327 0.65937 0.20360
 C2569 C 0.03140 0.64191 0.71747
 C2570 C 0.02868 0.63695 0.70182
 C2571 C 0.03453 0.62266 0.69674
 C2572 C 0.04315 0.61321 0.70715
 C2573 C 0.04581 0.61870 0.72265
 N2574 N 0.04000 0.63271 0.72734
 C2575 C 0.02566 0.65716 0.72327
 N2576 N 0.03366 0.66459 0.73507
 C2577 C 0.02949 0.67895 0.74039
 C2578 C 0.01659 0.68675 0.73366
 C2579 C 0.00787 0.67903 0.72189
 C2580 C 0.01231 0.66428 0.71673
 H2581 H 0.03254 0.61920 0.68456
 H2582 H 0.05233 0.61181 0.73112
 H2583 H 0.03650 0.68439 0.74957
 H2584 H -0.00226 0.68446 0.71645
 H2585 H 0.02246 0.64414 0.69339
 H2586 H 0.00530 0.65858 0.70771
 C2587 C 0.02975 0.10965 0.03110
 C2588 C 0.04526 0.11428 0.02790
 C2589 C 0.05077 0.12838 0.03375
 C2590 C 0.04095 0.13802 0.04286
 C2591 C 0.02558 0.13286 0.04605
 N2592 N 0.02046 0.11899 0.04021
 C2593 C 0.02363 0.09454 0.02538
 N2594 N 0.01241 0.08701 0.03397
 C2595 C 0.00708 0.07262 0.02991
 C2596 C 0.01327 0.06489 0.01658
 C2597 C 0.02437 0.07275 0.00722
 C2598 C 0.02949 0.08754 0.01151
 H2599 H 0.06286 0.13155 0.03139
 H2600 H 0.01760 0.13990 0.05301
 H2601 H -0.00158 0.06706 0.03741
 H2602 H 0.02933 0.06738 -0.00329
 H2603 H 0.05326 0.10693 0.02129
 H2604 H 0.03802 0.09335 0.00405
 C2605 C 0.02826 0.61144 0.53002
 C2606 C 0.02564 0.61673 0.54557
 C2607 C 0.03148 0.63112 0.55027
 C2608 C 0.04001 0.64037 0.53958
 C2609 C 0.04252 0.63460 0.52416
 N2610 N 0.03671 0.62046 0.51985
 C2611 C 0.02263 0.59601 0.52472
 N2612 N 0.03067 0.58828 0.51316
 C2613 C 0.02661 0.57371 0.50835
 C2614 C 0.01382 0.56602 0.51543
 C2615 C 0.00508 0.57402 0.52698
 C2616 C 0.00938 0.58898 0.53159
 H2617 H 0.02965 0.63479 0.56242
 H2618 H 0.04898 0.64132 0.51551
 H2619 H 0.03361 0.56805 0.49931
 H2620 H -0.00502 0.56869 0.53262
 H2621 H 0.01955 0.60969 0.55424
 H2622 H 0.00233 0.59491 0.54042
 C2623 C 0.53329 0.10919 0.53037
 C2624 C 0.54884 0.11395 0.52760
 C2625 C 0.55405 0.12816 0.53351
 C2626 C 0.54387 0.13776 0.54225
 C2627 C 0.52846 0.13246 0.54500
 N2628 N 0.52364 0.11850 0.53912
 C2629 C 0.52737 0.09408 0.52445
 N2630 N 0.51587 0.08653 0.53265
 C2631 C 0.51049 0.07225 0.52824
 C2632 C 0.51686 0.06469 0.51490
 C2633 C 0.52832 0.07257 0.50598
 C2634 C 0.53353 0.08721 0.51066
 H2635 H 0.56616 0.13147 0.53147
 H2636 H 0.52017 0.13946 0.55162
 H2637 H 0.50156 0.06669 0.53541
 H2638 H 0.53346 0.06733 0.49549
 H2639 H 0.55708 0.10664 0.52125
 H2640 H 0.54230 0.09303 0.50351
 C2641 C 0.52819 0.61066 0.03067
 C2642 C 0.52548 0.61564 0.04632
 C2643 C 0.53183 0.62967 0.05154
 C2644 C 0.54095 0.63883 0.04128
 C2645 C 0.54348 0.63339 0.02574
 N2646 N 0.53719 0.61962 0.02093
 C2647 C 0.52222 0.59554 0.02477
 N2648 N 0.53007 0.58820 0.01282
 C2649 C 0.52578 0.57392 0.00739
 C2650 C 0.51294 0.56608 0.01419
 C2651 C 0.50435 0.57371 0.02613
 C2652 C 0.50888 0.58841 0.03138
 H2653 H 0.52989 0.63312 0.06374
 H2654 H 0.55034 0.64008 0.01739
 H2655 H 0.53270 0.56855 -0.00191
 H2656 H 0.49425 0.56824 0.03162
 H2657 H 0.51893 0.60863 0.05467
 H2658 H 0.50198 0.59404 0.04051
 C2659 C 0.71872 0.14234 0.53552
 C2660 C 0.72437 0.13566 0.54957
 C2661 C 0.71890 0.12114 0.55432
 C2662 C 0.70755 0.11306 0.54528
 C2663 C 0.70200 0.12042 0.53138
 N2664 N 0.70764 0.13456 0.52698
 C2665 C 0.72415 0.15777 0.52990
 N2666 N 0.71500 0.16586 0.51952
 C2667 C 0.71908 0.18018 0.51407
 C2668 C 0.73311 0.18724 0.51914
 C2669 C 0.74285 0.17896 0.52957
 C2670 C 0.73850 0.16425 0.53487
 H2671 H 0.72343 0.11661 0.56534
 H2672 H 0.69342 0.11497 0.52374
 H2673 H 0.71122 0.18612 0.50600
 H2674 H 0.75389 0.18382 0.53366
 H2675 H 0.73270 0.14163 0.55713
 H2676 H 0.74646 0.15808 0.54262
 C2677 C 0.72175 0.64048 0.03490
 C2678 C 0.72349 0.63568 0.05074
 C2679 C 0.71734 0.62139 0.05550
 C2680 C 0.70940 0.61185 0.04459
 C2681 C 0.70789 0.61710 0.02888
 N2682 N 0.71395 0.63108 0.02453
 C2683 C 0.72752 0.65576 0.02928
 N2684 N 0.72066 0.66224 0.01628
 C2685 C 0.72500 0.67637 0.01058
 C2686 C 0.73697 0.68493 0.01809
 C2687 C 0.74444 0.67830 0.03132
 C2688 C 0.73981 0.66375 0.03690
 H2689 H 0.71848 0.61804 0.06781
 H2690 H 0.70200 0.61010 0.02002
 H2691 H 0.71895 0.68095 0.00030
 H2692 H 0.75379 0.68440 0.03745
 H2693 H 0.72910 0.64298 0.05953
 H2694 H 0.74592 0.65886 0.04697
 C2695 C 0.22038 0.60979 0.72092
 C2696 C 0.20517 0.61500 0.72467
 C2697 C 0.20003 0.62932 0.71904
 C2698 C 0.20992 0.63857 0.70962
 C2699 C 0.22503 0.63290 0.70606
 N2700 N 0.22977 0.61885 0.71166
 C2701 C 0.22610 0.59437 0.72610
 N2702 N 0.23719 0.58693 0.71723
 C2703 C 0.24236 0.57239 0.72080
 C2704 C 0.23618 0.56440 0.73394
 C2705 C 0.22514 0.57209 0.74353
 C2706 C 0.22014 0.58704 0.73972
 H2707 H 0.18814 0.63291 0.72174
 H2708 H 0.23309 0.63964 0.69892
 H2709 H 0.25098 0.56698 0.71312
 H2710 H 0.22018 0.56651 0.75390
 H2711 H 0.19708 0.60794 0.73146
 H2712 H 0.21171 0.59272 0.74740
 C2713 C 0.21992 0.11088 0.21761
 C2714 C 0.22238 0.11551 0.20183
 C2715 C 0.21627 0.12958 0.19657
 C2716 C 0.20766 0.13917 0.20691
 C2717 C 0.20533 0.13404 0.22257
 N2718 N 0.21137 0.12021 0.22744
 C2719 C 0.22579 0.09578 0.22354
 N2720 N 0.21786 0.08844 0.23540
 C2721 C 0.22211 0.07415 0.24079
 C2722 C 0.23500 0.06633 0.23404
 C2723 C 0.24366 0.07397 0.22219
 C2724 C 0.23916 0.08865 0.21698
 H2725 H 0.21801 0.13273 0.18427
 H2726 H 0.19884 0.14105 0.23099
 H2727 H 0.21515 0.06878 0.25004
 H2728 H 0.25380 0.06852 0.21675
 H2729 H 0.22856 0.10818 0.19345
 H2730 H 0.24610 0.09429 0.20789
 C2731 C 0.72361 1.10919 0.71631
 C2732 C 0.72551 1.11443 0.70065
 C2733 C 0.71974 1.12897 0.69636
 C2734 C 0.71201 1.13837 0.70755
 C2735 C 0.71025 1.13265 0.72306
 N2736 N 0.71595 1.11840 0.72697
 C2737 C 0.72904 1.09361 0.72131
 N2738 N 0.72174 1.08651 0.73372
 C2739 C 0.72568 1.07198 0.73861
 C2740 C 0.73762 1.06365 0.73080
 C2741 C 0.74558 1.07093 0.71825
 C2742 C 0.74140 1.08587 0.71352
 H2743 H 0.72100 1.13262 0.68415
 H2744 H 0.70444 1.13951 0.73209
 H2745 H 0.71929 1.06691 0.74843
 H2746 H 0.75498 1.06505 0.71198
 H2747 H 0.73096 1.10728 0.69163
 H2748 H 0.74787 1.09126 0.70395
 C2749 C 0.71870 0.60860 0.21636
 C2750 C 0.72141 0.61323 0.20062
 C2751 C 0.71549 0.62736 0.19528
 C2752 C 0.70680 0.63700 0.20550
 C2753 C 0.70422 0.63189 0.22113
 N2754 N 0.71010 0.61801 0.22607
 C2755 C 0.72431 0.59343 0.22238
 N2756 N 0.71637 0.58641 0.23444
 C2757 C 0.72037 0.57211 0.23998
 C2758 C 0.73300 0.56392 0.23318
 C2759 C 0.74167 0.57120 0.22111
 C2760 C 0.73744 0.58592 0.21576
 H2761 H 0.71741 0.63052 0.18301
 H2762 H 0.69765 0.63894 0.22944
 H2763 H 0.71340 0.56702 0.24939
 H2764 H 0.75162 0.56546 0.21564
 H2765 H 0.72762 0.60587 0.19229
 H2766 H 0.74442 0.59128 0.20653
 C2767 C 0.53342 0.13661 0.72321
 C2768 C 0.54733 0.13004 0.72908
 C2769 C 0.55277 0.11602 0.72288
 C2770 C 0.54455 0.10833 0.71060
 C2771 C 0.53058 0.11543 0.70511
 N2772 N 0.52557 0.12913 0.71139
 C2773 C 0.52745 0.15182 0.72893
 N2774 N 0.51764 0.16016 0.71941
 C2775 C 0.51228 0.17451 0.72349
 C2776 C 0.51696 0.18140 0.73787
 C2777 C 0.52665 0.17279 0.74808
 C2778 C 0.53180 0.15802 0.74374
 H2779 H 0.56364 0.11159 0.72765
 H2780 H 0.52350 0.11028 0.69588
 H2781 H 0.50477 0.18069 0.71528
 H2782 H 0.53037 0.17751 0.75940
 H2783 H 0.55432 0.13579 0.73807
 H2784 H 0.53908 0.15163 0.75197
 C2785 C 1.03361 0.14354 0.22270
 C2786 C 1.04918 0.13864 0.22509
 C2787 C 1.05386 0.12403 0.21975
 C2788 C 1.04315 0.11422 0.21196
 C2789 C 1.02772 0.11962 0.20964
 N2790 N 1.02342 0.13394 0.21495
 C2791 C 1.02816 0.15906 0.22792
 N2792 N 1.01595 0.16591 0.22016
 C2793 C 1.01062 0.18032 0.22405
 C2794 C 1.01771 0.18875 0.23643
 C2795 C 1.03008 0.18173 0.24481
 C2796 C 1.03528 0.16693 0.24065
 H2797 H 1.06599 0.12061 0.22141
 H2798 H 1.01906 0.11245 0.20374
 H2799 H 1.00099 0.18522 0.21731
 H2800 H 1.03584 0.18769 0.25454
 H2801 H 1.05783 0.14610 0.23063
 H2802 H 1.04466 0.16173 0.24748
 C2803 C 0.21840 0.64094 0.52654
 C2804 C 0.20293 0.63621 0.52323
 C2805 C 0.19760 0.62187 0.52865
 C2806 C 0.20756 0.61213 0.53742
 C2807 C 0.22293 0.61735 0.54060
 N2808 N 0.22786 0.63144 0.53522
 C2809 C 0.22441 0.65623 0.52128
 N2810 N 0.23575 0.66353 0.52997
 C2811 C 0.24127 0.67789 0.52614
 C2812 C 0.23525 0.68580 0.51288
 C2813 C 0.22391 0.67823 0.50352
 C2814 C 0.21853 0.66350 0.50763
 H2815 H 0.18554 0.61863 0.52627
 H2816 H 0.23106 0.61024 0.54725
 H2817 H 0.25008 0.68323 0.53366
 H2818 H 0.21902 0.68373 0.49308
 H2819 H 0.19483 0.64364 0.51690
 H2820 H 0.20990 0.65790 0.50010
 C2821 C 0.21764 0.14455 1.03516
 C2822 C 0.21996 0.13971 1.05090
 C2823 C 0.21416 0.12535 1.05580
 C2824 C 0.20595 0.11575 1.04515
 C2825 C 0.20361 0.12115 1.02959
 N2826 N 0.20942 0.13519 1.02507
 C2827 C 0.22347 0.15976 1.02939
 N2828 N 0.21618 0.16659 1.01681
 C2829 C 0.22060 0.18073 1.01114
 C2830 C 0.23306 0.18891 1.01827
 C2831 C 0.24098 0.18188 1.03099
 C2832 C 0.23630 0.16735 1.03652
 H2833 H 0.21587 0.12191 1.06803
 H2834 H 0.19741 0.11413 1.02096
 H2835 H 0.21418 0.18564 1.00126
 H2836 H 0.25075 0.18765 1.03679
 H2837 H 0.22587 0.14699 1.05951
 H2838 H 0.24278 0.16215 1.04619
 C2839 C 0.21683 0.71157 0.60652
 C2840 C 0.21893 0.69605 0.61118
 C2841 C 0.21384 0.69127 0.62612
 C2842 C 0.20654 0.70182 0.63648
 C2843 C 0.20431 0.71715 0.63123
 N2844 N 0.20945 0.72157 0.61662
 C2845 C 0.22233 0.71730 0.59090
 N2846 N 0.21518 0.72985 0.58424
 C2847 C 0.21965 0.73569 0.56991
 C2848 C 0.23209 0.72884 0.56143
 C2849 C 0.23975 0.71603 0.56824
 C2850 C 0.23497 0.71029 0.58291
 H2851 H 0.21541 0.67924 0.62945
 H2852 H 0.19878 0.72569 0.63882
 H2853 H 0.21343 0.74562 0.56517
 H2854 H 0.24948 0.71040 0.56225
 H2855 H 0.22420 0.68756 0.60333
 H2856 H 0.24134 0.70063 0.58798
 C2857 C 0.21541 0.21701 1.10920
 C2858 C 0.22168 0.20333 1.11557
 C2859 C 0.21623 0.19782 1.13008
 C2860 C 0.20429 0.20572 1.13848
 C2861 C 0.19815 0.21932 1.13143
 N2862 N 0.20377 0.22448 1.11725
 C2863 C 0.22084 0.22321 1.09373
 N2864 N 0.21104 0.23240 1.08505
 C2865 C 0.21511 0.23798 1.07050
 C2866 C 0.22978 0.23423 1.06383
 C2867 C 0.24019 0.22514 1.07279
 C2868 C 0.23584 0.21974 1.08771
 H2869 H 0.22128 0.18711 1.13430
 H2870 H 0.18907 0.22607 1.13713
 H2871 H 0.20676 0.24503 1.06404
 H2872 H 0.25173 0.22217 1.06827
 H2873 H 0.23047 0.19661 1.10930
 H2874 H 0.24426 0.21301 1.09442
 C2875 C 0.71256 0.52922 0.13955
 C2876 C 0.69699 0.52719 0.13435
 C2877 C 0.69237 0.53320 0.11971
 C2878 C 0.70316 0.54130 0.11018
 C2879 C 0.71861 0.54310 0.11584
 N2880 N 0.72282 0.53716 0.13017
 C2881 C 0.71794 0.52359 0.15526
 N2882 N 0.73038 0.53075 0.16238
 C2883 C 0.73564 0.52662 0.17703
 C2884 C 0.72821 0.51462 0.18547
 C2885 C 0.71565 0.50680 0.17814
 C2886 C 0.71053 0.51119 0.16308
 H2887 H 0.68025 0.53184 0.11608
 H2888 H 0.72736 0.54913 0.10887
 H2889 H 0.74544 0.53292 0.18214
 H2890 H 0.70963 0.49737 0.18409
 H2891 H 0.68828 0.52146 0.14163
 H2892 H 0.70095 0.50484 0.15767
 C2893 C 0.71964 1.02841 0.63723
 C2894 C 0.70422 1.02551 0.63204
 C2895 C 0.69912 1.03162 0.61764
 C2896 C 0.70926 1.04069 0.60830
 C2897 C 0.72456 1.04342 0.61397
 N2898 N 0.72927 1.03735 0.62810
 C2899 C 0.72538 1.02266 0.65275
 N2900 N 0.73707 1.03057 0.66032
 C2901 C 0.74236 1.02646 0.67496
 C2902 C 0.73569 1.01373 0.68296
 C2903 C 0.72400 1.00512 0.67512
 C2904 C 0.71889 1.00947 0.66005
 H2905 H 0.68709 1.02956 0.61406
 H2906 H 0.73281 1.05028 0.60717
 H2907 H 0.75148 1.03339 0.68048
 H2908 H 0.71864 0.99511 0.68070
 H2909 H 0.69595 1.01900 0.63917
 H2910 H 0.70996 1.00253 0.65426
 C2911 C 0.53476 0.21583 0.64236
 C2912 C 0.55031 0.21813 0.63728
 C2913 C 0.55496 0.21275 0.62241
 C2914 C 0.54424 0.20498 0.61250
 C2915 C 0.52889 0.20258 0.61816
 N2916 N 0.52459 0.20798 0.63274
 C2917 C 0.52935 0.22130 0.65813
 N2918 N 0.51732 0.21374 0.66548
 C2919 C 0.51216 0.21782 0.68021
 C2920 C 0.51928 0.23017 0.68847
 C2921 C 0.53141 0.23838 0.68089
 C2922 C 0.53641 0.23405 0.66576
 H2923 H 0.56706 0.21444 0.61883
 H2924 H 0.52025 0.19664 0.61092
 H2925 H 0.50269 0.21122 0.68552
 H2926 H 0.53714 0.24809 0.68668
 H2927 H 0.55895 0.22373 0.64478
 H2928 H 0.54564 0.24072 0.66014
 C2929 C 1.03508 0.21687 0.14233
 C2930 C 1.04937 0.22185 0.13578
 C2931 C 1.05438 0.21590 0.12126
 C2932 C 1.04534 0.20472 0.11302
 C2933 C 1.03121 0.19980 0.12030
 N2934 N 1.02656 0.20591 0.13446
 C2935 C 1.02924 0.22294 0.15775
 N2936 N 1.01881 0.21432 0.16631
 C2937 C 1.01328 0.21901 0.18072
 C2938 C 1.01834 0.23313 0.18739
 C2939 C 1.02878 0.24234 0.17858
 C2940 C 1.03415 0.23737 0.16379
 H2941 H 1.06557 0.21994 0.11686
 H2942 H 1.02360 0.19135 0.11474
 H2943 H 1.00518 0.21155 0.18706
 H2944 H 1.03284 0.25343 0.18310
 H2945 H 1.05691 0.23004 0.14189
 H2946 H 1.04193 0.24491 0.15719
 C2947 C 0.61167 0.21234 0.72472
 C2948 C 0.61681 0.19701 0.72702
 C2949 C 0.63130 0.19234 0.72091
 C2950 C 0.64075 0.20283 0.71244
 C2951 C 0.63513 0.21804 0.71032
 N2952 N 0.62094 0.22231 0.71637
 C2953 C 0.59613 0.21777 0.73047
 N2954 N 0.58909 0.22992 0.72300
 C2955 C 0.57459 0.23519 0.72718
 C2956 C 0.56620 0.22806 0.73957
 C2957 C 0.57346 0.21580 0.74774
 C2958 C 0.58839 0.21068 0.74329
 H2959 H 0.63491 0.18040 0.72250
 H2960 H 0.64204 0.22656 0.70399
 H2961 H 0.56953 0.24475 0.72060
 H2962 H 0.56755 0.21003 0.75747
 H2963 H 0.60960 0.18851 0.73305
 H2964 H 0.59374 0.20133 0.74991
 C2965 C 1.10793 0.21517 0.22014
 C2966 C 1.11248 0.19969 0.22268
 C2967 C 1.12682 0.19442 0.21673
 C2968 C 1.13668 0.20445 0.20816
 C2969 C 1.13161 0.21980 0.20573
 N2970 N 1.11757 0.22467 0.21165
 C2971 C 1.09270 0.22127 0.22598
 N2972 N 1.08585 0.23339 0.21825
 C2973 C 1.07167 0.23930 0.22268
 C2974 C 1.06348 0.23293 0.23562
 C2975 C 1.07055 0.22069 0.24398
 C2976 C 1.08511 0.21488 0.23926
 H2977 H 1.12999 0.18239 0.21855
 H2978 H 1.13885 0.22797 0.19929
 H2979 H 1.06673 0.24880 0.21592
 H2980 H 1.06477 0.21545 0.25411
 H2981 H 1.10494 0.19157 0.22884
 H2982 H 1.09035 0.20558 0.24605
 C2983 C 0.14211 0.71288 0.52735
 C2984 C 0.13702 0.69753 0.52493
 C2985 C 0.12235 0.69290 0.53065
 C2986 C 0.11271 0.70343 0.53886
 C2987 C 0.11830 0.71863 0.54117
 N2988 N 0.13264 0.72287 0.53548
 C2989 C 0.15771 0.71841 0.52188
 N2990 N 0.16426 0.73096 0.52920
 C2991 C 0.17863 0.73661 0.52512
 C2992 C 0.18738 0.72954 0.51294
 C2993 C 0.18072 0.71678 0.50500
 C2994 C 0.16592 0.71122 0.50938
 H2995 H 0.11874 0.68096 0.52892
 H2996 H 0.11125 0.72718 0.54732
 H2997 H 0.18322 0.74653 0.53154
 H2998 H 0.18697 0.71100 0.49546
 H2999 H 0.14435 0.68902 0.51905
 H3000 H 0.16099 0.70152 0.50289
 C3001 C 0.13887 0.21443 1.02925
 C3002 C 0.13391 0.19911 1.02642
 C3003 C 0.11941 0.19413 1.03223
 C3004 C 0.10979 0.20429 1.04095
 C3005 C 0.11521 0.21949 1.04360
 N3006 N 0.12941 0.22408 1.03782
 C3007 C 0.15436 0.22021 1.02378
 N3008 N 0.16106 0.23245 1.03151
 C3009 C 0.17542 0.23818 1.02747
 C3010 C 0.18398 0.23151 1.01492
 C3011 C 0.17714 0.21909 1.00657
 C3012 C 0.16236 0.21347 1.01089
 H3013 H 0.11595 0.18219 1.03023
 H3014 H 0.10816 0.22774 1.05018
 H3015 H 0.18017 0.24782 1.03420
 H3016 H 0.18322 0.21365 0.99672
 H3017 H 0.14126 0.19085 1.02019
 H3018 H 0.15730 0.20406 1.00407
 C3019 C 0.63646 0.53555 0.22270
 C3020 C 0.63169 0.55101 0.22505
 C3021 C 0.61722 0.55595 0.21915
 C3022 C 0.60744 0.54562 0.21083
 C3023 C 0.61268 0.53029 0.20865
 N3024 N 0.62685 0.52574 0.21450
 C3025 C 0.65193 0.52982 0.22822
 N3026 N 0.65858 0.51747 0.22066
 C3027 C 0.67301 0.51189 0.22465
 C3028 C 0.68172 0.51890 0.23690
 C3029 C 0.67487 0.53138 0.24515
 C3030 C 0.66002 0.53682 0.24091
 H3031 H 0.61390 0.56798 0.22079
 H3032 H 0.60550 0.52189 0.20242
 H3033 H 0.67775 0.50218 0.21802
 H3034 H 0.68105 0.53707 0.25479
 H3035 H 0.63917 0.55938 0.23097
 H3036 H 0.65498 0.54633 0.24759
 C3037 C 0.64200 1.03009 0.71606
 C3038 C 0.63704 1.02756 0.70037
 C3039 C 0.62245 1.03311 0.69544
 C3040 C 0.61271 1.04124 0.70604
 C3041 C 0.61818 1.04366 0.72161
 N3042 N 0.63249 1.03815 0.72614
 C3043 C 0.65753 1.02464 0.72171
 N3044 N 0.66500 1.03257 0.73353
 C3045 C 0.67956 1.02851 0.73883
 C3046 C 0.68749 1.01578 0.73208
 C3047 C 0.67974 1.00720 0.72022
 C3048 C 0.66482 1.01153 0.71507
 H3049 H 0.61900 1.03132 0.68321
 H3050 H 0.61107 1.04978 0.73024
 H3051 H 0.68501 1.03540 0.74808
 H3052 H 0.68526 0.99718 0.71476
 H3053 H 0.64447 1.02172 0.69180
 H3054 H 0.65909 1.00461 0.70603
 C3055 C 0.85545 0.46371 0.28032
 C3056 C 0.86074 0.44848 0.27759
 C3057 C 0.87547 0.44397 0.28314
 C3058 C 0.88500 0.45449 0.29150
 C3059 C 0.87922 0.46955 0.29416
 N3060 N 0.86481 0.47370 0.28861
 C3061 C 0.83977 0.46903 0.27497
 N3062 N 0.83289 0.48124 0.28257
 C3063 C 0.81840 0.48661 0.27856
 C3064 C 0.80988 0.47957 0.26619
 C3065 C 0.81689 0.46716 0.25799
 C3066 C 0.83180 0.46192 0.26227
 H3067 H 0.87921 0.43211 0.28119
 H3068 H 0.88619 0.47805 0.30050
 H3069 H 0.81352 0.49627 0.28517
 H3070 H 0.81085 0.46145 0.24827
 H3071 H 0.85349 0.43995 0.27162
 H3072 H 0.83700 0.45252 0.25554
 C3073 C 0.85953 0.96355 0.78417
 C3074 C 0.86396 0.94805 0.78158
 C3075 C 0.87822 0.94267 0.78751
 C3076 C 0.88815 0.95260 0.79614
 C3077 C 0.88311 0.96792 0.79889
 N3078 N 0.86913 0.97294 0.79290
 C3079 C 0.84455 0.96976 0.77786
 N3080 N 0.83726 0.98170 0.78554
 C3081 C 0.82321 0.98756 0.78060
 C3082 C 0.81565 0.98128 0.76719
 C3083 C 0.82323 0.96927 0.75888
 C3084 C 0.83764 0.96357 0.76410
 H3085 H 0.88135 0.93064 0.78553
 H3086 H 0.89038 0.97596 0.80549
 H3087 H 0.81784 0.99687 0.78733
 H3088 H 0.81799 0.96417 0.74837
 H3089 H 0.85642 0.94001 0.77528
 H3090 H 0.84328 0.95446 0.75731
 C3091 C 0.39249 0.28089 0.78557
 C3092 C 0.38738 0.27928 0.80133
 C3093 C 0.37304 0.28564 0.80595
 C3094 C 0.36367 0.29369 0.79498
 C3095 C 0.36933 0.29531 0.77939
 N3096 N 0.38340 0.28898 0.77515
 C3097 C 0.40774 0.27442 0.78020
 N3098 N 0.41545 0.28127 0.76788
 C3099 C 0.42975 0.27626 0.76273
 C3100 C 0.43718 0.26361 0.77013
 C3101 C 0.42920 0.25613 0.78256
 C3102 C 0.41453 0.26143 0.78756
 H3103 H 0.36945 0.28449 0.81822
 H3104 H 0.36252 0.30140 0.77054
 H3105 H 0.43540 0.28233 0.75304
 H3106 H 0.43435 0.24625 0.78856
 H3107 H 0.39450 0.27349 0.81017
 H3108 H 0.40860 0.25531 0.79704
 C3109 C 0.88963 0.28474 0.28242
 C3110 C 0.88476 0.28217 0.29812
 C3111 C 0.87029 0.28784 0.30323
 C3112 C 0.86055 0.29615 0.29282
 C3113 C 0.86604 0.29890 0.27733
 N3114 N 0.88024 0.29320 0.27258
 C3115 C 0.90492 0.27874 0.27659
 N3116 N 0.91281 0.28656 0.26501
 C3117 C 0.92728 0.28202 0.25980
 C3118 C 0.93469 0.26897 0.26646
 C3119 C 0.92646 0.26046 0.27798
 C3120 C 0.91162 0.26524 0.28300
 H3121 H 0.86686 0.28588 0.31543
 H3122 H 0.85894 0.30529 0.26893
 H3123 H 0.93313 0.28888 0.25080
 H3124 H 0.93155 0.25019 0.28330
 H3125 H 0.89213 0.27610 0.30653
 H3126 H 0.90552 0.25837 0.29181
 C3127 C 0.36163 0.78575 0.47293
 C3128 C 0.36632 0.80119 0.47555
 C3129 C 0.38077 0.80633 0.46972
 C3130 C 0.39061 0.79619 0.46123
 C3131 C 0.38553 0.78080 0.45898
 N3132 N 0.37135 0.77608 0.46470
 C3133 C 0.34606 0.77992 0.47806
 N3134 N 0.33943 0.76783 0.47003
 C3135 C 0.32488 0.76225 0.47359
 C3136 C 0.31602 0.76900 0.48588
 C3137 C 0.32284 0.78117 0.49462
 C3138 C 0.33782 0.78661 0.49080
 H3139 H 0.38397 0.81837 0.47146
 H3140 H 0.39276 0.77251 0.45267
 H3141 H 0.32016 0.75277 0.46660
 H3142 H 0.31656 0.78666 0.50431
 H3143 H 0.35875 0.80943 0.48153
 H3144 H 0.34283 0.79591 0.49783
 C3145 C 0.35765 0.28768 0.97230
 C3146 C 0.36251 0.30308 0.97480
 C3147 C 0.37712 0.30794 0.96916
 C3148 C 0.38695 0.29756 0.96097
 C3149 C 0.38163 0.28227 0.95867
 N3150 N 0.36731 0.27780 0.96425
 C3151 C 0.34200 0.28210 0.97751
 N3152 N 0.33524 0.26996 0.96967
 C3153 C 0.32065 0.26457 0.97338
 C3154 C 0.31191 0.27156 0.98562
 C3155 C 0.31886 0.28382 0.99413
 C3156 C 0.33387 0.28906 0.99017
 H3157 H 0.38048 0.31994 0.97087
 H3158 H 0.38884 0.27384 0.95252
 H3159 H 0.31583 0.25502 0.96656
 H3160 H 0.31267 0.28947 1.00378
 H3161 H 0.35500 0.31149 0.98059
 H3162 H 0.33899 0.29839 0.99706
 C3163 C 0.78206 0.46388 0.35885
 C3164 C 0.78004 0.44828 0.36324
 C3165 C 0.78596 0.44309 0.37770
 C3166 C 0.79398 0.45332 0.38788
 C3167 C 0.79611 0.46874 0.38287
 N3168 N 0.79018 0.47356 0.36869
 C3169 C 0.77576 0.46991 0.34367
 N3170 N 0.78310 0.48202 0.33638
 C3171 C 0.77812 0.48780 0.32220
 C3172 C 0.76499 0.48130 0.31452
 C3173 C 0.75703 0.46908 0.32208
 C3174 C 0.76232 0.46341 0.33660
 H3175 H 0.78444 0.43099 0.38078
 H3176 H 0.80219 0.47704 0.39031
 H3177 H 0.78458 0.49728 0.31686
 H3178 H 0.74677 0.46375 0.31673
 H3179 H 0.77420 0.44005 0.35551
 H3180 H 0.75583 0.45412 0.34223
 C3181 C 0.78707 0.96789 0.85852
 C3182 C 0.80274 0.96992 0.86337
 C3183 C 0.80775 0.96367 0.87776
 C3184 C 0.79725 0.95534 0.88740
 C3185 C 0.78170 0.95347 0.88205
 N3186 N 0.77710 0.95965 0.86795
 C3187 C 0.78127 0.97394 0.84314
 N3188 N 0.76883 0.96682 0.83599
 C3189 C 0.76321 0.97138 0.82161
 C3190 C 0.77026 0.98382 0.81350
 C3191 C 0.78283 0.99158 0.82088
 C3192 C 0.78830 0.98674 0.83566
 H3193 H 0.81994 0.96508 0.88113
 H3194 H 0.77317 0.94722 0.88911
 H3195 H 0.75343 0.96509 0.81644
 H3196 H 0.78857 1.00132 0.81518
 H3197 H 0.81123 0.97587 0.85600
 H3198 H 0.79788 0.99307 0.84112
 C3199 C 0.28525 0.78524 0.38923
 C3200 C 0.30083 0.78301 0.38419
 C3201 C 0.30565 0.78878 0.36953
 C3202 C 0.29506 0.79688 0.35983
 C3203 C 0.27966 0.79919 0.36545
 N3204 N 0.27521 0.79340 0.37980
 C3205 C 0.27962 0.77923 0.40469
 N3206 N 0.26757 0.78656 0.41229
 C3207 C 0.26218 0.78188 0.42673
 C3208 C 0.26908 0.76910 0.43441
 C3209 C 0.28121 0.76114 0.42654
 C3210 C 0.28645 0.76610 0.41173
 H3211 H 0.31775 0.78711 0.36595
 H3212 H 0.27109 0.80534 0.35837
 H3213 H 0.25273 0.78831 0.43230
 H3214 H 0.28677 0.75110 0.43185
 H3215 H 0.30937 0.77714 0.39156
 H3216 H 0.29566 0.75959 0.40587
 C3217 C 0.28248 0.28616 0.89029
 C3218 C 0.29835 0.28399 0.88630
 C3219 C 0.30408 0.28978 0.87202
 C3220 C 0.29413 0.29780 0.86159
 C3221 C 0.27842 0.30018 0.86622
 N3222 N 0.27306 0.29437 0.88027
 C3223 C 0.27601 0.27993 0.90533
 N3224 N 0.26405 0.28754 0.91280
 C3225 C 0.25826 0.28280 0.92708
 C3226 C 0.26467 0.26975 0.93473
 C3227 C 0.27658 0.26144 0.92689
 C3228 C 0.28219 0.26643 0.91223
 H3229 H 0.31639 0.28811 0.86927
 H3230 H 0.27035 0.30635 0.85858
 H3231 H 0.24899 0.28950 0.93263
 H3232 H 0.28175 0.25118 0.93216
 H3233 H 0.30640 0.27811 0.89422
 H3234 H 0.29132 0.25975 0.90643
 C3235 C 0.46335 0.28197 0.86106
 C3236 C 0.44750 0.28049 0.86554
 C3237 C 0.44239 0.28691 0.87983
 C3238 C 0.45294 0.29491 0.88973
 C3239 C 0.46862 0.29642 0.88468
 N3240 N 0.47335 0.29002 0.87068
 C3241 C 0.46935 0.27541 0.84596
 N3242 N 0.48230 0.28187 0.83912
 C3243 C 0.48826 0.27669 0.82508
 C3244 C 0.48108 0.26425 0.81704
 C3245 C 0.46794 0.25718 0.82409
 C3246 C 0.46210 0.26265 0.83852
 H3247 H 0.43011 0.28582 0.88299
 H3248 H 0.47716 0.30245 0.89194
 H3249 H 0.49845 0.28247 0.82014
 H3250 H 0.46207 0.24748 0.81843
 H3251 H 0.43900 0.27474 0.85799
 H3252 H 0.45211 0.25682 0.84378
 C3253 C 0.96915 0.28760 0.36148
 C3254 C 0.97147 0.30302 0.36640
 C3255 C 0.96582 0.30785 0.38113
 C3256 C 0.95779 0.29741 0.39103
 C3257 C 0.95555 0.28213 0.38559
 N3258 N 0.96116 0.27769 0.37115
 C3259 C 0.97467 0.28201 0.34581
 N3260 N 0.96698 0.27001 0.33865
 C3261 C 0.97110 0.26463 0.32403
 C3262 C 0.98364 0.27145 0.31570
 C3263 C 0.99199 0.28355 0.32309
 C3264 C 0.98759 0.28881 0.33810
 H3265 H 0.96745 0.31985 0.38457
 H3266 H 0.94951 0.27367 0.39284
 H3267 H 0.96440 0.25519 0.31886
 H3268 H 1.00185 0.28908 0.31723
 H3269 H 0.97721 0.31144 0.35884
 H3270 H 0.99435 0.29802 0.34358
 C3271 C 0.46872 0.35385 0.78667
 C3272 C 0.47048 0.35885 0.80246
 C3273 C 0.46458 0.37327 0.80705
 C3274 C 0.45683 0.38279 0.79602
 C3275 C 0.45515 0.37727 0.78039
 N3276 N 0.46101 0.36315 0.77619
 C3277 C 0.47459 0.33853 0.78129
 N3278 N 0.46748 0.33137 0.76876
 C3279 C 0.47198 0.31710 0.76347
 C3280 C 0.48436 0.30915 0.77095
 C3281 C 0.49209 0.31652 0.78364
 C3282 C 0.48730 0.33116 0.78878
 H3283 H 0.46578 0.37679 0.81932
 H3284 H 0.44933 0.38422 0.77147
 H3285 H 0.46573 0.31191 0.75360
 H3286 H 0.50178 0.31095 0.78970
 H3287 H 0.47599 0.35161 0.81133
 H3288 H 0.49363 0.33663 0.79843
 C3289 C 0.96599 0.36163 0.27918
 C3290 C 0.95035 0.36610 0.27646
 C3291 C 0.94490 0.38014 0.28252
 C3292 C 0.95490 0.38986 0.29135
 C3293 C 0.97039 0.38486 0.29405
 N3294 N 0.97546 0.37105 0.28802
 C3295 C 0.97210 0.34657 0.27331
 N3296 N 0.98386 0.33941 0.28144
 C3297 C 0.98937 0.32514 0.27726
 C3298 C 0.98284 0.31714 0.26426
 C3299 C 0.97111 0.32460 0.25538
 C3300 C 0.96578 0.33929 0.25980
 H3301 H 0.93272 0.38319 0.28055
 H3302 H 0.97851 0.39196 0.30078
 H3303 H 0.99853 0.31991 0.28439
 H3304 H 0.96585 0.31900 0.24515
 H3305 H 0.94222 0.35869 0.27010
 H3306 H 0.95679 0.34480 0.25268
 C3307 C 0.28142 0.85926 0.46802
 C3308 C 0.27809 0.86389 0.45241
 C3309 C 0.28433 0.87772 0.44661
 C3310 C 0.29393 0.88707 0.45626
 C3311 C 0.29711 0.88195 0.47179
 N3312 N 0.29093 0.86834 0.47716
 C3313 C 0.27539 0.84439 0.47441
 N3314 N 0.28395 0.83659 0.48550
 C3315 C 0.27958 0.82236 0.49101
 C3316 C 0.26595 0.81509 0.48513
 C3317 C 0.25665 0.82327 0.47422
 C3318 C 0.26126 0.83788 0.46891
 H3319 H 0.28188 0.88085 0.43444
 H3320 H 0.30438 0.88877 0.47969
 H3321 H 0.28706 0.81654 0.49952
 H3322 H 0.24592 0.81827 0.46951
 H3323 H 0.27111 0.85673 0.44452
 H3324 H 0.25385 0.84393 0.46051
 C3325 C 0.27640 0.36158 0.96711
 C3326 C 0.27425 0.36603 0.95124
 C3327 C 0.28072 0.37992 0.94587
 C3328 C 0.28937 0.38949 0.95619
 C3329 C 0.29137 0.38456 0.97196
 N3330 N 0.28498 0.37090 0.97693
 C3331 C 0.27032 0.34659 0.97313
 N3332 N 0.27795 0.33946 0.98531
 C3333 C 0.27363 0.32523 0.99076
 C3334 C 0.26101 0.31720 0.98372
 C3335 C 0.25262 0.32462 0.97156
 C3336 C 0.25717 0.33929 0.96630
 H3337 H 0.27924 0.38292 0.93350
 H3338 H 0.29789 0.39157 0.98035
 H3339 H 0.28038 0.32003 1.00026
 H3340 H 0.24270 0.31899 0.96589
 H3341 H 0.26808 0.35870 0.94286
 H3342 H 0.25045 0.34476 0.95695
 C3343 C 0.77886 0.39226 0.28562
 C3344 C 0.77691 0.38745 0.30142
 C3345 C 0.78304 0.37322 0.30627
 C3346 C 0.79121 0.36372 0.29550
 C3347 C 0.79318 0.36908 0.27989
 N3348 N 0.78706 0.38300 0.27542
 C3349 C 0.77268 0.40734 0.27988
 N3350 N 0.77956 0.41415 0.26705
 C3351 C 0.77482 0.42816 0.26136
 C3352 C 0.76243 0.43625 0.26872
 C3353 C 0.75492 0.42924 0.28172
 C3354 C 0.75994 0.41483 0.28727
 H3355 H 0.78160 0.36980 0.31854
 H3356 H 0.79935 0.36214 0.27117
 H3357 H 0.78094 0.43306 0.25127
 H3358 H 0.74524 0.43495 0.28771
 H3359 H 0.77103 0.39466 0.31011
 H3360 H 0.75377 0.40964 0.29716
   
