data_POSCAR
  _audit_creation_date              2014-09-24
  _audit_creation_method            'ToBaCCo'
  _symmetry_space_group_name_H-M    'P1'
  _symmetry_Int_Tables_number       1
  _symmetry_cell_setting            triclinic
  loop_
  _symmetry_equiv_pos_as_xyz
 x,y,z
_cell_length_a 63.6836
_cell_length_b 63.7351
_cell_length_c 63.6240
_cell_angle_alpha 91.533200
_cell_angle_beta 91.607300
_cell_angle_gamma 91.474800
loop_
  _atom_site_label
  _atom_site_type_symbol
  _atom_site_fract_x
  _atom_site_fract_y
  _atom_site_fract_z
N1 N 0.17569 0.22366 0.22980
 N2 N 0.18183 0.20738 0.24045
 C3 C 0.16864 0.20428 0.25634
 C4 C 0.15362 0.21944 0.25548
 C5 C 0.15843 0.23148 0.23854
 H6 H 0.16986 0.19202 0.26770
 H7 H 0.15005 0.24491 0.23303
 Cu8 Cu 0.20649 0.19191 0.23260
 Cu9 Cu 0.19055 0.23351 0.20553
 Cu10 Cu 0.23385 0.20565 0.19033
 N11 N 0.23047 0.17611 0.22343
 N12 N 0.24108 0.18157 0.20690
 C13 C 0.25679 0.16813 0.20408
 C14 C 0.25588 0.15360 0.21967
 C15 C 0.23907 0.15896 0.23168
 H16 H 0.26802 0.16887 0.19166
 H17 H 0.23359 0.15098 0.24536
 N18 N 0.22403 0.23046 0.17558
 N19 N 0.20753 0.24109 0.18139
 C20 C 0.20470 0.25700 0.16818
 C21 C 0.22012 0.25620 0.15349
 C22 C 0.23214 0.23932 0.15851
 H23 H 0.19233 0.26827 0.16906
 H24 H 0.24569 0.23391 0.15028
 H25 H 0.20221 0.20445 0.19688
 H26 H 0.21965 0.22219 0.21394
 N27 N 0.67543 0.72374 0.72987
 N28 N 0.68165 0.70748 0.74049
 C29 C 0.66862 0.70440 0.75650
 C30 C 0.65357 0.71951 0.75571
 C31 C 0.65824 0.73155 0.73872
 H32 H 0.66993 0.69216 0.76788
 H33 H 0.64977 0.74494 0.73324
 Cu34 Cu 0.70608 0.69194 0.73223
 Cu35 Cu 0.69008 0.73356 0.70542
 Cu36 Cu 0.73350 0.70574 0.69017
 N37 N 0.73022 0.67627 0.72340
 N38 N 0.74088 0.68176 0.70691
 C39 C 0.75668 0.66841 0.70422
 C40 C 0.75575 0.65390 0.71983
 C41 C 0.73888 0.65921 0.73176
 H42 H 0.76796 0.66916 0.69184
 H43 H 0.73336 0.65121 0.74541
 N44 N 0.72351 0.73048 0.67535
 N45 N 0.70694 0.74104 0.68114
 C46 C 0.70422 0.75709 0.66807
 C47 C 0.71982 0.75651 0.65356
 C48 C 0.73179 0.73957 0.65849
 H49 H 0.69188 0.76838 0.66901
 H50 H 0.74552 0.73435 0.65042
 H51 H 0.70192 0.70477 0.69665
 H52 H 0.71934 0.72238 0.71381
 N53 N 0.32330 0.77427 0.73306
 N54 N 0.31753 0.79129 0.74329
 C55 C 0.33039 0.79469 0.76031
 C56 C 0.34486 0.77899 0.76056
 C57 C 0.34002 0.76630 0.74315
 H58 H 0.32922 0.80743 0.77175
 H59 H 0.34792 0.75221 0.73835
 Cu60 Cu 0.29338 0.80680 0.73351
 Cu61 Cu 0.30832 0.76325 0.70787
 Cu62 Cu 0.26531 0.79093 0.69025
 N63 N 0.26935 0.82233 0.72355
 N64 N 0.25844 0.81607 0.70655
 C65 C 0.24250 0.82922 0.70335
 C66 C 0.24361 0.84439 0.71922
 C67 C 0.26071 0.83967 0.73179
 H68 H 0.23087 0.82771 0.69064
 H69 H 0.26623 0.84810 0.74595
 N70 N 0.27479 0.76512 0.67598
 N71 N 0.29116 0.75458 0.68270
 C72 C 0.29352 0.73772 0.66982
 C73 C 0.27791 0.73774 0.65441
 C74 C 0.26632 0.75522 0.65865
 H75 H 0.30565 0.72626 0.67146
 H76 H 0.25276 0.76031 0.64973
 H77 H 0.29695 0.79166 0.69824
 H78 H 0.27942 0.77543 0.71472
 N79 N 0.82412 0.27359 0.23357
 N80 N 0.81888 0.29111 0.24326
 C81 C 0.83179 0.29460 0.26023
 C82 C 0.84563 0.27836 0.26106
 C83 C 0.84047 0.26531 0.24400
 H84 H 0.83110 0.30781 0.27120
 H85 H 0.84792 0.25083 0.23962
 Cu86 Cu 0.79534 0.30729 0.23308
 Cu87 Cu 0.80910 0.26254 0.20845
 Cu88 Cu 0.76655 0.29053 0.19046
 N89 N 0.77112 0.32256 0.22303
 N90 N 0.75988 0.31587 0.20640
 C91 C 0.74374 0.32879 0.20331
 C92 C 0.74502 0.34429 0.21883
 C93 C 0.76250 0.34002 0.23107
 H94 H 0.73177 0.32684 0.19097
 H95 H 0.76824 0.34877 0.24495
 N96 N 0.77573 0.26451 0.17646
 N97 N 0.79195 0.25383 0.18331
 C98 C 0.79429 0.23696 0.17043
 C99 C 0.77882 0.23713 0.15489
 C100 C 0.76733 0.25470 0.15905
 H101 H 0.80637 0.22546 0.17212
 H102 H 0.75394 0.25995 0.14999
 H103 H 0.79813 0.29079 0.19832
 H104 H 0.78047 0.27546 0.21553
 N105 N 0.82247 0.72454 0.26980
 N106 N 0.81568 0.70768 0.25902
 C107 C 0.82862 0.70413 0.24297
 C108 C 0.84424 0.71953 0.24395
 C109 C 0.83996 0.73224 0.26106
 H110 H 0.82674 0.69151 0.23131
 H111 H 0.84875 0.74617 0.26654
 Cu112 Cu 0.79038 0.69246 0.26700
 Cu113 Cu 0.80784 0.73566 0.29399
 Cu114 Cu 0.76265 0.70852 0.30821
 N115 N 0.76505 0.67723 0.27499
 N116 N 0.75433 0.68363 0.29123
 C117 C 0.73782 0.67037 0.29364
 C118 C 0.73825 0.65499 0.27804
 C119 C 0.75566 0.65968 0.26646
 H120 H 0.72648 0.67168 0.30592
 H121 H 0.76112 0.65086 0.25302
 N122 N 0.77366 0.73404 0.32336
 N123 N 0.79084 0.74440 0.31798
 C124 C 0.79398 0.76123 0.33110
 C125 C 0.77802 0.76132 0.34525
 C126 C 0.76544 0.74399 0.34004
 H127 H 0.80680 0.77263 0.33039
 H128 H 0.75129 0.73911 0.34778
 H129 H 0.79446 0.70731 0.30274
 H130 H 0.77837 0.72386 0.28510
 N131 N 0.32298 0.22426 -0.23041
 N132 N 0.31630 0.20729 -0.24108
 C133 C 0.32927 0.20371 -0.25711
 C134 C 0.34474 0.21927 -0.25624
 C135 C 0.34039 0.23206 -0.23922
 H136 H 0.32748 0.19097 -0.26865
 H137 H 0.34905 0.24611 -0.23385
 Cu138 Cu 0.29098 0.19195 -0.23322
 Cu139 Cu 0.30823 0.23546 -0.20636
 Cu140 Cu 0.26353 0.20806 -0.19167
 N141 N 0.26604 0.17646 -0.22454
 N142 N 0.25545 0.18288 -0.20821
 C143 C 0.23893 0.16967 -0.20567
 C144 C 0.23923 0.15427 -0.22123
 C145 C 0.25656 0.15890 -0.23296
 H146 H 0.22749 0.17121 -0.19351
 H147 H 0.26174 0.15020 -0.24660
 N148 N 0.27419 0.23389 -0.17691
 N149 N 0.29122 0.24438 -0.18247
 C150 C 0.29424 0.26134 -0.16949
 C151 C 0.27835 0.26137 -0.15525
 C152 C 0.26594 0.24386 -0.16026
 H153 H 0.30698 0.27281 -0.17031
 H154 H 0.25194 0.23884 -0.15235
 H155 H 0.29513 0.20699 -0.19769
 H156 H 0.27871 0.22340 -0.21525
 N157 N 0.67551 0.27512 -0.23461
 N158 N 0.68255 0.29125 -0.24511
 C159 C 0.66961 0.29415 -0.26185
 C160 C 0.65379 0.27900 -0.26175
 C161 C 0.65788 0.26716 -0.24434
 H162 H 0.67158 0.30622 -0.27332
 H163 H 0.64880 0.25375 -0.23921
 Cu164 Cu 0.70815 0.30661 -0.23604
 Cu165 Cu 0.68993 0.26553 -0.20929
 Cu166 Cu 0.73530 0.29324 -0.19261
 N167 N 0.73351 0.32212 -0.22647
 N168 N 0.74408 0.31681 -0.20945
 C169 C 0.76086 0.32996 -0.20640
 C170 C 0.76067 0.34415 -0.22237
 C171 C 0.74317 0.33887 -0.23480
 H172 H 0.77225 0.32934 -0.19350
 H173 H 0.73791 0.34672 -0.24878
 N174 N 0.72395 0.26892 -0.17771
 N175 N 0.70673 0.25830 -0.18408
 C176 C 0.70345 0.24232 -0.17098
 C177 C 0.71932 0.24308 -0.15579
 C178 C 0.73205 0.26001 -0.16043
 H179 H 0.69067 0.23084 -0.17248
 H180 H 0.74628 0.26521 -0.15197
 H181 H 0.70371 0.29416 -0.20056
 H182 H 0.71976 0.27613 -0.21674
 N183 N 0.17590 0.77606 0.26597
 N184 N 0.18259 0.79263 0.25596
 C185 C 0.16975 0.79554 0.23916
 C186 C 0.15430 0.78001 0.23873
 C187 C 0.15855 0.76788 0.25589
 H188 H 0.17151 0.80793 0.22801
 H189 H 0.14973 0.75416 0.26062
 Cu190 Cu 0.20760 0.80873 0.26543
 Cu191 Cu 0.19040 0.76628 0.29111
 Cu192 Cu 0.23577 0.79378 0.30779
 N193 N 0.23360 0.82330 0.27460
 N194 N 0.24456 0.81747 0.29118
 C195 C 0.26164 0.83028 0.29399
 C196 C 0.26125 0.84472 0.27826
 C197 C 0.24335 0.83999 0.26624
 H198 H 0.27332 0.82926 0.30657
 H199 H 0.23782 0.84816 0.25255
 N200 N 0.22448 0.76941 0.32257
 N201 N 0.20722 0.75886 0.31620
 C202 C 0.20391 0.74284 0.32923
 C203 C 0.21981 0.74348 0.34438
 C204 C 0.23258 0.76041 0.33980
 H205 H 0.19106 0.73142 0.32773
 H206 H 0.24682 0.76557 0.34828
 H207 H 0.20389 0.79489 0.30060
 H208 H 0.21974 0.77770 0.28326
 N209 N 0.47535 0.42412 0.47823
 N210 N 0.45875 0.42890 0.48907
 C211 C 0.45667 0.41519 0.50470
 C212 C 0.47277 0.40118 0.50349
 C213 C 0.48435 0.40720 0.48657
 H214 H 0.44445 0.41537 0.51617
 H215 H 0.49830 0.39988 0.48083
 Cu216 Cu 0.44156 0.45268 0.48178
 Cu217 Cu 0.48405 0.44032 0.45420
 Cu218 Cu 0.45393 0.48295 0.44120
 N219 N 0.42504 0.47696 0.47462
 N220 N 0.42992 0.48867 0.45866
 C221 C 0.41616 0.50432 0.45718
 C222 C 0.40202 0.50224 0.47306
 C223 C 0.40801 0.48480 0.48387
 H224 H 0.41649 0.51639 0.44555
 H225 H 0.40058 0.47844 0.49747
 N226 N 0.47882 0.47474 0.42542
 N227 N 0.49033 0.45856 0.43042
 C228 C 0.50602 0.45693 0.41671
 C229 C 0.50422 0.47282 0.40256
 C230 C 0.48689 0.48382 0.40841
 H231 H 0.51777 0.44498 0.41684
 H232 H 0.48059 0.49732 0.40072
 H233 H 0.47136 0.46823 0.46403
 H234 H 0.45458 0.45091 0.44599
 N235 N -0.02438 -0.07551 0.97786
 N236 N -0.04096 -0.07075 0.98875
 C237 C -0.04299 -0.08446 1.00438
 C238 C -0.02688 -0.09846 1.00312
 C239 C -0.01533 -0.09241 0.98619
 H240 H -0.05519 -0.08431 1.01586
 H241 H -0.00141 -0.09973 0.98040
 Cu242 Cu -0.05815 -0.04695 0.98146
 Cu243 Cu -0.01575 -0.05932 0.95382
 Cu244 Cu -0.04585 -0.01667 0.94085
 N245 N -0.07474 -0.02273 0.97429
 N246 N -0.06985 -0.01099 0.95834
 C247 C -0.08358 0.00467 0.95689
 C248 C -0.09775 0.00257 0.97274
 C249 C -0.09178 -0.01488 0.98354
 H250 H -0.08325 0.01674 0.94526
 H251 H -0.09923 -0.02127 0.99711
 N252 N -0.02099 -0.02490 0.92505
 N253 N -0.00950 -0.04112 0.93001
 C254 C 0.00617 -0.04276 0.91629
 C255 C 0.00439 -0.02684 0.90216
 C256 C -0.01291 -0.01581 0.90805
 H257 H 0.01791 -0.05472 0.91639
 H258 H -0.01920 -0.00229 0.90039
 H259 H -0.02846 -0.03133 0.96363
 H260 H -0.04529 -0.04864 0.94562
 N261 N 1.03106 0.57762 0.97825
 N262 N 1.04817 0.57298 0.98904
 C263 C 1.05148 0.58741 1.00476
 C264 C 1.03557 0.60167 1.00365
 C265 C 1.02288 0.59506 0.98674
 H266 H 1.06434 0.58747 1.01624
 H267 H 1.00869 0.60233 0.98116
 Cu268 Cu 1.06419 0.54828 0.98169
 Cu269 Cu 1.02058 0.56078 0.95404
 Cu270 Cu 1.04935 0.51767 0.93956
 N271 N 1.08048 0.52432 0.97276
 N272 N 1.07448 0.51238 0.95637
 C273 C 1.08835 0.49702 0.95371
 C274 C 1.10379 0.49955 0.96919
 C275 C 1.09847 0.51694 0.98104
 H276 H 1.08730 0.48492 0.94144
 H277 H 1.10704 0.52365 0.99462
 N278 N 1.02348 0.52546 0.92449
 N279 N 1.01246 0.54189 0.93000
 C280 C 0.99597 0.54332 0.91642
 C281 C 0.99678 0.52702 0.90185
 C282 C 1.01430 0.51600 0.90728
 H283 H 0.98443 0.55547 0.91682
 H284 H 1.02007 0.50233 0.89908
 H285 H 1.03313 0.53267 0.96318
 H286 H 1.04942 0.54959 0.94608
 N287 N 0.53070 0.07801 0.47867
 N288 N 0.54800 0.07354 0.48924
 C289 C 0.55123 0.08785 0.50509
 C290 C 0.53510 0.10187 0.50423
 C291 C 0.52234 0.09524 0.48739
 H292 H 0.56423 0.08809 0.51641
 H293 H 0.50805 0.10240 0.48193
 Cu294 Cu 0.56457 0.04955 0.48096
 Cu295 Cu 0.52025 0.06127 0.45434
 Cu296 Cu 0.54949 0.01849 0.43948
 N297 N 0.58090 0.02549 0.47240
 N298 N 0.57482 0.01348 0.45610
 C299 C 0.58853 -0.00202 0.45355
 C300 C 0.60398 0.00047 0.46902
 C301 C 0.59880 0.01798 0.48079
 H302 H 0.58725 -0.01431 0.44150
 H303 H 0.60730 0.02455 0.49448
 N304 N 0.52339 0.02607 0.42461
 N305 N 0.51227 0.04241 0.43020
 C306 C 0.49565 0.04368 0.41674
 C307 C 0.49647 0.02735 0.40220
 C308 C 0.51414 0.01649 0.40751
 H309 H 0.48399 0.05570 0.41725
 H310 H 0.51993 0.00283 0.39931
 H311 H 0.53354 0.03347 0.46313
 H312 H 0.54911 0.05049 0.44552
 N313 N -0.02680 0.08169 0.52470
 N314 N -0.04330 0.07535 0.51310
 C315 C -0.04618 0.08876 0.49731
 C316 C -0.03070 0.10424 0.49925
 C317 C -0.01862 0.09937 0.51670
 H318 H -0.05852 0.08743 0.48526
 H319 H -0.00491 0.10799 0.52304
 Cu320 Cu -0.05933 0.05017 0.51983
 Cu321 Cu -0.01729 0.06647 0.54930
 Cu322 Cu -0.04604 0.02150 0.56143
 N323 N -0.07539 0.02504 0.52657
 N324 N -0.07013 0.01388 0.54291
 C325 C -0.08379 -0.00250 0.54413
 C326 C -0.09826 -0.00142 0.52769
 C327 C -0.09258 0.01613 0.51681
 H328 H -0.08328 -0.01425 0.55608
 H329 H -0.10046 0.02192 0.50292
 N330 N -0.02115 0.03191 0.57812
 N331 N -0.01018 0.04899 0.57351
 C332 C 0.00575 0.05189 0.58778
 C333 C 0.00461 0.03595 0.60192
 C334 C -0.01248 0.02352 0.59543
 H335 H 0.01736 0.06458 0.58787
 H336 H -0.01808 0.00941 0.60276
 H337 H -0.02912 0.03711 0.53936
 H338 H -0.04633 0.05324 0.55624
 N339 N 0.47288 0.58152 0.02481
 N340 N 0.45649 0.57510 0.01308
 C341 C 0.45358 0.58861 -0.00261
 C342 C 0.46894 0.60419 -0.00050
 C343 C 0.48097 0.59931 0.01696
 H344 H 0.44131 0.58722 -0.01470
 H345 H 0.49460 0.60799 0.02338
 Cu346 Cu 0.44062 0.54966 0.01929
 Cu347 Cu 0.48241 0.56629 0.04931
 Cu348 Cu 0.45381 0.52141 0.06140
 N349 N 0.42449 0.52474 0.02659
 N350 N 0.42972 0.51371 0.04303
 C351 C 0.41601 0.49740 0.04442
 C352 C 0.40154 0.49839 0.02800
 C353 C 0.40724 0.51583 0.01698
 H354 H 0.41649 0.48574 0.05646
 H355 H 0.39936 0.52158 0.00308
 N356 N 0.47870 0.53174 0.07808
 N357 N 0.48962 0.54883 0.07348
 C358 C 0.50558 0.55174 0.08772
 C359 C 0.50452 0.53577 0.10184
 C360 C 0.48742 0.52334 0.09536
 H361 H 0.51714 0.56447 0.08784
 H362 H 0.48183 0.50922 0.10270
 H363 H 0.47083 0.53696 0.03921
 H364 H 0.45329 0.55316 0.05575
 N365 N 0.52604 -0.07579 0.02389
 N366 N 0.54235 -0.07004 0.01296
 C367 C 0.54402 -0.08351 -0.00357
 C368 C 0.52788 -0.09829 -0.00280
 C369 C 0.51677 -0.09303 0.01472
 H370 H 0.55610 -0.08279 -0.01516
 H371 H 0.50313 -0.10128 0.02047
 Cu372 Cu 0.55989 -0.04571 0.02172
 Cu373 Cu 0.51827 -0.06091 0.04944
 Cu374 Cu 0.54959 -0.01799 0.06587
 N375 N 0.57765 -0.02188 0.03141
 N376 N 0.57348 -0.01104 0.04862
 C377 C 0.58803 0.00454 0.05165
 C378 C 0.60198 0.00326 0.03553
 C379 C 0.59503 -0.01356 0.02292
 H380 H 0.58841 0.01597 0.06455
 H381 H 0.60206 -0.01919 0.00863
 N382 N 0.52474 -0.02755 0.08120
 N383 N 0.51287 -0.04396 0.07490
 C384 C 0.49730 -0.04665 0.08855
 C385 C 0.49955 -0.03124 0.10405
 C386 C 0.51699 -0.01935 0.09904
 H387 H 0.48518 -0.05885 0.08732
 H388 H 0.52346 -0.00577 0.10774
 H389 H 0.53113 -0.03199 0.04205
 H390 H 0.54826 -0.04956 0.05763
 N391 N 1.02599 0.42414 0.52337
 N392 N 1.04264 0.42955 0.51277
 C393 C 1.04427 0.41613 0.49619
 C394 C 1.02777 0.40173 0.49660
 C395 C 1.01648 0.40715 0.51395
 H396 H 1.05664 0.41656 0.48489
 H397 H 1.00261 0.39913 0.51948
 Cu398 Cu 1.06080 0.45320 0.52212
 Cu399 Cu 1.01821 0.43905 0.54889
 Cu400 Cu 1.04951 0.48196 0.56537
 N401 N 1.07799 0.47759 0.53133
 N402 N 1.07347 0.48879 0.54821
 C403 C 1.08775 0.50465 0.55098
 C404 C 1.10186 0.50319 0.53502
 C405 C 1.09530 0.48597 0.52278
 H406 H 1.08783 0.51639 0.56358
 H407 H 1.10255 0.48012 0.50870
 N408 N 1.02460 0.47244 0.58060
 N409 N 1.01276 0.45601 0.57433
 C410 C 0.99716 0.45336 0.58796
 C411 C 0.99938 0.46882 0.60342
 C412 C 1.01682 0.48070 0.59840
 H413 H 0.98504 0.44115 0.58676
 H414 H 1.02328 0.49431 0.60707
 H415 H 1.03165 0.46776 0.54121
 H416 H 1.04809 0.45037 0.55774
 C417 C 0.36030 0.02036 0.24325
 C418 C 0.34758 0.00011 0.24646
 C419 C 0.35968 -0.01682 0.24995
 C420 C 0.38350 -0.01204 0.24990
 C421 C 0.37479 0.02300 0.26279
 C422 C 0.38691 0.00605 0.26624
 C423 C 0.37486 0.01532 0.22517
 C424 C 0.38702 -0.00160 0.22868
 H425 H 0.33050 -0.00069 0.24649
 H426 H 0.39335 -0.02589 0.25272
 H427 H 0.37574 0.03716 0.27271
 H428 H 0.37605 0.02476 0.21126
 C429 C 0.13838 -0.02508 0.74831
 C430 C 0.15115 -0.00474 0.75293
 C431 C 0.13909 0.01228 0.75637
 C432 C 0.11526 0.00749 0.75496
 C433 C 0.12394 -0.02741 0.76698
 C434 C 0.11184 -0.01039 0.77045
 C435 C 0.12379 -0.02023 0.72962
 C436 C 0.11171 -0.00321 0.73312
 H437 H 0.16821 -0.00373 0.75266
 H438 H 0.10542 0.02137 0.75783
 H439 H 0.12302 -0.04143 0.77630
 H440 H 0.12322 -0.02929 0.71489
 C441 C 0.63772 0.47451 0.24834
 C442 C 0.65073 0.49466 0.25305
 C443 C 0.63890 0.51180 0.25665
 C444 C 0.61502 0.50732 0.25529
 C445 C 0.62334 0.47223 0.26706
 C446 C 0.61145 0.48938 0.27069
 C447 C 0.62312 0.47962 0.22975
 C448 C 0.61126 0.49678 0.23339
 H449 H 0.66780 0.49545 0.25291
 H450 H 0.60537 0.52131 0.25830
 H451 H 0.62233 0.45819 0.27634
 H452 H 0.62242 0.47066 0.21496
 C453 C 0.86054 0.52094 0.74305
 C454 C 0.84777 0.50072 0.74619
 C455 C 0.85981 0.48375 0.74960
 C456 C 0.88365 0.48845 0.74952
 C457 C 0.87505 0.52347 0.76258
 C458 C 0.88714 0.50647 0.76593
 C459 C 0.87506 0.51596 0.72493
 C460 C 0.88717 0.49898 0.72834
 H461 H 0.83069 0.49998 0.74625
 H462 H 0.89346 0.47456 0.75227
 H463 H 0.87608 0.53760 0.77255
 H464 H 0.87627 0.52547 0.71108
 C465 C 0.24387 0.36171 0.02130
 C466 C 0.24681 0.34893 0.00097
 C467 C 0.25028 0.36097 -0.01599
 C468 C 0.25043 0.38477 -0.01121
 C469 C 0.26351 0.37601 0.02383
 C470 C 0.26688 0.38808 0.00681
 C471 C 0.22588 0.37642 0.01636
 C472 C 0.22935 0.38847 -0.00065
 H473 H 0.24638 0.33187 0.00010
 H474 H 0.25321 0.39458 -0.02510
 H475 H 0.27361 0.37681 0.03790
 H476 H 0.21201 0.37771 0.02583
 C477 C 0.74831 0.13610 -0.02511
 C478 C 0.75272 0.14900 -0.00477
 C479 C 0.75628 0.13707 0.01234
 C480 C 0.75511 0.11325 0.00765
 C481 C 0.76715 0.12185 -0.02729
 C482 C 0.77068 0.10989 -0.01015
 C483 C 0.72979 0.12140 -0.02029
 C484 C 0.73337 0.10947 -0.00316
 H485 H 0.75237 0.16605 -0.00385
 H486 H 0.75803 0.10349 0.02161
 H487 H 0.77674 0.12118 -0.04113
 H488 H 0.71507 0.12071 -0.02938
 C489 C 0.24857 0.63612 0.47476
 C490 C 0.25272 0.64898 0.49516
 C491 C 0.25608 0.63703 0.51229
 C492 C 0.25497 0.61320 0.50756
 C493 C 0.26745 0.62188 0.47280
 C494 C 0.27077 0.60988 0.48996
 C495 C 0.23000 0.62138 0.47932
 C496 C 0.23336 0.60943 0.49647
 H497 H 0.25240 0.66603 0.49609
 H498 H 0.25770 0.60343 0.52153
 H499 H 0.27720 0.62122 0.45906
 H500 H 0.21540 0.62067 0.47002
 C501 C 0.74404 0.86210 0.52150
 C502 C 0.74700 0.84934 0.50116
 C503 C 0.75027 0.86141 0.48416
 C504 C 0.75021 0.88520 0.48894
 C505 C 0.76355 0.87658 0.52392
 C506 C 0.76674 0.88865 0.50687
 C507 C 0.72588 0.87661 0.51664
 C508 C 0.72914 0.88870 0.49962
 H509 H 0.74672 0.83227 0.50031
 H510 H 0.75282 0.89504 0.47504
 H511 H 0.77381 0.87738 0.53788
 H512 H 0.71192 0.87758 0.52602
 C513 C 0.02055 0.24341 0.35997
 C514 C 0.00017 0.24697 0.34744
 C515 C -0.01656 0.25053 0.35979
 C516 C -0.01150 0.25024 0.38355
 C517 C 0.02357 0.26278 0.37460
 C518 C 0.00678 0.26631 0.38690
 C519 C 0.01548 0.22529 0.37446
 C520 C -0.00127 0.22891 0.38681
 H521 H -0.00087 0.24704 0.33036
 H522 H -0.02519 0.25316 0.39358
 H523 H 0.03779 0.27260 0.37540
 H524 H 0.02472 0.21123 0.37540
 C525 C -0.02457 0.74785 0.13774
 C526 C -0.00412 0.75246 0.15041
 C527 C 0.01276 0.75606 0.13820
 C528 C 0.00774 0.75477 0.11438
 C529 C -0.02712 0.76661 0.12345
 C530 C -0.01023 0.77021 0.11122
 C531 C -0.01981 0.72933 0.12299
 C532 C -0.00291 0.73295 0.11079
 H533 H -0.00299 0.75246 0.16749
 H534 H 0.02152 0.75772 0.10444
 H535 H -0.04104 0.77613 0.12298
 H536 H -0.02888 0.71464 0.12234
 C537 C 0.47507 0.24762 0.63833
 C538 C 0.49543 0.25223 0.65114
 C539 C 0.51237 0.25598 0.63907
 C540 C 0.50750 0.25483 0.61522
 C541 C 0.47253 0.26645 0.62414
 C542 C 0.48948 0.27020 0.61203
 C543 C 0.48000 0.22921 0.62349
 C544 C 0.49697 0.23299 0.61143
 H545 H 0.49650 0.25187 0.66821
 H546 H 0.52133 0.25792 0.60538
 H547 H 0.45853 0.27585 0.62357
 H548 H 0.47096 0.21450 0.62264
 C549 C 0.52084 0.74371 0.86045
 C550 C 0.50045 0.74708 0.84787
 C551 C 0.48365 0.75048 0.86017
 C552 C 0.48865 0.75016 0.88395
 C553 C 0.52363 0.76308 0.87510
 C554 C 0.50678 0.76640 0.88738
 C555 C 0.51591 0.72552 0.87489
 C556 C 0.49908 0.72892 0.88718
 H557 H 0.49944 0.74705 0.83078
 H558 H 0.47490 0.75290 0.89395
 H559 H 0.53772 0.77310 0.87588
 H560 H 0.52532 0.71157 0.87586
 C561 C 0.07089 0.23391 0.32214
 C562 C 0.08161 0.25150 0.31402
 C563 C 0.09880 0.24848 0.30060
 C564 C 0.10509 0.22788 0.29536
 C565 C 0.09447 0.21030 0.30370
 C566 C 0.07729 0.21334 0.31712
 C567 C 0.06685 0.19556 0.32524
 C568 C 0.07327 0.17534 0.32030
 C569 C 0.09013 0.17235 0.30723
 C570 C 0.10065 0.18957 0.29896
 C571 C 0.10934 0.26632 0.29272
 C572 C 0.10307 0.28655 0.29795
 C573 C 0.08621 0.28949 0.31103
 C574 C 0.07554 0.27223 0.31901
 C575 C 0.12234 0.22479 0.28128
 C576 C 0.13662 0.22229 0.26951
 C577 C 0.05322 0.23701 0.33560
 C578 C 0.03849 0.23976 0.34668
 H579 H 0.05367 0.19710 0.33550
 H580 H 0.06514 0.16192 0.32668
 H581 H 0.09508 0.15661 0.30348
 H582 H 0.11367 0.18646 0.28887
 H583 H 0.12254 0.26484 0.28249
 H584 H 0.11134 0.30001 0.29183
 H585 H 0.08138 0.30523 0.31504
 H586 H 0.06254 0.27532 0.32915
 C587 C 0.57125 0.73419 0.82274
 C588 C 0.58195 0.75168 0.81439
 C589 C 0.59887 0.74850 0.80069
 C590 C 0.60502 0.72784 0.79551
 C591 C 0.59438 0.71035 0.80399
 C592 C 0.57746 0.71355 0.81769
 C593 C 0.56705 0.69587 0.82603
 C594 C 0.57316 0.67557 0.82092
 C595 C 0.58968 0.67243 0.80745
 C596 C 0.60023 0.68956 0.79905
 C597 C 0.60925 0.76623 0.79241
 C598 C 0.60312 0.78651 0.79757
 C599 C 0.58661 0.78962 0.81104
 C600 C 0.57608 0.77246 0.81940
 C601 C 0.62224 0.72465 0.78145
 C602 C 0.63655 0.72221 0.76972
 C603 C 0.55362 0.73743 0.83619
 C604 C 0.53886 0.74019 0.84722
 H605 H 0.55413 0.69752 0.83659
 H606 H 0.56503 0.66222 0.82744
 H607 H 0.59434 0.65662 0.80350
 H608 H 0.61298 0.68632 0.78865
 H609 H 0.62219 0.76462 0.78187
 H610 H 0.61122 0.79988 0.79109
 H611 H 0.58191 0.80540 0.81503
 H612 H 0.56334 0.77568 0.82983
 C613 C 0.42750 0.76111 0.83015
 C614 C 0.41863 0.74467 0.81710
 C615 C 0.40101 0.74849 0.80367
 C616 C 0.39237 0.76873 0.80339
 C617 C 0.40080 0.78498 0.81697
 C618 C 0.41844 0.78116 0.83039
 C619 C 0.42675 0.79768 0.84368
 C620 C 0.41782 0.81741 0.84378
 C621 C 0.40056 0.82115 0.83068
 C622 C 0.39210 0.80519 0.81737
 C623 C 0.39255 0.73184 0.79060
 C624 C 0.40121 0.71199 0.79083
 C625 C 0.41843 0.70826 0.80397
 C626 C 0.42712 0.72435 0.81697
 C627 C 0.37526 0.77291 0.78865
 C628 C 0.36129 0.77595 0.77600
 C629 C 0.44675 0.75767 0.84217
 C630 C 0.46327 0.75451 0.85106
 H631 H 0.44013 0.79549 0.85418
 H632 H 0.42433 0.82987 0.85408
 H633 H 0.39367 0.83651 0.83082
 H634 H 0.37866 0.80882 0.80746
 H635 H 0.37914 0.73395 0.78012
 H636 H 0.39451 0.69944 0.78077
 H637 H 0.42511 0.69281 0.80410
 H638 H 0.44048 0.72064 0.82694
 C639 C -0.07257 0.26303 0.33043
 C640 C -0.08807 0.24692 0.32689
 C641 C -0.10585 0.25042 0.31356
 C642 C -0.10796 0.27000 0.30381
 C643 C -0.09288 0.28639 0.30803
 C644 C -0.07510 0.28288 0.32136
 C645 C -0.06005 0.29938 0.32508
 C646 C -0.06252 0.31882 0.31595
 C647 C -0.07994 0.32228 0.30298
 C648 C -0.09499 0.30631 0.29900
 C649 C -0.12105 0.23401 0.31011
 C650 C -0.11873 0.21468 0.31956
 C651 C -0.10131 0.21125 0.33254
 C652 C -0.08609 0.22712 0.33622
 C653 C -0.12505 0.27303 0.28870
 C654 C -0.13892 0.27557 0.27581
 C655 C -0.05332 0.25873 0.34207
 C656 C -0.03685 0.25503 0.35077
 H657 H -0.04626 0.29746 0.33512
 H658 H -0.05086 0.33127 0.31897
 H659 H -0.08181 0.33743 0.29594
 H660 H -0.10829 0.30977 0.28883
 H661 H -0.13489 0.23596 0.30016
 H662 H -0.13052 0.20230 0.31678
 H663 H -0.09955 0.19620 0.33981
 H664 H -0.07284 0.22373 0.34648
 C665 C -0.07453 0.73660 0.17587
 C666 C -0.08064 0.71571 0.18031
 C667 C -0.09722 0.71186 0.19431
 C668 C -0.10765 0.72894 0.20367
 C669 C -0.10155 0.74984 0.19917
 C670 C -0.08498 0.75367 0.18516
 C671 C -0.07919 0.77468 0.18081
 C672 C -0.08945 0.79144 0.19010
 C673 C -0.10558 0.78771 0.20390
 C674 C -0.11163 0.76719 0.20844
 C675 C -0.10293 0.69085 0.19866
 C676 C -0.09260 0.67412 0.18937
 C677 C -0.07646 0.67789 0.17559
 C678 C -0.07046 0.69842 0.17107
 C679 C -0.12471 0.72511 0.21787
 C680 C -0.13889 0.72234 0.22972
 C681 C -0.05717 0.74055 0.16215
 C682 C -0.04257 0.74389 0.15099
 H683 H -0.06674 0.77838 0.17018
 H684 H -0.08482 0.80740 0.18660
 H685 H -0.11347 0.80079 0.21112
 H686 H -0.12427 0.76510 0.21927
 H687 H -0.11539 0.68714 0.20928
 H688 H -0.09717 0.65814 0.19286
 H689 H -0.06851 0.66485 0.16839
 H690 H -0.05782 0.70056 0.16025
 C691 C 0.42502 0.23594 0.67626
 C692 C 0.42575 0.21881 0.68994
 C693 C 0.40898 0.21503 0.70373
 C694 C 0.39156 0.22841 0.70373
 C695 C 0.39082 0.24552 0.68998
 C696 C 0.40760 0.24928 0.67620
 C697 C 0.40658 0.26652 0.66266
 C698 C 0.38947 0.27972 0.66278
 C699 C 0.37306 0.27606 0.67627
 C700 C 0.37363 0.25917 0.68974
 C701 C 0.41013 0.19789 0.71736
 C702 C 0.42738 0.18486 0.71738
 C703 C 0.44377 0.18854 0.70388
 C704 C 0.44304 0.20528 0.69026
 C705 C 0.37459 0.22481 0.71809
 C706 C 0.36054 0.22206 0.73011
 C707 C 0.44239 0.24008 0.66259
 C708 C 0.45700 0.24352 0.65147
 H709 H 0.41895 0.26999 0.65185
 H710 H 0.38897 0.29285 0.65235
 H711 H 0.35982 0.28638 0.67632
 H712 H 0.36049 0.25698 0.69994
 H713 H 0.39777 0.19439 0.72815
 H714 H 0.42803 0.17185 0.72795
 H715 H 0.45714 0.17839 0.70395
 H716 H 0.45616 0.20749 0.68003
 C717 C 0.56939 0.26384 0.66984
 C718 C 0.57514 0.24804 0.68399
 C719 C 0.59323 0.25107 0.69743
 C720 C 0.60548 0.26988 0.69668
 C721 C 0.60015 0.28535 0.68200
 C722 C 0.58202 0.28233 0.66857
 C723 C 0.57685 0.29808 0.65420
 C724 C 0.58931 0.31628 0.65302
 C725 C 0.60708 0.31921 0.66608
 C726 C 0.61249 0.30399 0.68046
 C727 C 0.59859 0.23509 0.71150
 C728 C 0.58641 0.21666 0.71230
 C729 C 0.56868 0.21373 0.69921
 C730 C 0.56302 0.22919 0.68520
 C731 C 0.62316 0.27346 0.71141
 C732 C 0.63761 0.27614 0.72396
 C733 C 0.54985 0.26147 0.65758
 C734 C 0.53308 0.25919 0.64845
 H735 H 0.56320 0.29646 0.64370
 H736 H 0.58516 0.32815 0.64190
 H737 H 0.61673 0.33336 0.66506
 H738 H 0.62647 0.30695 0.69026
 H739 H 0.61226 0.23660 0.72197
 H740 H 0.59075 0.20460 0.72313
 H741 H 0.55925 0.19940 0.69989
 H742 H 0.54911 0.22615 0.67532
 C743 C 0.06993 0.76566 0.16829
 C744 C 0.08089 0.74809 0.17556
 C745 C 0.09890 0.75112 0.18912
 C746 C 0.10580 0.77170 0.19540
 C747 C 0.09535 0.78929 0.18742
 C748 C 0.07733 0.78625 0.17387
 C749 C 0.06695 0.80405 0.16634
 C750 C 0.07423 0.82429 0.17195
 C751 C 0.09190 0.82727 0.18512
 C752 C 0.10239 0.81002 0.19284
 C753 C 0.10953 0.73331 0.19627
 C754 C 0.10254 0.71309 0.19023
 C755 C 0.08488 0.71012 0.17705
 C756 C 0.07411 0.72737 0.16975
 C757 C 0.12314 0.77471 0.21061
 C758 C 0.13738 0.77710 0.22343
 C759 C 0.05028 0.76252 0.15635
 C760 C 0.03347 0.75971 0.14742
 H761 H 0.05318 0.80252 0.15599
 H762 H 0.06612 0.83773 0.16601
 H763 H 0.09753 0.84303 0.18938
 H764 H 0.11608 0.81312 0.20302
 H765 H 0.12336 0.73482 0.20652
 H766 H 0.11089 0.69964 0.19581
 H767 H 0.07951 0.69438 0.17242
 H768 H 0.06051 0.72427 0.15946
 C769 C 0.32215 0.07054 0.23398
 C770 C 0.33041 0.09001 0.22737
 C771 C 0.31687 0.10716 0.22463
 C772 C 0.29516 0.10467 0.22848
 C773 C 0.28695 0.08520 0.23523
 C774 C 0.30049 0.06806 0.23795
 C775 C 0.29194 0.04872 0.24468
 C776 C 0.27062 0.04642 0.24869
 C777 C 0.25738 0.06321 0.24609
 C778 C 0.26535 0.08241 0.23941
 C779 C 0.32550 0.12654 0.21812
 C780 C 0.34689 0.12889 0.21442
 C781 C 0.36012 0.11209 0.21704
 C782 C 0.35206 0.09283 0.22343
 C783 C 0.28127 0.12207 0.22540
 C784 C 0.26968 0.13647 0.22280
 C785 C 0.33593 0.05309 0.23697
 C786 C 0.34712 0.03842 0.23966
 H787 H 0.30161 0.03521 0.24695
 H788 H 0.26436 0.03154 0.25386
 H789 H 0.24084 0.06137 0.24927
 H790 H 0.25443 0.09500 0.23762
 H791 H 0.31584 0.14006 0.21586
 H792 H 0.35323 0.14383 0.20950
 H793 H 0.37672 0.11398 0.21414
 H794 H 0.36297 0.08022 0.22528
 C795 C 0.82215 0.57095 0.73403
 C796 C 0.80048 0.56828 0.73792
 C797 C 0.78679 0.58528 0.73507
 C798 C 0.79488 0.60482 0.72836
 C799 C 0.81657 0.60747 0.72452
 C800 C 0.83026 0.59047 0.72738
 C801 C 0.85190 0.59346 0.72352
 C802 C 0.85979 0.61273 0.71701
 C803 C 0.84641 0.62937 0.71417
 C804 C 0.82503 0.62686 0.71785
 C805 C 0.76518 0.58226 0.73906
 C806 C 0.75734 0.56300 0.74572
 C807 C 0.77075 0.54638 0.74853
 C808 C 0.79209 0.54889 0.74468
 C809 C 0.78093 0.62219 0.72542
 C810 C 0.76941 0.63666 0.72291
 C811 C 0.83606 0.55361 0.73698
 C812 C 0.84734 0.53900 0.73959
 H813 H 0.86292 0.58097 0.72551
 H814 H 0.87639 0.61476 0.71415
 H815 H 0.85262 0.64431 0.70911
 H816 H 0.81525 0.64026 0.71543
 H817 H 0.75413 0.59472 0.73710
 H818 H 0.74078 0.56097 0.74873
 H819 H 0.76461 0.53145 0.75372
 H820 H 0.80189 0.53549 0.74710
 C821 C 0.82711 0.42962 0.76152
 C822 C 0.80503 0.43180 0.76190
 C823 C 0.79180 0.41406 0.76556
 C824 C 0.80070 0.39423 0.76883
 C825 C 0.82278 0.39210 0.76861
 C826 C 0.83602 0.40986 0.76496
 C827 C 0.85802 0.40737 0.76480
 C828 C 0.86672 0.38787 0.76817
 C829 C 0.85379 0.37049 0.77172
 C830 C 0.83205 0.37249 0.77196
 C831 C 0.76978 0.41663 0.76581
 C832 C 0.76108 0.43617 0.76258
 C833 C 0.77402 0.45353 0.75903
 C834 C 0.79574 0.45147 0.75867
 C835 C 0.78703 0.37610 0.77219
 C836 C 0.77522 0.36136 0.77479
 C837 C 0.84042 0.44782 0.75747
 C838 C 0.85020 0.46371 0.75395
 H839 H 0.86870 0.42045 0.76212
 H840 H 0.88359 0.38624 0.76803
 H841 H 0.86063 0.35537 0.77432
 H842 H 0.82262 0.35854 0.77478
 H843 H 0.75903 0.40361 0.76851
 H844 H 0.74421 0.43784 0.76284
 H845 H 0.76719 0.46868 0.75655
 H846 H 0.80510 0.46546 0.75586
 C847 C 0.32717 -0.07097 0.26216
 C848 C 0.33598 -0.09090 0.26490
 C849 C 0.32268 -0.10862 0.26861
 C850 C 0.30067 -0.10627 0.26957
 C851 C 0.29188 -0.08629 0.26698
 C852 C 0.30516 -0.06859 0.26327
 C853 C 0.29597 -0.04878 0.26069
 C854 C 0.27432 -0.04652 0.26174
 C855 C 0.26134 -0.06382 0.26537
 C856 C 0.26993 -0.08351 0.26798
 C857 C 0.33184 -0.12840 0.27126
 C858 C 0.35351 -0.13061 0.27027
 C859 C 0.36649 -0.11329 0.26664
 C860 C 0.35791 -0.09361 0.26397
 C861 C 0.28695 -0.12435 0.27296
 C862 C 0.27508 -0.13904 0.27557
 C863 C 0.34048 -0.05280 0.25799
 C864 C 0.35017 -0.03688 0.25438
 H865 H 0.30536 -0.03481 0.25783
 H866 H 0.26758 -0.03125 0.25973
 H867 H 0.24453 -0.06199 0.26618
 H868 H 0.25916 -0.09648 0.27079
 H869 H 0.32237 -0.14231 0.27413
 H870 H 0.36026 -0.14586 0.27232
 H871 H 0.38331 -0.11510 0.26589
 H872 H 0.36861 -0.08058 0.26119
 C873 C 0.17689 -0.07482 0.73704
 C874 C 0.19852 -0.07052 0.73418
 C875 C 0.21227 -0.08728 0.73014
 C876 C 0.20430 -0.10825 0.72902
 C877 C 0.18263 -0.11252 0.73180
 C878 C 0.16889 -0.09575 0.73585
 C879 C 0.14731 -0.10039 0.73865
 C880 C 0.13951 -0.12103 0.73745
 C881 C 0.15293 -0.13743 0.73346
 C882 C 0.17426 -0.13332 0.73066
 C883 C 0.23384 -0.08259 0.72733
 C884 C 0.24160 -0.06193 0.72849
 C885 C 0.22816 -0.04555 0.73246
 C886 C 0.20686 -0.04970 0.73528
 C887 C 0.21842 -0.12541 0.72526
 C888 C 0.23022 -0.13962 0.72231
 C889 C 0.16291 -0.05767 0.74116
 C890 C 0.15161 -0.04316 0.74447
 H891 H 0.13626 -0.08815 0.74180
 H892 H 0.12296 -0.12430 0.73963
 H893 H 0.14680 -0.15344 0.73253
 H894 H 0.18407 -0.14661 0.72758
 H895 H 0.24491 -0.09480 0.72420
 H896 H 0.25814 -0.05862 0.72629
 H897 H 0.23426 -0.02953 0.73335
 H898 H 0.19704 -0.03641 0.73835
 C899 C 0.67634 0.42488 0.23711
 C900 C 0.66818 0.40447 0.23195
 C901 C 0.68211 0.38783 0.22799
 C902 C 0.70412 0.39173 0.22922
 C903 C 0.71226 0.41216 0.23438
 C904 C 0.69833 0.42879 0.23832
 C905 C 0.70685 0.44909 0.24343
 C906 C 0.72850 0.45285 0.24462
 C907 C 0.74212 0.43658 0.24080
 C908 C 0.73419 0.41645 0.23573
 C909 C 0.67357 0.36755 0.22289
 C910 C 0.65190 0.36383 0.22172
 C911 C 0.63829 0.38011 0.22556
 C912 C 0.64625 0.40023 0.23063
 C913 C 0.71843 0.37477 0.22531
 C914 C 0.73052 0.36084 0.22224
 C915 C 0.66219 0.44190 0.24110
 C916 C 0.65083 0.45636 0.24440
 H917 H 0.69690 0.46226 0.24656
 H918 H 0.73475 0.46846 0.24855
 H919 H 0.75894 0.43956 0.24177
 H920 H 0.74542 0.40432 0.23289
 H921 H 0.68353 0.35439 0.21977
 H922 H 0.64563 0.34822 0.21780
 H923 H 0.62147 0.37715 0.22463
 H924 H 0.63504 0.41239 0.23351
 C925 C 0.67207 0.56723 0.26523
 C926 C 0.66325 0.58730 0.26729
 C927 C 0.67662 0.60547 0.26993
 C928 C 0.69873 0.60344 0.27042
 C929 C 0.70755 0.58334 0.26845
 C930 C 0.69419 0.56519 0.26579
 C931 C 0.70341 0.54527 0.26376
 C932 C 0.72516 0.54333 0.26441
 C933 C 0.73820 0.56107 0.26710
 C934 C 0.72959 0.58087 0.26908
 C935 C 0.66742 0.62536 0.27206
 C936 C 0.64566 0.62726 0.27155
 C937 C 0.63261 0.60950 0.26890
 C938 C 0.64122 0.58970 0.26678
 C939 C 0.71246 0.62197 0.27298
 C940 C 0.72412 0.63713 0.27519
 C941 C 0.65862 0.54855 0.26246
 C942 C 0.64871 0.53226 0.25997
 H943 H 0.69396 0.53098 0.26164
 H944 H 0.73192 0.52797 0.26285
 H945 H 0.75508 0.55948 0.26764
 H946 H 0.74040 0.59419 0.27113
 H947 H 0.67693 0.63962 0.27415
 H948 H 0.63888 0.64260 0.27322
 H949 H 0.61572 0.61107 0.26849
 H950 H 0.63046 0.57633 0.26476
 C951 C 0.17016 0.06915 0.76324
 C952 C 0.16874 0.08213 0.78152
 C953 C 0.18223 0.10017 0.78441
 C954 C 0.19712 0.10508 0.76902
 C955 C 0.19804 0.09249 0.75042
 C956 C 0.18455 0.07446 0.74753
 C957 C 0.18595 0.06199 0.72889
 C958 C 0.20020 0.06723 0.71353
 C959 C 0.21334 0.08490 0.71633
 C960 C 0.21236 0.09742 0.73454
 C961 C 0.18057 0.11287 0.80284
 C962 C 0.16600 0.10788 0.81800
 C963 C 0.15287 0.09020 0.81521
 C964 C 0.15416 0.07740 0.79721
 C965 C 0.21187 0.12268 0.77254
 C966 C 0.22434 0.13712 0.77538
 C967 C 0.15778 0.04970 0.76109
 C968 C 0.14853 0.03299 0.75912
 H969 H 0.17603 0.04813 0.72595
 H970 H 0.20104 0.05755 0.69936
 H971 H 0.22436 0.08893 0.70434
 H972 H 0.22289 0.11101 0.73599
 H973 H 0.19043 0.12680 0.80570
 H974 H 0.16490 0.11779 0.83200
 H975 H 0.14159 0.08637 0.82704
 H976 H 0.14358 0.06385 0.79569
 C977 C 0.23418 0.32339 0.07123
 C978 C 0.24386 0.32818 0.09112
 C979 C 0.24086 0.31440 0.10802
 C980 C 0.22822 0.29591 0.10486
 C981 C 0.21856 0.29112 0.08493
 C982 C 0.22158 0.30491 0.06805
 C983 C 0.21193 0.29976 0.04819
 C984 C 0.19962 0.28149 0.04512
 C985 C 0.19661 0.26802 0.06166
 C986 C 0.20591 0.27271 0.08137
 C987 C 0.25073 0.31948 0.12778
 C988 C 0.26329 0.33761 0.13071
 C989 C 0.26626 0.35106 0.11415
 C990 C 0.25668 0.34649 0.09456
 C991 C 0.22532 0.28177 0.12206
 C992 C 0.22295 0.27007 0.13639
 C993 C 0.23745 0.33728 0.05394
 C994 C 0.24028 0.34854 0.03935
 H995 H 0.21381 0.30974 0.03485
 H996 H 0.19241 0.27777 0.02982
 H997 H 0.18702 0.25385 0.05919
 H998 H 0.20311 0.26174 0.09374
 H999 H 0.24889 0.30950 0.14114
 H1000 H 0.27077 0.34124 0.14591
 H1001 H 0.27606 0.36511 0.11649
 H1002 H 0.25947 0.35743 0.08215
 C1003 C 0.73465 0.82399 0.57168
 C1004 C 0.74739 0.82646 0.59020
 C1005 C 0.74431 0.81277 0.60716
 C1006 C 0.72855 0.79669 0.60543
 C1007 C 0.71582 0.79422 0.58687
 C1008 C 0.71892 0.80791 0.56992
 C1009 C 0.70614 0.80507 0.55144
 C1010 C 0.69072 0.78915 0.54977
 C1011 C 0.68764 0.77579 0.56638
 C1012 C 0.69999 0.77823 0.58476
 C1013 C 0.75725 0.81551 0.62554
 C1014 C 0.77283 0.83127 0.62706
 C1015 C 0.77588 0.84462 0.61043
 C1016 C 0.76333 0.84233 0.59218
 C1017 C 0.72554 0.78254 0.62260
 C1018 C 0.72295 0.77068 0.63677
 C1019 C 0.73792 0.83777 0.55428
 C1020 C 0.74065 0.84895 0.53962
 H1021 H 0.70794 0.81506 0.53808
 H1022 H 0.68112 0.78718 0.53550
 H1023 H 0.67563 0.76346 0.56502
 H1024 H 0.69700 0.76744 0.59725
 H1025 H 0.75547 0.80550 0.63888
 H1026 H 0.78262 0.83313 0.64120
 H1027 H 0.78802 0.85682 0.61166
 H1028 H 0.76629 0.85310 0.57967
 C1029 C 0.75988 0.82935 0.42899
 C1030 C 0.77285 0.83651 0.41283
 C1031 C 0.77662 0.82311 0.39517
 C1032 C 0.76742 0.80263 0.39384
 C1033 C 0.75425 0.79557 0.40991
 C1034 C 0.75048 0.80895 0.42754
 C1035 C 0.73743 0.80143 0.44353
 C1036 C 0.72838 0.78129 0.44212
 C1037 C 0.73201 0.76823 0.42485
 C1038 C 0.74476 0.77520 0.40887
 C1039 C 0.78972 0.83057 0.37924
 C1040 C 0.79890 0.85066 0.38075
 C1041 C 0.79525 0.86373 0.39804
 C1042 C 0.78237 0.85682 0.41394
 C1043 C 0.77170 0.78859 0.37623
 C1044 C 0.77484 0.77638 0.36194
 C1045 C 0.75676 0.84241 0.44763
 C1046 C 0.75392 0.85194 0.46386
 H1047 H 0.73408 0.81098 0.45728
 H1048 H 0.71849 0.77580 0.45451
 H1049 H 0.72494 0.75259 0.42382
 H1050 H 0.74709 0.76443 0.39576
 H1051 H 0.79300 0.82096 0.36549
 H1052 H 0.80891 0.85612 0.36843
 H1053 H 0.80244 0.87931 0.39915
 H1054 H 0.77996 0.86753 0.42709
 C1055 C 0.25999 0.32893 -0.07114
 C1056 C 0.27283 0.33625 -0.08733
 C1057 C 0.27675 0.32290 -0.10498
 C1058 C 0.26780 0.30232 -0.10631
 C1059 C 0.25476 0.29508 -0.09019
 C1060 C 0.25084 0.30842 -0.07257
 C1061 C 0.23788 0.30077 -0.05658
 C1062 C 0.22908 0.28052 -0.05795
 C1063 C 0.23290 0.26748 -0.07518
 C1064 C 0.24556 0.27459 -0.09117
 C1065 C 0.28975 0.33052 -0.12092
 C1066 C 0.29865 0.35074 -0.11944
 C1067 C 0.29482 0.36377 -0.10217
 C1068 C 0.28205 0.35669 -0.08625
 C1069 C 0.27208 0.28841 -0.12404
 C1070 C 0.27522 0.27633 -0.13844
 C1071 C 0.25679 0.34194 -0.05250
 C1072 C 0.25393 0.35148 -0.03628
 H1073 H 0.23439 0.31030 -0.04285
 H1074 H 0.21925 0.27494 -0.04555
 H1075 H 0.22603 0.25176 -0.07618
 H1076 H 0.24805 0.26383 -0.10426
 H1077 H 0.29318 0.32095 -0.13465
 H1078 H 0.30858 0.35632 -0.13176
 H1079 H 0.30178 0.37945 -0.10108
 H1080 H 0.27949 0.36738 -0.07312
 C1081 C 0.73673 0.17440 -0.07495
 C1082 C 0.74617 0.17104 -0.09458
 C1083 C 0.74236 0.18503 -0.11120
 C1084 C 0.72910 0.20229 -0.10808
 C1085 C 0.71962 0.20561 -0.08844
 C1086 C 0.72344 0.19160 -0.07183
 C1087 C 0.71383 0.19525 -0.05230
 C1088 C 0.70087 0.21228 -0.04926
 C1089 C 0.69716 0.22599 -0.06549
 C1090 C 0.70636 0.22276 -0.08489
 C1091 C 0.75209 0.18141 -0.13065
 C1092 C 0.76519 0.16446 -0.13358
 C1093 C 0.76888 0.15077 -0.11732
 C1094 C 0.75951 0.15394 -0.09801
 C1095 C 0.72539 0.21672 -0.12500
 C1096 C 0.72249 0.22874 -0.13904
 C1097 C 0.74095 0.16043 -0.05782
 C1098 C 0.74437 0.14919 -0.04327
 H1099 H 0.71623 0.18502 -0.03919
 H1100 H 0.69369 0.21484 -0.03421
 H1101 H 0.68709 0.23921 -0.06303
 H1102 H 0.70300 0.23387 -0.09703
 H1103 H 0.74970 0.19163 -0.14377
 H1104 H 0.77253 0.16194 -0.14855
 H1105 H 0.77907 0.13763 -0.11967
 H1106 H 0.76285 0.14286 -0.08583
 C1107 C 0.23724 0.67458 0.42500
 C1108 C 0.22415 0.69193 0.42822
 C1109 C 0.22033 0.70594 0.41162
 C1110 C 0.22960 0.70249 0.39189
 C1111 C 0.24266 0.68509 0.38868
 C1112 C 0.24648 0.67109 0.40529
 C1113 C 0.25962 0.65385 0.40176
 C1114 C 0.26878 0.65055 0.38237
 C1115 C 0.26508 0.66424 0.36612
 C1116 C 0.25217 0.68134 0.36914
 C1117 C 0.20728 0.72324 0.41526
 C1118 C 0.19827 0.72660 0.43474
 C1119 C 0.20200 0.71288 0.45097
 C1120 C 0.21476 0.69571 0.44783
 C1121 C 0.22591 0.71695 0.37501
 C1122 C 0.22300 0.72903 0.36102
 C1123 C 0.24144 0.66056 0.44210
 C1124 C 0.24480 0.64926 0.45661
 H1125 H 0.26295 0.64276 0.41393
 H1126 H 0.27881 0.63730 0.37995
 H1127 H 0.27225 0.66162 0.35108
 H1128 H 0.24976 0.69154 0.35602
 H1129 H 0.20391 0.73434 0.40313
 H1130 H 0.18836 0.73992 0.43727
 H1131 H 0.19498 0.71555 0.46608
 H1132 H 0.21718 0.68548 0.46094
 C1133 C 0.26282 0.66936 0.56850
 C1134 C 0.27516 0.66301 0.58592
 C1135 C 0.27792 0.67655 0.60399
 C1136 C 0.26833 0.69636 0.60450
 C1137 C 0.25571 0.70256 0.58719
 C1138 C 0.25295 0.68903 0.56915
 C1139 C 0.24041 0.69569 0.55195
 C1140 C 0.23091 0.71513 0.55256
 C1141 C 0.23360 0.72834 0.57021
 C1142 C 0.24582 0.72221 0.58737
 C1143 C 0.29046 0.66991 0.62115
 C1144 C 0.30002 0.65048 0.62048
 C1145 C 0.29733 0.63728 0.60280
 C1146 C 0.28505 0.64339 0.58567
 C1147 C 0.27180 0.71064 0.62253
 C1148 C 0.27462 0.72286 0.63720
 C1149 C 0.26083 0.65624 0.54949
 C1150 C 0.25887 0.64661 0.53296
 H1151 H 0.23780 0.68598 0.53786
 H1152 H 0.22142 0.71996 0.53926
 H1153 H 0.22618 0.74344 0.57061
 H1154 H 0.24742 0.73305 0.60074
 H1155 H 0.29300 0.67965 0.63524
 H1156 H 0.30958 0.64565 0.63374
 H1157 H 0.30481 0.62221 0.60235
 H1158 H 0.28338 0.63259 0.57227
 C1159 C 0.76347 0.16929 0.06859
 C1160 C 0.77606 0.16294 0.08583
 C1161 C 0.77905 0.17646 0.10388
 C1162 C 0.76940 0.19623 0.10457
 C1163 C 0.75655 0.20245 0.08743
 C1164 C 0.75354 0.18893 0.06942
 C1165 C 0.74068 0.19555 0.05245
 C1166 C 0.73114 0.21497 0.05323
 C1167 C 0.73412 0.22820 0.07083
 C1168 C 0.74665 0.22210 0.08778
 C1169 C 0.79184 0.16983 0.12086
 C1170 C 0.80140 0.15041 0.12004
 C1171 C 0.79845 0.13720 0.10240
 C1172 C 0.78594 0.14331 0.08544
 C1173 C 0.77288 0.21037 0.12271
 C1174 C 0.77565 0.22243 0.13751
 C1175 C 0.76132 0.15624 0.04954
 C1176 C 0.75924 0.14665 0.03299
 H1177 H 0.73783 0.18582 0.03841
 H1178 H 0.72139 0.21977 0.04009
 H1179 H 0.72669 0.24328 0.07135
 H1180 H 0.74848 0.23295 0.10112
 H1181 H 0.79459 0.17957 0.13491
 H1182 H 0.81114 0.14559 0.13317
 H1183 H 0.80591 0.12213 0.10185
 H1184 H 0.78407 0.13250 0.07206
 C1185 C 0.48690 0.31879 0.57124
 C1186 C 0.50125 0.32159 0.55489
 C1187 C 0.49894 0.33855 0.54098
 C1188 C 0.48224 0.35261 0.54345
 C1189 C 0.46801 0.34991 0.55995
 C1190 C 0.47033 0.33295 0.57385
 C1191 C 0.45581 0.33054 0.59013
 C1192 C 0.43955 0.34451 0.59268
 C1193 C 0.43733 0.36112 0.57916
 C1194 C 0.45133 0.36385 0.56295
 C1195 C 0.51352 0.34101 0.52480
 C1196 C 0.52989 0.32712 0.52240
 C1197 C 0.53209 0.31052 0.53596
 C1198 C 0.51797 0.30770 0.55204
 C1199 C 0.47946 0.36971 0.52898
 C1200 C 0.47664 0.38401 0.51722
 C1201 C 0.48894 0.30131 0.58532
 C1202 C 0.48977 0.28699 0.59732
 H1203 H 0.45686 0.31787 0.60107
 H1204 H 0.42861 0.34242 0.60523
 H1205 H 0.42469 0.37195 0.58122
 H1206 H 0.44894 0.37702 0.55286
 H1207 H 0.51245 0.35370 0.51389
 H1208 H 0.54093 0.32924 0.50996
 H1209 H 0.54481 0.29975 0.53401
 H1210 H 0.52031 0.29455 0.56220
 C1211 C -0.01263 0.81898 0.07063
 C1212 C -0.02879 0.83353 0.07368
 C1213 C -0.03111 0.85050 0.05981
 C1214 C -0.01729 0.85285 0.04291
 C1215 C -0.00099 0.83842 0.04001
 C1216 C 0.00133 0.82143 0.05390
 C1217 C 0.01767 0.80719 0.05064
 C1218 C 0.03141 0.80966 0.03417
 C1219 C 0.02919 0.82628 0.02063
 C1220 C 0.01320 0.84053 0.02343
 C1221 C -0.04738 0.86483 0.06324
 C1222 C -0.06096 0.86246 0.07985
 C1223 C -0.05873 0.84584 0.09336
 C1224 C -0.04287 0.83150 0.09039
 C1225 C -0.02011 0.86999 0.02849
 C1226 C -0.02297 0.88433 0.01678
 C1227 C -0.01065 0.80143 0.08463
 C1228 C -0.00987 0.78706 0.09656
 H1229 H 0.02001 0.79402 0.06077
 H1230 H 0.04384 0.79862 0.03192
 H1231 H 0.03993 0.82813 0.00788
 H1232 H 0.01210 0.85321 0.01251
 H1233 H -0.04976 0.87803 0.05317
 H1234 H -0.07329 0.87358 0.08225
 H1235 H -0.06934 0.84405 0.10623
 H1236 H -0.04180 0.81884 0.10134
 C1237 C 0.01412 0.68594 0.07014
 C1238 C 0.03488 0.68370 0.06323
 C1239 C 0.03977 0.66647 0.04971
 C1240 C 0.02384 0.65158 0.04318
 C1241 C 0.00306 0.65383 0.05015
 C1242 C -0.00181 0.67104 0.06366
 C1243 C -0.02269 0.67290 0.07047
 C1244 C -0.03830 0.65819 0.06409
 C1245 C -0.03355 0.64139 0.05085
 C1246 C -0.01315 0.63915 0.04391
 C1247 C 0.06065 0.66457 0.04303
 C1248 C 0.07627 0.67923 0.04955
 C1249 C 0.07150 0.69603 0.06279
 C1250 C 0.05106 0.69833 0.06960
 C1251 C 0.02869 0.63399 0.02926
 C1252 C 0.03216 0.61928 0.01764
 C1253 C 0.00907 0.70329 0.08423
 C1254 C 0.00412 0.71719 0.09617
 H1255 H -0.02719 0.68568 0.08079
 H1256 H -0.05417 0.65984 0.06947
 H1257 H -0.04575 0.63001 0.04592
 H1258 H -0.01025 0.62581 0.03361
 H1259 H 0.06512 0.65176 0.03272
 H1260 H 0.09217 0.67753 0.04429
 H1261 H 0.08370 0.70735 0.06784
 H1262 H 0.04809 0.71165 0.07991
 C1263 C 0.51454 0.18692 0.56995
 C1264 C 0.53502 0.17879 0.57034
 C1265 C 0.53981 0.16159 0.55675
 C1266 C 0.52406 0.15259 0.54289
 C1267 C 0.50364 0.16090 0.54232
 C1268 C 0.49886 0.17809 0.55591
 C1269 C 0.47828 0.18601 0.55517
 C1270 C 0.46288 0.17722 0.54139
 C1271 C 0.46757 0.16046 0.52807
 C1272 C 0.48768 0.15233 0.52846
 C1273 C 0.56037 0.15370 0.55746
 C1274 C 0.57577 0.16254 0.57122
 C1275 C 0.57108 0.17932 0.58454
 C1276 C 0.55096 0.18742 0.58416
 C1277 C 0.52866 0.13462 0.52939
 C1278 C 0.53191 0.11966 0.51803
 C1279 C 0.50927 0.20385 0.58444
 C1280 C 0.50413 0.21746 0.59662
 H1281 H 0.47386 0.19905 0.56520
 H1282 H 0.44723 0.18347 0.54105
 H1283 H 0.45556 0.15372 0.51736
 H1284 H 0.49054 0.13929 0.51778
 H1285 H 0.56476 0.14067 0.54740
 H1286 H 0.59143 0.15632 0.57155
 H1287 H 0.58309 0.18611 0.59521
 H1288 H 0.54806 0.20051 0.59479
 C1289 C -0.01622 0.18609 0.43116
 C1290 C -0.03316 0.17149 0.42770
 C1291 C -0.03645 0.15513 0.44211
 C1292 C -0.02274 0.15346 0.45988
 C1293 C -0.00609 0.16837 0.46359
 C1294 C -0.00283 0.18474 0.44919
 C1295 C 0.01400 0.19938 0.45316
 C1296 C 0.02722 0.19791 0.47084
 C1297 C 0.02405 0.18189 0.48491
 C1298 C 0.00761 0.16725 0.48140
 C1299 C -0.05344 0.14066 0.43824
 C1300 C -0.06678 0.14230 0.42065
 C1301 C -0.06354 0.15828 0.40656
 C1302 C -0.04694 0.17275 0.40996
 C1303 C -0.02548 0.13615 0.47406
 C1304 C -0.02776 0.12166 0.48566
 C1305 C -0.01185 0.20180 0.41565
 C1306 C -0.00749 0.21441 0.40258
 H1307 H 0.01707 0.21215 0.44270
 H1308 H 0.04002 0.20924 0.47363
 H1309 H 0.03439 0.18079 0.49860
 H1310 H 0.00577 0.15508 0.49280
 H1311 H -0.05661 0.12797 0.44876
 H1312 H -0.07970 0.13109 0.41792
 H1313 H -0.07392 0.15948 0.39290
 H1314 H -0.04508 0.18494 0.39859
 C1315 C 0.48498 0.68579 0.93148
 C1316 C 0.46488 0.67589 0.93234
 C1317 C 0.46137 0.65960 0.94677
 C1318 C 0.47800 0.65328 0.96023
 C1319 C 0.49800 0.66343 0.95962
 C1320 C 0.50150 0.67973 0.94521
 C1321 C 0.52168 0.68955 0.94478
 C1322 C 0.53792 0.68345 0.95823
 C1323 C 0.53449 0.66753 0.97234
 C1324 C 0.51480 0.65758 0.97309
 C1325 C 0.44117 0.64988 0.94727
 C1326 C 0.42490 0.65608 0.93390
 C1327 C 0.42835 0.67199 0.91977
 C1328 C 0.44809 0.68183 0.91892
 C1329 C 0.47468 0.63604 0.97436
 C1330 C 0.47205 0.62158 0.98593
 C1331 C 0.48898 0.70159 0.91598
 C1332 C 0.49307 0.71432 0.90293
 H1333 H 0.52513 0.70203 0.93411
 H1334 H 0.55325 0.69114 0.95770
 H1335 H 0.54716 0.66286 0.98276
 H1336 H 0.51290 0.64529 0.98435
 H1337 H 0.43772 0.63745 0.95800
 H1338 H 0.40953 0.64849 0.93450
 H1339 H 0.41567 0.67673 0.90941
 H1340 H 0.45001 0.69415 0.90769
 C1341 C 0.50955 0.81562 0.92996
 C1342 C 0.52018 0.81325 0.94956
 C1343 C 0.52338 0.83086 0.96355
 C1344 C 0.51604 0.85076 0.95779
 C1345 C 0.50490 0.85299 0.93844
 C1346 C 0.50169 0.83537 0.92445
 C1347 C 0.49072 0.83801 0.90508
 C1348 C 0.48300 0.85748 0.89976
 C1349 C 0.48603 0.87469 0.91350
 C1350 C 0.49686 0.87257 0.93263
 C1351 C 0.53402 0.82811 0.98308
 C1352 C 0.54133 0.80852 0.98860
 C1353 C 0.53830 0.79132 0.97485
 C1354 C 0.52787 0.79356 0.95553
 C1355 C 0.52024 0.86895 0.97162
 C1356 C 0.52379 0.88398 0.98318
 C1357 C 0.50757 0.79799 0.91511
 C1358 C 0.50670 0.78348 0.90258
 H1359 H 0.48795 0.82507 0.89390
 H1360 H 0.47460 0.85921 0.88491
 H1361 H 0.47995 0.88977 0.90932
 H1362 H 0.49880 0.88640 0.94280
 H1363 H 0.53673 0.84102 0.99431
 H1364 H 0.54939 0.80669 1.00362
 H1365 H 0.54403 0.77614 0.97919
 H1366 H 0.52586 0.77971 0.94539
 C1367 C 0.01035 0.31532 0.42967
 C1368 C 0.02638 0.31520 0.44554
 C1369 C 0.02951 0.33282 0.45951
 C1370 C 0.01665 0.35049 0.45747
 C1371 C 0.00027 0.35038 0.44194
 C1372 C -0.00285 0.33275 0.42795
 C1373 C -0.01917 0.33305 0.41240
 C1374 C -0.03216 0.35024 0.41084
 C1375 C -0.02919 0.36744 0.42460
 C1376 C -0.01316 0.36761 0.43998
 C1377 C 0.04562 0.33234 0.47528
 C1378 C 0.05828 0.31494 0.47716
 C1379 C 0.05528 0.29773 0.46342
 C1380 C 0.03956 0.29778 0.44775
 C1381 C 0.02046 0.36883 0.47116
 C1382 C 0.02380 0.38395 0.48264
 C1383 C 0.00803 0.29782 0.41470
 C1384 C 0.00693 0.28337 0.40211
 H1385 H -0.02210 0.32001 0.40137
 H1386 H -0.04461 0.35019 0.39890
 H1387 H -0.03935 0.38073 0.42335
 H1388 H -0.01148 0.38133 0.45034
 H1389 H 0.04854 0.34533 0.48636
 H1390 H 0.07049 0.31482 0.48934
 H1391 H 0.06518 0.28426 0.46492
 H1392 H 0.03782 0.28400 0.43747
 C1393 C 0.31950 0.56911 0.48975
 C1394 C 0.31613 0.54723 0.49181
 C1395 C 0.33310 0.53336 0.48936
 C1396 C 0.35336 0.54144 0.48482
 C1397 C 0.35683 0.56339 0.48332
 C1398 C 0.33986 0.57725 0.48575
 C1399 C 0.34370 0.59910 0.48393
 C1400 C 0.36372 0.60704 0.47988
 C1401 C 0.38032 0.59351 0.47758
 C1402 C 0.37701 0.57193 0.47926
 C1403 C 0.32930 0.51155 0.49140
 C1404 C 0.30930 0.50366 0.49569
 C1405 C 0.29272 0.51721 0.49802
 C1406 C 0.29600 0.53876 0.49611
 C1407 C 0.37048 0.52723 0.48103
 C1408 C 0.38481 0.51571 0.47753
 C1409 C 0.30194 0.58321 0.49081
 C1410 C 0.28759 0.59521 0.49091
 H1411 H 0.33131 0.61027 0.48564
 H1412 H 0.36637 0.62380 0.47854
 H1413 H 0.39586 0.59977 0.47447
 H1414 H 0.39044 0.56205 0.47739
 H1415 H 0.34171 0.50040 0.48976
 H1416 H 0.30667 0.48693 0.49721
 H1417 H 0.27722 0.51099 0.50133
 H1418 H 0.28262 0.54869 0.49809
 C1419 C 0.81982 0.06967 -0.01103
 C1420 C 0.83846 0.07675 -0.02053
 C1421 C 0.85544 0.06292 -0.02303
 C1422 C 0.85370 0.04204 -0.01603
 C1423 C 0.83521 0.03510 -0.00614
 C1424 C 0.81822 0.04895 -0.00364
 C1425 C 0.79986 0.04162 0.00615
 C1426 C 0.79831 0.02117 0.01330
 C1427 C 0.81491 0.00764 0.01089
 C1428 C 0.83318 0.01444 0.00129
 C1429 C 0.87386 0.07038 -0.03266
 C1430 C 0.87545 0.09087 -0.03967
 C1431 C 0.85884 0.10437 -0.03727
 C1432 C 0.84053 0.09748 -0.02782
 C1433 C 0.87075 0.02768 -0.01952
 C1434 C 0.88504 0.01606 -0.02286
 C1435 C 0.80210 0.08352 -0.00963
 C1436 C 0.78762 0.09535 -0.00933
 H1437 H 0.78656 0.05159 0.00841
 H1438 H 0.78415 0.01581 0.02077
 H1439 H 0.81362 -0.00822 0.01649
 H1440 H 0.84568 0.00336 -0.00022
 H1441 H 0.88722 0.06049 -0.03486
 H1442 H 0.88965 0.09630 -0.04700
 H1443 H 0.86015 0.12027 -0.04275
 H1444 H 0.82807 0.10860 -0.02629
 C1445 C 0.68611 0.07008 0.01543
 C1446 C 0.68999 0.05062 0.02482
 C1447 C 0.67287 0.03699 0.02967
 C1448 C 0.65199 0.04289 0.02504
 C1449 C 0.64811 0.06252 0.01596
 C1450 C 0.66522 0.07613 0.01110
 C1451 C 0.66095 0.09558 0.00183
 C1452 C 0.64037 0.10142 -0.00247
 C1453 C 0.62364 0.08814 0.00235
 C1454 C 0.62737 0.06890 0.01145
 C1455 C 0.67715 0.01760 0.03901
 C1456 C 0.69775 0.01182 0.04338
 C1457 C 0.71447 0.02513 0.03858
 C1458 C 0.71073 0.04433 0.02941
 C1459 C 0.63448 0.02866 0.02912
 C1460 C 0.61973 0.01700 0.03218
 C1461 C 0.70352 0.08367 0.00966
 C1462 C 0.71750 0.09523 0.00424
 H1463 H 0.67342 0.10647 -0.00219
 H1464 H 0.63739 0.11635 -0.00956
 H1465 H 0.60767 0.09276 -0.00100
 H1466 H 0.61382 0.05913 0.01492
 H1467 H 0.66465 0.00674 0.04303
 H1468 H 0.70074 -0.00308 0.05052
 H1469 H 0.73044 0.02056 0.04199
 H1470 H 0.72425 0.05417 0.02598
 C1471 C 0.18570 0.57003 0.51414
 C1472 C 0.18844 0.55435 0.52923
 C1473 C 0.17127 0.54078 0.53406
 C1474 C 0.15149 0.54297 0.52373
 C1475 C 0.14869 0.55883 0.50882
 C1476 C 0.16584 0.57240 0.50401
 C1477 C 0.16266 0.58811 0.48899
 C1478 C 0.14310 0.59033 0.47904
 C1479 C 0.12633 0.57706 0.48375
 C1480 C 0.12900 0.56147 0.49845
 C1481 C 0.17439 0.52520 0.54919
 C1482 C 0.19392 0.52309 0.55926
 C1483 C 0.21070 0.53635 0.55451
 C1484 C 0.20808 0.55184 0.53968
 C1485 C 0.13406 0.52878 0.52816
 C1486 C 0.11943 0.51707 0.53146
 C1487 C 0.20327 0.58361 0.50876
 C1488 C 0.21737 0.59517 0.50361
 H1489 H 0.17520 0.59884 0.48479
 H1490 H 0.14095 0.60242 0.46760
 H1491 H 0.11117 0.57885 0.47598
 H1492 H 0.11547 0.55154 0.50159
 H1493 H 0.16180 0.51453 0.55341
 H1494 H 0.19603 0.51110 0.57080
 H1495 H 0.22584 0.53464 0.56237
 H1496 H 0.22159 0.56180 0.53652
 C1497 C 0.18654 0.43284 -0.01545
 C1498 C 0.18296 0.44888 -0.00023
 C1499 C 0.16652 0.46317 -0.00361
 C1500 C 0.15377 0.46134 -0.02219
 C1501 C 0.15769 0.44561 -0.03764
 C1502 C 0.17412 0.43131 -0.03425
 C1503 C 0.17761 0.41558 -0.04979
 C1504 C 0.16524 0.41407 -0.06821
 C1505 C 0.14918 0.42807 -0.07155
 C1506 C 0.14537 0.44368 -0.05649
 C1507 C 0.16313 0.47896 0.01190
 C1508 C 0.17562 0.48058 0.03024
 C1509 C 0.19170 0.46659 0.03355
 C1510 C 0.19539 0.45089 0.01855
 C1511 C 0.13628 0.47521 -0.02516
 C1512 C 0.12155 0.48648 -0.02764
 C1513 C 0.20226 0.41732 -0.01120
 C1514 C 0.21488 0.40425 -0.00688
 H1515 H 0.18994 0.40436 -0.04790
 H1516 H 0.16813 0.40197 -0.07996
 H1517 H 0.13962 0.42683 -0.08588
 H1518 H 0.13271 0.45421 -0.05982
 H1519 H 0.15082 0.49022 0.01002
 H1520 H 0.17282 0.49275 0.04195
 H1521 H 0.20137 0.46790 0.04782
 H1522 H 0.20810 0.44040 0.02184
 C1523 C 0.68437 0.93097 0.48443
 C1524 C 0.68932 0.95124 0.47714
 C1525 C 0.67307 0.96580 0.47392
 C1526 C 0.65201 0.96001 0.47807
 C1527 C 0.64704 0.93963 0.48511
 C1528 C 0.66327 0.92507 0.48831
 C1529 C 0.65793 0.90483 0.49549
 C1530 C 0.63716 0.89915 0.49940
 C1531 C 0.62128 0.91337 0.49624
 C1532 C 0.62607 0.93340 0.48917
 C1533 C 0.67839 0.98599 0.46665
 C1534 C 0.69917 0.99166 0.46275
 C1535 C 0.71506 0.97744 0.46596
 C1536 C 0.71028 0.95742 0.47306
 C1537 C 0.63539 0.97490 0.47507
 C1538 C 0.62125 0.98685 0.47248
 C1539 C 0.70095 0.91638 0.48875
 C1540 C 0.71417 0.90393 0.49317
 H1541 H 0.66971 0.89317 0.49815
 H1542 H 0.63337 0.88361 0.50491
 H1543 H 0.60516 0.90889 0.49929
 H1544 H 0.61315 0.94389 0.48694
 H1545 H 0.66656 0.99758 0.46392
 H1546 H 0.70296 1.00717 0.45721
 H1547 H 0.73118 0.98193 0.46293
 H1548 H 0.72316 0.94688 0.47529
 C1549 C 0.81692 0.93002 0.50843
 C1550 C 0.81432 0.95181 0.50597
 C1551 C 0.83183 0.96595 0.50910
 C1552 C 0.85181 0.95818 0.51470
 C1553 C 0.85452 0.93631 0.51652
 C1554 C 0.83701 0.92219 0.51339
 C1555 C 0.84006 0.90041 0.51549
 C1556 C 0.85986 0.89279 0.52043
 C1557 C 0.87699 0.90661 0.52343
 C1558 C 0.87444 0.92813 0.52154
 C1559 C 0.82885 0.98768 0.50664
 C1560 C 0.80913 0.99523 0.50122
 C1561 C 0.79201 0.98140 0.49820
 C1562 C 0.79447 0.95992 0.50056
 C1563 C 0.86949 0.97262 0.51907
 C1564 C 0.88422 0.98447 0.52296
 C1565 C 0.79884 0.91571 0.50685
 C1566 C 0.78405 0.90353 0.50635
 H1567 H 0.82724 0.88902 0.51327
 H1568 H 0.86191 0.87608 0.52191
 H1569 H 0.89235 0.90061 0.52722
 H1570 H 0.88826 0.93824 0.52399
 H1571 H 0.84171 0.99903 0.50879
 H1572 H 0.80715 1.01190 0.49933
 H1573 H 0.77673 0.98734 0.49399
 H1574 H 0.78070 0.94976 0.49802
 C1575 C 0.31679 0.42979 0.00876
 C1576 C 0.31386 0.45170 0.00809
 C1577 C 0.33136 0.46583 0.01123
 C1578 C 0.35166 0.45795 0.01507
 C1579 C 0.35467 0.43602 0.01515
 C1580 C 0.33717 0.42189 0.01201
 C1581 C 0.34052 0.40002 0.01235
 C1582 C 0.36060 0.39234 0.01563
 C1583 C 0.37773 0.40616 0.01864
 C1584 C 0.37489 0.42776 0.01844
 C1585 C 0.32806 0.48768 0.01054
 C1586 C 0.30803 0.49535 0.00688
 C1587 C 0.29089 0.48152 0.00389
 C1588 C 0.29368 0.45993 0.00449
 C1589 C 0.36935 0.47235 0.01948
 C1590 C 0.38405 0.48424 0.02334
 C1591 C 0.29881 0.41535 0.00710
 C1592 C 0.28411 0.40306 0.00648
 H1593 H 0.32771 0.38864 0.01003
 H1594 H 0.36288 0.37557 0.01581
 H1595 H 0.39331 0.40012 0.02113
 H1596 H 0.38870 0.43788 0.02083
 H1597 H 0.34091 0.49905 0.01274
 H1598 H 0.30579 0.51211 0.00636
 H1599 H 0.27536 0.48755 0.00107
 H1600 H 0.27989 0.44978 0.00202
 C1601 C 0.56898 0.48680 0.31786
 C1602 C 0.55992 0.46683 0.32191
 C1603 C 0.54623 0.46445 0.33902
 C1604 C 0.54168 0.48204 0.35204
 C1605 C 0.55045 0.50208 0.34776
 C1606 C 0.56414 0.50446 0.33062
 C1607 C 0.57278 0.52461 0.32673
 C1608 C 0.56806 0.54193 0.33939
 C1609 C 0.55469 0.53962 0.35613
 C1610 C 0.54595 0.51995 0.36034
 C1611 C 0.53746 0.44431 0.34278
 C1612 C 0.54207 0.42701 0.33003
 C1613 C 0.55545 0.42933 0.31333
 C1614 C 0.56431 0.44897 0.30923
 C1615 C 0.52830 0.47933 0.37000
 C1616 C 0.51728 0.47658 0.38488
 C1617 C 0.58376 0.48890 0.30097
 C1618 C 0.59626 0.48974 0.28708
 H1619 H 0.58324 0.52718 0.31387
 H1620 H 0.57482 0.55724 0.33620
 H1621 H 0.55108 0.55313 0.36591
 H1622 H 0.53562 0.51893 0.37352
 H1623 H 0.52695 0.44169 0.35557
 H1624 H 0.53522 0.41173 0.33314
 H1625 H 0.55900 0.41585 0.30347
 H1626 H 0.57460 0.44996 0.29603
 C1627 C 0.06931 -0.01298 0.81758
 C1628 C 0.05974 -0.03281 0.82128
 C1629 C 0.04595 -0.03513 0.83831
 C1630 C 0.04184 -0.01764 0.85164
 C1631 C 0.05115 0.00225 0.84774
 C1632 C 0.06494 0.00458 0.83068
 C1633 C 0.07419 0.02457 0.82723
 C1634 C 0.06995 0.04179 0.84024
 C1635 C 0.05643 0.03954 0.85686
 C1636 C 0.04709 0.02003 0.86065
 C1637 C 0.03663 -0.05513 0.84168
 C1638 C 0.04088 -0.07235 0.82868
 C1639 C 0.05442 -0.07010 0.81210
 C1640 C 0.06377 -0.05060 0.80835
 C1641 C 0.02845 -0.02034 0.86959
 C1642 C 0.01744 -0.02308 0.88448
 C1643 C 0.08411 -0.01093 0.80069
 C1644 C 0.09661 -0.01009 0.78681
 H1645 H 0.08478 0.02709 0.81448
 H1646 H 0.07719 0.05697 0.83739
 H1647 H 0.05317 0.05298 0.86690
 H1648 H 0.03668 0.01905 0.87375
 H1649 H 0.02597 -0.05768 0.85437
 H1650 H 0.03363 -0.08752 0.83151
 H1651 H 0.05770 -0.08354 0.80207
 H1652 H 0.07416 -0.04966 0.79522
 C1653 C 0.07199 0.01479 0.68561
 C1654 C 0.07467 0.00528 0.66551
 C1655 C 0.06112 0.01032 0.64835
 C1656 C 0.04489 0.02477 0.65140
 C1657 C 0.04232 0.03443 0.67144
 C1658 C 0.05589 0.02939 0.68860
 C1659 C 0.05293 0.03909 0.70852
 C1660 C 0.03703 0.05341 0.71141
 C1661 C 0.02380 0.05840 0.69462
 C1662 C 0.02635 0.04907 0.67483
 C1663 C 0.06413 0.00062 0.62841
 C1664 C 0.08002 -0.01372 0.62553
 C1665 C 0.09321 -0.01873 0.64232
 C1666 C 0.09066 -0.00938 0.66211
 C1667 C 0.03057 0.02923 0.63400
 C1668 C 0.01871 0.03250 0.61942
 C1669 C 0.08568 0.00928 0.70314
 C1670 C 0.09735 0.00403 0.71718
 H1671 H 0.06284 0.03571 0.72205
 H1672 H 0.03497 0.06067 0.72676
 H1673 H 0.01149 0.06957 0.69696
 H1674 H 0.01569 0.05345 0.66224
 H1675 H 0.05428 0.00400 0.61485
 H1676 H 0.08208 -0.02099 0.61018
 H1677 H 0.10551 -0.02991 0.64002
 H1678 H 0.10134 -0.01378 0.67466
 C1679 C 0.57166 0.51595 0.18623
 C1680 C 0.57913 0.51540 0.16546
 C1681 C 0.56551 0.52034 0.14830
 C1682 C 0.54446 0.52569 0.15198
 C1683 C 0.53710 0.52661 0.17279
 C1684 C 0.55074 0.52169 0.18995
 C1685 C 0.54296 0.52247 0.21057
 C1686 C 0.52233 0.52803 0.21416
 C1687 C 0.50903 0.53295 0.19740
 C1688 C 0.51624 0.53226 0.17692
 C1689 C 0.57335 0.51965 0.12770
 C1690 C 0.59402 0.51415 0.12413
 C1691 C 0.60729 0.50922 0.14089
 C1692 C 0.60003 0.50983 0.16135
 C1693 C 0.53025 0.52960 0.13430
 C1694 C 0.51850 0.53254 0.11952
 C1695 C 0.58534 0.50993 0.20360
 C1696 C 0.59697 0.50434 0.21753
 H1697 H 0.55273 0.51880 0.22411
 H1698 H 0.51663 0.52853 0.23003
 H1699 H 0.49302 0.53729 0.20028
 H1700 H 0.50532 0.53624 0.16440
 H1701 H 0.56364 0.52338 0.11414
 H1702 H 0.59975 0.51369 0.10827
 H1703 H 0.62331 0.50490 0.13804
 H1704 H 0.61098 0.50589 0.17386
 C1705 C 0.43172 -0.01567 0.18591
 C1706 C 0.44654 0.00032 0.18111
 C1707 C 0.46097 -0.00310 0.16480
 C1708 C 0.46049 -0.02248 0.15337
 C1709 C 0.44589 -0.03860 0.15840
 C1710 C 0.43146 -0.03517 0.17472
 C1711 C 0.41690 -0.05142 0.17936
 C1712 C 0.41658 -0.07053 0.16818
 C1713 C 0.43069 -0.07390 0.15223
 C1714 C 0.44521 -0.05817 0.14733
 C1715 C 0.47553 0.01318 0.16018
 C1716 C 0.47581 0.03230 0.17135
 C1717 C 0.46168 0.03566 0.18728
 C1718 C 0.44719 0.01991 0.19218
 C1719 C 0.47462 -0.02561 0.13609
 C1720 C 0.48613 -0.02813 0.12157
 C1721 C 0.41613 -0.01163 0.20164
 C1722 C 0.40296 -0.00758 0.21426
 H1723 H 0.40563 -0.04955 0.19165
 H1724 H 0.40530 -0.08278 0.17192
 H1725 H 0.43037 -0.08878 0.14360
 H1726 H 0.45587 -0.06153 0.13479
 H1727 H 0.48683 0.01132 0.14793
 H1728 H 0.48704 0.04459 0.16760
 H1729 H 0.46194 0.05055 0.19588
 H1730 H 0.43655 0.02326 0.20473
 C1731 C 0.93168 0.48502 0.68529
 C1732 C 0.94462 0.50180 0.67853
 C1733 C 0.95901 0.49831 0.66219
 C1734 C 0.96038 0.47806 0.65270
 C1735 C 0.94770 0.46120 0.65971
 C1736 C 0.93331 0.46470 0.67606
 C1737 C 0.92071 0.44765 0.68271
 C1738 C 0.92229 0.42769 0.67350
 C1739 C 0.93635 0.42427 0.65752
 C1740 C 0.94894 0.44077 0.65063
 C1741 C 0.97168 0.51535 0.65562
 C1742 C 0.97020 0.53528 0.66492
 C1743 C 0.95613 0.53870 0.68089
 C1744 C 0.94345 0.52222 0.68767
 C1745 C 0.97445 0.47472 0.63542
 C1746 C 0.98595 0.47205 0.62091
 C1747 C 0.91614 0.48895 0.70111
 C1748 C 0.90303 0.49298 0.71381
 H1749 H 0.90956 0.44955 0.69510
 H1750 H 0.91254 0.41483 0.67879
 H1751 H 0.93751 0.40873 0.65041
 H1752 H 0.95964 0.43733 0.63815
 H1753 H 0.98287 0.51348 0.64325
 H1754 H 0.98002 0.54813 0.65970
 H1755 H 0.95504 0.55421 0.68807
 H1756 H 0.93277 0.52568 0.70016
 C1757 C 0.93001 0.51058 0.81495
 C1758 C 0.93846 0.53090 0.82013
 C1759 C 0.95236 0.53397 0.83786
 C1760 C 0.95770 0.51672 0.85032
 C1761 C 0.94942 0.49637 0.84502
 C1762 C 0.93550 0.49330 0.82728
 C1763 C 0.92727 0.47286 0.82237
 C1764 C 0.93263 0.45593 0.83465
 C1765 C 0.94627 0.45891 0.85198
 C1766 C 0.95463 0.47887 0.85717
 C1767 C 0.96055 0.55444 0.84279
 C1768 C 0.95510 0.57140 0.83059
 C1769 C 0.94147 0.56841 0.81327
 C1770 C 0.93322 0.54844 0.80801
 C1771 C 0.97151 0.52003 0.86870
 C1772 C 0.98298 0.52310 0.88390
 C1773 C 0.91514 0.50776 0.79736
 C1774 C 0.90252 0.50646 0.78290
 H1775 H 0.91662 0.46977 0.80902
 H1776 H 0.92614 0.44040 0.83071
 H1777 H 0.95039 0.44570 0.86146
 H1778 H 0.96517 0.48042 0.87080
 H1779 H 0.97120 0.55757 0.85612
 H1780 H 0.96147 0.58695 0.83462
 H1781 H 0.93724 0.58165 0.80386
 H1782 H 0.92271 0.54693 0.79436
 C1783 C 0.42960 0.01048 0.31542
 C1784 C 0.43649 0.03107 0.32167
 C1785 C 0.45032 0.03424 0.33945
 C1786 C 0.45717 0.01680 0.35087
 C1787 C 0.45048 -0.00381 0.34446
 C1788 C 0.43665 -0.00698 0.32667
 C1789 C 0.43010 -0.02770 0.32059
 C1790 C 0.43703 -0.04482 0.33178
 C1791 C 0.45057 -0.04174 0.34918
 C1792 C 0.45727 -0.02150 0.35552
 C1793 C 0.45694 0.05498 0.34545
 C1794 C 0.45008 0.07210 0.33420
 C1795 C 0.43654 0.06901 0.31683
 C1796 C 0.42978 0.04878 0.31056
 C1797 C 0.47102 0.02015 0.36921
 C1798 C 0.48257 0.02329 0.38435
 C1799 C 0.41481 0.00750 0.29777
 C1800 C 0.40224 0.00612 0.28327
 H1801 H 0.41960 -0.03086 0.30714
 H1802 H 0.43187 -0.06057 0.32692
 H1803 H 0.45591 -0.05510 0.35782
 H1804 H 0.46779 -0.01988 0.36916
 H1805 H 0.46745 0.05821 0.35886
 H1806 H 0.45529 0.08785 0.33901
 H1807 H 0.43124 0.08235 0.30815
 H1808 H 0.41927 0.04721 0.29691
   
