data_POSCAR
  _audit_creation_date              2014-09-24
  _audit_creation_method            'ToBaCCo'
  _symmetry_space_group_name_H-M    'P1'
  _symmetry_Int_Tables_number       1
  _symmetry_cell_setting            triclinic
  loop_
  _symmetry_equiv_pos_as_xyz
 x,y,z
_cell_length_a 44.4377
_cell_length_b 44.3917
_cell_length_c 44.4662
_cell_angle_alpha 89.804100
_cell_angle_beta 90.217300
_cell_angle_gamma 89.820500
loop_
  _atom_site_label
  _atom_site_type_symbol
  _atom_site_fract_x
  _atom_site_fract_y
  _atom_site_fract_z
C1 C 0.24755 0.96467 -0.02406
 C2 C 0.24718 0.96307 0.00776
 C3 C 0.24732 0.98969 0.02451
 C4 C 0.24978 1.01840 0.01121
 C5 C 0.25287 1.02023 -0.02065
 C6 C 0.25130 0.99329 -0.03740
 H7 H 0.25243 0.99469 -0.06171
 H8 H 0.24704 0.98764 0.04885
 C9 C 0.74993 0.46604 0.50895
 C10 C 0.74320 0.46611 0.47785
 C11 C 0.74128 0.49393 0.46265
 C12 C 0.74565 0.52139 0.47765
 C13 C 0.75259 0.52093 0.50861
 C14 C 0.75481 0.49339 0.52375
 H15 H 0.75935 0.49329 0.54776
 H16 H 0.73686 0.49422 0.43865
 C17 C 0.74352 1.00913 1.01869
 C18 C 0.75228 0.97829 1.01954
 C19 C 0.75879 0.96390 0.99197
 C20 C 0.75670 0.97896 0.96416
 C21 C 0.74789 1.00948 0.96387
 C22 C 0.74126 1.02394 0.99091
 H23 H 0.73575 1.04778 0.99036
 H24 H 0.76388 0.94001 0.99177
 C25 C 0.24830 0.50766 0.46549
 C26 C 0.25563 0.47664 0.46597
 C27 C 0.25743 0.46171 0.49390
 C28 C 0.25264 0.47695 0.52111
 C29 C 0.24549 0.50789 0.52026
 C30 C 0.24310 0.52272 0.49259
 H31 H 0.23829 0.54671 0.49220
 H32 H 0.26215 0.43773 0.49446
 C33 C 0.96754 0.24126 0.02400
 C34 C 0.96650 0.23916 -0.00778
 C35 C 0.99368 0.24090 -0.02375
 C36 C 1.02180 0.24352 -0.00954
 C37 C 1.02287 0.24190 0.02225
 C38 C 0.99577 0.24145 0.03841
 H39 H 0.99669 0.24141 0.06280
 H40 H 0.99289 0.24069 -0.04815
 C41 C 0.46535 0.74475 0.52203
 C42 C 0.46495 0.73948 0.49062
 C43 C 0.49226 0.73871 0.47491
 C44 C 0.51979 0.74346 0.48937
 C45 C 0.52049 0.74843 0.52062
 C46 C 0.49327 0.74883 0.53655
 H47 H 0.49390 0.75186 0.56073
 H48 H 0.49205 0.73586 0.45068
 C49 C -0.02380 0.75636 0.03356
 C50 C 0.00628 0.74550 0.03483
 C51 C 0.02155 0.73870 0.00819
 C52 C 0.00873 0.74347 -0.02042
 C53 C -0.02129 0.75442 -0.02196
 C54 C -0.03682 0.76068 0.00481
 H55 H -0.06034 0.76695 0.00294
 H56 H 0.04502 0.73214 0.01000
 C57 C 0.47965 0.25412 0.48094
 C58 C 0.51130 0.25195 0.48125
 C59 C 0.52671 0.25414 0.50863
 C60 C 0.51145 0.25674 0.53599
 C61 C 0.47968 0.25596 0.53611
 C62 C 0.46426 0.25565 0.50842
 H63 H 0.43986 0.25624 0.50825
 H64 H 0.55113 0.25346 0.50868
 C65 C 1.03334 0.02247 0.24763
 C66 C 1.03473 -0.00772 0.25838
 C67 C 1.00805 -0.02301 0.26532
 C68 C 0.97946 -0.01007 0.26108
 C69 C 0.97791 0.01993 0.25023
 C70 C 1.00452 0.03550 0.24352
 H71 H 1.00244 0.05902 0.23723
 H72 H 1.00971 -0.04661 0.27149
 C73 C 0.48001 0.49252 0.75243
 C74 C 0.47793 0.52338 0.74507
 C75 C 0.50426 0.53963 0.73894
 C76 C 0.53281 0.52581 0.74002
 C77 C 0.53459 0.49469 0.74671
 C78 C 0.50829 0.47862 0.75288
 H79 H 0.50987 0.45464 0.75750
 H80 H 0.50252 0.56360 0.73442
 C81 C 1.02284 0.98136 0.74899
 C82 C 0.99267 0.98152 0.73938
 C83 C 0.97733 1.00896 0.73698
 C84 C 0.99076 1.03671 0.74457
 C85 C 1.02118 1.03633 0.75496
 C86 C 1.03659 1.00855 0.75687
 H87 H 1.06017 1.00816 0.76324
 H88 H 0.95362 1.00821 0.73119
 C89 C 0.49029 0.53465 0.24246
 C90 C 0.52114 0.53456 0.25044
 C91 C 0.53644 0.50682 0.25235
 C92 C 0.52180 0.47932 0.24718
 C93 C 0.49091 0.47956 0.23969
 C94 C 0.47578 0.50716 0.23722
 H95 H 0.45181 0.50716 0.23250
 H96 H 0.56036 0.50667 0.25727
 O97 O 0.26684 0.16985 0.19586
 O98 O 0.30038 0.16197 0.23882
 O99 O 0.18811 0.20565 0.23851
 O100 O 0.17760 0.24504 0.26872
 O101 O 0.22398 0.24793 0.15892
 O102 O 0.26626 0.28130 0.15069
 O103 O 0.26621 0.29157 0.31366
 O104 O 0.23066 0.25056 0.32184
 O105 O 0.34341 0.24876 0.27937
 O106 O 0.35210 0.21337 0.23708
 O107 O 0.30801 0.32509 0.23662
 O108 O 0.26389 0.33311 0.20084
 O109 O 0.26648 0.32676 0.27646
 O110 O 0.23404 0.33629 0.23450
 O111 O 0.34379 0.28847 0.23841
 O112 O 0.35320 0.24550 0.20499
 O113 O 0.30700 0.25170 0.31493
 O114 O 0.27089 0.21802 0.32580
 O115 O 0.26672 0.20593 0.15946
 O116 O 0.29892 0.24715 0.15023
 O117 O 0.18811 0.24724 0.19523
 O118 O 0.18021 0.28221 0.23627
 O119 O 0.22452 0.16962 0.23792
 O120 O 0.26705 0.16009 0.27031
 Zr121 Zr 0.26503 0.19392 0.23672
 O122 O 0.29253 0.22012 0.26500
 Zr123 Zr 0.21203 0.24660 0.23602
 O124 O 0.23767 0.27562 0.26339
 Zr125 Zr 0.26482 0.24649 0.18324
 O126 O 0.29326 0.27443 0.20866
 Zr127 Zr 0.26655 0.25001 0.29071
 O128 O 0.23848 0.22047 0.26579
 Zr129 Zr 0.31947 0.24819 0.23838
 O130 O 0.29400 0.21990 0.20987
 Zr131 Zr 0.26678 0.30162 0.23663
 O132 O 0.23801 0.27563 0.20898
 O133 O 0.23703 0.21858 0.20836
 O134 O 0.29488 0.27743 0.26555
 C135 C 0.26746 0.17834 0.16814
 C136 C 0.19684 0.17795 0.23892
 C137 C 0.19639 0.24802 0.16758
 C138 C 0.26628 0.31905 0.30430
 C139 C 0.33468 0.25068 0.30682
 C140 C 0.33558 0.31617 0.23754
 H141 H 0.30455 0.20667 0.27819
 H142 H 0.30582 0.28651 0.19489
 H143 H 0.22424 0.20554 0.19565
 H144 H 0.22408 0.28827 0.27561
 H145 H 0.21778 0.23301 0.31717
 H146 H 0.18433 0.25728 0.28601
 H147 H 0.34899 0.26129 0.18979
 H148 H 0.31549 0.23435 0.15805
 H149 H 0.26144 0.19935 0.31841
 H150 H 0.25076 0.16433 0.28482
 H151 H 0.28184 0.33046 0.18802
 H152 H 0.25122 0.29657 0.15680
 H153 H 0.31541 0.16815 0.22364
 H154 H 0.34805 0.19942 0.25397
 H155 H 0.18669 0.29692 0.22083
 H156 H 0.21741 0.33053 0.24804
 O157 O 0.74863 0.84281 0.22070
 O158 O 0.71433 0.85104 0.26245
 O159 O 0.82623 0.80644 0.26624
 O160 O 0.83621 0.76685 0.29664
 O161 O 0.79169 0.76403 0.18610
 O162 O 0.74917 0.73062 0.17737
 O163 O 0.74773 0.72274 0.34083
 O164 O 0.78272 0.76362 0.34850
 O165 O 0.67056 0.76436 0.30433
 O166 O 0.66306 0.80089 0.26080
 O167 O 0.70509 0.68814 0.26325
 O168 O 0.74963 0.67896 0.22890
 O169 O 0.74489 0.68707 0.30444
 O170 O 0.77908 0.67615 0.26337
 O171 O 0.66970 0.72516 0.26239
 O172 O 0.66054 0.76759 0.23012
 O173 O 0.70679 0.76089 0.34041
 O174 O 0.74198 0.79644 0.35066
 O175 O 0.74949 0.80630 0.18501
 O176 O 0.71692 0.76515 0.17533
 O177 O 0.82712 0.76431 0.22309
 O178 O 0.83368 0.72966 0.26458
 O179 O 0.79003 0.84263 0.26355
 O180 O 0.74698 0.85292 0.29483
 Zr181 Zr 0.74946 0.81880 0.26180
 O182 O 0.72145 0.79324 0.29010
 Zr183 Zr 0.80224 0.76559 0.26319
 O184 O 0.77592 0.73715 0.29052
 Zr185 Zr 0.75030 0.76577 0.20932
 O186 O 0.72108 0.73845 0.23464
 Zr187 Zr 0.74715 0.76358 0.31672
 O188 O 0.77566 0.79248 0.29179
 Zr189 Zr 0.69462 0.76512 0.26341
 O190 O 0.72074 0.79275 0.23475
 Zr191 Zr 0.74668 0.71119 0.26377
 O192 O 0.77622 0.73653 0.23621
 O193 O 0.77788 0.79364 0.23460
 O194 O 0.71870 0.73615 0.29160
 C195 C 0.74877 0.83403 0.19314
 C196 C 0.81757 0.83416 0.26583
 C197 C 0.81923 0.76356 0.19527
 C198 C 0.74579 0.69524 0.33212
 C199 C 0.67923 0.76178 0.33187
 C200 C 0.67757 0.69734 0.26260
 H201 H 0.70936 0.80684 0.30288
 H202 H 0.70859 0.72641 0.22076
 H203 H 0.79104 0.80644 0.22203
 H204 H 0.78918 0.72449 0.30325
 H205 H 0.79567 0.78109 0.34364
 H206 H 0.82902 0.75492 0.31399
 H207 H 0.66648 0.75402 0.21356
 H208 H 0.70059 0.77867 0.18217
 H209 H 0.75302 0.81442 0.34376
 H210 H 0.76325 0.84902 0.30960
 H211 H 0.73235 0.68221 0.21517
 H212 H 0.76396 0.71531 0.18418
 H213 H 0.69946 0.84477 0.24707
 H214 H 0.66562 0.81358 0.27886
 H215 H 0.82671 0.71451 0.24985
 H216 H 0.79504 0.68147 0.27795
 O217 O 0.74916 0.17583 0.79361
 O218 O 0.72260 0.16463 0.75143
 O219 O 0.83037 0.21522 0.75698
 O220 O 0.84081 0.25586 0.72642
 O221 O 0.78845 0.25500 0.83369
 O222 O 0.74720 0.28470 0.84242
 O223 O 0.75260 0.29381 0.67472
 O224 O 0.78210 0.25358 0.66447
 O225 O 0.67337 0.25429 0.71209
 O226 O 0.66131 0.22525 0.75262
 O227 O 0.71105 0.33319 0.75197
 O228 O 0.75105 0.34465 0.78202
 O229 O 0.75015 0.33116 0.70943
 O230 O 0.78727 0.33850 0.75487
 O231 O 0.67413 0.29800 0.74975
 O232 O 0.66644 0.25352 0.78802
 O233 O 0.70912 0.25488 0.67577
 O234 O 0.75465 0.21736 0.67033
 O235 O 0.74834 0.21094 0.83075
 O236 O 0.71216 0.25426 0.83645
 O237 O 0.82659 0.25591 0.79984
 O238 O 0.83483 0.29146 0.75635
 O239 O 0.79569 0.17780 0.75454
 O240 O 0.75314 0.17042 0.71738
 Zr241 Zr 0.75344 0.20067 0.75405
 O242 O 0.72413 0.22620 0.72664
 Zr243 Zr 0.80476 0.25461 0.75725
 O244 O 0.77964 0.28092 0.72657
 Zr245 Zr 0.74972 0.25277 0.80738
 O246 O 0.72373 0.28238 0.78077
 Zr247 Zr 0.75063 0.25437 0.69997
 O248 O 0.78037 0.22771 0.72644
 Zr249 Zr 0.69744 0.25609 0.75207
 O250 O 0.72240 0.22609 0.77971
 Zr251 Zr 0.75068 0.30823 0.75153
 O252 O 0.77693 0.28296 0.78260
 O253 O 0.77940 0.22566 0.78365
 O254 O 0.72241 0.28354 0.72343
 C255 C 0.74747 0.18353 0.82126
 C256 C 0.82311 0.18738 0.75560
 C257 C 0.81639 0.25604 0.82700
 C258 C 0.75178 0.32161 0.68212
 C259 C 0.68147 0.25415 0.68457
 C260 C 0.68338 0.32549 0.75077
 H261 H 0.71166 0.21235 0.71451
 H262 H 0.71141 0.29526 0.79405
 H263 H 0.79186 0.21281 0.79705
 H264 H 0.79360 0.29281 0.71402
 H265 H 0.80127 0.26117 0.67284
 H266 H 0.83425 0.24409 0.70871
 H267 H 0.66583 0.27339 0.79802
 H268 H 0.69958 0.23650 0.83180
 H269 H 0.73506 0.20684 0.66976
 H270 H 0.77136 0.17461 0.70534
 H271 H 0.74194 0.33722 0.80088
 H272 H 0.75836 0.30263 0.83538
 H273 H 0.70368 0.17202 0.76051
 H274 H 0.66902 0.20620 0.74410
 H275 H 0.82984 0.30440 0.77373
 H276 H 0.79796 0.33856 0.73539
 O277 O 0.23533 0.81224 0.79109
 O278 O 0.26867 0.82063 0.74900
 O279 O 0.15620 0.77808 0.74774
 O280 O 0.14566 0.74014 0.71586
 O281 O 0.19135 0.73414 0.82600
 O282 O 0.23322 0.70005 0.83441
 O283 O 0.23560 0.69319 0.67097
 O284 O 0.19926 0.73295 0.66285
 O285 O 0.31126 0.73319 0.70674
 O286 O 0.32040 0.76750 0.75084
 O287 O 0.27442 0.65649 0.74667
 O288 O 0.23123 0.64840 0.78229
 O289 O 0.23286 0.65716 0.70730
 O290 O 0.19996 0.64783 0.74955
 O291 O 0.31090 0.69222 0.74871
 O292 O 0.32164 0.73433 0.78105
 O293 O 0.27499 0.73336 0.67062
 O294 O 0.23457 0.76797 0.66101
 O295 O 0.23451 0.77556 0.82688
 O296 O 0.26637 0.73347 0.83573
 O297 O 0.15551 0.73595 0.78944
 O298 O 0.14795 0.70147 0.74813
 O299 O 0.19312 0.81351 0.74730
 O300 O 0.23535 0.82231 0.71613
 Zr301 Zr 0.23347 0.78871 0.74986
 O302 O 0.26111 0.76267 0.72161
 Zr303 Zr 0.17978 0.73689 0.74908
 O304 O 0.20525 0.70832 0.72112
 Zr305 Zr 0.23240 0.73534 0.80236
 O306 O 0.26048 0.70724 0.77668
 Zr307 Zr 0.23462 0.73411 0.69480
 O308 O 0.20666 0.76314 0.72021
 Zr309 Zr 0.28741 0.73331 0.74784
 O310 O 0.26210 0.76168 0.77650
 Zr311 Zr 0.23383 0.68119 0.74770
 O312 O 0.20545 0.70705 0.77582
 O313 O 0.20502 0.76411 0.77743
 O314 O 0.26249 0.70542 0.71962
 C315 C 0.23578 0.80330 0.81870
 C316 C 0.16534 0.80553 0.74679
 C317 C 0.16374 0.73457 0.81711
 C318 C 0.23438 0.66559 0.67975
 C319 C 0.30263 0.73325 0.67905
 C320 C 0.30210 0.66473 0.74781
 H321 H 0.27373 0.77624 0.70937
 H322 H 0.27276 0.69460 0.79038
 H323 H 0.19235 0.77720 0.79020
 H324 H 0.19165 0.69619 0.70839
 H325 H 0.18455 0.74863 0.66881
 H326 H 0.15101 0.72627 0.69935
 H327 H 0.31574 0.72032 0.79731
 H328 H 0.28281 0.74671 0.82870
 H329 H 0.24920 0.78363 0.66689
 H330 H 0.22235 0.81529 0.69945
 H331 H 0.24880 0.65103 0.79574
 H332 H 0.21863 0.68478 0.82739
 H333 H 0.28418 0.81336 0.76335
 H334 H 0.31736 0.78148 0.73372
 H335 H 0.15418 0.68665 0.76364
 H336 H 0.18423 0.65338 0.73472
 O337 O 0.25123 0.34161 0.72360
 O338 O 0.21675 0.34952 0.76553
 O339 O 0.32934 0.30658 0.76906
 O340 O 0.33946 0.26740 0.80034
 O341 O 0.29543 0.26239 0.68964
 O342 O 0.25272 0.22927 0.68087
 O343 O 0.25140 0.22215 0.84448
 O344 O 0.28677 0.26297 0.85162
 O345 O 0.17463 0.26184 0.80797
 O346 O 0.16679 0.29945 0.76442
 O347 O 0.20917 0.18681 0.76725
 O348 O 0.25388 0.17799 0.73255
 O349 O 0.25008 0.18634 0.80818
 O350 O 0.28324 0.17530 0.76696
 O351 O 0.17365 0.22366 0.76549
 O352 O 0.16372 0.26554 0.73415
 O353 O 0.21083 0.26115 0.84414
 O354 O 0.24612 0.29594 0.85394
 O355 O 0.25337 0.30501 0.68803
 O356 O 0.22059 0.26381 0.67860
 O357 O 0.33082 0.26445 0.72660
 O358 O 0.33785 0.22992 0.76779
 O359 O 0.29261 0.34223 0.76612
 O360 O 0.24972 0.35227 0.79756
 Zr361 Zr 0.25241 0.31787 0.76484
 O362 O 0.22485 0.29215 0.79340
 Zr363 Zr 0.30584 0.26536 0.76656
 O364 O 0.27984 0.23664 0.79392
 Zr365 Zr 0.25391 0.26458 0.71264
 O366 O 0.22493 0.23715 0.73814
 Zr367 Zr 0.25095 0.26291 0.82012
 O368 O 0.27899 0.29210 0.79500
 Zr369 Zr 0.19832 0.26365 0.76689
 O370 O 0.22403 0.29135 0.73793
 Zr371 Zr 0.25074 0.21024 0.76737
 O372 O 0.28009 0.23580 0.73977
 O373 O 0.28112 0.29288 0.73779
 O374 O 0.22265 0.23504 0.79524
 C375 C 0.25206 0.33275 0.69607
 C376 C 0.32028 0.33418 0.76819
 C377 C 0.32296 0.26276 0.69884
 C378 C 0.25060 0.19456 0.83585
 C379 C 0.18327 0.26073 0.83563
 C380 C 0.18158 0.19589 0.76611
 H381 H 0.21265 0.30570 0.80612
 H382 H 0.21249 0.22498 0.72432
 H383 H 0.29416 0.30568 0.72511
 H384 H 0.29325 0.22413 0.80664
 H385 H 0.29962 0.28049 0.84672
 H386 H 0.33305 0.25429 0.81714
 H387 H 0.17056 0.25357 0.71674
 H388 H 0.20442 0.27769 0.68514
 H389 H 0.25712 0.31388 0.84687
 H390 H 0.26599 0.34857 0.81237
 H391 H 0.23621 0.18066 0.71919
 H392 H 0.26745 0.21394 0.68779
 H393 H 0.20213 0.34321 0.74995
 H394 H 0.16811 0.31106 0.78332
 H395 H 0.33103 0.21464 0.75313
 H396 H 0.29982 0.18136 0.78052
 O397 O 0.76406 0.67401 0.69217
 O398 O 0.79851 0.66587 0.73444
 O399 O 0.68692 0.71167 0.73371
 O400 O 0.67743 0.75093 0.76469
 O401 O 0.72382 0.75263 0.65474
 O402 O 0.76658 0.78540 0.64646
 O403 O 0.76676 0.79613 0.80957
 O404 O 0.73060 0.75607 0.81786
 O405 O 0.84322 0.75199 0.77539
 O406 O 0.85131 0.71626 0.73332
 O407 O 0.80931 0.82878 0.73208
 O408 O 0.76534 0.83770 0.69674
 O409 O 0.76801 0.83129 0.77237
 O410 O 0.73542 0.84126 0.73018
 O411 O 0.84437 0.79147 0.73403
 O412 O 0.85292 0.74805 0.70093
 O413 O 0.80687 0.75604 0.81092
 O414 O 0.77028 0.72235 0.82153
 O415 O 0.76626 0.70994 0.65563
 O416 O 0.79871 0.75087 0.64610
 O417 O 0.68793 0.75418 0.69100
 O418 O 0.68060 0.78837 0.73241
 O419 O 0.72281 0.67510 0.73447
 O420 O 0.76557 0.66481 0.76658
 Zr421 Zr 0.76375 0.69848 0.73281
 O422 O 0.79179 0.72418 0.76102
 Zr423 Zr 0.71175 0.75217 0.73187
 O424 O 0.73799 0.78071 0.75924
 Zr425 Zr 0.76463 0.75076 0.67914
 O426 O 0.79355 0.77827 0.70454
 Zr427 Zr 0.76639 0.75462 0.78663
 O428 O 0.73768 0.72562 0.76177
 Zr429 Zr 0.81928 0.75165 0.73434
 O430 O 0.79327 0.72374 0.70590
 Zr431 Zr 0.76763 0.80610 0.73246
 O432 O 0.73843 0.78055 0.70481
 O433 O 0.73622 0.72359 0.70432
 O434 O 0.79526 0.78143 0.76143
 C435 C 0.76555 0.68241 0.66448
 C436 C 0.69526 0.68385 0.73473
 C437 C 0.69625 0.75435 0.66335
 C438 C 0.76754 0.82359 0.80023
 C439 C 0.83453 0.75446 0.80282
 C440 C 0.83671 0.81932 0.73292
 H441 H 0.80356 0.71057 0.77426
 H442 H 0.80633 0.79004 0.69071
 H443 H 0.72311 0.71089 0.69159
 H444 H 0.72466 0.79365 0.77144
 H445 H 0.71731 0.73880 0.81327
 H446 H 0.68430 0.76321 0.78190
 H447 H 0.84908 0.76390 0.68571
 H448 H 0.81512 0.73788 0.65394
 H449 H 0.75927 0.70435 0.81466
 H450 H 0.74931 0.66920 0.78107
 H451 H 0.78286 0.83423 0.68352
 H452 H 0.75185 0.80097 0.65258
 H453 H 0.81343 0.67174 0.71903
 H454 H 0.84672 0.70226 0.75002
 H455 H 0.68768 0.80332 0.71748
 H456 H 0.71914 0.83632 0.74446
 O457 O 0.24643 0.67114 0.29168
 O458 O 0.21910 0.65943 0.25001
 O459 O 0.32679 0.71021 0.25211
 O460 O 0.33922 0.74979 0.22516
 O461 O 0.28582 0.75102 0.33033
 O462 O 0.24453 0.78096 0.33871
 O463 O 0.24818 0.78721 0.17068
 O464 O 0.27855 0.74848 0.16161
 O465 O 0.16946 0.74797 0.20946
 O466 O 0.15765 0.71991 0.25043
 O467 O 0.20748 0.82767 0.24573
 O468 O 0.24687 0.83965 0.27738
 O469 O 0.24649 0.82502 0.20494
 O470 O 0.28355 0.83331 0.25015
 O471 O 0.17052 0.79249 0.24740
 O472 O 0.16341 0.74802 0.28578
 O473 O 0.20501 0.74920 0.17286
 O474 O 0.24897 0.71054 0.16762
 O475 O 0.24584 0.70680 0.32831
 O476 O 0.20955 0.75018 0.33376
 O477 O 0.32354 0.75067 0.29601
 O478 O 0.32987 0.78754 0.25156
 O479 O 0.29221 0.67259 0.25191
 O480 O 0.24937 0.66458 0.21552
 Zr481 Zr 0.25004 0.69544 0.25168
 O482 O 0.22045 0.72047 0.22416
 Zr483 Zr 0.30129 0.74953 0.25361
 O484 O 0.27591 0.77517 0.22252
 Zr485 Zr 0.24679 0.74832 0.30431
 O486 O 0.22045 0.77743 0.27735
 Zr487 Zr 0.24662 0.74824 0.19670
 O488 O 0.27670 0.72212 0.22334
 Zr489 Zr 0.19389 0.75061 0.24938
 O490 O 0.21923 0.72116 0.27730
 Zr491 Zr 0.24713 0.80280 0.24739
 O492 O 0.27368 0.77818 0.27881
 O493 O 0.27629 0.72091 0.28068
 O494 O 0.21860 0.77758 0.22010
 C495 C 0.24505 0.67922 0.31926
 C496 C 0.31955 0.68233 0.25189
 C497 C 0.31372 0.75144 0.32327
 C498 C 0.24749 0.81511 0.17773
 C499 C 0.17747 0.74806 0.18187
 C500 C 0.17979 0.81996 0.24589
 H501 H 0.20782 0.70642 0.21244
 H502 H 0.20817 0.79057 0.29040
 H503 H 0.28895 0.70818 0.29399
 H504 H 0.28969 0.78678 0.20951
 H505 H 0.29700 0.73901 0.16988
 H506 H 0.33132 0.75100 0.20439
 H507 H 0.16297 0.76789 0.29578
 H508 H 0.19706 0.73222 0.32965
 H509 H 0.22910 0.70057 0.16735
 H510 H 0.26724 0.66886 0.20299
 H511 H 0.23739 0.83253 0.29617
 H512 H 0.25550 0.79879 0.33113
 H513 H 0.20041 0.66688 0.25952
 H514 H 0.16547 0.70054 0.24275
 H515 H 0.32655 0.79925 0.27017
 H516 H 0.29419 0.83307 0.23065
 O517 O 0.73708 0.31209 0.29362
 O518 O 0.77122 0.32039 0.25168
 O519 O 0.65873 0.27800 0.24775
 O520 O 0.64812 0.23949 0.21712
 O521 O 0.69288 0.23406 0.32744
 O522 O 0.73458 0.19948 0.33612
 O523 O 0.73693 0.19338 0.17280
 O524 O 0.70159 0.23498 0.16522
 O525 O 0.81383 0.23302 0.20934
 O526 O 0.82254 0.26770 0.25342
 O527 O 0.77695 0.15652 0.24916
 O528 O 0.73322 0.14822 0.28392
 O529 O 0.73723 0.15720 0.20903
 O530 O 0.70242 0.14777 0.25045
 O531 O 0.81335 0.19232 0.25124
 O532 O 0.82379 0.23436 0.28364
 O533 O 0.77780 0.23311 0.17298
 O534 O 0.73950 0.26704 0.16213
 O535 O 0.73636 0.27516 0.32917
 O536 O 0.76774 0.23284 0.33821
 O537 O 0.65747 0.23618 0.29044
 O538 O 0.65047 0.20132 0.24912
 O539 O 0.69544 0.31344 0.25078
 O540 O 0.73751 0.32259 0.21879
 Zr541 Zr 0.73581 0.28870 0.25225
 O542 O 0.76354 0.26277 0.22397
 Zr543 Zr 0.68222 0.23680 0.25041
 O544 O 0.70789 0.20821 0.22271
 Zr545 Zr 0.73427 0.23505 0.30436
 O546 O 0.76266 0.20712 0.27882
 Zr547 Zr 0.73731 0.23426 0.19681
 O548 O 0.70933 0.26337 0.22208
 Zr549 Zr 0.78973 0.23335 0.25027
 O550 O 0.76422 0.26154 0.27897
 Zr551 Zr 0.73634 0.18113 0.24950
 O552 O 0.70762 0.20688 0.27737
 O553 O 0.70710 0.26384 0.27926
 O554 O 0.76507 0.20555 0.22172
 C555 C 0.73737 0.30297 0.32118
 C556 C 0.66772 0.30551 0.24869
 C557 C 0.66538 0.23485 0.31820
 C558 C 0.73736 0.16569 0.18145
 C559 C 0.80537 0.23286 0.18161
 C560 C 0.80460 0.16481 0.25034
 H561 H 0.77620 0.27633 0.21176
 H562 H 0.77485 0.19449 0.29259
 H563 H 0.69432 0.27689 0.29196
 H564 H 0.69441 0.19610 0.20984
 H565 H 0.68802 0.25174 0.17096
 H566 H 0.65433 0.22662 0.20012
 H567 H 0.81774 0.22042 0.29992
 H568 H 0.78440 0.24592 0.33140
 H569 H 0.74902 0.28519 0.17065
 H570 H 0.72326 0.31650 0.20277
 H571 H 0.75041 0.15104 0.29781
 H572 H 0.71969 0.18453 0.32905
 H573 H 0.78635 0.31327 0.26649
 H574 H 0.81977 0.28147 0.23609
 H575 H 0.65671 0.18642 0.26456
 H576 H 0.68733 0.15301 0.23487
 C577 C 0.25958 0.08850 0.07492
 C578 C 0.23690 0.06688 0.07800
 C579 C 0.23316 0.04459 0.05642
 C580 C 0.25191 0.04326 0.03094
 C581 C 0.27413 0.06559 0.02744
 C582 C 0.27782 0.08804 0.04918
 C583 C 0.26400 0.11124 0.09878
 C584 C 0.26851 0.14161 0.09138
 C585 C 0.27037 0.16329 0.11397
 C586 C 0.26789 0.15501 0.14446
 C587 C 0.26443 0.12444 0.15186
 C588 C 0.26247 0.10280 0.12924
 H589 H 0.21529 0.02835 0.05963
 H590 H 0.28975 0.06485 0.00884
 H591 H 0.27317 0.18664 0.10746
 H592 H 0.26256 0.11727 0.17508
 H593 H 0.29565 0.10438 0.04640
 H594 H 0.26959 0.14873 0.06809
 H595 H 0.22198 0.06719 0.09720
 H596 H 0.25949 0.07942 0.13557
 C597 C 0.75928 0.59425 0.56997
 C598 C 0.73099 0.58458 0.55977
 C599 C 0.72888 0.56196 0.53812
 C600 C 0.75501 0.54847 0.52679
 C601 C 0.78330 0.55846 0.53654
 C602 C 0.78544 0.58157 0.55767
 C603 C 0.76150 0.61652 0.59438
 C604 C 0.77814 0.64300 0.59037
 C605 C 0.77972 0.66430 0.61336
 C606 C 0.76530 0.65909 0.64097
 C607 C 0.74930 0.63221 0.64522
 C608 C 0.74713 0.61123 0.62196
 H609 H 0.70690 0.55403 0.53117
 H610 H 0.80363 0.54778 0.52838
 H611 H 0.79223 0.68487 0.60957
 H612 H 0.73777 0.62782 0.66620
 H613 H 0.80744 0.58864 0.56542
 H614 H 0.78940 0.64741 0.56925
 H615 H 0.71059 0.59421 0.56897
 H616 H 0.73438 0.59078 0.62549
 C617 C 0.75332 0.92255 0.09744
 C618 C 0.77544 0.91949 0.07524
 C619 C 0.77552 0.93837 0.05015
 C620 C 0.75352 0.96108 0.04648
 C621 C 0.73194 0.96470 0.06944
 C622 C 0.73196 0.94574 0.09466
 C623 C 0.75162 0.90030 0.12228
 C624 C 0.74652 0.90931 0.15209
 C625 C 0.74544 0.88789 0.17528
 C626 C 0.74912 0.85706 0.16895
 C627 C 0.75378 0.84819 0.13899
 C628 C 0.75506 0.86952 0.11600
 H629 H 0.79320 0.93531 0.03374
 H630 H 0.71379 0.98084 0.06718
 H631 H 0.74180 0.89546 0.19810
 H632 H 0.75672 0.82469 0.13320
 H633 H 0.71438 0.94829 0.11127
 H634 H 0.74388 0.93294 0.15751
 H635 H 0.79260 0.90220 0.07716
 H636 H 0.75850 0.86188 0.09316
 C637 C 0.25568 0.42163 0.60062
 C638 C 0.27998 0.42205 0.58051
 C639 C 0.27944 0.44092 0.55534
 C640 C 0.25456 0.45969 0.54970
 C641 C 0.23062 0.45994 0.57025
 C642 C 0.23127 0.44122 0.59562
 C643 C 0.25493 0.39929 0.62545
 C644 C 0.24595 0.40753 0.65456
 C645 C 0.24505 0.38602 0.67767
 C646 C 0.25266 0.35581 0.67192
 C647 C 0.26143 0.34767 0.64269
 C648 C 0.26267 0.36917 0.61980
 H649 H 0.29821 0.44043 0.53986
 H650 H 0.21086 0.47364 0.56604
 H651 H 0.23822 0.39300 0.69994
 H652 H 0.26761 0.32466 0.63748
 H653 H 0.21210 0.44106 0.61058
 H654 H 0.23996 0.43066 0.65948
 H655 H 0.29922 0.40741 0.58404
 H656 H 0.26926 0.36211 0.59747
 C657 C 0.74693 0.07863 0.89777
 C658 C 0.72014 0.06370 0.90526
 C659 C 0.72069 0.03910 0.92491
 C660 C 0.74807 0.02861 0.93676
 C661 C 0.77501 0.04237 0.92797
 C662 C 0.77445 0.06732 0.90870
 C663 C 0.74597 0.10636 0.87924
 C664 C 0.76170 0.13238 0.88806
 C665 C 0.76098 0.15839 0.87011
 C666 C 0.74495 0.15846 0.84288
 C667 C 0.72875 0.13265 0.83450
 C668 C 0.72906 0.10696 0.85259
 H669 H 0.69965 0.02928 0.93221
 H670 H 0.79624 0.03504 0.93760
 H671 H 0.77387 0.17793 0.87684
 H672 H 0.71622 0.13217 0.81356
 H673 H 0.79540 0.07828 0.90294
 H674 H 0.77460 0.13250 0.90877
 H675 H 0.69865 0.07208 0.89720
 H676 H 0.71676 0.08723 0.84532
 C677 C 0.24635 0.57582 0.39820
 C678 C 0.21992 0.56012 0.40546
 C679 C 0.22088 0.53587 0.42557
 C680 C 0.24834 0.52645 0.43811
 C681 C 0.27496 0.54107 0.42969
 C682 C 0.27397 0.56566 0.40995
 C683 C 0.24490 0.60314 0.37899
 C684 C 0.25984 0.62977 0.38737
 C685 C 0.25871 0.65536 0.36880
 C686 C 0.24307 0.65442 0.34135
 C687 C 0.22768 0.62797 0.33338
 C688 C 0.22839 0.60271 0.35208
 H689 H 0.20003 0.52549 0.43263
 H690 H 0.29622 0.53464 0.43988
 H691 H 0.27097 0.67538 0.37527
 H692 H 0.21543 0.62667 0.31231
 H693 H 0.29467 0.57720 0.40443
 H694 H 0.27243 0.63073 0.40824
 H695 H 0.19834 0.56761 0.39681
 H696 H 0.21671 0.58251 0.34511
 C697 C 0.23933 0.89309 0.91313
 C698 C 0.25626 0.88892 0.93961
 C699 C 0.25819 0.91184 0.96116
 C700 C 0.24329 0.93958 0.95668
 C701 C 0.22533 0.94292 0.93059
 C702 C 0.22333 0.92009 0.90928
 C703 C 0.23894 0.86996 0.88903
 C704 C 0.24000 0.87864 0.85858
 C705 C 0.23910 0.85709 0.83576
 C706 C 0.23720 0.82629 0.84282
 C707 C 0.23644 0.81760 0.87332
 C708 C 0.23732 0.83918 0.89613
 H709 H 0.27335 0.90845 0.97984
 H710 H 0.21253 0.96337 0.92661
 H711 H 0.23990 0.86461 0.81258
 H712 H 0.23493 0.79408 0.87964
 H713 H 0.20933 0.92368 0.88960
 H714 H 0.24179 0.90217 0.85236
 H715 H 0.26917 0.86846 0.94305
 H716 H 0.23620 0.83179 0.91933
 C717 C 0.73708 0.39140 0.41700
 C718 C 0.76065 0.39269 0.43817
 C719 C 0.76180 0.41598 0.45933
 C720 C 0.73923 0.43819 0.45993
 C721 C 0.71487 0.43591 0.43982
 C722 C 0.71384 0.41284 0.41855
 C723 C 0.73738 0.36873 0.39246
 C724 C 0.73054 0.37730 0.36271
 C725 C 0.73101 0.35613 0.33947
 C726 C 0.73805 0.32582 0.34549
 C727 C 0.74496 0.31729 0.37527
 C728 C 0.74481 0.33854 0.39844
 H729 H 0.78120 0.41759 0.47402
 H730 H 0.69716 0.45274 0.43984
 H731 H 0.72547 0.36345 0.31685
 H732 H 0.75054 0.29414 0.38071
 H733 H 0.69513 0.41212 0.40289
 H734 H 0.72512 0.40052 0.35736
 H735 H 0.77897 0.37658 0.43737
 H736 H 0.75005 0.33126 0.42113
 C737 C 0.10147 0.24397 0.07848
 C738 C 0.09643 0.26723 0.05751
 C739 C 0.07124 0.26643 0.03849
 C740 C 0.05113 0.24213 0.03996
 C741 C 0.05681 0.21847 0.06017
 C742 C 0.08172 0.21936 0.07922
 C743 C 0.12600 0.24596 0.10096
 C744 C 0.11985 0.23982 0.13128
 C745 C 0.14267 0.24089 0.15278
 C746 C 0.17232 0.24795 0.14448
 C747 C 0.17851 0.25434 0.11411
 C748 C 0.15546 0.25357 0.09254
 H749 H 0.06700 0.28506 0.02325
 H750 H 0.04156 0.19952 0.06155
 H751 H 0.13707 0.23577 0.17592
 H752 H 0.20111 0.25993 0.10703
 H753 H 0.08535 0.20098 0.09493
 H754 H 0.09724 0.23430 0.13841
 H755 H 0.11125 0.28653 0.05669
 H756 H 0.16071 0.25832 0.06924
 C757 C 0.60033 0.75696 0.57481
 C758 C 0.59759 0.73315 0.55424
 C759 C 0.57211 0.73087 0.53583
 C760 C 0.54907 0.75253 0.53744
 C761 C 0.55232 0.77692 0.55717
 C762 C 0.57770 0.77914 0.57563
 C763 C 0.62544 0.75749 0.59690
 C764 C 0.61955 0.76407 0.62718
 C765 C 0.64260 0.76327 0.64854
 C766 C 0.67223 0.75601 0.64017
 C767 C 0.67827 0.74984 0.60977
 C768 C 0.65505 0.75041 0.58837
 H769 H 0.56981 0.71151 0.52128
 H770 H 0.53487 0.79393 0.55871
 H771 H 0.63710 0.76822 0.67171
 H772 H 0.70083 0.74412 0.60259
 H773 H 0.57939 0.79796 0.59098
 H774 H 0.59689 0.76913 0.63454
 H775 H 0.61447 0.71552 0.55339
 H776 H 0.66024 0.74538 0.56514
 C777 C 0.06988 0.73530 0.90694
 C778 C 0.04774 0.75794 0.90656
 C779 C 0.02675 0.76004 0.92981
 C780 C 0.02727 0.73940 0.95400
 C781 C 0.04886 0.71601 0.95344
 C782 C 0.06982 0.71401 0.93028
 C783 C 0.09379 0.73457 0.88382
 C784 C 0.12391 0.72934 0.89218
 C785 C 0.14665 0.72926 0.87058
 C786 C 0.13972 0.73425 0.84011
 C787 C 0.10953 0.73933 0.83177
 C788 C 0.08684 0.73958 0.85341
 H789 H 0.01157 0.77914 0.92973
 H790 H 0.04957 0.69902 0.97098
 H791 H 0.16964 0.72533 0.87777
 H792 H 0.10338 0.74335 0.80851
 H793 H 0.08619 0.69589 0.93076
 H794 H 0.12996 0.72584 0.91555
 H795 H 0.04754 0.77491 0.88900
 H796 H 0.06380 0.74346 0.84633
 C797 C 0.57104 0.24043 0.40698
 C798 C 0.55071 0.26480 0.40710
 C799 C 0.53010 0.26808 0.43058
 C800 C 0.52947 0.24688 0.45401
 C801 C 0.54880 0.22186 0.45312
 C802 C 0.56939 0.21865 0.42984
 C803 C 0.59498 0.23841 0.38408
 C804 C 0.62465 0.23139 0.39272
 C805 C 0.64752 0.22999 0.37135
 C806 C 0.64114 0.23541 0.34086
 C807 C 0.61135 0.24222 0.33223
 C808 C 0.58854 0.24383 0.35365
 H809 H 0.51556 0.28769 0.43112
 H810 H 0.54851 0.20524 0.47102
 H811 H 0.67020 0.22477 0.37875
 H812 H 0.60567 0.24667 0.30892
 H813 H 0.58444 0.19941 0.42998
 H814 H 0.63026 0.22750 0.41614
 H815 H 0.55167 0.28197 0.38978
 H816 H 0.56582 0.24910 0.34643
 C817 C 0.91479 0.76383 0.10644
 C818 C 0.93852 0.74286 0.10771
 C819 C 0.95982 0.74135 0.08459
 C820 C 0.95797 0.76081 0.05946
 C821 C 0.93503 0.78294 0.05938
 C822 C 0.91382 0.78436 0.08242
 C823 C 0.89038 0.76358 0.12928
 C824 C 0.86014 0.76723 0.12043
 C825 C 0.83704 0.76688 0.14172
 C826 C 0.84360 0.76300 0.17245
 C827 C 0.87387 0.75923 0.18126
 C828 C 0.89695 0.75941 0.15993
 H829 H 0.97605 0.72319 0.08542
 H830 H 0.93330 0.79932 0.04135
 H831 H 0.81405 0.76988 0.13410
 H832 H 0.87981 0.75620 0.20472
 H833 H 0.89636 0.80141 0.08124
 H834 H 0.85428 0.77002 0.09692
 H835 H 0.93973 0.72653 0.12582
 H836 H 0.92000 0.75673 0.16747
 C837 C 0.41864 0.25662 0.61065
 C838 C 0.41858 0.23290 0.58986
 C839 C 0.43973 0.23196 0.56681
 C840 C 0.46142 0.25470 0.56392
 C841 C 0.46260 0.27767 0.58551
 C842 C 0.44140 0.27856 0.60881
 C843 C 0.39419 0.25887 0.63324
 C844 C 0.40054 0.26613 0.66328
 C845 C 0.37743 0.26740 0.68452
 C846 C 0.34736 0.26175 0.67613
 C847 C 0.34099 0.25501 0.64593
 C848 C 0.36414 0.25349 0.62477
 H849 H 0.43851 0.21394 0.55048
 H850 H 0.47890 0.29563 0.58350
 H851 H 0.38316 0.27283 0.70756
 H852 H 0.31814 0.25064 0.63865
 H853 H 0.44193 0.29713 0.62452
 H854 H 0.42347 0.27026 0.67046
 H855 H 0.40176 0.21534 0.59109
 H856 H 0.35850 0.24830 0.60165
 C857 C 0.89613 0.24357 0.92923
 C858 C 0.89482 0.26159 0.95523
 C859 C 0.91644 0.25829 0.97810
 C860 C 0.93990 0.23719 0.97498
 C861 C 0.93920 0.21740 0.95027
 C862 C 0.91761 0.22050 0.92781
 C863 C 0.87618 0.24923 0.90299
 C864 C 0.88751 0.24716 0.87350
 C865 C 0.86845 0.25046 0.84861
 C866 C 0.83765 0.25594 0.85273
 C867 C 0.82662 0.25923 0.88225
 C868 C 0.84566 0.25593 0.90706
 H869 H 0.91643 0.27419 0.99651
 H870 H 0.95642 0.20027 0.94765
 H871 H 0.87766 0.24787 0.82625
 H872 H 0.80301 0.26365 0.88632
 H873 H 0.91842 0.20544 0.90871
 H874 H 0.91116 0.24268 0.86967
 H875 H 0.87829 0.27946 0.95701
 H876 H 0.83627 0.25760 0.92943
 C877 C 0.39424 0.74223 0.42551
 C878 C 0.39609 0.76475 0.44767
 C879 C 0.41744 0.76262 0.47083
 C880 C 0.43711 0.73787 0.47228
 C881 C 0.43377 0.71440 0.45144
 C882 C 0.41260 0.71657 0.42827
 C883 C 0.37416 0.74595 0.39898
 C884 C 0.38426 0.73848 0.36994
 C885 C 0.36511 0.74133 0.34500
 C886 C 0.33541 0.75148 0.34866
 C887 C 0.32562 0.75959 0.37763
 C888 C 0.34479 0.75696 0.40245
 H889 H 0.41998 0.78122 0.48631
 H890 H 0.44882 0.69515 0.45211
 H891 H 0.37327 0.73478 0.32304
 H892 H 0.30287 0.76757 0.38126
 H893 H 0.41120 0.69856 0.41196
 H894 H 0.40701 0.73039 0.36654
 H895 H 0.38223 0.78480 0.44610
 H896 H 0.33635 0.76280 0.42449
 C897 C 0.10655 0.08362 0.23990
 C898 C 0.08222 0.08500 0.21977
 C899 C 0.05900 0.06396 0.22133
 C900 C 0.05921 0.04078 0.24320
 C901 C 0.08458 0.03856 0.26230
 C902 C 0.10789 0.05970 0.26065
 C903 C 0.12975 0.10773 0.23988
 C904 C 0.16038 0.10069 0.24344
 C905 C 0.18207 0.12348 0.24329
 C906 C 0.17364 0.15391 0.23977
 C907 C 0.14294 0.16094 0.23648
 C908 C 0.12128 0.13813 0.23648
 H909 H 0.04079 0.06596 0.20519
 H910 H 0.08557 0.02202 0.28019
 H911 H 0.20550 0.11718 0.24586
 H912 H 0.13561 0.18408 0.23370
 H913 H 0.12625 0.05816 0.27667
 H914 H 0.16763 0.07750 0.24589
 H915 H 0.08099 0.10261 0.20289
 H916 H 0.09780 0.14434 0.23414
 C917 C 0.60556 0.58918 0.73429
 C918 C 0.58368 0.58779 0.71145
 C919 C 0.56108 0.56597 0.71239
 C920 C 0.55977 0.54515 0.73623
 C921 C 0.58214 0.54597 0.75860
 C922 C 0.60492 0.56763 0.75754
 C923 C 0.62841 0.61355 0.73442
 C924 C 0.65854 0.60709 0.74154
 C925 C 0.68005 0.62997 0.74187
 C926 C 0.67192 0.65999 0.73534
 C927 C 0.64169 0.66652 0.72850
 C928 C 0.62019 0.64351 0.72791
 H929 H 0.54401 0.56588 0.69492
 H930 H 0.58114 0.53094 0.77776
 H931 H 0.70312 0.62407 0.74724
 H932 H 0.63469 0.68934 0.72325
 H933 H 0.62126 0.56836 0.77564
 H934 H 0.66558 0.58421 0.74645
 H935 H 0.58387 0.60382 0.69304
 H936 H 0.59704 0.64921 0.72272
 C937 C 0.92506 0.10583 0.74835
 C938 C 0.92671 0.08668 0.72346
 C939 C 0.94983 0.06558 0.72114
 C940 C 0.97206 0.06270 0.74376
 C941 C 0.97186 0.08372 0.76745
 C942 C 0.94848 0.10496 0.76977
 C943 C 0.89859 0.12610 0.75192
 C944 C 0.90237 0.15586 0.76158
 C945 C 0.87770 0.17533 0.76335
 C946 C 0.84851 0.16554 0.75562
 C947 C 0.84453 0.13546 0.74690
 C948 C 0.86933 0.11598 0.74498
 H949 H 0.94985 0.05084 0.70176
 H950 H 0.98804 0.08217 0.78564
 H951 H 0.88165 0.19830 0.77045
 H952 H 0.82241 0.12718 0.74091
 H953 H 0.94789 0.11959 0.78919
 H954 H 0.92454 0.16438 0.76697
 H955 H 0.90973 0.08761 0.70594
 H956 H 0.86562 0.09295 0.73797
 C957 C 0.42290 0.60320 0.24573
 C958 C 0.42822 0.58746 0.21895
 C959 C 0.45215 0.56716 0.21701
 C960 C 0.47112 0.56201 0.24186
 C961 C 0.46704 0.57908 0.26803
 C962 C 0.44316 0.59963 0.26991
 C963 C 0.39588 0.62267 0.24857
 C964 C 0.39825 0.65123 0.26165
 C965 C 0.37316 0.67008 0.26330
 C966 C 0.34499 0.66075 0.25214
 C967 C 0.34229 0.63177 0.23997
 C968 C 0.36759 0.61295 0.23802
 H969 H 0.45487 0.55413 0.19664
 H970 H 0.48104 0.57507 0.28763
 H971 H 0.37593 0.69221 0.27309
 H972 H 0.32091 0.62403 0.23121
 H973 H 0.43958 0.61152 0.29082
 H974 H 0.41971 0.65932 0.26989
 H975 H 0.41339 0.59029 0.19976
 H976 H 0.36508 0.59079 0.22824
 C977 C 0.07891 0.90259 0.74730
 C978 C 0.06647 0.91413 0.72058
 C979 C 0.04747 0.93925 0.72131
 C980 C 0.04121 0.95354 0.74869
 C981 C 0.05357 0.94198 0.77543
 C982 C 0.07199 0.91639 0.77478
 C983 C 0.10033 0.87717 0.74632
 C984 C 0.09431 0.85024 0.76174
 C985 C 0.11509 0.82649 0.76118
 C986 C 0.14251 0.82971 0.74586
 C987 C 0.14846 0.85673 0.73051
 C988 C 0.12736 0.88012 0.73043
 H989 H 0.03823 0.94804 0.70047
 H990 H 0.04898 0.95283 0.79671
 H991 H 0.11012 0.80594 0.77338
 H992 H 0.16941 0.85971 0.71850
 H993 H 0.08159 0.90788 0.79558
 H994 H 0.07353 0.84763 0.77412
 H995 H 0.07163 0.90377 0.69919
 H996 H 0.13240 0.90082 0.71852
 C997 C 0.57873 0.40088 0.24985
 C998 C 0.55890 0.40544 0.22556
 C999 C 0.53973 0.43049 0.22497
 C1000 C 0.53981 0.45115 0.24884
 C1001 C 0.55884 0.44592 0.27359
 C1002 C 0.57813 0.42108 0.27408
 C1003 C 0.60123 0.37621 0.24929
 C1004 C 0.63125 0.38212 0.25714
 C1005 C 0.65278 0.35922 0.25657
 C1006 C 0.64477 0.32976 0.24834
 C1007 C 0.61468 0.32381 0.24046
 C1008 C 0.59314 0.34689 0.24073
 H1009 H 0.52558 0.43429 0.20543
 H1010 H 0.55911 0.46141 0.29236
 H1011 H 0.67570 0.36460 0.26291
 H1012 H 0.60779 0.30135 0.23402
 H1013 H 0.59289 0.41783 0.29326
 H1014 H 0.63817 0.40462 0.26343
 H1015 H 0.55913 0.39033 0.20649
 H1016 H 0.57010 0.34177 0.23468
 C1017 C 0.90699 0.92849 0.26901
 C1018 C 0.90623 0.95120 0.24697
 C1019 C 0.92933 0.97239 0.24512
 C1020 C 0.95378 0.97151 0.26541
 C1021 C 0.95354 0.94943 0.28836
 C1022 C 0.93051 0.92823 0.29008
 C1023 C 0.88404 0.90438 0.26919
 C1024 C 0.89257 0.87410 0.27327
 C1025 C 0.87107 0.85120 0.27229
 C1026 C 0.84058 0.85817 0.26737
 C1027 C 0.83211 0.88855 0.26361
 C1028 C 0.85360 0.91136 0.26444
 H1029 H 0.92902 0.98781 0.22625
 H1030 H 0.97129 0.94842 0.30509
 H1031 H 0.87835 0.82808 0.27525
 H1032 H 0.80883 0.89480 0.25978
 H1033 H 0.93127 0.91139 0.30774
 H1034 H 0.91598 0.86807 0.27659
 H1035 H 0.88854 0.95165 0.23015
 H1036 H 0.84639 0.93451 0.26149
 C1037 C 0.40793 0.42995 0.76494
 C1038 C 0.40754 0.44988 0.74029
 C1039 C 0.43020 0.47134 0.73689
 C1040 C 0.45338 0.47345 0.75827
 C1041 C 0.45304 0.45439 0.78354
 C1042 C 0.43057 0.43276 0.78681
 C1043 C 0.38547 0.40555 0.76711
 C1044 C 0.39444 0.37592 0.77404
 C1045 C 0.37335 0.35260 0.77462
 C1046 C 0.34287 0.35860 0.76854
 C1047 C 0.33395 0.38841 0.76210
 C1048 C 0.35503 0.41157 0.76128
 H1049 H 0.43041 0.48526 0.71685
 H1050 H 0.47076 0.45565 0.80029
 H1051 H 0.38093 0.32992 0.77965
 H1052 H 0.31067 0.39389 0.75724
 H1053 H 0.43112 0.41793 0.80619
 H1054 H 0.41789 0.37067 0.77831
 H1055 H 0.39047 0.44795 0.72296
 H1056 H 0.34753 0.43425 0.75610
 C1057 C 0.09377 0.25267 0.92917
 C1058 C 0.09698 0.23349 0.95424
 C1059 C 0.07390 0.23114 0.97549
 C1060 C 0.04717 0.24794 0.97193
 C1061 C 0.04490 0.26807 0.94742
 C1062 C 0.06785 0.27046 0.92647
 C1063 C 0.11680 0.25382 0.90527
 C1064 C 0.10805 0.25496 0.87485
 C1065 C 0.12955 0.25724 0.85218
 C1066 C 0.16028 0.25838 0.85947
 C1067 C 0.16901 0.25680 0.88993
 C1068 C 0.14749 0.25451 0.91258
 H1069 H 0.07625 0.21473 0.99340
 H1070 H 0.02513 0.28214 0.94440
 H1071 H 0.12207 0.25809 0.82898
 H1072 H 0.19252 0.25747 0.89638
 H1073 H 0.06517 0.28612 0.90791
 H1074 H 0.08451 0.25394 0.86856
 H1075 H 0.11676 0.21938 0.95672
 H1076 H 0.15482 0.25390 0.93583
 C1077 C 0.59150 0.75149 0.42636
 C1078 C 0.57895 0.77732 0.43948
 C1079 C 0.55681 0.77459 0.46153
 C1080 C 0.54668 0.74603 0.47033
 C1081 C 0.55947 0.72020 0.45756
 C1082 C 0.58208 0.72290 0.43600
 C1083 C 0.61383 0.75428 0.40208
 C1084 C 0.64161 0.73947 0.40450
 C1085 C 0.66281 0.74207 0.38160
 C1086 C 0.65633 0.75902 0.35558
 C1087 C 0.62828 0.77340 0.35289
 C1088 C 0.60729 0.77134 0.37618
 H1089 H 0.54670 0.79471 0.47088
 H1090 H 0.55142 0.69804 0.46379
 H1091 H 0.68422 0.73055 0.38410
 H1092 H 0.62284 0.78662 0.33308
 H1093 H 0.59143 0.70273 0.42601
 H1094 H 0.64702 0.72619 0.42429
 H1095 H 0.58606 0.79955 0.43240
 H1096 H 0.58581 0.78272 0.37385
 C1097 C 0.92319 0.75769 0.89848
 C1098 C 0.92534 0.78277 0.91755
 C1099 C 0.94418 0.78202 0.94274
 C1100 C 0.96120 0.75614 0.94948
 C1101 C 0.95966 0.73130 0.93002
 C1102 C 0.94099 0.73216 0.90461
 C1103 C 0.90102 0.75755 0.87347
 C1104 C 0.90876 0.74663 0.84488
 C1105 C 0.88735 0.74597 0.82169
 C1106 C 0.85768 0.75578 0.82683
 C1107 C 0.85008 0.76676 0.85544
 C1108 C 0.87152 0.76775 0.87842
 H1109 H 0.94511 0.80149 0.95732
 H1110 H 0.97222 0.71093 0.93497
 H1111 H 0.89388 0.73739 0.79990
 H1112 H 0.82750 0.77467 0.86013
 H1113 H 0.93951 0.71242 0.89045
 H1114 H 0.93140 0.73877 0.84046
 H1115 H 0.91213 0.80286 0.91314
 H1116 H 0.86484 0.77597 0.90032
 C1117 C 0.42342 0.25518 0.40222
 C1118 C 0.42273 0.27904 0.42286
 C1119 C 0.44169 0.27890 0.44788
 C1120 C 0.46179 0.25496 0.45280
 C1121 C 0.46323 0.23146 0.43178
 C1122 C 0.44427 0.23165 0.40656
 C1123 C 0.40111 0.25413 0.37741
 C1124 C 0.40957 0.24602 0.34812
 C1125 C 0.38812 0.24511 0.32499
 C1126 C 0.35777 0.25194 0.33087
 C1127 C 0.34944 0.25995 0.36025
 C1128 C 0.37084 0.26108 0.38318
 H1129 H 0.44037 0.29732 0.46376
 H1130 H 0.47832 0.21258 0.43537
 H1131 H 0.39525 0.23884 0.30260
 H1132 H 0.32631 0.26545 0.36559
 H1133 H 0.44506 0.21286 0.39112
 H1134 H 0.43281 0.24071 0.34307
 H1135 H 0.40719 0.29767 0.41982
 H1136 H 0.36360 0.26700 0.40564
 C1137 C 0.07439 0.74647 0.10251
 C1138 C 0.06128 0.77360 0.09260
 C1139 C 0.03674 0.77326 0.07275
 C1140 C 0.02527 0.74581 0.06224
 C1141 C 0.03771 0.71872 0.07294
 C1142 C 0.06179 0.71903 0.09321
 C1143 C 0.10147 0.74653 0.12205
 C1144 C 0.10216 0.72863 0.14805
 C1145 C 0.12735 0.72868 0.16682
 C1146 C 0.15267 0.74623 0.15978
 C1147 C 0.15249 0.76351 0.13330
 C1148 C 0.12689 0.76390 0.11470
 H1149 H 0.02796 0.79437 0.06407
 H1150 H 0.02969 0.69736 0.06442
 H1151 H 0.12695 0.71513 0.18713
 H1152 H 0.17163 0.77743 0.12759
 H1153 H 0.07156 0.69783 0.10046
 H1154 H 0.08290 0.71507 0.15420
 H1155 H 0.07045 0.79501 0.09971
 H1156 H 0.12694 0.77765 0.09453
 C1157 C 0.57908 0.25696 0.60389
 C1158 C 0.57415 0.28259 0.58595
 C1159 C 0.55004 0.28359 0.56579
 C1160 C 0.53037 0.25905 0.56319
 C1161 C 0.53412 0.23412 0.58223
 C1162 C 0.55828 0.23310 0.60251
 C1163 C 0.60603 0.25500 0.62364
 C1164 C 0.60343 0.24314 0.65272
 C1165 C 0.62830 0.24212 0.67183
 C1166 C 0.65654 0.25292 0.66243
 C1167 C 0.65952 0.26398 0.63301
 C1168 C 0.63441 0.26513 0.61380
 H1169 H 0.54769 0.30284 0.55091
 H1170 H 0.51960 0.21469 0.58000
 H1171 H 0.62521 0.23320 0.69431
 H1172 H 0.68094 0.27248 0.62519
 H1173 H 0.56155 0.21299 0.61600
 H1174 H 0.58194 0.23534 0.66104
 H1175 H 0.58938 0.30156 0.58698
 H1176 H 0.63716 0.27398 0.59126
 C1177 C 0.89484 0.23779 0.08730
 C1178 C 0.89671 0.21616 0.06429
 C1179 C 0.91951 0.21784 0.04265
 C1180 C 0.94055 0.24136 0.04354
 C1181 C 0.93784 0.26360 0.06576
 C1182 C 0.91528 0.26183 0.08740
 C1183 C 0.87216 0.23517 0.11159
 C1184 C 0.88031 0.24054 0.14171
 C1185 C 0.85883 0.23918 0.16457
 C1186 C 0.82866 0.23266 0.15779
 C1187 C 0.82066 0.22675 0.12770
 C1188 C 0.84219 0.22786 0.10490
 H1189 H 0.92145 0.20020 0.02601
 H1190 H 0.95379 0.28197 0.06680
 H1191 H 0.86577 0.24378 0.18747
 H1192 H 0.79764 0.22146 0.12168
 H1193 H 0.91402 0.27913 0.10446
 H1194 H 0.90338 0.24579 0.14758
 H1195 H 0.88129 0.19733 0.06375
 H1196 H 0.83526 0.22374 0.08191
 C1197 C 0.39157 0.74090 0.58422
 C1198 C 0.39441 0.71889 0.56169
 C1199 C 0.41743 0.72084 0.54029
 C1200 C 0.43779 0.74498 0.54090
 C1201 C 0.43389 0.76772 0.56245
 C1202 C 0.41113 0.76567 0.58390
 C1203 C 0.36900 0.73774 0.60862
 C1204 C 0.37701 0.74373 0.63865
 C1205 C 0.35571 0.74158 0.66165
 C1206 C 0.32581 0.73367 0.65510
 C1207 C 0.31795 0.72719 0.62509
 C1208 C 0.33934 0.72905 0.60215
 H1209 H 0.42020 0.70278 0.52422
 H1210 H 0.44915 0.78669 0.56327
 H1211 H 0.36253 0.74670 0.68447
 H1212 H 0.29515 0.72087 0.61925
 H1213 H 0.40909 0.78329 0.60057
 H1214 H 0.39984 0.75004 0.64437
 H1215 H 0.37969 0.69950 0.56145
 H1216 H 0.33251 0.72438 0.57924
 C1217 C 0.25439 0.09879 0.92466
 C1218 C 0.23599 0.09790 0.95028
 C1219 C 0.23612 0.07255 0.96920
 C1220 C 0.25482 0.04761 0.96292
 C1221 C 0.27416 0.04946 0.93793
 C1222 C 0.27402 0.07465 0.91923
 C1223 C 0.25219 0.12372 0.90244
 C1224 C 0.25091 0.15400 0.91147
 C1225 C 0.25018 0.17717 0.88995
 C1226 C 0.25050 0.17042 0.85903
 C1227 C 0.25101 0.14005 0.85020
 C1228 C 0.25184 0.11707 0.87159
 H1229 H 0.22028 0.07182 0.98762
 H1230 H 0.28958 0.03125 0.93277
 H1231 H 0.24962 0.20032 0.89754
 H1232 H 0.25100 0.13390 0.82665
 H1233 H 0.28905 0.07505 0.90011
 H1234 H 0.25117 0.15975 0.93512
 H1235 H 0.22047 0.11616 0.95487
 H1236 H 0.25217 0.09393 0.86394
 C1237 C 0.74153 0.60031 0.42150
 C1238 C 0.76622 0.59563 0.44080
 C1239 C 0.76724 0.57046 0.45978
 C1240 C 0.74338 0.54979 0.46011
 C1241 C 0.71825 0.55505 0.44158
 C1242 C 0.71734 0.58003 0.42244
 C1243 C 0.74183 0.62507 0.39906
 C1244 C 0.73360 0.61934 0.36911
 C1245 C 0.73493 0.64212 0.34747
 C1246 C 0.74432 0.67128 0.35532
 C1247 C 0.75216 0.67716 0.38541
 C1248 C 0.75114 0.65419 0.40703
 H1249 H 0.78720 0.56649 0.47324
 H1250 H 0.69958 0.53942 0.44150
 H1251 H 0.72854 0.63686 0.32456
 H1252 H 0.75944 0.69939 0.39218
 H1253 H 0.69789 0.58329 0.40802
 H1254 H 0.72669 0.59700 0.36227
 H1255 H 0.78534 0.61069 0.44022
 H1256 H 0.75745 0.65921 0.43002
 C1257 C 0.73866 0.07148 0.09205
 C1258 C 0.71461 0.06882 0.07169
 C1259 C 0.71555 0.04739 0.04885
 C1260 C 0.74063 0.02833 0.04580
 C1261 C 0.76430 0.03033 0.06669
 C1262 C 0.76322 0.05160 0.08978
 C1263 C 0.73852 0.09564 0.11489
 C1264 C 0.74653 0.08934 0.14479
 C1265 C 0.74614 0.11214 0.16634
 C1266 C 0.73806 0.14180 0.15835
 C1267 C 0.73047 0.14816 0.12830
 C1268 C 0.73053 0.12526 0.10682
 H1269 H 0.69704 0.04620 0.03298
 H1270 H 0.78409 0.01622 0.06444
 H1271 H 0.75228 0.10651 0.18928
 H1272 H 0.72418 0.17076 0.12145
 H1273 H 0.78212 0.05335 0.10512
 H1274 H 0.75267 0.06668 0.15158
 H1275 H 0.69524 0.08360 0.07325
 H1276 H 0.72462 0.13074 0.08378
 C1277 C 0.24000 0.57004 0.59286
 C1278 C 0.21358 0.55887 0.57967
 C1279 C 0.21526 0.53749 0.55677
 C1280 C 0.24329 0.52643 0.54751
 C1281 C 0.26963 0.53664 0.56154
 C1282 C 0.26801 0.55854 0.58394
 C1283 C 0.23836 0.59461 0.61495
 C1284 C 0.25358 0.62179 0.60970
 C1285 C 0.25162 0.64533 0.63039
 C1286 C 0.23498 0.64170 0.65691
 C1287 C 0.21985 0.61443 0.66213
 C1288 C 0.22123 0.59120 0.64112
 H1289 H 0.19481 0.53014 0.54571
 H1290 H 0.29143 0.52863 0.55418
 H1291 H 0.26367 0.66606 0.62603
 H1292 H 0.20683 0.61116 0.68242
 H1293 H 0.28859 0.56689 0.59399
 H1294 H 0.26673 0.62483 0.58946
 H1295 H 0.19180 0.56763 0.58620
 H1296 H 0.20933 0.57038 0.64547
 C1297 C 0.76689 0.91916 0.88896
 C1298 C 0.78939 0.92104 0.91113
 C1299 C 0.78701 0.94193 0.93446
 C1300 C 0.76198 0.96127 0.93629
 C1301 C 0.74012 0.96031 0.91341
 C1302 C 0.74264 0.93958 0.88987
 C1303 C 0.76785 0.89489 0.86601
 C1304 C 0.76089 0.90104 0.83578
 C1305 C 0.76106 0.87795 0.81443
 C1306 C 0.76780 0.84808 0.82290
 C1307 C 0.77476 0.84196 0.85318
 C1308 C 0.77493 0.86512 0.87444
 H1309 H 0.80421 0.94224 0.95178
 H1310 H 0.72022 0.97437 0.91461
 H1311 H 0.75556 0.88347 0.79131
 H1312 H 0.78018 0.81926 0.86045
 H1313 H 0.72483 0.93847 0.87323
 H1314 H 0.75551 0.92377 0.82861
 H1315 H 0.80856 0.90592 0.91075
 H1316 H 0.78004 0.85964 0.89766
 C1317 C 0.26489 0.41555 0.39189
 C1318 C 0.28764 0.41784 0.41376
 C1319 C 0.28553 0.43917 0.43667
 C1320 C 0.26056 0.45859 0.43835
 C1321 C 0.23844 0.45724 0.41577
 C1322 C 0.24067 0.43602 0.39264
 C1323 C 0.26569 0.39093 0.36936
 C1324 C 0.25855 0.39666 0.33911
 C1325 C 0.25889 0.37334 0.31805
 C1326 C 0.26603 0.34364 0.32683
 C1327 C 0.27307 0.33790 0.35715
 C1328 C 0.27304 0.36132 0.37814
 H1329 H 0.30290 0.43979 0.45382
 H1330 H 0.21860 0.47138 0.41693
 H1331 H 0.25330 0.37857 0.29489
 H1332 H 0.27878 0.31535 0.36463
 H1333 H 0.22268 0.43461 0.37621
 H1334 H 0.25297 0.41926 0.33168
 H1335 H 0.30679 0.40269 0.41346
 H1336 H 0.27830 0.35618 0.40141
 C1337 C 0.24547 0.89400 0.07419
 C1338 C 0.27270 0.90219 0.06056
 C1339 C 0.27295 0.92296 0.03694
 C1340 C 0.24593 0.93507 0.02573
 C1341 C 0.21857 0.92598 0.03850
 C1342 C 0.21834 0.90565 0.06266
 C1343 C 0.24579 0.87415 0.10100
 C1344 C 0.23080 0.88249 0.12754
 C1345 C 0.23216 0.86396 0.15313
 C1346 C 0.24801 0.83658 0.15227
 C1347 C 0.26301 0.82843 0.12570
 C1348 C 0.26213 0.84712 0.10046
 H1349 H 0.29433 0.93076 0.02831
 H1350 H 0.19761 0.93605 0.03098
 H1351 H 0.22023 0.87061 0.17324
 H1352 H 0.27545 0.80745 0.12442
 H1353 H 0.19708 0.89957 0.07281
 H1354 H 0.21834 0.90347 0.12853
 H1355 H 0.29392 0.89376 0.06927
 H1356 H 0.27388 0.84025 0.08030
 C1357 C 0.75053 0.39936 0.57775
 C1358 C 0.77734 0.40682 0.56282
 C1359 C 0.77690 0.42669 0.53839
 C1360 C 0.74961 0.43884 0.52802
 C1361 C 0.72265 0.43026 0.54190
 C1362 C 0.72310 0.41074 0.56667
 C1363 C 0.75142 0.38030 0.60517
 C1364 C 0.73563 0.38859 0.63129
 C1365 C 0.73666 0.37032 0.65710
 C1366 C 0.75306 0.34326 0.65687
 C1367 C 0.76913 0.33533 0.63087
 C1368 C 0.76849 0.35371 0.60541
 H1369 H 0.79798 0.43389 0.52859
 H1370 H 0.70148 0.44016 0.53473
 H1371 H 0.72390 0.37678 0.67677
 H1372 H 0.78203 0.31460 0.63010
 H1373 H 0.70213 0.40508 0.57761
 H1374 H 0.72258 0.40923 0.63173
 H1375 H 0.79879 0.39849 0.57103
 H1376 H 0.78080 0.34679 0.58562
 C1377 C 0.08399 0.10922 0.76373
 C1378 C 0.06377 0.10851 0.73929
 C1379 C 0.04186 0.08597 0.73730
 C1380 C 0.03955 0.06390 0.75987
 C1381 C 0.05864 0.06568 0.78510
 C1382 C 0.08068 0.08799 0.78695
 C1383 C 0.10908 0.13131 0.76452
 C1384 C 0.13838 0.12227 0.77281
 C1385 C 0.16212 0.14301 0.77305
 C1386 C 0.15697 0.17331 0.76532
 C1387 C 0.12760 0.18226 0.75712
 C1388 C 0.10403 0.16151 0.75658
 H1389 H 0.02784 0.08481 0.71737
 H1390 H 0.05728 0.04896 0.80284
 H1391 H 0.18439 0.13539 0.77954
 H1392 H 0.12276 0.20540 0.75095
 H1393 H 0.09553 0.08832 0.80631
 H1394 H 0.14302 0.09902 0.77871
 H1395 H 0.06586 0.12452 0.72099
 H1396 H 0.08171 0.16919 0.75029
 C1397 C 0.58151 0.60924 0.26007
 C1398 C 0.56095 0.60853 0.23592
 C1399 C 0.53988 0.58523 0.23360
 C1400 C 0.53887 0.56241 0.25551
 C1401 C 0.55824 0.56415 0.28049
 C1402 C 0.57937 0.58724 0.28271
 C1403 C 0.60604 0.63188 0.26098
 C1404 C 0.63561 0.62315 0.26849
 C1405 C 0.65892 0.64427 0.26884
 C1406 C 0.65312 0.67465 0.26195
 C1407 C 0.62348 0.68335 0.25457
 C1408 C 0.60026 0.66218 0.25393
 H1409 H 0.52553 0.58414 0.21390
 H1410 H 0.55777 0.54690 0.29777
 H1411 H 0.68143 0.63683 0.27470
 H1412 H 0.61819 0.70656 0.24907
 H1413 H 0.59450 0.58755 0.30186
 H1414 H 0.64080 0.59985 0.27366
 H1415 H 0.56217 0.62513 0.21807
 H1416 H 0.57769 0.66957 0.24825
 C1417 C 0.10210 0.92410 0.25200
 C1418 C 0.09667 0.94348 0.22746
 C1419 C 0.07675 0.96780 0.23023
 C1420 C 0.06219 0.97320 0.25764
 C1421 C 0.06944 0.95521 0.28272
 C1422 C 0.08909 0.93082 0.27990
 C1423 C 0.12072 0.89657 0.24847
 C1424 C 0.11150 0.86887 0.26094
 C1425 C 0.12987 0.84325 0.25882
 C1426 C 0.15791 0.84508 0.24458
 C1427 C 0.16654 0.87253 0.23126
 C1428 C 0.14810 0.89792 0.23305
 H1429 H 0.07110 0.98104 0.21049
 H1430 H 0.05835 0.95895 0.30405
 H1431 H 0.12275 0.82244 0.26936
 H1432 H 0.18801 0.87459 0.22000
 H1433 H 0.09347 0.91668 0.29934
 H1434 H 0.09020 0.86715 0.27256
 H1435 H 0.10650 0.93884 0.20571
 H1436 H 0.15577 0.91890 0.22327
 C1437 C 0.60376 0.42852 0.74691
 C1438 C 0.59152 0.43878 0.71954
 C1439 C 0.57117 0.46291 0.71909
 C1440 C 0.56263 0.47691 0.74599
 C1441 C 0.57566 0.46738 0.77317
 C1442 C 0.59635 0.44365 0.77360
 C1443 C 0.62357 0.40164 0.74798
 C1444 C 0.65038 0.40251 0.76460
 C1445 C 0.66919 0.37739 0.76593
 C1446 C 0.66150 0.35061 0.75097
 C1447 C 0.63432 0.34934 0.73487
 C1448 C 0.61559 0.37481 0.73316
 H1449 H 0.56058 0.46935 0.69804
 H1450 H 0.56845 0.47717 0.79425
 H1451 H 0.68999 0.37899 0.77860
 H1452 H 0.62802 0.32905 0.72297
 H1453 H 0.60530 0.43604 0.79501
 H1454 H 0.65706 0.42287 0.77618
 H1455 H 0.59710 0.42763 0.69866
 H1456 H 0.59478 0.37352 0.72048
 C1457 C 0.89868 0.07530 0.25034
 C1458 C 0.91353 0.06918 0.22325
 C1459 C 0.93908 0.05074 0.22309
 C1460 C 0.94955 0.03752 0.24990
 C1461 C 0.93409 0.04286 0.27682
 C1462 C 0.90899 0.06188 0.27709
 C1463 C 0.87392 0.09743 0.25104
 C1464 C 0.87728 0.12399 0.26767
 C1465 C 0.85470 0.14590 0.26732
 C1466 C 0.82806 0.14128 0.25091
 C1467 C 0.82440 0.11437 0.23478
 C1468 C 0.84740 0.09275 0.23450
 H1469 H 0.95088 0.04695 0.20217
 H1470 H 0.94208 0.03309 0.29774
 H1471 H 0.85797 0.16641 0.28004
 H1472 H 0.80410 0.11042 0.22183
 H1473 H 0.89783 0.06651 0.29820
 H1474 H 0.89770 0.12801 0.28040
 H1475 H 0.90601 0.07960 0.20246
 H1476 H 0.84452 0.07237 0.22149
 C1477 C 0.39703 0.57599 0.74714
 C1478 C 0.41070 0.56921 0.71957
 C1479 C 0.43679 0.55155 0.71883
 C1480 C 0.44902 0.53983 0.74556
 C1481 C 0.43473 0.54562 0.77299
 C1482 C 0.40905 0.56386 0.77382
 C1483 C 0.37186 0.59772 0.74828
 C1484 C 0.37495 0.62419 0.76510
 C1485 C 0.35218 0.64590 0.76488
 C1486 C 0.32560 0.64121 0.74840
 C1487 C 0.32213 0.61434 0.73215
 C1488 C 0.34533 0.59291 0.73174
 H1489 H 0.44771 0.54734 0.69751
 H1490 H 0.44406 0.53687 0.79381
 H1491 H 0.35530 0.66637 0.77770
 H1492 H 0.30188 0.61033 0.71916
 H1493 H 0.39882 0.56894 0.79529
 H1494 H 0.39535 0.62838 0.77780
 H1495 H 0.40190 0.57861 0.69881
 H1496 H 0.34263 0.57261 0.71857
 C1497 C 0.93304 0.90645 0.73101
 C1498 C 0.93573 0.92735 0.70741
 C1499 C 0.95671 0.95061 0.70917
 C1500 C 0.97524 0.95350 0.73465
 C1501 C 0.97356 0.93178 0.75759
 C1502 C 0.95276 0.90833 0.75571
 C1503 C 0.90854 0.88397 0.73082
 C1504 C 0.91419 0.85403 0.73935
 C1505 C 0.89083 0.83310 0.74002
 C1506 C 0.86125 0.84175 0.73245
 C1507 C 0.85559 0.87177 0.72406
 C1508 C 0.87904 0.89264 0.72312
 H1509 H 0.95764 0.96713 0.69122
 H1510 H 0.98708 0.93392 0.77777
 H1511 H 0.89595 0.81015 0.74667
 H1512 H 0.83308 0.87911 0.71805
 H1513 H 0.95096 0.89265 0.77432
 H1514 H 0.93674 0.84679 0.74531
 H1515 H 0.92107 0.92610 0.68794
 H1516 H 0.87403 0.91573 0.71689
 C1517 C 0.43038 0.40487 0.23537
 C1518 C 0.43242 0.42521 0.21124
 C1519 C 0.45346 0.44843 0.21187
 C1520 C 0.47275 0.45182 0.23670
 C1521 C 0.47164 0.43074 0.26026
 C1522 C 0.45072 0.40732 0.25952
 C1523 C 0.40614 0.38213 0.23598
 C1524 C 0.41233 0.35232 0.24455
 C1525 C 0.38935 0.33096 0.24515
 C1526 C 0.35965 0.33908 0.23746
 C1527 C 0.35342 0.36903 0.22926
 C1528 C 0.37648 0.39032 0.22839
 H1529 H 0.45401 0.46444 0.19345
 H1530 H 0.48594 0.43325 0.27986
 H1531 H 0.39488 0.30808 0.25172
 H1532 H 0.33080 0.37597 0.22321
 H1533 H 0.44945 0.39200 0.27848
 H1534 H 0.43502 0.34545 0.25041
 H1535 H 0.41732 0.42348 0.19215
 H1536 H 0.37107 0.41331 0.22212
   
