data_POSCAR
  _audit_creation_date              2014-09-24
  _audit_creation_method            'ToBaCCo'
  _symmetry_space_group_name_H-M    'P1'
  _symmetry_Int_Tables_number       1
  _symmetry_cell_setting            triclinic
  loop_
  _symmetry_equiv_pos_as_xyz
 x,y,z
_cell_length_a 62.7970
_cell_length_b 63.0055
_cell_length_c 62.8674
_cell_angle_alpha 89.999200
_cell_angle_beta 90.007100
_cell_angle_gamma 89.995000
loop_
  _atom_site_label
  _atom_site_type_symbol
  _atom_site_fract_x
  _atom_site_fract_y
  _atom_site_fract_z
C1 C 0.36059 0.27341 -0.00790
 C2 C 0.36147 0.27430 0.01385
 C3 C 0.35583 0.29477 0.01949
 N4 N 0.35159 0.30648 0.00195
 C5 C 0.35484 0.29353 -0.01490
 C6 C 0.35611 0.30285 0.04040
 C7 C 0.34478 0.32134 0.04602
 C8 C 0.34758 0.33292 0.06458
 C9 C 0.33224 0.34855 0.06457
 C10 C 0.32057 0.34603 0.04602
 N11 N 0.32838 0.32950 0.03478
 C12 C 0.30227 0.35772 0.04039
 C13 C 0.29419 0.35767 0.01946
 C14 C 0.27380 0.36377 0.01380
 C15 C 0.27291 0.36291 -0.00796
 C16 C 0.29296 0.35670 -0.01493
 N17 N 0.30586 0.35317 0.00194
 C18 C 0.29982 0.35572 -0.03641
 C19 C 0.31811 0.34367 -0.04196
 C20 C 0.33090 0.34713 -0.05962
 C21 C 0.34618 0.33153 -0.05962
 C22 C 0.34240 0.31887 -0.04196
 N23 N 0.32551 0.32665 -0.03102
 C24 C 0.35407 0.30037 -0.03638
 H25 H 0.36362 0.25939 -0.01736
 H26 H 0.36555 0.26130 0.02434
 H27 H 0.31827 0.31962 -0.01785
 H28 H 0.35934 0.33035 0.07689
 H29 H 0.32992 0.36032 0.07689
 H30 H 0.26084 0.36814 0.02426
 H31 H 0.25893 0.36624 -0.01743
 H32 H 0.35900 0.33021 -0.07103
 H33 H 0.32142 0.32272 0.02135
 H34 H 0.32987 0.35993 -0.07104
 C35 C 0.70555 0.61431 -0.00852
 C36 C 0.70554 0.61465 0.01325
 C37 C 0.69928 0.63485 0.01920
 N38 N 0.69556 0.64696 0.00181
 C39 C 0.69968 0.63449 -0.01525
 C40 C 0.69822 0.64216 0.04038
 C41 C 0.68628 0.66021 0.04621
 C42 C 0.68781 0.67081 0.06548
 C43 C 0.67221 0.68617 0.06544
 C44 C 0.66165 0.68450 0.04614
 N45 N 0.67037 0.66869 0.03450
 C46 C 0.64366 0.69654 0.04013
 C47 C 0.63667 0.69786 0.01883
 C48 C 0.61728 0.70614 0.01232
 C49 C 0.61750 0.70605 -0.00949
 C50 C 0.63700 0.69773 -0.01556
 N51 N 0.64868 0.69266 0.00176
 C52 C 0.64455 0.69651 -0.03665
 C53 C 0.66270 0.68453 -0.04223
 C54 C 0.67445 0.68734 -0.06065
 C55 C 0.68998 0.67198 -0.06065
 C56 C 0.68709 0.65990 -0.04237
 N57 N 0.67057 0.66791 -0.03107
 C58 C 0.69899 0.64156 -0.03670
 H59 H 0.70904 0.60053 -0.01816
 H60 H 0.70932 0.60140 0.02354
 H61 H 0.66368 0.66109 -0.01763
 H62 H 0.69888 0.66774 0.07830
 H63 H 0.66901 0.69723 0.07821
 H64 H 0.60432 0.71167 0.02221
 H65 H 0.60474 0.71153 -0.01968
 H66 H 0.70219 0.67027 -0.07265
 H67 H 0.66430 0.66244 0.02042
 H68 H 0.67225 0.69940 -0.07272
 C69 C 0.61508 0.29312 0.98724
 C70 C 0.61519 0.29314 1.00906
 C71 C 0.63447 0.30192 1.01526
 N72 N 0.64603 0.30738 0.99800
 C73 C 0.63418 0.30209 0.98085
 C74 C 0.64196 0.30314 1.03639
 C75 C 0.66032 0.31478 1.04209
 C76 C 0.67181 0.31175 1.06065
 C77 C 0.68777 0.32666 1.06073
 C78 C 0.68543 0.33869 1.04235
 N79 N 0.66878 0.33111 1.03092
 C80 C 0.69799 0.35659 1.03671
 C81 C 0.69926 0.36345 1.01521
 C82 C 0.70588 0.38338 1.00843
 C83 C 0.70613 0.38289 0.98667
 C84 C 0.69926 0.36288 0.98077
 N85 N 0.69494 0.35101 0.99819
 C86 C 0.69798 0.35558 0.95958
 C87 C 0.68542 0.33798 0.95367
 C88 C 0.68612 0.32782 0.93412
 C89 C 0.66988 0.31314 0.93407
 C90 C 0.65988 0.31462 0.95369
 N91 N 0.66945 0.32980 0.96550
 C92 C 0.64131 0.30349 0.95961
 H93 H 0.60250 0.28688 0.97727
 H94 H 0.60261 0.28713 1.01915
 H95 H 0.66379 0.33609 0.97972
 H96 H 0.66918 0.29983 1.07276
 H97 H 0.69991 0.32808 1.07285
 H98 H 0.70968 0.39711 1.01802
 H99 H 0.71042 0.39597 0.97636
 H100 H 0.66572 0.30284 0.92094
 H101 H 0.66225 0.33807 1.01737
 H102 H 0.69692 0.33089 0.92107
 C103 C 0.36326 0.72615 1.00841
 C104 C 0.36414 0.72531 0.98666
 C105 C 0.35826 0.70493 0.98096
 N106 N 0.35387 0.69322 0.99846
 C107 C 0.35727 0.70608 1.01535
 C108 C 0.35842 0.69691 0.96002
 C109 C 0.34685 0.67858 0.95436
 C110 C 0.34947 0.66702 0.93577
 C111 C 0.33394 0.65158 0.93575
 C112 C 0.32233 0.65420 0.95432
 N113 N 0.33037 0.67059 0.96560
 C114 C 0.30389 0.64273 0.95993
 C115 C 0.29579 0.64284 0.98086
 C116 C 0.27532 0.63699 0.98649
 C117 C 0.27442 0.63781 1.00824
 C118 C 0.29455 0.64374 1.01525
 N119 N 0.30750 0.64715 0.99840
 C120 C 0.30140 0.64459 1.03674
 C121 C 0.31985 0.65639 1.04232
 C122 C 0.33258 0.65274 1.05999
 C123 C 0.34808 0.66811 1.06001
 C124 C 0.34448 0.68084 1.04235
 N125 N 0.32749 0.67331 1.03140
 C126 C 0.35640 0.69919 1.03681
 H127 H 0.36646 0.74010 1.01791
 H128 H 0.36838 0.73829 0.97621
 H129 H 0.32036 0.68046 1.01823
 H130 H 0.36125 0.66948 0.92345
 H131 H 0.33146 0.63987 0.92340
 H132 H 0.26231 0.63281 0.97600
 H133 H 0.26039 0.63464 1.01769
 H134 H 0.36090 0.66926 1.07144
 H135 H 0.32351 0.67742 0.97905
 H136 H 0.33137 0.63994 1.07139
 C137 C 0.01432 0.36357 0.27495
 C138 C -0.00746 0.36262 0.27406
 C139 C -0.01443 0.35655 0.29414
 N140 N 0.00247 0.35319 0.30705
 C141 C 0.02000 0.35766 0.29537
 C142 C -0.03592 0.35555 0.30099
 C143 C -0.04144 0.34368 0.31938
 C144 C -0.05912 0.34723 0.33213
 C145 C -0.05909 0.33178 0.34753
 C146 C -0.04139 0.31911 0.34387
 N147 N -0.03045 0.32676 0.32693
 C148 C -0.03580 0.30070 0.35566
 C149 C -0.01428 0.29391 0.35652
 C150 C -0.00723 0.27385 0.36244
 C151 C 0.01455 0.27479 0.36327
 C152 C 0.02015 0.29522 0.35745
 N153 N 0.00256 0.30686 0.35314
 C154 C 0.04107 0.30333 0.35761
 C155 C 0.04668 0.32175 0.34616
 C156 C 0.06525 0.33335 0.34883
 C157 C 0.06522 0.34887 0.33340
 C158 C 0.04662 0.34626 0.32179
 N159 N 0.03539 0.32978 0.32974
 C160 C 0.04095 0.35783 0.30345
 H161 H 0.02479 0.36786 0.26197
 H162 H -0.01694 0.36580 0.26005
 H163 H 0.02194 0.32294 0.32286
 H164 H -0.07058 0.36000 0.33098
 H165 H -0.07051 0.33054 0.36034
 H166 H -0.01666 0.25984 0.36559
 H167 H 0.02507 0.26184 0.36745
 H168 H 0.07754 0.36063 0.33099
 H169 H -0.01726 0.31967 0.31975
 H170 H 0.07760 0.33086 0.36057
 C171 C -0.00957 0.72605 0.63419
 C172 C 0.01221 0.72560 0.63400
 C173 C 0.01824 0.70661 0.64322
 N174 N 0.00081 0.69552 0.64924
 C175 C -0.01639 0.70739 0.64393
 C176 C 0.03943 0.69905 0.64415
 C177 C 0.04561 0.68121 0.65629
 C178 C 0.06489 0.67066 0.65426
 C179 C 0.06515 0.65499 0.66948
 C180 C 0.04600 0.65638 0.68036
 N181 N 0.03420 0.67244 0.67226
 C182 C 0.04017 0.64354 0.69782
 C183 C 0.01892 0.64179 0.70490
 C184 C 0.01264 0.63258 0.72391
 C185 C -0.00918 0.63254 0.72389
 C186 C -0.01551 0.64170 0.70486
 N187 N 0.00169 0.64739 0.69328
 C188 C -0.03677 0.64336 0.69781
 C189 C -0.04288 0.65587 0.68016
 C190 C -0.06246 0.65472 0.67018
 C191 C -0.06291 0.67062 0.65526
 C192 C -0.04335 0.68102 0.65614
 N193 N -0.03133 0.67186 0.67156
 C194 C -0.03784 0.70002 0.64504
 H195 H -0.01889 0.73854 0.62706
 H196 H 0.02240 0.73773 0.62730
 H197 H -0.01725 0.67785 0.67784
 H198 H 0.07749 0.67384 0.64295
 H199 H 0.07794 0.64378 0.67211
 H200 H 0.02271 0.62653 0.73650
 H201 H -0.01922 0.62643 0.73647
 H202 H -0.07664 0.67413 0.64557
 H203 H 0.02015 0.67843 0.67866
 H204 H -0.07537 0.64386 0.67358
 C205 C 1.00721 0.72716 0.36209
 C206 C 0.98541 0.72622 0.36274
 C207 C 0.97984 0.70608 0.35597
 N208 N 0.99748 0.69455 0.35155
 C209 C 1.01431 0.70731 0.35556
 C210 C 0.95896 0.69789 0.35581
 C211 C 0.95352 0.67913 0.34494
 C212 C 0.93452 0.66813 0.34717
 C213 C 0.93470 0.65222 0.33214
 C214 C 0.95371 0.65414 0.32106
 N215 N 0.96508 0.67050 0.32903
 C216 C 0.95954 0.64225 0.30297
 C217 C 0.98055 0.64225 0.29502
 C218 C 0.98631 0.63604 0.27472
 C219 C 1.00808 0.63715 0.27384
 C220 C 1.01496 0.64361 0.29382
 N221 N 0.99803 0.64703 0.30666
 C222 C 1.03645 0.64493 0.30067
 C223 C 1.04185 0.65715 0.31888
 C224 C 1.05950 0.65385 0.33173
 C225 C 1.05932 0.66947 0.34695
 C226 C 1.04157 0.68202 0.34307
 N227 N 1.03074 0.67412 0.32617
 C228 C 1.03584 0.70046 0.35478
 H229 H 1.01659 0.74103 0.36592
 H230 H 0.97492 0.73894 0.36761
 H231 H 1.01753 0.68103 0.31885
 H232 H 0.92169 0.67146 0.35815
 H233 H 0.92210 0.64082 0.32948
 H234 H 0.97589 0.63148 0.26178
 H235 H 1.01760 0.63384 0.25990
 H236 H 1.07067 0.67088 0.35981
 H237 H 0.97874 0.67703 0.32228
 H238 H 1.07102 0.64112 0.33078
 C239 C 0.98885 0.29312 0.61561
 C240 C 1.01068 0.29328 0.61589
 C241 C 1.01667 0.30148 0.63546
 N242 N 0.99928 0.30639 0.64710
 C243 C 0.98224 0.30122 0.63501
 C244 C 1.03776 0.30271 0.64306
 C245 C 1.04330 0.31463 0.66125
 C246 C 1.06177 0.31185 0.67296
 C247 C 1.06171 0.32715 0.68855
 C248 C 1.04334 0.33914 0.68574
 N249 N 1.03206 0.33115 0.66920
 C250 C 1.03755 0.35736 0.69775
 C251 C 1.01602 0.36426 0.69851
 C252 C 1.00914 0.38435 0.70452
 C253 C 0.98735 0.38384 0.70453
 C254 C 0.98154 0.36365 0.69813
 N255 N 0.99904 0.35169 0.69431
 C256 C 0.96039 0.35618 0.69705
 C257 C 0.95465 0.33824 0.68492
 C258 C 0.93541 0.32752 0.68634
 C259 C 0.93551 0.31235 0.67058
 C260 C 0.95482 0.31423 0.66004
 N261 N 0.96640 0.33000 0.66893
 C262 C 0.96089 0.30242 0.64194
 H263 H 0.97900 0.28766 0.60258
 H264 H 1.02094 0.28793 0.60315
 H265 H 0.98046 0.33639 0.66293
 H266 H 1.07391 0.29987 0.67070
 H267 H 1.07373 0.32885 0.70074
 H268 H 1.01868 0.39818 0.70809
 H269 H 0.97695 0.39699 0.70841
 H270 H 0.92278 0.30127 0.66726
 H271 H 1.01855 0.33793 0.66237
 H272 H 0.92257 0.33040 0.69744
 C273 C 0.36330 -0.00898 0.27302
 C274 C 0.36373 0.01274 0.27382
 C275 C 0.35713 0.01837 0.29404
 N276 N 0.35276 0.00085 0.30571
 C277 C 0.35684 -0.01598 0.29296
 C278 C 0.35655 0.03934 0.30189
 C279 C 0.34444 0.04501 0.31990
 C280 C 0.34649 0.06379 0.33123
 C281 C 0.33069 0.06376 0.34640
 C282 C 0.31948 0.04496 0.34390
 N283 N 0.32799 0.03362 0.32774
 C284 C 0.30124 0.03908 0.35563
 C285 C 0.29364 0.01801 0.35615
 C286 C 0.27407 0.01177 0.36418
 C287 C 0.27378 -0.00998 0.36357
 C288 C 0.29320 -0.01628 0.35519
 N289 N 0.30528 0.00084 0.35057
 C290 C 0.30040 -0.03743 0.35381
 C291 C 0.31856 -0.04317 0.34191
 C292 C 0.33007 -0.06170 0.34473
 C293 C 0.34586 -0.06171 0.32960
 C294 C 0.34338 -0.04331 0.31764
 N295 N 0.32682 -0.03196 0.32549
 C296 C 0.35578 -0.03748 0.29965
 H297 H 0.36700 -0.01840 0.25912
 H298 H 0.36809 0.02320 0.26088
 H299 H 0.32025 -0.01834 0.31875
 H300 H 0.35810 0.07625 0.32882
 H301 H 0.32784 0.07617 0.35795
 H302 H 0.26135 0.02181 0.36999
 H303 H 0.26082 -0.02000 0.36885
 H304 H 0.35802 -0.07376 0.32806
 H305 H 0.32157 0.01998 0.32094
 H306 H 0.32761 -0.07381 0.35669
 C307 C 0.70450 0.01479 0.61528
 C308 C 0.70465 -0.00693 0.61490
 C309 C 0.69869 -0.01372 0.63507
 N310 N 0.69435 0.00324 0.64756
 C311 C 0.69805 0.02064 0.63548
 C312 C 0.69813 -0.03515 0.64210
 C313 C 0.68607 -0.04095 0.66033
 C314 C 0.68894 -0.05923 0.67239
 C315 C 0.67327 -0.05936 0.68765
 C316 C 0.66146 -0.04103 0.68481
 N317 N 0.66941 -0.02980 0.66825
 C318 C 0.64319 -0.03558 0.69670
 C319 C 0.63554 -0.01456 0.69794
 C320 C 0.61595 -0.00864 0.70619
 C321 C 0.61563 0.01312 0.70636
 C322 C 0.63502 0.01975 0.69820
 N323 N 0.64715 0.00280 0.69299
 C324 C 0.64189 0.04106 0.69699
 C325 C 0.65989 0.04722 0.68501
 C326 C 0.67030 0.06656 0.68676
 C327 C 0.68599 0.06673 0.67147
 C328 C 0.68468 0.04750 0.66082
 N329 N 0.66879 0.03569 0.66920
 C330 C 0.69684 0.04177 0.64285
 H331 H 0.70831 0.02510 0.60204
 H332 H 0.70832 -0.01650 0.60110
 H333 H 0.66288 0.02160 0.66289
 H334 H 0.70123 -0.07113 0.67076
 H335 H 0.67105 -0.07146 0.69968
 H336 H 0.60322 -0.01888 0.71157
 H337 H 0.60258 0.02291 0.71186
 H338 H 0.69699 0.07960 0.66848
 H339 H 0.66252 -0.01638 0.66142
 H340 H 0.66694 0.07926 0.69785
 C341 C 0.27375 1.00683 0.63513
 C342 C 0.27427 0.98507 0.63475
 C343 C 0.29336 0.97908 0.64406
 N344 N 0.30457 0.99644 0.64993
 C345 C 0.29264 1.01342 0.64444
 C346 C 0.30119 0.95812 0.64503
 C347 C 0.31971 0.95253 0.65646
 C348 C 0.33048 0.93340 0.65460
 C349 C 0.34651 0.93366 0.66954
 C350 C 0.34490 0.95284 0.68024
 N351 N 0.32857 0.96424 0.67216
 C352 C 0.35716 0.95884 0.69807
 C353 C 0.35760 0.97988 0.70575
 C354 C 0.36426 0.98569 0.72590
 C355 C 0.36343 1.00739 0.72665
 C356 C 0.35669 1.01422 0.70675
 N357 N 0.35284 0.99729 0.69406
 C358 C 0.35515 1.03570 0.70004
 C359 C 0.34251 1.04129 0.68212
 C360 C 0.34464 1.05972 0.67015
 C361 C 0.32882 1.05943 0.65507
 C362 C 0.31763 1.04071 0.65792
 N363 N 0.32611 1.02966 0.67434
 C364 C 0.29960 1.03466 0.64589
 H365 H 0.26105 1.01664 0.62891
 H366 H 0.26216 0.97488 0.62799
 H367 H 0.31982 1.01593 0.68112
 H368 H 0.32703 0.92046 0.64383
 H369 H 0.35782 0.92102 0.67235
 H370 H 0.36888 0.97535 0.73885
 H371 H 0.36703 1.01691 0.74051
 H372 H 0.32616 1.07148 0.64309
 H373 H 0.32232 0.97807 0.67870
 H374 H 0.35661 1.07197 0.67165
 C375 C 0.70362 0.98774 0.38483
 C376 C 0.70299 1.00946 0.38532
 C377 C 0.69722 1.01614 0.36506
 N378 N 0.69374 0.99913 0.35240
 C379 C 0.69782 0.98180 0.36445
 C380 C 0.69643 1.03748 0.35789
 C381 C 0.68467 1.04281 0.33935
 C382 C 0.68834 1.06031 0.32646
 C383 C 0.67289 1.06020 0.31100
 C384 C 0.66011 1.04263 0.31477
 N385 N 0.66769 1.03185 0.33182
 C386 C 0.64160 1.03709 0.30303
 C387 C 0.63455 1.01571 0.30240
 C388 C 0.61431 1.00887 0.29668
 C389 C 0.61493 0.98714 0.29623
 C390 C 0.63536 0.98137 0.30208
 N391 N 0.64732 0.99880 0.30602
 C392 C 0.64313 0.96037 0.30249
 C393 C 0.66153 0.95477 0.31404
 C394 C 0.67273 0.93591 0.31195
 C395 C 0.68826 0.93602 0.32743
 C396 C 0.68605 0.95494 0.33848
 N397 N 0.66984 0.96631 0.33013
 C398 C 0.69759 0.96075 0.35681
 H399 H 0.70757 0.97748 0.39806
 H400 H 0.70611 1.01910 0.39921
 H401 H 0.66323 0.98002 0.33664
 H402 H 0.70115 1.07173 0.32762
 H403 H 0.67168 1.07152 0.29812
 H404 H 0.60035 1.01840 0.29347
 H405 H 0.60174 0.97678 0.29237
 H406 H 0.69970 0.92351 0.33031
 H407 H 0.66047 1.01883 0.33912
 H408 H 0.66992 0.92330 0.30062
 O409 O 0.84765 0.81861 0.48112
 O410 O 0.81874 0.84867 0.52211
 O411 O 0.84797 0.81932 0.52239
 O412 O 0.81850 0.84799 0.48083
 O413 O 0.79341 0.82341 0.48136
 O414 O 0.82304 0.79459 0.52303
 O415 O 0.79367 0.82407 0.52275
 O416 O 0.82269 0.79389 0.48164
 Cu417 Cu 0.83571 0.83611 0.50156
 Cu418 Cu 0.80568 0.80650 0.50226
 C419 C 0.84018 0.80109 0.47450
 C420 C 0.80123 0.84160 0.52929
 C421 C 0.84064 0.80201 0.52966
 C422 C 0.80090 0.84069 0.47411
 O423 O 0.18270 0.15231 0.52221
 O424 O 0.15416 0.18272 0.48127
 O425 O 0.18306 0.15312 0.48096
 O426 O 0.15380 0.18194 0.52252
 O427 O 0.17892 0.20648 0.52326
 O428 O 0.20835 0.17748 0.48158
 O429 O 0.17929 0.20725 0.48189
 O430 O 0.20799 0.17668 0.52296
 Cu431 Cu 0.16591 0.16508 0.50168
 Cu432 Cu 0.19618 0.19444 0.50250
 C433 C 0.20026 0.15920 0.52944
 C434 C 0.16174 0.20020 0.47471
 C435 C 0.20073 0.16027 0.47430
 C436 C 0.16126 0.19918 0.52985
 O437 O 0.18209 0.84662 0.47713
 O438 O 0.15303 0.81716 0.51839
 O439 O 0.18233 0.84636 0.51838
 O440 O 0.15269 0.81750 0.47713
 O441 O 0.17742 0.79256 0.47670
 O442 O 0.20724 0.82159 0.51810
 O443 O 0.17778 0.79225 0.51809
 O444 O 0.20699 0.82184 0.47670
 Cu445 Cu 0.16505 0.83439 0.49778
 Cu446 Cu 0.19487 0.80455 0.49735
 C447 C 0.19954 0.83936 0.47000
 C448 C 0.16035 0.79964 0.52516
 C449 C 0.19988 0.83900 0.52517
 C450 C 0.15988 0.80006 0.47000
 O451 O 0.84610 0.18341 0.51794
 O452 O 0.81671 0.15424 0.47672
 O453 O 0.84630 0.18319 0.47670
 O454 O 0.81651 0.15453 0.51800
 O455 O 0.79178 0.17948 0.51780
 O456 O 0.82176 0.20831 0.47634
 O457 O 0.79196 0.17916 0.47637
 O458 O 0.82155 0.20853 0.51774
 Cu459 Cu 0.83386 0.16634 0.49735
 Cu460 Cu 0.80427 0.19639 0.49701
 C461 C 0.83894 0.20098 0.52477
 C462 C 0.79927 0.16160 0.46965
 C463 C 0.83925 0.20070 0.46962
 C464 C 0.79904 0.16202 0.52486
 O465 O 0.48263 0.84593 0.81735
 O466 O 0.52423 0.81732 0.84682
 O467 O 0.52392 0.84666 0.81762
 O468 O 0.48293 0.81663 0.84654
 O469 O 0.48345 0.79184 0.82169
 O470 O 0.52458 0.82203 0.79261
 O471 O 0.52488 0.79253 0.82197
 O472 O 0.48315 0.82130 0.79235
 Cu473 Cu 0.50338 0.83410 0.83457
 Cu474 Cu 0.50408 0.80443 0.80464
 C475 C 0.47591 0.83860 0.79978
 C476 C 0.53151 0.79999 0.83954
 C477 C 0.53110 0.83958 0.80012
 C478 C 0.47631 0.79908 0.83915
 O479 O 0.52189 0.18290 0.15366
 O480 O 0.48064 0.15406 0.18330
 O481 O 0.48061 0.18334 0.15411
 O482 O 0.52194 0.15373 0.18299
 O483 O 0.52247 0.17843 0.20793
 O484 O 0.48100 0.20819 0.17892
 O485 O 0.48103 0.17873 0.20827
 O486 O 0.52243 0.20777 0.17843
 Cu487 Cu 0.50123 0.16603 0.16603
 Cu488 Cu 0.50178 0.19578 0.19590
 C489 C 0.52906 0.20031 0.16087
 C490 C 0.47392 0.16136 0.20088
 C491 C 0.47387 0.20086 0.16149
 C492 C 0.52912 0.16092 0.20044
 O493 O 0.51737 0.15372 0.81758
 O494 O 0.47587 0.18251 0.84702
 O495 O 0.47606 0.15320 0.81782
 O496 O 0.51716 0.18296 0.84683
 O497 O 0.51679 0.20777 0.82200
 O498 O 0.47555 0.17784 0.79283
 O499 O 0.47536 0.20734 0.82220
 O500 O 0.51700 0.17837 0.79259
 Cu501 Cu 0.49665 0.16562 0.83480
 Cu502 Cu 0.49612 0.19532 0.80489
 C503 C 0.52416 0.16103 0.80003
 C504 C 0.46867 0.19989 0.83975
 C505 C 0.46893 0.16033 0.80034
 C506 C 0.52387 0.20049 0.83947
 O507 O 0.47847 0.81675 0.15324
 O508 O 0.51971 0.84593 0.18265
 O509 O 0.51978 0.81660 0.15354
 O510 O 0.47841 0.84616 0.18232
 O511 O 0.47803 0.82160 0.20740
 O512 O 0.51956 0.79185 0.17843
 O513 O 0.51948 0.82135 0.20772
 O514 O 0.47810 0.79200 0.17814
 Cu515 Cu 0.49911 0.83382 0.16544
 Cu516 Cu 0.49875 0.80421 0.19545
 C517 C 0.47138 0.79936 0.16056
 C518 C 0.52653 0.83871 0.20024
 C519 C 0.52662 0.79916 0.16097
 C520 C 0.47129 0.83904 0.19982
 O521 O 0.84708 0.52100 0.81703
 O522 O 0.81751 0.47992 0.84614
 O523 O 0.84665 0.47985 0.81678
 O524 O 0.81788 0.52109 0.84643
 O525 O 0.79280 0.52155 0.82179
 O526 O 0.82176 0.48018 0.79194
 O527 O 0.79246 0.48023 0.82146
 O528 O 0.82217 0.52147 0.79221
 Cu529 Cu 0.83478 0.50044 0.83407
 Cu530 Cu 0.80477 0.50092 0.80435
 C531 C 0.83978 0.52810 0.79959
 C532 C 0.79994 0.47314 0.83884
 C533 C 0.83921 0.47307 0.79928
 C534 C 0.80039 0.52823 0.83929
 O535 O 0.15429 0.52377 0.18374
 O536 O 0.18380 0.48251 0.15481
 O537 O 0.15460 0.48260 0.18420
 O538 O 0.18350 0.52366 0.15434
 O539 O 0.20855 0.52421 0.17902
 O540 O 0.17949 0.48299 0.20903
 O541 O 0.20886 0.48290 0.17947
 O542 O 0.17915 0.52430 0.20860
 Cu543 Cu 0.16655 0.50309 0.16680
 Cu544 Cu 0.19653 0.50365 0.19653
 C545 C 0.16155 0.53094 0.20116
 C546 C 0.20141 0.47579 0.16209
 C547 C 0.16201 0.47590 0.20175
 C548 C 0.20101 0.53080 0.16146
 O549 O 0.84643 0.47625 0.18329
 O550 O 0.81693 0.51748 0.15435
 O551 O 0.84610 0.51739 0.18371
 O552 O 0.81722 0.47631 0.15392
 O553 O 0.79217 0.47579 0.17860
 O554 O 0.82122 0.51703 0.20855
 O555 O 0.79187 0.51712 0.17902
 O556 O 0.82158 0.47574 0.20816
 Cu557 Cu 0.83416 0.49689 0.16634
 Cu558 Cu 0.80418 0.49636 0.19608
 C559 C 0.83917 0.46910 0.20072
 C560 C 0.79935 0.52425 0.16165
 C561 C 0.83869 0.52411 0.20125
 C562 C 0.79973 0.46916 0.16107
 O563 O 0.15408 0.47816 0.81686
 O564 O 0.18395 0.51924 0.84569
 O565 O 0.15467 0.51932 0.81638
 O566 O 0.18335 0.47809 0.84618
 O567 O 0.20835 0.47737 0.82147
 O568 O 0.17948 0.51874 0.79147
 O569 O 0.20894 0.51867 0.82096
 O570 O 0.17891 0.47743 0.79197
 Cu571 Cu 0.16652 0.49877 0.83375
 Cu572 Cu 0.19643 0.49799 0.80396
 C573 C 0.16129 0.47090 0.79945
 C574 C 0.20158 0.52584 0.83836
 C575 C 0.16207 0.52595 0.79880
 C576 C 0.20079 0.47083 0.83903
 N577 N 0.27689 0.37486 0.09072
 C578 C 0.27055 0.39485 0.08583
 N579 N 0.27482 0.40271 0.06623
 N580 N 0.28506 0.39095 0.05191
 C581 C 0.29139 0.37089 0.05668
 N582 N 0.28716 0.36307 0.07639
 C583 C 0.25887 0.40745 0.10085
 C584 C 0.24873 0.41852 0.11277
 C585 C 0.23628 0.43224 0.12608
 N586 N 0.21683 0.43885 0.11951
 N587 N 0.20559 0.45246 0.13121
 C588 C 0.21344 0.45995 0.14988
 N589 N 0.23290 0.45323 0.15650
 N590 N 0.24415 0.43960 0.14478
 N591 N 0.71146 0.61352 0.09006
 C592 C 0.73181 0.60736 0.08630
 N593 N 0.74124 0.61296 0.06774
 N594 N 0.73064 0.62429 0.05334
 C595 C 0.71022 0.63040 0.05696
 N596 N 0.70085 0.62487 0.07564
 C597 C 0.74301 0.59420 0.10118
 C598 C 0.75284 0.58270 0.11295
 C599 C 0.76500 0.56853 0.12605
 N600 N 0.78435 0.56170 0.11939
 N601 N 0.79538 0.54780 0.13093
 C602 C 0.78745 0.54024 0.14953
 N603 N 0.76809 0.54717 0.15623
 N604 N 0.75703 0.56108 0.14466
 N605 N 0.71147 0.38470 0.91028
 C606 C 0.73210 0.38999 0.91381
 N607 N 0.74164 0.38362 0.93206
 N608 N 0.73087 0.37237 0.94640
 C609 C 0.71018 0.36712 0.94301
 N610 N 0.70069 0.37343 0.92463
 C611 C 0.74348 0.40315 0.89907
 C612 C 0.75339 0.41465 0.88739
 C613 C 0.76558 0.42884 0.87435
 N614 N 0.78488 0.43572 0.88109
 N615 N 0.79592 0.44963 0.86959
 C616 C 0.78803 0.45716 0.85096
 N617 N 0.76872 0.45019 0.84418
 N618 N 0.75766 0.43626 0.85571
 N619 N 0.27823 0.62600 0.90961
 C620 C 0.27168 0.60606 0.91447
 N621 N 0.27590 0.59811 0.93404
 N622 N 0.28631 0.60971 0.94836
 C623 C 0.29285 0.62972 0.94363
 N624 N 0.28866 0.63763 0.92395
 C625 C 0.25982 0.59363 0.89945
 C626 C 0.24952 0.58269 0.88755
 C627 C 0.23691 0.56910 0.87425
 N628 N 0.24465 0.56168 0.85553
 N629 N 0.23325 0.54816 0.84385
 C630 C 0.21376 0.54159 0.85053
 N631 N 0.20604 0.54914 0.86922
 N632 N 0.21742 0.56265 0.88089
 N633 N 0.06687 0.27542 0.40237
 C634 C 0.08646 0.27116 0.39443
 N635 N 0.09138 0.27769 0.37447
 N636 N 0.07708 0.28814 0.36279
 C637 C 0.05737 0.29236 0.37069
 N638 N 0.05259 0.28585 0.39072
 C639 C 0.10140 0.25921 0.40688
 C640 C 0.11319 0.24880 0.41784
 C641 C 0.12631 0.23603 0.43145
 N642 N 0.11938 0.21670 0.43789
 N643 N 0.13089 0.20516 0.45141
 C644 C 0.14972 0.21257 0.45898
 N645 N 0.15670 0.23191 0.45244
 N646 N 0.14516 0.24346 0.43890
 N647 N 0.08843 0.72726 0.62778
 C648 C 0.08480 0.73050 0.60676
 N649 N 0.06652 0.72317 0.59798
 N650 N 0.05224 0.71298 0.60984
 C651 C 0.05572 0.70982 0.63092
 N652 N 0.07413 0.71705 0.63967
 C653 C 0.09961 0.74228 0.59402
 C654 C 0.11138 0.75246 0.58283
 C655 C 0.12457 0.76488 0.56898
 N656 N 0.11783 0.78417 0.56224
 N657 N 0.12943 0.79538 0.54852
 C658 C 0.14818 0.78766 0.54106
 N659 N 0.15497 0.76836 0.54791
 N660 N 0.14334 0.75714 0.56164
 N661 N 0.91970 0.73807 0.37259
 C662 C 0.91378 0.73069 0.39197
 N663 N 0.92232 0.71231 0.39925
 N664 N 0.93641 0.70166 0.38754
 C665 C 0.94242 0.70906 0.36818
 N666 N 0.93378 0.72742 0.36087
 C667 C 0.89964 0.74280 0.40518
 C668 C 0.88829 0.75317 0.41663
 C669 C 0.87544 0.76573 0.43070
 N670 N 0.85659 0.75827 0.43810
 N671 N 0.84515 0.76966 0.45185
 C672 C 0.85222 0.78887 0.45866
 N673 N 0.87107 0.79631 0.45115
 N674 N 0.88248 0.78493 0.43741
 N675 N 0.91162 0.28906 0.61260
 C676 C 0.91511 0.26848 0.60730
 N677 N 0.93337 0.25895 0.61368
 N678 N 0.94776 0.26966 0.62493
 C679 C 0.94443 0.29032 0.63015
 N680 N 0.92602 0.29979 0.62387
 C681 C 0.90024 0.25713 0.59422
 C682 C 0.88840 0.24727 0.58281
 C683 C 0.87512 0.23514 0.56876
 N684 N 0.88166 0.21582 0.56189
 N685 N 0.86993 0.20484 0.54810
 C686 C 0.85126 0.21280 0.54069
 N687 N 0.84469 0.23213 0.54765
 N688 N 0.85644 0.24314 0.56146
 N689 N 0.37290 0.08946 0.27585
 C690 C 0.39327 0.08506 0.27019
 N691 N 0.40162 0.06585 0.27512
 N692 N 0.38999 0.05145 0.28536
 C693 C 0.36956 0.05573 0.29101
 N694 N 0.36124 0.07504 0.28611
 C695 C 0.40574 0.10013 0.25848
 C696 C 0.41672 0.11208 0.24831
 C697 C 0.43039 0.12541 0.23582
 N698 N 0.43776 0.14407 0.24366
 N699 N 0.45137 0.15579 0.23238
 C700 C 0.45807 0.14918 0.21293
 N701 N 0.45057 0.13053 0.20512
 N702 N 0.43696 0.11885 0.21638
 N703 N 0.61227 0.08990 0.71087
 C704 C 0.60720 0.08630 0.73153
 N705 N 0.61385 0.06813 0.74095
 N706 N 0.62514 0.05393 0.73005
 C707 C 0.63013 0.05737 0.70931
 N708 N 0.62358 0.07569 0.69995
 C709 C 0.59404 0.10094 0.74308
 C710 C 0.58257 0.11256 0.75311
 C711 C 0.56842 0.12558 0.76542
 N712 N 0.56161 0.11884 0.78472
 N713 N 0.54774 0.13033 0.79586
 C714 C 0.54018 0.14896 0.78807
 N715 N 0.54710 0.15575 0.76875
 N716 N 0.56099 0.14423 0.75760
 N717 N 0.40265 0.93288 0.72468
 C718 C 0.39434 0.91385 0.73028
 N719 N 0.37386 0.90936 0.72511
 N720 N 0.36205 0.92354 0.71467
 C721 C 0.37034 0.94267 0.70908
 N722 N 0.39087 0.94704 0.71426
 C723 C 0.40699 0.89904 0.74215
 C724 C 0.41812 0.88727 0.75239
 C725 C 0.43195 0.87412 0.76489
 N726 N 0.43857 0.88080 0.78428
 N727 N 0.45231 0.86926 0.79554
 C728 C 0.45992 0.85064 0.78777
 N729 N 0.45319 0.84391 0.76837
 N730 N 0.43944 0.85548 0.75710
 N731 N 0.61567 0.91034 0.28829
 C732 C 0.60887 0.91456 0.26825
 N733 N 0.61365 0.93355 0.25933
 N734 N 0.62480 0.94794 0.27013
 C735 C 0.63155 0.94386 0.29024
 N736 N 0.62684 0.92475 0.29910
 C737 C 0.59591 0.89964 0.25686
 C738 C 0.58456 0.88781 0.24692
 C739 C 0.57055 0.87461 0.23468
 N740 N 0.56371 0.88119 0.21533
 N741 N 0.54992 0.86955 0.20425
 C742 C 0.54246 0.85093 0.21215
 N743 N 0.54940 0.84430 0.23152
 N744 N 0.56321 0.85597 0.24262
 N745 N 0.39432 0.26697 0.93868
 C746 C 0.38877 0.26804 0.91791
 N747 N 0.37169 0.27990 0.91221
 N748 N 0.36050 0.29033 0.92690
 C749 C 0.36590 0.28929 0.94787
 N750 N 0.38313 0.27739 0.95332
 C751 C 0.40092 0.25659 0.90236
 C752 C 0.41172 0.24657 0.89009
 C753 C 0.42524 0.23423 0.87646
 N754 N 0.43216 0.24209 0.85760
 N755 N 0.44571 0.23099 0.84564
 C756 C 0.45281 0.21169 0.85218
 N757 N 0.44576 0.20385 0.87102
 N758 N 0.43222 0.21493 0.88295
 N759 N 0.61775 0.74075 0.93555
 C760 C 0.61220 0.73166 0.91682
 N761 N 0.61760 0.71115 0.91311
 N762 N 0.62815 0.70004 0.92777
 C763 C 0.63357 0.70906 0.94665
 N764 N 0.62829 0.72966 0.95019
 C765 C 0.59975 0.74336 0.90169
 C766 C 0.58878 0.75346 0.88964
 C767 C 0.57512 0.76577 0.87613
 N768 N 0.56830 0.75798 0.85721
 N769 N 0.55468 0.76904 0.84529
 C770 C 0.54742 0.78824 0.85195
 N771 N 0.55437 0.79601 0.87086
 N772 N 0.56798 0.78496 0.88274
 N773 N 0.37417 0.71943 0.08827
 C774 C 0.39140 0.73107 0.08260
 N775 N 0.39702 0.73206 0.06185
 N776 N 0.38575 0.72177 0.04719
 C777 C 0.36835 0.71009 0.05260
 N778 N 0.36289 0.70913 0.07355
 C779 C 0.40361 0.74246 0.09816
 C780 C 0.41444 0.75246 0.11041
 C781 C 0.42799 0.76483 0.12398
 N782 N 0.43491 0.78413 0.11744
 N783 N 0.44845 0.79526 0.12932
 C784 C 0.45557 0.78746 0.14816
 N785 N 0.44854 0.76816 0.15475
 N786 N 0.43498 0.75701 0.14284
 N787 N 0.61437 0.28911 0.08642
 C788 C 0.60930 0.26846 0.08303
 N789 N 0.61523 0.25910 0.06455
 N790 N 0.62582 0.27005 0.04985
 C791 C 0.63077 0.29079 0.05308
 N792 N 0.62498 0.30008 0.07171
 C793 C 0.59687 0.25688 0.09824
 C794 C 0.58593 0.24685 0.11037
 C795 C 0.57235 0.23457 0.12397
 N796 N 0.56532 0.21530 0.11750
 N797 N 0.55180 0.20424 0.12949
 C798 C 0.54484 0.21210 0.14835
 N799 N 0.55200 0.23138 0.15487
 N800 N 0.56552 0.24245 0.14286
 N801 N 0.27208 0.08422 0.63031
 C802 C 0.26784 0.08059 0.60947
 N803 N 0.27417 0.06206 0.60055
 N804 N 0.28436 0.04755 0.61210
 C805 C 0.28851 0.05102 0.63302
 N806 N 0.28229 0.06969 0.64189
 C807 C 0.25627 0.09580 0.59703
 C808 C 0.24630 0.10799 0.58610
 C809 C 0.23415 0.12173 0.57253
 N810 N 0.21479 0.11549 0.56537
 N811 N 0.20386 0.12764 0.55190
 C812 C 0.21193 0.14645 0.54513
 N813 N 0.23130 0.15273 0.55241
 N814 N 0.24224 0.14056 0.56588
 N815 N 0.71330 0.08906 0.37830
 C816 C 0.73034 0.08361 0.39034
 N817 N 0.73623 0.06298 0.39142
 N818 N 0.72537 0.04822 0.38086
 C819 C 0.70813 0.05339 0.36884
 N820 N 0.70244 0.07423 0.36773
 C821 C 0.74183 0.09923 0.40237
 C822 C 0.75192 0.11152 0.41307
 C823 C 0.76441 0.12510 0.42648
 N824 N 0.78381 0.11858 0.43330
 N825 N 0.79505 0.13045 0.44676
 C826 C 0.78727 0.14925 0.45389
 N827 N 0.76787 0.15583 0.44694
 N828 N 0.75661 0.14393 0.43347
 N829 N 0.71528 0.91392 0.62035
 C830 C 0.73277 0.91965 0.60910
 N831 N 0.73887 0.94024 0.60902
 N832 N 0.72779 0.95470 0.61978
 C833 C 0.71011 0.94923 0.63101
 N834 N 0.70421 0.92843 0.63112
 C835 C 0.74442 0.90436 0.59681
 C836 C 0.75451 0.89221 0.58595
 C837 C 0.76685 0.87860 0.57242
 N838 N 0.78618 0.88505 0.56534
 N839 N 0.79727 0.87305 0.55187
 C840 C 0.78940 0.85419 0.54499
 N841 N 0.77007 0.84770 0.55219
 N842 N 0.75896 0.85972 0.56567
 N843 N 0.27351 0.91262 0.36924
 C844 C 0.26848 0.91649 0.38986
 N845 N 0.27413 0.93528 0.39869
 N846 N 0.28441 0.94981 0.38727
 C847 C 0.28935 0.94610 0.36657
 N848 N 0.28382 0.92717 0.35779
 C849 C 0.25672 0.90131 0.40214
 C850 C 0.24654 0.88926 0.41301
 C851 C 0.23411 0.87579 0.42658
 N852 N 0.21480 0.88238 0.43357
 N853 N 0.20364 0.87055 0.44713
 C854 C 0.21143 0.85172 0.45418
 N855 N 0.23074 0.84508 0.44707
 N856 N 0.24191 0.85694 0.43350
 N857 N 0.06254 0.39067 0.73801
 C858 C 0.08314 0.39063 0.73170
 N859 N 0.08875 0.37933 0.71424
 N860 N 0.07411 0.36847 0.70339
 C861 C 0.05330 0.36854 0.70949
 N862 N 0.04796 0.37983 0.72715
 C863 C 0.09855 0.40299 0.74313
 C864 C 0.11076 0.41392 0.75308
 C865 C 0.12438 0.42754 0.76532
 N866 N 0.14330 0.43430 0.75741
 N867 N 0.15531 0.44786 0.76843
 C868 C 0.14875 0.45512 0.78770
 N869 N 0.12985 0.44824 0.79558
 N870 N 0.11787 0.43469 0.78458
 N871 N 0.06211 0.60435 0.26831
 C872 C 0.08279 0.61030 0.26916
 N873 N 0.08821 0.62774 0.28057
 N874 N 0.07331 0.63889 0.29076
 C875 C 0.05242 0.63309 0.28991
 N876 N 0.04727 0.61549 0.27849
 C877 C 0.09854 0.59826 0.25785
 C878 C 0.11093 0.58754 0.24788
 C879 C 0.12465 0.57411 0.23555
 N880 N 0.14352 0.56723 0.24347
 N881 N 0.15555 0.55376 0.23236
 C882 C 0.14907 0.54671 0.21298
 N883 N 0.13022 0.55373 0.20508
 N884 N 0.11822 0.56719 0.21617
 N885 N 0.91244 0.37277 0.28062
 C886 C 0.91797 0.38998 0.26892
 N887 N 0.93870 0.39575 0.26793
 N888 N 0.95347 0.38466 0.27827
 C889 C 0.94820 0.36730 0.29001
 N890 N 0.92727 0.36168 0.29097
 C891 C 0.90228 0.40199 0.25751
 C892 C 0.88990 0.41267 0.24751
 C893 C 0.87615 0.42604 0.23515
 N894 N 0.85728 0.43291 0.24308
 N895 N 0.84522 0.44634 0.23195
 C896 C 0.85168 0.45336 0.21255
 N897 N 0.87052 0.44635 0.20465
 N898 N 0.88255 0.43293 0.21576
 N899 N 0.91415 0.62857 0.72678
 C900 C 0.91725 0.60753 0.73017
 N901 N 0.93523 0.59823 0.72275
 N902 N 0.94972 0.60960 0.71231
 C903 C 0.94675 0.63068 0.70895
 N904 N 0.92865 0.63996 0.71632
 C905 C 0.90214 0.59529 0.74209
 C906 C 0.89008 0.58450 0.75236
 C907 C 0.87653 0.57107 0.76484
 N908 N 0.88315 0.56412 0.78414
 N909 N 0.87121 0.55071 0.79536
 C910 C 0.85225 0.54378 0.78766
 N911 N 0.84559 0.55085 0.76836
 N912 N 0.85755 0.56427 0.75712
 N913 N 0.73909 0.60819 0.93812
 C914 C 0.73278 0.60841 0.91754
 N915 N 0.71535 0.61983 0.91203
 N916 N 0.70455 0.63064 0.92672
 C917 C 0.71067 0.63041 0.94750
 N918 N 0.72829 0.61899 0.95276
 C919 C 0.74415 0.59611 0.90207
 C920 C 0.75408 0.58522 0.88981
 C921 C 0.76630 0.57163 0.87616
 N922 N 0.75825 0.56471 0.85737
 N923 N 0.76926 0.55115 0.84537
 C924 C 0.78865 0.54404 0.85179
 N925 N 0.79667 0.55109 0.87055
 N926 N 0.78568 0.56465 0.88253
 N927 N 0.26719 0.39645 0.93848
 C928 C 0.26814 0.39080 0.91773
 N929 N 0.27966 0.37350 0.91211
 N930 N 0.28988 0.36220 0.92686
 C931 C 0.28897 0.36770 0.94779
 N932 N 0.27741 0.38515 0.95316
 C933 C 0.25686 0.40305 0.90213
 C934 C 0.24699 0.41391 0.88979
 C935 C 0.23480 0.42747 0.87607
 N936 N 0.24283 0.43426 0.85723
 N937 N 0.23184 0.44780 0.84517
 C938 C 0.21249 0.45502 0.85159
 N939 N 0.20449 0.44811 0.87042
 N940 N 0.21545 0.43458 0.88245
 N941 N 0.26814 0.60434 0.06180
 C942 C 0.26917 0.60996 0.08255
 N943 N 0.28095 0.62707 0.08820
 N944 N 0.29134 0.63823 0.07347
 C945 C 0.29036 0.63277 0.05252
 N946 N 0.27853 0.61550 0.04713
 C947 C 0.25772 0.59785 0.09816
 C948 C 0.24772 0.58713 0.11051
 C949 C 0.23539 0.57373 0.12427
 N950 N 0.24337 0.56693 0.14313
 N951 N 0.23226 0.55353 0.15524
 C952 C 0.21284 0.54648 0.14886
 N953 N 0.20489 0.55342 0.13002
 N954 N 0.21598 0.56680 0.11794
 N955 N 0.73868 0.38896 0.06226
 C956 C 0.73198 0.38920 0.08271
 N957 N 0.71411 0.37837 0.08804
 N958 N 0.70325 0.36771 0.07327
 C959 C 0.70976 0.36752 0.05260
 N960 N 0.72782 0.37831 0.04754
 C961 C 0.74338 0.40143 0.09823
 C962 C 0.75332 0.41229 0.11050
 C963 C 0.76557 0.42584 0.12416
 N964 N 0.75756 0.43272 0.14298
 N965 N 0.76859 0.44626 0.15499
 C966 C 0.78797 0.45339 0.14855
 N967 N 0.79595 0.44637 0.12975
 N968 N 0.78494 0.43284 0.11777
 N969 N 0.91810 0.71224 0.60952
 C970 C 0.91662 0.73359 0.61163
 N971 N 0.92997 0.74371 0.62517
 N972 N 0.94442 0.73282 0.63620
 C973 C 0.94614 0.71141 0.63408
 N974 N 0.93256 0.70138 0.62057
 C975 C 0.90200 0.74548 0.59875
 C976 C 0.89026 0.75562 0.58748
 C977 C 0.87696 0.76787 0.57356
 N978 N 0.88374 0.78695 0.56628
 N979 N 0.87197 0.79796 0.55255
 C980 C 0.85300 0.79027 0.54561
 N981 N 0.84618 0.77118 0.55301
 N982 N 0.85798 0.76015 0.56675
 N983 N 0.91268 0.28027 0.37314
 C984 C 0.91832 0.26849 0.39027
 N985 N 0.93910 0.26745 0.39590
 N986 N 0.95379 0.27783 0.38475
 C987 C 0.94840 0.28965 0.36746
 N988 N 0.92744 0.29065 0.36198
 C989 C 0.90269 0.25709 0.40239
 C990 C 0.89031 0.24714 0.41312
 C991 C 0.87650 0.23488 0.42654
 N992 N 0.88274 0.21545 0.43338
 N993 N 0.87063 0.20443 0.44680
 C994 C 0.85186 0.21245 0.45387
 N995 N 0.84556 0.23188 0.44691
 N996 N 0.85770 0.24293 0.43347
 N997 N 0.08807 0.28819 0.61611
 C998 C 0.08439 0.26768 0.61071
 N999 N 0.06566 0.25855 0.61626
 N1000 N 0.05099 0.26960 0.62680
 C1001 C 0.05450 0.29021 0.63209
 N1002 N 0.07338 0.29927 0.62668
 C1003 C 0.09952 0.25602 0.59823
 C1004 C 0.11153 0.24591 0.58723
 C1005 C 0.12494 0.23356 0.57353
 N1006 N 0.11815 0.21445 0.56632
 N1007 N 0.12994 0.20335 0.55268
 C1008 C 0.14893 0.21099 0.54576
 N1009 N 0.15577 0.23010 0.55309
 N1010 N 0.14395 0.24121 0.56674
 N1011 N 0.08721 0.72108 0.37245
 C1012 C 0.08153 0.73240 0.38988
 N1013 N 0.06079 0.73306 0.39566
 N1014 N 0.04615 0.72277 0.38435
 C1015 C 0.05157 0.71143 0.36676
 N1016 N 0.07251 0.71079 0.36114
 C1017 C 0.09708 0.74374 0.40214
 C1018 C 0.10937 0.75367 0.41300
 C1019 C 0.12303 0.76591 0.42657
 N1020 N 0.11661 0.78523 0.43353
 N1021 N 0.12858 0.79625 0.44709
 C1022 C 0.14738 0.78831 0.45418
 N1023 N 0.15385 0.76898 0.44709
 N1024 N 0.14185 0.75795 0.43352
 N1025 N 0.61641 0.91412 0.71112
 C1026 C 0.61087 0.91774 0.73165
 N1027 N 0.61627 0.93644 0.74082
 N1028 N 0.62679 0.95113 0.72980
 C1029 C 0.63221 0.94767 0.70917
 N1030 N 0.62695 0.92882 0.70007
 C1031 C 0.59849 0.90252 0.74330
 C1032 C 0.58761 0.89038 0.75338
 C1033 C 0.57409 0.87673 0.76570
 N1034 N 0.56738 0.85783 0.75783
 N1035 N 0.55395 0.84576 0.76894
 C1036 C 0.54677 0.85221 0.78828
 N1037 N 0.55360 0.87110 0.79613
 N1038 N 0.56702 0.88315 0.78503
 N1039 N 0.37320 0.91153 0.27825
 C1040 C 0.39104 0.91717 0.26753
 N1041 N 0.39716 0.93776 0.26751
 N1042 N 0.38580 0.95228 0.27788
 C1043 C 0.36782 0.94688 0.28866
 N1044 N 0.36184 0.92610 0.28862
 C1045 C 0.40334 0.90173 0.25611
 C1046 C 0.41423 0.88950 0.24616
 C1047 C 0.42781 0.87585 0.23393
 N1048 N 0.43476 0.88219 0.21454
 N1049 N 0.44834 0.87023 0.20354
 C1050 C 0.45544 0.85152 0.21156
 N1051 N 0.44837 0.84513 0.23096
 N1052 N 0.43478 0.85712 0.24198
 N1053 N 0.62085 0.08843 0.28584
 C1054 C 0.60885 0.08281 0.26884
 N1055 N 0.60790 0.06214 0.26309
 N1056 N 0.61855 0.04751 0.27403
 C1057 C 0.63054 0.05286 0.29124
 N1058 N 0.63152 0.07374 0.29679
 C1059 C 0.59671 0.09830 0.25729
 C1060 C 0.58593 0.11054 0.24722
 C1061 C 0.57244 0.12416 0.23485
 N1062 N 0.56545 0.11770 0.21551
 N1063 N 0.55194 0.12964 0.20440
 C1064 C 0.54493 0.14845 0.21226
 N1065 N 0.55205 0.15496 0.23161
 N1066 N 0.56557 0.14300 0.24273
 N1067 N 0.39630 0.06119 0.73189
 C1068 C 0.38974 0.08164 0.73204
 N1069 N 0.37170 0.08697 0.72147
 N1070 N 0.36057 0.07220 0.71111
 C1071 C 0.36698 0.05155 0.71094
 N1072 N 0.38517 0.04648 0.72154
 C1073 C 0.40177 0.09724 0.74352
 C1074 C 0.41246 0.10958 0.75356
 C1075 C 0.42585 0.12331 0.76592
 N1076 N 0.43277 0.11696 0.78532
 N1077 N 0.44620 0.12899 0.79642
 C1078 C 0.45320 0.14778 0.78850
 N1079 N 0.44615 0.15418 0.76909
 N1080 N 0.43271 0.14212 0.75797
 N1081 N 0.61594 0.74031 0.06769
 C1082 C 0.60938 0.73082 0.08588
 N1083 N 0.61440 0.71017 0.08933
 N1084 N 0.62558 0.69933 0.07495
 C1085 C 0.63203 0.70876 0.05661
 N1086 N 0.62710 0.72949 0.05332
 C1087 C 0.59633 0.74228 0.10067
 C1088 C 0.58491 0.75227 0.11239
 C1089 C 0.57082 0.76456 0.12547
 N1090 N 0.56346 0.75681 0.14420
 N1091 N 0.54959 0.76796 0.15575
 C1092 C 0.54262 0.78719 0.14890
 N1093 N 0.55010 0.79492 0.13017
 N1094 N 0.56396 0.78379 0.11866
 N1095 N 0.40084 0.27468 0.06603
 C1096 C 0.39298 0.27058 0.08567
 N1097 N 0.37306 0.27727 0.09066
 N1098 N 0.36136 0.28771 0.07638
 C1099 C 0.36919 0.29178 0.05663
 N1100 N 0.38917 0.28511 0.05177
 C1101 C 0.40550 0.25874 0.10063
 C1102 C 0.41653 0.24848 0.11248
 C1103 C 0.43024 0.23593 0.12572
 N1104 N 0.43762 0.24361 0.14448
 N1105 N 0.45127 0.23229 0.15612
 C1106 C 0.45800 0.21294 0.14935
 N1107 N 0.45049 0.20528 0.13061
 N1108 N 0.43686 0.21658 0.11900
 N1109 N 0.59857 0.28923 0.92206
 C1110 C 0.60570 0.27052 0.91413
 N1111 N 0.62473 0.26282 0.92082
 N1112 N 0.63626 0.27350 0.93504
 C1113 C 0.62911 0.29221 0.94302
 N1114 N 0.61009 0.29991 0.93627
 C1115 C 0.59269 0.25845 0.89979
 C1116 C 0.58139 0.24812 0.88825
 C1117 C 0.56747 0.23561 0.87519
 N1118 N 0.56075 0.21635 0.88203
 N1119 N 0.54709 0.20504 0.87045
 C1120 C 0.53968 0.21261 0.85163
 N1121 N 0.54651 0.23188 0.84476
 N1122 N 0.56018 0.24321 0.85636
 N1123 N 0.40341 0.72471 0.93443
 C1124 C 0.39555 0.72899 0.91482
 N1125 N 0.37556 0.72251 0.90983
 N1126 N 0.36378 0.71212 0.92408
 C1127 C 0.37160 0.70788 0.94380
 N1128 N 0.39165 0.71434 0.94866
 C1129 C 0.40813 0.74083 0.89991
 C1130 C 0.41919 0.75111 0.88810
 C1131 C 0.43290 0.76372 0.87490
 N1132 N 0.44030 0.75610 0.85612
 N1133 N 0.45389 0.76750 0.84449
 C1134 C 0.46054 0.78687 0.85130
 N1135 N 0.45301 0.79446 0.87006
 N1136 N 0.43944 0.78308 0.88166
 N1137 N 0.71232 0.91104 0.38454
 C1138 C 0.73235 0.91548 0.39126
 N1139 N 0.74110 0.93452 0.38635
 N1140 N 0.73014 0.94873 0.37513
 C1141 C 0.71003 0.94443 0.36845
 N1142 N 0.70134 0.92527 0.37330
 C1143 C 0.74390 0.90075 0.40430
 C1144 C 0.75395 0.88908 0.41571
 C1145 C 0.76628 0.87604 0.42981
 N1146 N 0.78565 0.88274 0.43653
 N1147 N 0.79679 0.87127 0.45041
 C1148 C 0.78894 0.85271 0.45807
 N1149 N 0.76956 0.84597 0.45124
 N1150 N 0.75840 0.85746 0.43735
 N1151 N 0.26057 0.91981 0.62714
 C1152 C 0.26893 0.91291 0.60849
 N1153 N 0.28807 0.92053 0.60206
 N1154 N 0.29852 0.93464 0.61389
 C1155 C 0.29016 0.94160 0.63254
 N1156 N 0.27102 0.93392 0.63898
 C1157 C 0.25712 0.89870 0.59512
 C1158 C 0.24698 0.88729 0.58353
 C1159 C 0.23464 0.87439 0.56932
 N1160 N 0.24236 0.85566 0.56199
 N1161 N 0.23117 0.84417 0.54812
 C1162 C 0.21190 0.85107 0.54112
 N1163 N 0.20421 0.86979 0.54856
 N1164 N 0.21539 0.88125 0.56242
 N1165 N 0.27519 0.06544 0.40118
 C1166 C 0.26950 0.08441 0.39277
 N1167 N 0.27442 0.08870 0.37220
 N1168 N 0.28468 0.07439 0.36040
 C1169 C 0.29029 0.05530 0.36877
 N1170 N 0.28543 0.05115 0.38941
 C1171 C 0.25781 0.09935 0.40541
 C1172 C 0.24768 0.11121 0.41654
 C1173 C 0.23531 0.12448 0.43036
 N1174 N 0.24332 0.14300 0.43790
 N1175 N 0.23216 0.15466 0.45165
 C1176 C 0.21265 0.14814 0.45833
 N1177 N 0.20466 0.12964 0.45065
 N1178 N 0.21581 0.11801 0.43691
 N1179 N 0.74016 0.06906 0.61405
 C1180 C 0.73078 0.08753 0.60824
 N1181 N 0.71035 0.09129 0.61417
 N1182 N 0.69963 0.07694 0.62550
 C1183 C 0.70897 0.05834 0.63123
 N1184 N 0.72946 0.05473 0.62535
 C1185 C 0.74209 0.10229 0.59503
 C1186 C 0.75203 0.11393 0.58348
 C1187 C 0.76433 0.12686 0.56925
 N1188 N 0.75661 0.14557 0.56187
 N1189 N 0.76778 0.15699 0.54792
 C1190 C 0.78702 0.15004 0.54088
 N1191 N 0.79470 0.13134 0.54838
 N1192 N 0.78355 0.11995 0.56231
 N1193 N 0.93378 0.59707 0.27583
 C1194 C 0.91437 0.60509 0.27092
 N1195 N 0.90958 0.62527 0.27673
 N1196 N 0.92382 0.63706 0.28711
 C1197 C 0.94333 0.62907 0.29200
 N1198 N 0.94800 0.60884 0.28619
 C1199 C 0.89948 0.59247 0.25912
 C1200 C 0.88766 0.58139 0.24888
 C1201 C 0.87445 0.56765 0.23635
 N1202 N 0.88121 0.56101 0.21699
 N1203 N 0.86960 0.54739 0.20569
 C1204 C 0.85083 0.53992 0.21336
 N1205 N 0.84403 0.54668 0.23273
 N1206 N 0.85566 0.56031 0.24405
 N1207 N 0.93297 0.38473 0.74041
 C1208 C 0.91435 0.39036 0.73109
 N1209 N 0.91056 0.38443 0.71070
 N1210 N 0.92502 0.37326 0.69994
 C1211 C 0.94376 0.36769 0.70921
 N1212 N 0.94741 0.37357 0.72967
 C1213 C 0.89946 0.40339 0.74244
 C1214 C 0.88770 0.41480 0.75238
 C1215 C 0.87464 0.42889 0.76467
 N1216 N 0.85593 0.43631 0.75686
 N1217 N 0.84441 0.45019 0.76801
 C1218 C 0.85127 0.45710 0.78730
 N1219 N 0.86996 0.44955 0.79508
 N1220 N 0.88145 0.43569 0.78395
 N1221 N 0.06779 0.59790 0.72227
 C1222 C 0.08622 0.60678 0.72908
 N1223 N 0.08978 0.62768 0.72537
 N1224 N 0.07528 0.63936 0.71521
 C1225 C 0.05671 0.63053 0.70850
 N1226 N 0.05331 0.60955 0.71213
 C1227 C 0.10124 0.59426 0.74086
 C1228 C 0.11312 0.58323 0.75109
 C1229 C 0.12636 0.56952 0.76365
 N1230 N 0.14507 0.56204 0.75589
 N1231 N 0.15670 0.54841 0.76723
 C1232 C 0.14997 0.54179 0.78667
 N1233 N 0.13127 0.54940 0.79440
 N1234 N 0.11967 0.56302 0.78308
 N1235 N 0.06655 0.40280 0.27576
 C1236 C 0.08621 0.39501 0.27149
 N1237 N 0.09121 0.37508 0.27793
 N1238 N 0.07695 0.36328 0.28828
 C1239 C 0.05719 0.37103 0.29251
 N1240 N 0.05231 0.39103 0.28609
 C1241 C 0.10115 0.40762 0.25971
 C1242 C 0.11299 0.41870 0.24947
 C1243 C 0.12621 0.43243 0.23693
 N1244 N 0.11946 0.43905 0.21755
 N1245 N 0.13108 0.45264 0.20623
 C1246 C 0.14986 0.46011 0.21389
 N1247 N 0.15665 0.45338 0.23327
 N1248 N 0.14500 0.43977 0.24461
   
