data_POSCAR
  _audit_creation_date              2014-09-24
  _audit_creation_method            'ToBaCCo'
  _symmetry_space_group_name_H-M    'P1'
  _symmetry_Int_Tables_number       1
  _symmetry_cell_setting            triclinic
  loop_
  _symmetry_equiv_pos_as_xyz
 x,y,z
_cell_length_a 46.9200
_cell_length_b 47.1084
_cell_length_c 47.5939
_cell_angle_alpha 90.170100
_cell_angle_beta 89.740800
_cell_angle_gamma 90.395800
loop_
  _atom_site_label
  _atom_site_type_symbol
  _atom_site_fract_x
  _atom_site_fract_y
  _atom_site_fract_z
C1 C 0.25440 1.07094 -0.00220
 C2 C 0.25708 1.05629 0.02351
 C3 C 0.25315 1.02651 0.02350
 C4 C 0.24527 1.01157 -0.00087
 C5 C 0.24201 1.02700 -0.02585
 C6 C 0.24847 1.05630 -0.02752
 C7 C 0.24193 0.97974 -0.00074
 C8 C 0.24772 0.96384 -0.02529
 C9 C 0.24612 0.93419 -0.02514
 C10 C 0.23942 0.91987 -0.00028
 C11 C 0.23418 0.93483 0.02471
 C12 C 0.23470 0.96478 0.02409
 H13 H 0.25994 1.09322 -0.00276
 H14 H 0.25555 1.01489 0.04280
 H15 H 0.23392 1.01606 -0.04415
 H16 H 0.25478 0.97417 -0.04439
 H17 H 0.23857 0.89688 -0.00052
 H18 H 0.23009 0.97628 0.04322
 C19 C 0.74730 0.57840 0.49384
 C20 C 0.74828 0.56471 0.51993
 C21 C 0.74381 0.53521 0.52110
 C22 C 0.73754 0.51923 0.49680
 C23 C 0.73538 0.53372 0.47112
 C24 C 0.74161 0.56293 0.46916
 C25 C 0.73663 0.48737 0.49794
 C26 C 0.74533 0.47089 0.47465
 C27 C 0.74928 0.44157 0.47724
 C28 C 0.74558 0.42859 0.50346
 C29 C 0.73656 0.44429 0.52692
 C30 C 0.73050 0.47329 0.52339
 H31 H 0.75266 0.60077 0.49266
 H32 H 0.74615 0.52476 0.54112
 H33 H 0.72961 0.52222 0.45227
 H34 H 0.75086 0.48074 0.45485
 H35 H 0.75079 0.40635 0.50557
 H36 H 0.72193 0.48509 0.54096
 C37 C 0.75212 1.00773 1.07493
 C38 C 0.74973 0.98107 1.06154
 C39 C 0.75267 0.98001 1.03210
 C40 C 0.75264 1.00460 1.01549
 C41 C 0.75227 1.03094 1.02960
 C42 C 0.75427 1.03309 1.05918
 C43 C 0.75266 1.00261 0.98374
 C44 C 0.75842 1.02649 0.96691
 C45 C 0.75575 1.02540 0.93754
 C46 C 0.75242 0.99899 0.92423
 C47 C 0.74854 0.97423 0.94028
 C48 C 0.74635 0.97689 0.96973
 H49 H 0.75194 1.00860 1.09753
 H50 H 0.75559 0.95956 1.02235
 H51 H 0.74925 1.05004 1.01769
 H52 H 0.76419 1.04662 0.97620
 H53 H 0.75225 0.99801 0.90154
 H54 H 0.73929 0.95860 0.98144
 C55 C 0.25185 0.49900 0.57475
 C56 C 0.24497 0.47323 0.56143
 C57 C 0.24572 0.47185 0.53190
 C58 C 0.25370 0.49552 0.51558
 C59 C 0.26046 0.52109 0.52955
 C60 C 0.25921 0.52326 0.55905
 C61 C 0.25467 0.49360 0.48407
 C62 C 0.24886 0.51745 0.46732
 C63 C 0.24961 0.51586 0.43779
 C64 C 0.25585 0.48980 0.42487
 C65 C 0.26109 0.46546 0.44099
 C66 C 0.26094 0.46776 0.47050
 H67 H 0.25120 0.50020 0.59744
 H68 H 0.23998 0.45213 0.52168
 H69 H 0.26649 0.53953 0.51743
 H70 H 0.24348 0.53741 0.47718
 H71 H 0.25619 0.48842 0.40217
 H72 H 0.26540 0.44917 0.48290
 C73 C 1.08045 0.23531 0.00609
 C74 C 1.06485 0.24314 0.03036
 C75 C 1.03490 0.24584 0.02758
 C76 C 1.02075 0.23956 0.00220
 C77 C 1.03706 0.23097 -0.02101
 C78 C 1.06680 0.22928 -0.01944
 C79 C 0.98891 0.24122 0.00014
 C80 C 0.97549 0.24866 -0.02520
 C81 C 0.94539 0.24921 -0.02768
 C82 C 0.92902 0.24323 -0.00338
 C83 C 0.94200 0.23632 0.02218
 C84 C 0.97178 0.23486 0.02351
 H85 H 1.10343 0.23435 0.00645
 H86 H 1.02207 0.25195 0.04534
 H87 H 1.02668 0.22565 -0.04058
 H88 H 0.98879 0.25307 -0.04320
 H89 H 0.90605 0.24464 -0.00380
 H90 H 0.98162 0.22888 0.04308
 C91 C 0.57147 0.74072 0.49759
 C92 C 0.55604 0.74699 0.52217
 C93 C 0.52609 0.74654 0.52119
 C94 C 0.51138 0.73920 0.49649
 C95 C 0.52741 0.73263 0.47229
 C96 C 0.55739 0.73367 0.47249
 C97 C 0.47941 0.73868 0.49608
 C98 C 0.46432 0.74499 0.47142
 C99 C 0.43433 0.74517 0.47109
 C100 C 0.41928 0.73948 0.49604
 C101 C 0.43378 0.73347 0.52105
 C102 C 0.46372 0.73254 0.52063
 H103 H 0.59453 0.74129 0.49798
 H104 H 0.51423 0.75184 0.53993
 H105 H 0.51659 0.72683 0.45310
 H106 H 0.47584 0.74997 0.45234
 H107 H 0.39623 0.74003 0.49605
 H108 H 0.47483 0.72745 0.53975
 C109 C -0.00739 0.74602 -0.07741
 C110 C 0.01871 0.74460 -0.06313
 C111 C 0.01893 0.74826 -0.03385
 C112 C -0.00649 0.74948 -0.01811
 C113 C -0.03234 0.74901 -0.03284
 C114 C -0.03325 0.74966 -0.06251
 C115 C -0.00587 0.75196 0.01342
 C116 C -0.02870 0.76380 0.02878
 C117 C -0.02772 0.76684 0.05841
 C118 C -0.00186 0.76046 0.07203
 C119 C 0.02147 0.74967 0.05693
 C120 C 0.01822 0.74334 0.02835
 H121 H -0.00711 0.74509 -0.10007
 H122 H 0.03931 0.75033 -0.02355
 H123 H -0.05203 0.74733 -0.02118
 H124 H -0.04763 0.76972 0.01767
 H125 H 0.00081 0.76551 0.09405
 H126 H 0.03522 0.73226 0.01769
 C127 C 0.50849 0.25109 0.42753
 C128 C 0.53316 0.25912 0.44215
 C129 C 0.53082 0.26735 0.47048
 C130 C 0.50499 0.26432 0.48546
 C131 C 0.48070 0.25555 0.47032
 C132 C 0.48210 0.24973 0.44136
 C133 C 0.50389 0.26818 0.51691
 C134 C 0.47788 0.27184 0.53125
 C135 C 0.47614 0.27045 0.56078
 C136 C 0.50156 0.27017 0.57638
 C137 C 0.52805 0.26941 0.56255
 C138 C 0.52877 0.26647 0.53318
 H139 H 0.50993 0.24454 0.40574
 H140 H 0.54962 0.27560 0.48072
 H141 H 0.46047 0.25278 0.48082
 H142 H 0.45854 0.27526 0.51960
 H143 H 0.50087 0.27037 0.59910
 H144 H 0.54913 0.26242 0.52338
 C145 C 1.07585 -0.01964 0.24345
 C146 C 1.06717 0.00823 0.24926
 C147 C 1.03788 0.01432 0.24806
 C148 C 1.01753 -0.00723 0.24218
 C149 C 1.02713 -0.03515 0.23727
 C150 C 1.05625 -0.04161 0.23853
 C151 C 0.98633 -0.00075 0.24319
 C152 C 0.96616 -0.02127 0.25226
 C153 C 0.93729 -0.01413 0.25640
 C154 C 0.92902 0.01405 0.25126
 C155 C 0.94835 0.03447 0.24125
 C156 C 0.97677 0.02673 0.23672
 H157 H 1.09836 -0.02432 0.24201
 H158 H 1.03083 0.03537 0.25378
 H159 H 1.01203 -0.05202 0.23295
 H160 H 0.97317 -0.04224 0.25808
 H161 H 0.90709 0.02019 0.25439
 H162 H 0.99149 0.04232 0.22828
 C163 C 0.57332 0.48757 0.74143
 C164 C 0.56165 0.51451 0.74543
 C165 C 0.53238 0.51837 0.74165
 C166 C 0.51459 0.49548 0.73372
 C167 C 0.52694 0.46862 0.72921
 C168 C 0.55625 0.46435 0.73363
 C169 C 0.48302 0.49931 0.73283
 C170 C 0.46442 0.47741 0.74165
 C171 C 0.43513 0.48237 0.74467
 C172 C 0.42441 0.50946 0.73913
 C173 C 0.44237 0.53159 0.73013
 C174 C 0.47146 0.52594 0.72600
 H175 H 0.59580 0.48460 0.74543
 H176 H 0.52346 0.53896 0.74645
 H177 H 0.51374 0.45091 0.72266
 H178 H 0.47270 0.45696 0.74777
 H179 H 0.40201 0.51342 0.74280
 H180 H 0.48527 0.54263 0.71815
 C181 C 1.00771 1.07145 0.75902
 C182 C 0.98166 1.05891 0.75095
 C183 C 0.97963 1.02903 0.75134
 C184 C 1.00232 1.01189 0.76023
 C185 C 1.02837 1.02503 0.76696
 C186 C 1.03154 1.05474 0.76573
 C187 C 0.99854 0.98032 0.76172
 C188 C 1.02117 0.96166 0.75534
 C189 C 1.01632 0.93215 0.75331
 C190 C 0.98878 0.92154 0.75900
 C191 C 0.96609 0.93952 0.76565
 C192 C 0.97139 0.96873 0.76773
 H193 H 1.01008 1.09428 0.75858
 H194 H 0.95985 1.01890 0.74544
 H195 H 1.04634 1.01209 0.77271
 H196 H 1.04189 0.97014 0.74965
 H197 H 0.98508 0.89883 0.75903
 H198 H 0.95396 0.98257 0.77324
 C199 C 0.50986 0.57053 0.24982
 C200 C 0.48309 0.55723 0.24803
 C201 C 0.48074 0.52803 0.25358
 C202 C 0.50445 0.51210 0.26205
 C203 C 0.53080 0.52629 0.26501
 C204 C 0.53411 0.55508 0.25770
 C205 C 0.50220 0.48052 0.26580
 C206 C 0.52591 0.46312 0.26003
 C207 C 0.52355 0.43354 0.26122
 C208 C 0.49737 0.42096 0.26811
 C209 C 0.47307 0.43748 0.27305
 C210 C 0.47593 0.46728 0.27273
 H211 H 0.51186 0.59258 0.24374
 H212 H 0.46028 0.51780 0.25073
 H213 H 0.54904 0.51485 0.27276
 H214 H 0.54590 0.47224 0.25296
 H215 H 0.49597 0.39802 0.26899
 H216 H 0.45739 0.48006 0.27699
 O217 O 0.26277 0.16836 0.21061
 O218 O 0.29699 0.16343 0.24876
 O219 O 0.18561 0.18943 0.25538
 O220 O 0.17061 0.22308 0.28402
 O221 O 0.21325 0.23937 0.18239
 O222 O 0.24912 0.27491 0.17625
 O223 O 0.25607 0.27247 0.32956
 O224 O 0.22342 0.23327 0.33573
 O225 O 0.32837 0.24365 0.29261
 O226 O 0.33839 0.21555 0.25228
 O227 O 0.28474 0.31528 0.26215
 O228 O 0.24344 0.32106 0.22958
 O229 O 0.24812 0.30826 0.29875
 O230 O 0.21319 0.31516 0.25987
 O231 O 0.32289 0.28588 0.25929
 O232 O 0.33518 0.25538 0.22356
 O233 O 0.29454 0.23646 0.32627
 O234 O 0.25780 0.20112 0.33322
 O235 O 0.25728 0.20361 0.17869
 O236 O 0.28366 0.24854 0.17307
 O237 O 0.18006 0.23322 0.21687
 O238 O 0.17056 0.26122 0.25869
 O239 O 0.22413 0.16052 0.25114
 O240 O 0.26294 0.15579 0.28073
 Zr241 Zr 0.25923 0.18806 0.25003
 O242 O 0.28312 0.21348 0.27753
 Zr243 Zr 0.20343 0.23089 0.25435
 O244 O 0.22510 0.25836 0.28241
 Zr245 Zr 0.25231 0.24025 0.20413
 O246 O 0.27618 0.26811 0.23001
 Zr247 Zr 0.25579 0.23559 0.30473
 O248 O 0.23177 0.20761 0.27932
 Zr249 Zr 0.30475 0.24516 0.25491
 O250 O 0.28340 0.21748 0.22642
 Zr251 Zr 0.24904 0.28812 0.25918
 O252 O 0.22474 0.26267 0.23118
 O253 O 0.22936 0.20944 0.22597
 O254 O 0.27879 0.26657 0.28327
 C255 C 0.26207 0.17761 0.18528
 C256 C 0.19735 0.16477 0.25478
 C257 C 0.18735 0.23745 0.19117
 C258 C 0.25293 0.29882 0.32358
 C259 C 0.32053 0.23931 0.31822
 C260 C 0.31168 0.31054 0.26225
 H261 H 0.29657 0.20106 0.28755
 H262 H 0.28666 0.28196 0.21820
 H263 H 0.21826 0.19666 0.21352
 H264 H 0.21152 0.26761 0.29542
 H265 H 0.20991 0.21828 0.32958
 H266 H 0.17578 0.23331 0.30146
 H267 H 0.33080 0.24323 0.20718
 H268 H 0.29836 0.23369 0.17470
 H269 H 0.27380 0.18882 0.32743
 H270 H 0.24927 0.16022 0.29600
 H271 H 0.25987 0.32076 0.21649
 H272 H 0.23533 0.28824 0.18480
 H273 H 0.29235 0.14401 0.24193
 H274 H 0.33343 0.20209 0.23704
 H275 H 0.17493 0.27681 0.24541
 H276 H 0.20093 0.30944 0.27588
 O277 O 0.73958 0.83247 0.21512
 O278 O 0.70238 0.82810 0.25284
 O279 O 0.81640 0.80852 0.25563
 O280 O 0.83283 0.77177 0.28009
 O281 O 0.78901 0.76921 0.17798
 O282 O 0.75633 0.73040 0.16834
 O283 O 0.75284 0.71439 0.32069
 O284 O 0.78156 0.75509 0.33074
 O285 O 0.67752 0.74125 0.28822
 O286 O 0.66533 0.77768 0.24950
 O287 O 0.72190 0.67923 0.24695
 O288 O 0.76432 0.67942 0.21424
 O289 O 0.75968 0.68320 0.28481
 O290 O 0.79305 0.68111 0.24553
 O291 O 0.68295 0.70759 0.24877
 O292 O 0.66740 0.74642 0.21978
 O293 O 0.71056 0.74633 0.32272
 O294 O 0.74174 0.78447 0.33223
 O295 O 0.74196 0.79955 0.18014
 O296 O 0.71984 0.75568 0.16882
 O297 O 0.82311 0.77204 0.21172
 O298 O 0.83452 0.73792 0.24899
 O299 O 0.77681 0.83621 0.25793
 O300 O 0.73981 0.83867 0.28457
 Zr301 Zr 0.74270 0.80788 0.25215
 O302 O 0.72019 0.77822 0.27710
 Zr303 Zr 0.80025 0.76694 0.24984
 O304 O 0.77993 0.73542 0.27448
 Zr305 Zr 0.75109 0.76129 0.20025
 O306 O 0.72850 0.72978 0.22240
 Zr307 Zr 0.74871 0.75376 0.30044
 O308 O 0.77121 0.78571 0.27821
 Zr309 Zr 0.69977 0.74888 0.25054
 O310 O 0.71978 0.78033 0.22554
 Zr311 Zr 0.75690 0.70764 0.24815
 O312 O 0.78018 0.73712 0.22333
 O313 O 0.77285 0.79050 0.22515
 O314 O 0.72676 0.72484 0.27538
 C315 C 0.73851 0.82501 0.18910
 C316 C 0.80392 0.83256 0.25913
 C317 C 0.81494 0.77253 0.18594
 C318 C 0.75700 0.68924 0.31102
 C319 C 0.68513 0.74114 0.31410
 C320 C 0.69478 0.68311 0.24779
 H321 H 0.70653 0.78808 0.28956
 H322 H 0.71868 0.71708 0.20895
 H323 H 0.78305 0.80542 0.21441
 H324 H 0.79417 0.72525 0.28583
 H325 H 0.79328 0.77212 0.32652
 H326 H 0.82779 0.75945 0.29617
 H327 H 0.67447 0.73425 0.20431
 H328 H 0.70218 0.76441 0.17618
 H329 H 0.75301 0.80145 0.32684
 H330 H 0.72660 0.83112 0.29902
 H331 H 0.74809 0.68092 0.20115
 H332 H 0.77258 0.71843 0.17400
 H333 H 0.70522 0.84851 0.24851
 H334 H 0.66391 0.78692 0.26814
 H335 H 0.83085 0.72453 0.23332
 H336 H 0.80686 0.68772 0.25980
 O337 O 0.76115 0.17566 0.78326
 O338 O 0.72970 0.16795 0.74275
 O339 O 0.83396 0.21571 0.74304
 O340 O 0.84130 0.25433 0.71605
 O341 O 0.79799 0.25090 0.81923
 O342 O 0.75647 0.27989 0.82795
 O343 O 0.75453 0.29327 0.67595
 O344 O 0.79013 0.25779 0.66678
 O345 O 0.68371 0.24977 0.70834
 O346 O 0.67891 0.21233 0.74121
 O347 O 0.71270 0.32017 0.74794
 O348 O 0.75360 0.32977 0.78258
 O349 O 0.75217 0.32518 0.71174
 O350 O 0.78210 0.33567 0.75113
 O351 O 0.68142 0.28312 0.74857
 O352 O 0.67650 0.24061 0.77837
 O353 O 0.71815 0.25490 0.67497
 O354 O 0.75805 0.22339 0.66358
 O355 O 0.75871 0.20920 0.81761
 O356 O 0.72772 0.24648 0.82848
 O357 O 0.83170 0.25487 0.78500
 O358 O 0.83697 0.28827 0.74757
 O359 O 0.80134 0.17965 0.74222
 O360 O 0.76456 0.17109 0.71130
 Zr361 Zr 0.76187 0.19974 0.74559
 O362 O 0.73396 0.22333 0.72023
 Zr363 Zr 0.80897 0.25281 0.74718
 O364 O 0.78266 0.27902 0.72256
 Zr365 Zr 0.75935 0.24799 0.79674
 O366 O 0.73039 0.27290 0.77412
 Zr367 Zr 0.75684 0.25370 0.69665
 O368 O 0.78517 0.22755 0.71926
 Zr369 Zr 0.70705 0.24724 0.74605
 O370 O 0.73310 0.22169 0.77165
 Zr371 Zr 0.75345 0.30090 0.74838
 O372 O 0.78258 0.27779 0.77318
 O373 O 0.78721 0.22397 0.77246
 O374 O 0.72852 0.27687 0.72120
 C375 C 0.75857 0.18337 0.80914
 C376 C 0.82696 0.18930 0.74066
 C377 C 0.82391 0.25433 0.81089
 C378 C 0.75272 0.31879 0.68554
 C379 C 0.69197 0.25378 0.68284
 C380 C 0.68723 0.30971 0.74839
 H381 H 0.72259 0.21039 0.70825
 H382 H 0.71787 0.28308 0.78744
 H383 H 0.80007 0.21212 0.78388
 H384 H 0.79464 0.29214 0.71133
 H385 H 0.80472 0.24356 0.67170
 H386 H 0.83462 0.26687 0.70084
 H387 H 0.67866 0.25605 0.79234
 H388 H 0.71227 0.23408 0.82127
 H389 H 0.74297 0.20902 0.66696
 H390 H 0.77481 0.18111 0.69601
 H391 H 0.73614 0.32637 0.79384
 H392 H 0.76946 0.29545 0.82211
 H393 H 0.73786 0.14935 0.74811
 H394 H 0.68693 0.19658 0.75231
 H395 H 0.82939 0.30182 0.76163
 H396 H 0.79802 0.33193 0.73797
 O397 O 0.24081 0.82050 0.79035
 O398 O 0.27017 0.83329 0.75056
 O399 O 0.17014 0.77967 0.74394
 O400 O 0.16132 0.74024 0.72054
 O401 O 0.20728 0.74115 0.82020
 O402 O 0.24888 0.71364 0.82674
 O403 O 0.25333 0.71386 0.67295
 O404 O 0.21527 0.74734 0.66703
 O405 O 0.32039 0.75352 0.70955
 O406 O 0.32461 0.78945 0.74464
 O407 O 0.29355 0.68089 0.74153
 O408 O 0.25478 0.66540 0.77386
 O409 O 0.25472 0.67809 0.70494
 O410 O 0.22325 0.66428 0.74494
 O411 O 0.32380 0.71848 0.74617
 O412 O 0.32666 0.75959 0.78013
 O413 O 0.28693 0.75309 0.67513
 O414 O 0.24488 0.78460 0.66820
 O415 O 0.24641 0.78457 0.82169
 O416 O 0.27745 0.74625 0.82875
 O417 O 0.17287 0.74069 0.78675
 O418 O 0.17112 0.70628 0.74625
 O419 O 0.19896 0.81820 0.75016
 O420 O 0.23577 0.83002 0.71848
 Zr421 Zr 0.23988 0.79957 0.75088
 O422 O 0.26946 0.77947 0.72376
 Zr423 Zr 0.19590 0.74394 0.74864
 O424 O 0.22294 0.72197 0.72062
 Zr425 Zr 0.24540 0.74730 0.79769
 O426 O 0.27465 0.72497 0.77256
 Zr427 Zr 0.24797 0.75074 0.69731
 O428 O 0.21805 0.77267 0.72256
 Zr429 Zr 0.29699 0.75391 0.74711
 O430 O 0.26996 0.77665 0.77452
 Zr431 Zr 0.25250 0.69869 0.74418
 O432 O 0.22332 0.71828 0.77210
 O433 O 0.21617 0.77196 0.77602
 O434 O 0.27659 0.72620 0.71961
 C435 C 0.24543 0.81095 0.81520
 C436 C 0.17454 0.80659 0.74522
 C437 C 0.18119 0.73900 0.81239
 C438 C 0.25564 0.68758 0.67967
 C439 C 0.31286 0.75223 0.68368
 C440 C 0.31869 0.69187 0.74292
 H441 H 0.28052 0.79377 0.71306
 H442 H 0.28759 0.71411 0.78476
 H443 H 0.20300 0.78262 0.78842
 H444 H 0.21143 0.70973 0.70806
 H445 H 0.19964 0.75988 0.67341
 H446 H 0.16955 0.73628 0.70179
 H447 H 0.32680 0.74199 0.79142
 H448 H 0.29249 0.75975 0.82268
 H449 H 0.26061 0.79819 0.67178
 H450 H 0.22408 0.82122 0.70350
 H451 H 0.26949 0.67060 0.78781
 H452 H 0.23829 0.69734 0.81865
 H453 H 0.26066 0.85111 0.75652
 H454 H 0.31502 0.80499 0.75494
 H455 H 0.17684 0.69413 0.76217
 H456 H 0.20920 0.66738 0.72985
 O457 O 0.23993 0.32425 0.71615
 O458 O 0.20387 0.32052 0.75577
 O459 O 0.31790 0.30103 0.75296
 O460 O 0.33556 0.26530 0.77777
 O461 O 0.28674 0.25692 0.67836
 O462 O 0.25171 0.22123 0.67077
 O463 O 0.25750 0.20873 0.82425
 O464 O 0.28698 0.24965 0.83162
 O465 O 0.18102 0.23422 0.79422
 O466 O 0.16670 0.27051 0.75607
 O467 O 0.22315 0.17198 0.75524
 O468 O 0.26246 0.17050 0.71848
 O469 O 0.26285 0.17686 0.78876
 O470 O 0.29430 0.17412 0.74702
 O471 O 0.18423 0.20048 0.75439
 O472 O 0.16724 0.23912 0.72645
 O473 O 0.21561 0.24041 0.82706
 O474 O 0.24716 0.27930 0.83414
 O475 O 0.24061 0.29075 0.68160
 O476 O 0.21623 0.24701 0.67323
 O477 O 0.32238 0.26258 0.71014
 O478 O 0.33559 0.23025 0.74805
 O479 O 0.27857 0.32879 0.75774
 O480 O 0.24248 0.33260 0.78480
 Zr481 Zr 0.24425 0.30052 0.75356
 O482 O 0.22303 0.27158 0.78039
 Zr483 Zr 0.30142 0.25936 0.74945
 O484 O 0.28250 0.22855 0.77602
 Zr485 Zr 0.24958 0.25265 0.70250
 O486 O 0.22837 0.22167 0.72661
 Zr487 Zr 0.25264 0.24763 0.80300
 O488 O 0.27397 0.27892 0.77879
 Zr489 Zr 0.20119 0.24173 0.75548
 O490 O 0.21979 0.27256 0.72881
 Zr491 Zr 0.25803 0.20023 0.75164
 O492 O 0.27976 0.22898 0.72482
 O493 O 0.27293 0.28234 0.72540
 O494 O 0.22936 0.21836 0.77967
 C495 C 0.23778 0.31641 0.69031
 C496 C 0.30567 0.32507 0.75716
 C497 C 0.31311 0.26005 0.68484
 C498 C 0.26107 0.18333 0.81495
 C499 C 0.18992 0.23457 0.81968
 C500 C 0.19609 0.17607 0.75580
 H501 H 0.21002 0.28175 0.79327
 H502 H 0.21785 0.20859 0.71406
 H503 H 0.28290 0.29661 0.71362
 H504 H 0.29732 0.21866 0.78689
 H505 H 0.29842 0.26662 0.82652
 H506 H 0.33127 0.25374 0.79459
 H507 H 0.17372 0.22726 0.71050
 H508 H 0.19956 0.25730 0.68086
 H509 H 0.25836 0.29602 0.82786
 H510 H 0.23094 0.32505 0.80057
 H511 H 0.24455 0.17036 0.70759
 H512 H 0.26599 0.20727 0.67704
 H513 H 0.20613 0.34056 0.74981
 H514 H 0.16617 0.27976 0.77476
 H515 H 0.33103 0.21616 0.73323
 H516 H 0.30822 0.17987 0.76154
 O517 O 0.75167 0.67876 0.70698
 O518 O 0.78514 0.67394 0.74516
 O519 O 0.67409 0.70016 0.75039
 O520 O 0.65833 0.73415 0.77830
 O521 O 0.70218 0.74867 0.67688
 O522 O 0.73738 0.78413 0.67014
 O523 O 0.73899 0.78426 0.82414
 O524 O 0.71090 0.74247 0.83018
 O525 O 0.81565 0.75858 0.78745
 O526 O 0.82775 0.72962 0.74975
 O527 O 0.77146 0.82718 0.75617
 O528 O 0.73009 0.83213 0.72336
 O529 O 0.73429 0.82019 0.79285
 O530 O 0.69971 0.82602 0.75337
 O531 O 0.80978 0.79815 0.75189
 O532 O 0.82247 0.76055 0.71663
 O533 O 0.78153 0.75419 0.82130
 O534 O 0.74817 0.71424 0.82889
 O535 O 0.74657 0.71367 0.67454
 O536 O 0.77318 0.75762 0.66908
 O537 O 0.66853 0.74335 0.71107
 O538 O 0.65802 0.77139 0.75277
 O539 O 0.71287 0.67127 0.74861
 O540 O 0.75215 0.66825 0.77817
 Zr541 Zr 0.74773 0.69908 0.74615
 O542 O 0.77134 0.72552 0.77309
 Zr543 Zr 0.69145 0.74163 0.74889
 O544 O 0.71243 0.76970 0.77673
 Zr545 Zr 0.74069 0.75052 0.69924
 O546 O 0.76362 0.77955 0.72457
 Zr547 Zr 0.74332 0.74771 0.79956
 O548 O 0.71976 0.71908 0.77456
 Zr549 Zr 0.79232 0.75707 0.74977
 O550 O 0.77160 0.72833 0.72221
 Zr551 Zr 0.73603 0.79961 0.75335
 O552 O 0.71254 0.77326 0.72545
 O553 O 0.71789 0.71975 0.72134
 O554 O 0.76592 0.77873 0.77771
 C555 C 0.75132 0.68778 0.68155
 C556 C 0.68602 0.67565 0.75131
 C557 C 0.67622 0.74694 0.68538
 C558 C 0.73640 0.81063 0.81805
 C559 C 0.80743 0.75785 0.81324
 C560 C 0.79842 0.82266 0.75515
 H561 H 0.78525 0.71402 0.78357
 H562 H 0.77355 0.79349 0.71247
 H563 H 0.70702 0.70662 0.70905
 H564 H 0.69843 0.77875 0.78943
 H565 H 0.69862 0.72657 0.82373
 H566 H 0.66416 0.74321 0.79616
 H567 H 0.81727 0.77705 0.70497
 H568 H 0.78938 0.74544 0.67441
 H569 H 0.76619 0.70428 0.82469
 H570 H 0.73911 0.67364 0.79365
 H571 H 0.74665 0.83205 0.71044
 H572 H 0.72421 0.79808 0.67865
 H573 H 0.78013 0.65433 0.73913
 H574 H 0.82170 0.71224 0.73963
 H575 H 0.66220 0.78690 0.73934
 H576 H 0.68742 0.82030 0.76936
 O577 O 0.25247 0.66356 0.28102
 O578 O 0.22266 0.65477 0.23918
 O579 O 0.32569 0.70530 0.24324
 O580 O 0.33340 0.74372 0.21657
 O581 O 0.28514 0.73999 0.31750
 O582 O 0.24246 0.76813 0.32392
 O583 O 0.24597 0.77929 0.17161
 O584 O 0.28452 0.74583 0.16489
 O585 O 0.17675 0.73244 0.20127
 O586 O 0.17106 0.69719 0.23609
 O587 O 0.20182 0.80618 0.24337
 O588 O 0.24163 0.81772 0.27733
 O589 O 0.23937 0.81138 0.20677
 O590 O 0.27091 0.82322 0.24649
 O591 O 0.17150 0.76874 0.23775
 O592 O 0.16570 0.72794 0.27119
 O593 O 0.21253 0.73811 0.16942
 O594 O 0.25437 0.70963 0.16052
 O595 O 0.24600 0.69719 0.31477
 O596 O 0.21469 0.73399 0.32377
 O597 O 0.32010 0.74548 0.28466
 O598 O 0.32618 0.77801 0.24702
 O599 O 0.29428 0.66824 0.24160
 O600 O 0.25917 0.65780 0.20968
 Zr601 Zr 0.25410 0.68717 0.24311
 O602 O 0.22684 0.70961 0.21614
 Zr603 Zr 0.29943 0.74162 0.24592
 O604 O 0.27370 0.76676 0.21959
 Zr605 Zr 0.24762 0.73583 0.29339
 O606 O 0.21920 0.75976 0.26902
 Zr607 Zr 0.24994 0.74021 0.19305
 O608 O 0.27780 0.71522 0.21735
 Zr609 Zr 0.19792 0.73318 0.24020
 O610 O 0.22340 0.70864 0.26737
 Zr611 Zr 0.24279 0.78797 0.24393
 O612 O 0.27112 0.76597 0.27044
 O613 O 0.27742 0.71245 0.27075
 O614 O 0.21989 0.76284 0.21595
 C615 C 0.24761 0.67131 0.30656
 C616 C 0.31962 0.67869 0.24075
 C617 C 0.31114 0.74486 0.31015
 C618 C 0.24080 0.80454 0.18070
 C619 C 0.18611 0.73537 0.17600
 C620 C 0.17685 0.79540 0.23961
 H621 H 0.21656 0.69602 0.20390
 H622 H 0.20577 0.76985 0.28152
 H623 H 0.29007 0.70113 0.28292
 H624 H 0.28558 0.78010 0.20854
 H625 H 0.29939 0.73214 0.17047
 H626 H 0.32723 0.75588 0.20085
 H627 H 0.16545 0.74513 0.28318
 H628 H 0.19890 0.72310 0.31507
 H629 H 0.24089 0.69385 0.16429
 H630 H 0.27023 0.66760 0.19479
 H631 H 0.22508 0.81292 0.28941
 H632 H 0.25574 0.78370 0.31875
 H633 H 0.23074 0.63645 0.24552
 H634 H 0.17876 0.68247 0.24870
 H635 H 0.31669 0.79208 0.25932
 H636 H 0.28539 0.82120 0.23147
 O637 O 0.75410 0.32685 0.29458
 O638 O 0.78313 0.33952 0.25402
 O639 O 0.68228 0.28673 0.24950
 O640 O 0.67207 0.24691 0.22772
 O641 O 0.72206 0.24926 0.32524
 O642 O 0.76461 0.21815 0.32772
 O643 O 0.76034 0.22051 0.17644
 O644 O 0.72363 0.25523 0.17218
 O645 O 0.83069 0.25879 0.21007
 O646 O 0.83623 0.29594 0.24382
 O647 O 0.80518 0.18763 0.24344
 O648 O 0.76720 0.17229 0.27739
 O649 O 0.76435 0.18469 0.20809
 O650 O 0.73538 0.17051 0.24895
 O651 O 0.83582 0.22498 0.24785
 O652 O 0.84028 0.26323 0.28035
 O653 O 0.79575 0.25871 0.17710
 O654 O 0.75418 0.29138 0.17198
 O655 O 0.76368 0.29094 0.32489
 O656 O 0.78961 0.25350 0.33402
 O657 O 0.68634 0.24838 0.29323
 O658 O 0.68281 0.21337 0.25313
 O659 O 0.71162 0.32498 0.25543
 O660 O 0.74747 0.33713 0.22317
 Zr661 Zr 0.75244 0.30618 0.25497
 O662 O 0.78060 0.28602 0.22649
 Zr663 Zr 0.70787 0.25090 0.25426
 O664 O 0.73363 0.22879 0.22528
 Zr665 Zr 0.75940 0.25375 0.30122
 O666 O 0.78760 0.23156 0.27490
 Zr667 Zr 0.75777 0.25746 0.20098
 O668 O 0.72922 0.27957 0.22749
 Zr669 Zr 0.80900 0.26028 0.24855
 O670 O 0.78335 0.28298 0.27724
 Zr671 Zr 0.76412 0.20530 0.24749
 O672 O 0.73601 0.22498 0.27653
 O673 O 0.72947 0.27871 0.28085
 O674 O 0.78725 0.23265 0.22193
 C675 C 0.76078 0.31729 0.31897
 C676 C 0.68706 0.31357 0.25079
 C677 C 0.69563 0.24749 0.31859
 C678 C 0.76306 0.19419 0.18283
 C679 C 0.82199 0.25731 0.18459
 C680 C 0.83045 0.19842 0.24461
 H681 H 0.79121 0.30027 0.21530
 H682 H 0.80113 0.22082 0.28659
 H683 H 0.71695 0.28968 0.29363
 H684 H 0.72144 0.21665 0.21327
 H685 H 0.70851 0.26785 0.17952
 H686 H 0.67950 0.24345 0.20855
 H687 H 0.83411 0.27837 0.29347
 H688 H 0.80855 0.25198 0.32501
 H689 H 0.77070 0.30429 0.17438
 H690 H 0.73602 0.32824 0.20807
 H691 H 0.78285 0.17723 0.29040
 H692 H 0.74981 0.20407 0.32242
 H693 H 0.77410 0.35734 0.26066
 H694 H 0.82806 0.31114 0.25568
 H695 H 0.68899 0.20137 0.26900
 H696 H 0.71975 0.17451 0.23569
 C697 C 0.26097 0.11170 0.08008
 C698 C 0.27587 0.09710 0.10007
 C699 C 0.28609 0.06990 0.09580
 C700 C 0.28033 0.05681 0.07001
 C701 C 0.26437 0.07083 0.04874
 C702 C 0.25525 0.09922 0.05393
 O703 O 0.25209 0.13694 0.08915
 C704 C 0.26164 0.13814 0.11543
 C705 C 0.27634 0.11422 0.12297
 C706 C 0.28721 0.11010 0.14968
 C707 C 0.28260 0.13142 0.16965
 C708 C 0.26733 0.15640 0.16280
 C709 C 0.25697 0.15995 0.13505
 H710 H 0.29791 0.05896 0.11192
 H711 H 0.28912 0.03591 0.06662
 H712 H 0.24250 0.11069 0.03892
 H713 H 0.29850 0.09093 0.15509
 H714 H 0.29091 0.12832 0.19059
 H715 H 0.24497 0.17856 0.12922
 C716 C 0.74925 0.62040 0.57767
 C717 C 0.76750 0.60787 0.59636
 C718 C 0.78095 0.58224 0.59098
 C719 C 0.77507 0.56868 0.56540
 C720 C 0.75576 0.58065 0.54589
 C721 C 0.74304 0.60721 0.55201
 O722 O 0.73819 0.64447 0.58736
 C723 C 0.74965 0.64705 0.61276
 C724 C 0.76763 0.62510 0.61923
 C725 C 0.78092 0.62264 0.64509
 C726 C 0.77539 0.64361 0.66527
 C727 C 0.75703 0.66664 0.65927
 C728 C 0.74419 0.66853 0.63244
 H729 H 0.79525 0.57286 0.60607
 H730 H 0.78548 0.54873 0.56087
 H731 H 0.72803 0.61677 0.53772
 H732 H 0.79475 0.60498 0.64974
 H733 H 0.78549 0.64193 0.68559
 H734 H 0.72979 0.68563 0.62741
 C735 C 0.74449 0.92667 0.11885
 C736 C 0.72974 0.90576 0.10487
 C737 C 0.72114 0.90825 0.07723
 C738 C 0.72802 0.93338 0.06319
 C739 C 0.74351 0.95579 0.07669
 C740 C 0.75149 0.95216 0.10534
 O741 O 0.75165 0.91920 0.14481
 C742 C 0.74109 0.89301 0.14711
 C743 C 0.72743 0.88398 0.12316
 C744 C 0.71586 0.85698 0.12013
 C745 C 0.71889 0.83820 0.14257
 C746 C 0.73325 0.84662 0.16746
 C747 C 0.74408 0.87467 0.17000
 H748 H 0.70948 0.89140 0.06677
 H749 H 0.72016 0.93551 0.04197
 H750 H 0.76392 0.96787 0.11659
 H751 H 0.70544 0.85038 0.10092
 H752 H 0.71044 0.81685 0.14036
 H753 H 0.75558 0.88148 0.18853
 C754 C 0.24317 0.41700 0.61853
 C755 C 0.22295 0.39871 0.60790
 C756 C 0.20859 0.40382 0.58298
 C757 C 0.21549 0.42870 0.56823
 C758 C 0.23684 0.44772 0.57824
 C759 C 0.25065 0.44172 0.60402
 O760 O 0.25461 0.40791 0.64234
 C761 C 0.24139 0.38327 0.64675
 C762 C 0.22195 0.37661 0.62615
 C763 C 0.20683 0.35114 0.62568
 C764 C 0.21211 0.33162 0.64720
 C765 C 0.23181 0.33804 0.66887
 C766 C 0.24644 0.36442 0.66882
 H767 H 0.19265 0.38913 0.57511
 H768 H 0.20409 0.43309 0.54903
 H769 H 0.26732 0.45539 0.61217
 H770 H 0.19195 0.34622 0.60902
 H771 H 0.20089 0.31144 0.64702
 H772 H 0.26201 0.36957 0.68480
 C773 C 0.76079 0.08206 0.88085
 C774 C 0.74499 0.10296 0.89357
 C775 C 0.73261 0.10007 0.91988
 C776 C 0.73660 0.07446 0.93389
 C777 C 0.75304 0.05235 0.92170
 C778 C 0.76520 0.05618 0.89457
 O779 O 0.77066 0.08967 0.85565
 C780 C 0.76082 0.11594 0.85261
 C781 C 0.74504 0.12483 0.87538
 C782 C 0.73299 0.15148 0.87740
 C783 C 0.73759 0.17010 0.85512
 C784 C 0.75393 0.16193 0.83126
 C785 C 0.76546 0.13420 0.82976
 H786 H 0.72012 0.11690 0.92924
 H787 H 0.72640 0.07173 0.95417
 H788 H 0.77779 0.03977 0.88465
 H789 H 0.72068 0.15784 0.89562
 H790 H 0.72828 0.19104 0.85652
 H791 H 0.77810 0.12743 0.81191
 C792 C 0.25196 0.57174 0.38035
 C793 C 0.23104 0.58971 0.38977
 C794 C 0.21517 0.58467 0.41397
 C795 C 0.22118 0.56011 0.42931
 C796 C 0.24305 0.54129 0.42054
 C797 C 0.25850 0.54721 0.39545
 O798 O 0.26469 0.58081 0.35695
 C799 C 0.25152 0.60511 0.35160
 C800 C 0.23086 0.61145 0.37121
 C801 C 0.21512 0.63624 0.37058
 C802 C 0.22098 0.65547 0.34895
 C803 C 0.24208 0.64962 0.32827
 C804 C 0.25738 0.62382 0.32940
 H805 H 0.19872 0.59915 0.42083
 H806 H 0.20863 0.55572 0.44795
 H807 H 0.27551 0.53355 0.38826
 H808 H 0.19914 0.64080 0.38640
 H809 H 0.20897 0.67500 0.34826
 H810 H 0.27379 0.61896 0.31408
 C811 C 0.24301 0.89609 0.90508
 C812 C 0.26832 0.88157 0.90612
 C813 C 0.28755 0.88434 0.92811
 C814 C 0.28028 0.90261 0.95022
 C815 C 0.25426 0.91762 0.94987
 C816 C 0.23548 0.91468 0.92682
 O817 O 0.22702 0.88878 0.88315
 C818 C 0.24256 0.86915 0.87017
 C819 C 0.26800 0.86407 0.88352
 C820 C 0.28679 0.84310 0.87502
 C821 C 0.27897 0.82639 0.85197
 C822 C 0.25289 0.83094 0.83780
 C823 C 0.23453 0.85296 0.84666
 H824 H 0.30709 0.87227 0.92860
 H825 H 0.29452 0.90463 0.96798
 H826 H 0.21519 0.92549 0.92654
 H827 H 0.30642 0.83925 0.88618
 H828 H 0.29311 0.80956 0.84529
 H829 H 0.21425 0.85641 0.83651
 C830 C 0.75302 0.40353 0.40736
 C831 C 0.77747 0.38809 0.41110
 C832 C 0.79418 0.39017 0.43507
 C833 C 0.78511 0.40866 0.45634
 C834 C 0.75980 0.42458 0.45327
 C835 C 0.74378 0.42240 0.42819
 O836 O 0.73924 0.39671 0.38388
 C837 C 0.75532 0.37643 0.37267
 C838 C 0.77894 0.37048 0.38861
 C839 C 0.79761 0.34866 0.38222
 C840 C 0.79153 0.33197 0.35863
 C841 C 0.76724 0.33736 0.34187
 C842 C 0.74910 0.36030 0.34863
 H843 H 0.81309 0.37742 0.43764
 H844 H 0.79745 0.41022 0.47547
 H845 H 0.72406 0.43389 0.42568
 H846 H 0.81575 0.34412 0.39539
 H847 H 0.80553 0.31446 0.35361
 H848 H 0.73009 0.36441 0.33653
 C849 C 0.11806 0.23893 0.08899
 C850 C 0.10380 0.25322 0.10980
 C851 C 0.07757 0.26580 0.10558
 C852 C 0.06521 0.26322 0.07891
 C853 C 0.07865 0.24747 0.05681
 C854 C 0.10597 0.23552 0.06243
 O855 O 0.14304 0.22885 0.09729
 C856 C 0.14447 0.23693 0.12402
 C857 C 0.12080 0.25167 0.13274
 C858 C 0.11728 0.26134 0.16013
 C859 C 0.13915 0.25580 0.17929
 C860 C 0.16416 0.24130 0.17071
 C861 C 0.16686 0.23175 0.14259
 H862 H 0.06705 0.27753 0.12220
 H863 H 0.04549 0.27441 0.07583
 H864 H 0.11732 0.22258 0.04740
 H865 H 0.09834 0.27268 0.16655
 H866 H 0.13690 0.26340 0.20068
 H867 H 0.18562 0.22048 0.13551
 C868 C 0.60869 0.74430 0.58241
 C869 C 0.59563 0.76200 0.60144
 C870 C 0.57085 0.77668 0.59543
 C871 C 0.55869 0.77255 0.56887
 C872 C 0.57089 0.75334 0.54913
 C873 C 0.59661 0.73935 0.55609
 O874 O 0.63242 0.73278 0.59221
 C875 C 0.63422 0.74332 0.61805
 C876 C 0.61201 0.76104 0.62481
 C877 C 0.60901 0.77360 0.65111
 C878 C 0.62995 0.76790 0.67120
 C879 C 0.65355 0.75045 0.66448
 C880 C 0.65573 0.73797 0.63750
 H881 H 0.56125 0.79087 0.61062
 H882 H 0.53968 0.78433 0.56385
 H883 H 0.60651 0.72432 0.54192
 H884 H 0.59118 0.78723 0.65599
 H885 H 0.62822 0.77770 0.69175
 H886 H 0.67348 0.72447 0.63193
 C887 C 0.07784 0.74409 0.88182
 C888 C 0.09772 0.72785 0.89538
 C889 C 0.09304 0.71616 0.92174
 C890 C 0.06682 0.72154 0.93481
 C891 C 0.04596 0.73879 0.92174
 C892 C 0.05164 0.75004 0.89462
 O893 O 0.08678 0.75323 0.85686
 C894 C 0.11288 0.74256 0.85475
 C895 C 0.12058 0.72702 0.87789
 C896 C 0.14727 0.71481 0.88074
 C897 C 0.16698 0.71889 0.85889
 C898 C 0.15960 0.73460 0.83462
 C899 C 0.13201 0.74642 0.83243
 H900 H 0.10898 0.70329 0.93187
 H901 H 0.06277 0.71206 0.95515
 H902 H 0.03649 0.76349 0.88405
 H903 H 0.15287 0.70289 0.89930
 H904 H 0.18798 0.70971 0.86081
 H905 H 0.12595 0.75884 0.81433
 C906 C 0.59308 0.25723 0.38840
 C907 C 0.61483 0.24705 0.40471
 C908 C 0.61160 0.24112 0.43309
 C909 C 0.58475 0.24563 0.44517
 C910 C 0.56177 0.25620 0.42894
 C911 C 0.56619 0.26215 0.40005
 O912 O 0.60073 0.26125 0.36178
 C913 C 0.62787 0.25340 0.36137
 C914 C 0.63747 0.24459 0.38714
 C915 C 0.66524 0.23575 0.39168
 C916 C 0.68406 0.23633 0.36876
 C917 C 0.67483 0.24547 0.34189
 C918 C 0.64616 0.25387 0.33815
 H919 H 0.62903 0.23293 0.44541
 H920 H 0.58174 0.24016 0.46707
 H921 H 0.54927 0.27029 0.38702
 H922 H 0.67225 0.22893 0.41220
 H923 H 0.70586 0.22976 0.37201
 H924 H 0.63853 0.26124 0.31803
 C925 C 0.91796 0.77302 0.11588
 C926 C 0.89718 0.78800 0.10234
 C927 C 0.90052 0.79821 0.07522
 C928 C 0.92607 0.79218 0.06112
 C929 C 0.94787 0.77567 0.07396
 C930 C 0.94364 0.76676 0.10232
 O931 O 0.90993 0.76414 0.14123
 C932 C 0.88344 0.77368 0.14363
 C933 C 0.87464 0.78836 0.12031
 C934 C 0.84714 0.79865 0.11742
 C935 C 0.82782 0.79347 0.13939
 C936 C 0.83628 0.77846 0.16378
 C937 C 0.86468 0.76875 0.16605
 H938 H 0.88387 0.81017 0.06509
 H939 H 0.92867 0.80098 0.04033
 H940 H 0.95880 0.75349 0.11307
 H941 H 0.84061 0.80976 0.09868
 H942 H 0.80621 0.80112 0.13739
 H943 H 0.87158 0.75683 0.18418
 C944 C 0.41526 0.27283 0.61408
 C945 C 0.39453 0.25867 0.59921
 C946 C 0.39888 0.24794 0.57242
 C947 C 0.42576 0.25197 0.56027
 C948 C 0.44768 0.26718 0.57460
 C949 C 0.44217 0.27769 0.60212
 O950 O 0.40677 0.28019 0.63980
 C951 C 0.38010 0.27046 0.64101
 C952 C 0.37166 0.25733 0.61656
 C953 C 0.34479 0.24550 0.61292
 C954 C 0.32569 0.24710 0.63549
 C955 C 0.33376 0.26008 0.66127
 C956 C 0.36148 0.27197 0.66404
 H957 H 0.38232 0.23632 0.56145
 H958 H 0.42953 0.24257 0.53983
 H959 H 0.45817 0.28928 0.61387
 H960 H 0.33876 0.23526 0.59342
 H961 H 0.30475 0.23766 0.63297
 H962 H 0.36828 0.28201 0.68340
 C963 C 0.89209 0.25038 0.91382
 C964 C 0.90716 0.26511 0.89381
 C965 C 0.93431 0.27587 0.89848
 C966 C 0.94665 0.27106 0.92481
 C967 C 0.93206 0.25522 0.94612
 C968 C 0.90397 0.24509 0.94011
 O969 O 0.86663 0.24170 0.90498
 C970 C 0.86568 0.25119 0.87875
 C971 C 0.89005 0.26554 0.87089
 C972 C 0.89409 0.27653 0.84411
 C973 C 0.87213 0.27257 0.82460
 C974 C 0.84657 0.25805 0.83214
 C975 C 0.84330 0.24734 0.85976
 H976 H 0.94560 0.28775 0.88244
 H977 H 0.96729 0.28065 0.92845
 H978 H 0.89190 0.23211 0.95465
 H979 H 0.91356 0.28758 0.83838
 H980 H 0.87497 0.28105 0.80364
 H981 H 0.82422 0.23595 0.86610
 C982 C 0.37991 0.74287 0.41248
 C983 C 0.39145 0.76251 0.39434
 C984 C 0.41620 0.77771 0.40021
 C985 C 0.42980 0.77230 0.42578
 C986 C 0.41882 0.75162 0.44472
 C987 C 0.39327 0.73689 0.43789
 O988 O 0.35635 0.73061 0.40269
 C989 C 0.35305 0.74272 0.37776
 C990 C 0.37410 0.76226 0.37165
 C991 C 0.37562 0.77665 0.34628
 C992 C 0.35463 0.77059 0.32628
 C993 C 0.33247 0.75073 0.33207
 C994 C 0.33152 0.73678 0.35834
 H995 H 0.42475 0.79319 0.38561
 H996 H 0.44884 0.78434 0.43080
 H997 H 0.38444 0.72072 0.45156
 H998 H 0.39256 0.79173 0.34188
 H999 H 0.35552 0.78152 0.30630
 H1000 H 0.31506 0.72130 0.36316
 C1001 C 0.10800 0.07659 0.25512
 C1002 C 0.13162 0.06699 0.26902
 C1003 C 0.13451 0.03931 0.27817
 C1004 C 0.11244 0.02029 0.27217
 C1005 C 0.08778 0.02891 0.25706
 C1006 C 0.08524 0.05802 0.24933
 O1007 O 0.11075 0.10348 0.24681
 C1008 C 0.13672 0.11076 0.25564
 C1009 C 0.15017 0.08902 0.26936
 C1010 C 0.17796 0.09084 0.27893
 C1011 C 0.19279 0.11612 0.27405
 C1012 C 0.17980 0.13911 0.25986
 C1013 C 0.15109 0.13658 0.25086
 H1014 H 0.15340 0.03242 0.28911
 H1015 H 0.11463 -0.00122 0.27977
 H1016 H 0.06726 0.06555 0.23737
 H1017 H 0.18808 0.07320 0.28934
 H1018 H 0.21457 0.11772 0.28133
 H1019 H 0.14076 0.15363 0.23970
 C1020 C 0.60036 0.58498 0.74874
 C1021 C 0.61974 0.57931 0.76954
 C1022 C 0.62004 0.55396 0.78434
 C1023 C 0.59988 0.53325 0.77701
 C1024 C 0.58018 0.53808 0.75502
 C1025 C 0.57999 0.56463 0.74113
 O1026 O 0.60492 0.60985 0.73630
 C1027 C 0.62781 0.61994 0.74944
 C1028 C 0.63768 0.60190 0.76986
 C1029 C 0.66255 0.60692 0.78477
 C1030 C 0.67804 0.63152 0.77832
 C1031 C 0.66833 0.65063 0.75754
 C1032 C 0.64261 0.64502 0.74312
 H1033 H 0.63568 0.55000 0.80049
 H1034 H 0.60001 0.51316 0.78802
 H1035 H 0.56551 0.56867 0.72397
 H1036 H 0.67011 0.59210 0.80035
 H1037 H 0.69768 0.63572 0.78951
 H1038 H 0.63509 0.65907 0.72683
 C1039 C 0.92889 0.11809 0.74590
 C1040 C 0.90984 0.10622 0.72742
 C1041 C 0.91366 0.07975 0.71527
 C1042 C 0.93796 0.06452 0.72274
 C1043 C 0.95811 0.07563 0.74239
 C1044 C 0.95349 0.10339 0.75355
 O1045 O 0.92029 0.14299 0.75606
 C1046 C 0.89522 0.14678 0.74368
 C1047 C 0.88798 0.12478 0.72597
 C1048 C 0.86210 0.12322 0.71205
 C1049 C 0.84263 0.14508 0.71679
 C1050 C 0.84928 0.16806 0.73505
 C1051 C 0.87623 0.16919 0.74837
 H1052 H 0.89831 0.07096 0.70067
 H1053 H 0.94116 0.04430 0.71242
 H1054 H 0.96745 0.11271 0.76913
 H1055 H 0.85681 0.10547 0.69851
 H1056 H 0.82216 0.14399 0.70640
 H1057 H 0.88164 0.18619 0.76279
 C1058 C 0.42556 0.61324 0.24464
 C1059 C 0.40712 0.60051 0.22602
 C1060 C 0.41278 0.57474 0.21295
 C1061 C 0.43833 0.56120 0.21965
 C1062 C 0.45754 0.57337 0.23933
 C1063 C 0.45123 0.60010 0.25161
 O1064 O 0.41542 0.63725 0.25546
 C1065 C 0.38998 0.63958 0.24348
 C1066 C 0.38397 0.61752 0.22539
 C1067 C 0.35805 0.61458 0.21174
 C1068 C 0.33731 0.63513 0.21703
 C1069 C 0.34278 0.65825 0.23549
 C1070 C 0.36971 0.66074 0.24867
 H1071 H 0.39782 0.56516 0.19843
 H1072 H 0.44300 0.54103 0.20974
 H1073 H 0.46526 0.60974 0.26697
 H1074 H 0.35375 0.59681 0.19790
 H1075 H 0.31690 0.63303 0.20667
 H1076 H 0.37430 0.67792 0.26315
 C1077 C 0.08590 0.89437 0.74666
 C1078 C 0.07743 0.87203 0.73000
 C1079 C 0.05012 0.86915 0.71943
 C1080 C 0.03026 0.88980 0.72683
 C1081 C 0.03782 0.91321 0.74439
 C1082 C 0.06658 0.91598 0.75358
 O1083 O 0.11233 0.89137 0.75638
 C1084 C 0.12050 0.86657 0.74555
 C1085 C 0.09981 0.85417 0.72914
 C1086 C 0.10260 0.82760 0.71696
 C1087 C 0.12769 0.81282 0.72210
 C1088 C 0.14947 0.82452 0.73936
 C1089 C 0.14606 0.85216 0.75088
 H1090 H 0.04405 0.85114 0.70655
 H1091 H 0.00891 0.88755 0.71853
 H1092 H 0.07312 0.93303 0.76748
 H1093 H 0.08579 0.81829 0.70437
 H1094 H 0.12996 0.79197 0.71275
 H1095 H 0.16211 0.86150 0.76438
 C1096 C 0.59480 0.39655 0.25754
 C1097 C 0.58953 0.37796 0.23582
 C1098 C 0.56395 0.37709 0.22126
 C1099 C 0.54268 0.39604 0.22958
 C1100 C 0.54732 0.41534 0.25202
 C1101 C 0.57394 0.41596 0.26596
 O1102 O 0.61995 0.39237 0.26966
 C1103 C 0.63066 0.37062 0.25527
 C1104 C 0.61276 0.36117 0.23434
 C1105 C 0.61852 0.33765 0.21776
 C1106 C 0.64359 0.32286 0.22318
 C1107 C 0.66241 0.33174 0.24480
 C1108 C 0.65618 0.35636 0.26079
 H1109 H 0.56026 0.36193 0.20452
 H1110 H 0.52238 0.39548 0.21882
 H1111 H 0.57775 0.43020 0.28346
 H1112 H 0.60387 0.33049 0.20168
 H1113 H 0.64820 0.30415 0.21072
 H1114 H 0.66992 0.36324 0.27774
 C1115 C 0.89494 0.91866 0.26219
 C1116 C 0.87192 0.92835 0.27724
 C1117 C 0.87027 0.95571 0.28783
 C1118 C 0.89287 0.97429 0.28193
 C1119 C 0.91671 0.96557 0.26537
 C1120 C 0.91807 0.93672 0.25639
 O1121 O 0.89121 0.89233 0.25258
 C1122 C 0.86522 0.88544 0.26173
 C1123 C 0.85260 0.90686 0.27690
 C1124 C 0.82480 0.90525 0.28688
 C1125 C 0.80921 0.88054 0.28095
 C1126 C 0.82154 0.85794 0.26539
 C1127 C 0.85017 0.86033 0.25591
 H1128 H 0.85190 0.96275 0.29972
 H1129 H 0.89162 0.99553 0.29055
 H1130 H 0.93529 0.92910 0.24325
 H1131 H 0.81525 0.92264 0.29838
 H1132 H 0.78745 0.87906 0.28851
 H1133 H 0.86001 0.84366 0.24361
 C1134 C 0.39367 0.41356 0.75086
 C1135 C 0.37402 0.42107 0.77105
 C1136 C 0.37438 0.44721 0.78460
 C1137 C 0.39550 0.46674 0.77659
 C1138 C 0.41553 0.45999 0.75519
 C1139 C 0.41499 0.43270 0.74260
 O1140 O 0.38853 0.38814 0.73967
 C1141 C 0.36505 0.37957 0.75299
 C1142 C 0.35532 0.39907 0.77229
 C1143 C 0.33007 0.39553 0.78724
 C1144 C 0.31407 0.37089 0.78205
 C1145 C 0.32362 0.35029 0.76240
 C1146 C 0.34971 0.35453 0.74789
 H1147 H 0.35857 0.45263 0.80031
 H1148 H 0.39588 0.48741 0.78662
 H1149 H 0.42972 0.42716 0.72592
 H1150 H 0.32267 0.41143 0.80197
 H1151 H 0.29421 0.36783 0.79336
 H1152 H 0.35720 0.33937 0.73243
 C1153 C 0.12257 0.23131 0.92307
 C1154 C 0.11193 0.21107 0.90500
 C1155 C 0.08766 0.19508 0.91094
 C1156 C 0.07351 0.20049 0.93639
 C1157 C 0.08355 0.22186 0.95509
 C1158 C 0.10875 0.23716 0.94838
 O1159 O 0.14536 0.24476 0.91303
 C1160 C 0.14909 0.23286 0.88799
 C1161 C 0.12909 0.21223 0.88201
 C1162 C 0.12795 0.19819 0.85632
 C1163 C 0.14820 0.20581 0.83591
 C1164 C 0.16918 0.22688 0.84165
 C1165 C 0.16982 0.24035 0.86820
 H1166 H 0.07969 0.17928 0.89635
 H1167 H 0.05454 0.18825 0.94136
 H1168 H 0.11669 0.25398 0.96184
 H1169 H 0.11178 0.18229 0.85198
 H1170 H 0.14766 0.19523 0.81567
 H1171 H 0.18536 0.25676 0.87295
 C1172 C 0.61319 0.73848 0.41478
 C1173 C 0.60294 0.71862 0.39611
 C1174 C 0.57870 0.70234 0.40141
 C1175 C 0.56427 0.70690 0.42690
 C1176 C 0.57391 0.72783 0.44632
 C1177 C 0.59897 0.74364 0.44006
 O1178 O 0.63643 0.75185 0.40561
 C1179 C 0.64087 0.74025 0.38053
 C1180 C 0.62084 0.71994 0.37365
 C1181 C 0.62069 0.70596 0.34789
 C1182 C 0.64200 0.71328 0.32840
 C1183 C 0.66310 0.73391 0.33510
 C1184 C 0.66265 0.74740 0.36168
 H1185 H 0.57114 0.68670 0.38644
 H1186 H 0.54560 0.69406 0.43144
 H1187 H 0.60678 0.76010 0.45401
 H1188 H 0.60455 0.69025 0.34284
 H1189 H 0.64225 0.70270 0.30818
 H1190 H 0.67829 0.76346 0.36720
 C1191 C 0.90975 0.75196 0.88260
 C1192 C 0.88896 0.76618 0.89720
 C1193 C 0.89234 0.77540 0.92460
 C1194 C 0.91829 0.76978 0.93768
 C1195 C 0.94053 0.75469 0.92353
 C1196 C 0.93582 0.74592 0.89522
 O1197 O 0.90177 0.74463 0.85680
 C1198 C 0.87536 0.75448 0.85522
 C1199 C 0.86659 0.76780 0.87948
 C1200 C 0.83947 0.77883 0.88305
 C1201 C 0.82038 0.77570 0.86076
 C1202 C 0.82872 0.76196 0.83549
 C1203 C 0.85679 0.75154 0.83251
 H1204 H 0.87565 0.78680 0.93551
 H1205 H 0.92109 0.77842 0.95857
 H1206 H 0.95124 0.73375 0.88342
 H1207 H 0.83309 0.78908 0.90244
 H1208 H 0.79904 0.78392 0.86321
 H1209 H 0.86358 0.74066 0.81358
 C1210 C 0.42429 0.24624 0.38624
 C1211 C 0.40499 0.22863 0.39940
 C1212 C 0.41001 0.21624 0.42534
 C1213 C 0.43588 0.22260 0.43856
 C1214 C 0.45597 0.24135 0.42591
 C1215 C 0.45019 0.25296 0.39909
 O1216 O 0.41494 0.25619 0.36186
 C1217 C 0.38910 0.24466 0.35970
 C1218 C 0.38206 0.22775 0.38225
 C1219 C 0.35576 0.21446 0.38511
 C1220 C 0.33579 0.21872 0.36384
 C1221 C 0.34241 0.23584 0.34011
 C1222 C 0.36963 0.24887 0.33793
 H1223 H 0.39444 0.20237 0.43517
 H1224 H 0.44016 0.21306 0.45876
 H1225 H 0.46492 0.26756 0.38903
 H1226 H 0.35069 0.20147 0.40320
 H1227 H 0.31519 0.20839 0.36578
 H1228 H 0.37520 0.26223 0.32024
 C1229 C 0.08164 0.73902 0.10900
 C1230 C 0.10462 0.74506 0.09198
 C1231 C 0.10205 0.75275 0.06405
 C1232 C 0.07459 0.75420 0.05302
 C1233 C 0.05023 0.74747 0.06973
 C1234 C 0.05394 0.73988 0.09831
 O1235 O 0.08906 0.73323 0.13529
 C1236 C 0.11731 0.73565 0.13467
 C1237 C 0.12775 0.74271 0.10857
 C1238 C 0.15651 0.74669 0.10295
 C1239 C 0.17546 0.74349 0.12524
 C1240 C 0.16546 0.73663 0.15267
 C1241 C 0.13583 0.73251 0.15735
 H1242 H 0.12053 0.75794 0.05132
 H1243 H 0.07239 0.76115 0.03149
 H1244 H 0.03598 0.73477 0.11175
 H1245 H 0.16408 0.75232 0.08217
 H1246 H 0.19793 0.74693 0.12110
 H1247 H 0.12743 0.72747 0.17798
 C1248 C 0.58696 0.26098 0.61647
 C1249 C 0.60826 0.27627 0.60344
 C1250 C 0.60450 0.29053 0.57832
 C1251 C 0.57772 0.28865 0.56572
 C1252 C 0.55539 0.27225 0.57799
 C1253 C 0.56001 0.25857 0.60411
 O1254 O 0.59542 0.24903 0.64032
 C1255 C 0.62266 0.25690 0.64214
 C1256 C 0.63143 0.27342 0.61992
 C1257 C 0.65913 0.28334 0.61676
 C1258 C 0.67876 0.27605 0.63745
 C1259 C 0.67046 0.25941 0.66100
 C1260 C 0.64185 0.24977 0.66344
 H1261 H 0.62161 0.30262 0.56868
 H1262 H 0.57445 0.29989 0.54620
 H1263 H 0.54355 0.24581 0.61399
 H1264 H 0.66546 0.29616 0.59892
 H1265 H 0.70039 0.28385 0.63530
 H1266 H 0.63490 0.23700 0.68110
 C1267 C 0.88788 0.24642 0.08050
 C1268 C 0.89761 0.22705 0.09966
 C1269 C 0.91991 0.20864 0.09406
 C1270 C 0.93333 0.21079 0.06781
 C1271 C 0.92480 0.23161 0.04805
 C1272 C 0.90123 0.24926 0.05439
 O1273 O 0.86646 0.26200 0.09024
 C1274 C 0.86283 0.25238 0.11623
 C1275 C 0.88164 0.23122 0.12304
 C1276 C 0.88284 0.21908 0.14952
 C1277 C 0.86364 0.22893 0.16981
 C1278 C 0.84341 0.25014 0.16319
 C1279 C 0.84288 0.26198 0.13594
 H1280 H 0.92693 0.19337 0.10946
 H1281 H 0.95074 0.19655 0.06314
 H1282 H 0.89436 0.26563 0.04007
 H1283 H 0.89809 0.20271 0.15443
 H1284 H 0.86395 0.21942 0.19049
 H1285 H 0.82765 0.27818 0.13041
 C1286 C 0.38070 0.74346 0.58053
 C1287 C 0.39213 0.72592 0.60048
 C1288 C 0.41568 0.70895 0.59535
 C1289 C 0.42842 0.71057 0.56870
 C1290 C 0.41797 0.72951 0.54799
 C1291 C 0.39336 0.74584 0.55405
 O1292 O 0.35804 0.75758 0.58969
 C1293 C 0.35529 0.74889 0.61610
 C1294 C 0.37586 0.72976 0.62376
 C1295 C 0.37779 0.71867 0.65066
 C1296 C 0.35747 0.72739 0.67044
 C1297 C 0.33546 0.74645 0.66294
 C1298 C 0.33432 0.75733 0.63530
 H1299 H 0.42401 0.69500 0.61132
 H1300 H 0.44658 0.69719 0.56439
 H1301 H 0.38490 0.76081 0.53909
 H1302 H 0.39432 0.70382 0.65623
 H1303 H 0.35832 0.71854 0.69140
 H1304 H 0.31772 0.77181 0.62902
 C1305 C 0.25198 0.11187 0.91588
 C1306 C 0.25894 0.09515 0.89326
 C1307 C 0.26205 0.06602 0.89510
 C1308 C 0.25804 0.05342 0.92141
 C1309 C 0.25090 0.06983 0.94576
 C1310 C 0.24789 0.09981 0.94250
 O1311 O 0.24986 0.13922 0.90925
 C1312 C 0.25579 0.13961 0.88186
 C1313 C 0.26155 0.11312 0.87121
 C1314 C 0.26821 0.10831 0.84317
 C1315 C 0.26868 0.13174 0.82516
 C1316 C 0.26247 0.15948 0.83526
 C1317 C 0.25612 0.16341 0.86424
 H1318 H 0.26782 0.05339 0.87694
 H1319 H 0.26210 0.03090 0.92264
 H1320 H 0.24184 0.11348 0.95978
 H1321 H 0.27267 0.08719 0.83536
 H1322 H 0.27357 0.12807 0.80320
 H1323 H 0.25103 0.18414 0.87267
 C1324 C 0.74342 0.61716 0.41035
 C1325 C 0.75600 0.60144 0.38938
 C1326 C 0.76362 0.57325 0.39275
 C1327 C 0.75829 0.56075 0.41893
 C1328 C 0.74527 0.57637 0.44112
 C1329 C 0.73764 0.60507 0.43655
 O1330 O 0.73828 0.64376 0.40282
 C1331 C 0.74788 0.64480 0.37653
 C1332 C 0.75888 0.61942 0.36734
 C1333 C 0.77003 0.61563 0.34052
 C1334 C 0.76962 0.63891 0.32227
 C1335 C 0.75834 0.66542 0.33111
 C1336 C 0.74747 0.66835 0.35880
 H1337 H 0.77375 0.56143 0.37597
 H1338 H 0.76510 0.53909 0.42208
 H1339 H 0.72767 0.61765 0.45287
 H1340 H 0.77858 0.59542 0.33382
 H1341 H 0.77807 0.63622 0.30123
 H1342 H 0.73848 0.68815 0.36616
 C1343 C 0.75561 0.09189 0.11278
 C1344 C 0.76734 0.11338 0.09704
 C1345 C 0.77526 0.10987 0.06919
 C1346 C 0.77091 0.08313 0.05694
 C1347 C 0.75828 0.06014 0.07231
 C1348 C 0.75071 0.06510 0.10099
 O1349 O 0.74967 0.09974 0.13900
 C1350 C 0.75788 0.12678 0.13973
 C1351 C 0.76874 0.13616 0.11451
 C1352 C 0.77810 0.16388 0.11030
 C1353 C 0.77606 0.18280 0.13302
 C1354 C 0.76508 0.17370 0.15937
 C1355 C 0.75605 0.14514 0.16277
 H1356 H 0.78489 0.12705 0.05736
 H1357 H 0.77863 0.08044 0.03567
 H1358 H 0.74032 0.04926 0.11388
 H1359 H 0.78650 0.17076 0.09021
 H1360 H 0.78328 0.20449 0.13013
 H1361 H 0.74739 0.13762 0.18254
 C1362 C 0.25441 0.58490 0.61044
 C1363 C 0.27316 0.60391 0.59846
 C1364 C 0.28876 0.59767 0.57436
 C1365 C 0.28466 0.57086 0.56195
 C1366 C 0.26473 0.55103 0.57335
 C1367 C 0.24954 0.55841 0.59815
 O1368 O 0.24205 0.59472 0.63361
 C1369 C 0.25314 0.62057 0.63627
 C1370 C 0.27209 0.62738 0.61515
 C1371 C 0.28558 0.65374 0.61348
 C1372 C 0.27939 0.67378 0.63454
 C1373 C 0.26045 0.66693 0.65688
 C1374 C 0.24720 0.63991 0.65774
 H1375 H 0.30371 0.61283 0.56550
 H1376 H 0.29719 0.56562 0.54354
 H1377 H 0.23382 0.54431 0.60739
 H1378 H 0.30029 0.65871 0.59659
 H1379 H 0.28984 0.69435 0.63385
 H1380 H 0.23258 0.63421 0.67450
 C1381 C 0.73751 0.91386 0.88762
 C1382 C 0.74608 0.89126 0.90357
 C1383 C 0.75590 0.89413 0.93085
 C1384 C 0.75683 0.92146 0.94236
 C1385 C 0.74718 0.94542 0.92695
 C1386 C 0.73742 0.94131 0.89896
 O1387 O 0.73041 0.90643 0.86155
 C1388 C 0.73453 0.87851 0.86123
 C1389 C 0.74381 0.86828 0.88659
 C1390 C 0.74946 0.83985 0.89126
 C1391 C 0.74576 0.82107 0.86875
 C1392 C 0.73718 0.83095 0.84188
 C1393 C 0.73122 0.86021 0.83821
 H1394 H 0.76325 0.87602 0.94267
 H1395 H 0.76569 0.92380 0.96318
 H1396 H 0.72987 0.95870 0.88630
 H1397 H 0.75663 0.83237 0.91150
 H1398 H 0.75028 0.79887 0.87223
 H1399 H 0.72468 0.86850 0.81807
 C1400 C 0.25394 0.40305 0.39087
 C1401 C 0.27136 0.38363 0.40355
 C1402 C 0.28695 0.38984 0.42758
 C1403 C 0.28415 0.41708 0.43926
 C1404 C 0.26555 0.43736 0.42718
 C1405 C 0.25043 0.43006 0.40239
 O1406 O 0.24144 0.39307 0.36785
 C1407 C 0.25110 0.36671 0.36604
 C1408 C 0.26926 0.35980 0.38754
 C1409 C 0.28145 0.33314 0.39006
 C1410 C 0.27494 0.31286 0.36938
 C1411 C 0.25687 0.31965 0.34651
 C1412 C 0.24472 0.34703 0.34495
 H1413 H 0.30087 0.37431 0.43694
 H1414 H 0.29656 0.42227 0.45770
 H1415 H 0.23574 0.44463 0.39267
 H1416 H 0.29559 0.32817 0.40723
 H1417 H 0.28473 0.29216 0.37072
 H1418 H 0.23093 0.35288 0.32776
 C1419 C 0.23975 0.87911 0.08200
 C1420 C 0.22131 0.88985 0.10176
 C1421 C 0.20619 0.91481 0.09772
 C1422 C 0.21026 0.92935 0.07224
 C1423 C 0.22945 0.91899 0.05149
 C1424 C 0.24439 0.89339 0.05671
 O1425 O 0.25207 0.85511 0.08996
 C1426 C 0.24120 0.85062 0.11540
 C1427 C 0.22239 0.87138 0.12363
 C1428 C 0.20910 0.87140 0.14975
 C1429 C 0.21553 0.84923 0.16821
 C1430 C 0.23475 0.82737 0.16030
 C1431 C 0.24756 0.82798 0.13331
 H1432 H 0.19167 0.92277 0.11357
 H1433 H 0.19821 0.94849 0.06866
 H1434 H 0.25965 0.88499 0.04178
 H1435 H 0.19446 0.88801 0.15581
 H1436 H 0.20529 0.84897 0.18866
 H1437 H 0.26240 0.81174 0.12673
 C1438 C 0.73608 0.39018 0.58609
 C1439 C 0.74384 0.40720 0.60828
 C1440 C 0.74816 0.43625 0.60576
 C1441 C 0.74484 0.44829 0.57911
 C1442 C 0.73685 0.43137 0.55555
 C1443 C 0.73196 0.40182 0.55946
 O1444 O 0.73439 0.36284 0.59283
 C1445 C 0.74128 0.36269 0.61990
 C1446 C 0.74710 0.38936 0.63029
 C1447 C 0.75514 0.39429 0.65789
 C1448 C 0.75705 0.37078 0.67567
 C1449 C 0.75123 0.34286 0.66566
 C1450 C 0.74342 0.33881 0.63717
 H1451 H 0.75476 0.44908 0.62351
 H1452 H 0.74973 0.47064 0.57682
 H1453 H 0.72574 0.38808 0.54226
 H1454 H 0.75975 0.41549 0.66549
 H1455 H 0.76323 0.37443 0.69728
 H1456 H 0.73898 0.31788 0.62880
 C1457 C 0.09487 0.10402 0.75639
 C1458 C 0.11434 0.09210 0.77425
 C1459 C 0.10790 0.06853 0.79069
 C1460 C 0.08041 0.05669 0.78840
 C1461 C 0.06011 0.06824 0.76954
 C1462 C 0.06778 0.09233 0.75335
 O1463 O 0.10464 0.12692 0.74333
 C1464 C 0.13094 0.12953 0.75305
 C1465 C 0.13814 0.10863 0.77182
 C1466 C 0.16481 0.10752 0.78448
 C1467 C 0.18456 0.12912 0.77789
 C1468 C 0.17707 0.15139 0.75937
 C1469 C 0.14996 0.15134 0.74661
 H1470 H 0.12339 0.05974 0.80497
 H1471 H 0.07499 0.03866 0.80145
 H1472 H 0.05336 0.10156 0.73829
 H1473 H 0.17007 0.09090 0.79919
 H1474 H 0.20516 0.12920 0.78809
 H1475 H 0.14364 0.16816 0.73253
 C1476 C 0.59443 0.60930 0.25865
 C1477 C 0.61705 0.59270 0.25059
 C1478 C 0.61422 0.56385 0.24512
 C1479 C 0.58696 0.55167 0.24785
 C1480 C 0.56313 0.56824 0.25636
 C1481 C 0.56724 0.59756 0.26201
 O1482 O 0.60142 0.63645 0.26186
 C1483 C 0.62904 0.63697 0.25570
 C1484 C 0.63973 0.61076 0.24881
 C1485 C 0.66818 0.60664 0.24154
 C1486 C 0.68632 0.63053 0.24136
 C1487 C 0.67570 0.65791 0.24805
 C1488 C 0.64654 0.66098 0.25530
 H1489 H 0.63223 0.55127 0.23838
 H1490 H 0.58442 0.52945 0.24254
 H1491 H 0.54983 0.61098 0.26865
 H1492 H 0.67613 0.58579 0.23619
 H1493 H 0.70852 0.62771 0.23577
 H1494 H 0.63761 0.68146 0.26053
 C1495 C 0.10264 0.89394 0.24715
 C1496 C 0.09059 0.87531 0.22832
 C1497 C 0.06639 0.88198 0.21286
 C1498 C 0.05456 0.90914 0.21664
 C1499 C 0.06691 0.92880 0.23582
 C1500 C 0.09087 0.92047 0.25178
 O1501 O 0.12638 0.88446 0.25868
 C1502 C 0.12952 0.85919 0.24691
 C1503 C 0.10808 0.85235 0.22835
 C1504 C 0.10756 0.82689 0.21349
 C1505 C 0.13004 0.80787 0.21790
 C1506 C 0.15267 0.81488 0.23647
 C1507 C 0.15230 0.84092 0.25117
 H1508 H 0.05744 0.86714 0.19784
 H1509 H 0.03645 0.91509 0.20400
 H1510 H 0.10066 0.93450 0.26705
 H1511 H 0.09060 0.82193 0.19890
 H1512 H 0.13023 0.78804 0.20631
 H1513 H 0.16927 0.84683 0.26543
 C1514 C 0.61049 0.40546 0.73017
 C1515 C 0.59508 0.38356 0.74187
 C1516 C 0.56641 0.38586 0.74895
 C1517 C 0.55327 0.41215 0.74465
 C1518 C 0.56884 0.43545 0.73328
 C1519 C 0.59771 0.43155 0.72513
 O1520 O 0.63783 0.39935 0.72628
 C1521 C 0.63976 0.37300 0.73586
 C1522 C 0.61415 0.36240 0.74556
 C1523 C 0.61129 0.33554 0.75715
 C1524 C 0.63573 0.31872 0.75842
 C1525 C 0.66249 0.32896 0.74841
 C1526 C 0.66451 0.35669 0.73717
 H1527 H 0.55485 0.36837 0.75846
 H1528 H 0.53144 0.41469 0.75160
 H1529 H 0.61029 0.44866 0.71621
 H1530 H 0.59096 0.32778 0.76487
 H1531 H 0.63374 0.29761 0.76721
 H1532 H 0.68452 0.36508 0.72922
 C1533 C 0.90084 0.09767 0.22955
 C1534 C 0.91827 0.11942 0.23850
 C1535 C 0.94640 0.11518 0.24646
 C1536 C 0.95670 0.08725 0.24594
 C1537 C 0.93889 0.06429 0.23740
 C1538 C 0.91083 0.06997 0.22817
 O1539 O 0.87417 0.10562 0.22522
 C1540 C 0.87468 0.13300 0.23171
 C1541 C 0.90118 0.14257 0.23979
 C1542 C 0.90611 0.17022 0.24891
 C1543 C 0.88275 0.18865 0.24991
 C1544 C 0.85504 0.17909 0.24224
 C1545 C 0.85115 0.15086 0.23271
 H1546 H 0.95955 0.13254 0.25400
 H1547 H 0.97802 0.08342 0.25360
 H1548 H 0.89660 0.05317 0.22133
 H1549 H 0.92707 0.17721 0.25548
 H1550 H 0.88620 0.21016 0.25729
 H1551 H 0.83036 0.14280 0.22677
 C1552 C 0.39136 0.59313 0.72390
 C1553 C 0.40830 0.61514 0.73311
 C1554 C 0.43692 0.61175 0.73961
 C1555 C 0.44834 0.58439 0.73725
 C1556 C 0.43121 0.56107 0.72825
 C1557 C 0.40244 0.56594 0.72070
 O1558 O 0.36426 0.60032 0.72082
 C1559 C 0.36406 0.62745 0.72838
 C1560 C 0.39050 0.63759 0.73594
 C1561 C 0.39495 0.66509 0.74567
 C1562 C 0.37116 0.68287 0.74771
 C1563 C 0.34352 0.67283 0.74039
 C1564 C 0.34008 0.64467 0.73043
 H1565 H 0.44968 0.62929 0.74737
 H1566 H 0.47012 0.58127 0.74388
 H1567 H 0.38862 0.54890 0.71363
 H1568 H 0.41592 0.67251 0.75175
 H1569 H 0.37429 0.70432 0.75537
 H1570 H 0.31937 0.63629 0.72464
 C1571 C 0.90075 0.89331 0.75478
 C1572 C 0.88159 0.90555 0.77300
 C1573 C 0.88867 0.92880 0.78975
 C1574 C 0.91656 0.93981 0.78755
 C1575 C 0.93663 0.92771 0.76855
 C1576 C 0.92819 0.90420 0.75182
 O1577 O 0.89050 0.87062 0.74166
 C1578 C 0.86423 0.86843 0.75174
 C1579 C 0.85749 0.88941 0.77078
 C1580 C 0.83100 0.89074 0.78403
 C1581 C 0.81095 0.86933 0.77772
 C1582 C 0.81795 0.84698 0.75889
 C1583 C 0.84489 0.84682 0.74553
 H1584 H 0.87344 0.93786 0.80432
 H1585 H 0.92254 0.95744 0.80096
 H1586 H 0.94245 0.89458 0.73667
 H1587 H 0.82610 0.90737 0.79899
 H1588 H 0.79047 0.86949 0.78832
 H1589 H 0.85087 0.82999 0.73116
 C1590 C 0.41192 0.38507 0.26458
 C1591 C 0.39127 0.39726 0.28113
 C1592 C 0.39595 0.42235 0.29600
 C1593 C 0.42297 0.43536 0.29365
 C1594 C 0.44459 0.42339 0.27633
 C1595 C 0.43858 0.39785 0.26152
 O1596 O 0.40362 0.36092 0.25265
 C1597 C 0.37706 0.35774 0.26178
 C1598 C 0.36830 0.37949 0.27908
 C1599 C 0.34102 0.38043 0.29067
 C1600 C 0.32220 0.35796 0.28433
 C1601 C 0.33104 0.33496 0.26706
 C1602 C 0.35891 0.33499 0.25563
 H1603 H 0.37949 0.43144 0.30917
 H1604 H 0.42703 0.45454 0.30558
 H1605 H 0.45400 0.38823 0.24753
 H1606 H 0.33451 0.39775 0.30418
 H1607 H 0.30101 0.35810 0.29347
 H1608 H 0.36627 0.31780 0.24236
   
