data_POSCAR
  _audit_creation_date              2014-09-24
  _audit_creation_method            'ToBaCCo'
  _symmetry_space_group_name_H-M    'P1'
  _symmetry_Int_Tables_number       1
  _symmetry_cell_setting            triclinic
  loop_
  _symmetry_equiv_pos_as_xyz
 x,y,z
_cell_length_a 104.9399
_cell_length_b 104.5570
_cell_length_c 103.4431
_cell_angle_alpha 90.045200
_cell_angle_beta 90.054100
_cell_angle_gamma 90.008300
loop_
  _atom_site_label
  _atom_site_type_symbol
  _atom_site_fract_x
  _atom_site_fract_y
  _atom_site_fract_z
C1 C 0.32270 0.44392 0.92864
 C2 C 0.31801 0.44890 0.91698
 C3 C 0.30783 0.44293 0.91052
 C4 C 0.30231 0.43188 0.91584
 C5 C 0.30679 0.42687 0.92757
 C6 C 0.31700 0.43294 0.93401
 C7 C 0.33324 0.44954 0.93479
 C8 C 0.33829 0.44443 0.94639
 C9 C 0.33199 0.43377 0.95191
 C10 C 0.32160 0.42794 0.94574
 C11 C 0.31593 0.41700 0.95103
 C12 C 0.30595 0.41068 0.94455
 C13 C 0.30138 0.41576 0.93284
 H14 H 0.32243 0.45729 0.91276
 H15 H 0.29444 0.42726 0.91089
 H16 H 0.33785 0.45746 0.92997
 H17 H 0.33496 0.42997 0.96115
 H18 H 0.31939 0.41331 0.96017
 H19 H 0.29383 0.41091 0.92763
 C20 C 0.44271 0.82257 0.42850
 C21 C 0.44843 0.83275 0.43520
 C22 C 0.44232 0.83857 0.44587
 C23 C 0.43055 0.83345 0.45003
 C24 C 0.42488 0.82311 0.44360
 C25 C 0.43086 0.81778 0.43267
 C26 C 0.44852 0.81733 0.41749
 C27 C 0.44256 0.80748 0.41044
 C28 C 0.43076 0.80271 0.41475
 C29 C 0.42493 0.80772 0.42585
 C30 C 0.41317 0.80294 0.43011
 C31 C 0.40727 0.80798 0.44122
 C32 C 0.41323 0.81808 0.44789
 H33 H 0.45729 0.83659 0.43149
 H34 H 0.42587 0.83727 0.45853
 H35 H 0.45770 0.82096 0.41440
 H36 H 0.42595 0.79527 0.40932
 H37 H 0.40855 0.79538 0.42468
 H38 H 0.40888 0.82199 0.45653
 C39 C 0.94159 0.92422 0.82424
 C40 C 0.94691 0.91314 0.81875
 C41 C 0.94204 0.90785 0.80715
 C42 C 0.93176 0.91424 0.80109
 C43 C 0.92624 0.92516 0.80659
 C44 C 0.93114 0.93016 0.81822
 C45 C 0.94640 0.92922 0.83586
 C46 C 0.94101 0.94023 0.84166
 C47 C 0.93047 0.94601 0.83541
 C48 C 0.92551 0.94103 0.82387
 C49 C 0.91487 0.94671 0.81796
 C50 C 0.90982 0.94171 0.80641
 C51 C 0.91575 0.93106 0.80068
 H52 H 0.95448 0.90841 0.82400
 H53 H 0.92811 0.91099 0.79188
 H54 H 0.95406 0.92409 0.84056
 H55 H 0.92629 0.95471 0.83915
 H56 H 0.91031 0.95480 0.82259
 H57 H 0.91213 0.92727 0.79164
 C58 C 0.44475 -0.07310 0.32031
 C59 C 0.45021 -0.08383 0.31433
 C60 C 0.44521 -0.08865 0.30267
 C61 C 0.43489 -0.08229 0.29682
 C62 C 0.42920 -0.07170 0.30280
 C63 C 0.43407 -0.06714 0.31464
 C64 C 0.44961 -0.06844 0.33203
 C65 C 0.44378 -0.05805 0.33837
 C66 C 0.43298 -0.05233 0.33273
 C67 C 0.42813 -0.05675 0.32091
 C68 C 0.41725 -0.05115 0.31541
 C69 C 0.41229 -0.05567 0.30361
 C70 C 0.41850 -0.06582 0.29728
 H71 H 0.45807 -0.08869 0.31903
 H72 H 0.43113 -0.08571 0.28769
 H73 H 0.45800 -0.07288 0.33617
 H74 H 0.42818 -0.04454 0.33765
 H75 H 0.41246 -0.04348 0.32051
 H76 H 0.41492 -0.06928 0.28808
 C77 C 0.82430 0.30903 0.32261
 C78 C 0.81840 0.30386 0.33361
 C79 C 0.80683 0.30893 0.33823
 C80 C 0.80115 0.31918 0.33157
 C81 C 0.80707 0.32460 0.32074
 C82 C 0.81867 0.31951 0.31622
 C83 C 0.83589 0.30406 0.31809
 C84 C 0.84191 0.30934 0.30716
 C85 C 0.83621 0.31983 0.30088
 C86 C 0.82473 0.32503 0.30541
 C87 C 0.81937 0.33585 0.29949
 C88 C 0.80794 0.34120 0.30416
 C89 C 0.80171 0.33526 0.31459
 H90 H 0.82298 0.29609 0.33874
 H91 H 0.79214 0.32304 0.33488
 H92 H 0.84032 0.29621 0.32323
 H93 H 0.84064 0.32393 0.29239
 H94 H 0.82435 0.34037 0.29154
 H95 H 0.79274 0.33906 0.31809
 C96 C -0.19272 0.82632 0.82040
 C97 C -0.19772 0.83731 0.81453
 C98 C -0.19129 0.84349 0.80427
 C99 C -0.17979 0.83796 0.79978
 C100 C -0.17479 0.82683 0.80546
 C101 C -0.18123 0.82105 0.81587
 C102 C -0.19901 0.82064 0.83089
 C103 C -0.19380 0.80993 0.83719
 C104 C -0.18240 0.80460 0.83246
 C105 C -0.17613 0.81005 0.82183
 C106 C -0.16472 0.80478 0.81719
 C107 C -0.15819 0.81046 0.80679
 C108 C -0.16329 0.82154 0.80104
 H109 H -0.20686 0.84075 0.81789
 H110 H -0.17427 0.84252 0.79226
 H111 H -0.20793 0.82467 0.83423
 H112 H -0.17818 0.79644 0.83729
 H113 H -0.16101 0.79616 0.82162
 H114 H -0.15822 0.82618 0.79322
 C115 C 0.92633 0.32339 0.44495
 C116 C 0.93211 0.33384 0.45116
 C117 C 0.94348 0.33936 0.44635
 C118 C 0.94912 0.33367 0.43533
 C119 C 0.94335 0.32334 0.42895
 C120 C 0.93186 0.31824 0.43370
 C121 C 0.91491 0.31820 0.44969
 C122 C 0.90880 0.30806 0.44320
 C123 C 0.91435 0.30310 0.43187
 C124 C 0.92585 0.30807 0.42714
 C125 C 0.93132 0.30314 0.41580
 C126 C 0.94283 0.30813 0.41100
 C127 C 0.94884 0.31815 0.41775
 H128 H 0.92719 0.33801 0.45932
 H129 H 0.95818 0.33702 0.43169
 H130 H 0.91084 0.32202 0.45850
 H131 H 0.90962 0.29551 0.42659
 H132 H 0.92646 0.29558 0.41059
 H133 H 0.95781 0.32196 0.41427
 C134 C 0.42821 0.44099 0.82215
 C135 C 0.43340 0.44556 0.83377
 C136 C 0.44434 0.43988 0.83917
 C137 C 0.44995 0.42938 0.83283
 C138 C 0.44476 0.42458 0.82130
 C139 C 0.43395 0.43050 0.81585
 C140 C 0.41722 0.44658 0.81687
 C141 C 0.41196 0.44196 0.80524
 C142 C 0.41794 0.43168 0.79889
 C143 C 0.42876 0.42582 0.80420
 C144 C 0.43428 0.41516 0.79819
 C145 C 0.44475 0.40885 0.80381
 C146 C 0.45005 0.41378 0.81529
 H147 H 0.42877 0.45343 0.83870
 H148 H 0.45843 0.42497 0.83680
 H149 H 0.41261 0.45434 0.82199
 H150 H 0.41414 0.42815 0.78982
 H151 H 0.43028 0.41166 0.78919
 H152 H 0.45802 0.40896 0.81983
 C153 C 0.82310 0.92755 0.94483
 C154 C 0.81720 0.91681 0.95033
 C155 C 0.80676 0.91070 0.94424
 C156 C 0.80214 0.91605 0.93257
 C157 C 0.80782 0.92693 0.92710
 C158 C 0.81837 0.93267 0.93323
 C159 C 0.83375 0.93312 0.95077
 C160 C 0.84016 0.94366 0.94516
 C161 C 0.83504 0.94885 0.93363
 C162 C 0.82426 0.94347 0.92770
 C163 C 0.81946 0.94855 0.91612
 C164 C 0.80897 0.94286 0.90992
 C165 C 0.80324 0.93201 0.91544
 H166 H 0.82070 0.91350 0.95957
 H167 H 0.79449 0.91151 0.92726
 H168 H 0.83682 0.92927 0.95996
 H169 H 0.83975 0.95666 0.92872
 H170 H 0.82402 0.95680 0.91178
 H171 H 0.79512 0.92763 0.91070
 C172 C 0.32399 0.82327 0.30552
 C173 C 0.31907 0.83459 0.30021
 C174 C 0.30843 0.84084 0.30577
 C175 C 0.30286 0.83527 0.31689
 C176 C 0.30762 0.82389 0.32220
 C177 C 0.31817 0.81783 0.31646
 C178 C 0.33480 0.81744 0.30012
 C179 C 0.33986 0.80616 0.30548
 C180 C 0.33371 0.80058 0.31617
 C181 C 0.32302 0.80641 0.32177
 C182 C 0.31729 0.80113 0.33278
 C183 C 0.30696 0.80728 0.33882
 C184 C 0.30215 0.81864 0.33339
 H185 H 0.32340 0.83815 0.29144
 H186 H 0.29513 0.83998 0.32190
 H187 H 0.33952 0.82195 0.29201
 H188 H 0.33733 0.79175 0.32025
 H189 H 0.32097 0.79226 0.33671
 H190 H 0.29433 0.82360 0.33804
 C191 C 0.82259 0.42922 0.44522
 C192 C 0.81664 0.41871 0.45107
 C193 C 0.80614 0.41267 0.44517
 C194 C 0.80129 0.41771 0.43355
 C195 C 0.80699 0.42839 0.42773
 C196 C 0.81780 0.43406 0.43350
 C197 C 0.83340 0.43481 0.45087
 C198 C 0.83985 0.44510 0.44487
 C199 C 0.83481 0.44987 0.43312
 C200 C 0.82390 0.44446 0.42747
 C201 C 0.81914 0.44917 0.41573
 C202 C 0.80827 0.44371 0.41002
 C203 C 0.80223 0.43333 0.41608
 H204 H 0.82029 0.41512 0.46017
 H205 H 0.79331 0.41309 0.42879
 H206 H 0.83649 0.43120 0.46016
 H207 H 0.83962 0.45740 0.42789
 H208 H 0.82379 0.45720 0.41108
 H209 H 0.79396 0.42897 0.41159
 C210 C 0.94288 0.82271 -0.07082
 C211 C 0.94857 0.83323 -0.06470
 C212 C 0.94281 0.83905 -0.05391
 C213 C 0.93147 0.83379 -0.04895
 C214 C 0.92579 0.82312 -0.05484
 C215 C 0.93144 0.81765 -0.06591
 C216 C 0.94841 0.81732 -0.08189
 C217 C 0.94255 0.80701 -0.08850
 C218 C 0.93109 0.80204 -0.08335
 C219 C 0.92558 0.80724 -0.07216
 C220 C 0.91410 0.80233 -0.06731
 C221 C 0.90845 0.80756 -0.05616
 C222 C 0.91442 0.81797 -0.04997
 H223 H 0.95746 0.83698 -0.06844
 H224 H 0.92683 0.83824 -0.04075
 H225 H 0.95748 0.82108 -0.08508
 H226 H 0.92596 0.79450 -0.08828
 H227 H 0.90945 0.79454 -0.07237
 H228 H 0.91027 0.82203 -0.04131
 C229 C 0.32391 0.32384 0.80456
 C230 C 0.31928 0.33537 0.79945
 C231 C 0.30889 0.34171 0.80522
 C232 C 0.30315 0.33629 0.81623
 C233 C 0.30753 0.32467 0.82132
 C234 C 0.31791 0.31839 0.81543
 C235 C 0.33461 0.31784 0.79914
 C236 C 0.33937 0.30636 0.80437
 C237 C 0.33297 0.30073 0.81489
 C238 C 0.32241 0.30674 0.82053
 C239 C 0.31648 0.30141 0.83141
 C240 C 0.30632 0.30775 0.83756
 C241 C 0.30187 0.31937 0.83237
 H242 H 0.32374 0.33935 0.79091
 H243 H 0.29537 0.34122 0.82098
 H244 H 0.33949 0.32236 0.79113
 H245 H 0.33634 0.29174 0.81883
 H246 H 0.31988 0.29236 0.83515
 H247 H 0.29420 0.32447 0.83711
 C248 C 0.17971 0.55405 0.56942
 C249 C 0.16825 0.54875 0.56492
 C250 C 0.16170 0.55426 0.55443
 C251 C 0.16684 0.56519 0.54843
 C252 C 0.17838 0.57048 0.55271
 C253 C 0.18488 0.56486 0.56320
 C254 C 0.18592 0.54887 0.58024
 C255 C 0.19732 0.55430 0.58491
 C256 C 0.20264 0.56479 0.57832
 C257 C 0.19645 0.57018 0.56762
 C258 C 0.20145 0.58104 0.56149
 C259 C 0.19489 0.58683 0.55119
 C260 C 0.18338 0.58146 0.54682
 H261 H 0.16448 0.54028 0.56958
 H262 H 0.16175 0.56974 0.54057
 H263 H 0.18161 0.54090 0.58530
 H264 H 0.21155 0.56890 0.58162
 H265 H 0.21023 0.58526 0.56501
 H266 H 0.17834 0.58586 0.53882
 C267 C 0.57103 0.69323 0.06988
 C268 C 0.58197 0.69862 0.06435
 C269 C 0.58834 0.69245 0.05413
 C270 C 0.58334 0.68093 0.04922
 C271 C 0.57227 0.67554 0.05452
 C272 C 0.56613 0.68167 0.06495
 C273 C 0.56510 0.69908 0.08049
 C274 C 0.55452 0.69337 0.08653
 C275 C 0.54952 0.68196 0.08135
 C276 C 0.55520 0.67613 0.07057
 C277 C 0.55031 0.66468 0.06554
 C278 C 0.55635 0.65856 0.05511
 C279 C 0.56737 0.66399 0.04971
 H280 H 0.58560 0.70760 0.06809
 H281 H 0.58825 0.67596 0.04149
 H282 H 0.56888 0.70802 0.08417
 H283 H 0.54148 0.67735 0.08596
 H284 H 0.54195 0.66037 0.06987
 H285 H 0.57205 0.65928 0.04167
 C286 C 0.69565 0.18023 0.67963
 C287 C 0.70047 0.18547 0.66816
 C288 C 0.69370 0.19499 0.66144
 C289 C 0.68211 0.19947 0.66657
 C290 C 0.67730 0.19449 0.67818
 C291 C 0.68407 0.18479 0.68470
 C292 C 0.70217 0.17034 0.68595
 C293 C 0.69721 0.16456 0.69724
 C294 C 0.68573 0.16955 0.70238
 C295 C 0.67919 0.17955 0.69621
 C296 C 0.66766 0.18417 0.70124
 C297 C 0.66080 0.19383 0.69480
 C298 C 0.66570 0.19890 0.68323
 H299 H 0.70950 0.18207 0.66442
 H300 H 0.67669 0.20666 0.66140
 H301 H 0.71127 0.16739 0.68206
 H302 H 0.68132 0.16527 0.71077
 H303 H 0.66407 0.18028 0.71023
 H304 H 0.66039 0.20613 0.67800
 C305 C 1.07390 0.05548 0.18011
 C306 C 1.08471 0.05001 0.18591
 C307 C 1.08987 0.05519 0.19734
 C308 C 1.08385 0.06579 0.20309
 C309 C 1.07317 0.07146 0.19730
 C310 C 1.06820 0.06632 0.18574
 C311 C 1.06884 0.05033 0.16867
 C312 C 1.05814 0.05592 0.16251
 C313 C 1.05273 0.06695 0.16825
 C314 C 1.05764 0.07212 0.17974
 C315 C 1.05228 0.08319 0.18517
 C316 C 1.05720 0.08845 0.19667
 C317 C 1.06755 0.08236 0.20277
 H318 H 1.08932 0.04196 0.18127
 H319 H 1.08755 0.06972 0.21203
 H320 H 1.07307 0.04164 0.16496
 H321 H 1.04498 0.07199 0.16359
 H322 H 1.04445 0.08788 0.18025
 H323 H 1.07130 0.08614 0.21175
 C324 C 0.05550 0.17779 1.07045
 C325 C 0.04988 0.16705 1.06466
 C326 C 0.05576 0.16069 1.05416
 C327 C 0.06731 0.16581 1.04934
 C328 C 0.07292 0.17668 1.05495
 C329 C 0.06704 0.18264 1.06560
 C330 C 0.04979 0.18360 1.08121
 C331 C 0.05567 0.19400 1.08748
 C332 C 0.06711 0.19892 1.08242
 C333 C 0.07279 0.19335 1.07151
 C334 C 0.08427 0.19816 1.06658
 C335 C 0.09026 0.19228 1.05594
 C336 C 0.08451 0.18150 1.05023
 H337 H 0.04074 0.16393 1.06829
 H338 H 0.07241 0.16107 1.04162
 H339 H 0.04083 0.17990 1.08481
 H340 H 0.07183 0.20683 1.08722
 H341 H 0.08850 0.20655 1.07099
 H342 H 0.08916 0.17669 1.04224
 C343 C 0.17916 0.67975 0.69723
 C344 C 0.16782 0.68466 0.70240
 C345 C 0.16145 0.69489 0.69637
 C346 C 0.16670 0.70029 0.68511
 C347 C 0.17814 0.69560 0.67994
 C348 C 0.18443 0.68532 0.68603
 C349 C 0.18517 0.66919 0.70293
 C350 C 0.19641 0.66412 0.69762
 C351 C 0.20184 0.66996 0.68669
 C352 C 0.19588 0.68047 0.68081
 C353 C 0.20098 0.68598 0.66959
 C354 C 0.19466 0.69611 0.66338
 C355 C 0.18327 0.70089 0.66863
 H356 H 0.16398 0.68049 0.71116
 H357 H 0.16176 0.70797 0.68018
 H358 H 0.18104 0.66480 0.71145
 H359 H 0.21045 0.66601 0.68250
 H360 H 0.20967 0.68214 0.66546
 H361 H 0.17842 0.70877 0.66391
 C362 C 1.19401 0.17705 0.17816
 C363 C 1.19976 0.16650 0.18418
 C364 C 1.19480 0.16131 0.19577
 C365 C 1.18414 0.16745 0.20140
 C366 C 1.17821 0.17789 0.19538
 C367 C 1.18308 0.18264 0.18366
 C368 C 1.19886 0.18188 0.16651
 C369 C 1.19281 0.19210 0.16012
 C370 C 1.18179 0.19750 0.16563
 C371 C 1.17693 0.19289 0.17736
 C372 C 1.16588 0.19821 0.18276
 C373 C 1.16094 0.19355 0.19450
 C374 C 1.16732 0.18350 0.20082
 H375 H 1.20766 0.16199 0.17926
 H376 H 1.18042 0.16434 0.21063
 H377 H 1.20743 0.17772 0.16246
 H378 H 1.17685 0.20517 0.16068
 H379 H 1.16096 0.20579 0.17766
 H380 H 1.16376 0.17994 0.20996
 C381 C 0.67818 1.07309 0.55253
 C382 C 0.66735 1.06719 0.54725
 C383 C 0.66140 1.05689 0.55360
 C384 C 0.66671 1.05231 0.56521
 C385 C 0.67771 1.05792 0.57044
 C386 C 0.68343 1.06840 0.56411
 C387 C 0.68366 1.08375 0.54649
 C388 C 0.69427 1.09016 0.55195
 C389 C 0.69963 1.08502 0.56340
 C390 C 0.69430 1.07426 0.56945
 C391 C 0.69954 1.06948 0.58097
 C392 C 0.69391 1.05904 0.58739
 C393 C 0.68293 1.05337 0.58205
 H394 H 0.66350 1.07070 0.53820
 H395 H 0.66212 1.04455 0.57036
 H396 H 0.67966 1.08683 0.53737
 H397 H 0.70750 1.08972 0.56819
 H398 H 0.70807 1.07386 0.58488
 H399 H 0.67830 1.04554 0.58703
 C400 C 0.55620 0.57177 0.18031
 C401 C 0.55071 0.56653 0.16913
 C402 C 0.55672 0.55648 0.16244
 C403 C 0.56827 0.55154 0.16727
 C404 C 0.57378 0.55655 0.17854
 C405 C 0.56776 0.56674 0.18507
 C406 C 0.55047 0.58215 0.18665
 C407 C 0.55626 0.58771 0.19755
 C408 C 0.56764 0.58250 0.20238
 C409 C 0.57340 0.57202 0.19626
 C410 C 0.58483 0.56689 0.20100
 C411 C 0.59085 0.55671 0.19456
 C412 C 0.58531 0.55165 0.18330
 H413 H 0.54173 0.57032 0.16564
 H414 H 0.57313 0.54396 0.16210
 H415 H 0.54174 0.58622 0.18283
 H416 H 0.57206 0.58667 0.21088
 H417 H 0.58920 0.57097 0.20957
 H418 H 0.58992 0.54378 0.17832
 C419 C 0.67646 0.69316 0.17602
 C420 C 0.66500 0.69801 0.18102
 C421 C 0.65981 0.69307 0.19253
 C422 C 0.66623 0.68311 0.19895
 C423 C 0.67757 0.67804 0.19396
 C424 C 0.68279 0.68316 0.18252
 C425 C 0.68155 0.69800 0.16448
 C426 C 0.69298 0.69308 0.15938
 C427 C 0.69931 0.68322 0.16605
 C428 C 0.69425 0.67815 0.17750
 C429 C 0.70030 0.66796 0.18383
 C430 C 0.69492 0.66256 0.19500
 C431 C 0.68365 0.66776 0.20010
 H432 H 0.66002 0.70548 0.17582
 H433 H 0.66244 0.67930 0.20790
 H434 H 0.67645 0.70543 0.15933
 H435 H 0.70821 0.67946 0.16234
 H436 H 0.70893 0.66390 0.17980
 H437 H 0.67956 0.66370 0.20880
 C438 C 0.17674 0.05641 1.07170
 C439 C 0.16555 0.05113 1.06647
 C440 C 0.15977 0.05633 1.05527
 C441 C 0.16562 0.06711 1.04951
 C442 C 0.17670 0.07254 1.05472
 C443 C 0.18234 0.06712 1.06580
 C444 C 0.18219 0.05127 1.08295
 C445 C 0.19335 0.05658 1.08848
 C446 C 0.19897 0.06720 1.08219
 C447 C 0.19352 0.07251 1.07104
 C448 C 0.19899 0.08329 1.06514
 C449 C 0.19324 0.08889 1.05427
 C450 C 0.18216 0.08340 1.04905
 H451 H 0.16115 0.04327 1.07159
 H452 H 0.16191 0.07114 1.04065
 H453 H 0.17724 0.04348 1.08764
 H454 H 0.20782 0.07125 1.08565
 H455 H 0.20748 0.08759 1.06925
 H456 H 0.17778 0.08766 1.04058
 C457 C 0.57277 0.17711 0.55321
 C458 C 0.58394 0.18265 0.54833
 C459 C 0.58932 0.19344 0.55432
 C460 C 0.58336 0.19879 0.56521
 C461 C 0.57225 0.19327 0.57030
 C462 C 0.56693 0.18240 0.56427
 C463 C 0.56750 0.16622 0.54735
 C464 C 0.55659 0.16032 0.55255
 C465 C 0.55081 0.16569 0.56356
 C466 C 0.55588 0.17668 0.56941
 C467 C 0.55024 0.18184 0.58053
 C468 C 0.55561 0.19252 0.58679
 C469 C 0.56659 0.19823 0.58152
 H470 H 0.58851 0.17855 0.53989
 H471 H 0.58759 0.20703 0.56992
 H472 H 0.57194 0.16233 0.53876
 H473 H 0.54258 0.16111 0.56786
 H474 H 0.54165 0.17749 0.58433
 H475 H 0.57097 0.20631 0.58635
 C476 C 0.07300 0.55419 0.68201
 C477 C 0.08436 0.54911 0.68698
 C478 C 0.08976 0.55407 0.69837
 C479 C 0.08360 0.56412 0.70488
 C480 C 0.07234 0.56944 0.69992
 C481 C 0.06700 0.56445 0.68845
 C482 C 0.06770 0.54935 0.67056
 C483 C 0.05642 0.55457 0.66543
 C484 C 0.05052 0.56481 0.67192
 C485 C 0.05580 0.56986 0.68330
 C486 C 0.05022 0.58045 0.68940
 C487 C 0.05561 0.58569 0.70069
 C488 C 0.06654 0.57991 0.70602
 H489 H 0.08903 0.54129 0.68199
 H490 H 0.08783 0.56808 0.71357
 H491 H 0.07253 0.54167 0.66550
 H492 H 0.04176 0.56886 0.66816
 H493 H 0.04193 0.58488 0.68505
 H494 H 0.07066 0.58366 0.71485
 C495 C 0.67565 0.57377 0.05417
 C496 C 0.66439 0.56825 0.04943
 C497 C 0.65918 0.55728 0.05531
 C498 C 0.66551 0.55182 0.06597
 C499 C 0.67669 0.55731 0.07090
 C500 C 0.68180 0.56831 0.06497
 C501 C 0.68070 0.58484 0.04846
 C502 C 0.69171 0.59062 0.05354
 C503 C 0.69783 0.58508 0.06424
 C504 C 0.69296 0.57397 0.06998
 C505 C 0.69895 0.56859 0.08081
 C506 C 0.69380 0.55775 0.08695
 C507 C 0.68269 0.55213 0.08183
 H508 H 0.65950 0.57270 0.04138
 H509 H 0.66173 0.54326 0.07045
 H510 H 0.67588 0.58917 0.04029
 H511 H 0.70638 0.58948 0.06812
 H512 H 0.70762 0.57290 0.08448
 H513 H 0.67846 0.54393 0.08658
 C514 C 0.05405 0.67910 0.57017
 C515 C 0.04846 0.68474 0.58110
 C516 C 0.05348 0.69607 0.58642
 C517 C 0.06398 0.70193 0.58035
 C518 C 0.06981 0.69626 0.56958
 C519 C 0.06491 0.68475 0.56453
 C520 C 0.04917 0.66769 0.56503
 C521 C 0.05515 0.66172 0.55448
 C522 C 0.06610 0.66727 0.54906
 C523 C 0.07099 0.67877 0.55397
 C524 C 0.08202 0.68425 0.54868
 C525 C 0.08703 0.69572 0.55370
 C526 C 0.08070 0.70176 0.56403
 H527 H 0.04049 0.68002 0.58572
 H528 H 0.06777 0.71081 0.58415
 H529 H 0.04086 0.66328 0.56939
 H530 H 0.07074 0.66266 0.54093
 H531 H 0.08690 0.67936 0.54088
 H532 H 0.08432 0.71070 0.56787
 C533 C 0.55454 1.06839 0.68095
 C534 C 0.54952 1.06240 0.66993
 C535 C 0.55637 1.05273 0.66337
 C536 C 0.56830 1.04896 0.66845
 C537 C 0.57328 1.05465 0.67965
 C538 C 0.56643 1.06447 0.68587
 C539 C 0.54798 1.07847 0.68694
 C540 C 0.55322 1.08486 0.69769
 C541 C 0.56496 1.08063 0.70272
 C542 C 0.57155 1.07047 0.69693
 C543 C 0.58328 1.06635 0.70192
 C544 C 0.59014 1.05645 0.69589
 C545 C 0.58508 1.05072 0.68468
 H546 H 0.54057 1.06590 0.66609
 H547 H 0.57361 1.04125 0.66400
 H548 H 0.53882 1.08143 0.68314
 H549 H 0.56921 1.08553 0.71089
 H550 H 0.58699 1.07079 0.71062
 H551 H 0.59040 1.04331 0.67974
 C552 C 0.42766 0.32072 0.94507
 C553 C 0.43324 0.33141 0.95100
 C554 C 0.44477 0.33673 0.94634
 C555 C 0.45059 0.33079 0.93555
 C556 C 0.44500 0.32021 0.92942
 C557 C 0.43352 0.31512 0.93421
 C558 C 0.41616 0.31566 0.94973
 C559 C 0.41053 0.30499 0.94376
 C560 C 0.41643 0.29945 0.93293
 C561 C 0.42782 0.30451 0.92805
 C562 C 0.43347 0.29929 0.91695
 C563 C 0.44485 0.30443 0.91196
 C564 C 0.45066 0.31474 0.91844
 H565 H 0.42813 0.33586 0.95889
 H566 H 0.45969 0.33409 0.93196
 H567 H 0.41164 0.31993 0.95811
 H568 H 0.41199 0.29133 0.92819
 H569 H 0.42879 0.29146 0.91199
 H570 H 0.45957 0.31862 0.91487
 C571 C 0.92619 0.44186 0.32474
 C572 C 0.93113 0.44664 0.33638
 C573 C 0.94167 0.44077 0.34256
 C574 C 0.94705 0.42983 0.33661
 C575 C 0.94227 0.42503 0.32490
 C576 C 0.93187 0.43111 0.31890
 C577 C 0.91551 0.44758 0.31893
 C578 C 0.91047 0.44274 0.30730
 C579 C 0.91651 0.43227 0.30133
 C580 C 0.92704 0.42635 0.30712
 C581 C 0.93263 0.41555 0.30144
 C582 C 0.94278 0.40916 0.30754
 C583 C 0.94759 0.41404 0.31926
 H584 H 0.92693 0.45527 0.34026
 H585 H 0.95467 0.42459 0.34125
 H586 H 0.91089 0.45555 0.32371
 H587 H 0.91292 0.42862 0.29222
 H588 H 0.92897 0.41207 0.29229
 H589 H 0.95528 0.40912 0.32416
 C590 C 0.32479 0.94258 0.42813
 C591 C 0.31968 0.94779 0.41675
 C592 C 0.30935 0.94186 0.41049
 C593 C 0.30412 0.93064 0.41574
 C594 C 0.30901 0.92543 0.42720
 C595 C 0.31938 0.93143 0.43343
 C596 C 0.33542 0.94822 0.43411
 C597 C 0.34084 0.94294 0.44546
 C598 C 0.33491 0.93202 0.45086
 C599 C 0.32439 0.92622 0.44489
 C600 C 0.31889 0.91516 0.45018
 C601 C 0.30866 0.90898 0.44395
 C602 C 0.30379 0.91423 0.43243
 H603 H 0.32386 0.95633 0.41260
 H604 H 0.29612 0.92607 0.41096
 H605 H 0.33977 0.95632 0.42935
 H606 H 0.33822 0.92805 0.45991
 H607 H 0.32262 0.91135 0.45915
 H608 H 0.29608 0.90946 0.42738
 O609 O 0.25284 0.53656 0.73238
 O610 O 0.27466 0.53232 0.73384
 O611 O 0.23713 0.50329 0.71452
 O612 O 0.23630 0.48228 0.71817
 O613 O 0.21989 0.51917 0.74880
 O614 O 0.22482 0.51774 0.77129
 O615 O 0.27035 0.46894 0.74889
 O616 O 0.26739 0.47269 0.72685
 O617 O 0.28731 0.50102 0.76488
 O618 O 0.28299 0.52401 0.76454
 O619 O 0.25492 0.48550 0.78237
 O620 O 0.23222 0.48618 0.77828
 O621 O 0.25514 0.46870 0.76456
 O622 O 0.23143 0.47357 0.76356
 O623 O 0.27064 0.50044 0.78227
 O624 O 0.26899 0.52427 0.77798
 O625 O 0.28671 0.48539 0.74963
 O626 O 0.28249 0.49008 0.72626
 O627 O 0.23829 0.53672 0.74872
 O628 O 0.23934 0.53150 0.77150
 O629 O 0.21933 0.50370 0.73334
 O630 O 0.22453 0.48051 0.73483
 O631 O 0.25210 0.51902 0.71464
 O632 O 0.27514 0.51583 0.71924
 Zr633 Zr 0.26043 0.51797 0.73314
 O634 O 0.27278 0.50664 0.74437
 Zr635 Zr 0.23777 0.49572 0.73336
 O636 O 0.24935 0.48326 0.74420
 Zr637 Zr 0.23849 0.51799 0.75630
 O638 O 0.24974 0.50634 0.76839
 Zr639 Zr 0.26868 0.48730 0.74097
 O640 O 0.25711 0.49858 0.72868
 Zr641 Zr 0.26907 0.50936 0.76411
 O642 O 0.25783 0.52200 0.75293
 Zr643 Zr 0.24657 0.48696 0.76395
 O644 O 0.23397 0.49862 0.75312
 O645 O 0.24116 0.51499 0.73667
 O646 O 0.26587 0.49003 0.76070
 C647 C 0.24437 0.54214 0.73940
 C648 C 0.24330 0.51246 0.70908
 C649 C 0.21413 0.51270 0.73997
 C650 C 0.26429 0.46349 0.75818
 C651 C 0.29229 0.49157 0.75875
 C652 C 0.26434 0.49135 0.78765
 H653 H 0.28173 0.50863 0.74215
 H654 H 0.24778 0.50826 0.77753
 H655 H 0.23565 0.52054 0.73131
 H656 H 0.24738 0.47429 0.74191
 H657 H 0.26472 0.47689 0.71871
 H658 H 0.24313 0.47592 0.71956
 H659 H 0.26219 0.52243 0.78432
 H660 H 0.24779 0.53566 0.77092
 H661 H 0.28845 0.48273 0.72651
 H662 H 0.27431 0.52274 0.71271
 H663 H 0.23249 0.49434 0.78312
 H664 H 0.22065 0.50925 0.77092
 H665 H 0.27453 0.53591 0.74270
 H666 H 0.28788 0.52352 0.75639
 H667 H 0.21956 0.48197 0.74282
 H668 H 0.23307 0.46749 0.75643
 O669 O 0.26843 -0.03298 0.24949
 O670 O 0.26585 -0.02862 0.22740
 O671 O 0.28610 0.00042 0.26485
 O672 O 0.28214 0.02148 0.26574
 O673 O 0.25326 -0.01580 0.28388
 O674 O 0.23095 -0.01516 0.27970
 O675 O 0.25029 0.03456 0.23324
 O676 O 0.27202 0.03100 0.23492
 O677 O 0.23413 0.00216 0.21634
 O678 O 0.23526 -0.02090 0.22041
 O679 O 0.21821 0.01725 0.24970
 O680 O 0.22324 0.01613 0.27287
 O681 O 0.23525 0.03415 0.24906
 O682 O 0.23724 0.02934 0.27290
 O683 O 0.21760 0.00174 0.23432
 O684 O 0.22274 -0.02170 0.23510
 O685 O 0.24892 0.01803 0.21631
 O686 O 0.27219 0.01378 0.21951
 O687 O 0.25329 -0.03346 0.26525
 O688 O 0.23059 -0.02891 0.26493
 O689 O 0.26874 -0.00058 0.28357
 O690 O 0.26621 0.02264 0.27885
 O691 O 0.28554 -0.01523 0.24957
 O692 O 0.27997 -0.01192 0.22644
 Zr693 Zr 0.26697 -0.01439 0.24194
 O694 O 0.25512 -0.00319 0.23004
 Zr695 Zr 0.26740 0.00771 0.26506
 O696 O 0.25589 0.02001 0.25396
 Zr697 Zr 0.24519 -0.01498 0.26526
 O698 O 0.23253 -0.00355 0.25448
 Zr699 Zr 0.25828 0.01620 0.23419
 O700 O 0.27115 0.00507 0.24523
 Zr701 Zr 0.23593 -0.00638 0.23468
 O702 O 0.24770 -0.01884 0.24549
 Zr703 Zr 0.23664 0.01590 0.25759
 O704 O 0.24816 0.00444 0.26980
 O705 O 0.26431 -0.01157 0.26164
 O706 O 0.23902 0.01302 0.23786
 C707 C 0.26226 -0.03867 0.25857
 C708 C 0.29129 -0.00870 0.25836
 C709 C 0.26242 -0.00953 0.28919
 C710 C 0.24120 0.03971 0.23975
 C711 C 0.23983 0.01167 0.21101
 C712 C 0.21252 0.01096 0.24071
 H713 H 0.25696 -0.00507 0.22085
 H714 H 0.22367 -0.00568 0.25687
 H715 H 0.26995 -0.01704 0.26694
 H716 H 0.25804 0.02901 0.25595
 H717 H 0.28019 0.02693 0.23739
 H718 H 0.27994 0.02815 0.25935
 H719 H 0.21716 -0.02048 0.24269
 H720 H 0.23111 -0.03320 0.25642
 H721 H 0.27151 0.02114 0.21351
 H722 H 0.28654 -0.01874 0.22694
 H723 H 0.21807 0.00825 0.27221
 H724 H 0.23105 -0.00657 0.28373
 H725 H 0.25724 -0.03245 0.22799
 H726 H 0.24300 -0.02011 0.21504
 H727 H 0.25854 0.02095 0.28415
 H728 H 0.24434 0.03532 0.27119
 O729 O 0.50041 0.71500 0.23341
 O730 O 0.47867 0.71909 0.23518
 O731 O 0.51597 0.74788 0.21515
 O732 O 0.51634 0.76907 0.21832
 O733 O 0.53350 0.73256 0.24900
 O734 O 0.52917 0.73439 0.27156
 O735 O 0.48282 0.78269 0.24949
 O736 O 0.48542 0.77878 0.22751
 O737 O 0.46665 0.75110 0.26645
 O738 O 0.47067 0.72800 0.26603
 O739 O 0.49870 0.76702 0.28268
 O740 O 0.52132 0.76622 0.27870
 O741 O 0.49853 0.78335 0.26466
 O742 O 0.52228 0.77825 0.26343
 O743 O 0.48377 0.75131 0.28346
 O744 O 0.48506 0.72758 0.27899
 O745 O 0.46641 0.76592 0.25039
 O746 O 0.47060 0.76116 0.22711
 O747 O 0.51519 0.71507 0.24956
 O748 O 0.51457 0.72069 0.27237
 O749 O 0.53380 0.74789 0.23342
 O750 O 0.52859 0.77113 0.23486
 O751 O 0.50061 0.73252 0.21535
 O752 O 0.47766 0.73543 0.22054
 Zr753 Zr 0.49275 0.73356 0.23409
 O754 O 0.48057 0.74495 0.24547
 Zr755 Zr 0.51535 0.75588 0.23376
 O756 O 0.50386 0.76844 0.24458
 Zr757 Zr 0.51511 0.73391 0.25692
 O758 O 0.50408 0.74571 0.26907
 Zr759 Zr 0.48448 0.76425 0.24173
 O760 O 0.49594 0.75291 0.22938
 Zr761 Zr 0.48471 0.74251 0.26518
 O762 O 0.49574 0.72979 0.25390
 Zr763 Zr 0.50701 0.76505 0.26432
 O764 O 0.51951 0.75327 0.25348
 O765 O 0.51205 0.73665 0.23732
 O766 O 0.48767 0.76182 0.26145
 C767 C 0.50899 0.70953 0.24038
 C768 C 0.50957 0.73884 0.20976
 C769 C 0.53907 0.73884 0.23994
 C770 C 0.48916 0.78838 0.25844
 C771 C 0.46125 0.76009 0.25999
 C772 C 0.48976 0.76085 0.28842
 H773 H 0.47159 0.74288 0.24344
 H774 H 0.50623 0.74392 0.27819
 H775 H 0.51744 0.73103 0.23191
 H776 H 0.50575 0.77738 0.24214
 H777 H 0.48814 0.77457 0.21939
 H778 H 0.50973 0.77561 0.21996
 H779 H 0.49214 0.72931 0.28506
 H780 H 0.50626 0.71624 0.27179
 H781 H 0.46455 0.76845 0.22731
 H782 H 0.47843 0.72852 0.21401
 H783 H 0.52142 0.75798 0.28337
 H784 H 0.53317 0.74295 0.27110
 H785 H 0.47875 0.71587 0.24417
 H786 H 0.46554 0.72849 0.25802
 H787 H 0.53384 0.76967 0.24267
 H788 H 0.52047 0.78434 0.25634
 O789 O 0.03369 0.73204 0.75091
 O790 O 0.02961 0.73454 0.77301
 O791 O 0.00060 0.71385 0.73583
 O792 O -0.02041 0.71743 0.73506
 O793 O 0.01624 0.74701 0.71691
 O794 O 0.01500 0.76941 0.72095
 O795 O -0.03340 0.74962 0.76844
 O796 O -0.03002 0.72766 0.76614
 O797 O -0.00165 0.76603 0.78440
 O798 O 0.02139 0.76516 0.78022
 O799 O -0.01722 0.78161 0.75138
 O800 O -0.01633 0.77670 0.72823
 O801 O -0.03378 0.76422 0.75213
 O802 O -0.02910 0.76226 0.72819
 O803 O -0.00169 0.78244 0.76666
 O804 O 0.02184 0.77777 0.76544
 O805 O -0.01674 0.75046 0.78492
 O806 O -0.01244 0.72725 0.78122
 O807 O 0.03384 0.74744 0.73533
 O808 O 0.02879 0.77014 0.73567
 O809 O 0.00089 0.73166 0.71700
 O810 O -0.02220 0.73346 0.72231
 O811 O 0.01625 0.71462 0.75103
 O812 O 0.01317 0.72015 0.77420
 Zr813 Zr 0.01524 0.73324 0.75867
 O814 O 0.00405 0.74493 0.77074
 Zr815 Zr -0.00701 0.73251 0.73575
 O816 O -0.01935 0.74377 0.74709
 Zr817 Zr 0.01524 0.75517 0.73544
 O818 O 0.00371 0.76765 0.74632
 Zr819 Zr -0.01524 0.74142 0.76681
 O820 O -0.00410 0.72873 0.75556
 Zr821 Zr 0.00683 0.76425 0.76607
 O822 O 0.01934 0.75266 0.75515
 Zr823 Zr -0.01563 0.76317 0.74342
 O824 O -0.00410 0.75188 0.73107
 O825 O 0.01219 0.73591 0.73900
 O826 O -0.01245 0.76079 0.76310
 C827 C 0.03919 0.73843 0.74187
 C828 C 0.00977 0.70876 0.74230
 C829 C 0.00985 0.73801 0.71146
 C830 C -0.03886 0.75850 0.76186
 C831 C -0.01075 0.75994 0.78998
 C832 C -0.01106 0.78737 0.76041
 H833 H 0.00608 0.74310 0.77989
 H834 H 0.00564 0.77659 0.74393
 H835 H 0.01767 0.73034 0.73362
 H836 H -0.02831 0.74147 0.74525
 H837 H -0.02599 0.71945 0.76365
 H838 H -0.02686 0.71928 0.74176
 H839 H 0.02028 0.78351 0.75801
 H840 H 0.03318 0.76968 0.74413
 H841 H -0.01970 0.72772 0.78733
 H842 H 0.02004 0.71366 0.77361
 H843 H -0.00844 0.78186 0.72866
 H844 H 0.00642 0.76910 0.71698
 H845 H 0.03316 0.74329 0.77250
 H846 H 0.02072 0.75742 0.78567
 H847 H -0.02076 0.74116 0.71695
 H848 H -0.03507 0.75519 0.73009
 O849 O 0.00098 0.03341 0.01799
 O850 O -0.02085 0.02921 0.01700
 O851 O 0.01732 0.00027 0.03515
 O852 O 0.01740 -0.02090 0.03158
 O853 O 0.03358 0.01609 0.00089
 O854 O 0.02825 0.01478 -0.02156
 O855 O -0.01662 -0.03432 0.00167
 O856 O -0.01361 -0.03040 0.02348
 O857 O -0.03413 -0.00186 -0.01402
 O858 O -0.02977 0.02110 -0.01360
 O859 O -0.00215 -0.01733 -0.03232
 O860 O 0.02062 -0.01670 -0.02869
 O861 O -0.00223 -0.03412 -0.01478
 O862 O 0.02160 -0.02947 -0.01409
 O863 O -0.01782 -0.00236 -0.03179
 O864 O -0.01608 0.02143 -0.02731
 O865 O -0.03327 -0.01770 0.00098
 O866 O -0.02865 -0.01309 0.02433
 O867 O 0.01528 0.03361 0.00144
 O868 O 0.01371 0.02857 -0.02137
 O869 O 0.03441 0.00051 0.01618
 O870 O 0.02922 -0.02260 0.01460
 O871 O 0.00194 0.01559 0.03571
 O872 O -0.02117 0.01265 0.03140
 Zr873 Zr -0.00666 0.01482 0.01730
 O874 O -0.01922 0.00355 0.00621
 Zr875 Zr 0.01597 -0.00744 0.01642
 O876 O 0.00418 -0.01982 0.00570
 Zr877 Zr 0.01484 0.01496 -0.00632
 O878 O 0.00335 0.00342 -0.01829
 Zr879 Zr -0.01508 -0.01582 0.00937
 O880 O -0.00326 -0.00461 0.02152
 Zr881 Zr -0.01588 0.00642 -0.01358
 O882 O -0.00442 0.01896 -0.00251
 Zr883 Zr 0.00655 -0.01599 -0.01407
 O884 O 0.01940 -0.00444 -0.00340
 O885 O 0.01252 0.01184 0.01333
 O886 O -0.01268 -0.01295 -0.01040
 C887 C 0.00937 0.03901 0.01089
 C888 C 0.01109 0.00922 0.04090
 C889 C 0.03947 0.00961 0.00960
 C890 C -0.01095 -0.03957 -0.00799
 C891 C -0.03904 -0.01136 -0.00792
 C892 C -0.01167 -0.01144 -0.03738
 H893 H -0.02813 0.00553 0.00862
 H894 H 0.00513 0.00540 -0.02745
 H895 H 0.01812 0.01737 0.01862
 H896 H 0.00621 -0.02880 0.00786
 H897 H -0.01065 -0.02622 0.03154
 H898 H 0.01093 -0.02757 0.02987
 H899 H -0.00938 0.01964 -0.03379
 H900 H 0.00528 0.03276 -0.02055
 H901 H -0.03467 -0.02040 0.02409
 H902 H -0.02018 0.01947 0.03801
 H903 H 0.02031 -0.00850 -0.03342
 H904 H 0.03244 0.00629 -0.02130
 H905 H -0.02091 0.03283 0.00816
 H906 H -0.03451 0.02055 -0.00537
 H907 H 0.03392 -0.02119 0.00643
 H908 H 0.01999 -0.03567 -0.00706
 O909 O 0.03342 0.51520 0.50354
 O910 O 0.02935 0.51326 0.48151
 O911 O 0.00029 0.53340 0.51893
 O912 O -0.02086 0.52996 0.51904
 O913 O 0.01544 0.50003 0.53752
 O914 O 0.01435 0.47767 0.53300
 O915 O -0.03407 0.49885 0.48607
 O916 O -0.03002 0.52056 0.48812
 O917 O -0.00194 0.48212 0.46941
 O918 O 0.02108 0.48279 0.47392
 O919 O -0.01748 0.46579 0.50253
 O920 O -0.01699 0.47062 0.52551
 O921 O -0.03418 0.48332 0.50146
 O922 O -0.02974 0.48503 0.52554
 O923 O -0.00228 0.46542 0.48692
 O924 O 0.02127 0.46988 0.48839
 O925 O -0.01752 0.49720 0.46943
 O926 O -0.01273 0.52045 0.47290
 O927 O 0.03317 0.50000 0.51933
 O928 O 0.02828 0.47728 0.51838
 O929 O 0.00051 0.51578 0.53719
 O930 O -0.02255 0.51380 0.53208
 O931 O 0.01572 0.53304 0.50350
 O932 O 0.01298 0.52758 0.48028
 Zr933 Zr 0.01490 0.51439 0.49576
 O934 O 0.00367 0.50291 0.48349
 Zr935 Zr -0.00746 0.51486 0.51854
 O936 O -0.01978 0.50374 0.50705
 Zr937 Zr 0.01466 0.49217 0.51879
 O938 O 0.00320 0.47986 0.50760
 Zr939 Zr -0.01562 0.50639 0.48740
 O940 O -0.00444 0.51891 0.49883
 Zr941 Zr 0.00637 0.48353 0.48789
 O942 O 0.01885 0.49491 0.49911
 Zr943 Zr -0.01614 0.48428 0.51045
 O944 O -0.00468 0.49543 0.52305
 O945 O 0.01173 0.51149 0.51536
 O946 O -0.01293 0.48695 0.49082
 C947 C 0.03874 0.50883 0.51274
 C948 C 0.00929 0.53868 0.51242
 C949 C 0.00929 0.50927 0.54284
 C950 C -0.03946 0.48966 0.49223
 C951 C -0.01133 0.48800 0.46410
 C952 C -0.01142 0.46024 0.49331
 H953 H 0.00570 0.50482 0.47435
 H954 H 0.00512 0.47089 0.50989
 H955 H 0.01722 0.51698 0.52081
 H956 H -0.02873 0.50605 0.50893
 H957 H -0.02579 0.52862 0.49075
 H958 H -0.02760 0.52782 0.51271
 H959 H 0.01970 0.46411 0.49579
 H960 H 0.03264 0.47786 0.50992
 H961 H -0.02000 0.51999 0.46679
 H962 H 0.01980 0.53412 0.48102
 H963 H -0.00897 0.46565 0.52530
 H964 H 0.00583 0.47805 0.53708
 H965 H 0.03275 0.50444 0.48181
 H966 H 0.02038 0.49053 0.46848
 H967 H -0.02116 0.50596 0.53724
 H968 H -0.03568 0.49214 0.52367
 O969 O 0.50244 0.03246 0.51600
 O970 O 0.48061 0.02841 0.51496
 O971 O 0.51755 -0.00107 0.53464
 O972 O 0.51830 -0.02213 0.53109
 O973 O 0.53516 0.01410 0.50004
 O974 O 0.53017 0.01236 0.47755
 O975 O 0.48421 -0.03547 0.50113
 O976 O 0.48686 -0.03106 0.52288
 O977 O 0.46749 -0.00310 0.48432
 O978 O 0.47212 0.01983 0.48441
 O979 O 0.49926 -0.01955 0.46709
 O980 O 0.52217 -0.01901 0.47101
 O981 O 0.49883 -0.03581 0.48488
 O982 O 0.52267 -0.03157 0.48586
 O983 O 0.48434 -0.00381 0.46672
 O984 O 0.48601 0.01981 0.47103
 O985 O 0.46778 -0.01854 0.49976
 O986 O 0.47210 -0.01350 0.52305
 O987 O 0.51748 0.03182 0.50014
 O988 O 0.51583 0.02652 0.47730
 O989 O 0.53547 -0.00087 0.51597
 O990 O 0.53003 -0.02412 0.51443
 O991 O 0.50314 0.01518 0.53420
 O992 O 0.47998 0.01221 0.52976
 Zr993 Zr 0.49466 0.01390 0.51577
 O994 O 0.48211 0.00258 0.50473
 Zr995 Zr 0.51695 -0.00876 0.51583
 O996 O 0.50512 -0.02117 0.50518
 Zr997 Zr 0.51656 0.01312 0.49258
 O998 O 0.50508 0.00154 0.48067
 Zr999 Zr 0.48587 -0.01679 0.50840
 O1000 O 0.49766 -0.00550 0.52049
 Zr1001 Zr 0.48583 0.00499 0.48496
 O1002 O 0.49732 0.01758 0.49593
 Zr1003 Zr 0.50787 -0.01782 0.48537
 O1004 O 0.52074 -0.00627 0.49602
 O1005 O 0.51385 0.01049 0.51226
 O1006 O 0.48863 -0.01437 0.48862
 C1007 C 0.51133 0.03760 0.50919
 C1008 C 0.51168 0.00840 0.53990
 C1009 C 0.54076 0.00797 0.50919
 C1010 C 0.48993 -0.04098 0.49166
 C1011 C 0.46228 -0.01231 0.49061
 C1012 C 0.49022 -0.01331 0.46158
 H1013 H 0.47320 0.00476 0.50695
 H1014 H 0.50706 0.00331 0.47151
 H1015 H 0.51943 0.01603 0.51758
 H1016 H 0.50697 -0.03013 0.50759
 H1017 H 0.48975 -0.02674 0.53088
 H1018 H 0.51132 -0.02835 0.52981
 H1019 H 0.49312 0.01814 0.46499
 H1020 H 0.50761 0.03108 0.47813
 H1021 H 0.46597 -0.02072 0.52289
 H1022 H 0.48099 0.01916 0.53623
 H1023 H 0.52182 -0.01105 0.46587
 H1024 H 0.53414 0.00378 0.47802
 H1025 H 0.48066 0.03179 0.50602
 H1026 H 0.46713 0.01942 0.49251
 H1027 H 0.53502 -0.02275 0.50643
 H1028 H 0.52093 -0.03749 0.49310
 O1029 O 0.48316 0.46329 0.00188
 O1030 O 0.48463 0.46815 0.02382
 O1031 O 0.46566 0.49645 -0.01482
 O1032 O 0.46954 0.51739 -0.01628
 O1033 O 0.49910 0.47968 -0.03214
 O1034 O 0.52136 0.48107 -0.02738
 O1035 O 0.50019 0.53126 0.01769
 O1036 O 0.47840 0.52765 0.01495
 O1037 O 0.51565 0.49941 0.03562
 O1038 O 0.51509 0.47633 0.03178
 O1039 O 0.53288 0.51396 0.00226
 O1040 O 0.52872 0.51271 -0.02070
 O1041 O 0.51549 0.53093 0.00211
 O1042 O 0.51430 0.52540 -0.02178
 O1043 O 0.53269 0.49943 0.01858
 O1044 O 0.52823 0.47561 0.01752
 O1045 O 0.50082 0.51521 0.03474
 O1046 O 0.47772 0.51068 0.03070
 O1047 O 0.49882 0.46278 -0.01334
 O1048 O 0.52146 0.46763 -0.01220
 O1049 O 0.48392 0.49518 -0.03300
 O1050 O 0.48590 0.51855 -0.02844
 O1051 O 0.46570 0.48111 0.00076
 O1052 O 0.47050 0.48478 0.02403
 Zr1053 Zr 0.48403 0.48212 0.00903
 O1054 O 0.49532 0.49367 0.02117
 Zr1055 Zr 0.48433 0.50378 -0.01455
 O1056 O 0.49524 0.51643 -0.00320
 Zr1057 Zr 0.50668 0.48132 -0.01340
 O1058 O 0.51882 0.49312 -0.00239
 Zr1059 Zr 0.49217 0.51294 0.01654
 O1060 O 0.47984 0.50148 0.00518
 Zr1061 Zr 0.51471 0.49064 0.01732
 O1062 O 0.50347 0.47783 0.00633
 Zr1063 Zr 0.51465 0.51245 -0.00606
 O1064 O 0.50374 0.50059 -0.01849
 O1065 O 0.48739 0.48459 -0.01060
 O1066 O 0.51156 0.50992 0.01362
 C1067 C 0.48974 0.45753 -0.00686
 C1068 C 0.46022 0.48753 -0.00828
 C1069 C 0.49029 0.48592 -0.03804
 C1070 C 0.50932 0.53646 0.01130
 C1071 C 0.50975 0.50904 0.04050
 C1072 C 0.53806 0.50831 0.01195
 H1073 H 0.49317 0.49194 0.03031
 H1074 H 0.52779 0.49105 -0.00439
 H1075 H 0.48196 0.47896 -0.01597
 H1076 H 0.49307 0.52536 -0.00541
 H1077 H 0.47032 0.52348 0.01235
 H1078 H 0.47110 0.52395 -0.00958
 H1079 H 0.53440 0.47718 0.01048
 H1080 H 0.52073 0.46360 -0.00358
 H1081 H 0.47809 0.51818 0.03656
 H1082 H 0.46393 0.47797 0.02337
 H1083 H 0.53334 0.50448 -0.02029
 H1084 H 0.52101 0.48943 -0.03187
 H1085 H 0.49334 0.46452 0.02379
 H1086 H 0.50712 0.47706 0.03683
 H1087 H 0.49367 0.51678 -0.03356
 H1088 H 0.50732 0.53157 -0.02027
 O1089 O 0.74885 0.27010 0.46558
 O1090 O 0.72701 0.26844 0.46996
 O1091 O 0.76517 0.28573 0.49968
 O1092 O 0.76561 0.28116 0.52092
 O1093 O 0.78194 0.25278 0.48198
 O1094 O 0.77686 0.23048 0.48217
 O1095 O 0.73234 0.25058 0.53333
 O1096 O 0.73497 0.27239 0.53032
 O1097 O 0.71457 0.23628 0.50006
 O1098 O 0.71863 0.23782 0.47683
 O1099 O 0.74709 0.21789 0.51433
 O1100 O 0.76977 0.22191 0.51370
 O1101 O 0.74688 0.23446 0.53219
 O1102 O 0.77067 0.23575 0.52728
 O1103 O 0.73126 0.21888 0.49938
 O1104 O 0.73248 0.22451 0.47564
 O1105 O 0.71556 0.25026 0.51688
 O1106 O 0.71959 0.27364 0.51314
 O1107 O 0.76338 0.25395 0.46442
 O1108 O 0.76220 0.23114 0.46839
 O1109 O 0.78249 0.26758 0.49810
 O1110 O 0.77788 0.26449 0.52148
 O1111 O 0.74965 0.28676 0.48435
 O1112 O 0.72666 0.28199 0.48735
 Zr1113 Zr 0.74137 0.26838 0.48436
 O1114 O 0.72912 0.25672 0.49536
 Zr1115 Zr 0.76428 0.26684 0.50654
 O1116 O 0.75284 0.25548 0.51867
 Zr1117 Zr 0.76327 0.24538 0.48287
 O1118 O 0.75207 0.23286 0.49406
 Zr1119 Zr 0.73350 0.25902 0.51501
 O1120 O 0.74495 0.27173 0.50413
 Zr1121 Zr 0.73272 0.23736 0.49147
 O1122 O 0.74389 0.24902 0.47921
 Zr1123 Zr 0.75545 0.23615 0.51382
 O1124 O 0.76800 0.24745 0.50255
 O1125 O 0.76063 0.26460 0.48698
 O1126 O 0.73614 0.23965 0.51114
 C1127 C 0.75730 0.26349 0.45952
 C1128 C 0.75881 0.29171 0.49094
 C1129 C 0.78762 0.26148 0.48865
 C1130 C 0.73815 0.24084 0.53811
 C1131 C 0.70981 0.24172 0.51011
 C1132 C 0.73763 0.21300 0.50818
 H1133 H 0.72015 0.25906 0.49359
 H1134 H 0.75397 0.22393 0.49159
 H1135 H 0.76607 0.27019 0.48159
 H1136 H 0.75496 0.25723 0.52781
 H1137 H 0.73773 0.28057 0.52640
 H1138 H 0.75939 0.27894 0.52772
 H1139 H 0.73943 0.21825 0.47693
 H1140 H 0.75372 0.23203 0.46429
 H1141 H 0.71371 0.27297 0.52061
 H1142 H 0.72743 0.28880 0.48072
 H1143 H 0.76943 0.21760 0.50519
 H1144 H 0.78116 0.23040 0.49069
 H1145 H 0.72716 0.25991 0.46581
 H1146 H 0.71380 0.24588 0.47781
 H1147 H 0.78272 0.25660 0.51949
 H1148 H 0.76903 0.24240 0.53388
 O1149 O 0.74782 0.76935 -0.03620
 O1150 O 0.72596 0.76751 -0.03191
 O1151 O 0.76383 0.78479 -0.00182
 O1152 O 0.76422 0.78000 0.01936
 O1153 O 0.78100 0.75213 -0.01974
 O1154 O 0.77607 0.72978 -0.01987
 O1155 O 0.73114 0.74899 0.03127
 O1156 O 0.73360 0.77085 0.02852
 O1157 O 0.71366 0.73490 -0.00225
 O1158 O 0.71788 0.73680 -0.02550
 O1159 O 0.74625 0.71665 0.01196
 O1160 O 0.76892 0.72087 0.01151
 O1161 O 0.74583 0.73302 0.03002
 O1162 O 0.76961 0.73455 0.02525
 O1163 O 0.73033 0.71774 -0.00289
 O1164 O 0.73180 0.72348 -0.02663
 O1165 O 0.71441 0.74877 0.01466
 O1166 O 0.71832 0.77221 0.01126
 O1167 O 0.76251 0.75334 -0.03745
 O1168 O 0.76150 0.73051 -0.03373
 O1169 O 0.78132 0.76678 -0.00348
 O1170 O 0.77660 0.76342 0.01983
 O1171 O 0.74850 0.78580 -0.01733
 O1172 O 0.72551 0.78091 -0.01439
 Zr1173 Zr 0.74029 0.76740 -0.01747
 O1174 O 0.72807 0.75554 -0.00666
 Zr1175 Zr 0.76307 0.76581 0.00483
 O1176 O 0.75167 0.75423 0.01676
 Zr1177 Zr 0.76237 0.74459 -0.01908
 O1178 O 0.75120 0.73186 -0.00809
 Zr1179 Zr 0.73231 0.75766 0.01304
 O1180 O 0.74372 0.77057 0.00236
 Zr1181 Zr 0.73183 0.73624 -0.01073
 O1182 O 0.74298 0.74812 -0.02280
 Zr1183 Zr 0.75447 0.73498 0.01172
 O1184 O 0.76698 0.74650 0.00064
 O1185 O 0.75956 0.76374 -0.01478
 O1186 O 0.73514 0.73836 0.00897
 C1187 C 0.75636 0.76288 -0.04229
 C1188 C 0.75756 0.79078 -0.01061
 C1189 C 0.78657 0.76080 -0.01294
 C1190 C 0.73702 0.73926 0.03597
 C1191 C 0.70878 0.74021 0.00780
 C1192 C 0.73675 0.71183 0.00583
 H1193 H 0.71909 0.75782 -0.00845
 H1194 H 0.75318 0.72297 -0.01064
 H1195 H 0.76499 0.76942 -0.02009
 H1196 H 0.75373 0.75590 0.02594
 H1197 H 0.73633 0.77910 0.02472
 H1198 H 0.75798 0.77766 0.02611
 H1199 H 0.73871 0.71718 -0.02528
 H1200 H 0.75299 0.73130 -0.03779
 H1201 H 0.71240 0.77141 0.01868
 H1202 H 0.72627 0.78779 -0.02095
 H1203 H 0.76862 0.71661 0.00298
 H1204 H 0.78032 0.72965 -0.01132
 H1205 H 0.72620 0.75902 -0.03615
 H1206 H 0.71287 0.74473 -0.02435
 H1207 H 0.78150 0.75559 0.01779
 H1208 H 0.76791 0.74113 0.03190
 O1209 O 1.00143 0.21539 0.23470
 O1210 O 0.97964 0.21946 0.23635
 O1211 O 1.01632 0.24865 0.21573
 O1212 O 1.01700 0.26975 0.21904
 O1213 O 1.03459 0.23368 0.24995
 O1214 O 1.03011 0.23545 0.27252
 O1215 O 0.98360 0.28323 0.25015
 O1216 O 0.98600 0.27897 0.22811
 O1217 O 0.96740 0.25133 0.26727
 O1218 O 0.97183 0.22832 0.26705
 O1219 O 0.99952 0.26774 0.28344
 O1220 O 1.02246 0.26685 0.27913
 O1221 O 0.99918 0.28395 0.26544
 O1222 O 1.02279 0.27933 0.26426
 O1223 O 0.98469 0.25193 0.28433
 O1224 O 0.98617 0.22823 0.28005
 O1225 O 0.96745 0.26665 0.25169
 O1226 O 0.97107 0.26145 0.22830
 O1227 O 1.01683 0.21601 0.25023
 O1228 O 1.01571 0.22137 0.27312
 O1229 O 1.03457 0.24863 0.23399
 O1230 O 1.02923 0.27185 0.23540
 O1231 O 1.00165 0.23264 0.21648
 O1232 O 0.97863 0.23565 0.22152
 Zr1233 Zr 0.99369 0.23396 0.23513
 O1234 O 0.98145 0.24537 0.24642
 Zr1235 Zr 1.01607 0.25653 0.23445
 O1236 O 1.00458 0.26904 0.24532
 Zr1237 Zr 1.01616 0.23472 0.25779
 O1238 O 1.00503 0.24643 0.26992
 Zr1239 Zr 0.98524 0.26469 0.24259
 O1240 O 0.99667 0.25332 0.23025
 Zr1241 Zr 0.98566 0.24304 0.26611
 O1242 O 0.99681 0.23035 0.25492
 Zr1243 Zr 1.00783 0.26576 0.26507
 O1244 O 1.02036 0.25408 0.25417
 O1245 O 1.01297 0.23731 0.23818
 O1246 O 0.98852 0.26235 0.26229
 C1247 C 1.01049 0.21024 0.24129
 C1248 C 1.01021 0.23925 0.21061
 C1249 C 1.04000 0.23982 0.24070
 C1250 C 0.98982 0.28894 0.25917
 C1251 C 0.96218 0.26063 0.26110
 C1252 C 0.99063 0.26153 0.28922
 H1253 H 0.97247 0.24325 0.24444
 H1254 H 1.00723 0.24469 0.27904
 H1255 H 1.01841 0.23174 0.23276
 H1256 H 1.00640 0.27799 0.24282
 H1257 H 0.98856 0.27462 0.22002
 H1258 H 1.01016 0.27609 0.22054
 H1259 H 0.99339 0.22995 0.28595
 H1260 H 1.00747 0.21681 0.27245
 H1261 H 0.96503 0.26873 0.22857
 H1262 H 0.97944 0.22868 0.21506
 H1263 H 1.02198 0.25903 0.28449
 H1264 H 1.03400 0.24406 0.27205
 H1265 H 0.97989 0.21617 0.24532
 H1266 H 0.96666 0.22873 0.25907
 H1267 H 1.03444 0.27052 0.24327
 H1268 H 1.02113 0.28506 0.25684
 O1269 O 0.75205 1.03804 0.73360
 O1270 O 0.77381 1.03332 0.73440
 O1271 O 0.73534 1.00528 0.71551
 O1272 O 0.73438 0.98417 0.71888
 O1273 O 0.71906 1.02102 0.75016
 O1274 O 0.72430 1.01907 0.77262
 O1275 O 0.76845 0.96977 0.74852
 O1276 O 0.76537 0.97409 0.72670
 O1277 O 0.78643 1.00152 0.76478
 O1278 O 0.78243 1.02465 0.76478
 O1279 O 0.75410 0.98640 0.78282
 O1280 O 0.73141 0.98735 0.77913
 O1281 O 0.75403 0.96986 0.76492
 O1282 O 0.73022 0.97492 0.76423
 O1283 O 0.77013 1.00101 0.78251
 O1284 O 0.76883 1.02486 0.77859
 O1285 O 0.78522 0.98594 0.74951
 O1286 O 0.78080 0.99113 0.72625
 O1287 O 0.73768 1.03818 0.75009
 O1288 O 0.73906 1.03265 0.77277
 O1289 O 0.71797 1.00571 0.73457
 O1290 O 0.72276 0.98243 0.73576
 O1291 O 0.75051 1.02083 0.71558
 O1292 O 0.77360 1.01705 0.71956
 Zr1293 Zr 0.75926 1.01929 0.73384
 O1294 O 0.77163 1.00760 0.74467
 Zr1295 Zr 0.73625 0.99740 0.73421
 O1296 O 0.74782 0.98462 0.74469
 Zr1297 Zr 0.73774 1.01936 0.75741
 O1298 O 0.74904 1.00741 0.76914
 Zr1299 Zr 0.76714 0.98838 0.74111
 O1300 O 0.75554 1.00001 0.72918
 Zr1301 Zr 0.76833 1.01017 0.76450
 O1302 O 0.75707 1.02311 0.75372
 Zr1303 Zr 0.74550 0.98814 0.76454
 O1304 O 0.73287 1.00010 0.75409
 O1305 O 0.74002 1.01656 0.73771
 O1306 O 0.76477 0.99093 0.76092
 C1307 C 0.74375 1.04365 0.74079
 C1308 C 0.74148 1.01449 0.71011
 C1309 C 0.71306 1.01479 0.74132
 C1310 C 0.76274 0.96443 0.75808
 C1311 C 0.79109 0.99198 0.75855
 C1312 C 0.76376 0.99201 0.78795
 H1313 H 0.78057 1.00947 0.74229
 H1314 H 0.74728 1.00926 0.77833
 H1315 H 0.73453 1.02230 0.73253
 H1316 H 0.74565 0.97572 0.74234
 H1317 H 0.76259 0.97849 0.71870
 H1318 H 0.74100 0.97757 0.72021
 H1319 H 0.76203 1.02312 0.78497
 H1320 H 0.74758 1.03666 0.77211
 H1321 H 0.78664 0.98368 0.72632
 H1322 H 0.77274 1.02405 0.71314
 H1323 H 0.73174 0.99554 0.78392
 H1324 H 0.71989 1.01072 0.77208
 H1325 H 0.77394 1.03680 0.74330
 H1326 H 0.78731 1.02403 0.75662
 H1327 H 0.71803 0.98383 0.74391
 H1328 H 0.73181 0.96875 0.75716
 O1329 O 0.75211 0.53622 0.23210
 O1330 O 0.77393 0.53185 0.23373
 O1331 O 0.73635 0.50313 0.21400
 O1332 O 0.73557 0.48205 0.21753
 O1333 O 0.71895 0.51893 0.24809
 O1334 O 0.72360 0.51734 0.27063
 O1335 O 0.76895 0.46830 0.24820
 O1336 O 0.76652 0.47244 0.22632
 O1337 O 0.78607 0.50042 0.26484
 O1338 O 0.78196 0.52343 0.26445
 O1339 O 0.75379 0.48480 0.28179
 O1340 O 0.73094 0.48584 0.27767
 O1341 O 0.75405 0.46837 0.26417
 O1342 O 0.73028 0.47315 0.26290
 O1343 O 0.76904 0.50022 0.28220
 O1344 O 0.76785 0.52390 0.27764
 O1345 O 0.78554 0.48475 0.24961
 O1346 O 0.78170 0.48969 0.22617
 O1347 O 0.73738 0.53638 0.24827
 O1348 O 0.73818 0.53107 0.27108
 O1349 O 0.71846 0.50350 0.23258
 O1350 O 0.72352 0.48030 0.23410
 O1351 O 0.75137 0.51882 0.21432
 O1352 O 0.77439 0.51542 0.21904
 Zr1353 Zr 0.75960 0.51760 0.23285
 O1354 O 0.77180 0.50618 0.24417
 Zr1355 Zr 0.73686 0.49544 0.23279
 O1356 O 0.74830 0.48290 0.24370
 Zr1357 Zr 0.73745 0.51763 0.25582
 O1358 O 0.74855 0.50592 0.26797
 Zr1359 Zr 0.76766 0.48686 0.24065
 O1360 O 0.75625 0.49823 0.22829
 Zr1361 Zr 0.76792 0.50890 0.26388
 O1362 O 0.75683 0.52160 0.25263
 Zr1363 Zr 0.74540 0.48656 0.26344
 O1364 O 0.73291 0.49828 0.25253
 O1365 O 0.74030 0.51467 0.23621
 O1366 O 0.76472 0.48958 0.26037
 C1367 C 0.74357 0.54180 0.23903
 C1368 C 0.74254 0.51235 0.20869
 C1369 C 0.71326 0.51256 0.23914
 C1370 C 0.76300 0.46298 0.25764
 C1371 C 0.79106 0.49093 0.25878
 C1372 C 0.76293 0.49087 0.28734
 H1373 H 0.78078 0.50813 0.24204
 H1374 H 0.74651 0.50782 0.27710
 H1375 H 0.73487 0.52027 0.23083
 H1376 H 0.74629 0.47395 0.24137
 H1377 H 0.76388 0.47673 0.21822
 H1378 H 0.74226 0.47558 0.21909
 H1379 H 0.76078 0.52231 0.28375
 H1380 H 0.74658 0.53534 0.27049
 H1381 H 0.78766 0.48233 0.22650
 H1382 H 0.77363 0.52236 0.21254
 H1383 H 0.73140 0.49386 0.28272
 H1384 H 0.71953 0.50881 0.27026
 H1385 H 0.77372 0.53543 0.24258
 H1386 H 0.78692 0.52291 0.25634
 H1387 H 0.71855 0.48172 0.24210
 H1388 H 0.73202 0.46704 0.25581
 O1389 O 0.49910 0.21263 0.73362
 O1390 O 0.47739 0.21693 0.73535
 O1391 O 0.51446 0.24565 0.71486
 O1392 O 0.51550 0.26670 0.71820
 O1393 O 0.53246 0.23023 0.74893
 O1394 O 0.52815 0.23210 0.77149
 O1395 O 0.48190 0.28047 0.74943
 O1396 O 0.48446 0.27650 0.72744
 O1397 O 0.46569 0.24908 0.76654
 O1398 O 0.46966 0.22587 0.76612
 O1399 O 0.49792 0.26483 0.78259
 O1400 O 0.52060 0.26389 0.77838
 O1401 O 0.49768 0.28111 0.76452
 O1402 O 0.52137 0.27602 0.76321
 O1403 O 0.48296 0.24915 0.78351
 O1404 O 0.48398 0.22551 0.77913
 O1405 O 0.46546 0.26376 0.75036
 O1406 O 0.46957 0.25892 0.72712
 O1407 O 0.51412 0.21273 0.74954
 O1408 O 0.51355 0.21839 0.77232
 O1409 O 0.53268 0.24538 0.73318
 O1410 O 0.52756 0.26869 0.73462
 O1411 O 0.49960 0.22982 0.71555
 O1412 O 0.47661 0.23317 0.72055
 Zr1413 Zr 0.49161 0.23125 0.73418
 O1414 O 0.47952 0.24274 0.74553
 Zr1415 Zr 0.51428 0.25348 0.73359
 O1416 O 0.50289 0.26612 0.74443
 Zr1417 Zr 0.51407 0.23159 0.75687
 O1418 O 0.50313 0.24348 0.76900
 Zr1419 Zr 0.48350 0.26201 0.74169
 O1420 O 0.49483 0.25056 0.72933
 Zr1421 Zr 0.48372 0.24036 0.76523
 O1422 O 0.49467 0.22754 0.75397
 Zr1423 Zr 0.50612 0.26279 0.76417
 O1424 O 0.51851 0.25092 0.75330
 O1425 O 0.51095 0.23428 0.73726
 O1426 O 0.48675 0.25964 0.76140
 C1427 C 0.50777 0.20716 0.74048
 C1428 C 0.50826 0.23633 0.70971
 C1429 C 0.53800 0.23644 0.73981
 C1430 C 0.48829 0.28616 0.75834
 C1431 C 0.46030 0.25803 0.76001
 C1432 C 0.48903 0.25867 0.78841
 H1433 H 0.47053 0.24070 0.74353
 H1434 H 0.50532 0.24171 0.77812
 H1435 H 0.51630 0.22861 0.73186
 H1436 H 0.50481 0.27505 0.74194
 H1437 H 0.48708 0.27226 0.71930
 H1438 H 0.50865 0.27303 0.71957
 H1439 H 0.49124 0.22708 0.78502
 H1440 H 0.50521 0.21399 0.77180
 H1441 H 0.46357 0.26624 0.72728
 H1442 H 0.47734 0.22620 0.71408
 H1443 H 0.52050 0.25577 0.78327
 H1444 H 0.53216 0.24065 0.77099
 H1445 H 0.47747 0.21374 0.74436
 H1446 H 0.46435 0.22652 0.75825
 H1447 H 0.53285 0.26721 0.74240
 H1448 H 0.51959 0.28201 0.75603
 O1449 O 0.24768 0.71552 0.51575
 O1450 O 0.26955 0.71934 0.51396
 O1451 O 0.23317 0.74916 0.53416
 O1452 O 0.23252 0.77021 0.53044
 O1453 O 0.21465 0.73385 0.50002
 O1454 O 0.21924 0.73509 0.47750
 O1455 O 0.26613 0.78288 0.49933
 O1456 O 0.26363 0.77899 0.52141
 O1457 O 0.28216 0.75051 0.48279
 O1458 O 0.27735 0.72752 0.48326
 O1459 O 0.24994 0.76681 0.46601
 O1460 O 0.22718 0.76644 0.47047
 O1461 O 0.25070 0.78348 0.48387
 O1462 O 0.22695 0.77908 0.48521
 O1463 O 0.26524 0.75145 0.46582
 O1464 O 0.26316 0.72766 0.47001
 O1465 O 0.28214 0.76618 0.49802
 O1466 O 0.27845 0.76138 0.52148
 O1467 O 0.23269 0.71577 0.49980
 O1468 O 0.23344 0.72104 0.47701
 O1469 O 0.21499 0.74879 0.51601
 O1470 O 0.22033 0.77201 0.51403
 O1471 O 0.24763 0.73298 0.53365
 O1472 O 0.27063 0.73572 0.52865
 Zr1473 Zr 0.25561 0.73396 0.51500
 O1474 O 0.26798 0.74509 0.50359
 Zr1475 Zr 0.23344 0.75667 0.51529
 O1476 O 0.24503 0.76894 0.50426
 Zr1477 Zr 0.23318 0.73452 0.49225
 O1478 O 0.24446 0.74595 0.48000
 Zr1479 Zr 0.26433 0.76449 0.50713
 O1480 O 0.25280 0.75340 0.51960
 Zr1481 Zr 0.26380 0.74250 0.48394
 O1482 O 0.25249 0.73007 0.49526
 Zr1483 Zr 0.24179 0.76538 0.48454
 O1484 O 0.22916 0.75397 0.49560
 O1485 O 0.23635 0.73736 0.51184
 O1486 O 0.26107 0.76188 0.48746
 C1487 C 0.23891 0.71017 0.50893
 C1488 C 0.23917 0.73979 0.53943
 C1489 C 0.20937 0.74009 0.50931
 C1490 C 0.26005 0.78850 0.49016
 C1491 C 0.28741 0.75993 0.48875
 C1492 C 0.25916 0.76076 0.46059
 H1493 H 0.27694 0.74292 0.50563
 H1494 H 0.24229 0.74410 0.47089
 H1495 H 0.23088 0.73188 0.51731
 H1496 H 0.24328 0.77793 0.50663
 H1497 H 0.26102 0.77478 0.52956
 H1498 H 0.23942 0.77645 0.52889
 H1499 H 0.25624 0.72965 0.46382
 H1500 H 0.24181 0.71670 0.47743
 H1501 H 0.28455 0.76862 0.52111
 H1502 H 0.26979 0.72880 0.53514
 H1503 H 0.22739 0.75841 0.46541
 H1504 H 0.21539 0.74372 0.47785
 H1505 H 0.26918 0.71582 0.50508
 H1506 H 0.28258 0.72804 0.49120
 H1507 H 0.21511 0.77052 0.50620
 H1508 H 0.22875 0.78498 0.49247
 O1509 O 0.26686 0.28293 0.99840
 O1510 O 0.26520 0.27851 1.02051
 O1511 O 0.28336 0.24976 0.98175
 O1512 O 0.27938 0.22864 0.98119
 O1513 O 0.25010 0.26642 0.96466
 O1514 O 0.22793 0.26567 0.96968
 O1515 O 0.24878 0.21551 1.01501
 O1516 O 0.27056 0.21883 1.01224
 O1517 O 0.23386 0.24788 1.03282
 O1518 O 0.23476 0.27089 1.02872
 O1519 O 0.21618 0.23310 0.99983
 O1520 O 0.22001 0.23412 0.97683
 O1521 O 0.23338 0.21588 0.99950
 O1522 O 0.23434 0.22135 0.97555
 O1523 O 0.21672 0.24786 1.01596
 O1524 O 0.22151 0.27163 1.01453
 O1525 O 0.24832 0.23172 1.03195
 O1526 O 0.27151 0.23590 1.02785
 O1527 O 0.25084 0.28376 0.98354
 O1528 O 0.22815 0.27919 0.98470
 O1529 O 0.26527 0.25090 0.96411
 O1530 O 0.26284 0.22763 0.96870
 O1531 O 0.28392 0.26478 0.99767
 O1532 O 0.27909 0.26165 1.02094
 Zr1533 Zr 0.26556 0.26429 1.00591
 O1534 O 0.25416 0.25308 1.01822
 Zr1535 Zr 0.26472 0.24244 0.98255
 O1536 O 0.25368 0.23009 0.99405
 Zr1537 Zr 0.24272 0.26527 0.98356
 O1538 O 0.23049 0.25378 0.99477
 Zr1539 Zr 0.25698 0.23373 1.01373
 O1540 O 0.26942 0.24485 1.00221
 Zr1541 Zr 0.23480 0.25640 1.01443
 O1542 O 0.24617 0.26889 1.00325
 Zr1543 Zr 0.23431 0.23433 0.99127
 O1544 O 0.24532 0.24589 0.97868
 O1545 O 0.26197 0.26171 0.98633
 O1546 O 0.23761 0.23702 1.01089
 C1547 C 0.26021 0.28880 0.98979
 C1548 C 0.28907 0.25847 0.98836
 C1549 C 0.25895 0.26009 0.95891
 C1550 C 0.23958 0.21034 1.00867
 C1551 C 0.23956 0.23814 1.03772
 C1552 C 0.21118 0.23893 1.00952
 H1553 H 0.25639 0.25487 1.02733
 H1554 H 0.22153 0.25596 0.99282
 H1555 H 0.26743 0.26721 0.98087
 H1556 H 0.25569 0.22110 0.99188
 H1557 H 0.27865 0.22287 1.00951
 H1558 H 0.27738 0.22188 0.98754
 H1559 H 0.21518 0.27000 1.00764
 H1560 H 0.22895 0.28325 0.99331
 H1561 H 0.27102 0.22847 1.03379
 H1562 H 0.28573 0.26837 1.02021
 H1563 H 0.21552 0.24242 0.97720
 H1564 H 0.22796 0.25719 0.96542
 H1565 H 0.25659 0.28238 1.02032
 H1566 H 0.24280 0.27015 1.03367
 H1567 H 0.25507 0.22950 0.96362
 H1568 H 0.24125 0.21508 0.97704
 C1569 C 0.29511 0.37763 0.78993
 C1570 C 0.30818 0.37464 0.78966
 C1571 C 0.31264 0.36306 0.79464
 C1572 C 0.30413 0.35404 0.79985
 C1573 C 0.29105 0.35695 0.79998
 C1574 C 0.28661 0.36862 0.79517
 C1575 C 0.29040 0.39011 0.78488
 C1576 C 0.27849 0.39099 0.77866
 C1577 C 0.27404 0.40275 0.77406
 C1578 C 0.28147 0.41382 0.77540
 C1579 C 0.29338 0.41298 0.78151
 C1580 C 0.29776 0.40128 0.78629
 C1581 C 0.27682 0.42628 0.77052
 C1582 C 0.28479 0.43407 0.76299
 C1583 C 0.28057 0.44599 0.75868
 C1584 C 0.26837 0.45047 0.76200
 C1585 C 0.26036 0.44262 0.76946
 C1586 C 0.26451 0.43058 0.77358
 H1587 H 0.31501 0.38123 0.78553
 H1588 H 0.32280 0.36126 0.79454
 H1589 H 0.28419 0.35018 0.80373
 H1590 H 0.27651 0.37062 0.79572
 H1591 H 0.27266 0.38258 0.77717
 H1592 H 0.26487 0.40316 0.76927
 H1593 H 0.29921 0.42143 0.78281
 H1594 H 0.30683 0.40106 0.79127
 H1595 H 0.29429 0.43090 0.76043
 H1596 H 0.28697 0.45182 0.75299
 H1597 H 0.25091 0.44579 0.77215
 H1598 H 0.25823 0.42476 0.77943
 C1599 C 0.29391 -0.12428 0.29001
 C1600 C 0.28608 -0.13232 0.29740
 C1601 C 0.29077 -0.14377 0.30248
 C1602 C 0.30355 -0.14758 0.30043
 C1603 C 0.31132 -0.13940 0.29291
 C1604 C 0.30656 -0.12802 0.28777
 C1605 C 0.28898 -0.11198 0.28479
 C1606 C 0.29683 -0.10108 0.28443
 C1607 C 0.29224 -0.08951 0.27957
 C1608 C 0.27965 -0.08852 0.27506
 C1609 C 0.27176 -0.09935 0.27545
 C1610 C 0.27639 -0.11098 0.28020
 C1611 C 0.27478 -0.07613 0.27016
 C1612 C 0.26285 -0.07149 0.27414
 C1613 C 0.25863 -0.05944 0.27016
 C1614 C 0.26621 -0.05184 0.26200
 C1615 C 0.27798 -0.05667 0.25772
 C1616 C 0.28224 -0.06866 0.26181
 H1617 H 0.27629 -0.12971 0.29939
 H1618 H 0.28410 -0.14974 0.30765
 H1619 H 0.32130 -0.14138 0.29132
 H1620 H 0.31285 -0.12212 0.28201
 H1621 H 0.30648 -0.10142 0.28812
 H1622 H 0.29846 -0.08124 0.27957
 H1623 H 0.26205 -0.09887 0.27192
 H1624 H 0.27015 -0.11922 0.28014
 H1625 H 0.25696 -0.07703 0.28065
 H1626 H 0.24952 -0.05600 0.27362
 H1627 H 0.28408 -0.05106 0.25148
 H1628 H 0.29142 -0.07207 0.25850
 C1629 C 0.79410 0.87810 0.78806
 C1630 C 0.79089 0.87443 0.80066
 C1631 C 0.79568 0.86314 0.80596
 C1632 C 0.80382 0.85501 0.79879
 C1633 C 0.80698 0.85884 0.78606
 C1634 C 0.80223 0.87022 0.78083
 C1635 C 0.78910 0.89022 0.78262
 C1636 C 0.79717 0.89863 0.77590
 C1637 C 0.79259 0.91037 0.77141
 C1638 C 0.77981 0.91393 0.77345
 C1639 C 0.77169 0.90535 0.77990
 C1640 C 0.77629 0.89366 0.78447
 C1641 C 0.77507 0.92666 0.76921
 C1642 C 0.76651 0.93359 0.77697
 C1643 C 0.76232 0.94572 0.77323
 C1644 C 0.76664 0.95127 0.76166
 C1645 C 0.77512 0.94430 0.75383
 C1646 C 0.77925 0.93213 0.75755
 H1647 H 0.78488 0.88049 0.80658
 H1648 H 0.79335 0.86124 0.81595
 H1649 H 0.81273 0.85290 0.77981
 H1650 H 0.80472 0.87274 0.77100
 H1651 H 0.80712 0.89628 0.77447
 H1652 H 0.79915 0.91682 0.76666
 H1653 H 0.76174 0.90766 0.78140
 H1654 H 0.76982 0.88727 0.78944
 H1655 H 0.76327 0.92978 0.78613
 H1656 H 0.75589 0.95085 0.77956
 H1657 H 0.77862 0.94826 0.74484
 H1658 H 0.78570 0.92698 0.75125
 C1659 C 0.45947 0.87563 0.28743
 C1660 C 0.46786 0.88458 0.29298
 C1661 C 0.46332 0.89628 0.29766
 C1662 C 0.45027 0.89928 0.29699
 C1663 C 0.44193 0.89038 0.29128
 C1664 C 0.44648 0.87877 0.28648
 C1665 C 0.46413 0.86294 0.28290
 C1666 C 0.45653 0.85196 0.28442
 C1667 C 0.46078 0.84005 0.28009
 C1668 C 0.47279 0.83880 0.27429
 C1669 C 0.48050 0.84970 0.27288
 C1670 C 0.47618 0.86166 0.27707
 C1671 C 0.47723 0.82612 0.26977
 C1672 C 0.48950 0.82173 0.27290
 C1673 C 0.49344 0.80950 0.26914
 C1674 C 0.48525 0.80152 0.26200
 C1675 C 0.47307 0.80605 0.25866
 C1676 C 0.46908 0.81819 0.26257
 H1677 H 0.47790 0.88244 0.29399
 H1678 H 0.47004 0.90296 0.30184
 H1679 H 0.43179 0.89224 0.29077
 H1680 H 0.43976 0.87224 0.28205
 H1681 H 0.44735 0.85250 0.28914
 H1682 H 0.45475 0.83176 0.28148
 H1683 H 0.48976 0.84898 0.26833
 H1684 H 0.48221 0.86993 0.27557
 H1685 H 0.49592 0.82763 0.27853
 H1686 H 0.50288 0.80629 0.27185
 H1687 H 0.46650 0.80012 0.25323
 H1688 H 0.45961 0.82141 0.25996
 C1689 C -0.04305 0.87299 0.79176
 C1690 C -0.05549 0.87693 0.78884
 C1691 C -0.06034 0.88835 0.79382
 C1692 C -0.05287 0.89633 0.80186
 C1693 C -0.04028 0.89233 0.80459
 C1694 C -0.03548 0.88085 0.79964
 C1695 C -0.03809 0.86062 0.78673
 C1696 C -0.02535 0.85945 0.78265
 C1697 C -0.02074 0.84779 0.77799
 C1698 C -0.02878 0.83707 0.77721
 C1699 C -0.04149 0.83823 0.78126
 C1700 C -0.04608 0.84985 0.78601
 C1701 C -0.02392 0.82464 0.77238
 C1702 C -0.03125 0.81723 0.76382
 C1703 C -0.02693 0.80528 0.75968
 C1704 C -0.01521 0.80042 0.76408
 C1705 C -0.00780 0.80793 0.77251
 C1706 C -0.01208 0.81993 0.77656
 H1707 H -0.06156 0.87116 0.78269
 H1708 H -0.07021 0.89046 0.79170
 H1709 H -0.03383 0.89816 0.81023
 H1710 H -0.02585 0.87808 0.80213
 H1711 H -0.01900 0.86761 0.78290
 H1712 H -0.01093 0.84718 0.77481
 H1713 H -0.04784 0.83006 0.78097
 H1714 H -0.05585 0.85032 0.78931
 H1715 H -0.04036 0.82069 0.76034
 H1716 H -0.03291 0.79973 0.75323
 H1717 H 0.00127 0.80447 0.77610
 H1718 H -0.00629 0.82540 0.78325
 C1719 C -0.04156 -0.12628 -0.03769
 C1720 C -0.04098 -0.12859 -0.05104
 C1721 C -0.04603 -0.13982 -0.05625
 C1722 C -0.05164 -0.14910 -0.04822
 C1723 C -0.05211 -0.14681 -0.03482
 C1724 C -0.04720 -0.13547 -0.02962
 C1725 C -0.03650 -0.11416 -0.03232
 C1726 C -0.04381 -0.10683 -0.02372
 C1727 C -0.03936 -0.09498 -0.01934
 C1728 C -0.02743 -0.09029 -0.02336
 C1729 C -0.01998 -0.09787 -0.03168
 C1730 C -0.02451 -0.10962 -0.03618
 C1731 C -0.02293 -0.07741 -0.01922
 C1732 C -0.01604 -0.06961 -0.02780
 C1733 C -0.01198 -0.05744 -0.02406
 C1734 C -0.01485 -0.05268 -0.01170
 C1735 C -0.02174 -0.06044 -0.00310
 C1736 C -0.02567 -0.07269 -0.00679
 H1737 H -0.03687 -0.12156 -0.05748
 H1738 H -0.04578 -0.14108 -0.06663
 H1739 H -0.05618 -0.15381 -0.02832
 H1740 H -0.04767 -0.13393 -0.01927
 H1741 H -0.05315 -0.11007 -0.02071
 H1742 H -0.04545 -0.08934 -0.01311
 H1743 H -0.01064 -0.09472 -0.03475
 H1744 H -0.01862 -0.11519 -0.04268
 H1745 H -0.01399 -0.07279 -0.03754
 H1746 H -0.00683 -0.05164 -0.03098
 H1747 H -0.02405 -0.05707 0.00652
 H1748 H -0.03079 -0.07850 0.00014
 C1749 C -0.04114 0.37330 0.46331
 C1750 C -0.03833 0.37003 0.45049
 C1751 C -0.04325 0.35888 0.44498
 C1752 C -0.05112 0.35050 0.45217
 C1753 C -0.05367 0.35381 0.46518
 C1754 C -0.04882 0.36506 0.47061
 C1755 C -0.03634 0.38546 0.46885
 C1756 C -0.04451 0.39354 0.47585
 C1757 C -0.04021 0.40540 0.48034
 C1758 C -0.02762 0.40940 0.47801
 C1759 C -0.01937 0.40112 0.47131
 C1760 C -0.02370 0.38932 0.46673
 C1761 C -0.02322 0.42229 0.48218
 C1762 C -0.01499 0.42946 0.47428
 C1763 C -0.01104 0.44168 0.47799
 C1764 C -0.01530 0.44710 0.48965
 C1765 C -0.02351 0.43994 0.49758
 C1766 C -0.02738 0.42766 0.49391
 H1767 H -0.03263 0.37635 0.44455
 H1768 H -0.04132 0.35735 0.43484
 H1769 H -0.05910 0.34761 0.47146
 H1770 H -0.05095 0.36726 0.48061
 H1771 H -0.05435 0.39086 0.47749
 H1772 H -0.04688 0.41160 0.48529
 H1773 H -0.00954 0.40376 0.46959
 H1774 H -0.01716 0.38319 0.46152
 H1775 H -0.01180 0.42575 0.46506
 H1776 H -0.00483 0.44697 0.47157
 H1777 H -0.02692 0.44381 0.50665
 H1778 H -0.03357 0.42234 0.50031
 C1779 C 0.45814 -0.12787 0.46302
 C1780 C 0.46609 -0.13742 0.45787
 C1781 C 0.46094 -0.14846 0.45230
 C1782 C 0.44765 -0.15049 0.45197
 C1783 C 0.43975 -0.14106 0.45756
 C1784 C 0.44491 -0.12990 0.46284
 C1785 C 0.46356 -0.11567 0.46813
 C1786 C 0.45755 -0.10903 0.47828
 C1787 C 0.46216 -0.09718 0.48245
 C1788 C 0.47305 -0.09173 0.47678
 C1789 C 0.47932 -0.09858 0.46695
 C1790 C 0.47457 -0.11030 0.46260
 C1791 C 0.47765 -0.07881 0.48078
 C1792 C 0.48324 -0.07053 0.47169
 C1793 C 0.48743 -0.05838 0.47532
 C1794 C 0.48589 -0.05406 0.48807
 C1795 C 0.48023 -0.06222 0.49719
 C1796 C 0.47628 -0.07451 0.49362
 H1797 H 0.47635 -0.13643 0.45818
 H1798 H 0.46751 -0.15558 0.44867
 H1799 H 0.42947 -0.14181 0.45720
 H1800 H 0.43841 -0.12266 0.46639
 H1801 H 0.44921 -0.11294 0.48299
 H1802 H 0.45696 -0.09217 0.48994
 H1803 H 0.48789 -0.09488 0.46252
 H1804 H 0.47940 -0.11498 0.45466
 H1805 H 0.48418 -0.07330 0.46165
 H1806 H 0.49160 -0.05223 0.46805
 H1807 H 0.47900 -0.05915 0.50711
 H1808 H 0.47224 -0.08065 0.50096
 C1809 C 0.46033 0.37052 -0.03659
 C1810 C 0.46333 0.36717 -0.04934
 C1811 C 0.45833 0.35608 -0.05491
 C1812 C 0.45018 0.34786 -0.04785
 C1813 C 0.44744 0.35127 -0.03490
 C1814 C 0.45237 0.36245 -0.02941
 C1815 C 0.46522 0.38260 -0.03096
 C1816 C 0.45705 0.39082 -0.02413
 C1817 C 0.46146 0.40259 -0.01952
 C1818 C 0.47418 0.40635 -0.02153
 C1819 C 0.48243 0.39793 -0.02805
 C1820 C 0.47798 0.38622 -0.03277
 C1821 C 0.47867 0.41920 -0.01734
 C1822 C 0.48712 0.42623 -0.02512
 C1823 C 0.49094 0.43852 -0.02154
 C1824 C 0.48632 0.44416 -0.01013
 C1825 C 0.47800 0.43710 -0.00224
 C1826 C 0.47425 0.42474 -0.00578
 H1827 H 0.46926 0.37337 -0.05518
 H1828 H 0.46044 0.35445 -0.06500
 H1829 H 0.44181 0.34518 -0.02869
 H1830 H 0.45009 0.36471 -0.01946
 H1831 H 0.44713 0.38832 -0.02274
 H1832 H 0.45479 0.40890 -0.01473
 H1833 H 0.49234 0.40040 -0.02954
 H1834 H 0.48452 0.37998 -0.03784
 H1835 H 0.49052 0.42238 -0.03421
 H1836 H 0.49726 0.44373 -0.02792
 H1837 H 0.47431 0.44114 0.00664
 H1838 H 0.46789 0.41953 0.00054
 C1839 C 0.79063 0.37766 0.46082
 C1840 C 0.80374 0.38034 0.46167
 C1841 C 0.80870 0.39168 0.45666
 C1842 C 0.80068 0.40078 0.45084
 C1843 C 0.78753 0.39825 0.45021
 C1844 C 0.78257 0.38680 0.45509
 C1845 C 0.78551 0.36529 0.46568
 C1846 C 0.77343 0.36460 0.47156
 C1847 C 0.76873 0.35292 0.47613
 C1848 C 0.77606 0.34174 0.47506
 C1849 C 0.78808 0.34240 0.46918
 C1850 C 0.79272 0.35400 0.46447
 C1851 C 0.77122 0.32935 0.47993
 C1852 C 0.77914 0.32139 0.48735
 C1853 C 0.77491 0.30935 0.49131
 C1854 C 0.76274 0.30494 0.48779
 C1855 C 0.75472 0.31302 0.48056
 C1856 C 0.75890 0.32515 0.47676
 H1857 H 0.81021 0.37366 0.46622
 H1858 H 0.81890 0.39317 0.45714
 H1859 H 0.78104 0.40510 0.44595
 H1860 H 0.77245 0.38502 0.45415
 H1861 H 0.76770 0.37310 0.47283
 H1862 H 0.75945 0.35265 0.48070
 H1863 H 0.79382 0.33386 0.46803
 H1864 H 0.80190 0.35407 0.45971
 H1865 H 0.78864 0.32446 0.49000
 H1866 H 0.78135 0.30335 0.49680
 H1867 H 0.74529 0.30990 0.47771
 H1868 H 0.75265 0.33109 0.47097
 C1869 C 0.79068 0.87637 -0.04039
 C1870 C 0.78342 0.88440 -0.04838
 C1871 C 0.78860 0.89572 -0.05330
 C1872 C 0.80127 0.89938 -0.05045
 C1873 C 0.80841 0.89125 -0.04226
 C1874 C 0.80318 0.88001 -0.03730
 C1875 C 0.78536 0.86411 -0.03546
 C1876 C 0.79313 0.85319 -0.03460
 C1877 C 0.78824 0.84167 -0.02993
 C1878 C 0.77544 0.84075 -0.02612
 C1879 C 0.76761 0.85160 -0.02707
 C1880 C 0.77253 0.86318 -0.03164
 C1881 C 0.77032 0.82841 -0.02137
 C1882 C 0.75858 0.82374 -0.02590
 C1883 C 0.75424 0.81166 -0.02214
 C1884 C 0.76149 0.80405 -0.01367
 C1885 C 0.77303 0.80894 -0.00881
 C1886 C 0.77741 0.82096 -0.01266
 H1887 H 0.77375 0.88187 -0.05099
 H1888 H 0.78238 0.90169 -0.05904
 H1889 H 0.81830 0.89309 -0.04003
 H1890 H 0.80901 0.87411 -0.03105
 H1891 H 0.80297 0.85347 -0.03773
 H1892 H 0.79443 0.83339 -0.02953
 H1893 H 0.75772 0.85117 -0.02410
 H1894 H 0.76633 0.87145 -0.03202
 H1895 H 0.75297 0.82926 -0.03269
 H1896 H 0.74532 0.80818 -0.02607
 H1897 H 0.77888 0.80335 -0.00231
 H1898 H 0.78642 0.82440 -0.00890
 C1899 C 0.79005 0.29449 0.37345
 C1900 C 0.79594 0.28611 0.36464
 C1901 C 0.80126 0.29073 0.35316
 C1902 C 0.80091 0.30387 0.35026
 C1903 C 0.79499 0.31222 0.35906
 C1904 C 0.78956 0.30759 0.37044
 C1905 C 0.78460 0.28967 0.38580
 C1906 C 0.78551 0.29704 0.39716
 C1907 C 0.78035 0.29262 0.40876
 C1908 C 0.77430 0.28067 0.40934
 C1909 C 0.77346 0.27322 0.39807
 C1910 C 0.77849 0.27771 0.38640
 C1911 C 0.76914 0.27593 0.42177
 C1912 C 0.77179 0.26344 0.42596
 C1913 C 0.76770 0.25929 0.43811
 C1914 C 0.76074 0.26749 0.44625
 C1915 C 0.75774 0.27985 0.44185
 C1916 C 0.76196 0.28405 0.42977
 H1917 H 0.79663 0.27598 0.36670
 H1918 H 0.80561 0.28400 0.34654
 H1919 H 0.79471 0.32242 0.35726
 H1920 H 0.78494 0.31431 0.37687
 H1921 H 0.79039 0.30616 0.39715
 H1922 H 0.78132 0.29845 0.41736
 H1923 H 0.76875 0.26400 0.39825
 H1924 H 0.77744 0.27187 0.37782
 H1925 H 0.77738 0.25703 0.42001
 H1926 H 0.77015 0.24970 0.44121
 H1927 H 0.75244 0.28643 0.44789
 H1928 H 0.75970 0.29369 0.42670
 C1929 C 0.78895 0.79497 -0.12803
 C1930 C 0.78877 0.80815 -0.13070
 C1931 C 0.79431 0.81294 -0.14196
 C1932 C 0.80001 0.80467 -0.15100
 C1933 C 0.79998 0.79146 -0.14846
 C1934 C 0.79457 0.78667 -0.13710
 C1935 C 0.78351 0.78999 -0.11573
 C1936 C 0.77722 0.77810 -0.11531
 C1937 C 0.77223 0.77346 -0.10369
 C1938 C 0.77329 0.78066 -0.09227
 C1939 C 0.77952 0.79253 -0.09267
 C1940 C 0.78465 0.79710 -0.10423
 C1941 C 0.76816 0.77577 -0.07989
 C1942 C 0.76108 0.78382 -0.07174
 C1943 C 0.75687 0.77948 -0.05971
 C1944 C 0.75981 0.76704 -0.05550
 C1945 C 0.76669 0.75891 -0.06378
 C1946 C 0.77074 0.76321 -0.07590
 H1947 H 0.78435 0.81481 -0.12407
 H1948 H 0.79431 0.82318 -0.14346
 H1949 H 0.80414 0.78479 -0.15527
 H1950 H 0.79501 0.77648 -0.13531
 H1951 H 0.77599 0.77246 -0.12400
 H1952 H 0.76739 0.76431 -0.10364
 H1953 H 0.78066 0.79816 -0.08395
 H1954 H 0.78969 0.80613 -0.10408
 H1955 H 0.75887 0.79352 -0.07466
 H1956 H 0.75164 0.78601 -0.05355
 H1957 H 0.76908 0.74927 -0.06083
 H1958 H 0.77626 0.75684 -0.08197
 C1959 C 0.29413 0.45811 0.87438
 C1960 C 0.29612 0.46620 0.88508
 C1961 C 0.30061 0.46128 0.89679
 C1962 C 0.30307 0.44815 0.89811
 C1963 C 0.30102 0.44003 0.88750
 C1964 C 0.29667 0.44497 0.87574
 C1965 C 0.28946 0.46336 0.86186
 C1966 C 0.28105 0.45626 0.85407
 C1967 C 0.27684 0.46107 0.84221
 C1968 C 0.28082 0.47318 0.83789
 C1969 C 0.28912 0.48034 0.84574
 C1970 C 0.29344 0.47547 0.85754
 C1971 C 0.27644 0.47822 0.82518
 C1972 C 0.28468 0.48545 0.81734
 C1973 C 0.28066 0.48994 0.80528
 C1974 C 0.26835 0.48718 0.80071
 C1975 C 0.26007 0.48003 0.80855
 C1976 C 0.26404 0.47568 0.82067
 H1977 H 0.29404 0.47632 0.88447
 H1978 H 0.30199 0.46771 0.90488
 H1979 H 0.30301 0.42990 0.88823
 H1980 H 0.29550 0.43849 0.86766
 H1981 H 0.27763 0.44698 0.85715
 H1982 H 0.27060 0.45519 0.83636
 H1983 H 0.29225 0.48977 0.84282
 H1984 H 0.30004 0.48114 0.86319
 H1985 H 0.29436 0.48740 0.82037
 H1986 H 0.28732 0.49530 0.79940
 H1987 H 0.25050 0.47783 0.80533
 H1988 H 0.25734 0.47037 0.82654
 C1989 C 0.29395 -0.04232 0.37536
 C1990 C 0.29623 -0.03446 0.38617
 C1991 C 0.30132 -0.03957 0.39754
 C1992 C 0.30408 -0.05268 0.39841
 C1993 C 0.30176 -0.06056 0.38768
 C1994 C 0.29683 -0.05543 0.37626
 C1995 C 0.28867 -0.03688 0.36317
 C1996 C 0.28017 -0.04401 0.35550
 C1997 C 0.27554 -0.03908 0.34386
 C1998 C 0.27916 -0.02683 0.33963
 C1999 C 0.28746 -0.01960 0.34742
 C2000 C 0.29221 -0.02458 0.35900
 C2001 C 0.27456 -0.02179 0.32700
 C2002 C 0.28262 -0.01437 0.31914
 C2003 C 0.27853 -0.01009 0.30704
 C2004 C 0.26634 -0.01325 0.30241
 C2005 C 0.25820 -0.02051 0.31031
 C2006 C 0.26223 -0.02465 0.32249
 H2007 H 0.29393 -0.02437 0.38592
 H2008 H 0.30290 -0.03333 0.40574
 H2009 H 0.30397 -0.07068 0.38806
 H2010 H 0.29546 -0.06173 0.36806
 H2011 H 0.27706 -0.05342 0.35850
 H2012 H 0.26930 -0.04501 0.33805
 H2013 H 0.29032 -0.01006 0.34458
 H2014 H 0.29885 -0.01886 0.36456
 H2015 H 0.29225 -0.01216 0.32217
 H2016 H 0.28509 -0.00462 0.30114
 H2017 H 0.24871 -0.02302 0.30705
 H2018 H 0.25567 -0.03012 0.32837
 C2019 C -0.04413 -0.04457 -0.12307
 C2020 C -0.05678 -0.04222 -0.12669
 C2021 C -0.06168 -0.04722 -0.13820
 C2022 C -0.05403 -0.05469 -0.14656
 C2023 C -0.04125 -0.05692 -0.14278
 C2024 C -0.03643 -0.05198 -0.13121
 C2025 C -0.03902 -0.03938 -0.11077
 C2026 C -0.03160 -0.04709 -0.10259
 C2027 C -0.02697 -0.04227 -0.09088
 C2028 C -0.02956 -0.02960 -0.08714
 C2029 C -0.03689 -0.02186 -0.09541
 C2030 C -0.04161 -0.02671 -0.10707
 C2031 C -0.02477 -0.02455 -0.07460
 C2032 C -0.03231 -0.01628 -0.06708
 C2033 C -0.02795 -0.01181 -0.05513
 C2034 C -0.01598 -0.01558 -0.05036
 C2035 C -0.00839 -0.02375 -0.05792
 C2036 C -0.01270 -0.02813 -0.06991
 H2037 H -0.06301 -0.03675 -0.12045
 H2038 H -0.07167 -0.04559 -0.14010
 H2039 H -0.03466 -0.06204 -0.14892
 H2040 H -0.02655 -0.05375 -0.12876
 H2041 H -0.02961 -0.05694 -0.10512
 H2042 H -0.02157 -0.04858 -0.08465
 H2043 H -0.03889 -0.01200 -0.09295
 H2044 H -0.04716 -0.02051 -0.11328
 H2045 H -0.04173 -0.01349 -0.07029
 H2046 H -0.03410 -0.00564 -0.04950
 H2047 H 0.00091 -0.02678 -0.05457
 H2048 H -0.00655 -0.03429 -0.07554
 C2049 C -0.04335 0.45544 0.37801
 C2050 C -0.05599 0.45791 0.37442
 C2051 C -0.06093 0.45308 0.36286
 C2052 C -0.05333 0.44568 0.35439
 C2053 C -0.04056 0.44333 0.35813
 C2054 C -0.03570 0.44808 0.36976
 C2055 C -0.03819 0.46048 0.39035
 C2056 C -0.03089 0.45262 0.39850
 C2057 C -0.02627 0.45728 0.41027
 C2058 C -0.02874 0.46996 0.41409
 C2059 C -0.03590 0.47786 0.40582
 C2060 C -0.04062 0.47315 0.39411
 C2061 C -0.02407 0.47485 0.42675
 C2062 C -0.03163 0.48318 0.43417
 C2063 C -0.02739 0.48761 0.44616
 C2064 C -0.01552 0.48374 0.45111
 C2065 C -0.00792 0.47544 0.44370
 C2066 C -0.01213 0.47109 0.43164
 H2067 H -0.06218 0.46335 0.38074
 H2068 H -0.07092 0.45480 0.36099
 H2069 H -0.03400 0.43826 0.35193
 H2070 H -0.02583 0.44623 0.37219
 H2071 H -0.02901 0.44276 0.39590
 H2072 H -0.02099 0.45087 0.41649
 H2073 H -0.03778 0.48773 0.40833
 H2074 H -0.04606 0.47946 0.38792
 H2075 H -0.04097 0.48609 0.43084
 H2076 H -0.03355 0.49388 0.45168
 H2077 H 0.00129 0.47231 0.44720
 H2078 H -0.00597 0.46485 0.42610
 C2079 C 0.45839 -0.04426 0.37490
 C2080 C 0.45331 -0.03572 0.36576
 C2081 C 0.44869 -0.04016 0.35390
 C2082 C 0.44887 -0.05329 0.35093
 C2083 C 0.45390 -0.06184 0.36010
 C2084 C 0.45868 -0.05738 0.37187
 C2085 C 0.46330 -0.03955 0.38756
 C2086 C 0.46182 -0.04692 0.39884
 C2087 C 0.46652 -0.04256 0.41069
 C2088 C 0.47263 -0.03066 0.41158
 C2089 C 0.47403 -0.02320 0.40040
 C2090 C 0.46951 -0.02764 0.38849
 C2091 C 0.47748 -0.02604 0.42418
 C2092 C 0.47464 -0.01362 0.42849
 C2093 C 0.47885 -0.00944 0.44060
 C2094 C 0.48615 -0.01752 0.44855
 C2095 C 0.48921 -0.02985 0.44408
 C2096 C 0.48482 -0.03410 0.43207
 H2097 H 0.45275 -0.02558 0.36780
 H2098 H 0.44506 -0.03327 0.34702
 H2099 H 0.45403 -0.07203 0.35825
 H2100 H 0.46270 -0.06423 0.37857
 H2101 H 0.45686 -0.05599 0.39857
 H2102 H 0.46518 -0.04840 0.41922
 H2103 H 0.47883 -0.01404 0.40084
 H2104 H 0.47104 -0.02180 0.38000
 H2105 H 0.46893 -0.00726 0.42259
 H2106 H 0.47636 0.00012 0.44376
 H2107 H 0.49480 -0.03631 0.44997
 H2108 H 0.48721 -0.04368 0.42891
 C2109 C 0.45976 0.45415 -0.12483
 C2110 C 0.45461 0.46259 -0.13404
 C2111 C 0.44975 0.45799 -0.14574
 C2112 C 0.44978 0.44481 -0.14849
 C2113 C 0.45495 0.43638 -0.13930
 C2114 C 0.45995 0.44099 -0.12767
 C2115 C 0.46477 0.45901 -0.11228
 C2116 C 0.46324 0.45182 -0.10088
 C2117 C 0.46792 0.45634 -0.08910
 C2118 C 0.47409 0.46823 -0.08837
 C2119 C 0.47557 0.47549 -0.09968
 C2120 C 0.47104 0.47089 -0.11152
 C2121 C 0.47884 0.47305 -0.07580
 C2122 C 0.47606 0.48557 -0.07175
 C2123 C 0.47994 0.48985 -0.05955
 C2124 C 0.48684 0.48175 -0.05126
 C2125 C 0.48990 0.46934 -0.05549
 C2126 C 0.48586 0.46501 -0.06759
 H2127 H 0.45414 0.47276 -0.13214
 H2128 H 0.44603 0.46479 -0.15266
 H2129 H 0.45498 0.42616 -0.14098
 H2130 H 0.46402 0.43421 -0.12093
 H2131 H 0.45822 0.44278 -0.10101
 H2132 H 0.46650 0.45066 -0.08047
 H2133 H 0.48040 0.48464 -0.09937
 H2134 H 0.47261 0.47659 -0.12011
 H2135 H 0.47058 0.49191 -0.07788
 H2136 H 0.47745 0.49946 -0.05656
 H2137 H 0.49514 0.46284 -0.04930
 H2138 H 0.48820 0.45535 -0.07054
 C2139 C 0.45877 0.79300 0.37494
 C2140 C 0.45257 0.78473 0.38361
 C2141 C 0.44752 0.78936 0.39521
 C2142 C 0.44844 0.80241 0.39838
 C2143 C 0.45476 0.81065 0.38978
 C2144 C 0.45991 0.80600 0.37825
 C2145 C 0.46381 0.78816 0.36240
 C2146 C 0.46311 0.79575 0.35120
 C2147 C 0.46773 0.79121 0.33940
 C2148 C 0.47303 0.77891 0.33848
 C2149 C 0.47370 0.77127 0.34961
 C2150 C 0.46921 0.77587 0.36147
 C2151 C 0.47771 0.77407 0.32589
 C2152 C 0.47443 0.76175 0.32160
 C2153 C 0.47842 0.75739 0.30948
 C2154 C 0.48594 0.76521 0.30148
 C2155 C 0.48941 0.77745 0.30589
 C2156 C 0.48528 0.78185 0.31793
 H2157 H 0.45137 0.77469 0.38133
 H2158 H 0.44289 0.78270 0.40168
 H2159 H 0.45551 0.82078 0.39181
 H2160 H 0.46480 0.81262 0.37192
 H2161 H 0.45877 0.80514 0.35147
 H2162 H 0.46693 0.79721 0.33091
 H2163 H 0.47787 0.76181 0.34918
 H2164 H 0.47011 0.76984 0.36992
 H2165 H 0.46851 0.75560 0.32751
 H2166 H 0.47559 0.74792 0.30636
 H2167 H 0.49513 0.78374 0.29994
 H2168 H 0.48803 0.79135 0.32106
 C2169 C -0.04207 0.79226 0.87628
 C2170 C -0.04982 0.78460 0.88416
 C2171 C -0.05473 0.78935 0.89576
 C2172 C -0.05211 0.80198 0.89989
 C2173 C -0.04416 0.80953 0.89191
 C2174 C -0.03922 0.80473 0.88036
 C2175 C -0.03714 0.78734 0.86376
 C2176 C -0.03645 0.79540 0.85290
 C2177 C -0.03185 0.79082 0.84112
 C2178 C -0.02793 0.77804 0.83987
 C2179 C -0.02864 0.76994 0.85067
 C2180 C -0.03315 0.77455 0.86250
 C2181 C -0.02320 0.77318 0.82730
 C2182 C -0.02737 0.76134 0.82249
 C2183 C -0.02324 0.75697 0.81043
 C2184 C -0.01475 0.76431 0.80298
 C2185 C -0.01044 0.77608 0.80791
 C2186 C -0.01466 0.78049 0.81991
 H2187 H -0.05226 0.77495 0.88128
 H2188 H -0.06027 0.78282 0.90160
 H2189 H -0.04210 0.81942 0.89414
 H2190 H -0.03317 0.81086 0.87458
 H2191 H -0.03968 0.80522 0.85345
 H2192 H -0.03159 0.79721 0.83289
 H2193 H -0.02554 0.76009 0.85001
 H2194 H -0.03336 0.76814 0.87072
 H2195 H -0.03405 0.75558 0.82794
 H2196 H -0.02676 0.74787 0.80692
 H2197 H -0.00395 0.78200 0.80241
 H2198 H -0.01121 0.78960 0.82345
 C2199 C 0.37534 0.79100 0.29083
 C2200 C 0.37245 0.79043 0.30409
 C2201 C 0.36093 0.79522 0.30878
 C2202 C 0.35188 0.80056 0.30033
 C2203 C 0.35464 0.80087 0.28703
 C2204 C 0.36624 0.79621 0.28234
 C2205 C 0.38788 0.78638 0.28597
 C2206 C 0.38891 0.78031 0.27386
 C2207 C 0.40072 0.77598 0.26938
 C2208 C 0.41172 0.77749 0.27696
 C2209 C 0.41073 0.78356 0.28902
 C2210 C 0.39898 0.78804 0.29343
 C2211 C 0.42421 0.77271 0.27240
 C2212 C 0.43204 0.76557 0.28071
 C2213 C 0.44396 0.76128 0.27657
 C2214 C 0.44837 0.76417 0.26408
 C2215 C 0.44050 0.77129 0.25575
 C2216 C 0.42849 0.77543 0.25984
 H2217 H 0.37911 0.78627 0.31089
 H2218 H 0.35926 0.79498 0.31910
 H2219 H 0.34783 0.80475 0.28021
 H2220 H 0.36817 0.79694 0.27209
 H2221 H 0.38056 0.77869 0.26793
 H2222 H 0.40123 0.77123 0.26009
 H2223 H 0.41911 0.78501 0.29496
 H2224 H 0.39864 0.79294 0.30264
 H2225 H 0.42891 0.76328 0.29041
 H2226 H 0.44982 0.75589 0.28326
 H2227 H 0.44364 0.77366 0.24607
 H2228 H 0.42265 0.78099 0.25329
 C2229 C -0.12289 0.79410 0.79295
 C2230 C -0.13166 0.79957 0.78427
 C2231 C -0.14310 0.80482 0.78874
 C2232 C -0.14601 0.80486 0.80201
 C2233 C -0.13720 0.79946 0.81068
 C2234 C -0.12583 0.79409 0.80621
 C2235 C -0.11070 0.78847 0.78821
 C2236 C -0.09947 0.78955 0.79557
 C2237 C -0.08806 0.78419 0.79119
 C2238 C -0.08757 0.77777 0.77928
 C2239 C -0.09872 0.77676 0.77185
 C2240 C -0.11018 0.78197 0.77630
 C2241 C -0.07540 0.77229 0.77459
 C2242 C -0.07130 0.77449 0.76187
 C2243 C -0.05952 0.76985 0.75764
 C2244 C -0.05169 0.76273 0.76601
 C2245 C -0.05595 0.76028 0.77865
 C2246 C -0.06764 0.76508 0.78292
 H2247 H -0.12966 0.79992 0.77402
 H2248 H -0.14972 0.80873 0.78175
 H2249 H -0.13901 0.79948 0.82098
 H2250 H -0.11942 0.78982 0.81317
 H2251 H -0.09942 0.79471 0.80465
 H2252 H -0.07955 0.78527 0.79702
 H2253 H -0.09861 0.77175 0.76268
 H2254 H -0.11867 0.78074 0.77047
 H2255 H -0.07707 0.78010 0.75529
 H2256 H -0.05650 0.77191 0.74786
 H2257 H -0.05010 0.75492 0.78537
 H2258 H -0.07064 0.76317 0.79275
 C2259 C 0.87306 0.29287 0.45718
 C2260 C 0.87586 0.30598 0.45830
 C2261 C 0.88739 0.31089 0.45375
 C2262 C 0.89654 0.30279 0.44813
 C2263 C 0.89382 0.28965 0.44716
 C2264 C 0.88221 0.28476 0.45156
 C2265 C 0.86063 0.28773 0.46180
 C2266 C 0.85980 0.27550 0.46744
 C2267 C 0.84811 0.27080 0.47188
 C2268 C 0.83706 0.27830 0.47096
 C2269 C 0.83784 0.29046 0.46529
 C2270 C 0.84945 0.29509 0.46068
 C2271 C 0.82474 0.27359 0.47602
 C2272 C 0.81727 0.28150 0.48395
 C2273 C 0.80541 0.27736 0.48836
 C2274 C 0.80066 0.26528 0.48479
 C2275 C 0.80820 0.25730 0.47698
 C2276 C 0.82020 0.26138 0.47273
 H2277 H 0.86917 0.31250 0.46277
 H2278 H 0.88905 0.32108 0.45449
 H2279 H 0.90070 0.28309 0.44307
 H2280 H 0.88034 0.27465 0.45039
 H2281 H 0.86821 0.26964 0.46865
 H2282 H 0.84775 0.26142 0.47631
 H2283 H 0.82939 0.29634 0.46430
 H2284 H 0.84963 0.30440 0.45611
 H2285 H 0.82062 0.29091 0.48670
 H2286 H 0.79980 0.28379 0.49428
 H2287 H 0.80480 0.24795 0.47407
 H2288 H 0.82578 0.25514 0.46658
 C2289 C 0.87263 0.79244 -0.04233
 C2290 C 0.88194 0.78427 -0.04755
 C2291 C 0.89360 0.78913 -0.05184
 C2292 C 0.89620 0.80232 -0.05117
 C2293 C 0.88692 0.81047 -0.04589
 C2294 C 0.87533 0.80559 -0.04145
 C2295 C 0.86010 0.78732 -0.03796
 C2296 C 0.84892 0.79459 -0.03956
 C2297 C 0.83719 0.78995 -0.03527
 C2298 C 0.83631 0.77785 -0.02947
 C2299 C 0.84737 0.77045 -0.02807
 C2300 C 0.85917 0.77517 -0.03218
 C2301 C 0.82386 0.77312 -0.02478
 C2302 C 0.81948 0.76086 -0.02812
 C2303 C 0.80741 0.75673 -0.02417
 C2304 C 0.79962 0.76471 -0.01660
 C2305 C 0.80419 0.77685 -0.01301
 C2306 C 0.81614 0.78104 -0.01713
 H2307 H 0.88017 0.77412 -0.04854
 H2308 H 0.90060 0.78253 -0.05565
 H2309 H 0.88849 0.82069 -0.04537
 H2310 H 0.86851 0.81216 -0.03727
 H2311 H 0.84918 0.80383 -0.04425
 H2312 H 0.82875 0.79575 -0.03662
 H2313 H 0.84693 0.76113 -0.02352
 H2314 H 0.86757 0.76938 -0.03060
 H2315 H 0.82527 0.75461 -0.03406
 H2316 H 0.80414 0.74733 -0.02708
 H2317 H 0.79839 0.78327 -0.00728
 H2318 H 0.81935 0.79049 -0.01436
 C2319 C -0.12509 -0.04196 -0.03887
 C2320 C -0.13287 -0.03411 -0.04653
 C2321 C -0.14435 -0.03871 -0.05161
 C2322 C -0.14843 -0.05139 -0.04925
 C2323 C -0.14056 -0.05913 -0.04136
 C2324 C -0.12915 -0.05447 -0.03624
 C2325 C -0.11266 -0.03726 -0.03383
 C2326 C -0.10203 -0.04545 -0.03338
 C2327 C -0.09033 -0.04109 -0.02868
 C2328 C -0.08894 -0.02841 -0.02442
 C2329 C -0.09952 -0.02019 -0.02490
 C2330 C -0.11126 -0.02457 -0.02951
 C2331 C -0.07642 -0.02377 -0.01971
 C2332 C -0.07165 -0.01188 -0.02376
 C2333 C -0.05958 -0.00777 -0.01980
 C2334 C -0.05208 -0.01542 -0.01160
 C2335 C -0.05698 -0.02720 -0.00734
 C2336 C -0.06899 -0.03135 -0.01140
 H2337 H -0.13001 -0.02441 -0.04878
 H2338 H -0.15009 -0.03206 -0.05710
 H2339 H -0.14274 -0.06906 -0.03950
 H2340 H -0.12346 -0.06075 -0.03025
 H2341 H -0.10268 -0.05519 -0.03687
 H2342 H -0.08228 -0.04757 -0.02863
 H2343 H -0.09873 -0.01040 -0.02156
 H2344 H -0.11929 -0.01807 -0.02954
 H2345 H -0.07711 -0.00591 -0.03026
 H2346 H -0.05610 0.00135 -0.02326
 H2347 H -0.05144 -0.03335 -0.00106
 H2348 H -0.07250 -0.04050 -0.00803
 C2349 C -0.12575 0.46036 0.46068
 C2350 C -0.12966 0.44791 0.46370
 C2351 C -0.14095 0.44293 0.45861
 C2352 C -0.14880 0.45031 0.45034
 C2353 C -0.14481 0.46294 0.44754
 C2354 C -0.13345 0.46784 0.45259
 C2355 C -0.11352 0.46541 0.46573
 C2356 C -0.10512 0.47203 0.45756
 C2357 C -0.09335 0.47631 0.46216
 C2358 C -0.08974 0.47416 0.47508
 C2359 C -0.09826 0.46771 0.48330
 C2360 C -0.10999 0.46334 0.47867
 C2361 C -0.07705 0.47838 0.47985
 C2362 C -0.07005 0.47071 0.48848
 C2363 C -0.05796 0.47448 0.49268
 C2364 C -0.05253 0.48597 0.48828
 C2365 C -0.05957 0.49370 0.47975
 C2366 C -0.07170 0.48997 0.47563
 H2367 H -0.12376 0.44184 0.46972
 H2368 H -0.14304 0.43304 0.46074
 H2369 H -0.15058 0.46934 0.44180
 H2370 H -0.13077 0.47758 0.45030
 H2371 H -0.10753 0.47359 0.44750
 H2372 H -0.08695 0.48104 0.45550
 H2373 H -0.09589 0.46610 0.49336
 H2374 H -0.11635 0.45841 0.48522
 H2375 H -0.07379 0.46162 0.49176
 H2376 H -0.05276 0.46824 0.49916
 H2377 H -0.05570 0.50264 0.47622
 H2378 H -0.07691 0.49621 0.46916
 C2379 C 0.37522 -0.04168 0.46123
 C2380 C 0.37169 -0.05436 0.46371
 C2381 C 0.36038 -0.05936 0.45869
 C2382 C 0.35211 -0.05178 0.45105
 C2383 C 0.35568 -0.03890 0.44889
 C2384 C 0.36707 -0.03398 0.45385
 C2385 C 0.38757 -0.03665 0.46603
 C2386 C 0.39551 -0.02950 0.45784
 C2387 C 0.40741 -0.02525 0.46213
 C2388 C 0.41161 -0.02797 0.47475
 C2389 C 0.40355 -0.03495 0.48300
 C2390 C 0.39169 -0.03928 0.47867
 C2391 C 0.42445 -0.02376 0.47918
 C2392 C 0.43189 -0.03165 0.48719
 C2393 C 0.44408 -0.02785 0.49107
 C2394 C 0.44917 -0.01611 0.48694
 C2395 C 0.44170 -0.00817 0.47901
 C2396 C 0.42947 -0.01192 0.47522
 H2397 H 0.37793 -0.06059 0.46919
 H2398 H 0.35862 -0.06941 0.46033
 H2399 H 0.34958 -0.03235 0.44370
 H2400 H 0.36945 -0.02406 0.45201
 H2401 H 0.39265 -0.02749 0.44798
 H2402 H 0.41345 -0.02011 0.45543
 H2403 H 0.40637 -0.03700 0.49285
 H2404 H 0.38569 -0.04464 0.48523
 H2405 H 0.42842 -0.04092 0.49024
 H2406 H 0.44962 -0.03425 0.49709
 H2407 H 0.44530 0.00098 0.47573
 H2408 H 0.42393 -0.00550 0.46924
 C2409 C 0.37302 0.45897 -0.03774
 C2410 C 0.36890 0.44653 -0.03491
 C2411 C 0.35747 0.44185 -0.03994
 C2412 C 0.34961 0.44949 -0.04793
 C2413 C 0.35369 0.46217 -0.05038
 C2414 C 0.36521 0.46679 -0.04541
 C2415 C 0.38560 0.46358 -0.03299
 C2416 C 0.38730 0.47633 -0.02897
 C2417 C 0.39919 0.48058 -0.02459
 C2418 C 0.40959 0.47214 -0.02404
 C2419 C 0.40791 0.45943 -0.02807
 C2420 C 0.39609 0.45522 -0.03255
 C2421 C 0.42223 0.47652 -0.01941
 C2422 C 0.42935 0.46890 -0.01088
 C2423 C 0.44155 0.47265 -0.00701
 C2424 C 0.44695 0.48405 -0.01169
 C2425 C 0.43971 0.49179 -0.02006
 C2426 C 0.42745 0.48809 -0.02383
 H2427 H 0.37459 0.44029 -0.02888
 H2428 H 0.35530 0.43194 -0.03797
 H2429 H 0.34794 0.46878 -0.05590
 H2430 H 0.36809 0.47644 -0.04779
 H2431 H 0.37940 0.48298 -0.02903
 H2432 H 0.40022 0.49040 -0.02144
 H2433 H 0.41583 0.45278 -0.02797
 H2434 H 0.39523 0.44543 -0.03587
 H2435 H 0.42549 0.46001 -0.00723
 H2436 H 0.44685 0.46645 -0.00058
 H2437 H 0.44358 0.50064 -0.02382
 H2438 H 0.42219 0.49408 -0.03048
 C2439 C 0.37685 0.45796 0.79052
 C2440 C 0.38602 0.46586 0.79642
 C2441 C 0.39747 0.46073 0.80103
 C2442 C 0.39998 0.44756 0.79997
 C2443 C 0.39082 0.43968 0.79403
 C2444 C 0.37947 0.44482 0.78928
 C2445 C 0.36456 0.46332 0.78577
 C2446 C 0.35326 0.45611 0.78666
 C2447 C 0.34176 0.46097 0.78198
 C2448 C 0.34123 0.47321 0.77646
 C2449 C 0.35241 0.48054 0.77575
 C2450 C 0.36398 0.47562 0.78027
 C2451 C 0.32901 0.47823 0.77145
 C2452 C 0.32478 0.49052 0.77487
 C2453 C 0.31292 0.49495 0.77062
 C2454 C 0.30516 0.48726 0.76270
 C2455 C 0.30959 0.47509 0.75903
 C2456 C 0.32134 0.47060 0.76343
 H2457 H 0.38429 0.47599 0.79768
 H2458 H 0.40437 0.46712 0.80538
 H2459 H 0.39230 0.42947 0.79322
 H2460 H 0.37276 0.43847 0.78460
 H2461 H 0.35325 0.44675 0.79112
 H2462 H 0.33322 0.45521 0.78282
 H2463 H 0.35224 0.48998 0.77144
 H2464 H 0.37249 0.48136 0.77923
 H2465 H 0.33051 0.49654 0.78110
 H2466 H 0.30979 0.50437 0.77361
 H2467 H 0.30386 0.46892 0.75296
 H2468 H 0.32445 0.46113 0.76058
 C2469 C 0.37715 -0.04005 0.28859
 C2470 C 0.37999 -0.05312 0.28725
 C2471 C 0.39137 -0.05813 0.29206
 C2472 C 0.40034 -0.05017 0.29817
 C2473 C 0.39763 -0.03704 0.29930
 C2474 C 0.38615 -0.03205 0.29462
 C2475 C 0.36476 -0.03489 0.28389
 C2476 C 0.36393 -0.02259 0.27841
 C2477 C 0.35225 -0.01788 0.27393
 C2478 C 0.34122 -0.02543 0.27468
 C2479 C 0.34200 -0.03766 0.28021
 C2480 C 0.35361 -0.04230 0.28484
 C2481 C 0.32885 -0.02067 0.26975
 C2482 C 0.32120 -0.02857 0.26199
 C2483 C 0.30919 -0.02447 0.25792
 C2484 C 0.30450 -0.01242 0.26167
 C2485 C 0.31228 -0.00441 0.26924
 C2486 C 0.32439 -0.00846 0.27316
 H2487 H 0.37341 -0.05954 0.28245
 H2488 H 0.39301 -0.06831 0.29118
 H2489 H 0.40439 -0.03060 0.30380
 H2490 H 0.38425 -0.02196 0.29594
 H2491 H 0.37234 -0.01669 0.27737
 H2492 H 0.35188 -0.00845 0.26963
 H2493 H 0.33358 -0.04357 0.28111
 H2494 H 0.35379 -0.05166 0.28930
 H2495 H 0.32448 -0.03798 0.25914
 H2496 H 0.30343 -0.03091 0.25216
 H2497 H 0.30895 0.00492 0.27227
 H2498 H 0.33011 -0.00223 0.27920
 C2499 C 0.12582 0.53993 0.71227
 C2500 C 0.12406 0.54290 0.69912
 C2501 C 0.11232 0.54735 0.69463
 C2502 C 0.10209 0.54906 0.70318
 C2503 C 0.10379 0.54616 0.71632
 C2504 C 0.11551 0.54158 0.72081
 C2505 C 0.13839 0.53528 0.71702
 C2506 C 0.14307 0.53904 0.72918
 C2507 C 0.15505 0.53496 0.73345
 C2508 C 0.16270 0.52710 0.72561
 C2509 C 0.15796 0.52324 0.71349
 C2510 C 0.14594 0.52722 0.70929
 C2511 C 0.17568 0.52316 0.72987
 C2512 C 0.18052 0.51102 0.72664
 C2513 C 0.19295 0.50758 0.73004
 C2514 C 0.20077 0.51612 0.73691
 C2515 C 0.19585 0.52812 0.74043
 C2516 C 0.18348 0.53163 0.73689
 H2517 H 0.13184 0.54204 0.69232
 H2518 H 0.11132 0.54971 0.68448
 H2519 H 0.09600 0.54730 0.72308
 H2520 H 0.11644 0.53919 0.73095
 H2521 H 0.13759 0.54536 0.73534
 H2522 H 0.15830 0.53797 0.74290
 H2523 H 0.16363 0.51734 0.70711
 H2524 H 0.14257 0.52395 0.69996
 H2525 H 0.17471 0.50415 0.72148
 H2526 H 0.19642 0.49822 0.72729
 H2527 H 0.20168 0.53496 0.74563
 H2528 H 0.18016 0.54112 0.73936
 C2529 C 0.12498 0.04005 0.21279
 C2530 C 0.11586 0.03182 0.20735
 C2531 C 0.10436 0.03666 0.20257
 C2532 C 0.10182 0.04987 0.20297
 C2533 C 0.11098 0.05807 0.20849
 C2534 C 0.12238 0.05320 0.21341
 C2535 C 0.13734 0.03503 0.21750
 C2536 C 0.14227 0.03898 0.22948
 C2537 C 0.15417 0.03465 0.23368
 C2538 C 0.16150 0.02640 0.22591
 C2539 C 0.15647 0.02238 0.21396
 C2540 C 0.14449 0.02658 0.20985
 C2541 C 0.17444 0.02226 0.23010
 C2542 C 0.17900 0.00996 0.22709
 C2543 C 0.19132 0.00626 0.23060
 C2544 C 0.19933 0.01470 0.23736
 C2545 C 0.19473 0.02691 0.24058
 C2546 C 0.18247 0.03068 0.23692
 H2547 H 0.11760 0.02162 0.20688
 H2548 H 0.09745 0.03005 0.19861
 H2549 H 0.10950 0.06831 0.20871
 H2550 H 0.12934 0.05976 0.21740
 H2551 H 0.13686 0.04538 0.23562
 H2552 H 0.15760 0.03774 0.24304
 H2553 H 0.16191 0.01623 0.20761
 H2554 H 0.14097 0.02353 0.20050
 H2555 H 0.17302 0.00313 0.22206
 H2556 H 0.19456 -0.00325 0.22806
 H2557 H 0.20072 0.03370 0.24567
 H2558 H 0.17941 0.04030 0.23920
 C2559 C 0.62426 0.70769 0.20759
 C2560 C 0.63310 0.71594 0.20170
 C2561 C 0.64464 0.71124 0.19688
 C2562 C 0.64758 0.69814 0.19773
 C2563 C 0.63872 0.68989 0.20359
 C2564 C 0.62726 0.69461 0.20853
 C2565 C 0.61194 0.71264 0.21269
 C2566 C 0.60080 0.70518 0.21185
 C2567 C 0.58928 0.70969 0.21680
 C2568 C 0.58855 0.72183 0.22255
 C2569 C 0.59959 0.72939 0.22328
 C2570 C 0.61118 0.72481 0.21848
 C2571 C 0.57626 0.72656 0.22768
 C2572 C 0.57184 0.73884 0.22450
 C2573 C 0.55985 0.74296 0.22869
 C2574 C 0.55215 0.73495 0.23630
 C2575 C 0.55678 0.72281 0.23980
 C2576 C 0.56867 0.71864 0.23546
 H2577 H 0.63106 0.72603 0.20065
 H2578 H 0.65130 0.71790 0.19259
 H2579 H 0.64055 0.67972 0.20424
 H2580 H 0.62080 0.68799 0.21318
 H2581 H 0.60093 0.69591 0.20720
 H2582 H 0.58085 0.70377 0.21594
 H2583 H 0.59928 0.73874 0.22777
 H2584 H 0.61958 0.73073 0.21950
 H2585 H 0.57750 0.74509 0.21846
 H2586 H 0.55655 0.75236 0.22584
 H2587 H 0.55106 0.71638 0.24559
 H2588 H 0.57192 0.70917 0.23813
 C2589 C 0.12557 0.70885 0.71126
 C2590 C 0.12865 0.69577 0.71190
 C2591 C 0.14024 0.69127 0.70708
 C2592 C 0.14916 0.69975 0.70166
 C2593 C 0.14617 0.71285 0.70120
 C2594 C 0.13450 0.71733 0.70587
 C2595 C 0.11304 0.71355 0.71608
 C2596 C 0.11196 0.72557 0.72212
 C2597 C 0.10016 0.72994 0.72659
 C2598 C 0.08923 0.72230 0.72530
 C2599 C 0.09027 0.71030 0.71929
 C2600 C 0.10201 0.70601 0.71466
 C2601 C 0.07674 0.72677 0.73014
 C2602 C 0.06905 0.71860 0.73755
 C2603 C 0.05702 0.72256 0.74169
 C2604 C 0.05235 0.73472 0.73834
 C2605 C 0.06012 0.74296 0.73105
 C2606 C 0.07225 0.73905 0.72708
 H2607 H 0.12213 0.68897 0.71618
 H2608 H 0.14211 0.68110 0.70744
 H2609 H 0.15287 0.71969 0.69726
 H2610 H 0.13241 0.72744 0.70507
 H2611 H 0.12026 0.73155 0.72358
 H2612 H 0.09960 0.73918 0.73129
 H2613 H 0.08194 0.70432 0.71800
 H2614 H 0.10239 0.69685 0.70979
 H2615 H 0.07235 0.70912 0.74011
 H2616 H 0.05125 0.71595 0.74722
 H2617 H 0.05678 0.75238 0.72833
 H2618 H 0.07799 0.74549 0.72131
 C2619 C 0.62473 0.20897 0.54060
 C2620 C 0.61417 0.21700 0.54255
 C2621 C 0.60265 0.21198 0.54707
 C2622 C 0.60144 0.19882 0.54946
 C2623 C 0.61195 0.19078 0.54735
 C2624 C 0.62352 0.19582 0.54306
 C2625 C 0.63703 0.21427 0.53612
 C2626 C 0.64837 0.21117 0.54262
 C2627 C 0.66002 0.21609 0.53839
 C2628 C 0.66056 0.22402 0.52746
 C2629 C 0.64923 0.22707 0.52091
 C2630 C 0.63754 0.22233 0.52528
 C2631 C 0.67296 0.22898 0.52287
 C2632 C 0.67649 0.22770 0.50984
 C2633 C 0.68845 0.23189 0.50565
 C2634 C 0.69698 0.23767 0.51436
 C2635 C 0.69331 0.23917 0.52734
 C2636 C 0.68146 0.23477 0.53157
 H2637 H 0.61491 0.22718 0.54077
 H2638 H 0.59465 0.21834 0.54859
 H2639 H 0.61126 0.18061 0.54923
 H2640 H 0.63152 0.18945 0.54156
 H2641 H 0.64819 0.20503 0.55105
 H2642 H 0.66864 0.21354 0.54354
 H2643 H 0.64943 0.23321 0.51248
 H2644 H 0.62892 0.22479 0.52009
 H2645 H 0.67011 0.22319 0.50298
 H2646 H 0.69102 0.23062 0.49559
 H2647 H 0.69973 0.24348 0.53431
 H2648 H 0.67891 0.23590 0.54165
 C2649 C 0.62378 0.70744 0.03926
 C2650 C 0.61482 0.70179 0.03089
 C2651 C 0.60327 0.69707 0.03566
 C2652 C 0.60043 0.69780 0.04892
 C2653 C 0.60938 0.70348 0.05727
 C2654 C 0.62085 0.70830 0.05249
 C2655 C 0.63617 0.71230 0.03429
 C2656 C 0.64733 0.71104 0.04173
 C2657 C 0.65894 0.71581 0.03724
 C2658 C 0.65971 0.72181 0.02513
 C2659 C 0.64864 0.72292 0.01757
 C2660 C 0.63698 0.71828 0.02213
 C2661 C 0.67204 0.72691 0.02047
 C2662 C 0.67622 0.72442 0.00782
 C2663 C 0.68810 0.72883 0.00364
 C2664 C 0.69595 0.73599 0.01197
 C2665 C 0.69163 0.73867 0.02454
 C2666 C 0.67984 0.73413 0.02876
 H2667 H 0.61681 0.70084 0.02067
 H2668 H 0.59655 0.69289 0.02893
 H2669 H 0.60762 0.70404 0.06756
 H2670 H 0.62741 0.71277 0.05920
 H2671 H 0.64715 0.70624 0.05100
 H2672 H 0.66738 0.71465 0.04316
 H2673 H 0.64897 0.72761 0.00825
 H2674 H 0.62856 0.71958 0.01623
 H2675 H 0.67042 0.71880 0.00128
 H2676 H 0.69116 0.72659 -0.00610
 H2677 H 0.69747 0.74409 0.03123
 H2678 H 0.67678 0.73627 0.03853
 C2679 C 0.12556 0.04041 0.03973
 C2680 C 0.13380 0.03289 0.04722
 C2681 C 0.14504 0.03805 0.05225
 C2682 C 0.14839 0.05098 0.05003
 C2683 C 0.13996 0.05842 0.04245
 C2684 C 0.12878 0.05319 0.03736
 C2685 C 0.11351 0.03502 0.03460
 C2686 C 0.10966 0.03757 0.02185
 C2687 C 0.09808 0.03286 0.01716
 C2688 C 0.09004 0.02558 0.02517
 C2689 C 0.09398 0.02294 0.03789
 C2690 C 0.10561 0.02756 0.04253
 C2691 C 0.07742 0.02109 0.02044
 C2692 C 0.07258 0.00913 0.02424
 C2693 C 0.06038 0.00528 0.02048
 C2694 C 0.05276 0.01324 0.01272
 C2695 C 0.05774 0.02503 0.00859
 C2696 C 0.06990 0.02893 0.01244
 H2697 H 0.13163 0.02292 0.04901
 H2698 H 0.15126 0.03162 0.05746
 H2699 H 0.14153 0.06851 0.04083
 H2700 H 0.12245 0.05928 0.03183
 H2701 H 0.11566 0.04316 0.01548
 H2702 H 0.09544 0.03488 0.00725
 H2703 H 0.08793 0.01758 0.04440
 H2704 H 0.10827 0.02560 0.05245
 H2705 H 0.07821 0.00276 0.03019
 H2706 H 0.05687 -0.00390 0.02376
 H2707 H 0.05208 0.03144 0.00269
 H2708 H 0.07324 0.03827 0.00948
 C2709 C 0.12567 0.53892 0.54134
 C2710 C 0.12892 0.53878 0.55454
 C2711 C 0.14057 0.54373 0.55876
 C2712 C 0.14937 0.54880 0.54989
 C2713 C 0.14621 0.54874 0.53667
 C2714 C 0.13449 0.54394 0.53246
 C2715 C 0.11307 0.53402 0.53691
 C2716 C 0.11182 0.52769 0.52496
 C2717 C 0.09993 0.52326 0.52077
 C2718 C 0.08909 0.52489 0.52852
 C2719 C 0.09030 0.53114 0.54047
 C2720 C 0.10213 0.53573 0.54458
 C2721 C 0.07648 0.52020 0.52418
 C2722 C 0.06870 0.51322 0.53265
 C2723 C 0.05658 0.50922 0.52878
 C2724 C 0.05193 0.51228 0.51641
 C2725 C 0.05979 0.51914 0.50787
 C2726 C 0.07200 0.52297 0.51169
 H2727 H 0.12249 0.53480 0.56164
 H2728 H 0.14257 0.54376 0.56903
 H2729 H 0.15282 0.55238 0.52954
 H2730 H 0.13227 0.54437 0.52225
 H2731 H 0.12004 0.52600 0.51889
 H2732 H 0.09924 0.51837 0.51156
 H2733 H 0.08204 0.53268 0.54654
 H2734 H 0.10264 0.54081 0.55369
 H2735 H 0.07199 0.51089 0.54229
 H2736 H 0.05074 0.50401 0.53561
 H2737 H 0.05647 0.52162 0.49828
 H2738 H 0.07781 0.52841 0.50502
 C2739 C 0.62626 0.04074 0.53908
 C2740 C 0.62886 0.05387 0.53778
 C2741 C 0.64023 0.05906 0.54244
 C2742 C 0.64943 0.05124 0.54836
 C2743 C 0.64696 0.03806 0.54945
 C2744 C 0.63550 0.03289 0.54493
 C2745 C 0.61391 0.03537 0.53452
 C2746 C 0.61322 0.02304 0.52906
 C2747 C 0.60158 0.01812 0.52470
 C2748 C 0.59043 0.02549 0.52553
 C2749 C 0.59107 0.03775 0.53103
 C2750 C 0.60264 0.04259 0.53555
 C2751 C 0.57812 0.02054 0.52066
 C2752 C 0.57040 0.02825 0.51279
 C2753 C 0.55847 0.02395 0.50872
 C2754 C 0.55390 0.01190 0.51257
 C2755 C 0.56173 0.00407 0.52027
 C2756 C 0.57379 0.00832 0.52418
 H2757 H 0.62211 0.06020 0.53312
 H2758 H 0.64168 0.06928 0.54160
 H2759 H 0.65390 0.03171 0.55378
 H2760 H 0.63379 0.02276 0.54622
 H2761 H 0.62171 0.01727 0.52794
 H2762 H 0.60132 0.00867 0.52042
 H2763 H 0.58256 0.04353 0.53197
 H2764 H 0.60271 0.05197 0.53999
 H2765 H 0.57359 0.03766 0.50986
 H2766 H 0.55266 0.03025 0.50286
 H2767 H 0.55848 -0.00526 0.52338
 H2768 H 0.57956 0.00223 0.53030
 C2769 C 0.62350 0.54162 0.04165
 C2770 C 0.62649 0.54167 0.05490
 C2771 C 0.63802 0.54673 0.05930
 C2772 C 0.64697 0.55173 0.05055
 C2773 C 0.64407 0.55154 0.03727
 C2774 C 0.63246 0.54661 0.03288
 C2775 C 0.61106 0.53649 0.03704
 C2776 C 0.61016 0.52984 0.02523
 C2777 C 0.59845 0.52505 0.02095
 C2778 C 0.58743 0.52666 0.02846
 C2779 C 0.58829 0.53326 0.04024
 C2780 C 0.59995 0.53819 0.04444
 C2781 C 0.57502 0.52152 0.02403
 C2782 C 0.56721 0.51465 0.03257
 C2783 C 0.55534 0.51010 0.02854
 C2784 C 0.55095 0.51248 0.01592
 C2785 C 0.55881 0.51930 0.00735
 C2786 C 0.57078 0.52369 0.01134
 H2787 H 0.61994 0.53772 0.06193
 H2788 H 0.63982 0.54689 0.06960
 H2789 H 0.65080 0.55516 0.03024
 H2790 H 0.63044 0.54688 0.02263
 H2791 H 0.61854 0.52815 0.01938
 H2792 H 0.59803 0.51989 0.01188
 H2793 H 0.57988 0.53479 0.04611
 H2794 H 0.60019 0.54350 0.05343
 H2795 H 0.57031 0.51278 0.04238
 H2796 H 0.54947 0.50495 0.03540
 H2797 H 0.55570 0.52128 -0.00243
 H2798 H 0.57660 0.52904 0.00460
 C2799 C 0.04290 0.04046 0.12751
 C2800 C 0.05559 0.03811 0.13102
 C2801 C 0.06060 0.04316 0.14246
 C2802 C 0.05304 0.05067 0.15087
 C2803 C 0.04020 0.05282 0.14724
 C2804 C 0.03527 0.04784 0.13574
 C2805 C 0.03770 0.03536 0.11521
 C2806 C 0.03030 0.04318 0.10712
 C2807 C 0.02564 0.03851 0.09537
 C2808 C 0.02818 0.02586 0.09149
 C2809 C 0.03546 0.01800 0.09969
 C2810 C 0.04021 0.02272 0.11139
 C2811 C 0.02348 0.02102 0.07882
 C2812 C 0.03106 0.01284 0.07125
 C2813 C 0.02689 0.00873 0.05910
 C2814 C 0.01508 0.01280 0.05417
 C2815 C 0.00740 0.02081 0.06181
 C2816 C 0.01152 0.02482 0.07400
 H2817 H 0.06176 0.03264 0.12472
 H2818 H 0.07062 0.04155 0.14426
 H2819 H 0.03366 0.05793 0.15343
 H2820 H 0.02536 0.04959 0.13338
 H2821 H 0.02837 0.05302 0.10974
 H2822 H 0.02029 0.04492 0.08919
 H2823 H 0.03741 0.00816 0.09712
 H2824 H 0.04575 0.01644 0.11753
 H2825 H 0.04039 0.00988 0.07455
 H2826 H 0.03309 0.00265 0.05343
 H2827 H -0.00179 0.02405 0.05834
 H2828 H 0.00533 0.03092 0.07967
 C2829 C 0.04104 0.54007 0.62952
 C2830 C 0.04661 0.53173 0.63857
 C2831 C 0.05145 0.53639 0.65026
 C2832 C 0.05097 0.54953 0.65314
 C2833 C 0.04537 0.55785 0.64410
 C2834 C 0.04040 0.55318 0.63250
 C2835 C 0.03606 0.53518 0.61697
 C2836 C 0.03723 0.54255 0.60566
 C2837 C 0.03244 0.53808 0.59390
 C2838 C 0.02652 0.52607 0.59312
 C2839 C 0.02547 0.51859 0.60433
 C2840 C 0.03011 0.52313 0.61616
 C2841 C 0.02150 0.52142 0.58060
 C2842 C 0.02437 0.50904 0.57618
 C2843 C 0.02023 0.50497 0.56399
 C2844 C 0.01297 0.51314 0.55609
 C2845 C 0.00981 0.52539 0.56071
 C2846 C 0.01410 0.52950 0.57279
 H2847 H 0.04742 0.52160 0.63656
 H2848 H 0.05553 0.52967 0.65706
 H2849 H 0.04499 0.56805 0.64589
 H2850 H 0.03600 0.55987 0.62588
 H2851 H 0.04201 0.55172 0.60583
 H2852 H 0.03354 0.54394 0.58534
 H2853 H 0.02084 0.50934 0.60398
 H2854 H 0.02886 0.51728 0.62469
 H2855 H 0.03012 0.50266 0.58201
 H2856 H 0.02282 0.49549 0.56071
 H2857 H 0.00430 0.53195 0.55484
 H2858 H 0.01168 0.53905 0.57604
 C2859 C 0.54180 0.03690 0.62830
 C2860 C 0.55500 0.03770 0.63049
 C2861 C 0.55977 0.04262 0.64209
 C2862 C 0.55150 0.04717 0.65183
 C2863 C 0.53826 0.04624 0.64959
 C2864 C 0.53351 0.04108 0.63808
 C2865 C 0.53674 0.03202 0.61575
 C2866 C 0.52556 0.03718 0.61036
 C2867 C 0.52102 0.03291 0.59841
 C2868 C 0.52765 0.02351 0.59138
 C2869 C 0.53877 0.01826 0.59682
 C2870 C 0.54320 0.02238 0.60887
 C2871 C 0.52317 0.01945 0.57832
 C2872 C 0.52485 0.00679 0.57400
 C2873 C 0.52107 0.00316 0.56156
 C2874 C 0.51532 0.01205 0.55322
 C2875 C 0.51341 0.02463 0.55758
 C2876 C 0.51738 0.02831 0.56992
 H2877 H 0.56171 0.03488 0.62309
 H2878 H 0.57000 0.04348 0.64300
 H2879 H 0.53143 0.04904 0.65689
 H2880 H 0.52329 0.04027 0.63693
 H2881 H 0.52040 0.04474 0.61523
 H2882 H 0.51230 0.03703 0.59468
 H2883 H 0.54424 0.01112 0.59166
 H2884 H 0.55171 0.01800 0.61278
 H2885 H 0.52903 -0.00037 0.58025
 H2886 H 0.52258 -0.00663 0.55848
 H2887 H 0.50915 0.03174 0.55131
 H2888 H 0.51618 0.03820 0.57274
 C2889 C 0.54113 0.54177 0.12671
 C2890 C 0.54016 0.55483 0.12980
 C2891 C 0.54516 0.55957 0.14137
 C2892 C 0.55113 0.55135 0.15025
 C2893 C 0.55192 0.53825 0.14728
 C2894 C 0.54705 0.53353 0.13563
 C2895 C 0.53615 0.53681 0.11418
 C2896 C 0.53059 0.52458 0.11336
 C2897 C 0.52608 0.51990 0.10155
 C2898 C 0.52688 0.52740 0.09033
 C2899 C 0.53235 0.53963 0.09112
 C2900 C 0.53701 0.54425 0.10288
 C2901 C 0.52212 0.52249 0.07779
 C2902 C 0.51449 0.53023 0.06984
 C2903 C 0.51025 0.52574 0.05787
 C2904 C 0.51368 0.51348 0.05351
 C2905 C 0.52126 0.50571 0.06151
 C2906 C 0.52536 0.51015 0.07358
 H2907 H 0.53549 0.56144 0.12328
 H2908 H 0.54453 0.56974 0.14323
 H2909 H 0.55629 0.53160 0.15396
 H2910 H 0.54811 0.52344 0.13353
 H2911 H 0.52956 0.51867 0.12189
 H2912 H 0.52178 0.51049 0.10120
 H2913 H 0.53324 0.54553 0.08256
 H2914 H 0.54148 0.55358 0.10306
 H2915 H 0.51179 0.53975 0.07292
 H2916 H 0.50445 0.53198 0.05193
 H2917 H 0.52407 0.49622 0.05844
 H2918 H 0.53131 0.50404 0.07950
 C2919 C 0.21333 0.54062 0.62084
 C2920 C 0.21390 0.55365 0.61756
 C2921 C 0.20885 0.55802 0.60588
 C2922 C 0.20327 0.54946 0.59704
 C2923 C 0.20301 0.53636 0.60016
 C2924 C 0.20792 0.53201 0.61194
 C2925 C 0.21809 0.53613 0.63363
 C2926 C 0.22405 0.52414 0.63495
 C2927 C 0.22843 0.51999 0.64703
 C2928 C 0.22707 0.52780 0.65798
 C2929 C 0.22113 0.53976 0.65669
 C2930 C 0.21662 0.54384 0.64469
 C2931 C 0.23177 0.52356 0.67078
 C2932 C 0.23890 0.53192 0.67856
 C2933 C 0.24290 0.52818 0.69087
 C2934 C 0.23972 0.51604 0.69572
 C2935 C 0.23270 0.50761 0.68787
 C2936 C 0.22885 0.51130 0.67547
 H2937 H 0.21821 0.56054 0.62404
 H2938 H 0.20907 0.56819 0.60393
 H2939 H 0.19895 0.52946 0.59352
 H2940 H 0.20720 0.52192 0.61417
 H2941 H 0.22552 0.51804 0.62663
 H2942 H 0.23307 0.51077 0.64777
 H2943 H 0.21979 0.54586 0.66504
 H2944 H 0.21179 0.55297 0.64414
 H2945 H 0.24136 0.54139 0.67512
 H2946 H 0.24825 0.53492 0.69669
 H2947 H 0.23012 0.49818 0.69132
 H2948 H 0.22329 0.50471 0.66966
 C2949 C 0.20850 0.04179 0.12377
 C2950 C 0.21105 0.05440 0.12000
 C2951 C 0.20617 0.05923 0.10842
 C2952 C 0.19861 0.05156 0.10014
 C2953 C 0.19631 0.03878 0.10400
 C2954 C 0.20113 0.03402 0.11564
 C2955 C 0.21336 0.03684 0.13627
 C2956 C 0.20540 0.02971 0.14446
 C2957 C 0.20985 0.02539 0.15643
 C2958 C 0.22239 0.02803 0.16044
 C2959 C 0.23039 0.03501 0.15214
 C2960 C 0.22591 0.03941 0.14022
 C2961 C 0.22702 0.02370 0.17331
 C2962 C 0.23511 0.03153 0.18073
 C2963 C 0.23936 0.02756 0.19288
 C2964 C 0.23555 0.01570 0.19798
 C2965 C 0.22746 0.00786 0.19058
 C2966 C 0.22329 0.01179 0.17837
 H2967 H 0.21652 0.06068 0.12621
 H2968 H 0.20790 0.06922 0.10643
 H2969 H 0.19115 0.03215 0.09791
 H2970 H 0.19924 0.02416 0.11821
 H2971 H 0.19563 0.02773 0.14173
 H2972 H 0.20335 0.02023 0.16266
 H2973 H 0.24017 0.03700 0.15481
 H2974 H 0.23231 0.04474 0.13402
 H2975 H 0.23799 0.04085 0.17725
 H2976 H 0.24548 0.03390 0.19838
 H2977 H 0.22440 -0.00136 0.19418
 H2978 H 0.21723 0.00543 0.17284
 C2979 C 0.70769 0.20929 0.62496
 C2980 C 0.70174 0.21756 0.63383
 C2981 C 0.69728 0.21297 0.64568
 C2982 C 0.69858 0.19998 0.64892
 C2983 C 0.70451 0.19171 0.64004
 C2984 C 0.70906 0.19632 0.62826
 C2985 C 0.71238 0.21411 0.61230
 C2986 C 0.71142 0.20649 0.60112
 C2987 C 0.71595 0.21093 0.58926
 C2988 C 0.72143 0.22313 0.58825
 C2989 C 0.72231 0.23082 0.59935
 C2990 C 0.71790 0.22633 0.61127
 C2991 C 0.72610 0.22784 0.57561
 C2992 C 0.72303 0.24022 0.57137
 C2993 C 0.72704 0.24449 0.55924
 C2994 C 0.73435 0.23653 0.55118
 C2995 C 0.73760 0.22422 0.55554
 C2996 C 0.73345 0.21990 0.56760
 H2997 H 0.70038 0.22757 0.63155
 H2998 H 0.69289 0.21962 0.65235
 H2999 H 0.70550 0.18162 0.64212
 H3000 H 0.71375 0.18971 0.62176
 H3001 H 0.70699 0.19715 0.60149
 H3002 H 0.71498 0.20489 0.58080
 H3003 H 0.72661 0.24022 0.59885
 H3004 H 0.71899 0.23237 0.61970
 H3005 H 0.71727 0.24649 0.57732
 H3006 H 0.72437 0.25402 0.55617
 H3007 H 0.74315 0.21782 0.54954
 H3008 H 0.73603 0.21036 0.57070
 C3009 C 0.70743 0.70726 0.12301
 C3010 C 0.70847 0.69423 0.12622
 C3011 C 0.70381 0.68966 0.13799
 C3012 C 0.69812 0.69802 0.14694
 C3013 C 0.69723 0.71107 0.14381
 C3014 C 0.70177 0.71562 0.13198
 C3015 C 0.71211 0.71205 0.11032
 C3016 C 0.71780 0.72419 0.10928
 C3017 C 0.72205 0.72872 0.09732
 C3018 C 0.72085 0.72114 0.08617
 C3019 C 0.71526 0.70899 0.08719
 C3020 C 0.71087 0.70452 0.09910
 C3021 C 0.72531 0.72593 0.07348
 C3022 C 0.73249 0.71802 0.06528
 C3023 C 0.73649 0.72243 0.05320
 C3024 C 0.73327 0.73481 0.04901
 C3025 C 0.72611 0.74273 0.05725
 C3026 C 0.72225 0.73836 0.06940
 H3027 H 0.71294 0.68753 0.11965
 H3028 H 0.70451 0.67952 0.13998
 H3029 H 0.69306 0.71781 0.15054
 H3030 H 0.70067 0.72568 0.12978
 H3031 H 0.71912 0.73016 0.11773
 H3032 H 0.72646 0.73807 0.09681
 H3033 H 0.71406 0.70304 0.07870
 H3034 H 0.70631 0.69524 0.09947
 H3035 H 0.73505 0.70842 0.06824
 H3036 H 0.74193 0.71606 0.04705
 H3037 H 0.72347 0.75231 0.05431
 H3038 H 0.71664 0.74461 0.07551
 C3039 C 0.53938 0.70835 0.12232
 C3040 C 0.53121 0.70293 0.11302
 C3041 C 0.53604 0.69833 0.10130
 C3042 C 0.54917 0.69892 0.09863
 C3043 C 0.55729 0.70449 0.10788
 C3044 C 0.55245 0.70923 0.11949
 C3045 C 0.53442 0.71286 0.13501
 C3046 C 0.54180 0.71143 0.14628
 C3047 C 0.53740 0.71594 0.15816
 C3048 C 0.52542 0.72181 0.15912
 C3049 C 0.51786 0.72302 0.14798
 C3050 C 0.52235 0.71867 0.13602
 C3051 C 0.52097 0.72674 0.17174
 C3052 C 0.50880 0.72363 0.17643
 C3053 C 0.50498 0.72769 0.18873
 C3054 C 0.51319 0.73511 0.19645
 C3055 C 0.52522 0.73849 0.19156
 C3056 C 0.52909 0.73428 0.17938
 H3057 H 0.52111 0.70199 0.11489
 H3058 H 0.52947 0.69427 0.09434
 H3059 H 0.56748 0.70494 0.10630
 H3060 H 0.55902 0.71357 0.12628
 H3061 H 0.55097 0.70670 0.14597
 H3062 H 0.54330 0.71470 0.16666
 H3063 H 0.50862 0.72760 0.14849
 H3064 H 0.51647 0.72009 0.12754
 H3065 H 0.50240 0.71778 0.17073
 H3066 H 0.49565 0.72495 0.19223
 H3067 H 0.53180 0.74413 0.19727
 H3068 H 0.53848 0.73687 0.17591
 C3069 C 0.03881 0.71004 0.62281
 C3070 C 0.03052 0.70486 0.61348
 C3071 C 0.03519 0.70063 0.60155
 C3072 C 0.04828 0.70135 0.59871
 C3073 C 0.05651 0.70671 0.60798
 C3074 C 0.05183 0.71108 0.61980
 C3075 C 0.03402 0.71410 0.63573
 C3076 C 0.04157 0.71231 0.64683
 C3077 C 0.03732 0.71637 0.65893
 C3078 C 0.02533 0.72215 0.66028
 C3079 C 0.01761 0.72372 0.64930
 C3080 C 0.02195 0.71981 0.63713
 C3081 C 0.02104 0.72664 0.67313
 C3082 C 0.00888 0.72348 0.67783
 C3083 C 0.00516 0.72723 0.69026
 C3084 C 0.01346 0.73441 0.69811
 C3085 C 0.02550 0.73780 0.69325
 C3086 C 0.02927 0.73389 0.68093
 H3087 H 0.02045 0.70381 0.61548
 H3088 H 0.02853 0.69673 0.59459
 H3089 H 0.06667 0.70726 0.60626
 H3090 H 0.05848 0.71525 0.62662
 H3091 H 0.05076 0.70765 0.64622
 H3092 H 0.04335 0.71487 0.66729
 H3093 H 0.00836 0.72823 0.65010
 H3094 H 0.01594 0.72149 0.62879
 H3095 H 0.00240 0.71784 0.67200
 H3096 H -0.00418 0.72450 0.69373
 H3097 H 0.03214 0.74327 0.69907
 H3098 H 0.03865 0.73653 0.67748
 C3099 C 0.54029 0.62211 0.21376
 C3100 C 0.53249 0.61143 0.21126
 C3101 C 0.53766 0.60021 0.20609
 C3102 C 0.55076 0.59937 0.20347
 C3103 C 0.55859 0.60993 0.20615
 C3104 C 0.55341 0.62118 0.21117
 C3105 C 0.53477 0.63428 0.21872
 C3106 C 0.54170 0.64203 0.22734
 C3107 C 0.53689 0.65384 0.23136
 C3108 C 0.52495 0.65816 0.22699
 C3109 C 0.51785 0.65024 0.21867
 C3110 C 0.52273 0.63849 0.21453
 C3111 C 0.52016 0.67105 0.23074
 C3112 C 0.51338 0.67860 0.22183
 C3113 C 0.50945 0.69095 0.22510
 C3114 C 0.51234 0.69612 0.23729
 C3115 C 0.51894 0.68854 0.24628
 C3116 C 0.52273 0.67612 0.24308
 H3117 H 0.52239 0.61171 0.21334
 H3118 H 0.53145 0.59215 0.20421
 H3119 H 0.56869 0.60959 0.20402
 H3120 H 0.55968 0.62927 0.21269
 H3121 H 0.55090 0.63901 0.23095
 H3122 H 0.54271 0.65971 0.23765
 H3123 H 0.50854 0.65315 0.21527
 H3124 H 0.51717 0.63286 0.20779
 H3125 H 0.51143 0.67513 0.21217
 H3126 H 0.50448 0.69660 0.21791
 H3127 H 0.52122 0.69221 0.25580
 H3128 H 0.52770 0.67050 0.25028
 C3129 C 0.04047 0.62118 0.71563
 C3130 C 0.05360 0.61854 0.71624
 C3131 C 0.05845 0.60698 0.71161
 C3132 C 0.05028 0.59762 0.70642
 C3133 C 0.03710 0.60007 0.70622
 C3134 C 0.03226 0.61172 0.71069
 C3135 C 0.03548 0.63387 0.71978
 C3136 C 0.02350 0.63502 0.72579
 C3137 C 0.01889 0.64700 0.72961
 C3138 C 0.02625 0.65805 0.72767
 C3139 C 0.03817 0.65694 0.72163
 C3140 C 0.04269 0.64502 0.71765
 C3141 C 0.02165 0.67073 0.73197
 C3142 C 0.02977 0.67885 0.73898
 C3143 C 0.02575 0.69105 0.74260
 C3144 C 0.01356 0.69548 0.73916
 C3145 C 0.00536 0.68730 0.73226
 C3146 C 0.00934 0.67498 0.72880
 H3147 H 0.06020 0.62546 0.72023
 H3148 H 0.06866 0.60556 0.71178
 H3149 H 0.03049 0.59301 0.70250
 H3150 H 0.02211 0.61343 0.70997
 H3151 H 0.01775 0.62664 0.72774
 H3152 H 0.00971 0.64763 0.73433
 H3153 H 0.04393 0.66535 0.71984
 H3154 H 0.05178 0.64460 0.71274
 H3155 H 0.03927 0.67575 0.74162
 H3156 H 0.03233 0.69713 0.74785
 H3157 H -0.00408 0.69044 0.72949
 H3158 H 0.00294 0.66890 0.72334
 C3159 C 0.03994 0.12634 0.03855
 C3160 C 0.03713 0.13016 0.05122
 C3161 C 0.04225 0.14141 0.05630
 C3162 C 0.05034 0.14933 0.04884
 C3163 C 0.05298 0.14542 0.03602
 C3164 C 0.04789 0.13409 0.03100
 C3165 C 0.03482 0.11412 0.03341
 C3166 C 0.04272 0.10572 0.02649
 C3167 C 0.03812 0.09388 0.02230
 C3168 C 0.02547 0.09021 0.02485
 C3169 C 0.01749 0.09876 0.03153
 C3170 C 0.02213 0.11056 0.03579
 C3171 C 0.02076 0.07736 0.02092
 C3172 C 0.01268 0.07033 0.02910
 C3173 C 0.00873 0.05801 0.02570
 C3174 C 0.01283 0.05239 0.01408
 C3175 C 0.02074 0.05950 0.00580
 C3176 C 0.02462 0.07185 0.00916
 H3177 H 0.03126 0.12421 0.05737
 H3178 H 0.04028 0.14341 0.06635
 H3179 H 0.05862 0.15124 0.02956
 H3180 H 0.05004 0.13147 0.02110
 H3181 H 0.05259 0.10814 0.02467
 H3182 H 0.04458 0.08745 0.01738
 H3183 H 0.00764 0.09634 0.03345
 H3184 H 0.01577 0.11694 0.04095
 H3185 H 0.00968 0.07420 0.03832
 H3186 H 0.00271 0.05278 0.03235
 H3187 H 0.02402 0.05551 -0.00327
 H3188 H 0.03067 0.07708 0.00254
 C3189 C 0.04035 0.62609 0.53989
 C3190 C 0.03223 0.63662 0.54191
 C3191 C 0.03703 0.64818 0.54665
 C3192 C 0.05008 0.64953 0.54931
 C3193 C 0.05824 0.63912 0.54715
 C3194 C 0.05343 0.62750 0.54258
 C3195 C 0.03520 0.61365 0.53519
 C3196 C 0.04239 0.60587 0.52684
 C3197 C 0.03775 0.59399 0.52280
 C3198 C 0.02573 0.58964 0.52686
 C3199 C 0.01843 0.59753 0.53500
 C3200 C 0.02313 0.60934 0.53917
 C3201 C 0.02098 0.57680 0.52288
 C3202 C 0.01387 0.56925 0.53151
 C3203 C 0.00979 0.55702 0.52798
 C3204 C 0.01286 0.55197 0.51578
 C3205 C 0.01985 0.55953 0.50709
 C3206 C 0.02378 0.57183 0.51056
 H3207 H 0.02216 0.63598 0.53972
 H3208 H 0.03057 0.65613 0.54811
 H3209 H 0.06832 0.63988 0.54929
 H3210 H 0.05993 0.61956 0.54140
 H3211 H 0.05163 0.60895 0.52340
 H3212 H 0.04373 0.58813 0.51667
 H3213 H 0.00905 0.59460 0.53818
 H3214 H 0.01738 0.61498 0.54572
 H3215 H 0.01173 0.57263 0.54116
 H3216 H 0.00455 0.55137 0.53495
 H3217 H 0.02229 0.55593 0.49759
 H3218 H 0.02901 0.57746 0.50357
 C3219 C 0.54209 0.12473 0.53715
 C3220 C 0.53371 0.13408 0.54196
 C3221 C 0.53836 0.14573 0.54666
 C3222 C 0.55153 0.14826 0.54683
 C3223 C 0.55989 0.13896 0.54186
 C3224 C 0.55523 0.12741 0.53700
 C3225 C 0.53724 0.11211 0.53260
 C3226 C 0.54440 0.10092 0.53468
 C3227 C 0.53994 0.08907 0.53040
 C3228 C 0.52812 0.08809 0.52413
 C3229 C 0.52084 0.09917 0.52217
 C3230 C 0.52539 0.11108 0.52627
 C3231 C 0.52347 0.07547 0.51969
 C3232 C 0.51114 0.07129 0.52281
 C3233 C 0.50708 0.05903 0.51927
 C3234 C 0.51522 0.05084 0.51234
 C3235 C 0.52743 0.05520 0.50893
 C3236 C 0.53155 0.06735 0.51266
 H3237 H 0.52356 0.13233 0.54237
 H3238 H 0.53162 0.15273 0.55020
 H3239 H 0.57009 0.14046 0.54199
 H3240 H 0.56196 0.12057 0.53314
 H3241 H 0.55339 0.10125 0.53980
 H3242 H 0.54563 0.08062 0.53219
 H3243 H 0.51174 0.09864 0.51726
 H3244 H 0.51970 0.11950 0.52431
 H3245 H 0.50478 0.07737 0.52830
 H3246 H 0.49762 0.05593 0.52202
 H3247 H 0.53396 0.04910 0.50367
 H3248 H 0.54107 0.07041 0.51008
 C3249 C 0.54144 0.62300 0.04047
 C3250 C 0.53338 0.63360 0.04237
 C3251 C 0.53821 0.64512 0.04716
 C3252 C 0.55124 0.64637 0.04999
 C3253 C 0.55934 0.63588 0.04799
 C3254 C 0.55448 0.62430 0.04337
 C3255 C 0.53626 0.61063 0.03563
 C3256 C 0.54352 0.60280 0.02738
 C3257 C 0.53881 0.59102 0.02315
 C3258 C 0.52664 0.58681 0.02691
 C3259 C 0.51929 0.59473 0.03499
 C3260 C 0.52406 0.60644 0.03935
 C3261 C 0.52176 0.57410 0.02266
 C3262 C 0.51430 0.56658 0.03102
 C3263 C 0.51001 0.55451 0.02719
 C3264 C 0.51321 0.54957 0.01499
 C3265 C 0.52058 0.55709 0.00658
 C3266 C 0.52473 0.56924 0.01034
 H3267 H 0.52334 0.63305 0.04002
 H3268 H 0.53181 0.65314 0.04850
 H3269 H 0.56939 0.63657 0.05026
 H3270 H 0.56094 0.61629 0.04229
 H3271 H 0.55286 0.60579 0.02414
 H3272 H 0.54482 0.58513 0.01709
 H3273 H 0.50980 0.59190 0.03793
 H3274 H 0.51825 0.61210 0.04582
 H3275 H 0.51202 0.56988 0.04067
 H3276 H 0.50445 0.54891 0.03395
 H3277 H 0.52313 0.55358 -0.00292
 H3278 H 0.53023 0.57485 0.00355
 C3279 C 0.70820 0.12535 0.53637
 C3280 C 0.71618 0.11745 0.54377
 C3281 C 0.71174 0.10580 0.54865
 C3282 C 0.69910 0.10166 0.54637
 C3283 C 0.69127 0.10960 0.53865
 C3284 C 0.69576 0.12119 0.53373
 C3285 C 0.71269 0.13804 0.53170
 C3286 C 0.70439 0.14860 0.53161
 C3287 C 0.70858 0.16056 0.52737
 C3288 C 0.72119 0.16228 0.52320
 C3289 C 0.72952 0.15176 0.52329
 C3290 C 0.72531 0.13976 0.52745
 C3291 C 0.72565 0.17506 0.51894
 C3292 C 0.73744 0.17988 0.52315
 C3293 C 0.74139 0.19214 0.51957
 C3294 C 0.73369 0.19981 0.51158
 C3295 C 0.72199 0.19488 0.50719
 C3296 C 0.71799 0.18267 0.51087
 H3297 H 0.72583 0.12037 0.54602
 H3298 H 0.71848 0.10000 0.55395
 H3299 H 0.68138 0.10735 0.53683
 H3300 H 0.68939 0.12696 0.52792
 H3301 H 0.69470 0.14771 0.53508
 H3302 H 0.70202 0.16855 0.52760
 H3303 H 0.73926 0.15279 0.51999
 H3304 H 0.73189 0.13179 0.52720
 H3305 H 0.74347 0.17427 0.52948
 H3306 H 0.75046 0.19564 0.52313
 H3307 H 0.71580 0.20054 0.50107
 H3308 H 0.70891 0.17915 0.50739
 C3309 C 0.70606 0.62580 0.03754
 C3310 C 0.70297 0.61544 0.02941
 C3311 C 0.69822 0.60404 0.03457
 C3312 C 0.69661 0.60270 0.04797
 C3313 C 0.69968 0.61300 0.05610
 C3314 C 0.70427 0.62444 0.05094
 C3315 C 0.71108 0.63799 0.03212
 C3316 C 0.72026 0.64512 0.03894
 C3317 C 0.72467 0.65678 0.03413
 C3318 C 0.72016 0.66157 0.02228
 C3319 C 0.71116 0.65433 0.01533
 C3320 C 0.70664 0.64272 0.02022
 C3321 C 0.72463 0.67419 0.01738
 C3322 C 0.71622 0.68246 0.01087
 C3323 C 0.72026 0.69454 0.00680
 C3324 C 0.73276 0.69870 0.00929
 C3325 C 0.74122 0.69040 0.01563
 C3326 C 0.73724 0.67825 0.01953
 H3327 H 0.70440 0.61607 0.01907
 H3328 H 0.69601 0.59618 0.02812
 H3329 H 0.69833 0.61226 0.06645
 H3330 H 0.70624 0.63229 0.05748
 H3331 H 0.72408 0.64169 0.04802
 H3332 H 0.73145 0.66215 0.03986
 H3333 H 0.70761 0.65761 0.00608
 H3334 H 0.69948 0.63757 0.01476
 H3335 H 0.70639 0.67977 0.00924
 H3336 H 0.71348 0.70078 0.00206
 H3337 H 0.75095 0.69330 0.01758
 H3338 H 0.74406 0.67205 0.02426
 C3339 C 0.21278 0.62945 0.71281
 C3340 C 0.22055 0.64011 0.71014
 C3341 C 0.21526 0.65140 0.70526
 C3342 C 0.20209 0.65233 0.70309
 C3343 C 0.19431 0.64176 0.70585
 C3344 C 0.19959 0.63044 0.71059
 C3345 C 0.21836 0.61726 0.71763
 C3346 C 0.21164 0.60961 0.72648
 C3347 C 0.21649 0.59781 0.73044
 C3348 C 0.22829 0.59340 0.72580
 C3349 C 0.23519 0.60120 0.71722
 C3350 C 0.23026 0.61296 0.71314
 C3351 C 0.23314 0.58054 0.72957
 C3352 C 0.23965 0.57284 0.72058
 C3353 C 0.24361 0.56051 0.72390
 C3354 C 0.24101 0.55552 0.73622
 C3355 C 0.23469 0.56325 0.74528
 C3356 C 0.23088 0.57565 0.74203
 H3357 H 0.23071 0.63976 0.71192
 H3358 H 0.22145 0.65946 0.70329
 H3359 H 0.18415 0.64215 0.70405
 H3360 H 0.19334 0.62237 0.71223
 H3361 H 0.20255 0.61270 0.73032
 H3362 H 0.21082 0.59202 0.73692
 H3363 H 0.24439 0.59822 0.71360
 H3364 H 0.23566 0.61852 0.70623
 H3365 H 0.24137 0.57618 0.71084
 H3366 H 0.24836 0.55474 0.71666
 H3367 H 0.23265 0.55971 0.75490
 H3368 H 0.22613 0.58138 0.74928
 C3369 C 0.20995 0.12654 0.21115
 C3370 C 0.19750 0.13044 0.21410
 C3371 C 0.19261 0.14189 0.20926
 C3372 C 0.20006 0.14998 0.20132
 C3373 C 0.21274 0.14614 0.19877
 C3374 C 0.21756 0.13461 0.20356
 C3375 C 0.21482 0.11396 0.21570
 C3376 C 0.22758 0.11248 0.21960
 C3377 C 0.23211 0.10058 0.22372
 C3378 C 0.22395 0.08994 0.22413
 C3379 C 0.21121 0.09140 0.22026
 C3380 C 0.20671 0.10325 0.21604
 C3381 C 0.22866 0.07730 0.22851
 C3382 C 0.22136 0.06986 0.23702
 C3383 C 0.22555 0.05777 0.24085
 C3384 C 0.23711 0.05279 0.23616
 C3385 C 0.24447 0.06030 0.22771
 C3386 C 0.24032 0.07246 0.22398
 H3387 H 0.19141 0.12454 0.22009
 H3388 H 0.18272 0.14390 0.21131
 H3389 H 0.21921 0.15209 0.19330
 H3390 H 0.22722 0.13192 0.20108
 H3391 H 0.23404 0.12056 0.21964
 H3392 H 0.24195 0.09972 0.22677
 H3393 H 0.20477 0.08331 0.22028
 H3394 H 0.19692 0.10395 0.21283
 H3395 H 0.21239 0.07341 0.24075
 H3396 H 0.21962 0.05223 0.24733
 H3397 H 0.25341 0.05675 0.22391
 H3398 H 0.24608 0.07797 0.21732
 C3399 C 0.71444 1.13143 0.71386
 C3400 C 0.71669 1.13468 0.70093
 C3401 C 0.71122 1.14561 0.69554
 C3402 C 0.70332 1.15377 0.70296
 C3403 C 0.70141 1.15054 0.71611
 C3404 C 0.70684 1.13952 0.72142
 C3405 C 0.71960 1.11934 0.71921
 C3406 C 0.71178 1.11122 0.72655
 C3407 C 0.71629 1.09935 0.73074
 C3408 C 0.72875 1.09538 0.72777
 C3409 C 0.73669 1.10370 0.72076
 C3410 C 0.73214 1.11552 0.71648
 C3411 C 0.73324 1.08241 0.73150
 C3412 C 0.74085 1.07520 0.72301
 C3413 C 0.74452 1.06274 0.72617
 C3414 C 0.74059 1.05715 0.73786
 C3415 C 0.73317 1.06443 0.74646
 C3416 C 0.72958 1.07692 0.74333
 H3417 H 0.72232 1.12846 0.69479
 H3418 H 0.71270 1.14709 0.68532
 H3419 H 0.69601 1.15662 0.72254
 H3420 H 0.70515 1.13735 0.73151
 H3421 H 0.70201 1.11385 0.72865
 H3422 H 0.70985 1.09311 0.73594
 H3423 H 0.74641 1.10104 0.71852
 H3424 H 0.73842 1.12168 0.71099
 H3425 H 0.74367 1.07903 0.71372
 H3426 H 0.75015 1.05738 0.71927
 H3427 H 0.73005 1.06045 0.75558
 H3428 H 0.72390 1.08228 0.75019
 C3429 C 0.71159 0.62859 0.21140
 C3430 C 0.71925 0.63924 0.20843
 C3431 C 0.71386 0.65032 0.20318
 C3432 C 0.70068 0.65104 0.20094
 C3433 C 0.69300 0.64050 0.20406
 C3434 C 0.69839 0.62939 0.20915
 C3435 C 0.71730 0.61657 0.21650
 C3436 C 0.71064 0.60902 0.22549
 C3437 C 0.71559 0.59733 0.22965
 C3438 C 0.72742 0.59293 0.22507
 C3439 C 0.73426 0.60066 0.21637
 C3440 C 0.72924 0.61229 0.21209
 C3441 C 0.73232 0.58013 0.22896
 C3442 C 0.73888 0.57239 0.22004
 C3443 C 0.74286 0.56009 0.22345
 C3444 C 0.74024 0.55517 0.23580
 C3445 C 0.73389 0.56295 0.24480
 C3446 C 0.73006 0.57532 0.24145
 H3447 H 0.72941 0.63905 0.21022
 H3448 H 0.71997 0.65837 0.20094
 H3449 H 0.68284 0.64074 0.20223
 H3450 H 0.69221 0.62131 0.21103
 H3451 H 0.70153 0.61210 0.22928
 H3452 H 0.70996 0.59159 0.23622
 H3453 H 0.74349 0.59769 0.21279
 H3454 H 0.73458 0.61777 0.20507
 H3455 H 0.74060 0.57565 0.21027
 H3456 H 0.74763 0.55428 0.21625
 H3457 H 0.73183 0.55946 0.25443
 H3458 H 0.72527 0.58108 0.24866
 C3459 C 0.53600 0.11892 0.71349
 C3460 C 0.54200 0.11006 0.72167
 C3461 C 0.54726 0.09882 0.71662
 C3462 C 0.54680 0.09631 0.70326
 C3463 C 0.54061 0.10514 0.69514
 C3464 C 0.53521 0.11627 0.70021
 C3465 C 0.53102 0.13115 0.71865
 C3466 C 0.51897 0.13565 0.71491
 C3467 C 0.51462 0.14757 0.71915
 C3468 C 0.52230 0.15534 0.72708
 C3469 C 0.53428 0.15068 0.73100
 C3470 C 0.53855 0.13869 0.72689
 C3471 C 0.51807 0.16842 0.73083
 C3472 C 0.52124 0.17359 0.74298
 C3473 C 0.51779 0.18612 0.74618
 C3474 C 0.51096 0.19372 0.73738
 C3475 C 0.50757 0.18848 0.72534
 C3476 C 0.51115 0.17603 0.72208
 H3477 H 0.54261 0.11183 0.73197
 H3478 H 0.55173 0.09213 0.72320
 H3479 H 0.54029 0.10369 0.68478
 H3480 H 0.53078 0.12304 0.69368
 H3481 H 0.51293 0.12994 0.70868
 H3482 H 0.50524 0.15070 0.71617
 H3483 H 0.54055 0.15647 0.73692
 H3484 H 0.54795 0.13550 0.72979
 H3485 H 0.52637 0.16795 0.75004
 H3486 H 0.52047 0.18986 0.75557
 H3487 H 0.50244 0.19413 0.71828
 H3488 H 0.50876 0.17249 0.71254
 C3489 C 1.04194 0.12393 0.21154
 C3490 C 1.03384 0.11474 0.20593
 C3491 C 1.03873 0.10317 0.20130
 C3492 C 1.05185 0.10053 0.20206
 C3493 C 1.05992 0.10968 0.20775
 C3494 C 1.05502 0.12116 0.21252
 C3495 C 1.03686 0.13641 0.21619
 C3496 C 1.04415 0.14763 0.21490
 C3497 C 1.03955 0.15933 0.21943
 C3498 C 1.02748 0.16014 0.22520
 C3499 C 1.02006 0.14903 0.22632
 C3500 C 1.02473 0.13726 0.22195
 C3501 C 1.02272 0.17260 0.22999
 C3502 C 1.01046 0.17691 0.22674
 C3503 C 1.00634 0.18906 0.23060
 C3504 C 1.01435 0.19703 0.23796
 C3505 C 1.02648 0.19251 0.24152
 C3506 C 1.03064 0.18047 0.23751
 H3507 H 1.02375 0.11658 0.20488
 H3508 H 1.03220 0.09628 0.19715
 H3509 H 1.07010 0.10809 0.20834
 H3510 H 1.06153 0.12788 0.21699
 H3511 H 1.05337 0.14744 0.21024
 H3512 H 1.04536 0.16781 0.21826
 H3513 H 1.01075 0.14941 0.23082
 H3514 H 1.01893 0.12881 0.22328
 H3515 H 1.00421 0.17103 0.22089
 H3516 H 0.99695 0.19227 0.22771
 H3517 H 1.03292 0.19843 0.24712
 H3518 H 1.04010 0.17731 0.24023
 C3519 C 0.20923 0.62206 0.53531
 C3520 C 0.19628 0.62076 0.53856
 C3521 C 0.19160 0.60924 0.54347
 C3522 C 0.19978 0.59880 0.54538
 C3523 C 0.21270 0.60001 0.54208
 C3524 C 0.21736 0.61149 0.53702
 C3525 C 0.21425 0.63449 0.53050
 C3526 C 0.22640 0.63882 0.53425
 C3527 C 0.23089 0.65074 0.53020
 C3528 C 0.22331 0.65871 0.52240
 C3529 C 0.21124 0.65431 0.51850
 C3530 C 0.20680 0.64233 0.52245
 C3531 C 0.22779 0.67171 0.51868
 C3532 C 0.22476 0.67689 0.50651
 C3533 C 0.22847 0.68932 0.50328
 C3534 C 0.23544 0.69681 0.51209
 C3535 C 0.23869 0.69156 0.52414
 C3536 C 0.23486 0.67919 0.52743
 H3537 H 0.18978 0.62875 0.53763
 H3538 H 0.18164 0.60861 0.54612
 H3539 H 0.21917 0.59204 0.54334
 H3540 H 0.22733 0.61207 0.53441
 H3541 H 0.23235 0.63312 0.54056
 H3542 H 0.24031 0.65373 0.53322
 H3543 H 0.20507 0.66023 0.51263
 H3544 H 0.19749 0.63924 0.51920
 H3545 H 0.21953 0.67132 0.49945
 H3546 H 0.22590 0.69306 0.49388
 H3547 H 0.24394 0.69713 0.53120
 H3548 H 0.23716 0.67563 0.53697
 C3549 C 0.20839 0.12374 1.03830
 C3550 C 0.19533 0.12258 1.04115
 C3551 C 0.19043 0.11121 1.04618
 C3552 C 0.19849 0.10079 1.04865
 C3553 C 0.21153 0.10189 1.04588
 C3554 C 0.21642 0.11321 1.04067
 C3555 C 0.21358 0.13595 1.03310
 C3556 C 0.22572 0.14031 1.03681
 C3557 C 0.23038 0.15201 1.03231
 C3558 C 0.22295 0.15975 1.02413
 C3559 C 0.21088 0.15531 1.02029
 C3560 C 0.20630 0.14353 1.02464
 C3561 C 0.22761 0.17255 1.01992
 C3562 C 0.22456 0.17738 1.00760
 C3563 C 0.22849 0.18962 1.00390
 C3564 C 0.23573 0.19723 1.01235
 C3565 C 0.23898 0.19233 1.02456
 C3566 C 0.23489 0.18019 1.02833
 H3567 H 0.18889 0.13055 1.03975
 H3568 H 0.18036 0.11065 1.04841
 H3569 H 0.21791 0.09392 1.04761
 H3570 H 0.22647 0.11366 1.03840
 H3571 H 0.23155 0.13483 1.04342
 H3572 H 0.23981 0.15500 1.03530
 H3573 H 0.20481 0.16105 1.01413
 H3574 H 0.19700 0.14040 1.02138
 H3575 H 0.21918 0.17169 1.00076
 H3576 H 0.22592 0.19309 0.99439
 H3577 H 0.24445 0.19801 1.03135
 H3578 H 0.23721 0.17694 1.03798
 C3579 C 0.20938 0.71132 0.62769
 C3580 C 0.21748 0.70942 0.63836
 C3581 C 0.21272 0.70447 0.64995
 C3582 C 0.19974 0.70146 0.65116
 C3583 C 0.19162 0.70344 0.64057
 C3584 C 0.19638 0.70825 0.62895
 C3585 C 0.21443 0.71629 0.61522
 C3586 C 0.20706 0.72454 0.60752
 C3587 C 0.21155 0.72876 0.59555
 C3588 C 0.22360 0.72496 0.59102
 C3589 C 0.23110 0.71694 0.59886
 C3590 C 0.22655 0.71262 0.61077
 C3591 C 0.22815 0.72904 0.57803
 C3592 C 0.23516 0.72059 0.57020
 C3593 C 0.23899 0.72421 0.55780
 C3594 C 0.23579 0.73631 0.55286
 C3595 C 0.22891 0.74482 0.56072
 C3596 C 0.22520 0.74126 0.57319
 H3597 H 0.22749 0.71186 0.63781
 H3598 H 0.21916 0.70314 0.65803
 H3599 H 0.18160 0.70102 0.64120
 H3600 H 0.18991 0.70932 0.62087
 H3601 H 0.19777 0.72774 0.61072
 H3602 H 0.20544 0.73479 0.58973
 H3603 H 0.24050 0.71397 0.59578
 H3604 H 0.23244 0.70618 0.61637
 H3605 H 0.23740 0.71103 0.57350
 H3606 H 0.24417 0.71737 0.55194
 H3607 H 0.22637 0.75425 0.55724
 H3608 H 0.22002 0.74810 0.57903
 C3609 C 0.20749 0.20633 1.12386
 C3610 C 0.20798 0.19321 1.12680
 C3611 C 0.20318 0.18861 1.13849
 C3612 C 0.19790 0.19702 1.14765
 C3613 C 0.19751 0.21016 1.14477
 C3614 C 0.20217 0.21474 1.13300
 C3615 C 0.21246 0.21120 1.11131
 C3616 C 0.21857 0.22316 1.11056
 C3617 C 0.22317 0.22772 1.09875
 C3618 C 0.22192 0.22034 1.08748
 C3619 C 0.21588 0.20839 1.08819
 C3620 C 0.21113 0.20390 1.09995
 C3621 C 0.22684 0.22510 1.07497
 C3622 C 0.23415 0.21709 1.06698
 C3623 C 0.23854 0.22145 1.05503
 C3624 C 0.23556 0.23385 1.05073
 C3625 C 0.22831 0.24188 1.05878
 C3626 C 0.22408 0.23758 1.07082
 H3627 H 0.21218 0.18646 1.12010
 H3628 H 0.20348 0.17841 1.14028
 H3629 H 0.19367 0.21694 1.15165
 H3630 H 0.20147 0.22488 1.13102
 H3631 H 0.21998 0.22894 1.11913
 H3632 H 0.22791 0.23692 1.09845
 H3633 H 0.21465 0.20261 1.07959
 H3634 H 0.20624 0.19479 1.10008
 H3635 H 0.23648 0.20746 1.07002
 H3636 H 0.24407 0.21501 1.04906
 H3637 H 0.22586 0.25149 1.05575
 H3638 H 0.21839 0.24390 1.07678
 C3639 C 0.71022 0.54308 0.12228
 C3640 C 0.71029 0.55626 0.11961
 C3641 C 0.70503 0.56097 0.10817
 C3642 C 0.69973 0.55262 0.09896
 C3643 C 0.69989 0.53940 0.10149
 C3644 C 0.70501 0.53470 0.11304
 C3645 C 0.71537 0.53817 0.13475
 C3646 C 0.72175 0.52634 0.13539
 C3647 C 0.72652 0.52180 0.14715
 C3648 C 0.72519 0.52907 0.15848
 C3649 C 0.71884 0.54087 0.15788
 C3650 C 0.71391 0.54532 0.14619
 C3651 C 0.73031 0.52443 0.17095
 C3652 C 0.73752 0.53262 0.17884
 C3653 C 0.74183 0.52853 0.19092
 C3654 C 0.73887 0.51621 0.19544
 C3655 C 0.73182 0.50793 0.18744
 C3656 C 0.72767 0.51198 0.17526
 H3657 H 0.71443 0.56300 0.12636
 H3658 H 0.70491 0.57122 0.10667
 H3659 H 0.69606 0.53267 0.09455
 H3660 H 0.70466 0.52450 0.11480
 H3661 H 0.72323 0.52066 0.12676
 H3662 H 0.73146 0.51271 0.14737
 H3663 H 0.71752 0.54655 0.16653
 H3664 H 0.70878 0.55430 0.14617
 H3665 H 0.73975 0.54224 0.17567
 H3666 H 0.74718 0.53516 0.19686
 H3667 H 0.72940 0.49838 0.19066
 H3668 H 0.72207 0.50552 0.16935
 C3669 C 0.70930 1.04505 0.62349
 C3670 C 0.70957 1.05818 0.62053
 C3671 C 0.70458 1.06270 0.60887
 C3672 C 0.69935 1.05420 0.59976
 C3673 C 0.69924 1.04105 0.60263
 C3674 C 0.70408 1.03655 0.61437
 C3675 C 0.71433 1.04030 0.63608
 C3676 C 0.72055 1.02839 0.63692
 C3677 C 0.72518 1.02393 0.64877
 C3678 C 0.72386 1.03137 0.65999
 C3679 C 0.71771 1.04326 0.65919
 C3680 C 0.71292 1.04763 0.64740
 C3681 C 0.72886 1.02677 0.67255
 C3682 C 0.73610 1.03494 0.68043
 C3683 C 0.74048 1.03081 0.69247
 C3684 C 0.73755 1.01847 0.69698
 C3685 C 0.73039 1.01025 0.68903
 C3686 C 0.72617 1.01433 0.67688
 H3687 H 0.71370 1.06500 0.62720
 H3688 H 0.70467 1.07290 0.60710
 H3689 H 0.69547 1.03420 0.59578
 H3690 H 0.70355 1.02640 0.61636
 H3691 H 0.72201 1.02257 0.62839
 H3692 H 0.72999 1.01478 0.64914
 H3693 H 0.71642 1.04908 0.66776
 H3694 H 0.70795 1.05669 0.64721
 H3695 H 0.73837 1.04455 0.67726
 H3696 H 0.74591 1.03741 0.69840
 H3697 H 0.72799 1.00069 0.69223
 H3698 H 0.72054 1.00789 0.67099
 C3699 C 0.53974 0.20649 0.62267
 C3700 C 0.54482 0.21505 0.61354
 C3701 C 0.54982 0.21057 0.60185
 C3702 C 0.54998 0.19741 0.59905
 C3703 C 0.54487 0.18887 0.60818
 C3704 C 0.53974 0.19335 0.61977
 C3705 C 0.53463 0.21117 0.63524
 C3706 C 0.53622 0.20388 0.64656
 C3707 C 0.53133 0.20814 0.65835
 C3708 C 0.52488 0.21987 0.65915
 C3709 C 0.52338 0.22726 0.64793
 C3710 C 0.52812 0.22291 0.63608
 C3711 C 0.51992 0.22439 0.67174
 C3712 C 0.52242 0.23689 0.67602
 C3713 C 0.51845 0.24087 0.68828
 C3714 C 0.51171 0.23248 0.69640
 C3715 C 0.50888 0.22010 0.69193
 C3716 C 0.51302 0.21607 0.67976
 H3717 H 0.54514 0.22522 0.61550
 H3718 H 0.55352 0.21744 0.59499
 H3719 H 0.54500 0.17865 0.60648
 H3720 H 0.53572 0.18648 0.62644
 H3721 H 0.54143 0.19495 0.64639
 H3722 H 0.53279 0.20237 0.66692
 H3723 H 0.51835 0.23630 0.64830
 H3724 H 0.52653 0.22868 0.62754
 H3725 H 0.52779 0.24345 0.67003
 H3726 H 0.52076 0.25047 0.69144
 H3727 H 0.50377 0.21338 0.69799
 H3728 H 0.51089 0.20642 0.67663
 C3729 C 1.04048 0.20888 0.12328
 C3730 C 1.04605 0.21715 0.11417
 C3731 C 1.05079 0.21240 0.10247
 C3732 C 1.05017 0.19925 0.09965
 C3733 C 1.04452 0.19102 0.10873
 C3734 C 1.03966 0.19578 0.12033
 C3735 C 1.03574 0.21378 0.13591
 C3736 C 1.03704 0.20635 0.14717
 C3737 C 1.03240 0.21075 0.15900
 C3738 C 1.02650 0.22276 0.15992
 C3739 C 1.02535 0.23032 0.14876
 C3740 C 1.02985 0.22584 0.13686
 C3741 C 1.02165 0.22734 0.17254
 C3742 C 1.02456 0.23970 0.17697
 C3743 C 1.02067 0.24368 0.18926
 C3744 C 1.01363 0.23543 0.19727
 C3745 C 1.01041 0.22320 0.19264
 C3746 C 1.01445 0.21918 0.18044
 H3747 H 1.04696 0.22727 0.11616
 H3748 H 1.05493 0.21904 0.09564
 H3749 H 1.04405 0.18082 0.10702
 H3750 H 1.03524 0.18915 0.12698
 H3751 H 1.04180 0.19717 0.14690
 H3752 H 1.03360 0.20485 0.16752
 H3753 H 1.02075 0.23958 0.14921
 H3754 H 1.02852 0.23174 0.12837
 H3755 H 1.03017 0.24614 0.17107
 H3756 H 1.02328 0.25316 0.19253
 H3757 H 1.00505 0.21659 0.19859
 H3758 H 1.01199 0.20964 0.17719
 C3759 C 0.62470 0.20719 0.70969
 C3760 C 0.63325 0.21573 0.70378
 C3761 C 0.64499 0.21144 0.69908
 C3762 C 0.64842 0.19847 0.70005
 C3763 C 0.63987 0.18994 0.70596
 C3764 C 0.62821 0.19426 0.71079
 C3765 C 0.61212 0.21171 0.71456
 C3766 C 0.60128 0.20385 0.71359
 C3767 C 0.58948 0.20804 0.71818
 C3768 C 0.58820 0.22024 0.72369
 C3769 C 0.59897 0.22817 0.72459
 C3770 C 0.61082 0.22392 0.72016
 C3771 C 0.57562 0.22469 0.72835
 C3772 C 0.57102 0.23684 0.72494
 C3773 C 0.55886 0.24075 0.72879
 C3774 C 0.55114 0.23265 0.73631
 C3775 C 0.55591 0.22063 0.73999
 C3776 C 0.56799 0.21666 0.73598
 H3777 H 0.63083 0.22572 0.70261
 H3778 H 0.65140 0.21832 0.69475
 H3779 H 0.64209 0.17986 0.70672
 H3780 H 0.62197 0.18743 0.71546
 H3781 H 0.60184 0.19452 0.70909
 H3782 H 0.58128 0.20182 0.71719
 H3783 H 0.59824 0.23757 0.72892
 H3784 H 0.61899 0.23014 0.72128
 H3785 H 0.57670 0.24317 0.71899
 H3786 H 0.55546 0.25008 0.72582
 H3787 H 0.55019 0.21414 0.74572
 H3788 H 0.57137 0.20729 0.73882
 C3789 C 1.12565 0.20868 0.20963
 C3790 C 1.12863 0.19563 0.21087
 C3791 C 1.14005 0.19077 0.20600
 C3792 C 1.14891 0.19885 0.19992
 C3793 C 1.14604 0.21195 0.19886
 C3794 C 1.13453 0.21680 0.20360
 C3795 C 1.11325 0.21371 0.21444
 C3796 C 1.11238 0.22600 0.21996
 C3797 C 1.10070 0.23062 0.22451
 C3798 C 1.08971 0.22300 0.22380
 C3799 C 1.09055 0.21076 0.21828
 C3800 C 1.10215 0.20621 0.21358
 C3801 C 1.07735 0.22771 0.22877
 C3802 C 1.06978 0.21983 0.23662
 C3803 C 1.05784 0.22396 0.24082
 C3804 C 1.05311 0.23600 0.23712
 C3805 C 1.06078 0.24397 0.22942
 C3806 C 1.07283 0.23990 0.22537
 H3807 H 1.12215 0.18912 0.21565
 H3808 H 1.14182 0.18060 0.20683
 H3809 H 1.15271 0.21850 0.19439
 H3810 H 1.13251 0.22687 0.20234
 H3811 H 1.12074 0.23197 0.22096
 H3812 H 1.10029 0.24006 0.22881
 H3813 H 1.08216 0.20479 0.21744
 H3814 H 1.10237 0.19685 0.20911
 H3815 H 1.07311 0.21044 0.23946
 H3816 H 1.05215 0.21755 0.24668
 H3817 H 1.05741 0.25330 0.22642
 H3818 H 1.07848 0.24611 0.21927
 C3819 C 0.12269 0.71047 0.53906
 C3820 C 0.11375 0.70487 0.53064
 C3821 C 0.10211 0.70030 0.53531
 C3822 C 0.09915 0.70109 0.54855
 C3823 C 0.10805 0.70678 0.55694
 C3824 C 0.11961 0.71149 0.55225
 C3825 C 0.13526 0.71503 0.53423
 C3826 C 0.14625 0.71373 0.54192
 C3827 C 0.15802 0.71819 0.53756
 C3828 C 0.15914 0.72390 0.52534
 C3829 C 0.14826 0.72503 0.51752
 C3830 C 0.13642 0.72072 0.52195
 C3831 C 0.17168 0.72864 0.52086
 C3832 C 0.17624 0.72552 0.50849
 C3833 C 0.18842 0.72939 0.50462
 C3834 C 0.19618 0.73662 0.51298
 C3835 C 0.19142 0.74003 0.52521
 C3836 C 0.17934 0.73601 0.52913
 H3837 H 0.11584 0.70380 0.52045
 H3838 H 0.09542 0.69613 0.52854
 H3839 H 0.10622 0.70740 0.56722
 H3840 H 0.12613 0.71594 0.55900
 H3841 H 0.14581 0.70912 0.55127
 H3842 H 0.16632 0.71701 0.54368
 H3843 H 0.14888 0.72948 0.50810
 H3844 H 0.12815 0.72204 0.51584
 H3845 H 0.17053 0.71978 0.50197
 H3846 H 0.19181 0.72663 0.49514
 H3847 H 0.19716 0.74553 0.53191
 H3848 H 0.17598 0.73863 0.53867
 C3849 C 0.12612 0.20673 1.04144
 C3850 C 0.11687 0.20182 1.03293
 C3851 C 0.10524 0.19723 1.03760
 C3852 C 0.10259 0.19730 1.05093
 C3853 C 0.11186 0.20217 1.05944
 C3854 C 0.12342 0.20689 1.05476
 C3855 C 0.13853 0.21163 1.03650
 C3856 C 0.14979 0.20990 1.04368
 C3857 C 0.16141 0.21465 1.03916
 C3858 C 0.16208 0.22107 1.02727
 C3859 C 0.15090 0.22268 1.01998
 C3860 C 0.13924 0.21809 1.02458
 C3861 C 0.17443 0.22605 1.02252
 C3862 C 0.17837 0.22371 1.00976
 C3863 C 0.19026 0.22800 1.00547
 C3864 C 0.19835 0.23488 1.01379
 C3865 C 0.19426 0.23743 1.02648
 C3866 C 0.18246 0.23299 1.03081
 H3867 H 0.11866 0.20137 1.02263
 H3868 H 0.09828 0.19371 1.03073
 H3869 H 0.11026 0.20221 1.06978
 H3870 H 0.13020 0.21078 1.06160
 H3871 H 0.14969 0.20474 1.05274
 H3872 H 0.16993 0.21312 1.04486
 H3873 H 0.15116 0.22771 1.01083
 H3874 H 0.13075 0.21980 1.01889
 H3875 H 0.17237 0.21831 1.00321
 H3876 H 0.19315 0.22588 0.99564
 H3877 H 0.20030 0.24263 1.03316
 H3878 H 0.17959 0.23499 1.04066
 C3879 C 0.62640 0.54188 0.20903
 C3880 C 0.61598 0.54375 0.21738
 C3881 C 0.60446 0.54859 0.21269
 C3882 C 0.60303 0.55151 0.19952
 C3883 C 0.61335 0.54954 0.19114
 C3884 C 0.62493 0.54485 0.19584
 C3885 C 0.63878 0.53699 0.21405
 C3886 C 0.64633 0.52875 0.20652
 C3887 C 0.65813 0.52447 0.21105
 C3888 C 0.66263 0.52818 0.22330
 C3889 C 0.65497 0.53625 0.23093
 C3890 C 0.64324 0.54064 0.22633
 C3891 C 0.67537 0.52390 0.22795
 C3892 C 0.68316 0.53218 0.23521
 C3893 C 0.69532 0.52836 0.23915
 C3894 C 0.70004 0.51623 0.23578
 C3895 C 0.69221 0.50788 0.22868
 C3896 C 0.67999 0.51164 0.22489
 H3897 H 0.61668 0.54135 0.22753
 H3898 H 0.59658 0.54989 0.21932
 H3899 H 0.61253 0.55188 0.18097
 H3900 H 0.63280 0.54379 0.18917
 H3901 H 0.64313 0.52557 0.19710
 H3902 H 0.66382 0.51841 0.20483
 H3903 H 0.65804 0.53917 0.24048
 H3904 H 0.63776 0.54709 0.23234
 H3905 H 0.68003 0.54176 0.23757
 H3906 H 0.70117 0.53506 0.24450
 H3907 H 0.69555 0.49844 0.22603
 H3908 H 0.67417 0.50492 0.21954
 C3909 C 0.62628 1.04394 0.71146
 C3910 C 0.61774 1.03510 0.70596
 C3911 C 0.60602 1.03914 0.70098
 C3912 C 0.60260 1.05214 0.70124
 C3913 C 0.61116 1.06098 0.70670
 C3914 C 0.62281 1.05692 0.71180
 C3915 C 0.63880 1.03964 0.71669
 C3916 C 0.64971 1.04736 0.71537
 C3917 C 0.66149 1.04328 0.72014
 C3918 C 0.66267 1.03134 0.72620
 C3919 C 0.65182 1.02361 0.72756
 C3920 C 0.64000 1.02775 0.72293
 C3921 C 0.67528 1.02684 0.73077
 C3922 C 0.67953 1.01447 0.72771
 C3923 C 0.69173 1.01047 0.73134
 C3924 C 0.69985 1.01870 0.73826
 C3925 C 0.69543 1.03095 0.74164
 C3926 C 0.68330 1.03501 0.73784
 H3927 H 0.62015 1.02506 0.70534
 H3928 H 0.59961 1.03204 0.69703
 H3929 H 0.60893 1.07109 0.70691
 H3930 H 0.62905 1.06398 0.71611
 H3931 H 0.64923 1.05645 0.71040
 H3932 H 0.66976 1.04934 0.71881
 H3933 H 0.65247 1.01440 0.73231
 H3934 H 0.63177 1.02166 0.72436
 H3935 H 0.67355 1.00803 0.72218
 H3936 H 0.69484 1.00097 0.72861
 H3937 H 0.70149 1.03754 0.74690
 H3938 H 0.68020 1.04456 0.74040
 C3939 C 0.87556 0.45825 0.29165
 C3940 C 0.88468 0.46635 0.29735
 C3941 C 0.89608 0.46139 0.30226
 C3942 C 0.89860 0.44819 0.30167
 C3943 C 0.88950 0.44012 0.29590
 C3944 C 0.87819 0.44509 0.29088
 C3945 C 0.86329 0.46341 0.28665
 C3946 C 0.85199 0.45626 0.28786
 C3947 C 0.84049 0.46092 0.28297
 C3948 C 0.83997 0.47291 0.27692
 C3949 C 0.85116 0.48018 0.27586
 C3950 C 0.86272 0.47545 0.28060
 C3951 C 0.82772 0.47777 0.27178
 C3952 C 0.82370 0.49029 0.27453
 C3953 C 0.81184 0.49464 0.27020
 C3954 C 0.80387 0.48661 0.26286
 C3955 C 0.80806 0.47418 0.25987
 C3956 C 0.81982 0.46979 0.26435
 H3957 H 0.88292 0.47652 0.29824
 H3958 H 0.90293 0.46791 0.30649
 H3959 H 0.89099 0.42989 0.29545
 H3960 H 0.87152 0.43858 0.28635
 H3961 H 0.85197 0.44710 0.29272
 H3962 H 0.83194 0.45522 0.28410
 H3963 H 0.85101 0.48942 0.27113
 H3964 H 0.87125 0.48113 0.27933
 H3965 H 0.82959 0.49659 0.28032
 H3966 H 0.80888 0.50426 0.27265
 H3967 H 0.80211 0.46774 0.25430
 H3968 H 0.82276 0.46013 0.26202
 C3969 C 0.87528 0.95760 0.79031
 C3970 C 0.87769 0.94439 0.78972
 C3971 C 0.88888 0.93929 0.79488
 C3972 C 0.89808 0.94728 0.80060
 C3973 C 0.89580 0.96053 0.80097
 C3974 C 0.88451 0.96562 0.79594
 C3975 C 0.86311 0.96292 0.78524
 C3976 C 0.86276 0.97494 0.77913
 C3977 C 0.85126 0.97989 0.77445
 C3978 C 0.83992 0.97287 0.77564
 C3979 C 0.84025 0.96088 0.78171
 C3980 C 0.85168 0.95600 0.78653
 C3981 C 0.82773 0.97803 0.77069
 C3982 C 0.81954 0.97026 0.76336
 C3983 C 0.80780 0.97492 0.75912
 C3984 C 0.80392 0.98741 0.76226
 C3985 C 0.81218 0.99523 0.76949
 C3986 C 0.82402 0.99061 0.77358
 H3987 H 0.87092 0.93794 0.78526
 H3988 H 0.89020 0.92903 0.79458
 H3989 H 0.90274 0.96699 0.80514
 H3990 H 0.88294 0.97583 0.79669
 H3991 H 0.87139 0.98045 0.77778
 H3992 H 0.85126 0.98913 0.76971
 H3993 H 0.83159 0.95537 0.78293
 H3994 H 0.85151 0.94687 0.79145
 H3995 H 0.82224 0.96055 0.76094
 H3996 H 0.80161 0.96863 0.75364
 H3997 H 0.80947 1.00490 0.77206
 H3998 H 0.83014 0.99676 0.77930
 C3999 C 0.37471 0.29053 0.79009
 C4000 C 0.37161 0.28991 0.80330
 C4001 C 0.36015 0.29495 0.80786
 C4002 C 0.35135 0.30059 0.79933
 C4003 C 0.35432 0.30100 0.78608
 C4004 C 0.36588 0.29608 0.78152
 C4005 C 0.38718 0.28559 0.78538
 C4006 C 0.38820 0.27955 0.77326
 C4007 C 0.39994 0.27490 0.76892
 C4008 C 0.41088 0.27606 0.77667
 C4009 C 0.40990 0.28209 0.78875
 C4010 C 0.39821 0.28688 0.79302
 C4011 C 0.42332 0.27105 0.77220
 C4012 C 0.43100 0.26379 0.78055
 C4013 C 0.44289 0.25934 0.77649
 C4014 C 0.44742 0.26219 0.76404
 C4015 C 0.43970 0.26941 0.75566
 C4016 C 0.42772 0.27372 0.75967
 H4017 H 0.37805 0.28551 0.81016
 H4018 H 0.35831 0.29464 0.81815
 H4019 H 0.34772 0.30513 0.77920
 H4020 H 0.36799 0.29685 0.77131
 H4021 H 0.37989 0.27821 0.76721
 H4022 H 0.40045 0.27019 0.75961
 H4023 H 0.41823 0.28329 0.79481
 H4024 H 0.39788 0.29174 0.80225
 H4025 H 0.42777 0.26154 0.79023
 H4026 H 0.44864 0.25386 0.78320
 H4027 H 0.44292 0.27177 0.74601
 H4028 H 0.42201 0.27938 0.75309
 C4029 C 0.87767 0.29389 0.29344
 C4030 C 0.86825 0.28580 0.29860
 C4031 C 0.85665 0.29078 0.30294
 C4032 C 0.85422 0.30400 0.30241
 C4033 C 0.86367 0.31209 0.29731
 C4034 C 0.87518 0.30710 0.29280
 C4035 C 0.89003 0.28862 0.28874
 C4036 C 0.90138 0.29567 0.29017
 C4037 C 0.91292 0.29090 0.28550
 C4038 C 0.91344 0.27888 0.27947
 C4039 C 0.90221 0.27170 0.27821
 C4040 C 0.89061 0.27656 0.28270
 C4041 C 0.92569 0.27396 0.27441
 C4042 C 0.92980 0.26152 0.27739
 C4043 C 0.94161 0.25711 0.27299
 C4044 C 0.94942 0.26497 0.26532
 C4045 C 0.94513 0.27731 0.26212
 C4046 C 0.93344 0.28179 0.26671
 H4047 H 0.86987 0.27561 0.29942
 H4048 H 0.84955 0.28422 0.30663
 H4049 H 0.86224 0.32233 0.29692
 H4050 H 0.88209 0.31362 0.28871
 H4051 H 0.90139 0.30484 0.29503
 H4052 H 0.92150 0.29653 0.28674
 H4053 H 0.90238 0.26245 0.27349
 H4054 H 0.88207 0.27094 0.28122
 H4055 H 0.92399 0.25534 0.28337
 H4056 H 0.94465 0.24755 0.27560
 H4057 H 0.95092 0.28363 0.25628
 H4058 H 0.93042 0.29138 0.26420
 C4059 C 0.37144 0.79273 0.45490
 C4060 C 0.37411 0.80589 0.45581
 C4061 C 0.38562 0.81083 0.45126
 C4062 C 0.39489 0.80273 0.44584
 C4063 C 0.39225 0.78957 0.44495
 C4064 C 0.38065 0.78465 0.44935
 C4065 C 0.35915 0.78750 0.45978
 C4066 C 0.35861 0.77536 0.46564
 C4067 C 0.34709 0.77056 0.47037
 C4068 C 0.33591 0.77787 0.46953
 C4069 C 0.33639 0.78995 0.46366
 C4070 C 0.34785 0.79468 0.45875
 C4071 C 0.32376 0.77300 0.47486
 C4072 C 0.31628 0.78082 0.48285
 C4073 C 0.30466 0.77641 0.48766
 C4074 C 0.30017 0.76415 0.48441
 C4075 C 0.30772 0.75628 0.47647
 C4076 C 0.31947 0.76063 0.47184
 H4077 H 0.36735 0.81240 0.46019
 H4078 H 0.38722 0.82104 0.45192
 H4079 H 0.39921 0.78301 0.44100
 H4080 H 0.37888 0.77450 0.44831
 H4081 H 0.36713 0.76965 0.46682
 H4082 H 0.34695 0.76126 0.47497
 H4083 H 0.32784 0.79568 0.46273
 H4084 H 0.34781 0.80392 0.45404
 H4085 H 0.31945 0.79035 0.48540
 H4086 H 0.29907 0.78272 0.49371
 H4087 H 0.30453 0.74680 0.47379
 H4088 H 0.32506 0.75446 0.46563
 C4089 C 0.37524 0.28972 0.95835
 C4090 C 0.37664 0.30293 0.95612
 C4091 C 0.38812 0.30788 0.95147
 C4092 C 0.39840 0.29973 0.94876
 C4093 C 0.39703 0.28654 0.95086
 C4094 C 0.38561 0.28160 0.95569
 C4095 C 0.36300 0.28448 0.96334
 C4096 C 0.35847 0.27251 0.95914
 C4097 C 0.34687 0.26771 0.96365
 C4098 C 0.33940 0.27481 0.97236
 C4099 C 0.34397 0.28674 0.97662
 C4100 C 0.35564 0.29147 0.97223
 C4101 C 0.32676 0.26998 0.97674
 C4102 C 0.32236 0.27249 0.98934
 C4103 C 0.31021 0.26858 0.99319
 C4104 C 0.30224 0.26189 0.98461
 C4105 C 0.30675 0.25906 0.97214
 C4106 C 0.31882 0.26313 0.96823
 H4107 H 0.36881 0.30945 0.95778
 H4108 H 0.38891 0.31807 0.94977
 H4109 H 0.40488 0.28008 0.94897
 H4110 H 0.38497 0.27142 0.95749
 H4111 H 0.36378 0.26691 0.95218
 H4112 H 0.34376 0.25841 0.96030
 H4113 H 0.33842 0.29258 0.98318
 H4114 H 0.35890 0.30061 0.97586
 H4115 H 0.32830 0.27750 0.99624
 H4116 H 0.30703 0.27082 1.00289
 H4117 H 0.30078 0.25406 0.96525
 H4118 H 0.32177 0.26122 0.95839
 C4119 C 0.79393 0.45863 0.37403
 C4120 C 0.80695 0.45576 0.37553
 C4121 C 0.81160 0.45098 0.38723
 C4122 C 0.80332 0.44879 0.39763
 C4123 C 0.79030 0.45151 0.39616
 C4124 C 0.78567 0.45646 0.38452
 C4125 C 0.78900 0.46379 0.36157
 C4126 C 0.77689 0.46024 0.35696
 C4127 C 0.77233 0.46498 0.34520
 C4128 C 0.77982 0.47327 0.33766
 C4129 C 0.79191 0.47684 0.34229
 C4130 C 0.79640 0.47223 0.35412
 C4131 C 0.77514 0.47798 0.32492
 C4132 C 0.77814 0.49038 0.32060
 C4133 C 0.77411 0.49461 0.30845
 C4134 C 0.76682 0.48662 0.30041
 C4135 C 0.76363 0.47432 0.30479
 C4136 C 0.76781 0.47002 0.31685
 H4137 H 0.81355 0.45704 0.36760
 H4138 H 0.82165 0.44880 0.38808
 H4139 H 0.78376 0.45002 0.40411
 H4140 H 0.77563 0.45876 0.38382
 H4141 H 0.77097 0.45364 0.36233
 H4142 H 0.76290 0.46216 0.34205
 H4143 H 0.79802 0.48306 0.33669
 H4144 H 0.80568 0.47534 0.35745
 H4145 H 0.78356 0.49686 0.32664
 H4146 H 0.77666 0.50418 0.30538
 H4147 H 0.75814 0.46787 0.29877
 H4148 H 0.76551 0.46033 0.31972
 C4149 C 0.79480 0.95822 0.87404
 C4150 C 0.79724 0.96630 0.88465
 C4151 C 0.80190 0.96132 0.89627
 C4152 C 0.80409 0.94815 0.89760
 C4153 C 0.80161 0.94004 0.88707
 C4154 C 0.79709 0.94502 0.87540
 C4155 C 0.78995 0.96351 0.86161
 C4156 C 0.78124 0.95654 0.85403
 C4157 C 0.77686 0.96140 0.84226
 C4158 C 0.78095 0.97342 0.83780
 C4159 C 0.78955 0.98045 0.84545
 C4160 C 0.79404 0.97554 0.85716
 C4161 C 0.77640 0.97851 0.82517
 C4162 C 0.78460 0.98561 0.81716
 C4163 C 0.78041 0.99019 0.80521
 C4164 C 0.76797 0.98766 0.80088
 C4165 C 0.75974 0.98060 0.80887
 C4166 C 0.76388 0.97615 0.82090
 H4167 H 0.79537 0.97646 0.88406
 H4168 H 0.80362 0.96775 0.90430
 H4169 H 0.80338 0.92986 0.88780
 H4170 H 0.79559 0.93854 0.86738
 H4171 H 0.77772 0.94734 0.85722
 H4172 H 0.77039 0.95562 0.83656
 H4173 H 0.79278 0.98982 0.84243
 H4174 H 0.80086 0.98111 0.86264
 H4175 H 0.79437 0.98741 0.82000
 H4176 H 0.78703 0.99547 0.79921
 H4177 H 0.75007 0.97855 0.80584
 H4178 H 0.75722 0.97093 0.82689
 C4179 C 0.29142 0.79289 0.37465
 C4180 C 0.30452 0.79194 0.37199
 C4181 C 0.30951 0.79656 0.36040
 C4182 C 0.30152 0.80211 0.35104
 C4183 C 0.28838 0.80288 0.35359
 C4184 C 0.28340 0.79838 0.36527
 C4185 C 0.28622 0.78827 0.38720
 C4186 C 0.27414 0.78245 0.38788
 C4187 C 0.26940 0.77797 0.39968
 C4188 C 0.27671 0.77908 0.41100
 C4189 C 0.28871 0.78496 0.41037
 C4190 C 0.29338 0.78958 0.39863
 C4191 C 0.27194 0.77401 0.42345
 C4192 C 0.27991 0.76651 0.43128
 C4193 C 0.27562 0.76197 0.44319
 C4194 C 0.26332 0.76498 0.44761
 C4195 C 0.25531 0.77243 0.43974
 C4196 C 0.25955 0.77682 0.42771
 H4197 H 0.31097 0.78757 0.37887
 H4198 H 0.31970 0.79597 0.35888
 H4199 H 0.28191 0.80693 0.34654
 H4200 H 0.27328 0.79941 0.36702
 H4201 H 0.26844 0.78111 0.37926
 H4202 H 0.26015 0.77338 0.39992
 H4203 H 0.29444 0.78610 0.41901
 H4204 H 0.30256 0.79428 0.39857
 H4205 H 0.28947 0.76414 0.42816
 H4206 H 0.28206 0.75634 0.44907
 H4207 H 0.24578 0.77490 0.44289
 H4208 H 0.25326 0.78265 0.42186
 C4209 C 0.29038 0.29299 0.87305
 C4210 C 0.28251 0.29894 0.86382
 C4211 C 0.28761 0.30358 0.85225
 C4212 C 0.30073 0.30248 0.84966
 C4213 C 0.30856 0.29648 0.85887
 C4214 C 0.30344 0.29172 0.87034
 C4215 C 0.28509 0.28822 0.88550
 C4216 C 0.29234 0.28904 0.89691
 C4217 C 0.28766 0.28418 0.90853
 C4218 C 0.27553 0.27855 0.90908
 C4219 C 0.26810 0.27799 0.89781
 C4220 C 0.27286 0.28270 0.88611
 C4221 C 0.27082 0.27319 0.92141
 C4222 C 0.25866 0.27632 0.92610
 C4223 C 0.25464 0.27189 0.93819
 C4224 C 0.26265 0.26406 0.94570
 C4225 C 0.27465 0.26061 0.94077
 C4226 C 0.27871 0.26519 0.92880
 H4227 H 0.27243 0.30021 0.86562
 H4228 H 0.28127 0.30800 0.84531
 H4229 H 0.31873 0.29563 0.85734
 H4230 H 0.30977 0.28698 0.87709
 H4231 H 0.30164 0.29352 0.89692
 H4232 H 0.29348 0.28492 0.91715
 H4233 H 0.25874 0.27363 0.89800
 H4234 H 0.26707 0.28177 0.87749
 H4235 H 0.25243 0.28252 0.92058
 H4236 H 0.24535 0.27470 0.94173
 H4237 H 0.28108 0.25466 0.94632
 H4238 H 0.28809 0.26255 0.92533
 C4239 C 0.45992 0.29007 0.87588
 C4240 C 0.46072 0.30314 0.87899
 C4241 C 0.45594 0.30774 0.89070
 C4242 C 0.45037 0.29938 0.89971
 C4243 C 0.44980 0.28627 0.89674
 C4244 C 0.45446 0.28168 0.88495
 C4245 C 0.46454 0.28529 0.86315
 C4246 C 0.47034 0.27320 0.86205
 C4247 C 0.47453 0.26871 0.85004
 C4248 C 0.47317 0.27627 0.83892
 C4249 C 0.46744 0.28835 0.83999
 C4250 C 0.46311 0.29278 0.85195
 C4251 C 0.47760 0.27158 0.82618
 C4252 C 0.48471 0.27958 0.81801
 C4253 C 0.48863 0.27529 0.80586
 C4254 C 0.48539 0.26296 0.80154
 C4255 C 0.47831 0.25493 0.80975
 C4256 C 0.47454 0.25917 0.82199
 H4257 H 0.46506 0.30986 0.87237
 H4258 H 0.45639 0.31792 0.89255
 H4259 H 0.44574 0.27952 0.90351
 H4260 H 0.45354 0.27158 0.88285
 H4261 H 0.47179 0.26725 0.87048
 H4262 H 0.47903 0.25940 0.84947
 H4263 H 0.46611 0.29429 0.83152
 H4264 H 0.45843 0.30200 0.85235
 H4265 H 0.48726 0.28915 0.82107
 H4266 H 0.49401 0.28173 0.79974
 H4267 H 0.47567 0.24538 0.80671
 H4268 H 0.46899 0.25286 0.82807
 C4269 C 0.95861 0.29372 0.37529
 C4270 C 0.95277 0.28538 0.38415
 C4271 C 0.94779 0.29001 0.39578
 C4272 C 0.94842 0.30311 0.39879
 C4273 C 0.95428 0.31144 0.38994
 C4274 C 0.95937 0.30679 0.37838
 C4275 C 0.96375 0.28885 0.36281
 C4276 C 0.96276 0.29624 0.35149
 C4277 C 0.96759 0.29171 0.33977
 C4278 C 0.97339 0.27964 0.33905
 C4279 C 0.97434 0.27219 0.35030
 C4280 C 0.96964 0.27678 0.36207
 C4281 C 0.97828 0.27479 0.32655
 C4282 C 0.97546 0.26230 0.32246
 C4283 C 0.97959 0.25792 0.31040
 C4284 C 0.98678 0.26591 0.30226
 C4285 C 0.98982 0.27832 0.30648
 C4286 C 0.98555 0.28274 0.31847
 H4287 H 0.95187 0.27528 0.38203
 H4288 H 0.94349 0.28329 0.40244
 H4289 H 0.95478 0.32161 0.39183
 H4290 H 0.96397 0.31347 0.37189
 H4291 H 0.95805 0.30545 0.35162
 H4292 H 0.96656 0.29755 0.33119
 H4293 H 0.97889 0.26290 0.35002
 H4294 H 0.97077 0.27092 0.37062
 H4295 H 0.96979 0.25602 0.32847
 H4296 H 0.97710 0.24831 0.30742
 H4297 H 0.99527 0.28474 0.30041
 H4298 H 0.98793 0.29238 0.32145
 C4299 C 0.45878 0.37315 0.78826
 C4300 C 0.46725 0.38213 0.79362
 C4301 C 0.46278 0.39382 0.79842
 C4302 C 0.44971 0.39676 0.79807
 C4303 C 0.44127 0.38783 0.79257
 C4304 C 0.44575 0.37624 0.78765
 C4305 C 0.46340 0.36052 0.78355
 C4306 C 0.45589 0.34948 0.78518
 C4307 C 0.46010 0.33762 0.78068
 C4308 C 0.47199 0.33647 0.77459
 C4309 C 0.47960 0.34741 0.77308
 C4310 C 0.47532 0.35933 0.77743
 C4311 C 0.47642 0.32383 0.76994
 C4312 C 0.48876 0.31949 0.77281
 C4313 C 0.49269 0.30730 0.76894
 C4314 C 0.48440 0.29929 0.76195
 C4315 C 0.47215 0.30377 0.75884
 C4316 C 0.46817 0.31588 0.76287
 H4317 H 0.47733 0.38005 0.79438
 H4318 H 0.46958 0.40053 0.80242
 H4319 H 0.43112 0.38964 0.79231
 H4320 H 0.43896 0.36968 0.78338
 H4321 H 0.44681 0.34995 0.79011
 H4322 H 0.45415 0.32929 0.78215
 H4323 H 0.48877 0.34677 0.76832
 H4324 H 0.48127 0.36763 0.77584
 H4325 H 0.49526 0.32542 0.77832
 H4326 H 0.50219 0.30412 0.77147
 H4327 H 0.46551 0.29780 0.75354
 H4328 H 0.45864 0.31905 0.76046
 C4329 C 0.95781 0.37407 0.29158
 C4330 C 0.96594 0.38293 0.29766
 C4331 C 0.96113 0.39437 0.30269
 C4332 C 0.94805 0.39718 0.30188
 C4333 C 0.93994 0.38833 0.29577
 C4334 C 0.94477 0.37698 0.29061
 C4335 C 0.96284 0.36177 0.28641
 C4336 C 0.95546 0.35055 0.28711
 C4337 C 0.96006 0.33903 0.28214
 C4338 C 0.97220 0.33840 0.27652
 C4339 C 0.97968 0.34951 0.27593
 C4340 C 0.97501 0.36111 0.28074
 C4341 C 0.97706 0.32610 0.27144
 C4342 C 0.98925 0.32173 0.27485
 C4343 C 0.99351 0.30975 0.27069
 C4344 C 0.98572 0.30199 0.26286
 C4345 C 0.97367 0.30657 0.25915
 C4346 C 0.96935 0.31845 0.26348
 H4347 H 0.97601 0.38095 0.29874
 H4348 H 0.96768 0.40103 0.30717
 H4349 H 0.92979 0.39004 0.29514
 H4350 H 0.93824 0.37052 0.28581
 H4351 H 0.94619 0.35060 0.29167
 H4352 H 0.95420 0.33053 0.28289
 H4353 H 0.98904 0.34927 0.27155
 H4354 H 0.98087 0.36958 0.27984
 H4355 H 0.99534 0.32743 0.28105
 H4356 H 1.00285 0.30651 0.27371
 H4357 H 0.96743 0.30084 0.25314
 H4358 H 0.95994 0.32168 0.26063
 C4359 C 0.29321 0.87365 0.45892
 C4360 C 0.30629 0.87638 0.45997
 C4361 C 0.31127 0.88780 0.45514
 C4362 C 0.30328 0.89691 0.44930
 C4363 C 0.29016 0.89429 0.44843
 C4364 C 0.28520 0.88278 0.45311
 C4365 C 0.28800 0.86129 0.46374
 C4366 C 0.27579 0.86064 0.46934
 C4367 C 0.27095 0.84899 0.47383
 C4368 C 0.27828 0.83780 0.47298
 C4369 C 0.29045 0.83841 0.46741
 C4370 C 0.29522 0.84999 0.46276
 C4371 C 0.27330 0.82547 0.47787
 C4372 C 0.28093 0.81770 0.48576
 C4373 C 0.27646 0.80586 0.49005
 C4374 C 0.26433 0.80145 0.48635
 C4375 C 0.25664 0.80931 0.47856
 C4376 C 0.26105 0.82126 0.47444
 H4377 H 0.31273 0.86970 0.46458
 H4378 H 0.32144 0.88938 0.45582
 H4379 H 0.28368 0.90115 0.44416
 H4380 H 0.27510 0.88097 0.45199
 H4381 H 0.27004 0.86916 0.47046
 H4382 H 0.26157 0.84877 0.47819
 H4383 H 0.29620 0.82985 0.46648
 H4384 H 0.30452 0.85003 0.45824
 H4385 H 0.29037 0.82080 0.48862
 H4386 H 0.28263 0.80005 0.49603
 H4387 H 0.24724 0.80620 0.47556
 H4388 H 0.25502 0.82708 0.46830
 C4389 C 0.29093 0.37507 0.95925
 C4390 C 0.30394 0.37803 0.96047
 C4391 C 0.30876 0.38955 0.95573
 C4392 C 0.30067 0.39852 0.94979
 C4393 C 0.28762 0.39565 0.94872
 C4394 C 0.28281 0.38404 0.95335
 C4395 C 0.28594 0.36259 0.96399
 C4396 C 0.27380 0.36169 0.96969
 C4397 C 0.26925 0.34994 0.97423
 C4398 C 0.27681 0.33890 0.97332
 C4399 C 0.28889 0.33976 0.96759
 C4400 C 0.29338 0.35144 0.96291
 C4401 C 0.27217 0.32645 0.97825
 C4402 C 0.28019 0.31867 0.98573
 C4403 C 0.27614 0.30662 0.98983
 C4404 C 0.26400 0.30202 0.98639
 C4405 C 0.25587 0.30992 0.97910
 C4406 C 0.25989 0.32206 0.97515
 H4407 H 0.31045 0.37147 0.96515
 H4408 H 0.31889 0.39132 0.95654
 H4409 H 0.28109 0.40239 0.94434
 H4410 H 0.27276 0.38203 0.95212
 H4411 H 0.26789 0.37009 0.97085
 H4412 H 0.25993 0.34952 0.97870
 H4413 H 0.29481 0.33134 0.96656
 H4414 H 0.30263 0.35169 0.95830
 H4415 H 0.28966 0.32189 0.98835
 H4416 H 0.28266 0.30077 0.99539
 H4417 H 0.24647 0.30666 0.97632
 H4418 H 0.25355 0.32786 0.96932
 C4419 C 0.79398 0.37690 0.28858
 C4420 C 0.79952 0.36769 0.28040
 C4421 C 0.80387 0.35603 0.28536
 C4422 C 0.80287 0.35333 0.29864
 C4423 C 0.79726 0.36252 0.30678
 C4424 C 0.79278 0.37407 0.30181
 C4425 C 0.78956 0.38945 0.28346
 C4426 C 0.79083 0.40060 0.29098
 C4427 C 0.78630 0.41232 0.28646
 C4428 C 0.78057 0.41324 0.27424
 C4429 C 0.77955 0.40222 0.26655
 C4430 C 0.78393 0.39042 0.27114
 C4431 C 0.77560 0.42568 0.26966
 C4432 C 0.77863 0.43025 0.25728
 C4433 C 0.77443 0.44232 0.25327
 C4434 C 0.76693 0.44993 0.26151
 C4435 C 0.76365 0.44518 0.27377
 C4436 C 0.76801 0.43322 0.27783
 H4437 H 0.80071 0.36958 0.27018
 H4438 H 0.80800 0.34913 0.27878
 H4439 H 0.79651 0.36091 0.31709
 H4440 H 0.78836 0.38080 0.30837
 H4441 H 0.79541 0.40031 0.30035
 H4442 H 0.78739 0.42074 0.29248
 H4443 H 0.77510 0.40268 0.25711
 H4444 H 0.78265 0.38202 0.26515
 H4445 H 0.78453 0.42463 0.25084
 H4446 H 0.77711 0.44571 0.24377
 H4447 H 0.75794 0.45081 0.28037
 H4448 H 0.76546 0.42986 0.28738
   
