data_POSCAR
  _audit_creation_date              2014-09-24
  _audit_creation_method            'ToBaCCo'
  _symmetry_space_group_name_H-M    'P1'
  _symmetry_Int_Tables_number       1
  _symmetry_cell_setting            triclinic
  loop_
  _symmetry_equiv_pos_as_xyz
 x,y,z
_cell_length_a 54.5801
_cell_length_b 54.5042
_cell_length_c 54.4727
_cell_angle_alpha 90.070000
_cell_angle_beta 90.079600
_cell_angle_gamma 90.059700
loop_
  _atom_site_label
  _atom_site_type_symbol
  _atom_site_fract_x
  _atom_site_fract_y
  _atom_site_fract_z
C1 C 0.30396 0.44621 0.91635
 N2 N 0.29356 0.42629 0.92708
 C3 C 0.30361 0.41635 0.94762
 N4 N 0.32434 0.42630 0.95725
 C5 C 0.33493 0.44620 0.94661
 N6 N 0.32466 0.45606 0.92614
 C7 C 0.44724 0.83391 0.44736
 N8 N 0.42670 0.82379 0.45715
 C9 C 0.41629 0.80369 0.44669
 N10 N 0.42643 0.79376 0.42621
 C11 C 0.44699 0.80371 0.41631
 N12 N 0.45727 0.82382 0.42688
 C13 C 0.94688 0.91667 0.80336
 N14 N 0.95729 0.92704 0.82352
 C15 C 0.94735 0.94744 0.83385
 N16 N 0.92678 0.95737 0.82390
 C17 C 0.91625 0.94711 0.80374
 N18 N 0.92629 0.92670 0.79360
 C19 C 0.44632 -0.08442 0.30247
 N20 N 0.42583 -0.07420 0.29264
 C21 C 0.41599 -0.05360 0.30263
 N22 N 0.42667 -0.04328 0.32267
 C23 C 0.44719 -0.05328 0.33259
 N24 N 0.45689 -0.07389 0.32250
 C25 C 0.80304 0.30275 0.33251
 N26 N 0.82358 0.29271 0.32269
 C27 C 0.83428 0.30295 0.30267
 N28 N 0.82444 0.32350 0.29259
 C29 C 0.80391 0.33368 0.30230
 N30 N 0.79334 0.32331 0.32233
 C31 C -0.19644 0.83400 0.80296
 N32 N -0.17596 0.82380 0.79319
 C33 C -0.16608 0.80328 0.80327
 N34 N -0.17667 0.79310 0.82337
 C35 C -0.19714 0.80319 0.83333
 N36 N -0.20691 0.82369 0.82308
 C37 C 0.94778 0.33291 0.44753
 N38 N 0.92763 0.32238 0.45773
 C39 C 0.91746 0.30203 0.44752
 N40 N 0.92739 0.29230 0.42684
 C41 C 0.94755 0.30264 0.41653
 N42 N 0.95764 0.32296 0.42689
 C43 C 0.44580 0.44623 0.83508
 N44 N 0.45575 0.42588 0.82467
 C45 C 0.44559 0.41584 0.80422
 N46 N 0.42525 0.42615 0.79423
 C47 C 0.41522 0.44654 0.80445
 N48 N 0.42550 0.45646 0.82490
 C49 C 0.80304 0.91701 0.94783
 N50 N 0.82338 0.92735 0.95792
 C51 C 0.83364 0.94767 0.94776
 N52 N 0.82344 0.95760 0.92727
 C53 C 0.80309 0.94744 0.91707
 N54 N 0.79301 0.92712 0.92736
 C55 C 0.30426 0.83558 0.30390
 N56 N 0.29410 0.82530 0.32422
 C57 C 0.30414 0.80494 0.33446
 N58 N 0.32456 0.79492 0.32438
 C59 C 0.33483 0.80501 0.30406
 N60 N 0.32467 0.82537 0.29393
 C61 C 0.80107 0.41832 0.44832
 N62 N 0.79122 0.42808 0.42760
 C63 C 0.80136 0.44830 0.41718
 N64 N 0.82159 0.45861 0.42744
 C65 C 0.83155 0.44897 0.44814
 N66 N 0.82132 0.42874 0.45844
 C67 C 0.94804 0.83319 -0.05297
 N68 N 0.92796 0.82258 -0.04276
 C69 C 0.91774 0.80231 -0.05306
 N70 N 0.92756 0.79275 -0.07387
 C71 C 0.94763 0.80320 -0.08429
 N72 N 0.95780 0.82342 -0.07375
 C73 C 0.30289 0.33365 0.80344
 N74 N 0.29244 0.32317 0.82346
 C75 C 0.30235 0.30269 0.83360
 N76 N 0.32298 0.29285 0.82375
 C77 C 0.33356 0.30323 0.80374
 N78 N 0.32351 0.32368 0.79370
 C79 C 0.16695 0.55216 0.55159
 N80 N 0.17712 0.54182 0.57186
 C81 C 0.19778 0.55147 0.58194
 N82 N 0.20812 0.57172 0.57177
 C83 C 0.19809 0.58216 0.55149
 N84 N 0.17743 0.57239 0.54153
 C85 C 0.58314 0.69834 0.05143
 N86 N 0.57275 0.67802 0.04134
 C87 C 0.55212 0.66820 0.05123
 N88 N 0.54203 0.67867 0.07146
 C89 C 0.55227 0.69900 0.08165
 N90 N 0.57290 0.70870 0.07165
 C91 C 0.69750 0.19825 0.66714
 N92 N 0.67733 0.20841 0.67758
 C93 C 0.66765 0.19866 0.69837
 N94 N 0.67812 0.17850 0.70856
 C95 C 0.69831 0.16825 0.69825
 N96 N 0.70786 0.17811 0.67748
 C97 C 1.08345 0.05142 0.19714
 N98 N 1.07361 0.04160 0.17638
 C99 C 1.05335 0.05170 0.16595
 N100 N 1.04294 0.07177 0.17645
 C101 C 1.05257 0.08167 0.19723
 N102 N 1.07288 0.07152 0.20743
 C103 C 0.05335 0.16435 1.05407
 N104 N 0.04315 0.17508 1.07413
 C105 C 0.05317 0.19569 1.08402
 N106 N 0.07359 0.20553 1.07372
 C107 C 0.08390 0.19501 1.05363
 N108 N 0.07377 0.17439 1.04391
 C109 C 0.16851 0.69917 0.69931
 N110 N 0.17874 0.67878 0.70930
 C111 C 0.19912 0.66868 0.69921
 N112 N 0.20913 0.67894 0.67884
 C113 C 0.19903 0.69934 0.66872
 N114 N 0.17865 0.70932 0.67894
 C115 C 1.19823 0.16603 0.19718
 N116 N 1.20792 0.17611 0.17653
 C117 C 1.19769 0.19641 0.16631
 N118 N 1.17760 0.20662 0.17691
 C119 C 1.16783 0.19675 0.19758
 N120 N 1.17813 0.17640 0.20757
 C121 C 0.66623 1.05444 0.55287
 N122 N 0.67669 1.04388 0.57287
 C123 C 0.69718 1.05372 0.58307
 N124 N 0.70707 1.07440 0.57331
 C125 C 0.69672 1.08515 0.55333
 N126 N 0.67626 1.07509 0.54320
 C127 C 0.55101 0.55108 0.16846
 N128 N 0.54098 0.57154 0.17852
 C129 C 0.55104 0.58188 0.19887
 N130 N 0.57143 0.57179 0.20902
 C131 C 0.58158 0.55132 0.19907
 N132 N 0.57138 0.54111 0.17872
 C133 C 0.66790 0.69853 0.19768
 N134 N 0.67831 0.67829 0.20780
 C135 C 0.69844 0.66797 0.19742
 N136 N 0.70799 0.67785 0.17664
 C137 C 0.69768 0.69806 0.16638
 N138 N 0.67758 0.70829 0.17690
 C139 C 0.16505 0.05261 1.05337
 N140 N 0.17558 0.04207 1.07337
 C141 C 0.19616 0.05186 1.08352
 N142 N 0.20617 0.07239 1.07353
 C143 C 0.19583 0.08303 1.05351
 N144 N 0.17524 0.07313 1.04355
 C145 C 0.58333 0.19751 0.55262
 N146 N 0.57288 0.20800 0.57265
 C147 C 0.55238 0.19811 0.58273
 N148 N 0.54251 0.17745 0.57283
 C149 C 0.55287 0.16685 0.55282
 N150 N 0.57333 0.17687 0.54283
 C151 C 0.08167 0.55158 0.69833
 N152 N 0.07191 0.54172 0.67759
 C153 C 0.05173 0.55185 0.66711
 N154 N 0.04143 0.57209 0.67738
 C155 C 0.05107 0.58205 0.69812
 N156 N 0.07128 0.57182 0.70845
 C157 C 0.66793 0.55240 0.05084
 N158 N 0.67781 0.57315 0.04124
 C159 C 0.69805 0.58341 0.05156
 N160 N 0.70827 0.57293 0.07172
 C161 C 0.69850 0.55218 0.08145
 N162 N 0.67825 0.54205 0.07103
 C163 C 0.05180 0.69811 0.58201
 N164 N 0.04209 0.67731 0.57227
 C165 C 0.05229 0.66684 0.55208
 N166 N 0.07244 0.67719 0.54177
 C167 C 0.08227 0.69799 0.55139
 N168 N 0.07197 0.70832 0.57159
 C169 C 0.55251 1.05245 0.66590
 N170 N 0.57267 1.04228 0.67646
 C171 C 0.58234 1.05204 0.69730
 N172 N 0.57186 1.07221 0.70749
 C173 C 0.55167 1.08246 0.69715
 N174 N 0.54212 1.07258 0.67632
 C175 C 0.44631 0.33464 0.94727
 N176 N 0.45640 0.32451 0.92683
 C177 C 0.44673 0.30380 0.91684
 N178 N 0.42676 0.29326 0.92731
 C179 C 0.41660 0.30317 0.94778
 N180 N 0.42636 0.32390 0.95765
 C181 C 0.94718 0.44644 0.33349
 N182 N 0.92663 0.45635 0.32347
 C183 C 0.91614 0.44606 0.30331
 N184 N 0.92621 0.42563 0.29322
 C185 C 0.94678 0.41562 0.30304
 N186 N 0.95715 0.42602 0.32321
 C187 C 0.30414 0.94646 0.41571
 N188 N 0.29418 0.92610 0.42603
 C189 C 0.30414 0.91626 0.44665
 N190 N 0.32430 0.92678 0.45683
 C191 C 0.33446 0.94714 0.44663
 N192 N 0.32432 0.95687 0.42601
 O193 O 0.18441 0.53176 0.74886
 O194 O 0.19234 0.52839 0.79089
 O195 O 0.24858 0.56538 0.71927
 O196 O 0.28902 0.55816 0.71872
 O197 O 0.21806 0.50120 0.68489
 O198 O 0.22002 0.45831 0.69391
 O199 O 0.31362 0.49865 0.78263
 O200 O 0.30684 0.54050 0.77777
 O201 O 0.25169 0.46823 0.81449
 O202 O 0.20738 0.47007 0.80605
 O203 O 0.28120 0.43585 0.75223
 O204 O 0.27971 0.44426 0.70815
 O205 O 0.31357 0.46904 0.75306
 O206 O 0.30472 0.47148 0.70758
 O207 O 0.25163 0.43564 0.78160
 O208 O 0.20652 0.44487 0.77890
 O209 O 0.28159 0.49734 0.81433
 O210 O 0.27340 0.54177 0.80653
 O211 O 0.18418 0.50171 0.71966
 O212 O 0.19322 0.45818 0.72165
 O213 O 0.24763 0.53070 0.68479
 O214 O 0.29190 0.52674 0.69471
 O215 O 0.21863 0.56530 0.74834
 O216 O 0.22417 0.55565 0.79260
 Zr217 Zr 0.21998 0.52984 0.76368
 O218 O 0.24133 0.50790 0.78722
 Zr219 Zr 0.26288 0.52955 0.72031
 O220 O 0.28632 0.50826 0.74238
 Zr221 Zr 0.21969 0.48651 0.72058
 O222 O 0.24147 0.46295 0.74208
 Zr223 Zr 0.27851 0.51401 0.77967
 O224 O 0.25729 0.53794 0.75767
 Zr225 Zr 0.23558 0.47063 0.77941
 O226 O 0.21183 0.49246 0.75788
 Zr227 Zr 0.27874 0.47094 0.73640
 O228 O 0.25693 0.49223 0.71228
 O229 O 0.22589 0.52359 0.72651
 O230 O 0.27275 0.47669 0.77364
 C231 C 0.17393 0.51918 0.73181
 C232 C 0.23123 0.57575 0.73137
 C233 C 0.23038 0.51837 0.67443
 C234 C 0.32372 0.48096 0.77076
 C235 C 0.26960 0.47982 0.82453
 C236 C 0.26931 0.42559 0.76977
 H237 H 0.23750 0.51193 0.80451
 H238 H 0.23754 0.44573 0.73798
 H239 H 0.21546 0.53409 0.71603
 H240 H 0.30357 0.51240 0.73874
 H241 H 0.29906 0.55605 0.77256
 H242 H 0.30182 0.55428 0.73096
 H243 H 0.20931 0.43354 0.76498
 H244 H 0.18496 0.45948 0.73776
 H245 H 0.28741 0.54105 0.81812
 H246 H 0.21115 0.56826 0.79110
 H247 H 0.26439 0.43460 0.70913
 H248 H 0.23640 0.45881 0.68614
 H249 H 0.18541 0.51161 0.79041
 H250 H 0.20897 0.48509 0.81614
 H251 H 0.28899 0.51163 0.68504
 H252 H 0.31615 0.48524 0.71066
 O253 O 0.18458 0.03129 0.24793
 O254 O 0.19265 0.02797 0.29005
 O255 O 0.24856 0.06478 0.21803
 O256 O 0.28907 0.05764 0.21760
 O257 O 0.21802 0.00054 0.18406
 O258 O 0.22012 -0.04237 0.19321
 O259 O 0.31396 -0.00175 0.28150
 O260 O 0.30715 0.04013 0.27649
 O261 O 0.25205 -0.03195 0.31368
 O262 O 0.20773 -0.03020 0.30530
 O263 O 0.28154 -0.06455 0.25153
 O264 O 0.27975 -0.05639 0.20735
 O265 O 0.31382 -0.03140 0.25198
 O266 O 0.30477 -0.02914 0.20654
 O267 O 0.25209 -0.06464 0.28103
 O268 O 0.20691 -0.05558 0.27828
 O269 O 0.28198 -0.00286 0.31335
 O270 O 0.27382 0.04152 0.30537
 O271 O 0.18431 0.00117 0.21881
 O272 O 0.19334 -0.04240 0.22108
 O273 O 0.24754 0.03008 0.18380
 O274 O 0.29187 0.02611 0.19351
 O275 O 0.21873 0.06480 0.24724
 O276 O 0.22444 0.05535 0.29152
 Zr277 Zr 0.22019 0.02941 0.26273
 O278 O 0.24166 0.00757 0.28628
 Zr279 Zr 0.26298 0.02900 0.21925
 O280 O 0.28650 0.00777 0.24131
 Zr281 Zr 0.21980 -0.01408 0.21978
 O282 O 0.24167 -0.03756 0.24131
 Zr283 Zr 0.27883 0.01365 0.27860
 O284 O 0.25749 0.03749 0.25659
 Zr285 Zr 0.23589 -0.02973 0.27863
 O286 O 0.21204 -0.00800 0.25709
 Zr287 Zr 0.27891 -0.02957 0.23548
 O288 O 0.25701 -0.00837 0.21136
 O289 O 0.22602 0.02301 0.22559
 O290 O 0.27304 -0.02368 0.27272
 C291 C 0.17409 0.01872 0.23087
 C292 C 0.23119 0.07516 0.23012
 C293 C 0.23021 0.01777 0.17356
 C294 C 0.32404 -0.01945 0.26962
 C295 C 0.26999 -0.02032 0.32365
 C296 C 0.26979 -0.07471 0.26924
 H297 H 0.23788 0.01166 0.30356
 H298 H 0.23775 -0.05481 0.23731
 H299 H 0.21555 0.03346 0.21511
 H300 H 0.30374 0.01189 0.23759
 H301 H 0.29935 0.05565 0.27122
 H302 H 0.30206 0.05365 0.22960
 H303 H 0.20973 -0.06700 0.26444
 H304 H 0.18513 -0.04101 0.23721
 H305 H 0.28787 0.04086 0.31691
 H306 H 0.21136 0.06790 0.29002
 H307 H 0.26449 -0.06611 0.20851
 H308 H 0.23647 -0.04186 0.18539
 H309 H 0.18560 0.01124 0.28950
 H310 H 0.20931 -0.01512 0.31530
 H311 H 0.28891 0.01097 0.18390
 H312 H 0.31617 -0.01533 0.20950
 O313 O 0.50171 0.68539 0.21799
 O314 O 0.45978 0.69328 0.22122
 O315 O 0.53136 0.74966 0.18437
 O316 O 0.53175 0.79021 0.19158
 O317 O 0.56557 0.71934 0.24853
 O318 O 0.55658 0.72141 0.29144
 O319 O 0.46784 0.81476 0.25105
 O320 O 0.47284 0.80791 0.20918
 O321 O 0.43621 0.75273 0.28147
 O322 O 0.44465 0.70833 0.27952
 O323 O 0.49824 0.78246 0.31397
 O324 O 0.54215 0.78128 0.30562
 O325 O 0.49730 0.81490 0.28073
 O326 O 0.54280 0.80616 0.27828
 O327 O 0.46894 0.75276 0.31407
 O328 O 0.47167 0.70764 0.30483
 O329 O 0.43631 0.78258 0.25230
 O330 O 0.44416 0.77432 0.20784
 O331 O 0.53084 0.68530 0.24807
 O332 O 0.52888 0.69454 0.29163
 O333 O 0.56566 0.74889 0.21903
 O334 O 0.55575 0.79323 0.22307
 O335 O 0.50237 0.71957 0.18441
 O336 O 0.45817 0.72508 0.19393
 Zr337 Zr 0.48696 0.72100 0.21983
 O338 O 0.46341 0.74234 0.24176
 Zr339 Zr 0.53021 0.76410 0.22020
 O340 O 0.50812 0.78755 0.24148
 Zr341 Zr 0.52995 0.72093 0.26324
 O342 O 0.50844 0.74273 0.28678
 Zr343 Zr 0.47092 0.77959 0.23567
 O344 O 0.49294 0.75836 0.21175
 Zr345 Zr 0.47119 0.73667 0.27905
 O346 O 0.49273 0.71292 0.25724
 Zr347 Zr 0.51404 0.78007 0.27884
 O348 O 0.53817 0.75825 0.25757
 O349 O 0.52404 0.72705 0.22615
 O350 O 0.47689 0.77391 0.27301
 C351 C 0.51869 0.67495 0.23061
 C352 C 0.51934 0.73218 0.17400
 C353 C 0.57599 0.73164 0.23133
 C354 C 0.47962 0.82497 0.26878
 C355 C 0.42616 0.77061 0.26986
 C356 C 0.48073 0.77049 0.32419
 H357 H 0.44617 0.73844 0.23771
 H358 H 0.51251 0.73884 0.30402
 H359 H 0.53451 0.71657 0.21567
 H360 H 0.51173 0.80483 0.23735
 H361 H 0.47807 0.80011 0.19362
 H362 H 0.51961 0.80306 0.19551
 H363 H 0.48559 0.71045 0.31614
 H364 H 0.51282 0.68618 0.29031
 H365 H 0.43258 0.78831 0.20855
 H366 H 0.45969 0.71201 0.18132
 H367 H 0.54139 0.76582 0.31506
 H368 H 0.56434 0.73783 0.29092
 H369 H 0.46019 0.68640 0.23802
 H370 H 0.43447 0.70998 0.26459
 H371 H 0.56539 0.79035 0.23820
 H372 H 0.53963 0.81765 0.26459
 O373 O 0.06523 0.71849 0.74878
 O374 O 0.05734 0.72189 0.79079
 O375 O 0.00097 0.68485 0.71904
 O376 O -0.03947 0.69205 0.71860
 O377 O 0.03143 0.74885 0.68474
 O378 O 0.02955 0.79177 0.69374
 O379 O -0.06394 0.75174 0.78243
 O380 O -0.05720 0.70991 0.77761
 O381 O -0.00181 0.78217 0.81435
 O382 O 0.04243 0.78033 0.80589
 O383 O -0.03152 0.81445 0.75203
 O384 O -0.03017 0.80598 0.70803
 O385 O -0.06392 0.78125 0.75283
 O386 O -0.05509 0.77868 0.70734
 O387 O -0.00190 0.81470 0.78144
 O388 O 0.04321 0.80545 0.77875
 O389 O -0.03171 0.75305 0.81423
 O390 O -0.02368 0.70862 0.80634
 O391 O 0.06544 0.74846 0.71959
 O392 O 0.05638 0.79199 0.72150
 O393 O 0.00186 0.71937 0.68465
 O394 O -0.04240 0.72344 0.69453
 O395 O 0.03098 0.68495 0.74814
 O396 O 0.02549 0.69465 0.79242
 Zr397 Zr 0.02966 0.72043 0.76353
 O398 O 0.00839 0.74245 0.78706
 Zr399 Zr -0.01333 0.72066 0.72015
 O400 O -0.03670 0.74202 0.74222
 Zr401 Zr 0.02991 0.76366 0.72043
 O402 O 0.00818 0.78728 0.74192
 Zr403 Zr -0.02882 0.73636 0.77951
 O404 O -0.00767 0.71236 0.75751
 Zr405 Zr 0.01414 0.77970 0.77926
 O406 O 0.03783 0.75779 0.75775
 Zr407 Zr -0.02910 0.77931 0.73623
 O408 O -0.00735 0.75796 0.71212
 O409 O 0.02369 0.72660 0.72637
 O410 O -0.02305 0.77366 0.77349
 C411 C 0.07571 0.73104 0.73177
 C412 C 0.01838 0.67450 0.73112
 C413 C 0.01909 0.73165 0.67430
 C414 C -0.07407 0.76937 0.77051
 C415 C -0.01965 0.77056 0.82444
 C416 C -0.01959 0.82474 0.76959
 H417 H 0.01227 0.73846 0.80434
 H418 H 0.01211 0.80450 0.73782
 H419 H 0.03412 0.71609 0.71589
 H420 H -0.05396 0.73788 0.73856
 H421 H -0.04946 0.69434 0.77236
 H422 H -0.05230 0.69603 0.73075
 H423 H 0.04038 0.81676 0.76485
 H424 H 0.06465 0.79076 0.73763
 H425 H -0.03765 0.70937 0.81794
 H426 H 0.03849 0.68203 0.79091
 H427 H -0.01477 0.81551 0.70891
 H428 H 0.01315 0.79126 0.68597
 H429 H 0.06429 0.73866 0.79034
 H430 H 0.04089 0.76532 0.81595
 H431 H -0.03946 0.73850 0.68482
 H432 H -0.06657 0.76498 0.71045
 O433 O -0.03168 -0.06584 -0.00159
 O434 O -0.02817 -0.05809 0.04058
 O435 O -0.06532 -0.00161 -0.03088
 O436 O -0.05822 0.03901 -0.03077
 O437 O -0.00142 -0.03165 -0.06532
 O438 O 0.04149 -0.02965 -0.05634
 O439 O 0.00165 0.06346 0.03299
 O440 O -0.04018 0.05667 0.02811
 O441 O 0.03198 0.00117 0.06446
 O442 O 0.03014 -0.04307 0.05573
 O443 O 0.06414 0.03125 0.00233
 O444 O 0.05552 0.02991 -0.04184
 O445 O 0.03107 0.06359 0.00334
 O446 O 0.02847 0.05505 -0.04212
 O447 O 0.06442 0.00149 0.03155
 O448 O 0.05518 -0.04373 0.02851
 O449 O 0.00292 0.03106 0.06455
 O450 O -0.04147 0.02300 0.05665
 O451 O -0.00182 -0.06579 -0.03086
 O452 O 0.04167 -0.05672 -0.02876
 O453 O -0.03091 -0.00213 -0.06521
 O454 O -0.02690 0.04213 -0.05507
 O455 O -0.06516 -0.03175 -0.00195
 O456 O -0.05547 -0.02630 0.04238
 Zr457 Zr -0.02973 -0.03030 0.01348
 O458 O -0.00771 -0.00901 0.03712
 Zr459 Zr -0.02959 0.01294 -0.02960
 O460 O -0.00820 0.03631 -0.00743
 Zr461 Zr 0.01341 -0.03023 -0.02965
 O462 O 0.03703 -0.00852 -0.00804
 Zr463 Zr -0.01379 0.02828 0.02983
 O464 O -0.03780 0.00710 0.00774
 Zr465 Zr 0.02948 -0.01467 0.02926
 O466 O 0.00759 -0.03836 0.00761
 Zr467 Zr 0.02905 0.02881 -0.01350
 O468 O 0.00766 0.00709 -0.03771
 O469 O -0.02358 -0.02411 -0.02363
 O470 O 0.02344 0.02258 0.02373
 C471 C -0.01924 -0.07617 -0.01879
 C472 C -0.07560 -0.01916 -0.01894
 C473 C -0.01866 -0.01935 -0.07565
 C474 C 0.01928 0.07366 0.02112
 C475 C 0.02042 0.01898 0.07466
 C476 C 0.07443 0.01929 0.01982
 H477 H -0.01169 -0.01296 0.05438
 H478 H 0.05422 -0.01241 -0.01217
 H479 H -0.03408 -0.03453 -0.03418
 H480 H -0.01232 0.05361 -0.01096
 H481 H -0.05574 0.04892 0.02281
 H482 H -0.05405 0.05199 -0.01879
 H483 H 0.06650 -0.04077 0.01466
 H484 H 0.04040 -0.06510 -0.01270
 H485 H -0.04069 0.03696 0.06832
 H486 H -0.06803 -0.03939 0.04081
 H487 H 0.06530 0.01468 -0.04080
 H488 H 0.04093 -0.01321 -0.06402
 H489 H -0.01147 -0.06512 0.03993
 H490 H 0.01511 -0.04166 0.06574
 H491 H -0.01180 0.03933 -0.06472
 H492 H 0.01465 0.06636 -0.03903
 O493 O -0.06522 0.49836 0.46776
 O494 O -0.05708 0.54033 0.47100
 O495 O -0.00132 0.46832 0.43410
 O496 O 0.03927 0.46811 0.44124
 O497 O -0.03162 0.43426 0.49811
 O498 O -0.02952 0.44324 0.54105
 O499 O 0.06411 0.53183 0.50090
 O500 O 0.05728 0.52697 0.45912
 O501 O 0.00204 0.56381 0.53127
 O502 O -0.04220 0.55532 0.52945
 O503 O 0.03160 0.50156 0.56381
 O504 O 0.03025 0.45758 0.55531
 O505 O 0.06409 0.50232 0.53048
 O506 O 0.05514 0.45690 0.52809
 O507 O 0.00206 0.53094 0.56395
 O508 O -0.04298 0.52831 0.55464
 O509 O 0.03190 0.56366 0.50216
 O510 O 0.02383 0.55566 0.45772
 O511 O -0.06547 0.46920 0.49777
 O512 O -0.05624 0.47100 0.54132
 O513 O -0.00207 0.43409 0.46865
 O514 O 0.04220 0.44392 0.47268
 O515 O -0.03125 0.49741 0.43421
 O516 O -0.02530 0.54169 0.44368
 Zr517 Zr -0.02960 0.51297 0.46961
 O518 O -0.00823 0.53649 0.49162
 Zr519 Zr 0.01322 0.46957 0.46990
 O520 O 0.03670 0.49164 0.49128
 Zr521 Zr -0.02989 0.46993 0.51293
 O522 O -0.00806 0.49143 0.53654
 Zr523 Zr 0.02894 0.52892 0.48555
 O524 O 0.00768 0.50691 0.46154
 Zr525 Zr -0.01396 0.52873 0.52889
 O526 O -0.03773 0.50721 0.50699
 Zr527 Zr 0.02920 0.48575 0.52862
 O528 O 0.00734 0.46162 0.50725
 O529 O -0.02374 0.47583 0.47586
 O530 O 0.02323 0.52298 0.52290
 C531 C -0.07574 0.48141 0.48035
 C532 C -0.01880 0.48031 0.42379
 C533 C -0.01936 0.42379 0.48090
 C534 C 0.07427 0.51992 0.51852
 C535 C 0.01984 0.57390 0.51962
 C536 C 0.01966 0.51907 0.57409
 H537 H -0.01208 0.55375 0.48758
 H538 H -0.01199 0.48736 0.55377
 H539 H -0.03427 0.46535 0.46540
 H540 H 0.05394 0.48797 0.48715
 H541 H 0.04952 0.52165 0.44356
 H542 H 0.05226 0.48007 0.44535
 H543 H -0.04024 0.51437 0.56592
 H544 H -0.06450 0.48711 0.54008
 H545 H 0.03782 0.56726 0.45847
 H546 H -0.03837 0.54020 0.43109
 H547 H 0.01482 0.45840 0.56477
 H548 H -0.01316 0.43544 0.54051
 H549 H -0.06407 0.53989 0.48775
 H550 H -0.04061 0.56542 0.51446
 H551 H 0.03932 0.43432 0.48782
 H552 H 0.06649 0.45988 0.51428
 O553 O 0.43502 -0.00165 0.46797
 O554 O 0.44285 0.04044 0.47155
 O555 O 0.49899 -0.03130 0.43457
 O556 O 0.53954 -0.03154 0.44174
 O557 O 0.46871 -0.06541 0.49866
 O558 O 0.47068 -0.05637 0.54157
 O559 O 0.56412 0.03252 0.50136
 O560 O 0.55736 0.02745 0.45955
 O561 O 0.50204 0.06421 0.53167
 O562 O 0.45790 0.05564 0.53002
 O563 O 0.53190 0.00205 0.56423
 O564 O 0.53067 -0.04186 0.55583
 O565 O 0.56426 0.00299 0.53094
 O566 O 0.55539 -0.04263 0.52839
 O567 O 0.50232 0.03140 0.56438
 O568 O 0.45717 0.02850 0.55514
 O569 O 0.53188 0.06409 0.50253
 O570 O 0.52379 0.05604 0.45810
 O571 O 0.43481 -0.03078 0.49802
 O572 O 0.44391 -0.02853 0.54174
 O573 O 0.49823 -0.06554 0.46917
 O574 O 0.54253 -0.05560 0.47323
 O575 O 0.46906 -0.00221 0.43463
 O576 O 0.47465 0.04208 0.44424
 Zr577 Zr 0.47052 0.01326 0.47008
 O578 O 0.49183 0.03684 0.49208
 Zr579 Zr 0.51348 -0.03004 0.47039
 O580 O 0.53692 -0.00788 0.49172
 Zr581 Zr 0.47033 -0.02973 0.51341
 O582 O 0.49216 -0.00820 0.53701
 Zr583 Zr 0.52901 0.02935 0.48597
 O584 O 0.50781 0.00727 0.46199
 Zr585 Zr 0.48616 0.02908 0.52936
 O586 O 0.46239 0.00753 0.50746
 Zr587 Zr 0.52944 -0.01378 0.52906
 O588 O 0.50759 -0.03796 0.50774
 O589 O 0.47651 -0.02385 0.47634
 O590 O 0.52335 0.02342 0.52331
 C591 C 0.42458 -0.01875 0.48044
 C592 C 0.48154 -0.01929 0.42423
 C593 C 0.48095 -0.07585 0.48143
 C594 C 0.57432 0.02071 0.51903
 C595 C 0.51983 0.07431 0.52000
 C596 C 0.52001 0.01959 0.57449
 H597 H 0.48793 0.05409 0.48804
 H598 H 0.48828 -0.01228 0.55424
 H599 H 0.46608 -0.03437 0.46583
 H600 H 0.55418 -0.01149 0.48759
 H601 H 0.54962 0.02212 0.44398
 H602 H 0.55245 -0.01946 0.44577
 H603 H 0.46005 0.01464 0.56648
 H604 H 0.43550 -0.01252 0.54027
 H605 H 0.53776 0.06768 0.45882
 H606 H 0.46158 0.04055 0.43164
 H607 H 0.51517 -0.04120 0.56518
 H608 H 0.48708 -0.06410 0.54111
 H609 H 0.43576 0.03980 0.48825
 H610 H 0.45921 0.06549 0.51484
 H611 H 0.53962 -0.06526 0.48833
 H612 H 0.56694 -0.03940 0.51480
 O613 O 0.50144 0.56531 0.03144
 O614 O 0.45942 0.55740 0.02802
 O615 O 0.53096 0.50115 0.06513
 O616 O 0.53163 0.46064 0.05794
 O617 O 0.56508 0.53148 0.00077
 O618 O 0.55590 0.52934 -0.04211
 O619 O 0.46747 0.43576 -0.00147
 O620 O 0.47255 0.44271 0.04039
 O621 O 0.43564 0.49770 -0.03194
 O622 O 0.44405 0.54209 -0.03015
 O623 O 0.49759 0.46801 -0.06438
 O624 O 0.54160 0.46945 -0.05605
 O625 O 0.49685 0.43570 -0.03115
 O626 O 0.54230 0.44455 -0.02872
 O627 O 0.46828 0.49763 -0.06455
 O628 O 0.47101 0.54281 -0.05545
 O629 O 0.43583 0.46792 -0.00271
 O630 O 0.44388 0.47624 0.04171
 O631 O 0.53045 0.56540 0.00133
 O632 O 0.52816 0.55617 -0.04225
 O633 O 0.56531 0.50203 0.03037
 O634 O 0.55540 0.45764 0.02647
 O635 O 0.50194 0.53115 0.06502
 O636 O 0.45779 0.52568 0.05543
 Zr637 Zr 0.48656 0.52970 0.02956
 O638 O 0.46298 0.50821 0.00770
 Zr639 Zr 0.52986 0.48671 0.02929
 O640 O 0.50772 0.46315 0.00807
 Zr641 Zr 0.52940 0.52979 -0.01385
 O642 O 0.50785 0.50788 -0.03734
 Zr643 Zr 0.47053 0.47099 0.01386
 O644 O 0.49260 0.49236 0.03771
 Zr645 Zr 0.47063 0.51384 -0.02959
 O646 O 0.49220 0.53772 -0.00785
 Zr647 Zr 0.51353 0.47058 -0.02930
 O648 O 0.53770 0.49252 -0.00809
 O649 O 0.52363 0.52373 0.02327
 O650 O 0.47639 0.47663 -0.02349
 C651 C 0.51844 0.57574 0.01884
 C652 C 0.51889 0.51856 0.07549
 C653 C 0.57559 0.51926 0.01797
 C654 C 0.47923 0.42558 -0.01919
 C655 C 0.42562 0.47985 -0.02027
 C656 C 0.48002 0.47988 -0.07461
 H657 H 0.44575 0.51208 0.01176
 H658 H 0.51186 0.51174 -0.05459
 H659 H 0.53414 0.53420 0.03376
 H660 H 0.51137 0.44589 0.01223
 H661 H 0.47784 0.45056 0.05593
 H662 H 0.51934 0.44785 0.05415
 H663 H 0.48489 0.54000 -0.06676
 H664 H 0.51212 0.56452 -0.04086
 H665 H 0.43229 0.46222 0.04104
 H666 H 0.45931 0.53882 0.06797
 H667 H 0.54063 0.48479 -0.06569
 H668 H 0.56364 0.51293 -0.04160
 H669 H 0.45994 0.56434 0.01125
 H670 H 0.43404 0.54055 -0.01511
 H671 H 0.56500 0.46052 0.01134
 H672 H 0.53922 0.43311 -0.01498
 O673 O 0.78161 0.31530 0.49842
 O674 O 0.77833 0.30742 0.54047
 O675 O 0.81517 0.25102 0.46879
 O676 O 0.80795 0.21043 0.46853
 O677 O 0.75133 0.28142 0.43442
 O678 O 0.70842 0.27927 0.44327
 O679 O 0.74826 0.18602 0.53235
 O680 O 0.79005 0.19268 0.52744
 O681 O 0.71819 0.24835 0.56404
 O682 O 0.72007 0.29262 0.55541
 O683 O 0.68569 0.21848 0.50174
 O684 O 0.69422 0.21968 0.45767
 O685 O 0.71873 0.18597 0.50274
 O686 O 0.72126 0.19456 0.45727
 O687 O 0.68560 0.24817 0.53112
 O688 O 0.69488 0.29327 0.52833
 O689 O 0.74724 0.21843 0.56404
 O690 O 0.79160 0.22634 0.55606
 O691 O 0.75162 0.31540 0.46920
 O692 O 0.70818 0.30624 0.47096
 O693 O 0.78069 0.25177 0.43439
 O694 O 0.77655 0.20746 0.44430
 O695 O 0.81510 0.28114 0.49781
 O696 O 0.80556 0.27559 0.54208
 Zr697 Zr 0.77973 0.27971 0.51321
 O698 O 0.75776 0.25843 0.53676
 Zr699 Zr 0.77940 0.23658 0.46991
 O700 O 0.75804 0.21321 0.49200
 Zr701 Zr 0.73648 0.27981 0.47004
 O702 O 0.71290 0.25811 0.49158
 Zr703 Zr 0.76376 0.22115 0.52929
 O704 O 0.78774 0.24232 0.50727
 Zr705 Zr 0.72057 0.26419 0.52890
 O706 O 0.74242 0.28786 0.50734
 Zr707 Zr 0.72079 0.22077 0.48599
 O708 O 0.74213 0.24248 0.46184
 O709 O 0.77349 0.27364 0.47606
 O710 O 0.72651 0.22693 0.52324
 C711 C 0.76903 0.32574 0.48138
 C712 C 0.82550 0.26853 0.48081
 C713 C 0.76851 0.26909 0.42403
 C714 C 0.73058 0.17587 0.52048
 C715 C 0.72982 0.23056 0.57421
 C716 C 0.67548 0.23048 0.51926
 H717 H 0.76180 0.26236 0.55402
 H718 H 0.69572 0.26204 0.48745
 H719 H 0.78397 0.28410 0.46559
 H720 H 0.76212 0.19591 0.48840
 H721 H 0.80561 0.20038 0.52213
 H722 H 0.80384 0.19748 0.48054
 H723 H 0.68359 0.29043 0.51439
 H724 H 0.70939 0.31457 0.48707
 H725 H 0.79084 0.21239 0.56770
 H726 H 0.81814 0.28866 0.54058
 H727 H 0.68467 0.23506 0.45855
 H728 H 0.70903 0.26287 0.43545
 H729 H 0.76163 0.31445 0.53991
 H730 H 0.73504 0.29106 0.56554
 H731 H 0.76144 0.21033 0.43465
 H732 H 0.73504 0.18319 0.46035
 O733 O 0.78227 0.81573 -0.00193
 O734 O 0.77873 0.80780 0.04012
 O735 O 0.81543 0.75148 -0.03173
 O736 O 0.80810 0.71095 -0.03221
 O737 O 0.75162 0.78217 -0.06598
 O738 O 0.70876 0.78034 -0.05706
 O739 O 0.74857 0.68640 0.03147
 O740 O 0.79030 0.69311 0.02673
 O741 O 0.71846 0.74866 0.06351
 O742 O 0.72031 0.79289 0.05513
 O743 O 0.68591 0.71905 0.00106
 O744 O 0.69428 0.72036 -0.04282
 O745 O 0.71904 0.68647 0.00186
 O746 O 0.72157 0.69552 -0.04367
 O747 O 0.68583 0.74864 0.03053
 O748 O 0.69526 0.79380 0.02792
 O749 O 0.74741 0.71866 0.06335
 O750 O 0.79177 0.72662 0.05550
 O751 O 0.75231 0.81607 -0.03118
 O752 O 0.70869 0.80712 -0.02914
 O753 O 0.78093 0.75249 -0.06612
 O754 O 0.77669 0.70814 -0.05636
 O755 O 0.81550 0.78143 -0.00254
 O756 O 0.80585 0.77585 0.04173
 Zr757 Zr 0.78009 0.78013 0.01282
 O758 O 0.75805 0.75881 0.03626
 Zr759 Zr 0.77963 0.73717 -0.03066
 O760 O 0.75825 0.71375 -0.00866
 Zr761 Zr 0.73686 0.78056 -0.03033
 O762 O 0.71322 0.75876 -0.00893
 Zr763 Zr 0.76399 0.72156 0.02865
 O764 O 0.78801 0.74275 0.00672
 Zr765 Zr 0.72086 0.76464 0.02842
 O766 O 0.74280 0.78840 0.00701
 Zr767 Zr 0.72101 0.72141 -0.01466
 O768 O 0.74238 0.74324 -0.03870
 O769 O 0.77384 0.77422 -0.02436
 O770 O 0.72674 0.72739 0.02262
 C771 C 0.76984 0.82626 -0.01902
 C772 C 0.82584 0.76887 -0.01962
 C773 C 0.76877 0.76985 -0.07642
 C774 C 0.73095 0.67626 0.01950
 C775 C 0.73003 0.73078 0.07359
 C776 C 0.67569 0.73100 0.01860
 H777 H 0.76208 0.76266 0.05355
 H778 H 0.69604 0.76273 -0.01304
 H779 H 0.78437 0.78464 -0.03480
 H780 H 0.76232 0.69647 -0.01235
 H781 H 0.80586 0.70084 0.02147
 H782 H 0.80406 0.69805 -0.02014
 H783 H 0.68396 0.79103 0.01398
 H784 H 0.71013 0.81548 -0.01306
 H785 H 0.79099 0.71261 0.06707
 H786 H 0.81848 0.78887 0.04027
 H787 H 0.68502 0.73593 -0.04213
 H788 H 0.70920 0.76394 -0.06489
 H789 H 0.76206 0.81491 0.03951
 H790 H 0.73543 0.79147 0.06504
 H791 H 0.76167 0.71116 -0.06610
 H792 H 0.73515 0.68394 -0.04052
 O793 O 1.06550 0.21745 0.24851
 O794 O 1.05754 0.22110 0.29060
 O795 O 1.00141 0.18383 0.21877
 O796 O 0.96089 0.19099 0.21839
 O797 O 1.03191 0.24767 0.18444
 O798 O 1.02990 0.29068 0.19330
 O799 O 0.93631 0.25098 0.28195
 O800 O 0.94297 0.20909 0.27712
 O801 O 0.99842 0.28126 0.31392
 O802 O 1.04266 0.27946 0.30548
 O803 O 0.96879 0.31352 0.25150
 O804 O 0.97032 0.30492 0.20742
 O805 O 0.93639 0.28039 0.25226
 O806 O 0.94526 0.27772 0.20682
 O807 O 0.99831 0.31378 0.28100
 O808 O 1.04343 0.30459 0.27834
 O809 O 0.96849 0.25218 0.31378
 O810 O 0.97643 0.20775 0.30594
 O811 O 1.06576 0.24738 0.21926
 O812 O 1.05675 0.29094 0.22113
 O813 O 1.00231 0.21820 0.18436
 O814 O 0.95805 0.22234 0.19407
 O815 O 1.03136 0.18400 0.24794
 O816 O 1.02571 0.19376 0.29218
 Zr817 Zr 1.02994 0.21950 0.26327
 O818 O 1.00860 0.24157 0.28670
 Zr819 Zr 0.98702 0.21962 0.21981
 O820 O 0.96361 0.24107 0.24176
 Zr821 Zr 1.03026 0.26263 0.22007
 O822 O 1.00851 0.28632 0.24148
 Zr823 Zr 0.97139 0.23548 0.27908
 O824 O 0.99261 0.21142 0.25720
 Zr825 Zr 1.01440 0.27879 0.27884
 O826 O 1.03813 0.25685 0.25741
 Zr827 Zr 0.97124 0.27836 0.23572
 O828 O 0.99301 0.25691 0.21171
 O829 O 1.02400 0.22561 0.22610
 O830 O 0.97721 0.27276 0.27301
 C831 C 1.07598 0.22991 0.23143
 C832 C 1.01884 0.17353 0.23087
 C833 C 1.01964 0.23039 0.17404
 C834 C 0.92622 0.26861 0.26998
 C835 C 0.98057 0.26966 0.32400
 C836 C 0.98064 0.32381 0.26911
 H837 H 1.01244 0.23759 0.30399
 H838 H 1.01245 0.30352 0.23737
 H839 H 1.03445 0.21507 0.21567
 H840 H 0.94634 0.23695 0.23808
 H841 H 0.95069 0.19350 0.27190
 H842 H 0.94788 0.19517 0.23029
 H843 H 1.04062 0.31587 0.26441
 H844 H 1.06499 0.28973 0.23728
 H845 H 0.96242 0.20852 0.31749
 H846 H 1.03878 0.18119 0.29075
 H847 H 0.98565 0.31455 0.20843
 H848 H 1.01353 0.29008 0.18547
 H849 H 1.06466 0.23780 0.28993
 H850 H 1.04115 0.26443 0.31552
 H851 H 0.96098 0.23742 0.18439
 H852 H 0.93384 0.26397 0.20988
 O853 O 0.74863 1.06562 0.71864
 O854 O 0.79062 1.05773 0.72218
 O855 O 0.71902 1.00155 0.68475
 O856 O 0.71895 0.96088 0.69175
 O857 O 0.68467 1.03164 0.74872
 O858 O 0.69357 1.02959 0.79174
 O859 O 0.78236 0.93629 0.75162
 O860 O 0.77750 0.94310 0.70978
 O861 O 0.81405 0.99844 0.78223
 O862 O 0.80546 1.04284 0.78041
 O863 O 0.75194 0.96861 0.81446
 O864 O 0.70791 0.96995 0.80583
 O865 O 0.75280 0.93618 0.78112
 O866 O 0.70745 0.94488 0.77864
 O867 O 0.78124 0.99832 0.81477
 O868 O 0.77852 1.04339 0.80569
 O869 O 0.81398 0.96855 0.75302
 O870 O 0.80617 0.97670 0.70859
 O871 O 0.71940 1.06573 0.74854
 O872 O 0.72118 1.05657 0.79208
 O873 O 0.68470 1.00207 0.71916
 O874 O 0.69458 0.95785 0.72308
 O875 O 0.74805 1.03160 0.68506
 O876 O 0.79221 1.02595 0.69472
 Zr877 Zr 0.76340 1.03005 0.72053
 O878 O 0.78687 1.00871 0.74252
 Zr879 Zr 0.72016 0.98695 0.72050
 O880 O 0.74216 0.96353 0.74191
 Zr881 Zr 0.72026 1.03012 0.76367
 O882 O 0.74175 1.00837 0.78730
 Zr883 Zr 0.77937 0.97146 0.73631
 O884 O 0.75745 0.99269 0.71229
 Zr885 Zr 0.77901 1.01440 0.77978
 O886 O 0.75751 1.03814 0.75791
 Zr887 Zr 0.73616 0.97103 0.77926
 O888 O 0.71209 0.99280 0.75785
 O889 O 0.72630 1.02399 0.72661
 O890 O 0.77333 0.97716 0.77364
 C891 C 0.73158 1.07605 0.73114
 C892 C 0.73102 1.01910 0.67454
 C893 C 0.67431 1.01931 0.73144
 C894 C 0.77048 0.92608 0.76922
 C895 C 0.82414 0.98060 0.77057
 C896 C 0.76944 0.98058 0.82480
 H897 H 0.80412 1.01262 0.73855
 H898 H 0.73764 1.01226 0.80453
 H899 H 0.71584 1.03446 0.71613
 H900 H 0.73854 0.94624 0.73774
 H901 H 0.77228 0.95088 0.69421
 H902 H 0.73074 0.94781 0.69599
 H903 H 0.76450 1.04064 0.81684
 H904 H 0.73729 1.06485 0.79095
 H905 H 0.81774 0.96270 0.70931
 H906 H 0.79076 1.03907 0.68219
 H907 H 0.70887 0.98527 0.81552
 H908 H 0.68583 1.01317 0.79113
 H909 H 0.79000 1.06476 0.73893
 H910 H 0.81569 1.04118 0.76553
 H911 H 0.68502 0.96061 0.73827
 H912 H 0.71044 0.93358 0.76475
 O913 O 0.74889 0.56531 0.21780
 O914 O 0.79086 0.55737 0.22138
 O915 O 0.71917 0.50127 0.18400
 O916 O 0.71860 0.46072 0.19103
 O917 O 0.68498 0.53149 0.24831
 O918 O 0.69405 0.52960 0.29116
 O919 O 0.78243 0.43586 0.25072
 O920 O 0.77749 0.44273 0.20888
 O921 O 0.81424 0.49778 0.28143
 O922 O 0.80602 0.54208 0.27973
 O923 O 0.75188 0.46829 0.31365
 O924 O 0.70806 0.46951 0.30498
 O925 O 0.75296 0.43582 0.28031
 O926 O 0.70750 0.44461 0.27764
 O927 O 0.78127 0.49791 0.31400
 O928 O 0.77886 0.54303 0.30474
 O929 O 0.81409 0.46800 0.25214
 O930 O 0.80624 0.47627 0.20770
 O931 O 0.71973 0.56549 0.24777
 O932 O 0.72186 0.55634 0.29139
 O933 O 0.68477 0.50198 0.21870
 O934 O 0.69466 0.45764 0.22242
 O935 O 0.74830 0.53122 0.18425
 O936 O 0.79244 0.52558 0.19393
 Zr937 Zr 0.76362 0.52971 0.21973
 O938 O 0.78707 0.50827 0.24168
 Zr939 Zr 0.72023 0.48675 0.21978
 O940 O 0.74224 0.46321 0.24106
 Zr941 Zr 0.72063 0.52991 0.26298
 O942 O 0.74201 0.50799 0.28651
 Zr943 Zr 0.77947 0.47105 0.23544
 O944 O 0.75753 0.49237 0.21151
 Zr945 Zr 0.77929 0.51393 0.27896
 O946 O 0.75788 0.53779 0.25713
 Zr947 Zr 0.73629 0.47067 0.27841
 O948 O 0.71227 0.49262 0.25714
 O949 O 0.72651 0.52377 0.22588
 O950 O 0.77348 0.47671 0.27279
 C951 C 0.73186 0.57577 0.23032
 C952 C 0.73128 0.51871 0.17374
 C953 C 0.67447 0.51918 0.23113
 C954 C 0.77061 0.42569 0.26839
 C955 C 0.82427 0.47994 0.26975
 C956 C 0.76932 0.48028 0.32404
 H957 H 0.80433 0.51213 0.23770
 H958 H 0.73790 0.51189 0.30374
 H959 H 0.71603 0.53424 0.21540
 H960 H 0.73858 0.44594 0.23686
 H961 H 0.77230 0.45054 0.19332
 H962 H 0.73077 0.44788 0.19489
 H963 H 0.76486 0.54033 0.31593
 H964 H 0.73787 0.56477 0.28997
 H965 H 0.81778 0.46225 0.20839
 H966 H 0.79100 0.53870 0.18140
 H967 H 0.70887 0.48493 0.31454
 H968 H 0.68626 0.51320 0.29065
 H969 H 0.79032 0.56434 0.23816
 H970 H 0.81596 0.54065 0.26463
 H971 H 0.68506 0.46046 0.23757
 H972 H 0.71069 0.43310 0.26396
 O973 O 0.50116 0.18494 0.71827
 O974 O 0.45921 0.19276 0.72182
 O975 O 0.53075 0.24921 0.68497
 O976 O 0.53112 0.28973 0.69224
 O977 O 0.56508 0.21878 0.74898
 O978 O 0.55612 0.22051 0.79190
 O979 O 0.46743 0.31414 0.75195
 O980 O 0.47227 0.30745 0.71009
 O981 O 0.43574 0.25197 0.78219
 O982 O 0.44423 0.20768 0.78034
 O983 O 0.49794 0.28180 0.81465
 O984 O 0.54183 0.28047 0.80626
 O985 O 0.49700 0.31418 0.78153
 O986 O 0.54251 0.30536 0.77891
 O987 O 0.46861 0.25214 0.81482
 O988 O 0.47137 0.20694 0.80550
 O989 O 0.43582 0.28192 0.75313
 O990 O 0.44362 0.27385 0.70867
 O991 O 0.53036 0.18468 0.74828
 O992 O 0.52837 0.19367 0.79196
 O993 O 0.56510 0.24841 0.71956
 O994 O 0.55518 0.29271 0.72370
 O995 O 0.50170 0.21917 0.68496
 O996 O 0.45751 0.22469 0.69463
 Zr997 Zr 0.48637 0.22050 0.72043
 O998 O 0.46292 0.24177 0.74250
 Zr999 Zr 0.52965 0.26357 0.72081
 O1000 O 0.50764 0.28696 0.74221
 Zr1001 Zr 0.52946 0.22022 0.76372
 O1002 O 0.50805 0.24200 0.78740
 Zr1003 Zr 0.47043 0.27902 0.73647
 O1004 O 0.49236 0.25787 0.71243
 Zr1005 Zr 0.47078 0.23601 0.77977
 O1006 O 0.49221 0.21229 0.75780
 Zr1007 Zr 0.51368 0.27935 0.77952
 O1008 O 0.53771 0.25756 0.75813
 O1009 O 0.52347 0.22651 0.72667
 O1010 O 0.47650 0.27325 0.77379
 C1011 C 0.51822 0.17445 0.73074
 C1012 C 0.51871 0.23176 0.67458
 C1013 C 0.57547 0.23116 0.73182
 C1014 C 0.47930 0.32429 0.76966
 C1015 C 0.42567 0.26984 0.77061
 C1016 C 0.48042 0.26989 0.82490
 H1017 H 0.44567 0.23788 0.73848
 H1018 H 0.51217 0.23808 0.80462
 H1019 H 0.53394 0.21609 0.71614
 H1020 H 0.51126 0.30425 0.73812
 H1021 H 0.47748 0.29971 0.69449
 H1022 H 0.51901 0.30259 0.69624
 H1023 H 0.48526 0.20980 0.81684
 H1024 H 0.51231 0.18534 0.79060
 H1025 H 0.43204 0.28784 0.70943
 H1026 H 0.45899 0.21167 0.68197
 H1027 H 0.54102 0.26502 0.81573
 H1028 H 0.56381 0.23696 0.79153
 H1029 H 0.45977 0.18573 0.73855
 H1030 H 0.43423 0.20915 0.76526
 H1031 H 0.56489 0.28978 0.73878
 H1032 H 0.53926 0.31697 0.76535
 O1033 O 0.24865 0.68501 0.53178
 O1034 O 0.29063 0.69293 0.52839
 O1035 O 0.21914 0.74919 0.56551
 O1036 O 0.21864 0.78971 0.55837
 O1037 O 0.18485 0.71880 0.50120
 O1038 O 0.19384 0.72078 0.45832
 O1039 O 0.28246 0.81443 0.49879
 O1040 O 0.27758 0.80764 0.54066
 O1041 O 0.31419 0.75231 0.46837
 O1042 O 0.30569 0.70804 0.47001
 O1043 O 0.25209 0.78216 0.43599
 O1044 O 0.20805 0.78059 0.44439
 O1045 O 0.25289 0.81445 0.46922
 O1046 O 0.20750 0.80562 0.47167
 O1047 O 0.28146 0.75259 0.43576
 O1048 O 0.27855 0.70731 0.44481
 O1049 O 0.31411 0.78222 0.49755
 O1050 O 0.30622 0.77409 0.54198
 O1051 O 0.21953 0.68484 0.50169
 O1052 O 0.22156 0.69398 0.45813
 O1053 O 0.18474 0.74834 0.53079
 O1054 O 0.19466 0.79269 0.52693
 O1055 O 0.24816 0.71920 0.56538
 O1056 O 0.29233 0.72476 0.55575
 Zr1057 Zr 0.26347 0.72062 0.52991
 O1058 O 0.28696 0.74201 0.50798
 Zr1059 Zr 0.22020 0.76360 0.52969
 O1060 O 0.24224 0.78710 0.50843
 Zr1061 Zr 0.22046 0.72042 0.48653
 O1062 O 0.24191 0.74228 0.46299
 Zr1063 Zr 0.27946 0.77925 0.51415
 O1064 O 0.25749 0.75797 0.53806
 Zr1065 Zr 0.27915 0.73632 0.47068
 O1066 O 0.25768 0.71251 0.49249
 Zr1067 Zr 0.23626 0.77958 0.47107
 O1068 O 0.21219 0.75771 0.49233
 O1069 O 0.22638 0.72657 0.52365
 O1070 O 0.27343 0.77354 0.47682
 C1071 C 0.23162 0.67454 0.51917
 C1072 C 0.23121 0.73178 0.57585
 C1073 C 0.17441 0.73109 0.51840
 C1074 C 0.27059 0.82458 0.48112
 C1075 C 0.32427 0.77018 0.48003
 C1076 C 0.26967 0.77034 0.42574
 H1077 H 0.30420 0.73814 0.51201
 H1078 H 0.23783 0.73839 0.44574
 H1079 H 0.21591 0.71611 0.53413
 H1080 H 0.23862 0.80437 0.51260
 H1081 H 0.27235 0.79986 0.55621
 H1082 H 0.23083 0.80255 0.55450
 H1083 H 0.26479 0.71027 0.43336
 H1084 H 0.23763 0.68569 0.45943
 H1085 H 0.31781 0.78809 0.54128
 H1086 H 0.29084 0.71168 0.56832
 H1087 H 0.20911 0.76533 0.43461
 H1088 H 0.18616 0.73722 0.45878
 H1089 H 0.29006 0.68593 0.51162
 H1090 H 0.31566 0.70947 0.48512
 H1091 H 0.18501 0.78980 0.51180
 H1092 H 0.21059 0.81704 0.48545
 O1093 O 0.31497 0.25114 0.96906
 O1094 O 0.30711 0.20900 0.97244
 O1095 O 0.25091 0.28073 0.93554
 O1096 O 0.21037 0.28105 0.94268
 O1097 O 0.28134 0.31481 0.99975
 O1098 O 0.27917 0.30571 1.04274
 O1099 O 0.18580 0.21696 1.00196
 O1100 O 0.19258 0.22214 0.96012
 O1101 O 0.24775 0.18513 1.03228
 O1102 O 0.29208 0.19367 1.03055
 O1103 O 0.21819 0.24724 1.06503
 O1104 O 0.21944 0.29119 1.05681
 O1105 O 0.18575 0.24640 1.03170
 O1106 O 0.19460 0.29197 1.02941
 O1107 O 0.24775 0.21787 1.06509
 O1108 O 0.29278 0.22059 1.05597
 O1109 O 0.21790 0.18536 1.00308
 O1110 O 0.22608 0.19343 0.95870
 O1111 O 0.31515 0.28022 0.99922
 O1112 O 0.30608 0.27795 1.04283
 O1113 O 0.25179 0.31498 0.97020
 O1114 O 0.20749 0.30512 0.97424
 O1115 O 0.28088 0.25168 0.93558
 O1116 O 0.27536 0.20741 0.94498
 Zr1117 Zr 0.27945 0.23619 0.97096
 O1118 O 0.25809 0.21256 0.99277
 Zr1119 Zr 0.23648 0.27950 0.97134
 O1120 O 0.21304 0.25733 0.99255
 Zr1121 Zr 0.27964 0.27913 1.01446
 O1122 O 0.25786 0.25751 1.03791
 Zr1123 Zr 0.22091 0.22011 0.98663
 O1124 O 0.24214 0.24220 0.96281
 Zr1125 Zr 0.26380 0.22022 1.03009
 O1126 O 0.28757 0.24187 1.00839
 Zr1127 Zr 0.22057 0.26315 1.02993
 O1128 O 0.24238 0.28738 1.00874
 O1129 O 0.27345 0.27328 0.97735
 O1130 O 0.22662 0.22596 1.02401
 C1131 C 0.32539 0.26823 0.98163
 C1132 C 0.26836 0.26874 0.92520
 C1133 C 0.26912 0.32526 0.98249
 C1134 C 0.17564 0.22873 1.01969
 C1135 C 0.22989 0.17511 1.02057
 C1136 C 0.23010 0.22967 1.07523
 H1137 H 0.26195 0.19531 0.98866
 H1138 H 0.26177 0.26154 1.05517
 H1139 H 0.28389 0.28380 0.96690
 H1140 H 0.19579 0.26097 0.98841
 H1141 H 0.20036 0.22745 0.94460
 H1142 H 0.19741 0.26903 0.94668
 H1143 H 0.29009 0.23459 1.06721
 H1144 H 0.31442 0.26189 1.04141
 H1145 H 0.21208 0.18184 0.95932
 H1146 H 0.28846 0.20895 0.93246
 H1147 H 0.23494 0.29048 1.06619
 H1148 H 0.26285 0.31358 1.04208
 H1149 H 0.31418 0.20961 0.98918
 H1150 H 0.29051 0.18364 1.01548
 H1151 H 0.21043 0.31473 0.98939
 H1152 H 0.18312 0.28886 1.01569
 N1153 N 0.27354 0.36773 0.80428
 C1154 C 0.29309 0.35670 0.79355
 N1155 N 0.30426 0.36805 0.77442
 N1156 N 0.29633 0.38975 0.76646
 C1157 C 0.27693 0.40089 0.77734
 N1158 N 0.26561 0.38942 0.79632
 N1159 N 0.30545 -0.13173 0.27468
 C1160 C 0.29467 -0.14280 0.29423
 N1161 N 0.27502 -0.13180 0.30485
 N1162 N 0.26672 -0.11041 0.29649
 C1163 C 0.27770 -0.09921 0.27715
 N1164 N 0.29714 -0.11033 0.26632
 N1165 N 0.77444 0.86825 0.80377
 C1166 C 0.79392 0.85710 0.79305
 N1167 N 0.80517 0.86838 0.77392
 N1168 N 0.79737 0.89012 0.76594
 C1169 C 0.77802 0.90137 0.77682
 N1170 N 0.76664 0.88998 0.79580
 N1171 N 0.47523 0.88268 0.30364
 C1172 C 0.45556 0.89368 0.29304
 N1173 N 0.44442 0.88235 0.27379
 N1174 N 0.45242 0.86073 0.26568
 C1175 C 0.47190 0.84962 0.27650
 N1176 N 0.48322 0.86106 0.29554
 N1177 N -0.05450 0.88230 0.77422
 C1178 C -0.04331 0.89365 0.79340
 N1179 N -0.02376 0.88262 0.80415
 N1180 N -0.01584 0.86092 0.79618
 C1181 C -0.02718 0.84945 0.77715
 N1182 N -0.04658 0.86060 0.76624
 N1183 N -0.02325 -0.13367 -0.05402
 C1184 C -0.04251 -0.14514 -0.04318
 N1185 N -0.05324 -0.13435 -0.02343
 N1186 N -0.04535 -0.11272 -0.01516
 C1187 C -0.02635 -0.10110 -0.02626
 N1188 N -0.01534 -0.11206 -0.04573
 N1189 N -0.02346 0.36597 0.44624
 C1190 C -0.04277 0.35466 0.45715
 N1191 N -0.05353 0.36566 0.47676
 N1192 N -0.04559 0.38736 0.48484
 C1193 C -0.02654 0.39882 0.47367
 N1194 N -0.01552 0.38764 0.45433
 N1195 N 0.44612 -0.13348 0.47673
 C1196 C 0.45695 -0.14457 0.45721
 N1197 N 0.47659 -0.13354 0.44662
 N1198 N 0.48476 -0.11202 0.45489
 C1199 C 0.47366 -0.10075 0.47412
 N1200 N 0.45429 -0.11196 0.48500
 N1201 N 0.44465 0.36767 -0.02379
 C1202 C 0.45545 0.35664 -0.04337
 N1203 N 0.47468 0.36803 -0.05434
 N1204 N 0.48258 0.38973 -0.04627
 C1205 C 0.47159 0.40087 -0.02689
 N1206 N 0.45254 0.38938 -0.01573
 N1207 N 0.77207 0.38392 0.44741
 C1208 C 0.79133 0.39532 0.45835
 N1209 N 0.80252 0.38422 0.47764
 N1210 N 0.79496 0.36235 0.48548
 C1211 C 0.77589 0.35080 0.47433
 N1212 N 0.76449 0.36206 0.45526
 N1213 N 0.80441 0.88414 -0.02315
 C1214 C 0.79354 0.89528 -0.04262
 N1215 N 0.77403 0.88415 -0.05344
 N1216 N 0.76600 0.86251 -0.04541
 C1217 C 0.77712 0.85120 -0.02621
 N1218 N 0.79638 0.86248 -0.01513
 N1219 N 0.77325 0.30369 0.36625
 C1220 C 0.79261 0.29264 0.35520
 N1221 N 0.80321 0.27307 0.36634
 N1222 N 0.79498 0.26506 0.38790
 C1223 C 0.77583 0.27630 0.39912
 N1224 N 0.76503 0.29568 0.38783
 N1225 N 0.77353 0.80452 -0.13413
 C1226 C 0.79300 0.79360 -0.14514
 N1227 N 0.80355 0.77397 -0.13402
 N1228 N 0.79528 0.76590 -0.11250
 C1229 C 0.77609 0.77709 -0.10131
 N1230 N 0.76526 0.79645 -0.11260
 N1231 N 0.30504 0.47510 0.88185
 C1232 C 0.29397 0.45595 0.89327
 N1233 N 0.27435 0.44515 0.88234
 N1234 N 0.26624 0.45307 0.86066
 C1235 C 0.27745 0.47210 0.84914
 N1236 N 0.29693 0.48303 0.86020
 N1237 N 0.30514 -0.02460 0.38121
 C1238 C 0.29425 -0.04391 0.39254
 N1239 N 0.27486 -0.05497 0.38145
 N1240 N 0.26680 -0.04714 0.35973
 C1241 C 0.27783 -0.02796 0.34830
 N1242 N 0.29708 -0.01678 0.35950
 N1243 N -0.05354 -0.02347 -0.13332
 C1244 C -0.04284 -0.04295 -0.14457
 N1245 N -0.02324 -0.05374 -0.13363
 N1246 N -0.01500 -0.04570 -0.11203
 C1247 C -0.02598 -0.02650 -0.10061
 N1248 N -0.04529 -0.01542 -0.11173
 N1249 N -0.02338 0.44549 0.36604
 C1250 C -0.04302 0.45616 0.35505
 N1251 N -0.05377 0.47568 0.36620
 N1252 N -0.04551 0.48388 0.38772
 C1253 C -0.02615 0.47294 0.39889
 N1254 N -0.01513 0.45369 0.38757
 N1255 N 0.47702 -0.05399 0.36639
 C1256 C 0.45759 -0.04307 0.35530
 N1257 N 0.44688 -0.02355 0.36643
 N1258 N 0.45506 -0.01546 0.38802
 C1259 C 0.47428 -0.02657 0.39928
 N1260 N 0.48521 -0.04590 0.38799
 N1261 N 0.44478 0.47520 -0.13201
 C1262 C 0.45541 0.45563 -0.14317
 N1263 N 0.47486 0.44469 -0.13208
 N1264 N 0.48310 0.45278 -0.11051
 C1265 C 0.47224 0.47215 -0.09923
 N1266 N 0.45303 0.48329 -0.11045
 N1267 N 0.44595 0.77467 0.38185
 C1268 C 0.45689 0.79398 0.39321
 N1269 N 0.47626 0.80501 0.38214
 N1270 N 0.48423 0.79718 0.36039
 C1271 C 0.47314 0.77802 0.34893
 N1272 N 0.45392 0.76684 0.36012
 N1273 N -0.05417 0.77479 0.88229
 C1274 C -0.04324 0.79416 0.89359
 N1275 N -0.02396 0.80523 0.88236
 N1276 N -0.01612 0.79741 0.86055
 C1277 C -0.02725 0.77823 0.84915
 N1278 N -0.04634 0.76699 0.86049
 N1279 N 0.36894 0.80592 0.27476
 C1280 C 0.35776 0.79502 0.29415
 N1281 N 0.36881 0.77553 0.30501
 N1282 N 0.39036 0.76739 0.29693
 C1283 C 0.40164 0.77844 0.27769
 N1284 N 0.39049 0.79779 0.26669
 N1285 N -0.13161 0.80423 0.77442
 C1286 C -0.14299 0.79334 0.79369
 N1287 N -0.13196 0.77399 0.80481
 N1288 N -0.11023 0.76598 0.79710
 C1289 C -0.09875 0.77703 0.77797
 N1290 N -0.10990 0.79622 0.76671
 N1291 N 0.88350 0.30276 0.47699
 C1292 C 0.89462 0.29189 0.45754
 N1293 N 0.88342 0.27253 0.44651
 N1294 N 0.86174 0.26456 0.45442
 C1295 C 0.85046 0.27564 0.47367
 N1296 N 0.86182 0.29480 0.48489
 N1297 N 0.88394 0.80290 -0.02342
 C1298 C 0.89494 0.79213 -0.04299
 N1299 N 0.88365 0.77287 -0.05409
 N1300 N 0.86198 0.76492 -0.04614
 C1301 C 0.85082 0.77591 -0.02677
 N1302 N 0.86227 0.79496 -0.01547
 N1303 N -0.13351 -0.05357 -0.02318
 C1304 C -0.14462 -0.04277 -0.04271
 N1305 N -0.13345 -0.02331 -0.05356
 N1306 N -0.11182 -0.01528 -0.04549
 C1307 C -0.10055 -0.02635 -0.02623
 N1308 N -0.11188 -0.04554 -0.01513
 N1309 N -0.13429 0.44810 0.47742
 C1310 C -0.14542 0.45889 0.45793
 N1311 N -0.13401 0.47788 0.44656
 N1312 N -0.11211 0.48556 0.45418
 C1313 C -0.10082 0.47454 0.47346
 N1314 N -0.11238 0.45578 0.48504
 N1315 N 0.36712 -0.02362 0.44536
 C1316 C 0.35599 -0.04305 0.45630
 N1317 N 0.36696 -0.05355 0.47606
 N1318 N 0.38844 -0.04528 0.48426
 C1319 C 0.39975 -0.02614 0.47307
 N1320 N 0.38861 -0.01536 0.45356
 N1321 N 0.36800 0.44493 -0.02460
 C1322 C 0.35689 0.45554 -0.04422
 N1323 N 0.36815 0.47476 -0.05539
 N1324 N 0.38980 0.48285 -0.04744
 C1325 C 0.40102 0.47204 -0.02801
 N1326 N 0.38966 0.45301 -0.01666
 N1327 N 0.38110 0.44589 0.77509
 C1328 C 0.39231 0.45664 0.79459
 N1329 N 0.38126 0.47601 0.80569
 N1330 N 0.35966 0.48416 0.79774
 C1331 C 0.34833 0.47324 0.77839
 N1332 N 0.35951 0.45404 0.76714
 N1333 N 0.38145 -0.05458 0.27374
 C1334 C 0.39291 -0.04363 0.29299
 N1335 N 0.38198 -0.02414 0.30402
 N1336 N 0.36028 -0.01607 0.29624
 C1337 C 0.34872 -0.02716 0.27713
 N1338 N 0.35976 -0.04650 0.26596
 N1339 N 0.11589 0.52244 0.69759
 C1340 C 0.10460 0.54177 0.70846
 N1341 N 0.11572 0.55294 0.72780
 N1342 N 0.13750 0.54527 0.73574
 C1343 C 0.14894 0.52613 0.72466
 N1344 N 0.13766 0.51476 0.70554
 N1345 N 0.11649 0.02268 0.19593
 C1346 C 0.10514 0.04200 0.20682
 N1347 N 0.11604 0.05279 0.22651
 N1348 N 0.13767 0.04490 0.23468
 C1349 C 0.14917 0.02584 0.22353
 N1350 N 0.13809 0.01477 0.20411
 N1351 N 0.63403 0.69755 0.22730
 C1352 C 0.64508 0.70851 0.20787
 N1353 N 0.63382 0.72784 0.19696
 N1354 N 0.61215 0.73570 0.20496
 C1355 C 0.60094 0.72454 0.22418
 N1356 N 0.61234 0.70541 0.23530
 N1357 N 0.13409 0.69750 0.72823
 C1358 C 0.14538 0.70881 0.70913
 N1359 N 0.13410 0.72812 0.69821
 N1360 N 0.11220 0.73565 0.70591
 C1361 C 0.10077 0.72416 0.72480
 N1362 N 0.11219 0.70503 0.73592
 N1363 N 0.61759 0.22671 0.55359
 C1364 C 0.60644 0.20720 0.54281
 N1365 N 0.61773 0.19589 0.52370
 N1366 N 0.63948 0.20366 0.51582
 C1367 C 0.65075 0.22302 0.52676
 N1368 N 0.63935 0.23447 0.54571
 N1369 N 0.61769 0.69665 0.02261
 C1370 C 0.60640 0.70788 0.04176
 N1371 N 0.61765 0.72722 0.05275
 N1372 N 0.63949 0.73492 0.04502
 C1373 C 0.65090 0.72355 0.02601
 N1374 N 0.63953 0.70435 0.01488
 N1375 N 0.13183 0.05448 0.02476
 C1376 C 0.14317 0.04332 0.04395
 N1377 N 0.13218 0.02361 0.05451
 N1378 N 0.11055 0.01561 0.04645
 C1379 C 0.09909 0.02697 0.02747
 N1380 N 0.11020 0.04647 0.01669
 N1381 N 0.13242 0.55400 0.52270
 C1382 C 0.14365 0.54274 0.54187
 N1383 N 0.13229 0.52349 0.55283
 N1384 N 0.11041 0.51591 0.54505
 C1385 C 0.09907 0.52730 0.52602
 N1386 N 0.11053 0.54641 0.51491
 N1387 N 0.63214 0.02504 0.55363
 C1388 C 0.64316 0.04464 0.54294
 N1389 N 0.63180 0.05585 0.52381
 N1390 N 0.61011 0.04788 0.51582
 C1391 C 0.59899 0.02842 0.52667
 N1392 N 0.61046 0.01708 0.54565
 N1393 N 0.63354 0.55363 0.02174
 C1394 C 0.64496 0.54244 0.04084
 N1395 N 0.63396 0.52289 0.05163
 N1396 N 0.61217 0.51503 0.04383
 C1397 C 0.60060 0.52641 0.02494
 N1398 N 0.61176 0.54576 0.01394
 N1399 N 0.05525 0.02328 0.13249
 C1400 C 0.04423 0.04254 0.14385
 N1401 N 0.02482 0.05343 0.13267
 N1402 N 0.01695 0.04560 0.11086
 C1403 C 0.02814 0.02654 0.09940
 N1404 N 0.04736 0.01544 0.11068
 N1405 N 0.02312 0.55319 0.63233
 C1406 C 0.04234 0.54222 0.64372
 N1407 N 0.05362 0.52310 0.63242
 N1408 N 0.04608 0.51537 0.61045
 C1409 C 0.02700 0.52650 0.59897
 N1410 N 0.01559 0.54547 0.61037
 N1411 N 0.52410 0.05412 0.63249
 C1412 C 0.54347 0.04326 0.64376
 N1413 N 0.55454 0.02398 0.63248
 N1414 N 0.54675 0.01610 0.61066
 C1415 C 0.52756 0.02716 0.59929
 N1416 N 0.51631 0.04624 0.61067
 N1417 N 0.55236 0.52191 0.13410
 C1418 C 0.54128 0.54119 0.14533
 N1419 N 0.52212 0.55226 0.13394
 N1420 N 0.51453 0.54456 0.11200
 C1421 C 0.52580 0.52549 0.10062
 N1422 N 0.54476 0.51421 0.11215
 N1423 N 0.22709 0.55215 0.61611
 C1424 C 0.20759 0.54142 0.60493
 N1425 N 0.19630 0.52231 0.61623
 N1426 N 0.20403 0.51445 0.63806
 C1427 C 0.22334 0.52540 0.64938
 N1428 N 0.23482 0.54430 0.63793
 N1429 N 0.19512 0.02243 0.11603
 C1430 C 0.20594 0.04196 0.10496
 N1431 N 0.22564 0.05256 0.11596
 N1432 N 0.23389 0.04428 0.13742
 C1433 C 0.22281 0.02504 0.14869
 N1434 N 0.20338 0.01416 0.13751
 N1435 N 0.69573 0.22687 0.63238
 C1436 C 0.70687 0.20771 0.64372
 N1437 N 0.72600 0.19656 0.63240
 N1438 N 0.73359 0.20414 0.61045
 C1439 C 0.72233 0.22317 0.59901
 N1440 N 0.70333 0.23447 0.61042
 N1441 N 0.72613 0.69644 0.13158
 C1442 C 0.70706 0.70760 0.14299
 N1443 N 0.69597 0.72687 0.13177
 N1444 N 0.70357 0.73456 0.10985
 C1445 C 0.72252 0.72326 0.09835
 N1446 N 0.73373 0.70413 0.10967
 N1447 N 0.55344 0.72835 0.11588
 C1448 C 0.54236 0.70907 0.10460
 N1449 N 0.52297 0.69819 0.11574
 N1450 N 0.51516 0.70606 0.13753
 C1451 C 0.52643 0.72514 0.14896
 N1452 N 0.54562 0.73624 0.13767
 N1453 N 0.02268 0.69727 0.61627
 C1454 C 0.04190 0.70825 0.60493
 N1455 N 0.05288 0.72771 0.61601
 N1456 N 0.04513 0.73567 0.63779
 C1457 C 0.02610 0.72449 0.64928
 N1458 N 0.01492 0.70524 0.63804
 N1459 N 0.52218 0.61635 0.19715
 C1460 C 0.54128 0.60509 0.20847
 N1461 N 0.55223 0.61647 0.22777
 N1462 N 0.54457 0.63843 0.23527
 C1463 C 0.52566 0.64983 0.22376
 N1464 N 0.51452 0.63831 0.20465
 N1465 N 0.05202 0.61617 0.72752
 C1466 C 0.04111 0.60503 0.70806
 N1467 N 0.02193 0.61634 0.69694
 N1468 N 0.01417 0.63815 0.70478
 C1469 C 0.02529 0.64944 0.72403
 N1470 N 0.04427 0.63798 0.73535
 N1471 N 0.02431 0.13149 0.05583
 C1472 C 0.04384 0.14243 0.04490
 N1473 N 0.05462 0.13102 0.02555
 N1474 N 0.04641 0.10938 0.01766
 C1475 C 0.02710 0.09831 0.02878
 N1476 N 0.01611 0.10982 0.04794
 N1477 N 0.02363 0.63212 0.55376
 C1478 C 0.04283 0.64341 0.54266
 N1479 N 0.05400 0.63203 0.52354
 N1480 N 0.04639 0.61007 0.51592
 C1481 C 0.02732 0.59868 0.52714
 N1482 N 0.01601 0.61016 0.54613
 N1483 N 0.55437 0.13215 0.52416
 C1484 C 0.54320 0.14358 0.54324
 N1485 N 0.52382 0.13246 0.55420
 N1486 N 0.51604 0.11059 0.54648
 C1487 C 0.52736 0.09905 0.52753
 N1488 N 0.54660 0.11029 0.51644
 N1489 N 0.52270 0.63412 0.05262
 C1490 C 0.54200 0.64518 0.04145
 N1491 N 0.55279 0.63378 0.02212
 N1492 N 0.54478 0.61198 0.01444
 C1493 C 0.52568 0.60077 0.02580
 N1494 N 0.51470 0.61231 0.04495
 N1495 N 0.69523 0.11851 0.52492
 C1496 C 0.70614 0.10710 0.54420
 N1497 N 0.72574 0.11804 0.55507
 N1498 N 0.73388 0.13971 0.54720
 C1499 C 0.72277 0.15122 0.52811
 N1500 N 0.70337 0.14016 0.51704
 N1501 N 0.72686 0.61801 0.05343
 C1502 C 0.70765 0.60679 0.04218
 N1503 N 0.69662 0.61820 0.02299
 N1504 N 0.70436 0.64012 0.01546
 C1505 C 0.72343 0.65144 0.02684
 N1506 N 0.73461 0.63993 0.04589
 N1507 N 0.22809 0.63426 0.69784
 C1508 C 0.20888 0.64554 0.70893
 N1509 N 0.19777 0.63422 0.72811
 N1510 N 0.20537 0.61229 0.73572
 C1511 C 0.22438 0.60086 0.72445
 N1512 N 0.23570 0.61233 0.70546
 N1513 N 0.19717 0.13327 0.22628
 C1514 C 0.20778 0.14428 0.20662
 N1515 N 0.22700 0.13298 0.19553
 N1516 N 0.23498 0.11131 0.20350
 C1517 C 0.22409 0.10013 0.22290
 N1518 N 0.20514 0.11159 0.23424
 N1519 N 0.69772 1.13427 0.72777
 C1520 C 0.70840 1.14536 0.70821
 N1521 N 0.72750 1.13406 0.69696
 N1522 N 0.73540 1.11231 0.70476
 C1523 C 0.72450 1.10106 0.72411
 N1524 N 0.70562 1.11251 0.73557
 N1525 N 0.72760 0.63374 0.19604
 C1526 C 0.70853 0.64505 0.20733
 N1527 N 0.69792 0.63397 0.22694
 N1528 N 0.70586 0.61223 0.23474
 C1529 C 0.72473 0.60077 0.22325
 N1530 N 0.73554 0.61200 0.20384
 N1531 N 0.55218 0.11629 0.72693
 C1532 C 0.54155 0.10531 0.70722
 N1533 N 0.52246 0.11667 0.69599
 N1534 N 0.51451 0.13836 0.70397
 C1535 C 0.52535 0.14950 0.72349
 N1536 N 0.54424 0.13798 0.73490
 N1537 N 1.02300 0.11559 0.19637
 C1538 C 1.04235 0.10445 0.20738
 N1539 N 1.05314 0.11559 0.22691
 N1540 N 1.04512 0.13724 0.23490
 C1541 C 1.02598 0.14855 0.22369
 N1542 N 1.01497 0.13725 0.20437
 N1543 N 0.22750 0.61625 0.55294
 C1544 C 0.20823 0.60512 0.54172
 N1545 N 0.19743 0.61644 0.52234
 N1546 N 0.20540 0.63823 0.51469
 C1547 C 0.22446 0.64952 0.52611
 N1548 N 0.23546 0.63805 0.54529
 N1549 N 0.22528 0.11710 1.05485
 C1550 C 0.20575 0.10616 1.04389
 N1551 N 0.19469 0.11765 1.02477
 N1552 N 0.20273 0.13938 1.01702
 C1553 C 0.22212 0.15043 1.02810
 N1554 N 0.23332 0.13884 1.04710
 N1555 N 0.19769 0.72845 0.63435
 C1556 C 0.20875 0.70918 0.64559
 N1557 N 0.22792 0.69810 0.63426
 N1558 N 0.23554 0.70578 0.61235
 C1559 C 0.22428 0.72485 0.60096
 N1560 N 0.20531 0.73614 0.61244
 N1561 N 0.19576 0.22514 1.13320
 C1562 C 0.20676 0.20573 1.14430
 N1563 N 0.22605 0.19485 1.13294
 N1564 N 0.23382 0.20284 1.11119
 C1565 C 0.22262 0.22203 1.09997
 N1566 N 0.20352 0.23312 1.11144
 N1567 N 0.69752 0.52253 0.11534
 C1568 C 0.70843 0.54204 0.10436
 N1569 N 0.72761 0.55308 0.11579
 N1570 N 0.73539 0.54513 0.13756
 C1571 C 0.72427 0.52583 0.14870
 N1572 N 0.70529 0.51458 0.13712
 N1573 N 0.69654 1.02369 0.61663
 C1574 C 0.70738 1.04328 0.60572
 N1575 N 0.72680 1.05407 0.61699
 N1576 N 0.73485 1.04581 0.63855
 C1577 C 0.72381 1.02643 0.64962
 N1578 N 0.70459 1.01543 0.63819
 N1579 N 0.55305 0.22783 0.61664
 C1580 C 0.54221 0.20835 0.60548
 N1581 N 0.52283 0.19741 0.61660
 N1582 N 0.51482 0.20541 0.63826
 C1583 C 0.52587 0.22467 0.64959
 N1584 N 0.54504 0.23584 0.63830
 N1585 N 1.05437 0.22533 0.11641
 C1586 C 1.04354 0.20568 0.10549
 N1587 N 1.02394 0.19511 0.11663
 N1588 N 1.01582 0.20354 0.13809
 C1589 C 1.02693 0.22290 0.14920
 N1590 N 1.04625 0.23375 0.13788
 N1591 N 0.63374 0.19748 0.72790
 C1592 C 0.64475 0.20851 0.70848
 N1593 N 0.63337 0.22773 0.69753
 N1594 N 0.61162 0.23544 0.70548
 C1595 C 0.60045 0.22420 0.72469
 N1596 N 0.61198 0.20517 0.73585
 N1597 N 1.13391 0.19566 0.22715
 C1598 C 1.14502 0.20674 0.20782
 N1599 N 1.13383 0.22619 0.19705
 N1600 N 1.11218 0.23406 0.20510
 C1601 C 1.10091 0.22278 0.22423
 N1602 N 1.11225 0.20352 0.23520
 N1603 N 0.11621 0.72754 0.55216
 C1604 C 0.10515 0.70798 0.54136
 N1605 N 0.11647 0.69678 0.52221
 N1606 N 0.13821 0.70464 0.51437
 C1607 C 0.14943 0.72399 0.52539
 N1608 N 0.13795 0.73539 0.54434
 N1609 N 0.11817 0.19360 1.02446
 C1610 C 0.10691 0.20480 1.04365
 N1611 N 0.11799 0.22440 1.05437
 N1612 N 0.13963 0.23235 1.04636
 C1613 C 0.15100 0.22103 1.02732
 N1614 N 0.13982 0.20157 1.01644
 N1615 N 0.61590 0.52231 0.19779
 C1616 C 0.60472 0.54163 0.20883
 N1617 N 0.61614 0.55286 0.22795
 N1618 N 0.63807 0.54525 0.23553
 C1619 C 0.64938 0.52613 0.22428
 N1620 N 0.63782 0.51471 0.20536
 N1621 N 0.61613 1.05316 0.72710
 C1622 C 0.60520 1.04216 0.70756
 N1623 N 0.61659 1.02290 0.69666
 N1624 N 0.63827 1.01514 0.70478
 C1625 C 0.64936 1.02633 0.72412
 N1626 N 0.63783 1.04541 0.73522
 N1627 N 0.88167 0.44484 0.27432
 C1628 C 0.89302 0.45588 0.29359
 N1629 N 0.88199 0.47535 0.30453
 N1630 N 0.86030 0.48334 0.29663
 C1631 C 0.84886 0.47217 0.27749
 N1632 N 0.86000 0.45284 0.26642
 N1633 N 0.88172 0.94582 0.77488
 C1634 C 0.89308 0.95688 0.79412
 N1635 N 0.88199 0.97627 0.80515
 N1636 N 0.86024 0.98417 0.79734
 C1637 C 0.84878 0.97296 0.77823
 N1638 N 0.85998 0.95371 0.76708
 N1639 N 0.36811 0.30466 0.77501
 C1640 C 0.35674 0.29351 0.79414
 N1641 N 0.36782 0.27407 0.80506
 N1642 N 0.38957 0.26619 0.79726
 C1643 C 0.40103 0.27748 0.77825
 N1644 N 0.38985 0.29678 0.76721
 N1645 N 0.86832 0.27354 0.30427
 C1646 C 0.85738 0.29295 0.29314
 N1647 N 0.86883 0.30379 0.27388
 N1648 N 0.89051 0.29566 0.26618
 C1649 C 0.90156 0.27639 0.27744
 N1650 N 0.89001 0.26541 0.29657
 N1651 N 0.38189 0.77464 0.44526
 C1652 C 0.39315 0.79391 0.45637
 N1653 N 0.38199 0.80486 0.47575
 N1654 N 0.36027 0.79697 0.48361
 C1655 C 0.34890 0.77783 0.47237
 N1656 N 0.36017 0.76673 0.45312
 N1657 N 0.38287 0.30330 0.97756
 C1658 C 0.39399 0.29268 0.95797
 N1659 N 0.38300 0.27319 0.94697
 N1660 N 0.36151 0.26486 0.95501
 C1661 C 0.35023 0.27569 0.97441
 N1662 N 0.36138 0.29497 0.98562
 N1663 N 0.77284 0.44636 0.38233
 C1664 C 0.79185 0.45768 0.39379
 N1665 N 0.80292 0.47693 0.38252
 N1666 N 0.79539 0.48444 0.36051
 C1667 C 0.77653 0.47297 0.34895
 N1668 N 0.76531 0.45387 0.36031
 N1669 N 0.80405 0.97656 0.88271
 C1670 C 0.79320 0.95716 0.89393
 N1671 N 0.77396 0.94600 0.88267
 N1672 N 0.76601 0.95379 0.86090
 C1673 C 0.77701 0.97305 0.84957
 N1674 N 0.79610 0.98436 0.86095
 N1675 N 0.30482 0.77534 0.36836
 C1676 C 0.29405 0.79487 0.35731
 N1677 N 0.27464 0.80575 0.36845
 N1678 N 0.26648 0.79756 0.38999
 C1679 C 0.27741 0.77817 0.40115
 N1680 N 0.29666 0.76715 0.38989
 N1681 N 0.27258 0.30330 0.86736
 C1682 C 0.29207 0.29248 0.85630
 N1683 N 0.30292 0.27306 0.86746
 N1684 N 0.29483 0.26499 0.88905
 C1685 C 0.27555 0.27601 0.90027
 N1686 N 0.26448 0.29522 0.88896
 N1687 N 0.44596 0.27426 0.88278
 C1688 C 0.45664 0.29392 0.89379
 N1689 N 0.47573 0.30512 0.88242
 N1690 N 0.48370 0.29710 0.86074
 C1691 C 0.47286 0.27758 0.84962
 N1692 N 0.45392 0.26624 0.86110
 N1693 N 0.94613 0.27382 0.38190
 C1694 C 0.95719 0.29307 0.39324
 N1695 N 0.97643 0.30416 0.38202
 N1696 N 0.98421 0.29641 0.36017
 C1697 C 0.97301 0.27729 0.34873
 N1698 N 0.95390 0.26607 0.36005
 N1699 N 0.47487 0.38174 0.80487
 C1700 C 0.45542 0.39291 0.79409
 N1701 N 0.44439 0.38181 0.77468
 N1702 N 0.45235 0.36019 0.76650
 C1703 C 0.47165 0.34891 0.77744
 N1704 N 0.48283 0.36013 0.79670
 N1705 N 0.97622 0.38161 0.30383
 C1706 C 0.95666 0.39261 0.29307
 N1707 N 0.94555 0.38127 0.27383
 N1708 N 0.95356 0.35962 0.26580
 C1709 C 0.97297 0.34850 0.27672
 N1710 N 0.98422 0.35995 0.29581
 N1711 N 0.27497 0.88198 0.44591
 C1712 C 0.29433 0.89330 0.45676
 N1713 N 0.30533 0.88231 0.47623
 N1714 N 0.29742 0.86067 0.48439
 C1715 C 0.27820 0.84924 0.47338
 N1716 N 0.26706 0.86035 0.45407
 N1717 N 0.30424 0.38272 0.97758
 C1718 C 0.29327 0.39380 0.95815
 N1719 N 0.27355 0.38283 0.94760
 N1720 N 0.26534 0.36138 0.95593
 C1721 C 0.27650 0.35011 0.97514
 N1722 N 0.29603 0.36126 0.98591
 N1723 N 0.77472 0.36790 0.30305
 C1724 C 0.79425 0.35679 0.29237
 N1725 N 0.80549 0.36808 0.27323
 N1726 N 0.79762 0.38978 0.26521
 C1727 C 0.77822 0.40100 0.27604
 N1728 N 0.76686 0.38960 0.29504
   
