data_POSCAR
  _audit_creation_date              2014-09-24
  _audit_creation_method            'ToBaCCo'
  _symmetry_space_group_name_H-M    'P1'
  _symmetry_Int_Tables_number       1
  _symmetry_cell_setting            triclinic
  loop_
  _symmetry_equiv_pos_as_xyz
 x,y,z
_cell_length_a 49.1544
_cell_length_b 47.7482
_cell_length_c 45.3857
_cell_angle_alpha 89.471400
_cell_angle_beta 88.696700
_cell_angle_gamma 91.227200
loop_
  _atom_site_label
  _atom_site_type_symbol
  _atom_site_fract_x
  _atom_site_fract_y
  _atom_site_fract_z
C1 C 0.36091 0.34415 0.30615
 C2 C 0.38430 0.33882 0.28884
 C3 C 0.40327 0.31890 0.29801
 C4 C 0.39871 0.30453 0.32486
 C5 C 0.37573 0.30986 0.34261
 C6 C 0.35668 0.32954 0.33314
 C7 C 0.34139 0.36339 0.29679
 C8 C 0.31757 0.36756 0.31386
 C9 C 0.31397 0.35325 0.34089
 C10 C 0.33323 0.33438 0.35059
 C11 C 0.32907 0.31997 0.37737
 C12 C 0.34801 0.30062 0.38714
 C13 C 0.37135 0.29560 0.36958
 H14 H 0.38736 0.34977 0.26799
 H15 H 0.41325 0.28929 0.33209
 H16 H 0.34428 0.37442 0.27594
 H17 H 0.29604 0.35683 0.35456
 H18 H 0.31094 0.32383 0.39065
 H19 H 0.38591 0.28034 0.37652
 C20 C 0.36289 0.87927 -0.15325
 C21 C 0.38487 0.87734 -0.17340
 C22 C 0.40112 0.85342 -0.17365
 C23 C 0.39597 0.83227 -0.15233
 C24 C 0.37441 0.83416 -0.13194
 C25 C 0.35770 0.85771 -0.13234
 C26 C 0.34507 0.90163 -0.15493
 C27 C 0.32215 0.90309 -0.13584
 C28 C 0.31789 0.88213 -0.11401
 C29 C 0.33517 0.85912 -0.11266
 C30 C 0.32932 0.83663 -0.09321
 C31 C 0.34544 0.81260 -0.09349
 C32 C 0.36843 0.81196 -0.11236
 H33 H 0.38816 0.89377 -0.18976
 H34 H 0.40829 0.81369 -0.15205
 H35 H 0.34882 0.91768 -0.17169
 H36 H 0.30027 0.88256 -0.09929
 H37 H 0.31150 0.83735 -0.07874
 H38 H 0.38121 0.79380 -0.11280
 C39 C 0.87373 0.36394 -0.21258
 C40 C 0.89822 0.35266 -0.22181
 C41 C 0.91067 0.33161 -0.20547
 C42 C 0.89722 0.32105 -0.17970
 C43 C 0.87273 0.33311 -0.16945
 C44 C 0.86110 0.35486 -0.18610
 C45 C 0.86214 0.38466 -0.22970
 C46 C 0.83798 0.39752 -0.22073
 C47 C 0.82586 0.38947 -0.19334
 C48 C 0.83719 0.36799 -0.17615
 C49 C 0.82548 0.35986 -0.14889
 C50 C 0.83702 0.33862 -0.13176
 C51 C 0.86022 0.32481 -0.14242
 H52 H 0.90700 0.35995 -0.24264
 H53 H 0.90637 0.30455 -0.16697
 H54 H 0.87287 0.39120 -0.24973
 H55 H 0.80745 0.39946 -0.18565
 H56 H 0.80766 0.37049 -0.14054
 H57 H 0.86930 0.30881 -0.12895
 C58 C 0.84814 0.85723 0.32540
 C59 C 0.87106 0.85400 0.30676
 C60 C 0.88758 0.83041 0.30948
 C61 C 0.88092 0.81010 0.33127
 C62 C 0.85816 0.81306 0.35008
 C63 C 0.84174 0.83674 0.34718
 C64 C 0.83118 0.88034 0.32220
 C65 C 0.80777 0.88330 0.34039
 C66 C 0.80207 0.86295 0.36252
 C67 C 0.81872 0.83973 0.36585
 C68 C 0.81225 0.81911 0.38719
 C69 C 0.82821 0.79522 0.38998
 C70 C 0.85134 0.79246 0.37145
 H71 H 0.87563 0.86968 0.28990
 H72 H 0.89342 0.79180 0.33353
 H73 H 0.83606 0.89577 0.30510
 H74 H 0.78443 0.86458 0.37702
 H75 H 0.79436 0.82142 0.40131
 H76 H 0.86406 0.77435 0.37347
 C77 C 0.64026 0.62815 0.32641
 C78 C 0.61968 0.63407 0.30630
 C79 C 0.60409 0.65845 0.30928
 C80 C 0.60921 0.67665 0.33271
 C81 C 0.62978 0.67122 0.35266
 C82 C 0.64526 0.64687 0.34967
 C83 C 0.65617 0.60407 0.32354
 C84 C 0.67661 0.59838 0.34388
 C85 C 0.68136 0.61728 0.36686
 C86 C 0.66603 0.64150 0.36975
 C87 C 0.67160 0.66077 0.39208
 C88 C 0.65674 0.68545 0.39467
 C89 C 0.63547 0.69023 0.37516
 H90 H 0.61592 0.61970 0.28849
 H91 H 0.59753 0.69554 0.33509
 H92 H 0.65255 0.58967 0.30565
 H93 H 0.69751 0.61360 0.38217
 H94 H 0.68795 0.65678 0.40710
 H95 H 0.62354 0.70892 0.37692
 C96 C 0.64282 0.15524 -0.18294
 C97 C 0.61759 0.15770 -0.19632
 C98 C 0.60188 0.18164 -0.19195
 C99 C 0.61184 0.20351 -0.17457
 C100 C 0.63688 0.20120 -0.16065
 C101 C 0.65235 0.17688 -0.16468
 C102 C 0.65853 0.13138 -0.18743
 C103 C 0.68342 0.12828 -0.17314
 C104 C 0.69250 0.14993 -0.15446
 C105 C 0.67727 0.17419 -0.15039
 C106 C 0.68657 0.19577 -0.13213
 C107 C 0.67134 0.22011 -0.12800
 C108 C 0.64650 0.22266 -0.14249
 H109 H 0.61035 0.14105 -0.21040
 H110 H 0.59981 0.22207 -0.17139
 H111 H 0.65104 0.11498 -0.20170
 H112 H 0.71166 0.14850 -0.14338
 H113 H 0.70572 0.19357 -0.12104
 H114 H 0.63430 0.24103 -0.13936
 C115 C 0.12676 0.64653 -0.18824
 C116 C 0.10267 0.65542 -0.20075
 C117 C 0.09212 0.68183 -0.19439
 C118 C 0.10639 0.69953 -0.17524
 C119 C 0.13076 0.69072 -0.16248
 C120 C 0.14114 0.66415 -0.16924
 C121 C 0.13653 0.62013 -0.19485
 C122 C 0.16121 0.61071 -0.18359
 C123 C 0.17618 0.62877 -0.16515
 C124 C 0.16585 0.65520 -0.15717
 C125 C 0.17954 0.67285 -0.13734
 C126 C 0.16912 0.69928 -0.13013
 C127 C 0.14481 0.70798 -0.14298
 H128 H 0.09246 0.64168 -0.21598
 H129 H 0.09844 0.71996 -0.17011
 H130 H 0.12512 0.60750 -0.21015
 H131 H 0.19525 0.62195 -0.15627
 H132 H 0.19834 0.66617 -0.12770
 H133 H 0.13638 0.72806 -0.13736
 C134 C 0.15113 0.15764 0.31287
 C135 C 0.12823 0.17485 0.31206
 C136 C 0.12223 0.19304 0.33539
 C137 C 0.14034 0.19446 0.35909
 C138 C 0.16349 0.17786 0.35976
 C139 C 0.16875 0.15896 0.33684
 C140 C 0.15651 0.13912 0.28994
 C141 C 0.17923 0.12144 0.29028
 C142 C 0.19648 0.12255 0.31475
 C143 C 0.19166 0.14156 0.33785
 C144 C 0.20949 0.14391 0.36171
 C145 C 0.20471 0.16357 0.38421
 C146 C 0.18153 0.18015 0.38305
 H147 H 0.11476 0.17355 0.29351
 H148 H 0.13704 0.20886 0.37699
 H149 H 0.14224 0.13833 0.27220
 H150 H 0.21405 0.10924 0.31547
 H151 H 0.22733 0.13101 0.36229
 H152 H 0.17749 0.19504 0.40043
 C153 C 0.64507 0.35458 0.66872
 C154 C 0.62513 0.33328 0.67291
 C155 C 0.62258 0.31129 0.65256
 C156 C 0.64035 0.31080 0.62789
 C157 C 0.66026 0.33191 0.62336
 C158 C 0.66251 0.35400 0.64366
 C159 C 0.64822 0.37613 0.68941
 C160 C 0.66869 0.39708 0.68531
 C161 C 0.68537 0.39664 0.65978
 C162 C 0.68256 0.37525 0.63911
 C163 C 0.70017 0.37428 0.61444
 C164 C 0.69838 0.35196 0.59457
 C165 C 0.67831 0.33096 0.59908
 H166 H 0.61167 0.33376 0.69214
 H167 H 0.63880 0.29412 0.61201
 H168 H 0.63496 0.37624 0.70876
 H169 H 0.70118 0.41260 0.65634
 H170 H 0.71599 0.39026 0.61151
 H171 H 0.67696 0.31368 0.58381
 C172 C 0.65490 0.85787 1.19063
 C173 C 0.63300 0.85300 1.21070
 C174 C 0.61237 0.83272 1.20490
 C175 C 0.61377 0.81811 1.17811
 C176 C 0.63543 0.82281 1.15790
 C177 C 0.65621 0.84247 1.16429
 C178 C 0.67580 0.87753 1.19662
 C179 C 0.69812 0.88148 1.17688
 C180 C 0.69912 0.86593 1.15077
 C181 C 0.67845 0.84652 1.14439
 C182 C 0.67986 0.83093 1.11841
 C183 C 0.65909 0.81167 1.11176
 C184 C 0.63687 0.80772 1.13157
 H185 H 0.63253 0.86480 1.23091
 H186 H 0.59815 0.80263 1.17301
 H187 H 0.67497 0.88938 1.21687
 H188 H 0.71586 0.86906 1.13509
 H189 H 0.69705 0.83392 1.10321
 H190 H 0.62103 0.79238 1.12691
 C191 C 0.14688 0.37787 1.17591
 C192 C 0.12736 0.37360 1.19869
 C193 C 0.10954 0.35007 1.19870
 C194 C 0.11106 0.33142 1.17480
 C195 C 0.13035 0.33558 1.15183
 C196 C 0.14844 0.35881 1.15244
 C197 C 0.16572 0.40023 1.17696
 C198 C 0.18644 0.40356 1.15524
 C199 C 0.18742 0.38492 1.13150
 C200 C 0.16868 0.36247 1.13009
 C201 C 0.17077 0.34284 1.10743
 C202 C 0.15300 0.31948 1.10679
 C203 C 0.13256 0.31619 1.12890
 H204 H 0.12681 0.38829 1.21669
 H205 H 0.09755 0.31319 1.17423
 H206 H 0.16484 0.41447 1.19541
 H207 H 0.20328 0.38707 1.11467
 H208 H 0.18669 0.34538 1.09064
 H209 H 0.11905 0.29800 1.12912
 C210 C 0.13715 0.86539 0.68733
 C211 C 0.11232 0.85036 0.68897
 C212 C 0.10462 0.83204 0.66630
 C213 C 0.12247 0.82893 0.64176
 C214 C 0.14761 0.84342 0.64010
 C215 C 0.15491 0.86178 0.66290
 C216 C 0.14451 0.88394 0.70979
 C217 C 0.16948 0.89896 0.70813
 C218 C 0.18720 0.89480 0.68395
 C219 C 0.18009 0.87641 0.66138
 C220 C 0.19791 0.87241 0.63737
 C221 C 0.19103 0.85390 0.61463
 C222 C 0.16572 0.83959 0.61613
 H223 H 0.09891 0.85315 0.70797
 H224 H 0.11737 0.81484 0.62411
 H225 H 0.13073 0.88654 0.72845
 H226 H 0.20653 0.90617 0.68249
 H227 H 0.21731 0.88354 0.63689
 H228 H 0.16020 0.82528 0.59873
 C229 C 0.33965 0.66910 0.67345
 C230 C 0.36078 0.68839 0.67929
 C231 C 0.36455 0.71282 0.66203
 C232 C 0.34652 0.71806 0.63916
 C233 C 0.32524 0.69905 0.63327
 C234 C 0.32171 0.67442 0.65041
 C235 C 0.33656 0.64432 0.68997
 C236 C 0.31590 0.62447 0.68382
 C237 C 0.29748 0.63025 0.66138
 C238 C 0.30041 0.65509 0.64439
 C239 C 0.28274 0.66081 0.62120
 C240 C 0.28627 0.68550 0.60402
 C241 C 0.30759 0.70434 0.61030
 H242 H 0.37466 0.68408 0.69691
 H243 H 0.34886 0.73696 0.62591
 H244 H 0.35044 0.64049 0.70770
 H245 H 0.28147 0.61510 0.65663
 H246 H 0.26654 0.64593 0.61652
 H247 H 0.31047 0.72337 0.59728
 C248 C 0.38102 0.13742 1.15334
 C249 C 0.40861 0.14458 1.15628
 C250 C 0.41739 0.17285 1.15558
 C251 C 0.39841 0.19377 1.15014
 C252 C 0.37127 0.18653 1.14417
 C253 C 0.36238 0.15832 1.14652
 C254 C 0.37167 0.10988 1.15844
 C255 C 0.34363 0.10295 1.15767
 C256 C 0.32557 0.12343 1.14793
 C257 C 0.33482 0.15101 1.14221
 C258 C 0.31695 0.17152 1.13263
 C259 C 0.32609 0.19937 1.12853
 C260 C 0.35299 0.20694 1.13546
 H261 H 0.42274 0.12827 1.16157
 H262 H 0.40502 0.21559 1.14931
 H263 H 0.38635 0.09441 1.16441
 H264 H 0.30409 0.11832 1.14599
 H265 H 0.29604 0.16578 1.12797
 H266 H 0.36025 0.22837 1.13242
 C267 C 0.85470 0.64654 1.19113
 C268 C 0.87793 0.66386 1.19136
 C269 C 0.88099 0.68666 1.17179
 C270 C 0.86017 0.69224 1.15173
 C271 C 0.83640 0.67520 1.15146
 C272 C 0.83382 0.65228 1.17126
 C273 C 0.85210 0.62349 1.21050
 C274 C 0.82872 0.60600 1.21029
 C275 C 0.80794 0.61213 1.19059
 C276 C 0.81034 0.63498 1.17124
 C277 C 0.78945 0.64050 1.15182
 C278 C 0.79142 0.66325 1.13204
 C279 C 0.81513 0.68055 1.13189
 H280 H 0.89389 0.65939 1.20672
 H281 H 0.86220 0.70998 1.13674
 H282 H 0.86837 0.61938 1.22551
 H283 H 0.78967 0.59901 1.19009
 H284 H 0.77178 0.62664 1.15217
 H285 H 0.81700 0.69812 1.11664
 C286 C 0.84424 0.13919 0.70311
 C287 C 0.86605 0.14031 0.72260
 C288 C 0.88421 0.16344 0.72197
 C289 C 0.88000 0.18575 0.70240
 C290 C 0.85818 0.18513 0.68325
 C291 C 0.84038 0.16168 0.68324
 C292 C 0.82653 0.11579 0.70277
 C293 C 0.80547 0.11432 0.68244
 C294 C 0.80169 0.13690 0.66284
 C295 C 0.81893 0.16063 0.66316
 C296 C 0.81520 0.18325 0.64365
 C297 C 0.83269 0.20696 0.64401
 C298 C 0.85424 0.20754 0.66384
 H299 H 0.86932 0.12293 0.73753
 H300 H 0.89382 0.20377 0.70205
 H301 H 0.82943 0.09847 0.71791
 H302 H 0.78509 0.13627 0.64755
 H303 H 0.79869 0.18243 0.62822
 H304 H 0.86845 0.22515 0.66395
 C305 C 0.37038 0.36738 0.67440
 C306 C 0.36421 0.38703 0.69604
 C307 C 0.33826 0.39877 0.69810
 C308 C 0.31841 0.39071 0.67763
 C309 C 0.32430 0.37086 0.65567
 C310 C 0.35046 0.35925 0.65411
 C311 C 0.39616 0.35542 0.67308
 C312 C 0.40246 0.33573 0.65144
 C313 C 0.38271 0.32785 0.63105
 C314 C 0.35670 0.33924 0.63245
 C315 C 0.33676 0.33051 0.61281
 C316 C 0.31066 0.34176 0.61399
 C317 C 0.30454 0.36213 0.63543
 H318 H 0.37992 0.39320 0.71112
 H319 H 0.29834 0.39964 0.67900
 H320 H 0.41134 0.36127 0.68901
 H321 H 0.38719 0.31206 0.61475
 H322 H 0.34169 0.31502 0.59631
 H323 H 0.28439 0.37084 0.63673
 C324 C 0.34261 0.84781 0.18584
 C325 C 0.32773 0.87274 0.18562
 C326 C 0.30649 0.87609 0.16579
 C327 C 0.29929 0.85387 0.14727
 C328 C 0.31375 0.82903 0.14733
 C329 C 0.33569 0.82595 0.16640
 C330 C 0.36470 0.84466 0.20455
 C331 C 0.38015 0.82012 0.20393
 C332 C 0.37315 0.79859 0.18432
 C333 C 0.35092 0.80121 0.16565
 C334 C 0.34382 0.77971 0.14597
 C335 C 0.32176 0.78281 0.12692
 C336 C 0.30691 0.80755 0.12793
 H337 H 0.33333 0.88988 0.19993
 H338 H 0.28254 0.85608 0.13235
 H339 H 0.37013 0.86161 0.21912
 H340 H 0.38492 0.77964 0.18376
 H341 H 0.35571 0.76091 0.14527
 H342 H 0.28999 0.81027 0.11332
 C343 C 0.85743 0.35889 0.18365
 C344 C 0.84022 0.38135 0.19019
 C345 C 0.81697 0.38590 0.17345
 C346 C 0.81061 0.36726 0.15069
 C347 C 0.82735 0.34467 0.14421
 C348 C 0.85087 0.34040 0.16067
 C349 C 0.88141 0.35498 0.19919
 C350 C 0.89889 0.33282 0.19218
 C351 C 0.89174 0.31402 0.16995
 C352 C 0.86799 0.31784 0.15388
 C353 C 0.86144 0.29987 0.13065
 C354 C 0.83807 0.30426 0.11396
 C355 C 0.82110 0.32661 0.12109
 H356 H 0.84530 0.39572 0.20767
 H357 H 0.79250 0.37023 0.13796
 H358 H 0.88644 0.36925 0.21676
 H359 H 0.90512 0.29696 0.16455
 H360 H 0.87487 0.28288 0.12538
 H361 H 0.80306 0.33019 0.10840
 C362 C 0.83159 0.87120 0.68366
 C363 C 0.81137 0.89145 0.68738
 C364 C 0.78724 0.89009 0.67111
 C365 C 0.78358 0.86813 0.65105
 C366 C 0.80337 0.84775 0.64724
 C367 C 0.82739 0.84919 0.66357
 C368 C 0.85577 0.87230 0.69982
 C369 C 0.87557 0.85153 0.69612
 C370 C 0.87093 0.82981 0.67608
 C371 C 0.84711 0.82841 0.65993
 C372 C 0.84267 0.80631 0.64034
 C373 C 0.81874 0.80475 0.62414
 C374 C 0.79930 0.82570 0.62753
 H375 H 0.81440 0.90827 0.70293
 H376 H 0.76507 0.86639 0.63869
 H377 H 0.85891 0.88902 0.71541
 H378 H 0.88591 0.81368 0.67308
 H379 H 0.85799 0.79052 0.63762
 H380 H 0.78073 0.82461 0.61511
 C381 C 0.60951 0.63422 0.68712
 C382 C 0.62505 0.61627 0.70388
 C383 C 0.65328 0.61536 0.69948
 C384 C 0.66596 0.63122 0.67654
 C385 C 0.65057 0.64967 0.65950
 C386 C 0.62225 0.65141 0.66524
 C387 C 0.58177 0.63682 0.69369
 C388 C 0.56677 0.65750 0.67975
 C389 C 0.57922 0.67437 0.65767
 C390 C 0.60684 0.67136 0.65024
 C391 C 0.61962 0.68933 0.62955
 C392 C 0.64774 0.68801 0.62374
 C393 C 0.66308 0.66772 0.63825
 H394 H 0.61528 0.60367 0.72126
 H395 H 0.68783 0.63042 0.67317
 H396 H 0.57247 0.62439 0.71148
 H397 H 0.56769 0.69071 0.64727
 H398 H 0.60769 0.70480 0.61831
 H399 H 0.68486 0.66699 0.63409
 C400 C 0.66907 0.13052 0.17181
 C401 C 0.68815 0.11000 0.17772
 C402 C 0.71152 0.10726 0.15969
 C403 C 0.71542 0.12516 0.13500
 C404 C 0.69639 0.14581 0.12866
 C405 C 0.67318 0.14857 0.14728
 C406 C 0.64612 0.13345 0.19037
 C407 C 0.62720 0.15445 0.18502
 C408 C 0.63147 0.17250 0.16059
 C409 C 0.65421 0.16952 0.14155
 C410 C 0.65832 0.18727 0.11699
 C411 C 0.68119 0.18450 0.09793
 C412 C 0.70027 0.16386 0.10416
 H413 H 0.68495 0.09635 0.19677
 H414 H 0.73317 0.12322 0.12070
 H415 H 0.64340 0.11970 0.20937
 H416 H 0.61697 0.18874 0.15627
 H417 H 0.64378 0.20352 0.11313
 H418 H 0.71803 0.16174 0.08982
 C419 C 0.14902 0.63474 0.19312
 C420 C 0.17002 0.61728 0.20261
 C421 C 0.19416 0.61485 0.18553
 C422 C 0.19665 0.62912 0.15833
 C423 C 0.17598 0.64631 0.14850
 C424 C 0.15218 0.64931 0.16595
 C425 C 0.12530 0.63864 0.21055
 C426 C 0.10509 0.65716 0.20119
 C427 C 0.10851 0.67114 0.17405
 C428 C 0.13176 0.66736 0.15641
 C429 C 0.13518 0.68214 0.12974
 C430 C 0.15909 0.67962 0.11251
 C431 C 0.17919 0.66127 0.12185
 H432 H 0.16797 0.60631 0.22359
 H433 H 0.21482 0.62695 0.14466
 H434 H 0.12302 0.62796 0.23164
 H435 H 0.09305 0.68531 0.16670
 H436 H 0.11933 0.69598 0.12287
 H437 H 0.19780 0.65926 0.10881
 C438 C 0.15763 0.11969 0.68189
 C439 C 0.17681 0.09913 0.68705
 C440 C 0.19972 0.09664 0.66837
 C441 C 0.20322 0.11483 0.64398
 C442 C 0.18418 0.13569 0.63863
 C443 C 0.16125 0.13812 0.65764
 C444 C 0.13534 0.12256 0.70126
 C445 C 0.11672 0.14406 0.69714
 C446 C 0.12008 0.16208 0.67253
 C447 C 0.14229 0.15933 0.65282
 C448 C 0.14634 0.17801 0.62897
 C449 C 0.16934 0.17593 0.61011
 C450 C 0.18806 0.15464 0.61507
 H451 H 0.17402 0.08518 0.70592
 H452 H 0.22106 0.11336 0.62968
 H453 H 0.13299 0.10829 0.71983
 H454 H 0.10585 0.17878 0.66916
 H455 H 0.13201 0.19459 0.62572
 H456 H 0.20584 0.15293 0.60067
 C457 C 0.35133 0.62718 0.33396
 C458 C 0.34185 0.59920 0.33374
 C459 C 0.31860 0.59090 0.35039
 C460 C 0.30542 0.61052 0.36812
 C461 C 0.31408 0.63858 0.36773
 C462 C 0.33713 0.64715 0.35066
 C463 C 0.37365 0.63579 0.31622
 C464 C 0.38193 0.66415 0.31450
 C465 C 0.36783 0.68406 0.33137
 C466 C 0.34503 0.67583 0.34909
 C467 C 0.32884 0.69573 0.36373
 C468 C 0.30508 0.68697 0.37945
 C469 C 0.29850 0.65846 0.38220
 H470 H 0.35184 0.58413 0.31966
 H471 H 0.28694 0.60456 0.38030
 H472 H 0.38438 0.62036 0.30331
 H473 H 0.37379 0.70601 0.32959
 H474 H 0.33379 0.71790 0.36157
 H475 H 0.28016 0.65190 0.39438
 C476 C 0.36590 0.16605 0.81767
 C477 C 0.36187 0.14072 0.80284
 C478 C 0.34475 0.11953 0.81510
 C479 C 0.33185 0.12375 0.84257
 C480 C 0.33614 0.14879 0.85791
 C481 C 0.35289 0.17022 0.84525
 C482 C 0.38300 0.18714 0.80544
 C483 C 0.38730 0.21245 0.82030
 C484 C 0.37391 0.21668 0.84766
 C485 C 0.35686 0.19569 0.86030
 C486 C 0.34429 0.19943 0.88809
 C487 C 0.32857 0.17769 0.90127
 C488 C 0.32429 0.15258 0.88591
 H489 H 0.37168 0.13776 0.78152
 H490 H 0.31880 0.10734 0.85220
 H491 H 0.39321 0.18372 0.78439
 H492 H 0.37724 0.23587 0.85965
 H493 H 0.34753 0.21879 0.89994
 H494 H 0.31170 0.13595 0.89580
 C495 C 0.86237 0.66056 0.82039
 C496 C 0.85649 0.64109 0.79820
 C497 C 0.83608 0.62014 0.80278
 C498 C 0.82217 0.61851 0.83015
 C499 C 0.82775 0.63781 0.85239
 C500 C 0.84774 0.65903 0.84747
 C501 C 0.88229 0.68183 0.81583
 C502 C 0.88765 0.70161 0.83793
 C503 C 0.87256 0.70011 0.86459
 C504 C 0.85273 0.67905 0.86949
 C505 C 0.83743 0.67805 0.89592
 C506 C 0.81752 0.65701 0.90089
 C507 C 0.81298 0.63674 0.87916
 H508 H 0.86761 0.64261 0.77739
 H509 H 0.80646 0.60253 0.83398
 H510 H 0.89364 0.68297 0.79508
 H511 H 0.87590 0.71543 0.88161
 H512 H 0.84085 0.69377 0.91260
 H513 H 0.79716 0.62081 0.88248
 C514 C 0.86165 0.13516 0.33118
 C515 C 0.84126 0.11591 0.32291
 C516 C 0.81944 0.10893 0.34236
 C517 C 0.81843 0.12096 0.37054
 C518 C 0.83877 0.13989 0.37926
 C519 C 0.86053 0.14695 0.35956
 C520 C 0.88270 0.14346 0.31130
 C521 C 0.90254 0.16352 0.31946
 C522 C 0.90162 0.17448 0.34800
 C523 C 0.88086 0.16631 0.36805
 C524 C 0.87964 0.17801 0.39616
 C525 C 0.85782 0.17140 0.41563
 C526 C 0.83737 0.15246 0.40708
 H527 H 0.84198 0.10690 0.30108
 H528 H 0.80190 0.11553 0.38585
 H529 H 0.88303 0.13491 0.28930
 H530 H 0.91692 0.18976 0.35453
 H531 H 0.89502 0.19333 0.40233
 H532 H 0.82033 0.14770 0.42202
 C533 C 0.64405 0.33044 0.32934
 C534 C 0.64554 0.35577 0.31348
 C535 C 0.66903 0.37288 0.31428
 C536 C 0.69090 0.36454 0.33145
 C537 C 0.68962 0.33928 0.34733
 C538 C 0.66606 0.32210 0.34651
 C539 C 0.62112 0.31298 0.32745
 C540 C 0.61962 0.28721 0.34241
 C541 C 0.64125 0.27911 0.36032
 C542 C 0.66474 0.29640 0.36230
 C543 C 0.68731 0.28820 0.37880
 C544 C 0.71117 0.30509 0.37879
 C545 C 0.71190 0.33070 0.36336
 H546 H 0.62855 0.36175 0.30022
 H547 H 0.70925 0.37752 0.33210
 H548 H 0.60445 0.31932 0.31381
 H549 H 0.64030 0.25904 0.37167
 H550 H 0.68672 0.26841 0.39071
 H551 H 0.73000 0.34407 0.36376
 C552 C 0.62640 0.83909 0.82276
 C553 C 0.62916 0.86659 0.81182
 C554 C 0.65208 0.88338 0.81845
 C555 C 0.67270 0.87212 0.83548
 C556 C 0.67001 0.84476 0.84697
 C557 C 0.64671 0.82825 0.84081
 C558 C 0.60344 0.82243 0.81636
 C559 C 0.60014 0.79534 0.82842
 C560 C 0.62032 0.78479 0.84675
 C561 C 0.64358 0.80103 0.85298
 C562 C 0.66362 0.79061 0.87144
 C563 C 0.68691 0.80689 0.87755
 C564 C 0.68999 0.83391 0.86510
 H565 H 0.61344 0.87488 0.79807
 H566 H 0.69043 0.88496 0.84050
 H567 H 0.58783 0.83078 0.80247
 H568 H 0.61815 0.76384 0.85597
 H569 H 0.66113 0.76981 0.88105
 H570 H 0.70750 0.84697 0.87018
 C571 C 0.16355 0.34301 0.80857
 C572 C 0.17714 0.36923 0.80850
 C573 C 0.19598 0.37577 0.83040
 C574 C 0.20191 0.35536 0.85187
 C575 C 0.18878 0.32899 0.85208
 C576 C 0.16946 0.32290 0.83047
 C577 C 0.14353 0.33677 0.78776
 C578 C 0.12931 0.31086 0.78908
 C579 C 0.13580 0.29101 0.81052
 C580 C 0.15565 0.29678 0.83110
 C581 C 0.16121 0.27687 0.85275
 C582 C 0.18037 0.28261 0.87441
 C583 C 0.19418 0.30880 0.87390
 H584 H 0.17245 0.38486 0.79201
 H585 H 0.21678 0.35992 0.86850
 H586 H 0.13844 0.35229 0.77134
 H587 H 0.12507 0.27091 0.81142
 H588 H 0.15004 0.25712 0.85286
 H589 H 0.20891 0.31358 0.89064
 C590 C 0.12668 0.86203 0.30289
 C591 C 0.12997 0.88281 0.28087
 C592 C 0.15228 0.90180 0.28112
 C593 C 0.17116 0.89988 0.30385
 C594 C 0.16822 0.87924 0.32588
 C595 C 0.14585 0.86029 0.32550
 C596 C 0.10477 0.84267 0.30245
 C597 C 0.10158 0.82180 0.32442
 C598 C 0.12072 0.82037 0.34694
 C599 C 0.14288 0.83935 0.34751
 C600 C 0.16244 0.83733 0.36942
 C601 C 0.18513 0.85579 0.36963
 C602 C 0.18767 0.87695 0.34792
 H603 H 0.11529 0.88387 0.26350
 H604 H 0.18850 0.91427 0.30422
 H605 H 0.09014 0.84387 0.28498
 H606 H 0.11884 0.80410 0.36367
 H607 H 0.16022 0.82093 0.38604
 H608 H 0.20484 0.89151 0.34783
 O609 O 0.23134 1.03264 0.24588
 O610 O 0.26389 0.96924 0.21349
 O611 O 0.27849 1.02087 0.21940
 O612 O 0.21867 0.97880 0.24189
 O613 O 0.19994 0.98672 0.19891
 O614 O 0.25957 1.03187 0.17725
 O615 O 0.24570 0.98011 0.17093
 O616 O 0.21236 1.03995 0.20299
 Cu617 Cu 0.24984 0.99979 0.23469
 Cu618 Cu 0.22739 1.01079 0.18343
 C619 C 0.21587 1.04681 0.22952
 C620 C 0.26041 0.96441 0.18624
 C621 C 0.27967 1.03283 0.19437
 C622 C 0.19957 0.97473 0.22407
 O623 O 0.24193 0.53637 0.79995
 O624 O 0.29477 0.48575 0.77734
 O625 O 0.28803 0.53885 0.76869
 O626 O 0.25248 0.48430 0.81226
 O627 O 0.23077 0.46935 0.77312
 O628 O 0.26353 0.52862 0.72995
 O629 O 0.27113 0.47401 0.73830
 O630 O 0.21737 0.51997 0.76355
 Cu631 Cu 0.27164 0.51283 0.79333
 Cu632 Cu 0.24353 0.49799 0.74698
 C633 C 0.21986 0.53551 0.78588
 C634 C 0.29178 0.47124 0.75413
 C635 C 0.28247 0.54278 0.74191
 C636 C 0.23649 0.46685 0.80027
 O637 O 0.74531 -0.02716 0.29021
 O638 O 0.73417 0.02472 0.23122
 O639 O 0.72966 -0.03000 0.23624
 O640 O 0.74626 0.02710 0.28670
 O641 O 0.78970 0.02551 0.27335
 O642 O 0.77294 -0.03181 0.22230
 O643 O 0.77752 0.02263 0.21767
 O644 O 0.78856 -0.02934 0.27615
 Cu645 Cu 0.73450 -0.00104 0.26238
 Cu646 Cu 0.78653 -0.00333 0.24596
 C647 C 0.76883 -0.03736 0.29286
 C648 C 0.75404 0.03256 0.21449
 C649 C 0.74851 -0.04096 0.22105
 C650 C 0.77064 0.03594 0.28883
 O651 O 0.77033 0.48074 0.76950
 O652 O 0.72051 0.53694 0.76446
 O653 O 0.71838 0.48254 0.76042
 O654 O 0.77235 0.53558 0.77381
 O655 O 0.78026 0.53979 0.72584
 O656 O 0.72708 0.48598 0.71252
 O657 O 0.72827 0.54064 0.71642
 O658 O 0.77867 0.48564 0.72166
 Cu659 Cu 0.74459 0.50861 0.77190
 Cu660 Cu 0.75437 0.51344 0.71429
 C661 C 0.78291 0.47362 0.74612
 C662 C 0.71592 0.54827 0.73970
 C663 C 0.71387 0.47494 0.73419
 C664 C 0.78531 0.54688 0.75210
 O665 O 0.24642 0.45807 0.27731
 O666 O 0.22900 0.52618 0.24509
 O667 O 0.22654 0.47426 0.22840
 O668 O 0.25161 0.50939 0.29417
 O669 O 0.29256 0.51362 0.27325
 O670 O 0.26771 0.47717 0.20780
 O671 O 0.27014 0.52918 0.22453
 O672 O 0.28798 0.46113 0.25781
 Cu673 Cu 0.23426 0.49183 0.26335
 Cu674 Cu 0.28375 0.49569 0.23878
 C675 C 0.26983 0.44790 0.27310
 C676 C 0.24659 0.53913 0.22892
 C677 C 0.24290 0.46936 0.20715
 C678 C 0.27638 0.51741 0.29491
 O679 O 0.72241 1.03257 0.71125
 O680 O 0.67932 0.98685 0.75691
 O681 O 0.69890 1.03823 0.76264
 O682 O 0.71357 0.97923 0.71201
 O683 O 0.75042 0.97020 0.73713
 O684 O 0.73379 1.02520 0.78890
 O685 O 0.71457 0.97221 0.78151
 O686 O 0.75823 1.02344 0.73799
 Cu687 Cu 0.69998 1.01006 0.73345
 Cu688 Cu 0.74202 0.99642 0.76446
 C689 C 0.74737 1.03610 0.71645
 C690 C 0.68919 0.97102 0.77617
 C691 C 0.71460 1.04183 0.78436
 C692 C 0.73518 0.96530 0.71564
 O693 O 0.74492 0.50422 0.30661
 O694 O 0.77554 0.45831 0.25010
 O695 O 0.78860 0.50664 0.27303
 O696 O 0.73358 0.45487 0.28603
 O697 O 0.70817 0.47509 0.25272
 O698 O 0.76349 0.52668 0.23934
 O699 O 0.75017 0.47858 0.21685
 O700 O 0.72008 0.52439 0.27279
 Cu701 Cu 0.76313 0.47895 0.28238
 Cu702 Cu 0.73308 0.50322 0.24192
 C703 C 0.72735 0.52207 0.29929
 C704 C 0.76777 0.46071 0.22369
 C705 C 0.78522 0.52562 0.25388
 C706 C 0.71168 0.45611 0.27192
 O707 O 0.24667 -0.03475 0.74788
 O708 O 0.30269 0.01547 0.76246
 O709 O 0.28516 -0.03125 0.78691
 O710 O 0.26623 0.01053 0.72273
 O711 O 0.23831 0.03439 0.75140
 O712 O 0.25716 -0.00786 0.81590
 O713 O 0.27509 0.03913 0.79165
 O714 O 0.21925 -0.01094 0.77714
 Cu715 Cu 0.27800 -0.01259 0.75229
 Cu716 Cu 0.24473 0.01615 0.78695
 C717 C 0.22336 -0.03120 0.75982
 C718 C 0.29824 0.03604 0.77932
 C719 C 0.27452 -0.02687 0.81212
 C720 C 0.24901 0.02966 0.72621
 O721 O 0.22988 0.26227 0.97185
 O722 O 0.26897 0.25757 1.03887
 O723 O 0.27502 0.23833 0.98465
 O724 O 0.22023 0.27404 1.02711
 O725 O 0.20049 0.23269 1.03578
 O726 O 0.25589 0.19769 0.99784
 O727 O 0.24925 0.21679 1.05044
 O728 O 0.21128 0.22047 0.98113
 Cu729 Cu 0.25053 0.26211 1.00472
 Cu730 Cu 0.22723 0.21295 1.01743
 C731 C 0.21423 0.24221 0.96479
 C732 C 0.26582 0.23675 1.05616
 C733 C 0.27450 0.21161 0.98424
 C734 C 0.20077 0.25906 1.03824
 O735 O 0.23163 0.74923 0.45568
 O736 O 0.21520 0.79500 0.51870
 O737 O 0.21263 0.79750 0.46008
 O738 O 0.22486 0.74037 0.51148
 O739 O 0.26739 0.75515 0.51647
 O740 O 0.25587 0.81116 0.46116
 O741 O 0.25828 0.80898 0.51870
 O742 O 0.27518 0.76077 0.45940
 Cu743 Cu 0.21694 0.76966 0.48718
 Cu744 Cu 0.26841 0.78536 0.48930
 C745 C 0.25629 0.74758 0.44666
 C746 C 0.23421 0.81029 0.52898
 C747 C 0.23203 0.81338 0.45096
 C748 C 0.24791 0.73795 0.52299
 O749 O 0.22326 0.75620 -0.03213
 O750 O 0.26379 0.76103 0.03485
 O751 O 0.27264 0.77058 -0.02072
 O752 O 0.21279 0.74960 0.02396
 O753 O 0.22441 0.70523 0.02119
 O754 O 0.28353 0.72621 -0.02609
 O755 O 0.27551 0.71689 0.02976
 O756 O 0.23281 0.71143 -0.03637
 Cu757 Cu 0.24189 0.76371 0.00202
 Cu758 Cu 0.25498 0.71037 -0.00346
 C759 C 0.22121 0.73317 -0.04579
 C760 C 0.27696 0.73996 0.04343
 C761 C 0.28820 0.75213 -0.03107
 C762 C 0.20863 0.72403 0.03066
 O763 O 0.30128 0.24363 0.49245
 O764 O 0.24291 0.21988 0.53863
 O765 O 0.26402 0.20469 0.48791
 O766 O 0.27863 0.26146 0.54127
 O767 O 0.25137 0.28919 0.51704
 O768 O 0.23681 0.23304 0.46436
 O769 O 0.21584 0.24807 0.51468
 O770 O 0.27454 0.27164 0.46783
 Cu771 Cu 0.27433 0.22966 0.51762
 Cu772 Cu 0.24205 0.26342 0.48863
 C773 C 0.29778 0.26125 0.47190
 C774 C 0.21952 0.22971 0.53456
 C775 C 0.24793 0.20944 0.46693
 C776 C 0.26726 0.28498 0.53820
 O777 O 0.74604 0.76341 0.97708
 O778 O 0.75761 0.72182 1.04269
 O779 O 0.76880 0.71637 0.98766
 O780 O 0.72271 0.76200 1.03133
 O781 O 0.68810 0.73467 1.01891
 O782 O 0.73326 0.68846 0.97995
 O783 O 0.72094 0.69582 1.03416
 O784 O 0.71064 0.73683 0.96557
 Cu785 Cu 0.75168 0.74405 1.01089
 Cu786 Cu 0.70990 0.71179 0.99819
 C787 C 0.72704 0.75729 0.95982
 C788 C 0.74161 0.70168 1.04969
 C789 C 0.75843 0.69397 0.97711
 C790 C 0.69731 0.75567 1.03245
 O791 O 0.75328 0.28266 0.52790
 O792 O 0.79567 0.22841 0.49307
 O793 O 0.78673 0.24493 0.54699
 O794 O 0.75847 0.26273 0.47460
 O795 O 0.79396 0.29099 0.46588
 O796 O 0.81740 0.27916 0.54114
 O797 O 0.82972 0.25939 0.49031
 O798 O 0.78531 0.31440 0.51664
 Cu799 Cu 0.77010 0.25151 0.51136
 Cu800 Cu 0.80982 0.28917 0.50264
 C801 C 0.76214 0.30791 0.52773
 C802 C 0.82039 0.23478 0.48675
 C803 C 0.80657 0.25936 0.55655
 C804 C 0.77190 0.27943 0.45764
 O805 O 0.78978 0.27166 -0.04582
 O806 O 0.74376 0.22987 0.00575
 O807 O 0.74252 0.24578 -0.04936
 O808 O 0.79315 0.25149 0.00841
 O809 O 0.77320 0.28927 0.02540
 O810 O 0.72469 0.28579 -0.03551
 O811 O 0.72400 0.26919 0.01859
 O812 O 0.77198 0.31008 -0.02768
 Cu813 Cu 0.76932 0.24585 -0.02175
 Cu814 Cu 0.74676 0.29249 -0.00326
 C815 C 0.78860 0.29830 -0.04505
 C816 C 0.72543 0.24278 0.02021
 C817 C 0.72503 0.26464 -0.05235
 C818 C 0.79154 0.27098 0.02708
 O819 O 0.71122 0.75652 0.48087
 O820 O 0.76225 0.77135 0.53617
 O821 O 0.76307 0.76862 0.47881
 O822 O 0.71143 0.75686 0.53766
 O823 O 0.72140 0.71199 0.53968
 O824 O 0.77357 0.72390 0.48092
 O825 O 0.77277 0.72661 0.53832
 O826 O 0.72141 0.71168 0.48197
 Cu827 Cu 0.73608 0.76784 0.50814
 Cu828 Cu 0.74833 0.71399 0.51032
 C829 C 0.70746 0.73167 0.47207
 C830 C 0.77589 0.75169 0.54697
 C831 C 0.77713 0.74825 0.46986
 C832 C 0.70760 0.73251 0.54869
 O833 O 1.02727 0.30066 0.27985
 O834 O 0.97624 0.24307 0.29394
 O835 O 1.02566 0.25718 0.31345
 O836 O 0.97689 0.29514 0.27132
 O837 O 0.98875 0.27332 0.23044
 O838 O 1.04052 0.23501 0.27406
 O839 O 0.99057 0.22268 0.25319
 O840 O 1.03960 0.27921 0.23882
 Cu841 Cu 0.99961 0.27519 0.29377
 Cu842 Cu 1.01619 0.24994 0.24594
 C843 C 1.04181 0.29964 0.25619
 C844 C 0.97482 0.22306 0.27555
 C845 C 1.04214 0.24060 0.30145
 C846 C 0.97503 0.29195 0.24386
 O847 O 0.51208 0.21092 0.73494
 O848 O 0.47642 0.25643 0.68575
 O849 O 0.52623 0.24293 0.69062
 O850 O 0.46496 0.23583 0.73975
 O851 O 0.48020 0.27191 0.76518
 O852 O 0.53884 0.28022 0.71593
 O853 O 0.48760 0.29360 0.71182
 O854 O 0.52736 0.24712 0.76010
 Cu855 Cu 0.49313 0.23301 0.71071
 Cu856 Cu 0.50940 0.27650 0.74045
 C857 C 0.52637 0.22082 0.75529
 C858 C 0.47592 0.28252 0.68986
 C859 C 0.54280 0.26337 0.69503
 C860 C 0.46248 0.25286 0.76113
 O861 O -0.01256 0.26181 0.74179
 O862 O 0.03238 0.20378 0.72570
 O863 O -0.02088 0.20842 0.73245
 O864 O 0.03761 0.25709 0.73043
 O865 O 0.04184 0.24993 0.77832
 O866 O -0.01686 0.20043 0.78017
 O867 O 0.03580 0.19574 0.77350
 O868 O -0.01006 0.25387 0.78973
 Cu869 Cu 0.00824 0.23298 0.72770
 Cu870 Cu 0.01316 0.22408 0.78524
 C871 C -0.01832 0.26826 0.76824
 C872 C 0.04233 0.19033 0.74700
 C873 C -0.02914 0.19657 0.75621
 C874 C 0.04946 0.26212 0.75434
 O875 O 0.52480 0.22757 0.29504
 O876 O 0.48384 0.20604 0.23263
 O877 O 0.53049 0.19198 0.25258
 O878 O 0.48006 0.24632 0.27106
 O879 O 0.50245 0.27543 0.24072
 O880 O 0.55338 0.22253 0.22412
 O881 O 0.50779 0.23409 0.20238
 O882 O 0.54751 0.25773 0.26608
 Cu883 Cu 0.50240 0.21524 0.26587
 Cu884 Cu 0.52962 0.25106 0.23069
 C885 C 0.54378 0.24561 0.29100
 C886 C 0.48964 0.21508 0.20690
 C887 C 0.55040 0.19811 0.23500
 C888 C 0.48257 0.27012 0.25832
 O889 O 1.02408 0.80278 0.73612
 O890 O 0.97529 0.77828 0.79409
 O891 O 1.02311 0.76304 0.77620
 O892 O 0.97591 0.81944 0.75593
 O893 O 0.95651 0.79102 0.72413
 O894 O 1.00228 0.73514 0.74492
 O895 O 0.95521 0.75047 0.76211
 O896 O 1.00428 0.77441 0.70455
 Cu897 Cu 1.00164 0.79400 0.76857
 Cu898 Cu 0.97774 0.76019 0.73041
 C899 C 1.02280 0.79222 0.71060
 C900 C 0.95721 0.75993 0.78800
 C901 C 1.01997 0.73916 0.76447
 C902 C 0.95773 0.81441 0.73709
 O903 O 0.52387 0.78159 0.27550
 O904 O 0.46907 0.72911 0.28959
 O905 O 0.52371 0.72579 0.28465
 O906 O 0.47183 0.77948 0.27207
 O907 O 0.47079 0.76709 0.22531
 O908 O 0.52230 0.71400 0.23779
 O909 O 0.47096 0.71683 0.24276
 O910 O 0.52601 0.76967 0.22867
 Cu911 Cu 0.49794 0.75442 0.28500
 Cu912 Cu 0.49838 0.74172 0.22893
 C913 C 0.53435 0.78463 0.24985
 C914 C 0.46034 0.71435 0.26855
 C915 C 0.53158 0.71052 0.26336
 C916 C 0.46183 0.78163 0.24653
 O917 O -0.01854 0.78721 0.24140
 O918 O 0.02846 0.72938 0.22472
 O919 O -0.01810 0.74675 0.20342
 O920 O 0.02971 0.77357 0.25788
 O921 O 0.00941 0.74745 0.29267
 O922 O -0.03890 0.72055 0.23775
 O923 O 0.00762 0.70337 0.25918
 O924 O -0.03879 0.76053 0.27577
 Cu925 Cu 0.00742 0.76165 0.22827
 Cu926 Cu -0.01710 0.73016 0.26963
 C927 C -0.03668 0.78351 0.26164
 C928 C 0.02633 0.70673 0.23973
 C929 C -0.03716 0.72986 0.21139
 C930 C 0.02765 0.76538 0.28449
 O931 O 0.47714 0.80402 0.74325
 O932 O 0.50729 0.73976 0.71411
 O933 O 0.46444 0.76836 0.70264
 O934 O 0.51996 0.77514 0.75566
 O935 O 0.49646 0.74795 0.78709
 O936 O 0.44040 0.74272 0.73507
 O937 O 0.48239 0.71386 0.74555
 O938 O 0.45413 0.77784 0.77605
 Cu939 Cu 0.49474 0.77442 0.72567
 Cu940 Cu 0.46592 0.74318 0.76437
 C941 C 0.46039 0.80161 0.76482
 C942 C 0.49964 0.71599 0.72444
 C943 C 0.44311 0.75415 0.70981
 C944 C 0.51767 0.76248 0.78036
 C945 C 0.42789 0.31270 0.27988
 C946 C 0.43950 0.33038 0.25863
 C947 C 0.46174 0.31684 0.24804
 C948 C 0.46213 0.29183 0.26345
 O949 O 0.44168 0.28926 0.28284
 H950 H 0.43288 0.35088 0.25188
 H951 H 0.47594 0.32425 0.23098
 C952 C 0.42087 0.84884 0.80421
 C953 C 0.42983 0.86745 0.78225
 C954 C 0.44722 0.85259 0.76470
 C955 C 0.44731 0.82618 0.77715
 O956 O 0.43169 0.82399 0.80098
 H957 H 0.42423 0.88900 0.77889
 H958 H 0.45769 0.85980 0.74472
 C959 C -0.06422 0.32141 0.78422
 C960 C -0.04722 0.33560 0.76398
 C961 C -0.02742 0.31762 0.75672
 C962 C -0.03322 0.29391 0.77317
 O963 O -0.05524 0.29605 0.79038
 H964 H -0.04887 0.35658 0.75510
 H965 H -0.01098 0.32105 0.74073
 C966 C -0.08856 0.82599 0.28949
 C967 C -0.07772 0.84495 0.26891
 C968 C -0.05644 0.83169 0.25557
 C969 C -0.05585 0.80571 0.26895
 O970 O -0.07518 0.80224 0.28944
 H971 H -0.08431 0.86592 0.26406
 H972 H -0.04306 0.83990 0.23815
 C973 C 0.58289 0.66605 0.28795
 C974 C 0.57897 0.65377 0.26086
 C975 C 0.55887 0.66863 0.24809
 C976 C 0.55186 0.68878 0.26828
 O977 O 0.56635 0.68728 0.29240
 H978 H 0.58985 0.63662 0.25107
 H979 H 0.55058 0.66542 0.22647
 C980 C 0.57521 0.18402 0.79412
 C981 C 0.55881 0.16146 0.78674
 C982 C 0.53755 0.17265 0.77252
 C983 C 0.54242 0.20120 0.77237
 O984 O 0.56518 0.20826 0.78564
 H985 H 0.56214 0.13944 0.79073
 H986 H 0.52091 0.16130 0.76250
 C987 C 1.06641 0.69050 0.79186
 C988 C 1.04794 0.67195 0.77959
 C989 C 1.02852 0.68797 0.76774
 C990 C 1.03610 0.71518 0.77380
 O991 O 1.05900 0.71694 0.78867
 H992 H 1.04830 0.64932 0.77926
 H993 H 1.01072 0.68067 0.75622
 C994 C 1.09860 0.20937 0.33496
 C995 C 1.08870 0.22439 0.35873
 C996 C 1.06609 0.23699 0.34915
 C997 C 1.06350 0.22914 0.32019
 O998 O 1.08309 0.21221 0.31142
 H999 H 1.09644 0.22595 0.38076
 H1000 H 1.05316 0.25075 0.36176
 C1001 C 0.60108 0.28928 0.65731
 C1002 C 0.59705 0.26562 0.64033
 C1003 C 0.57460 0.25216 0.65238
 C1004 C 0.56670 0.26848 0.67575
 O1005 O 0.58264 0.29083 0.67880
 H1006 H 0.60876 0.25885 0.62135
 H1007 H 0.56502 0.23297 0.64489
 C1008 C 0.59097 0.82618 0.22536
 C1009 C 0.58725 0.83811 0.25286
 C1010 C 0.56518 0.82446 0.26541
 C1011 C 0.55678 0.80530 0.24484
 O1012 O 0.57226 0.80631 0.22058
 H1013 H 0.59922 0.85439 0.26314
 H1014 H 0.55650 0.82778 0.28719
 C1015 C 1.09095 0.34418 0.22220
 C1016 C 1.08664 0.36014 0.24724
 C1017 C 1.06733 0.34568 0.26384
 C1018 C 1.06139 0.32207 0.24784
 O1019 O 1.07551 0.32119 0.22280
 H1020 H 1.09621 0.37985 0.25307
 H1021 H 1.05873 0.35157 0.28499
 C1022 C 1.07971 0.81691 0.66896
 C1023 C 1.06854 0.79961 0.64781
 C1024 C 1.04512 0.78872 0.66032
 C1025 C 1.04361 0.80001 0.68810
 O1026 O 1.06437 0.81713 0.69336
 H1027 H 1.07626 0.79509 0.62592
 H1028 H 1.03113 0.77382 0.65061
 C1029 C 0.38771 0.73226 0.66778
 C1030 C 0.39800 0.75268 0.64848
 C1031 C 0.42007 0.76413 0.66192
 C1032 C 0.42152 0.75004 0.68842
 O1033 O 0.40205 0.73072 0.69203
 H1034 H 0.39097 0.75808 0.62679
 H1035 H 0.43374 0.78042 0.65325
 C1036 C 0.44427 0.18024 0.16216
 C1037 C 0.46647 0.16334 0.15782
 C1038 C 0.48758 0.17701 0.17070
 C1039 C 0.47677 0.20098 0.18232
 O1040 O 0.45054 0.20309 0.17712
 H1041 H 0.46709 0.14306 0.14741
 H1042 H 0.50778 0.16908 0.17391
 C1043 C -0.09394 0.70429 0.17335
 C1044 C -0.08350 0.72179 0.15130
 C1045 C -0.06016 0.73320 0.16228
 C1046 C -0.05812 0.72188 0.19020
 O1047 O -0.07851 0.70437 0.19693
 H1048 H -0.09171 0.72566 0.12976
 H1049 H -0.04651 0.74833 0.15145
 C1050 C -0.09165 0.16486 0.74060
 C1051 C -0.08845 0.15159 0.76745
 C1052 C -0.06388 0.16128 0.77732
 C1053 C -0.05403 0.17934 0.75550
 O1054 O -0.07075 0.18149 0.73344
 H1055 H -0.10265 0.13748 0.77894
 H1056 H -0.05456 0.15624 0.79802
 C1057 C 0.29576 0.38606 0.30368
 C1058 C 0.26852 0.38132 0.31058
 C1059 C 0.25543 0.40364 0.29947
 C1060 C 0.27547 0.42046 0.28643
 O1061 O 0.30008 0.40981 0.28869
 H1062 H 0.25927 0.36376 0.32259
 H1063 H 0.23381 0.40743 0.30103
 C1064 C 0.30324 -0.07577 0.85942
 C1065 C 0.28133 -0.06906 0.87761
 C1066 C 0.26799 -0.04856 0.86289
 C1067 C 0.28247 -0.04462 0.83680
 O1068 O 0.30379 -0.06079 0.83478
 H1069 H 0.27550 -0.07794 0.89889
 H1070 H 0.24943 -0.03849 0.86983
 C1071 C 0.82666 0.41821 0.76116
 C1072 C 0.83474 0.42378 0.73211
 C1073 C 0.81923 0.44510 0.72300
 C1074 C 0.80279 0.45126 0.74684
 O1075 O 0.80695 0.43495 0.77002
 H1076 H 0.84963 0.41341 0.71843
 H1077 H 0.81981 0.45501 0.70144
 C1078 C 0.79015 -0.09427 0.33544
 C1079 C 0.76585 -0.08948 0.35060
 C1080 C 0.75484 -0.06696 0.33702
 C1081 C 0.77315 -0.05942 0.31483
 O1082 O 0.79451 -0.07576 0.31383
 H1083 H 0.75656 -0.10111 0.36886
 H1084 H 0.73554 -0.05750 0.34229
 C1085 C 0.31464 0.59754 0.70051
 C1086 C 0.33736 0.58544 0.71214
 C1087 C 0.32791 0.56302 0.72807
 C1088 C 0.30014 0.56257 0.72485
 O1089 O 0.29181 0.58343 0.70795
 H1090 H 0.35839 0.59243 0.70979
 H1091 H 0.33979 0.54888 0.74111
 C1092 C 0.33333 1.07701 0.16854
 C1093 C 0.34860 1.05652 0.18185
 C1094 C 0.33028 1.03724 0.19281
 C1095 C 0.30524 1.04688 0.18513
 O1096 O 0.30686 1.07082 0.17029
 H1097 H 0.37034 1.05586 0.18470
 H1098 H 0.33458 1.01853 0.20536
 C1099 C 0.82527 0.58257 0.22897
 C1100 C 0.84331 0.57287 0.24959
 C1101 C 0.83082 0.54963 0.26206
 C1102 C 0.80630 0.54704 0.24812
 O1103 O 0.80296 0.56677 0.22829
 H1104 H 0.86308 0.58140 0.25510
 H1105 H 0.83857 0.53631 0.27922
 C1106 C 0.78720 1.08935 0.68207
 C1107 C 0.77239 1.08118 0.65801
 C1108 C 0.75662 1.05914 0.66765
 C1109 C 0.76310 1.05518 0.69676
 O1110 O 0.78177 1.07337 0.70565
 H1111 H 0.77256 1.09048 0.63618
 H1112 H 0.74147 1.04781 0.65524
 C1113 C 0.69360 0.57319 0.34082
 C1114 C 0.70716 0.56064 0.36365
 C1115 C 0.72136 0.53946 0.35115
 C1116 C 0.71546 0.54053 0.32166
 O1117 O 0.69852 0.56083 0.31529
 H1118 H 0.70686 0.56621 0.38670
 H1119 H 0.73465 0.52513 0.36215
 C1120 C 0.69869 1.10394 0.82221
 C1121 C 0.72163 1.09677 0.83754
 C1122 C 0.72987 1.07219 0.82584
 C1123 C 0.71166 1.06597 0.80411
 O1124 O 0.69264 1.08505 0.80187
 H1125 H 0.73140 1.10770 0.85531
 H1126 H 0.74745 1.06042 0.83206
 C1127 C 0.17041 0.58394 0.80835
 C1128 C 0.15355 0.56304 0.79732
 C1129 C 0.17009 0.54224 0.78887
 C1130 C 0.19594 0.55138 0.79538
 O1131 O 0.19639 0.57652 0.80778
 H1132 H 0.13166 0.56266 0.79543
 H1133 H 0.16408 0.52281 0.77850
 C1134 C 0.18451 1.10333 0.26640
 C1135 C 0.17145 1.10470 0.23966
 C1136 C 0.18199 1.08413 0.22302
 C1137 C 0.20076 1.07124 0.24031
 O1138 O 0.20262 1.08288 0.26671
 H1139 H 0.15642 1.11921 0.23228
 H1140 H 0.17649 1.07900 0.20071
 C1141 C 0.67411 0.41885 0.70777
 C1142 C 0.66256 0.41971 0.73583
 C1143 C 0.67547 0.44146 0.74946
 C1144 C 0.69378 0.45240 0.72876
 O1145 O 0.69299 0.43880 0.70357
 H1146 H 0.64730 0.40571 0.74572
 H1147 H 0.67238 0.44813 0.77200
 C1148 C 0.72051 -0.09838 0.18353
 C1149 C 0.74650 -0.09898 0.17120
 C1150 C 0.76043 -0.07724 0.18343
 C1151 C 0.74201 -0.06491 0.20226
 O1152 O 0.71783 -0.07770 0.20253
 H1153 H 0.75468 -0.11378 0.15561
 H1154 H 0.78156 -0.07127 0.17937
 C1155 C 0.20818 0.42493 0.15959
 C1156 C 0.23071 0.43016 0.14131
 C1157 C 0.24678 0.44860 0.15628
 C1158 C 0.23278 0.45329 0.18232
 O1159 O 0.20951 0.43916 0.18431
 H1160 H 0.23555 0.42100 0.12019
 H1161 H 0.26663 0.45688 0.14948
 C1162 C 0.17738 -0.08053 0.73093
 C1163 C 0.16048 -0.07052 0.75305
 C1164 C 0.17569 -0.05089 0.76731
 C1165 C 0.20072 -0.05044 0.75301
 O1166 O 0.20182 -0.06831 0.73102
 H1167 H 0.13940 -0.07609 0.75785
 H1168 H 0.16918 -0.03809 0.78561
 C1169 C 0.34243 0.28538 0.41527
 C1170 C 0.36091 0.26977 0.43058
 C1171 C 0.34674 0.25910 0.45446
 C1172 C 0.32074 0.26900 0.45201
 O1173 O 0.31808 0.28494 0.42838
 H1174 H 0.38211 0.26640 0.42514
 H1175 H 0.35431 0.24538 0.47138
 C1176 C 0.33669 0.78764 -0.07580
 C1177 C 0.34866 0.76161 -0.07638
 C1178 C 0.33218 0.74453 -0.05920
 C1179 C 0.31156 0.76136 -0.04940
 O1180 O 0.31422 0.78735 -0.05930
 H1181 H 0.36671 0.75532 -0.08841
 H1182 H 0.33466 0.72244 -0.05474
 C1183 C 0.82661 0.33399 -0.10125
 C1184 C 0.82419 0.35566 -0.08161
 C1185 C 0.81099 0.34443 -0.05759
 C1186 C 0.80618 0.31663 -0.06415
 O1187 O 0.81575 0.31006 -0.09078
 H1188 H 0.83047 0.37734 -0.08496
 H1189 H 0.80459 0.35548 -0.03799
 C1190 C 0.81988 0.77332 0.41197
 C1191 C 0.83029 0.74668 0.41389
 C1192 C 0.81572 0.73356 0.43616
 C1193 C 0.79760 0.75311 0.44621
 O1194 O 0.80005 0.77713 0.43164
 H1195 H 0.84612 0.73752 0.40041
 H1196 H 0.81786 0.71224 0.44394
 C1197 C 0.71873 0.34904 0.57049
 C1198 C 0.73458 0.37062 0.55833
 C1199 C 0.75239 0.35806 0.53951
 C1200 C 0.74602 0.32984 0.54153
 O1201 O 0.72556 0.32430 0.56013
 H1202 H 0.73376 0.39275 0.56308
 H1203 H 0.76866 0.36814 0.52660
 C1204 C 0.66117 0.79513 1.08455
 C1205 C 0.63917 0.78395 1.07002
 C1206 C 0.65006 0.76877 1.04770
 C1207 C 0.67790 0.77183 1.05011
 O1208 O 0.68477 0.78797 1.07236
 H1209 H 0.61776 0.78619 1.07531
 H1210 H 0.63903 0.75620 1.03202
 C1211 C 0.15757 0.29760 1.08441
 C1212 C 0.13956 0.27587 1.07838
 C1213 C 0.15319 0.25909 1.05930
 C1214 C 0.17835 0.27188 1.05478
 O1215 O 0.18108 0.29527 1.06983
 H1216 H 0.11921 0.27213 1.08730
 H1217 H 0.14594 0.23946 1.05032
 C1218 C 0.21042 0.84871 0.58979
 C1219 C 0.23491 0.86303 0.58486
 C1220 C 0.24677 0.85060 0.56120
 C1221 C 0.22872 0.82976 0.55314
 O1222 O 0.20660 0.82855 0.57030
 H1223 H 0.24353 0.88033 0.59698
 H1224 H 0.26637 0.85596 0.55109
 C1225 C 0.26803 0.69260 0.57959
 C1226 C 0.24394 0.67879 0.57305
 C1227 C 0.23337 0.69369 0.55036
 C1228 C 0.25179 0.71535 0.54462
 O1229 O 0.27275 0.71473 0.56223
 H1230 H 0.23467 0.66059 0.58387
 H1231 H 0.21426 0.68958 0.53966
 C1232 C 0.30840 0.21965 1.11404
 C1233 C 0.31131 0.24843 1.11572
 C1234 C 0.29444 0.25877 1.09508
 C1235 C 0.28236 0.23560 1.08254
 O1236 O 0.29062 0.21186 1.09408
 H1237 H 0.32492 0.26046 1.12937
 H1238 H 0.29208 0.28054 1.08899
 C1239 C 0.76899 0.66847 1.11129
 C1240 C 0.74421 0.65398 1.11112
 C1241 C 0.73047 0.66462 1.08800
 C1242 C 0.74761 0.68491 1.07584
 O1243 O 0.77089 0.68740 1.08983
 H1244 H 0.73669 0.63750 1.12582
 H1245 H 0.71042 0.65832 1.08083
 C1246 C 0.82905 0.23059 0.62305
 C1247 C 0.84176 0.25665 0.62495
 C1248 C 0.83449 0.27103 0.60048
 C1249 C 0.81767 0.25297 0.58553
 O1250 O 0.81417 0.22847 0.59914
 H1251 H 0.85499 0.26442 0.64187
 H1252 H 0.84093 0.29208 0.59407
 C1253 C 0.66457 0.70648 0.41696
 C1254 C 0.65355 0.73277 0.41993
 C1255 C 0.66805 0.74557 0.44136
 C1256 C 0.68674 0.72624 0.45000
 O1257 O 0.68471 0.70255 0.43535
 H1258 H 0.63739 0.74206 0.40768
 H1259 H 0.66554 0.76662 0.44947
 C1260 C 0.68136 0.24206 -0.10776
 C1261 C 0.66997 0.26799 -0.10319
 C1262 C 0.68516 0.28041 -0.08195
 C1263 C 0.70468 0.26127 -0.07523
 O1264 O 0.70248 0.23814 -0.09079
 H1265 H 0.65260 0.27689 -0.11373
 H1266 H 0.68217 0.30078 -0.07228
 C1267 C 0.18325 0.71805 -0.10916
 C1268 C 0.18107 0.74686 -0.10943
 C1269 C 0.19520 0.75604 -0.08592
 C1270 C 0.20520 0.73233 -0.07290
 O1271 O 0.19818 0.70913 -0.08704
 H1272 H 0.17039 0.75979 -0.12487
 H1273 H 0.19782 0.77754 -0.07896
 C1274 C 0.22362 0.16808 0.40890
 C1275 C 0.24310 0.14981 0.41839
 C1276 C 0.25489 0.16260 0.44196
 C1277 C 0.24187 0.18775 0.44496
 O1278 O 0.22299 0.19104 0.42503
 H1279 H 0.24794 0.12951 0.40956
 H1280 H 0.27111 0.15466 0.45521
 C1281 C 0.33202 0.41941 0.72156
 C1282 C 0.34789 0.42465 0.74584
 C1283 C 0.33499 0.44499 0.76125
 C1284 C 0.31218 0.45069 0.74546
 O1285 O 0.31021 0.43522 0.72148
 H1286 H 0.36651 0.41476 0.75208
 H1287 H 0.34132 0.45439 0.78167
 C1288 C 0.29277 0.90314 0.16233
 C1289 C 0.28423 0.91285 0.13542
 C1290 C 0.27155 0.93712 0.14119
 C1291 C 0.27321 0.94071 0.17121
 O1292 O 0.28634 0.92019 0.18428
 H1293 H 0.28685 0.90328 0.11405
 H1294 H 0.26191 0.95055 0.12536
 C1295 C 0.79958 0.41040 0.17898
 C1296 C 0.78447 0.42320 0.15758
 C1297 C 0.77101 0.44397 0.17156
 C1298 C 0.77878 0.44248 0.20050
 O1299 O 0.79628 0.42222 0.20514
 H1300 H 0.78343 0.41813 0.13445
 H1301 H 0.75695 0.45836 0.16187
 C1302 C 0.76571 0.91119 0.67562
 C1303 C 0.74369 0.91509 0.65760
 C1304 C 0.72905 0.93596 0.67022
 C1305 C 0.74312 0.94331 0.69494
 O1306 O 0.76533 0.92848 0.69824
 H1307 H 0.73878 0.90435 0.63747
 H1308 H 0.71047 0.94482 0.66231
 C1309 C 0.66915 0.59922 0.72059
 C1310 C 0.66353 0.59845 0.75055
 C1311 C 0.68094 0.57966 0.76184
 C1312 C 0.69579 0.57030 0.73793
 O1313 O 0.68887 0.58223 0.71282
 H1314 H 0.64822 0.60994 0.76261
 H1315 H 0.68225 0.57308 0.78464
 C1316 C 0.73168 0.08596 0.16771
 C1317 C 0.75720 0.08297 0.15481
 C1318 C 0.76902 0.06209 0.17040
 C1319 C 0.74986 0.05382 0.19154
 O1320 O 0.72729 0.06818 0.18997
 H1321 H 0.76654 0.09487 0.13675
 H1322 H 0.78930 0.05414 0.16707
 C1323 C 0.21729 0.59808 0.19589
 C1324 C 0.24418 0.60380 0.18796
 C1325 C 0.25865 0.58279 0.19994
 C1326 C 0.23971 0.56575 0.21452
 O1327 O 0.21454 0.57501 0.21233
 H1328 H 0.25235 0.62111 0.17473
 H1329 H 0.28039 0.57995 0.19791
 C1330 C 0.22010 0.07560 0.67578
 C1331 C 0.23961 0.06501 0.65679
 C1332 C 0.25328 0.04599 0.67317
 C1333 C 0.24116 0.04661 0.70086
 O1334 O 0.22111 0.06442 0.70246
 H1335 H 0.24323 0.07012 0.63375
 H1336 H 0.27003 0.03324 0.66586
 C1337 C 0.30523 0.56350 0.34521
 C1338 C 0.28697 0.55016 0.36458
 C1339 C 0.27443 0.52990 0.34852
 C1340 C 0.28616 0.53223 0.32074
 O1341 O 0.30493 0.55237 0.31869
 H1342 H 0.28217 0.55561 0.38716
 H1343 H 0.25789 0.51598 0.35576
 C1344 C 0.33980 0.09313 0.79916
 C1345 C 0.35772 0.08137 0.77915
 C1346 C 0.34477 0.05777 0.76948
 C1347 C 0.31991 0.05698 0.78418
 O1348 O 0.31687 0.07828 0.80226
 H1349 H 0.37782 0.08900 0.77243
 H1350 H 0.35230 0.04317 0.75329
 C1351 C 0.82803 0.60042 0.77918
 C1352 C 0.83774 0.60100 0.75032
 C1353 C 0.82331 0.58056 0.73627
 C1354 C 0.80596 0.56890 0.75751
 O1355 O 0.80877 0.58084 0.78345
 H1356 H 0.85296 0.61495 0.74029
 H1357 H 0.82493 0.57511 0.71321
 C1358 C 0.79746 0.08957 0.33292
 C1359 C 0.77125 0.08891 0.34464
 C1360 C 0.75773 0.06873 0.32949
 C1361 C 0.77661 0.05846 0.30968
 O1362 O 0.80072 0.07110 0.31157
 H1363 H 0.76275 0.10188 0.36180
 H1364 H 0.73661 0.06225 0.33248
 C1365 C 0.67189 0.39898 0.29668
 C1366 C 0.65299 0.40993 0.27781
 C1367 C 0.66525 0.43342 0.26573
 C1368 C 0.69052 0.43490 0.27819
 O1369 O 0.69453 0.41423 0.29682
 H1370 H 0.63288 0.40184 0.27302
 H1371 H 0.65692 0.44758 0.24969
 C1372 C 0.65426 0.91280 0.80798
 C1373 C 0.63211 0.92925 0.80273
 C1374 C 0.64266 0.95379 0.79173
 C1375 C 0.67051 0.95075 0.79119
 O1376 O 0.67772 0.92591 0.80121
 H1377 H 0.61076 0.92386 0.80602
 H1378 H 0.63136 0.97151 0.78398
 C1379 C 0.20889 0.40412 0.83144
 C1380 C 0.21851 0.41612 0.85686
 C1381 C 0.22925 0.44144 0.84842
 C1382 C 0.22541 0.44333 0.81847
 O1383 O 0.21288 0.42075 0.80802
 H1384 H 0.21781 0.40752 0.87900
 H1385 H 0.23916 0.45661 0.86238
 C1386 C 0.15714 0.92327 0.25760
 C1387 C 0.14145 0.92767 0.23309
 C1388 C 0.15485 0.94834 0.21706
 C1389 C 0.17756 0.95501 0.23301
 O1390 O 0.17892 0.93995 0.25742
 H1391 H 0.12283 0.91690 0.22713
 H1392 H 0.14909 0.95705 0.19606
 C1393 C 0.42881 0.32164 0.65196
 C1394 C 0.44122 0.30944 0.62784
 C1395 C 0.46214 0.29478 0.63893
 C1396 C 0.46116 0.29943 0.66886
 O1397 O 0.44102 0.31573 0.67688
 H1398 H 0.43495 0.30997 0.60515
 H1399 H 0.47556 0.28102 0.62695
 C1400 C 0.40360 0.81669 0.22365
 C1401 C 0.40774 0.83139 0.24934
 C1402 C 0.43058 0.82058 0.26115
 C1403 C 0.43887 0.80027 0.24175
 O1404 O 0.42254 0.79777 0.21908
 H1405 H 0.39523 0.84743 0.25896
 H1406 H 0.43980 0.82642 0.28169
 C1407 C 0.92492 0.32979 0.20759
 C1408 C 0.93908 0.35195 0.21976
 C1409 C 0.96052 0.34036 0.23324
 C1410 C 0.95825 0.31203 0.22812
 O1411 O 0.93664 0.30538 0.21249
 H1412 H 0.93414 0.37392 0.21935
 H1413 H 0.97560 0.35113 0.24626
 C1414 C 0.90095 0.85096 0.71326
 C1415 C 0.91057 0.87134 0.73207
 C1416 C 0.93400 0.86090 0.74329
 C1417 C 0.93688 0.83504 0.73046
 O1418 O 0.91699 0.82909 0.71239
 H1419 H 0.90163 0.89124 0.73730
 H1420 H 0.94704 0.87067 0.75930
 C1421 C 0.59585 0.26877 0.33695
 C1422 C 0.58556 0.24777 0.35537
 C1423 C 0.56367 0.23673 0.34107
 C1424 C 0.56246 0.25174 0.31500
 O1425 O 0.58188 0.27109 0.31251
 H1426 H 0.59300 0.24134 0.37659
 H1427 H 0.55061 0.21938 0.34839
 C1428 C 0.57534 0.77847 0.82207
 C1429 C 0.56469 0.75702 0.83977
 C1430 C 0.54154 0.74815 0.82644
 C1431 C 0.53980 0.76467 0.80152
 O1432 O 0.56018 0.78313 0.79883
 H1433 H 0.57244 0.74916 0.86030
 H1434 H 0.52753 0.73168 0.83400
 C1435 C 0.10663 0.30385 0.76963
 C1436 C 0.10219 0.31501 0.74203
 C1437 C 0.07983 0.30069 0.73210
 C1438 C 0.07236 0.28221 0.75455
 O1439 O 0.08848 0.28413 0.77716
 H1440 H 0.11411 0.33101 0.73028
 H1441 H 0.07020 0.30334 0.71107
 C1442 C 0.07865 0.80118 0.32302
 C1443 C 0.06885 0.78449 0.34616
 C1444 C 0.04809 0.76877 0.33490
 C1445 C 0.04680 0.77694 0.30580
 O1446 O 0.06518 0.79659 0.29856
 H1447 H 0.07571 0.78391 0.36862
 H1448 H 0.03549 0.75318 0.34647
 C1449 C 0.54010 0.66512 0.69208
 C1450 C 0.52197 0.64699 0.70660
 C1451 C 0.50327 0.66373 0.71978
 C1452 C 0.51152 0.69070 0.71231
 O1453 O 0.53364 0.69160 0.69538
 H1454 H 0.52304 0.62444 0.70858
 H1455 H 0.48642 0.65718 0.73418
 C1456 C 0.60326 0.15806 0.20507
 C1457 C 0.59233 0.13786 0.22422
 C1458 C 0.57083 0.15011 0.23817
 C1459 C 0.57026 0.17686 0.22664
 O1460 O 0.58976 0.18171 0.20654
 H1461 H 0.59890 0.11660 0.22745
 H1462 H 0.55720 0.14070 0.25470
 C1463 C 0.08061 0.66331 0.21950
 C1464 C 0.06990 0.64676 0.24220
 C1465 C 0.04755 0.66051 0.25241
 C1466 C 0.04631 0.68447 0.23528
 O1467 O 0.06627 0.68618 0.21534
 H1468 H 0.07729 0.62701 0.25028
 H1469 H 0.03401 0.65408 0.27048
 C1470 C 0.09472 0.14906 0.71921
 C1471 C 0.09204 0.13637 0.74673
 C1472 C 0.07119 0.14959 0.76071
 C1473 C 0.06258 0.16912 0.74070
 O1474 O 0.07670 0.16888 0.71562
 H1475 H 0.10438 0.12032 0.75626
 H1476 H 0.06374 0.14604 0.78308
 C1477 C 0.40409 0.67280 0.29338
 C1478 C 0.40875 0.65987 0.26667
 C1479 C 0.43038 0.67388 0.25391
 C1480 C 0.43758 0.69424 0.27374
 O1481 O 0.42158 0.69384 0.29771
 H1482 H 0.39744 0.64253 0.25735
 H1483 H 0.43985 0.66973 0.23268
 C1484 C 0.40691 0.23349 0.80757
 C1485 C 0.41114 0.26031 0.81804
 C1486 C 0.43218 0.27130 0.80139
 C1487 C 0.43917 0.25059 0.78186
 O1488 O 0.42387 0.22769 0.78542
 H1489 H 0.40061 0.27066 0.83590
 H1490 H 0.44165 0.29183 0.80354
 C1491 C 0.90886 0.72382 0.83285
 C1492 C 0.91881 0.74181 0.85403
 C1493 C 0.93814 0.75814 0.83989
 C1494 C 0.93860 0.74901 0.81122
 O1495 O 0.92099 0.72824 0.80685
 H1496 H 0.91322 0.74281 0.87716
 H1497 H 0.95065 0.77449 0.84941
 C1498 C 0.92387 0.17413 0.29841
 C1499 C 0.93110 0.16169 0.27210
 C1500 C 0.95125 0.17847 0.26009
 C1501 C 0.95484 0.19995 0.27984
 O1502 O 0.93834 0.19737 0.30311
 H1503 H 0.92300 0.14257 0.26280
 H1504 H 0.96209 0.17542 0.23938
 C1505 C 0.29041 0.33197 0.59234
 C1506 C 0.26806 0.34675 0.58367
 C1507 C 0.25642 0.33106 0.56215
 C1508 C 0.27229 0.30771 0.55938
 O1509 O 0.29293 0.30821 0.57761
 H1510 H 0.26146 0.36693 0.59137
 H1511 H 0.23855 0.33609 0.54983
 C1512 C 0.31395 0.76118 0.10516
 C1513 C 0.32349 0.73418 0.10367
 C1514 C 0.31064 0.72222 0.08035
 C1515 C 0.29428 0.74275 0.06933
 O1516 O 0.29624 0.76626 0.08430
 H1517 H 0.33791 0.72425 0.11782
 H1518 H 0.31304 0.70115 0.07225
 C1519 C 0.83118 0.28643 0.08850
 C1520 C 0.84467 0.26269 0.07967
 C1521 C 0.83156 0.25360 0.05526
 C1522 C 0.81109 0.27239 0.05100
 O1523 O 0.81078 0.29222 0.07105
 H1524 H 0.86192 0.25297 0.08962
 H1525 H 0.83632 0.23546 0.04215
 C1526 C 0.81350 0.78153 0.60357
 C1527 C 0.82588 0.75577 0.60367
 C1528 C 0.81360 0.74074 0.58200
 C1529 C 0.79489 0.75853 0.57030
 O1530 O 0.79475 0.78311 0.58331
 H1531 H 0.84139 0.74845 0.61821
 H1532 H 0.81756 0.71937 0.57574
 C1533 C 0.28479 0.70676 0.39047
 C1534 C 0.25830 0.70630 0.38100
 C1535 C 0.24411 0.72194 0.40068
 C1536 C 0.26297 0.73069 0.42079
 O1537 O 0.28773 0.72154 0.41473
 H1538 H 0.25010 0.69459 0.36279
 H1539 H 0.22252 0.72593 0.40081
 C1540 C 0.31711 0.18056 0.93143
 C1541 C 0.31583 0.15886 0.95170
 C1542 C 0.30131 0.16869 0.97504
 C1543 C 0.29485 0.19575 0.96750
 O1544 O 0.30453 0.20317 0.94100
 H1545 H 0.32369 0.13799 0.94925
 H1546 H 0.29493 0.15706 0.99468
 C1547 C 0.80007 0.65773 0.92773
 C1548 C 0.78576 0.63494 0.93955
 C1549 C 0.76939 0.64557 0.96103
 C1550 C 0.77512 0.67395 0.96100
 O1551 O 0.79380 0.68145 0.94094
 H1552 H 0.78633 0.61334 0.93261
 H1553 H 0.75417 0.63422 0.97429
 C1554 C 0.85513 0.18660 0.44355
 C1555 C 0.87690 0.19596 0.45975
 C1556 C 0.86618 0.21393 0.47972
 C1557 C 0.83869 0.21399 0.47441
 O1558 O 0.83184 0.19736 0.45258
 H1559 H 0.89822 0.19154 0.45621
 H1560 H 0.87724 0.22674 0.49516
 C1561 C 0.73593 0.29650 0.39415
 C1562 C 0.76196 0.30226 0.38328
 C1563 C 0.77884 0.29556 0.40541
 C1564 C 0.76200 0.28596 0.42814
 O1565 O 0.73588 0.28631 0.42141
 H1566 H 0.76785 0.31137 0.36210
 H1567 H 0.80077 0.29817 0.40537
 C1568 C 0.70738 0.79607 0.89791
 C1569 C 0.73385 0.80620 0.89941
 C1570 C 0.74480 0.79231 0.92237
 C1571 C 0.72438 0.77454 0.93314
 O1572 O 0.70166 0.77659 0.91828
 H1573 H 0.74399 0.82207 0.88571
 H1574 H 0.76514 0.79513 0.93067
 C1575 C 0.18533 0.26178 0.89808
 C1576 C 0.17423 0.23485 0.89998
 C1577 C 0.18353 0.22374 0.92550
 C1578 C 0.19962 0.24453 0.93721
 O1579 O 0.20083 0.26751 0.92073
 H1580 H 0.16094 0.22426 0.88483
 H1581 H 0.17919 0.20299 0.93444
 C1582 C 0.20623 0.85181 0.39212
 C1583 C 0.23130 0.86556 0.39308
 C1584 C 0.24450 0.85350 0.41600
 C1585 C 0.22651 0.83348 0.42735
 O1586 O 0.20345 0.83244 0.41300
 H1587 H 0.23950 0.88179 0.37845
 H1588 H 0.26494 0.85826 0.42311
 C1589 C 0.66095 0.70922 0.60392
 C1590 C 0.65251 0.73656 0.60168
 C1591 C 0.66924 0.74893 0.58096
 C1592 C 0.68664 0.72828 0.57196
 O1593 O 0.68185 0.70413 0.58596
 H1594 H 0.63614 0.74637 0.61382
 H1595 H 0.66866 0.77037 0.57309
 C1596 C 0.68537 0.20349 0.07193
 C1597 C 0.66519 0.21962 0.06014
 C1598 C 0.67769 0.23547 0.03863
 C1599 C 0.70450 0.22772 0.03828
 O1600 O 0.70937 0.20822 0.05839
 H1601 H 0.64391 0.22026 0.06658
 H1602 H 0.66849 0.25130 0.02510
 C1603 C 0.16431 0.69738 0.08596
 C1604 C 0.14903 0.72006 0.07769
 C1605 C 0.16320 0.73251 0.05483
 C1606 C 0.18584 0.71643 0.05060
 O1607 O 0.18661 0.69517 0.06933
 H1608 H 0.13057 0.72772 0.08784
 H1609 H 0.15818 0.75159 0.04331
 C1610 C 0.17491 0.19642 0.58589
 C1611 C 0.15631 0.21438 0.57392
 C1612 C 0.17050 0.22939 0.55266
 C1613 C 0.19662 0.21954 0.55332
 O1614 O 0.19933 0.19958 0.57331
 H1615 H 0.13497 0.21627 0.57969
 H1616 H 0.16278 0.24560 0.53849
   
