data_POSCAR
  _audit_creation_date              2014-09-24
  _audit_creation_method            'ToBaCCo'
  _symmetry_space_group_name_H-M    'P1'
  _symmetry_Int_Tables_number       1
  _symmetry_cell_setting            triclinic
  loop_
  _symmetry_equiv_pos_as_xyz
 x,y,z
_cell_length_a 86.5643
_cell_length_b 86.6273
_cell_length_c 86.3430
_cell_angle_alpha 90.012300
_cell_angle_beta 89.383200
_cell_angle_gamma 89.975100
loop_
  _atom_site_label
  _atom_site_type_symbol
  _atom_site_fract_x
  _atom_site_fract_y
  _atom_site_fract_z
C1 C 0.30796 0.44225 0.92576
 C2 C 0.30195 0.42891 0.93285
 C3 C 0.30930 0.42220 0.94562
 C4 C 0.32266 0.42924 0.95149
 C5 C 0.32922 0.44246 0.94446
 C6 C 0.32160 0.44878 0.93154
 H7 H 0.29164 0.42362 0.92826
 H8 H 0.32755 0.42456 0.96194
 H9 H 0.32671 0.45826 0.92518
 C10 C 0.43861 0.83171 0.43559
 C11 C 0.42537 0.82518 0.44272
 C12 C 0.41883 0.81137 0.43734
 C13 C 0.42556 0.80395 0.42449
 C14 C 0.43847 0.81027 0.41687
 C15 C 0.44495 0.82402 0.42254
 H16 H 0.41943 0.83123 0.45197
 H17 H 0.42083 0.79311 0.42049
 H18 H 0.45515 0.82844 0.41678
 C19 C 0.94788 0.92442 0.80938
 C20 C 0.93619 0.93227 0.80150
 C21 C 0.93014 0.94616 0.80725
 C22 C 0.93619 0.95236 0.82096
 C23 C 0.94771 0.94457 0.82943
 C24 C 0.95350 0.93057 0.82327
 H25 H 0.93159 0.92737 0.79098
 H26 H 0.93206 0.96355 0.82467
 H27 H 0.96166 0.92372 0.82970
 C28 C 0.44292 -0.08132 0.31121
 C29 C 0.44923 -0.07397 0.32418
 C30 C 0.44282 -0.06026 0.33008
 C31 C 0.43015 -0.05364 0.32252
 C32 C 0.42392 -0.06051 0.30922
 C33 C 0.43036 -0.07440 0.30368
 H34 H 0.45928 -0.07891 0.32966
 H35 H 0.42478 -0.04339 0.32733
 H36 H 0.42548 -0.07993 0.29362
 C37 C 0.80334 0.31090 0.32608
 C38 C 0.81762 0.30541 0.32046
 C39 C 0.82431 0.31157 0.30691
 C40 C 0.81655 0.32337 0.29899
 C41 C 0.80236 0.32911 0.30446
 C42 C 0.79567 0.32252 0.31779
 H43 H 0.82390 0.29684 0.32703
 H44 H 0.82181 0.32839 0.28874
 H45 H 0.78451 0.32658 0.32184
 C46 C -0.19232 0.83051 0.80742
 C47 C -0.19933 0.82304 0.82021
 C48 C -0.19367 0.80901 0.82598
 C49 C -0.18065 0.80228 0.81891
 C50 C -0.17315 0.80951 0.80637
 C51 C -0.17910 0.82351 0.80068
 H52 H -0.20867 0.82856 0.82651
 H53 H -0.17640 0.79131 0.82311
 H54 H -0.17341 0.82872 0.79080
 C55 C 0.94424 0.32302 0.44155
 C56 C 0.93134 0.31641 0.44919
 C57 C 0.92268 0.30458 0.44237
 C58 C 0.92733 0.29874 0.42793
 C59 C 0.94019 0.30488 0.42005
 C60 C 0.94852 0.31700 0.42690
 H61 H 0.92733 0.32097 0.46016
 H62 H 0.92071 0.28958 0.42265
 H63 H 0.95846 0.32155 0.42075
 C64 C 0.43742 0.44008 0.82566
 C65 C 0.44460 0.42750 0.81818
 C66 C 0.43782 0.42051 0.80525
 C67 C 0.42402 0.42657 0.79951
 C68 C 0.41643 0.43881 0.80699
 C69 C 0.42327 0.44562 0.81999
 H70 H 0.45532 0.42293 0.82260
 H71 H 0.41904 0.42163 0.78918
 H72 H 0.41725 0.45480 0.82607
 C73 C 0.80842 0.92565 0.94656
 C74 C 0.80204 0.93186 0.93290
 C75 C 0.80817 0.94522 0.92593
 C76 C 0.82102 0.95242 0.93259
 C77 C 0.82771 0.94650 0.94605
 C78 C 0.82106 0.93347 0.95315
 H79 H 0.79294 0.92584 0.92694
 H80 H 0.82602 0.96251 0.92711
 H81 H 0.82568 0.92978 0.96412
 C82 C 0.30634 0.82832 0.30869
 C83 C 0.32007 0.82127 0.30322
 C84 C 0.32636 0.80826 0.31056
 C85 C 0.31891 0.80229 0.32380
 C86 C 0.30535 0.80911 0.32966
 C87 C 0.29901 0.82181 0.32184
 H88 H 0.32659 0.82643 0.29382
 H89 H 0.32382 0.79246 0.32970
 H90 H 0.28801 0.82623 0.32589
 C91 C 0.80654 0.42481 0.44604
 C92 C 0.81991 0.43117 0.45258
 C93 C 0.82728 0.44420 0.44600
 C94 C 0.82056 0.45093 0.43278
 C95 C 0.80705 0.44491 0.42625
 C96 C 0.80013 0.43186 0.43297
 H97 H 0.82416 0.42612 0.46316
 H98 H 0.82633 0.46026 0.42676
 H99 H 0.78987 0.42702 0.42783
 C100 C 0.94387 0.82299 -0.05544
 C101 C 0.93042 0.81652 -0.04857
 C102 C 0.92308 0.80358 -0.05506
 C103 C 0.92922 0.79701 -0.06864
 C104 C 0.94267 0.80289 -0.07557
 C105 C 0.95001 0.81561 -0.06877
 H106 H 0.92514 0.82177 -0.03848
 H107 H 0.92315 0.78760 -0.07416
 H108 H 0.96088 0.81933 -0.07377
 C109 C 0.31280 0.32722 0.80492
 C110 C 0.30591 0.32081 0.81827
 C111 C 0.31236 0.30786 0.82557
 C112 C 0.32597 0.30138 0.81943
 C113 C 0.33300 0.30742 0.80600
 C114 C 0.32624 0.32028 0.79876
 H115 H 0.29559 0.32603 0.82315
 H116 H 0.33141 0.29189 0.82545
 H117 H 0.33137 0.32480 0.78822
 C118 C 0.17014 0.55855 0.56155
 C119 C 0.17787 0.57107 0.55469
 C120 C 0.19166 0.57678 0.56085
 C121 C 0.19780 0.56971 0.57407
 C122 C 0.19031 0.55710 0.58114
 C123 C 0.17651 0.55152 0.57471
 H124 H 0.17297 0.57657 0.54460
 H125 H 0.20832 0.57422 0.57900
 H126 H 0.17058 0.54186 0.58006
 C127 C 0.57144 0.69296 0.04929
 C128 C 0.56485 0.67936 0.04343
 C129 C 0.55180 0.67267 0.05057
 C130 C 0.54530 0.67983 0.06370
 C131 C 0.55152 0.69357 0.06962
 C132 C 0.56451 0.70011 0.06225
 H133 H 0.57008 0.67379 0.03346
 H134 H 0.53575 0.67435 0.06973
 H135 H 0.56921 0.71084 0.06658
 C136 C 0.70480 0.19940 0.67953
 C137 C 0.69183 0.20648 0.68633
 C138 C 0.68583 0.20123 0.70055
 C139 C 0.69298 0.18876 0.70799
 C140 C 0.70607 0.18140 0.70149
 C141 C 0.71209 0.18730 0.68742
 H142 H 0.68605 0.21575 0.68031
 H143 H 0.68739 0.18406 0.71819
 H144 H 0.72264 0.18263 0.68251
 C145 C 1.08454 0.06152 0.19190
 C146 C 1.07796 0.05355 0.17947
 C147 C 1.06404 0.05842 0.17266
 C148 C 1.05616 0.07099 0.17962
 C149 C 1.06237 0.07887 0.19241
 C150 C 1.07666 0.07414 0.19831
 H151 H 1.08370 0.04319 0.17546
 H152 H 1.04548 0.07519 0.17485
 H153 H 1.08193 0.08063 0.20757
 C154 C 0.05434 0.17030 1.05435
 C155 C 0.06674 0.17721 1.04636
 C156 C 0.07341 0.19090 1.05179
 C157 C 0.06735 0.19784 1.06524
 C158 C 0.05487 0.19125 1.07357
 C159 C 0.04850 0.17738 1.06785
 H160 H 0.07115 0.17198 1.03581
 H161 H 0.07243 0.20856 1.06903
 H162 H 0.03965 0.17139 1.07440
 C163 C 0.17325 0.69282 0.69492
 C164 C 0.18093 0.69802 0.68148
 C165 C 0.19312 0.68946 0.67481
 C166 C 0.19757 0.67550 0.68186
 C167 C 0.18987 0.67002 0.69518
 C168 C 0.17786 0.67886 0.70167
 H169 H 0.17721 0.70865 0.67608
 H170 H 0.20687 0.66875 0.67683
 H171 H 0.17185 0.67467 0.71190
 C172 C 1.18775 0.16821 0.18839
 C173 C 1.19413 0.17538 0.17517
 C174 C 1.18675 0.18802 0.16820
 C175 C 1.17297 0.19368 0.17482
 C176 C 1.16639 0.18676 0.18805
 C177 C 1.17383 0.17397 0.19468
 H178 H 1.20501 0.17128 0.17043
 H179 H 1.16728 0.20345 0.16957
 H180 H 1.16853 0.16820 0.20450
 C181 C 0.66884 1.06161 0.56345
 C182 C 0.67552 1.05457 0.57652
 C183 C 0.68909 1.06036 0.58308
 C184 C 0.69618 1.07335 0.57646
 C185 C 0.68971 1.08113 0.56375
 C186 C 0.67619 1.07486 0.55722
 H187 H 0.66974 1.04510 0.58232
 H188 H 0.70715 1.07703 0.58106
 H189 H 0.67124 1.08044 0.54731
 C190 C 0.56076 0.55749 0.16700
 C191 C 0.57320 0.55118 0.17519
 C192 C 0.57750 0.55716 0.18963
 C193 C 0.56907 0.56953 0.19596
 C194 C 0.55653 0.57600 0.18805
 C195 C 0.55244 0.56986 0.17358
 H196 H 0.57969 0.54168 0.17022
 H197 H 0.57245 0.57428 0.20702
 H198 H 0.54288 0.57485 0.16733
 C199 C 0.67217 0.69445 0.19421
 C200 C 0.67736 0.69948 0.17959
 C201 C 0.69051 0.69297 0.17254
 C202 C 0.69845 0.68115 0.18025
 C203 C 0.69342 0.67580 0.19483
 C204 C 0.68034 0.68269 0.20179
 H205 H 0.67077 0.70808 0.17339
 H206 H 0.70844 0.67592 0.17474
 H207 H 0.67655 0.67895 0.21318
 C208 C 0.17221 0.05918 1.05961
 C209 C 0.17980 0.07188 1.05259
 C210 C 0.19301 0.07858 1.05909
 C211 C 0.19907 0.07219 1.07263
 C212 C 0.19228 0.05919 1.07960
 C213 C 0.17888 0.05282 1.07308
 H214 H 0.17588 0.07634 1.04162
 H215 H 0.20889 0.07762 1.07806
 H216 H 0.17350 0.04319 1.07896
 C217 C 0.57431 0.19370 0.55114
 C218 C 0.56813 0.20036 0.56470
 C219 C 0.55485 0.19421 0.57190
 C220 C 0.54775 0.18120 0.56536
 C221 C 0.55362 0.17447 0.55173
 C222 C 0.56669 0.18102 0.54454
 H223 H 0.57390 0.21013 0.56989
 H224 H 0.53808 0.17585 0.57133
 H225 H 0.57105 0.17611 0.53382
 C226 C 0.07254 0.55524 0.69429
 C227 C 0.06581 0.54766 0.68168
 C228 C 0.05339 0.55422 0.67373
 C229 C 0.04750 0.56853 0.67868
 C230 C 0.05410 0.57643 0.69122
 C231 C 0.06659 0.56963 0.69899
 H232 H 0.07046 0.53669 0.67783
 H233 H 0.03792 0.57364 0.67257
 H234 H 0.07186 0.57565 0.70857
 C235 C 0.66868 0.56317 0.06243
 C236 C 0.67514 0.57717 0.05724
 C237 C 0.68686 0.58455 0.06565
 C238 C 0.69219 0.57764 0.07933
 C239 C 0.68586 0.56371 0.08475
 C240 C 0.67415 0.55657 0.07620
 H241 H 0.67092 0.58242 0.04673
 H242 H 0.70118 0.58323 0.08589
 H243 H 0.66915 0.54588 0.08038
 C244 C 0.05570 0.68773 0.57666
 C245 C 0.04920 0.67445 0.57004
 C246 C 0.05647 0.66687 0.55758
 C247 C 0.07043 0.67279 0.55165
 C248 C 0.07727 0.68598 0.55815
 C249 C 0.06972 0.69345 0.57056
 H250 H 0.03854 0.66980 0.57477
 H251 H 0.07613 0.66694 0.54210
 H252 H 0.07491 0.70357 0.57568
 C253 C 0.56940 1.06247 0.66592
 C254 C 0.58308 1.05687 0.67271
 C255 C 0.59076 1.06507 0.68436
 C256 C 0.58430 1.07891 0.68990
 C257 C 0.57047 1.08465 0.68373
 C258 C 0.56315 1.07637 0.67186
 H259 H 0.58769 1.04574 0.66940
 H260 H 0.59032 1.08550 0.69862
 H261 H 0.55282 1.08124 0.66696
 C262 C 0.43956 0.32797 0.94024
 C263 C 0.44525 0.32257 0.92579
 C264 C 0.43848 0.30987 0.91829
 C265 C 0.42582 0.30245 0.92531
 C266 C 0.41989 0.30749 0.93960
 C267 C 0.42698 0.31998 0.94706
 H268 H 0.45431 0.32874 0.91972
 H269 H 0.42043 0.29281 0.91951
 H270 H 0.42285 0.32303 0.95851
 C271 C 0.93896 0.43928 0.33031
 C272 C 0.92571 0.44636 0.32427
 C273 C 0.91857 0.44058 0.31090
 C274 C 0.92505 0.42759 0.30345
 C275 C 0.93825 0.42027 0.30937
 C276 C 0.94500 0.42617 0.32285
 H277 H 0.92086 0.45634 0.33010
 H278 H 0.91995 0.42331 0.29289
 H279 H 0.95476 0.42024 0.32786
 C280 C 0.31230 0.93856 0.42019
 C281 C 0.30698 0.92419 0.42595
 C282 C 0.31382 0.91716 0.43886
 C283 C 0.32615 0.92459 0.44616
 C284 C 0.33176 0.93878 0.44074
 C285 C 0.32469 0.94572 0.42793
 H286 H 0.29815 0.91784 0.41992
 H287 H 0.33156 0.91918 0.45602
 H288 H 0.32861 0.95708 0.42450
 O289 O 0.24427 0.47645 0.79541
 O290 O 0.21794 0.47903 0.79139
 O291 O 0.26233 0.45591 0.75450
 O292 O 0.26246 0.46048 0.72904
 O293 O 0.28450 0.49621 0.77314
 O294 O 0.27910 0.52261 0.77363
 O295 O 0.22166 0.49876 0.71503
 O296 O 0.22434 0.47242 0.71884
 O297 O 0.20341 0.51843 0.75453
 O298 O 0.20846 0.51740 0.78179
 O299 O 0.24299 0.53769 0.73496
 O300 O 0.26977 0.53181 0.73406
 O301 O 0.24074 0.51682 0.71419
 O302 O 0.26993 0.51388 0.71915
 O303 O 0.22452 0.53827 0.75385
 O304 O 0.22701 0.53178 0.78278
 O305 O 0.20231 0.49994 0.73591
 O306 O 0.20687 0.47175 0.74075
 O307 O 0.26293 0.49498 0.79552
 O308 O 0.26123 0.52295 0.79001
 O309 O 0.28416 0.47752 0.75465
 O310 O 0.27713 0.48018 0.72659
 O311 O 0.24410 0.45574 0.77365
 O312 O 0.21609 0.46252 0.77084
 Zr313 Zr 0.23466 0.47828 0.77332
 O314 O 0.21989 0.49275 0.76059
 Zr315 Zr 0.26159 0.47842 0.74560
 O316 O 0.24747 0.49193 0.73122
 Zr317 Zr 0.26204 0.50518 0.77322
 O318 O 0.24893 0.52034 0.75957
 Zr319 Zr 0.22401 0.48889 0.73697
 O320 O 0.23801 0.47342 0.74964
 Zr321 Zr 0.22545 0.51611 0.76403
 O322 O 0.23862 0.50173 0.77867
 Zr323 Zr 0.25189 0.51525 0.73587
 O324 O 0.26699 0.50176 0.74948
 O325 O 0.25806 0.48195 0.76911
 O326 O 0.22847 0.51226 0.74043
 C327 C 0.25524 0.48392 0.80198
 C328 C 0.25481 0.44922 0.76551
 C329 C 0.29098 0.48549 0.76514
 C330 C 0.22915 0.50967 0.70826
 C331 C 0.19651 0.51135 0.74354
 C332 C 0.23228 0.54453 0.74272
 H333 H 0.20901 0.49051 0.76337
 H334 H 0.25187 0.53109 0.76199
 H335 H 0.26476 0.47522 0.77540
 H336 H 0.24945 0.48927 0.72024
 H337 H 0.22760 0.46252 0.72351
 H338 H 0.25380 0.46229 0.72191
 H339 H 0.23516 0.53938 0.78021
 H340 H 0.25170 0.52133 0.79623
 H341 H 0.19930 0.47250 0.73225
 H342 H 0.21715 0.45426 0.77872
 H343 H 0.27052 0.53698 0.74423
 H344 H 0.28344 0.52321 0.76300
 H345 H 0.21819 0.48962 0.79570
 H346 H 0.20294 0.50742 0.78202
 H347 H 0.28388 0.48917 0.72861
 H348 H 0.26687 0.50630 0.71119
 O349 O 0.26977 -0.04130 0.25287
 O350 O 0.26561 -0.03807 0.22641
 O351 O 0.29702 -0.00209 0.26544
 O352 O 0.29514 0.02371 0.26408
 O353 O 0.25742 -0.01485 0.29307
 O354 O 0.23033 -0.01120 0.29041
 O355 O 0.25466 0.03980 0.22637
 O356 O 0.28091 0.03332 0.22725
 O357 O 0.22996 0.00194 0.21275
 O358 O 0.22900 -0.02545 0.22025
 O359 O 0.21604 0.02558 0.25228
 O360 O 0.22451 0.02657 0.27908
 O361 O 0.23850 0.04345 0.24701
 O362 O 0.24316 0.04030 0.27585
 O363 O 0.21231 0.00587 0.23536
 O364 O 0.21525 -0.02293 0.23918
 O365 O 0.25014 0.01826 0.20876
 O366 O 0.27793 0.01072 0.21119
 O367 O 0.25319 -0.03780 0.27323
 O368 O 0.22650 -0.02911 0.27456
 O369 O 0.27775 0.00140 0.28948
 O370 O 0.27734 0.02897 0.28093
 O371 O 0.29293 -0.02244 0.24935
 O372 O 0.28458 -0.02017 0.22192
 Zr373 Zr 0.27002 -0.01964 0.24185
 O374 O 0.25607 -0.00602 0.22742
 Zr375 Zr 0.27554 0.00933 0.26647
 O376 O 0.26225 0.02435 0.25274
 Zr377 Zr 0.24596 -0.01460 0.27174
 O378 O 0.23121 -0.00044 0.25875
 Zr379 Zr 0.26270 0.01716 0.22951
 O380 O 0.27781 0.00340 0.24286
 Zr381 Zr 0.23308 -0.00661 0.23529
 O382 O 0.24664 -0.02187 0.24853
 Zr383 Zr 0.23896 0.02256 0.25956
 O384 O 0.25247 0.00865 0.27440
 O385 O 0.26903 -0.01365 0.26515
 O386 O 0.23957 0.01644 0.23628
 C387 C 0.26244 -0.04614 0.26497
 C388 C 0.30148 -0.01445 0.25844
 C389 C 0.26964 -0.00796 0.29781
 C390 C 0.24501 0.04796 0.23432
 C391 C 0.23759 0.01167 0.20446
 C392 C 0.20781 0.01809 0.24253
 H393 H 0.25712 -0.00959 0.21657
 H394 H 0.22052 -0.00148 0.26275
 H395 H 0.27557 -0.02042 0.27159
 H396 H 0.26615 0.03503 0.25366
 H397 H 0.29053 0.02775 0.22986
 H398 H 0.29281 0.03121 0.25580
 H399 H 0.20912 -0.01947 0.24827
 H400 H 0.22571 -0.03526 0.26494
 H401 H 0.27752 0.01889 0.20317
 H402 H 0.29169 -0.02911 0.22276
 H403 H 0.21759 0.01755 0.28021
 H404 H 0.23217 -0.00061 0.29429
 H405 H 0.25470 -0.04112 0.22808
 H406 H 0.23767 -0.02593 0.21271
 H407 H 0.26847 0.02863 0.28825
 H408 H 0.25193 0.04656 0.27196
 O409 O 0.53471 0.72447 0.24605
 O410 O 0.52753 0.72492 0.27198
 O411 O 0.49511 0.70788 0.22236
 O412 O 0.47012 0.71402 0.22042
 O413 O 0.51883 0.74787 0.20573
 O414 O 0.51898 0.77429 0.21307
 O415 O 0.45345 0.74969 0.26278
 O416 O 0.45613 0.72342 0.25797
 O417 O 0.49162 0.76462 0.28678
 O418 O 0.51941 0.76245 0.28362
 O419 O 0.47799 0.78892 0.24717
 O420 O 0.48013 0.78539 0.21993
 O421 O 0.45603 0.76941 0.24554
 O422 O 0.46416 0.76869 0.21679
 O423 O 0.49425 0.78651 0.26750
 O424 O 0.52268 0.77883 0.26726
 O425 O 0.47167 0.74786 0.28399
 O426 O 0.47556 0.71990 0.27746
 O427 O 0.53798 0.74463 0.22942
 O428 O 0.53363 0.77236 0.23212
 O429 O 0.49887 0.73117 0.20257
 O430 O 0.47055 0.73495 0.20716
 O431 O 0.51191 0.70507 0.24223
 O432 O 0.50618 0.70956 0.27030
 Zr433 Zr 0.51167 0.72669 0.25356
 O434 O 0.49798 0.74054 0.26834
 Zr435 Zr 0.48739 0.73077 0.22425
 O436 O 0.47222 0.74403 0.23809
 Zr437 Zr 0.51620 0.75566 0.22866
 O438 O 0.50206 0.77049 0.24198
 Zr439 Zr 0.47489 0.73861 0.26162
 O440 O 0.48836 0.72361 0.24758
 Zr441 Zr 0.50337 0.76400 0.26536
 O442 O 0.51864 0.75000 0.25216
 Zr443 Zr 0.47869 0.76729 0.23632
 O444 O 0.49311 0.75419 0.22129
 O445 O 0.51046 0.73249 0.23025
 O446 O 0.48017 0.76200 0.25973
 C447 C 0.54297 0.73268 0.23672
 C448 C 0.50475 0.69993 0.23029
 C449 C 0.51089 0.73842 0.19755
 C450 C 0.44834 0.76171 0.25581
 C451 C 0.47936 0.75783 0.29180
 C452 C 0.48461 0.79420 0.25930
 H453 H 0.49929 0.73716 0.27920
 H454 H 0.50540 0.78127 0.24030
 H455 H 0.51722 0.72594 0.22369
 H456 H 0.46143 0.74231 0.23484
 H457 H 0.46063 0.71352 0.25438
 H458 H 0.46188 0.71592 0.22820
 H459 H 0.52169 0.78703 0.25935
 H460 H 0.53803 0.77031 0.24245
 H461 H 0.46622 0.72054 0.28417
 H462 H 0.51374 0.70098 0.26929
 H463 H 0.49068 0.78971 0.22049
 H464 H 0.50920 0.77510 0.20729
 H465 H 0.53239 0.73520 0.27309
 H466 H 0.51790 0.75233 0.28870
 H467 H 0.47367 0.74448 0.20163
 H468 H 0.45556 0.76130 0.21831
 O469 O 0.00286 0.71003 0.72905
 O470 O -0.02367 0.71323 0.73207
 O471 O 0.01815 0.75139 0.70674
 O472 O 0.01665 0.77684 0.71079
 O473 O 0.04227 0.73444 0.74614
 O474 O 0.03755 0.73542 0.77336
 O475 O -0.02341 0.78997 0.75007
 O476 O -0.02104 0.78555 0.72358
 O477 O -0.03967 0.75024 0.77092
 O478 O -0.03268 0.72271 0.76976
 O479 O -0.00142 0.77192 0.78871
 O480 O 0.02577 0.77300 0.78261
 O481 O -0.00391 0.79175 0.76745
 O482 O 0.02514 0.78778 0.76458
 O483 O -0.01826 0.75188 0.79033
 O484 O -0.01478 0.72344 0.78457
 O485 O -0.04181 0.76839 0.75208
 O486 O -0.03755 0.76315 0.72393
 O487 O 0.02161 0.71132 0.74734
 O488 O 0.02130 0.71762 0.77468
 O489 O 0.04026 0.75269 0.72736
 O490 O 0.03207 0.78019 0.72995
 O491 O 0.00135 0.73122 0.70755
 O492 O -0.02666 0.73304 0.71485
 Zr493 Zr -0.00784 0.73179 0.73036
 O494 O -0.02310 0.74428 0.74490
 Zr495 Zr 0.01737 0.76068 0.72911
 O496 O 0.00288 0.77462 0.74291
 Zr497 Zr 0.02011 0.73389 0.75648
 O498 O 0.00623 0.74694 0.77183
 Zr499 Zr -0.02028 0.76791 0.74053
 O500 O -0.00598 0.75543 0.72488
 Zr501 Zr -0.01710 0.74150 0.76824
 O502 O -0.00309 0.72732 0.75388
 Zr503 Zr 0.00790 0.77051 0.76626
 O504 O 0.02356 0.75762 0.75239
 O505 O 0.01533 0.73718 0.73325
 O506 O -0.01533 0.76503 0.76390
 C507 C 0.01404 0.70413 0.73678
 C508 C 0.01138 0.73977 0.70053
 C509 C 0.04790 0.74250 0.73491
 C510 C -0.01581 0.79721 0.76053
 C511 C -0.04719 0.76078 0.76372
 C512 C -0.01152 0.76379 0.79603
 H513 H -0.03386 0.74103 0.74295
 H514 H 0.00937 0.74487 0.78260
 H515 H 0.02216 0.73092 0.72646
 H516 H 0.00431 0.78558 0.74003
 H517 H -0.01779 0.78075 0.71365
 H518 H 0.00824 0.78417 0.71330
 H519 H -0.00612 0.72608 0.79146
 H520 H 0.01152 0.71171 0.77450
 H521 H -0.04543 0.77143 0.72462
 H522 H -0.02531 0.72493 0.70684
 H523 H 0.02666 0.76312 0.78825
 H524 H 0.04157 0.74611 0.77286
 H525 H -0.02313 0.70936 0.74283
 H526 H -0.03943 0.72312 0.76060
 H527 H 0.03894 0.77874 0.73893
 H528 H 0.02214 0.79502 0.75627
 O529 O -0.01849 -0.04729 0.00658
 O530 O -0.01685 -0.04071 0.03280
 O531 O -0.03798 -0.00737 -0.01482
 O532 O -0.03258 0.01780 -0.01677
 O533 O 0.00288 -0.02869 -0.03480
 O534 O 0.02957 -0.02841 -0.02819
 O535 O 0.00426 0.03477 0.02319
 O536 O -0.02205 0.03114 0.01968
 O537 O 0.02139 -0.00340 0.04618
 O538 O 0.01940 -0.03181 0.04247
 O539 O 0.04362 0.01204 0.00649
 O540 O 0.03909 0.00926 -0.02159
 O541 O 0.02350 0.03286 0.00513
 O542 O 0.02281 0.02579 -0.02309
 O543 O 0.04269 -0.00557 0.02595
 O544 O 0.03620 -0.03351 0.02624
 O545 O 0.00336 0.01560 0.04458
 O546 O -0.02436 0.01121 0.03903
 O547 O 0.00065 -0.04898 -0.01166
 O548 O 0.02818 -0.04432 -0.00986
 O549 O -0.01535 -0.00987 -0.03619
 O550 O -0.01237 0.01811 -0.03164
 O551 O -0.03880 -0.02524 0.00446
 O552 O -0.03357 -0.02030 0.03220
 Zr553 Zr -0.01682 -0.02439 0.01453
 O554 O -0.00313 -0.01037 0.02881
 Zr555 Zr -0.01510 0.00094 -0.01438
 O556 O -0.00159 0.01614 -0.00118
 Zr557 Zr 0.01114 -0.02698 -0.01200
 O558 O 0.02600 -0.01292 0.00109
 Zr559 Zr -0.00611 0.01283 0.02249
 O560 O -0.02114 -0.00101 0.00922
 Zr561 Zr 0.02035 -0.01496 0.02472
 O562 O 0.00663 -0.03038 0.01173
 Zr563 Zr 0.02186 0.01042 -0.00404
 O564 O 0.00843 -0.00378 -0.01866
 O565 O -0.01217 -0.02220 -0.00904
 O566 O 0.01739 0.00828 0.01956
 C567 C -0.01068 -0.05475 -0.00377
 C568 C -0.04500 -0.01772 -0.00670
 C569 C -0.00747 -0.02102 -0.04212
 C570 C 0.01588 0.04029 0.01561
 C571 C 0.01396 0.00823 0.05178
 C572 C 0.04961 0.00500 0.01808
 H573 H -0.00612 -0.01204 0.03977
 H574 H 0.03685 -0.01587 -0.00108
 H575 H -0.01878 -0.02892 -0.01545
 H576 H -0.00374 0.02692 -0.00423
 H577 H -0.03191 0.02638 0.01646
 H578 H -0.02995 0.02640 -0.00975
 H579 H 0.04309 -0.03306 0.01704
 H580 H 0.02688 -0.04878 0.00063
 H581 H -0.02399 0.02050 0.04574
 H582 H -0.04166 -0.02838 0.03159
 H583 H 0.04536 -0.00010 -0.01973
 H584 H 0.03000 -0.01831 -0.03353
 H585 H -0.00646 -0.04548 0.03288
 H586 H 0.01004 -0.02980 0.04884
 H587 H -0.00255 0.01585 -0.03718
 H588 H 0.01416 0.03318 -0.02196
 O589 O 0.04163 0.51551 0.50303
 O590 O 0.03551 0.51567 0.47657
 O591 O 0.00118 0.53154 0.52618
 O592 O -0.02399 0.52536 0.52738
 O593 O 0.02404 0.49060 0.54168
 O594 O 0.02372 0.46416 0.53297
 O595 O -0.03973 0.49200 0.48462
 O596 O -0.03644 0.51806 0.49019
 O597 O -0.00091 0.47762 0.45947
 O598 O 0.02733 0.48036 0.46303
 O599 O -0.01532 0.45160 0.49718
 O600 O -0.01332 0.45392 0.52532
 O601 O -0.03723 0.47108 0.50033
 O602 O -0.03028 0.46948 0.52848
 O603 O 0.00193 0.45506 0.47748
 O604 O 0.02988 0.46257 0.47789
 O605 O -0.02098 0.49413 0.46331
 O606 O -0.01683 0.52178 0.47062
 O607 O 0.04397 0.49432 0.51846
 O608 O 0.03980 0.46713 0.51482
 O609 O 0.00412 0.50742 0.54509
 O610 O -0.02371 0.50405 0.54042
 O611 O 0.01863 0.53490 0.50658
 O612 O 0.01451 0.53164 0.47851
 Zr613 Zr 0.01889 0.51372 0.49465
 O614 O 0.00532 0.50094 0.47910
 Zr615 Zr -0.00655 0.50868 0.52340
 O616 O -0.02126 0.49592 0.50900
 Zr617 Zr 0.02214 0.48367 0.51836
 O618 O 0.00866 0.46963 0.50388
 Zr619 Zr -0.01798 0.50257 0.48585
 O620 O -0.00465 0.51680 0.50047
 Zr621 Zr 0.01063 0.47740 0.48087
 O622 O 0.02554 0.49034 0.49515
 Zr623 Zr -0.01483 0.47254 0.50955
 O624 O -0.00115 0.48507 0.52540
 O625 O 0.01670 0.50697 0.51766
 O626 O -0.01273 0.47911 0.48648
 C627 C 0.04936 0.50666 0.51210
 C628 C 0.01101 0.53974 0.51849
 C629 C 0.01589 0.49991 0.55003
 C630 C -0.04494 0.47958 0.49094
 C631 C -0.01327 0.48448 0.45500
 C632 C -0.00812 0.44699 0.48493
 H633 H 0.00687 0.50485 0.46843
 H634 H 0.01198 0.45877 0.50496
 H635 H 0.02322 0.51324 0.52459
 H636 H -0.03211 0.49751 0.51233
 H637 H -0.03178 0.52770 0.49415
 H638 H -0.03245 0.52306 0.52015
 H639 H 0.02922 0.45447 0.48594
 H640 H 0.04414 0.46907 0.50435
 H641 H -0.02609 0.52149 0.46396
 H642 H 0.02238 0.53986 0.47983
 H643 H -0.00331 0.44870 0.52345
 H644 H 0.01384 0.46360 0.53883
 H645 H 0.04057 0.50547 0.47555
 H646 H 0.02519 0.49028 0.45781
 H647 H -0.02123 0.49386 0.54495
 H648 H -0.03790 0.47798 0.52825
 O649 O 0.54357 0.01528 0.50413
 O650 O 0.54063 0.01157 0.47753
 O651 O 0.50338 0.04025 0.51831
 O652 O 0.47775 0.03720 0.51825
 O653 O 0.51847 0.00006 0.54380
 O654 O 0.51550 -0.02706 0.53981
 O655 O 0.46287 -0.00136 0.47839
 O656 O 0.46870 0.02474 0.48034
 O657 O 0.50154 -0.02444 0.46240
 O658 O 0.52908 -0.02489 0.46944
 O659 O 0.47855 -0.04086 0.50122
 O660 O 0.47754 -0.03425 0.52836
 O661 O 0.45987 -0.01854 0.49813
 O662 O 0.46373 -0.01543 0.52730
 O663 O 0.49834 -0.04330 0.48390
 O664 O 0.52700 -0.03970 0.48749
 O665 O 0.48435 -0.00477 0.46000
 O666 O 0.49120 0.02305 0.46376
 O667 O 0.54120 -0.00257 0.52338
 O668 O 0.53342 -0.02963 0.52329
 O669 O 0.50133 0.01982 0.54171
 O670 O 0.47356 0.01856 0.53380
 O671 O 0.52365 0.03757 0.50155
 O672 O 0.52202 0.02993 0.47394
 Zr673 Zr 0.52198 0.01481 0.49328
 O674 O 0.50872 0.00108 0.47837
 Zr675 Zr 0.49309 0.01823 0.51883
 O676 O 0.47841 0.00512 0.50465
 Zr677 Zr 0.51821 -0.01059 0.52193
 O678 O 0.50434 -0.02523 0.50841
 Zr679 Zr 0.48537 0.00689 0.48134
 O680 O 0.49871 0.02178 0.49527
 Zr681 Zr 0.51016 -0.02217 0.48495
 O682 O 0.52513 -0.00871 0.49862
 Zr683 Zr 0.48106 -0.01836 0.51006
 O684 O 0.49471 -0.00511 0.52541
 O685 O 0.51629 0.01268 0.51662
 O686 O 0.48689 -0.01647 0.48674
 C687 C 0.54891 0.00764 0.51568
 C688 C 0.51532 0.04551 0.51104
 C689 C 0.51121 0.01181 0.54933
 C690 C 0.45499 -0.01142 0.48603
 C691 C 0.49139 -0.01680 0.45481
 C692 C 0.48620 -0.04842 0.49087
 H693 H 0.51213 0.00272 0.46753
 H694 H 0.50575 -0.03604 0.51175
 H695 H 0.52282 0.01930 0.52320
 H696 H 0.46762 0.00865 0.50604
 H697 H 0.47402 0.03437 0.48340
 H698 H 0.47074 0.03539 0.50948
 H699 H 0.52388 -0.04624 0.49637
 H700 H 0.53949 -0.02974 0.51350
 H701 H 0.48299 0.02272 0.45584
 H702 H 0.53070 0.03732 0.47498
 H703 H 0.48714 -0.04032 0.52942
 H704 H 0.50489 -0.02571 0.54399
 H705 H 0.54417 0.00078 0.47877
 H706 H 0.52926 -0.01584 0.46246
 H707 H 0.47456 0.00961 0.54085
 H708 H 0.45697 -0.00683 0.52405
 O709 O 0.50404 0.47486 -0.04534
 O710 O 0.53053 0.47887 -0.04129
 O711 O 0.48720 0.45482 -0.00367
 O712 O 0.48790 0.46036 0.02187
 O713 O 0.46306 0.49295 -0.02341
 O714 O 0.46731 0.52013 -0.02398
 O715 O 0.52549 0.50112 0.03455
 O716 O 0.52406 0.47443 0.03156
 O717 O 0.54360 0.51950 -0.00613
 O718 O 0.53802 0.51620 -0.03398
 O719 O 0.50414 0.53827 0.01282
 O720 O 0.47641 0.53139 0.01269
 O721 O 0.50552 0.51822 0.03433
 O722 O 0.47730 0.51542 0.02950
 O723 O 0.52206 0.53836 -0.00659
 O724 O 0.52003 0.53111 -0.03473
 O725 O 0.54506 0.50221 0.01358
 O726 O 0.54188 0.47375 0.00997
 O727 O 0.48471 0.49272 -0.04580
 O728 O 0.48426 0.52029 -0.04146
 O729 O 0.46457 0.47528 -0.00401
 O730 O 0.47120 0.47918 0.02343
 O731 O 0.50533 0.45494 -0.02292
 O732 O 0.53280 0.46262 -0.02047
 Zr733 Zr 0.51374 0.47775 -0.02329
 O734 O 0.52800 0.49304 -0.01096
 Zr735 Zr 0.48706 0.47768 0.00466
 O736 O 0.50035 0.49269 0.01832
 Zr737 Zr 0.48505 0.50337 -0.02385
 O738 O 0.49798 0.51965 -0.01134
 Zr739 Zr 0.52392 0.49023 0.01286
 O740 O 0.51077 0.47367 0.00063
 Zr741 Zr 0.52162 0.51591 -0.01561
 O742 O 0.50860 0.50071 -0.02946
 Zr743 Zr 0.49513 0.51566 0.01253
 O744 O 0.48055 0.50063 -0.00000
 O745 O 0.49023 0.48053 -0.01899
 O746 O 0.51866 0.51320 0.00817
 C747 C 0.49281 0.48185 -0.05205
 C748 C 0.49496 0.44818 -0.01458
 C749 C 0.45725 0.48221 -0.01486
 C750 C 0.51717 0.51178 0.04083
 C751 C 0.55059 0.51332 0.00537
 C752 C 0.51471 0.54489 0.00462
 H753 H 0.53896 0.49104 -0.01360
 H754 H 0.49478 0.53019 -0.01427
 H755 H 0.48383 0.47331 -0.02506
 H756 H 0.49836 0.49050 0.02940
 H757 H 0.52131 0.46423 0.02721
 H758 H 0.49511 0.46400 0.02988
 H759 H 0.51102 0.53792 -0.03295
 H760 H 0.49440 0.51995 -0.04688
 H761 H 0.54926 0.47515 0.01856
 H762 H 0.53222 0.45436 -0.02841
 H763 H 0.47703 0.53754 0.00305
 H764 H 0.46288 0.52034 -0.01336
 H765 H 0.52941 0.48911 -0.04624
 H766 H 0.54516 0.50743 -0.03247
 H767 H 0.46467 0.48835 0.02156
 H768 H 0.47938 0.50678 0.03668
 O769 O 0.75234 0.27044 0.45905
 O770 O 0.72589 0.27056 0.46381
 O771 O 0.77213 0.28969 0.49977
 O772 O 0.77209 0.28498 0.52522
 O773 O 0.79057 0.24766 0.48037
 O774 O 0.78270 0.22147 0.48121
 O775 O 0.72870 0.25170 0.54075
 O776 O 0.73333 0.27736 0.53612
 O777 O 0.70747 0.23367 0.50131
 O778 O 0.71295 0.23436 0.47350
 O779 O 0.74439 0.21035 0.52014
 O780 O 0.77194 0.21291 0.51978
 O781 O 0.74549 0.23148 0.54072
 O782 O 0.77439 0.23054 0.53472
 O783 O 0.72653 0.21149 0.50112
 O784 O 0.72895 0.21753 0.47266
 O785 O 0.70856 0.25198 0.52011
 O786 O 0.71582 0.27943 0.51490
 O787 O 0.76886 0.24997 0.45875
 O788 O 0.76531 0.22271 0.46459
 O789 O 0.79189 0.26619 0.49894
 O790 O 0.78509 0.26408 0.52704
 O791 O 0.75403 0.29148 0.48097
 O792 O 0.72572 0.28748 0.48404
 Zr793 Zr 0.74267 0.26992 0.48147
 O794 O 0.72658 0.25726 0.49481
 Zr795 Zr 0.76949 0.26728 0.50860
 O796 O 0.75426 0.25519 0.52335
 Zr797 Zr 0.76738 0.24047 0.48123
 O798 O 0.75258 0.22679 0.49504
 Zr799 Zr 0.73123 0.26070 0.51833
 O800 O 0.74655 0.27456 0.50506
 Zr801 Zr 0.72964 0.23349 0.49122
 O802 O 0.74438 0.24619 0.47626
 Zr803 Zr 0.75614 0.23150 0.51863
 O804 O 0.77259 0.24349 0.50481
 O805 O 0.76561 0.26403 0.48518
 O806 O 0.73310 0.23696 0.51478
 C807 C 0.76224 0.26158 0.45226
 C808 C 0.76514 0.29707 0.48901
 C809 C 0.79796 0.25787 0.48815
 C810 C 0.73529 0.24016 0.54732
 C811 C 0.70142 0.24148 0.51248
 C812 C 0.73322 0.20457 0.51237
 H813 H 0.71598 0.26065 0.49231
 H814 H 0.75432 0.21578 0.49257
 H815 H 0.77281 0.27011 0.47862
 H816 H 0.75669 0.25766 0.53423
 H817 H 0.73760 0.28679 0.53120
 H818 H 0.76358 0.28373 0.53283
 H819 H 0.73701 0.20965 0.47444
 H820 H 0.75549 0.22456 0.45911
 H821 H 0.70829 0.27953 0.52364
 H822 H 0.72749 0.29543 0.47594
 H823 H 0.77190 0.20765 0.50961
 H824 H 0.78730 0.22111 0.49165
 H825 H 0.72512 0.25996 0.45963
 H826 H 0.70762 0.24443 0.47425
 H827 H 0.79071 0.25432 0.52497
 H828 H 0.77286 0.23903 0.54225
 O829 O 0.74988 0.77175 -0.04223
 O830 O 0.72315 0.76927 -0.03881
 O831 O 0.76487 0.79508 -0.00138
 O832 O 0.76337 0.79153 0.02436
 O833 O 0.78879 0.75443 -0.01733
 O834 O 0.78327 0.72726 -0.01522
 O835 O 0.72330 0.75427 0.03911
 O836 O 0.72619 0.78044 0.03356
 O837 O 0.70599 0.73299 -0.00029
 O838 O 0.71328 0.73349 -0.02827
 O839 O 0.74382 0.71405 0.02127
 O840 O 0.77185 0.71983 0.02152
 O841 O 0.74174 0.73562 0.04066
 O842 O 0.77046 0.73711 0.03713
 O843 O 0.72715 0.71277 0.00117
 O844 O 0.73021 0.71762 -0.02708
 O845 O 0.70489 0.75188 0.01794
 O846 O 0.70934 0.77968 0.01160
 O847 O 0.76856 0.75336 -0.04014
 O848 O 0.76747 0.72637 -0.03354
 O849 O 0.78693 0.77391 0.00023
 O850 O 0.77907 0.77229 0.02773
 O851 O 0.74800 0.79391 -0.02135
 O852 O 0.72023 0.78732 -0.01973
 Zr853 Zr 0.73888 0.77140 -0.02031
 O854 O 0.72330 0.75801 -0.00705
 Zr855 Zr 0.76406 0.77291 0.00853
 O856 O 0.74947 0.75976 0.02302
 Zr857 Zr 0.76640 0.74475 -0.01745
 O858 O 0.75196 0.73023 -0.00411
 Zr859 Zr 0.72642 0.76285 0.01654
 O860 O 0.74085 0.77756 0.00324
 Zr861 Zr 0.72870 0.73454 -0.00943
 O862 O 0.74328 0.74777 -0.02410
 Zr863 Zr 0.75379 0.73616 0.01939
 O864 O 0.76976 0.74939 0.00618
 O865 O 0.76199 0.76814 -0.01488
 O866 O 0.73066 0.73930 0.01407
 C867 C 0.76126 0.76379 -0.04774
 C868 C 0.75786 0.80110 -0.01297
 C869 C 0.79452 0.76585 -0.00977
 C870 C 0.73028 0.74333 0.04629
 C871 C 0.69898 0.74050 0.01057
 C872 C 0.73368 0.70699 0.01313
 H873 H 0.71257 0.76027 -0.01017
 H874 H 0.75484 0.71935 -0.00603
 H875 H 0.76891 0.77464 -0.02132
 H876 H 0.75098 0.76281 0.03394
 H877 H 0.72959 0.79003 0.02830
 H878 H 0.75557 0.78894 0.03239
 H879 H 0.73938 0.71116 -0.02500
 H880 H 0.75763 0.72657 -0.03927
 H881 H 0.70153 0.77943 0.02008
 H882 H 0.72164 0.79485 -0.02830
 H883 H 0.77148 0.71293 0.01241
 H884 H 0.78748 0.72825 -0.00465
 H885 H 0.72397 0.75853 -0.04265
 H886 H 0.70635 0.74255 -0.02760
 H887 H 0.78512 0.76263 0.02685
 H888 H 0.76831 0.74639 0.04347
 O889 O 0.99488 0.20803 0.22512
 O890 O 0.96853 0.21206 0.22930
 O891 O 1.01093 0.24835 0.20216
 O892 O 1.01108 0.27393 0.20621
 O893 O 1.03555 0.23060 0.24127
 O894 O 1.03162 0.23194 0.26849
 O895 O 0.97213 0.28879 0.24628
 O896 O 0.97382 0.28420 0.21985
 O897 O 0.95483 0.24945 0.26755
 O898 O 0.96108 0.22210 0.26703
 O899 O 0.99504 0.26992 0.28485
 O900 O 1.02169 0.27058 0.27757
 O901 O 0.99176 0.29005 0.26355
 O902 O 1.02087 0.28518 0.25931
 O903 O 0.97669 0.25123 0.28653
 O904 O 0.97941 0.22250 0.28132
 O905 O 0.95327 0.26810 0.24912
 O906 O 0.95652 0.26246 0.22075
 O907 O 1.01421 0.20856 0.24281
 O908 O 1.01438 0.21501 0.27044
 O909 O 1.03390 0.24863 0.22223
 O910 O 1.02700 0.27663 0.22495
 O911 O 0.99314 0.22910 0.20381
 O912 O 0.96564 0.23182 0.21198
 Zr913 Zr 0.98494 0.23005 0.22685
 O914 O 0.97061 0.24322 0.24159
 Zr915 Zr 1.01141 0.25781 0.22457
 O916 O 0.99781 0.27249 0.23861
 Zr917 Zr 1.01367 0.23116 0.25211
 O918 O 1.00079 0.24497 0.26765
 Zr919 Zr 0.97436 0.26665 0.23689
 O920 O 0.98773 0.25350 0.22103
 Zr921 Zr 0.97719 0.24035 0.26473
 O922 O 0.99018 0.22546 0.25019
 Zr923 Zr 1.00319 0.26847 0.26190
 O924 O 1.01796 0.25473 0.24777
 O925 O 1.00840 0.23450 0.22899
 O926 O 0.97973 0.26378 0.26016
 C927 C 1.00618 0.20175 0.23233
 C928 C 1.00323 0.23712 0.19631
 C929 C 1.04124 0.23816 0.22975
 C930 C 0.97985 0.29579 0.25678
 C931 C 0.94770 0.26044 0.26064
 C932 C 0.98447 0.26246 0.29224
 H933 H 0.95969 0.24037 0.23994
 H934 H 1.00417 0.24286 0.27834
 H935 H 1.01476 0.22798 0.22200
 H936 H 0.99953 0.28337 0.23559
 H937 H 0.97670 0.27925 0.20989
 H938 H 1.00285 0.28147 0.20872
 H939 H 0.98818 0.22511 0.28809
 H940 H 1.00452 0.20924 0.27020
 H941 H 0.94890 0.27096 0.22171
 H942 H 0.96634 0.22351 0.20409
 H943 H 1.02283 0.26050 0.28281
 H944 H 1.03618 0.24239 0.26776
 H945 H 0.96973 0.20780 0.23986
 H946 H 0.95456 0.22213 0.25769
 H947 H 1.03400 0.27490 0.23378
 H948 H 1.01751 0.29276 0.25147
 O949 O 0.77956 0.96569 0.75238
 O950 O 0.77773 0.97037 0.72610
 O951 O 0.79967 1.00659 0.77098
 O952 O 0.79458 1.03185 0.77194
 O953 O 0.75961 0.98646 0.79287
 O954 O 0.73277 0.98700 0.78740
 O955 O 0.75805 1.04646 0.73116
 O956 O 0.78423 1.04228 0.73372
 O957 O 0.73898 1.00712 0.71116
 O958 O 0.74001 0.97950 0.71661
 O959 O 0.71823 1.02604 0.75061
 O960 O 0.72264 1.02588 0.77745
 O961 O 0.73935 1.04673 0.74989
 O962 O 0.74097 1.04040 0.77911
 O963 O 0.71846 1.00771 0.73180
 O964 O 0.72437 0.97890 0.73424
 O965 O 0.75671 1.02644 0.71133
 O966 O 0.78488 1.02119 0.71564
 O967 O 0.76043 0.96501 0.77069
 O968 O 0.73272 0.97064 0.76948
 O969 O 0.77791 1.00527 0.79273
 O970 O 0.77472 1.03339 0.78647
 O971 O 0.80034 0.98759 0.75282
 O972 O 0.79423 0.99092 0.72475
 Zr973 Zr 0.77800 0.98798 0.74311
 O974 O 0.76393 1.00101 0.72826
 Zr975 Zr 0.77701 1.01501 0.77045
 O976 O 0.76373 1.02957 0.75642
 Zr977 Zr 0.75048 0.98735 0.77036
 O978 O 0.73555 1.00108 0.75696
 Zr979 Zr 0.76755 1.02443 0.73292
 O980 O 0.78270 1.01150 0.74690
 Zr981 Zr 0.74044 0.99731 0.73338
 O982 O 0.75447 0.98253 0.74679
 Zr983 Zr 0.74029 1.02466 0.76037
 O984 O 0.75357 1.01092 0.77560
 O985 O 0.77378 0.99163 0.76656
 O986 O 0.74407 1.02077 0.73688
 C987 C 0.77166 0.95877 0.76298
 C988 C 0.80661 0.99575 0.76352
 C989 C 0.77034 0.99433 0.79939
 C990 C 0.74703 1.05305 0.73870
 C991 C 0.74588 1.01870 0.70487
 C992 C 0.71192 1.01875 0.73938
 H993 H 0.76649 0.99855 0.71734
 H994 H 0.72470 0.99859 0.75961
 H995 H 0.78047 0.98515 0.77313
 H996 H 0.76630 1.04045 0.75870
 H997 H 0.79405 1.03741 0.73691
 H998 H 0.79305 1.03902 0.76319
 H999 H 0.71664 0.98126 0.74242
 H1000 H 0.73391 0.96525 0.75943
 H1001 H 0.78422 1.02991 0.70825
 H1002 H 0.80247 0.98304 0.72579
 H1003 H 0.71835 1.01537 0.77864
 H1004 H 0.73277 0.99733 0.79231
 H1005 H 0.76711 0.96613 0.72608
 H1006 H 0.74972 0.98014 0.71050
 H1007 H 0.76572 1.03097 0.79322
 H1008 H 0.74871 1.04843 0.77655
 O1009 O 0.74819 0.54582 0.23699
 O1010 O 0.77453 0.53934 0.23879
 O1011 O 0.72738 0.50760 0.21458
 O1012 O 0.72579 0.48201 0.21778
 O1013 O 0.70725 0.52596 0.25626
 O1014 O 0.71318 0.52304 0.28324
 O1015 O 0.76479 0.46214 0.25387
 O1016 O 0.76201 0.46810 0.22766
 O1017 O 0.78770 0.49908 0.27439
 O1018 O 0.78416 0.52715 0.27468
 O1019 O 0.74754 0.48189 0.29466
 O1020 O 0.71972 0.48506 0.29003
 O1021 O 0.74650 0.46275 0.27298
 O1022 O 0.71841 0.46989 0.27242
 O1023 O 0.76697 0.49947 0.29548
 O1024 O 0.76717 0.52820 0.29080
 O1025 O 0.78597 0.48088 0.25554
 O1026 O 0.78159 0.48785 0.22782
 O1027 O 0.73020 0.54590 0.25643
 O1028 O 0.73141 0.53913 0.28350
 O1029 O 0.70593 0.50808 0.23704
 O1030 O 0.71062 0.47998 0.23769
 O1031 O 0.74697 0.52507 0.21493
 O1032 O 0.77455 0.52016 0.22054
 Zr1033 Zr 0.75653 0.52288 0.23718
 O1034 O 0.77062 0.50782 0.25006
 Zr1035 Zr 0.72774 0.49740 0.23665
 O1036 O 0.74074 0.48123 0.24915
 Zr1037 Zr 0.72970 0.52322 0.26503
 O1038 O 0.74255 0.50812 0.27899
 Zr1039 Zr 0.76442 0.48488 0.24531
 O1040 O 0.75138 0.49984 0.23111
 Zr1041 Zr 0.76621 0.51060 0.27383
 O1042 O 0.75341 0.52700 0.26107
 Zr1043 Zr 0.73743 0.48522 0.27294
 O1044 O 0.72302 0.50035 0.26042
 O1045 O 0.73299 0.52024 0.24139
 O1046 O 0.76105 0.48766 0.26906
 C1047 C 0.73782 0.55256 0.24545
 C1048 C 0.73572 0.51817 0.20822
 C1049 C 0.70005 0.51893 0.24538
 C1050 C 0.75704 0.45584 0.26499
 C1051 C 0.79311 0.48755 0.26665
 C1052 C 0.75896 0.48842 0.30139
 H1053 H 0.78161 0.50965 0.24741
 H1054 H 0.74022 0.51025 0.29002
 H1055 H 0.72669 0.52742 0.23517
 H1056 H 0.73773 0.47065 0.24611
 H1057 H 0.75914 0.47376 0.21815
 H1058 H 0.73289 0.47332 0.21977
 H1059 H 0.75837 0.52669 0.29805
 H1060 H 0.74190 0.54365 0.28281
 H1061 H 0.78825 0.47853 0.22777
 H1062 H 0.77406 0.52884 0.21306
 H1063 H 0.72133 0.49407 0.29687
 H1064 H 0.70756 0.51313 0.28242
 H1065 H 0.77427 0.54338 0.24951
 H1066 H 0.79000 0.52658 0.26479
 H1067 H 0.70485 0.48146 0.24754
 H1068 H 0.71970 0.46312 0.26327
 O1069 O 0.54925 0.23401 0.74796
 O1070 O 0.54358 0.23617 0.77452
 O1071 O 0.50966 0.21237 0.72875
 O1072 O 0.48381 0.21637 0.72931
 O1073 O 0.52831 0.25257 0.70736
 O1074 O 0.52678 0.27961 0.71279
 O1075 O 0.46700 0.25476 0.76837
 O1076 O 0.47154 0.22830 0.76569
 O1077 O 0.50596 0.27399 0.78870
 O1078 O 0.53379 0.27282 0.78374
 O1079 O 0.48806 0.29394 0.74910
 O1080 O 0.48969 0.28787 0.72089
 O1081 O 0.46769 0.27336 0.74979
 O1082 O 0.47303 0.27167 0.72152
 O1083 O 0.50655 0.29437 0.76757
 O1084 O 0.53491 0.28824 0.76635
 O1085 O 0.48682 0.25604 0.78850
 O1086 O 0.49218 0.22792 0.78416
 O1087 O 0.54919 0.25258 0.72927
 O1088 O 0.54354 0.27982 0.73018
 O1089 O 0.50962 0.23414 0.70709
 O1090 O 0.48187 0.23588 0.71332
 O1091 O 0.52781 0.21261 0.74761
 O1092 O 0.52368 0.21882 0.77540
 Zr1093 Zr 0.52655 0.23498 0.75712
 O1094 O 0.51270 0.24887 0.77175
 Zr1095 Zr 0.49994 0.23469 0.72961
 O1096 O 0.48485 0.24832 0.74324
 Zr1097 Zr 0.52687 0.26200 0.72973
 O1098 O 0.51302 0.27693 0.74309
 Zr1099 Zr 0.48929 0.24505 0.76686
 O1100 O 0.50307 0.22982 0.75328
 Zr1101 Zr 0.51642 0.27225 0.76667
 O1102 O 0.53163 0.25847 0.75328
 Zr1103 Zr 0.48965 0.27177 0.73933
 O1104 O 0.50356 0.25816 0.72434
 O1105 O 0.52314 0.23868 0.73362
 O1106 O 0.49304 0.26846 0.76289
 C1107 C 0.55582 0.24185 0.73704
 C1108 C 0.52044 0.20592 0.73663
 C1109 C 0.52061 0.24187 0.70062
 C1110 C 0.46091 0.26604 0.76088
 C1111 C 0.49441 0.26700 0.79499
 C1112 C 0.49554 0.30064 0.75998
 H1113 H 0.51491 0.24644 0.78270
 H1114 H 0.51556 0.28772 0.74039
 H1115 H 0.52990 0.23213 0.72705
 H1116 H 0.47401 0.24571 0.74089
 H1117 H 0.47658 0.21849 0.76260
 H1118 H 0.47518 0.21935 0.73628
 H1119 H 0.53338 0.29529 0.75749
 H1120 H 0.54867 0.27915 0.74034
 H1121 H 0.48321 0.22855 0.79137
 H1122 H 0.53202 0.21098 0.77463
 H1123 H 0.49870 0.29476 0.72222
 H1124 H 0.51660 0.27908 0.70769
 H1125 H 0.54804 0.24668 0.77404
 H1126 H 0.53282 0.26331 0.79003
 H1127 H 0.48319 0.24572 0.70763
 H1128 H 0.46635 0.26253 0.72305
 O1129 O 0.25060 0.70913 0.52478
 O1130 O 0.27679 0.71441 0.52116
 O1131 O 0.23184 0.75039 0.54425
 O1132 O 0.23091 0.77555 0.53813
 O1133 O 0.20918 0.72839 0.50621
 O1134 O 0.21362 0.72781 0.47905
 O1135 O 0.26982 0.78894 0.49728
 O1136 O 0.26775 0.78664 0.52407
 O1137 O 0.28915 0.74927 0.47956
 O1138 O 0.28465 0.72142 0.48304
 O1139 O 0.24952 0.76624 0.46045
 O1140 O 0.22185 0.76516 0.46702
 O1141 O 0.25018 0.78784 0.48001
 O1142 O 0.22175 0.78189 0.48329
 O1143 O 0.26774 0.74736 0.46037
 O1144 O 0.26675 0.71941 0.46836
 O1145 O 0.28989 0.76895 0.49693
 O1146 O 0.28605 0.76571 0.52552
 O1147 O 0.23163 0.70732 0.50679
 O1148 O 0.23146 0.71143 0.47888
 O1149 O 0.20927 0.74837 0.52329
 O1150 O 0.21528 0.77614 0.51898
 O1151 O 0.25021 0.73160 0.54438
 O1152 O 0.27786 0.73567 0.53695
 Zr1153 Zr 0.25930 0.73151 0.52165
 O1154 O 0.27337 0.74406 0.50612
 Zr1155 Zr 0.23157 0.75804 0.52108
 O1156 O 0.24479 0.77207 0.50603
 Zr1157 Zr 0.23121 0.72911 0.49578
 O1158 O 0.24383 0.74206 0.47933
 Zr1159 Zr 0.26847 0.76762 0.50868
 O1160 O 0.25535 0.75522 0.52538
 Zr1161 Zr 0.26751 0.73886 0.48318
 O1162 O 0.25486 0.72469 0.49867
 Zr1163 Zr 0.24018 0.76580 0.48305
 O1164 O 0.22575 0.75271 0.49808
 O1165 O 0.23570 0.73460 0.51865
 O1166 O 0.26376 0.76244 0.48566
 C1167 C 0.23983 0.70173 0.51783
 C1168 C 0.23965 0.73976 0.55105
 C1169 C 0.20267 0.73688 0.51660
 C1170 C 0.26172 0.79469 0.48631
 C1171 C 0.29579 0.76093 0.48582
 C1172 C 0.26020 0.75826 0.45378
 H1173 H 0.28438 0.74192 0.50823
 H1174 H 0.24086 0.73887 0.46879
 H1175 H 0.22942 0.72835 0.52594
 H1176 H 0.24247 0.78307 0.50807
 H1177 H 0.26494 0.78245 0.53439
 H1178 H 0.23874 0.78329 0.53506
 H1179 H 0.25778 0.72065 0.46146
 H1180 H 0.24160 0.70622 0.47966
 H1181 H 0.29325 0.77451 0.52406
 H1182 H 0.27735 0.72799 0.54547
 H1183 H 0.22252 0.75524 0.46140
 H1184 H 0.20894 0.73822 0.47853
 H1185 H 0.27639 0.70948 0.51084
 H1186 H 0.29147 0.72323 0.49197
 H1187 H 0.20882 0.77367 0.50993
 H1188 H 0.22393 0.78968 0.49136
 O1189 O 0.26462 0.29162 0.99899
 O1190 O 0.26149 0.28457 1.02513
 O1191 O 0.28812 0.25384 0.97800
 O1192 O 0.28482 0.22849 0.97499
 O1193 O 0.24743 0.27304 0.95697
 O1194 O 0.22035 0.27000 0.96188
 O1195 O 0.24681 0.20792 1.01349
 O1196 O 0.27309 0.21361 1.01114
 O1197 O 0.22540 0.24423 1.03626
 O1198 O 0.22485 0.27216 1.03333
 O1199 O 0.20713 0.22782 0.99478
 O1200 O 0.21328 0.23121 0.96740
 O1201 O 0.22863 0.20870 0.99468
 O1202 O 0.23138 0.21641 0.96627
 O1203 O 0.20528 0.24482 1.01476
 O1204 O 0.20985 0.27364 1.01570
 O1205 O 0.24452 0.22628 1.03482
 O1206 O 0.27233 0.23320 1.03102
 O1207 O 0.24598 0.29247 0.98059
 O1208 O 0.21886 0.28534 0.98073
 O1209 O 0.26670 0.25522 0.95565
 O1210 O 0.26560 0.22679 0.95969
 O1211 O 0.28646 0.27123 0.99770
 O1212 O 0.27967 0.26533 1.02509
 Zr1213 Zr 0.26392 0.26857 1.00670
 O1214 O 0.25036 0.25327 1.02006
 Zr1215 Zr 0.26597 0.24386 0.97722
 O1216 O 0.25296 0.22733 0.98957
 Zr1217 Zr 0.23754 0.26967 0.97908
 O1218 O 0.22303 0.25411 0.99105
 Zr1219 Zr 0.25555 0.23052 1.01348
 O1220 O 0.27033 0.24572 1.00112
 Zr1221 Zr 0.22687 0.25608 1.01496
 O1222 O 0.24026 0.27283 1.00303
 Zr1223 Zr 0.22941 0.23129 0.98565
 O1224 O 0.24249 0.24692 0.97196
 O1225 O 0.26094 0.26657 0.98294
 O1226 O 0.23204 0.23330 1.00946
 C1227 C 0.25665 0.29878 0.98873
 C1228 C 0.29387 0.26445 0.98664
 C1229 C 0.25866 0.26625 0.94986
 C1230 C 0.23597 0.20175 1.00553
 C1231 C 0.23306 0.23279 1.04178
 C1232 C 0.19980 0.23403 1.00619
 H1233 H 0.25244 0.25491 1.03118
 H1234 H 0.21216 0.25625 0.98840
 H1235 H 0.26744 0.27392 0.97702
 H1236 H 0.25617 0.21680 0.98648
 H1237 H 0.28276 0.21921 1.00861
 H1238 H 0.28288 0.21994 0.98234
 H1239 H 0.20300 0.27217 1.00672
 H1240 H 0.21914 0.28978 0.99129
 H1241 H 0.27212 0.22378 1.03755
 H1242 H 0.28717 0.27399 1.02501
 H1243 H 0.20681 0.24056 0.96853
 H1244 H 0.22139 0.26019 0.95608
 H1245 H 0.25084 0.28870 1.02465
 H1246 H 0.23459 0.27184 1.03921
 H1247 H 0.25621 0.22863 0.95352
 H1248 H 0.23983 0.20900 0.96827
 C1249 C 0.31614 0.35294 0.79173
 C1250 C 0.31013 0.36676 0.78599
 C1251 C 0.29422 0.36957 0.78647
 C1252 C 0.28425 0.35814 0.79232
 C1253 C 0.29022 0.34420 0.79786
 C1254 C 0.30628 0.34151 0.79788
 N1255 N 0.28860 0.38420 0.78122
 N1256 N 0.27478 0.38872 0.78361
 C1257 C 0.26953 0.40352 0.77836
 C1258 C 0.25528 0.40923 0.78366
 C1259 C 0.25030 0.42400 0.77937
 C1260 C 0.25944 0.43321 0.76947
 C1261 C 0.27356 0.42724 0.76386
 C1262 C 0.27859 0.41260 0.76832
 H1263 H 0.32855 0.35144 0.79177
 H1264 H 0.31793 0.37549 0.78152
 H1265 H 0.27188 0.35999 0.79264
 H1266 H 0.28224 0.33556 0.80216
 H1267 H 0.24818 0.40234 0.79141
 H1268 H 0.23938 0.42824 0.78388
 H1269 H 0.28095 0.43403 0.75630
 H1270 H 0.28962 0.40845 0.76400
 C1271 C 0.30381 -0.15460 0.28584
 C1272 C 0.29854 -0.14093 0.27909
 C1273 C 0.28965 -0.13048 0.28767
 C1274 C 0.28586 -0.13393 0.30311
 C1275 C 0.29114 -0.14752 0.30994
 C1276 C 0.30039 -0.15815 0.30151
 N1277 N 0.28511 -0.11620 0.28069
 N1278 N 0.27647 -0.10658 0.28778
 C1279 C 0.27235 -0.09197 0.28128
 C1280 C 0.26243 -0.08230 0.28970
 C1281 C 0.25889 -0.06756 0.28422
 C1282 C 0.26531 -0.06219 0.27018
 C1283 C 0.27506 -0.07208 0.26158
 C1284 C 0.27854 -0.08685 0.26707
 H1285 H 0.31022 -0.16248 0.27849
 H1286 H 0.30144 -0.13845 0.26711
 H1287 H 0.27912 -0.12593 0.31007
 H1288 H 0.28855 -0.14910 0.32211
 H1289 H 0.25763 -0.08611 0.30068
 H1290 H 0.25137 -0.06028 0.29117
 H1291 H 0.28021 -0.06833 0.25073
 H1292 H 0.28628 -0.09413 0.26038
 C1293 C 0.78610 0.84899 0.80434
 C1294 C 0.78043 0.86326 0.79943
 C1295 C 0.79006 0.87371 0.79175
 C1296 C 0.80553 0.86970 0.78888
 C1297 C 0.81131 0.85549 0.79385
 C1298 C 0.80176 0.84482 0.80185
 N1299 N 0.78397 0.88842 0.78729
 N1300 N 0.79185 0.89789 0.77918
 C1301 C 0.78615 0.91281 0.77494
 C1302 C 0.79507 0.92189 0.76492
 C1303 C 0.79021 0.93668 0.76085
 C1304 C 0.77630 0.94277 0.76687
 C1305 C 0.76729 0.93358 0.77691
 C1306 C 0.77214 0.91868 0.78087
 H1307 H 0.77792 0.84115 0.80966
 H1308 H 0.76842 0.86614 0.80157
 H1309 H 0.81328 0.87768 0.78307
 H1310 H 0.82350 0.85340 0.79201
 H1311 H 0.80591 0.91750 0.76032
 H1312 H 0.79751 0.94343 0.75317
 H1313 H 0.75653 0.93791 0.78174
 H1314 H 0.76507 0.91186 0.78870
 C1315 C 0.45376 0.89242 0.31687
 C1316 C 0.45951 0.87811 0.31206
 C1317 C 0.46065 0.87454 0.29631
 C1318 C 0.45610 0.88557 0.28531
 C1319 C 0.45044 0.89995 0.29010
 C1320 C 0.44916 0.90353 0.30595
 N1321 N 0.46621 0.85960 0.29185
 N1322 N 0.46618 0.85504 0.27784
 C1323 C 0.47154 0.84002 0.27338
 C1324 C 0.46925 0.83511 0.25816
 C1325 C 0.47367 0.82029 0.25356
 C1326 C 0.48066 0.81014 0.26410
 C1327 C 0.48329 0.81522 0.27931
 C1328 C 0.47869 0.83002 0.28395
 H1329 H 0.45266 0.89466 0.32917
 H1330 H 0.46290 0.86969 0.32064
 H1331 H 0.45693 0.88309 0.27304
 H1332 H 0.44721 0.90831 0.28139
 H1333 H 0.46378 0.84272 0.24992
 H1334 H 0.47155 0.81677 0.24173
 H1335 H 0.48858 0.80765 0.28771
 H1336 H 0.48062 0.83359 0.29579
 C1337 C -0.03044 0.90575 0.80422
 C1338 C -0.02497 0.89157 0.79874
 C1339 C -0.03514 0.88085 0.79229
 C1340 C -0.05093 0.88442 0.79145
 C1341 C -0.05644 0.89854 0.79703
 C1342 C -0.04625 0.90940 0.80344
 N1343 N -0.02920 0.86637 0.78692
 N1344 N -0.03756 0.85673 0.77971
 C1345 C -0.03173 0.84209 0.77466
 C1346 C -0.04112 0.83260 0.76565
 C1347 C -0.03589 0.81809 0.76082
 C1348 C -0.02117 0.81280 0.76508
 C1349 C -0.01176 0.82241 0.77411
 C1350 C -0.01696 0.83694 0.77881
 H1351 H -0.02229 0.91393 0.80893
 H1352 H -0.01277 0.88893 0.79945
 H1353 H -0.05904 0.87626 0.78665
 H1354 H -0.06872 0.90084 0.79655
 H1355 H -0.05255 0.83643 0.76243
 H1356 H -0.04347 0.81094 0.75397
 H1357 H -0.00036 0.81869 0.77758
 H1358 H -0.00950 0.84407 0.78582
 C1359 C -0.04007 -0.15363 -0.05916
 C1360 C -0.03362 -0.13998 -0.05358
 C1361 C -0.03618 -0.13534 -0.03831
 C1362 C -0.04513 -0.14470 -0.02846
 C1363 C -0.05152 -0.15849 -0.03394
 C1364 C -0.04923 -0.16327 -0.04950
 N1365 N -0.02978 -0.12094 -0.03332
 N1366 N -0.03281 -0.11496 -0.02016
 C1367 C -0.02641 -0.10036 -0.01570
 C1368 C -0.03179 -0.09318 -0.00215
 C1369 C -0.02647 -0.07850 0.00195
 C1370 C -0.01550 -0.07078 -0.00739
 C1371 C -0.00979 -0.07825 -0.02075
 C1372 C -0.01523 -0.09284 -0.02490
 H1373 H -0.03836 -0.15603 -0.07134
 H1374 H -0.02687 -0.13277 -0.06134
 H1375 H -0.04713 -0.14140 -0.01651
 H1376 H -0.05783 -0.16550 -0.02569
 H1377 H -0.04039 -0.09884 0.00505
 H1378 H -0.03110 -0.07311 0.01233
 H1379 H -0.00139 -0.07265 -0.02825
 H1380 H -0.01082 -0.09816 -0.03540
 C1381 C -0.04810 0.33838 0.46434
 C1382 C -0.04183 0.35178 0.47069
 C1383 C -0.03509 0.36295 0.46117
 C1384 C -0.03413 0.36035 0.44516
 C1385 C -0.04042 0.34697 0.43872
 C1386 C -0.04794 0.33586 0.44815
 N1387 N -0.03007 0.37714 0.46797
 N1388 N -0.02350 0.38770 0.46006
 C1389 C -0.01923 0.40218 0.46678
 C1390 C -0.01085 0.41274 0.45779
 C1391 C -0.00705 0.42721 0.46376
 C1392 C -0.01172 0.43144 0.47884
 C1393 C -0.02010 0.42077 0.48787
 C1394 C -0.02377 0.40623 0.48192
 H1395 H -0.05284 0.32997 0.47232
 H1396 H -0.04242 0.35356 0.48310
 H1397 H -0.02899 0.36889 0.43753
 H1398 H -0.04020 0.34603 0.42624
 H1399 H -0.00737 0.40977 0.44608
 H1400 H -0.00067 0.43519 0.45645
 H1401 H -0.02384 0.42365 0.49953
 H1402 H -0.03034 0.39828 0.48906
 C1403 C 0.45413 -0.14454 0.43160
 C1404 C 0.46051 -0.13087 0.43726
 C1405 C 0.45809 -0.12643 0.45263
 C1406 C 0.44930 -0.13593 0.46245
 C1407 C 0.44299 -0.14969 0.45691
 C1408 C 0.44518 -0.15432 0.44129
 N1409 N 0.46466 -0.11222 0.45791
 N1410 N 0.46170 -0.10663 0.47125
 C1411 C 0.46838 -0.09239 0.47632
 C1412 C 0.46308 -0.08565 0.49012
 C1413 C 0.46898 -0.07146 0.49504
 C1414 C 0.48047 -0.06386 0.48627
 C1415 C 0.48599 -0.07085 0.47258
 C1416 C 0.47997 -0.08493 0.46761
 H1417 H 0.45579 -0.14691 0.41941
 H1418 H 0.46717 -0.12354 0.42953
 H1419 H 0.44745 -0.13283 0.47448
 H1420 H 0.43691 -0.15688 0.46519
 H1421 H 0.45417 -0.09130 0.49695
 H1422 H 0.46449 -0.06640 0.50563
 H1423 H 0.49476 -0.06529 0.46549
 H1424 H 0.48430 -0.08993 0.45692
 C1425 C 0.43705 0.35030 -0.04202
 C1426 C 0.44312 0.36355 -0.03519
 C1427 C 0.45816 0.36831 -0.03859
 C1428 C 0.46727 0.35950 -0.04881
 C1429 C 0.46128 0.34616 -0.05565
 C1430 C 0.44595 0.34127 -0.05250
 N1431 N 0.46363 0.38239 -0.03189
 N1432 N 0.47684 0.38805 -0.03512
 C1433 C 0.48187 0.40245 -0.02871
 C1434 C 0.49572 0.40894 -0.03408
 C1435 C 0.50028 0.42358 -0.02908
 C1436 C 0.49109 0.43197 -0.01849
 C1437 C 0.47748 0.42513 -0.01264
 C1438 C 0.47288 0.41054 -0.01775
 H1439 H 0.42506 0.34774 -0.03955
 H1440 H 0.43592 0.37036 -0.02746
 H1441 H 0.47902 0.36291 -0.05152
 H1442 H 0.46896 0.33954 -0.06304
 H1443 H 0.50276 0.40282 -0.04251
 H1444 H 0.51084 0.42847 -0.03380
 H1445 H 0.47008 0.43128 -0.00454
 H1446 H 0.46214 0.40574 -0.01338
 C1447 C 0.78353 0.40816 0.45274
 C1448 C 0.77722 0.39417 0.45783
 C1449 C 0.78682 0.38225 0.46289
 C1450 C 0.80289 0.38450 0.46294
 C1451 C 0.80923 0.39840 0.45770
 C1452 C 0.79965 0.41038 0.45244
 N1453 N 0.78008 0.36782 0.46746
 N1454 N 0.78809 0.35725 0.47372
 C1455 C 0.78178 0.34252 0.47784
 C1456 C 0.79080 0.33239 0.48651
 C1457 C 0.78527 0.31773 0.49035
 C1458 C 0.77064 0.31285 0.48537
 C1459 C 0.76158 0.32307 0.47665
 C1460 C 0.76706 0.33784 0.47298
 H1461 H 0.77580 0.41721 0.44900
 H1462 H 0.76481 0.39259 0.45777
 H1463 H 0.81058 0.37541 0.46668
 H1464 H 0.82168 0.39958 0.45736
 H1465 H 0.80219 0.33585 0.49024
 H1466 H 0.79261 0.31011 0.49697
 H1467 H 0.75026 0.31966 0.47266
 H1468 H 0.75992 0.34547 0.46617
 C1469 C 0.81229 0.90218 -0.03760
 C1470 C 0.80693 0.88820 -0.03158
 C1471 C 0.79201 0.88310 -0.03466
 C1472 C 0.78224 0.89233 -0.04362
 C1473 C 0.78749 0.90642 -0.04959
 C1474 C 0.80273 0.91164 -0.04685
 N1475 N 0.78727 0.86835 -0.02886
 N1476 N 0.77447 0.86217 -0.03245
 C1477 C 0.77009 0.84723 -0.02681
 C1478 C 0.75680 0.84024 -0.03261
 C1479 C 0.75268 0.82532 -0.02798
 C1480 C 0.76176 0.81719 -0.01729
 C1481 C 0.77492 0.82441 -0.01120
 C1482 C 0.77909 0.83926 -0.01596
 H1483 H 0.82425 0.90499 -0.03554
 H1484 H 0.81462 0.88110 -0.02479
 H1485 H 0.77055 0.88868 -0.04600
 H1486 H 0.77932 0.91331 -0.05597
 H1487 H 0.74977 0.84626 -0.04098
 H1488 H 0.74244 0.82013 -0.03285
 H1489 H 0.78220 0.81846 -0.00301
 H1490 H 0.78941 0.84444 -0.01127
 C1491 C 0.78965 0.31570 0.35139
 C1492 C 0.78393 0.31066 0.36568
 C1493 C 0.78545 0.29522 0.37009
 C1494 C 0.79262 0.28471 0.35991
 C1495 C 0.79826 0.28971 0.34550
 C1496 C 0.79690 0.30530 0.34110
 N1497 N 0.77984 0.29070 0.38506
 N1498 N 0.78200 0.27730 0.39066
 C1499 C 0.77640 0.27325 0.40579
 C1500 C 0.78063 0.25905 0.41221
 C1501 C 0.77591 0.25513 0.42725
 C1502 C 0.76672 0.26534 0.43608
 C1503 C 0.76223 0.27945 0.42944
 C1504 C 0.76705 0.28339 0.41448
 H1505 H 0.78870 0.32783 0.34855
 H1506 H 0.77850 0.31887 0.37347
 H1507 H 0.79386 0.27269 0.36307
 H1508 H 0.80362 0.28138 0.33779
 H1509 H 0.78781 0.25113 0.40563
 H1510 H 0.77953 0.24415 0.43198
 H1511 H 0.75520 0.28761 0.43591
 H1512 H 0.76358 0.29442 0.40977
 C1513 C 0.78283 0.80245 -0.15792
 C1514 C 0.77603 0.79693 -0.14426
 C1515 C 0.78514 0.79058 -0.13260
 C1516 C 0.80122 0.78954 -0.13489
 C1517 C 0.80806 0.79518 -0.14849
 C1518 C 0.79897 0.80188 -0.16010
 N1519 N 0.77794 0.78589 -0.11835
 N1520 N 0.78543 0.77883 -0.10792
 C1521 C 0.77867 0.77463 -0.09331
 C1522 C 0.78722 0.76539 -0.08329
 C1523 C 0.78139 0.76161 -0.06865
 C1524 C 0.76689 0.76719 -0.06365
 C1525 C 0.75824 0.77641 -0.07380
 C1526 C 0.76405 0.78004 -0.08856
 H1527 H 0.77547 0.80729 -0.16674
 H1528 H 0.76363 0.79776 -0.14266
 H1529 H 0.80853 0.78475 -0.12600
 H1530 H 0.82052 0.79476 -0.14967
 H1531 H 0.79852 0.76121 -0.08680
 H1532 H 0.78842 0.75458 -0.06112
 H1533 H 0.74705 0.78088 -0.07032
 H1534 H 0.75728 0.78729 -0.09611
 C1535 C 0.30022 0.46521 0.90975
 C1536 C 0.29409 0.47163 0.89629
 C1537 C 0.28791 0.46214 0.88481
 C1538 C 0.28784 0.44606 0.88699
 C1539 C 0.29414 0.43960 0.90036
 C1540 C 0.30051 0.44909 0.91188
 N1541 N 0.28223 0.46903 0.87089
 N1542 N 0.27473 0.46124 0.86100
 C1543 C 0.26943 0.46767 0.84673
 C1544 C 0.25955 0.45886 0.83760
 C1545 C 0.25464 0.46436 0.82329
 C1546 C 0.25972 0.47878 0.81769
 C1547 C 0.26958 0.48769 0.82694
 C1548 C 0.27434 0.48222 0.84141
 H1549 H 0.30478 0.47288 0.91848
 H1550 H 0.29418 0.48404 0.89478
 H1551 H 0.28324 0.43846 0.87823
 H1552 H 0.29440 0.42715 0.90145
 H1553 H 0.25574 0.44761 0.84155
 H1554 H 0.24715 0.45710 0.81644
 H1555 H 0.27371 0.49882 0.82296
 H1556 H 0.28207 0.48920 0.84826
 C1557 C 0.29029 -0.05799 0.40242
 C1558 C 0.28394 -0.05156 0.38907
 C1559 C 0.29259 -0.04155 0.37974
 C1560 C 0.30772 -0.03786 0.38400
 C1561 C 0.31415 -0.04426 0.39732
 C1562 C 0.30561 -0.05458 0.40683
 N1563 N 0.28591 -0.03571 0.36580
 N1564 N 0.29304 -0.02637 0.35687
 C1565 C 0.28650 -0.02101 0.34267
 C1566 C 0.29504 -0.01091 0.33327
 C1567 C 0.28940 -0.00626 0.31888
 C1568 C 0.27507 -0.01170 0.31362
 C1569 C 0.26635 -0.02154 0.32329
 C1570 C 0.27199 -0.02615 0.33767
 H1571 H 0.28286 -0.06524 0.40945
 H1572 H 0.27219 -0.05442 0.38596
 H1573 H 0.31472 -0.03026 0.37687
 H1574 H 0.32611 -0.04158 0.39958
 H1575 H 0.30625 -0.00688 0.33699
 H1576 H 0.29645 0.00129 0.31174
 H1577 H 0.25526 -0.02595 0.31965
 H1578 H 0.26515 -0.03395 0.34472
 C1579 C -0.05665 -0.03993 -0.14684
 C1580 C -0.05193 -0.03489 -0.13228
 C1581 C -0.03773 -0.03947 -0.12634
 C1582 C -0.02801 -0.04894 -0.13530
 C1583 C -0.03261 -0.05394 -0.14995
 C1584 C -0.04716 -0.04971 -0.15601
 N1585 N -0.03366 -0.03455 -0.11109
 N1586 N -0.02165 -0.03935 -0.10423
 C1587 C -0.01799 -0.03436 -0.08887
 C1588 C -0.00541 -0.04097 -0.08129
 C1589 C -0.00188 -0.03664 -0.06611
 C1590 C -0.01088 -0.02549 -0.05830
 C1591 C -0.02341 -0.01876 -0.06606
 C1592 C -0.02695 -0.02316 -0.08116
 H1593 H -0.06815 -0.03668 -0.15035
 H1594 H -0.05957 -0.02765 -0.12541
 H1595 H -0.01684 -0.05245 -0.13102
 H1596 H -0.02445 -0.06077 -0.15657
 H1597 H 0.00159 -0.04962 -0.08710
 H1598 H 0.00786 -0.04203 -0.06050
 H1599 H -0.03062 -0.01017 -0.06042
 H1600 H -0.03674 -0.01785 -0.08676
 C1601 C -0.03743 0.44520 0.34598
 C1602 C -0.03045 0.45039 0.35955
 C1603 C -0.03945 0.45598 0.37187
 C1604 C -0.05561 0.45633 0.37048
 C1605 C -0.06262 0.45100 0.35698
 C1606 C -0.05362 0.44533 0.34456
 N1607 N -0.03196 0.46090 0.38575
 N1608 N -0.03935 0.46765 0.39663
 C1609 C -0.03221 0.47226 0.41078
 C1610 C -0.04080 0.48103 0.42137
 C1611 C -0.03449 0.48530 0.43555
 C1612 C -0.01943 0.48072 0.43949
 C1613 C -0.01075 0.47198 0.42876
 C1614 C -0.01706 0.46784 0.41447
 H1615 H -0.03013 0.44115 0.33657
 H1616 H -0.01799 0.45008 0.36046
 H1617 H -0.06283 0.46049 0.37990
 H1618 H -0.07511 0.45103 0.35642
 H1619 H -0.05251 0.48445 0.41868
 H1620 H -0.04158 0.49191 0.44356
 H1621 H 0.00086 0.46824 0.43144
 H1622 H -0.01021 0.46099 0.40647
 C1623 C 0.44978 -0.03703 0.34613
 C1624 C 0.45540 -0.03048 0.35977
 C1625 C 0.46055 -0.03990 0.37182
 C1626 C 0.45992 -0.05601 0.37015
 C1627 C 0.45415 -0.06257 0.35663
 C1628 C 0.44905 -0.05318 0.34442
 N1629 N 0.46607 -0.03291 0.38574
 N1630 N 0.47275 -0.04082 0.39612
 C1631 C 0.47790 -0.03423 0.41036
 C1632 C 0.48667 -0.04333 0.42033
 C1633 C 0.49140 -0.03753 0.43461
 C1634 C 0.48723 -0.02252 0.43924
 C1635 C 0.47849 -0.01334 0.42914
 C1636 C 0.47392 -0.01912 0.41477
 H1637 H 0.44613 -0.02946 0.33690
 H1638 H 0.45582 -0.01804 0.36092
 H1639 H 0.46367 -0.06355 0.37938
 H1640 H 0.45344 -0.07503 0.35588
 H1641 H 0.48974 -0.05502 0.41708
 H1642 H 0.49801 -0.04495 0.44215
 H1643 H 0.47509 -0.00173 0.43236
 H1644 H 0.46707 -0.01189 0.40726
 C1645 C 0.44366 0.46296 -0.15754
 C1646 C 0.45012 0.46934 -0.14421
 C1647 C 0.45755 0.45990 -0.13345
 C1648 C 0.45835 0.44392 -0.13609
 C1649 C 0.45175 0.43752 -0.14930
 C1650 C 0.44438 0.44695 -0.16024
 N1651 N 0.46381 0.46670 -0.11975
 N1652 N 0.47229 0.45904 -0.11056
 C1653 C 0.47810 0.46547 -0.09651
 C1654 C 0.48839 0.45677 -0.08768
 C1655 C 0.49359 0.46229 -0.07345
 C1656 C 0.48841 0.47661 -0.06772
 C1657 C 0.47828 0.48546 -0.07676
 C1658 C 0.47321 0.47997 -0.09106
 H1659 H 0.43824 0.47059 -0.16580
 H1660 H 0.44941 0.48167 -0.14228
 H1661 H 0.46385 0.43635 -0.12783
 H1662 H 0.45221 0.42512 -0.15079
 H1663 H 0.49220 0.44555 -0.09175
 H1664 H 0.50130 0.45514 -0.06675
 H1665 H 0.47411 0.49655 -0.07271
 H1666 H 0.46523 0.48690 -0.09767
 C1667 C 0.46105 0.80214 0.40011
 C1668 C 0.46706 0.79570 0.38646
 C1669 C 0.45720 0.78957 0.37530
 C1670 C 0.44117 0.78981 0.37799
 C1671 C 0.43513 0.79636 0.39157
 C1672 C 0.44499 0.80270 0.40276
 N1673 N 0.46371 0.78370 0.36115
 N1674 N 0.45559 0.77682 0.35106
 C1675 C 0.46203 0.77152 0.33665
 C1676 C 0.45283 0.76277 0.32673
 C1677 C 0.45856 0.75797 0.31230
 C1678 C 0.47359 0.76203 0.30747
 C1679 C 0.48285 0.77071 0.31755
 C1680 C 0.47716 0.77535 0.33203
 H1681 H 0.46899 0.80666 0.40858
 H1682 H 0.47944 0.79556 0.38454
 H1683 H 0.43330 0.78524 0.36948
 H1684 H 0.42271 0.79680 0.39312
 H1685 H 0.44113 0.75978 0.33013
 H1686 H 0.45110 0.75137 0.30481
 H1687 H 0.49449 0.77402 0.31422
 H1688 H 0.48448 0.78216 0.33947
 C1689 C -0.05194 0.78012 0.90698
 C1690 C -0.04686 0.77396 0.89284
 C1691 C -0.04090 0.78361 0.88124
 C1692 C -0.04006 0.79958 0.88396
 C1693 C -0.04526 0.80578 0.89801
 C1694 C -0.05130 0.79614 0.90970
 N1695 N -0.03608 0.77706 0.86673
 N1696 N -0.02919 0.78516 0.85649
 C1697 C -0.02456 0.77920 0.84170
 C1698 C -0.01565 0.78858 0.83195
 C1699 C -0.01123 0.78344 0.81725
 C1700 C -0.01579 0.76880 0.81192
 C1701 C -0.02475 0.75935 0.82176
 C1702 C -0.02905 0.76448 0.83658
 H1703 H -0.05634 0.77235 0.91580
 H1704 H -0.04755 0.76163 0.89091
 H1705 H -0.03562 0.80733 0.87514
 H1706 H -0.04486 0.81817 0.89957
 H1707 H -0.01219 0.79997 0.83575
 H1708 H -0.00444 0.79109 0.80996
 H1709 H -0.02847 0.74803 0.81801
 H1710 H -0.03603 0.75706 0.84393
 C1711 C 0.35220 0.79575 0.31512
 C1712 C 0.36617 0.78965 0.30963
 C1713 C 0.36947 0.78930 0.29375
 C1714 C 0.35848 0.79485 0.28329
 C1715 C 0.34439 0.80074 0.28873
 C1716 C 0.34111 0.80140 0.30474
 N1717 N 0.38405 0.78328 0.28861
 N1718 N 0.38904 0.78490 0.27478
 C1719 C 0.40364 0.77866 0.26992
 C1720 C 0.41012 0.78326 0.25573
 C1721 C 0.42462 0.77773 0.25099
 C1722 C 0.43274 0.76724 0.26031
 C1723 C 0.42602 0.76241 0.27441
 C1724 C 0.41168 0.76812 0.27921
 H1725 H 0.35025 0.79631 0.32751
 H1726 H 0.37458 0.78543 0.31780
 H1727 H 0.36073 0.79454 0.27093
 H1728 H 0.33603 0.80472 0.28039
 H1729 H 0.40402 0.79136 0.24844
 H1730 H 0.42947 0.78165 0.24007
 H1731 H 0.43199 0.75442 0.28191
 H1732 H 0.40690 0.76432 0.29020
 C1733 C -0.15602 0.80325 0.78340
 C1734 C -0.14222 0.79748 0.77709
 C1735 C -0.13106 0.79088 0.78665
 C1736 C -0.13391 0.79000 0.80268
 C1737 C -0.14763 0.79589 0.80902
 C1738 C -0.15884 0.80267 0.79948
 N1739 N -0.11680 0.78561 0.77988
 N1740 N -0.10679 0.77825 0.78766
 C1741 C -0.09228 0.77344 0.78111
 C1742 C -0.08254 0.76408 0.78990
 C1743 C -0.06804 0.75966 0.78412
 C1744 C -0.06294 0.76470 0.76944
 C1745 C -0.07281 0.77402 0.76058
 C1746 C -0.08737 0.77830 0.76632
 H1747 H -0.16448 0.80814 0.77567
 H1748 H -0.14020 0.79819 0.76472
 H1749 H -0.12541 0.78505 0.81033
 H1750 H -0.14928 0.79547 0.82146
 H1751 H -0.08615 0.76031 0.80133
 H1752 H -0.06071 0.75258 0.79131
 H1753 H -0.06925 0.77810 0.74924
 H1754 H -0.09467 0.78560 0.75933
 C1755 C 0.89810 0.30970 0.45714
 C1756 C 0.88422 0.30476 0.46381
 C1757 C 0.87997 0.28923 0.46320
 C1758 C 0.88994 0.27851 0.45607
 C1759 C 0.90396 0.28340 0.44952
 C1760 C 0.90816 0.29909 0.44990
 N1761 N 0.86529 0.28485 0.46952
 N1762 N 0.85956 0.27145 0.46774
 C1763 C 0.84463 0.26764 0.47391
 C1764 C 0.83757 0.25386 0.46939
 C1765 C 0.82249 0.25046 0.47426
 C1766 C 0.81431 0.26076 0.48392
 C1767 C 0.82166 0.27433 0.48888
 C1768 C 0.83665 0.27778 0.48387
 H1769 H 0.90076 0.32191 0.45733
 H1770 H 0.87657 0.31313 0.46919
 H1771 H 0.88688 0.26640 0.45552
 H1772 H 0.91152 0.27492 0.44419
 H1773 H 0.84361 0.24594 0.46173
 H1774 H 0.81717 0.23988 0.47030
 H1775 H 0.81569 0.28254 0.49627
 H1776 H 0.84188 0.28848 0.48759
 C1777 C 0.90589 0.78120 -0.04802
 C1778 C 0.89185 0.77525 -0.04255
 C1779 C 0.88030 0.78513 -0.03696
 C1780 C 0.88301 0.80113 -0.03675
 C1781 C 0.89699 0.80712 -0.04236
 C1782 C 0.90856 0.79723 -0.04819
 N1783 N 0.86577 0.77873 -0.03211
 N1784 N 0.85547 0.78691 -0.02543
 C1785 C 0.84065 0.78092 -0.02103
 C1786 C 0.83078 0.79020 -0.01213
 C1787 C 0.81597 0.78511 -0.00817
 C1788 C 0.81064 0.77062 -0.01321
 C1789 C 0.82063 0.76123 -0.02207
 C1790 C 0.83556 0.76630 -0.02589
 H1791 H 0.91464 0.77324 -0.05220
 H1792 H 0.88993 0.76290 -0.04275
 H1793 H 0.87421 0.80903 -0.03258
 H1794 H 0.89852 0.81952 -0.04256
 H1795 H 0.83455 0.80151 -0.00837
 H1796 H 0.80857 0.79272 -0.00144
 H1797 H 0.81687 0.75004 -0.02615
 H1798 H 0.84298 0.75896 -0.03286
 C1799 C -0.15503 -0.03071 -0.04823
 C1800 C -0.14105 -0.02464 -0.04295
 C1801 C -0.12972 -0.03440 -0.03690
 C1802 C -0.13251 -0.05035 -0.03623
 C1803 C -0.14634 -0.05644 -0.04166
 C1804 C -0.15781 -0.04672 -0.04772
 N1805 N -0.11534 -0.02804 -0.03184
 N1806 N -0.10587 -0.03619 -0.02419
 C1807 C -0.09108 -0.03072 -0.01940
 C1808 C -0.08250 -0.03992 -0.00936
 C1809 C -0.06770 -0.03549 -0.00498
 C1810 C -0.06108 -0.02178 -0.01075
 C1811 C -0.06978 -0.01246 -0.02077
 C1812 C -0.08473 -0.01686 -0.02501
 H1813 H -0.16366 -0.02286 -0.05266
 H1814 H -0.13904 -0.01231 -0.04354
 H1815 H -0.12388 -0.05818 -0.03178
 H1816 H -0.14787 -0.06884 -0.04144
 H1817 H -0.08727 -0.05066 -0.00505
 H1818 H -0.06131 -0.04301 0.00266
 H1819 H -0.06501 -0.00185 -0.02540
 H1820 H -0.09115 -0.00962 -0.03287
 C1821 C -0.15420 0.46561 0.44971
 C1822 C -0.14003 0.47111 0.45497
 C1823 C -0.12995 0.46138 0.46284
 C1824 C -0.13432 0.44605 0.46570
 C1825 C -0.14847 0.44047 0.46044
 C1826 C -0.15868 0.45007 0.45212
 N1827 N -0.11520 0.46720 0.46740
 N1828 N -0.10567 0.45904 0.47497
 C1829 C -0.09074 0.46464 0.47916
 C1830 C -0.08125 0.45531 0.48822
 C1831 C -0.06645 0.46021 0.49219
 C1832 C -0.06081 0.47459 0.48706
 C1833 C -0.07041 0.48398 0.47798
 C1834 C -0.08526 0.47907 0.47409
 H1835 H -0.16173 0.47381 0.44411
 H1836 H -0.13685 0.48302 0.45285
 H1837 H -0.12665 0.43825 0.47169
 H1838 H -0.15084 0.42835 0.46226
 H1839 H -0.08534 0.44414 0.49214
 H1840 H -0.05937 0.45265 0.49914
 H1841 H -0.06645 0.49510 0.47382
 H1842 H -0.09237 0.48648 0.46701
 C1843 C 0.34733 -0.05453 0.46429
 C1844 C 0.36064 -0.04851 0.47107
 C1845 C 0.37213 -0.04162 0.46190
 C1846 C 0.37009 -0.04063 0.44580
 C1847 C 0.35686 -0.04675 0.43900
 C1848 C 0.34537 -0.05390 0.44814
 N1849 N 0.38598 -0.03625 0.46907
 N1850 N 0.39629 -0.02891 0.46148
 C1851 C 0.41050 -0.02402 0.46827
 C1852 C 0.42062 -0.01493 0.45946
 C1853 C 0.43491 -0.01055 0.46537
 C1854 C 0.43942 -0.01532 0.48023
 C1855 C 0.42914 -0.02433 0.48915
 C1856 C 0.41476 -0.02860 0.48324
 H1857 H 0.33861 -0.05973 0.47170
 H1858 H 0.36206 -0.04931 0.48349
 H1859 H 0.37885 -0.03545 0.43844
 H1860 H 0.35585 -0.04628 0.42652
 H1861 H 0.41748 -0.01139 0.44788
 H1862 H 0.44257 -0.00370 0.45813
 H1863 H 0.43224 -0.02820 0.50063
 H1864 H 0.40714 -0.03570 0.49025
 C1865 C 0.34717 0.46457 -0.05299
 C1866 C 0.36133 0.47066 -0.04833
 C1867 C 0.37198 0.46147 -0.04055
 C1868 C 0.36825 0.44606 -0.03729
 C1869 C 0.35415 0.43987 -0.04200
 C1870 C 0.34331 0.44894 -0.05012
 N1871 N 0.38664 0.46790 -0.03651
 N1872 N 0.39637 0.46041 -0.02851
 C1873 C 0.41127 0.46648 -0.02482
 C1874 C 0.42077 0.45803 -0.01494
 C1875 C 0.43559 0.46328 -0.01149
 C1876 C 0.44126 0.47708 -0.01802
 C1877 C 0.43164 0.48560 -0.02788
 C1878 C 0.41674 0.48038 -0.03122
 H1879 H 0.33919 0.47240 -0.05847
 H1880 H 0.36402 0.48263 -0.05079
 H1881 H 0.37637 0.43865 -0.03140
 H1882 H 0.35231 0.42771 -0.03988
 H1883 H 0.41670 0.44727 -0.00999
 H1884 H 0.44271 0.45636 -0.00393
 H1885 H 0.43563 0.49628 -0.03308
 H1886 H 0.40961 0.48708 -0.03894
 C1887 C 0.39025 0.43265 0.79666
 C1888 C 0.37595 0.43712 0.79094
 C1889 C 0.37201 0.45272 0.79009
 C1890 C 0.38256 0.46393 0.79516
 C1891 C 0.39698 0.45947 0.80083
 C1892 C 0.40102 0.44377 0.80152
 N1893 N 0.35720 0.45676 0.78414
 N1894 N 0.35226 0.47058 0.78400
 C1895 C 0.33732 0.47434 0.77818
 C1896 C 0.33143 0.48914 0.78078
 C1897 C 0.31647 0.49286 0.77623
 C1898 C 0.30721 0.48185 0.76876
 C1899 C 0.31335 0.46715 0.76562
 C1900 C 0.32827 0.46338 0.77038
 H1901 H 0.39287 0.42044 0.79737
 H1902 H 0.36785 0.42839 0.78719
 H1903 H 0.37973 0.47609 0.79462
 H1904 H 0.40507 0.46828 0.80439
 H1905 H 0.33831 0.49768 0.78673
 H1906 H 0.31208 0.50432 0.77870
 H1907 H 0.30646 0.45843 0.75995
 H1908 H 0.33263 0.45187 0.76816
 C1909 C 0.40905 -0.03720 0.30041
 C1910 C 0.39597 -0.03045 0.29389
 C1911 C 0.38407 -0.03966 0.28815
 C1912 C 0.38544 -0.05581 0.28888
 C1913 C 0.39844 -0.06259 0.29554
 C1914 C 0.41037 -0.05337 0.30149
 N1915 N 0.37048 -0.03237 0.28227
 N1916 N 0.35995 -0.03996 0.27548
 C1917 C 0.34597 -0.03287 0.27028
 C1918 C 0.33556 -0.04169 0.26174
 C1919 C 0.32134 -0.03552 0.25740
 C1920 C 0.31719 -0.02038 0.26169
 C1921 C 0.32784 -0.01142 0.26998
 C1922 C 0.34213 -0.01758 0.27419
 H1923 H 0.41812 -0.02975 0.30463
 H1924 H 0.39506 -0.01799 0.29338
 H1925 H 0.37632 -0.06318 0.28464
 H1926 H 0.39893 -0.07505 0.29641
 H1927 H 0.33837 -0.05350 0.25870
 H1928 H 0.31340 -0.04279 0.25110
 H1929 H 0.32503 0.00027 0.27346
 H1930 H 0.34999 -0.01054 0.28084
 C1931 C 0.08742 0.53228 0.70397
 C1932 C 0.10086 0.52572 0.70990
 C1933 C 0.11326 0.53506 0.71417
 C1934 C 0.11201 0.55117 0.71264
 C1935 C 0.09866 0.55775 0.70651
 C1936 C 0.08625 0.54837 0.70194
 N1937 N 0.12717 0.52796 0.71950
 N1938 N 0.13797 0.53586 0.72545
 C1939 C 0.15222 0.52913 0.73028
 C1940 C 0.16225 0.53804 0.73913
 C1941 C 0.17648 0.53210 0.74369
 C1942 C 0.18106 0.51715 0.73921
 C1943 C 0.17098 0.50819 0.73026
 C1944 C 0.15659 0.51409 0.72591
 H1945 H 0.07798 0.52474 0.70084
 H1946 H 0.10166 0.51330 0.71109
 H1947 H 0.12150 0.55864 0.71577
 H1948 H 0.09828 0.57013 0.70489
 H1949 H 0.15905 0.54967 0.74248
 H1950 H 0.18401 0.53937 0.75046
 H1951 H 0.17420 0.49666 0.72662
 H1952 H 0.14904 0.50704 0.71894
 C1953 C 0.11147 0.05196 0.18716
 C1954 C 0.12578 0.04701 0.19244
 C1955 C 0.12901 0.04708 0.20824
 C1956 C 0.11776 0.05230 0.21886
 C1957 C 0.10329 0.05712 0.21360
 C1958 C 0.09995 0.05687 0.19768
 N1959 N 0.14364 0.04131 0.21308
 N1960 N 0.14859 0.04259 0.22684
 C1961 C 0.16319 0.03611 0.23096
 C1962 C 0.17017 0.04051 0.24483
 C1963 C 0.18469 0.03463 0.24874
 C1964 C 0.19226 0.02403 0.23892
 C1965 C 0.18504 0.01942 0.22518
 C1966 C 0.17071 0.02545 0.22120
 H1967 H 0.10943 0.05197 0.17481
 H1968 H 0.13442 0.04306 0.18418
 H1969 H 0.12003 0.05236 0.23116
 H1970 H 0.09463 0.06072 0.22199
 H1971 H 0.16448 0.04868 0.25247
 H1972 H 0.18998 0.03837 0.25942
 H1973 H 0.19058 0.01135 0.21732
 H1974 H 0.16551 0.02177 0.21046
 C1975 C 0.65436 0.71684 0.19949
 C1976 C 0.64026 0.72278 0.20482
 C1977 C 0.62936 0.71312 0.21192
 C1978 C 0.63286 0.69741 0.21397
 C1979 C 0.64693 0.69143 0.20859
 C1980 C 0.65777 0.70103 0.20109
 N1981 N 0.61462 0.71938 0.21630
 N1982 N 0.60444 0.71138 0.22338
 C1983 C 0.58944 0.71734 0.22720
 C1984 C 0.57930 0.70818 0.23592
 C1985 C 0.56432 0.71329 0.23927
 C1986 C 0.55914 0.72768 0.23381
 C1987 C 0.56943 0.73695 0.22516
 C1988 C 0.58446 0.73185 0.22192
 H1989 H 0.66255 0.72459 0.19399
 H1990 H 0.63772 0.73491 0.20320
 H1991 H 0.62459 0.68969 0.21938
 H1992 H 0.64909 0.67918 0.20982
 H1993 H 0.58298 0.69696 0.24000
 H1994 H 0.55672 0.70581 0.24590
 H1995 H 0.56583 0.74809 0.22080
 H1996 H 0.59208 0.73912 0.21509
 C1997 C 0.15758 0.70235 0.71765
 C1998 C 0.14417 0.70901 0.72384
 C1999 C 0.13289 0.71502 0.71407
 C2000 C 0.13534 0.71468 0.69796
 C2001 C 0.14868 0.70789 0.69174
 C2002 C 0.15984 0.70141 0.70151
 N2003 N 0.11869 0.72052 0.72071
 N2004 N 0.10848 0.72717 0.71259
 C2005 C 0.09386 0.73182 0.71893
 C2006 C 0.08392 0.74051 0.70973
 C2007 C 0.06915 0.74436 0.71512
 C2008 C 0.06397 0.73939 0.72980
 C2009 C 0.07408 0.73084 0.73913
 C2010 C 0.08893 0.72714 0.73378
 H2011 H 0.16607 0.69771 0.72551
 H2012 H 0.14243 0.70924 0.73628
 H2013 H 0.12673 0.71917 0.69016
 H2014 H 0.14995 0.70718 0.67927
 H2015 H 0.08755 0.74410 0.69825
 H2016 H 0.06163 0.75087 0.70758
 H2017 H 0.07045 0.72686 0.75049
 H2018 H 0.09640 0.72033 0.74107
 C2019 C 0.60000 0.18850 0.53843
 C2020 C 0.61441 0.19339 0.53295
 C2021 C 0.61857 0.20894 0.53371
 C2022 C 0.60795 0.21975 0.53964
 C2023 C 0.59339 0.21491 0.54493
 C2024 C 0.58930 0.19918 0.54454
 N2025 N 0.63373 0.21329 0.52863
 N2026 N 0.63942 0.22661 0.53106
 C2027 C 0.65473 0.23044 0.52592
 C2028 C 0.66149 0.24423 0.53090
 C2029 C 0.67666 0.24791 0.52654
 C2030 C 0.68525 0.23790 0.51693
 C2031 C 0.67832 0.22418 0.51175
 C2032 C 0.66325 0.22045 0.51625
 H2033 H 0.59745 0.17627 0.53825
 H2034 H 0.62254 0.18496 0.52845
 H2035 H 0.61089 0.23188 0.54020
 H2036 H 0.58537 0.22349 0.54932
 H2037 H 0.65505 0.25202 0.53836
 H2038 H 0.68166 0.25858 0.53068
 H2039 H 0.68462 0.21617 0.50441
 H2040 H 0.65828 0.20974 0.51221
 C2041 C 0.58887 0.69852 0.02634
 C2042 C 0.60298 0.70359 0.02011
 C2043 C 0.61439 0.70958 0.02976
 C2044 C 0.61151 0.71050 0.04578
 C2045 C 0.59751 0.70530 0.05204
 C2046 C 0.58601 0.69919 0.04242
 N2047 N 0.62889 0.71442 0.02317
 N2048 N 0.63880 0.72150 0.03130
 C2049 C 0.65359 0.72627 0.02546
 C2050 C 0.66265 0.73571 0.03480
 C2051 C 0.67726 0.74044 0.02982
 C2052 C 0.68324 0.73564 0.01538
 C2053 C 0.67415 0.72605 0.00599
 C2054 C 0.65936 0.72146 0.01095
 H2055 H 0.58021 0.69408 0.01856
 H2056 H 0.60502 0.70286 0.00774
 H2057 H 0.62017 0.71498 0.05353
 H2058 H 0.59587 0.70571 0.06448
 H2059 H 0.65836 0.73940 0.04604
 H2060 H 0.68399 0.74767 0.03744
 H2061 H 0.67843 0.72214 -0.00517
 H2062 H 0.65255 0.71406 0.00358
 C2063 C 0.14845 0.06269 0.04429
 C2064 C 0.13455 0.05710 0.03846
 C2065 C 0.12976 0.04204 0.04160
 C2066 C 0.13918 0.03246 0.05056
 C2067 C 0.15319 0.03796 0.05636
 C2068 C 0.15816 0.05327 0.05342
 N2069 N 0.11522 0.03694 0.03570
 N2070 N 0.10937 0.02389 0.03913
 C2071 C 0.09471 0.01907 0.03324
 C2072 C 0.08809 0.00538 0.03877
 C2073 C 0.07353 0.00068 0.03372
 C2074 C 0.06536 0.00956 0.02288
 C2075 C 0.07219 0.02317 0.01712
 C2076 C 0.08669 0.02792 0.02229
 H2077 H 0.15103 0.07471 0.04212
 H2078 H 0.12730 0.06466 0.03168
 H2079 H 0.13578 0.02067 0.05301
 H2080 H 0.16023 0.02988 0.06269
 H2081 H 0.09415 -0.00154 0.04720
 H2082 H 0.06864 -0.00986 0.03838
 H2083 H 0.06620 0.03034 0.00884
 H2084 H 0.09156 0.03854 0.01781
 C2085 C 0.14425 0.56398 0.54998
 C2086 C 0.13044 0.55908 0.54338
 C2087 C 0.12725 0.54334 0.54184
 C2088 C 0.13805 0.53246 0.54711
 C2089 C 0.15193 0.53736 0.55368
 C2090 C 0.15522 0.55319 0.55509
 N2091 N 0.11294 0.53881 0.53502
 N2092 N 0.10891 0.52474 0.53381
 C2093 C 0.09446 0.52033 0.52719
 C2094 C 0.08983 0.50490 0.52819
 C2095 C 0.07535 0.50037 0.52285
 C2096 C 0.06528 0.51121 0.51622
 C2097 C 0.07020 0.52661 0.51468
 C2098 C 0.08464 0.53116 0.52019
 H2099 H 0.14629 0.57625 0.55116
 H2100 H 0.12216 0.56757 0.53948
 H2101 H 0.13582 0.52021 0.54605
 H2102 H 0.16020 0.52877 0.55739
 H2103 H 0.09732 0.49644 0.53351
 H2104 H 0.07195 0.48841 0.52415
 H2105 H 0.06267 0.53524 0.50971
 H2106 H 0.08801 0.54315 0.51922
 C2107 C 0.64479 0.06544 0.54863
 C2108 C 0.63125 0.05966 0.54219
 C2109 C 0.62724 0.04418 0.54400
 C2110 C 0.63701 0.03436 0.55231
 C2111 C 0.65067 0.04005 0.55868
 C2112 C 0.65492 0.05576 0.55698
 N2113 N 0.61316 0.03885 0.53732
 N2114 N 0.60775 0.02538 0.53968
 C2115 C 0.59353 0.02055 0.53285
 C2116 C 0.58658 0.00680 0.53781
 C2117 C 0.57221 0.00235 0.53201
 C2118 C 0.56467 0.01152 0.52096
 C2119 C 0.57196 0.02507 0.51565
 C2120 C 0.58620 0.02957 0.52158
 H2121 H 0.64676 0.07771 0.54751
 H2122 H 0.62369 0.06738 0.53596
 H2123 H 0.63419 0.02227 0.55372
 H2124 H 0.65810 0.03185 0.56440
 H2125 H 0.59213 -0.00027 0.54646
 H2126 H 0.56693 -0.00815 0.53632
 H2127 H 0.56647 0.03246 0.50722
 H2128 H 0.59137 0.04021 0.51748
 C2129 C 0.65498 0.53944 0.05289
 C2130 C 0.64239 0.53233 0.04583
 C2131 C 0.63060 0.54120 0.03939
 C2132 C 0.63162 0.55739 0.03990
 C2133 C 0.64411 0.56453 0.04713
 C2134 C 0.65588 0.55564 0.05386
 N2135 N 0.61742 0.53354 0.03307
 N2136 N 0.60722 0.54071 0.02537
 C2137 C 0.59365 0.53320 0.01974
 C2138 C 0.58406 0.54115 0.00954
 C2139 C 0.57031 0.53448 0.00446
 C2140 C 0.56578 0.51978 0.00974
 C2141 C 0.57553 0.51174 0.01988
 C2142 C 0.58939 0.51835 0.02477
 H2143 H 0.66396 0.53223 0.05767
 H2144 H 0.64175 0.51985 0.04548
 H2145 H 0.62257 0.56450 0.03510
 H2146 H 0.64429 0.57700 0.04786
 H2147 H 0.58717 0.55263 0.00564
 H2148 H 0.56304 0.54103 -0.00326
 H2149 H 0.57237 0.50041 0.02416
 H2150 H 0.59658 0.51201 0.03274
 C2151 C 0.06889 0.04330 0.14882
 C2152 C 0.06375 0.03638 0.13525
 C2153 C 0.04826 0.03720 0.13116
 C2154 C 0.03776 0.04489 0.14096
 C2155 C 0.04282 0.05173 0.15470
 C2156 C 0.05856 0.05114 0.15896
 N2157 N 0.04368 0.03040 0.11682
 N2158 N 0.03023 0.03209 0.11129
 C2159 C 0.02607 0.02538 0.09676
 C2160 C 0.01198 0.02944 0.09014
 C2161 C 0.00796 0.02374 0.07559
 C2162 C 0.01794 0.01369 0.06748
 C2163 C 0.03193 0.00932 0.07434
 C2164 C 0.03600 0.01517 0.08882
 H2165 H 0.08120 0.04301 0.15079
 H2166 H 0.07198 0.03065 0.12767
 H2167 H 0.02564 0.04554 0.13805
 H2168 H 0.03416 0.05702 0.16208
 H2169 H 0.00422 0.03728 0.09615
 H2170 H -0.00294 0.02727 0.07067
 H2171 H 0.03989 0.00165 0.06837
 H2172 H 0.04696 0.01182 0.09373
 C2173 C 0.03103 0.54629 0.65712
 C2174 C 0.02518 0.53918 0.64387
 C2175 C 0.03513 0.53195 0.63325
 C2176 C 0.05109 0.53187 0.63602
 C2177 C 0.05696 0.53906 0.64917
 C2178 C 0.04701 0.54637 0.65989
 N2179 N 0.02888 0.52542 0.61943
 N2180 N 0.03716 0.51780 0.60985
 C2181 C 0.03110 0.51202 0.59561
 C2182 C 0.04076 0.50350 0.58571
 C2183 C 0.03563 0.49893 0.57110
 C2184 C 0.02074 0.50296 0.56613
 C2185 C 0.01089 0.51106 0.57635
 C2186 C 0.01600 0.51552 0.59096
 H2187 H 0.02304 0.55165 0.66522
 H2188 H 0.01286 0.53936 0.64183
 H2189 H 0.05904 0.52651 0.62789
 H2190 H 0.06935 0.53917 0.65078
 H2191 H 0.05243 0.50076 0.58916
 H2192 H 0.04352 0.49277 0.56349
 H2193 H -0.00067 0.51428 0.57293
 H2194 H 0.00831 0.52209 0.59841
 C2195 C 0.57135 0.04475 0.64349
 C2196 C 0.56481 0.03749 0.63070
 C2197 C 0.54936 0.03990 0.62703
 C2198 C 0.54027 0.04945 0.63655
 C2199 C 0.54670 0.05664 0.64950
 C2200 C 0.56249 0.05461 0.65321
 N2201 N 0.54342 0.03282 0.61334
 N2202 N 0.53011 0.03585 0.60799
 C2203 C 0.52478 0.02882 0.59399
 C2204 C 0.51134 0.03439 0.58705
 C2205 C 0.50662 0.02860 0.57272
 C2206 C 0.51521 0.01697 0.56517
 C2207 C 0.52837 0.01100 0.57249
 C2208 C 0.53315 0.01690 0.58671
 H2209 H 0.58360 0.04312 0.64507
 H2210 H 0.57198 0.03025 0.62334
 H2211 H 0.52819 0.05133 0.63403
 H2212 H 0.53901 0.06341 0.65673
 H2213 H 0.50478 0.04356 0.59255
 H2214 H 0.49641 0.03344 0.56743
 H2215 H 0.53530 0.00209 0.56701
 H2216 H 0.54353 0.01232 0.59186
 C2217 C 0.56843 0.54684 0.14092
 C2218 C 0.56470 0.54099 0.12634
 C2219 C 0.54927 0.53972 0.12189
 C2220 C 0.53751 0.54428 0.13228
 C2221 C 0.54122 0.55000 0.14693
 C2222 C 0.55673 0.55137 0.15143
 N2223 N 0.54589 0.53382 0.10679
 N2224 N 0.53227 0.53397 0.10138
 C2225 C 0.52878 0.52807 0.08632
 C2226 C 0.51404 0.53057 0.08037
 C2227 C 0.51028 0.52526 0.06561
 C2228 C 0.52118 0.51712 0.05658
 C2229 C 0.53595 0.51441 0.06267
 C2230 C 0.53975 0.51991 0.07739
 H2231 H 0.58050 0.54799 0.14386
 H2232 H 0.57386 0.53758 0.11842
 H2233 H 0.52548 0.54333 0.12913
 H2234 H 0.53193 0.55316 0.15480
 H2235 H 0.50548 0.53680 0.08714
 H2236 H 0.49878 0.52747 0.06130
 H2237 H 0.54462 0.50825 0.05597
 H2238 H 0.55123 0.51780 0.08178
 C2239 C 0.21269 0.54895 0.59768
 C2240 C 0.21863 0.54353 0.61166
 C2241 C 0.20870 0.53913 0.62375
 C2242 C 0.19264 0.54009 0.62165
 C2243 C 0.18668 0.54567 0.60774
 C2244 C 0.19663 0.55028 0.59560
 N2245 N 0.21514 0.53410 0.63813
 N2246 N 0.20675 0.52841 0.64889
 C2247 C 0.21285 0.52366 0.66349
 C2248 C 0.20327 0.51546 0.67368
 C2249 C 0.20866 0.51079 0.68811
 C2250 C 0.22376 0.51443 0.69275
 C2251 C 0.23337 0.52280 0.68255
 C2252 C 0.22800 0.52730 0.66797
 H2253 H 0.22069 0.55214 0.58851
 H2254 H 0.23102 0.54278 0.61310
 H2255 H 0.18471 0.53685 0.63086
 H2256 H 0.17428 0.54677 0.60667
 H2257 H 0.19155 0.51268 0.67040
 H2258 H 0.20089 0.50451 0.69575
 H2259 H 0.24505 0.52578 0.68579
 H2260 H 0.23559 0.53373 0.66030
 C2261 C 0.21523 0.05182 0.09560
 C2262 C 0.22170 0.04624 0.10925
 C2263 C 0.21224 0.04113 0.12143
 C2264 C 0.19611 0.04160 0.11978
 C2265 C 0.18960 0.04733 0.10617
 C2266 C 0.19909 0.05258 0.09392
 N2267 N 0.21929 0.03591 0.13543
 N2268 N 0.21154 0.02964 0.14635
 C2269 C 0.21853 0.02482 0.16053
 C2270 C 0.20970 0.01637 0.17121
 C2271 C 0.21600 0.01182 0.18532
 C2272 C 0.23126 0.01581 0.18911
 C2273 C 0.24013 0.02428 0.17833
 C2274 C 0.23385 0.02868 0.16412
 H2275 H 0.22288 0.05553 0.08632
 H2276 H 0.23415 0.04590 0.11037
 H2277 H 0.18855 0.03782 0.12909
 H2278 H 0.17714 0.04798 0.10541
 H2279 H 0.19787 0.01337 0.16860
 H2280 H 0.20880 0.00540 0.19338
 H2281 H 0.25190 0.02757 0.18088
 H2282 H 0.24089 0.03528 0.15608
 C2283 C 0.71502 0.19222 0.65319
 C2284 C 0.71918 0.19597 0.63800
 C2285 C 0.71819 0.21120 0.63280
 C2286 C 0.71332 0.22282 0.64311
 C2287 C 0.70933 0.21912 0.65842
 C2288 C 0.71000 0.20373 0.66362
 N2289 N 0.72203 0.21442 0.61697
 N2290 N 0.71953 0.22747 0.61072
 C2291 C 0.72347 0.23038 0.59483
 C2292 C 0.71907 0.24437 0.58810
 C2293 C 0.72272 0.24751 0.57260
 C2294 C 0.73100 0.23670 0.56360
 C2295 C 0.73540 0.22265 0.57042
 C2296 C 0.73163 0.21949 0.58586
 H2297 H 0.71537 0.18021 0.65663
 H2298 H 0.72287 0.18692 0.63014
 H2299 H 0.71260 0.23472 0.63935
 H2300 H 0.70572 0.22829 0.66617
 H2301 H 0.71277 0.25285 0.59488
 H2302 H 0.71921 0.25846 0.56773
 H2303 H 0.74173 0.21405 0.56381
 H2304 H 0.73517 0.20858 0.59080
 C2305 C 0.70130 0.68749 0.14596
 C2306 C 0.70614 0.69239 0.13128
 C2307 C 0.70523 0.70797 0.12717
 C2308 C 0.69951 0.71872 0.13796
 C2309 C 0.69482 0.71387 0.15273
 C2310 C 0.69564 0.69818 0.15690
 N2311 N 0.71040 0.71251 0.11206
 N2312 N 0.70832 0.72603 0.10669
 C2313 C 0.71392 0.73028 0.09162
 C2314 C 0.70947 0.74442 0.08521
 C2315 C 0.71472 0.74875 0.07045
 C2316 C 0.72471 0.73903 0.06197
 C2317 C 0.72924 0.72489 0.06852
 C2318 C 0.72385 0.72053 0.08315
 H2319 H 0.70181 0.67530 0.14864
 H2320 H 0.71051 0.68400 0.12303
 H2321 H 0.69883 0.73086 0.13506
 H2322 H 0.69073 0.72243 0.16094
 H2323 H 0.70183 0.75205 0.09163
 H2324 H 0.71103 0.75971 0.06572
 H2325 H 0.73683 0.71708 0.06228
 H2326 H 0.72750 0.70955 0.08786
 C2327 C 0.52880 0.70046 0.08669
 C2328 C 0.52264 0.70611 0.10061
 C2329 C 0.53234 0.71212 0.11197
 C2330 C 0.54835 0.71265 0.10916
 C2331 C 0.55455 0.70690 0.09529
 C2332 C 0.54486 0.70060 0.08394
 N2333 N 0.52575 0.71699 0.12646
 N2334 N 0.53377 0.72359 0.13680
 C2335 C 0.52743 0.72788 0.15158
 C2336 C 0.53659 0.73632 0.16178
 C2337 C 0.53109 0.74006 0.17658
 C2338 C 0.51631 0.73525 0.18152
 C2339 C 0.50705 0.72690 0.17116
 C2340 C 0.51254 0.72330 0.15630
 H2341 H 0.52099 0.69592 0.07811
 H2342 H 0.51028 0.70566 0.10263
 H2343 H 0.55611 0.71715 0.11781
 H2344 H 0.56697 0.70696 0.09368
 H2345 H 0.54811 0.73986 0.15830
 H2346 H 0.53856 0.74642 0.18427
 H2347 H 0.49561 0.72305 0.17458
 H2348 H 0.50526 0.71670 0.14862
 C2349 C 0.03198 0.69565 0.59190
 C2350 C 0.02500 0.70166 0.60529
 C2351 C 0.03403 0.70750 0.61727
 C2352 C 0.05020 0.70729 0.61571
 C2353 C 0.05721 0.70107 0.60247
 C2354 C 0.04820 0.69510 0.59040
 N2355 N 0.02664 0.71313 0.63109
 N2356 N 0.03409 0.72099 0.64096
 C2357 C 0.02744 0.72623 0.65526
 C2358 C 0.03572 0.73685 0.66404
 C2359 C 0.03019 0.74160 0.67849
 C2360 C 0.01629 0.73560 0.68459
 C2361 C 0.00785 0.72502 0.67566
 C2362 C 0.01333 0.72044 0.66103
 H2363 H 0.02466 0.69142 0.58275
 H2364 H 0.01252 0.70179 0.60632
 H2365 H 0.05745 0.71159 0.62490
 H2366 H 0.06969 0.70055 0.60192
 H2367 H 0.04664 0.74131 0.65975
 H2368 H 0.03709 0.74963 0.68509
 H2369 H -0.00286 0.72017 0.68005
 H2370 H 0.00680 0.71211 0.65444
 C2371 C 0.54564 0.59075 0.21080
 C2372 C 0.53892 0.60402 0.21717
 C2373 C 0.53440 0.61620 0.20762
 C2374 C 0.53648 0.61490 0.19151
 C2375 C 0.54338 0.60173 0.18513
 C2376 C 0.54820 0.58954 0.19471
 N2377 N 0.52843 0.63003 0.21457
 N2378 N 0.52242 0.64071 0.20651
 C2379 C 0.51718 0.65494 0.21317
 C2380 C 0.50890 0.66521 0.20393
 C2381 C 0.50444 0.67962 0.20968
 C2382 C 0.50838 0.68413 0.22479
 C2383 C 0.51652 0.67369 0.23416
 C2384 C 0.52082 0.65918 0.22843
 H2385 H 0.54893 0.58148 0.21850
 H2386 H 0.53734 0.60486 0.22960
 H2387 H 0.53319 0.62424 0.18389
 H2388 H 0.54538 0.60133 0.17274
 H2389 H 0.50610 0.66210 0.19214
 H2390 H 0.49829 0.68739 0.20210
 H2391 H 0.51974 0.67681 0.24583
 H2392 H 0.52730 0.65145 0.23576
 C2393 C 0.04353 0.60263 0.68450
 C2394 C 0.03825 0.61730 0.68875
 C2395 C 0.03785 0.62177 0.70430
 C2396 C 0.04261 0.61127 0.71570
 C2397 C 0.04772 0.59650 0.71150
 C2398 C 0.04832 0.59201 0.69582
 N2399 N 0.03260 0.63700 0.70814
 N2400 N 0.03391 0.64269 0.72166
 C2401 C 0.02856 0.65793 0.72534
 C2402 C 0.03256 0.66451 0.73955
 C2403 C 0.02785 0.67952 0.74331
 C2404 C 0.01881 0.68812 0.73297
 C2405 C 0.01459 0.68138 0.71881
 C2406 C 0.01949 0.66646 0.71499
 H2407 H 0.04411 0.59974 0.67232
 H2408 H 0.03466 0.62531 0.67985
 H2409 H 0.04229 0.61443 0.72783
 H2410 H 0.05107 0.58856 0.72054
 H2411 H 0.03951 0.65806 0.74764
 H2412 H 0.03123 0.68435 0.75433
 H2413 H 0.00771 0.68772 0.71056
 H2414 H 0.01620 0.66160 0.70395
 C2415 C 0.03194 0.15225 0.05027
 C2416 C 0.02602 0.13786 0.04602
 C2417 C 0.03585 0.12628 0.04037
 C2418 C 0.05176 0.12930 0.03893
 C2419 C 0.05771 0.14364 0.04328
 C2420 C 0.04789 0.15528 0.04908
 N2421 N 0.02951 0.11151 0.03649
 N2422 N 0.03769 0.10105 0.03011
 C2423 C 0.03174 0.08608 0.02643
 C2424 C 0.04108 0.07594 0.01791
 C2425 C 0.03584 0.06116 0.01427
 C2426 C 0.02114 0.05615 0.01925
 C2427 C 0.01177 0.06635 0.02788
 C2428 C 0.01699 0.08124 0.03139
 H2429 H 0.02403 0.16102 0.05448
 H2430 H 0.01374 0.13570 0.04715
 H2431 H 0.05962 0.12051 0.03468
 H2432 H 0.07007 0.14546 0.04246
 H2433 H 0.05249 0.07951 0.01410
 H2434 H 0.04342 0.05358 0.00772
 H2435 H 0.00040 0.06285 0.03189
 H2436 H 0.00960 0.08888 0.03806
 C2437 C 0.05032 0.64944 0.53517
 C2438 C 0.04465 0.63554 0.52929
 C2439 C 0.03830 0.62444 0.53924
 C2440 C 0.03758 0.62741 0.55522
 C2441 C 0.04335 0.64124 0.56114
 C2442 C 0.04985 0.65240 0.55119
 N2443 N 0.03322 0.61005 0.53292
 N2444 N 0.02631 0.59993 0.54113
 C2445 C 0.02184 0.58528 0.53493
 C2446 C 0.01328 0.57512 0.54424
 C2447 C 0.00940 0.56044 0.53880
 C2448 C 0.01419 0.55562 0.52395
 C2449 C 0.02262 0.56595 0.51455
 C2450 C 0.02636 0.58066 0.51996
 H2451 H 0.05505 0.65788 0.52718
 H2452 H 0.04527 0.63338 0.51694
 H2453 H 0.03285 0.61893 0.56317
 H2454 H 0.04306 0.64301 0.57355
 H2455 H 0.00977 0.57854 0.55582
 H2456 H 0.00297 0.55274 0.54636
 H2457 H 0.02645 0.56264 0.50304
 H2458 H 0.03303 0.58829 0.51255
 C2459 C 0.53078 0.15735 0.54628
 C2460 C 0.52462 0.14326 0.54137
 C2461 C 0.53432 0.13163 0.53563
 C2462 C 0.55032 0.13427 0.53472
 C2463 C 0.55650 0.14825 0.53974
 C2464 C 0.54683 0.15995 0.54564
 N2465 N 0.52784 0.11706 0.53130
 N2466 N 0.53607 0.10669 0.52482
 C2467 C 0.53021 0.09177 0.52091
 C2468 C 0.53978 0.08167 0.51261
 C2469 C 0.53481 0.06675 0.50916
 C2470 C 0.52016 0.06160 0.51411
 C2471 C 0.51049 0.07184 0.52236
 C2472 C 0.51545 0.08684 0.52569
 H2473 H 0.52300 0.16618 0.55060
 H2474 H 0.51227 0.14137 0.54212
 H2475 H 0.55810 0.12541 0.53046
 H2476 H 0.56892 0.14969 0.53939
 H2477 H 0.55120 0.08534 0.50894
 H2478 H 0.54261 0.05917 0.50288
 H2479 H 0.49914 0.06824 0.52632
 H2480 H 0.50788 0.09446 0.53219
 C2481 C 0.52928 0.65517 0.04508
 C2482 C 0.52328 0.64108 0.04003
 C2483 C 0.53312 0.62955 0.03433
 C2484 C 0.54913 0.63222 0.03383
 C2485 C 0.55516 0.64620 0.03907
 C2486 C 0.54532 0.65788 0.04474
 N2487 N 0.52671 0.61515 0.02938
 N2488 N 0.53482 0.60539 0.02186
 C2489 C 0.52902 0.59067 0.01718
 C2490 C 0.53801 0.58171 0.00710
 C2491 C 0.53313 0.56703 0.00272
 C2492 C 0.51918 0.56090 0.00856
 C2493 C 0.51007 0.56998 0.01862
 C2494 C 0.51491 0.58481 0.02284
 H2495 H 0.52135 0.66397 0.04917
 H2496 H 0.51092 0.63917 0.04046
 H2497 H 0.55700 0.62342 0.02964
 H2498 H 0.56758 0.64770 0.03896
 H2499 H 0.54893 0.58610 0.00273
 H2500 H 0.54048 0.56035 -0.00497
 H2501 H 0.49929 0.56559 0.02332
 H2502 H 0.50780 0.59154 0.03072
 C2503 C 0.70519 0.10472 0.56786
 C2504 C 0.71117 0.11875 0.56260
 C2505 C 0.70848 0.12374 0.54752
 C2506 C 0.69999 0.11434 0.53751
 C2507 C 0.69408 0.10019 0.54266
 C2508 C 0.69638 0.09511 0.55806
 N2509 N 0.71431 0.13849 0.54283
 N2510 N 0.71102 0.14463 0.52988
 C2511 C 0.71690 0.15948 0.52554
 C2512 C 0.71180 0.16634 0.51184
 C2513 C 0.71708 0.18100 0.50751
 C2514 C 0.72769 0.18899 0.51679
 C2515 C 0.73287 0.18198 0.53048
 C2516 C 0.72751 0.16740 0.53484
 H2517 H 0.70692 0.10198 0.57993
 H2518 H 0.71762 0.12598 0.57046
 H2519 H 0.69797 0.11788 0.52568
 H2520 H 0.68814 0.09317 0.53427
 H2521 H 0.70361 0.16037 0.50458
 H2522 H 0.71286 0.18604 0.49688
 H2523 H 0.74098 0.18781 0.53795
 H2524 H 0.73164 0.16234 0.54549
 C2525 C 0.69701 0.61115 0.07121
 C2526 C 0.70315 0.62527 0.06633
 C2527 C 0.70554 0.62825 0.05058
 C2528 C 0.70185 0.61683 0.03967
 C2529 C 0.69585 0.60262 0.04454
 C2530 C 0.69333 0.59961 0.06038
 N2531 N 0.71161 0.64297 0.04601
 N2532 N 0.71236 0.64716 0.03190
 C2533 C 0.71835 0.66192 0.02736
 C2534 C 0.71648 0.66680 0.01206
 C2535 C 0.72160 0.68138 0.00738
 C2536 C 0.72895 0.69127 0.01793
 C2537 C 0.73117 0.68618 0.03321
 C2538 C 0.72583 0.67167 0.03793
 H2539 H 0.69495 0.60938 0.08347
 H2540 H 0.70588 0.63401 0.07485
 H2541 H 0.70368 0.61884 0.02741
 H2542 H 0.69337 0.59392 0.03591
 H2543 H 0.71077 0.65938 0.00381
 H2544 H 0.71978 0.68493 -0.00448
 H2545 H 0.73671 0.69356 0.04161
 H2546 H 0.72747 0.66811 0.04981
 C2547 C 0.18224 0.64495 0.70770
 C2548 C 0.18595 0.63071 0.71428
 C2549 C 0.20134 0.62597 0.71523
 C2550 C 0.21309 0.63573 0.70959
 C2551 C 0.20941 0.65005 0.70310
 C2552 C 0.19393 0.65483 0.70208
 N2553 N 0.20467 0.61113 0.72171
 N2554 N 0.21824 0.60551 0.72156
 C2555 C 0.22164 0.59058 0.72778
 C2556 C 0.23626 0.58428 0.72502
 C2557 C 0.23977 0.56941 0.73011
 C2558 C 0.22872 0.56063 0.73830
 C2559 C 0.21417 0.56716 0.74151
 C2560 C 0.21060 0.58200 0.73620
 H2561 H 0.17018 0.64811 0.70682
 H2562 H 0.17678 0.62325 0.71848
 H2563 H 0.22510 0.63233 0.71023
 H2564 H 0.21869 0.65745 0.69906
 H2565 H 0.24487 0.59080 0.71859
 H2566 H 0.25113 0.56475 0.72754
 H2567 H 0.20543 0.56065 0.74775
 H2568 H 0.19922 0.58669 0.73853
 C2569 C 0.19555 0.15264 0.21167
 C2570 C 0.20248 0.13967 0.21829
 C2571 C 0.20958 0.12848 0.20895
 C2572 C 0.20971 0.13042 0.19279
 C2573 C 0.20269 0.14333 0.18613
 C2574 C 0.19548 0.15460 0.19548
 N2575 N 0.21614 0.11509 0.21611
 N2576 N 0.22384 0.10508 0.20847
 C2577 C 0.22991 0.09140 0.21552
 C2578 C 0.23898 0.08135 0.20658
 C2579 C 0.24435 0.06747 0.21282
 C2580 C 0.24061 0.06334 0.22818
 C2581 C 0.23174 0.07362 0.23723
 C2582 C 0.22647 0.08754 0.23099
 H2583 H 0.19034 0.16119 0.21924
 H2584 H 0.20230 0.13832 0.23076
 H2585 H 0.21502 0.12186 0.18530
 H2586 H 0.20264 0.14431 0.17363
 H2587 H 0.24168 0.08417 0.19463
 H2588 H 0.25104 0.05980 0.20547
 H2589 H 0.22864 0.07081 0.24909
 H2590 H 0.21945 0.09511 0.23815
 C2591 C 0.71001 1.16442 0.72419
 C2592 C 0.71472 1.15029 0.73040
 C2593 C 0.72185 1.13924 0.72099
 C2594 C 0.72468 1.14262 0.70533
 C2595 C 0.71994 1.15664 0.69906
 C2596 C 0.71220 1.16777 0.70827
 N2597 N 0.72561 1.12445 0.72732
 N2598 N 0.73247 1.11433 0.71908
 C2599 C 0.73603 1.09920 0.72456
 C2600 C 0.74483 1.08957 0.71498
 C2601 C 0.74838 1.07462 0.71963
 C2602 C 0.74304 1.06894 0.73398
 C2603 C 0.73405 1.07860 0.74358
 C2604 C 0.73061 1.09369 0.73893
 H2605 H 0.70486 1.17270 0.73207
 H2606 H 0.71266 1.14790 0.74256
 H2607 H 0.73013 1.13422 0.69776
 H2608 H 0.72156 1.15809 0.68672
 H2609 H 0.74895 1.09370 0.70383
 H2610 H 0.75523 1.06746 0.71189
 H2611 H 0.72979 1.07455 0.75470
 H2612 H 0.72367 1.10096 0.74646
 C2613 C 0.71744 0.66046 0.20075
 C2614 C 0.72461 0.64726 0.20665
 C2615 C 0.71594 0.63600 0.21442
 C2616 C 0.69995 0.63818 0.21640
 C2617 C 0.69272 0.65124 0.21033
 C2618 C 0.70134 0.66250 0.20229
 N2619 N 0.72339 0.62218 0.21963
 N2620 N 0.71647 0.61277 0.22862
 C2621 C 0.72303 0.59842 0.23347
 C2622 C 0.71523 0.58995 0.24486
 C2623 C 0.72043 0.57534 0.24911
 C2624 C 0.73352 0.56876 0.24189
 C2625 C 0.74159 0.57744 0.23065
 C2626 C 0.73642 0.59221 0.22651
 H2627 H 0.72450 0.66901 0.19490
 H2628 H 0.73695 0.64576 0.20507
 H2629 H 0.69294 0.62958 0.22225
 H2630 H 0.68030 0.65223 0.21151
 H2631 H 0.70487 0.59459 0.25025
 H2632 H 0.71383 0.56903 0.25776
 H2633 H 0.75169 0.57272 0.22484
 H2634 H 0.74259 0.59856 0.21758
 C2635 C 0.55737 0.11009 0.67875
 C2636 C 0.55074 0.12388 0.68395
 C2637 C 0.55055 0.12758 0.69971
 C2638 C 0.55717 0.11726 0.71032
 C2639 C 0.56374 0.10338 0.70515
 C2640 C 0.56385 0.09958 0.68929
 N2641 N 0.54363 0.14187 0.70453
 N2642 N 0.54401 0.14665 0.71847
 C2643 C 0.53715 0.16103 0.72309
 C2644 C 0.54005 0.16677 0.73792
 C2645 C 0.53431 0.18118 0.74248
 C2646 C 0.52532 0.19006 0.73231
 C2647 C 0.52198 0.18403 0.71759
 C2648 C 0.52791 0.16969 0.71298
 H2649 H 0.55755 0.10772 0.66644
 H2650 H 0.54579 0.13178 0.67564
 H2651 H 0.55716 0.11986 0.72258
 H2652 H 0.56850 0.09549 0.71358
 H2653 H 0.54711 0.16021 0.74584
 H2654 H 0.53706 0.18546 0.75390
 H2655 H 0.51518 0.19060 0.70945
 H2656 H 0.52542 0.16547 0.70147
 C2657 C 1.05459 0.09519 0.21529
 C2658 C 1.04791 0.10850 0.22160
 C2659 C 1.04072 0.11930 0.21203
 C2660 C 1.04019 0.11658 0.19599
 C2661 C 1.04702 0.10338 0.18964
 C2662 C 1.05439 0.09255 0.19920
 N2663 N 1.03461 0.13317 0.21873
 N2664 N 1.02632 0.14242 0.21096
 C2665 C 1.02070 0.15671 0.21717
 C2666 C 1.01018 0.16526 0.20851
 C2667 C 1.00512 0.17967 0.21369
 C2668 C 1.01066 0.18591 0.22762
 C2669 C 1.02109 0.17719 0.23644
 C2670 C 1.02602 0.16265 0.23129
 H2671 H 1.05996 0.08699 0.22301
 H2672 H 1.04838 0.11045 0.23397
 H2673 H 1.03483 0.12484 0.18833
 H2674 H 1.04691 0.10190 0.17719
 H2675 H 1.00607 0.16082 0.19758
 H2676 H 0.99718 0.18610 0.20654
 H2677 H 1.02557 0.18166 0.24721
 H2678 H 1.03423 0.15625 0.23815
 C2679 C 0.19952 0.59260 0.53766
 C2680 C 0.20556 0.60610 0.53115
 C2681 C 0.21154 0.61770 0.54061
 C2682 C 0.21165 0.61556 0.55674
 C2683 C 0.20548 0.60214 0.56329
 C2684 C 0.19920 0.59056 0.55383
 N2685 N 0.21677 0.63179 0.53367
 N2686 N 0.22368 0.64210 0.54147
 C2687 C 0.22828 0.65656 0.53488
 C2688 C 0.23739 0.66650 0.54366
 C2689 C 0.24146 0.68103 0.53794
 C2690 C 0.23627 0.68595 0.52336
 C2691 C 0.22720 0.67588 0.51450
 C2692 C 0.22330 0.66125 0.52017
 H2693 H 0.19501 0.58380 0.53004
 H2694 H 0.20543 0.60761 0.51870
 H2695 H 0.21612 0.62442 0.56431
 H2696 H 0.20519 0.60107 0.57578
 H2697 H 0.24122 0.66304 0.55504
 H2698 H 0.24835 0.68855 0.54513
 H2699 H 0.22305 0.67932 0.50323
 H2700 H 0.21616 0.65377 0.51321
 C2701 C 0.21639 0.09459 1.05203
 C2702 C 0.22306 0.10792 1.04574
 C2703 C 0.21382 0.11928 1.03899
 C2704 C 0.19774 0.11718 1.03864
 C2705 C 0.19103 0.10398 1.04511
 C2706 C 0.20025 0.09249 1.05190
 N2707 N 0.22091 0.13302 1.03301
 N2708 N 0.21346 0.14253 1.02469
 C2709 C 0.22002 0.15670 1.01919
 C2710 C 0.21169 0.16549 1.00858
 C2711 C 0.21718 0.17985 1.00369
 C2712 C 0.23108 0.18581 1.00952
 C2713 C 0.23959 0.17681 1.01998
 C2714 C 0.23414 0.16233 1.02473
 H2715 H 0.22388 0.08590 1.05693
 H2716 H 0.23548 0.10940 1.04608
 H2717 H 0.19032 0.12588 1.03365
 H2718 H 0.17857 0.10295 1.04508
 H2719 H 0.20076 0.16129 1.00427
 H2720 H 0.21028 0.18648 0.99569
 H2721 H 0.25031 0.18106 1.02472
 H2722 H 0.24075 0.15575 1.03301
 C2723 C 0.20530 0.68403 0.64876
 C2724 C 0.21190 0.68900 0.63478
 C2725 C 0.21383 0.70475 0.63177
 C2726 C 0.20941 0.71555 0.64311
 C2727 C 0.20301 0.71059 0.65721
 C2728 C 0.20070 0.69476 0.66016
 N2729 N 0.21998 0.70938 0.61702
 N2730 N 0.21973 0.72333 0.61237
 C2731 C 0.22574 0.72766 0.59745
 C2732 C 0.22228 0.74229 0.59153
 C2733 C 0.22706 0.74643 0.57655
 C2734 C 0.23564 0.73604 0.56735
 C2735 C 0.23957 0.72157 0.57357
 C2736 C 0.23458 0.71737 0.58843
 H2737 H 0.20346 0.67178 0.65043
 H2738 H 0.21521 0.68056 0.62611
 H2739 H 0.21092 0.72780 0.64109
 H2740 H 0.19990 0.71918 0.66581
 H2741 H 0.21549 0.75034 0.59837
 H2742 H 0.22388 0.75767 0.57211
 H2743 H 0.24607 0.71326 0.56676
 H2744 H 0.23748 0.70602 0.59277
 C2745 C 0.19237 0.21113 1.15137
 C2746 C 0.19751 0.21761 1.13741
 C2747 C 0.20364 0.20826 1.12566
 C2748 C 0.20473 0.19225 1.12809
 C2749 C 0.19949 0.18573 1.14199
 C2750 C 0.19313 0.19507 1.15377
 N2751 N 0.20832 0.21520 1.11129
 N2752 N 0.21513 0.20752 1.10067
 C2753 C 0.21954 0.21423 1.08612
 C2754 C 0.22869 0.20557 1.07588
 C2755 C 0.23316 0.21165 1.06155
 C2756 C 0.22838 0.22651 1.05708
 C2757 C 0.21905 0.23516 1.06733
 C2758 C 0.21474 0.22910 1.08178
 H2759 H 0.18779 0.21870 1.16028
 H2760 H 0.19665 0.22997 1.13571
 H2761 H 0.20937 0.18475 1.11915
 H2762 H 0.20004 0.17332 1.14335
 H2763 H 0.23240 0.19407 1.07906
 H2764 H 0.24023 0.20463 1.05388
 H2765 H 0.21519 0.24663 1.06423
 H2766 H 0.20757 0.23598 1.08947
 C2767 C 0.68048 0.55006 0.10991
 C2768 C 0.68539 0.54384 0.12395
 C2769 C 0.70096 0.54442 0.12802
 C2770 C 0.71172 0.55113 0.11775
 C2771 C 0.70686 0.55724 0.10362
 C2772 C 0.69115 0.55685 0.09957
 N2773 N 0.70545 0.53830 0.14270
 N2774 N 0.71904 0.53987 0.14796
 C2775 C 0.72329 0.53379 0.16274
 C2776 C 0.73764 0.53771 0.16891
 C2777 C 0.74181 0.53250 0.18362
 C2778 C 0.73171 0.52310 0.19233
 C2779 C 0.71744 0.51890 0.18592
 C2780 C 0.71324 0.52425 0.17130
 H2781 H 0.66828 0.54981 0.10731
 H2782 H 0.67698 0.53876 0.13180
 H2783 H 0.72385 0.55162 0.12062
 H2784 H 0.71541 0.56216 0.09583
 H2785 H 0.74549 0.54504 0.16241
 H2786 H 0.75290 0.53591 0.18819
 H2787 H 0.70936 0.51174 0.19233
 H2788 H 0.70209 0.52100 0.16676
 C2789 C 0.69550 1.03714 0.59947
 C2790 C 0.70177 1.03063 0.61285
 C2791 C 0.70845 1.04003 0.62413
 C2792 C 0.70857 1.05611 0.62202
 C2793 C 0.70216 1.06263 0.60880
 C2794 C 0.69566 1.05324 0.59727
 N2795 N 0.71486 1.03314 0.63772
 N2796 N 0.72309 1.04095 0.64700
 C2797 C 0.72927 1.03466 0.66094
 C2798 C 0.73953 1.04364 0.66950
 C2799 C 0.74528 1.03826 0.68355
 C2800 C 0.74070 1.02380 0.68940
 C2801 C 0.73051 1.01470 0.68067
 C2802 C 0.72489 1.02005 0.66651
 H2803 H 0.69073 1.02957 0.59077
 H2804 H 0.70158 1.01822 0.61436
 H2805 H 0.71346 1.06365 0.63068
 H2806 H 0.70214 1.07508 0.60770
 H2807 H 0.74294 1.05494 0.66534
 H2808 H 0.75301 1.04562 0.68999
 H2809 H 0.72674 1.00352 0.68485
 H2810 H 0.71691 1.01294 0.66010
 C2811 C 0.53289 0.20148 0.58979
 C2812 C 0.52733 0.20709 0.60397
 C2813 C 0.53760 0.21227 0.61524
 C2814 C 0.55356 0.21179 0.61217
 C2815 C 0.55914 0.20602 0.59809
 C2816 C 0.54888 0.20078 0.58671
 N2817 N 0.53162 0.21756 0.62983
 N2818 N 0.54023 0.22421 0.63964
 C2819 C 0.53469 0.22906 0.65452
 C2820 C 0.54435 0.23801 0.66377
 C2821 C 0.53962 0.24246 0.67861
 C2822 C 0.52515 0.23783 0.68456
 C2823 C 0.51541 0.22889 0.67520
 C2824 C 0.52011 0.22460 0.66026
 H2825 H 0.52467 0.19773 0.58121
 H2826 H 0.51500 0.20741 0.60620
 H2827 H 0.56174 0.21558 0.62077
 H2828 H 0.57152 0.20534 0.59628
 H2829 H 0.55564 0.24144 0.65949
 H2830 H 0.54745 0.24924 0.68555
 H2831 H 0.50421 0.22515 0.67945
 H2832 H 0.51248 0.21759 0.65332
 C2833 C 1.05866 0.20773 0.09663
 C2834 C 1.05309 0.21438 0.11031
 C2835 C 1.03800 0.21164 0.11537
 C2836 C 1.02833 0.20225 0.10649
 C2837 C 1.03381 0.19562 0.09272
 C2838 C 1.04915 0.19816 0.08747
 N2839 N 1.03296 0.21827 0.12975
 N2840 N 1.01983 0.21533 0.13581
 C2841 C 1.01523 0.22182 0.15040
 C2842 C 1.00167 0.21655 0.15759
 C2843 C 0.99749 0.22182 0.17236
 C2844 C 1.00679 0.23259 0.18012
 C2845 C 1.02013 0.23826 0.17261
 C2846 C 1.02434 0.23288 0.15792
 H2847 H 1.07070 0.20964 0.09381
 H2848 H 1.06071 0.22147 0.11719
 H2849 H 1.01653 0.20008 0.11013
 H2850 H 1.02570 0.18896 0.08602
 H2851 H 0.99454 0.20804 0.15190
 H2852 H 0.98713 0.21724 0.17780
 H2853 H 1.02759 0.24650 0.17827
 H2854 H 1.03486 0.23718 0.15257
 C2855 C 0.66901 0.20929 0.72309
 C2856 C 0.65475 0.21407 0.72916
 C2857 C 0.64254 0.21750 0.71927
 C2858 C 0.64478 0.21625 0.70317
 C2859 C 0.65893 0.21130 0.69710
 C2860 C 0.67119 0.20765 0.70699
 N2861 N 0.62785 0.22178 0.72572
 N2862 N 0.61715 0.22678 0.71708
 C2863 C 0.60210 0.23071 0.72274
 C2864 C 0.59212 0.23835 0.71275
 C2865 C 0.57718 0.24209 0.71754
 C2866 C 0.57184 0.23803 0.73244
 C2867 C 0.58185 0.23023 0.74249
 C2868 C 0.59696 0.22668 0.73771
 H2869 H 0.67829 0.20673 0.73100
 H2870 H 0.65319 0.21503 0.74158
 H2871 H 0.63547 0.21871 0.69527
 H2872 H 0.66006 0.20985 0.68469
 H2873 H 0.59594 0.24139 0.70116
 H2874 H 0.56972 0.24794 0.70944
 H2875 H 0.57803 0.22696 0.75401
 H2876 H 0.60451 0.22064 0.74557
 C2877 C 1.14925 0.19320 0.21093
 C2878 C 1.13549 0.19910 0.21722
 C2879 C 1.12399 0.20490 0.20755
 C2880 C 1.12629 0.20451 0.19142
 C2881 C 1.13993 0.19844 0.18512
 C2882 C 1.15166 0.19282 0.19479
 N2883 N 1.11003 0.21088 0.21431
 N2884 N 1.10019 0.21828 0.20636
 C2885 C 1.08595 0.22390 0.21284
 C2886 C 1.07646 0.23320 0.20374
 C2887 C 1.06215 0.23827 0.20940
 C2888 C 1.05699 0.23395 0.22429
 C2889 C 1.06667 0.22478 0.23351
 C2890 C 1.08106 0.21985 0.22787
 H2891 H 1.15808 0.18917 0.21874
 H2892 H 1.13385 0.19930 0.22967
 H2893 H 1.11748 0.20873 0.18369
 H2894 H 1.14121 0.19802 0.17264
 H2895 H 1.08009 0.23636 0.19212
 H2896 H 1.05494 0.24521 0.20195
 H2897 H 1.06306 0.22126 0.24502
 H2898 H 1.08818 0.21263 0.23512
 C2899 C 0.10408 0.68082 0.54795
 C2900 C 0.11851 0.68587 0.54264
 C2901 C 0.12190 0.70162 0.54190
 C2902 C 0.11057 0.71240 0.54640
 C2903 C 0.09602 0.70736 0.55155
 C2904 C 0.09260 0.69149 0.55241
 N2905 N 0.13690 0.70625 0.53651
 N2906 N 0.14173 0.72011 0.53729
 C2907 C 0.15681 0.72430 0.53169
 C2908 C 0.16268 0.73897 0.53507
 C2909 C 0.17756 0.74315 0.53014
 C2910 C 0.18674 0.73276 0.52153
 C2911 C 0.18068 0.71814 0.51793
 C2912 C 0.16591 0.71392 0.52303
 H2913 H 0.10203 0.66852 0.54877
 H2914 H 0.12717 0.67746 0.53927
 H2915 H 0.11291 0.72466 0.54582
 H2916 H 0.08741 0.71591 0.55468
 H2917 H 0.15578 0.74708 0.54171
 H2918 H 0.18187 0.75451 0.53305
 H2919 H 0.18745 0.70983 0.51140
 H2920 H 0.16162 0.70254 0.52020
 C2921 C 0.08897 0.21378 1.04272
 C2922 C 0.10269 0.22014 1.03691
 C2923 C 0.11480 0.21058 1.03200
 C2924 C 0.11291 0.19448 1.03260
 C2925 C 0.09926 0.18809 1.03857
 C2926 C 0.08722 0.19767 1.04395
 N2927 N 0.12912 0.21746 1.02722
 N2928 N 0.14003 0.20955 1.02121
 C2929 C 0.15464 0.21621 1.01712
 C2930 C 0.16510 0.20750 1.00829
 C2931 C 0.17966 0.21342 1.00452
 C2932 C 0.18413 0.22811 1.00976
 C2933 C 0.17362 0.23685 1.01867
 C2934 C 0.15894 0.23100 1.02223
 H2935 H 0.07982 0.22149 1.04647
 H2936 H 0.10398 0.23257 1.03644
 H2937 H 0.12215 0.18683 1.02894
 H2938 H 0.09838 0.17566 1.03952
 H2939 H 0.16196 0.19606 1.00438
 H2940 H 0.18753 0.20635 0.99774
 H2941 H 0.17672 0.24821 1.02285
 H2942 H 0.15107 0.23790 1.02918
 C2943 C 0.59412 0.53487 0.19784
 C2944 C 0.60730 0.52903 0.20499
 C2945 C 0.61761 0.53896 0.21237
 C2946 C 0.61454 0.55488 0.21267
 C2947 C 0.60144 0.56075 0.20543
 C2948 C 0.59111 0.55083 0.19784
 N2949 N 0.63144 0.53269 0.21878
 N2950 N 0.64075 0.54082 0.22666
 C2951 C 0.65498 0.53466 0.23229
 C2952 C 0.66427 0.54385 0.24173
 C2953 C 0.67874 0.53856 0.24647
 C2954 C 0.68420 0.52401 0.24167
 C2955 C 0.67467 0.51468 0.23248
 C2956 C 0.66018 0.51992 0.22787
 H2957 H 0.58629 0.52689 0.19232
 H2958 H 0.60956 0.51673 0.20467
 H2959 H 0.62244 0.56280 0.21818
 H2960 H 0.59963 0.57312 0.20542
 H2961 H 0.66041 0.55525 0.24516
 H2962 H 0.68584 0.54606 0.25347
 H2963 H 0.67850 0.50340 0.22864
 H2964 H 0.65322 0.51261 0.22055
 C2965 C 0.61657 1.05244 0.68005
 C2966 C 0.63046 1.04644 0.68549
 C2967 C 0.63398 1.04717 0.70123
 C2968 C 0.62341 1.05413 0.71156
 C2969 C 0.60941 1.06010 0.70613
 C2970 C 0.60577 1.05921 0.69030
 N2971 N 0.64833 1.04073 0.70629
 N2972 N 0.65295 1.04175 0.72020
 C2973 C 0.66738 1.03524 0.72499
 C2974 C 0.67281 1.03857 0.73982
 C2975 C 0.68715 1.03298 0.74461
 C2976 C 0.69627 1.02376 0.73468
 C2977 C 0.69060 1.02010 0.71992
 C2978 C 0.67632 1.02585 0.71508
 H2979 H 0.61432 1.05185 0.66775
 H2980 H 0.63855 1.04121 0.67740
 H2981 H 0.62588 1.05482 0.72380
 H2982 H 0.60131 1.06512 0.71434
 H2983 H 0.66603 1.04575 0.74759
 H2984 H 0.69114 1.03599 0.75607
 H2985 H 0.69737 1.01312 0.71195
 H2986 H 0.67236 1.02305 0.70357
 C2987 C 0.90214 0.46403 0.30570
 C2988 C 0.88834 0.47082 0.30085
 C2989 C 0.87640 0.46172 0.29500
 C2990 C 0.87846 0.44565 0.29398
 C2991 C 0.89219 0.43883 0.29896
 C2992 C 0.90420 0.44792 0.30497
 N2993 N 0.86225 0.46900 0.29048
 N2994 N 0.85160 0.46160 0.28364
 C2995 C 0.83724 0.46858 0.27934
 C2996 C 0.82708 0.46015 0.27014
 C2997 C 0.81287 0.46641 0.26587
 C2998 C 0.80844 0.48124 0.27091
 C2999 C 0.81865 0.48969 0.28023
 C3000 C 0.83299 0.48345 0.28434
 H3001 H 0.91122 0.47144 0.30999
 H3002 H 0.88695 0.48322 0.30165
 H3003 H 0.86936 0.43834 0.28958
 H3004 H 0.89324 0.42638 0.29845
 H3005 H 0.83018 0.44865 0.26627
 H3006 H 0.80525 0.45951 0.25881
 H3007 H 0.81559 0.50112 0.28430
 H3008 H 0.84063 0.49016 0.29154
 C3009 C 0.91538 0.95339 0.78325
 C3010 C 0.90217 0.95932 0.77619
 C3011 C 0.89032 0.96587 0.78516
 C3012 C 0.89189 0.96657 0.80133
 C3013 C 0.90495 0.96046 0.80840
 C3014 C 0.91683 0.95368 0.79949
 N3015 N 0.87652 0.97113 0.77780
 N3016 N 0.86651 0.97900 0.78526
 C3017 C 0.85216 0.98382 0.77880
 C3018 C 0.84296 0.99405 0.78733
 C3019 C 0.82838 0.99824 0.78209
 C3020 C 0.82260 0.99209 0.76821
 C3021 C 0.83197 0.98195 0.75950
 C3022 C 0.84670 0.97790 0.76472
 H3023 H 0.92440 0.94848 0.77600
 H3024 H 0.90112 0.95874 0.76372
 H3025 H 0.88282 0.97143 0.80855
 H3026 H 0.90547 0.96061 0.82093
 H3027 H 0.84703 0.99859 0.79824
 H3028 H 0.82148 1.00598 0.78917
 H3029 H 0.82786 0.97702 0.74879
 H3030 H 0.85362 0.96986 0.75800
 C3031 C 0.35024 0.28453 0.80068
 C3032 C 0.36436 0.27821 0.79584
 C3033 C 0.37611 0.28771 0.79002
 C3034 C 0.37354 0.30371 0.78898
 C3035 C 0.35948 0.31007 0.79396
 C3036 C 0.34767 0.30058 0.79996
 N3037 N 0.39060 0.28095 0.78548
 N3038 N 0.40101 0.28880 0.77858
 C3039 C 0.41573 0.28253 0.77416
 C3040 C 0.42547 0.29144 0.76478
 C3041 C 0.44000 0.28594 0.76034
 C3042 C 0.44521 0.27141 0.76538
 C3043 C 0.43544 0.26247 0.77493
 C3044 C 0.42075 0.26794 0.77921
 H3045 H 0.34133 0.27684 0.80499
 H3046 H 0.36616 0.26587 0.79664
 H3047 H 0.38247 0.31133 0.78460
 H3048 H 0.35804 0.32247 0.79347
 H3049 H 0.42177 0.30272 0.76089
 H3050 H 0.44724 0.29322 0.75311
 H3051 H 0.43912 0.25126 0.77904
 H3052 H 0.41342 0.26089 0.78657
 C3053 C 0.85048 0.31688 0.29536
 C3054 C 0.86478 0.31188 0.28969
 C3055 C 0.86869 0.29624 0.29007
 C3056 C 0.85812 0.28554 0.29627
 C3057 C 0.84372 0.29050 0.30183
 C3058 C 0.83970 0.30623 0.30135
 N3059 N 0.88336 0.29160 0.28388
 N3060 N 0.88850 0.27791 0.28514
 C3061 C 0.90314 0.27357 0.27864
 C3062 C 0.90947 0.25922 0.28243
 C3063 C 0.92392 0.25486 0.27653
 C3064 C 0.93219 0.26475 0.26652
 C3065 C 0.92566 0.27905 0.26252
 C3066 C 0.91131 0.28346 0.26858
 H3067 H 0.84793 0.32911 0.29514
 H3068 H 0.87288 0.32024 0.28501
 H3069 H 0.86090 0.27336 0.29662
 H3070 H 0.83562 0.28201 0.30625
 H3071 H 0.90326 0.25149 0.29013
 H3072 H 0.92862 0.24375 0.27979
 H3073 H 0.93175 0.28696 0.25491
 H3074 H 0.90663 0.29460 0.26542
 C3075 C 0.40258 0.80589 0.46107
 C3076 C 0.38905 0.80034 0.46808
 C3077 C 0.37749 0.79357 0.45916
 C3078 C 0.37959 0.79243 0.44304
 C3079 C 0.39302 0.79813 0.43598
 C3080 C 0.40469 0.80496 0.44490
 N3081 N 0.36364 0.78825 0.46664
 N3082 N 0.35361 0.78035 0.45945
 C3083 C 0.33950 0.77530 0.46659
 C3084 C 0.33007 0.76504 0.45853
 C3085 C 0.31603 0.76014 0.46492
 C3086 C 0.31104 0.76561 0.47948
 C3087 C 0.32055 0.77594 0.48758
 C3088 C 0.33471 0.78068 0.48123
 H3089 H 0.41141 0.81086 0.46832
 H3090 H 0.38758 0.80127 0.48052
 H3091 H 0.37075 0.78736 0.43586
 H3092 H 0.39411 0.79746 0.42350
 H3093 H 0.33361 0.76087 0.44720
 H3094 H 0.30893 0.75230 0.45829
 H3095 H 0.31703 0.78038 0.49881
 H3096 H 0.34178 0.78871 0.48764
 C3097 C 0.40332 0.28414 0.94516
 C3098 C 0.38965 0.27752 0.95082
 C3099 C 0.37835 0.28667 0.95801
 C3100 C 0.38093 0.30260 0.95962
 C3101 C 0.39450 0.30926 0.95384
 C3102 C 0.40584 0.30015 0.94646
 N3103 N 0.36413 0.27972 0.96301
 N3104 N 0.35416 0.28718 0.97095
 C3105 C 0.33956 0.28073 0.97544
 C3106 C 0.32995 0.28917 0.98542
 C3107 C 0.31526 0.28368 0.98939
 C3108 C 0.30985 0.26966 0.98326
 C3109 C 0.31963 0.26109 0.97337
 C3110 C 0.33439 0.26654 0.96954
 H3111 H 0.41189 0.27674 0.93976
 H3112 H 0.38780 0.26522 0.94951
 H3113 H 0.37231 0.30996 0.96501
 H3114 H 0.39590 0.32165 0.95479
 H3115 H 0.33378 0.30015 0.98998
 H3116 H 0.30801 0.29063 0.99695
 H3117 H 0.31582 0.25025 0.96847
 H3118 H 0.34161 0.25985 0.96173
 C3119 C 0.80076 0.46796 0.40978
 C3120 C 0.79527 0.47444 0.39607
 C3121 C 0.78941 0.46500 0.38439
 C3122 C 0.78907 0.44893 0.38654
 C3123 C 0.79470 0.44242 0.40016
 C3124 C 0.80064 0.45186 0.41195
 N3125 N 0.78423 0.47192 0.37031
 N3126 N 0.77711 0.46416 0.36011
 C3127 C 0.77231 0.47075 0.34576
 C3128 C 0.76283 0.46207 0.33609
 C3129 C 0.75826 0.46793 0.32179
 C3130 C 0.76329 0.48257 0.31684
 C3131 C 0.77283 0.49130 0.32660
 C3132 C 0.77723 0.48548 0.34100
 H3133 H 0.80506 0.47557 0.41870
 H3134 H 0.79558 0.48684 0.39454
 H3135 H 0.78472 0.44137 0.37760
 H3136 H 0.79472 0.42998 0.40129
 H3137 H 0.75903 0.45067 0.33962
 H3138 H 0.75102 0.46086 0.31450
 H3139 H 0.77688 0.50262 0.32311
 H3140 H 0.78465 0.49237 0.34827
 C3141 C 0.78557 0.95090 0.90868
 C3142 C 0.77947 0.95633 0.89476
 C3143 C 0.78923 0.96236 0.88325
 C3144 C 0.80524 0.96274 0.88573
 C3145 C 0.81136 0.95714 0.89953
 C3146 C 0.80160 0.95121 0.91123
 N3147 N 0.78274 0.96778 0.86905
 N3148 N 0.79079 0.97544 0.85933
 C3149 C 0.78490 0.98061 0.84481
 C3150 C 0.79402 0.99050 0.83578
 C3151 C 0.78907 0.99528 0.82123
 C3152 C 0.77491 0.99007 0.81531
 C3153 C 0.76567 0.98023 0.82448
 C3154 C 0.77059 0.97559 0.83916
 H3155 H 0.77771 0.94657 0.91750
 H3156 H 0.76711 0.95596 0.89299
 H3157 H 0.81305 0.96717 0.87693
 H3158 H 0.82377 0.95723 0.90090
 H3159 H 0.80509 0.99439 0.83999
 H3160 H 0.79655 1.00275 0.81445
 H3161 H 0.75472 0.97601 0.82026
 H3162 H 0.76338 0.96787 0.84594
 C3163 C 0.29172 0.81403 0.35501
 C3164 C 0.28528 0.80892 0.36899
 C3165 C 0.28525 0.79323 0.37272
 C3166 C 0.29150 0.78255 0.36211
 C3167 C 0.29780 0.78762 0.34801
 C3168 C 0.29809 0.80346 0.34432
 N3169 N 0.27912 0.78858 0.38746
 N3170 N 0.28039 0.77487 0.39259
 C3171 C 0.27441 0.77055 0.40752
 C3172 C 0.27835 0.75615 0.41365
 C3173 C 0.27351 0.75200 0.42858
 C3174 C 0.26443 0.76216 0.43757
 C3175 C 0.26011 0.77644 0.43119
 C3176 C 0.26512 0.78064 0.41633
 H3177 H 0.29200 0.82632 0.35274
 H3178 H 0.28057 0.81727 0.37710
 H3179 H 0.29153 0.77033 0.36472
 H3180 H 0.30239 0.77915 0.33997
 H3181 H 0.28549 0.74827 0.40697
 H3182 H 0.27700 0.74090 0.43313
 H3183 H 0.25321 0.78456 0.43783
 H3184 H 0.26187 0.79183 0.41183
 C3185 C 0.30490 0.28524 0.84228
 C3186 C 0.29850 0.27908 0.85586
 C3187 C 0.29203 0.28878 0.86713
 C3188 C 0.29203 0.30482 0.86470
 C3189 C 0.29858 0.31102 0.85121
 C3190 C 0.30513 0.30130 0.83983
 N3191 N 0.28600 0.28212 0.88112
 N3192 N 0.27838 0.29001 0.89101
 C3193 C 0.27289 0.28349 0.90527
 C3194 C 0.26315 0.29227 0.91483
 C3195 C 0.25816 0.28651 0.92916
 C3196 C 0.26303 0.27189 0.93425
 C3197 C 0.27270 0.26302 0.92453
 C3198 C 0.27753 0.26873 0.91013
 H3199 H 0.30962 0.27741 0.83367
 H3200 H 0.29857 0.26670 0.85761
 H3201 H 0.28723 0.31257 0.87333
 H3202 H 0.29880 0.32344 0.84985
 H3203 H 0.25955 0.30368 0.91123
 H3204 H 0.25081 0.29368 0.93641
 H3205 H 0.27662 0.25171 0.92809
 H3206 H 0.28511 0.26174 0.90296
 C3207 C 0.43392 0.29970 0.89144
 C3208 C 0.43934 0.29434 0.87712
 C3209 C 0.45518 0.29395 0.87383
 C3210 C 0.46564 0.29904 0.88508
 C3211 C 0.46024 0.30428 0.89948
 C3212 C 0.44430 0.30462 0.90287
 N3213 N 0.46027 0.28821 0.85907
 N3214 N 0.47430 0.28890 0.85457
 C3215 C 0.47921 0.28299 0.83982
 C3216 C 0.49418 0.28621 0.83448
 C3217 C 0.49919 0.28094 0.81996
 C3218 C 0.48933 0.27212 0.81060
 C3219 C 0.47438 0.26866 0.81613
 C3220 C 0.46933 0.27411 0.83056
 H3221 H 0.42156 0.30010 0.89349
 H3222 H 0.43117 0.29053 0.86852
 H3223 H 0.47796 0.29878 0.88281
 H3224 H 0.46854 0.30782 0.90807
 H3225 H 0.50192 0.29300 0.84151
 H3226 H 0.51078 0.28376 0.81606
 H3227 H 0.46647 0.26198 0.80916
 H3228 H 0.45772 0.27141 0.83446
 C3229 C 0.93314 0.29499 0.39368
 C3230 C 0.93721 0.28945 0.37901
 C3231 C 0.95273 0.28800 0.37465
 C3232 C 0.96427 0.29200 0.38525
 C3233 C 0.96022 0.29736 0.40003
 C3234 C 0.94459 0.29898 0.40442
 N3235 N 0.95643 0.28249 0.35942
 N3236 N 0.97007 0.28298 0.35381
 C3237 C 0.97360 0.27737 0.33857
 C3238 C 0.98800 0.28078 0.33192
 C3239 C 0.99160 0.27589 0.31687
 C3240 C 0.98089 0.26726 0.30833
 C3241 C 0.96654 0.26359 0.31517
 C3242 C 0.96288 0.26868 0.33012
 H3243 H 0.92101 0.29636 0.39652
 H3244 H 0.92822 0.28645 0.37091
 H3245 H 0.97637 0.29087 0.38217
 H3246 H 0.96933 0.30008 0.40808
 H3247 H 0.99637 0.28744 0.33833
 H3248 H 1.00277 0.27885 0.31194
 H3249 H 0.95801 0.25704 0.30885
 H3250 H 0.95169 0.26585 0.33505
 C3251 C 0.43463 0.39446 0.79316
 C3252 C 0.44067 0.38095 0.78677
 C3253 C 0.45661 0.37882 0.78561
 C3254 C 0.46661 0.39051 0.79070
 C3255 C 0.46057 0.40418 0.79692
 C3256 C 0.44449 0.40628 0.79827
 N3257 N 0.46223 0.36454 0.77950
 N3258 N 0.47635 0.36057 0.78011
 C3259 C 0.48139 0.34601 0.77409
 C3260 C 0.49609 0.34057 0.77783
 C3261 C 0.50083 0.32588 0.77306
 C3262 C 0.49097 0.31651 0.76426
 C3263 C 0.47641 0.32224 0.76009
 C3264 C 0.47162 0.33682 0.76503
 H3265 H 0.42221 0.39548 0.79436
 H3266 H 0.43289 0.37196 0.78298
 H3267 H 0.47901 0.38908 0.78983
 H3268 H 0.46847 0.41312 0.80058
 H3269 H 0.50372 0.34756 0.78478
 H3270 H 0.51216 0.32181 0.77637
 H3271 H 0.46854 0.31529 0.75336
 H3272 H 0.46021 0.34081 0.76193
 C3273 C 0.96099 0.40392 0.30129
 C3274 C 0.96722 0.39031 0.29515
 C3275 C 0.95756 0.37885 0.28923
 C3276 C 0.94149 0.38125 0.28934
 C3277 C 0.93522 0.39481 0.29560
 C3278 C 0.94489 0.40626 0.30180
 N3279 N 0.96430 0.36477 0.28362
 N3280 N 0.95634 0.35455 0.27675
 C3281 C 0.96281 0.34021 0.27150
 C3282 C 0.95376 0.33053 0.26238
 C3283 C 0.95944 0.31628 0.25737
 C3284 C 0.97430 0.31130 0.26158
 C3285 C 0.98342 0.32107 0.27075
 C3286 C 0.97776 0.33546 0.27561
 H3287 H 0.96880 0.41259 0.30568
 H3288 H 0.97962 0.38864 0.29508
 H3289 H 0.93376 0.37253 0.28490
 H3290 H 0.92278 0.39612 0.29599
 H3291 H 0.94221 0.33403 0.25919
 H3292 H 0.95204 0.30904 0.25042
 H3293 H 0.99489 0.31758 0.27421
 H3294 H 0.98494 0.34273 0.28274
 C3295 C 0.31905 0.89076 0.44970
 C3296 C 0.31398 0.87654 0.45541
 C3297 C 0.29823 0.87297 0.45586
 C3298 C 0.28750 0.88384 0.45047
 C3299 C 0.29254 0.89816 0.44487
 C3300 C 0.30839 0.90182 0.44449
 N3301 N 0.29353 0.85836 0.46206
 N3302 N 0.27966 0.85353 0.46153
 C3303 C 0.27526 0.83894 0.46804
 C3304 C 0.26051 0.83307 0.46512
 C3305 C 0.25602 0.81872 0.47109
 C3306 C 0.26618 0.81010 0.48032
 C3307 C 0.28091 0.81615 0.48341
 C3308 C 0.28543 0.83039 0.47728
 H3309 H 0.33134 0.89303 0.44927
 H3310 H 0.32236 0.86822 0.45946
 H3311 H 0.27525 0.88136 0.45079
 H3312 H 0.28403 0.90648 0.44112
 H3313 H 0.25255 0.83956 0.45805
 H3314 H 0.24460 0.81439 0.46851
 H3315 H 0.28906 0.80977 0.49036
 H3316 H 0.29688 0.83470 0.47976
 C3317 C 0.31389 0.39628 0.95782
 C3318 C 0.30857 0.38238 0.96408
 C3319 C 0.29275 0.37928 0.96504
 C3320 C 0.28219 0.39042 0.95986
 C3321 C 0.28749 0.40445 0.95374
 C3322 C 0.30344 0.40753 0.95256
 N3323 N 0.28784 0.36462 0.97101
 N3324 N 0.27388 0.36004 0.97049
 C3325 C 0.26933 0.34518 0.97625
 C3326 C 0.25464 0.33951 0.97275
 C3327 C 0.25032 0.32457 0.97716
 C3328 C 0.26058 0.31510 0.98539
 C3329 C 0.27511 0.32105 0.98941
 C3330 C 0.27949 0.33591 0.98481
 H3331 H 0.32624 0.39806 0.95682
 H3332 H 0.31682 0.37385 0.96795
 H3333 H 0.26987 0.38830 0.96056
 H3334 H 0.27911 0.41291 0.95003
 H3335 H 0.24669 0.34654 0.96619
 H3336 H 0.23903 0.32035 0.97391
 H3337 H 0.28332 0.31403 0.99565
 H3338 H 0.29089 0.34005 0.98773
 C3339 C 0.79615 0.34514 0.28093
 C3340 C 0.79077 0.35885 0.27432
 C3341 C 0.78422 0.37038 0.28364
 C3342 C 0.78287 0.36794 0.29969
 C3343 C 0.78839 0.35438 0.30633
 C3344 C 0.79525 0.34285 0.29707
 N3345 N 0.77963 0.38471 0.27682
 N3346 N 0.77219 0.39469 0.28472
 C3347 C 0.76796 0.40951 0.27887
 C3348 C 0.75826 0.41874 0.28796
 C3349 C 0.75449 0.43363 0.28325
 C3350 C 0.76055 0.43969 0.26933
 C3351 C 0.77025 0.43034 0.26010
 C3352 C 0.77389 0.41530 0.26481
 H3353 H 0.80117 0.33642 0.27343
 H3354 H 0.79185 0.36056 0.26193
 H3355 H 0.77797 0.37672 0.30720
 H3356 H 0.78779 0.35321 0.31880
 H3357 H 0.75373 0.41441 0.29887
 H3358 H 0.74708 0.44050 0.29072
 H3359 H 0.77511 0.43468 0.24934
 H3360 H 0.78154 0.40836 0.25766
   
