data_POSCAR
  _audit_creation_date              2014-09-24
  _audit_creation_method            'ToBaCCo'
  _symmetry_space_group_name_H-M    'P1'
  _symmetry_Int_Tables_number       1
  _symmetry_cell_setting            triclinic
  loop_
  _symmetry_equiv_pos_as_xyz
 x,y,z
_cell_length_a 81.3665
_cell_length_b 80.9792
_cell_length_c 79.6439
_cell_angle_alpha 89.924900
_cell_angle_beta 89.890500
_cell_angle_gamma 90.047500
loop_
  _atom_site_label
  _atom_site_type_symbol
  _atom_site_fract_x
  _atom_site_fract_y
  _atom_site_fract_z
C1 C 0.31013 0.43978 0.91991
 C2 C 0.32423 0.44701 0.92695
 C3 C 0.33168 0.44041 0.94152
 C4 C 0.32430 0.42638 0.94898
 C5 C 0.31024 0.41898 0.94208
 C6 C 0.30321 0.42582 0.92760
 H7 H 0.32992 0.45714 0.92025
 H8 H 0.32900 0.42141 0.96063
 H9 H 0.29244 0.42010 0.92214
 C10 C 0.44327 0.82811 0.44579
 C11 C 0.44983 0.82052 0.43129
 C12 C 0.44235 0.80665 0.42401
 C13 C 0.42824 0.79994 0.43150
 C14 C 0.42148 0.80705 0.44599
 C15 C 0.42909 0.82097 0.45310
 H16 H 0.46117 0.82496 0.42581
 H17 H 0.42208 0.78961 0.42561
 H18 H 0.42335 0.82656 0.46393
 C19 C 0.94049 0.91922 0.80680
 C20 C 0.92681 0.92670 0.79933
 C21 C 0.91985 0.94100 0.80619
 C22 C 0.92686 0.94798 0.82063
 C23 C 0.94067 0.94077 0.82852
 C24 C 0.94739 0.92635 0.82124
 H25 H 0.92162 0.92143 0.78802
 H26 H 0.92150 0.95921 0.82550
 H27 H 0.95732 0.91984 0.82736
 C28 C 0.44119 -0.07916 0.30515
 C29 C 0.44840 -0.07189 0.31936
 C30 C 0.44146 -0.05777 0.32677
 C31 C 0.42724 -0.05084 0.31968
 C32 C 0.41986 -0.05794 0.30549
 C33 C 0.42701 -0.07202 0.29825
 H34 H 0.45898 -0.07766 0.32513
 H35 H 0.42172 -0.04007 0.32542
 H36 H 0.42154 -0.07738 0.28713
 C37 C 0.81058 0.30955 0.32868
 C38 C 0.80345 0.32363 0.32139
 C39 C 0.81036 0.33094 0.30700
 C40 C 0.82449 0.32389 0.29982
 C41 C 0.83181 0.30983 0.30693
 C42 C 0.82471 0.30270 0.32131
 H43 H 0.79291 0.32932 0.32735
 H44 H 0.82972 0.32927 0.28856
 H45 H 0.83036 0.29193 0.32694
 C46 C -0.19202 0.83056 0.80613
 C47 C -0.19913 0.82324 0.82055
 C48 C -0.19217 0.80920 0.82837
 C49 C -0.17789 0.80232 0.82114
 C50 C -0.17061 0.80927 0.80681
 C51 C -0.17775 0.82323 0.79939
 H52 H -0.21005 0.82863 0.82588
 H53 H -0.17161 0.79219 0.82722
 H54 H -0.17238 0.82788 0.78789
 C55 C 0.94132 0.32854 0.44440
 C56 C 0.92718 0.32142 0.45152
 C57 C 0.91979 0.30748 0.44425
 C58 C 0.92687 0.30050 0.42982
 C59 C 0.94103 0.30741 0.42253
 C60 C 0.94821 0.32139 0.42995
 H61 H 0.92194 0.32669 0.46282
 H62 H 0.92116 0.28984 0.42406
 H63 H 0.95876 0.32715 0.42404
 C64 C 0.43986 0.44107 0.82822
 C65 C 0.42578 0.44792 0.82051
 C66 C 0.41870 0.44068 0.80623
 C67 C 0.42585 0.42648 0.79936
 C68 C 0.43982 0.41937 0.80665
 C69 C 0.44678 0.42675 0.82093
 H70 H 0.42026 0.45906 0.82538
 H71 H 0.42060 0.42102 0.78818
 H72 H 0.45694 0.42050 0.82693
 C73 C 0.80862 0.92166 0.94479
 C74 C 0.80109 0.92905 0.93083
 C75 C 0.80792 0.94312 0.92320
 C76 C 0.82231 0.95001 0.92993
 C77 C 0.83001 0.94286 0.94395
 C78 C 0.82302 0.92873 0.95135
 H79 H 0.78982 0.92386 0.92589
 H80 H 0.82772 0.96078 0.92403
 H81 H 0.82922 0.92278 0.96176
 C82 C 0.30661 0.82992 0.30534
 C83 C 0.32053 0.82244 0.29791
 C84 C 0.32761 0.80810 0.30469
 C85 C 0.32054 0.80089 0.31899
 C86 C 0.30668 0.80791 0.32664
 C87 C 0.29978 0.82229 0.31973
 H88 H 0.32568 0.82732 0.28640
 H89 H 0.32603 0.78992 0.32439
 H90 H 0.28975 0.82805 0.32644
 C91 C 0.80917 0.41966 0.44328
 C92 C 0.82302 0.42716 0.45049
 C93 C 0.83030 0.44138 0.44331
 C94 C 0.82295 0.44808 0.42874
 C95 C 0.80905 0.44074 0.42142
 C96 C 0.80223 0.42659 0.42881
 H97 H 0.82764 0.42210 0.46212
 H98 H 0.82858 0.45837 0.42225
 H99 H 0.79162 0.42078 0.42312
 C100 C 0.94309 0.82967 -0.05530
 C101 C 0.92930 0.82213 -0.04764
 C102 C 0.92199 0.80793 -0.05450
 C103 C 0.92866 0.80095 -0.06909
 C104 C 0.94239 0.80804 -0.07693
 C105 C 0.94957 0.82222 -0.06991
 H106 H 0.92362 0.82761 -0.03671
 H107 H 0.92272 0.79037 -0.07477
 H108 H 0.96064 0.82699 -0.07569
 C109 C 0.30888 0.32969 0.80571
 C110 C 0.32313 0.32270 0.79872
 C111 C 0.33021 0.30846 0.80576
 C112 C 0.32278 0.30115 0.81987
 C113 C 0.30852 0.30795 0.82702
 C114 C 0.30160 0.32213 0.81975
 H115 H 0.32888 0.32852 0.78796
 H116 H 0.32852 0.29056 0.82576
 H117 H 0.29043 0.32727 0.82500
 C118 C 0.16969 0.55891 0.55441
 C119 C 0.17687 0.57332 0.54785
 C120 C 0.19094 0.58023 0.55525
 C121 C 0.19795 0.57242 0.56928
 C122 C 0.19096 0.55798 0.57600
 C123 C 0.17689 0.55127 0.56842
 H124 H 0.17155 0.57911 0.53687
 H125 H 0.20843 0.57801 0.57543
 H126 H 0.17133 0.54024 0.57365
 C127 C 0.58145 0.69113 0.05720
 C128 C 0.57415 0.69792 0.07162
 C129 C 0.55975 0.69104 0.07847
 C130 C 0.55259 0.67728 0.07061
 C131 C 0.55970 0.67031 0.05619
 C132 C 0.57407 0.67739 0.04952
 H133 H 0.58006 0.70815 0.07795
 H134 H 0.54159 0.67181 0.07591
 H135 H 0.57945 0.67226 0.03823
 C136 C 0.69263 0.19399 0.67440
 C137 C 0.67865 0.20073 0.68207
 C138 C 0.67175 0.19337 0.69638
 C139 C 0.67914 0.17919 0.70316
 C140 C 0.69318 0.17199 0.69569
 C141 C 0.69984 0.17976 0.68130
 H142 H 0.67291 0.21157 0.67668
 H143 H 0.67410 0.17421 0.71467
 H144 H 0.70997 0.17419 0.67456
 C145 C 1.07924 0.05791 0.19409
 C146 C 1.07198 0.07208 0.20094
 C147 C 1.05778 0.07889 0.19380
 C148 C 1.05072 0.07125 0.17970
 C149 C 1.05778 0.05701 0.17241
 C150 C 1.07201 0.05042 0.18002
 H151 H 1.07781 0.07825 0.21143
 H152 H 1.04009 0.07702 0.17409
 H153 H 1.07732 0.03903 0.17547
 C154 C 0.05817 0.17139 1.05556
 C155 C 0.07256 0.17820 1.04874
 C156 C 0.07974 0.19229 1.05585
 C157 C 0.07228 0.19970 1.06987
 C158 C 0.05783 0.19309 1.07713
 C159 C 0.05085 0.17897 1.06955
 H160 H 0.07858 0.17210 1.03831
 H161 H 0.07832 0.21022 1.07546
 H162 H 0.03931 0.17402 1.07407
 C163 C 0.16994 0.69242 0.69554
 C164 C 0.17744 0.67839 0.70250
 C165 C 0.19142 0.67135 0.69503
 C166 C 0.19809 0.67872 0.68056
 C167 C 0.19082 0.69281 0.67344
 C168 C 0.17679 0.69962 0.68108
 H169 H 0.17239 0.67295 0.71383
 H170 H 0.20852 0.67303 0.67439
 H171 H 0.17100 0.71036 0.67555
 C172 C 1.19408 0.17316 0.19622
 C173 C 1.18030 0.18047 0.20379
 C174 C 1.17278 0.19440 0.19665
 C175 C 1.17942 0.20123 0.18191
 C176 C 1.19326 0.19416 0.17418
 C177 C 1.20056 0.18016 0.18147
 H178 H 1.17540 0.17531 0.21531
 H179 H 1.17360 0.21188 0.17623
 H180 H 1.21082 0.17425 0.17522
 C181 C 0.66997 1.05739 0.55533
 C182 C 0.67707 1.05060 0.56993
 C183 C 0.69107 1.05763 0.57726
 C184 C 0.69828 1.07159 0.56986
 C185 C 0.69166 1.07881 0.55524
 C186 C 0.67763 1.07135 0.54806
 H187 H 0.67141 1.04020 0.57620
 H188 H 0.70843 1.07738 0.57634
 H189 H 0.67328 1.07577 0.53607
 C190 C 0.55756 0.55664 0.17255
 C191 C 0.57151 0.54999 0.18044
 C192 C 0.57837 0.55762 0.19463
 C193 C 0.57099 0.57199 0.20103
 C194 C 0.55706 0.57884 0.19331
 C195 C 0.55039 0.57101 0.17914
 H196 H 0.57722 0.53901 0.17532
 H197 H 0.57630 0.57804 0.21186
 H198 H 0.53974 0.57631 0.17303
 C199 C 0.66872 0.69185 0.19495
 C200 C 0.67582 0.69907 0.18061
 C201 C 0.69013 0.69244 0.17339
 C202 C 0.69742 0.67849 0.18077
 C203 C 0.69052 0.67111 0.19511
 C204 C 0.67625 0.67797 0.20218
 H205 H 0.67001 0.70970 0.17488
 H206 H 0.70808 0.67292 0.17489
 H207 H 0.67102 0.67251 0.21341
 C208 C 0.17101 0.05597 1.05507
 C209 C 0.17817 0.07039 1.04818
 C210 C 0.19196 0.07786 1.05558
 C211 C 0.19892 0.07073 1.06996
 C212 C 0.19220 0.05638 1.07704
 C213 C 0.17845 0.04904 1.06946
 H214 H 0.17269 0.07641 1.03745
 H215 H 0.20916 0.07679 1.07607
 H216 H 0.17400 0.03752 1.07463
 C217 C 0.57850 0.19259 0.55543
 C218 C 0.57083 0.19937 0.56966
 C219 C 0.55684 0.19192 0.57672
 C220 C 0.55039 0.17761 0.56925
 C221 C 0.55787 0.17065 0.55501
 C222 C 0.57187 0.17828 0.54814
 H223 H 0.57598 0.21030 0.57546
 H224 H 0.53971 0.17169 0.57473
 H225 H 0.57780 0.17288 0.53727
 C226 C 0.07931 0.55734 0.69324
 C227 C 0.07181 0.57114 0.70069
 C228 C 0.05779 0.57840 0.69354
 C229 C 0.05112 0.57151 0.67887
 C230 C 0.05840 0.55769 0.67124
 C231 C 0.07245 0.55064 0.67857
 H232 H 0.07684 0.57621 0.71216
 H233 H 0.04039 0.57711 0.67321
 H234 H 0.07847 0.54036 0.67243
 C235 C 0.67048 0.55786 0.05416
 C236 C 0.67774 0.57225 0.04766
 C237 C 0.69157 0.57933 0.05535
 C238 C 0.69829 0.57167 0.06962
 C239 C 0.69124 0.55723 0.07629
 C240 C 0.67738 0.55038 0.06842
 H241 H 0.67266 0.57792 0.03649
 H242 H 0.70859 0.57737 0.07598
 H243 H 0.67176 0.53937 0.07360
 C244 C 0.05811 0.69117 0.57761
 C245 C 0.07240 0.69824 0.57072
 C246 C 0.08007 0.69121 0.55662
 C247 C 0.07317 0.67704 0.54930
 C248 C 0.05892 0.66977 0.55602
 C249 C 0.05142 0.67699 0.57010
 H250 H 0.07797 0.70881 0.57679
 H251 H 0.07884 0.67171 0.53825
 H252 H 0.04051 0.67137 0.57543
 C253 C 0.55974 1.05823 0.67090
 C254 C 0.57419 1.05187 0.67829
 C255 C 0.58122 1.05920 0.69255
 C256 C 0.57358 1.07298 0.69978
 C257 C 0.55918 1.07956 0.69283
 C258 C 0.55230 1.07207 0.67856
 H259 H 0.57980 1.04075 0.67344
 H260 H 0.57924 1.07903 0.71043
 H261 H 0.54150 1.07766 0.67312
 C262 C 0.44173 0.32992 0.94449
 C263 C 0.44845 0.32253 0.92994
 C264 C 0.44150 0.30825 0.92291
 C265 C 0.42771 0.30107 0.93058
 C266 C 0.42077 0.30804 0.94503
 C267 C 0.42789 0.32229 0.95195
 H268 H 0.45843 0.32842 0.92323
 H269 H 0.42219 0.29017 0.92509
 H270 H 0.42282 0.32697 0.96356
 C271 C 0.94057 0.44245 0.32608
 C272 C 0.92642 0.44926 0.31874
 C273 C 0.91913 0.44188 0.30464
 C274 C 0.92629 0.42764 0.29776
 C275 C 0.94043 0.42062 0.30493
 C276 C 0.94753 0.42818 0.31903
 H277 H 0.92088 0.46016 0.32421
 H278 H 0.92091 0.42205 0.28672
 H279 H 0.95807 0.42251 0.32499
 C280 C 0.30787 0.94413 0.42367
 C281 C 0.30073 0.93009 0.43135
 C282 C 0.30754 0.92300 0.44586
 C283 C 0.32154 0.93016 0.45303
 C284 C 0.32894 0.94407 0.44575
 C285 C 0.32201 0.95102 0.43124
 H286 H 0.29054 0.92378 0.42546
 H287 H 0.32669 0.92491 0.46437
 H288 H 0.32772 0.96195 0.42605
 O289 O 0.20611 0.52078 0.74840
 O290 O 0.21172 0.51813 0.77698
 O291 O 0.24892 0.54405 0.72792
 O292 O 0.27598 0.53933 0.72688
 O293 O 0.22850 0.50090 0.70402
 O294 O 0.22989 0.47205 0.70986
 O295 O 0.29323 0.49892 0.77000
 O296 O 0.28836 0.52702 0.76718
 O297 O 0.25197 0.47768 0.79210
 O298 O 0.22229 0.47864 0.78674
 O299 O 0.27158 0.45665 0.74882
 O300 O 0.27039 0.46278 0.71893
 O301 O 0.29319 0.47926 0.74953
 O302 O 0.28684 0.48138 0.71847
 O303 O 0.25195 0.45602 0.76921
 O304 O 0.22161 0.46209 0.76787
 O305 O 0.27188 0.49746 0.79204
 O306 O 0.26607 0.52738 0.78711
 O307 O 0.20588 0.50085 0.72816
 O308 O 0.21224 0.47155 0.72913
 O309 O 0.24813 0.52097 0.70392
 O310 O 0.27794 0.51844 0.71037
 O311 O 0.22898 0.54356 0.74805
 O312 O 0.23297 0.53655 0.77817
 Zr313 Zr 0.23010 0.51951 0.75816
 O314 O 0.24467 0.50458 0.77387
 Zr315 Zr 0.25858 0.51996 0.72810
 O316 O 0.27456 0.50556 0.74284
 Zr317 Zr 0.22981 0.49078 0.72832
 O318 O 0.24475 0.47484 0.74259
 Zr319 Zr 0.26954 0.50899 0.76847
 O320 O 0.25504 0.52519 0.75378
 Zr321 Zr 0.24100 0.47954 0.76825
 O322 O 0.22480 0.49436 0.75396
 Zr323 Zr 0.26967 0.48047 0.73846
 O324 O 0.25472 0.49489 0.72237
 O325 O 0.23382 0.51573 0.73262
 O326 O 0.26587 0.48389 0.76406
 C327 C 0.19904 0.51237 0.73679
 C328 C 0.23738 0.55080 0.73652
 C329 C 0.23667 0.51255 0.69691
 C330 C 0.30001 0.48726 0.76158
 C331 C 0.26392 0.48555 0.79892
 C332 C 0.26371 0.44951 0.76076
 H333 H 0.24218 0.50709 0.78575
 H334 H 0.24218 0.46327 0.73964
 H335 H 0.22671 0.52285 0.72562
 H336 H 0.28608 0.50851 0.74022
 H337 H 0.28301 0.53749 0.76382
 H338 H 0.28449 0.53685 0.73535
 H339 H 0.22345 0.45463 0.75824
 H340 H 0.20674 0.47230 0.74019
 H341 H 0.27554 0.52687 0.79492
 H342 H 0.22419 0.54501 0.77738
 H343 H 0.26007 0.45636 0.71946
 H344 H 0.24086 0.47244 0.70446
 H345 H 0.20720 0.50678 0.77662
 H346 H 0.22319 0.48875 0.79362
 H347 H 0.27595 0.50841 0.70358
 H348 H 0.29455 0.49057 0.72069
 O349 O 0.20635 0.02324 0.25093
 O350 O 0.21191 0.02078 0.27950
 O351 O 0.24970 0.04528 0.23016
 O352 O 0.27663 0.03991 0.22917
 O353 O 0.22829 0.00235 0.20673
 O354 O 0.22896 -0.02643 0.21290
 O355 O 0.29297 -0.00035 0.27271
 O356 O 0.28872 0.02775 0.26965
 O357 O 0.25112 -0.02039 0.29511
 O358 O 0.22153 -0.01888 0.28966
 O359 O 0.27031 -0.04240 0.25207
 O360 O 0.26931 -0.03660 0.22214
 O361 O 0.29249 -0.02021 0.25244
 O362 O 0.28611 -0.01839 0.22140
 O363 O 0.25067 -0.04237 0.27245
 O364 O 0.22049 -0.03560 0.27100
 O365 O 0.27149 -0.00110 0.29482
 O366 O 0.26644 0.02887 0.28952
 O367 O 0.20566 0.00310 0.23093
 O368 O 0.21134 -0.02633 0.23216
 O369 O 0.24839 0.02195 0.20641
 O370 O 0.27811 0.01882 0.21291
 O371 O 0.22976 0.04547 0.25029
 O372 O 0.23360 0.03869 0.28049
 Zr373 Zr 0.23031 0.02151 0.26067
 O374 O 0.24453 0.00641 0.27653
 Zr375 Zr 0.25878 0.02097 0.23061
 O376 O 0.27442 0.00637 0.24551
 Zr377 Zr 0.22935 -0.00752 0.23116
 O378 O 0.24392 -0.02366 0.24560
 Zr379 Zr 0.26948 0.01018 0.27110
 O380 O 0.25537 0.02656 0.25623
 Zr381 Zr 0.24028 -0.01860 0.27120
 O382 O 0.22442 -0.00355 0.25675
 Zr383 Zr 0.26897 -0.01866 0.24143
 O384 O 0.25434 -0.00407 0.22517
 O385 O 0.23393 0.01737 0.23516
 O386 O 0.26526 -0.01488 0.26699
 C387 C 0.19908 0.01486 0.23945
 C388 C 0.23833 0.05239 0.23869
 C389 C 0.23675 0.01370 0.19949
 C390 C 0.29952 -0.01220 0.26436
 C391 C 0.26321 -0.01270 0.30186
 C392 C 0.26226 -0.04925 0.26406
 H393 H 0.24207 0.00911 0.28839
 H394 H 0.24108 -0.03519 0.24278
 H395 H 0.22698 0.02458 0.22809
 H396 H 0.28600 0.00902 0.24286
 H397 H 0.28363 0.03831 0.26614
 H398 H 0.28507 0.03734 0.23769
 H399 H 0.22217 -0.04321 0.26145
 H400 H 0.20586 -0.02535 0.24322
 H401 H 0.27588 0.02823 0.29735
 H402 H 0.22502 0.04736 0.27960
 H403 H 0.25881 -0.04273 0.22269
 H404 H 0.23995 -0.02641 0.20753
 H405 H 0.20711 0.00955 0.27926
 H406 H 0.22260 -0.00869 0.29640
 H407 H 0.27589 0.00876 0.20623
 H408 H 0.29399 -0.00931 0.22346
 O409 O 0.49603 0.77033 0.29452
 O410 O 0.52422 0.76812 0.28981
 O411 O 0.47767 0.79339 0.24987
 O412 O 0.47733 0.78845 0.22230
 O413 O 0.45360 0.74997 0.27013
 O414 O 0.45972 0.72113 0.26896
 O415 O 0.52069 0.74805 0.20656
 O416 O 0.51766 0.77627 0.21099
 O417 O 0.54105 0.72778 0.24973
 O418 O 0.53434 0.72896 0.27997
 O419 O 0.50031 0.70624 0.22770
 O420 O 0.47082 0.71126 0.23148
 O421 O 0.50081 0.72813 0.20588
 O422 O 0.47261 0.73193 0.20926
 O423 O 0.51894 0.70579 0.24898
 O424 O 0.51624 0.71185 0.27972
 O425 O 0.54160 0.74739 0.22922
 O426 O 0.53621 0.77725 0.23460
 O427 O 0.47637 0.75021 0.29406
 O428 O 0.47767 0.72096 0.28767
 O429 O 0.45427 0.77020 0.25027
 O430 O 0.46225 0.76761 0.21933
 O431 O 0.49636 0.79313 0.27113
 O432 O 0.52599 0.78652 0.26807
 Zr433 Zr 0.50650 0.76921 0.27039
 O434 O 0.52264 0.75442 0.25620
 Zr435 Zr 0.47826 0.76922 0.24022
 O436 O 0.49349 0.75482 0.22471
 Zr437 Zr 0.47752 0.74014 0.26965
 O438 O 0.49238 0.72434 0.25511
 Zr439 Zr 0.51831 0.75858 0.23058
 O440 O 0.50321 0.77472 0.24471
 Zr441 Zr 0.51723 0.72935 0.25997
 O442 O 0.50235 0.74405 0.27579
 Zr443 Zr 0.48929 0.72968 0.22951
 O444 O 0.47261 0.74407 0.24393
 O445 O 0.48171 0.76512 0.26566
 O446 O 0.51410 0.73352 0.23444
 C447 C 0.48450 0.76178 0.30135
 C448 C 0.48546 0.80025 0.26201
 C449 C 0.44696 0.76167 0.26165
 C450 C 0.51283 0.73624 0.19936
 C451 C 0.54814 0.73567 0.23775
 C452 C 0.51154 0.69922 0.23644
 H453 H 0.53412 0.75711 0.25919
 H454 H 0.48943 0.71273 0.25755
 H455 H 0.47455 0.77220 0.27267
 H456 H 0.49130 0.75755 0.21281
 H457 H 0.51433 0.78687 0.21618
 H458 H 0.48667 0.78668 0.21456
 H459 H 0.50682 0.70443 0.27758
 H460 H 0.48828 0.72177 0.29367
 H461 H 0.54421 0.77679 0.22520
 H462 H 0.52483 0.79496 0.27702
 H463 H 0.47140 0.70428 0.22127
 H464 H 0.45508 0.72121 0.25748
 H465 H 0.52376 0.75682 0.29452
 H466 H 0.54133 0.73891 0.27895
 H467 H 0.45344 0.75968 0.22227
 H468 H 0.46169 0.73425 0.21420
 O469 O -0.00036 0.70476 0.72843
 O470 O -0.02845 0.71016 0.73026
 O471 O 0.02003 0.74809 0.70571
 O472 O 0.02046 0.77530 0.71069
 O473 O 0.04227 0.72754 0.75011
 O474 O 0.03565 0.72863 0.77926
 O475 O -0.02298 0.79195 0.75063
 O476 O -0.01938 0.78728 0.72212
 O477 O -0.04485 0.75012 0.77128
 O478 O -0.03929 0.72033 0.77015
 O479 O -0.00339 0.76995 0.79408
 O480 O 0.02612 0.76909 0.78867
 O481 O -0.00358 0.79192 0.77124
 O482 O 0.02686 0.78587 0.77006
 O483 O -0.02311 0.75001 0.79398
 O484 O -0.02134 0.71964 0.78754
 O485 O -0.04439 0.77028 0.75134
 O486 O -0.03864 0.76474 0.72103
 O487 O 0.01886 0.70458 0.74927
 O488 O 0.01702 0.71070 0.77905
 O489 O 0.04277 0.74745 0.72988
 O490 O 0.03605 0.77727 0.73241
 O491 O 0.00052 0.72789 0.70545
 O492 O -0.02921 0.73166 0.71165
 Zr493 Zr -0.01016 0.72878 0.72957
 O494 O -0.02613 0.74316 0.74439
 Zr495 Zr 0.01896 0.75767 0.73023
 O496 O 0.00394 0.77346 0.74456
 Zr497 Zr 0.01816 0.72853 0.75967
 O498 O 0.00356 0.74326 0.77556
 Zr499 Zr -0.02098 0.76822 0.74028
 O500 O -0.00597 0.75393 0.72413
 Zr501 Zr -0.02136 0.73929 0.76998
 O502 O -0.00676 0.72328 0.75522
 Zr503 Zr 0.00750 0.76839 0.77017
 O504 O 0.02384 0.75364 0.75586
 O505 O 0.01468 0.73272 0.73422
 O506 O -0.01739 0.76437 0.76589
 C507 C 0.01082 0.69771 0.73728
 C508 C 0.01196 0.73646 0.69851
 C509 C 0.04950 0.73594 0.73857
 C510 C -0.01516 0.79875 0.76278
 C511 C -0.05140 0.76214 0.76318
 C512 C -0.01517 0.76183 0.80094
 H513 H -0.03766 0.74057 0.74146
 H514 H 0.00611 0.74059 0.78738
 H515 H 0.02182 0.72569 0.72716
 H516 H 0.00647 0.78508 0.74174
 H517 H -0.01572 0.78202 0.71154
 H518 H 0.01210 0.78382 0.71310
 H519 H -0.01212 0.72147 0.79540
 H520 H 0.00627 0.70508 0.77794
 H521 H -0.04640 0.77418 0.72139
 H522 H -0.02809 0.72291 0.70301
 H523 H 0.02542 0.75871 0.79520
 H524 H 0.04082 0.73970 0.77912
 H525 H -0.02841 0.70554 0.74177
 H526 H -0.04578 0.72132 0.75971
 H527 H 0.04235 0.77532 0.74285
 H528 H 0.02498 0.79357 0.76060
 O529 O 0.00207 0.04465 0.02013
 O530 O -0.02609 0.03949 0.01838
 O531 O 0.02165 0.00153 0.04392
 O532 O 0.02258 -0.02561 0.03937
 O533 O 0.04456 0.02111 -0.00117
 O534 O 0.03786 0.01946 -0.03028
 O535 O -0.02111 -0.04276 -0.00045
 O536 O -0.01782 -0.03771 0.02807
 O537 O -0.04283 -0.00111 -0.02158
 O538 O -0.03681 0.02874 -0.02106
 O539 O -0.00201 -0.02234 -0.04379
 O540 O 0.02743 -0.01788 -0.03940
 O541 O -0.00157 -0.04338 -0.02108
 O542 O 0.02659 -0.03932 -0.01788
 O543 O -0.02105 -0.00177 -0.04432
 O544 O -0.01894 0.02865 -0.03871
 O545 O -0.04258 -0.02096 -0.00130
 O546 O -0.03688 -0.01490 0.02886
 O547 O 0.02138 0.04422 -0.00070
 O548 O 0.01949 0.03747 -0.03034
 O549 O 0.04466 0.00199 0.01981
 O550 O 0.03723 -0.02865 0.01797
 O551 O 0.00248 0.02202 0.04367
 O552 O -0.02718 0.01842 0.03750
 Zr553 Zr -0.00801 0.02073 0.01953
 O554 O -0.02410 0.00617 0.00507
 Zr555 Zr 0.02086 -0.00836 0.01953
 O556 O 0.00570 -0.02419 0.00549
 Zr557 Zr 0.02045 0.02005 -0.01057
 O558 O 0.00564 0.00515 -0.02607
 Zr559 Zr -0.01917 -0.01886 0.00967
 O560 O -0.00408 -0.00435 0.02552
 Zr561 Zr -0.01922 0.00950 -0.02059
 O562 O -0.00444 0.02565 -0.00622
 Zr563 Zr 0.00938 -0.01985 -0.02023
 O564 O 0.02599 -0.00506 -0.00620
 O565 O 0.01681 0.01650 0.01498
 O566 O -0.01546 -0.01546 -0.01595
 C567 C 0.01336 0.05142 0.01114
 C568 C 0.01367 0.01339 0.05086
 C569 C 0.05159 0.01311 0.01073
 C570 C -0.01326 -0.04991 -0.01243
 C571 C -0.04950 -0.01293 -0.01324
 C572 C -0.01351 -0.01409 -0.05089
 H573 H -0.03560 0.00891 0.00796
 H574 H 0.00834 0.00739 -0.03797
 H575 H 0.02396 0.02362 0.02193
 H576 H 0.00821 -0.03578 0.00846
 H577 H -0.01444 -0.03231 0.03867
 H578 H 0.01324 -0.03331 0.03804
 H579 H -0.00960 0.02661 -0.04640
 H580 H 0.00881 0.04322 -0.02931
 H581 H -0.04468 -0.02431 0.02872
 H582 H -0.02606 0.02740 0.04589
 H583 H 0.02699 -0.02810 -0.04625
 H584 H 0.04269 0.00824 -0.03019
 H585 H -0.02589 0.04393 0.00679
 H586 H -0.04350 0.02788 -0.01071
 H587 H 0.04587 -0.02574 0.00972
 H588 H 0.03744 -0.03416 -0.01590
 O589 O -0.00157 0.47815 0.45411
 O590 O 0.02660 0.48038 0.45899
 O591 O -0.02053 0.45566 0.49883
 O592 O -0.02116 0.46085 0.52634
 O593 O -0.04413 0.49901 0.47797
 O594 O -0.03787 0.52778 0.47884
 O595 O 0.02224 0.50119 0.54205
 O596 O 0.01922 0.47296 0.53779
 O597 O 0.04317 0.52110 0.49880
 O598 O 0.03684 0.51968 0.46858
 O599 O 0.00232 0.54290 0.52038
 O600 O -0.02713 0.53798 0.51641
 O601 O 0.00244 0.52118 0.54240
 O602 O -0.02573 0.51746 0.53880
 O603 O 0.02115 0.54313 0.49920
 O604 O 0.01872 0.53674 0.46845
 O605 O 0.04342 0.50172 0.51953
 O606 O 0.03801 0.47179 0.51435
 O607 O -0.02112 0.49836 0.45424
 O608 O -0.01965 0.52773 0.46034
 O609 O -0.04380 0.47895 0.49802
 O610 O -0.03611 0.48177 0.52902
 O611 O -0.00159 0.45563 0.47772
 O612 O 0.02805 0.46218 0.48095
 Zr613 Zr 0.00868 0.47953 0.47830
 O614 O 0.02473 0.49442 0.49245
 Zr615 Zr -0.01990 0.47991 0.50825
 O616 O -0.00475 0.49439 0.52373
 Zr617 Zr -0.02015 0.50871 0.47854
 O618 O -0.00540 0.52460 0.49305
 Zr619 Zr 0.02012 0.49051 0.51808
 O620 O 0.00507 0.47429 0.50400
 Zr621 Zr 0.01947 0.51947 0.48841
 O622 O 0.00472 0.50465 0.47261
 Zr623 Zr -0.00879 0.51949 0.51868
 O624 O -0.02538 0.50504 0.50426
 O625 O -0.01615 0.48376 0.48280
 O626 O 0.01605 0.51554 0.51396
 C627 C -0.01300 0.48666 0.44713
 C628 C -0.01264 0.44866 0.48682
 C629 C -0.05093 0.48742 0.48650
 C630 C 0.01433 0.51306 0.54909
 C631 C 0.05009 0.51335 0.51093
 C632 C 0.01366 0.54982 0.51164
 H633 H 0.03623 0.49168 0.48958
 H634 H -0.00828 0.53619 0.49049
 H635 H -0.02327 0.47664 0.47582
 H636 H -0.00709 0.49176 0.53564
 H637 H 0.01588 0.46234 0.53267
 H638 H -0.01180 0.46258 0.53404
 H639 H 0.00936 0.54427 0.47049
 H640 H -0.00903 0.52673 0.45434
 H641 H 0.04592 0.47234 0.52379
 H642 H 0.02695 0.45366 0.47208
 H643 H -0.02664 0.54502 0.52658
 H644 H -0.04256 0.52793 0.49032
 H645 H 0.02623 0.49164 0.45416
 H646 H 0.04368 0.50965 0.46966
 H647 H -0.04488 0.48965 0.52593
 H648 H -0.03661 0.51516 0.53378
 O649 O 0.47880 -0.04426 0.49988
 O650 O 0.48131 -0.03840 0.52837
 O651 O 0.45660 -0.00093 0.47896
 O652 O 0.46190 0.02614 0.47764
 O653 O 0.49922 -0.02254 0.45530
 O654 O 0.52790 -0.02157 0.46117
 O655 O 0.50216 0.04303 0.52081
 O656 O 0.47417 0.03866 0.51797
 O657 O 0.52225 0.00124 0.54330
 O658 O 0.52079 -0.02857 0.53805
 O659 O 0.54392 0.02029 0.49996
 O660 O 0.53801 0.01905 0.47009
 O661 O 0.52181 0.04249 0.50037
 O662 O 0.51981 0.03584 0.46936
 O663 O 0.54401 0.00072 0.52049
 O664 O 0.53739 -0.02962 0.51931
 O665 O 0.50301 0.02163 0.54305
 O666 O 0.47317 0.01641 0.53800
 O667 O 0.49877 -0.04504 0.47973
 O668 O 0.52803 -0.03912 0.48057
 O669 O 0.47969 -0.00240 0.45501
 O670 O 0.48280 0.02756 0.46123
 O671 O 0.45656 -0.02084 0.49921
 O672 O 0.46343 -0.01669 0.52931
 Zr673 Zr 0.48045 -0.02009 0.50938
 O674 O 0.49552 -0.00562 0.52501
 Zr675 Zr 0.48077 0.00828 0.47910
 O676 O 0.49534 0.02417 0.49377
 Zr677 Zr 0.50920 -0.02116 0.47962
 O678 O 0.52530 -0.00635 0.49382
 Zr679 Zr 0.49169 0.01940 0.51943
 O680 O 0.47535 0.00504 0.50479
 Zr681 Zr 0.52039 -0.00984 0.51949
 O682 O 0.50539 -0.02593 0.50528
 Zr683 Zr 0.52024 0.01877 0.48952
 O684 O 0.50568 0.00389 0.47348
 O685 O 0.48444 -0.01664 0.48381
 O686 O 0.51661 0.01521 0.51513
 C687 C 0.48714 -0.05163 0.48842
 C688 C 0.44959 -0.01232 0.48763
 C689 C 0.48785 -0.01415 0.44811
 C690 C 0.51391 0.04960 0.51233
 C691 C 0.51460 0.01340 0.55004
 C692 C 0.55079 0.01233 0.51197
 H693 H 0.49290 -0.00801 0.53690
 H694 H 0.53677 -0.00917 0.49093
 H695 H 0.47725 -0.02372 0.47687
 H696 H 0.49266 0.03578 0.49106
 H697 H 0.46365 0.03349 0.51458
 H698 H 0.46443 0.03467 0.48611
 H699 H 0.54491 -0.02798 0.50968
 H700 H 0.52715 -0.04453 0.49169
 H701 H 0.47381 0.02596 0.54576
 H702 H 0.45483 -0.02536 0.52856
 H703 H 0.54410 0.00850 0.47062
 H704 H 0.52778 -0.01058 0.45570
 H705 H 0.49250 -0.04317 0.52809
 H706 H 0.51072 -0.02742 0.54493
 H707 H 0.49276 0.02530 0.45447
 H708 H 0.51079 0.04376 0.47148
 O709 O 0.54364 0.52180 -0.00103
 O710 O 0.53795 0.51951 -0.02959
 O711 O 0.50087 0.54468 0.01983
 O712 O 0.47376 0.53987 0.02068
 O713 O 0.52137 0.50143 0.04331
 O714 O 0.52008 0.47266 0.03728
 O715 O 0.45662 0.49967 -0.02274
 O716 O 0.46131 0.52777 -0.01963
 O717 O 0.49797 0.47893 -0.04490
 O718 O 0.52764 0.48003 -0.03954
 O719 O 0.47852 0.45734 -0.00176
 O720 O 0.47958 0.46330 0.02819
 O721 O 0.45674 0.47980 -0.00243
 O722 O 0.46298 0.48171 0.02865
 O723 O 0.49814 0.45703 -0.02216
 O724 O 0.52841 0.46331 -0.02081
 O725 O 0.47803 0.49863 -0.04474
 O726 O 0.48362 0.52854 -0.03952
 O727 O 0.54397 0.50171 0.01909
 O728 O 0.53768 0.47239 0.01800
 O729 O 0.50162 0.52135 0.04361
 O730 O 0.47184 0.51880 0.03711
 O731 O 0.52078 0.54448 -0.00033
 O732 O 0.51662 0.53784 -0.03051
 Zr733 Zr 0.51964 0.52057 -0.01069
 O734 O 0.50513 0.50570 -0.02649
 Zr735 Zr 0.49120 0.52058 0.01940
 O736 O 0.47526 0.50622 0.00455
 Zr737 Zr 0.52007 0.49155 0.01894
 O738 O 0.50519 0.47566 0.00457
 Zr739 Zr 0.48025 0.50991 -0.02106
 O740 O 0.49468 0.52606 -0.00625
 Zr741 Zr 0.50893 0.48063 -0.02105
 O742 O 0.52506 0.49541 -0.00667
 Zr743 Zr 0.48023 0.48110 0.00872
 O744 O 0.49514 0.49546 0.02492
 O745 O 0.51596 0.51650 0.01483
 O746 O 0.48403 0.48479 -0.01684
 C747 C 0.55077 0.51331 0.01049
 C748 C 0.51242 0.55156 0.01130
 C749 C 0.51313 0.51292 0.05054
 C750 C 0.44989 0.48786 -0.01444
 C751 C 0.48603 0.48682 -0.05168
 C752 C 0.48645 0.45035 -0.01373
 H753 H 0.50762 0.50834 -0.03836
 H754 H 0.50781 0.46408 0.00744
 H755 H 0.52307 0.52357 0.02188
 H756 H 0.46372 0.50906 0.00717
 H757 H 0.46658 0.53824 -0.01617
 H758 H 0.46518 0.53736 0.01230
 H759 H 0.52662 0.45576 -0.01121
 H760 H 0.54321 0.47328 0.00695
 H761 H 0.47417 0.52805 -0.04735
 H762 H 0.52538 0.54633 -0.02968
 H763 H 0.48992 0.45691 0.02761
 H764 H 0.50911 0.47292 0.04268
 H765 H 0.54252 0.50819 -0.02935
 H766 H 0.52665 0.49017 -0.04640
 H767 H 0.47379 0.50865 0.04375
 H768 H 0.45526 0.49089 0.02648
 O769 O 0.70570 0.22825 0.49998
 O770 O 0.71142 0.23071 0.47142
 O771 O 0.74850 0.20534 0.52066
 O772 O 0.77556 0.21020 0.52160
 O773 O 0.72790 0.24854 0.54430
 O774 O 0.72913 0.27732 0.53826
 O775 O 0.79283 0.25041 0.47830
 O776 O 0.78801 0.22234 0.48121
 O777 O 0.75149 0.27135 0.45607
 O778 O 0.72181 0.27022 0.46145
 O779 O 0.77090 0.29272 0.49915
 O780 O 0.76964 0.28676 0.52912
 O781 O 0.79263 0.27020 0.49865
 O782 O 0.78618 0.26832 0.52967
 O783 O 0.75129 0.29314 0.47881
 O784 O 0.72099 0.28687 0.48022
 O785 O 0.77150 0.25171 0.45624
 O786 O 0.76581 0.22178 0.46131
 O787 O 0.70533 0.24829 0.52011
 O788 O 0.71157 0.27761 0.51902
 O789 O 0.74763 0.22859 0.54452
 O790 O 0.77741 0.23116 0.53799
 O791 O 0.72864 0.20559 0.50053
 O792 O 0.73276 0.21242 0.47036
 Zr793 Zr 0.72972 0.22957 0.49026
 O794 O 0.74427 0.24450 0.47445
 Zr795 Zr 0.75809 0.22946 0.52030
 O796 O 0.77406 0.24387 0.50547
 Zr797 Zr 0.72922 0.25848 0.51992
 O798 O 0.74413 0.27443 0.50555
 Zr799 Zr 0.76914 0.24028 0.47986
 O800 O 0.75467 0.22407 0.49466
 Zr801 Zr 0.74047 0.26955 0.47993
 O802 O 0.72429 0.25472 0.49431
 Zr803 Zr 0.76907 0.26897 0.50968
 O804 O 0.75412 0.25455 0.52588
 O805 O 0.73334 0.23353 0.51578
 O806 O 0.76536 0.26538 0.48412
 C807 C 0.69855 0.23670 0.51152
 C808 C 0.73702 0.19847 0.51211
 C809 C 0.73614 0.23702 0.55149
 C810 C 0.79955 0.26213 0.48668
 C811 C 0.76350 0.26353 0.44929
 C812 C 0.76301 0.29977 0.48719
 H813 H 0.74182 0.24191 0.46259
 H814 H 0.74150 0.28600 0.50843
 H815 H 0.72622 0.22642 0.52283
 H816 H 0.78557 0.24100 0.50810
 H817 H 0.78269 0.21186 0.48464
 H818 H 0.78408 0.21267 0.51311
 H819 H 0.72278 0.29441 0.48980
 H820 H 0.70610 0.27677 0.50796
 H821 H 0.77528 0.22231 0.45348
 H822 H 0.72401 0.20391 0.47121
 H823 H 0.75933 0.29319 0.52850
 H824 H 0.74011 0.27709 0.54360
 H825 H 0.70686 0.24204 0.47168
 H826 H 0.72279 0.26010 0.45460
 H827 H 0.77541 0.24126 0.54469
 H828 H 0.79387 0.25910 0.52757
 O829 O 0.77326 0.79411 0.00164
 O830 O 0.77062 0.78834 0.03020
 O831 O 0.79576 0.75084 -0.01891
 O832 O 0.79057 0.72380 -0.02031
 O833 O 0.75300 0.77210 -0.04288
 O834 O 0.72431 0.77118 -0.03688
 O835 O 0.74970 0.70690 0.02286
 O836 O 0.77784 0.71113 0.02032
 O837 O 0.72973 0.74875 0.04533
 O838 O 0.73131 0.77867 0.03977
 O839 O 0.70858 0.72890 0.00269
 O840 O 0.71385 0.73386 -0.02719
 O841 O 0.73012 0.70726 0.00234
 O842 O 0.73422 0.71180 -0.02626
 O843 O 0.70812 0.74907 0.02257
 O844 O 0.71455 0.77939 0.02107
 O845 O 0.74893 0.72831 0.04521
 O846 O 0.77881 0.73353 0.04024
 O847 O 0.75346 0.79469 -0.01862
 O848 O 0.72418 0.78873 -0.01771
 O849 O 0.77290 0.75235 -0.04291
 O850 O 0.76996 0.72165 -0.03600
 O851 O 0.79556 0.77089 0.00114
 O852 O 0.78863 0.76666 0.03123
 Zr853 Zr 0.77165 0.76998 0.01131
 O854 O 0.75655 0.75555 0.02705
 Zr855 Zr 0.77160 0.74154 -0.01881
 O856 O 0.75692 0.72582 -0.00402
 Zr857 Zr 0.74303 0.77080 -0.01853
 O858 O 0.72696 0.75605 -0.00415
 Zr859 Zr 0.76043 0.73051 0.02161
 O860 O 0.77684 0.74484 0.00690
 Zr861 Zr 0.73170 0.75974 0.02146
 O862 O 0.74672 0.77575 0.00710
 Zr863 Zr 0.73202 0.73097 -0.00833
 O864 O 0.74669 0.74569 -0.02462
 O865 O 0.76779 0.76643 -0.01424
 O866 O 0.73559 0.73474 0.01723
 C867 C 0.76501 0.80138 -0.00995
 C868 C 0.80264 0.76237 -0.01037
 C869 C 0.76458 0.76390 -0.04995
 C870 C 0.73799 0.70026 0.01439
 C871 C 0.73731 0.73658 0.05213
 C872 C 0.70155 0.73708 0.01447
 H873 H 0.75912 0.75798 0.03892
 H874 H 0.71546 0.75868 -0.00716
 H875 H 0.77499 0.77352 -0.02122
 H876 H 0.75954 0.71420 -0.00674
 H877 H 0.78847 0.71626 0.01722
 H878 H 0.78862 0.71585 -0.01109
 H879 H 0.70719 0.77768 0.01135
 H880 H 0.72503 0.79423 -0.00665
 H881 H 0.77812 0.72399 0.04802
 H882 H 0.79715 0.77540 0.03049
 H883 H 0.70682 0.72385 -0.02711
 H884 H 0.72413 0.76005 -0.04198
 H885 H 0.75944 0.79313 0.02981
 H886 H 0.74118 0.77736 0.04687
 H887 H 0.76220 0.72496 -0.04494
 H888 H 0.73663 0.71713 -0.03718
 O889 O 1.00275 0.20645 0.22872
 O890 O 0.97462 0.21153 0.23051
 O891 O 1.02263 0.24988 0.20568
 O892 O 1.02298 0.27708 0.21054
 O893 O 1.04510 0.22981 0.25033
 O894 O 1.03842 0.23099 0.27944
 O895 O 0.97920 0.29355 0.25021
 O896 O 0.98291 0.28870 0.22177
 O897 O 0.95773 0.25165 0.27116
 O898 O 0.96359 0.22193 0.27031
 O899 O 0.99896 0.27210 0.29389
 O900 O 1.02845 0.27150 0.28856
 O901 O 0.99857 0.29388 0.27086
 O902 O 1.02911 0.28809 0.26974
 O903 O 0.97945 0.25195 0.29389
 O904 O 0.98152 0.22155 0.28771
 O905 O 0.95803 0.27167 0.25106
 O906 O 0.96389 0.26595 0.22081
 O907 O 1.02193 0.20658 0.24959
 O908 O 1.01994 0.21291 0.27933
 O909 O 1.04543 0.24954 0.22993
 O910 O 1.03842 0.27932 0.23225
 O911 O 1.00332 0.22948 0.20556
 O912 O 0.97358 0.23288 0.21177
 Zr913 Zr 0.99269 0.23036 0.22970
 O914 O 0.97656 0.24469 0.24437
 Zr915 Zr 1.02153 0.25954 0.23017
 O916 O 1.00633 0.27529 0.24435
 Zr917 Zr 1.02097 0.23060 0.25982
 O918 O 1.00620 0.24532 0.27558
 Zr919 Zr 0.98148 0.26977 0.24007
 O920 O 0.99664 0.25550 0.22406
 Zr921 Zr 0.98133 0.24106 0.26999
 O922 O 0.99611 0.22508 0.25538
 Zr923 Zr 1.00989 0.27045 0.27000
 O924 O 1.02640 0.25575 0.25584
 O925 O 1.01748 0.23458 0.23433
 O926 O 0.98505 0.26614 0.26572
 C927 C 1.01397 0.19955 0.23763
 C928 C 1.01463 0.23816 0.19855
 C929 C 1.05226 0.23818 0.23874
 C930 C 0.98693 0.30052 0.26232
 C931 C 0.95108 0.26354 0.26295
 C932 C 0.98726 0.26391 0.30079
 H933 H 0.96506 0.24196 0.24145
 H934 H 1.00877 0.24277 0.28742
 H935 H 1.02470 0.22758 0.22730
 H936 H 1.00875 0.28691 0.24144
 H937 H 0.98664 0.28340 0.21123
 H938 H 1.01443 0.28545 0.21278
 H939 H 0.99071 0.22354 0.29557
 H940 H 1.00925 0.20716 0.27822
 H941 H 0.95604 0.27531 0.22108
 H942 H 0.97479 0.22408 0.20319
 H943 H 1.02789 0.26114 0.29512
 H944 H 1.04345 0.24213 0.27926
 H945 H 0.97468 0.20701 0.24206
 H946 H 0.95714 0.22274 0.25983
 H947 H 1.04474 0.27749 0.24270
 H948 H 1.02712 0.29576 0.26028
 O949 O 0.77160 0.95714 0.75043
 O950 O 0.76894 0.96261 0.72182
 O951 O 0.79490 1.00014 0.77044
 O952 O 0.79033 1.02738 0.77113
 O953 O 0.75194 0.98001 0.79475
 O954 O 0.72326 0.98137 0.78903
 O955 O 0.75010 1.04460 0.72813
 O956 O 0.77800 1.03962 0.73079
 O957 O 0.72880 1.00294 0.70654
 O958 O 0.72960 0.97321 0.71226
 O959 O 0.70798 1.02313 0.74968
 O960 O 0.71409 1.02210 0.77955
 O961 O 0.73061 1.04477 0.74874
 O962 O 0.73267 1.03851 0.77983
 O963 O 0.70725 1.00325 0.72953
 O964 O 0.71317 0.97275 0.73120
 O965 O 0.74850 1.02292 0.70627
 O966 O 0.77826 1.01709 0.71112
 O967 O 0.75183 0.95707 0.77081
 O968 O 0.72266 0.96354 0.76994
 O969 O 0.77196 0.99969 0.79454
 O970 O 0.76960 1.02957 0.78776
 O971 O 0.79432 0.98000 0.75050
 O972 O 0.78734 0.98392 0.72037
 Zr973 Zr 0.77039 0.98117 0.74048
 O974 O 0.75553 0.99574 0.72471
 Zr975 Zr 0.77098 1.00998 0.77024
 O976 O 0.75667 1.02597 0.75542
 Zr977 Zr 0.74186 0.98115 0.77047
 O978 O 0.72600 0.99611 0.75615
 Zr979 Zr 0.76000 1.02075 0.72982
 O980 O 0.77612 1.00625 0.74457
 Zr981 Zr 0.73061 0.99216 0.73052
 O982 O 0.74536 0.97593 0.74487
 Zr983 Zr 0.73168 1.02118 0.75997
 O984 O 0.74602 1.00621 0.77614
 O985 O 0.76668 0.98509 0.76601
 O986 O 0.73502 1.01717 0.73440
 C987 C 0.76325 0.95012 0.76215
 C988 C 0.80156 0.98846 0.76194
 C989 C 0.76354 0.98827 0.80172
 C990 C 0.73858 1.05154 0.73660
 C991 C 0.73666 1.01485 0.69953
 C992 C 0.70082 1.01516 0.73786
 H993 H 0.75800 0.99313 0.71284
 H994 H 0.71448 0.99359 0.75918
 H995 H 0.77375 0.97796 0.77305
 H996 H 0.75964 1.03755 0.75791
 H997 H 0.78841 1.03425 0.73416
 H998 H 0.78785 1.03591 0.76262
 H999 H 0.70575 0.97472 0.74084
 H1000 H 0.72338 0.95793 0.75892
 H1001 H 0.77777 1.02654 0.70321
 H1002 H 0.79573 0.97507 0.72120
 H1003 H 0.70766 1.01174 0.77916
 H1004 H 0.72360 0.99245 0.79425
 H1005 H 0.75766 0.95806 0.72232
 H1006 H 0.73968 0.97398 0.70534
 H1007 H 0.75961 1.02768 0.79461
 H1008 H 0.74185 1.04619 0.77751
 O1009 O 0.70535 0.52152 0.25000
 O1010 O 0.71123 0.51905 0.27853
 O1011 O 0.74815 0.54418 0.22884
 O1012 O 0.77515 0.53918 0.22754
 O1013 O 0.72707 0.50102 0.20552
 O1014 O 0.72823 0.47222 0.21164
 O1015 O 0.79248 0.49902 0.27081
 O1016 O 0.78783 0.52712 0.26781
 O1017 O 0.75118 0.47842 0.29360
 O1018 O 0.72144 0.47960 0.28846
 O1019 O 0.77022 0.45678 0.25039
 O1020 O 0.76874 0.46257 0.22042
 O1021 O 0.79205 0.47921 0.25050
 O1022 O 0.78532 0.48102 0.21952
 O1023 O 0.75079 0.45652 0.27098
 O1024 O 0.72052 0.46279 0.26985
 O1025 O 0.77131 0.49796 0.29312
 O1026 O 0.76576 0.52788 0.28796
 O1027 O 0.70469 0.50142 0.22994
 O1028 O 0.71077 0.47206 0.23109
 O1029 O 0.74690 0.52089 0.20505
 O1030 O 0.77673 0.51814 0.21120
 O1031 O 0.72843 0.54405 0.24919
 O1032 O 0.73266 0.53728 0.27931
 Zr1033 Zr 0.72941 0.52009 0.25949
 O1034 O 0.74401 0.50517 0.27518
 Zr1035 Zr 0.75758 0.52000 0.22912
 O1036 O 0.77356 0.50557 0.24382
 Zr1037 Zr 0.72853 0.49111 0.22992
 O1038 O 0.74346 0.47514 0.24418
 Zr1039 Zr 0.76885 0.50928 0.26947
 O1040 O 0.75436 0.52549 0.25479
 Zr1041 Zr 0.74002 0.48011 0.26983
 O1042 O 0.72382 0.49496 0.25558
 Zr1043 Zr 0.76840 0.48048 0.23974
 O1044 O 0.75341 0.49491 0.22367
 O1045 O 0.73283 0.51605 0.23394
 O1046 O 0.76490 0.48418 0.26534
 C1047 C 0.69806 0.51309 0.23855
 C1048 C 0.73677 0.55111 0.23751
 C1049 C 0.73530 0.51252 0.19823
 C1050 C 0.79908 0.48726 0.26239
 C1051 C 0.76327 0.48622 0.30021
 C1052 C 0.76243 0.44983 0.26251
 H1053 H 0.74165 0.50781 0.28706
 H1054 H 0.74075 0.46357 0.24139
 H1055 H 0.72571 0.52318 0.22696
 H1056 H 0.78508 0.50838 0.24104
 H1057 H 0.78255 0.53761 0.26440
 H1058 H 0.78373 0.53669 0.23593
 H1059 H 0.72219 0.45524 0.26024
 H1060 H 0.70543 0.47294 0.24223
 H1061 H 0.77530 0.52736 0.29568
 H1062 H 0.72394 0.54581 0.27855
 H1063 H 0.75837 0.45623 0.22115
 H1064 H 0.73917 0.47241 0.20616
 H1065 H 0.70656 0.50776 0.27829
 H1066 H 0.72254 0.48973 0.29529
 H1067 H 0.77458 0.50806 0.20452
 H1068 H 0.79311 0.49019 0.22152
 O1069 O 0.54412 0.22850 0.75050
 O1070 O 0.53840 0.23099 0.77909
 O1071 O 0.50134 0.20512 0.73022
 O1072 O 0.47430 0.20983 0.72911
 O1073 O 0.52168 0.24834 0.70595
 O1074 O 0.52037 0.27719 0.71184
 O1075 O 0.45709 0.25085 0.77207
 O1076 O 0.46163 0.22260 0.76959
 O1077 O 0.49857 0.27149 0.79422
 O1078 O 0.52836 0.27030 0.78848
 O1079 O 0.47839 0.29240 0.75155
 O1080 O 0.48325 0.28710 0.72166
 O1081 O 0.45712 0.27048 0.75145
 O1082 O 0.46153 0.26635 0.72286
 O1083 O 0.49852 0.29317 0.77135
 O1084 O 0.52874 0.28717 0.76975
 O1085 O 0.47851 0.25186 0.79428
 O1086 O 0.48403 0.22194 0.78941
 O1087 O 0.54432 0.24834 0.73011
 O1088 O 0.53798 0.27760 0.73084
 O1089 O 0.50225 0.22809 0.70616
 O1090 O 0.47175 0.23047 0.71325
 O1091 O 0.52140 0.20565 0.75014
 O1092 O 0.51711 0.21253 0.78022
 Zr1093 Zr 0.52011 0.22966 0.76025
 O1094 O 0.50561 0.24462 0.77600
 Zr1095 Zr 0.49166 0.22921 0.73032
 O1096 O 0.47589 0.24377 0.74510
 Zr1097 Zr 0.52038 0.25838 0.73027
 O1098 O 0.50558 0.27433 0.74468
 Zr1099 Zr 0.48071 0.24035 0.77071
 O1100 O 0.49514 0.22404 0.75603
 Zr1101 Zr 0.50943 0.26963 0.77029
 O1102 O 0.52549 0.25478 0.75589
 Zr1103 Zr 0.48068 0.26886 0.74065
 O1104 O 0.49542 0.25430 0.72436
 O1105 O 0.51640 0.23345 0.73470
 O1106 O 0.48459 0.26536 0.76620
 C1107 C 0.55119 0.23690 0.73885
 C1108 C 0.51298 0.19841 0.73868
 C1109 C 0.51359 0.23659 0.69899
 C1110 C 0.45031 0.26252 0.76359
 C1111 C 0.48660 0.26367 0.80111
 C1112 C 0.48649 0.29959 0.76326
 H1113 H 0.50812 0.24208 0.78787
 H1114 H 0.50803 0.28591 0.74161
 H1115 H 0.52354 0.22634 0.72771
 H1116 H 0.46434 0.24098 0.74246
 H1117 H 0.46685 0.21197 0.76654
 H1118 H 0.46632 0.21179 0.73825
 H1119 H 0.52693 0.29451 0.75999
 H1120 H 0.54345 0.27692 0.74191
 H1121 H 0.47454 0.22249 0.79722
 H1122 H 0.52594 0.20411 0.77948
 H1123 H 0.47320 0.29404 0.72177
 H1124 H 0.50929 0.27711 0.70673
 H1125 H 0.54302 0.24229 0.77865
 H1126 H 0.52715 0.26043 0.79570
 H1127 H 0.47482 0.23838 0.70430
 H1128 H 0.46679 0.26398 0.71192
 O1129 O 0.27091 0.79540 0.50046
 O1130 O 0.26852 0.78982 0.52906
 O1131 O 0.29369 0.75221 0.48001
 O1132 O 0.28877 0.72504 0.47916
 O1133 O 0.25073 0.77292 0.45630
 O1134 O 0.22206 0.77163 0.46236
 O1135 O 0.24876 0.70802 0.52269
 O1136 O 0.27670 0.71276 0.51965
 O1137 O 0.22810 0.74974 0.54473
 O1138 O 0.22924 0.77956 0.53910
 O1139 O 0.20668 0.73000 0.50180
 O1140 O 0.21255 0.73107 0.47182
 O1141 O 0.22907 0.70812 0.50235
 O1142 O 0.23090 0.71444 0.47128
 O1143 O 0.20635 0.74979 0.52206
 O1144 O 0.21256 0.78019 0.52046
 O1145 O 0.24761 0.72960 0.54464
 O1146 O 0.27739 0.73521 0.53941
 O1147 O 0.25093 0.79570 0.48038
 O1148 O 0.22177 0.78944 0.48150
 O1149 O 0.27054 0.75307 0.45618
 O1150 O 0.26788 0.72316 0.46282
 O1151 O 0.29347 0.77232 0.50001
 O1152 O 0.28670 0.76838 0.53019
 Zr1153 Zr 0.26961 0.77133 0.51031
 O1154 O 0.25476 0.75681 0.52623
 Zr1155 Zr 0.26964 0.74264 0.48043
 O1156 O 0.25529 0.72671 0.49537
 Zr1157 Zr 0.24081 0.77170 0.48069
 O1158 O 0.22493 0.75683 0.49519
 Zr1159 Zr 0.25891 0.73179 0.52095
 O1160 O 0.27504 0.74622 0.50605
 Zr1161 Zr 0.22982 0.76064 0.52078
 O1162 O 0.24459 0.77678 0.50627
 Zr1163 Zr 0.23031 0.73174 0.49119
 O1164 O 0.24467 0.74663 0.47488
 O1165 O 0.26563 0.76755 0.48482
 O1166 O 0.23393 0.73561 0.51673
 C1167 C 0.26248 0.80254 0.48892
 C1168 C 0.30055 0.76380 0.48849
 C1169 C 0.26220 0.76461 0.44916
 C1170 C 0.23708 0.70124 0.51435
 C1171 C 0.23590 0.73773 0.55157
 C1172 C 0.19972 0.73798 0.51375
 H1173 H 0.25736 0.75934 0.53807
 H1174 H 0.21341 0.75947 0.49233
 H1175 H 0.27272 0.77465 0.47774
 H1176 H 0.25812 0.71512 0.49280
 H1177 H 0.28714 0.71806 0.51615
 H1178 H 0.28631 0.71652 0.48770
 H1179 H 0.20507 0.77837 0.51087
 H1180 H 0.22258 0.79495 0.49256
 H1181 H 0.27687 0.72573 0.54729
 H1182 H 0.29518 0.77715 0.52929
 H1183 H 0.20623 0.74148 0.47235
 H1184 H 0.22233 0.76059 0.45704
 H1185 H 0.25726 0.79443 0.52878
 H1186 H 0.23929 0.77855 0.54599
 H1187 H 0.25785 0.72518 0.45611
 H1188 H 0.24008 0.70672 0.47340
 O1189 O 0.29467 0.24979 0.97884
 O1190 O 0.28931 0.22159 0.98098
 O1191 O 0.25196 0.26969 0.95493
 O1192 O 0.22481 0.27036 0.95947
 O1193 O 0.27160 0.29284 0.99932
 O1194 O 0.26970 0.28672 1.02858
 O1195 O 0.20749 0.22701 0.99962
 O1196 O 0.21271 0.23033 0.97120
 O1197 O 0.24873 0.20556 1.02135
 O1198 O 0.27834 0.21128 1.02081
 O1199 O 0.22842 0.24755 1.04325
 O1200 O 0.22916 0.27697 1.03746
 O1201 O 0.20702 0.24681 1.01994
 O1202 O 0.21303 0.27750 1.01834
 O1203 O 0.24827 0.22778 1.04379
 O1204 O 0.27859 0.22954 1.03793
 O1205 O 0.22914 0.20563 1.00097
 O1206 O 0.23524 0.21110 0.97072
 O1207 O 0.29438 0.26936 0.99945
 O1208 O 0.28755 0.26802 1.02911
 O1209 O 0.25224 0.29299 0.97871
 O1210 O 0.22243 0.28624 0.98092
 O1211 O 0.27216 0.25022 0.95537
 O1212 O 0.26835 0.22046 0.96195
 Zr1213 Zr 0.27077 0.23989 0.97964
 O1214 O 0.25617 0.22401 0.99439
 Zr1215 Zr 0.24197 0.26907 0.97931
 O1216 O 0.22596 0.25412 0.99353
 Zr1217 Zr 0.27030 0.26880 1.00931
 O1218 O 0.25532 0.25430 1.02511
 Zr1219 Zr 0.23131 0.22904 0.98971
 O1220 O 0.24586 0.24395 0.97364
 Zr1221 Zr 0.25943 0.22920 1.01998
 O1222 O 0.27567 0.24372 1.00534
 Zr1223 Zr 0.23042 0.25807 1.01917
 O1224 O 0.24539 0.27436 1.00494
 O1225 O 0.26671 0.26490 0.98384
 O1226 O 0.23456 0.23301 1.01534
 C1227 C 0.30149 0.26113 0.98770
 C1228 C 0.26371 0.26153 0.94809
 C1229 C 0.26355 0.29989 0.98746
 C1230 C 0.20044 0.23500 1.01152
 C1231 C 0.23702 0.19879 1.01306
 C1232 C 0.23638 0.23587 1.05044
 H1233 H 0.25884 0.21240 0.99168
 H1234 H 0.25770 0.25707 1.03694
 H1235 H 0.27387 0.27196 0.97679
 H1236 H 0.21445 0.25657 0.99044
 H1237 H 0.21814 0.23392 0.96067
 H1238 H 0.21636 0.26187 0.96174
 H1239 H 0.27660 0.23893 1.04560
 H1240 H 0.29321 0.25723 1.02828
 H1241 H 0.22587 0.20326 0.97099
 H1242 H 0.27726 0.22147 0.95349
 H1243 H 0.23952 0.27669 1.04391
 H1244 H 0.25872 0.29196 1.02802
 H1245 H 0.29367 0.22184 0.99257
 H1246 H 0.27764 0.20462 1.01043
 H1247 H 0.22423 0.29280 0.99124
 H1248 H 0.20549 0.27534 1.00887
 C1249 C 0.29025 0.37254 0.80338
 C1250 C 0.28949 0.37514 0.78603
 C1251 C 0.29490 0.36280 0.77503
 C1252 C 0.30111 0.34794 0.78138
 C1253 C 0.30197 0.34526 0.79882
 C1254 C 0.29644 0.35773 0.80974
 C1255 C 0.28351 0.39064 0.77966
 C1256 C 0.27865 0.40384 0.77474
 C1257 C 0.27316 0.41953 0.76945
 C1258 C 0.26870 0.43312 0.76529
 H1259 H 0.28619 0.38204 0.81201
 H1260 H 0.29437 0.36469 0.76158
 H1261 H 0.30513 0.33851 0.77266
 H1262 H 0.29719 0.35615 0.82322
 C1263 C 0.27716 -0.13560 0.29586
 C1264 C 0.28731 -0.12460 0.28716
 C1265 C 0.30368 -0.12879 0.28407
 C1266 C 0.30998 -0.14381 0.28981
 C1267 C 0.30002 -0.15507 0.29889
 C1268 C 0.28339 -0.15065 0.30166
 C1269 C 0.28114 -0.10879 0.28183
 C1270 C 0.27630 -0.09537 0.27752
 C1271 C 0.27101 -0.07948 0.27265
 C1272 C 0.26682 -0.06576 0.26864
 H1273 H 0.26441 -0.13253 0.29822
 H1274 H 0.31170 -0.12028 0.27747
 H1275 H 0.32293 -0.14603 0.28777
 H1276 H 0.27490 -0.15893 0.30787
 C1277 C 0.80485 0.87119 0.78362
 C1278 C 0.78823 0.87495 0.78576
 C1279 C 0.77797 0.86381 0.79413
 C1280 C 0.78433 0.84907 0.80059
 C1281 C 0.80121 0.84514 0.79887
 C1282 C 0.81128 0.85649 0.79003
 C1283 C 0.78194 0.89056 0.77998
 C1284 C 0.77701 0.90387 0.77542
 C1285 C 0.77169 0.91972 0.77042
 C1286 C 0.76758 0.93348 0.76646
 H1287 H 0.81295 0.87982 0.77729
 H1288 H 0.76503 0.86654 0.79575
 H1289 H 0.77576 0.84066 0.80648
 H1290 H 0.82438 0.85462 0.78875
 C1291 C 0.44366 0.87776 0.28669
 C1292 C 0.46066 0.87544 0.28549
 C1293 C 0.47136 0.88807 0.29043
 C1294 C 0.46507 0.90293 0.29666
 C1295 C 0.44798 0.90532 0.29803
 C1296 C 0.43736 0.89257 0.29291
 C1297 C 0.46699 0.85985 0.27972
 C1298 C 0.47186 0.84654 0.27514
 C1299 C 0.47708 0.83068 0.27014
 C1300 C 0.48114 0.81690 0.26621
 H1301 H 0.43527 0.86802 0.28302
 H1302 H 0.48454 0.88639 0.28957
 H1303 H 0.47355 0.91257 0.30036
 H1304 H 0.42416 0.89391 0.29407
 C1305 C -0.02972 0.88576 0.79294
 C1306 C -0.04056 0.87337 0.78768
 C1307 C -0.05753 0.87604 0.78848
 C1308 C -0.06366 0.89098 0.79458
 C1309 C -0.05290 0.90350 0.79997
 C1310 C -0.03584 0.90074 0.79905
 C1311 C -0.03439 0.85775 0.78183
 C1312 C -0.02954 0.84448 0.77710
 C1313 C -0.02422 0.82875 0.77180
 C1314 C -0.01994 0.81514 0.76752
 H1315 H -0.01656 0.88381 0.79238
 H1316 H -0.06603 0.86650 0.78454
 H1317 H -0.07685 0.89262 0.79538
 H1318 H -0.02725 0.91020 0.80297
 C1319 C -0.03566 -0.12924 -0.05332
 C1320 C -0.03773 -0.12511 -0.03644
 C1321 C -0.04572 -0.13609 -0.02563
 C1322 C -0.05184 -0.15108 -0.03171
 C1323 C -0.05011 -0.15543 -0.04884
 C1324 C -0.04172 -0.14419 -0.05948
 C1325 C -0.03208 -0.10935 -0.03043
 C1326 C -0.02752 -0.09596 -0.02576
 C1327 C -0.02236 -0.08009 -0.02071
 C1328 C -0.01812 -0.06639 -0.01674
 H1329 H -0.02961 -0.12074 -0.06185
 H1330 H -0.04728 -0.13306 -0.01248
 H1331 H -0.05748 -0.15935 -0.02273
 H1332 H -0.04049 -0.14635 -0.07281
 C1333 C -0.05545 0.37143 0.46320
 C1334 C -0.03841 0.37361 0.46398
 C1335 C -0.02793 0.36092 0.45871
 C1336 C -0.03449 0.34615 0.45254
 C1337 C -0.05162 0.34391 0.45156
 C1338 C -0.06202 0.35670 0.45704
 C1339 C -0.03182 0.38913 0.46962
 C1340 C -0.02673 0.40240 0.47407
 C1341 C -0.02128 0.41824 0.47893
 C1342 C -0.01708 0.43200 0.48274
 H1343 H -0.06367 0.38121 0.46713
 H1344 H -0.01472 0.36250 0.45924
 H1345 H -0.02617 0.33647 0.44856
 H1346 H -0.07524 0.35548 0.45619
 C1347 C 0.46560 -0.13141 0.44832
 C1348 C 0.46321 -0.12719 0.46513
 C1349 C 0.45469 -0.13795 0.47575
 C1350 C 0.44834 -0.15279 0.46953
 C1351 C 0.45036 -0.15720 0.45244
 C1352 C 0.45930 -0.14620 0.44203
 C1353 C 0.46894 -0.11148 0.47121
 C1354 C 0.47352 -0.09808 0.47583
 C1355 C 0.47860 -0.08213 0.48073
 C1356 C 0.48266 -0.06831 0.48448
 H1357 H 0.47203 -0.12306 0.43993
 H1358 H 0.45286 -0.13485 0.48885
 H1359 H 0.44227 -0.16090 0.47837
 H1360 H 0.46079 -0.14839 0.42872
 C1361 C 0.47116 0.36437 -0.04583
 C1362 C 0.46104 0.37519 -0.03692
 C1363 C 0.44471 0.37090 -0.03376
 C1364 C 0.43840 0.35594 -0.03964
 C1365 C 0.44833 0.34486 -0.04893
 C1366 C 0.46493 0.34938 -0.05177
 C1367 C 0.46720 0.39096 -0.03147
 C1368 C 0.47205 0.40434 -0.02710
 C1369 C 0.47740 0.42020 -0.02220
 C1370 C 0.48168 0.43389 -0.01821
 H1371 H 0.48389 0.36753 -0.04825
 H1372 H 0.43671 0.37929 -0.02701
 H1373 H 0.42547 0.35365 -0.03754
 H1374 H 0.47339 0.34122 -0.05815
 C1375 C 0.80650 0.37676 0.46227
 C1376 C 0.78949 0.37434 0.46310
 C1377 C 0.77885 0.38689 0.45784
 C1378 C 0.78521 0.40175 0.45161
 C1379 C 0.80230 0.40422 0.45055
 C1380 C 0.81287 0.39158 0.45606
 C1381 C 0.78305 0.35877 0.46885
 C1382 C 0.77797 0.34552 0.47343
 C1383 C 0.77238 0.32979 0.47851
 C1384 C 0.76792 0.31618 0.48262
 H1385 H 0.81484 0.36709 0.46622
 H1386 H 0.76566 0.38515 0.45843
 H1387 H 0.77677 0.41131 0.44764
 H1388 H 0.82608 0.39301 0.45518
 C1389 C 0.79532 0.88866 -0.02400
 C1390 C 0.78962 0.87630 -0.03480
 C1391 C 0.78998 0.87883 -0.05217
 C1392 C 0.79606 0.89360 -0.05876
 C1393 C 0.80187 0.90611 -0.04805
 C1394 C 0.80143 0.90349 -0.03058
 C1395 C 0.78378 0.86079 -0.02824
 C1396 C 0.77905 0.84754 -0.02329
 C1397 C 0.77378 0.83173 -0.01808
 C1398 C 0.76957 0.81800 -0.01411
 H1399 H 0.79512 0.88682 -0.01053
 H1400 H 0.78570 0.86929 -0.06065
 H1401 H 0.79651 0.89511 -0.07227
 H1402 H 0.80569 0.91295 -0.02203
 C1403 C 0.78013 0.29471 0.36163
 C1404 C 0.79069 0.28970 0.37452
 C1405 C 0.80772 0.29096 0.37234
 C1406 C 0.81418 0.29727 0.35739
 C1407 C 0.80368 0.30243 0.34438
 C1408 C 0.78657 0.30104 0.34665
 C1409 C 0.78415 0.28363 0.39016
 C1410 C 0.77897 0.27871 0.40344
 C1411 C 0.77323 0.27316 0.41921
 C1412 C 0.76862 0.26863 0.43285
 H1413 H 0.76693 0.29379 0.36319
 H1414 H 0.81600 0.28721 0.38227
 H1415 H 0.82738 0.29844 0.35614
 H1416 H 0.77820 0.30477 0.33680
 C1417 C 0.78601 0.80607 -0.13014
 C1418 C 0.78850 0.78948 -0.12609
 C1419 C 0.79703 0.77929 -0.13722
 C1420 C 0.80323 0.78568 -0.15228
 C1421 C 0.80104 0.80251 -0.15658
 C1422 C 0.79215 0.81253 -0.14517
 C1423 C 0.78280 0.78315 -0.11021
 C1424 C 0.77823 0.77818 -0.09671
 C1425 C 0.77315 0.77277 -0.08066
 C1426 C 0.76908 0.76851 -0.06675
 H1427 H 0.77958 0.81413 -0.12150
 H1428 H 0.79895 0.76637 -0.13425
 H1429 H 0.80930 0.77717 -0.16070
 H1430 H 0.79058 0.82563 -0.14722
 C1431 C 0.29535 0.46973 0.88642
 C1432 C 0.29028 0.45888 0.87377
 C1433 C 0.29152 0.44182 0.87628
 C1434 C 0.29785 0.43561 0.89131
 C1435 C 0.30306 0.44641 0.90408
 C1436 C 0.30171 0.46355 0.90148
 C1437 C 0.28414 0.46517 0.85807
 C1438 C 0.27917 0.47020 0.84476
 C1439 C 0.27357 0.47582 0.82898
 C1440 C 0.26901 0.48039 0.81535
 H1441 H 0.29446 0.48296 0.88461
 H1442 H 0.28772 0.43330 0.86654
 H1443 H 0.29898 0.42237 0.89281
 H1444 H 0.30547 0.47215 0.91113
 C1445 C 0.30525 -0.03467 0.38181
 C1446 C 0.28876 -0.03716 0.37771
 C1447 C 0.27846 -0.04547 0.38894
 C1448 C 0.28464 -0.05146 0.40414
 C1449 C 0.30138 -0.04928 0.40848
 C1450 C 0.31151 -0.04060 0.39698
 C1451 C 0.28260 -0.03157 0.36176
 C1452 C 0.27773 -0.02703 0.34824
 C1453 C 0.27235 -0.02188 0.33224
 C1454 C 0.26803 -0.01761 0.31843
 H1455 H 0.31339 -0.02838 0.37312
 H1456 H 0.26561 -0.04736 0.38594
 H1457 H 0.27605 -0.05735 0.41261
 H1458 H 0.32453 -0.03903 0.39910
 C1459 C -0.02979 -0.04890 -0.13684
 C1460 C -0.03986 -0.03992 -0.12596
 C1461 C -0.05624 -0.03703 -0.13024
 C1462 C -0.06261 -0.04319 -0.14525
 C1463 C -0.05272 -0.05250 -0.15641
 C1464 C -0.03610 -0.05512 -0.15188
 C1465 C -0.03357 -0.03401 -0.11019
 C1466 C -0.02858 -0.02920 -0.09682
 C1467 C -0.02304 -0.02373 -0.08099
 C1468 C -0.01855 -0.01922 -0.06733
 H1469 H -0.01703 -0.05111 -0.13370
 H1470 H -0.06420 -0.03022 -0.12181
 H1471 H -0.07556 -0.04126 -0.14751
 H1472 H -0.02766 -0.06153 -0.16010
 C1473 C -0.02877 0.45731 0.35867
 C1474 C -0.03926 0.46250 0.37157
 C1475 C -0.05629 0.46147 0.36946
 C1476 C -0.06284 0.45514 0.35460
 C1477 C -0.05242 0.44974 0.34161
 C1478 C -0.03530 0.45096 0.34377
 C1479 C -0.03266 0.46837 0.38722
 C1480 C -0.02752 0.47303 0.40058
 C1481 C -0.02197 0.47817 0.41652
 C1482 C -0.01764 0.48224 0.43037
 H1483 H -0.01555 0.45804 0.36018
 H1484 H -0.06452 0.46535 0.37941
 H1485 H -0.07606 0.45411 0.35345
 H1486 H -0.02697 0.44705 0.33393
 C1487 C 0.44480 -0.03956 0.37049
 C1488 C 0.46184 -0.03847 0.37250
 C1489 C 0.47228 -0.04342 0.35945
 C1490 C 0.46568 -0.04955 0.34449
 C1491 C 0.44855 -0.05079 0.34240
 C1492 C 0.43819 -0.04568 0.35557
 C1493 C 0.46849 -0.03270 0.38817
 C1494 C 0.47362 -0.02807 0.40155
 C1495 C 0.47912 -0.02291 0.41749
 C1496 C 0.48337 -0.01875 0.43135
 H1497 H 0.43661 -0.03587 0.38055
 H1498 H 0.48549 -0.04264 0.36088
 H1499 H 0.47396 -0.05326 0.33452
 H1500 H 0.42497 -0.04674 0.35448
 C1501 C 0.44307 0.46353 -0.13071
 C1502 C 0.45957 0.46102 -0.12667
 C1503 C 0.46968 0.45223 -0.13767
 C1504 C 0.46329 0.44581 -0.15259
 C1505 C 0.44655 0.44803 -0.15687
 C1506 C 0.43661 0.45717 -0.14560
 C1507 C 0.46592 0.46703 -0.11098
 C1508 C 0.47096 0.47190 -0.09765
 C1509 C 0.47653 0.47737 -0.08184
 C1510 C 0.48102 0.48182 -0.06816
 H1511 H 0.43508 0.47018 -0.12218
 H1512 H 0.48252 0.45030 -0.13471
 H1513 H 0.47175 0.43956 -0.16092
 H1514 H 0.42359 0.45881 -0.14766
 C1515 C 0.46008 0.80371 0.38004
 C1516 C 0.46061 0.78661 0.37760
 C1517 C 0.45538 0.77598 0.39042
 C1518 C 0.44956 0.78244 0.40560
 C1519 C 0.44892 0.79963 0.40812
 C1520 C 0.45428 0.81018 0.39517
 C1521 C 0.46615 0.78015 0.36175
 C1522 C 0.47065 0.77522 0.34823
 C1523 C 0.47573 0.76999 0.33214
 C1524 C 0.47986 0.76599 0.31819
 H1525 H 0.46400 0.81205 0.37016
 H1526 H 0.45573 0.76272 0.38866
 H1527 H 0.44565 0.77401 0.41539
 H1528 H 0.45369 0.82346 0.39661
 C1529 C -0.04058 0.80513 0.87881
 C1530 C -0.03951 0.78803 0.87660
 C1531 C -0.04415 0.77741 0.88966
 C1532 C -0.04992 0.78387 0.90485
 C1533 C -0.05111 0.80106 0.90715
 C1534 C -0.04633 0.81161 0.89396
 C1535 C -0.03395 0.78151 0.86079
 C1536 C -0.02941 0.77643 0.84734
 C1537 C -0.02426 0.77093 0.83137
 C1538 C -0.02001 0.76658 0.81757
 H1539 H -0.03710 0.81346 0.86876
 H1540 H -0.04337 0.76414 0.88808
 H1541 H -0.05337 0.77545 0.91483
 H1542 H -0.04735 0.82488 0.89524
 C1543 C 0.35953 0.77728 0.28950
 C1544 C 0.37231 0.78781 0.28454
 C1545 C 0.37028 0.80493 0.28571
 C1546 C 0.35565 0.81151 0.29199
 C1547 C 0.34281 0.80104 0.29723
 C1548 C 0.34486 0.78384 0.29580
 C1549 C 0.38775 0.78117 0.27888
 C1550 C 0.40095 0.77600 0.27444
 C1551 C 0.41670 0.77044 0.26959
 C1552 C 0.43039 0.76616 0.26578
 H1553 H 0.36098 0.76400 0.28866
 H1554 H 0.38012 0.81319 0.28200
 H1555 H 0.35455 0.82478 0.29316
 H1556 H 0.33514 0.77547 0.29955
 C1557 C -0.13796 0.77860 0.79292
 C1558 C -0.12530 0.78920 0.78781
 C1559 C -0.12755 0.80631 0.78863
 C1560 C -0.14233 0.81282 0.79464
 C1561 C -0.15510 0.80228 0.79993
 C1562 C -0.15277 0.78509 0.79894
 C1563 C -0.10984 0.78262 0.78210
 C1564 C -0.09671 0.77742 0.77748
 C1565 C -0.08113 0.77169 0.77227
 C1566 C -0.06765 0.76713 0.76801
 H1567 H -0.13635 0.76533 0.79234
 H1568 H -0.11780 0.81463 0.78479
 H1569 H -0.14365 0.82610 0.79547
 H1570 H -0.16243 0.77667 0.80277
 C1571 C 0.87678 0.30506 0.46254
 C1572 C 0.87425 0.28799 0.46327
 C1573 C 0.88675 0.27722 0.45819
 C1574 C 0.90167 0.28352 0.45222
 C1575 C 0.90426 0.30068 0.45126
 C1576 C 0.89168 0.31138 0.45659
 C1577 C 0.85862 0.28162 0.46877
 C1578 C 0.84534 0.27663 0.47317
 C1579 C 0.82958 0.27117 0.47810
 C1580 C 0.81595 0.26685 0.48212
 H1581 H 0.86715 0.31351 0.46635
 H1582 H 0.88491 0.26398 0.45871
 H1583 H 0.91120 0.27498 0.44838
 H1584 H 0.89319 0.32464 0.45576
 C1585 C 0.87940 0.80491 -0.03528
 C1586 C 0.87731 0.78780 -0.03403
 C1587 C 0.88999 0.77723 -0.03910
 C1588 C 0.90463 0.78375 -0.04554
 C1589 C 0.90676 0.80095 -0.04699
 C1590 C 0.89400 0.81145 -0.04170
 C1591 C 0.86190 0.78122 -0.02817
 C1592 C 0.84871 0.77615 -0.02356
 C1593 C 0.83296 0.77075 -0.01853
 C1594 C 0.81925 0.76663 -0.01459
 H1595 H 0.86962 0.81321 -0.03151
 H1596 H 0.88849 0.76396 -0.03822
 H1597 H 0.91429 0.77537 -0.04939
 H1598 H 0.89514 0.82472 -0.04294
 C1599 C -0.12695 -0.03910 -0.05505
 C1600 C -0.12403 -0.03809 -0.03778
 C1601 C -0.13621 -0.04313 -0.02642
 C1602 C -0.15122 -0.04923 -0.03233
 C1603 C -0.15423 -0.05034 -0.04968
 C1604 C -0.14193 -0.04517 -0.06097
 C1605 C -0.10839 -0.03223 -0.03181
 C1606 C -0.09513 -0.02747 -0.02714
 C1607 C -0.07941 -0.02213 -0.02200
 C1608 C -0.06583 -0.01778 -0.01786
 H1609 H -0.11758 -0.03533 -0.06395
 H1610 H -0.13407 -0.04241 -0.01302
 H1611 H -0.16050 -0.05297 -0.02334
 H1612 H -0.14375 -0.04614 -0.07440
 C1613 C -0.12942 0.44536 0.46586
 C1614 C -0.12557 0.46192 0.46297
 C1615 C -0.13646 0.47186 0.45396
 C1616 C -0.15108 0.46522 0.44766
 C1617 C -0.15514 0.44839 0.45022
 C1618 C -0.14400 0.43865 0.45962
 C1619 C -0.11010 0.46843 0.46870
 C1620 C -0.09690 0.47346 0.47327
 C1621 C -0.08116 0.47884 0.47830
 C1622 C -0.06748 0.48300 0.48226
 H1623 H -0.12097 0.43748 0.47266
 H1624 H -0.13363 0.48475 0.45172
 H1625 H -0.15931 0.47355 0.44121
 H1626 H -0.14592 0.42557 0.46152
 C1627 C 0.36173 -0.02570 0.46020
 C1628 C 0.37425 -0.03649 0.46516
 C1629 C 0.37180 -0.05356 0.46417
 C1630 C 0.35698 -0.05985 0.45810
 C1631 C 0.34437 -0.04913 0.45289
 C1632 C 0.34686 -0.03197 0.45411
 C1633 C 0.38987 -0.03019 0.47068
 C1634 C 0.40321 -0.02538 0.47503
 C1635 C 0.41912 -0.02028 0.47979
 C1636 C 0.43292 -0.01639 0.48355
 H1637 H 0.36351 -0.01245 0.46091
 H1638 H 0.38145 -0.06202 0.46787
 H1639 H 0.35554 -0.07310 0.45708
 H1640 H 0.33732 -0.02342 0.45038
 C1641 C 0.36518 0.47081 -0.04844
 C1642 C 0.37605 0.46095 -0.03931
 C1643 C 0.37213 0.44444 -0.03621
 C1644 C 0.35749 0.43772 -0.04232
 C1645 C 0.34635 0.44740 -0.05179
 C1646 C 0.35051 0.46417 -0.05461
 C1647 C 0.39146 0.46756 -0.03351
 C1648 C 0.40457 0.47276 -0.02882
 C1649 C 0.42013 0.47845 -0.02353
 C1650 C 0.43361 0.48295 -0.01924
 H1651 H 0.36804 0.48368 -0.05082
 H1652 H 0.38055 0.43662 -0.02930
 H1653 H 0.35549 0.42468 -0.04023
 H1654 H 0.34230 0.47246 -0.06113
 C1655 C 0.37594 0.44358 0.78762
 C1656 C 0.37395 0.46067 0.78608
 C1657 C 0.38675 0.47127 0.79073
 C1658 C 0.40142 0.46481 0.79707
 C1659 C 0.40345 0.44763 0.79884
 C1660 C 0.39058 0.43709 0.79394
 C1661 C 0.35857 0.46724 0.78023
 C1662 C 0.34546 0.47240 0.77558
 C1663 C 0.32986 0.47803 0.77041
 C1664 C 0.31634 0.48247 0.76624
 H1665 H 0.36608 0.43526 0.78414
 H1666 H 0.38534 0.48453 0.78958
 H1667 H 0.41119 0.47322 0.80055
 H1668 H 0.39169 0.42384 0.79538
 C1669 C 0.37657 -0.05551 0.28811
 C1670 C 0.37415 -0.03843 0.28718
 C1671 C 0.38680 -0.02767 0.29186
 C1672 C 0.40178 -0.03398 0.29761
 C1673 C 0.40426 -0.05114 0.29874
 C1674 C 0.39151 -0.06183 0.29384
 C1675 C 0.35850 -0.03205 0.28186
 C1676 C 0.34521 -0.02703 0.27759
 C1677 C 0.32946 -0.02150 0.27279
 C1678 C 0.31586 -0.01709 0.26885
 H1679 H 0.36682 -0.06395 0.28460
 H1680 H 0.38506 -0.01443 0.29119
 H1681 H 0.41142 -0.02545 0.30113
 H1682 H 0.39294 -0.07509 0.29481
 C1683 C 0.12182 0.55463 0.71255
 C1684 C 0.12437 0.53756 0.71297
 C1685 C 0.11208 0.52687 0.70722
 C1686 C 0.09733 0.53326 0.70095
 C1687 C 0.09471 0.55043 0.70036
 C1688 C 0.10711 0.56103 0.70629
 C1689 C 0.13985 0.53115 0.71881
 C1690 C 0.15306 0.52620 0.72345
 C1691 C 0.16880 0.52088 0.72855
 C1692 C 0.18248 0.51676 0.73254
 H1693 H 0.13129 0.56302 0.71685
 H1694 H 0.11394 0.51363 0.70748
 H1695 H 0.08796 0.52478 0.69663
 H1696 H 0.10560 0.57431 0.70576
 C1697 C 0.12214 0.03983 0.19697
 C1698 C 0.12455 0.03924 0.21435
 C1699 C 0.11208 0.04457 0.22519
 C1700 C 0.09727 0.05055 0.21866
 C1701 C 0.09477 0.05124 0.20118
 C1702 C 0.10738 0.04578 0.19043
 C1703 C 0.14002 0.03352 0.22089
 C1704 C 0.15322 0.02888 0.22589
 C1705 C 0.16894 0.02368 0.23118
 C1706 C 0.18258 0.01949 0.23522
 H1707 H 0.13175 0.03583 0.18847
 H1708 H 0.11382 0.04418 0.23867
 H1709 H 0.08774 0.05453 0.22725
 H1710 H 0.10595 0.04641 0.17693
 C1711 C 0.62566 0.69338 0.21318
 C1712 C 0.62291 0.71040 0.21412
 C1713 C 0.63525 0.72142 0.20912
 C1714 C 0.65025 0.71544 0.20305
 C1715 C 0.65307 0.69833 0.20192
 C1716 C 0.64063 0.68737 0.20713
 C1717 C 0.60723 0.71645 0.21978
 C1718 C 0.59392 0.72123 0.22429
 C1719 C 0.57814 0.72652 0.22930
 C1720 C 0.56452 0.73081 0.23331
 H1721 H 0.61616 0.68474 0.21693
 H1722 H 0.63324 0.73463 0.20979
 H1723 H 0.65965 0.72417 0.19929
 H1724 H 0.64232 0.67414 0.20617
 C1725 C 0.13705 0.72234 0.71042
 C1726 C 0.12468 0.71144 0.71562
 C1727 C 0.12726 0.69440 0.71464
 C1728 C 0.14206 0.68824 0.70835
 C1729 C 0.15452 0.69907 0.70291
 C1730 C 0.15190 0.71620 0.70411
 C1731 C 0.10907 0.71762 0.72134
 C1732 C 0.09575 0.72241 0.72584
 C1733 C 0.07988 0.72757 0.73072
 C1734 C 0.06612 0.73160 0.73452
 H1735 H 0.13517 0.73557 0.71110
 H1736 H 0.11772 0.68585 0.71852
 H1737 H 0.14360 0.67499 0.70734
 H1738 H 0.16132 0.72484 0.70018
 C1739 C 0.61131 0.20762 0.52502
 C1740 C 0.62362 0.21277 0.53610
 C1741 C 0.62104 0.21170 0.55343
 C1742 C 0.60628 0.20535 0.55970
 C1743 C 0.59388 0.19997 0.54870
 C1744 C 0.59652 0.20126 0.53127
 C1745 C 0.63917 0.21862 0.52980
 C1746 C 0.65244 0.22324 0.52494
 C1747 C 0.66824 0.22832 0.51974
 C1748 C 0.68197 0.23234 0.51573
 H1749 H 0.61320 0.20839 0.51157
 H1750 H 0.63053 0.21554 0.56212
 H1751 H 0.60474 0.20427 0.57317
 H1752 H 0.58714 0.19737 0.52250
 C1753 C 0.61478 0.72145 0.04410
 C1754 C 0.62720 0.71073 0.03872
 C1755 C 0.62458 0.69365 0.03915
 C1756 C 0.60966 0.68730 0.04501
 C1757 C 0.59712 0.69796 0.05055
 C1758 C 0.59983 0.71512 0.04998
 C1759 C 0.64279 0.71713 0.03310
 C1760 C 0.65601 0.72218 0.02855
 C1761 C 0.67169 0.72774 0.02341
 C1762 C 0.68524 0.73218 0.01921
 H1763 H 0.61668 0.73470 0.04382
 H1764 H 0.63414 0.68523 0.03511
 H1765 H 0.60807 0.67404 0.04554
 H1766 H 0.59036 0.72364 0.05399
 C1767 C 0.13078 0.03358 0.05163
 C1768 C 0.12673 0.03637 0.03484
 C1769 C 0.13753 0.04519 0.02454
 C1770 C 0.15224 0.05142 0.03105
 C1771 C 0.15647 0.04899 0.04812
 C1772 C 0.14544 0.03975 0.05821
 C1773 C 0.11114 0.03079 0.02851
 C1774 C 0.09783 0.02634 0.02369
 C1775 C 0.08197 0.02140 0.01860
 C1776 C 0.06821 0.01745 0.01474
 H1777 H 0.12240 0.02691 0.05978
 H1778 H 0.13456 0.04734 0.01146
 H1779 H 0.16038 0.05773 0.02243
 H1780 H 0.14750 0.03795 0.07149
 C1781 C 0.13710 0.52891 0.53909
 C1782 C 0.12442 0.53972 0.53466
 C1783 C 0.12669 0.55677 0.53624
 C1784 C 0.14150 0.56301 0.54241
 C1785 C 0.15427 0.55225 0.54711
 C1786 C 0.15194 0.53512 0.54528
 C1787 C 0.10886 0.53339 0.52898
 C1788 C 0.09564 0.52835 0.52448
 C1789 C 0.07996 0.52278 0.51949
 C1790 C 0.06641 0.51831 0.51546
 H1791 H 0.13547 0.51568 0.53791
 H1792 H 0.11692 0.56525 0.53293
 H1793 H 0.14281 0.57623 0.54391
 H1794 H 0.16161 0.52655 0.54862
 C1795 C 0.63615 0.02759 0.54466
 C1796 C 0.62541 0.03778 0.53574
 C1797 C 0.62959 0.05427 0.53286
 C1798 C 0.64434 0.06065 0.53904
 C1799 C 0.65531 0.05066 0.54837
 C1800 C 0.65092 0.03391 0.55090
 C1801 C 0.60981 0.03156 0.53007
 C1802 C 0.59655 0.02666 0.52554
 C1803 C 0.58081 0.02130 0.52052
 C1804 C 0.56719 0.01703 0.51647
 H1805 H 0.63307 0.01475 0.54687
 H1806 H 0.62128 0.06232 0.52610
 H1807 H 0.64655 0.07369 0.53716
 H1808 H 0.65901 0.02539 0.55728
 C1809 C 0.62788 0.55549 0.03507
 C1810 C 0.62562 0.53842 0.03366
 C1811 C 0.63822 0.52766 0.03848
 C1812 C 0.65294 0.53395 0.04490
 C1813 C 0.65523 0.55110 0.04658
 C1814 C 0.64257 0.56180 0.04147
 C1815 C 0.61012 0.53205 0.02789
 C1816 C 0.59687 0.52711 0.02337
 C1817 C 0.58107 0.52179 0.01847
 C1818 C 0.56735 0.51767 0.01462
 H1819 H 0.61817 0.56393 0.03148
 H1820 H 0.63659 0.51442 0.03745
 H1821 H 0.66253 0.52541 0.04855
 H1822 H 0.64384 0.57504 0.04285
 C1823 C 0.05482 0.03458 0.13132
 C1824 C 0.03832 0.03699 0.12721
 C1825 C 0.02807 0.04553 0.13828
 C1826 C 0.03434 0.05189 0.15328
 C1827 C 0.05110 0.04987 0.15757
 C1828 C 0.06116 0.04088 0.14629
 C1829 C 0.03216 0.03127 0.11132
 C1830 C 0.02737 0.02674 0.09777
 C1831 C 0.02217 0.02174 0.08166
 C1832 C 0.01808 0.01776 0.06770
 H1833 H 0.06292 0.02812 0.12274
 H1834 H 0.01522 0.04737 0.13527
 H1835 H 0.02578 0.05797 0.16162
 H1836 H 0.07419 0.03938 0.14838
 C1837 C 0.04066 0.55573 0.62725
 C1838 C 0.03978 0.53868 0.62458
 C1839 C 0.04483 0.52779 0.63722
 C1840 C 0.05080 0.53394 0.65245
 C1841 C 0.05177 0.55107 0.65523
 C1842 C 0.04660 0.56190 0.64245
 C1843 C 0.03398 0.53247 0.60873
 C1844 C 0.02923 0.52757 0.59529
 C1845 C 0.02383 0.52218 0.57938
 C1846 C 0.01939 0.51786 0.56563
 H1847 H 0.03687 0.56428 0.61752
 H1848 H 0.04421 0.51457 0.63529
 H1849 H 0.05454 0.52530 0.66211
 H1850 H 0.04745 0.57514 0.64408
 C1851 C 0.53015 0.04649 0.63677
 C1852 C 0.54056 0.03847 0.62548
 C1853 C 0.55717 0.03655 0.62937
 C1854 C 0.56344 0.04280 0.64439
 C1855 C 0.55320 0.05123 0.65593
 C1856 C 0.53634 0.05279 0.65183
 C1857 C 0.53438 0.03264 0.60964
 C1858 C 0.52947 0.02795 0.59620
 C1859 C 0.52401 0.02267 0.58028
 C1860 C 0.51958 0.01834 0.56654
 H1861 H 0.51721 0.04793 0.63393
 H1862 H 0.56539 0.03048 0.62061
 H1863 H 0.57654 0.04168 0.64635
 H1864 H 0.52766 0.05844 0.66036
 C1865 C 0.52770 0.54140 0.13938
 C1866 C 0.53849 0.53623 0.12674
 C1867 C 0.55547 0.53725 0.12927
 C1868 C 0.56167 0.54360 0.14428
 C1869 C 0.55094 0.54906 0.15699
 C1870 C 0.53388 0.54777 0.15443
 C1871 C 0.53223 0.53050 0.11089
 C1872 C 0.52729 0.52600 0.09738
 C1873 C 0.52189 0.52109 0.08131
 C1874 C 0.51766 0.51719 0.06738
 H1875 H 0.51453 0.54068 0.13755
 H1876 H 0.56394 0.53337 0.11952
 H1877 H 0.57486 0.54467 0.14576
 H1878 H 0.52532 0.55171 0.16404
 C1879 C 0.22140 0.54267 0.60860
 C1880 C 0.21082 0.53722 0.62134
 C1881 C 0.19380 0.53820 0.61910
 C1882 C 0.18736 0.54475 0.60428
 C1883 C 0.19787 0.55042 0.59145
 C1884 C 0.21498 0.54923 0.59374
 C1885 C 0.21731 0.53119 0.63698
 C1886 C 0.22236 0.52641 0.65034
 C1887 C 0.22783 0.52117 0.66628
 C1888 C 0.23210 0.51703 0.68014
 H1889 H 0.23460 0.54199 0.61022
 H1890 H 0.18550 0.53413 0.62892
 H1891 H 0.17415 0.54574 0.60303
 H1892 H 0.22337 0.55335 0.58403
 C1893 C 0.19483 0.03767 0.12063
 C1894 C 0.21182 0.03718 0.12319
 C1895 C 0.22249 0.04267 0.11054
 C1896 C 0.21616 0.04876 0.09543
 C1897 C 0.19907 0.04942 0.09280
 C1898 C 0.18848 0.04375 0.10556
 C1899 C 0.21817 0.03151 0.13903
 C1900 C 0.22305 0.02699 0.15255
 C1901 C 0.22829 0.02199 0.16865
 C1902 C 0.23237 0.01802 0.18262
 H1903 H 0.18646 0.03356 0.13037
 H1904 H 0.23567 0.04235 0.11240
 H1905 H 0.22461 0.05290 0.08578
 H1906 H 0.17528 0.04435 0.10404
 C1907 C 0.69444 0.21250 0.63066
 C1908 C 0.71141 0.21371 0.62803
 C1909 C 0.72228 0.20884 0.64070
 C1910 C 0.71620 0.20262 0.65590
 C1911 C 0.69915 0.20121 0.65858
 C1912 C 0.68834 0.20630 0.64582
 C1913 C 0.71755 0.21940 0.61209
 C1914 C 0.72235 0.22390 0.59851
 C1915 C 0.72756 0.22883 0.58236
 C1916 C 0.73167 0.23275 0.56837
 H1917 H 0.68592 0.21613 0.62089
 H1918 H 0.73544 0.20970 0.63879
 H1919 H 0.72481 0.19893 0.66555
 H1920 H 0.67517 0.20511 0.64738
 C1921 C 0.69295 0.71041 0.12946
 C1922 C 0.70996 0.71179 0.12732
 C1923 C 0.72052 0.70719 0.14036
 C1924 C 0.71409 0.70109 0.15544
 C1925 C 0.69699 0.69952 0.15766
 C1926 C 0.68649 0.70433 0.14452
 C1927 C 0.71651 0.71752 0.11156
 C1928 C 0.72173 0.72213 0.09818
 C1929 C 0.72751 0.72735 0.08232
 C1930 C 0.73216 0.73164 0.06862
 H1931 H 0.68466 0.71386 0.11941
 H1932 H 0.73372 0.70821 0.13883
 H1933 H 0.72247 0.69763 0.16539
 H1934 H 0.67330 0.70302 0.14572
 C1935 C 0.54538 0.72117 0.11195
 C1936 C 0.53976 0.71037 0.12445
 C1937 C 0.54048 0.69330 0.12184
 C1938 C 0.54686 0.68703 0.10685
 C1939 C 0.55262 0.69776 0.09423
 C1940 C 0.55178 0.71491 0.09693
 C1941 C 0.53357 0.71669 0.14012
 C1942 C 0.52854 0.72167 0.15343
 C1943 C 0.52282 0.72713 0.16922
 C1944 C 0.51814 0.73147 0.18288
 H1945 H 0.54489 0.73440 0.11384
 H1946 H 0.53625 0.68483 0.13146
 H1947 H 0.54758 0.67377 0.10527
 H1948 H 0.55598 0.72348 0.08739
 C1949 C 0.04283 0.72175 0.61024
 C1950 C 0.03745 0.71112 0.62299
 C1951 C 0.03855 0.69402 0.62078
 C1952 C 0.04510 0.68755 0.60596
 C1953 C 0.05066 0.69811 0.59311
 C1954 C 0.04940 0.71530 0.59538
 C1955 C 0.03130 0.71762 0.63859
 C1956 C 0.02639 0.72264 0.65193
 C1957 C 0.02096 0.72800 0.66786
 C1958 C 0.01665 0.73213 0.68172
 H1959 H 0.04206 0.73502 0.61183
 H1960 H 0.03453 0.68568 0.63061
 H1961 H 0.04616 0.67428 0.60473
 H1962 H 0.05344 0.72374 0.58565
 C1963 C 0.54193 0.61241 0.22280
 C1964 C 0.53717 0.62468 0.21141
 C1965 C 0.53866 0.62187 0.19415
 C1966 C 0.54497 0.60691 0.18827
 C1967 C 0.54990 0.59453 0.19960
 C1968 C 0.54826 0.59742 0.21695
 C1969 C 0.53115 0.64034 0.21735
 C1970 C 0.52630 0.65361 0.22208
 C1971 C 0.52086 0.66932 0.22734
 C1972 C 0.51646 0.68289 0.23161
 H1973 H 0.54084 0.61447 0.23620
 H1974 H 0.53510 0.63131 0.18522
 H1975 H 0.54632 0.60516 0.17486
 H1976 H 0.55180 0.58807 0.22597
 C1977 C 0.02674 0.61039 0.70809
 C1978 C 0.03709 0.62307 0.71361
 C1979 C 0.05415 0.62097 0.71299
 C1980 C 0.06085 0.60635 0.70671
 C1981 C 0.05057 0.59359 0.70093
 C1982 C 0.03342 0.59573 0.70179
 C1983 C 0.03036 0.63850 0.71935
 C1984 C 0.02515 0.65170 0.72389
 C1985 C 0.01956 0.66744 0.72890
 C1986 C 0.01528 0.68113 0.73289
 H1987 H 0.01351 0.61189 0.70851
 H1988 H 0.06229 0.63075 0.71713
 H1989 H 0.07409 0.60520 0.70597
 H1990 H 0.02519 0.58607 0.69761
 C1991 C 0.04415 0.13854 0.02466
 C1992 C 0.03839 0.12625 0.03557
 C1993 C 0.03890 0.12881 0.05293
 C1994 C 0.04520 0.14353 0.05939
 C1995 C 0.05110 0.15594 0.04855
 C1996 C 0.05047 0.15330 0.03110
 C1997 C 0.03240 0.11077 0.02914
 C1998 C 0.02758 0.09754 0.02426
 C1999 C 0.02222 0.08176 0.01913
 C2000 C 0.01797 0.06803 0.01522
 H2001 H 0.04383 0.13667 0.01120
 H2002 H 0.03459 0.11934 0.06150
 H2003 H 0.04577 0.14506 0.07288
 H2004 H 0.05478 0.16269 0.02245
 C2005 C 0.02905 0.63696 0.54083
 C2006 C 0.03983 0.62428 0.53620
 C2007 C 0.05680 0.62661 0.53768
 C2008 C 0.06300 0.64148 0.54391
 C2009 C 0.05228 0.65425 0.54876
 C2010 C 0.03523 0.65186 0.54707
 C2011 C 0.03354 0.60869 0.53039
 C2012 C 0.02856 0.59545 0.52575
 C2013 C 0.02304 0.57974 0.52057
 C2014 C 0.01860 0.56616 0.51636
 H2015 H 0.01589 0.63528 0.53973
 H2016 H 0.06525 0.61685 0.53423
 H2017 H 0.07617 0.64284 0.54530
 H2018 H 0.02669 0.66152 0.55054
 C2019 C 0.52853 0.13719 0.54025
 C2020 C 0.53950 0.12470 0.53559
 C2021 C 0.55644 0.12738 0.53685
 C2022 C 0.56241 0.14241 0.54291
 C2023 C 0.55150 0.15498 0.54783
 C2024 C 0.53448 0.15225 0.54633
 C2025 C 0.53344 0.10893 0.53002
 C2026 C 0.52859 0.09556 0.52560
 C2027 C 0.52318 0.07972 0.52070
 C2028 C 0.51880 0.06604 0.51675
 H2029 H 0.51539 0.13525 0.53932
 H2030 H 0.56504 0.11776 0.53336
 H2031 H 0.57556 0.14403 0.54416
 H2032 H 0.52578 0.16175 0.54985
 C2033 C 0.55607 0.62780 0.03656
 C2034 C 0.53901 0.62595 0.03539
 C2035 C 0.52868 0.63878 0.04056
 C2036 C 0.53537 0.65334 0.04708
 C2037 C 0.55251 0.65523 0.04852
 C2038 C 0.56279 0.64232 0.04307
 C2039 C 0.53223 0.61060 0.02947
 C2040 C 0.52695 0.59747 0.02480
 C2041 C 0.52128 0.58179 0.01970
 C2042 C 0.51693 0.56813 0.01567
 H2043 H 0.56419 0.61790 0.03269
 H2044 H 0.51545 0.63748 0.03972
 H2045 H 0.52715 0.66312 0.05100
 H2046 H 0.57601 0.64328 0.04425
 C2047 C 0.72186 0.11232 0.54443
 C2048 C 0.71193 0.12322 0.53541
 C2049 C 0.69548 0.11926 0.53252
 C2050 C 0.68887 0.10456 0.53878
 C2051 C 0.69860 0.09342 0.54821
 C2052 C 0.71532 0.09759 0.55075
 C2053 C 0.71834 0.13883 0.52972
 C2054 C 0.72329 0.15215 0.52521
 C2055 C 0.72859 0.16803 0.52026
 C2056 C 0.73269 0.18181 0.51634
 H2057 H 0.73467 0.11523 0.54666
 H2058 H 0.68762 0.12772 0.52570
 H2059 H 0.67587 0.10254 0.53690
 H2060 H 0.72364 0.08935 0.55722
 C2061 C 0.69447 0.62295 0.03816
 C2062 C 0.71148 0.62539 0.03764
 C2063 C 0.72206 0.61269 0.04268
 C2064 C 0.71562 0.59764 0.04831
 C2065 C 0.69852 0.59511 0.04896
 C2066 C 0.68802 0.60793 0.04378
 C2067 C 0.71797 0.64108 0.03227
 C2068 C 0.72307 0.65440 0.02792
 C2069 C 0.72864 0.67019 0.02299
 C2070 C 0.73309 0.68383 0.01896
 H2071 H 0.68617 0.63273 0.03439
 H2072 H 0.73525 0.61445 0.04232
 H2073 H 0.72401 0.58795 0.05207
 H2074 H 0.67480 0.60648 0.04439
 C2075 C 0.22225 0.63870 0.70851
 C2076 C 0.21179 0.62598 0.71384
 C2077 C 0.19475 0.62821 0.71331
 C2078 C 0.18816 0.64302 0.70737
 C2079 C 0.19854 0.65585 0.70186
 C2080 C 0.21567 0.65355 0.70255
 C2081 C 0.21839 0.61041 0.71936
 C2082 C 0.22345 0.59711 0.72375
 C2083 C 0.22885 0.58125 0.72858
 C2084 C 0.23300 0.56747 0.73240
 H2085 H 0.23546 0.63709 0.70885
 H2086 H 0.18654 0.61841 0.71730
 H2087 H 0.17493 0.64428 0.70673
 H2088 H 0.22396 0.66325 0.69854
 C2089 C 0.19712 0.13028 0.21514
 C2090 C 0.21412 0.12780 0.21539
 C2091 C 0.22467 0.14027 0.20968
 C2092 C 0.21821 0.15514 0.20360
 C2093 C 0.20111 0.15768 0.20319
 C2094 C 0.19064 0.14509 0.20909
 C2095 C 0.22056 0.11221 0.22101
 C2096 C 0.22542 0.09886 0.22550
 C2097 C 0.23050 0.08294 0.23046
 C2098 C 0.23435 0.06911 0.23440
 H2099 H 0.18883 0.12067 0.21942
 H2100 H 0.23786 0.13847 0.20979
 H2101 H 0.22657 0.16465 0.19928
 H2102 H 0.17742 0.14654 0.20866
 C2103 C 0.72315 1.13792 0.70498
 C2104 C 0.71316 1.12675 0.71364
 C2105 C 0.69674 1.13068 0.71677
 C2106 C 0.69022 1.14562 0.71111
 C2107 C 0.70001 1.15706 0.70207
 C2108 C 0.71670 1.15291 0.69926
 C2109 C 0.71953 1.11099 0.71888
 C2110 C 0.72447 1.09761 0.72314
 C2111 C 0.72982 1.08174 0.72798
 C2112 C 0.73403 1.06802 0.73199
 H2113 H 0.73594 1.13504 0.70259
 H2114 H 0.68884 1.12202 0.72333
 H2115 H 0.67724 1.14763 0.71316
 H2116 H 0.72506 1.16134 0.69307
 C2117 C 0.72151 0.63898 0.20943
 C2118 C 0.71112 0.62611 0.21449
 C2119 C 0.69407 0.62808 0.21356
 C2120 C 0.68739 0.64278 0.20746
 C2121 C 0.69770 0.65576 0.20219
 C2122 C 0.71484 0.65373 0.20331
 C2123 C 0.71781 0.61062 0.22009
 C2124 C 0.72294 0.59737 0.22453
 C2125 C 0.72836 0.58154 0.22942
 C2126 C 0.73249 0.56777 0.23329
 H2127 H 0.73473 0.63757 0.21007
 H2128 H 0.68592 0.61815 0.21734
 H2129 H 0.67416 0.64384 0.20650
 H2130 H 0.72308 0.66356 0.19949
 C2131 C 0.54383 0.11157 0.72399
 C2132 C 0.53849 0.12411 0.71320
 C2133 C 0.53970 0.12201 0.69581
 C2134 C 0.54630 0.10748 0.68921
 C2135 C 0.55178 0.09481 0.69992
 C2136 C 0.55045 0.09699 0.71740
 C2137 C 0.53225 0.13941 0.71982
 C2138 C 0.52728 0.15251 0.72489
 C2139 C 0.52181 0.16818 0.73028
 C2140 C 0.51753 0.18183 0.73439
 H2141 H 0.54299 0.11309 0.73748
 H2142 H 0.53573 0.13169 0.68734
 H2143 H 0.54743 0.10631 0.67571
 H2144 H 0.55446 0.08740 0.72595
 C2145 C 1.04337 0.11207 0.22414
 C2146 C 1.03841 0.12452 0.21305
 C2147 C 1.03956 0.12197 0.19572
 C2148 C 1.04571 0.10709 0.18947
 C2149 C 1.05081 0.09452 0.20049
 C2150 C 1.04955 0.09715 0.21791
 C2151 C 1.03256 0.14012 0.21932
 C2152 C 1.02788 0.15341 0.22416
 C2153 C 1.02267 0.16924 0.22935
 C2154 C 1.01851 0.18296 0.23336
 H2155 H 1.04256 0.11392 0.23759
 H2156 H 1.03586 0.13156 0.18701
 H2157 H 1.04681 0.10557 0.17601
 H2158 H 1.05327 0.08765 0.22670
 C2159 C 0.22140 0.61345 0.54217
 C2160 C 0.21083 0.62630 0.53756
 C2161 C 0.19381 0.62400 0.53845
 C2162 C 0.18736 0.60897 0.54403
 C2163 C 0.19786 0.59600 0.54882
 C2164 C 0.21497 0.59839 0.54777
 C2165 C 0.21733 0.64199 0.53224
 C2166 C 0.22243 0.65532 0.52793
 C2167 C 0.22797 0.67113 0.52304
 C2168 C 0.23234 0.68479 0.51900
 H2169 H 0.23461 0.61510 0.54152
 H2170 H 0.18551 0.63389 0.53499
 H2171 H 0.17414 0.60762 0.54495
 H2172 H 0.22336 0.58858 0.55122
 C2173 C 0.22183 0.11134 1.04183
 C2174 C 0.21105 0.12397 1.03711
 C2175 C 0.19406 0.12144 1.03813
 C2176 C 0.18786 0.10639 1.04396
 C2177 C 0.19858 0.09364 1.04885
 C2178 C 0.21565 0.09626 1.04768
 C2179 C 0.21732 0.13970 1.03158
 C2180 C 0.22228 0.15302 1.02710
 C2181 C 0.22776 0.16880 1.02203
 C2182 C 0.23215 0.18242 1.01785
 H2183 H 0.23500 0.11318 1.04109
 H2184 H 0.18561 0.13116 1.03460
 H2185 H 0.17468 0.10486 1.04500
 H2186 H 0.22419 0.08663 1.05123
 C2187 C 0.22059 0.70749 0.63977
 C2188 C 0.20977 0.71242 0.62707
 C2189 C 0.19280 0.71122 0.62964
 C2190 C 0.18664 0.70502 0.64478
 C2191 C 0.19740 0.69991 0.65758
 C2192 C 0.21446 0.70127 0.65493
 C2193 C 0.21600 0.71831 0.61123
 C2194 C 0.22096 0.72307 0.59779
 C2195 C 0.22646 0.72842 0.58187
 C2196 C 0.23091 0.73279 0.56812
 H2197 H 0.23376 0.70836 0.63791
 H2198 H 0.18431 0.71491 0.61986
 H2199 H 0.17346 0.70388 0.64631
 H2200 H 0.22303 0.69759 0.66461
 C2201 C 0.19441 0.21144 1.12989
 C2202 C 0.21133 0.21249 1.12693
 C2203 C 0.22239 0.20783 1.13951
 C2204 C 0.21655 0.20202 1.15496
 C2205 C 0.19955 0.20081 1.15801
 C2206 C 0.18854 0.20565 1.14531
 C2207 C 0.21725 0.21797 1.11082
 C2208 C 0.22196 0.22237 1.09718
 C2209 C 0.22721 0.22731 1.08104
 C2210 C 0.23149 0.23134 1.06713
 H2211 H 0.18574 0.21492 1.12021
 H2212 H 0.23552 0.20859 1.13735
 H2213 H 0.22531 0.19852 1.16455
 H2214 H 0.17540 0.20460 1.14716
 C2215 C 0.72099 0.54227 0.10972
 C2216 C 0.71015 0.53681 0.12222
 C2217 C 0.69318 0.53770 0.11957
 C2218 C 0.68704 0.54415 0.10457
 C2219 C 0.69782 0.54982 0.09197
 C2220 C 0.71487 0.54874 0.09468
 C2221 C 0.71632 0.53084 0.13803
 C2222 C 0.72116 0.52611 0.15149
 C2223 C 0.72646 0.52094 0.16752
 C2224 C 0.73067 0.51687 0.18143
 H2225 H 0.73415 0.54166 0.11165
 H2226 H 0.68467 0.53362 0.12921
 H2227 H 0.67386 0.54507 0.10299
 H2228 H 0.72346 0.55286 0.08516
 C2229 C 0.72093 1.04346 0.61093
 C2230 C 0.71017 1.03919 0.62396
 C2231 C 0.69319 1.04070 0.62166
 C2232 C 0.68698 1.04654 0.60643
 C2233 C 0.69768 1.05096 0.59327
 C2234 C 0.71473 1.04932 0.59567
 C2235 C 0.71647 1.03360 0.63985
 C2236 C 0.72150 1.02906 0.65332
 C2237 C 0.72708 1.02392 0.66925
 C2238 C 0.73160 1.01969 0.68300
 H2239 H 0.73409 1.04235 0.61258
 H2240 H 0.68476 1.03752 0.63170
 H2241 H 0.67381 1.04793 0.60508
 H2242 H 0.72325 1.05251 0.58571
 C2243 C 0.54165 0.22200 0.60985
 C2244 C 0.53702 0.21121 0.62276
 C2245 C 0.53842 0.19415 0.62045
 C2246 C 0.54460 0.18787 0.60538
 C2247 C 0.54950 0.19861 0.59239
 C2248 C 0.54785 0.21575 0.59474
 C2249 C 0.53139 0.21756 0.63863
 C2250 C 0.52693 0.22253 0.65215
 C2251 C 0.52199 0.22792 0.66823
 C2252 C 0.51802 0.23212 0.68217
 H2253 H 0.54062 0.23524 0.61151
 H2254 H 0.53497 0.18568 0.63040
 H2255 H 0.54596 0.17464 0.60406
 H2256 H 0.55135 0.22431 0.58491
 C2257 C 1.03535 0.19690 0.11812
 C2258 C 1.03826 0.21340 0.12219
 C2259 C 1.04717 0.22340 0.11114
 C2260 C 1.05339 0.21686 0.09618
 C2261 C 1.05086 0.20007 0.09193
 C2262 C 1.04151 0.19029 0.10320
 C2263 C 1.03266 0.21979 0.13805
 C2264 C 1.02817 0.22470 0.15159
 C2265 C 1.02318 0.22993 0.16770
 C2266 C 1.01914 0.23395 0.18168
 H2267 H 1.02860 0.18899 0.12670
 H2268 H 1.04940 0.23626 0.11413
 H2269 H 1.05978 0.22524 0.08784
 H2270 H 1.03961 0.17724 0.10115
 C2271 C 0.63902 0.22335 0.71147
 C2272 C 0.62650 0.21248 0.71635
 C2273 C 0.62896 0.19543 0.71519
 C2274 C 0.64379 0.18923 0.70897
 C2275 C 0.65638 0.20004 0.70381
 C2276 C 0.65388 0.21718 0.70524
 C2277 C 0.61086 0.21871 0.72192
 C2278 C 0.59751 0.22353 0.72627
 C2279 C 0.58162 0.22869 0.73102
 C2280 C 0.56783 0.23268 0.73477
 H2281 H 0.63723 0.23658 0.71230
 H2282 H 0.61932 0.18691 0.71883
 H2283 H 0.64523 0.17599 0.70779
 H2284 H 0.66341 0.22579 0.70152
 C2285 C 1.14000 0.22465 0.21107
 C2286 C 1.12766 0.21386 0.21656
 C2287 C 1.13026 0.19680 0.21602
 C2288 C 1.14503 0.19051 0.20981
 C2289 C 1.15745 0.20121 0.20404
 C2290 C 1.15483 0.21837 0.20484
 C2291 C 1.11203 0.22013 0.22210
 C2292 C 1.09868 0.22494 0.22644
 C2293 C 1.08275 0.23006 0.23113
 C2294 C 1.06894 0.23400 0.23481
 H2295 H 1.13810 0.23788 0.21141
 H2296 H 1.12074 0.18834 0.22013
 H2297 H 1.14656 0.17724 0.20910
 H2298 H 1.16422 0.22692 0.20065
 C2299 C 0.11282 0.72190 0.54290
 C2300 C 0.12556 0.71130 0.53805
 C2301 C 0.12335 0.69420 0.53907
 C2302 C 0.10853 0.68768 0.54499
 C2303 C 0.09566 0.69821 0.54997
 C2304 C 0.09796 0.71540 0.54883
 C2305 C 0.14105 0.71787 0.53238
 C2306 C 0.15422 0.72301 0.52778
 C2307 C 0.16986 0.72862 0.52262
 C2308 C 0.18340 0.73308 0.51843
 H2309 H 0.11440 0.73517 0.54216
 H2310 H 0.13316 0.68588 0.53545
 H2311 H 0.10725 0.67441 0.54597
 H2312 H 0.08823 0.72381 0.55242
 C2313 C 0.12315 0.20937 1.05397
 C2314 C 0.12578 0.21045 1.03664
 C2315 C 0.11331 0.20575 1.02554
 C2316 C 0.09828 0.19994 1.03175
 C2317 C 0.09554 0.19878 1.04916
 C2318 C 0.10815 0.20358 1.06020
 C2319 C 0.14143 0.21608 1.03037
 C2320 C 0.15470 0.22067 1.02550
 C2321 C 0.17045 0.22588 1.02021
 C2322 C 0.18405 0.23016 1.01605
 H2323 H 0.13275 0.21288 1.06268
 H2324 H 0.11523 0.20652 1.01209
 H2325 H 0.08876 0.19644 1.02296
 H2326 H 0.10654 0.20255 1.07366
 C2327 C 0.61070 0.52767 0.21064
 C2328 C 0.62330 0.53850 0.21531
 C2329 C 0.62103 0.55556 0.21368
 C2330 C 0.60632 0.56177 0.20722
 C2331 C 0.59366 0.55100 0.20227
 C2332 C 0.59596 0.53387 0.20416
 C2333 C 0.63881 0.53220 0.22115
 C2334 C 0.65204 0.52724 0.22571
 C2335 C 0.66781 0.52183 0.23064
 C2336 C 0.68150 0.51760 0.23448
 H2337 H 0.61233 0.51445 0.21183
 H2338 H 0.63074 0.56405 0.21716
 H2339 H 0.60504 0.57500 0.20568
 H2340 H 0.58638 0.52527 0.20063
 C2341 C 0.62447 1.04193 0.69505
 C2342 C 0.62680 1.04080 0.71241
 C2343 C 0.61420 1.04559 0.72336
 C2344 C 0.59932 1.05154 0.71695
 C2345 C 0.59689 1.05273 0.69950
 C2346 C 0.60964 1.04785 0.68863
 C2347 C 0.64225 1.03494 0.71885
 C2348 C 0.65540 1.03014 0.72382
 C2349 C 0.67101 1.02467 0.72916
 C2350 C 0.68452 1.02020 0.73334
 H2351 H 0.63418 1.03834 0.68647
 H2352 H 0.61587 1.04476 0.73682
 H2353 H 0.58968 1.05505 0.72562
 H2354 H 0.60825 1.04887 0.67515
 C2355 C 0.87601 0.44418 0.28679
 C2356 C 0.87368 0.46124 0.28551
 C2357 C 0.88635 0.47203 0.29008
 C2358 C 0.90125 0.46577 0.29608
 C2359 C 0.90363 0.44862 0.29759
 C2360 C 0.89087 0.43789 0.29278
 C2361 C 0.85808 0.46760 0.28000
 C2362 C 0.84482 0.47261 0.27561
 C2363 C 0.82909 0.47810 0.27074
 C2364 C 0.81547 0.48247 0.26680
 H2365 H 0.86625 0.43572 0.28338
 H2366 H 0.88467 0.48527 0.28914
 H2367 H 0.91090 0.47432 0.29952
 H2368 H 0.89223 0.42465 0.29403
 C2369 C 0.87742 0.94473 0.78697
 C2370 C 0.87570 0.96186 0.78557
 C2371 C 0.88858 0.97223 0.79050
 C2372 C 0.90307 0.96549 0.79699
 C2373 C 0.90482 0.94827 0.79864
 C2374 C 0.89186 0.93797 0.79345
 C2375 C 0.86043 0.96868 0.77968
 C2376 C 0.84735 0.97395 0.77506
 C2377 C 0.83171 0.97959 0.77004
 C2378 C 0.81808 0.98392 0.76612
 H2379 H 0.86748 0.93659 0.78330
 H2380 H 0.88737 0.98552 0.78948
 H2381 H 0.91291 0.97372 0.80070
 H2382 H 0.89274 0.92469 0.79478
 C2383 C 0.36311 0.27817 0.79173
 C2384 C 0.37586 0.28889 0.78715
 C2385 C 0.37357 0.30598 0.78829
 C2386 C 0.35866 0.31234 0.79412
 C2387 C 0.34581 0.30168 0.79892
 C2388 C 0.34817 0.28452 0.79758
 C2389 C 0.39146 0.28245 0.78168
 C2390 C 0.40470 0.27735 0.77728
 C2391 C 0.42040 0.27175 0.77233
 C2392 C 0.43397 0.26732 0.76825
 H2393 H 0.36475 0.26492 0.79089
 H2394 H 0.38338 0.31439 0.78485
 H2395 H 0.35733 0.32560 0.79526
 H2396 H 0.33846 0.27601 0.80103
 C2397 C 0.87466 0.30719 0.28826
 C2398 C 0.87697 0.29009 0.28733
 C2399 C 0.86438 0.27940 0.29242
 C2400 C 0.84959 0.28579 0.29859
 C2401 C 0.84721 0.30296 0.29974
 C2402 C 0.85989 0.31359 0.29442
 C2403 C 0.89246 0.28362 0.28160
 C2404 C 0.90563 0.27849 0.27701
 C2405 C 0.92126 0.27286 0.27188
 C2406 C 0.93478 0.26840 0.26769
 H2407 H 0.88435 0.31557 0.28444
 H2408 H 0.86605 0.26615 0.29175
 H2409 H 0.84000 0.27730 0.30242
 H2410 H 0.85854 0.32686 0.29538
 C2411 C 0.37844 0.80522 0.46432
 C2412 C 0.37583 0.78818 0.46543
 C2413 C 0.38827 0.77726 0.46054
 C2414 C 0.40322 0.78337 0.45442
 C2415 C 0.40590 0.80050 0.45313
 C2416 C 0.39336 0.81135 0.45821
 C2417 C 0.36015 0.78201 0.47104
 C2418 C 0.34680 0.77722 0.47549
 C2419 C 0.33093 0.77206 0.48038
 C2420 C 0.31716 0.76805 0.48426
 H2421 H 0.36885 0.81379 0.46796
 H2422 H 0.38637 0.76403 0.46132
 H2423 H 0.41270 0.77472 0.45072
 H2424 H 0.39492 0.82459 0.45709
 C2425 C 0.38896 0.27693 0.96001
 C2426 C 0.37621 0.28737 0.96515
 C2427 C 0.37822 0.30451 0.96421
 C2428 C 0.39282 0.31121 0.95795
 C2429 C 0.40564 0.30084 0.95251
 C2430 C 0.40360 0.28362 0.95374
 C2431 C 0.36077 0.28063 0.97075
 C2432 C 0.34757 0.27541 0.97512
 C2433 C 0.33180 0.26984 0.97988
 C2434 C 0.31809 0.26557 0.98363
 H2435 H 0.38752 0.26365 0.96068
 H2436 H 0.36839 0.31270 0.96806
 H2437 H 0.39392 0.32450 0.95693
 H2438 H 0.41331 0.27533 0.94982
 C2439 C 0.79428 0.47077 0.38800
 C2440 C 0.78959 0.45995 0.37518
 C2441 C 0.79109 0.44289 0.37752
 C2442 C 0.79732 0.43666 0.39259
 C2443 C 0.80213 0.44741 0.40554
 C2444 C 0.80052 0.46455 0.40310
 C2445 C 0.78352 0.46625 0.35946
 C2446 C 0.77858 0.47124 0.34613
 C2447 C 0.77299 0.47676 0.33032
 C2448 C 0.76842 0.48122 0.31666
 H2449 H 0.79316 0.48400 0.38631
 H2450 H 0.78759 0.43441 0.36765
 H2451 H 0.79866 0.42342 0.39397
 H2452 H 0.80399 0.47312 0.41290
 C2453 C 0.78841 0.94593 0.88010
 C2454 C 0.78760 0.96302 0.87770
 C2455 C 0.79305 0.97369 0.89034
 C2456 C 0.79946 0.96726 0.90528
 C2457 C 0.80048 0.95008 0.90772
 C2458 C 0.79480 0.93949 0.89499
 C2459 C 0.78173 0.96947 0.86197
 C2460 C 0.77709 0.97443 0.84853
 C2461 C 0.77198 0.97974 0.83249
 C2462 C 0.76794 0.98387 0.81856
 H2463 H 0.78433 0.93756 0.87035
 H2464 H 0.79250 0.98694 0.88859
 H2465 H 0.80359 0.97572 0.91491
 H2466 H 0.79567 0.92621 0.89637
 C2467 C 0.27658 0.79357 0.36016
 C2468 C 0.28728 0.78840 0.37285
 C2469 C 0.30428 0.78926 0.37031
 C2470 C 0.31058 0.79540 0.35521
 C2471 C 0.29994 0.80079 0.34242
 C2472 C 0.28286 0.79973 0.34503
 C2473 C 0.28095 0.78269 0.38872
 C2474 C 0.27602 0.77815 0.40225
 C2475 C 0.27071 0.77311 0.41834
 C2476 C 0.26658 0.76907 0.43230
 H2477 H 0.26339 0.79298 0.36201
 H2478 H 0.31268 0.78538 0.38009
 H2479 H 0.32378 0.79630 0.35370
 H2480 H 0.27437 0.80365 0.33536
 C2481 C 0.28936 0.30448 0.87032
 C2482 C 0.28850 0.28736 0.87245
 C2483 C 0.29392 0.27689 0.85961
 C2484 C 0.30030 0.28354 0.84474
 C2485 C 0.30131 0.30076 0.84254
 C2486 C 0.29571 0.31115 0.85549
 C2487 C 0.28253 0.28068 0.88806
 C2488 C 0.27775 0.27556 0.90143
 C2489 C 0.27247 0.27012 0.91738
 C2490 C 0.26827 0.26594 0.93127
 H2491 H 0.28530 0.31270 0.88022
 H2492 H 0.29333 0.26360 0.86115
 H2493 H 0.30437 0.27524 0.83493
 H2494 H 0.29658 0.32445 0.85431
 C2495 C 0.47138 0.29417 0.88915
 C2496 C 0.46059 0.28910 0.87649
 C2497 C 0.44361 0.29004 0.87909
 C2498 C 0.43741 0.29612 0.89424
 C2499 C 0.44814 0.30135 0.90701
 C2500 C 0.46520 0.30027 0.90432
 C2501 C 0.46685 0.28326 0.86067
 C2502 C 0.47180 0.27852 0.84725
 C2503 C 0.47727 0.27315 0.83135
 C2504 C 0.48168 0.26872 0.81762
 H2505 H 0.48455 0.29349 0.88726
 H2506 H 0.43515 0.28623 0.86934
 H2507 H 0.42422 0.29705 0.89581
 H2508 H 0.47375 0.30407 0.91399
 C2509 C 0.94366 0.28966 0.37855
 C2510 C 0.96067 0.28844 0.37626
 C2511 C 0.97130 0.29315 0.38920
 C2512 C 0.96494 0.29917 0.40433
 C2513 C 0.94785 0.30055 0.40670
 C2514 C 0.93728 0.29566 0.39364
 C2515 C 0.96712 0.28273 0.36047
 C2516 C 0.97220 0.27812 0.34705
 C2517 C 0.97781 0.27293 0.33113
 C2518 C 0.98229 0.26870 0.31737
 H2519 H 0.93532 0.28613 0.36858
 H2520 H 0.98449 0.29226 0.38756
 H2521 H 0.97337 0.30269 0.41421
 H2522 H 0.92409 0.29683 0.39496
 C2523 C 0.44262 0.37610 0.78867
 C2524 C 0.45964 0.37385 0.78767
 C2525 C 0.47023 0.38656 0.79262
 C2526 C 0.46382 0.40144 0.79866
 C2527 C 0.44672 0.40378 0.79981
 C2528 C 0.43619 0.39095 0.79469
 C2529 C 0.46613 0.35831 0.78193
 C2530 C 0.47126 0.34512 0.77731
 C2531 C 0.47691 0.32946 0.77214
 C2532 C 0.48145 0.31591 0.76794
 H2533 H 0.43431 0.36630 0.78496
 H2534 H 0.48343 0.38494 0.79190
 H2535 H 0.47222 0.41115 0.80236
 H2536 H 0.42298 0.39226 0.79567
 C2537 C 0.97082 0.38778 0.29096
 C2538 C 0.96023 0.37500 0.28618
 C2539 C 0.94321 0.37724 0.28725
 C2540 C 0.93679 0.39212 0.29318
 C2541 C 0.94732 0.40501 0.29814
 C2542 C 0.96442 0.40270 0.29691
 C2543 C 0.96671 0.35943 0.28056
 C2544 C 0.97182 0.34619 0.27605
 C2545 C 0.97745 0.33048 0.27100
 C2546 C 0.98195 0.31689 0.26690
 H2547 H 0.98402 0.38617 0.29018
 H2548 H 0.93490 0.36739 0.28368
 H2549 H 0.92358 0.39341 0.29423
 H2550 H 0.97283 0.41245 0.30048
 C2551 C 0.30462 0.88001 0.46459
 C2552 C 0.28760 0.87771 0.46547
 C2553 C 0.27703 0.89033 0.46025
 C2554 C 0.28347 0.90517 0.45404
 C2555 C 0.30058 0.90753 0.45299
 C2556 C 0.31108 0.89480 0.45840
 C2557 C 0.28114 0.86214 0.47120
 C2558 C 0.27618 0.84884 0.47575
 C2559 C 0.27090 0.83297 0.48074
 C2560 C 0.26681 0.81919 0.48468
 H2561 H 0.31292 0.87028 0.46849
 H2562 H 0.26383 0.88866 0.46085
 H2563 H 0.27509 0.91480 0.45010
 H2564 H 0.32429 0.89613 0.45749
 C2565 C 0.30704 0.37648 0.96194
 C2566 C 0.29000 0.37435 0.96297
 C2567 C 0.27952 0.38698 0.95758
 C2568 C 0.28606 0.40162 0.95099
 C2569 C 0.30319 0.40378 0.94972
 C2570 C 0.31360 0.39107 0.95537
 C2571 C 0.28337 0.35895 0.96901
 C2572 C 0.27818 0.34580 0.97377
 C2573 C 0.27255 0.33010 0.97897
 C2574 C 0.26818 0.31645 0.98307
 H2575 H 0.31526 0.36674 0.96598
 H2576 H 0.26631 0.38547 0.95831
 H2577 H 0.27774 0.41124 0.94692
 H2578 H 0.32682 0.39226 0.95433
 C2579 C 0.77945 0.36312 0.29262
 C2580 C 0.78984 0.37589 0.28734
 C2581 C 0.80690 0.37387 0.28819
 C2582 C 0.81355 0.35919 0.29442
 C2583 C 0.80323 0.34631 0.29989
 C2584 C 0.78609 0.34841 0.29886
 C2585 C 0.78312 0.39128 0.28146
 C2586 C 0.77782 0.40439 0.27674
 C2587 C 0.77202 0.41997 0.27147
 C2588 C 0.76743 0.43349 0.26722
 H2589 H 0.76623 0.36456 0.29202
 H2590 H 0.81506 0.38372 0.28423
 H2591 H 0.82679 0.35807 0.29529
 H2592 H 0.77783 0.33866 0.30282
   
