data_POSCAR
  _audit_creation_date              2014-09-24
  _audit_creation_method            'ToBaCCo'
  _symmetry_space_group_name_H-M    'P1'
  _symmetry_Int_Tables_number       1
  _symmetry_cell_setting            triclinic
  loop_
  _symmetry_equiv_pos_as_xyz
 x,y,z
_cell_length_a 46.2371
_cell_length_b 46.3961
_cell_length_c 32.7076
_cell_angle_alpha 90.027100
_cell_angle_beta 90.673200
_cell_angle_gamma 89.975000
loop_
  _atom_site_label
  _atom_site_type_symbol
  _atom_site_fract_x
  _atom_site_fract_y
  _atom_site_fract_z
Zr1 Zr -0.05124 0.00287 0.00517
 O2 O -0.08659 -0.01766 -0.02457
 O3 O -0.07237 0.02834 0.04877
 O4 O -0.07305 -0.02600 0.04432
 O5 O -0.04348 0.05791 -0.06523
 O6 O -0.03679 -0.05427 0.07011
 O7 O -0.07669 0.03197 -0.02941
 O8 O -0.03520 0.05022 0.08328
 O9 O -0.02368 -0.00154 0.05608
 O10 O -0.02534 0.03984 0.00672
 O11 O -0.02788 -0.03527 -0.00525
 O12 O -0.03043 0.00464 -0.05206
 Zr13 Zr 0.04939 -0.00051 -0.00882
 Zr14 Zr 0.00120 -0.03828 0.04406
 Zr15 Zr -0.00302 0.04061 -0.04813
 Zr16 Zr 0.00294 0.03479 0.05594
 O17 O -0.00637 0.04088 -0.11268
 O18 O 0.00543 0.02286 0.11844
 O19 O 0.02628 0.03804 0.00126
 O20 O 0.02821 -0.00216 0.04779
 O21 O 0.02383 -0.03774 -0.01079
 O22 O 0.02154 0.00381 -0.05933
 C23 C -0.06226 0.04580 0.07594
 C24 C -0.06955 0.05196 -0.05468
 C25 C -0.06355 -0.04714 0.06627
 O26 O 0.00787 -0.03915 0.10814
 O27 O 0.04104 -0.05853 0.05596
 O28 O 0.07468 -0.03139 0.02293
 C29 C 0.06717 -0.05267 0.04578
 O30 O -0.04551 -0.04405 -0.08593
 Zr31 Zr -0.00487 -0.03241 -0.05977
 O32 O 0.07051 -0.02633 -0.05186
 O33 O -0.00276 -0.08310 0.03319
 O34 O -0.00840 -0.07792 -0.05633
 O35 O -0.00485 -0.02303 -0.12323
 O36 O 0.03338 -0.05067 -0.08291
 C37 C 0.06042 -0.04558 -0.07645
 O38 O 0.08453 0.01898 0.02276
 O39 O -0.00230 0.08565 -0.03771
 O40 O 0.07155 0.02950 -0.04571
 O41 O 0.03552 0.05892 -0.06951
 O42 O 0.00396 0.08047 0.05399
 O43 O 0.04317 0.05054 0.07877
 C44 C 0.06226 0.05151 -0.06601
 H45 H -0.03643 0.05796 0.00953
 H46 H 0.04223 -0.00392 0.07076
 H47 H 0.03202 0.00540 -0.08545
 H48 H -0.04096 -0.05213 -0.00673
 H49 H 0.00143 0.04035 0.13484
 H50 H 0.00720 -0.05967 0.11646
 H51 H -0.00012 -0.09291 0.05990
 H52 H -0.00525 -0.08571 -0.08415
 H53 H 0.00090 0.08764 0.08217
 H54 H -0.00457 0.09510 -0.06472
 H55 H -0.00564 0.06135 -0.12124
 H56 H -0.00126 -0.04139 -0.13782
 H57 H 0.03995 0.06136 0.10442
 H58 H 0.10255 0.01208 0.00978
 H59 H -0.10453 -0.01057 -0.01156
 H60 H -0.04257 -0.05856 -0.10771
 Zr61 Zr 0.54932 0.49940 0.49110
 O62 O 0.58441 0.51902 0.52261
 O63 O 0.57048 0.47339 0.44834
 O64 O 0.57455 0.46865 0.52321
 O65 O 0.53561 0.55850 0.42970
 O66 O 0.54085 0.44173 0.55648
 O67 O 0.57157 0.52917 0.45397
 O68 O 0.53339 0.44895 0.41737
 O69 O 0.52376 0.46217 0.48945
 O70 O 0.52154 0.50347 0.44047
 O71 O 0.52806 0.49807 0.54765
 O72 O 0.52622 0.53802 0.50068
 Zr73 Zr 0.44868 0.50290 0.50475
 Zr74 Zr 0.50104 0.46194 0.54424
 Zr75 Zr 0.49699 0.54035 0.45119
 Zr76 Zr 0.49512 0.46726 0.44033
 O77 O 0.49771 0.58544 0.46117
 O78 O 0.49165 0.42177 0.44427
 O79 O 0.46958 0.50437 0.44757
 O80 O 0.47204 0.46469 0.49481
 O81 O 0.47616 0.49876 0.55578
 O82 O 0.47458 0.53988 0.50597
 C83 C 0.56042 0.45408 0.42383
 C84 C 0.56234 0.55107 0.43337
 C85 C 0.56700 0.44751 0.54629
 O86 O 0.49708 0.41707 0.53385
 O87 O 0.46302 0.44611 0.57036
 O88 O 0.42680 0.47424 0.54414
 C89 C 0.43627 0.45322 0.56635
 O90 O 0.54300 0.55095 0.57806
 Zr91 Zr 0.50280 0.53507 0.55532
 O92 O 0.42749 0.52859 0.54802
 O93 O 0.50762 0.46142 0.60835
 O94 O 0.50524 0.52351 0.61796
 O95 O 0.50379 0.58075 0.55288
 O96 O 0.46463 0.55062 0.58243
 C97 C 0.43757 0.54616 0.57508
 O98 O 0.41336 0.48221 0.47517
 O99 O 0.49376 0.54032 0.38662
 O100 O 0.42329 0.53175 0.46971
 O101 O 0.45655 0.55752 0.43372
 O102 O 0.49515 0.47632 0.37677
 O103 O 0.45451 0.45546 0.41423
 C104 C 0.43046 0.55158 0.44421
 H105 H 0.53205 0.50492 0.41435
 H106 H 0.45895 0.44783 0.49348
 H107 H 0.46348 0.55800 0.50855
 H108 H 0.54205 0.49643 0.57068
 H109 H 0.49483 0.41383 0.41654
 H110 H 0.49968 0.40740 0.56067
 H111 H 0.50693 0.44095 0.61689
 H112 H 0.50122 0.54109 0.63415
 H113 H 0.49874 0.45788 0.36238
 H114 H 0.49451 0.56074 0.37787
 H115 H 0.49549 0.59476 0.43405
 H116 H 0.50069 0.58806 0.58097
 H117 H 0.45747 0.44080 0.39266
 H118 H 0.39541 0.48938 0.48805
 H119 H 0.60246 0.51205 0.50977
 H120 H 0.53975 0.56194 0.60356
 Zr121 Zr 0.55226 -0.00246 0.49028
 O122 O 0.58352 0.01932 0.45495
 O123 O 0.57838 -0.02940 0.52665
 O124 O 0.57817 0.02571 0.52589
 O125 O 0.53679 -0.05492 0.41802
 O126 O 0.54559 0.05009 0.56491
 O127 O 0.57362 -0.03027 0.44932
 O128 O 0.54621 -0.05032 0.57001
 O129 O 0.53100 -0.00035 0.54649
 O130 O 0.52717 -0.03980 0.49449
 O131 O 0.52782 0.03577 0.48832
 O132 O 0.52512 -0.00233 0.43789
 Zr133 Zr 0.45116 0.00023 0.49682
 Zr134 Zr 0.50480 0.03641 0.54311
 Zr135 Zr 0.49877 -0.03881 0.44467
 Zr136 Zr 0.50488 -0.03687 0.54905
 O137 O 0.49414 -0.03676 0.38031
 O138 O 0.50744 -0.02740 0.61242
 O139 O 0.47548 -0.03834 0.49938
 O140 O 0.47860 -0.00012 0.54880
 O141 O 0.47611 0.03780 0.49321
 O142 O 0.47304 -0.00190 0.44130
 C143 C 0.57195 -0.04604 0.55661
 C144 C 0.56379 -0.04932 0.42407
 C145 C 0.57151 0.04425 0.55359
 O146 O 0.50473 0.03483 0.60777
 O147 O 0.46659 0.05556 0.56474
 O148 O 0.42972 0.02986 0.53527
 C149 C 0.43957 0.04997 0.55886
 O150 O 0.53610 0.04784 0.40616
 Zr151 Zr 0.49886 0.03470 0.43876
 O152 O 0.42511 0.02708 0.45996
 O153 O 0.50813 0.08154 0.53515
 O154 O 0.50259 0.08006 0.44503
 O155 O 0.49148 0.02801 0.37533
 O156 O 0.45838 0.05336 0.42495
 C157 C 0.43232 0.04747 0.43548
 O158 O 0.42014 -0.02076 0.53345
 O159 O 0.49986 -0.08417 0.45165
 O160 O 0.42513 -0.02872 0.46229
 O161 O 0.45838 -0.05720 0.43063
 O162 O 0.50605 -0.08245 0.54412
 O163 O 0.46771 -0.05524 0.57642
 C164 C 0.43226 -0.05022 0.43947
 H165 H 0.53872 -0.05776 0.49398
 H166 H 0.46725 0.00047 0.57427
 H167 H 0.45971 -0.00269 0.41741
 H168 H 0.54052 0.05284 0.48583
 H169 H 0.51350 -0.04528 0.62671
 H170 H 0.50668 0.05496 0.61757
 H171 H 0.50861 0.09018 0.56287
 H172 H 0.49632 0.08883 0.41876
 H173 H 0.51248 -0.09015 0.57099
 H174 H 0.49880 -0.09263 0.42384
 H175 H 0.49254 -0.05691 0.37052
 H176 H 0.48640 0.04694 0.36321
 H177 H 0.47374 -0.06727 0.60003
 H178 H 0.40082 -0.01359 0.52469
 H179 H 0.60283 0.01210 0.46367
 H180 H 0.53069 0.06301 0.38621
 Zr181 Zr -0.04890 0.50013 -0.00803
 O182 O -0.08018 0.47904 0.02802
 O183 O -0.07471 0.52700 -0.04523
 O184 O -0.07056 0.52968 0.03037
 O185 O -0.04118 0.44297 -0.07440
 O186 O -0.03382 0.55527 0.06036
 O187 O -0.07469 0.47127 -0.04322
 O188 O -0.04124 0.55338 -0.07950
 O189 O -0.02393 0.53772 -0.01115
 O190 O -0.02662 0.49812 -0.06324
 O191 O -0.02174 0.49968 0.04427
 O192 O -0.02457 0.46156 -0.00526
 Zr193 Zr 0.05229 0.49746 -0.01334
 Zr194 Zr 0.00450 0.53622 0.03906
 Zr195 Zr -0.00090 0.46122 -0.05963
 Zr196 Zr -0.00082 0.53473 -0.06530
 O197 O -0.00001 0.41585 -0.05277
 O198 O 0.00284 0.58007 -0.05874
 O199 O 0.02546 0.49771 -0.06602
 O200 O 0.02785 0.53570 -0.01543
 O201 O 0.03070 0.49946 0.04263
 O202 O 0.02719 0.46011 -0.00952
 C203 C -0.06748 0.54752 -0.06958
 C204 C -0.06748 0.44986 -0.06625
 C205 C -0.06081 0.54971 0.05421
 O206 O 0.00782 0.58137 0.03134
 O207 O 0.04518 0.54994 0.06132
 O208 O 0.07798 0.52559 0.02263
 C209 C 0.07116 0.54412 0.05026
 O210 O -0.03274 0.44455 0.07175
 Zr211 Zr 0.00455 0.46294 0.04476
 O212 O 0.07819 0.47042 0.02317
 O213 O 0.00410 0.53450 0.10370
 O214 O 0.00678 0.47232 0.10817
 O215 O 0.00568 0.41738 0.03962
 O216 O 0.04577 0.44941 0.06608
 C217 C 0.07159 0.45369 0.05297
 O218 O 0.08381 0.51931 -0.04814
 O219 O -0.00498 0.46337 -0.12405
 O220 O 0.07385 0.46981 -0.05431
 O221 O 0.03726 0.44501 -0.08570
 O222 O -0.00782 0.52822 -0.12884
 O223 O 0.03659 0.54797 -0.09742
 C224 C 0.06430 0.45056 -0.07955
 H225 H -0.03977 0.49738 -0.08732
 H226 H 0.04056 0.55277 -0.01772
 H227 H 0.03873 0.44215 -0.00997
 H228 H -0.03324 0.50022 0.06960
 H229 H -0.00331 0.58892 -0.08502
 H230 H 0.00814 0.58995 0.05909
 H231 H 0.00599 0.55461 0.11362
 H232 H 0.01279 0.45443 0.12247
 H233 H -0.01285 0.54718 -0.14092
 H234 H -0.00657 0.44324 -0.13393
 H235 H -0.00086 0.40743 -0.08062
 H236 H 0.01201 0.40960 0.06649
 H237 H 0.03129 0.56323 -0.11729
 H238 H 0.10306 0.51202 -0.03923
 H239 H -0.09943 0.48623 0.01899
 H240 H -0.02682 0.43244 0.09532
 Zr241 Zr 0.04958 0.50331 0.49966
 O242 O 0.08479 0.48243 0.52924
 O243 O 0.07080 0.52903 0.45652
 O244 O 0.07148 0.47501 0.45989
 O245 O 0.04178 0.55772 0.57100
 O246 O 0.03536 0.44689 0.43339
 O247 O 0.07502 0.53219 0.53461
 O248 O 0.03369 0.55118 0.42219
 O249 O 0.02212 0.49936 0.44856
 O250 O 0.02370 0.54030 0.49864
 O251 O 0.02622 0.46507 0.50920
 O252 O 0.02872 0.50454 0.55685
 Zr253 Zr -0.05107 0.49985 0.51316
 Zr254 Zr -0.00274 0.46251 0.45971
 Zr255 Zr 0.00135 0.54056 0.55344
 Zr256 Zr -0.00450 0.53568 0.44925
 O257 O 0.00442 0.54015 0.61801
 O258 O -0.00700 0.52432 0.38651
 O259 O -0.02788 0.53844 0.50391
 O260 O -0.02977 0.49868 0.45660
 O261 O -0.02549 0.46259 0.51447
 O262 O -0.02332 0.50371 0.56387
 C263 C 0.06073 0.54662 0.42950
 C264 C 0.06785 0.55195 0.56024
 C265 C 0.06208 0.45414 0.43739
 O266 O -0.00933 0.46216 0.39560
 O267 O -0.04258 0.44239 0.44726
 O268 O -0.07628 0.46932 0.48058
 C269 C -0.06874 0.44823 0.45736
 O270 O 0.04367 0.45572 0.58995
 Zr271 Zr 0.00308 0.46746 0.56369
 O272 O -0.07227 0.47356 0.55555
 O273 O 0.00127 0.41761 0.46977
 O274 O 0.00692 0.42199 0.55949
 O275 O 0.00262 0.47622 0.62733
 O276 O -0.03520 0.44871 0.58589
 C277 C -0.06224 0.45388 0.57947
 O278 O -0.08623 0.51954 0.48188
 O279 O 0.00082 0.58572 0.54409
 O280 O -0.07326 0.52981 0.55022
 O281 O -0.03717 0.55895 0.57452
 O282 O -0.00542 0.58134 0.45203
 O283 O -0.04471 0.55173 0.42675
 C284 C -0.06392 0.55178 0.57062
 H285 H 0.03481 0.55843 0.49616
 H286 H -0.04375 0.49715 0.43353
 H287 H -0.03392 0.50510 0.58992
 H288 H 0.03933 0.44821 0.51038
 H289 H -0.00300 0.54196 0.37047
 H290 H -0.00858 0.44172 0.38691
 H291 H -0.00127 0.40804 0.44287
 H292 H 0.00371 0.41396 0.58715
 H293 H -0.00231 0.58873 0.42398
 H294 H 0.00300 0.59489 0.57134
 H295 H 0.00370 0.56053 0.62700
 H296 H -0.00099 0.45770 0.64148
 H297 H -0.04148 0.56277 0.40131
 H298 H -0.10425 0.51254 0.49473
 H299 H 0.10278 0.48959 0.51649
 H300 H 0.04069 0.44116 0.61163
 Zr301 Zr 0.44906 -0.00021 0.01309
 O302 O 0.41394 0.01950 -0.01827
 O303 O 0.42778 -0.02663 0.05527
 O304 O 0.42394 -0.03071 -0.01971
 O305 O 0.46278 0.05881 0.07472
 O306 O 0.45773 -0.05753 -0.05305
 O307 O 0.42676 0.02970 0.05015
 O308 O 0.46481 -0.05150 0.08567
 O309 O 0.47466 -0.03745 0.01437
 O310 O 0.47668 0.00358 0.06394
 O311 O 0.47049 -0.00127 -0.04338
 O312 O 0.47224 0.03840 0.00408
 Zr313 Zr 0.54972 0.00334 0.00005
 Zr314 Zr 0.49754 -0.03743 -0.04029
 Zr315 Zr 0.50135 0.04046 0.05375
 Zr316 Zr 0.50312 -0.03265 0.06375
 O317 O 0.50081 0.08564 0.04459
 O318 O 0.50703 -0.07811 0.05944
 O319 O 0.52874 0.00446 0.05715
 O320 O 0.52637 -0.03493 0.00936
 O321 O 0.52241 -0.00054 -0.05121
 O322 O 0.52382 0.04031 -0.00094
 C323 C 0.43779 -0.04637 0.07914
 C324 C 0.43603 0.05164 0.07066
 C325 C 0.43154 -0.05173 -0.04301
 O326 O 0.50148 -0.08235 -0.03035
 O327 O 0.53575 -0.05306 -0.06635
 O328 O 0.57175 -0.02489 -0.03965
 C329 C 0.56246 -0.04579 -0.06217
 O330 O 0.45558 0.05177 -0.07319
 Zr331 Zr 0.49575 0.03576 -0.05049
 O332 O 0.57103 0.02919 -0.04285
 O333 O 0.49117 -0.03765 -0.10444
 O334 O 0.49348 0.02451 -0.11328
 O335 O 0.49471 0.08142 -0.04755
 O336 O 0.53399 0.05143 -0.07721
 C337 C 0.56103 0.04689 -0.06977
 O338 O 0.58488 -0.01756 0.02972
 O339 O 0.50428 0.03992 0.11834
 O340 O 0.57506 0.03215 0.03520
 O341 O 0.54174 0.05762 0.07154
 O342 O 0.50248 -0.02401 0.12741
 O343 O 0.54366 -0.04437 0.09015
 C344 C 0.56784 0.05187 0.06086
 H345 H 0.46601 0.00492 0.08995
 H346 H 0.53950 -0.05178 0.01055
 H347 H 0.53491 0.05846 -0.00328
 H348 H 0.45657 -0.00277 -0.06652
 H349 H 0.50379 -0.08618 0.08706
 H350 H 0.49904 -0.09188 -0.05731
 H351 H 0.49195 -0.05808 -0.11320
 H352 H 0.49752 0.04217 -0.12923
 H353 H 0.49887 -0.04255 0.14147
 H354 H 0.50353 0.06029 0.12740
 H355 H 0.50294 0.09476 0.07187
 H356 H 0.49787 0.08887 -0.07554
 H357 H 0.54066 -0.05895 0.11179
 H358 H 0.60290 -0.01036 0.01709
 H359 H 0.39589 0.01246 -0.00552
 H360 H 0.45887 0.06284 -0.09860
 Zr361 Zr 0.44911 0.49728 0.00278
 O362 O 0.41800 0.51975 0.03757
 O363 O 0.42287 0.47088 -0.03453
 O364 O 0.42323 0.52471 -0.03424
 O365 O 0.46420 0.44543 0.07608
 O366 O 0.45638 0.55171 -0.06841
 O367 O 0.42753 0.46986 0.04391
 O368 O 0.45568 0.44670 -0.07334
 O369 O 0.47062 0.49900 -0.05317
 O370 O 0.47420 0.45982 -0.00031
 O371 O 0.47384 0.53533 0.00518
 O372 O 0.47623 0.49771 0.05539
 Zr373 Zr 0.55017 0.49931 -0.00376
 Zr374 Zr 0.49685 0.53576 -0.04954
 Zr375 Zr 0.50251 0.46109 0.04967
 Zr376 Zr 0.49661 0.46222 -0.05485
 O377 O 0.50573 0.46364 0.11416
 O378 O 0.49234 0.47109 -0.11822
 O379 O 0.52582 0.46086 -0.00513
 O380 O 0.52274 0.49900 -0.05548
 O381 O 0.52562 0.53711 0.00017
 O382 O 0.52853 0.49775 0.05208
 C383 C 0.42974 0.45222 -0.06186
 C384 C 0.43723 0.45117 0.06980
 C385 C 0.43030 0.54502 -0.05906
 O386 O 0.49545 0.53362 -0.11413
 O387 O 0.53502 0.55448 -0.07165
 O388 O 0.57179 0.52861 -0.04237
 C389 C 0.56200 0.54886 -0.06569
 O390 O 0.46608 0.54970 0.08639
 Zr391 Zr 0.50292 0.53442 0.05471
 O392 O 0.57630 0.52683 0.03153
 O393 O 0.49501 0.58106 -0.04216
 O394 O 0.50151 0.57977 0.04691
 O395 O 0.50812 0.52710 0.11838
 O396 O 0.54401 0.55078 0.07157
 C397 C 0.56974 0.54562 0.05876
 O398 O 0.58113 0.47828 -0.04054
 O399 O 0.50246 0.41575 0.04270
 O400 O 0.57585 0.46968 0.02988
 O401 O 0.54309 0.44433 0.06737
 O402 O 0.49696 0.41666 -0.04945
 O403 O 0.53391 0.44456 -0.08283
 C404 C 0.56903 0.45017 0.05614
 H405 H 0.46270 0.44185 0.00058
 H406 H 0.53395 0.49948 -0.08108
 H407 H 0.54184 0.49709 0.07600
 H408 H 0.46129 0.55251 0.00778
 H409 H 0.48656 0.45290 -0.13195
 H410 H 0.49406 0.55374 -0.12410
 H411 H 0.49444 0.58962 -0.06993
 H412 H 0.50816 0.58867 0.07291
 H413 H 0.49103 0.40854 -0.07630
 H414 H 0.50282 0.40745 0.07061
 H415 H 0.50718 0.44359 0.12439
 H416 H 0.51388 0.54565 0.13111
 H417 H 0.52798 0.43300 -0.10697
 H418 H 0.60050 0.48525 -0.03168
 H419 H 0.39865 0.51258 0.02892
 H420 H 0.47195 0.56538 0.10529
 Zr421 Zr 0.05016 -0.00033 0.49646
 O422 O 0.08125 -0.02128 0.45981
 O423 O 0.07616 0.02738 0.53166
 O424 O 0.07164 0.02896 0.45767
 O425 O 0.04329 -0.05521 0.56780
 O426 O 0.03474 0.05454 0.42819
 O427 O 0.07594 -0.02982 0.53019
 O428 O 0.04374 0.05126 0.57157
 O429 O 0.02543 0.03736 0.50018
 O430 O 0.02851 -0.00187 0.55230
 O431 O 0.02274 -0.00091 0.44473
 O432 O 0.02598 -0.03890 0.49527
 Zr433 Zr -0.05093 -0.00284 0.50294
 Zr434 Zr -0.00333 0.03573 0.45048
 Zr435 Zr 0.00264 -0.03865 0.55006
 Zr436 Zr 0.00273 0.03468 0.55473
 O437 O 0.00278 -0.08401 0.54333
 O438 O 0.00112 0.08001 0.54669
 O439 O -0.02381 -0.00214 0.55557
 O440 O -0.02635 0.03533 0.50519
 O441 O -0.02940 -0.00115 0.44700
 O442 O -0.02564 -0.04019 0.50006
 C443 C 0.06950 0.04618 0.55882
 C444 C 0.06920 -0.04931 0.55652
 C445 C 0.06174 0.04907 0.43418
 O446 O -0.00533 0.08104 0.45764
 O447 O -0.04386 0.05150 0.43158
 O448 O -0.07691 0.02444 0.46584
 C449 C -0.06991 0.04475 0.44097
 O450 O 0.03417 -0.05535 0.41764
 Zr451 Zr -0.00322 -0.03781 0.44553
 O452 O -0.07701 -0.02950 0.46576
 O453 O -0.00477 0.03342 0.38590
 O454 O -0.00754 -0.02912 0.38212
 O455 O -0.00262 -0.08335 0.45119
 O456 O -0.04405 -0.05361 0.42711
 C457 C -0.07003 -0.04821 0.43854
 O458 O -0.08218 0.01955 0.53758
 O459 O 0.00586 -0.03592 0.61452
 O460 O -0.07237 -0.03023 0.54426
 O461 O -0.03559 -0.05441 0.57656
 O462 O 0.00791 0.02751 0.61844
 O463 O -0.03419 0.04990 0.58631
 C464 C -0.06259 -0.04880 0.57026
 H465 H 0.04181 -0.00243 0.57622
 H466 H -0.03897 0.05246 0.50771
 H467 H -0.03706 -0.05820 0.50106
 H468 H 0.03394 -0.00045 0.41913
 H469 H 0.00774 0.08900 0.57265
 H470 H -0.00595 0.08954 0.42983
 H471 H -0.00625 0.05351 0.37583
 H472 H -0.01321 -0.04736 0.36847
 H473 H 0.01360 0.04611 0.63109
 H474 H 0.00740 -0.05594 0.62487
 H475 H 0.00318 -0.09224 0.57128
 H476 H -0.00850 -0.09158 0.42438
 H477 H -0.02837 0.06564 0.60515
 H478 H -0.10148 0.01225 0.52895
 H479 H 0.10058 -0.01420 0.46867
 H480 H 0.02830 -0.06700 0.39357
 Zr481 Zr 0.75208 0.19999 0.24869
 O482 O 0.72730 0.16633 0.27443
 O483 O 0.78150 0.17701 0.21272
 O484 O 0.72744 0.17766 0.20402
 O485 O 0.79704 0.20858 0.33298
 O486 O 0.70382 0.21351 0.16936
 O487 O 0.77652 0.17496 0.29064
 O488 O 0.80905 0.21238 0.18424
 O489 O 0.75514 0.22591 0.19640
 O490 O 0.78948 0.22483 0.25635
 O491 O 0.71384 0.22461 0.24715
 O492 O 0.74693 0.22237 0.30448
 Zr493 Zr 0.74963 0.30060 0.25773
 Zr494 Zr 0.71815 0.25202 0.19667
 Zr495 Zr 0.78369 0.24868 0.30951
 Zr496 Zr 0.79168 0.25161 0.20571
 O497 O 0.77552 0.24791 0.37300
 O498 O 0.78827 0.25284 0.14104
 O499 O 0.78830 0.27639 0.25931
 O500 O 0.75496 0.27799 0.20247
 O501 O 0.71201 0.27610 0.24992
 O502 O 0.74671 0.27438 0.30947
 C503 C 0.80247 0.18578 0.19046
 C504 C 0.79273 0.18244 0.32118
 C505 C 0.70931 0.18682 0.17675
 O506 O 0.72621 0.25503 0.13329
 O507 O 0.70264 0.29200 0.17510
 O508 O 0.72188 0.32506 0.21947
 C509 C 0.70575 0.31786 0.18873
 O510 O 0.69388 0.20957 0.32409
 Zr511 Zr 0.71016 0.24899 0.30060
 O512 O 0.72022 0.32358 0.29359
 O513 O 0.67239 0.25103 0.19510
 O514 O 0.66558 0.24657 0.28488
 O515 O 0.71126 0.25062 0.36540
 O516 O 0.69037 0.28823 0.31694
 C517 C 0.69756 0.31481 0.31226
 O518 O 0.77277 0.33436 0.22939
 O519 O 0.82946 0.24748 0.31211
 O520 O 0.77615 0.32321 0.30000
 O521 O 0.80075 0.28728 0.33307
 O522 O 0.83647 0.25135 0.22047
 O523 O 0.81160 0.29057 0.18668
 C524 C 0.79528 0.31400 0.32586
 H525 H 0.80737 0.21323 0.25887
 H526 H 0.75671 0.29139 0.17909
 H527 H 0.74543 0.28562 0.33513
 H528 H 0.69657 0.21213 0.24460
 H529 H 0.80750 0.24783 0.13003
 H530 H 0.70712 0.25465 0.11923
 H531 H 0.66638 0.25245 0.16599
 H532 H 0.65446 0.25070 0.30993
 H533 H 0.84711 0.24715 0.19501
 H534 H 0.83515 0.24603 0.34135
 H535 H 0.79462 0.24846 0.38702
 H536 H 0.69139 0.25512 0.37451
 H537 H 0.82558 0.28635 0.16476
 H538 H 0.76476 0.35276 0.23980
 H539 H 0.73531 0.14785 0.26427
 H540 H 0.67712 0.21354 0.34180
 Zr541 Zr 0.74883 0.80296 0.75652
 O542 O 0.76917 0.83524 0.79249
 O543 O 0.72438 0.82784 0.71530
 O544 O 0.77906 0.82701 0.72218
 O545 O 0.69091 0.79085 0.82027
 O546 O 0.80873 0.79250 0.69583
 O547 O 0.71888 0.82606 0.79211
 O548 O 0.70601 0.79456 0.67059
 O549 O 0.75503 0.77956 0.70253
 O550 O 0.71146 0.77821 0.74761
 O551 O 0.78630 0.77824 0.76706
 O552 O 0.74434 0.77790 0.81008
 Zr553 Zr 0.75018 0.70204 0.75655
 Zr554 Zr 0.79092 0.75311 0.71438
 Zr555 Zr 0.70807 0.75175 0.79871
 Zr556 Zr 0.71822 0.75403 0.69520
 O557 O 0.70501 0.74967 0.86313
 O558 O 0.73280 0.75494 0.63399
 O559 O 0.71234 0.72658 0.74579
 O560 O 0.75441 0.72744 0.70352
 O561 O 0.78778 0.72647 0.76554
 O562 O 0.74416 0.72585 0.81007
 C563 C 0.70938 0.82058 0.68361
 C564 C 0.69777 0.81740 0.81433
 C565 C 0.80126 0.81887 0.70159
 O566 O 0.79446 0.75193 0.64998
 O567 O 0.81058 0.71400 0.69778
 O568 O 0.78179 0.67878 0.72412
 C569 C 0.80380 0.68744 0.70370
 O570 O 0.79143 0.78943 0.85055
 Zr571 Zr 0.78081 0.75130 0.81761
 O572 O 0.77433 0.67721 0.79859
 O573 O 0.83537 0.75471 0.73039
 O574 O 0.82655 0.75480 0.81952
 O575 O 0.76899 0.74597 0.87961
 O576 O 0.79826 0.71138 0.83611
 C577 C 0.79315 0.68511 0.82563
 O578 O 0.73120 0.67001 0.71869
 O579 O 0.66340 0.75309 0.78384
 O580 O 0.71852 0.67780 0.78760
 O581 O 0.68803 0.71225 0.81217
 O582 O 0.67238 0.75506 0.69232
 O583 O 0.70206 0.71627 0.66607
 C584 C 0.69550 0.68587 0.80633
 H585 H 0.69362 0.78985 0.74463
 H586 H 0.75681 0.71528 0.67891
 H587 H 0.74139 0.71344 0.83432
 H588 H 0.80329 0.79082 0.77192
 H589 H 0.71616 0.76065 0.61642
 H590 H 0.81539 0.75278 0.64387
 H591 H 0.84632 0.75413 0.70453
 H592 H 0.83310 0.74942 0.84746
 H593 H 0.66669 0.76056 0.66407
 H594 H 0.65282 0.75339 0.81001
 H595 H 0.68412 0.74878 0.86943
 H596 H 0.78683 0.74104 0.89516
 H597 H 0.69202 0.72165 0.64027
 H598 H 0.73735 0.65100 0.72962
 H599 H 0.76277 0.85416 0.78153
 H600 H 0.80480 0.78465 0.87343
 Zr601 Zr 0.25199 0.29927 0.74699
 O602 O 0.23242 0.33163 0.71032
 O603 O 0.27482 0.32407 0.79056
 O604 O 0.22109 0.32326 0.77997
 O605 O 0.31085 0.28745 0.68479
 O606 O 0.19068 0.28889 0.80477
 O607 O 0.28258 0.32251 0.71284
 O608 O 0.29429 0.29003 0.83309
 O609 O 0.24484 0.27562 0.80042
 O610 O 0.28923 0.27447 0.75688
 O611 O 0.21476 0.27455 0.73454
 O612 O 0.25738 0.27430 0.69340
 Zr613 Zr 0.25072 0.19834 0.74639
 Zr614 Zr 0.20906 0.24944 0.78694
 Zr615 Zr 0.29351 0.24821 0.70573
 Zr616 Zr 0.28151 0.24993 0.80868
 O617 O 0.29781 0.24629 0.64146
 O618 O 0.26608 0.25148 0.86943
 O619 O 0.28839 0.22277 0.75822
 O620 O 0.24535 0.22366 0.79919
 O621 O 0.21323 0.22274 0.73588
 O622 O 0.25770 0.22220 0.69313
 C623 C 0.29033 0.31626 0.82156
 C624 C 0.30384 0.31398 0.69080
 C625 C 0.19842 0.31524 0.79948
 O626 O 0.20436 0.24835 0.85117
 O627 O 0.18912 0.21035 0.80266
 O628 O 0.21876 0.17506 0.77829
 C629 C 0.19619 0.18378 0.79752
 O630 O 0.20971 0.28554 0.65144
 Zr631 Zr 0.22117 0.24754 0.68409
 O632 O 0.22625 0.17379 0.70498
 O633 O 0.16488 0.25104 0.76936
 O634 O 0.17535 0.24929 0.68142
 O635 O 0.23484 0.24412 0.62260
 O636 O 0.20608 0.20729 0.66217
 C637 C 0.20976 0.18127 0.67494
 O638 O 0.26942 0.16624 0.78436
 O639 O 0.33790 0.24956 0.72225
 O640 O 0.28268 0.17414 0.71538
 O641 O 0.31370 0.20872 0.69254
 O642 O 0.32732 0.25013 0.81308
 O643 O 0.29662 0.21194 0.83834
 C644 C 0.30602 0.18230 0.69742
 H645 H 0.30699 0.28612 0.76052
 H646 H 0.24251 0.21156 0.82373
 H647 H 0.26093 0.20990 0.66886
 H648 H 0.19784 0.28711 0.72905
 H649 H 0.28258 0.25688 0.88745
 H650 H 0.18332 0.24911 0.85652
 H651 H 0.15347 0.25039 0.79481
 H652 H 0.16927 0.24381 0.65332
 H653 H 0.33267 0.25529 0.84159
 H654 H 0.34895 0.24995 0.69647
 H655 H 0.31882 0.24545 0.63594
 H656 H 0.21764 0.23899 0.60577
 H657 H 0.30605 0.21716 0.86466
 H658 H 0.26338 0.14727 0.77315
 H659 H 0.23853 0.35054 0.72166
 H660 H 0.19621 0.28056 0.62880
 Zr661 Zr 0.24610 0.69811 0.25232
 O662 O 0.26998 0.66411 0.22572
 O663 O 0.21714 0.67567 0.28962
 O664 O 0.27105 0.67565 0.29652
 O665 O 0.20169 0.70605 0.16718
 O666 O 0.29489 0.71153 0.33072
 O667 O 0.22002 0.67321 0.21262
 O668 O 0.18994 0.71147 0.31776
 O669 O 0.24386 0.72433 0.30430
 O670 O 0.20885 0.72322 0.24498
 O671 O 0.28459 0.72225 0.25239
 O672 O 0.25100 0.72000 0.19608
 Zr673 Zr 0.24921 0.79867 0.24236
 Zr674 Zr 0.28114 0.74989 0.30262
 Zr675 Zr 0.21438 0.74649 0.19126
 Zr676 Zr 0.20745 0.75033 0.29542
 O677 O 0.22189 0.74608 0.12758
 O678 O 0.21147 0.75194 0.36002
 O679 O 0.21045 0.77459 0.24137
 O680 O 0.24449 0.77624 0.29781
 O681 O 0.28676 0.77386 0.24923
 O682 O 0.25143 0.77214 0.19065
 C683 C 0.19636 0.68479 0.31198
 C684 C 0.20489 0.68016 0.18082
 C685 C 0.28925 0.68484 0.32366
 O686 O 0.27403 0.75462 0.36603
 O687 O 0.29884 0.78949 0.32108
 O688 O 0.27651 0.82348 0.28134
 C689 C 0.29464 0.81566 0.30952
 O690 O 0.30392 0.70707 0.17493
 Zr691 Zr 0.28791 0.74653 0.19876
 O692 O 0.27865 0.82129 0.20619
 O693 O 0.32685 0.74712 0.30353
 O694 O 0.33258 0.74388 0.21383
 O695 O 0.28594 0.74786 0.13396
 O696 O 0.30776 0.78564 0.18169
 C697 C 0.30091 0.81231 0.18676
 O698 O 0.22612 0.83266 0.27034
 O699 O 0.16862 0.74489 0.18945
 O700 O 0.22244 0.82106 0.20019
 O701 O 0.19716 0.78514 0.16803
 O702 O 0.16247 0.75038 0.28191
 O703 O 0.18824 0.78978 0.31399
 C704 C 0.20296 0.81185 0.17485
 H705 H 0.19083 0.71179 0.24298
 H706 H 0.24327 0.78972 0.32122
 H707 H 0.25257 0.78331 0.16493
 H708 H 0.30173 0.70954 0.25472
 H709 H 0.19223 0.74740 0.37141
 H710 H 0.29330 0.75397 0.37957
 H711 H 0.33325 0.74909 0.33243
 H712 H 0.34354 0.74801 0.18864
 H713 H 0.15216 0.74675 0.30780
 H714 H 0.16276 0.74337 0.16028
 H715 H 0.20265 0.74639 0.11394
 H716 H 0.30564 0.75242 0.12429
 H717 H 0.17462 0.78603 0.33652
 H718 H 0.23403 0.85100 0.25961
 H719 H 0.26199 0.64577 0.23633
 H720 H 0.32053 0.71100 0.15693
 Zr721 Zr 0.24956 0.80072 0.75769
 O722 O 0.27265 0.83449 0.72929
 O723 O 0.22019 0.82370 0.79364
 O724 O 0.22178 0.82519 0.71951
 O725 O 0.30084 0.78740 0.83280
 O726 O 0.20242 0.79214 0.67523
 O727 O 0.27616 0.82333 0.79987
 O728 O 0.19037 0.78835 0.81706
 O729 O 0.21192 0.77622 0.75002
 O730 O 0.24674 0.77450 0.80944
 O731 O 0.25478 0.77812 0.70241
 O732 O 0.28822 0.77652 0.75912
 Zr733 Zr 0.25200 0.70011 0.74860
 Zr734 Zr 0.21796 0.75214 0.69673
 Zr735 Zr 0.28372 0.74880 0.80932
 Zr736 Zr 0.21017 0.74911 0.80069
 O737 O 0.32949 0.74760 0.81176
 O738 O 0.16556 0.74665 0.78515
 O739 O 0.24695 0.72249 0.80442
 O740 O 0.21376 0.72473 0.74723
 O741 O 0.25495 0.72604 0.69631
 O742 O 0.28940 0.72496 0.75613
 C743 C 0.19755 0.81493 0.81235
 C744 C 0.29536 0.81411 0.82562
 C745 C 0.20559 0.81800 0.68883
 O746 O 0.17220 0.75115 0.69536
 O747 O 0.20359 0.71363 0.66945
 O748 O 0.22728 0.67778 0.70400
 C749 C 0.20911 0.68694 0.67679
 O750 O 0.31138 0.79072 0.68642
 Zr751 Zr 0.29150 0.75175 0.70549
 O752 O 0.28136 0.67714 0.71250
 O753 O 0.22589 0.75516 0.63332
 O754 O 0.28796 0.75301 0.64083
 O755 O 0.33632 0.75147 0.72007
 O756 O 0.30882 0.71253 0.68391
 C757 C 0.30227 0.68593 0.69014
 O758 O 0.22728 0.66644 0.77444
 O759 O 0.27565 0.74802 0.87284
 O760 O 0.27655 0.67507 0.79045
 O761 O 0.29713 0.70871 0.83272
 O762 O 0.21138 0.75077 0.86549
 O763 O 0.19395 0.70969 0.82427
 C764 C 0.29283 0.68256 0.82093
 H765 H 0.24550 0.78574 0.83510
 H766 H 0.19648 0.71223 0.74474
 H767 H 0.30731 0.71336 0.75856
 H768 H 0.25648 0.79152 0.67902
 H769 H 0.15448 0.75078 0.81024
 H770 H 0.16612 0.75258 0.66627
 H771 H 0.20676 0.75479 0.61934
 H772 H 0.30718 0.74802 0.62974
 H773 H 0.19154 0.75527 0.87467
 H774 H 0.29478 0.74859 0.88679
 H775 H 0.33523 0.74615 0.84098
 H776 H 0.34691 0.74729 0.69456
 H777 H 0.17723 0.71365 0.84206
 H778 H 0.23527 0.64796 0.76424
 H779 H 0.26466 0.85289 0.73974
 H780 H 0.32532 0.78651 0.66444
 Zr781 Zr 0.24937 0.20207 0.25498
 O782 O 0.23069 0.16987 0.21711
 O783 O 0.27339 0.17746 0.29746
 O784 O 0.28122 0.17877 0.22307
 O785 O 0.18677 0.21229 0.30958
 O786 O 0.31017 0.21396 0.19700
 O787 O 0.21762 0.17786 0.28587
 O788 O 0.29614 0.21181 0.33608
 O789 O 0.28686 0.22661 0.26444
 O790 O 0.24284 0.22607 0.30820
 O791 O 0.25393 0.22732 0.20186
 O792 O 0.21155 0.22647 0.24344
 Zr793 Zr 0.24777 0.30299 0.25425
 Zr794 Zr 0.29031 0.25308 0.21313
 Zr795 Zr 0.20677 0.25181 0.29610
 Zr796 Zr 0.27935 0.25164 0.31618
 O797 O 0.16224 0.25300 0.28038
 O798 O 0.32512 0.25474 0.31856
 O799 O 0.24288 0.27810 0.30787
 O800 O 0.28521 0.27840 0.26554
 O801 O 0.25445 0.27943 0.20053
 O802 O 0.21051 0.27815 0.24493
 C803 C 0.29145 0.18551 0.32543
 C804 C 0.19443 0.18591 0.30419
 C805 C 0.30336 0.18740 0.20290
 O806 O 0.33464 0.25482 0.22980
 O807 O 0.30818 0.29245 0.19460
 O808 O 0.27819 0.32698 0.22019
 C809 C 0.30059 0.31882 0.20003
 O810 O 0.20195 0.21595 0.16352
 Zr811 Zr 0.21774 0.25381 0.19279
 O812 O 0.22353 0.32768 0.21259
 O813 O 0.29436 0.25172 0.14880
 O814 O 0.23282 0.25467 0.13183
 O815 O 0.17192 0.25463 0.18924
 O816 O 0.20552 0.29424 0.16782
 C817 C 0.20872 0.32031 0.18077
 O818 O 0.26782 0.33546 0.29021
 O819 O 0.20309 0.24991 0.36045
 O820 O 0.21762 0.32612 0.28945
 O821 O 0.18942 0.29093 0.31726
 O822 O 0.26690 0.24707 0.37805
 O823 O 0.28998 0.28993 0.34874
 C824 C 0.19638 0.31748 0.31144
 H825 H 0.23990 0.21379 0.33253
 H826 H 0.30215 0.29101 0.27058
 H827 H 0.19266 0.28974 0.24164
 H828 H 0.25654 0.21509 0.17736
 H829 H 0.33146 0.24951 0.34665
 H830 H 0.34579 0.25418 0.20411
 H831 H 0.31533 0.25261 0.14301
 H832 H 0.21630 0.26030 0.11397
 H833 H 0.28457 0.24228 0.39410
 H834 H 0.18214 0.24900 0.36637
 H835 H 0.15141 0.25338 0.30636
 H836 H 0.16640 0.26006 0.16089
 H837 H 0.30339 0.28526 0.37163
 H838 H 0.26142 0.35432 0.27903
 H839 H 0.23682 0.15091 0.22827
 H840 H 0.19210 0.22126 0.13755
 Zr841 Zr 0.75161 0.69725 0.24580
 O842 O 0.77058 0.66505 0.28333
 O843 O 0.72692 0.67284 0.20451
 O844 O 0.71978 0.67385 0.27786
 O845 O 0.81416 0.70785 0.19104
 O846 O 0.69031 0.70909 0.30273
 O847 O 0.78332 0.67317 0.21410
 O848 O 0.70647 0.70648 0.16218
 O849 O 0.71407 0.72168 0.23595
 O850 O 0.75823 0.72132 0.19262
 O851 O 0.74661 0.72239 0.29885
 O852 O 0.78935 0.72166 0.25729
 Zr853 Zr 0.75284 0.79821 0.24705
 Zr854 Zr 0.71025 0.74820 0.28725
 Zr855 Zr 0.79411 0.74729 0.20491
 Zr856 Zr 0.72164 0.74667 0.18422
 O857 O 0.83859 0.74855 0.22090
 O858 O 0.67581 0.74835 0.18221
 O859 O 0.75789 0.77342 0.19323
 O860 O 0.71555 0.77350 0.23495
 O861 O 0.74608 0.77437 0.30042
 O862 O 0.79015 0.77340 0.25629
 C863 C 0.71026 0.68042 0.17471
 C864 C 0.80650 0.68140 0.19580
 C865 C 0.69728 0.68253 0.29729
 O866 O 0.66595 0.75002 0.27035
 O867 O 0.69211 0.78754 0.30590
 O868 O 0.72202 0.82208 0.28038
 C869 C 0.69962 0.81394 0.30044
 O870 O 0.79816 0.71061 0.33725
 Zr871 Zr 0.78281 0.74867 0.30803
 O872 O 0.77582 0.82287 0.29059
 O873 O 0.70599 0.74669 0.35154
 O874 O 0.76778 0.74998 0.36900
 O875 O 0.82864 0.74890 0.31178
 O876 O 0.79570 0.78871 0.33256
 C877 C 0.79155 0.81498 0.32133
 O878 O 0.73309 0.83067 0.21075
 O879 O 0.79800 0.74566 0.14056
 O880 O 0.78323 0.82157 0.21272
 O881 O 0.81132 0.78660 0.18405
 O882 O 0.73490 0.74351 0.12252
 O883 O 0.70990 0.78477 0.15201
 C884 C 0.80436 0.81312 0.19035
 H885 H 0.76130 0.70912 0.16820
 H886 H 0.69858 0.78605 0.22979
 H887 H 0.80792 0.78505 0.25979
 H888 H 0.74392 0.71018 0.32333
 H889 H 0.66954 0.74297 0.15415
 H890 H 0.65472 0.74925 0.29595
 H891 H 0.68500 0.74746 0.35720
 H892 H 0.78440 0.75535 0.38683
 H893 H 0.71759 0.73843 0.10588
 H894 H 0.81897 0.74483 0.13476
 H895 H 0.84948 0.74904 0.19499
 H896 H 0.83419 0.75400 0.34024
 H897 H 0.69624 0.77986 0.12954
 H898 H 0.73925 0.84956 0.22215
 H899 H 0.76446 0.64611 0.27209
 H900 H 0.80779 0.71576 0.36345
 Zr901 Zr 0.74914 0.29957 0.74399
 O902 O 0.72601 0.33356 0.77190
 O903 O 0.77846 0.32214 0.70755
 O904 O 0.77640 0.32458 0.78265
 O905 O 0.69677 0.28574 0.67024
 O906 O 0.79968 0.29076 0.82160
 O907 O 0.72221 0.32179 0.70185
 O908 O 0.80747 0.28646 0.68292
 O909 O 0.78678 0.27485 0.75059
 O910 O 0.75117 0.27290 0.69241
 O911 O 0.74481 0.27731 0.79965
 O912 O 0.71043 0.27542 0.74356
 Zr913 Zr 0.74630 0.19907 0.75457
 Zr914 Zr 0.78155 0.25106 0.80421
 Zr915 Zr 0.71417 0.24720 0.69355
 Zr916 Zr 0.78774 0.24737 0.70029
 O917 O 0.66841 0.24547 0.69223
 O918 O 0.83248 0.24477 0.71490
 O919 O 0.75086 0.22079 0.69814
 O920 O 0.78476 0.22325 0.75411
 O921 O 0.74432 0.22543 0.80643
 O922 O 0.70898 0.22407 0.74746
 C923 C 0.80066 0.31313 0.68800
 C924 C 0.70261 0.31248 0.67676
 C925 C 0.79510 0.31689 0.81013
 O926 O 0.82726 0.24806 0.80476
 O927 O 0.79538 0.21278 0.83253
 O928 O 0.77138 0.17679 0.79878
 C929 C 0.78967 0.18606 0.82573
 O930 O 0.68866 0.29078 0.81643
 Zr931 Zr 0.70780 0.25131 0.79780
 O932 O 0.71751 0.17665 0.79214
 O933 O 0.77482 0.25630 0.86763
 O934 O 0.71220 0.25300 0.86235
 O935 O 0.66275 0.25130 0.78485
 O936 O 0.69041 0.21247 0.82043
 C937 C 0.69682 0.18577 0.81465
 O938 O 0.77020 0.16506 0.72802
 O939 O 0.72134 0.24666 0.62978
 O940 O 0.72017 0.17399 0.71518
 O941 O 0.70152 0.20667 0.66976
 O942 O 0.78547 0.24859 0.63551
 O943 O 0.80362 0.20786 0.67646
 C944 C 0.70490 0.18082 0.68345
 H945 H 0.75217 0.28400 0.66662
 H946 H 0.80192 0.21056 0.75636
 H947 H 0.69097 0.21260 0.74567
 H948 H 0.74371 0.29086 0.82298
 H949 H 0.84331 0.24884 0.68957
 H950 H 0.83381 0.25024 0.83357
 H951 H 0.79417 0.25569 0.88093
 H952 H 0.69304 0.24847 0.87398
 H953 H 0.80513 0.25314 0.62564
 H954 H 0.70202 0.24686 0.61635
 H955 H 0.66241 0.24385 0.66313
 H956 H 0.65259 0.24775 0.81089
 H957 H 0.82014 0.21175 0.65829
 H958 H 0.76229 0.14672 0.73879
 H959 H 0.73381 0.35190 0.76102
 H960 H 0.67524 0.28708 0.83920
 C961 C 0.12204 0.39849 0.86394
 N962 N 0.13143 0.42116 0.88679
 N963 N 0.11254 0.43870 0.90480
 C964 C 0.08354 0.43438 0.90030
 N965 N 0.07432 0.41205 0.87661
 N966 N 0.09316 0.39439 0.85905
 C967 C 0.14235 0.37745 0.84673
 N968 N 0.13294 0.35050 0.83763
 N969 N 0.15098 0.33084 0.82288
 C970 C 0.17911 0.33741 0.81616
 N971 N 0.18860 0.36448 0.82491
 N972 N 0.17057 0.38410 0.84026
 C973 C 0.36592 0.60572 0.39753
 N974 N 0.39385 0.61449 0.40002
 N975 N 0.41431 0.59691 0.41425
 C976 C 0.40759 0.56997 0.42702
 N977 N 0.37958 0.56112 0.42478
 N978 N 0.35909 0.57864 0.40990
 C979 C 0.34398 0.62575 0.38168
 N980 N 0.31953 0.61631 0.36247
 N981 N 0.30130 0.63506 0.34493
 C982 C 0.30676 0.66384 0.34661
 N983 N 0.33088 0.67311 0.36658
 N984 N 0.34918 0.65445 0.38359
 C985 C 0.87799 0.89955 0.63206
 N986 N 0.90662 0.89311 0.63231
 N987 N 0.92547 0.91005 0.61351
 C988 C 0.91644 0.93401 0.59334
 N989 N 0.88778 0.94063 0.59317
 N990 N 0.86888 0.92376 0.61238
 C991 C 0.85751 0.87938 0.65079
 N992 N 0.82998 0.88720 0.66004
 N993 N 0.81185 0.86820 0.67666
 C994 C 0.82056 0.84067 0.68402
 N995 N 0.84800 0.83301 0.67459
 N996 N 0.86613 0.85198 0.65853
 C997 C 0.63227 0.10683 0.10577
 N998 N 0.60419 0.11524 0.10415
 N999 N 0.58376 0.09736 0.09065
 C1000 C 0.59063 0.07047 0.07778
 N1001 N 0.61878 0.06198 0.07917
 N1002 N 0.63925 0.07978 0.09333
 C1003 C 0.65422 0.12714 0.12076
 N1004 N 0.67904 0.11799 0.13926
 N1005 N 0.69738 0.13695 0.15605
 C1006 C 0.69168 0.16568 0.15427
 N1007 N 0.66718 0.17469 0.13498
 N1008 N 0.64876 0.15581 0.11873
 C1009 C 0.86644 0.09957 0.39315
 N1010 N 0.89424 0.10830 0.39772
 N1011 N 0.91430 0.09043 0.41225
 C1012 C 0.90735 0.06319 0.42337
 N1013 N 0.87944 0.05431 0.41907
 N1014 N 0.85933 0.07216 0.40382
 C1015 C 0.84500 0.12024 0.37749
 N1016 N 0.82184 0.11187 0.35443
 N1017 N 0.80445 0.13153 0.33716
 C1018 C 0.80947 0.16015 0.34289
 N1019 N 0.83227 0.16831 0.36661
 N1020 N 0.84976 0.14878 0.38334
 C1021 C 0.37779 0.39731 0.62200
 N1022 N 0.40626 0.39070 0.61948
 N1023 N 0.42472 0.40901 0.60269
 C1024 C 0.41549 0.43463 0.58742
 N1025 N 0.38695 0.44143 0.58996
 N1026 N 0.36843 0.42312 0.60722
 C1027 C 0.35783 0.37606 0.63923
 N1028 N 0.33111 0.38359 0.65238
 N1029 N 0.31370 0.36387 0.66875
 C1030 C 0.32230 0.33593 0.67202
 N1031 N 0.34889 0.32847 0.65852
 N1032 N 0.36634 0.34817 0.64264
 C1033 C 0.62208 0.89953 0.88221
 N1034 N 0.63088 0.92548 0.89712
 N1035 N 0.61193 0.94339 0.91430
 C1036 C 0.58353 0.93604 0.91663
 N1037 N 0.57483 0.91030 0.90119
 N1038 N 0.59373 0.89237 0.88447
 C1039 C 0.64256 0.87865 0.86530
 N1040 N 0.63467 0.85058 0.86221
 N1041 N 0.65260 0.83118 0.84662
 C1042 C 0.67905 0.83910 0.83316
 N1043 N 0.68704 0.86723 0.83612
 N1044 N 0.66916 0.88667 0.85221
 C1045 C 0.13461 0.59576 0.10513
 N1046 N 0.11269 0.58475 0.12752
 N1047 N 0.09282 0.56776 0.11018
 C1048 C 0.09448 0.56065 0.07003
 N1049 N 0.11668 0.57126 0.04775
 N1050 N 0.13627 0.58871 0.06491
 C1051 C 0.15497 0.61636 0.12375
 N1052 N 0.16547 0.63877 0.10173
 N1053 N 0.18187 0.65890 0.11963
 C1054 C 0.18879 0.65702 0.16001
 N1055 N 0.17869 0.63434 0.18182
 N1056 N 0.16188 0.61452 0.16411
 C1057 C 0.37863 0.89599 0.12880
 N1058 N 0.40735 0.89004 0.12922
 N1059 N 0.42622 0.90897 0.11468
 C1060 C 0.41706 0.93448 0.09896
 N1061 N 0.38831 0.94055 0.09870
 N1062 N 0.36943 0.92170 0.11366
 C1063 C 0.35804 0.87441 0.14321
 N1064 N 0.33050 0.88178 0.15264
 N1065 N 0.31208 0.86194 0.16614
 C1066 C 0.32047 0.83401 0.17004
 N1067 N 0.34792 0.82665 0.16024
 N1068 N 0.36639 0.84651 0.14719
 C1069 C 0.61961 0.39798 0.37092
 N1070 N 0.62877 0.42331 0.38735
 N1071 N 0.60985 0.44169 0.40335
 C1072 C 0.58114 0.43552 0.40295
 N1073 N 0.57202 0.41042 0.38591
 N1074 N 0.59091 0.39194 0.37031
 C1075 C 0.64021 0.37668 0.35582
 N1076 N 0.63181 0.34888 0.35092
 N1077 N 0.65035 0.32915 0.33770
 C1078 C 0.67791 0.33652 0.32864
 N1079 N 0.68635 0.36437 0.33338
 N1080 N 0.66786 0.38410 0.34707
 C1081 C 0.87055 0.60146 0.88671
 N1082 N 0.89889 0.60637 0.87936
 N1083 N 0.91903 0.58815 0.89279
 C1084 C 0.91173 0.56450 0.91482
 N1085 N 0.88322 0.55945 0.92201
 N1086 N 0.86295 0.57752 0.90792
 C1087 C 0.84911 0.62279 0.87341
 N1088 N 0.82235 0.61498 0.85983
 N1089 N 0.80401 0.63480 0.84521
 C1090 C 0.81168 0.66308 0.84449
 N1091 N 0.83822 0.67078 0.85873
 N1092 N 0.85665 0.65100 0.87264
 C1093 C 0.13472 0.09863 0.60656
 N1094 N 0.11354 0.08846 0.63104
 N1095 N 0.09282 0.07148 0.61592
 C1096 C 0.09294 0.06362 0.57599
 N1097 N 0.11434 0.07346 0.55161
 N1098 N 0.13476 0.09091 0.56655
 C1099 C 0.15626 0.11873 0.62288
 N1100 N 0.16586 0.14103 0.59985
 N1101 N 0.18354 0.16078 0.61601
 C1102 C 0.19264 0.15850 0.65548
 N1103 N 0.18343 0.13591 0.67820
 N1104 N 0.16536 0.11649 0.66229
 C1105 C 0.12123 0.39958 0.38053
 N1106 N 0.13022 0.42538 0.39576
 N1107 N 0.11143 0.44324 0.41339
 C1108 C 0.08301 0.43600 0.41588
 N1109 N 0.07413 0.41041 0.40013
 N1110 N 0.09286 0.39253 0.38296
 C1111 C 0.14151 0.37873 0.36312
 N1112 N 0.13340 0.35076 0.35950
 N1113 N 0.15118 0.33136 0.34358
 C1114 C 0.17770 0.33919 0.33030
 N1115 N 0.18591 0.36724 0.33376
 N1116 N 0.16817 0.38667 0.35017
 C1117 C 0.36671 0.59981 0.89287
 N1118 N 0.39451 0.60854 0.89747
 N1119 N 0.41455 0.59069 0.91209
 C1120 C 0.40758 0.56346 0.92328
 N1121 N 0.37968 0.55458 0.91893
 N1122 N 0.35959 0.57241 0.90359
 C1123 C 0.34528 0.62046 0.87714
 N1124 N 0.32206 0.61205 0.85421
 N1125 N 0.30462 0.63167 0.83695
 C1126 C 0.30964 0.66030 0.84257
 N1127 N 0.33251 0.66850 0.86614
 N1128 N 0.35005 0.64900 0.88286
 C1129 C 0.63504 0.09595 0.60808
 N1130 N 0.61335 0.08470 0.63066
 N1131 N 0.59347 0.06767 0.61343
 C1132 C 0.59491 0.06074 0.57319
 N1133 N 0.61690 0.07157 0.55071
 N1134 N 0.63649 0.08907 0.56778
 C1135 C 0.65533 0.11665 0.62660
 N1136 N 0.66558 0.13918 0.60456
 N1137 N 0.68187 0.15942 0.62239
 C1138 C 0.68891 0.15757 0.66273
 N1139 N 0.67907 0.13479 0.68456
 N1140 N 0.66237 0.11484 0.66692
 C1141 C 0.87809 0.89668 0.12162
 N1142 N 0.90653 0.89003 0.11879
 N1143 N 0.92496 0.90842 0.10208
 C1144 C 0.91571 0.93415 0.08721
 N1145 N 0.88720 0.94098 0.09006
 N1146 N 0.86872 0.92260 0.10724
 C1147 C 0.85816 0.87537 0.13879
 N1148 N 0.83153 0.88288 0.15233
 N1149 N 0.81417 0.86311 0.16869
 C1150 C 0.82274 0.83513 0.17155
 N1151 N 0.84923 0.82770 0.15767
 N1152 N 0.86663 0.84745 0.14179
 C1153 C 0.86606 0.10667 0.89959
 N1154 N 0.89403 0.11529 0.90207
 N1155 N 0.91443 0.09754 0.91602
 C1156 C 0.90761 0.07056 0.92851
 N1157 N 0.87956 0.06186 0.92631
 N1158 N 0.85913 0.07955 0.91171
 C1159 C 0.84421 0.12682 0.88383
 N1160 N 0.81963 0.11750 0.86484
 N1161 N 0.80148 0.13632 0.84730
 C1162 C 0.80714 0.16506 0.84874
 N1163 N 0.83138 0.17424 0.86849
 N1164 N 0.84961 0.15550 0.88552
 C1165 C 0.13225 0.60694 0.60527
 N1166 N 0.10417 0.61535 0.60353
 N1167 N 0.08377 0.59747 0.58993
 C1168 C 0.09066 0.57058 0.57708
 N1169 N 0.11881 0.56209 0.57858
 N1170 N 0.13925 0.57990 0.59283
 C1171 C 0.15415 0.62726 0.62043
 N1172 N 0.17896 0.61811 0.63899
 N1173 N 0.19724 0.63707 0.65593
 C1174 C 0.19150 0.66580 0.65425
 N1175 N 0.16702 0.67481 0.63492
 N1176 N 0.14866 0.65592 0.61851
 C1177 C 0.62301 0.89651 0.36613
 N1178 N 0.63223 0.92129 0.38423
 N1179 N 0.61340 0.93900 0.40205
 C1180 C 0.58467 0.93271 0.40195
 N1181 N 0.57553 0.90817 0.38333
 N1182 N 0.59432 0.89038 0.36593
 C1183 C 0.64344 0.87563 0.34881
 N1184 N 0.63479 0.84804 0.34258
 N1185 N 0.65290 0.82858 0.32750
 C1186 C 0.68034 0.83594 0.31764
 N1187 N 0.68907 0.86363 0.32359
 N1188 N 0.67098 0.88310 0.33919
 C1189 C 0.37759 0.39951 0.13114
 N1190 N 0.40621 0.39304 0.13154
 N1191 N 0.42514 0.40999 0.11289
 C1192 C 0.41619 0.43399 0.09275
 N1193 N 0.38753 0.44064 0.09244
 N1194 N 0.36856 0.42376 0.11148
 C1195 C 0.35704 0.37933 0.14968
 N1196 N 0.32945 0.38713 0.15865
 N1197 N 0.31125 0.36813 0.17510
 C1198 C 0.31995 0.34061 0.18258
 N1199 N 0.34744 0.33297 0.17344
 N1200 N 0.36564 0.35195 0.15754
 C1201 C 0.63511 0.59788 0.10640
 N1202 N 0.61399 0.58767 0.13095
 N1203 N 0.59323 0.57073 0.11587
 C1204 C 0.59324 0.56296 0.07590
 N1205 N 0.61459 0.57284 0.05145
 N1206 N 0.63505 0.59025 0.06637
 C1207 C 0.65667 0.61796 0.12269
 N1208 N 0.66614 0.64034 0.09972
 N1209 N 0.68384 0.66008 0.11586
 C1210 C 0.69308 0.65770 0.15526
 N1211 N 0.68399 0.63502 0.17792
 N1212 N 0.66591 0.61562 0.16202
 C1213 C 0.11958 0.89823 0.87074
 N1214 N 0.12876 0.92356 0.88714
 N1215 N 0.10985 0.94199 0.90308
 C1216 C 0.08112 0.93586 0.90262
 N1217 N 0.07199 0.91075 0.88559
 N1218 N 0.09088 0.89224 0.87006
 C1219 C 0.14019 0.87689 0.85573
 N1220 N 0.13179 0.84909 0.85089
 N1221 N 0.15032 0.82932 0.83776
 C1222 C 0.17790 0.83667 0.82871
 N1223 N 0.18635 0.86452 0.83339
 N1224 N 0.16785 0.88428 0.84700
 C1225 C 0.36841 0.10336 0.39156
 N1226 N 0.39649 0.11162 0.39398
 N1227 N 0.41672 0.09346 0.40728
 C1228 C 0.40963 0.06642 0.41917
 N1229 N 0.38148 0.05805 0.41696
 N1230 N 0.36120 0.07617 0.40301
 C1231 C 0.34671 0.12409 0.37713
 N1232 N 0.32194 0.11552 0.35794
 N1233 N 0.30371 0.13499 0.34214
 C1234 C 0.30949 0.16363 0.34561
 N1235 N 0.33398 0.17203 0.36544
 N1236 N 0.35230 0.15265 0.38069
 C1237 C 0.87853 0.39655 0.62966
 N1238 N 0.90722 0.39048 0.62995
 N1239 N 0.92613 0.40931 0.61526
 C1240 C 0.91702 0.43484 0.59950
 N1241 N 0.88830 0.44101 0.59937
 N1242 N 0.86939 0.42227 0.61449
 C1243 C 0.85789 0.37505 0.64419
 N1244 N 0.83039 0.38252 0.65373
 N1245 N 0.81193 0.36275 0.66731
 C1246 C 0.82023 0.33478 0.67117
 N1247 N 0.84763 0.32733 0.66125
 N1248 N 0.86615 0.34712 0.64813
 C1249 C 0.88127 0.60230 0.11798
 N1250 N 0.87161 0.57800 0.09897
 N1251 N 0.88986 0.56115 0.07841
 C1252 C 0.91842 0.56796 0.07632
 N1253 N 0.92796 0.59214 0.09552
 N1254 N 0.90976 0.60902 0.11572
 C1255 C 0.86153 0.62194 0.13957
 N1256 N 0.87081 0.64873 0.14985
 N1257 N 0.85330 0.66724 0.16834
 C1258 C 0.82586 0.65965 0.17787
 N1259 N 0.81653 0.63269 0.16805
 N1260 N 0.83405 0.61418 0.14911
 C1261 C 0.62894 0.39147 0.59564
 N1262 N 0.60116 0.38298 0.58965
 N1263 N 0.58171 0.40092 0.57363
 C1264 C 0.58932 0.42797 0.56239
 N1265 N 0.61723 0.43650 0.56787
 N1266 N 0.63670 0.41858 0.58447
 C1267 C 0.64955 0.37134 0.61468
 N1268 N 0.67425 0.38059 0.63344
 N1269 N 0.69154 0.36195 0.65300
 C1270 C 0.68480 0.33344 0.65414
 N1271 N 0.66032 0.32430 0.63492
 N1272 N 0.64298 0.34288 0.61579
 C1273 C 0.11951 0.10394 0.37469
 N1274 N 0.09087 0.11009 0.37622
 N1275 N 0.07265 0.09233 0.39475
 C1276 C 0.08234 0.06780 0.41286
 N1277 N 0.11104 0.06154 0.41141
 N1278 N 0.12931 0.07926 0.39250
 C1279 C 0.13928 0.12454 0.35535
 N1280 N 0.16685 0.11723 0.34567
 N1281 N 0.18444 0.13650 0.32860
 C1282 C 0.17512 0.16380 0.32097
 N1283 N 0.14761 0.17099 0.33071
 N1284 N 0.13001 0.15171 0.34732
 C1285 C 0.36944 0.89282 0.90664
 N1286 N 0.36180 0.91994 0.91803
 N1287 N 0.38134 0.93767 0.93490
 C1288 C 0.40919 0.92894 0.94042
 N1289 N 0.41668 0.90190 0.92893
 N1290 N 0.39716 0.88415 0.91265
 C1291 C 0.34870 0.87283 0.88755
 N1292 N 0.35496 0.84429 0.88685
 N1293 N 0.33750 0.82579 0.86779
 C1294 C 0.31322 0.83508 0.84821
 N1295 N 0.30678 0.86367 0.84891
 N1296 N 0.32419 0.88224 0.86843
 C1297 C 0.13347 0.90036 0.61209
 N1298 N 0.11111 0.91086 0.63408
 N1299 N 0.09088 0.92719 0.61631
 C1300 C 0.09254 0.93408 0.57608
 N1301 N 0.11516 0.92399 0.55415
 N1302 N 0.13513 0.90717 0.57178
 C1303 C 0.15427 0.88044 0.63124
 N1304 N 0.16572 0.85841 0.60941
 N1305 N 0.18252 0.83878 0.62765
 C1306 C 0.18888 0.84076 0.66820
 N1307 N 0.17785 0.86308 0.68987
 N1308 N 0.16063 0.88241 0.67179
 C1309 C 0.62120 0.60373 0.37215
 N1310 N 0.59324 0.61181 0.37681
 N1311 N 0.57470 0.59487 0.39616
 C1312 C 0.58339 0.56925 0.41203
 N1313 N 0.61142 0.56105 0.40748
 N1314 N 0.63000 0.57799 0.38778
 C1315 C 0.64131 0.62340 0.35166
 N1316 N 0.66809 0.61483 0.33989
 N1317 N 0.68596 0.63336 0.32179
 C1318 C 0.67770 0.66112 0.31514
 N1319 N 0.65096 0.66952 0.32691
 N1320 N 0.63309 0.65102 0.34459
 C1321 C 0.37783 0.10655 0.12913
 N1322 N 0.36867 0.08052 0.11485
 N1323 N 0.38702 0.06280 0.09603
 C1324 C 0.41515 0.07048 0.09114
 N1325 N 0.42417 0.09638 0.10567
 N1326 N 0.40587 0.11410 0.12409
 C1327 C 0.35807 0.12694 0.14882
 N1328 N 0.36648 0.15471 0.15415
 N1329 N 0.34900 0.17374 0.17157
 C1330 C 0.32251 0.16573 0.18479
 N1331 N 0.31406 0.13786 0.17979
 N1332 N 0.33151 0.11880 0.16196
 C1333 C 0.87128 0.39824 0.88189
 N1334 N 0.86320 0.42216 0.90297
 N1335 N 0.88314 0.43931 0.92028
 C1336 C 0.91184 0.43328 0.91665
 N1337 N 0.91963 0.40954 0.89507
 N1338 N 0.89982 0.39230 0.87842
 C1339 C 0.85020 0.37775 0.86458
 N1340 N 0.85777 0.34961 0.86168
 N1341 N 0.83988 0.33052 0.84477
 C1342 C 0.81383 0.33880 0.82934
 N1343 N 0.80613 0.36705 0.83196
 N1344 N 0.82397 0.38620 0.84955
 C1345 C 0.62022 0.10266 0.87678
 N1346 N 0.59147 0.10841 0.87544
 N1347 N 0.57258 0.08989 0.89091
 C1348 C 0.58175 0.06500 0.90854
 N1349 N 0.61053 0.05910 0.90966
 N1350 N 0.62945 0.07751 0.89370
 C1351 C 0.64077 0.12407 0.86179
 N1352 N 0.66804 0.11653 0.85113
 N1353 N 0.68624 0.13626 0.83672
 C1354 C 0.67794 0.16425 0.83326
 N1355 N 0.65081 0.17177 0.84444
 N1356 N 0.63254 0.15203 0.85830
 C1357 C 0.37866 0.60201 0.62918
 N1358 N 0.36929 0.57703 0.61190
 N1359 N 0.38811 0.55857 0.59577
 C1360 C 0.41693 0.56425 0.59705
 N1361 N 0.42624 0.58895 0.61507
 N1362 N 0.40745 0.60753 0.63071
 C1363 C 0.35823 0.62359 0.64416
 N1364 N 0.36667 0.65147 0.64777
 N1365 N 0.34847 0.67140 0.66137
 C1366 C 0.32120 0.66414 0.67217
 N1367 N 0.31270 0.63621 0.66864
 N1368 N 0.33083 0.61630 0.65448
 C1369 C 0.13624 0.40285 0.10610
 N1370 N 0.11469 0.41384 0.12926
 N1371 N 0.09427 0.43046 0.11251
 C1372 C 0.09503 0.43715 0.07216
 N1373 N 0.11684 0.42652 0.04913
 N1374 N 0.13696 0.40945 0.06572
 C1375 C 0.15730 0.38284 0.12415
 N1376 N 0.16753 0.36024 0.10219
 N1377 N 0.18461 0.34055 0.11979
 C1378 C 0.19250 0.34315 0.15974
 N1379 N 0.18269 0.36605 0.18140
 N1380 N 0.16522 0.38541 0.16403
 C1381 C 0.86591 0.89719 0.39215
 N1382 N 0.85873 0.92412 0.40487
 N1383 N 0.87907 0.94194 0.41942
 C1384 C 0.90724 0.93355 0.42085
 N1385 N 0.91429 0.90681 0.40759
 N1386 N 0.89400 0.88892 0.39377
 C1387 C 0.84421 0.87660 0.37743
 N1388 N 0.84907 0.84806 0.38286
 N1389 N 0.83130 0.82864 0.36650
 C1390 C 0.80814 0.83697 0.34362
 N1391 N 0.80301 0.86560 0.33841
 N1392 N 0.82066 0.88514 0.35535
 C1393 C 0.87801 0.60668 0.62932
 N1394 N 0.86885 0.58062 0.61520
 N1395 N 0.88716 0.56290 0.59629
 C1396 C 0.91524 0.57063 0.59117
 N1397 N 0.92427 0.59657 0.60553
 N1398 N 0.90601 0.61428 0.62404
 C1399 C 0.85830 0.62705 0.64911
 N1400 N 0.86667 0.65484 0.65428
 N1401 N 0.84925 0.67386 0.67183
 C1402 C 0.82285 0.66580 0.68535
 N1403 N 0.81443 0.63791 0.68050
 N1404 N 0.83183 0.61887 0.66253
 C1405 C 0.63332 0.39991 0.11186
 N1406 N 0.61081 0.41020 0.13373
 N1407 N 0.59056 0.42647 0.11591
 C1408 C 0.59233 0.43351 0.07574
 N1409 N 0.61510 0.42362 0.05393
 N1410 N 0.63510 0.40687 0.07160
 C1411 C 0.65421 0.38010 0.13105
 N1412 N 0.66589 0.35819 0.10922
 N1413 N 0.68277 0.33865 0.12748
 C1414 C 0.68901 0.34059 0.16807
 N1415 N 0.67774 0.36279 0.18976
 N1416 N 0.66044 0.38204 0.17165
 C1417 C 0.36966 0.89585 0.38649
 N1418 N 0.36255 0.92333 0.39690
 N1419 N 0.38217 0.94067 0.41454
 C1420 C 0.40957 0.93114 0.42193
 N1421 N 0.41651 0.90377 0.41132
 N1422 N 0.39693 0.88644 0.39428
 C1423 C 0.34878 0.87582 0.36755
 N1424 N 0.35422 0.84716 0.36944
 N1425 N 0.33662 0.82837 0.35128
 C1426 C 0.31298 0.83739 0.32996
 N1427 N 0.30738 0.86616 0.32787
 N1428 N 0.32494 0.88507 0.34654
 C1429 C 0.12072 0.10469 0.87296
 N1430 N 0.09278 0.11268 0.87799
 N1431 N 0.07438 0.09558 0.89732
 C1432 C 0.08320 0.06988 0.91278
 N1433 N 0.11122 0.06178 0.90788
 N1434 N 0.12967 0.07888 0.88820
 C1435 C 0.14066 0.12448 0.85239
 N1436 N 0.16740 0.11600 0.84032
 N1437 N 0.18511 0.13461 0.82207
 C1438 C 0.17673 0.16234 0.81556
 N1439 N 0.15004 0.17066 0.82764
 N1440 N 0.13232 0.15208 0.84547
 C1441 C 0.12926 0.89113 0.09438
 N1442 N 0.10151 0.88259 0.08823
 N1443 N 0.08201 0.90059 0.07245
 C1444 C 0.08954 0.92774 0.06162
 N1445 N 0.11742 0.93633 0.06725
 N1446 N 0.13694 0.91835 0.08362
 C1447 C 0.14992 0.87094 0.11318
 N1448 N 0.17452 0.88016 0.13223
 N1449 N 0.19183 0.86145 0.15163
 C1450 C 0.18519 0.83290 0.15230
 N1451 N 0.16082 0.82380 0.13278
 N1452 N 0.14347 0.84245 0.11382
 C1453 C 0.86913 0.39273 0.40724
 N1454 N 0.86153 0.41992 0.41835
 N1455 N 0.88107 0.43766 0.43518
 C1456 C 0.90888 0.42887 0.44095
 N1457 N 0.91633 0.40176 0.42975
 N1458 N 0.89681 0.38399 0.41350
 C1459 C 0.84842 0.37273 0.38810
 N1460 N 0.85463 0.34418 0.38757
 N1461 N 0.83723 0.32568 0.36840
 C1462 C 0.81306 0.33497 0.34856
 N1463 N 0.80666 0.36358 0.34910
 N1464 N 0.82401 0.38215 0.36872
 C1465 C 0.38150 0.10278 0.62193
 N1466 N 0.37191 0.07841 0.60305
 N1467 N 0.39025 0.06148 0.58280
 C1468 C 0.41882 0.06826 0.58091
 N1469 N 0.42830 0.09250 0.60001
 N1470 N 0.41001 0.10947 0.61991
 C1471 C 0.36162 0.12254 0.64302
 N1472 N 0.37079 0.14940 0.65310
 N1473 N 0.35309 0.16802 0.67101
 C1474 C 0.32555 0.16047 0.68011
 N1475 N 0.31634 0.13344 0.67050
 N1476 N 0.33405 0.11482 0.65215
 C1477 C 0.62013 0.60381 0.87570
 N1478 N 0.59152 0.61011 0.87726
 N1479 N 0.57318 0.59232 0.89547
 C1480 C 0.58271 0.56760 0.91323
 N1481 N 0.61138 0.56119 0.91174
 N1482 N 0.62977 0.57895 0.89315
 C1483 C 0.64004 0.62446 0.85673
 N1484 N 0.66753 0.61703 0.84681
 N1485 N 0.68524 0.63634 0.83003
 C1486 C 0.67611 0.66377 0.82296
 N1487 N 0.64868 0.67107 0.83296
 N1488 N 0.63096 0.65177 0.84927
 C1489 C 0.36520 0.39818 0.89179
 N1490 N 0.35825 0.42516 0.90454
 N1491 N 0.37876 0.44281 0.91903
 C1492 C 0.40687 0.43419 0.92037
 N1493 N 0.41368 0.40741 0.90705
 N1494 N 0.39323 0.38969 0.89329
 C1495 C 0.34331 0.37774 0.87728
 N1496 N 0.34782 0.34920 0.88323
 N1497 N 0.32991 0.32984 0.86702
 C1498 C 0.30695 0.33825 0.84378
 N1499 N 0.30216 0.36689 0.83807
 N1500 N 0.31995 0.38636 0.85485
 C1501 C 0.87888 0.10168 0.13006
 N1502 N 0.86949 0.07674 0.11268
 N1503 N 0.88829 0.05825 0.09660
 C1504 C 0.91713 0.06385 0.09800
 N1505 N 0.92646 0.08851 0.11613
 N1506 N 0.90768 0.10711 0.13173
 C1507 C 0.85847 0.12331 0.14492
 N1508 N 0.86696 0.15118 0.14857
 N1509 N 0.84875 0.17115 0.16203
 C1510 C 0.82142 0.16396 0.17262
 N1511 N 0.81287 0.13605 0.16904
 N1512 N 0.83101 0.11609 0.15504
 C1513 C 0.63688 0.90333 0.60948
 N1514 N 0.61539 0.91430 0.63274
 N1515 N 0.59488 0.93087 0.61607
 C1516 C 0.59551 0.93751 0.57570
 N1517 N 0.61726 0.92691 0.55256
 N1518 N 0.63747 0.90989 0.56908
 C1519 C 0.65798 0.88330 0.62740
 N1520 N 0.66816 0.86074 0.60533
 N1521 N 0.68523 0.84100 0.62281
 C1522 C 0.69317 0.84350 0.66275
 N1523 N 0.68342 0.86637 0.68453
 N1524 N 0.66595 0.88579 0.66727
 C1525 C 0.11980 0.60192 0.37483
 N1526 N 0.09105 0.60768 0.37358
 N1527 N 0.07220 0.58930 0.38946
 C1528 C 0.08140 0.56456 0.40745
 N1529 N 0.11018 0.55864 0.40847
 N1530 N 0.12906 0.57690 0.39210
 C1531 C 0.14030 0.62323 0.35947
 N1532 N 0.16758 0.61565 0.34887
 N1533 N 0.18576 0.63531 0.33427
 C1534 C 0.17744 0.66329 0.33055
 N1535 N 0.15031 0.67084 0.34163
 N1536 N 0.13205 0.65116 0.35568
   
