data_POSCAR
  _audit_creation_date              2014-09-24
  _audit_creation_method            'ToBaCCo'
  _symmetry_space_group_name_H-M    'P1'
  _symmetry_Int_Tables_number       1
  _symmetry_cell_setting            triclinic
  loop_
  _symmetry_equiv_pos_as_xyz
 x,y,z
_cell_length_a 89.5004
_cell_length_b 89.0429
_cell_length_c 90.1775
_cell_angle_alpha 89.957100
_cell_angle_beta 89.971300
_cell_angle_gamma 89.937400
loop_
  _atom_site_label
  _atom_site_type_symbol
  _atom_site_fract_x
  _atom_site_fract_y
  _atom_site_fract_z
N1 N 0.36923 0.32736 0.33916
 N2 N 0.36809 0.33688 0.32805
 C3 C 0.37919 0.33420 0.31830
 C4 C 0.38764 0.32245 0.32366
 C5 C 0.38107 0.31831 0.33686
 H6 H 0.38080 0.34008 0.30792
 H7 H 0.38439 0.30914 0.34401
 Cu8 Cu 0.35194 0.35147 0.32685
 Cu9 Cu 0.35475 0.32682 0.35522
 Cu10 Cu 0.32732 0.35418 0.35513
 N11 N 0.33733 0.36762 0.32798
 N12 N 0.32782 0.36871 0.33905
 C13 C 0.31873 0.38053 0.33670
 C14 C 0.32285 0.38717 0.32351
 C15 C 0.33462 0.37875 0.31820
 H16 H 0.30956 0.38381 0.34381
 H17 H 0.34049 0.38040 0.30785
 N18 N 0.32861 0.33850 0.37046
 N19 N 0.33910 0.32806 0.37051
 C20 C 0.33659 0.31857 0.38188
 C21 C 0.32399 0.32335 0.38927
 C22 C 0.31914 0.33593 0.38180
 H23 H 0.34312 0.30865 0.38432
 H24 H 0.30919 0.34239 0.38417
 H25 H 0.33700 0.33636 0.34395
 H26 H 0.34996 0.34952 0.35373
 N27 N 0.37033 0.82835 -0.16079
 N28 N 0.37002 0.83869 -0.17122
 C29 C 0.38112 0.83600 -0.18097
 C30 C 0.38872 0.82340 -0.17627
 C31 C 0.38163 0.81874 -0.16351
 H32 H 0.38328 0.84244 -0.19092
 H33 H 0.38419 0.80888 -0.15698
 Cu34 Cu 0.35454 0.85405 -0.17148
 Cu35 Cu 0.35548 0.82754 -0.14498
 Cu36 Cu 0.32795 0.85503 -0.14522
 N37 N 0.33916 0.86950 -0.17149
 N38 N 0.32879 0.86982 -0.16114
 C39 C 0.31921 0.88112 -0.16400
 C40 C 0.32391 0.88821 -0.17676
 C41 C 0.33652 0.88061 -0.18132
 H42 H 0.30935 0.88372 -0.15754
 H43 H 0.34301 0.88277 -0.19121
 N44 N 0.32900 0.83910 -0.13006
 N45 N 0.33949 0.82864 -0.12996
 C46 C 0.33681 0.81906 -0.11870
 C47 C 0.32411 0.82378 -0.11143
 C48 C 0.31938 0.83644 -0.11886
 H49 H 0.34332 0.80914 -0.11620
 H50 H 0.30944 0.84293 -0.11653
 H51 H 0.33842 0.83785 -0.15664
 H52 H 0.35051 0.85019 -0.14503
 N53 N 0.86901 0.32802 -0.16109
 N54 N 0.86777 0.33745 -0.17226
 C55 C 0.87885 0.33480 -0.18203
 C56 C 0.88741 0.32314 -0.17663
 C57 C 0.88090 0.31903 -0.16338
 H58 H 0.88036 0.34061 -0.19246
 H59 H 0.88429 0.30990 -0.15621
 Cu60 Cu 0.85140 0.35177 -0.17357
 Cu61 Cu 0.85453 0.32741 -0.14502
 Cu62 Cu 0.82707 0.35476 -0.14510
 N63 N 0.83705 0.36814 -0.17230
 N64 N 0.82761 0.36931 -0.16118
 C65 C 0.81861 0.38122 -0.16348
 C66 C 0.82275 0.38781 -0.17668
 C67 C 0.83441 0.37929 -0.18207
 H68 H 0.80948 0.38455 -0.15633
 H69 H 0.84024 0.38085 -0.19247
 N70 N 0.82836 0.33905 -0.12978
 N71 N 0.83886 0.32862 -0.12973
 C72 C 0.83633 0.31911 -0.11837
 C73 C 0.82371 0.32387 -0.11099
 C74 C 0.81887 0.33646 -0.11846
 H75 H 0.84286 0.30919 -0.11593
 H76 H 0.80891 0.34291 -0.11611
 H77 H 0.83664 0.33681 -0.15619
 H78 H 0.84970 0.35009 -0.14668
 N79 N 0.86920 0.82780 0.33910
 N80 N 0.86790 0.83715 0.32788
 C81 C 0.87899 0.83451 0.31812
 C82 C 0.88762 0.82293 0.32358
 C83 C 0.88114 0.81887 0.33686
 H84 H 0.88045 0.84026 0.30765
 H85 H 0.88459 0.80981 0.34409
 Cu86 Cu 0.85142 0.85133 0.32647
 Cu87 Cu 0.85473 0.82723 0.35520
 Cu88 Cu 0.82727 0.85459 0.35503
 N89 N 0.83717 0.86778 0.32771
 N90 N 0.82778 0.86905 0.33888
 C91 C 0.81881 0.88097 0.33655
 C92 C 0.82290 0.88746 0.32328
 C93 C 0.83450 0.87887 0.31789
 H94 H 0.80972 0.88437 0.34371
 H95 H 0.84028 0.88034 0.30745
 N96 N 0.82858 0.83895 0.37041
 N97 N 0.83907 0.82850 0.37048
 C98 C 0.83652 0.81901 0.38185
 C99 C 0.82390 0.82379 0.38921
 C100 C 0.81908 0.83638 0.38173
 H101 H 0.84302 0.80907 0.38429
 H102 H 0.80911 0.84283 0.38406
 H103 H 0.83677 0.83653 0.34405
 H104 H 0.84988 0.84989 0.35336
 N105 N 0.63055 0.67242 0.33947
 N106 N 0.63135 0.66267 0.32854
 C107 C 0.62033 0.66556 0.31876
 C108 C 0.61229 0.67768 0.32391
 C109 C 0.61902 0.68184 0.33702
 H110 H 0.61846 0.65953 0.30853
 H111 H 0.61599 0.69120 0.34404
 Cu112 Cu 0.64698 0.64748 0.32790
 Cu113 Cu 0.64497 0.67267 0.35562
 Cu114 Cu 0.67258 0.64532 0.35513
 N115 N 0.66230 0.63196 0.32801
 N116 N 0.67222 0.63111 0.33874
 C117 C 0.68166 0.61967 0.33594
 C118 C 0.67735 0.61305 0.32282
 C119 C 0.66510 0.62107 0.31801
 H120 H 0.69113 0.61660 0.34275
 H121 H 0.65892 0.61926 0.30787
 N122 N 0.67109 0.66069 0.37077
 N123 N 0.66056 0.67110 0.37096
 C124 C 0.66304 0.68042 0.38247
 C125 C 0.67564 0.67558 0.38979
 C126 C 0.68054 0.66313 0.38215
 H127 H 0.65652 0.69033 0.38501
 H128 H 0.69054 0.65670 0.38440
 H129 H 0.66247 0.66296 0.34408
 H130 H 0.64996 0.65002 0.35464
 N131 N 0.63093 0.17200 -0.16114
 N132 N 0.63149 0.16189 -0.17177
 C133 C 0.62044 0.16462 -0.18155
 C134 C 0.61262 0.17703 -0.17672
 C135 C 0.61952 0.18149 -0.16380
 H136 H 0.61841 0.15830 -0.19159
 H137 H 0.61666 0.19111 -0.15705
 Cu138 Cu 0.64698 0.14654 -0.17202
 Cu139 Cu 0.64540 0.17251 -0.14504
 Cu140 Cu 0.67281 0.14493 -0.14503
 N141 N 0.66227 0.13099 -0.17179
 N142 N 0.67231 0.13039 -0.16115
 C143 C 0.68180 0.11897 -0.16384
 C144 C 0.67738 0.11210 -0.17679
 C145 C 0.66503 0.11994 -0.18163
 H146 H 0.69139 0.11612 -0.15710
 H147 H 0.65878 0.11797 -0.19171
 N148 N 0.67145 0.16062 -0.12969
 N149 N 0.66102 0.17114 -0.12971
 C150 C 0.66350 0.18057 -0.11829
 C151 C 0.67599 0.17568 -0.11081
 C152 C 0.68083 0.16309 -0.11826
 H153 H 0.65701 0.19052 -0.11586
 H154 H 0.69070 0.15655 -0.11581
 H155 H 0.66272 0.16235 -0.15644
 H156 H 0.65024 0.14982 -0.14539
 N157 N 0.13074 0.67232 -0.16137
 N158 N 0.13187 0.66274 -0.17242
 C159 C 0.12086 0.66546 -0.18224
 C160 C 0.11247 0.67731 -0.17700
 C161 C 0.11900 0.68146 -0.16380
 H162 H 0.11922 0.65951 -0.19256
 H163 H 0.11567 0.69066 -0.15670
 Cu164 Cu 0.14781 0.64788 -0.17330
 Cu165 Cu 0.14505 0.67277 -0.14517
 Cu166 Cu 0.17246 0.64536 -0.14507
 N167 N 0.16271 0.63197 -0.17232
 N168 N 0.17218 0.63092 -0.16122
 C169 C 0.18138 0.61918 -0.16358
 C170 C 0.17738 0.61257 -0.17680
 C171 C 0.16555 0.62090 -0.18211
 H172 H 0.19053 0.61592 -0.15643
 H173 H 0.15970 0.61920 -0.19247
 N174 N 0.17099 0.66095 -0.12968
 N175 N 0.16053 0.67143 -0.12973
 C176 C 0.16301 0.68094 -0.11837
 C177 C 0.17555 0.67613 -0.11089
 C178 C 0.18039 0.66351 -0.11829
 H179 H 0.15653 0.69092 -0.11603
 H180 H 0.19032 0.65704 -0.11588
 H181 H 0.16277 0.66312 -0.15639
 H182 H 0.14981 0.65006 -0.14645
 N183 N 0.13298 0.17393 0.33707
 N184 N 0.13169 0.16239 0.32806
 C185 C 0.11956 0.16436 0.31943
 C186 C 0.11299 0.17782 0.32332
 C187 C 0.12177 0.18367 0.33445
 H188 H 0.11609 0.15689 0.31062
 H189 H 0.12042 0.19441 0.33991
 Cu190 Cu 0.14697 0.14686 0.32752
 Cu191 Cu 0.14987 0.17599 0.35059
 Cu192 Cu 0.16861 0.14248 0.35745
 N193 N 0.16174 0.13089 0.32851
 N194 N 0.17021 0.12920 0.34032
 C195 C 0.17960 0.11758 0.33814
 C196 C 0.17684 0.11181 0.32422
 C197 C 0.16549 0.12044 0.31837
 H198 H 0.18798 0.11387 0.34597
 H199 H 0.16055 0.11934 0.30749
 N200 N 0.17012 0.16019 0.37048
 N201 N 0.16330 0.17305 0.36763
 C202 C 0.16721 0.18320 0.37797
 C203 C 0.17693 0.17638 0.38772
 C204 C 0.17861 0.16185 0.38271
 H205 H 0.16349 0.19476 0.37823
 H206 H 0.18582 0.15329 0.38733
 H207 H 0.16518 0.15970 0.34316
 H208 H 0.14830 0.15363 0.35369
 N209 N 0.63094 0.32743 0.66126
 N210 N 0.63161 0.33747 0.67193
 C211 C 0.62057 0.33478 0.68175
 C212 C 0.61264 0.32248 0.67687
 C213 C 0.61946 0.31803 0.66390
 H214 H 0.61860 0.34106 0.69183
 H215 H 0.61650 0.30850 0.65709
 Cu216 Cu 0.64718 0.35270 0.67217
 Cu217 Cu 0.64531 0.32691 0.64504
 Cu218 Cu 0.67288 0.35427 0.64504
 N219 N 0.66258 0.36810 0.67196
 N220 N 0.67257 0.36868 0.66127
 C221 C 0.68210 0.38005 0.66395
 C222 C 0.67776 0.38691 0.67695
 C223 C 0.66541 0.37911 0.68181
 H224 H 0.69162 0.38292 0.65713
 H225 H 0.65919 0.38114 0.69190
 N226 N 0.67132 0.33871 0.62959
 N227 N 0.66084 0.32827 0.62961
 C228 C 0.66318 0.31893 0.61809
 C229 C 0.67564 0.32380 0.61053
 C230 C 0.68059 0.33629 0.61806
 H231 H 0.65663 0.30904 0.61563
 H232 H 0.69047 0.34279 0.61557
 H233 H 0.66275 0.33684 0.65640
 H234 H 0.65029 0.34953 0.64551
 N235 N 0.63074 0.82776 1.16128
 N236 N 0.63216 0.83705 1.17253
 C237 C 0.62112 0.83444 1.18235
 C238 C 0.61240 0.82296 1.17689
 C239 C 0.61876 0.81892 1.16356
 H240 H 0.61976 0.84015 1.19285
 H241 H 0.61521 0.80993 1.15632
 Cu242 Cu 0.64870 0.85112 1.17384
 Cu243 Cu 0.64506 0.82718 1.14507
 Cu244 Cu 0.67261 0.85438 1.14508
 N245 N 0.66300 0.86748 1.17254
 N246 N 0.67228 0.86876 1.16130
 C247 C 0.68128 0.88065 1.16358
 C248 C 0.67733 0.88711 1.17690
 C249 C 0.66576 0.87853 1.18235
 H250 H 0.69028 0.88408 1.15633
 H251 H 0.66007 0.88000 1.19284
 N252 N 0.67111 0.83883 1.12965
 N253 N 0.66059 0.82843 1.12965
 C254 C 0.66299 0.81899 1.11821
 C255 C 0.67553 0.82376 1.11073
 C256 C 0.68047 0.83628 1.11821
 H257 H 0.65643 0.80910 1.11580
 H258 H 0.69042 0.84271 1.11580
 H259 H 0.66316 0.83633 1.15609
 H260 H 0.65001 0.84980 1.14694
 N261 N 0.13061 0.32781 1.16126
 N262 N 0.13204 0.33711 1.17249
 C263 C 0.12099 0.33455 1.18231
 C264 C 0.11224 0.32309 1.17687
 C265 C 0.11861 0.31900 1.16356
 H266 H 0.11963 0.34029 1.19279
 H267 H 0.11504 0.31001 1.15633
 Cu268 Cu 0.14861 0.35114 1.17379
 Cu269 Cu 0.14494 0.32718 1.14504
 Cu270 Cu 0.17245 0.35441 1.14498
 N271 N 0.16281 0.36758 1.17240
 N272 N 0.17208 0.36884 1.16114
 C273 C 0.18102 0.38079 1.16336
 C274 C 0.17704 0.38730 1.17664
 C275 C 0.16552 0.37869 1.18215
 H276 H 0.19000 0.38423 1.15609
 H277 H 0.15982 0.38019 1.19263
 N278 N 0.17098 0.33881 1.12961
 N279 N 0.16047 0.32840 1.12962
 C280 C 0.16286 0.31896 1.11819
 C281 C 0.17540 0.32374 1.11069
 C282 C 0.18033 0.33627 1.11816
 H283 H 0.15630 0.30907 1.11577
 H284 H 0.19026 0.34272 1.11572
 H285 H 0.16304 0.33634 1.15603
 H286 H 0.14985 0.34980 1.14689
 N287 N 0.13261 0.82578 0.66277
 N288 N 0.13214 0.83679 0.67248
 C289 C 0.12007 0.83501 0.68124
 C290 C 0.11266 0.82225 0.67668
 C291 C 0.12090 0.81659 0.66502
 H292 H 0.11727 0.84202 0.69063
 H293 H 0.11889 0.80626 0.65904
 Cu294 Cu 0.14830 0.85131 0.67367
 Cu295 Cu 0.14931 0.82342 0.64906
 Cu296 Cu 0.16907 0.85651 0.64328
 N297 N 0.16386 0.86650 0.67310
 N298 N 0.17188 0.86866 0.66105
 C299 C 0.18143 0.88010 0.66337
 C300 C 0.17930 0.88519 0.67766
 C301 C 0.16814 0.87637 0.68357
 H302 H 0.18932 0.88435 0.65531
 H303 H 0.16347 0.87713 0.69460
 N304 N 0.17003 0.83916 0.62968
 N305 N 0.16291 0.82642 0.63218
 C306 C 0.16684 0.81636 0.62175
 C307 C 0.17688 0.82312 0.61230
 C308 C 0.17873 0.83753 0.61758
 H309 H 0.16299 0.80487 0.62128
 H310 H 0.18630 0.84596 0.61332
 H311 H 0.16552 0.83861 0.65688
 H312 H 0.14857 0.84583 0.64716
 N313 N 0.36881 0.67266 0.66126
 N314 N 0.36752 0.66326 0.67245
 C315 C 0.37858 0.66590 0.68224
 C316 C 0.38717 0.67752 0.67683
 C317 C 0.38071 0.68161 0.66356
 H318 H 0.38003 0.66012 0.69269
 H319 H 0.38414 0.69070 0.65636
 Cu320 Cu 0.35110 0.64905 0.67378
 Cu321 Cu 0.35437 0.67325 0.64515
 Cu322 Cu 0.32712 0.64573 0.64514
 N323 N 0.33709 0.63244 0.67239
 N324 N 0.32776 0.63115 0.66120
 C325 C 0.31891 0.61914 0.66346
 C326 C 0.32300 0.61260 0.67671
 C327 C 0.33451 0.62127 0.68214
 H328 H 0.30987 0.61570 0.65626
 H329 H 0.34025 0.61979 0.69259
 N330 N 0.32832 0.66149 0.62985
 N331 N 0.33874 0.67198 0.62984
 C332 C 0.33618 0.68150 0.61850
 C333 C 0.32362 0.67669 0.61108
 C334 C 0.31885 0.66406 0.61851
 H335 H 0.34265 0.69146 0.61608
 H336 H 0.30895 0.65755 0.61611
 H337 H 0.33644 0.66383 0.65618
 H338 H 0.34970 0.65056 0.64689
 N339 N 0.36913 0.17282 1.16082
 N340 N 0.36807 0.16327 1.17190
 C341 C 0.37916 0.16597 1.18164
 C342 C 0.38752 0.17778 1.17632
 C343 C 0.38090 0.18194 1.16315
 H344 H 0.38084 0.16003 1.19198
 H345 H 0.38416 0.19115 1.15602
 Cu346 Cu 0.35204 0.14858 1.17309
 Cu347 Cu 0.35468 0.17325 1.14473
 Cu348 Cu 0.32741 0.14576 1.14486
 N349 N 0.33736 0.13251 1.17213
 N350 N 0.32787 0.13135 1.16106
 C351 C 0.31876 0.11957 1.16353
 C352 C 0.32286 0.11307 1.17679
 C353 C 0.33463 0.12150 1.18201
 H354 H 0.30960 0.11624 1.15645
 H355 H 0.34051 0.11992 1.19237
 N356 N 0.32871 0.16135 1.12942
 N357 N 0.33909 0.17188 1.12940
 C358 C 0.33651 0.18135 1.11802
 C359 C 0.32398 0.17647 1.11058
 C360 C 0.31926 0.16384 1.11804
 H361 H 0.34292 0.19134 1.11560
 H362 H 0.30937 0.15730 1.11567
 H363 H 0.33699 0.16361 1.15602
 H364 H 0.35005 0.15051 1.14623
 N365 N 0.86950 0.67289 1.16070
 N366 N 0.86903 0.66270 1.17128
 C367 C 0.88001 0.66549 1.18112
 C368 C 0.88769 0.67801 1.17637
 C369 C 0.88079 0.68248 1.16344
 H370 H 0.88208 0.65915 1.19114
 H371 H 0.88356 0.69216 1.15673
 Cu372 Cu 0.85370 0.64723 1.17142
 Cu373 Cu 0.85502 0.67338 1.14459
 Cu374 Cu 0.82777 0.64568 1.14455
 N375 N 0.83850 0.63162 1.17121
 N376 N 0.82840 0.63107 1.16063
 C377 C 0.81898 0.61960 1.16333
 C378 C 0.82348 0.61265 1.17623
 C379 C 0.83583 0.62050 1.18102
 H380 H 0.80939 0.61675 1.15661
 H381 H 0.84214 0.61846 1.19105
 N382 N 0.82901 0.66144 1.12924
 N383 N 0.83940 0.67198 1.12925
 C384 C 0.83686 0.68143 1.11784
 C385 C 0.82436 0.67654 1.11038
 C386 C 0.81960 0.66392 1.11784
 H387 H 0.84329 0.69140 1.11541
 H388 H 0.80975 0.65736 1.11540
 H389 H 0.83780 0.66309 1.15598
 H390 H 0.85029 0.65069 1.14482
 N391 N 0.86890 0.17264 0.66104
 N392 N 0.86757 0.16336 0.67233
 C393 C 0.87860 0.16607 0.68211
 C394 C 0.88723 0.17761 0.67660
 C395 C 0.88081 0.18158 0.66327
 H396 H 0.88003 0.16038 0.69262
 H397 H 0.88428 0.19059 0.65599
 Cu398 Cu 0.85113 0.14918 0.67375
 Cu399 Cu 0.85452 0.17306 0.64489
 Cu400 Cu 0.82720 0.14561 0.64507
 N401 N 0.83702 0.13264 0.67253
 N402 N 0.82773 0.13124 0.66133
 C403 C 0.81886 0.11927 0.66369
 C404 C 0.82290 0.11288 0.67703
 C405 C 0.83439 0.12159 0.68240
 H406 H 0.80986 0.11573 0.65649
 H407 H 0.84012 0.12022 0.69288
 N408 N 0.82851 0.16118 0.62960
 N409 N 0.83895 0.17165 0.62953
 C410 C 0.83640 0.18111 0.61813
 C411 C 0.82383 0.17627 0.61075
 C412 C 0.81905 0.16369 0.61825
 H413 H 0.84285 0.19107 0.61569
 H414 H 0.80911 0.15721 0.61592
 H415 H 0.83649 0.16378 0.65597
 H416 H 0.84976 0.15039 0.64684
 N417 N 0.32774 0.36839 0.66079
 N418 N 0.33730 0.36727 0.67181
 C419 C 0.33465 0.37839 0.68161
 C420 C 0.32287 0.38683 0.67638
 C421 C 0.31867 0.38023 0.66321
 H422 H 0.34061 0.38004 0.69190
 H423 H 0.30949 0.38356 0.65613
 Cu424 Cu 0.35199 0.35119 0.67278
 Cu425 Cu 0.32725 0.35396 0.64464
 Cu426 Cu 0.35465 0.32654 0.64443
 N427 N 0.36805 0.33650 0.67158
 N428 N 0.36913 0.32698 0.66048
 C429 C 0.38096 0.31790 0.66277
 C430 C 0.38759 0.32205 0.67593
 C431 C 0.37918 0.33382 0.68128
 H432 H 0.38426 0.30872 0.65562
 H433 H 0.38086 0.33973 0.69162
 N434 N 0.33900 0.32789 0.62914
 N435 N 0.32854 0.33837 0.62923
 C436 C 0.31907 0.33588 0.61788
 C437 C 0.32388 0.32331 0.61036
 C438 C 0.33647 0.31847 0.61774
 H439 H 0.30914 0.34238 0.61554
 H440 H 0.34296 0.30853 0.61526
 H441 H 0.33695 0.33610 0.65578
 H442 H 0.34989 0.34925 0.64592
 N443 N 0.32875 0.87003 0.15997
 N444 N 0.33919 0.86977 0.17022
 C445 C 0.33657 0.88089 0.18003
 C446 C 0.32392 0.88848 0.17555
 C447 C 0.31918 0.88135 0.16285
 H448 H 0.34308 0.88307 0.18990
 H449 H 0.30927 0.88391 0.15647
 Cu450 Cu 0.35462 0.85436 0.17027
 Cu451 Cu 0.32783 0.85517 0.14418
 Cu452 Cu 0.35525 0.82758 0.14402
 N453 N 0.36992 0.83883 0.17007
 N454 N 0.37013 0.82840 0.15976
 C455 C 0.38139 0.81876 0.16253
 C456 C 0.38856 0.82346 0.17523
 C457 C 0.38103 0.83614 0.17981
 H458 H 0.38390 0.80883 0.15609
 H459 H 0.38325 0.84263 0.18970
 N460 N 0.33923 0.82866 0.12903
 N461 N 0.32879 0.83916 0.12910
 C462 C 0.31913 0.83647 0.11794
 C463 C 0.32378 0.82376 0.11058
 C464 C 0.33648 0.81903 0.11783
 H465 H 0.30922 0.84301 0.11558
 H466 H 0.34297 0.80909 0.11536
 H467 H 0.33832 0.83805 0.15570
 H468 H 0.35038 0.85024 0.14384
 N469 N 0.82762 0.36857 0.16085
 N470 N 0.83689 0.36715 0.17208
 C471 C 0.83423 0.37820 0.18194
 C472 C 0.82274 0.38693 0.17652
 C473 C 0.81873 0.38056 0.16318
 H474 H 0.83992 0.37955 0.19243
 H475 H 0.80974 0.38410 0.15597
 Cu476 Cu 0.85094 0.35055 0.17337
 Cu477 Cu 0.82710 0.35417 0.14464
 Cu478 Cu 0.85447 0.32669 0.14456
 N479 N 0.86753 0.33653 0.17193
 N480 N 0.86889 0.32722 0.16069
 C481 C 0.88089 0.31835 0.16292
 C482 C 0.88733 0.32242 0.17620
 C483 C 0.87863 0.33392 0.18169
 H484 H 0.88439 0.30933 0.15568
 H485 H 0.88005 0.33966 0.19216
 N486 N 0.83886 0.32804 0.12923
 N487 N 0.82844 0.33856 0.12924
 C488 C 0.81901 0.33607 0.11786
 C489 C 0.82380 0.32346 0.11041
 C490 C 0.83634 0.31858 0.11785
 H491 H 0.80910 0.34260 0.11547
 H492 H 0.84280 0.30861 0.11543
 H493 H 0.83639 0.33598 0.15556
 H494 H 0.84967 0.34935 0.14646
 N495 N 0.82770 0.86924 0.66065
 N496 N 0.83741 0.86831 0.67156
 C497 C 0.83464 0.87936 0.68140
 C498 C 0.82262 0.88754 0.67631
 C499 C 0.81841 0.88087 0.66318
 H500 H 0.84067 0.88113 0.69164
 H501 H 0.80909 0.88402 0.65621
 Cu502 Cu 0.85246 0.85254 0.67220
 Cu503 Cu 0.82729 0.85481 0.64448
 Cu504 Cu 0.85468 0.82733 0.64439
 N505 N 0.86816 0.83743 0.67147
 N506 N 0.86907 0.82771 0.66053
 C507 C 0.88067 0.81839 0.66300
 C508 C 0.88731 0.82257 0.67614
 C509 C 0.87916 0.83462 0.68128
 H510 H 0.88380 0.80905 0.65599
 H511 H 0.88095 0.84064 0.69154
 N512 N 0.83913 0.82876 0.62902
 N513 N 0.82867 0.83923 0.62906
 C514 C 0.81923 0.83672 0.61769
 C515 C 0.82406 0.82414 0.61022
 C516 C 0.83662 0.81930 0.61763
 H517 H 0.80929 0.84320 0.61533
 H518 H 0.84309 0.80934 0.61521
 H519 H 0.83715 0.83715 0.65576
 H520 H 0.84991 0.85005 0.64540
 N521 N 0.67232 0.63122 0.66129
 N522 N 0.66249 0.63195 0.67212
 C523 C 0.66532 0.62088 0.68193
 C524 C 0.67750 0.61289 0.67691
 C525 C 0.68173 0.61969 0.66384
 H526 H 0.65921 0.61895 0.69211
 H527 H 0.69114 0.61669 0.65692
 Cu528 Cu 0.64724 0.64754 0.67261
 Cu529 Cu 0.67267 0.64570 0.64513
 Cu530 Cu 0.64516 0.67310 0.64513
 N531 N 0.63158 0.66272 0.67213
 N532 N 0.63076 0.67260 0.66130
 C533 C 0.61921 0.68195 0.66385
 C534 C 0.61248 0.67763 0.67692
 C535 C 0.62056 0.66546 0.68195
 H536 H 0.61613 0.69138 0.65693
 H537 H 0.61870 0.65931 0.69213
 N538 N 0.66072 0.67178 0.62974
 N539 N 0.67120 0.66132 0.62974
 C540 C 0.68060 0.66386 0.61833
 C541 C 0.67572 0.67643 0.61086
 C542 C 0.66317 0.68124 0.61832
 H543 H 0.69054 0.65740 0.61592
 H544 H 0.65665 0.69117 0.61590
 H545 H 0.66266 0.66320 0.65649
 H546 H 0.65005 0.65041 0.64587
 N547 N 0.67259 0.13076 0.16115
 N548 N 0.66305 0.13180 0.17220
 C549 C 0.66586 0.12075 0.18203
 C550 C 0.67773 0.11244 0.17679
 C551 C 0.68180 0.11904 0.16357
 H552 H 0.65994 0.11904 0.19235
 H553 H 0.69099 0.11579 0.15647
 Cu554 Cu 0.64811 0.14767 0.17307
 Cu555 Cu 0.67288 0.14514 0.14493
 Cu556 Cu 0.64545 0.17254 0.14490
 N557 N 0.63220 0.16255 0.17214
 N558 N 0.63112 0.17213 0.16109
 C559 C 0.61936 0.18127 0.16347
 C560 C 0.61278 0.17710 0.17665
 C561 C 0.62114 0.16526 0.18192
 H562 H 0.61606 0.19047 0.15634
 H563 H 0.61945 0.15928 0.19224
 N564 N 0.66095 0.17115 0.12947
 N565 N 0.67141 0.16068 0.12947
 C566 C 0.68078 0.16316 0.11802
 C567 C 0.67590 0.17572 0.11053
 C568 C 0.66338 0.18058 0.11802
 H569 H 0.69070 0.15668 0.11561
 H570 H 0.65688 0.19052 0.11560
 H571 H 0.66315 0.16290 0.15617
 H572 H 0.65024 0.14983 0.14622
 N573 N 0.17233 0.63110 0.16075
 N574 N 0.16291 0.63225 0.17190
 C575 C 0.16567 0.62116 0.18170
 C576 C 0.17739 0.61271 0.17634
 C577 C 0.18142 0.61927 0.16309
 H578 H 0.15986 0.61955 0.19209
 H579 H 0.19052 0.61593 0.15592
 Cu580 Cu 0.14829 0.64839 0.17307
 Cu581 Cu 0.17265 0.64554 0.14458
 Cu582 Cu 0.14521 0.67290 0.14462
 N583 N 0.13210 0.66293 0.17194
 N584 N 0.13087 0.67241 0.16081
 C585 C 0.11904 0.68146 0.16318
 C586 C 0.11257 0.67735 0.17644
 C587 C 0.12108 0.66562 0.18177
 H588 H 0.11565 0.69061 0.15604
 H589 H 0.11955 0.65976 0.19217
 N590 N 0.16072 0.67159 0.12919
 N591 N 0.17120 0.66113 0.12917
 C592 C 0.18058 0.66367 0.11775
 C593 C 0.17571 0.67625 0.11029
 C594 C 0.16317 0.68106 0.11778
 H595 H 0.19051 0.65719 0.11533
 H596 H 0.15666 0.69101 0.11538
 H597 H 0.16309 0.66340 0.15576
 H598 H 0.15003 0.65019 0.14618
 N599 N 0.17223 0.13090 0.66161
 N600 N 0.16291 0.13220 0.67282
 C601 C 0.16566 0.12117 0.68268
 C602 C 0.17727 0.11258 0.67728
 C603 C 0.18124 0.11901 0.66395
 H604 H 0.15994 0.11971 0.69314
 H605 H 0.19027 0.11556 0.65674
 Cu606 Cu 0.14856 0.14857 0.67402
 Cu607 Cu 0.17262 0.14526 0.64537
 Cu608 Cu 0.14517 0.17262 0.64526
 N609 N 0.13213 0.16280 0.67267
 N610 N 0.13080 0.17213 0.66143
 C611 C 0.11884 0.18105 0.66368
 C612 C 0.11239 0.17700 0.67697
 C613 C 0.12105 0.16545 0.68244
 H614 H 0.11535 0.19008 0.65643
 H615 H 0.11959 0.15969 0.69291
 N616 N 0.16073 0.17128 0.62988
 N617 N 0.17120 0.16081 0.62991
 C618 C 0.18059 0.16329 0.61848
 C619 C 0.17572 0.17584 0.61096
 C620 C 0.16318 0.18069 0.61842
 H621 H 0.19051 0.15679 0.61608
 H622 H 0.15666 0.19062 0.61598
 H623 H 0.16318 0.16333 0.65637
 H624 H 0.15002 0.14996 0.64712
 N625 N 0.32772 0.63093 0.33867
 N626 N 0.33745 0.63184 0.32777
 C627 C 0.33466 0.62085 0.31789
 C628 C 0.32260 0.61272 0.32295
 C629 C 0.31840 0.61936 0.33610
 H630 H 0.34071 0.61906 0.30766
 H631 H 0.30908 0.61622 0.34307
 Cu632 Cu 0.35258 0.64751 0.32727
 Cu633 Cu 0.32735 0.64526 0.35494
 Cu634 Cu 0.35472 0.67272 0.35503
 N635 N 0.36822 0.66265 0.32792
 N636 N 0.36908 0.67239 0.33884
 C637 C 0.38064 0.68173 0.33637
 C638 C 0.38733 0.67754 0.32325
 C639 C 0.37923 0.66546 0.31811
 H640 H 0.38374 0.69106 0.34339
 H641 H 0.38107 0.65942 0.30787
 N642 N 0.33922 0.67124 0.37045
 N643 N 0.32878 0.66076 0.37043
 C644 C 0.31939 0.66323 0.38187
 C645 C 0.32423 0.67578 0.38936
 C646 C 0.33674 0.68065 0.38190
 H647 H 0.30948 0.65674 0.38426
 H648 H 0.34320 0.69060 0.38432
 H649 H 0.33718 0.66289 0.34366
 H650 H 0.34994 0.65000 0.35405
 N651 N 0.32796 0.13079 0.83908
 N652 N 0.33732 0.13208 0.82790
 C653 C 0.33473 0.12095 0.81813
 C654 C 0.32318 0.11231 0.82355
 C655 C 0.31908 0.11882 0.83680
 H656 H 0.34051 0.11946 0.80770
 H657 H 0.31003 0.11537 0.84398
 Cu658 Cu 0.35147 0.14857 0.82658
 Cu659 Cu 0.32737 0.14527 0.85520
 Cu660 Cu 0.35463 0.17278 0.85515
 N661 N 0.36784 0.16283 0.82788
 N662 N 0.36907 0.17225 0.83904
 C663 C 0.38098 0.18120 0.83675
 C664 C 0.38751 0.17706 0.82352
 C665 C 0.37894 0.16543 0.81812
 H666 H 0.38438 0.19029 0.84393
 H667 H 0.38047 0.15960 0.80772
 N668 N 0.33902 0.17146 0.87049
 N669 N 0.32862 0.16095 0.87052
 C670 C 0.31919 0.16346 0.88191
 C671 C 0.32397 0.17608 0.88934
 C672 C 0.33649 0.18094 0.88187
 H673 H 0.30930 0.15693 0.88434
 H674 H 0.34294 0.19090 0.88426
 H675 H 0.33669 0.16331 0.84410
 H676 H 0.34993 0.15006 0.85346
 N677 N 0.82830 0.63041 0.83933
 N678 N 0.83856 0.63082 0.82888
 C679 C 0.83592 0.61970 0.81909
 C680 C 0.82344 0.61197 0.82378
 C681 C 0.81883 0.61902 0.83658
 H682 H 0.84233 0.61758 0.80914
 H683 H 0.80910 0.61629 0.84319
 Cu684 Cu 0.85387 0.64630 0.82875
 Cu685 Cu 0.82756 0.64511 0.85530
 Cu686 Cu 0.85504 0.67256 0.85545
 N687 N 0.86934 0.66162 0.82903
 N688 N 0.86976 0.67185 0.83955
 C689 C 0.88114 0.68135 0.83688
 C690 C 0.88817 0.67677 0.82406
 C691 C 0.88045 0.66430 0.81928
 H692 H 0.88386 0.69107 0.84354
 H693 H 0.88255 0.65793 0.80929
 N694 N 0.83918 0.67139 0.87059
 N695 N 0.82871 0.66094 0.87052
 C696 C 0.81918 0.66353 0.88182
 C697 C 0.82396 0.67613 0.88927
 C698 C 0.83659 0.68090 0.88193
 H699 H 0.80927 0.65704 0.88420
 H700 H 0.84311 0.69080 0.88442
 H701 H 0.83794 0.66232 0.84393
 H702 H 0.85016 0.64988 0.85532
 N703 N 0.82795 0.13092 0.33870
 N704 N 0.83732 0.13224 0.32754
 C705 C 0.83471 0.12114 0.31773
 C706 C 0.82316 0.11250 0.32312
 C707 C 0.81905 0.11897 0.33638
 H708 H 0.84051 0.11966 0.30730
 H709 H 0.81001 0.11551 0.34356
 Cu710 Cu 0.85154 0.14869 0.32631
 Cu711 Cu 0.82736 0.14536 0.35486
 Cu712 Cu 0.85467 0.17279 0.35502
 N713 N 0.86788 0.16298 0.32769
 N714 N 0.86912 0.17231 0.33892
 C715 C 0.88101 0.18129 0.33670
 C716 C 0.88752 0.17727 0.32343
 C717 C 0.87896 0.16568 0.31794
 H718 H 0.88441 0.19034 0.34394
 H719 H 0.88048 0.15995 0.30748
 N720 N 0.83903 0.17144 0.37031
 N721 N 0.82859 0.16098 0.37024
 C722 C 0.81908 0.16351 0.38156
 C723 C 0.82384 0.17611 0.38903
 C724 C 0.83644 0.18092 0.38167
 H725 H 0.80914 0.15703 0.38388
 H726 H 0.84289 0.19088 0.38410
 H727 H 0.83677 0.16344 0.34384
 H728 H 0.84995 0.15011 0.35319
 N729 N 0.67197 0.36939 0.33896
 N730 N 0.66193 0.36884 0.32832
 C731 C 0.66465 0.37996 0.31854
 C732 C 0.67699 0.38779 0.32338
 C733 C 0.68142 0.38084 0.33631
 H734 H 0.65840 0.38201 0.30848
 H735 H 0.69100 0.38367 0.34305
 Cu736 Cu 0.64668 0.35328 0.32803
 Cu737 Cu 0.67251 0.35479 0.35503
 Cu738 Cu 0.64516 0.32722 0.35497
 N739 N 0.63123 0.33792 0.32826
 N740 N 0.63069 0.32778 0.33886
 C741 C 0.61933 0.31826 0.33617
 C742 C 0.61244 0.32275 0.32324
 C743 C 0.62021 0.33519 0.31844
 H744 H 0.61651 0.30861 0.34289
 H745 H 0.61818 0.34152 0.30840
 N746 N 0.66077 0.32853 0.37031
 N747 N 0.67119 0.33904 0.37033
 C748 C 0.68056 0.33655 0.38176
 C749 C 0.67574 0.32395 0.38921
 C750 C 0.66326 0.31908 0.38172
 H751 H 0.69041 0.34309 0.38424
 H752 H 0.65678 0.30913 0.38415
 H753 H 0.66246 0.33742 0.34359
 H754 H 0.64995 0.34991 0.35466
 N755 N 0.67096 0.86990 0.83961
 N756 N 0.66030 0.87001 0.82958
 C757 C 0.66299 0.88114 0.81980
 C758 C 0.67594 0.88832 0.82404
 C759 C 0.68077 0.88094 0.83659
 H760 H 0.65631 0.88360 0.81011
 H761 H 0.69086 0.88319 0.84280
 Cu762 Cu 0.64435 0.85518 0.82970
 Cu763 Cu 0.67178 0.85496 0.85533
 Cu764 Cu 0.64433 0.82759 0.85535
 N765 N 0.62943 0.83930 0.82963
 N766 N 0.62946 0.82856 0.83966
 C767 C 0.61837 0.81882 0.83669
 C768 C 0.61104 0.82378 0.82417
 C769 C 0.61830 0.83672 0.81990
 H770 H 0.61605 0.80870 0.84291
 H771 H 0.61588 0.84348 0.81023
 N772 N 0.66029 0.82847 0.87034
 N773 N 0.67075 0.83892 0.87034
 C774 C 0.68034 0.83617 0.88154
 C775 C 0.67561 0.82346 0.88885
 C776 C 0.66295 0.81879 0.88153
 H777 H 0.69024 0.84267 0.88397
 H778 H 0.65642 0.80888 0.88395
 H779 H 0.66092 0.83839 0.84340
 H780 H 0.64918 0.85026 0.85592
 N781 N 0.16997 0.37056 0.84033
 N782 N 0.16151 0.36896 0.82851
 C783 C 0.16526 0.37945 0.81841
 C784 C 0.17657 0.38808 0.82432
 C785 C 0.17933 0.38221 0.83822
 H786 H 0.16037 0.38056 0.80750
 H787 H 0.18769 0.38590 0.84607
 Cu788 Cu 0.14672 0.35303 0.82741
 Cu789 Cu 0.16828 0.35721 0.85743
 Cu790 Cu 0.14938 0.32386 0.85052
 N791 N 0.13136 0.33759 0.82793
 N792 N 0.13256 0.32605 0.83697
 C793 C 0.12130 0.31640 0.83437
 C794 C 0.11257 0.32232 0.82321
 C795 C 0.11923 0.33572 0.81929
 H796 H 0.11987 0.30568 0.83984
 H797 H 0.11582 0.34319 0.81046
 N798 N 0.16270 0.32669 0.86764
 N799 N 0.16956 0.33949 0.87053
 C800 C 0.17794 0.33777 0.88284
 C801 C 0.17613 0.32325 0.88787
 C802 C 0.16645 0.31651 0.87805
 H803 H 0.18516 0.34627 0.88750
 H804 H 0.16264 0.30499 0.87831
 H805 H 0.16479 0.34005 0.84315
 H806 H 0.14789 0.34626 0.85360
 N807 N 0.17109 0.87037 0.33980
 N808 N 0.16043 0.87052 0.32976
 C809 C 0.16317 0.88161 0.31996
 C810 C 0.17616 0.88872 0.32418
 C811 C 0.18096 0.88135 0.33674
 H812 H 0.15649 0.88408 0.31027
 H813 H 0.19107 0.88355 0.34293
 Cu814 Cu 0.14441 0.85575 0.32989
 Cu815 Cu 0.17186 0.85545 0.35552
 Cu816 Cu 0.14438 0.82814 0.35556
 N817 N 0.12956 0.83979 0.32977
 N818 N 0.12957 0.82908 0.33982
 C819 C 0.11855 0.81927 0.33675
 C820 C 0.11132 0.82415 0.32416
 C821 C 0.11854 0.83714 0.31994
 H822 H 0.11625 0.80913 0.34295
 H823 H 0.11619 0.84387 0.31023
 N824 N 0.16031 0.82903 0.37058
 N825 N 0.17080 0.83945 0.37056
 C826 C 0.18044 0.83664 0.38169
 C827 C 0.17572 0.82393 0.38901
 C828 C 0.16300 0.81933 0.38175
 H829 H 0.19041 0.84307 0.38405
 H830 H 0.15648 0.80939 0.38415
 H831 H 0.16094 0.83890 0.34357
 H832 H 0.14925 0.85080 0.35610
 C833 C 0.24079 0.96814 0.25958
 C834 C 0.25028 0.96046 0.24991
 C835 C 0.25988 0.96818 0.24037
 C836 C 0.26009 0.98405 0.24041
 C837 C 0.25049 0.99199 0.25019
 C838 C 0.24079 0.98401 0.25983
 C839 C 0.23135 0.99210 0.26942
 C840 C 0.23148 1.00775 0.26958
 C841 C 0.24102 1.01587 0.26014
 C842 C 0.25061 1.00793 0.25035
 C843 C 0.26961 0.99218 0.23095
 C844 C 0.26972 1.00783 0.23109
 C845 C 0.26030 1.01591 0.24069
 C846 C 0.26029 1.03178 0.24093
 C847 C 0.25085 1.03946 0.25065
 C848 C 0.24129 1.03174 0.26022
 H849 H 0.22378 0.98639 0.27689
 H850 H 0.22401 1.01344 0.27717
 H851 H 0.27708 0.98650 0.22334
 H852 H 0.27727 1.01355 0.22361
 H853 H 0.25019 0.94827 0.24979
 H854 H 0.25094 1.05165 0.25077
 C855 C 0.24143 0.46781 0.76023
 C856 C 0.25091 0.46013 0.75054
 C857 C 0.26028 0.46785 0.74078
 C858 C 0.26027 0.48372 0.74060
 C859 C 0.25069 0.49166 0.75039
 C860 C 0.24122 0.48368 0.76026
 C861 C 0.23181 0.49178 0.76986
 C862 C 0.23169 0.50743 0.76977
 C863 C 0.24098 0.51555 0.76009
 C864 C 0.25058 0.50761 0.75031
 C865 C 0.26956 0.49185 0.73091
 C866 C 0.26947 0.50749 0.73084
 C867 C 0.26007 0.51559 0.74045
 C868 C 0.25988 0.53146 0.74051
 C869 C 0.25037 0.53914 0.75016
 C870 C 0.24096 0.53142 0.75989
 H871 H 0.22444 0.48607 0.77754
 H872 H 0.22424 0.51312 0.77738
 H873 H 0.27700 0.48616 0.72328
 H874 H 0.27683 0.51321 0.72317
 H875 H 0.25098 0.44794 0.75058
 H876 H 0.25029 0.55133 0.75011
 C877 C 0.75974 -0.03228 0.25996
 C878 C 0.75022 -0.03995 0.25033
 C879 C 0.74071 -0.03222 0.24071
 C880 C 0.74062 -0.01636 0.24061
 C881 C 0.75025 -0.00843 0.25034
 C882 C 0.75986 -0.01642 0.26008
 C883 C 0.76930 -0.00834 0.26964
 C884 C 0.76933 0.00731 0.26962
 C885 C 0.75992 0.01544 0.26005
 C886 C 0.75028 0.00751 0.25033
 C887 C 0.73120 -0.00822 0.23105
 C888 C 0.73122 0.00743 0.23104
 C889 C 0.74068 0.01550 0.24059
 C890 C 0.74082 0.03137 0.24068
 C891 C 0.75036 0.03903 0.25029
 C892 C 0.75987 0.03131 0.25991
 H893 H 0.77675 -0.01407 0.27722
 H894 H 0.77681 0.01299 0.27720
 H895 H 0.72372 -0.01390 0.22347
 H896 H 0.72376 0.01315 0.22347
 H897 H 0.75021 -0.05215 0.25032
 H898 H 0.75039 0.05123 0.25026
 C899 C 0.75943 0.46806 0.76022
 C900 C 0.74992 0.46036 0.75062
 C901 C 0.74043 0.46805 0.74095
 C902 C 0.74033 0.48392 0.74080
 C903 C 0.74995 0.49188 0.75051
 C904 C 0.75955 0.48393 0.76029
 C905 C 0.76899 0.49204 0.76982
 C906 C 0.76903 0.50768 0.76975
 C907 C 0.75963 0.51578 0.76014
 C908 C 0.75000 0.50782 0.75044
 C909 C 0.73092 0.49203 0.73120
 C910 C 0.73096 0.50767 0.73113
 C911 C 0.74042 0.51578 0.74065
 C912 C 0.74059 0.53165 0.74066
 C913 C 0.75012 0.53935 0.75026
 C914 C 0.75959 0.53165 0.75993
 H915 H 0.77645 0.48633 0.77742
 H916 H 0.77651 0.51338 0.77731
 H917 H 0.72343 0.48632 0.72365
 H918 H 0.72351 0.51338 0.72353
 H919 H 0.74992 0.44817 0.75064
 H920 H 0.75017 0.55154 0.75019
 C921 C 0.25928 0.46799 0.25973
 C922 C 0.24979 0.46030 0.25010
 C923 C 0.24033 0.46801 0.24041
 C924 C 0.24025 0.48387 0.24026
 C925 C 0.24985 0.49182 0.25000
 C926 C 0.25942 0.48386 0.25978
 C927 C 0.26886 0.49196 0.26933
 C928 C 0.26890 0.50761 0.26927
 C929 C 0.25950 0.51572 0.25966
 C930 C 0.24988 0.50776 0.24994
 C931 C 0.23085 0.49198 0.23065
 C932 C 0.23087 0.50762 0.23061
 C933 C 0.24029 0.51572 0.24016
 C934 C 0.24042 0.53159 0.24023
 C935 C 0.24994 0.53928 0.24983
 C936 C 0.25943 0.53158 0.25949
 H937 H 0.27630 0.48626 0.27694
 H938 H 0.27637 0.51331 0.27683
 H939 H 0.22339 0.48628 0.22308
 H940 H 0.22342 0.51333 0.22301
 H941 H 0.24977 0.44810 0.25013
 H942 H 0.24996 0.55148 0.24979
 C943 C 0.73998 0.96824 0.75949
 C944 C 0.74956 0.96051 0.74995
 C945 C 0.75921 0.96818 0.74042
 C946 C 0.75941 0.98405 0.74037
 C947 C 0.74972 0.99204 0.75001
 C948 C 0.73994 0.98411 0.75962
 C949 C 0.73041 0.99225 0.76906
 C950 C 0.73050 1.00790 0.76911
 C951 C 0.74013 1.01598 0.75971
 C952 C 0.74983 1.00798 0.75007
 C953 C 0.76902 0.99212 0.73095
 C954 C 0.76913 1.00776 0.73100
 C955 C 0.75962 1.01590 0.74047
 C956 C 0.75962 1.03177 0.74063
 C957 C 0.75005 1.03950 0.75018
 C958 C 0.74036 1.03184 0.75967
 H959 H 0.72278 0.98658 0.77651
 H960 H 0.72295 1.01364 0.77658
 H961 H 0.77657 0.98639 0.72346
 H962 H 0.77675 1.01344 0.72355
 H963 H 0.74951 0.94832 0.74993
 H964 H 0.75013 1.05170 0.75022
 C965 C 0.75984 0.46822 0.24041
 C966 C 0.75017 0.46061 0.24996
 C967 C 0.74053 0.46840 0.25940
 C968 C 0.74043 0.48427 0.25937
 C969 C 0.75025 0.49214 0.24975
 C970 C 0.76002 0.48409 0.24023
 C971 C 0.76968 0.49210 0.23082
 C972 C 0.76974 0.50775 0.23073
 C973 C 0.76013 0.51595 0.24004
 C974 C 0.75029 0.50808 0.24965
 C975 C 0.73080 0.49247 0.26867
 C976 C 0.73083 0.50812 0.26855
 C977 C 0.74050 0.51613 0.25915
 C978 C 0.74067 0.53200 0.25896
 C979 C 0.75039 0.53960 0.24945
 C980 C 0.76006 0.53181 0.24004
 H981 H 0.77730 0.48632 0.22344
 H982 H 0.77740 0.51338 0.22329
 H983 H 0.72314 0.48684 0.27611
 H984 H 0.72319 0.51389 0.27591
 H985 H 0.75013 0.44842 0.25003
 H986 H 0.75042 0.55180 0.24937
 C987 C 0.24073 0.03151 0.74085
 C988 C 0.25034 0.03917 0.75039
 C989 C 0.25990 0.03144 0.75995
 C990 C 0.25996 0.01557 0.76008
 C991 C 0.25026 0.00765 0.75041
 C992 C 0.24058 0.01564 0.74075
 C993 C 0.23105 0.00757 0.73128
 C994 C 0.23106 -0.00808 0.73124
 C995 C 0.24059 -0.01622 0.74069
 C996 C 0.25026 -0.00829 0.75039
 C997 C 0.26944 0.00744 0.76958
 C998 C 0.26943 -0.00821 0.76956
 C999 C 0.25995 -0.01628 0.76005
 C1000 C 0.25989 -0.03214 0.75988
 C1001 C 0.25035 -0.03980 0.75027
 C1002 C 0.24077 -0.03208 0.74072
 H1003 H 0.22350 0.01330 0.72379
 H1004 H 0.22351 -0.01377 0.72373
 H1005 H 0.27697 0.01311 0.77710
 H1006 H 0.27695 -0.01393 0.77709
 H1007 H 0.25038 0.05137 0.75038
 H1008 H 0.25040 -0.05200 0.75020
 C1009 C 0.24026 0.26029 1.03111
 C1010 C 0.24987 0.25066 1.03878
 C1011 C 0.25960 0.24106 1.03125
 C1012 C 0.25983 0.24099 1.01558
 C1013 C 0.25012 0.25072 1.00765
 C1014 C 0.24029 0.26044 1.01544
 C1015 C 0.23078 0.26999 1.00737
 C1016 C 0.23089 0.27001 0.99192
 C1017 C 0.24051 0.26046 0.98397
 C1018 C 0.25023 0.25073 0.99191
 C1019 C 0.26947 0.23145 1.00764
 C1020 C 0.26957 0.23145 0.99219
 C1021 C 0.26003 0.24099 0.98412
 C1022 C 0.26000 0.24106 0.96845
 C1023 C 0.25040 0.25069 0.96077
 C1024 C 0.24071 0.26034 0.96830
 H1025 H 0.22314 0.27756 1.01295
 H1026 H 0.22335 0.27759 0.98623
 H1027 H 0.27702 0.22388 1.01332
 H1028 H 0.27720 0.22388 0.98661
 H1029 H 0.24975 0.25063 1.05082
 H1030 H 0.25047 0.25066 0.94873
 C1031 C 0.25986 0.74050 0.46842
 C1032 C 0.25019 0.75004 0.46074
 C1033 C 0.24048 0.75967 0.46827
 C1034 C 0.24033 0.75989 0.48394
 C1035 C 0.25011 0.75024 0.49188
 C1036 C 0.25992 0.74049 0.48409
 C1037 C 0.26950 0.73101 0.49217
 C1038 C 0.26946 0.73109 0.50761
 C1039 C 0.25984 0.74066 0.51554
 C1040 C 0.25008 0.75034 0.50762
 C1041 C 0.23071 0.76946 0.49188
 C1042 C 0.23071 0.76958 0.50734
 C1043 C 0.24031 0.76013 0.51542
 C1044 C 0.24045 0.76015 0.53111
 C1045 C 0.25008 0.75053 0.53875
 C1046 C 0.25970 0.74084 0.53120
 H1047 H 0.27713 0.72344 0.48660
 H1048 H 0.27706 0.72357 0.51330
 H1049 H 0.22309 0.77695 0.48618
 H1050 H 0.22309 0.77716 0.51293
 H1051 H 0.25022 0.74996 0.44870
 H1052 H 0.25009 0.75060 0.55079
 C1053 C 0.25992 0.75936 -0.03189
 C1054 C 0.25020 0.74982 -0.03949
 C1055 C 0.24049 0.74026 -0.03188
 C1056 C 0.24039 0.74014 -0.01621
 C1057 C 0.25020 0.74979 -0.00835
 C1058 C 0.26003 0.75944 -0.01621
 C1059 C 0.26967 0.76889 -0.00820
 C1060 C 0.26963 0.76891 0.00725
 C1061 C 0.25996 0.75948 0.01526
 C1062 C 0.25017 0.74980 0.00739
 C1063 C 0.23076 0.73066 -0.00821
 C1064 C 0.23073 0.73067 0.00724
 C1065 C 0.24034 0.74015 0.01525
 C1066 C 0.24039 0.74028 0.03092
 C1067 C 0.25004 0.74988 0.03853
 C1068 C 0.25977 0.75943 0.03094
 H1069 H 0.27733 0.77637 -0.01384
 H1070 H 0.27726 0.77641 0.01288
 H1071 H 0.22313 0.72315 -0.01383
 H1072 H 0.22309 0.72316 0.01287
 H1073 H 0.25018 0.74984 -0.05153
 H1074 H 0.24998 0.74991 0.05057
 C1075 C 0.24086 0.23923 0.46841
 C1076 C 0.25054 0.24887 0.46087
 C1077 C 0.26002 0.25859 0.46852
 C1078 C 0.25996 0.25876 0.48419
 C1079 C 0.25017 0.24902 0.49199
 C1080 C 0.24056 0.23922 0.48408
 C1081 C 0.23093 0.22968 0.49204
 C1082 C 0.23074 0.22978 0.50749
 C1083 C 0.24017 0.23940 0.51555
 C1084 C 0.24998 0.24911 0.50774
 C1085 C 0.26939 0.26838 0.49224
 C1086 C 0.26923 0.26845 0.50769
 C1087 C 0.25962 0.25890 0.51564
 C1088 C 0.25934 0.25887 0.53131
 C1089 C 0.24963 0.24928 0.53887
 C1090 C 0.24009 0.23961 0.53122
 H1091 H 0.22346 0.22205 0.48636
 H1092 H 0.22312 0.22223 0.51308
 H1093 H 0.27699 0.27596 0.48665
 H1094 H 0.27670 0.27608 0.51335
 H1095 H 0.25069 0.24882 0.44883
 H1096 H 0.24950 0.24935 0.55091
 C1097 C 0.75946 0.74031 0.96856
 C1098 C 0.74973 0.74980 0.96089
 C1099 C 0.74002 0.75942 0.96844
 C1100 C 0.73993 0.75965 0.98410
 C1101 C 0.74977 0.75005 0.99202
 C1102 C 0.75959 0.74033 0.98422
 C1103 C 0.76926 0.73092 0.99228
 C1104 C 0.76927 0.73103 1.00772
 C1105 C 0.75963 0.74056 1.01567
 C1106 C 0.74979 0.75016 1.00776
 C1107 C 0.73030 0.76919 0.99205
 C1108 C 0.73031 0.76930 1.00750
 C1109 C 0.73996 0.75987 1.01556
 C1110 C 0.74006 0.75985 1.03123
 C1111 C 0.74980 0.75034 1.03889
 C1112 C 0.75952 0.74075 1.03133
 H1113 H 0.77690 0.72337 0.98670
 H1114 H 0.77693 0.72357 1.01339
 H1115 H 0.72265 0.77666 0.98637
 H1116 H 0.72268 0.77685 1.01308
 H1117 H 0.74971 0.74971 0.94885
 H1118 H 0.74979 0.75040 1.05093
 C1119 C 0.74030 0.25995 0.53120
 C1120 C 0.74999 0.25039 0.53884
 C1121 C 0.75967 0.24077 0.53127
 C1122 C 0.75978 0.24061 0.51560
 C1123 C 0.74999 0.25029 0.50771
 C1124 C 0.74020 0.26001 0.51554
 C1125 C 0.73059 0.26950 0.50751
 C1126 C 0.73058 0.26946 0.49207
 C1127 C 0.74018 0.25992 0.48409
 C1128 C 0.74998 0.25024 0.49197
 C1129 C 0.76938 0.23106 0.50762
 C1130 C 0.76936 0.23101 0.49216
 C1131 C 0.75975 0.24050 0.48413
 C1132 C 0.75961 0.24055 0.46846
 C1133 C 0.74993 0.25014 0.46084
 C1134 C 0.74027 0.25977 0.46843
 H1135 H 0.72297 0.27706 0.51312
 H1136 H 0.72295 0.27698 0.48643
 H1137 H 0.77699 0.22354 0.51327
 H1138 H 0.77696 0.22344 0.48655
 H1139 H 0.74998 0.25043 0.55088
 H1140 H 0.74990 0.25011 0.44880
 C1141 C 0.75957 0.25918 0.03111
 C1142 C 0.74995 0.24954 0.03873
 C1143 C 0.74028 0.23996 0.03113
 C1144 C 0.74013 0.23990 0.01547
 C1145 C 0.74986 0.24964 0.00760
 C1146 C 0.75963 0.25934 0.01545
 C1147 C 0.76918 0.26890 0.00743
 C1148 C 0.76913 0.26896 -0.00802
 C1149 C 0.75954 0.25945 -0.01601
 C1150 C 0.74982 0.24970 -0.00814
 C1151 C 0.73054 0.23039 0.00747
 C1152 C 0.73051 0.23043 -0.00798
 C1153 C 0.74005 0.24000 -0.01599
 C1154 C 0.74012 0.24015 -0.03166
 C1155 C 0.74972 0.24980 -0.03928
 C1156 C 0.75938 0.25940 -0.03168
 H1157 H 0.77678 0.27644 0.01305
 H1158 H 0.77670 0.27653 -0.01365
 H1159 H 0.72298 0.22281 0.01310
 H1160 H 0.72291 0.22289 -0.01360
 H1161 H 0.74997 0.24951 0.05077
 H1162 H 0.74968 0.24984 -0.05132
 C1163 C 0.74041 0.74027 0.53141
 C1164 C 0.75007 0.74990 0.53895
 C1165 C 0.75970 0.75949 0.53128
 C1166 C 0.75975 0.75957 0.51562
 C1167 C 0.74998 0.74984 0.50782
 C1168 C 0.74027 0.74012 0.51574
 C1169 C 0.73069 0.73055 0.50779
 C1170 C 0.73063 0.73053 0.49235
 C1171 C 0.74013 0.74009 0.48428
 C1172 C 0.74990 0.74983 0.49208
 C1173 C 0.76929 0.76910 0.50755
 C1174 C 0.76921 0.76910 0.49210
 C1175 C 0.75960 0.75956 0.48416
 C1176 C 0.75941 0.75946 0.46849
 C1177 C 0.74973 0.74984 0.46095
 C1178 C 0.74015 0.74021 0.46861
 H1179 H 0.72315 0.72297 0.51347
 H1180 H 0.72304 0.72295 0.48677
 H1181 H 0.77689 0.77666 0.51313
 H1182 H 0.77676 0.77666 0.48642
 H1183 H 0.75010 0.74994 0.55099
 H1184 H 0.74966 0.74985 0.44891
 C1185 C 1.03154 0.24056 0.25978
 C1186 C 1.03918 0.25010 0.25011
 C1187 C 1.03152 0.25963 0.24044
 C1188 C 1.01574 0.25972 0.24031
 C1189 C 1.00782 0.25009 0.25009
 C1190 C 1.01575 0.24046 0.25988
 C1191 C 1.00768 0.23102 0.26948
 C1192 C 0.99211 0.23103 0.26948
 C1193 C 0.98404 0.24048 0.25987
 C1194 C 0.99196 0.25010 0.25008
 C1195 C 1.00767 0.26916 0.23070
 C1196 C 0.99210 0.26916 0.23069
 C1197 C 0.98404 0.25973 0.24029
 C1198 C 0.96825 0.25963 0.24039
 C1199 C 0.96060 0.25012 0.25008
 C1200 C 0.96826 0.24060 0.25975
 H1201 H 1.01335 0.22354 0.27709
 H1202 H 0.98643 0.22355 0.27709
 H1203 H 1.01334 0.27664 0.22308
 H1204 H 0.98643 0.27665 0.22307
 H1205 H 1.05132 0.25011 0.25012
 H1206 H 0.94847 0.25012 0.25008
 C1207 C 0.53158 0.24008 0.75946
 C1208 C 0.53922 0.24964 0.74981
 C1209 C 0.53154 0.25918 0.74016
 C1210 C 0.51575 0.25926 0.74006
 C1211 C 0.50786 0.24960 0.74983
 C1212 C 0.51580 0.23995 0.75958
 C1213 C 0.50775 0.23047 0.76916
 C1214 C 0.49219 0.23045 0.76917
 C1215 C 0.48410 0.23992 0.75960
 C1216 C 0.49200 0.24958 0.74984
 C1217 C 0.50767 0.26873 0.73049
 C1218 C 0.49211 0.26872 0.73051
 C1219 C 0.48406 0.25923 0.74008
 C1220 C 0.46828 0.25912 0.74020
 C1221 C 0.46063 0.24956 0.74986
 C1222 C 0.46831 0.24002 0.75950
 H1223 H 0.51345 0.22296 0.77674
 H1224 H 0.48653 0.22294 0.77676
 H1225 H 0.51333 0.27624 0.72290
 H1226 H 0.48642 0.27623 0.72293
 H1227 H 0.55135 0.24965 0.74980
 H1228 H 0.44850 0.24956 0.74986
 C1229 C 0.03140 0.24032 0.74047
 C1230 C 0.03907 0.24987 0.75010
 C1231 C 0.03142 0.25942 0.75975
 C1232 C 0.01563 0.25953 0.75989
 C1233 C 0.00770 0.24988 0.75015
 C1234 C 0.01562 0.24023 0.74039
 C1235 C 0.00755 0.23077 0.73083
 C1236 C -0.00802 0.23078 0.73084
 C1237 C -0.01608 0.24026 0.74042
 C1238 C -0.00816 0.24990 0.75017
 C1239 C 0.00757 0.26899 0.76948
 C1240 C -0.00800 0.26900 0.76950
 C1241 C -0.01607 0.25955 0.75993
 C1242 C -0.03186 0.25948 0.75982
 C1243 C -0.03952 0.24996 0.75017
 C1244 C -0.03187 0.24040 0.74053
 H1245 H 0.01322 0.22326 0.72324
 H1246 H -0.01370 0.22329 0.72327
 H1247 H 0.01324 0.27647 0.77707
 H1248 H -0.01367 0.27649 0.77710
 H1249 H 0.05120 0.24987 0.75007
 H1250 H -0.05165 0.24999 0.75016
 C1251 C 0.53169 0.24032 0.24003
 C1252 C 0.53942 0.24983 0.24965
 C1253 C 0.53183 0.25939 0.25933
 C1254 C 0.51604 0.25955 0.25952
 C1255 C 0.50806 0.24994 0.24979
 C1256 C 0.51591 0.24028 0.23999
 C1257 C 0.50779 0.23086 0.23043
 C1258 C 0.49222 0.23090 0.23051
 C1259 C 0.48422 0.24036 0.24015
 C1260 C 0.49220 0.24997 0.24988
 C1261 C 0.50804 0.26903 0.26913
 C1262 C 0.49247 0.26906 0.26923
 C1263 C 0.48434 0.25961 0.25970
 C1264 C 0.46855 0.25950 0.25971
 C1265 C 0.46084 0.25000 0.25009
 C1266 C 0.46843 0.24049 0.24036
 H1267 H 0.51341 0.22337 0.22280
 H1268 H 0.48650 0.22344 0.22294
 H1269 H 0.51376 0.27652 0.27668
 H1270 H 0.48684 0.27656 0.27685
 H1271 H 0.55155 0.24978 0.24959
 H1272 H 0.44870 0.25001 0.25018
 C1273 C 1.03135 0.74053 0.75958
 C1274 C 1.03899 0.75012 0.74996
 C1275 C 1.03132 0.75969 0.74034
 C1276 C 1.01553 0.75976 0.74022
 C1277 C 1.00763 0.75007 0.74995
 C1278 C 1.01556 0.74040 0.75969
 C1279 C 1.00752 0.73089 0.76924
 C1280 C 0.99195 0.73088 0.76926
 C1281 C 0.98387 0.74036 0.75970
 C1282 C 0.99177 0.75004 0.74995
 C1283 C 1.00744 0.76922 0.73064
 C1284 C 0.99187 0.76917 0.73062
 C1285 C 0.98383 0.75967 0.74018
 C1286 C 0.96804 0.75952 0.74028
 C1287 C 0.96041 0.74999 0.74995
 C1288 C 0.96809 0.74046 0.75960
 H1289 H 1.01321 0.72337 0.77681
 H1290 H 0.98629 0.72336 0.77684
 H1291 H 1.01310 0.77675 0.72307
 H1292 H 0.98618 0.77666 0.72303
 H1293 H 1.05112 0.75013 0.74996
 H1294 H 0.94827 0.74998 0.74995
 C1295 C 0.46826 0.75980 0.24026
 C1296 C 0.46057 0.75036 0.24998
 C1297 C 0.46819 0.74082 0.25966
 C1298 C 0.48397 0.74062 0.25977
 C1299 C 0.49193 0.75018 0.24996
 C1300 C 0.48405 0.75983 0.24016
 C1301 C 0.49215 0.76922 0.23053
 C1302 C 0.50771 0.76915 0.23054
 C1303 C 0.51574 0.75968 0.24017
 C1304 C 0.50779 0.75011 0.24996
 C1305 C 0.49200 0.73113 0.26937
 C1306 C 0.50756 0.73105 0.26937
 C1307 C 0.51567 0.74046 0.25977
 C1308 C 0.53145 0.74052 0.25969
 C1309 C 0.53915 0.75000 0.25000
 C1310 C 0.53152 0.75953 0.24030
 H1311 H 0.48651 0.77671 0.22291
 H1312 H 0.51342 0.77659 0.22293
 H1313 H 0.48629 0.72367 0.27698
 H1314 H 0.51321 0.72354 0.27698
 H1315 H 0.44843 0.75043 0.24999
 H1316 H 0.55128 0.74998 0.25003
 C1317 C -0.03144 0.74078 0.24052
 C1318 C -0.03907 0.75027 0.25025
 C1319 C -0.03138 0.75981 0.25985
 C1320 C -0.01560 0.75997 0.25984
 C1321 C -0.00771 0.75035 0.25003
 C1322 C -0.01566 0.74069 0.24032
 C1323 C -0.00762 0.73124 0.23070
 C1324 C 0.00795 0.73127 0.23061
 C1325 C 0.01605 0.74076 0.24012
 C1326 C 0.00815 0.75040 0.24991
 C1327 C -0.00751 0.76947 0.26934
 C1328 C 0.00806 0.76954 0.26921
 C1329 C 0.01610 0.76009 0.25959
 C1330 C 0.03189 0.76004 0.25937
 C1331 C 0.03952 0.75049 0.24969
 C1332 C 0.03183 0.74090 0.24013
 H1333 H -0.01332 0.72373 0.22316
 H1334 H 0.01360 0.72377 0.22300
 H1335 H -0.01316 0.77695 0.27696
 H1336 H 0.01376 0.77707 0.27674
 H1337 H -0.05120 0.75024 0.25033
 H1338 H 0.05165 0.75052 0.24961
 C1339 C 0.46807 0.74049 0.74059
 C1340 C 0.46037 0.75004 0.75021
 C1341 C 0.46799 0.75964 0.75981
 C1342 C 0.48377 0.75980 0.75991
 C1343 C 0.49174 0.75016 0.75018
 C1344 C 0.48386 0.74044 0.74047
 C1345 C 0.49197 0.73098 0.73092
 C1346 C 0.50754 0.73106 0.73088
 C1347 C 0.51556 0.74061 0.74040
 C1348 C 0.50760 0.75024 0.75015
 C1349 C 0.49180 0.76932 0.76945
 C1350 C 0.50737 0.76939 0.76943
 C1351 C 0.51547 0.75994 0.75986
 C1352 C 0.53126 0.75993 0.75972
 C1353 C 0.53896 0.75042 0.75006
 C1354 C 0.53135 0.74082 0.74046
 H1355 H 0.48632 0.72342 0.72338
 H1356 H 0.51324 0.72357 0.72331
 H1357 H 0.48609 0.77681 0.77703
 H1358 H 0.51301 0.77693 0.77699
 H1359 H 0.44824 0.75000 0.75022
 H1360 H 0.55109 0.75049 0.75003
 C1361 C 0.42131 0.30089 0.30188
 N1362 N 0.42627 0.30622 0.28868
 N1363 N 0.43638 0.29856 0.28089
 C1364 C 0.44185 0.28536 0.28608
 N1365 N 0.43691 0.28004 0.29930
 N1366 N 0.42680 0.28770 0.30709
 C1367 C 0.40977 0.30868 0.30982
 C1368 C 0.39980 0.31505 0.31625
 C1369 C 0.45185 0.27657 0.27717
 C1370 C 0.45976 0.26895 0.26938
 C1371 C 0.42089 0.80155 0.80174
 N1372 N 0.42573 0.80669 0.78842
 N1373 N 0.43571 0.79889 0.78060
 C1374 C 0.44116 0.78571 0.78587
 N1375 N 0.43634 0.78057 0.79920
 N1376 N 0.42636 0.78838 0.80702
 C1377 C 0.40961 0.80957 0.80981
 C1378 C 0.39989 0.81614 0.81642
 C1379 C 0.45115 0.77685 0.77702
 C1380 C 0.45909 0.76915 0.76934
 C1381 C -0.07906 0.30140 0.80157
 N1382 N -0.07417 0.30654 0.78827
 N1383 N -0.06410 0.29877 0.78053
 C1384 C -0.05861 0.28563 0.78586
 N1385 N -0.06348 0.28051 0.79918
 N1386 N -0.07354 0.28828 0.80692
 C1387 C -0.09055 0.30929 0.80948
 C1388 C -0.10047 0.31572 0.81592
 C1389 C -0.04862 0.27674 0.77704
 C1390 C -0.04070 0.26902 0.76936
 C1391 C -0.07874 0.80132 0.30182
 N1392 N -0.07374 0.80661 0.28861
 N1393 N -0.06363 0.79893 0.28086
 C1394 C -0.05819 0.78572 0.28608
 N1395 N -0.06316 0.78044 0.29930
 N1396 N -0.07327 0.78813 0.30706
 C1397 C -0.09027 0.80915 0.30973
 C1398 C -0.10023 0.81554 0.31617
 C1399 C -0.04816 0.77692 0.27721
 C1400 C -0.04022 0.76928 0.26948
 C1401 C 0.57877 0.69941 0.30208
 N1402 N 0.57334 0.69372 0.28922
 N1403 N 0.56323 0.70133 0.28139
 C1404 C 0.55820 0.71485 0.28620
 N1405 N 0.56360 0.72052 0.29909
 N1406 N 0.57371 0.71291 0.30692
 C1407 C 0.59029 0.69161 0.31004
 C1408 C 0.60022 0.68520 0.31649
 C1409 C 0.54819 0.72355 0.27722
 C1410 C 0.54028 0.73112 0.26939
 C1411 C 0.57917 0.19872 0.80131
 N1412 N 0.57427 0.19347 0.78807
 N1413 N 0.56412 0.20111 0.78032
 C1414 C 0.55855 0.21424 0.78559
 N1415 N 0.56342 0.21948 0.79884
 N1416 N 0.57357 0.21183 0.80660
 C1417 C 0.59068 0.19091 0.80926
 C1418 C 0.60059 0.18450 0.81575
 C1419 C 0.54846 0.22300 0.77675
 C1420 C 0.54047 0.23062 0.76904
 C1421 C 1.07876 0.69884 0.80128
 N1422 N 1.07311 0.71188 0.80667
 N1423 N 1.06297 0.71958 0.79895
 C1424 C 1.05817 0.71446 0.78562
 N1425 N 1.06379 0.70140 0.78025
 N1426 N 1.07392 0.69370 0.78797
 C1427 C 1.09033 0.69103 0.80915
 C1428 C 1.10031 0.68467 0.81557
 C1429 C 1.04815 0.72331 0.77680
 C1430 C 1.04021 0.73100 0.76912
 C1431 C 1.07906 0.19925 0.30180
 N1432 N 1.07412 0.21279 0.30664
 N1433 N 1.06397 0.22044 0.29889
 C1434 C 1.05843 0.21477 0.28607
 N1435 N 1.06334 0.20121 0.28124
 N1436 N 1.07349 0.19356 0.28899
 C1437 C 1.09068 0.19146 0.30964
 C1438 C 1.10073 0.18513 0.31599
 C1439 C 1.04837 0.22350 0.27715
 C1440 C 1.04041 0.23111 0.26940
 C1441 C 0.57899 0.30091 0.69861
 N1442 N 0.57341 0.28787 0.69319
 N1443 N 0.56325 0.28016 0.70086
 C1444 C 0.55835 0.28527 0.71417
 N1445 N 0.56390 0.29834 0.71957
 N1446 N 0.57406 0.30604 0.71190
 C1447 C 0.59057 0.30873 0.69078
 C1448 C 0.60053 0.31511 0.68436
 C1449 C 0.54831 0.27641 0.72295
 C1450 C 0.54037 0.26871 0.73061
 C1451 C 0.57877 0.80136 0.19860
 N1452 N 0.57337 0.78819 0.19330
 N1453 N 0.56330 0.78042 0.20103
 C1454 C 0.55831 0.78561 0.21427
 N1455 N 0.56368 0.79879 0.21955
 N1456 N 0.57375 0.80656 0.21183
 C1457 C 0.59029 0.80923 0.19074
 C1458 C 0.60024 0.81562 0.18433
 C1459 C 0.54832 0.77672 0.22308
 C1460 C 0.54040 0.76903 0.23076
 C1461 C 1.07857 0.30158 0.19863
 N1462 N 1.07315 0.28842 0.19333
 N1463 N 1.06311 0.28064 0.20108
 C1464 C 1.05817 0.28580 0.21435
 N1465 N 1.06355 0.29899 0.21963
 N1466 N 1.07359 0.30677 0.21188
 C1467 C 1.09009 0.30944 0.19075
 C1468 C 1.10006 0.31580 0.18432
 C1469 C 1.04823 0.27689 0.22320
 C1470 C 1.04035 0.26917 0.23090
 C1471 C 1.07861 0.80112 0.69824
 N1472 N 1.07367 0.80644 0.71146
 N1473 N 1.06358 0.79879 0.71927
 C1474 C 1.05809 0.78561 0.71409
 N1475 N 1.06301 0.78030 0.70086
 N1476 N 1.07311 0.78795 0.69305
 C1477 C 1.09022 0.80884 0.69034
 C1478 C 1.10030 0.81509 0.68397
 C1479 C 1.04808 0.77684 0.72301
 C1480 C 1.04016 0.76919 0.73075
 C1481 C 0.42072 0.69905 0.69870
 N1482 N 0.42550 0.69386 0.71202
 N1483 N 0.43561 0.70151 0.71980
 C1484 C 0.44127 0.71457 0.71447
 N1485 N 0.43651 0.71975 0.70113
 N1486 N 0.42640 0.71210 0.69336
 C1487 C 0.40921 0.69126 0.69075
 C1488 C 0.39928 0.68490 0.68429
 C1489 C 0.45131 0.72334 0.72332
 C1490 C 0.45925 0.73098 0.73103
 C1491 C 0.42108 0.19927 0.19822
 N1492 N 0.42600 0.19391 0.21143
 N1493 N 0.43608 0.20153 0.21927
 C1494 C 0.44155 0.21474 0.21413
 N1495 N 0.43666 0.22009 0.20090
 N1496 N 0.42658 0.21247 0.19307
 C1497 C 0.40958 0.19152 0.19023
 C1498 C 0.39964 0.18518 0.18375
 C1499 C 0.45157 0.22347 0.22305
 C1500 C 0.45952 0.23107 0.23079
 C1501 C -0.07904 0.69973 0.19851
 N1502 N -0.07348 0.71288 0.19330
 N1503 N -0.06334 0.72047 0.20109
 C1504 C -0.05844 0.71513 0.21432
 N1505 N -0.06399 0.70197 0.21951
 N1506 N -0.07412 0.69438 0.21172
 C1507 C -0.09051 0.69194 0.19049
 C1508 C -0.10036 0.68552 0.18396
 C1509 C -0.04834 0.72381 0.22319
 C1510 C -0.04034 0.73137 0.23092
 C1511 C -0.07918 0.19915 0.69841
 N1512 N -0.07380 0.21242 0.69330
 N1513 N -0.06371 0.22005 0.70110
 C1514 C -0.05867 0.21463 0.71425
 N1515 N -0.06402 0.20135 0.71934
 N1516 N -0.07411 0.19372 0.71153
 C1517 C -0.09069 0.19138 0.69045
 C1518 C -0.10064 0.18501 0.68401
 C1519 C -0.04866 0.22337 0.72316
 C1520 C -0.04072 0.23097 0.73092
 C1521 C 0.30102 0.42073 0.30169
 N1522 N 0.30626 0.42585 0.28851
 N1523 N 0.29849 0.43592 0.28074
 C1524 C 0.28525 0.44118 0.28592
 N1525 N 0.28003 0.43608 0.29911
 N1526 N 0.28780 0.42601 0.30688
 C1527 C 0.30893 0.40923 0.30961
 C1528 C 0.31539 0.39930 0.31605
 C1529 C 0.27639 0.45117 0.27705
 C1530 C 0.26873 0.45910 0.26932
 C1531 C 0.30209 -0.07945 0.80133
 N1532 N 0.30708 -0.07454 0.78798
 N1533 N 0.29922 -0.06451 0.78025
 C1534 C 0.28614 -0.05908 0.78565
 N1535 N 0.28116 -0.06397 0.79901
 N1536 N 0.28903 -0.07400 0.80674
 C1537 C 0.31016 -0.09079 0.80931
 C1538 C 0.31673 -0.10057 0.81590
 C1539 C 0.27721 -0.04905 0.77689
 C1540 C 0.26946 -0.04107 0.76930
 C1541 C 0.80137 0.42080 0.80197
 N1542 N 0.80652 0.42587 0.78873
 N1543 N 0.79873 0.43595 0.78100
 C1544 C 0.78556 0.44128 0.78628
 N1545 N 0.78043 0.43625 0.79953
 N1546 N 0.78822 0.42617 0.80726
 C1547 C 0.80928 0.40927 0.80984
 C1548 C 0.81571 0.39930 0.81626
 C1549 C 0.77665 0.45126 0.77745
 C1550 C 0.76894 0.45918 0.76976
 C1551 C 0.80150 -0.07965 0.30177
 N1552 N 0.80669 -0.07461 0.28854
 N1553 N 0.79893 -0.06453 0.28078
 C1554 C 0.78575 -0.05917 0.28602
 N1555 N 0.78058 -0.06419 0.29926
 N1556 N 0.78834 -0.07427 0.30703
 C1557 C 0.80940 -0.09115 0.30970
 C1558 C 0.81584 -0.10109 0.31617
 C1559 C 0.77690 -0.04916 0.27717
 C1560 C 0.76922 -0.04120 0.26949
 C1561 C 0.30136 0.57890 0.69850
 N1562 N 0.28798 0.57385 0.69350
 N1563 N 0.28027 0.56376 0.70127
 C1564 C 0.28570 0.55838 0.71428
 N1565 N 0.29909 0.56340 0.71926
 N1566 N 0.30680 0.57350 0.71149
 C1567 C 0.30923 0.59044 0.69059
 C1568 C 0.31563 0.60041 0.68415
 C1569 C 0.27691 0.54834 0.72316
 C1570 C 0.26929 0.54038 0.73090
 C1571 C 0.30134 1.07949 0.19887
 N1572 N 0.28809 1.07416 0.19384
 N1573 N 0.28051 1.06400 0.20166
 C1574 C 0.28596 1.05885 0.21474
 N1575 N 0.29922 1.06416 0.21976
 N1576 N 0.30680 1.07432 0.21194
 C1577 C 0.30910 1.09103 0.19086
 C1578 C 0.31546 1.10097 0.18434
 C1579 C 0.27729 1.04873 0.22365
 C1580 C 0.26973 1.04071 0.23138
 C1581 C 0.80182 0.57913 0.19826
 N1582 N 0.78876 0.57361 0.19296
 N1583 N 0.78106 0.56350 0.20072
 C1584 C 0.78621 0.55857 0.21401
 N1585 N 0.79929 0.56406 0.21929
 N1586 N 0.80699 0.57418 0.21153
 C1587 C 0.80967 0.59065 0.19031
 C1588 C 0.81606 0.60058 0.18381
 C1589 C 0.77737 0.54855 0.22286
 C1590 C 0.76966 0.54063 0.23054
 C1591 C 0.80138 1.07920 0.69895
 N1592 N 0.80659 1.07416 0.71217
 N1593 N 0.79889 1.06404 0.71993
 C1594 C 0.78576 1.05863 0.71468
 N1595 N 0.78057 1.06363 0.70143
 N1596 N 0.78827 1.07375 0.69368
 C1597 C 0.80921 1.09074 0.69102
 C1598 C 0.81557 1.10071 0.68454
 C1599 C 0.77693 1.04859 0.72351
 C1600 C 0.76922 1.04064 0.73117
 C1601 C 0.69887 0.57979 0.30025
 N1602 N 0.70924 0.57099 0.30697
 N1603 N 0.71690 0.56086 0.29917
 C1604 C 0.71441 0.55921 0.28443
 N1605 N 0.70402 0.56798 0.27773
 N1606 N 0.69636 0.57811 0.28552
 C1607 C 0.69115 0.59123 0.30844
 C1608 C 0.68479 0.60108 0.31510
 C1609 C 0.72332 0.54905 0.27581
 C1610 C 0.73106 0.54100 0.26829
 C1611 C 0.69888 1.07946 0.80145
 N1612 N 0.69370 1.07453 0.78818
 N1613 N 0.70139 1.06441 0.78042
 C1614 C 0.71448 1.05888 0.78569
 N1615 N 0.71965 1.06379 0.79897
 N1616 N 0.71195 1.07391 0.80674
 C1617 C 0.69099 1.09092 0.80944
 C1618 C 0.68452 1.10078 0.81598
 C1619 C 0.72326 1.04879 0.77686
 C1620 C 0.73089 1.04078 0.76918
 C1621 C 0.19918 0.57886 0.80157
 N1622 N 0.21233 0.57349 0.80685
 N1623 N 0.22008 0.56336 0.79914
 C1624 C 0.21490 0.55828 0.78593
 N1625 N 0.20173 0.56362 0.78068
 N1626 N 0.19398 0.57374 0.78839
 C1627 C 0.19129 0.59043 0.80942
 C1628 C 0.18485 0.60041 0.81581
 C1629 C 0.22377 0.54825 0.77712
 C1630 C 0.23146 0.54030 0.76944
 C1631 C 0.19968 1.07889 0.30243
 N1632 N 0.19367 1.07237 0.29022
 N1633 N 0.20150 1.06238 0.28242
 C1634 C 0.21556 1.05857 0.28661
 N1635 N 0.22155 1.06507 0.29883
 N1636 N 0.21373 1.07507 0.30663
 C1637 C 0.19156 1.09022 0.31038
 C1638 C 0.18482 1.09996 0.31683
 C1639 C 0.22433 1.04857 0.27767
 C1640 C 0.23191 1.04063 0.26988
 C1641 C 0.69938 0.42044 0.69892
 N1642 N 0.71253 0.42590 0.69376
 N1643 N 0.72013 0.43606 0.70155
 C1644 C 0.71478 0.44109 0.71472
 N1645 N 0.70160 0.43566 0.71986
 N1646 N 0.69401 0.42550 0.71207
 C1647 C 0.69162 0.40890 0.69095
 C1648 C 0.68524 0.39897 0.68447
 C1649 C 0.72347 0.45117 0.72362
 C1650 C 0.73103 0.45915 0.73136
 C1651 C 0.69906 -0.07933 0.19870
 N1652 N 0.71229 -0.07406 0.19354
 N1653 N 0.72003 -0.06401 0.20133
 C1654 C 0.71475 -0.05892 0.21451
 N1655 N 0.70150 -0.06416 0.21964
 N1656 N 0.69377 -0.07420 0.21185
 C1657 C 0.69119 -0.09082 0.19077
 C1658 C 0.68477 -0.10076 0.18433
 C1659 C 0.72359 -0.04897 0.22340
 C1660 C 0.73124 -0.04107 0.23114
 C1661 C 0.19868 0.42099 0.19832
 N1662 N 0.19340 0.42609 0.21149
 N1663 N 0.20114 0.43611 0.21929
 C1664 C 0.21439 0.44136 0.21415
 N1665 N 0.21965 0.43630 0.20096
 N1666 N 0.21190 0.42627 0.19316
 C1667 C 0.19083 0.40947 0.19041
 C1668 C 0.18444 0.39949 0.18401
 C1669 C 0.22324 0.45127 0.22307
 C1670 C 0.23089 0.45915 0.23082
 C1671 C 0.20076 -0.08078 0.69904
 N1672 N 0.21380 -0.07509 0.69383
 N1673 N 0.22111 -0.06461 0.70148
 C1674 C 0.21556 -0.05946 0.71452
 N1675 N 0.20250 -0.06511 0.71970
 N1676 N 0.19519 -0.07559 0.71206
 C1677 C 0.19325 -0.09260 0.69123
 C1678 C 0.18693 -0.10269 0.68492
 C1679 C 0.22402 -0.04912 0.72334
 C1680 C 0.23144 -0.04100 0.73108
 C1681 C 0.30205 0.30115 0.42225
 N1682 N 0.30722 0.28773 0.42719
 N1683 N 0.29942 0.27981 0.43705
 C1684 C 0.28622 0.28509 0.44230
 N1685 N 0.28106 0.29854 0.43739
 N1686 N 0.28887 0.30645 0.42753
 C1687 C 0.31000 0.30922 0.41096
 C1688 C 0.31648 0.31577 0.40120
 C1689 C 0.27731 0.27607 0.45206
 C1690 C 0.26958 0.26824 0.45982
 C1691 C 0.30196 0.80152 -0.07858
 N1692 N 0.30702 0.78802 -0.07374
 N1693 N 0.29922 0.78016 -0.06381
 C1694 C 0.28614 0.78558 -0.05841
 N1695 N 0.28110 0.79910 -0.06322
 N1696 N 0.28890 0.80696 -0.07315
 C1697 C 0.30994 0.80959 -0.08986
 C1698 C 0.31649 0.81616 -0.09958
 C1699 C 0.27724 0.77665 -0.04853
 C1700 C 0.26951 0.76891 -0.04068
 C1701 C 0.80161 0.30168 -0.07809
 N1702 N 0.80674 0.28827 -0.07308
 N1703 N 0.79887 0.28040 -0.06322
 C1704 C 0.78565 0.28571 -0.05806
 N1705 N 0.78055 0.29915 -0.06303
 N1706 N 0.78841 0.30702 -0.07289
 C1707 C 0.80963 0.30972 -0.08936
 C1708 C 0.81616 0.31627 -0.09910
 C1709 C 0.77669 0.27676 -0.04826
 C1710 C 0.76894 0.26900 -0.04046
 C1711 C 0.80167 0.80158 0.42199
 N1712 N 0.78852 0.80698 0.42724
 N1713 N 0.78063 0.79913 0.43709
 C1714 C 0.78567 0.78565 0.44201
 N1715 N 0.79883 0.78026 0.43679
 N1716 N 0.80672 0.78811 0.42694
 C1717 C 0.80974 0.80962 0.41077
 C1718 C 0.81631 0.81618 0.40106
 C1719 C 0.77670 0.77674 0.45184
 C1720 C 0.76896 0.76901 0.45967
 C1721 C 0.69750 0.30200 0.57726
 N1722 N 0.71062 0.30746 0.57203
 N1723 N 0.71857 0.29964 0.56220
 C1724 C 0.71364 0.28613 0.55730
 N1725 N 0.70049 0.28070 0.56250
 N1726 N 0.69253 0.28851 0.57233
 C1727 C 0.68949 0.30991 0.58861
 C1728 C 0.68303 0.31635 0.59846
 C1729 C 0.72274 0.27721 0.54762
 C1730 C 0.73062 0.26948 0.53991
 C1731 C 0.69745 0.80172 1.07762
 N1732 N 0.71037 0.80734 1.07207
 N1733 N 0.71827 0.79955 1.06218
 C1734 C 0.71347 0.78591 1.05752
 N1735 N 0.70051 0.78031 1.06303
 N1736 N 0.69262 0.78810 1.07292
 C1737 C 0.68945 0.80968 1.08895
 C1738 C 0.68297 0.81620 1.09875
 C1739 C 0.72251 0.77704 1.04772
 C1740 C 0.73036 0.76936 1.03994
 C1741 C 0.19735 0.30189 1.07748
 N1742 N 0.19268 0.28819 1.07285
 N1743 N 0.20064 0.28047 1.06295
 C1744 C 0.21349 0.28621 1.05737
 N1745 N 0.21814 0.29994 1.06196
 N1746 N 0.21018 0.30766 1.07186
 C1747 C 0.18931 0.30978 1.08884
 C1748 C 0.18283 0.31623 1.09867
 C1749 C 0.22261 0.27742 1.04758
 C1750 C 0.23052 0.26977 1.03981
 C1751 C 0.19930 0.80191 0.57894
 N1752 N 0.19379 0.78889 0.57339
 N1753 N 0.20141 0.78122 0.56320
 C1754 C 0.21477 0.78635 0.55821
 N1755 N 0.22028 0.79937 0.56376
 N1756 N 0.21265 0.80704 0.57396
 C1757 C 0.19139 0.80977 0.59043
 C1758 C 0.18477 0.81605 0.60029
 C1759 C 0.22344 0.77755 0.54799
 C1760 C 0.23099 0.76983 0.53993
 C1761 C 0.30169 0.69880 0.57802
 N1762 N 0.28873 0.69326 0.57246
 N1763 N 0.28094 0.70109 0.56252
 C1764 C 0.28587 0.71468 0.55781
 N1765 N 0.29884 0.72020 0.56334
 N1766 N 0.30663 0.71237 0.57329
 C1767 C 0.30963 0.69078 0.58935
 C1768 C 0.31611 0.68424 0.59914
 C1769 C 0.27697 0.72357 0.54791
 C1770 C 0.26925 0.73129 0.54004
 C1771 C 0.30178 0.19868 1.07773
 N1772 N 0.30680 0.21219 1.07288
 N1773 N 0.29894 0.22009 1.06304
 C1774 C 0.28581 0.21472 1.05773
 N1775 N 0.28080 0.20120 1.06255
 N1776 N 0.28867 0.19329 1.07239
 C1777 C 0.30981 0.19060 1.08898
 C1778 C 0.31637 0.18404 1.09870
 C1779 C 0.27686 0.22369 1.04791
 C1780 C 0.26914 0.23146 1.04008
 C1781 C 0.80219 0.69862 1.07749
 N1782 N 0.80715 0.71214 1.07262
 N1783 N 0.79920 0.72002 1.06283
 C1784 C 0.78606 0.71461 1.05761
 N1785 N 0.78112 0.70107 1.06244
 N1786 N 0.78907 0.69319 1.07223
 C1787 C 0.81025 0.69060 1.08873
 C1788 C 0.81681 0.68407 1.09846
 C1789 C 0.77701 0.72355 1.04789
 C1790 C 0.76918 0.73127 1.04013
 C1791 C 0.80174 0.19853 0.57788
 N1792 N 0.78868 0.19311 0.57246
 N1793 N 0.78087 0.20100 0.56257
 C1794 C 0.78588 0.21453 0.55779
 N1795 N 0.79896 0.21993 0.56318
 N1796 N 0.80677 0.21204 0.57308
 C1797 C 0.80972 0.19044 0.58914
 C1798 C 0.81625 0.18386 0.59887
 C1799 C 0.77698 0.22347 0.54792
 C1800 C 0.76925 0.23121 0.54008
 C1801 C 0.69782 0.69775 0.42258
 N1802 N 0.71113 0.69254 0.42762
 N1803 N 0.71901 0.70046 0.43740
 C1804 C 0.71381 0.71382 0.44246
 N1805 N 0.70048 0.71901 0.43746
 N1806 N 0.69260 0.71109 0.42767
 C1807 C 0.68978 0.68968 0.41138
 C1808 C 0.68323 0.68312 0.40167
 C1809 C 0.72277 0.72282 0.45218
 C1810 C 0.73054 0.73061 0.45991
 C1811 C 0.69787 0.19773 -0.07777
 N1812 N 0.71106 0.19240 -0.07254
 N1813 N 0.71891 0.20031 -0.06272
 C1814 C 0.71381 0.21377 -0.05783
 N1815 N 0.70060 0.21907 -0.06302
 N1816 N 0.69274 0.21116 -0.07284
 C1817 C 0.68992 0.18970 -0.08906
 C1818 C 0.68346 0.18319 -0.09884
 C1819 C 0.72277 0.22277 -0.04812
 C1820 C 0.73054 0.23056 -0.04039
 C1821 C 0.19779 0.69836 -0.07815
 N1822 N 0.21089 0.69287 -0.07287
 N1823 N 0.21884 0.70070 -0.06306
 C1824 C 0.21392 0.71425 -0.05822
 N1825 N 0.20080 0.71972 -0.06347
 N1826 N 0.19285 0.71190 -0.07328
 C1827 C 0.18968 0.69034 -0.08935
 C1828 C 0.18311 0.68377 -0.09904
 C1829 C 0.22296 0.72312 -0.04844
 C1830 C 0.23081 0.73079 -0.04065
 C1831 C 0.19929 0.19741 0.42114
 N1832 N 0.21293 0.19252 0.42559
 N1833 N 0.22068 0.20021 0.43566
 C1834 C 0.21503 0.21300 0.44159
 N1835 N 0.20138 0.21787 0.43716
 N1836 N 0.19362 0.21019 0.42710
 C1837 C 0.19131 0.18965 0.40967
 C1838 C 0.18470 0.18343 0.39978
 C1839 C 0.22382 0.22186 0.45161
 C1840 C 0.23143 0.22960 0.45955
 C1841 C 0.30153 0.42063 0.69832
 N1842 N 0.30703 0.42584 0.71135
 N1843 N 0.29939 0.43592 0.71923
 C1844 C 0.28604 0.44112 0.71430
 N1845 N 0.28056 0.43595 0.70125
 N1846 N 0.28819 0.42587 0.69337
 C1847 C 0.30927 0.40906 0.69033
 C1848 C 0.31556 0.39905 0.68385
 C1849 C 0.27729 0.45109 0.72331
 C1850 C 0.26969 0.45899 0.73112
 C1851 C 0.30172 0.92133 0.19806
 N1852 N 0.30715 0.92671 0.21105
 N1853 N 0.29932 0.93665 0.21891
 C1854 C 0.28583 0.94152 0.21401
 N1855 N 0.28042 0.93617 0.20101
 N1856 N 0.28825 0.92623 0.19314
 C1857 C 0.30979 0.91005 0.18998
 C1858 C 0.31635 0.90032 0.18334
 C1859 C 0.27697 0.95144 0.22297
 C1860 C 0.26932 0.95932 0.23074
 C1861 C 0.80120 0.42053 0.19857
 N1862 N 0.80642 0.42541 0.21183
 N1863 N 0.79877 0.43553 0.21964
 C1864 C 0.78568 0.44110 0.21442
 N1865 N 0.78047 0.43624 0.20114
 N1866 N 0.78812 0.42612 0.19333
 C1867 C 0.80900 0.40901 0.19056
 C1868 C 0.81536 0.39907 0.18404
 C1869 C 0.77694 0.45120 0.22328
 C1870 C 0.76932 0.45923 0.23095
 C1871 C 0.80086 0.92096 0.69838
 N1872 N 0.80610 0.92593 0.71160
 N1873 N 0.79837 0.93598 0.71943
 C1874 C 0.78518 0.94136 0.71427
 N1875 N 0.77996 0.93642 0.70103
 N1876 N 0.78769 0.92638 0.69320
 C1877 C 0.80873 0.90950 0.69037
 C1878 C 0.81515 0.89961 0.68385
 C1879 C 0.77636 0.95134 0.72319
 C1880 C 0.76870 0.95927 0.73090
 C1881 C 0.69929 0.57930 0.69875
 N1882 N 0.69407 0.57429 0.71197
 N1883 N 0.70173 0.56413 0.71972
 C1884 C 0.71484 0.55864 0.71445
 N1885 N 0.72005 0.56362 0.70121
 N1886 N 0.71238 0.57379 0.69346
 C1887 C 0.69145 0.59085 0.69083
 C1888 C 0.68501 0.60080 0.68438
 C1889 C 0.72361 0.54855 0.72330
 C1890 C 0.73120 0.54056 0.73104
 C1891 C 0.69938 0.07881 0.19867
 N1892 N 0.69413 0.07383 0.21190
 N1893 N 0.70181 0.06372 0.21970
 C1894 C 0.71496 0.05827 0.21450
 N1895 N 0.72020 0.06322 0.20125
 N1896 N 0.71251 0.07333 0.19345
 C1897 C 0.69156 0.09035 0.19071
 C1898 C 0.68517 0.10031 0.18425
 C1899 C 0.72375 0.04824 0.22339
 C1900 C 0.73138 0.04028 0.23112
 C1901 C 0.19898 0.57900 0.19817
 N1902 N 0.19366 0.57392 0.21134
 N1903 N 0.20133 0.56380 0.21914
 C1904 C 0.21455 0.55845 0.21400
 N1905 N 0.21985 0.56349 0.20082
 N1906 N 0.21217 0.57361 0.19302
 C1907 C 0.19118 0.59055 0.19023
 C1908 C 0.18480 0.60053 0.18377
 C1909 C 0.22333 0.54843 0.22291
 C1910 C 0.23096 0.54048 0.23065
 C1911 C 0.19899 0.07898 0.69914
 N1912 N 0.21202 0.07339 0.69377
 N1913 N 0.21976 0.06329 0.70153
 C1914 C 0.21469 0.05845 0.71488
 N1915 N 0.20164 0.06400 0.72023
 N1916 N 0.19390 0.07411 0.71247
 C1917 C 0.19112 0.09050 0.69122
 C1918 C 0.18470 0.10045 0.68476
 C1919 C 0.22354 0.04841 0.72370
 C1920 C 0.23122 0.04044 0.73136
 C1921 C 0.30092 0.57914 0.30112
 N1922 N 0.30618 0.57404 0.28794
 N1923 N 0.29849 0.56388 0.28023
 C1924 C 0.28534 0.55851 0.28548
 N1925 N 0.28011 0.56358 0.29868
 N1926 N 0.28779 0.57373 0.30639
 C1927 C 0.30876 0.59069 0.30900
 C1928 C 0.31516 0.60063 0.31544
 C1929 C 0.27655 0.54845 0.27668
 C1930 C 0.26890 0.54048 0.26901
 C1931 C 0.30167 0.07864 0.80173
 N1932 N 0.28854 0.07321 0.80699
 N1933 N 0.28083 0.06313 0.79922
 C1934 C 0.28601 0.05817 0.78596
 N1935 N 0.29915 0.06358 0.78072
 N1936 N 0.30687 0.07366 0.78849
 C1937 C 0.30949 0.09016 0.80965
 C1938 C 0.31585 0.10013 0.81610
 C1939 C 0.27716 0.04820 0.77711
 C1940 C 0.26946 0.04029 0.76944
 C1941 C 0.80148 0.57877 0.80169
 N1942 N 0.78826 0.57352 0.80691
 N1943 N 0.78046 0.56351 0.79914
 C1944 C 0.78566 0.55842 0.78594
 N1945 N 0.79890 0.56364 0.78074
 N1946 N 0.80669 0.57366 0.78850
 C1947 C 0.80946 0.59016 0.80965
 C1948 C 0.81595 0.59999 0.81617
 C1949 C 0.77679 0.54845 0.77711
 C1950 C 0.76910 0.54053 0.76944
 C1951 C 0.80164 0.07872 0.30144
 N1952 N 0.80685 0.07359 0.28826
 N1953 N 0.79912 0.06346 0.28057
 C1954 C 0.78595 0.05814 0.28584
 N1955 N 0.78076 0.06324 0.29904
 N1956 N 0.78849 0.07337 0.30673
 C1957 C 0.80948 0.09030 0.30927
 C1958 C 0.81584 0.10030 0.31568
 C1959 C 0.77709 0.04811 0.27705
 C1960 C 0.76939 0.04017 0.26941
 C1961 C 0.69880 0.42120 0.30135
 N1962 N 0.69365 0.42612 0.28806
 N1963 N 0.70137 0.43620 0.28027
 C1964 C 0.71446 0.44168 0.28554
 N1965 N 0.71960 0.43678 0.29884
 N1966 N 0.71188 0.42670 0.30663
 C1967 C 0.69093 0.40972 0.30932
 C1968 C 0.68448 0.39983 0.31583
 C1969 C 0.72329 0.45168 0.27666
 C1970 C 0.73098 0.45959 0.26895
 C1971 C 0.69812 0.92114 0.80149
 N1972 N 0.71134 0.92643 0.80664
 N1973 N 0.71911 0.93642 0.79881
 C1974 C 0.71389 0.94146 0.78559
 N1975 N 0.70066 0.93619 0.78044
 N1976 N 0.69288 0.92620 0.78828
 C1977 C 0.69011 0.90984 0.80958
 C1978 C 0.68356 0.90012 0.81625
 C1979 C 0.72273 0.95144 0.77670
 C1980 C 0.73043 0.95937 0.76901
 C1981 C 0.19958 0.42093 0.80258
 N1982 N 0.21377 0.42439 0.80659
 N1983 N 0.22166 0.43431 0.79876
 C1984 C 0.21561 0.44107 0.78669
 N1985 N 0.20141 0.43763 0.78270
 N1986 N 0.19351 0.42771 0.79053
 C1987 C 0.19137 0.40965 0.81054
 C1988 C 0.18458 0.39993 0.81697
 C1989 C 0.22444 0.45099 0.77770
 C1990 C 0.23206 0.45890 0.76990
 C1991 C 0.19860 0.92129 0.30154
 N1992 N 0.21182 0.92654 0.30674
 N1993 N 0.21969 0.93644 0.29889
 C1994 C 0.21458 0.94141 0.28561
 N1995 N 0.20136 0.93618 0.28041
 N1996 N 0.19348 0.92628 0.28827
 C1997 C 0.19049 0.91008 0.30965
 C1998 C 0.18385 0.90044 0.31634
 C1999 C 0.22351 0.95133 0.27673
 C2000 C 0.23124 0.95924 0.26906
 C2001 C 0.42128 0.30059 0.69776
 N2002 N 0.42629 0.30602 0.71090
 N2003 N 0.43632 0.29835 0.71878
 C2004 C 0.44165 0.28502 0.71377
 N2005 N 0.43668 0.27962 0.70061
 N2006 N 0.42665 0.28729 0.69272
 C2007 C 0.40976 0.30835 0.68977
 C2008 C 0.39978 0.31468 0.68331
 C2009 C 0.45156 0.27623 0.72278
 C2010 C 0.45943 0.26858 0.73058
 C2011 C 0.42144 0.80138 0.19770
 N2012 N 0.42640 0.80674 0.21089
 N2013 N 0.43635 0.79900 0.21880
 C2014 C 0.44167 0.78568 0.21376
 N2015 N 0.43673 0.78033 0.20056
 N2016 N 0.42678 0.78807 0.19265
 C2017 C 0.41014 0.80933 0.18956
 C2018 C 0.40040 0.81585 0.18293
 C2019 C 0.45158 0.77688 0.22276
 C2020 C 0.45945 0.76925 0.23058
 C2021 C 0.92098 0.30092 0.19807
 N2022 N 0.92627 0.30651 0.21103
 N2023 N 0.93636 0.29887 0.21887
 C2024 C 0.94147 0.28540 0.21399
 N2025 N 0.93620 0.27983 0.20101
 N2026 N 0.92612 0.28747 0.19317
 C2027 C 0.90946 0.30870 0.19010
 C2028 C 0.89950 0.31506 0.18363
 C2029 C 0.95147 0.27667 0.22296
 C2030 C 0.95940 0.26907 0.23075
 C2031 C 0.92075 0.80085 0.69809
 N2032 N 0.92567 0.80618 0.71130
 N2033 N 0.93575 0.79851 0.71912
 C2034 C 0.94123 0.78531 0.71396
 N2035 N 0.93634 0.78000 0.70073
 N2036 N 0.92625 0.78767 0.69291
 C2037 C 0.90927 0.80867 0.69010
 C2038 C 0.89937 0.81508 0.68362
 C2039 C 0.95124 0.77655 0.72288
 C2040 C 0.95918 0.76894 0.73065
 C2041 C 0.57927 0.30085 0.30113
 N2042 N 0.57445 0.30602 0.28781
 N2043 N 0.56437 0.29832 0.28005
 C2044 C 0.55880 0.28522 0.28538
 N2045 N 0.56361 0.28006 0.29870
 N2046 N 0.57369 0.28776 0.30647
 C2047 C 0.59068 0.30875 0.30911
 C2048 C 0.60050 0.31522 0.31564
 C2049 C 0.54874 0.27644 0.27656
 C2050 C 0.54075 0.26882 0.26888
 C2051 C 0.57815 0.80182 0.80172
 N2052 N 0.57354 0.80684 0.78828
 N2053 N 0.56357 0.79907 0.78046
 C2054 C 0.55788 0.78605 0.78585
 N2055 N 0.56246 0.78104 0.79930
 N2056 N 0.57244 0.78881 0.80713
 C2057 C 0.58947 0.80976 0.80979
 C2058 C 0.59920 0.81625 0.81643
 C2059 C 0.54795 0.77718 0.77697
 C2060 C 0.54007 0.76946 0.76927
 C2061 C 0.07870 0.30098 0.80164
 N2062 N 0.07342 0.30645 0.78861
 N2063 N 0.06332 0.29876 0.78086
 C2064 C 0.05818 0.28537 0.78592
 N2065 N 0.06343 0.27993 0.79896
 N2066 N 0.07352 0.28761 0.80671
 C2067 C 0.09028 0.30877 0.80948
 C2068 C 0.10030 0.31507 0.81586
 C2069 C 0.04819 0.27657 0.77704
 C2070 C 0.04027 0.26891 0.76932
 C2071 C 0.07878 0.80193 0.30143
 N2072 N 0.07414 0.80700 0.28801
 N2073 N 0.06422 0.79920 0.28014
 C2074 C 0.05862 0.78611 0.28546
 N2075 N 0.06324 0.78106 0.29889
 N2076 N 0.07316 0.78886 0.30676
 C2077 C 0.08999 0.80996 0.30958
 C2078 C 0.09962 0.81653 0.31629
 C2079 C 0.04868 0.77724 0.27658
 C2080 C 0.04077 0.76956 0.26888
 C2081 C 0.57890 0.69931 0.69871
 N2082 N 0.57393 0.69408 0.71194
 N2083 N 0.56379 0.70177 0.71966
 C2084 C 0.55828 0.71491 0.71436
 N2085 N 0.56322 0.72013 0.70110
 N2086 N 0.57337 0.71244 0.69338
 C2087 C 0.59045 0.69147 0.69082
 C2088 C 0.60039 0.68506 0.68440
 C2089 C 0.54822 0.72372 0.72317
 C2090 C 0.54024 0.73136 0.73088
 C2091 C 0.57897 0.19859 0.19826
 N2092 N 0.57398 0.19335 0.21148
 N2093 N 0.56384 0.20105 0.21919
 C2094 C 0.55837 0.21421 0.21390
 N2095 N 0.56333 0.21944 0.20066
 N2096 N 0.57347 0.21174 0.19294
 C2097 C 0.59057 0.19080 0.19041
 C2098 C 0.60058 0.18445 0.18403
 C2099 C 0.54838 0.22307 0.22274
 C2100 C 0.54048 0.23078 0.23045
 C2101 C 0.07903 0.69904 0.19830
 N2102 N 0.07403 0.69380 0.21153
 N2103 N 0.06395 0.70155 0.21928
 C2104 C 0.05856 0.71477 0.21403
 N2105 N 0.06354 0.71999 0.20079
 N2106 N 0.07362 0.71224 0.19304
 C2107 C 0.09053 0.69116 0.19039
 C2108 C 0.10046 0.68475 0.18393
 C2109 C 0.04858 0.72364 0.22288
 C2110 C 0.04066 0.73135 0.23057
 C2111 C 0.07864 0.19854 0.69864
 N2112 N 0.07369 0.19332 0.71189
 N2113 N 0.06360 0.20105 0.71964
 C2114 C 0.05814 0.21422 0.71436
 N2115 N 0.06306 0.21942 0.70108
 N2116 N 0.07315 0.21169 0.69334
 C2117 C 0.09020 0.19071 0.69076
 C2118 C 0.10019 0.18435 0.68436
 C2119 C 0.04815 0.22309 0.72321
 C2120 C 0.04025 0.23079 0.73091
 C2121 C 0.42087 0.69926 0.30153
 N2122 N 0.42587 0.69401 0.28832
 N2123 N 0.43597 0.70172 0.28058
 C2124 C 0.44139 0.71490 0.28583
 N2125 N 0.43641 0.72014 0.29906
 N2126 N 0.42631 0.71243 0.30680
 C2127 C 0.40935 0.69142 0.30942
 C2128 C 0.39942 0.68500 0.31583
 C2129 C 0.45139 0.72373 0.27698
 C2130 C 0.45931 0.73138 0.26926
 C2131 C 0.42119 0.19848 0.80168
 N2132 N 0.42667 0.21166 0.80687
 N2133 N 0.43674 0.21934 0.79904
 C2134 C 0.44164 0.21405 0.78580
 N2135 N 0.43619 0.20085 0.78063
 N2136 N 0.42613 0.19318 0.78846
 C2137 C 0.40966 0.19071 0.80963
 C2138 C 0.39969 0.18439 0.81609
 C2139 C 0.45160 0.22286 0.77687
 C2140 C 0.45949 0.23052 0.76911
 C2141 C 0.92124 0.69875 0.80188
 N2142 N 0.92650 0.71206 0.80697
 N2143 N 0.93647 0.71982 0.79911
 C2144 C 0.94149 0.71448 0.78593
 N2145 N 0.93625 0.70117 0.78085
 N2146 N 0.92628 0.69341 0.78871
 C2147 C 0.90990 0.69080 0.80992
 C2148 C 0.90010 0.68431 0.81647
 C2149 C 0.95140 0.72332 0.77698
 C2150 C 0.95927 0.73098 0.76922
 C2151 C 0.92113 0.19891 0.30172
 N2152 N 0.92664 0.21203 0.30702
 N2153 N 0.93670 0.21976 0.29925
 C2154 C 0.94157 0.21459 0.28595
 N2155 N 0.93610 0.20144 0.28068
 N2156 N 0.92604 0.19371 0.28845
 C2157 C 0.90962 0.19107 0.30963
 C2158 C 0.89967 0.18468 0.31605
 C2159 C 0.95153 0.22344 0.27708
 C2160 C 0.95942 0.23112 0.26935
 C2161 C 0.30168 0.30122 0.57751
 N2162 N 0.30680 0.28782 0.57247
 N2163 N 0.29889 0.27994 0.56268
 C2164 C 0.28561 0.28522 0.55762
 N2165 N 0.28051 0.29864 0.56262
 N2166 N 0.28843 0.30652 0.57241
 C2167 C 0.30974 0.30924 0.58874
 C2168 C 0.31631 0.31577 0.59846
 C2169 C 0.27662 0.27625 0.54788
 C2170 C 0.26887 0.26848 0.54011
 C2171 C 0.30163 0.80152 0.07777
 N2172 N 0.30663 0.78797 0.07303
 N2173 N 0.29886 0.78014 0.06308
 C2174 C 0.28586 0.78563 0.05755
 N2175 N 0.28088 0.79921 0.06227
 N2176 N 0.28865 0.80704 0.07222
 C2177 C 0.30960 0.80958 0.08906
 C2178 C 0.31614 0.81615 0.09877
 C2179 C 0.27700 0.77674 0.04762
 C2180 C 0.26931 0.76901 0.03974
 C2181 C 0.80179 0.30140 0.07744
 N2182 N 0.80689 0.28796 0.07250
 N2183 N 0.79904 0.28010 0.06264
 C2184 C 0.78586 0.28545 0.05741
 N2185 N 0.78078 0.29892 0.06232
 N2186 N 0.78863 0.30678 0.07217
 C2187 C 0.80977 0.30941 0.08872
 C2188 C 0.81627 0.31593 0.09848
 C2189 C 0.77691 0.27650 0.04764
 C2190 C 0.76915 0.26875 0.03986
 C2191 C 0.80196 0.80191 0.57742
 N2192 N 0.78873 0.80719 0.57225
 N2193 N 0.78087 0.79928 0.56244
 C2194 C 0.78602 0.78586 0.55748
 N2195 N 0.79927 0.78060 0.56261
 N2196 N 0.80712 0.78850 0.57243
 C2197 C 0.80997 0.80998 0.58864
 C2198 C 0.81650 0.81655 0.59835
 C2199 C 0.77707 0.77687 0.54773
 C2200 C 0.76930 0.76909 0.53999
 C2201 C 0.30218 0.69803 0.42224
 N2202 N 0.28900 0.69273 0.42751
 N2203 N 0.28116 0.70065 0.43734
 C2204 C 0.28625 0.71410 0.44222
 N2205 N 0.29944 0.71939 0.43698
 N2206 N 0.30729 0.71147 0.42715
 C2207 C 0.31017 0.68994 0.41100
 C2208 C 0.31669 0.68336 0.40127
 C2209 C 0.27729 0.72310 0.45198
 C2210 C 0.26950 0.73089 0.45973
 C2211 C 0.30205 0.19829 0.92233
 N2212 N 0.28888 0.19303 0.92766
 N2213 N 0.28108 0.20099 0.93750
 C2214 C 0.28622 0.21446 0.94231
 N2215 N 0.29941 0.21970 0.93702
 N2216 N 0.30721 0.21173 0.92718
 C2217 C 0.30998 0.19019 0.91105
 C2218 C 0.31645 0.18363 0.90128
 C2219 C 0.27731 0.22353 0.95204
 C2220 C 0.26957 0.23139 0.95976
 C2221 C 0.80186 0.69822 0.92220
 N2222 N 0.78882 0.69273 0.92761
 N2223 N 0.78095 0.70056 0.93749
 C2224 C 0.78590 0.71411 0.94227
 N2225 N 0.79896 0.71958 0.93689
 N2226 N 0.80683 0.71175 0.92701
 C2227 C 0.80987 0.69021 0.91092
 C2228 C 0.81641 0.68369 0.90117
 C2229 C 0.77691 0.72302 0.95207
 C2230 C 0.76911 0.73075 0.95985
 C2231 C 0.80166 0.19834 0.42185
 N2232 N 0.78850 0.19300 0.42712
 N2233 N 0.78068 0.20086 0.43703
 C2234 C 0.78580 0.21428 0.44198
 N2235 N 0.79897 0.21961 0.43672
 N2236 N 0.80679 0.21175 0.42682
 C2237 C 0.80967 0.19027 0.41059
 C2238 C 0.81622 0.18370 0.40088
 C2239 C 0.77691 0.22321 0.45185
 C2240 C 0.76918 0.23096 0.45969
 C2241 C 0.69770 0.30198 0.42230
 N2242 N 0.71087 0.30736 0.42749
 N2243 N 0.71878 0.29950 0.43732
 C2244 C 0.71377 0.28602 0.44224
 N2245 N 0.70057 0.28067 0.43709
 N2246 N 0.69266 0.28854 0.42727
 C2247 C 0.68970 0.30996 0.41100
 C2248 C 0.68321 0.31645 0.40120
 C2249 C 0.72281 0.27706 0.45195
 C2250 C 0.73063 0.26931 0.45968
 C2251 C 0.69770 0.80121 0.92170
 N2252 N 0.71068 0.80675 0.92718
 N2253 N 0.71853 0.79895 0.93710
 C2254 C 0.71363 0.78536 0.94186
 N2255 N 0.70063 0.77983 0.93641
 N2256 N 0.69278 0.78764 0.92649
 C2257 C 0.68970 0.80923 0.91042
 C2258 C 0.68317 0.81580 0.90070
 C2259 C 0.72258 0.77652 0.95174
 C2260 C 0.73037 0.76886 0.95961
 C2261 C 0.19851 0.30204 0.92126
 N2262 N 0.21219 0.30691 0.92558
 N2263 N 0.22006 0.29921 0.93557
 C2264 C 0.21449 0.28641 0.94157
 N2265 N 0.20080 0.28155 0.93727
 N2266 N 0.19293 0.28925 0.92728
 C2267 C 0.19044 0.30982 0.90984
 C2268 C 0.18383 0.31610 0.89996
 C2269 C 0.22341 0.27756 0.95152
 C2270 C 0.23114 0.26988 0.95944
 C2271 C 0.19811 0.80148 0.42154
 N2272 N 0.21115 0.80700 0.42692
 N2273 N 0.21904 0.79918 0.43680
 C2274 C 0.21414 0.78562 0.44160
 N2275 N 0.20109 0.78011 0.43624
 N2276 N 0.19320 0.78793 0.42636
 C2277 C 0.19000 0.80955 0.41036
 C2278 C 0.18338 0.81619 0.40073
 C2279 C 0.22310 0.77679 0.45150
 C2280 C 0.23087 0.76914 0.45940
 C2281 C 0.69785 0.69847 0.57790
 N2282 N 0.71092 0.69293 0.57259
 N2283 N 0.71885 0.70071 0.56273
 C2284 C 0.71395 0.71426 0.55786
 N2285 N 0.70085 0.71978 0.56314
 N2286 N 0.69292 0.71200 0.57301
 C2287 C 0.68978 0.69051 0.58918
 C2288 C 0.68323 0.68400 0.59894
 C2289 C 0.72298 0.72311 0.54804
 C2290 C 0.73079 0.73078 0.54022
 C2291 C 0.69790 0.19779 0.07750
 N2292 N 0.71103 0.19237 0.07221
 N2293 N 0.71891 0.20022 0.06235
 C2294 C 0.71390 0.21373 0.05747
 N2295 N 0.70075 0.21913 0.06273
 N2296 N 0.69287 0.21128 0.07259
 C2297 C 0.68989 0.18979 0.08880
 C2298 C 0.68339 0.18327 0.09857
 C2299 C 0.72289 0.22266 0.04769
 C2300 C 0.73068 0.23039 0.03990
 C2301 C 0.19777 0.69835 0.07730
 N2302 N 0.21082 0.69282 0.07192
 N2303 N 0.21873 0.70063 0.06206
 C2304 C 0.21383 0.71421 0.05726
 N2305 N 0.20076 0.71972 0.06260
 N2306 N 0.19285 0.71191 0.07247
 C2307 C 0.18973 0.69036 0.08859
 C2308 C 0.18321 0.68383 0.09835
 C2309 C 0.22287 0.72310 0.04747
 C2310 C 0.23071 0.73079 0.03968
 C2311 C 0.19765 0.19773 0.57775
 N2312 N 0.21069 0.19220 0.57237
 N2313 N 0.21856 0.19997 0.56244
 C2314 C 0.21360 0.21351 0.55757
 N2315 N 0.20053 0.21901 0.56291
 N2316 N 0.19267 0.21124 0.57285
 C2317 C 0.18966 0.18980 0.58912
 C2318 C 0.18318 0.18333 0.59895
 C2319 C 0.22260 0.22238 0.54774
 C2320 C 0.23042 0.23008 0.53994
   
