data_POSCAR
  _audit_creation_date              2014-09-24
  _audit_creation_method            'ToBaCCo'
  _symmetry_space_group_name_H-M    'P1'
  _symmetry_Int_Tables_number       1
  _symmetry_cell_setting            triclinic
  loop_
  _symmetry_equiv_pos_as_xyz
 x,y,z
_cell_length_a 59.2290
_cell_length_b 43.5549
_cell_length_c 44.4068
_cell_angle_alpha 90.057200
_cell_angle_beta 89.791400
_cell_angle_gamma 90.303300
loop_
  _atom_site_label
  _atom_site_type_symbol
  _atom_site_fract_x
  _atom_site_fract_y
  _atom_site_fract_z
C1 C 1.22004 0.26053 0.29898
 H2 H 1.22081 0.23587 0.30166
 C3 C 1.20547 0.27771 0.31698
 H4 H 1.19522 0.26610 0.33374
 C5 C 1.23268 0.30549 0.27393
 H6 H 1.24332 0.31624 0.25716
 C7 C 1.21831 0.32359 0.29147
 H8 H 1.21779 0.34811 0.28759
 N9 N 1.23286 0.27447 0.27748
 C10 C 1.24088 0.20441 0.20793
 H11 H 1.25906 0.20298 0.20599
 C12 C 1.22713 0.18570 0.19001
 H13 H 1.23484 0.16965 0.17449
 C14 C 1.20874 0.22691 0.23072
 H15 H 1.20154 0.24333 0.24616
 C16 C 1.19442 0.20864 0.21338
 H17 H 1.17633 0.21130 0.21575
 Zn18 Zn 1.25061 0.24851 0.25280
 N19 N 1.23153 0.22410 0.22819
 C20 C 1.26748 0.19249 0.27696
 N21 N 1.26793 0.22358 0.27880
 C22 C 1.28072 0.23811 0.29974
 C23 C 1.29459 0.22145 0.31901
 C24 C 1.28110 0.17480 0.29572
 C25 C 1.26081 0.29040 0.20617
 C26 C 1.27472 0.30824 0.18753
 C27 C 1.30723 0.28664 0.21226
 C28 C 1.29275 0.26922 0.23031
 N29 N 1.26998 0.27180 0.22742
 H30 H 1.25653 0.18123 0.26096
 H31 H 1.28061 0.26293 0.30090
 H32 H 1.30536 0.23474 0.33368
 H33 H 1.27934 0.15020 0.29377
 H34 H 1.24266 0.29162 0.20395
 H35 H 1.26714 0.32345 0.17122
 H36 H 1.32529 0.28418 0.21493
 H37 H 1.29980 0.25362 0.24657
 C38 C 1.20355 0.18744 0.19294
 C39 C 1.20416 0.30963 0.31299
 C40 C 1.29828 0.30673 0.19075
 C41 C 1.29552 0.18895 0.31716
 C42 C 0.71968 -0.23909 0.29741
 H43 H 0.72026 -0.26379 0.29979
 C44 C 0.70530 -0.22192 0.31568
 H45 H 0.69500 -0.23359 0.33235
 C46 C 0.73264 -0.19401 0.27286
 H47 H 0.74335 -0.18321 0.25620
 C48 C 0.71846 -0.17591 0.29068
 H49 H 0.71814 -0.15134 0.28712
 N50 N 0.73258 -0.22508 0.27604
 C51 C 0.74025 -0.29464 0.20590
 H52 H 0.75842 -0.29614 0.20393
 C53 C 0.72644 -0.31323 0.18794
 H54 H 0.73411 -0.32925 0.17235
 C55 C 0.70818 -0.27216 0.22889
 H56 H 0.70103 -0.25581 0.24445
 C57 C 0.69380 -0.29029 0.21149
 H58 H 0.67572 -0.28761 0.21393
 Zn59 Zn 0.75017 -0.25100 0.25110
 N60 N 0.73096 -0.27504 0.22630
 C61 C 0.76656 -0.30751 0.27485
 N62 N 0.76736 -0.27636 0.27688
 C63 C 0.78045 -0.26208 0.29778
 C64 C 0.79421 -0.27916 0.31683
 C65 C 0.78007 -0.32550 0.29348
 C66 C 0.76058 -0.20868 0.20490
 C67 C 0.77458 -0.19079 0.18643
 C68 C 0.80698 -0.21320 0.21070
 C69 C 0.79241 -0.23065 0.22860
 N70 N 0.76966 -0.22769 0.22587
 H71 H 0.75559 -0.31850 0.25870
 H72 H 0.78054 -0.23727 0.29916
 H73 H 0.80509 -0.26725 0.33257
 H74 H 0.77933 -0.35026 0.29142
 H75 H 0.74243 -0.20715 0.20280
 H76 H 0.76708 -0.17524 0.17036
 H77 H 0.82503 -0.21596 0.21324
 H78 H 0.79938 -0.24658 0.24461
 C79 C 0.70287 -0.31144 0.19094
 C80 C 0.70426 -0.18993 0.31210
 C81 C 0.79813 -0.19268 0.18950
 C82 C 0.79435 -0.31132 0.31457
 C83 C 0.72173 0.26057 -0.20057
 H84 H 0.72453 0.23665 -0.19542
 C85 C 0.70724 0.27775 -0.18244
 H86 H 0.69884 0.26674 -0.16361
 C87 C 0.73016 0.30424 -0.23035
 H88 H 0.73918 0.31466 -0.24885
 C89 C 0.71578 0.32229 -0.21280
 H90 H 0.71362 0.34626 -0.21850
 N91 N 0.73246 0.27375 -0.22444
 C92 C 0.73492 0.22118 -0.30340
 H93 H 0.74825 0.23422 -0.31410
 C94 C 0.72056 0.20314 -0.32108
 H95 H 0.72271 0.20310 -0.34530
 C96 C 0.71583 0.20537 -0.25907
 H97 H 0.71419 0.20593 -0.23488
 C98 C 0.70114 0.18704 -0.27583
 H99 H 0.68833 0.17368 -0.26424
 Zn100 Zn 0.75081 0.24799 -0.24883
 N101 N 0.73209 0.22240 -0.27299
 C102 C 0.77025 0.19267 -0.22825
 N103 N 0.76830 0.22330 -0.22302
 C104 C 0.77923 0.23711 -0.19975
 C105 C 0.79319 0.22004 -0.18093
 C106 C 0.78403 0.17472 -0.20997
 C107 C 0.76183 0.29065 -0.29511
 C108 C 0.77613 0.30838 -0.31326
 C109 C 0.80798 0.28660 -0.28738
 C110 C 0.79303 0.26931 -0.26989
 N111 N 0.77040 0.27182 -0.27369
 H112 H 0.76144 0.18222 -0.24694
 H113 H 0.77742 0.26155 -0.19622
 H114 H 0.80227 0.23163 -0.16307
 H115 H 0.78545 0.15038 -0.21453
 H116 H 0.74373 0.29205 -0.29801
 H117 H 0.76811 0.32393 -0.32875
 H118 H 0.82572 0.28226 -0.28402
 H119 H 0.79968 0.25356 -0.25344
 C120 C 0.70320 0.18606 -0.30732
 C121 C 0.70383 0.30896 -0.18874
 C122 C 0.79990 0.30708 -0.30964
 C123 C 0.79591 0.18845 -0.18612
 C124 C 1.22023 -0.23990 -0.20169
 H125 H 1.22088 -0.26459 -0.19920
 C126 C 1.20589 -0.22270 -0.18338
 H127 H 1.19570 -0.23433 -0.16657
 C128 C 1.23294 -0.19489 -0.22659
 H129 H 1.24353 -0.18413 -0.24342
 C130 C 1.21881 -0.17677 -0.20875
 H131 H 1.21839 -0.15222 -0.21245
 N132 N 1.23298 -0.22594 -0.22326
 C133 C 1.24025 -0.29543 -0.29347
 H134 H 1.25841 -0.29690 -0.29564
 C135 C 1.22634 -0.31389 -0.31141
 H136 H 1.23392 -0.32980 -0.32718
 C137 C 1.20830 -0.27307 -0.27004
 H138 H 1.20124 -0.25680 -0.25433
 C139 C 1.19383 -0.29109 -0.28741
 H140 H 1.17576 -0.28840 -0.28479
 Zn141 Zn 1.25041 -0.25187 -0.24834
 N142 N 1.23107 -0.27593 -0.27289
 C143 C 1.26699 -0.30832 -0.22477
 N144 N 1.26778 -0.27717 -0.22275
 C145 C 1.28097 -0.26287 -0.20197
 C146 C 1.29482 -0.27993 -0.18302
 C147 C 1.28059 -0.32630 -0.20625
 C148 C 1.26038 -0.20979 -0.29483
 C149 C 1.27418 -0.19192 -0.31357
 C150 C 1.30683 -0.21386 -0.28948
 C151 C 1.29245 -0.23130 -0.27131
 N152 N 1.26968 -0.22856 -0.27383
 H153 H 1.25596 -0.31933 -0.24083
 H154 H 1.28104 -0.23806 -0.20059
 H155 H 1.30577 -0.26801 -0.16737
 H156 H 1.27986 -0.35106 -0.20829
 H157 H 1.24221 -0.20845 -0.29675
 H158 H 1.26651 -0.17656 -0.32968
 H159 H 1.32491 -0.21643 -0.28710
 H160 H 1.29960 -0.24705 -0.25526
 C161 C 1.20279 -0.31209 -0.30819
 C162 C 1.20474 -0.19074 -0.18714
 C163 C 1.29775 -0.19357 -0.31073
 C164 C 1.29496 -0.31209 -0.18527
 C165 C 0.26017 0.20971 0.70175
 H166 H 0.24202 0.20708 0.70053
 C167 C 0.27407 0.19293 0.68233
 H168 H 0.26650 0.17746 0.66612
 C169 C 0.29205 0.23371 0.72386
 H170 H 0.29905 0.24989 0.73975
 C171 C 0.30653 0.21754 0.70484
 H172 H 0.32458 0.22101 0.70688
 N173 N 0.26933 0.22927 0.72231
 C174 C 0.21935 0.23832 0.79416
 H175 H 0.21906 0.26309 0.79604
 C176 C 0.20553 0.22049 0.81276
 H177 H 0.19436 0.23245 0.82800
 C178 C 0.23361 0.19392 0.77024
 H179 H 0.24488 0.18361 0.75402
 C180 C 0.22001 0.17511 0.78831
 H181 H 0.22169 0.15055 0.78572
 Zn182 Zn 0.24984 0.25166 0.74813
 N183 N 0.23267 0.22495 0.77302
 C184 C 0.20758 0.27066 0.72530
 N185 N 0.23029 0.27517 0.72361
 C186 C 0.23939 0.29558 0.70375
 C187 C 0.22544 0.31308 0.68520
 C188 C 0.19305 0.28754 0.70714
 C189 C 0.28058 0.26302 0.79420
 C190 C 0.29435 0.28017 0.81339
 C191 C 0.27933 0.32651 0.79153
 C192 C 0.26581 0.30844 0.77274
 N193 N 0.26702 0.27728 0.77398
 H194 H 0.20062 0.25384 0.74062
 H195 H 0.25754 0.29828 0.70239
 H196 H 0.23297 0.32918 0.66950
 H197 H 0.17501 0.28394 0.70926
 H198 H 0.28101 0.23821 0.79494
 H199 H 0.30557 0.26831 0.82859
 H200 H 0.27825 0.35127 0.79012
 H201 H 0.25449 0.31938 0.75711
 C202 C 0.20530 0.18816 0.80991
 C203 C 0.29761 0.19673 0.68379
 C204 C 0.29403 0.31238 0.81198
 C205 C 0.20191 0.30915 0.68680
 C206 C 0.76033 0.70966 0.70358
 H207 H 0.74218 0.70706 0.70223
 C208 C 0.77430 0.69277 0.68434
 H209 H 0.76679 0.67722 0.66815
 C210 C 0.79213 0.73379 0.72575
 H211 H 0.79908 0.75008 0.74156
 C212 C 0.80668 0.71752 0.70691
 H213 H 0.82471 0.72102 0.70904
 N214 N 0.76941 0.72937 0.72407
 C215 C 0.71946 0.73987 0.79575
 H216 H 0.71992 0.76462 0.79789
 C217 C 0.70522 0.72261 0.81429
 H218 H 0.69557 0.73481 0.83113
 C219 C 0.73290 0.69490 0.77204
 H220 H 0.74372 0.68416 0.75553
 C221 C 0.71890 0.67662 0.79012
 H222 H 0.71893 0.65217 0.78601
 Zn223 Zn 0.74990 0.75219 0.74953
 N224 N 0.73253 0.72596 0.77467
 C225 C 0.70773 0.77102 0.72643
 N226 N 0.73044 0.77550 0.72467
 C227 C 0.73954 0.79565 0.70455
 C228 C 0.72557 0.81291 0.68579
 C229 C 0.69319 0.78765 0.70806
 C230 C 0.78047 0.76387 0.79570
 C231 C 0.79432 0.78111 0.81471
 C232 C 0.77980 0.82731 0.79200
 C233 C 0.76619 0.80915 0.77340
 N234 N 0.76712 0.77800 0.77515
 H235 H 0.70077 0.75441 0.74196
 H236 H 0.75768 0.79833 0.70314
 H237 H 0.73309 0.82881 0.66988
 H238 H 0.67515 0.78407 0.71024
 H239 H 0.78069 0.73906 0.79683
 H240 H 0.80538 0.76931 0.83018
 H241 H 0.77896 0.85207 0.79018
 H242 H 0.75505 0.82001 0.75751
 C243 C 0.70425 0.69030 0.81143
 C244 C 0.79784 0.69661 0.68590
 C245 C 0.79430 0.81329 0.81278
 C246 C 0.70203 0.80899 0.68743
 C247 C 0.76094 0.20932 0.20286
 H248 H 0.74282 0.20647 0.20138
 C249 C 0.77511 0.19275 0.18360
 H250 H 0.76775 0.17723 0.16724
 C251 C 0.79249 0.23363 0.22547
 H252 H 0.79927 0.24985 0.24150
 C253 C 0.80723 0.21767 0.20662
 H254 H 0.82523 0.22134 0.20893
 N255 N 0.76982 0.22892 0.22360
 C256 C 0.71914 0.23696 0.29476
 H257 H 0.71858 0.26171 0.29675
 C258 C 0.70536 0.21875 0.31307
 H259 H 0.69400 0.22973 0.32886
 C260 C 0.73424 0.19283 0.27103
 H261 H 0.74569 0.18279 0.25486
 C262 C 0.72070 0.17371 0.28888
 H263 H 0.72189 0.14906 0.28622
 Zn264 Zn 0.74997 0.25094 0.24924
 N265 N 0.73287 0.22387 0.27384
 C266 C 0.70773 0.26940 0.22591
 N267 N 0.73041 0.27425 0.22454
 C268 C 0.73951 0.29486 0.20489
 C269 C 0.72556 0.31226 0.18624
 C270 C 0.69320 0.28617 0.20764
 C271 C 0.78033 0.26257 0.29568
 C272 C 0.79396 0.27984 0.31494
 C273 C 0.77879 0.32604 0.29299
 C274 C 0.76542 0.30785 0.27413
 N275 N 0.76679 0.27671 0.27536
 H276 H 0.70078 0.25242 0.24106
 H277 H 0.75764 0.29782 0.20378
 H278 H 0.73308 0.32854 0.17071
 H279 H 0.67517 0.28231 0.20951
 H280 H 0.78089 0.23776 0.29641
 H281 H 0.80520 0.26807 0.33019
 H282 H 0.77762 0.35080 0.29156
 H283 H 0.75411 0.31869 0.25842
 C284 C 0.70583 0.18666 0.31003
 C285 C 0.79861 0.19680 0.18541
 C286 C 0.79352 0.31204 0.31350
 C287 C 0.70205 0.30801 0.18752
 C288 C 0.26103 0.70960 0.20259
 H289 H 0.24288 0.70721 0.20103
 C290 C 0.27501 0.69277 0.18332
 H291 H 0.26750 0.67747 0.16689
 C292 C 0.29284 0.73315 0.22532
 H293 H 0.29979 0.74919 0.24138
 C294 C 0.30740 0.71692 0.20646
 H295 H 0.32544 0.72020 0.20880
 N296 N 0.27012 0.72899 0.22336
 C297 C 0.21983 0.73934 0.29457
 H298 H 0.22028 0.76407 0.29678
 C299 C 0.20530 0.72204 0.31267
 H300 H 0.19478 0.73365 0.32905
 C301 C 0.23321 0.69432 0.27057
 H302 H 0.24414 0.68360 0.25419
 C303 C 0.21889 0.67608 0.28825
 H304 H 0.21869 0.65146 0.28486
 Zn305 Zn 0.25059 0.75171 0.24881
 N306 N 0.23300 0.72541 0.27355
 C307 C 0.20861 0.77064 0.22540
 N308 N 0.23131 0.77532 0.22401
 C309 C 0.24049 0.79582 0.20430
 C310 C 0.22659 0.81325 0.18559
 C311 C 0.19415 0.78742 0.20707
 C312 C 0.28075 0.76271 0.29546
 C313 C 0.29450 0.77952 0.31493
 C314 C 0.28055 0.82607 0.29241
 C315 C 0.26703 0.80822 0.27344
 N316 N 0.26775 0.77712 0.27483
 H317 H 0.20159 0.75374 0.24057
 H318 H 0.25863 0.79864 0.20317
 H319 H 0.23416 0.82944 0.17001
 H320 H 0.17611 0.78367 0.20895
 H321 H 0.28087 0.73787 0.29623
 H322 H 0.30543 0.76636 0.32934
 H323 H 0.27860 0.85065 0.29083
 H324 H 0.25592 0.81935 0.25766
 C325 C 0.20439 0.69000 0.30927
 C326 C 0.29855 0.69633 0.18516
 C327 C 0.29510 0.81207 0.31363
 C328 C 0.20307 0.80911 0.18687
 O329 O 1.03274 0.05317 0.05525
 O330 O 1.05737 0.02601 0.02568
 C331 C 1.05300 0.04543 0.04707
 O332 O 0.96871 -0.05551 0.05182
 O333 O 0.94384 -0.02582 0.02533
 C334 C 0.94836 -0.04741 0.04445
 O335 O 1.03203 -0.05285 0.05462
 O336 O 1.05704 -0.02558 0.02542
 C337 C 1.05241 -0.04524 0.04652
 O338 O 0.96976 0.05704 0.05253
 O339 O 0.94455 0.02778 0.02579
 C340 C 0.94933 0.04925 0.04505
 Zr341 Zr 1.00109 0.03927 0.03781
 O342 O 0.99939 0.04025 0.08540
 O343 O 1.00261 0.08767 0.03491
 Zr344 Zr 1.00055 -0.03807 0.03773
 O345 O 0.99952 -0.03513 0.08522
 O346 O 1.00252 -0.08656 0.03903
 O347 O 1.02103 0.00044 0.04334
 O348 O 0.98109 0.00066 0.04354
 O349 O 0.96935 0.05748 -0.05163
 O350 O 0.94438 0.02776 -0.02480
 C351 C 0.94900 0.04939 -0.04394
 O352 O 1.03199 -0.05254 -0.05556
 O353 O 1.05720 -0.02516 -0.02690
 C354 C 1.05243 -0.04485 -0.04790
 O355 O 0.96863 -0.05534 -0.05240
 O356 O 0.94399 -0.02598 -0.02497
 C357 C 0.94836 -0.04730 -0.04452
 O358 O 1.03238 0.05399 -0.05555
 O359 O 1.05721 0.02610 -0.02726
 C360 C 1.05269 0.04594 -0.04813
 Zr361 Zr 1.00079 0.03945 -0.03801
 O362 O 0.99801 0.03942 -0.08553
 O363 O 1.00328 0.08794 -0.03753
 Zr364 Zr 1.00036 -0.03802 -0.03829
 O365 O 0.99767 -0.03774 -0.08583
 O366 O 1.00262 -0.08652 -0.03851
 Zr367 Zr 1.03446 0.00041 -0.00064
 Zr368 Zr 0.96694 0.00069 0.00020
 O369 O 0.98087 0.00081 -0.04347
 O370 O 1.02072 0.00063 -0.04438
 O371 O 0.98076 0.04535 0.00019
 O372 O 1.02006 -0.04384 -0.00050
 O373 O 1.02077 0.04487 -0.00028
 O374 O 0.98028 -0.04409 -0.00009
 H375 H 0.97093 0.00071 0.06133
 H376 H 1.03009 -0.06198 -0.00060
 H377 H 0.97061 0.00094 -0.06104
 H378 H 1.03113 0.06280 -0.00029
 H379 H 0.99095 -0.09467 0.02508
 H380 H 0.99000 -0.09459 -0.02615
 H381 H 1.01053 -0.02566 -0.09384
 H382 H 1.01047 0.02680 -0.09363
 H383 H 0.99281 0.09543 -0.02176
 H384 H 1.00278 0.09532 0.05593
 H385 H 1.00841 0.02275 0.09275
 H386 H 0.99922 -0.05657 0.09267
 O387 O 1.03165 0.55390 0.55429
 O388 O 1.05634 0.52660 0.52490
 C389 C 1.05193 0.54618 0.54613
 O390 O 0.96804 0.44489 0.55213
 O391 O 0.94297 0.47422 0.52559
 C392 C 0.94765 0.45280 0.54485
 O393 O 1.03132 0.44793 0.55453
 O394 O 1.05620 0.47505 0.52500
 C395 C 1.05166 0.45553 0.54627
 O396 O 0.96838 0.55709 0.55169
 O397 O 0.94316 0.52733 0.52537
 C398 C 0.94793 0.54900 0.54443
 Zr399 Zr 0.99997 0.53970 0.53714
 O400 O 0.99840 0.54127 0.58472
 O401 O 1.00127 0.58808 0.53394
 Zr402 Zr 0.99975 0.46238 0.53772
 O403 O 0.99889 0.46571 0.58519
 O404 O 1.00188 0.41392 0.53943
 O405 O 1.02009 0.50106 0.54291
 O406 O 0.98018 0.50103 0.54336
 O407 O 0.96799 0.55703 0.44776
 O408 O 0.94321 0.52745 0.47503
 C409 C 0.94768 0.54893 0.45567
 O410 O 1.03062 0.44705 0.44407
 O411 O 1.05584 0.47475 0.47232
 C412 C 1.05105 0.45490 0.45149
 O413 O 0.96751 0.44417 0.44785
 O414 O 0.94296 0.47368 0.47521
 C415 C 0.94727 0.45222 0.45580
 O416 O 1.03101 0.55379 0.44360
 O417 O 1.05603 0.52632 0.47199
 C418 C 1.05138 0.54594 0.45098
 Zr419 Zr 0.99951 0.53922 0.46135
 O420 O 0.99657 0.53865 0.41384
 O421 O 1.00186 0.58772 0.46131
 Zr422 Zr 0.99921 0.46170 0.46172
 O423 O 0.99633 0.46144 0.41421
 O424 O 1.00161 0.41322 0.46229
 Zr425 Zr 1.03343 0.50071 0.49887
 Zr426 Zr 0.96592 0.50064 0.50009
 O427 O 0.97966 0.50044 0.45634
 O428 O 1.01950 0.50043 0.45522
 O429 O 0.97956 0.54539 0.49959
 O430 O 1.01913 0.45639 0.49942
 O431 O 1.01956 0.54508 0.49893
 O432 O 0.97932 0.45591 0.50011
 H433 H 0.97008 0.50116 0.56120
 H434 H 1.02922 0.43831 0.49941
 H435 H 0.96933 0.50040 0.43883
 H436 H 1.02985 0.56309 0.49874
 H437 H 0.99033 0.40562 0.52557
 H438 H 0.98879 0.40523 0.47434
 H439 H 1.00886 0.47403 0.40602
 H440 H 1.00924 0.52640 0.40577
 H441 H 0.99155 0.59532 0.47720
 H442 H 1.00130 0.59587 0.55492
 H443 H 1.00737 0.52378 0.59221
 H444 H 0.99867 0.44434 0.59282
 O445 O 0.53158 0.05278 0.55459
 O446 O 0.55636 0.02535 0.52539
 C447 C 0.55189 0.04500 0.54655
 O448 O 0.46773 -0.05680 0.55093
 O449 O 0.44302 -0.02691 0.52437
 C450 C 0.44744 -0.04866 0.54339
 O451 O 0.53115 -0.05367 0.55399
 O452 O 0.55613 -0.02595 0.52510
 C453 C 0.55152 -0.04586 0.54601
 O454 O 0.46822 0.05618 0.55155
 O455 O 0.44325 0.02664 0.52462
 C456 C 0.44785 0.04824 0.54384
 Zr457 Zr 0.49986 0.03828 0.53787
 O458 O 0.49874 0.03379 0.58523
 O459 O 0.50222 0.08668 0.54075
 Zr460 Zr 0.49953 -0.03888 0.53743
 O461 O 0.49847 -0.03483 0.58484
 O462 O 0.50143 -0.08731 0.53975
 O463 O 0.51993 -0.00035 0.54330
 O464 O 0.47983 -0.00030 0.54314
 O465 O 0.46822 0.05623 0.44774
 O466 O 0.44330 0.02666 0.47485
 C467 C 0.44787 0.04817 0.45556
 O468 O 0.53119 -0.05301 0.44394
 O469 O 0.55613 -0.02557 0.47289
 C470 C 0.55154 -0.04520 0.45177
 O471 O 0.46772 -0.05578 0.44702
 O472 O 0.44306 -0.02647 0.47449
 C473 C 0.44744 -0.04774 0.45490
 O474 O 0.53170 0.05325 0.44450
 O475 O 0.55636 0.02542 0.47315
 C476 C 0.55198 0.04524 0.45222
 Zr477 Zr 0.49991 0.03892 0.46164
 O478 O 0.49736 0.03939 0.41410
 O479 O 0.50274 0.08740 0.46220
 Zr480 Zr 0.49955 -0.03874 0.46119
 O481 O 0.49702 -0.03872 0.41365
 O482 O 0.50189 -0.08723 0.46121
 Zr483 Zr 0.53328 -0.00015 0.49928
 Zr484 Zr 0.46617 -0.00006 0.49955
 O485 O 0.48015 0.00015 0.45593
 O486 O 0.51984 0.00009 0.45538
 O487 O 0.47986 0.04471 0.49984
 O488 O 0.51909 -0.04452 0.49919
 O489 O 0.51950 0.04426 0.49971
 O490 O 0.47945 -0.04487 0.49934
 H491 H 0.46939 -0.00036 0.56063
 H492 H 0.52920 -0.06258 0.49907
 H493 H 0.46992 0.00026 0.43833
 H494 H 0.52978 0.06228 0.49978
 H495 H 0.49142 -0.09554 0.52387
 H496 H 0.48884 -0.09534 0.47271
 H497 H 0.50951 -0.02586 0.40574
 H498 H 0.50971 0.02656 0.40603
 H499 H 0.48977 0.09545 0.47382
 H500 H 0.49229 0.09510 0.52497
 H501 H 0.49858 0.05499 0.59334
 H502 H 0.49811 -0.05611 0.59271
 O503 O 0.53238 0.55224 0.05431
 O504 O 0.55709 0.52500 0.02480
 C505 C 0.55268 0.54454 0.04609
 O506 O 0.46852 0.44320 0.05199
 O507 O 0.44371 0.47278 0.02543
 C508 C 0.44821 0.45123 0.04460
 O509 O 0.53154 0.44636 0.05453
 O510 O 0.55645 0.47363 0.02525
 C511 C 0.55188 0.45401 0.04640
 O512 O 0.46916 0.55624 0.05203
 O513 O 0.44403 0.52682 0.02533
 C514 C 0.44876 0.54837 0.04453
 Zr515 Zr 0.50047 0.53841 0.03735
 O516 O 0.49878 0.53956 0.08494
 O517 O 0.50193 0.58681 0.03448
 Zr518 Zr 0.50007 0.46104 0.03763
 O519 O 0.49905 0.46454 0.08509
 O520 O 0.50214 0.41257 0.03919
 O521 O 0.52047 0.49967 0.04309
 O522 O 0.48052 0.49976 0.04320
 O523 O 0.46846 0.55585 -0.05189
 O524 O 0.44347 0.52606 -0.02500
 C525 C 0.44808 0.54766 -0.04420
 O526 O 0.53112 0.44611 -0.05616
 O527 O 0.55624 0.47354 -0.02755
 C528 C 0.55151 0.45385 -0.04855
 O529 O 0.46785 0.44371 -0.05240
 O530 O 0.44322 0.47312 -0.02496
 C531 C 0.44758 0.45178 -0.04449
 O532 O 0.53196 0.55262 -0.05576
 O533 O 0.55685 0.52492 -0.02730
 C534 C 0.55231 0.54469 -0.04823
 Zr535 Zr 0.50019 0.53824 -0.03850
 O536 O 0.49746 0.53813 -0.08603
 O537 O 0.50254 0.58674 -0.03858
 Zr538 Zr 0.49977 0.46072 -0.03845
 O539 O 0.49706 0.46021 -0.08596
 O540 O 0.50209 0.41222 -0.03781
 Zr541 Zr 0.53382 0.49952 -0.00093
 Zr542 Zr 0.46643 0.49962 -0.00018
 O543 O 0.48034 0.49954 -0.04385
 O544 O 0.52011 0.49943 -0.04469
 O545 O 0.48018 0.54431 -0.00034
 O546 O 0.51955 0.45519 -0.00062
 O547 O 0.52009 0.54394 -0.00077
 O548 O 0.47975 0.45483 -0.00020
 H549 H 0.47035 0.49988 0.06097
 H550 H 0.52964 0.43711 -0.00068
 H551 H 0.47008 0.49960 -0.06142
 H552 H 0.53042 0.56191 -0.00086
 H553 H 0.49107 0.40439 0.02460
 H554 H 0.48883 0.40422 -0.02665
 H555 H 0.50916 0.47362 -0.09405
 H556 H 0.51018 0.52598 -0.09411
 H557 H 0.49234 0.59430 -0.02254
 H558 H 0.50236 0.59444 0.05550
 H559 H 0.50822 0.52251 0.09236
 H560 H 0.49898 0.44320 0.09280
 C561 C 1.15806 0.13196 0.14061
 C562 C 1.17745 0.14441 0.12711
 C563 C 1.19259 0.16195 0.14421
 C564 C 1.18838 0.16738 0.17496
 C565 C 1.16909 0.15421 0.18839
 C566 C 1.15406 0.13667 0.17132
 C567 C 1.14156 0.11567 0.12296
 C568 C 1.12693 0.10267 0.10900
 C569 C 1.10860 0.08800 0.09329
 C570 C 1.11275 0.06627 0.07073
 C571 C 1.09469 0.05228 0.05566
 C572 C 1.07225 0.05991 0.06303
 C573 C 1.06834 0.08174 0.08582
 C574 C 1.08638 0.09564 0.10080
 H575 H 1.18065 0.14103 0.10330
 H576 H 1.20720 0.17201 0.13322
 H577 H 1.16559 0.15757 0.21211
 H578 H 1.13911 0.12714 0.18200
 H579 H 1.12991 0.06017 0.06477
 H580 H 1.09832 0.03555 0.03827
 H581 H 1.05133 0.08818 0.09211
 H582 H 1.08298 0.11242 0.11825
 C583 C 1.15698 0.63302 0.63940
 C584 C 1.17630 0.64558 0.62583
 C585 C 1.19153 0.66297 0.64294
 C586 C 1.18748 0.66811 0.67378
 C587 C 1.16824 0.65484 0.68726
 C588 C 1.15312 0.63747 0.67018
 C589 C 1.14043 0.61681 0.62177
 C590 C 1.12579 0.60384 0.60781
 C591 C 1.10747 0.58916 0.59210
 C592 C 1.11165 0.56722 0.56975
 C593 C 1.09361 0.55313 0.55474
 C594 C 1.07116 0.56086 0.56196
 C595 C 1.06722 0.58293 0.58452
 C596 C 1.08524 0.59693 0.59944
 H597 H 1.17938 0.64240 0.60197
 H598 H 1.20609 0.67310 0.63191
 H599 H 1.16486 0.65799 0.71105
 H600 H 1.13822 0.62785 0.68091
 H601 H 1.12880 0.56101 0.56392
 H602 H 1.09725 0.53621 0.53752
 H603 H 1.05020 0.58946 0.59068
 H604 H 1.08183 0.61387 0.61673
 C605 C 0.65584 0.13401 0.63987
 C606 C 0.67875 0.13417 0.63197
 C607 C 0.69425 0.15104 0.64913
 C608 C 0.68698 0.16790 0.67441
 C609 C 0.66391 0.16753 0.68208
 C610 C 0.64849 0.15071 0.66493
 C611 C 0.63961 0.11717 0.62229
 C612 C 0.62521 0.10374 0.60834
 C613 C 0.60707 0.08864 0.59266
 C614 C 0.61145 0.06692 0.57015
 C615 C 0.59354 0.05257 0.55510
 C616 C 0.57103 0.05982 0.56244
 C617 C 0.56689 0.08164 0.58518
 C618 C 0.58478 0.09590 0.60012
 H619 H 0.68461 0.12131 0.61260
 H620 H 0.71192 0.15064 0.64284
 H621 H 0.65771 0.18066 0.70108
 H622 H 0.63078 0.15087 0.67114
 H623 H 0.62867 0.06112 0.56422
 H624 H 0.59732 0.03586 0.53774
 H625 H 0.54982 0.08781 0.59145
 H626 H 0.58121 0.11266 0.61753
 C627 C 0.65741 0.63279 0.13879
 C628 C 0.67676 0.64528 0.12523
 C629 C 0.69186 0.66297 0.14226
 C630 C 0.68766 0.66851 0.17300
 C631 C 0.66839 0.65533 0.18647
 C632 C 0.65339 0.63764 0.16948
 C633 C 0.64099 0.61622 0.12125
 C634 C 0.62643 0.60297 0.10739
 C635 C 0.60816 0.58798 0.09184
 C636 C 0.61238 0.56628 0.06926
 C637 C 0.59437 0.55199 0.05436
 C638 C 0.57190 0.55929 0.06189
 C639 C 0.56791 0.58109 0.08470
 C640 C 0.58591 0.59528 0.09951
 H641 H 0.67998 0.64179 0.10145
 H642 H 0.70646 0.67302 0.13122
 H643 H 0.66489 0.65876 0.21019
 H644 H 0.63848 0.62808 0.18021
 H645 H 0.62956 0.56043 0.06317
 H646 H 0.59805 0.53531 0.03694
 H647 H 0.55088 0.58729 0.09111
 H648 H 0.58244 0.61203 0.11697
 C649 C 0.84401 -0.13882 0.13576
 C650 C 0.82468 -0.15161 0.12258
 C651 C 0.80947 -0.16873 0.14010
 C652 C 0.81353 -0.17337 0.17097
 C653 C 0.83281 -0.15995 0.18403
 C654 C 0.84792 -0.14285 0.16654
 C655 C 0.86043 -0.12255 0.11781
 C656 C 0.87495 -0.10935 0.10372
 C657 C 0.89314 -0.09415 0.08803
 C658 C 0.88880 -0.07102 0.06701
 C659 C 0.90672 -0.05588 0.05258
 C660 C 0.92923 -0.06372 0.05910
 C661 C 0.93334 -0.08719 0.08011
 C662 C 0.91543 -0.10224 0.09444
 H663 H 0.82155 -0.14874 0.09873
 H664 H 0.79488 -0.17899 0.12937
 H665 H 0.83621 -0.16269 0.20782
 H666 H 0.86281 -0.13303 0.17699
 H667 H 0.87159 -0.06455 0.06191
 H668 H 0.90295 -0.03796 0.03651
 H669 H 0.95041 -0.09387 0.08568
 H670 H 0.91898 -0.12009 0.11071
 C671 C 0.84490 0.35979 0.63749
 C672 C 0.82274 0.35517 0.62791
 C673 C 0.80765 0.33793 0.64547
 C674 C 0.81442 0.32457 0.67320
 C675 C 0.83703 0.33013 0.68240
 C676 C 0.85193 0.34738 0.66477
 C677 C 0.86081 0.37674 0.61936
 C678 C 0.87500 0.39035 0.60508
 C679 C 0.89295 0.40582 0.58921
 C680 C 0.88833 0.42890 0.56823
 C681 C 0.90609 0.44415 0.55354
 C682 C 0.92867 0.43647 0.55977
 C683 C 0.93304 0.41308 0.58077
 C684 C 0.91531 0.39792 0.59534
 H685 H 0.81718 0.36450 0.60660
 H686 H 0.79114 0.33402 0.63595
 H687 H 0.84341 0.32260 0.70389
 H688 H 0.86903 0.35117 0.67260
 H689 H 0.87106 0.43520 0.56335
 H690 H 0.90213 0.46201 0.53749
 H691 H 0.95017 0.40652 0.58612
 H692 H 0.91906 0.38011 0.61157
 C693 C 0.34307 -0.13980 0.63466
 C694 C 0.32375 -0.15292 0.62176
 C695 C 0.30871 -0.17000 0.63956
 C696 C 0.31294 -0.17428 0.67044
 C697 C 0.33220 -0.16053 0.68323
 C698 C 0.34713 -0.14346 0.66545
 C699 C 0.35936 -0.12364 0.61644
 C700 C 0.37384 -0.11054 0.60219
 C701 C 0.39204 -0.09548 0.58643
 C702 C 0.38778 -0.07208 0.56565
 C703 C 0.40576 -0.05697 0.55133
 C704 C 0.42824 -0.06507 0.55773
 C705 C 0.43225 -0.08886 0.57843
 C706 C 0.41429 -0.10389 0.59265
 H707 H 0.32050 -0.15034 0.59790
 H708 H 0.29413 -0.18053 0.62905
 H709 H 0.33572 -0.16299 0.70701
 H710 H 0.36202 -0.13339 0.67568
 H711 H 0.37060 -0.06536 0.56072
 H712 H 0.40206 -0.03880 0.53549
 H713 H 0.44929 -0.09576 0.58389
 H714 H 0.41777 -0.12194 0.60873
 C715 C 0.34392 0.36036 0.13645
 C716 C 0.32472 0.34711 0.12336
 C717 C 0.30958 0.33007 0.14106
 C718 C 0.31358 0.32598 0.17202
 C719 C 0.33271 0.33988 0.18498
 C720 C 0.34775 0.35690 0.16732
 C721 C 0.36030 0.37651 0.11834
 C722 C 0.37480 0.38961 0.10413
 C723 C 0.39298 0.40469 0.08833
 C724 C 0.38864 0.42780 0.06728
 C725 C 0.40657 0.44286 0.05279
 C726 C 0.42908 0.43497 0.05927
 C727 C 0.43318 0.41152 0.08030
 C728 C 0.41526 0.39654 0.09469
 H729 H 0.32165 0.34954 0.09945
 H730 H 0.29510 0.31944 0.13041
 H731 H 0.33605 0.33756 0.20883
 H732 H 0.36254 0.36708 0.17769
 H733 H 0.37144 0.43432 0.06223
 H734 H 0.40281 0.46077 0.03670
 H735 H 0.45024 0.40480 0.08584
 H736 H 0.41881 0.37872 0.11099
 C737 C 0.84347 0.13789 -0.13305
 C738 C 0.84161 0.13227 -0.16396
 C739 C 0.82586 0.14831 -0.18110
 C740 C 0.81175 0.17026 -0.16753
 C741 C 0.81350 0.17540 -0.13633
 C742 C 0.82928 0.15931 -0.11921
 C743 C 0.86062 0.12258 -0.11594
 C744 C 0.87548 0.11002 -0.10228
 C745 C 0.89377 0.09532 -0.08682
 C746 C 0.91603 0.10371 -0.09360
 C747 C 0.93398 0.08899 -0.07944
 C748 C 0.92990 0.06558 -0.05825
 C749 C 0.90741 0.05751 -0.05133
 C750 C 0.88947 0.07230 -0.06557
 H751 H 0.85262 0.11587 -0.17492
 H752 H 0.82518 0.14415 -0.20513
 H753 H 0.80269 0.19189 -0.12518
 H754 H 0.83060 0.16384 -0.09528
 H755 H 0.91954 0.12149 -0.11004
 H756 H 0.95104 0.09582 -0.08530
 H757 H 0.90365 0.03962 -0.03512
 H758 H 0.87228 0.06562 -0.06018
 C759 C 0.84152 0.63737 0.36764
 C760 C 0.83724 0.62890 0.33780
 C761 C 0.82154 0.64516 0.32075
 C762 C 0.80992 0.67021 0.33333
 C763 C 0.81402 0.67818 0.36356
 C764 C 0.82974 0.66187 0.38057
 C765 C 0.85879 0.62188 0.38439
 C766 C 0.87375 0.60923 0.39780
 C767 C 0.89215 0.59450 0.41302
 C768 C 0.91437 0.60276 0.40587
 C769 C 0.93242 0.58814 0.41992
 C770 C 0.92848 0.56494 0.44138
 C771 C 0.90604 0.55696 0.44864
 C772 C 0.88800 0.57165 0.43451
 H773 H 0.84637 0.61009 0.32750
 H774 H 0.81901 0.63871 0.29744
 H775 H 0.80515 0.69711 0.37399
 H776 H 0.83294 0.66864 0.40366
 H777 H 0.91777 0.62041 0.38925
 H778 H 0.94944 0.59490 0.41378
 H779 H 0.90238 0.53924 0.46507
 H780 H 0.87084 0.56507 0.44020
 C781 C 0.34180 0.13868 0.36932
 C782 C 0.33197 0.12540 0.34394
 C783 C 0.31625 0.14171 0.32695
 C784 C 0.30997 0.17217 0.33478
 C785 C 0.31984 0.18467 0.36127
 C786 C 0.33552 0.16816 0.37811
 C787 C 0.35912 0.12265 0.38549
 C788 C 0.37409 0.10959 0.39848
 C789 C 0.39247 0.09441 0.41332
 C790 C 0.41472 0.10234 0.40592
 C791 C 0.43272 0.08744 0.41978
 C792 C 0.42873 0.06430 0.44128
 C793 C 0.40626 0.05661 0.44873
 C794 C 0.38826 0.07158 0.43480
 H795 H 0.33690 0.10260 0.33675
 H796 H 0.31043 0.13059 0.30667
 H797 H 0.31515 0.20683 0.37012
 H798 H 0.34286 0.17856 0.39801
 H799 H 0.41816 0.11998 0.38931
 H800 H 0.44977 0.09398 0.41351
 H801 H 0.40256 0.03895 0.46520
 H802 H 0.37108 0.06527 0.44069
 C803 C 0.34223 0.63658 -0.13240
 C804 C 0.33789 0.62812 -0.16224
 C805 C 0.32216 0.64440 -0.17922
 C806 C 0.31058 0.66945 -0.16659
 C807 C 0.31476 0.67743 -0.13638
 C808 C 0.33050 0.66109 -0.11943
 C809 C 0.35949 0.62103 -0.11569
 C810 C 0.37442 0.60831 -0.10228
 C811 C 0.39275 0.59348 -0.08703
 C812 C 0.41501 0.60182 -0.09395
 C813 C 0.43299 0.58710 -0.07984
 C814 C 0.42895 0.56375 -0.05857
 C815 C 0.40647 0.55570 -0.05156
 C816 C 0.38850 0.57049 -0.06574
 H817 H 0.34698 0.60930 -0.17256
 H818 H 0.31958 0.63795 -0.20252
 H819 H 0.30591 0.69635 -0.12591
 H820 H 0.33374 0.66785 -0.09635
 H821 H 0.41848 0.61958 -0.11042
 H822 H 0.45004 0.59392 -0.08578
 H823 H 0.40275 0.53786 -0.03529
 H824 H 0.37132 0.56385 -0.06024
 C825 C 1.15653 -0.13731 -0.13732
 C826 C 1.17827 -0.12564 -0.14242
 C827 C 1.19410 -0.14305 -0.15842
 C828 C 1.18832 -0.17235 -0.16947
 C829 C 1.16643 -0.18385 -0.16407
 C830 C 1.15069 -0.16644 -0.14811
 C831 C 1.13991 -0.11944 -0.12152
 C832 C 1.12534 -0.10528 -0.10866
 C833 C 1.10725 -0.08936 -0.09377
 C834 C 1.11176 -0.06770 -0.07125
 C835 C 1.09396 -0.05298 -0.05642
 C836 C 1.07140 -0.05981 -0.06395
 C837 C 1.06711 -0.08146 -0.08680
 C838 C 1.08491 -0.09610 -0.10156
 H839 H 1.18297 -0.10310 -0.13414
 H840 H 1.21087 -0.13370 -0.16198
 H841 H 1.16132 -0.20606 -0.17271
 H842 H 1.13386 -0.17562 -0.14443
 H843 H 1.12901 -0.06235 -0.06504
 H844 H 1.09788 -0.03642 -0.03897
 H845 H 1.04999 -0.08727 -0.09322
 H846 H 1.08123 -0.11286 -0.11894
 C847 C 1.15540 0.36285 0.36209
 C848 C 1.17711 0.37470 0.35713
 C849 C 1.19310 0.35738 0.34133
 C850 C 1.18753 0.32797 0.33036
 C851 C 1.16567 0.31630 0.33560
 C852 C 1.14975 0.33362 0.35134
 C853 C 1.13864 0.38058 0.37778
 C854 C 1.12400 0.39465 0.39060
 C855 C 1.10588 0.41050 0.40551
 C856 C 1.11038 0.43241 0.42779
 C857 C 1.09258 0.44709 0.44266
 C858 C 1.07001 0.43996 0.43540
 C859 C 1.06572 0.41806 0.41278
 C860 C 1.08353 0.40346 0.39799
 H861 H 1.18165 0.39731 0.36538
 H862 H 1.20984 0.36687 0.33790
 H863 H 1.16072 0.29399 0.32701
 H864 H 1.13296 0.32429 0.35493
 H865 H 1.12764 0.43800 0.43381
 H866 H 1.09650 0.46384 0.45992
 H867 H 1.04860 0.41201 0.40658
 H868 H 1.07986 0.38651 0.38079
 C869 C 0.65608 -0.13660 0.36215
 C870 C 0.67786 -0.12499 0.35718
 C871 C 0.69366 -0.14235 0.34108
 C872 C 0.68783 -0.17155 0.32980
 C873 C 0.66590 -0.18297 0.33505
 C874 C 0.65018 -0.16562 0.35110
 C875 C 0.63947 -0.11880 0.37807
 C876 C 0.62488 -0.10475 0.39101
 C877 C 0.60670 -0.08902 0.40593
 C878 C 0.61107 -0.06748 0.42861
 C879 C 0.59316 -0.05298 0.44344
 C880 C 0.57064 -0.05992 0.43576
 C881 C 0.56651 -0.08145 0.41275
 C882 C 0.58441 -0.09586 0.39799
 H883 H 0.68260 -0.10254 0.36565
 H884 H 0.71047 -0.13306 0.33765
 H885 H 0.66075 -0.20510 0.32624
 H886 H 0.63333 -0.17475 0.35467
 H887 H 0.62828 -0.06205 0.43495
 H888 H 0.59695 -0.03650 0.46102
 H889 H 0.54943 -0.08735 0.40620
 H890 H 0.58084 -0.11253 0.38048
 C891 C 0.65568 0.36186 -0.13828
 C892 C 0.67631 0.37511 -0.14680
 C893 C 0.69212 0.35789 -0.16299
 C894 C 0.68746 0.32718 -0.17083
 C895 C 0.66672 0.31408 -0.16195
 C896 C 0.65097 0.33131 -0.14581
 C897 C 0.63899 0.37956 -0.12244
 C898 C 0.62441 0.39364 -0.10953
 C899 C 0.60632 0.40949 -0.09456
 C900 C 0.61085 0.43113 -0.07202
 C901 C 0.59305 0.44581 -0.05714
 C902 C 0.57049 0.43894 -0.06463
 C903 C 0.56619 0.41732 -0.08750
 C904 C 0.58398 0.40272 -0.10231
 H905 H 0.68012 0.39876 -0.14107
 H906 H 0.70803 0.36852 -0.16922
 H907 H 0.66246 0.29068 -0.16804
 H908 H 0.63500 0.32088 -0.13947
 H909 H 0.62810 0.43650 -0.06584
 H910 H 0.59697 0.46235 -0.03967
 H911 H 0.54907 0.41148 -0.09389
 H912 H 0.58030 0.38599 -0.11971
 C913 C 1.15883 0.13438 -0.13893
 C914 C 1.16755 0.12305 -0.16597
 C915 C 1.18323 0.14034 -0.18250
 C916 C 1.19045 0.16964 -0.17241
 C917 C 1.18179 0.18023 -0.14452
 C918 C 1.16617 0.16281 -0.12810
 C919 C 1.14153 0.11762 -0.12299
 C920 C 1.12656 0.10424 -0.10992
 C921 C 1.10816 0.08906 -0.09465
 C922 C 1.11234 0.06701 -0.07248
 C923 C 1.09432 0.05281 -0.05739
 C924 C 1.07187 0.06056 -0.06430
 C925 C 1.06790 0.08265 -0.08676
 C926 C 1.08592 0.09677 -0.10178
 H927 H 1.16183 0.10113 -0.17471
 H928 H 1.18855 0.13114 -0.20398
 H929 H 1.18733 0.20168 -0.13469
 H930 H 1.15965 0.17171 -0.10701
 H931 H 1.12951 0.06088 -0.06678
 H932 H 1.09800 0.03588 -0.04028
 H933 H 1.05087 0.08917 -0.09269
 H934 H 1.08250 0.11383 -0.11888
 C935 C 1.15588 0.63653 0.35920
 C936 C 1.17772 0.62524 0.35471
 C937 C 1.19362 0.64260 0.33856
 C938 C 1.18782 0.67149 0.32679
 C939 C 1.16581 0.68256 0.33148
 C940 C 1.14999 0.66521 0.34757
 C941 C 1.13923 0.61885 0.37539
 C942 C 1.12462 0.60494 0.38862
 C943 C 1.10643 0.58939 0.40394
 C944 C 1.11084 0.56772 0.42639
 C945 C 1.09296 0.55337 0.44163
 C946 C 1.07043 0.56060 0.43460
 C947 C 1.06624 0.58227 0.41183
 C948 C 1.08412 0.59653 0.39666
 H949 H 1.18245 0.60306 0.36364
 H950 H 1.21048 0.63359 0.33554
 H951 H 1.16068 0.70444 0.32226
 H952 H 1.13310 0.67409 0.35078
 H953 H 1.12807 0.56206 0.43222
 H954 H 1.09679 0.53677 0.45900
 H955 H 1.04915 0.58838 0.40578
 H956 H 1.08052 0.61331 0.37935
 C957 C 0.65868 0.13220 0.36119
 C958 C 0.66349 0.12457 0.33123
 C959 C 0.67924 0.14182 0.31480
 C960 C 0.69033 0.16702 0.32812
 C961 C 0.68573 0.17409 0.35845
 C962 C 0.66999 0.15680 0.37484
 C963 C 0.64127 0.11588 0.37736
 C964 C 0.62623 0.10282 0.39058
 C965 C 0.60774 0.08796 0.40595
 C966 C 0.61178 0.06597 0.42823
 C967 C 0.59367 0.05195 0.44328
 C968 C 0.57126 0.05980 0.43621
 C969 C 0.56743 0.08187 0.41368
 C970 C 0.58555 0.09581 0.39870
 H971 H 0.65472 0.10570 0.32038
 H972 H 0.68218 0.13604 0.29140
 H973 H 0.69420 0.19309 0.36945
 H974 H 0.66638 0.16292 0.39802
 H975 H 0.62890 0.05973 0.43402
 H976 H 0.59723 0.03504 0.46045
 H977 H 0.55045 0.08847 0.40763
 H978 H 0.58223 0.11282 0.38150
 C979 C 0.65711 0.63682 -0.13807
 C980 C 0.65328 0.66800 -0.14297
 C981 C 0.66884 0.68562 -0.15923
 C982 C 0.68878 0.67244 -0.17115
 C983 C 0.69242 0.64081 -0.16564
 C984 C 0.67674 0.62328 -0.14930
 C985 C 0.64042 0.61883 -0.12226
 C986 C 0.62578 0.60464 -0.10934
 C987 C 0.60755 0.58878 -0.09438
 C988 C 0.58526 0.59559 -0.10207
 C989 C 0.56734 0.58109 -0.08722
 C990 C 0.57143 0.55950 -0.06435
 C991 C 0.59394 0.55257 -0.05691
 C992 C 0.61188 0.56717 -0.07184
 H993 H 0.63798 0.67866 -0.13465
 H994 H 0.66439 0.70924 -0.16351
 H995 H 0.70763 0.62943 -0.17303
 H996 H 0.67994 0.59913 -0.14547
 H997 H 0.58171 0.61232 -0.11945
 H998 H 0.55027 0.58698 -0.09359
 H999 H 0.59772 0.53606 -0.03945
 H1000 H 0.62908 0.56175 -0.06567
 C1001 C 0.84168 -0.13507 -0.13400
 C1002 C 0.83002 -0.15990 -0.12126
 C1003 C 0.81421 -0.17629 -0.13831
 C1004 C 0.80990 -0.16808 -0.16839
 C1005 C 0.82139 -0.14266 -0.18077
 C1006 C 0.83718 -0.12632 -0.16369
 C1007 C 0.85908 -0.11953 -0.11722
 C1008 C 0.87411 -0.10691 -0.10368
 C1009 C 0.89258 -0.09228 -0.08821
 C1010 C 0.88855 -0.06958 -0.06655
 C1011 C 0.90666 -0.05508 -0.05209
 C1012 C 0.92907 -0.06312 -0.05916
 C1013 C 0.93288 -0.08617 -0.08081
 C1014 C 0.91477 -0.10060 -0.09520
 H1015 H 0.83338 -0.16688 -0.09831
 H1016 H 0.80545 -0.19549 -0.12801
 H1017 H 0.81869 -0.13600 -0.20396
 H1018 H 0.84622 -0.10725 -0.17384
 H1019 H 0.87143 -0.06296 -0.06097
 H1020 H 0.90309 -0.03746 -0.03554
 H1021 H 0.94987 -0.09298 -0.08682
 H1022 H 0.91809 -0.11815 -0.11193
 C1023 C 0.84053 0.36390 0.36707
 C1024 C 0.82921 0.33865 0.37956
 C1025 C 0.81350 0.32218 0.36241
 C1026 C 0.80896 0.33075 0.33249
 C1027 C 0.82008 0.35659 0.32039
 C1028 C 0.83578 0.37300 0.33756
 C1029 C 0.85788 0.37949 0.38388
 C1030 C 0.87291 0.39216 0.39737
 C1031 C 0.89140 0.40686 0.41272
 C1032 C 0.88741 0.42980 0.43416
 C1033 C 0.90555 0.44441 0.44844
 C1034 C 0.92795 0.43626 0.44140
 C1035 C 0.93172 0.41296 0.41999
 C1036 C 0.91357 0.39842 0.40579
 H1037 H 0.83277 0.33139 0.40237
 H1038 H 0.80501 0.30265 0.37250
 H1039 H 0.81720 0.36353 0.29732
 H1040 H 0.84456 0.39240 0.32761
 H1041 H 0.87031 0.43652 0.43969
 H1042 H 0.90203 0.46222 0.46481
 H1043 H 0.94869 0.40606 0.41402
 H1044 H 0.91685 0.38069 0.38922
 C1045 C 0.34096 -0.13717 0.36670
 C1046 C 0.33487 -0.16694 0.37500
 C1047 C 0.31931 -0.18360 0.35786
 C1048 C 0.30939 -0.17098 0.33156
 C1049 C 0.31543 -0.14022 0.32428
 C1050 C 0.33104 -0.12375 0.34156
 C1051 C 0.35826 -0.12103 0.38312
 C1052 C 0.37324 -0.10803 0.39637
 C1053 C 0.39170 -0.09306 0.41153
 C1054 C 0.38765 -0.07039 0.43322
 C1055 C 0.40575 -0.05573 0.44754
 C1056 C 0.42817 -0.06358 0.44028
 C1057 C 0.43200 -0.08654 0.41855
 C1058 C 0.41390 -0.10113 0.40431
 H1059 H 0.34229 -0.17746 0.39471
 H1060 H 0.31477 -0.20602 0.36635
 H1061 H 0.30950 -0.12895 0.30420
 H1062 H 0.33582 -0.10072 0.33476
 H1063 H 0.37052 -0.06398 0.43898
 H1064 H 0.40217 -0.03819 0.46415
 H1065 H 0.44899 -0.09319 0.41240
 H1066 H 0.41722 -0.11866 0.38756
 C1067 C 0.34108 0.36397 -0.13424
 C1068 C 0.32970 0.33872 -0.12184
 C1069 C 0.31401 0.32232 -0.13907
 C1070 C 0.30952 0.33096 -0.16898
 C1071 C 0.32071 0.35679 -0.18101
 C1072 C 0.33640 0.37313 -0.16375
 C1073 C 0.35839 0.37952 -0.11732
 C1074 C 0.37338 0.39214 -0.10370
 C1075 C 0.39183 0.40676 -0.08818
 C1076 C 0.38778 0.42964 -0.06671
 C1077 C 0.40588 0.44415 -0.05223
 C1078 C 0.42829 0.43595 -0.05911
 C1079 C 0.43211 0.41272 -0.08057
 C1080 C 0.41401 0.39828 -0.09497
 H1081 H 0.33320 0.33141 -0.09902
 H1082 H 0.30546 0.30280 -0.12904
 H1083 H 0.31788 0.36378 -0.20408
 H1084 H 0.34522 0.39253 -0.17364
 H1085 H 0.37066 0.43640 -0.06128
 H1086 H 0.40231 0.46192 -0.03583
 H1087 H 0.44910 0.40578 -0.08643
 H1088 H 0.41734 0.38059 -0.11156
 C1089 C 1.15704 -0.13794 0.13361
 C1090 C 1.15363 -0.16952 0.13728
 C1091 C 1.16887 -0.18682 0.15404
 C1092 C 1.18776 -0.17275 0.16744
 C1093 C 1.19137 -0.14110 0.16305
 C1094 C 1.17604 -0.12379 0.14629
 C1095 C 1.14039 -0.12011 0.11798
 C1096 C 1.12576 -0.10595 0.10538
 C1097 C 1.10755 -0.09002 0.09091
 C1098 C 1.08526 -0.09678 0.09913
 C1099 C 1.06736 -0.08205 0.08486
 C1100 C 1.07149 -0.06029 0.06206
 C1101 C 1.09401 -0.05344 0.05409
 C1102 C 1.11191 -0.06825 0.06843
 H1103 H 1.13899 -0.18071 0.12754
 H1104 H 1.16582 -0.21121 0.15663
 H1105 H 1.20565 -0.12960 0.17332
 H1106 H 1.17879 -0.09932 0.14369
 H1107 H 1.08169 -0.11360 0.11649
 H1108 H 1.05028 -0.08789 0.09161
 H1109 H 1.09781 -0.03680 0.03667
 H1110 H 1.12912 -0.06286 0.06188
 C1111 C 1.15601 0.36251 0.63365
 C1112 C 1.15231 0.33103 0.63764
 C1113 C 1.16747 0.31359 0.65442
 C1114 C 1.18657 0.32743 0.66753
 C1115 C 1.19043 0.35899 0.66288
 C1116 C 1.17519 0.37644 0.64609
 C1117 C 1.13950 0.38049 0.61791
 C1118 C 1.12496 0.39477 0.60525
 C1119 C 1.10681 0.41081 0.59075
 C1120 C 1.08452 0.40444 0.59927
 C1121 C 1.06664 0.41917 0.58498
 C1122 C 1.07077 0.44058 0.56186
 C1123 C 1.09329 0.44708 0.55359
 C1124 C 1.11118 0.43225 0.56796
 H1125 H 1.13753 0.32000 0.62810
 H1126 H 1.16421 0.28927 0.65721
 H1127 H 1.20487 0.37035 0.67292
 H1128 H 1.17817 0.40083 0.64326
 H1129 H 1.08094 0.38788 0.61687
 H1130 H 1.04957 0.41360 0.59198
 H1131 H 1.09708 0.46344 0.53591
 H1132 H 1.12839 0.43734 0.56117
 C1133 C 0.65598 -0.13845 0.63375
 C1134 C 0.67517 -0.12432 0.64595
 C1135 C 0.69047 -0.14151 0.66289
 C1136 C 0.68667 -0.17302 0.66794
 C1137 C 0.66756 -0.18708 0.65504
 C1138 C 0.65235 -0.16990 0.63810
 C1139 C 0.63939 -0.12071 0.61787
 C1140 C 0.62481 -0.10660 0.60510
 C1141 C 0.60664 -0.09072 0.59047
 C1142 C 0.61103 -0.06882 0.56811
 C1143 C 0.59314 -0.05400 0.55372
 C1144 C 0.57061 -0.06096 0.56152
 C1145 C 0.56645 -0.08288 0.58418
 C1146 C 0.58433 -0.09761 0.59849
 H1147 H 0.67809 -0.09996 0.64283
 H1148 H 0.70491 -0.13000 0.67276
 H1149 H 0.66435 -0.21137 0.65812
 H1150 H 0.63757 -0.18109 0.62874
 H1151 H 0.62825 -0.06332 0.56171
 H1152 H 0.59697 -0.03725 0.53640
 H1153 H 0.54936 -0.08882 0.59080
 H1154 H 0.58073 -0.11452 0.61576
 C1155 C 0.65615 0.36112 0.13413
 C1156 C 0.65263 0.32957 0.13789
 C1157 C 0.66779 0.31222 0.15475
 C1158 C 0.68671 0.32621 0.16817
 C1159 C 0.69040 0.35784 0.16373
 C1160 C 0.67516 0.37520 0.14687
 C1161 C 0.63962 0.37901 0.11831
 C1162 C 0.62509 0.39323 0.10557
 C1163 C 0.60695 0.40922 0.09099
 C1164 C 0.58465 0.40267 0.09929
 C1165 C 0.56679 0.41742 0.08496
 C1166 C 0.57096 0.43900 0.06200
 C1167 C 0.59349 0.44565 0.05394
 C1168 C 0.61137 0.43081 0.06836
 H1169 H 0.63799 0.31842 0.12812
 H1170 H 0.66467 0.28785 0.15737
 H1171 H 0.70469 0.36931 0.17402
 H1172 H 0.67799 0.39964 0.14422
 H1173 H 0.58103 0.38599 0.11677
 H1174 H 0.54970 0.41173 0.09179
 H1175 H 0.59733 0.46214 0.03640
 H1176 H 0.62859 0.43604 0.06174
 C1177 C 0.84515 0.14540 0.13087
 C1178 C 0.82583 0.13105 0.14260
 C1179 C 0.81039 0.14789 0.15981
 C1180 C 0.81416 0.17927 0.16560
 C1181 C 0.83341 0.19358 0.15318
 C1182 C 0.84878 0.17674 0.13597
 C1183 C 0.86187 0.12788 0.11482
 C1184 C 0.87647 0.11372 0.10199
 C1185 C 0.89457 0.09745 0.08742
 C1186 C 0.89003 0.07464 0.06603
 C1187 C 0.90781 0.05890 0.05216
 C1188 C 0.93038 0.06582 0.05957
 C1189 C 0.93470 0.08886 0.08108
 C1190 C 0.91693 0.10451 0.09487
 H1191 H 0.82292 0.10676 0.13892
 H1192 H 0.79586 0.13617 0.16931
 H1193 H 0.83661 0.21779 0.15686
 H1194 H 0.86367 0.18809 0.12699
 H1195 H 0.87277 0.06900 0.06009
 H1196 H 0.90386 0.04135 0.03568
 H1197 H 0.95183 0.09482 0.08734
 H1198 H 0.92064 0.12213 0.11140
 C1199 C 0.84390 0.64483 0.63095
 C1200 C 0.82462 0.63059 0.64295
 C1201 C 0.80932 0.64755 0.66029
 C1202 C 0.81321 0.67893 0.66595
 C1203 C 0.83239 0.69312 0.65324
 C1204 C 0.84761 0.67618 0.63591
 C1205 C 0.86050 0.62722 0.61477
 C1206 C 0.87505 0.61306 0.60183
 C1207 C 0.89315 0.59688 0.58714
 C1208 C 0.88860 0.57384 0.56598
 C1209 C 0.90639 0.55821 0.55199
 C1210 C 0.92897 0.56548 0.55904
 C1211 C 0.93329 0.58875 0.58031
 C1212 C 0.91551 0.60428 0.59422
 H1213 H 0.82164 0.60630 0.63938
 H1214 H 0.79483 0.63592 0.67000
 H1215 H 0.83567 0.71733 0.65680
 H1216 H 0.86246 0.68744 0.62672
 H1217 H 0.87134 0.56793 0.56032
 H1218 H 0.90244 0.54048 0.53571
 H1219 H 0.95042 0.59498 0.58630
 H1220 H 0.91923 0.62208 0.61056
 C1221 C 0.34347 0.14479 0.62872
 C1222 C 0.32418 0.13063 0.64075
 C1223 C 0.30894 0.14765 0.65811
 C1224 C 0.31290 0.17902 0.66377
 C1225 C 0.33209 0.19313 0.65101
 C1226 C 0.34726 0.17612 0.63365
 C1227 C 0.36006 0.12707 0.61264
 C1228 C 0.37463 0.11281 0.59986
 C1229 C 0.39280 0.09651 0.58545
 C1230 C 0.38839 0.07371 0.56399
 C1231 C 0.40627 0.05795 0.55034
 C1232 C 0.42879 0.06484 0.55805
 C1233 C 0.43296 0.08787 0.57962
 C1234 C 0.41511 0.10354 0.59318
 H1235 H 0.32115 0.10634 0.63721
 H1236 H 0.29444 0.13608 0.66787
 H1237 H 0.33544 0.21733 0.65458
 H1238 H 0.36214 0.18731 0.62445
 H1239 H 0.37118 0.06810 0.55783
 H1240 H 0.40244 0.04041 0.53381
 H1241 H 0.45004 0.09381 0.58611
 H1242 H 0.41871 0.12114 0.60976
 C1243 C 0.34461 0.64458 0.13024
 C1244 C 0.32520 0.63043 0.14194
 C1245 C 0.30990 0.64739 0.15926
 C1246 C 0.31392 0.67869 0.16520
 C1247 C 0.33324 0.69280 0.15279
 C1248 C 0.34847 0.67584 0.13547
 C1249 C 0.36122 0.62693 0.11414
 C1250 C 0.37578 0.61273 0.10129
 C1251 C 0.39390 0.59648 0.08675
 C1252 C 0.38940 0.57363 0.06538
 C1253 C 0.40722 0.55793 0.05155
 C1254 C 0.42977 0.56492 0.05898
 C1255 C 0.43405 0.58799 0.08046
 C1256 C 0.41624 0.60360 0.09421
 H1257 H 0.32211 0.60619 0.13815
 H1258 H 0.29529 0.63583 0.16874
 H1259 H 0.33663 0.71695 0.15659
 H1260 H 0.36343 0.68703 0.12653
 H1261 H 0.37216 0.56794 0.05943
 H1262 H 0.40331 0.54035 0.03508
 H1263 H 0.45116 0.59401 0.08674
 H1264 H 0.41992 0.62125 0.11073
   
