data_POSCAR
  _audit_creation_date              2014-09-24
  _audit_creation_method            'ToBaCCo'
  _symmetry_space_group_name_H-M    'P1'
  _symmetry_Int_Tables_number       1
  _symmetry_cell_setting            triclinic
  loop_
  _symmetry_equiv_pos_as_xyz
 x,y,z
_cell_length_a 54.4961
_cell_length_b 54.5053
_cell_length_c 54.4413
_cell_angle_alpha 94.257900
_cell_angle_beta 94.336200
_cell_angle_gamma 94.303500
loop_
  _atom_site_label
  _atom_site_type_symbol
  _atom_site_fract_x
  _atom_site_fract_y
  _atom_site_fract_z
C1 C 0.71902 0.67687 0.97103
 H2 H 0.73689 0.67638 0.96369
 C3 C 0.70098 0.69034 0.95991
 H4 H 0.70502 0.70043 0.94409
 C5 C 0.69128 0.66310 0.99960
 H6 H 0.68723 0.65186 1.01452
 C7 C 0.67279 0.67633 0.98907
 H8 H 0.65470 0.67541 0.99613
 N9 N 0.71385 0.66348 0.99041
 C10 C 0.78289 0.64599 1.02853
 H11 H 0.77799 0.62655 1.02983
 C12 C 0.80604 0.65646 1.03821
 H13 H 0.81899 0.64508 1.04706
 C14 C 0.77225 0.68437 1.01468
 H15 H 0.75907 0.69507 1.00532
 C16 C 0.79535 0.69560 1.02409
 H17 H 0.79997 0.71496 1.02193
 Zn18 Zn 0.73733 0.64222 1.00207
 N19 N 0.76674 0.65984 1.01663
 C20 C 0.76875 0.62300 0.96805
 N21 N 0.74503 0.62189 0.97439
 C22 C 0.72663 0.60825 0.95998
 C23 C 0.73187 0.59497 0.93824
 C24 C 0.77475 0.61004 0.94660
 C25 C 0.72095 0.63638 1.04837
 C26 C 0.71165 0.62436 1.06782
 C27 C 0.70981 0.58570 1.04260
 C28 C 0.71921 0.59853 1.02355
 N29 N 0.72430 0.62346 1.02670
 H30 H 0.78304 0.63441 0.97922
 H31 H 0.70783 0.60811 0.96514
 H32 H 0.71715 0.58431 0.92673
 H33 H 0.79367 0.61125 0.94165
 H34 H 0.72544 0.65614 1.05044
 H35 H 0.70888 0.63500 1.08489
 H36 H 0.70561 0.56588 1.03987
 H37 H 0.72241 0.58858 1.00632
 C38 C 0.81247 0.68138 1.03567
 C39 C 0.67757 0.68982 0.96887
 C40 C 0.70593 0.59879 1.06494
 C41 C 0.75617 0.59604 0.93148
 C42 C 0.73435 0.35913 0.50305
 H43 H 0.75268 0.36082 0.51246
 C44 C 0.71556 0.34415 0.51180
 H45 H 0.71942 0.33417 0.52796
 C46 C 0.70657 0.37098 0.47120
 H47 H 0.70297 0.38195 0.45581
 C48 C 0.68725 0.35621 0.47937
 H49 H 0.66888 0.35571 0.47013
 N50 N 0.72958 0.37217 0.48310
 C51 C 0.80106 0.39028 0.45521
 H52 H 0.80062 0.41007 0.45500
 C53 C 0.82127 0.37874 0.44697
 H54 H 0.83650 0.38965 0.44038
 C55 C 0.78162 0.35178 0.46379
 H56 H 0.76600 0.34131 0.47005
 C57 C 0.80149 0.33949 0.45569
 H58 H 0.80121 0.31961 0.45587
 Zn59 Zn 0.75539 0.39417 0.47434
 N60 N 0.78190 0.37677 0.46367
 C61 C 0.78959 0.41581 0.51314
 N62 N 0.76591 0.41523 0.50304
 C63 C 0.74862 0.42746 0.51466
 C64 C 0.75480 0.44056 0.53764
 C65 C 0.79654 0.42872 0.53600
 C66 C 0.73773 0.39907 0.42583
 C67 C 0.72887 0.41089 0.40549
 C68 C 0.73391 0.44957 0.43080
 C69 C 0.74270 0.43701 0.45072
 N70 N 0.74408 0.41214 0.44796
 H71 H 0.80291 0.40547 0.50404
 H72 H 0.72980 0.42625 0.50648
 H73 H 0.74076 0.44957 0.54716
 H74 H 0.81523 0.42843 0.54426
 H75 H 0.73930 0.37935 0.42413
 H76 H 0.72345 0.40026 0.38805
 H77 H 0.73245 0.46931 0.43318
 H78 H 0.74824 0.44710 0.46834
 C79 C 0.82152 0.35314 0.44731
 C80 C 0.69177 0.34282 0.49995
 C81 C 0.72680 0.43633 0.40804
 C82 C 0.77892 0.44090 0.54852
 C83 C 0.23399 -0.14066 0.00270
 H84 H 0.25234 -0.13900 0.01207
 C85 C 0.21521 -0.15562 0.01150
 H86 H 0.21909 -0.16561 0.02765
 C87 C 0.20616 -0.12877 -0.02907
 H88 H 0.20254 -0.11779 -0.04445
 C89 C 0.18684 -0.14352 -0.02086
 H90 H 0.16846 -0.14400 -0.03006
 N91 N 0.22919 -0.12761 -0.01723
 C92 C 0.30055 -0.10960 -0.04540
 H93 H 0.30011 -0.08981 -0.04564
 C94 C 0.32073 -0.12116 -0.05369
 H95 H 0.33593 -0.11027 -0.06035
 C96 C 0.28115 -0.14808 -0.03669
 H97 H 0.26556 -0.15852 -0.03035
 C98 C 0.30100 -0.16038 -0.04483
 H99 H 0.30073 -0.18025 -0.04460
 Zn100 Zn 0.25499 -0.10565 -0.02608
 N101 N 0.28144 -0.12309 -0.03685
 C102 C 0.28935 -0.08405 0.01260
 N103 N 0.26564 -0.08459 0.00260
 C104 C 0.24842 -0.07234 0.01431
 C105 C 0.25471 -0.05924 0.03727
 C106 C 0.29641 -0.07113 0.03544
 C107 C 0.23719 -0.10075 -0.07453
 C108 C 0.22824 -0.08896 -0.09485
 C109 C 0.23333 -0.05023 -0.06953
 C110 C 0.24221 -0.06280 -0.04965
 N111 N 0.24360 -0.08767 -0.05242
 H112 H 0.30262 -0.09441 0.00344
 H113 H 0.22957 -0.07352 0.00620
 H114 H 0.24073 -0.05021 0.04685
 H115 H 0.31513 -0.07145 0.04361
 H116 H 0.23878 -0.12046 -0.07623
 H117 H 0.22278 -0.09970 -0.11224
 H118 H 0.23190 -0.03048 -0.06702
 H119 H 0.24782 -0.05272 -0.03204
 C120 C 0.32099 -0.14675 -0.05331
 C121 C 0.19140 -0.15692 -0.00029
 C122 C 0.22612 -0.06348 -0.09230
 C123 C 0.27887 -0.05892 0.04804
 C124 C 0.21962 0.17663 0.47057
 H125 H 0.23751 0.17624 0.46325
 C126 C 0.20156 0.19011 0.45950
 H127 H 0.20559 0.20031 0.44374
 C128 C 0.19186 0.16261 0.49901
 H129 H 0.18781 0.15127 0.51385
 C130 C 0.17334 0.17585 0.48853
 H131 H 0.15524 0.17484 0.49555
 N132 N 0.21444 0.16311 0.48986
 C133 C 0.28350 0.14562 0.52795
 H134 H 0.27865 0.12616 0.52913
 C135 C 0.30661 0.15611 0.53772
 H136 H 0.31958 0.14471 0.54653
 C137 C 0.27280 0.18406 0.51430
 H138 H 0.25960 0.19478 0.50499
 C139 C 0.29586 0.19531 0.52382
 H140 H 0.30044 0.21470 0.52177
 Zn141 Zn 0.23798 0.14187 0.50145
 N142 N 0.26734 0.15950 0.51611
 C143 C 0.26948 0.12289 0.46738
 N144 N 0.24576 0.12167 0.47370
 C145 C 0.22741 0.10800 0.45926
 C146 C 0.23271 0.09478 0.43750
 C147 C 0.27554 0.11001 0.44591
 C148 C 0.22154 0.13579 0.54769
 C149 C 0.21228 0.12364 0.56708
 C150 C 0.21065 0.08510 0.54178
 C151 C 0.22000 0.09802 0.52276
 N152 N 0.22496 0.12297 0.52598
 H153 H 0.28374 0.13433 0.47859
 H154 H 0.20861 0.10776 0.46442
 H155 H 0.21804 0.08410 0.42596
 H156 H 0.29447 0.11131 0.44097
 H157 H 0.22593 0.15556 0.54983
 H158 H 0.20942 0.13409 0.58421
 H159 H 0.20651 0.06529 0.53910
 H160 H 0.22326 0.08814 0.50552
 C161 C 0.31300 0.18107 0.53534
 C162 C 0.17812 0.18948 0.46842
 C163 C 0.20671 0.09810 0.56411
 C164 C 0.25702 0.09597 0.43076
 C165 C 0.17745 0.47037 0.21939
 H166 H 0.17703 0.46313 0.23734
 C167 C 0.19091 0.45921 0.20138
 H168 H 0.20105 0.44347 0.20551
 C169 C 0.16352 0.49870 0.19144
 H170 H 0.15220 0.51352 0.18730
 C171 C 0.17673 0.48813 0.17297
 H172 H 0.17573 0.49507 0.15481
 N173 N 0.16397 0.48964 0.21410
 C174 C 0.14631 0.52780 0.28302
 H175 H 0.12685 0.52893 0.27809
 C176 C 0.15673 0.53763 0.30615
 H177 H 0.14529 0.54645 0.31905
 C178 C 0.18481 0.51421 0.27249
 H179 H 0.19557 0.50489 0.25936
 C180 C 0.19600 0.52379 0.29557
 H181 H 0.21539 0.52179 0.30023
 Zn182 Zn 0.14268 0.50125 0.23754
 N183 N 0.16024 0.51596 0.26694
 C184 C 0.12359 0.46727 0.26912
 N185 N 0.12245 0.47356 0.24535
 C186 C 0.10882 0.45911 0.22696
 C187 C 0.09558 0.43738 0.23228
 C188 C 0.11067 0.44583 0.27519
 C189 C 0.13662 0.54738 0.22088
 C190 C 0.12446 0.56674 0.21157
 C191 C 0.08590 0.54145 0.21005
 C192 C 0.09884 0.52248 0.21944
 N193 N 0.12380 0.52571 0.22439
 H194 H 0.13500 0.47848 0.28339
 H195 H 0.10865 0.46423 0.20814
 H196 H 0.08493 0.42583 0.21758
 H197 H 0.11191 0.44092 0.29414
 H198 H 0.15640 0.54953 0.22527
 H199 H 0.13490 0.58384 0.20866
 H200 H 0.06608 0.53877 0.20595
 H201 H 0.08895 0.50527 0.22278
 C202 C 0.18169 0.53532 0.31263
 C203 C 0.19029 0.46803 0.17787
 C204 C 0.09890 0.56375 0.20604
 C205 C 0.09668 0.43067 0.25663
 C206 C -0.14170 0.00358 0.23372
 H207 H -0.14007 0.01289 0.25209
 C208 C -0.15657 0.01245 0.21488
 H209 H -0.16652 0.02860 0.21881
 C210 C -0.12977 -0.02810 0.20589
 H211 H -0.11880 -0.04347 0.20230
 C212 C -0.14442 -0.01983 0.18650
 H213 H -0.14480 -0.02902 0.16811
 N214 N -0.12867 -0.01632 0.22895
 C215 C -0.11067 -0.04448 0.30042
 H216 H -0.09088 -0.04472 0.29996
 C217 C -0.12220 -0.05277 0.32063
 H218 H -0.11129 -0.05944 0.33584
 C219 C -0.14917 -0.03577 0.28103
 H220 H -0.15963 -0.02943 0.26542
 C221 C -0.16145 -0.04393 0.30091
 H222 H -0.18133 -0.04370 0.30065
 Zn223 Zn -0.10673 -0.02518 0.25481
 N224 N -0.12418 -0.03593 0.28129
 C225 C -0.08506 0.01343 0.28916
 N226 N -0.08562 0.00343 0.26544
 C227 C -0.07333 0.01510 0.24820
 C228 C -0.06015 0.03800 0.25448
 C229 C -0.07207 0.03621 0.29621
 C230 C -0.10186 -0.07359 0.23705
 C231 C -0.09003 -0.09389 0.22822
 C232 C -0.05131 -0.06864 0.23345
 C233 C -0.06387 -0.04876 0.24221
 N234 N -0.08877 -0.05150 0.24348
 H235 H -0.09546 0.00430 0.30245
 H236 H -0.07453 0.00700 0.22935
 H237 H -0.05107 0.04755 0.24049
 H238 H -0.07236 0.04437 0.31494
 H239 H -0.12159 -0.07529 0.23854
 H240 H -0.10067 -0.11129 0.22273
 H241 H -0.03155 -0.06627 0.23209
 H242 H -0.05377 -0.03117 0.24782
 C243 C -0.14779 -0.05240 0.32091
 C244 C -0.15779 0.00075 0.19101
 C245 C -0.06456 -0.09135 0.22626
 C246 C -0.05980 0.04876 0.27865
 C247 C 0.35871 0.50325 0.73445
 H248 H 0.36037 0.51255 0.75283
 C249 C 0.34378 0.51211 0.71566
 H250 H 0.33380 0.52822 0.71956
 C251 C 0.37062 0.47162 0.70655
 H252 H 0.38160 0.45627 0.70291
 C253 C 0.35590 0.47989 0.68722
 H254 H 0.35544 0.47077 0.66880
 N255 N 0.37176 0.48336 0.72962
 C256 C 0.38976 0.45515 0.80105
 H257 H 0.40957 0.45499 0.80065
 C258 C 0.37819 0.44675 0.82120
 H259 H 0.38909 0.44009 0.83643
 C260 C 0.35127 0.46373 0.78156
 H261 H 0.34082 0.47006 0.76594
 C262 C 0.33895 0.45547 0.80138
 H263 H 0.31906 0.45560 0.80105
 Zn264 Zn 0.39372 0.47449 0.75545
 N265 N 0.37627 0.46368 0.78190
 C266 C 0.41536 0.51312 0.78982
 N267 N 0.41480 0.50312 0.76610
 C268 C 0.42707 0.51479 0.74885
 C269 C 0.44020 0.53772 0.75512
 C270 C 0.42830 0.53593 0.79685
 C271 C 0.39860 0.42612 0.73761
 C272 C 0.41043 0.40583 0.72873
 C273 C 0.44915 0.43109 0.73399
 C274 C 0.43658 0.45095 0.74279
 N275 N 0.41169 0.44820 0.74407
 H276 H 0.40498 0.50397 0.80311
 H277 H 0.42587 0.50669 0.73000
 H278 H 0.44925 0.54728 0.74111
 H279 H 0.42800 0.54410 0.81558
 H280 H 0.37887 0.42441 0.73910
 H281 H 0.39979 0.38844 0.72322
 H282 H 0.46890 0.43347 0.73262
 H283 H 0.44668 0.46853 0.74844
 C284 C 0.35258 0.44700 0.82139
 C285 C 0.34251 0.50042 0.69180
 C286 C 0.43590 0.40839 0.72677
 C287 C 0.44053 0.54849 0.77928
 C288 C 0.67810 0.97083 0.72027
 H289 H 0.67770 0.96349 0.73818
 C290 C 0.69154 0.95977 0.70218
 H291 H 0.70168 0.94400 0.70620
 C292 C 0.66412 0.99930 0.69250
 H293 H 0.65279 1.01414 0.68846
 C294 C 0.67731 0.98884 0.67395
 H295 H 0.67627 0.99587 0.65583
 N296 N 0.66460 0.99011 0.71510
 C297 C 0.64688 1.02794 0.78419
 H298 H 0.62742 1.02907 0.77926
 C299 C 0.65728 1.03770 0.80735
 H300 H 0.64576 1.04646 0.82024
 C301 C 0.68540 1.01444 0.77362
 H302 H 0.69617 1.00519 0.76045
 C303 C 0.69658 1.02394 0.79673
 H304 H 0.71599 1.02194 0.80132
 Zn305 Zn 0.64330 1.00159 0.73861
 N306 N 0.66084 1.01618 0.76807
 C307 C 0.62420 0.96742 0.77001
 N308 N 0.62308 0.97381 0.74628
 C309 C 0.60948 0.95944 0.72783
 C310 C 0.59621 0.93768 0.73304
 C311 C 0.61126 0.94595 0.77598
 C312 C 0.63717 1.04780 0.72217
 C313 C 0.62499 1.06715 0.71286
 C314 C 0.58648 1.04175 0.71112
 C315 C 0.59943 1.02279 0.72052
 N316 N 0.62438 1.02608 0.72556
 H317 H 0.63559 0.97858 0.78434
 H318 H 0.60933 0.96464 0.70903
 H319 H 0.58556 0.92620 0.71829
 H320 H 0.61246 0.94096 0.79491
 H321 H 0.65694 1.04999 0.72663
 H322 H 0.63541 1.08428 0.71002
 H323 H 0.56668 1.03901 0.70692
 H324 H 0.58957 1.00553 0.72376
 C325 C 0.68226 1.03540 0.81385
 C326 C 0.69088 0.96870 0.67872
 C327 C 0.59945 1.06410 0.70721
 C328 C 0.59727 0.93087 0.75736
 C329 C 0.00262 0.23370 -0.14091
 H330 H 0.01195 0.25205 -0.13921
 C331 C 0.01147 0.21496 -0.15586
 H332 H 0.02762 0.21887 -0.16581
 C333 C -0.02908 0.20580 -0.12909
 H334 H -0.04445 0.20214 -0.11813
 C335 C -0.02081 0.18652 -0.14383
 H336 H -0.02996 0.16813 -0.14432
 N337 N -0.01729 0.22884 -0.12789
 C338 C -0.04542 0.30016 -0.10967
 H339 H -0.04563 0.29965 -0.08986
 C340 C -0.05372 0.32038 -0.12118
 H341 H -0.06036 0.33555 -0.11023
 C342 C -0.03678 0.28089 -0.14824
 H343 H -0.03047 0.26533 -0.15874
 C344 C -0.04495 0.30078 -0.16050
 H345 H -0.04476 0.30057 -0.18040
 Zn346 Zn -0.02614 0.25457 -0.10585
 N347 N -0.03690 0.28109 -0.12323
 C348 C 0.01253 0.28882 -0.08408
 N349 N 0.00251 0.26512 -0.08471
 C350 C 0.01420 0.24783 -0.07251
 C351 C 0.03716 0.25403 -0.05939
 C352 C 0.03537 0.29579 -0.07114
 C353 C -0.07455 0.23676 -0.10102
 C354 C -0.09485 0.22781 -0.08924
 C355 C -0.06953 0.23280 -0.05045
 C356 C -0.04968 0.24168 -0.06301
 N357 N -0.05245 0.24312 -0.08790
 H358 H 0.00338 0.30214 -0.09441
 H359 H 0.00609 0.22900 -0.07377
 H360 H 0.04673 0.24000 -0.05040
 H361 H 0.04355 0.31450 -0.07139
 H362 H -0.07626 0.23839 -0.12075
 H363 H -0.11223 0.22240 -0.10001
 H364 H -0.06703 0.23134 -0.03068
 H365 H -0.03208 0.24725 -0.05289
 C366 C -0.05339 0.32072 -0.14680
 C367 C -0.00024 0.19113 -0.15717
 C368 C -0.09229 0.22564 -0.06373
 C369 C 0.04795 0.27818 -0.05899
 C370 C 0.47125 0.21944 0.17722
 H371 H 0.46390 0.23732 0.17677
 C372 C 0.46021 0.20139 0.19073
 H373 H 0.44445 0.20541 0.20089
 C374 C 0.49972 0.19171 0.16329
 H375 H 0.51455 0.18767 0.15196
 C376 C 0.48927 0.17320 0.17656
 H377 H 0.49630 0.15511 0.17558
 N378 N 0.49053 0.21428 0.16372
 C379 C 0.52831 0.28332 0.14586
 H380 H 0.52946 0.27839 0.12639
 C381 C 0.53802 0.30647 0.15624
 H382 H 0.54675 0.31940 0.14475
 C383 C 0.51481 0.27275 0.18443
 H384 H 0.50557 0.25959 0.19523
 C385 C 0.52426 0.29586 0.19557
 H386 H 0.52225 0.30052 0.21497
 Zn387 Zn 0.50198 0.23775 0.14234
 N388 N 0.51657 0.26719 0.15985
 C389 C 0.46777 0.26906 0.12319
 N390 N 0.47418 0.24537 0.12210
 C391 C 0.45977 0.22693 0.10853
 C392 C 0.43796 0.23210 0.09531
 C393 C 0.44625 0.27499 0.11029
 C394 C 0.54821 0.22139 0.13625
 C395 C 0.56758 0.21215 0.12408
 C396 C 0.54219 0.21039 0.08552
 C397 C 0.52320 0.21972 0.09846
 N398 N 0.52648 0.22474 0.12343
 H399 H 0.47896 0.28339 0.13455
 H400 H 0.46499 0.20816 0.10840
 H401 H 0.42645 0.21736 0.08471
 H402 H 0.44125 0.29389 0.11149
 H403 H 0.55040 0.22583 0.15604
 H404 H 0.58473 0.20935 0.13453
 H405 H 0.53946 0.20622 0.06569
 H406 H 0.50593 0.22292 0.08858
 C407 C 0.53569 0.31296 0.18121
 C408 C 0.46915 0.17797 0.19014
 C409 C 0.56455 0.20653 0.09852
 C410 C 0.43113 0.25638 0.09637
 C411 C 0.97002 0.71926 0.67776
 H412 H 0.96275 0.73717 0.67741
 C413 C 0.95896 0.70119 0.69125
 H414 H 0.94325 0.70524 0.70147
 C415 C 0.99835 0.69146 0.66366
 H416 H 1.01315 0.68740 0.65228
 C417 C 0.98788 0.67294 0.67689
 H418 H 0.99486 0.65482 0.67584
 N419 N 0.98925 0.71407 0.66420
 C420 C 1.02729 0.78309 0.64665
 H421 H 1.02839 0.77824 0.62715
 C422 C 1.03712 0.80616 0.65713
 H423 H 1.04590 0.81912 0.64570
 C424 C 1.01379 0.77238 0.68518
 H425 H 1.00452 0.75920 0.69593
 C426 C 1.02337 0.79541 0.69643
 H427 H 1.02142 0.79998 0.71585
 Zn428 Zn 1.00080 0.73761 0.64293
 N429 N 1.01550 0.76693 0.66057
 C430 C 0.96674 0.76915 0.62395
 N431 N 0.97306 0.74543 0.62272
 C432 C 0.95864 0.72710 0.60900
 C433 C 0.93691 0.73243 0.59573
 C434 C 0.94530 0.77524 0.61101
 C435 C 1.04696 0.72110 0.63680
 C436 C 1.06632 0.71188 0.62459
 C437 C 1.04099 0.71044 0.58602
 C438 C 1.02201 0.71974 0.59899
 N439 N 1.02526 0.72460 0.62398
 H440 H 0.97793 0.78338 0.63543
 H441 H 0.96379 0.70830 0.60876
 H442 H 0.92539 0.71779 0.58499
 H443 H 0.94038 0.79416 0.61230
 H444 H 1.04912 0.72542 0.65660
 H445 H 1.08344 0.70897 0.63503
 H446 H 1.03829 0.70640 0.56617
 H447 H 1.00478 0.72306 0.58911
 C448 C 1.03486 0.81253 0.68214
 C449 C 0.96783 0.67773 0.69055
 C450 C 1.06331 0.70643 0.59900
 C451 C 0.93018 0.75675 0.59691
 C452 C 0.50285 0.73468 0.35762
 H453 H 0.51221 0.75302 0.35926
 C454 C 0.51162 0.71589 0.34267
 H455 H 0.52774 0.71975 0.33267
 C456 C 0.47114 0.70688 0.36958
 H457 H 0.45580 0.70328 0.38059
 C458 C 0.47933 0.68755 0.35484
 H459 H 0.47015 0.66918 0.35441
 N460 N 0.48297 0.72990 0.37070
 C461 C 0.45500 0.80130 0.38888
 H462 H 0.45482 0.80080 0.40870
 C463 C 0.44671 0.82153 0.37739
 H464 H 0.44011 0.83669 0.38841
 C465 C 0.46357 0.78200 0.35030
 H466 H 0.46985 0.76642 0.33980
 C467 C 0.45541 0.80189 0.33804
 H468 H 0.45560 0.80161 0.31813
 Zn469 Zn 0.47421 0.75569 0.39272
 N470 N 0.46347 0.78221 0.37532
 C471 C 0.51293 0.78991 0.41443
 N472 N 0.50288 0.76622 0.41383
 C473 C 0.51452 0.74894 0.42609
 C474 C 0.53743 0.75515 0.43930
 C475 C 0.53573 0.79688 0.42746
 C476 C 0.42578 0.73797 0.39766
 C477 C 0.40549 0.72913 0.40952
 C478 C 0.43083 0.73427 0.44825
 C479 C 0.45069 0.74304 0.43564
 N480 N 0.44790 0.74435 0.41073
 H481 H 0.50382 0.80322 0.40406
 H482 H 0.50638 0.73011 0.42485
 H483 H 0.54695 0.74113 0.44836
 H484 H 0.54392 0.81559 0.42721
 H485 H 0.42404 0.73949 0.37791
 H486 H 0.38806 0.72367 0.39890
 H487 H 0.43324 0.73287 0.46802
 H488 H 0.46830 0.74862 0.44573
 C489 C 0.44700 0.82187 0.35175
 C490 C 0.49986 0.69209 0.34142
 C491 C 0.40808 0.72712 0.43502
 C492 C 0.54824 0.77929 0.43971
 C493 C 0.37103 -0.02337 0.27151
 C494 C 0.35620 -0.03020 0.24664
 C495 C 0.34390 -0.01131 0.23800
 C496 C 0.34736 0.01269 0.25510
 C497 C 0.38803 -0.00053 0.26742
 C498 C 0.37554 0.01833 0.25881
 C499 C 0.35241 -0.01395 0.28885
 C500 C 0.34007 0.00491 0.28033
 H501 H 0.35689 -0.04775 0.23594
 H502 H 0.33714 0.02800 0.24813
 H503 H 0.40805 0.00026 0.27002
 H504 H 0.35049 -0.02038 0.30709
 C505 C 0.09412 1.04538 0.75460
 C506 C 0.10703 1.05312 0.73209
 C507 C 0.12199 1.03619 0.72325
 C508 C 0.12279 1.01301 0.73772
 C509 C 0.08046 1.02009 0.74642
 C510 C 0.09558 1.00317 0.73763
 C511 C 0.11491 1.03998 0.77348
 C512 C 0.12983 1.02295 0.76470
 H513 H 0.10430 1.07027 0.72366
 H514 H 0.13509 0.99931 0.73044
 H515 H 0.06097 1.01567 0.74841
 H516 H 0.11602 1.04687 0.79283
 C517 C 0.59385 0.54615 0.25305
 C518 C 0.60674 0.55395 0.23056
 C519 C 0.62173 0.53707 0.22169
 C520 C 0.62259 0.51388 0.23613
 C521 C 0.58023 0.52084 0.24485
 C522 C 0.59540 0.50397 0.23604
 C523 C 0.61466 0.54078 0.27192
 C524 C 0.62961 0.52379 0.26312
 H525 H 0.60399 0.57112 0.22217
 H526 H 0.63492 0.50021 0.22883
 H527 H 0.56076 0.51636 0.24687
 H528 H 0.61575 0.54763 0.29128
 C529 C 0.86998 0.47647 0.77232
 C530 C 0.85520 0.46961 0.74743
 C531 C 0.84288 0.48847 0.73875
 C532 C 0.84627 0.51248 0.75583
 C533 C 0.88696 0.49934 0.76823
 C534 C 0.87445 0.51816 0.75958
 C535 C 0.85132 0.48587 0.78961
 C536 C 0.83896 0.50471 0.78106
 H537 H 0.85596 0.45207 0.73673
 H538 H 0.83603 0.52776 0.74884
 H539 H 0.90697 0.50016 0.77084
 H540 H 0.84940 0.47947 0.80787
 C541 C 0.27144 0.36953 -0.02334
 C542 C 0.24657 0.35476 -0.03021
 C543 C 0.23793 0.34244 -0.01132
 C544 C 0.25503 0.34581 0.01272
 C545 C 0.26739 0.38649 -0.00045
 C546 C 0.25878 0.37398 0.01840
 C547 C 0.28873 0.35086 -0.01393
 C548 C 0.28022 0.33850 0.00493
 H549 H 0.23586 0.35552 -0.04778
 H550 H 0.24807 0.33557 0.02802
 H551 H 0.27000 0.40650 0.00036
 H552 H 0.30697 0.34896 -0.02032
 C553 C 0.75482 0.09414 1.04559
 C554 C 0.73237 0.10709 1.05333
 C555 C 0.72350 0.12203 1.03636
 C556 C 0.73789 0.12277 1.01313
 C557 C 0.74657 0.08045 1.02030
 C558 C 0.73776 0.09556 1.00334
 C559 C 0.77368 0.11488 1.04011
 C560 C 0.76488 0.12978 1.02303
 H561 H 0.72399 0.10439 1.07053
 H562 H 0.73059 0.13506 0.99939
 H563 H 0.74854 0.06096 1.01591
 H564 H 0.79302 0.11597 1.04698
 C565 C 0.25386 0.59460 0.54583
 C566 C 0.23135 0.60744 0.55359
 C567 C 0.22240 0.62235 0.53664
 C568 C 0.23678 0.62319 0.51341
 C569 C 0.24567 0.58091 0.52053
 C570 C 0.23677 0.59600 0.50358
 C571 C 0.27263 0.61544 0.54037
 C572 C 0.26374 0.63031 0.52330
 H573 H 0.22299 0.60469 0.57079
 H574 H 0.22941 0.63546 0.49968
 H575 H 0.24775 0.56145 0.51611
 H576 H 0.29198 0.61659 0.54721
 C577 C 0.77147 0.87095 0.47678
 C578 C 0.74660 0.85621 0.46985
 C579 C 0.73791 0.84386 0.48869
 C580 C 0.75495 0.84719 0.51277
 C581 C 0.76739 0.88788 0.49968
 C582 C 0.75872 0.87535 0.51850
 C583 C 0.78872 0.85224 0.48621
 C584 C 0.78015 0.83986 0.50503
 H585 H 0.73595 0.85697 0.45226
 H586 H 0.74794 0.83693 0.52804
 H587 H 0.77008 0.90789 0.50055
 H588 H 0.80697 0.85032 0.47984
 C589 C -0.02303 0.27183 0.37084
 C590 C -0.03002 0.24702 0.35601
 C591 C -0.01121 0.23832 0.34364
 C592 C 0.01287 0.25528 0.34705
 C593 C -0.00017 0.26762 0.38780
 C594 C 0.01860 0.25894 0.37525
 C595 C -0.01357 0.28912 0.35218
 C596 C 0.00521 0.28053 0.33977
 H597 H -0.04761 0.23640 0.35674
 H598 H 0.02811 0.24827 0.33677
 H599 H 0.00068 0.27019 0.40784
 H600 H -0.01990 0.30739 0.35027
 C601 C 1.04561 0.75417 0.09363
 C602 C 1.05345 0.73169 0.10653
 C603 C 1.03657 0.72278 0.12152
 C604 C 1.01336 0.73714 0.12238
 C605 C 1.02030 0.74594 0.07999
 C606 C 1.00345 0.73707 0.09516
 C607 C 1.04022 0.77297 0.11446
 C608 C 1.02324 0.76411 0.12942
 H609 H 1.07062 0.72333 0.10375
 H610 H 0.99970 0.72980 0.13471
 H611 H 1.01582 0.74796 0.06050
 H612 H 1.04704 0.79231 0.11555
 C613 C 0.54599 0.25394 0.59390
 C614 C 0.55382 0.23149 0.60684
 C615 C 0.53694 0.22259 0.62184
 C616 C 0.51371 0.23695 0.62264
 C617 C 0.52069 0.24569 0.58025
 C618 C 0.50382 0.23684 0.59542
 C619 C 0.54056 0.27277 0.61470
 C620 C 0.52358 0.26393 0.62966
 H621 H 0.57101 0.22315 0.60412
 H622 H 0.50005 0.22962 0.63498
 H623 H 0.51622 0.24768 0.56075
 H624 H 0.54739 0.29211 0.61578
 C625 C 0.47660 0.77192 0.87053
 C626 C 0.46967 0.74708 0.85573
 C627 C 0.48853 0.73837 0.84347
 C628 C 0.51261 0.75535 0.84693
 C629 C 0.49940 0.76776 0.88760
 C630 C 0.51823 0.75906 0.87514
 C631 C 0.48612 0.78918 0.85188
 C632 C 0.50496 0.78059 0.83957
 H633 H 0.45209 0.73644 0.85645
 H634 H 0.52790 0.74833 0.83673
 H635 H 0.50018 0.77036 0.90763
 H636 H 0.47982 0.80745 0.84994
 C637 C 0.42145 -0.11988 0.31938
 C638 C 0.44137 -0.10001 0.31393
 C639 C 0.43204 -0.08020 0.30373
 C640 C 0.40373 -0.08227 0.30001
 C641 C 0.39498 -0.08653 0.32560
 C642 C 0.40428 -0.10628 0.33578
 C643 C 0.40614 -0.12660 0.29464
 C644 C 0.39681 -0.10681 0.28445
 C645 C 0.43121 -0.14116 0.33058
 C646 C 0.43878 -0.15859 0.34029
 C647 C 0.39330 -0.06107 0.28930
 C648 C 0.38380 -0.04387 0.28099
 H649 H 0.46104 -0.10139 0.31771
 H650 H 0.44371 -0.06461 0.29877
 H651 H 0.38256 -0.07500 0.33494
 H652 H 0.39984 -0.11168 0.35383
 H653 H 0.40295 -0.14523 0.28587
 H654 H 0.38564 -0.10849 0.26694
 C655 C 0.92054 0.38006 0.82024
 C656 C 0.94045 0.39940 0.81368
 C657 C 0.93109 0.41919 0.80348
 C658 C 0.90276 0.41765 0.80088
 C659 C 0.89497 0.41409 0.82696
 C660 C 0.90431 0.39434 0.83714
 C661 C 0.90424 0.37318 0.79611
 C662 C 0.89489 0.39295 0.78593
 C663 C 0.93033 0.35879 0.83143
 C664 C 0.93793 0.34136 0.84111
 C665 C 0.89230 0.43883 0.79015
 C666 C 0.88278 0.45600 0.78183
 H667 H 0.96015 0.39768 0.81674
 H668 H 0.94275 0.43444 0.79781
 H669 H 0.88317 0.42606 0.83663
 H670 H 0.90051 0.38940 0.85551
 H671 H 0.90042 0.35444 0.78773
 H672 H 0.88306 0.39115 0.76882
 C673 C 0.03134 1.13457 0.80611
 C674 C 0.04787 1.14318 0.78628
 C675 C 0.05960 1.12468 0.77516
 C676 C 0.05365 1.09940 0.78495
 C677 C 0.02538 1.09511 0.78175
 C678 C 0.01362 1.11363 0.79290
 C679 C 0.04835 1.12188 0.82408
 C680 C 0.06007 1.10341 0.81297
 C681 C 0.01912 1.15458 0.81841
 C682 C 0.00988 1.17120 0.82919
 C683 C 0.06674 1.07968 0.77332
 C684 C 0.07853 1.06391 0.76447
 H685 H 0.05012 1.16211 0.78138
 H686 H 0.07191 1.12778 0.76072
 H687 H 0.01549 1.07899 0.77163
 H688 H -0.00635 1.11339 0.79232
 H689 H 0.05095 1.12694 0.84382
 H690 H 0.07270 1.09266 0.82320
 C691 C 0.53121 0.63540 0.30466
 C692 C 0.51360 0.61622 0.28866
 C693 C 0.52530 0.59766 0.27750
 C694 C 0.55341 0.60016 0.28347
 C695 C 0.55716 0.60196 0.31179
 C696 C 0.54550 0.62047 0.32291
 C697 C 0.55027 0.64443 0.28731
 C698 C 0.56194 0.62591 0.27617
 C699 C 0.51906 0.65545 0.31698
 C700 C 0.50990 0.67211 0.32778
 C701 C 0.56645 0.58042 0.27182
 C702 C 0.57823 0.56465 0.26295
 H703 H 0.49374 0.61715 0.28630
 H704 H 0.51547 0.58268 0.26557
 H705 H 0.56801 0.58974 0.32219
 H706 H 0.54636 0.62409 0.34286
 H707 H 0.55422 0.66368 0.28401
 H708 H 0.57589 0.62929 0.26333
 C709 C 0.55862 0.38468 0.20575
 C710 C 0.57794 0.38884 0.22798
 C711 C 0.58528 0.41311 0.23428
 C712 C 0.57256 0.43083 0.21772
 C713 C 0.54480 0.42447 0.21909
 C714 C 0.53747 0.40022 0.21279
 C715 C 0.57037 0.39783 0.18502
 C716 C 0.57769 0.42206 0.19131
 C717 C 0.55066 0.35867 0.19849
 C718 C 0.54395 0.33759 0.19134
 C719 C 0.58048 0.45696 0.22432
 C720 C 0.58713 0.47842 0.22961
 H721 H 0.58519 0.37404 0.23790
 H722 H 0.59882 0.41911 0.24961
 H723 H 0.53203 0.43784 0.22456
 H724 H 0.51842 0.39280 0.21288
 H725 H 0.57275 0.38888 0.16696
 H726 H 0.58633 0.43385 0.17865
 C727 C 0.05822 0.88408 0.70697
 C728 C 0.03722 0.89966 0.71437
 C729 C 0.04469 0.92387 0.72075
 C730 C 0.07242 0.93014 0.71912
 C731 C 0.07724 0.92150 0.69258
 C732 C 0.06978 0.89732 0.68620
 C733 C 0.07776 0.88803 0.72903
 C734 C 0.08524 0.91227 0.73542
 C735 C 0.05011 0.85812 0.69962
 C736 C 0.04327 0.83709 0.69238
 C737 C 0.08048 0.95623 0.72580
 C738 C 0.08723 0.97765 0.73115
 H739 H 0.01817 0.89231 0.71462
 H740 H 0.03204 0.93726 0.72646
 H741 H 0.08578 0.93334 0.67990
 H742 H 0.07194 0.88845 0.66805
 H743 H 0.08505 0.87315 0.73877
 H744 H 0.09895 0.91813 0.75064
 C745 C 0.93225 0.61925 0.72049
 C746 C 0.91734 0.62534 0.74267
 C747 C 0.90556 0.60506 0.75117
 C748 C 0.90985 0.58072 0.73664
 C749 C 0.93802 0.58005 0.73765
 C750 C 0.94979 0.60030 0.72917
 C751 C 0.91367 0.60472 0.70114
 C752 C 0.90191 0.58449 0.70962
 C753 C 0.94494 0.64083 0.71094
 C754 C 0.95539 0.65800 0.70218
 C755 C 0.89720 0.55874 0.74547
 C756 C 0.88683 0.54038 0.75217
 H757 H 0.91616 0.64390 0.75097
 H758 H 0.89427 0.60626 0.76675
 H759 H 0.94786 0.56502 0.74449
 H760 H 0.96971 0.60260 0.72873
 H761 H 0.91004 0.60989 0.68241
 H762 H 0.88822 0.57234 0.69816
 C763 C 0.43352 0.11946 0.21997
 C764 C 0.43558 0.09549 0.20386
 C765 C 0.42378 0.07525 0.21228
 C766 C 0.41105 0.08091 0.23601
 C767 C 0.39388 0.10107 0.22986
 C768 C 0.40569 0.12134 0.22143
 C769 C 0.44330 0.11414 0.24607
 C770 C 0.43149 0.09385 0.25451
 C771 C 0.44625 0.14106 0.21048
 C772 C 0.45671 0.15823 0.20175
 C773 C 0.39836 0.05892 0.24479
 C774 C 0.38796 0.04055 0.25144
 H775 H 0.44545 0.09449 0.18727
 H776 H 0.42356 0.05694 0.20290
 H777 H 0.37418 0.09957 0.23198
 H778 H 0.39611 0.13720 0.21633
 H779 H 0.45816 0.12532 0.25697
 H780 H 0.43622 0.08766 0.27264
 C781 C 0.31945 0.42053 -0.11953
 C782 C 0.29599 0.40333 -0.12670
 C783 C 0.28576 0.39385 -0.10700
 C784 C 0.30000 0.40252 -0.08208
 C785 C 0.30153 0.43082 -0.08095
 C786 C 0.31177 0.44031 -0.10067
 C787 C 0.33673 0.40517 -0.10457
 C788 C 0.32652 0.39571 -0.08490
 C789 C 0.33069 0.43046 -0.14071
 C790 C 0.34042 0.43818 -0.15806
 C791 C 0.28925 0.39194 -0.06096
 C792 C 0.28092 0.38235 -0.04382
 H793 H 0.28808 0.39902 -0.14557
 H794 H 0.26908 0.38142 -0.10900
 H795 H 0.29512 0.44237 -0.06602
 H796 H 0.31414 0.46000 -0.10265
 H797 H 0.35539 0.40203 -0.10903
 H798 H 0.33642 0.38446 -0.07251
 C799 C 0.81928 0.92154 0.38029
 C800 C 0.81162 0.94142 0.39905
 C801 C 0.80146 0.93206 0.41887
 C802 C 0.79998 0.90376 0.41793
 C803 C 0.82650 0.89698 0.41508
 C804 C 0.83663 0.90632 0.39531
 C805 C 0.79584 0.90427 0.37328
 C806 C 0.78569 0.89492 0.39308
 C807 C 0.83043 0.93133 0.35899
 C808 C 0.84010 0.93893 0.34155
 C809 C 0.78930 0.89330 0.43914
 C810 C 0.78099 0.88376 0.45632
 H811 H 0.81394 0.96109 0.39693
 H812 H 0.79507 0.94369 0.43375
 H813 H 0.83647 0.88584 0.42754
 H814 H 0.85528 0.90317 0.39083
 H815 H 0.78787 0.89983 0.35444
 H816 H 0.76903 0.88247 0.39120
 C817 C 0.80633 0.03163 1.13521
 C818 C 0.82416 0.04911 1.12292
 C819 C 0.81306 0.06075 1.10435
 C820 C 0.78519 0.05381 1.09984
 C821 C 0.77491 0.05931 1.12498
 C822 C 0.78603 0.04765 1.14358
 C823 C 0.79373 0.01387 1.11397
 C824 C 0.78260 0.02555 1.09534
 C825 C 0.81861 0.01950 1.15534
 C826 C 0.82938 0.01033 1.17205
 C827 C 0.77357 0.06683 1.08002
 C828 C 0.76471 0.07857 1.06418
 H829 H 0.84382 0.05207 1.12832
 H830 H 0.82321 0.07368 1.09384
 H831 H 0.76017 0.07127 1.12790
 H832 H 0.78080 0.04962 1.16243
 H833 H 0.79355 -0.00609 1.11361
 H834 H 0.77288 0.01561 1.07901
 C835 C 0.30570 0.53194 0.63515
 C836 C 0.27738 0.52894 0.63398
 C837 C 0.26619 0.54067 0.61543
 C838 C 0.28445 0.55422 0.59992
 C839 C 0.30105 0.53451 0.59074
 C840 C 0.31223 0.52279 0.60927
 C841 C 0.31234 0.55991 0.63713
 C842 C 0.30119 0.57160 0.61864
 C843 C 0.31804 0.51974 0.65519
 C844 C 0.32886 0.51052 0.67183
 C845 C 0.27275 0.56729 0.58018
 C846 C 0.26383 0.57905 0.56438
 H847 H 0.26704 0.51850 0.64657
 H848 H 0.24626 0.54029 0.61212
 H849 H 0.30373 0.53012 0.57140
 H850 H 0.32450 0.50834 0.60581
 H851 H 0.32472 0.56969 0.65180
 H852 H 0.30402 0.59140 0.61747
 C853 C 0.20635 0.55865 0.38431
 C854 C 0.18566 0.57047 0.39741
 C855 C 0.19198 0.57792 0.42163
 C856 C 0.21839 0.57284 0.43044
 C857 C 0.23489 0.58545 0.41262
 C858 C 0.22855 0.57798 0.38835
 C859 C 0.21344 0.53760 0.40001
 C860 C 0.21977 0.54507 0.42426
 C861 C 0.19906 0.55055 0.35831
 C862 C 0.19187 0.54372 0.33724
 C863 C 0.22502 0.58089 0.45657
 C864 C 0.23032 0.58765 0.47803
 H865 H 0.16760 0.57280 0.38842
 H866 H 0.17935 0.58663 0.43339
 H867 H 0.25020 0.59902 0.41854
 H868 H 0.23843 0.58514 0.37348
 H869 H 0.21353 0.51853 0.39270
 H870 H 0.22527 0.53238 0.43773
 C871 C 0.70671 0.05819 0.88417
 C872 C 0.72868 0.07779 0.88806
 C873 C 0.73516 0.08525 0.91231
 C874 C 0.71901 0.07237 0.93025
 C875 C 0.72072 0.04466 0.92396
 C876 C 0.71425 0.03721 0.89973
 C877 C 0.68598 0.06968 0.89750
 C878 C 0.69244 0.07712 0.92170
 C879 C 0.69926 0.05011 0.85818
 C880 C 0.69193 0.04330 0.83715
 C881 C 0.72579 0.08042 0.95636
 C882 C 0.73120 0.08718 0.97780
 H883 H 0.73832 0.08512 0.87312
 H884 H 0.75035 0.09899 0.91814
 H885 H 0.72653 0.03202 0.93734
 H886 H 0.71453 0.01817 0.89236
 H887 H 0.66780 0.07179 0.88868
 H888 H 0.67981 0.08561 0.93360
 C889 C 0.72041 0.93310 0.62002
 C890 C 0.71674 0.94678 0.59654
 C891 C 0.72506 0.93502 0.57621
 C892 C 0.73624 0.91071 0.58131
 C893 C 0.71598 0.89539 0.59285
 C894 C 0.70767 0.90715 0.61319
 C895 C 0.74812 0.92943 0.62281
 C896 C 0.75645 0.91765 0.60244
 C897 C 0.71104 0.94579 0.64170
 C898 C 0.70239 0.95625 0.65893
 C899 C 0.74490 0.89806 0.55923
 C900 C 0.75146 0.88771 0.54080
 H901 H 0.70838 0.96421 0.59593
 H902 H 0.72381 0.94238 0.55820
 H903 H 0.70883 0.87690 0.58571
 H904 H 0.69339 0.89872 0.62346
 H905 H 0.76011 0.93553 0.63930
 H906 H 0.77558 0.91365 0.60148
 C907 C 0.22003 0.43212 0.11948
 C908 C 0.24238 0.41745 0.12559
 C909 C 0.25080 0.40556 0.10533
 C910 C 0.23604 0.40953 0.08098
 C911 C 0.23680 0.43766 0.08003
 C912 C 0.22839 0.44952 0.10026
 C913 C 0.20075 0.41331 0.10521
 C914 C 0.20915 0.40145 0.08499
 C915 C 0.21057 0.44493 0.14104
 C916 C 0.20186 0.45548 0.15818
 C917 C 0.24479 0.39678 0.05901
 C918 C 0.25143 0.38637 0.04064
 H919 H 0.25084 0.41649 0.14417
 H920 H 0.26648 0.39441 0.10655
 H921 H 0.24341 0.44740 0.06482
 H922 H 0.22780 0.46943 0.10238
 H923 H 0.18211 0.40960 0.11054
 H924 H 0.19772 0.38759 0.07302
 C925 C -0.11923 0.32003 0.42135
 C926 C -0.10608 0.33599 0.40348
 C927 C -0.08638 0.32575 0.39417
 C928 C -0.08171 0.30055 0.40363
 C929 C -0.10619 0.28468 0.39744
 C930 C -0.12593 0.29493 0.40676
 C931 C -0.09899 0.31530 0.44125
 C932 C -0.07924 0.30504 0.43191
 C933 C -0.14046 0.33129 0.43111
 C934 C -0.15786 0.34101 0.43867
 C935 C -0.06057 0.28976 0.39320
 C936 C -0.04344 0.28139 0.38366
 H937 H -0.11174 0.35379 0.39858
 H938 H -0.07515 0.33479 0.38130
 H939 H -0.10787 0.26693 0.38673
 H940 H -0.14452 0.28597 0.40404
 H941 H -0.10010 0.31959 0.46091
 H942 H -0.06341 0.30054 0.44356
 C943 C 0.38024 0.82012 0.92077
 C944 C 0.39411 0.83658 0.90383
 C945 C 0.41384 0.82635 0.89456
 C946 C 0.41780 0.80064 0.90312
 C947 C 0.39315 0.78533 0.89592
 C948 C 0.37340 0.79558 0.90521
 C949 C 0.39992 0.81433 0.94076
 C950 C 0.41970 0.80407 0.93146
 C951 C 0.35899 0.83137 0.93049
 C952 C 0.34159 0.84110 0.93805
 C953 C 0.43896 0.78985 0.89273
 C954 C 0.45613 0.78148 0.88326
 H955 H 0.38891 0.85471 0.89950
 H956 H 0.42554 0.83572 0.88229
 H957 H 0.39139 0.76794 0.88458
 H958 H 0.35471 0.78697 0.90182
 H959 H 0.39844 0.81793 0.96045
 H960 H 0.43516 0.79888 0.94318
 C961 C 1.13477 0.80614 0.03103
 C962 C 1.11298 0.79463 0.01331
 C963 C 1.09444 0.78339 0.02499
 C964 C 1.09957 0.78479 0.05321
 C965 C 1.10483 0.81240 0.06118
 C966 C 1.12331 0.82361 0.04954
 C967 C 1.14298 0.78496 0.04598
 C968 C 1.12447 0.77374 0.05764
 C969 C 1.15481 0.81854 0.01890
 C970 C 1.17144 0.82939 0.00974
 C971 C 1.07985 0.77305 0.06624
 C972 C 1.06410 0.76412 0.07801
 H973 H 1.11220 0.79523 -0.00662
 H974 H 1.07776 0.77436 0.01508
 H975 H 1.09488 0.82230 0.07478
 H976 H 1.12919 0.84310 0.05317
 H977 H 1.16166 0.77925 0.04724
 H978 H 1.12730 0.75841 0.06889
 C979 C 0.63514 0.30585 0.53125
 C980 C 0.62627 0.27986 0.51964
 C981 C 0.60773 0.26862 0.53133
 C982 C 0.59996 0.28453 0.55345
 C983 C 0.59334 0.30880 0.54302
 C984 C 0.61183 0.32001 0.53134
 C985 C 0.64229 0.30249 0.55852
 C986 C 0.62381 0.29129 0.57018
 C987 C 0.65517 0.31825 0.51911
 C988 C 0.67180 0.32911 0.50996
 C989 C 0.58023 0.27280 0.56650
 C990 C 0.56448 0.26388 0.57828
 H991 H 0.63384 0.27107 0.50366
 H992 H 0.59942 0.25021 0.52539
 H993 H 0.57565 0.31648 0.54461
 H994 H 0.61000 0.33730 0.52293
 H995 H 0.66032 0.30836 0.56786
 H996 H 0.62602 0.28757 0.58951
 C997 C 0.38463 0.20596 0.55842
 C998 C 0.38862 0.22772 0.57826
 C999 C 0.41287 0.23415 0.58564
 C1000 C 0.43073 0.21818 0.57245
 C1001 C 0.42425 0.22020 0.54478
 C1002 C 0.40001 0.21377 0.53740
 C1003 C 0.39806 0.18511 0.56959
 C1004 C 0.42227 0.19153 0.57696
 C1005 C 0.35864 0.19857 0.55042
 C1006 C 0.33759 0.19131 0.54366
 C1007 C 0.45684 0.22491 0.58041
 C1008 C 0.47829 0.23030 0.58711
 H1009 H 0.37373 0.23725 0.58581
 H1010 H 0.41877 0.24920 0.59953
 H1011 H 0.43751 0.22619 0.53210
 H1012 H 0.39251 0.21427 0.51841
 H1013 H 0.38931 0.16687 0.57156
 H1014 H 0.43424 0.17880 0.58522
 C1015 C 0.88418 0.70623 0.05847
 C1016 C 0.90055 0.70862 0.03688
 C1017 C 0.92480 0.71504 0.04417
 C1018 C 0.93032 0.71844 0.07234
 C1019 C 0.92042 0.69408 0.08178
 C1020 C 0.89619 0.68767 0.07449
 C1021 C 0.88863 0.73112 0.07390
 C1022 C 0.91291 0.73755 0.08120
 C1023 C 0.85817 0.69885 0.05056
 C1024 C 0.83710 0.69160 0.04388
 C1025 C 0.95645 0.72517 0.08022
 C1026 C 0.97791 0.73055 0.08688
 H1027 H 0.89369 0.70559 0.01756
 H1028 H 0.93871 0.71749 0.03111
 H1029 H 0.93147 0.68286 0.09320
 H1030 H 0.88649 0.67094 0.07969
 H1031 H 0.87403 0.74267 0.07866
 H1032 H 0.91911 0.75462 0.09222
 C1033 C 0.61916 0.71980 0.93318
 C1034 C 0.60145 0.73085 0.95081
 C1035 C 0.58122 0.73937 0.93900
 C1036 C 0.58068 0.73601 0.91071
 C1037 C 0.58297 0.70837 0.90471
 C1038 C 0.60318 0.69986 0.91651
 C1039 C 0.62548 0.74027 0.91623
 C1040 C 0.60523 0.74880 0.90440
 C1041 C 0.64071 0.71023 0.94591
 C1042 C 0.65786 0.70145 0.95639
 C1043 C 0.55873 0.74489 0.89801
 C1044 C 0.54040 0.75162 0.88760
 H1045 H 0.60454 0.73193 0.97081
 H1046 H 0.56700 0.74774 0.94889
 H1047 H 0.56988 0.69651 0.89226
 H1048 H 0.60738 0.68070 0.91414
 H1049 H 0.64419 0.74743 0.91374
 H1050 H 0.60660 0.76327 0.89179
 C1051 C 0.11966 0.21954 0.43291
 C1052 C 0.09942 0.22535 0.45010
 C1053 C 0.07918 0.23390 0.43836
 C1054 C 0.08113 0.23579 0.41058
 C1055 C 0.08655 0.20989 0.40047
 C1056 C 0.10678 0.20135 0.41220
 C1057 C 0.12538 0.24350 0.42054
 C1058 C 0.10510 0.25205 0.40878
 C1059 C 0.14123 0.20993 0.44557
 C1060 C 0.15840 0.20114 0.45600
 C1061 C 0.05916 0.24470 0.39795
 C1062 C 0.04081 0.25145 0.38761
 H1063 H 0.10088 0.22301 0.46977
 H1064 H 0.06331 0.23887 0.44799
 H1065 H 0.07548 0.19920 0.38539
 H1066 H 0.11303 0.18335 0.40715
 H1067 H 0.14370 0.25291 0.42098
 H1068 H 0.10606 0.26880 0.39915
 C1069 C 0.56874 0.12269 0.67703
 C1070 C 0.54531 0.11700 0.65940
 C1071 C 0.53734 0.13723 0.64883
 C1072 C 0.55360 0.16113 0.65696
 C1073 C 0.57975 0.15538 0.65106
 C1074 C 0.58769 0.13523 0.66158
 C1075 C 0.56238 0.14319 0.69586
 C1076 C 0.55442 0.16341 0.68530
 C1077 C 0.57801 0.10113 0.68819
 C1078 C 0.58705 0.08391 0.69702
 C1079 C 0.54577 0.18299 0.64529
 C1080 C 0.54090 0.20107 0.63500
 H1081 H 0.53579 0.09873 0.65562
 H1082 H 0.52099 0.13629 0.63600
 H1083 H 0.59109 0.16621 0.63958
 H1084 H 0.60580 0.12883 0.65910
 H1085 H 0.56392 0.14189 0.71571
 H1086 H 0.54913 0.17943 0.69610
 C1087 C 1.06823 0.62252 0.17617
 C1088 C 1.04709 0.61645 0.15583
 C1089 C 1.03916 0.63675 0.14539
 C1090 C 1.05315 0.66110 0.15633
 C1091 C 1.08047 0.65746 0.15350
 C1092 C 1.08837 0.63724 0.16390
 C1093 C 1.05844 0.64132 0.19468
 C1094 C 1.05050 0.66162 0.18424
 C1095 C 1.07747 0.60088 0.18720
 C1096 C 1.08650 0.58361 0.19594
 C1097 C 1.04535 0.68304 0.14478
 C1098 C 1.04050 0.70118 0.13458
 H1099 H 1.03902 0.59788 0.15020
 H1100 H 1.02428 0.63557 0.13081
 H1101 H 1.09259 0.66973 0.14413
 H1102 H 1.10725 0.63222 0.16343
 H1103 H 1.05772 0.63886 0.21423
 H1104 H 1.04298 0.67655 0.19483
 C1105 C 0.96931 0.85105 0.19412
 C1106 C 0.97987 0.83275 0.21146
 C1107 C 0.99073 0.81405 0.19948
 C1108 C 0.98993 0.81556 0.17138
 C1109 C 1.00188 0.84136 0.16792
 C1110 C 0.99105 0.85999 0.17986
 C1111 C 0.95169 0.83513 0.17491
 C1112 C 0.96253 0.81649 0.16296
 C1113 C 0.95757 0.87133 0.20654
 C1114 C 0.94766 0.88828 0.21592
 C1115 C 1.00165 0.79589 0.15795
 C1116 C 1.01142 0.78075 0.14564
 H1117 H 0.97889 0.83433 0.23135
 H1118 H 0.99906 0.79961 0.20910
 H1119 H 1.01753 0.84470 0.15707
 H1120 H 0.99742 0.87927 0.17924
 H1121 H 0.93236 0.83820 0.17107
 H1122 H 0.95249 0.80359 0.14890
 C1123 C 0.46974 0.35083 0.69450
 C1124 C 0.48236 0.33385 0.71197
 C1125 C 0.49321 0.31518 0.69995
 C1126 C 0.49033 0.31537 0.67169
 C1127 C 0.50071 0.34123 0.66637
 C1128 C 0.48990 0.35984 0.67834
 C1129 C 0.45160 0.33353 0.67701
 C1130 C 0.46242 0.31490 0.66502
 C1131 C 0.45801 0.37110 0.70696
 C1132 C 0.44812 0.38804 0.71638
 C1133 C 0.50202 0.29571 0.65822
 C1134 C 0.51178 0.28057 0.64589
 H1135 H 0.48274 0.33629 0.73197
 H1136 H 0.50288 0.30159 0.70964
 H1137 H 0.51534 0.34462 0.65427
 H1138 H 0.49527 0.37917 0.67651
 H1139 H 0.43196 0.33570 0.67433
 H1140 H 0.45205 0.30110 0.65207
 C1141 C 0.46603 0.62039 0.79977
 C1142 C 0.49078 0.62476 0.81553
 C1143 C 0.49691 0.64895 0.82343
 C1144 C 0.47766 0.66633 0.81479
 C1145 C 0.45328 0.65582 0.82369
 C1146 C 0.44718 0.63174 0.81582
 C1147 C 0.46846 0.63735 0.77862
 C1148 C 0.47458 0.66153 0.78653
 C1149 C 0.45871 0.59444 0.79164
 C1150 C 0.45119 0.57331 0.78566
 C1151 C 0.48348 0.69231 0.82375
 C1152 C 0.48664 0.71349 0.83216
 H1153 H 0.50249 0.61019 0.82000
 H1154 H 0.51386 0.65511 0.83468
 H1155 H 0.44177 0.66640 0.83521
 H1156 H 0.43046 0.62171 0.82061
 H1157 H 0.46571 0.63092 0.75918
 H1158 H 0.47709 0.67583 0.77387
 C1159 C -0.03409 0.12055 0.29936
 C1160 C -0.05408 0.13262 0.31328
 C1161 C -0.04791 0.15666 0.32127
 C1162 C -0.02232 0.16641 0.31460
 C1163 C -0.02289 0.16132 0.28643
 C1164 C -0.02909 0.13717 0.27840
 C1165 C -0.01068 0.12449 0.31720
 C1166 C -0.00448 0.14863 0.32522
 C1167 C -0.04149 0.09464 0.29111
 C1168 C -0.04907 0.07355 0.28507
 C1169 C -0.01642 0.19235 0.32369
 C1170 C -0.01319 0.21349 0.33221
 H1171 H -0.07160 0.12310 0.31659
 H1172 H -0.06015 0.16771 0.33141
 H1173 H -0.01870 0.17540 0.27393
 H1174 H -0.03022 0.13055 0.25901
 H1175 H 0.00011 0.10965 0.32294
 H1176 H 0.01163 0.15448 0.33784
 C1177 C 0.06216 0.36857 0.28084
 C1178 C 0.05452 0.34595 0.26257
 C1179 C 0.04360 0.32648 0.27326
 C1180 C 0.04147 0.33165 0.30112
 C1181 C 0.02766 0.35514 0.30348
 C1182 C 0.03852 0.37451 0.29284
 C1183 C 0.07874 0.35894 0.30147
 C1184 C 0.06787 0.33955 0.31212
 C1185 C 0.07395 0.38992 0.27015
 C1186 C 0.08400 0.40823 0.26305
 C1187 C 0.02949 0.31141 0.31331
 C1188 C 0.01889 0.29635 0.32472
 H1189 H 0.05743 0.34528 0.24304
 H1190 H 0.03716 0.30912 0.26289
 H1191 H 0.01074 0.35643 0.31266
 H1192 H 0.03091 0.39236 0.29292
 H1193 H 0.09744 0.36663 0.30716
 H1194 H 0.07724 0.33062 0.32691
 C1195 C 0.56250 0.86873 0.78124
 C1196 C 0.53915 0.87486 0.79368
 C1197 C 0.52818 0.85547 0.80419
 C1198 C 0.54158 0.83177 0.80127
 C1199 C 0.56817 0.83916 0.81199
 C1200 C 0.57917 0.85858 0.80146
 C1201 C 0.55431 0.84641 0.76275
 C1202 C 0.54328 0.82692 0.77331
 C1203 C 0.57440 0.89010 0.77067
 C1204 C 0.58453 0.90842 0.76367
 C1205 C 0.52948 0.81150 0.81333
 C1206 C 0.51877 0.79643 0.82464
 H1207 H 0.53182 0.89286 0.79414
 H1208 H 0.51144 0.85688 0.81366
 H1209 H 0.57758 0.82990 0.82650
 H1210 H 0.59800 0.86595 0.80698
 H1211 H 0.55695 0.84594 0.74316
 H1212 H 0.53647 0.80974 0.76279
 C1213 C 0.67675 0.56909 0.12175
 C1214 C 0.66760 0.54160 0.11881
 C1215 C 0.65707 0.53355 0.13906
 C1216 C 0.65677 0.55382 0.16019
 C1217 C 0.64368 0.57460 0.14852
 C1218 C 0.65416 0.58260 0.12837
 C1219 C 0.69429 0.57214 0.14540
 C1220 C 0.68379 0.56411 0.16561
 C1221 C 0.68787 0.57845 0.10019
 C1222 C 0.69666 0.58761 0.08300
 C1223 C 0.64514 0.54592 0.18206
 C1224 C 0.63487 0.54102 0.20015
 H1225 H 0.66929 0.52953 0.10235
 H1226 H 0.64974 0.51459 0.13995
 H1227 H 0.62752 0.58234 0.15547
 H1228 H 0.64697 0.59719 0.11807
 H1229 H 0.71333 0.57983 0.14619
 H1230 H 0.69382 0.56492 0.18369
 C1231 C 0.17677 1.06754 0.62294
 C1232 C 0.16609 1.04050 0.61958
 C1233 C 0.15560 1.03261 0.63991
 C1234 C 0.15687 1.05256 0.66154
 C1235 C 0.14482 1.07439 0.65076
 C1236 C 0.15526 1.08225 0.63052
 C1237 C 0.19483 1.06915 0.64617
 C1238 C 0.18437 1.06128 0.66647
 C1239 C 0.18784 1.07673 0.60128
 C1240 C 0.19659 1.08573 0.58399
 C1241 C 0.14530 1.04482 0.68350
 C1242 C 0.13507 1.04003 0.70165
 H1243 H 0.16675 1.02861 0.60278
 H1244 H 0.14728 1.01396 0.64053
 H1245 H 0.12938 1.08294 0.65835
 H1246 H 0.14874 1.09750 0.62079
 H1247 H 0.21416 1.07579 0.64662
 H1248 H 0.19473 1.06118 0.68429
 C1249 C 0.19467 0.96923 0.85191
 C1250 C 0.21193 0.97972 0.83352
 C1251 C 0.19991 0.99054 0.81478
 C1252 C 0.17185 0.98978 0.81635
 C1253 C 0.16848 1.00179 0.84215
 C1254 C 0.18047 0.99100 0.86083
 C1255 C 0.17543 0.95160 0.83606
 C1256 C 0.16344 0.96240 0.81738
 C1257 C 0.20714 0.95752 0.87223
 C1258 C 0.21657 0.94761 0.88921
 C1259 C 0.15837 1.00145 0.79662
 C1260 C 0.14605 1.01118 0.78143
 H1261 H 0.23181 0.97872 0.83507
 H1262 H 0.20947 0.99882 0.80027
 H1263 H 0.15766 1.01747 0.84547
 H1264 H 0.17991 0.99742 0.88012
 H1265 H 0.17161 0.93229 0.83921
 H1266 H 0.14935 0.95235 0.80451
 C1267 C 0.69450 0.47010 0.35032
 C1268 C 0.71165 0.47980 0.33143
 C1269 C 0.69962 0.49062 0.31269
 C1270 C 0.67167 0.49063 0.31475
 C1271 C 0.66902 0.50320 0.34049
 C1272 C 0.68101 0.49242 0.35916
 C1273 C 0.67465 0.45270 0.33502
 C1274 C 0.66266 0.46348 0.31633
 C1275 C 0.70698 0.45841 0.37065
 C1276 C 0.71641 0.44854 0.38764
 C1277 C 0.65819 0.50229 0.29502
 C1278 C 0.64585 0.51202 0.27983
 H1279 H 0.73144 0.47830 0.33267
 H1280 H 0.70910 0.49838 0.29787
 H1281 H 0.65867 0.51922 0.34376
 H1282 H 0.68093 0.49920 0.37842
 H1283 H 0.67043 0.43355 0.33853
 H1284 H 0.64816 0.45358 0.30382
 C1285 C 0.79925 0.46625 0.62057
 C1286 C 0.77811 0.46891 0.63746
 C1287 C 0.78599 0.47498 0.66170
 C1288 C 0.81422 0.47778 0.66660
 C1289 C 0.82310 0.49693 0.64921
 C1290 C 0.81521 0.49086 0.62498
 C1291 C 0.81505 0.44724 0.63201
 C1292 C 0.82290 0.45328 0.65613
 C1293 C 0.79115 0.45899 0.59457
 C1294 C 0.78522 0.45152 0.57339
 C1295 C 0.82317 0.48353 0.69262
 C1296 C 0.83157 0.48664 0.71384
 H1297 H 0.75869 0.46636 0.63096
 H1298 H 0.77334 0.47763 0.67596
 H1299 H 0.83447 0.51378 0.65539
 H1300 H 0.81983 0.50251 0.61039
 H1301 H 0.81969 0.43045 0.62201
 H1302 H 0.83426 0.44166 0.66678
 C1303 C 0.29960 -0.03356 0.12001
 C1304 C 0.31549 -0.00890 0.12434
 C1305 C 0.32352 -0.00283 0.14853
 C1306 C 0.31485 -0.02202 0.16597
 C1307 C 0.32355 -0.04647 0.15542
 C1308 C 0.31555 -0.05252 0.13133
 C1309 C 0.27857 -0.03098 0.13706
 C1310 C 0.28661 -0.02491 0.16126
 C1311 C 0.29134 -0.04083 0.09405
 C1312 C 0.28529 -0.04831 0.07290
 C1313 C 0.32395 -0.01625 0.19196
 C1314 C 0.33247 -0.01314 0.21314
 H1315 H 0.31996 0.00277 0.10972
 H1316 H 0.33487 0.01406 0.15466
 H1317 H 0.33502 -0.05806 0.16597
 H1318 H 0.32019 -0.06928 0.12128
 H1319 H 0.25913 -0.03361 0.13069
 H1320 H 0.27404 -0.02232 0.17562
 C1321 C 0.28122 0.06161 0.36856
 C1322 C 0.28654 0.03475 0.37171
 C1323 C 0.29718 0.02394 0.35230
 C1324 C 0.30149 0.04103 0.33158
 C1325 C 0.31676 0.06387 0.34430
 C1326 C 0.30613 0.07468 0.36371
 C1327 C 0.26534 0.06079 0.34390
 C1328 C 0.27603 0.04993 0.32440
 C1329 C 0.27053 0.07333 0.38995
 C1330 C 0.26343 0.08334 0.40828
 C1331 C 0.31367 0.02911 0.31130
 C1332 C 0.32506 0.01856 0.29621
 H1333 H 0.28225 0.02503 0.38775
 H1334 H 0.30200 0.00495 0.35172
 H1335 H 0.33437 0.07101 0.33850
 H1336 H 0.31464 0.09107 0.37454
 H1337 H 0.24735 0.06805 0.34194
 H1338 H 0.26721 0.04790 0.30573
 C1339 C 0.78022 0.56155 0.86928
 C1340 C 0.76417 0.56042 0.84470
 C1341 C 0.77483 0.54952 0.82519
 C1342 C 0.80042 0.54090 0.83229
 C1343 C 0.79641 0.52394 0.85318
 C1344 C 0.78581 0.53478 0.87260
 C1345 C 0.80498 0.57476 0.86418
 C1346 C 0.81558 0.56392 0.84477
 C1347 C 0.76957 0.57330 0.89067
 C1348 C 0.76252 0.58336 0.90901
 C1349 C 0.81257 0.52894 0.81202
 C1350 C 0.82395 0.51836 0.79693
 H1351 H 0.74610 0.56752 0.84278
 H1352 H 0.76590 0.54729 0.80656
 H1353 H 0.80140 0.50500 0.85271
 H1354 H 0.78172 0.52515 0.88874
 H1355 H 0.81342 0.59128 0.87486
 H1356 H 0.83308 0.57115 0.83881
 C1357 C 0.12209 0.67676 0.56826
 C1358 C 0.13530 0.66218 0.58759
 C1359 C 0.15552 0.65183 0.57968
 C1360 C 0.16068 0.65701 0.55316
 C1361 C 0.16239 0.68525 0.55306
 C1362 C 0.14209 0.69564 0.56100
 C1363 C 0.11634 0.65842 0.54537
 C1364 C 0.13665 0.64802 0.53743
 C1365 C 0.10044 0.68773 0.57752
 C1366 C 0.08317 0.69641 0.58657
 C1367 C 0.18264 0.64552 0.54535
 C1368 C 0.20079 0.63537 0.54052
 H1369 H 0.12927 0.66016 0.60595
 H1370 H 0.16680 0.64095 0.59127
 H1371 H 0.17810 0.69610 0.54718
 H1372 H 0.14041 0.71540 0.56193
 H1373 H 0.09799 0.65405 0.53618
 H1374 H 0.13569 0.63476 0.52142
 C1375 C 0.62330 0.17671 1.06786
 C1376 C 0.63673 0.16251 1.08737
 C1377 C 0.65694 0.15211 1.07948
 C1378 C 0.66186 0.15687 1.05280
 C1379 C 0.66343 0.18506 1.05223
 C1380 C 0.64314 0.19550 1.06016
 C1381 C 0.61747 0.15801 1.04527
 C1382 C 0.63776 0.14757 1.03734
 C1383 C 0.60167 0.18774 1.07709
 C1384 C 0.58441 0.19646 1.08612
 C1385 C 0.68380 0.14532 1.04502
 C1386 C 0.70193 0.13511 1.04021
 H1387 H 0.63087 0.16077 1.10583
 H1388 H 0.66836 0.14147 1.09119
 H1389 H 0.67903 0.19585 1.04608
 H1390 H 0.64137 0.21524 1.06079
 H1391 H 0.59907 0.15345 1.03625
 H1392 H 0.63674 0.13406 1.02153
 C1393 C 0.85196 0.19433 0.96904
 C1394 C 0.83614 0.17503 0.95145
 C1395 C 0.81748 0.16310 0.96229
 C1396 C 0.81644 0.17163 0.98967
 C1397 C 0.81485 0.19968 0.99028
 C1398 C 0.83357 0.21164 0.97941
 C1399 C 0.86087 0.18023 0.99093
 C1400 C 0.84222 0.16831 1.00177
 C1401 C 0.87226 0.20674 0.95728
 C1402 C 0.88922 0.21613 0.94736
 C1403 C 0.79674 0.15822 1.00139
 C1404 C 0.78156 0.14594 1.01118
 H1405 H 0.83929 0.17112 0.93215
 H1406 H 0.80463 0.14897 0.95228
 H1407 H 0.80035 0.20927 0.99849
 H1408 H 0.83511 0.23149 0.97831
 H1409 H 0.88015 0.17971 0.99741
 H1410 H 0.84554 0.15757 1.01753
 C1411 C 0.35054 0.69497 0.46905
 C1412 C 0.33184 0.71218 0.47895
 C1413 C 0.31318 0.70020 0.48989
 C1414 C 0.31512 0.67224 0.48979
 C1415 C 0.34090 0.66942 0.50218
 C1416 C 0.35950 0.68136 0.49128
 C1417 C 0.33506 0.67524 0.45166
 C1418 C 0.31645 0.66329 0.46256
 C1419 C 0.37080 0.70739 0.45723
 C1420 C 0.38773 0.71677 0.44728
 C1421 C 0.29548 0.65881 0.50158
 C1422 C 0.28036 0.64651 0.51141
 H1423 H 0.33315 0.73199 0.47752
 H1424 H 0.29849 0.70973 0.49781
 H1425 H 0.34426 0.65900 0.51817
 H1426 H 0.37877 0.68117 0.49793
 H1427 H 0.33839 0.67106 0.43244
 H1428 H 0.30383 0.64889 0.45269
 C1429 C 0.62005 0.79982 0.46561
 C1430 C 0.62413 0.81646 0.48983
 C1431 C 0.64829 0.82443 0.49610
 C1432 C 0.66594 0.81496 0.47753
 C1433 C 0.65585 0.82290 0.45252
 C1434 C 0.63180 0.81497 0.44628
 C1435 C 0.63686 0.77877 0.46927
 C1436 C 0.66103 0.78674 0.47554
 C1437 C 0.59413 0.79164 0.45814
 C1438 C 0.57303 0.78565 0.45050
 C1439 C 0.69189 0.82399 0.48349
 C1440 C 0.71305 0.83247 0.48674
 H1441 H 0.60938 0.82147 0.50109
 H1442 H 0.65424 0.83626 0.51274
 H1443 H 0.66669 0.83384 0.44071
 H1444 H 0.62206 0.81913 0.42913
 H1445 H 0.63036 0.75935 0.46720
 H1446 H 0.67522 0.77416 0.47885
 C1447 C 0.11992 0.29862 -0.03358
 C1448 C 0.13769 0.28709 -0.05082
 C1449 C 0.16183 0.29500 -0.04476
 C1450 C 0.16588 0.31368 -0.02203
 C1451 C 0.15362 0.30080 -0.00140
 C1452 C 0.12939 0.29286 -0.00749
 C1453 C 0.12538 0.32658 -0.03414
 C1454 C 0.14949 0.33449 -0.02808
 C1455 C 0.09395 0.29047 -0.04087
 C1456 C 0.07280 0.28451 -0.04836
 C1457 C 0.19187 0.32267 -0.01628
 C1458 C 0.21306 0.33110 -0.01316
 H1459 H 0.13184 0.27378 -0.06639
 H1460 H 0.17664 0.28847 -0.05513
 H1461 H 0.16310 0.29816 0.01635
 H1462 H 0.11809 0.28341 0.00504
 H1463 H 0.11148 0.33911 -0.03881
 H1464 H 0.15624 0.35379 -0.02755
 C1465 C 0.36875 0.28017 0.06192
 C1466 C 0.35896 0.30062 0.07854
 C1467 C 0.33947 0.31113 0.06768
 C1468 C 0.33163 0.30018 0.04123
 C1469 C 0.32667 0.27232 0.04331
 C1470 C 0.34624 0.26177 0.05422
 C1471 C 0.37458 0.29229 0.03828
 C1472 C 0.35511 0.30279 0.02743
 C1473 C 0.39021 0.26963 0.07368
 C1474 C 0.40860 0.26265 0.08372
 C1475 C 0.31128 0.31223 0.02926
 C1476 C 0.29613 0.32354 0.01865
 H1477 H 0.36663 0.30629 0.09727
 H1478 H 0.33043 0.32578 0.07708
 H1479 H 0.30936 0.26184 0.03684
 H1480 H 0.34571 0.24224 0.05709
 H1481 H 0.39244 0.29255 0.03067
 H1482 H 0.35631 0.31204 0.01051
 C1483 C 0.86814 0.78099 0.56222
 C1484 C 0.85639 0.79922 0.57978
 C1485 C 0.83701 0.80987 0.56884
 C1486 C 0.83126 0.80125 0.54141
 C1487 C 0.82734 0.77298 0.54060
 C1488 C 0.84679 0.76229 0.55158
 C1489 C 0.87496 0.79579 0.54051
 C1490 C 0.85562 0.80642 0.52959
 C1491 C 0.88947 0.77029 0.57407
 C1492 C 0.90776 0.76319 0.58418
 C1493 C 0.81103 0.81343 0.52937
 C1494 C 0.79598 0.82482 0.51874
 H1495 H 0.86269 0.80334 0.59915
 H1496 H 0.82670 0.82309 0.57883
 H1497 H 0.81079 0.76233 0.53221
 H1498 H 0.84691 0.74249 0.55259
 H1499 H 0.89339 0.79772 0.53420
 H1500 H 0.85750 0.81745 0.51392
   
