data_POSCAR
  _audit_creation_date              2014-09-24
  _audit_creation_method            'ToBaCCo'
  _symmetry_space_group_name_H-M    'P1'
  _symmetry_Int_Tables_number       1
  _symmetry_cell_setting            triclinic
  loop_
  _symmetry_equiv_pos_as_xyz
 x,y,z
_cell_length_a 80.3898
_cell_length_b 80.4016
_cell_length_c 80.4674
_cell_angle_alpha 90.010900
_cell_angle_beta 89.986900
_cell_angle_gamma 89.903300
loop_
  _atom_site_label
  _atom_site_type_symbol
  _atom_site_fract_x
  _atom_site_fract_y
  _atom_site_fract_z
C1 C 0.35835 0.33387 0.34632
 C2 C 0.34602 0.33389 0.35865
 C3 C 0.33382 0.34610 0.35865
 C4 C 0.33381 0.35842 0.34632
 C5 C 0.34600 0.35840 0.33413
 C6 C 0.35834 0.34605 0.33413
 C7 C 0.37126 0.32314 0.34282
 N8 N 0.37897 0.32860 0.32889
 C9 C 0.37124 0.34253 0.32342
 C10 C 0.34249 0.37129 0.32342
 N11 N 0.32855 0.37903 0.32890
 C12 C 0.32309 0.37133 0.34282
 C13 C 0.32312 0.34262 0.37155
 N14 N 0.32860 0.32869 0.37926
 C15 C 0.34254 0.32319 0.37154
 H16 H 0.37459 0.31203 0.34966
 H17 H 0.37455 0.34936 0.31231
 H18 H 0.34933 0.37460 0.31231
 H19 H 0.31197 0.37467 0.34966
 H20 H 0.31200 0.34947 0.37487
 H21 H 0.34939 0.31207 0.37486
 C22 C 0.35843 0.83390 -0.15440
 C23 C 0.34610 0.83391 -0.14208
 C24 C 0.33389 0.84611 -0.14208
 C25 C 0.33388 0.85843 -0.15441
 C26 C 0.34607 0.85842 -0.16660
 C27 C 0.35842 0.84608 -0.16659
 C28 C 0.37135 0.82317 -0.15788
 N29 N 0.37907 0.82865 -0.17180
 C30 C 0.37133 0.84258 -0.17730
 C31 C 0.34257 0.87132 -0.17731
 N32 N 0.32863 0.87905 -0.17182
 C33 C 0.32315 0.87134 -0.15790
 C34 C 0.32319 0.84264 -0.12918
 N35 N 0.32868 0.82871 -0.12146
 C36 C 0.34262 0.82322 -0.12917
 H37 H 0.37468 0.81206 -0.15102
 H38 H 0.37464 0.84942 -0.18840
 H39 H 0.34942 0.87462 -0.18842
 H40 H 0.31203 0.87467 -0.15104
 H41 H 0.31207 0.84949 -0.12586
 H42 H 0.34948 0.81211 -0.12584
 C43 C 0.85835 0.33392 -0.15429
 C44 C 0.84602 0.33393 -0.14197
 C45 C 0.83383 0.34614 -0.14195
 C46 C 0.83382 0.35848 -0.15427
 C47 C 0.84601 0.35847 -0.16645
 C48 C 0.85834 0.34611 -0.16647
 C49 C 0.87126 0.32318 -0.15779
 N50 N 0.87897 0.32867 -0.17171
 C51 C 0.87125 0.34261 -0.17718
 C52 C 0.84252 0.37138 -0.17715
 N53 N 0.82859 0.37912 -0.17165
 C54 C 0.82310 0.37141 -0.15773
 C55 C 0.82312 0.34266 -0.12905
 N56 N 0.82860 0.32872 -0.12134
 C57 C 0.84253 0.32323 -0.12907
 H58 H 0.87457 0.31206 -0.15094
 H59 H 0.87456 0.34947 -0.18829
 H60 H 0.84937 0.37469 -0.18826
 H61 H 0.81199 0.37474 -0.15087
 H62 H 0.81201 0.34952 -0.12572
 H63 H 0.84938 0.31210 -0.12576
 C64 C 0.85860 0.83407 0.34617
 C65 C 0.84627 0.83408 0.35850
 C66 C 0.83406 0.84627 0.35850
 C67 C 0.83403 0.85859 0.34617
 C68 C 0.84622 0.85859 0.33398
 C69 C 0.85858 0.84625 0.33398
 C70 C 0.87153 0.82335 0.34268
 N71 N 0.87923 0.82883 0.32875
 C72 C 0.87148 0.84276 0.32326
 C73 C 0.84271 0.87148 0.32327
 N74 N 0.82876 0.87920 0.32876
 C75 C 0.82329 0.87150 0.34269
 C76 C 0.82336 0.84278 0.37140
 N77 N 0.82887 0.82886 0.37912
 C78 C 0.84280 0.82338 0.37140
 H79 H 0.87486 0.81224 0.34953
 H80 H 0.87478 0.84961 0.31215
 H81 H 0.84955 0.87479 0.31216
 H82 H 0.81217 0.87481 0.34954
 H83 H 0.81224 0.84963 0.37473
 H84 H 0.84967 0.81227 0.37472
 C85 C 0.64167 0.66624 0.34629
 C86 C 0.65399 0.66621 0.35862
 C87 C 0.66617 0.65399 0.35864
 C88 C 0.66617 0.64165 0.34632
 C89 C 0.65400 0.64168 0.33413
 C90 C 0.64167 0.65404 0.33411
 C91 C 0.62878 0.67698 0.34277
 N92 N 0.62107 0.67152 0.32885
 C93 C 0.62879 0.65756 0.32340
 C94 C 0.65749 0.62876 0.32344
 N95 N 0.67141 0.62101 0.32892
 C96 C 0.67688 0.62872 0.34284
 C97 C 0.67687 0.65747 0.37154
 N98 N 0.67140 0.67142 0.37924
 C99 C 0.65748 0.67693 0.37151
 H100 H 0.62546 0.68811 0.34960
 H101 H 0.62547 0.65072 0.31229
 H102 H 0.65066 0.62545 0.31233
 H103 H 0.68799 0.62538 0.34969
 H104 H 0.68798 0.65060 0.37487
 H105 H 0.65065 0.68806 0.37482
 C106 C 0.64138 0.16604 -0.15422
 C107 C 0.65371 0.16604 -0.14190
 C108 C 0.66591 0.15384 -0.14189
 C109 C 0.66593 0.14150 -0.15420
 C110 C 0.65374 0.14149 -0.16639
 C111 C 0.64139 0.15383 -0.16639
 C112 C 0.62846 0.17676 -0.15771
 N113 N 0.62075 0.17126 -0.17162
 C114 C 0.62848 0.15732 -0.17710
 C115 C 0.65725 0.12858 -0.17708
 N116 N 0.67118 0.12085 -0.17159
 C117 C 0.67666 0.12858 -0.15768
 C118 C 0.67662 0.15733 -0.12900
 N119 N 0.67113 0.17127 -0.12129
 C120 C 0.65719 0.17675 -0.12901
 H121 H 0.62513 0.18788 -0.15086
 H122 H 0.62518 0.15045 -0.18820
 H123 H 0.65040 0.12526 -0.18819
 H124 H 0.68778 0.12527 -0.15082
 H125 H 0.68774 0.15048 -0.12567
 H126 H 0.65033 0.18787 -0.12569
 C127 C 0.14148 0.66600 -0.15419
 C128 C 0.15383 0.66599 -0.14188
 C129 C 0.16602 0.65378 -0.14189
 C130 C 0.16602 0.64144 -0.15420
 C131 C 0.15382 0.64145 -0.16637
 C132 C 0.14148 0.65380 -0.16637
 C133 C 0.12857 0.67673 -0.15767
 N134 N 0.12085 0.67124 -0.17158
 C135 C 0.12856 0.65729 -0.17707
 C136 C 0.15730 0.62853 -0.17707
 N137 N 0.17124 0.62079 -0.17159
 C138 C 0.17674 0.62852 -0.15768
 C139 C 0.17674 0.65727 -0.12900
 N140 N 0.17126 0.67122 -0.12129
 C141 C 0.15732 0.67670 -0.12900
 H142 H 0.12526 0.68785 -0.15083
 H143 H 0.12525 0.65043 -0.18817
 H144 H 0.15044 0.62521 -0.18817
 H145 H 0.18786 0.62520 -0.15084
 H146 H 0.18786 0.65042 -0.12568
 H147 H 0.15047 0.68783 -0.12568
 C148 C 0.14168 0.16623 0.34580
 C149 C 0.15398 0.16619 0.35815
 C150 C 0.16618 0.15399 0.35815
 C151 C 0.16623 0.14169 0.34580
 C152 C 0.15407 0.14172 0.33358
 C153 C 0.14172 0.15406 0.33358
 C154 C 0.12877 0.17695 0.34231
 N155 N 0.12109 0.17150 0.32836
 C156 C 0.12884 0.15758 0.32286
 C157 C 0.15760 0.12884 0.32286
 N158 N 0.17152 0.12109 0.32836
 C159 C 0.17697 0.12878 0.34231
 C160 C 0.17685 0.15745 0.37108
 N161 N 0.17134 0.17136 0.37882
 C162 C 0.15742 0.17686 0.37108
 H163 H 0.12542 0.18805 0.34918
 H164 H 0.12556 0.15075 0.31173
 H165 H 0.15077 0.12555 0.31173
 H166 H 0.18807 0.12544 0.34918
 H167 H 0.18796 0.15059 0.37441
 H168 H 0.15056 0.18797 0.37441
 C169 C 0.64158 0.33379 0.65389
 C170 C 0.65390 0.33379 0.64155
 C171 C 0.66608 0.34598 0.64155
 C172 C 0.66608 0.35829 0.65389
 C173 C 0.65390 0.35828 0.66609
 C174 C 0.64158 0.34596 0.66608
 C175 C 0.62870 0.32307 0.65738
 N176 N 0.62098 0.32853 0.67132
 C177 C 0.62869 0.34245 0.67680
 C178 C 0.65740 0.37117 0.67681
 N179 N 0.67132 0.37888 0.67133
 C180 C 0.67678 0.37118 0.65739
 C181 C 0.67678 0.34249 0.62865
 N182 N 0.67132 0.32857 0.62092
 C183 C 0.65740 0.32310 0.62864
 H184 H 0.62538 0.31197 0.65054
 H185 H 0.62538 0.34928 0.68792
 H186 H 0.65056 0.37448 0.68793
 H187 H 0.68789 0.37450 0.65055
 H188 H 0.68789 0.34933 0.62532
 H189 H 0.65057 0.31199 0.62532
 C190 C 0.64119 0.83384 1.15416
 C191 C 0.65350 0.83383 1.14182
 C192 C 0.66572 0.84598 1.14184
 C193 C 0.66576 0.85827 1.15420
 C194 C 0.65359 0.85828 1.16640
 C195 C 0.64123 0.84600 1.16638
 C196 C 0.62826 0.82316 1.15764
 N197 N 0.62057 0.82864 1.17158
 C198 C 0.62833 0.84253 1.17710
 C199 C 0.65713 0.87114 1.17713
 N200 N 0.67107 0.87883 1.17166
 C201 C 0.67650 0.87112 1.15771
 C202 C 0.67641 0.84248 1.12893
 N203 N 0.67090 0.82859 1.12118
 C204 C 0.65696 0.82315 1.12889
 H205 H 0.62492 0.81208 1.15076
 H206 H 0.62505 0.84936 1.18823
 H207 H 0.65031 0.87447 1.18826
 H208 H 0.68761 0.87443 1.15086
 H209 H 0.68753 0.84929 1.12561
 H210 H 0.65010 0.81206 1.12555
 C211 C 0.14127 0.33377 1.15410
 C212 C 0.15357 0.33379 1.14175
 C213 C 0.16572 0.34600 1.14173
 C214 C 0.16572 0.35832 1.15406
 C215 C 0.15356 0.35829 1.16628
 C216 C 0.14126 0.34595 1.16630
 C217 C 0.12841 0.32303 1.15761
 N218 N 0.12071 0.32849 1.17156
 C219 C 0.12840 0.34243 1.17704
 C220 C 0.15705 0.37119 1.17698
 N221 N 0.17094 0.37894 1.17148
 C222 C 0.17640 0.37124 1.15753
 C223 C 0.17641 0.34253 1.12880
 N224 N 0.17096 0.32860 1.12109
 C225 C 0.15707 0.32310 1.12884
 H226 H 0.12511 0.31192 1.15076
 H227 H 0.12509 0.34927 1.18816
 H228 H 0.15022 0.37450 1.18811
 H229 H 0.18749 0.37458 1.15066
 H230 H 0.18750 0.34939 1.12546
 H231 H 0.15025 0.31198 1.12552
 C232 C 0.14182 0.83424 0.65415
 C233 C 0.15412 0.83428 0.64179
 C234 C 0.16629 0.84646 0.64179
 C235 C 0.16631 0.85876 0.65415
 C236 C 0.15415 0.85873 0.66637
 C237 C 0.14184 0.84640 0.66637
 C238 C 0.12894 0.82353 0.65765
 N239 N 0.12125 0.82896 0.67161
 C240 C 0.12897 0.84287 0.67710
 C241 C 0.15765 0.87160 0.67711
 N242 N 0.17156 0.87933 0.67160
 C243 C 0.17702 0.87165 0.65764
 C244 C 0.17697 0.84300 0.62885
 N245 N 0.17149 0.82909 0.62111
 C246 C 0.15759 0.82360 0.62886
 H247 H 0.12561 0.81243 0.65078
 H248 H 0.12566 0.84968 0.68824
 H249 H 0.15083 0.87488 0.68825
 H250 H 0.18811 0.87498 0.65076
 H251 H 0.18807 0.84985 0.62552
 H252 H 0.15075 0.81250 0.62553
 C253 C 0.35837 0.66596 0.65375
 C254 C 0.34606 0.66596 0.64141
 C255 C 0.33387 0.65380 0.64141
 C256 C 0.33384 0.64148 0.65375
 C257 C 0.34601 0.64148 0.66594
 C258 C 0.35835 0.65379 0.66594
 C259 C 0.37126 0.67666 0.65725
 N260 N 0.37896 0.67120 0.67119
 C261 C 0.37123 0.65729 0.67667
 C262 C 0.34249 0.62861 0.67667
 N263 N 0.32856 0.62091 0.67119
 C264 C 0.32312 0.62861 0.65725
 C265 C 0.32317 0.65730 0.62850
 N266 N 0.32866 0.67121 0.62077
 C267 C 0.34259 0.67666 0.62850
 H268 H 0.37460 0.68776 0.65040
 H269 H 0.37453 0.65047 0.68779
 H270 H 0.34931 0.62530 0.68779
 H271 H 0.31201 0.62530 0.65040
 H272 H 0.31206 0.65047 0.62517
 H273 H 0.34944 0.68776 0.62518
 C274 C 0.35830 0.16570 1.15386
 C275 C 0.34596 0.16571 1.14154
 C276 C 0.33376 0.15356 1.14156
 C277 C 0.33375 0.14125 1.15390
 C278 C 0.34594 0.14124 1.16608
 C279 C 0.35828 0.15354 1.16606
 C280 C 0.37121 0.17639 1.15734
 N281 N 0.37892 0.17092 1.17126
 C282 C 0.37119 0.15702 1.17676
 C283 C 0.34243 0.12836 1.17682
 N284 N 0.32849 0.12068 1.17134
 C285 C 0.32301 0.12838 1.15741
 C286 C 0.32305 0.15706 1.12867
 N287 N 0.32854 0.17096 1.12093
 C288 C 0.34248 0.17641 1.12864
 H289 H 0.37454 0.18748 1.15048
 H290 H 0.37450 0.15019 1.18787
 H291 H 0.34928 0.12506 1.18793
 H292 H 0.31189 0.12509 1.15057
 H293 H 0.31193 0.15024 1.12536
 H294 H 0.34933 0.18750 1.12530
 C295 C 0.85847 0.66612 1.15399
 C296 C 0.84616 0.66608 1.14165
 C297 C 0.83403 0.65386 1.14163
 C298 C 0.83405 0.64154 1.15396
 C299 C 0.84622 0.64158 1.16616
 C300 C 0.85850 0.65395 1.16618
 C301 C 0.87132 0.67687 1.15750
 N302 N 0.87904 0.67143 1.17144
 C303 C 0.87136 0.65748 1.17690
 C304 C 0.84275 0.62868 1.17687
 N305 N 0.82886 0.62092 1.17138
 C306 C 0.82339 0.62862 1.15744
 C307 C 0.82332 0.65732 1.12872
 N308 N 0.82875 0.67126 1.12101
 C309 C 0.84265 0.67678 1.12875
 H310 H 0.87461 0.68799 1.15066
 H311 H 0.87469 0.65066 1.18802
 H312 H 0.84958 0.62539 1.18799
 H313 H 0.81230 0.62526 1.15059
 H314 H 0.81224 0.65045 1.12539
 H315 H 0.84945 0.68791 1.12543
 C316 C 0.85880 0.16625 0.65423
 C317 C 0.84652 0.16621 0.64187
 C318 C 0.83434 0.15403 0.64187
 C319 C 0.83430 0.14174 0.65423
 C320 C 0.84644 0.14177 0.66645
 C321 C 0.85877 0.15410 0.66646
 C322 C 0.87168 0.17697 0.65773
 N323 N 0.87935 0.17152 0.67170
 C324 C 0.87163 0.15761 0.67720
 C325 C 0.84292 0.12891 0.67718
 N326 N 0.82901 0.12118 0.67168
 C327 C 0.82359 0.12886 0.65772
 C328 C 0.82367 0.15748 0.62893
 N329 N 0.82916 0.17138 0.62119
 C330 C 0.84306 0.17688 0.62893
 H331 H 0.87501 0.18806 0.65086
 H332 H 0.87490 0.15079 0.68834
 H333 H 0.84972 0.12562 0.68832
 H334 H 0.81250 0.12552 0.65085
 H335 H 0.81257 0.15064 0.62559
 H336 H 0.84990 0.18798 0.62560
 C337 C 0.33367 0.35821 0.65420
 C338 C 0.33368 0.34587 0.64188
 C339 C 0.34588 0.33367 0.64188
 C340 C 0.35822 0.33366 0.65420
 C341 C 0.35821 0.34586 0.66637
 C342 C 0.34587 0.35820 0.66637
 C343 C 0.32296 0.37113 0.65768
 N344 N 0.32843 0.37886 0.67159
 C345 C 0.34237 0.37112 0.67706
 C346 C 0.37113 0.34237 0.67706
 N347 N 0.37887 0.32843 0.67159
 C348 C 0.37114 0.32295 0.65768
 C349 C 0.34240 0.32296 0.62899
 N350 N 0.32846 0.32845 0.62127
 C351 C 0.32297 0.34238 0.62899
 H352 H 0.31184 0.37446 0.65084
 H353 H 0.34922 0.37445 0.68816
 H354 H 0.37446 0.34922 0.68816
 H355 H 0.37447 0.31183 0.65084
 H356 H 0.34925 0.31184 0.62566
 H357 H 0.31186 0.34924 0.62566
 C358 C 0.33378 0.85884 0.15347
 C359 C 0.33379 0.84650 0.14115
 C360 C 0.34600 0.83432 0.14113
 C361 C 0.35835 0.83432 0.15344
 C362 C 0.35834 0.84651 0.16561
 C363 C 0.34599 0.85885 0.16563
 C364 C 0.32305 0.87175 0.15697
 N365 N 0.32854 0.87948 0.17088
 C366 C 0.34249 0.87176 0.17633
 C367 C 0.37126 0.84303 0.17630
 N368 N 0.37900 0.82909 0.17082
 C369 C 0.37127 0.82361 0.15692
 C370 C 0.34251 0.82360 0.12825
 N371 N 0.32856 0.82907 0.12055
 C372 C 0.32307 0.84301 0.12827
 H373 H 0.31193 0.87507 0.15015
 H374 H 0.34934 0.87509 0.18742
 H375 H 0.37459 0.84987 0.18740
 H376 H 0.37461 0.81249 0.15008
 H377 H 0.34937 0.81249 0.12492
 H378 H 0.31194 0.84985 0.12496
 C379 C 0.83422 0.35814 0.15358
 C380 C 0.83424 0.34581 0.14125
 C381 C 0.84645 0.33362 0.14124
 C382 C 0.85879 0.33362 0.15356
 C383 C 0.85877 0.34581 0.16574
 C384 C 0.84641 0.35814 0.16575
 C385 C 0.82349 0.37105 0.15708
 N386 N 0.82896 0.37877 0.17100
 C387 C 0.84290 0.37104 0.17646
 C388 C 0.87168 0.34231 0.17643
 N389 N 0.87943 0.32839 0.17096
 C390 C 0.87171 0.32291 0.15704
 C391 C 0.84297 0.32292 0.12834
 N392 N 0.82903 0.32840 0.12063
 C393 C 0.82353 0.34233 0.12836
 H394 H 0.81237 0.37437 0.15025
 H395 H 0.84974 0.37436 0.18756
 H396 H 0.87499 0.34916 0.18754
 H397 H 0.87505 0.31180 0.15020
 H398 H 0.84983 0.31181 0.12501
 H399 H 0.81241 0.34917 0.12504
 C400 C 0.83409 0.85860 0.65416
 C401 C 0.83412 0.84628 0.64183
 C402 C 0.84632 0.83408 0.64182
 C403 C 0.85865 0.83407 0.65415
 C404 C 0.85862 0.84625 0.66634
 C405 C 0.84627 0.85858 0.66635
 C406 C 0.82337 0.87151 0.65765
 N407 N 0.82882 0.87922 0.67158
 C408 C 0.84276 0.87148 0.67705
 C409 C 0.87152 0.84274 0.67705
 N410 N 0.87927 0.82881 0.67157
 C411 C 0.87156 0.82335 0.65764
 C412 C 0.84285 0.82338 0.62892
 N413 N 0.82892 0.82887 0.62120
 C414 C 0.82342 0.84280 0.62892
 H415 H 0.81225 0.87484 0.65081
 H416 H 0.84959 0.87480 0.68817
 H417 H 0.87483 0.84957 0.68816
 H418 H 0.87491 0.81224 0.65080
 H419 H 0.84971 0.81227 0.62559
 H420 H 0.81230 0.84965 0.62560
 C421 C 0.66626 0.64163 0.65410
 C422 C 0.66626 0.65397 0.64178
 C423 C 0.65406 0.66616 0.64177
 C424 C 0.64171 0.66617 0.65409
 C425 C 0.64171 0.65397 0.66626
 C426 C 0.65406 0.64163 0.66626
 C427 C 0.67698 0.62872 0.65759
 N428 N 0.67150 0.62099 0.67149
 C429 C 0.65755 0.62872 0.67696
 C430 C 0.62879 0.65747 0.67695
 N431 N 0.62105 0.67140 0.67147
 C432 C 0.62878 0.67688 0.65757
 C433 C 0.65755 0.67687 0.62888
 N434 N 0.67149 0.67139 0.62118
 C435 C 0.67698 0.65746 0.62889
 H436 H 0.68810 0.62538 0.65075
 H437 H 0.65070 0.62540 0.68805
 H438 H 0.62545 0.65062 0.68804
 H439 H 0.62545 0.68799 0.65073
 H440 H 0.65069 0.68798 0.62556
 H441 H 0.68810 0.65060 0.62557
 C442 C 0.66642 0.14118 0.15368
 C443 C 0.66640 0.15349 0.14135
 C444 C 0.65417 0.16566 0.14132
 C445 C 0.64182 0.16566 0.15363
 C446 C 0.64185 0.15350 0.16582
 C447 C 0.65422 0.14118 0.16585
 C448 C 0.67717 0.12829 0.15720
 N449 N 0.67170 0.12058 0.17113
 C450 C 0.65774 0.12830 0.17657
 C451 C 0.62893 0.15699 0.17651
 N452 N 0.62117 0.17090 0.17102
 C453 C 0.62889 0.17636 0.15710
 C454 C 0.65765 0.17636 0.12841
 N455 N 0.67160 0.17089 0.12072
 C456 C 0.67711 0.15698 0.12846
 H457 H 0.68830 0.12497 0.15038
 H458 H 0.65089 0.12498 0.18767
 H459 H 0.62561 0.15016 0.18763
 H460 H 0.62554 0.18747 0.15025
 H461 H 0.65077 0.18745 0.12507
 H462 H 0.68825 0.15015 0.12515
 C463 C 0.16585 0.64190 0.15365
 C464 C 0.16586 0.65424 0.14133
 C465 C 0.15369 0.66647 0.14136
 C466 C 0.14137 0.66650 0.15370
 C467 C 0.14136 0.65431 0.16587
 C468 C 0.15368 0.64193 0.16584
 C469 C 0.17655 0.62896 0.15712
 N470 N 0.17108 0.62125 0.17104
 C471 C 0.15716 0.62902 0.17653
 C472 C 0.12847 0.65783 0.17659
 N473 N 0.12076 0.67179 0.17114
 C474 C 0.12848 0.67725 0.15721
 C475 C 0.15718 0.67717 0.12846
 N476 N 0.17110 0.67165 0.12073
 C477 C 0.17656 0.65770 0.12843
 H478 H 0.18766 0.62561 0.15027
 H479 H 0.15033 0.62571 0.18764
 H480 H 0.12515 0.65099 0.18769
 H481 H 0.12516 0.68837 0.15039
 H482 H 0.15035 0.68830 0.12516
 H483 H 0.18766 0.65082 0.12509
 C484 C 0.16581 0.14129 0.65399
 C485 C 0.16581 0.15362 0.64167
 C486 C 0.15361 0.16582 0.64168
 C487 C 0.14128 0.16584 0.65401
 C488 C 0.14129 0.15365 0.66619
 C489 C 0.15363 0.14130 0.66618
 C490 C 0.17653 0.12837 0.65747
 N491 N 0.17106 0.12065 0.67139
 C492 C 0.15713 0.12839 0.67687
 C493 C 0.12838 0.15716 0.67689
 N494 N 0.12065 0.17110 0.67143
 C495 C 0.12837 0.17656 0.65751
 C496 C 0.15710 0.17653 0.62879
 N497 N 0.17103 0.17103 0.62106
 C498 C 0.17651 0.15710 0.62878
 H499 H 0.18764 0.12503 0.65063
 H500 H 0.15029 0.12508 0.68798
 H501 H 0.12506 0.15032 0.68800
 H502 H 0.12504 0.18768 0.65067
 H503 H 0.15025 0.18765 0.62547
 H504 H 0.18763 0.15024 0.62545
 C505 C 0.33400 0.64174 0.34574
 C506 C 0.33400 0.65407 0.35807
 C507 C 0.34618 0.66624 0.35807
 C508 C 0.35850 0.66624 0.34573
 C509 C 0.35849 0.65407 0.33353
 C510 C 0.34617 0.64174 0.33354
 C511 C 0.32329 0.62885 0.34225
 N512 N 0.32876 0.62113 0.32832
 C513 C 0.34268 0.62885 0.32283
 C514 C 0.37139 0.65756 0.32282
 N515 N 0.37910 0.67148 0.32830
 C516 C 0.37139 0.67695 0.34223
 C517 C 0.34269 0.67695 0.37097
 N518 N 0.32877 0.67148 0.37871
 C519 C 0.32330 0.65756 0.37098
 H520 H 0.31219 0.62553 0.34911
 H521 H 0.34951 0.62552 0.31172
 H522 H 0.37471 0.65072 0.31171
 H523 H 0.37471 0.68805 0.34908
 H524 H 0.34953 0.68805 0.37430
 H525 H 0.31220 0.65072 0.37431
 C526 C 0.33404 0.14101 0.84619
 C527 C 0.33401 0.15335 0.85851
 C528 C 0.34619 0.16553 0.85852
 C529 C 0.35855 0.16550 0.84622
 C530 C 0.35858 0.15331 0.83405
 C531 C 0.34625 0.14099 0.83403
 C532 C 0.32334 0.12812 0.84269
 N533 N 0.32884 0.12039 0.82878
 C534 C 0.34278 0.12809 0.82333
 C535 C 0.37149 0.15679 0.82336
 N536 N 0.37920 0.17071 0.82883
 C537 C 0.37145 0.17620 0.84274
 C538 C 0.34267 0.17625 0.87140
 N539 N 0.32873 0.17080 0.87910
 C540 C 0.32327 0.15687 0.87138
 H541 H 0.31221 0.12482 0.84951
 H542 H 0.34964 0.12475 0.81223
 H543 H 0.37484 0.14994 0.81226
 H544 H 0.37475 0.18732 0.84957
 H545 H 0.34950 0.18736 0.87473
 H546 H 0.31215 0.15004 0.87469
 C547 C 0.83425 0.64130 0.84628
 C548 C 0.83422 0.65365 0.85858
 C549 C 0.84640 0.66583 0.85859
 C550 C 0.85876 0.66580 0.84628
 C551 C 0.85879 0.65359 0.83412
 C552 C 0.84646 0.64127 0.83411
 C553 C 0.82355 0.62841 0.84279
 N554 N 0.82905 0.62066 0.82888
 C555 C 0.84299 0.62836 0.82342
 C556 C 0.87170 0.65707 0.82342
 N557 N 0.87940 0.67100 0.82889
 C558 C 0.87166 0.67650 0.84279
 C559 C 0.84288 0.67656 0.87146
 N560 N 0.82894 0.67111 0.87916
 C561 C 0.82349 0.65717 0.87146
 H562 H 0.81243 0.62511 0.84961
 H563 H 0.84985 0.62502 0.81233
 H564 H 0.87505 0.65021 0.81233
 H565 H 0.87496 0.68762 0.84962
 H566 H 0.84971 0.68768 0.87477
 H567 H 0.81237 0.65035 0.87477
 C568 C 0.83465 0.14118 0.34609
 C569 C 0.83464 0.15352 0.35841
 C570 C 0.84682 0.16570 0.35840
 C571 C 0.85915 0.16568 0.34607
 C572 C 0.85915 0.15349 0.33389
 C573 C 0.84683 0.14117 0.33390
 C574 C 0.82394 0.12829 0.34261
 N575 N 0.82941 0.12056 0.32869
 C576 C 0.84333 0.12826 0.32321
 C577 C 0.87204 0.15697 0.32318
 N578 N 0.87976 0.17090 0.32864
 C579 C 0.87204 0.17638 0.34256
 C580 C 0.84332 0.17642 0.37129
 N581 N 0.82940 0.17096 0.37902
 C582 C 0.82394 0.15703 0.37131
 H583 H 0.81283 0.12498 0.34946
 H584 H 0.85017 0.12493 0.31209
 H585 H 0.87536 0.15012 0.31207
 H586 H 0.87536 0.18750 0.34939
 H587 H 0.85016 0.18753 0.37460
 H588 H 0.81283 0.15020 0.37464
 C589 C 0.66604 0.35825 0.34603
 C590 C 0.66605 0.34593 0.35835
 C591 C 0.65387 0.33374 0.35835
 C592 C 0.64154 0.33374 0.34603
 C593 C 0.64154 0.34592 0.33385
 C594 C 0.65385 0.35825 0.33385
 C595 C 0.67674 0.37115 0.34254
 N596 N 0.67126 0.37886 0.32861
 C597 C 0.65734 0.37115 0.32314
 C598 C 0.62864 0.34243 0.32314
 N599 N 0.62093 0.32851 0.32861
 C600 C 0.62866 0.32303 0.34254
 C601 C 0.65738 0.32304 0.37125
 N602 N 0.67130 0.32851 0.37897
 C603 C 0.67676 0.34243 0.37125
 H604 H 0.68784 0.37447 0.34938
 H605 H 0.65050 0.37447 0.31203
 H606 H 0.62531 0.34927 0.31203
 H607 H 0.62534 0.31192 0.34938
 H608 H 0.65055 0.31192 0.37457
 H609 H 0.68786 0.34927 0.37457
 C610 C 0.66564 0.85884 0.84631
 C611 C 0.66566 0.84649 0.85861
 C612 C 0.65348 0.83431 0.85860
 C613 C 0.64114 0.83434 0.84628
 C614 C 0.64113 0.84654 0.83412
 C615 C 0.65345 0.85886 0.83413
 C616 C 0.67635 0.87173 0.84282
 N617 N 0.67087 0.87947 0.82891
 C618 C 0.65694 0.87176 0.82344
 C619 C 0.62823 0.84306 0.82341
 N620 N 0.62053 0.82912 0.82886
 C621 C 0.62825 0.82363 0.84278
 C622 C 0.65698 0.82358 0.87147
 N623 N 0.67091 0.82903 0.87919
 C624 C 0.67637 0.84297 0.87149
 H625 H 0.68747 0.87503 0.84966
 H626 H 0.65010 0.87510 0.81234
 H627 H 0.62491 0.84991 0.81231
 H628 H 0.62494 0.81251 0.84960
 H629 H 0.65015 0.81247 0.87478
 H630 H 0.68749 0.84980 0.87482
 C631 C 0.16551 0.35864 0.84623
 C632 C 0.16552 0.34629 0.85853
 C633 C 0.15335 0.33411 0.85852
 C634 C 0.14101 0.33413 0.84621
 C635 C 0.14099 0.34633 0.83404
 C636 C 0.15331 0.35866 0.83406
 C637 C 0.17621 0.37153 0.84275
 N638 N 0.17072 0.37927 0.82884
 C639 C 0.15679 0.37157 0.82337
 C640 C 0.12809 0.34286 0.82334
 N641 N 0.12039 0.32892 0.82880
 C642 C 0.12812 0.32343 0.84271
 C643 C 0.15686 0.32338 0.87139
 N644 N 0.17079 0.32883 0.87911
 C645 C 0.17625 0.34277 0.87141
 H646 H 0.18732 0.37484 0.84958
 H647 H 0.14994 0.37491 0.81227
 H648 H 0.12475 0.34971 0.81225
 H649 H 0.12481 0.31231 0.84953
 H650 H 0.15003 0.31226 0.87470
 H651 H 0.18736 0.34960 0.87473
 C652 C 0.16587 0.85923 0.34614
 C653 C 0.16588 0.84691 0.35847
 C654 C 0.15369 0.83474 0.35849
 C655 C 0.14134 0.83475 0.34618
 C656 C 0.14133 0.84693 0.33400
 C657 C 0.15367 0.85924 0.33398
 C658 C 0.17658 0.87211 0.34263
 N659 N 0.17109 0.87983 0.32871
 C660 C 0.15715 0.87213 0.32326
 C661 C 0.12842 0.84345 0.32331
 N662 N 0.12071 0.82953 0.32880
 C663 C 0.12844 0.82406 0.34271
 C664 C 0.15720 0.82403 0.37138
 N665 N 0.17115 0.82948 0.37907
 C666 C 0.17661 0.84340 0.37134
 H667 H 0.18770 0.87542 0.34945
 H668 H 0.15030 0.87546 0.31216
 H669 H 0.12509 0.85029 0.31220
 H670 H 0.12513 0.81295 0.34955
 H671 H 0.15037 0.81292 0.37471
 H672 H 0.18773 0.85022 0.37464
 O673 O 0.24823 1.01690 0.27100
 O674 O 0.27104 0.98442 0.24807
 O675 O 0.27108 1.01684 0.24810
 O676 O 0.24819 0.98448 0.27098
 O677 O 0.22871 0.98454 0.25157
 O678 O 0.25160 1.01691 0.22869
 O679 O 0.25156 0.98448 0.22867
 O680 O 0.22875 1.01697 0.25159
 Cu681 Cu 0.26160 1.00065 0.26149
 Cu682 Cu 0.23819 1.00073 0.23818
 C683 C 0.23466 1.02245 0.26514
 C684 C 0.26512 0.97893 0.23453
 C685 C 0.26519 1.02237 0.23456
 C686 C 0.23461 0.97901 0.26511
 O687 O 0.22842 0.48404 0.75187
 O688 O 0.25133 0.51639 0.72898
 O689 O 0.25132 0.48396 0.72902
 O690 O 0.22843 0.51647 0.75184
 O691 O 0.24788 0.51645 0.77128
 O692 O 0.27076 0.48395 0.74846
 O693 O 0.27077 0.51637 0.74842
 O694 O 0.24786 0.48402 0.77131
 Cu695 Cu 0.23791 0.50022 0.73846
 Cu696 Cu 0.26128 0.50020 0.76183
 C697 C 0.23430 0.47853 0.76542
 C698 C 0.26490 0.52187 0.73486
 C699 C 0.26488 0.47843 0.73492
 C700 C 0.23432 0.52198 0.76539
 O701 O 0.77160 0.01568 0.25189
 O702 O 0.74861 -0.01672 0.22914
 O703 O 0.74871 0.01571 0.22904
 O704 O 0.77152 -0.01674 0.25198
 O705 O 0.75208 -0.01660 0.27143
 O706 O 0.72927 0.01586 0.24849
 O707 O 0.72917 -0.01657 0.24859
 O708 O 0.75216 0.01583 0.27134
 Cu709 Cu 0.76207 -0.00053 0.23855
 Cu710 Cu 0.73871 -0.00036 0.26193
 C711 C 0.76573 0.02126 0.26543
 C712 C 0.73504 -0.02214 0.23505
 C713 C 0.73516 0.02129 0.23492
 C714 C 0.76562 -0.02218 0.26556
 O715 O 0.74850 0.48350 0.72901
 O716 O 0.77142 0.51586 0.75188
 O717 O 0.77139 0.48344 0.75186
 O718 O 0.74853 0.51593 0.72902
 O719 O 0.72908 0.51597 0.74846
 O720 O 0.75194 0.48348 0.77130
 O721 O 0.75197 0.51591 0.77132
 O722 O 0.72905 0.48355 0.74845
 Cu723 Cu 0.76192 0.49968 0.73848
 Cu724 Cu 0.73855 0.49973 0.76185
 C725 C 0.73494 0.47803 0.73489
 C726 C 0.76553 0.52138 0.76543
 C727 C 0.76550 0.47794 0.76541
 C728 C 0.73498 0.52147 0.73491
 O729 O 0.27098 0.51623 0.25154
 O730 O 0.24805 0.48380 0.22879
 O731 O 0.24809 0.51623 0.22870
 O732 O 0.27094 0.48381 0.25164
 O733 O 0.25149 0.48393 0.27109
 O734 O 0.22864 0.51635 0.24815
 O735 O 0.22860 0.48392 0.24824
 O736 O 0.25154 0.51635 0.27099
 Cu737 Cu 0.26148 0.50001 0.23820
 Cu738 Cu 0.23811 0.50015 0.26158
 C739 C 0.26511 0.52180 0.26508
 C740 C 0.23448 0.47835 0.23470
 C741 C 0.23453 0.52180 0.23458
 C742 C 0.26505 0.47836 0.26521
 O743 O 0.77101 0.98412 0.74862
 O744 O 0.74806 1.01660 0.77143
 O745 O 0.74806 0.98417 0.77143
 O746 O 0.77102 1.01655 0.74863
 O747 O 0.75163 1.01659 0.72914
 O748 O 0.72866 0.98421 0.75194
 O749 O 0.72867 1.01663 0.75194
 O750 O 0.75161 0.98416 0.72914
 Cu751 Cu 0.76150 1.00036 0.76199
 Cu752 Cu 0.73819 1.00040 0.73857
 C753 C 0.76516 0.97863 0.73505
 C754 C 0.73452 1.02213 0.76551
 C755 C 0.73451 0.97869 0.76551
 C756 C 0.76518 1.02206 0.73507
 O757 O 0.74845 0.51602 0.27117
 O758 O 0.77130 0.48358 0.24823
 O759 O 0.77132 0.51601 0.24829
 O760 O 0.74842 0.48359 0.27111
 O761 O 0.72896 0.48367 0.25169
 O762 O 0.75186 0.51609 0.22887
 O763 O 0.75183 0.48366 0.22881
 O764 O 0.72899 0.51610 0.25175
 Cu765 Cu 0.76184 0.49979 0.26166
 Cu766 Cu 0.73845 0.49989 0.23832
 C767 C 0.73489 0.52157 0.26531
 C768 C 0.76540 0.47811 0.23467
 C769 C 0.76543 0.52155 0.23476
 C770 C 0.73485 0.47813 0.26522
 O771 O 0.25178 -0.01676 0.77112
 O772 O 0.22885 0.01570 0.74831
 O773 O 0.22887 -0.01672 0.74828
 O774 O 0.25176 0.01566 0.77115
 O775 O 0.27119 0.01566 0.75168
 O776 O 0.24830 -0.01673 0.72882
 O777 O 0.24828 0.01570 0.72885
 O778 O 0.27121 -0.01677 0.75165
 Cu779 Cu 0.23836 -0.00053 0.76168
 Cu780 Cu 0.26171 -0.00054 0.73829
 C781 C 0.26535 -0.02228 0.76521
 C782 C 0.23472 0.02121 0.73476
 C783 C 0.23475 -0.02223 0.73472
 C784 C 0.26532 0.02116 0.76525
 O785 O 0.25145 0.22866 0.98373
 O786 O 0.22856 0.25157 1.01615
 O787 O 0.22856 0.25157 0.98375
 O788 O 0.25145 0.22866 1.01613
 O789 O 0.27090 0.24809 1.01613
 O790 O 0.24800 0.27100 0.98374
 O791 O 0.24801 0.27100 1.01614
 O792 O 0.27090 0.24808 0.98373
 Cu793 Cu 0.23804 0.23816 0.99994
 Cu794 Cu 0.26141 0.26150 0.99994
 C795 C 0.26501 0.23453 0.97823
 C796 C 0.23445 0.26512 1.02165
 C797 C 0.23444 0.26513 0.97824
 C798 C 0.26501 0.23453 1.02163
 O799 O 0.24835 0.77152 0.48366
 O800 O 0.27121 0.74852 0.51601
 O801 O 0.27121 0.74857 0.48361
 O802 O 0.24837 0.77148 0.51606
 O803 O 0.22888 0.75209 0.51604
 O804 O 0.25172 0.72918 0.48359
 O805 O 0.25172 0.72913 0.51599
 O806 O 0.22887 0.75214 0.48364
 Cu807 Cu 0.26175 0.76198 0.49984
 Cu808 Cu 0.23833 0.73868 0.49981
 C809 C 0.23478 0.76569 0.47816
 C810 C 0.26530 0.73497 0.52150
 C811 C 0.26530 0.73504 0.47809
 C812 C 0.23480 0.76562 0.52156
 O813 O 0.22877 0.74841 -0.01659
 O814 O 0.25159 0.77134 0.01579
 O815 O 0.25162 0.77128 -0.01661
 O816 O 0.22873 0.74848 0.01581
 O817 O 0.24820 0.72902 0.01587
 O818 O 0.27110 0.75182 -0.01656
 O819 O 0.27106 0.75188 0.01584
 O820 O 0.24824 0.72895 -0.01654
 Cu821 Cu 0.23821 0.76184 -0.00041
 Cu822 Cu 0.26162 0.73845 -0.00034
 C823 C 0.23468 0.73483 -0.02206
 C824 C 0.26515 0.76546 0.02131
 C825 C 0.26520 0.76537 -0.02209
 C826 C 0.23463 0.73493 0.02135
 O827 O 0.22866 0.24816 0.48392
 O828 O 0.25148 0.27098 0.51638
 O829 O 0.25151 0.27103 0.48398
 O830 O 0.22862 0.24812 0.51633
 O831 O 0.24810 0.22866 0.51631
 O832 O 0.27099 0.25157 0.48396
 O833 O 0.27096 0.25152 0.51636
 O834 O 0.24813 0.22870 0.48391
 Cu835 Cu 0.23810 0.26154 0.50015
 Cu836 Cu 0.26151 0.23815 0.50013
 C837 C 0.23457 0.23461 0.47840
 C838 C 0.26505 0.26508 0.52188
 C839 C 0.26509 0.26514 0.47847
 C840 C 0.23452 0.23455 0.52181
 O841 O 0.75158 0.72883 0.98379
 O842 O 0.72862 0.75167 1.01621
 O843 O 0.72865 0.75171 0.98381
 O844 O 0.75156 0.72880 1.01619
 O845 O 0.77097 0.74826 1.01622
 O846 O 0.74806 0.77117 0.98384
 O847 O 0.74804 0.77113 1.01624
 O848 O 0.77099 0.74829 0.98382
 Cu849 Cu 0.73814 0.73829 0.99999
 Cu850 Cu 0.76147 0.76168 1.00003
 C851 C 0.76513 0.73473 0.97830
 C852 C 0.73448 0.76523 1.02173
 C853 C 0.73451 0.76528 0.97833
 C854 C 0.76510 0.73469 1.02171
 O855 O 0.74857 0.27098 0.48371
 O856 O 0.77153 0.24817 0.51613
 O857 O 0.77153 0.24813 0.48373
 O858 O 0.74856 0.27101 0.51611
 O859 O 0.72918 0.25153 0.51612
 O860 O 0.75215 0.22865 0.48374
 O861 O 0.75214 0.22869 0.51614
 O862 O 0.72919 0.25150 0.48372
 Cu863 Cu 0.76201 0.26154 0.49991
 Cu864 Cu 0.73870 0.23813 0.49993
 C865 C 0.73503 0.26506 0.47821
 C866 C 0.76568 0.23461 0.52164
 C867 C 0.76569 0.23456 0.47823
 C868 C 0.73502 0.26511 0.52161
 O869 O 0.77120 0.25155 -0.01658
 O870 O 0.74843 0.22862 0.01583
 O871 O 0.74834 0.22869 -0.01657
 O872 O 0.77129 0.25148 0.01582
 O873 O 0.75182 0.27095 0.01592
 O874 O 0.72887 0.24816 -0.01646
 O875 O 0.72896 0.24808 0.01594
 O876 O 0.75173 0.27102 -0.01648
 Cu877 Cu 0.76178 0.23812 -0.00038
 Cu878 Cu 0.73838 0.26152 -0.00026
 C879 C 0.76529 0.26513 -0.02203
 C880 C 0.73487 0.23451 0.02139
 C881 C 0.73476 0.23460 -0.02202
 C882 C 0.76540 0.26504 0.02137
 O883 O 0.72904 0.74844 0.48400
 O884 O 0.75192 0.77131 0.51639
 O885 O 0.75190 0.77131 0.48399
 O886 O 0.72906 0.74844 0.51640
 O887 O 0.74853 0.72898 0.51638
 O888 O 0.77138 0.75184 0.48397
 O889 O 0.77139 0.75184 0.51637
 O890 O 0.74851 0.72898 0.48398
 Cu891 Cu 0.73852 0.76184 0.50019
 Cu892 Cu 0.76192 0.73845 0.50017
 C893 C 0.73494 0.73488 0.47849
 C894 C 0.76549 0.76541 0.52188
 C895 C 0.76547 0.76541 0.47847
 C896 C 0.73496 0.73487 0.52189
 O897 O 1.01695 0.22867 0.25162
 O898 O 0.98446 0.25146 0.22871
 O899 O 1.01690 0.25154 0.22875
 O900 O 0.98452 0.22860 0.25158
 O901 O 0.98441 0.24807 0.27101
 O902 O 1.01679 0.27100 0.24818
 O903 O 0.98436 0.27093 0.24813
 O904 O 1.01684 0.24813 0.27105
 Cu905 Cu 1.00072 0.23811 0.23821
 Cu906 Cu 1.00059 0.26150 0.26155
 C907 C 1.02241 0.23458 0.26518
 C908 C 0.97890 0.26502 0.23458
 C909 C 1.02234 0.26512 0.23464
 C910 C 0.97897 0.23449 0.26513
 O911 O 0.51633 0.27077 0.74846
 O912 O 0.48396 0.24785 0.77132
 O913 O 0.51639 0.24787 0.77130
 O914 O 0.48390 0.27075 0.74849
 O915 O 0.48393 0.25132 0.72903
 O916 O 0.51643 0.22844 0.75184
 O917 O 0.48400 0.22842 0.75186
 O918 O 0.51636 0.25134 0.72900
 Cu919 Cu 0.50014 0.26127 0.76185
 Cu920 Cu 0.50018 0.23792 0.73847
 C921 C 0.52184 0.26490 0.73490
 C922 C 0.47848 0.23429 0.76542
 C923 C 0.52193 0.23432 0.76540
 C924 C 0.47840 0.26487 0.73493
 O925 O -0.01680 0.27126 0.75173
 O926 O 0.01568 0.24833 0.72892
 O927 O -0.01675 0.24834 0.72891
 O928 O 0.01563 0.27125 0.75175
 O929 O 0.01564 0.25183 0.77122
 O930 O -0.01674 0.22893 0.74837
 O931 O 0.01569 0.22891 0.74839
 O932 O -0.01679 0.25185 0.77120
 Cu933 Cu -0.00056 0.26176 0.73837
 Cu934 Cu -0.00055 0.23842 0.76176
 C935 C -0.02231 0.26540 0.76529
 C936 C 0.02120 0.23478 0.73483
 C937 C -0.02225 0.23479 0.73481
 C938 C 0.02114 0.26538 0.76531
 O939 O 0.48373 0.27084 0.25165
 O940 O 0.51617 0.24797 0.22872
 O941 O 0.48374 0.24797 0.22877
 O942 O 0.51616 0.27084 0.25160
 O943 O 0.51622 0.25138 0.27102
 O944 O 0.48380 0.22851 0.24819
 O945 O 0.51623 0.22851 0.24814
 O946 O 0.48379 0.25138 0.27107
 Cu947 Cu 0.49995 0.26137 0.23822
 Cu948 Cu 0.50002 0.23798 0.26157
 C949 C 0.47825 0.26495 0.26520
 C950 C 0.52171 0.23441 0.23459
 C951 C 0.47826 0.23440 0.23465
 C952 C 0.52169 0.26495 0.26514
 O953 O 1.01666 0.72869 0.75192
 O954 O 0.98420 0.75162 0.72911
 O955 O 1.01663 0.75163 0.72912
 O956 O 0.98423 0.72869 0.75192
 O957 O 0.98419 0.74810 0.77140
 O958 O 1.01659 0.77103 0.74860
 O959 O 0.98416 0.77102 0.74859
 O960 O 1.01663 0.74809 0.77140
 Cu961 Cu 1.00043 0.73820 0.73855
 Cu962 Cu 1.00039 0.76152 0.76197
 C963 C 1.02216 0.73455 0.76548
 C964 C 0.97866 0.76516 0.73503
 C965 C 1.02211 0.76518 0.73503
 C966 C 0.97871 0.73455 0.76549
 O967 O 0.51640 0.72920 0.25149
 O968 O 0.48398 0.75204 0.22854
 O969 O 0.51641 0.75206 0.22862
 O970 O 0.48397 0.72918 0.25140
 O971 O 0.48387 0.74864 0.27083
 O972 O 0.51632 0.77152 0.24804
 O973 O 0.48388 0.77151 0.24796
 O974 O 0.51630 0.74866 0.27092
 Cu975 Cu 0.50020 0.73866 0.23805
 Cu976 Cu 0.50008 0.76205 0.26140
 C977 C 0.52185 0.73510 0.26505
 C978 C 0.47842 0.76561 0.23440
 C979 C 0.52187 0.76563 0.23451
 C980 C 0.47841 0.73507 0.26494
 O981 O 0.01597 0.75234 0.27134
 O982 O -0.01641 0.72940 0.24852
 O983 O 0.01602 0.72947 0.24846
 O984 O -0.01646 0.75228 0.27140
 O985 O -0.01656 0.77174 0.25197
 O986 O 0.01591 0.74893 0.22904
 O987 O -0.01651 0.74886 0.22910
 O988 O 0.01587 0.77180 0.25191
 Cu989 Cu -0.00021 0.73891 0.26189
 Cu990 Cu -0.00033 0.76229 0.23855
 C991 C 0.02142 0.76592 0.26545
 C992 C -0.02196 0.73528 0.23498
 C993 C 0.02148 0.73537 0.23490
 C994 C -0.02203 0.76583 0.26553
 O995 O 0.48342 0.77136 0.75174
 O996 O 0.51594 0.74848 0.72893
 O997 O 0.48351 0.74845 0.72890
 O998 O 0.51585 0.77139 0.75177
 O999 O 0.51588 0.75196 0.77123
 O1000 O 0.48353 0.72902 0.74836
 O1001 O 0.51596 0.72905 0.74839
 O1002 O 0.48344 0.75193 0.77119
 Cu1003 Cu 0.49968 0.76188 0.73837
 Cu1004 Cu 0.49971 0.73853 0.76175
 C1005 C 0.47791 0.76548 0.76529
 C1006 C 0.52147 0.73493 0.73484
 C1007 C 0.47803 0.73489 0.73479
 C1008 C 0.52136 0.76552 0.76533
 C1009 C 0.41712 0.30498 0.30530
 C1010 C 0.41485 0.28605 0.30454
 C1011 C 0.42742 0.27800 0.29649
 C1012 C 0.44103 0.28968 0.28998
 C1013 C 0.44682 0.29953 0.30525
 C1014 C 0.43425 0.30758 0.31331
 C1015 C 0.41927 0.31044 0.28714
 C1016 C 0.43184 0.30239 0.27909
 C1017 C 0.40352 0.31360 0.31391
 C1018 C 0.39222 0.32057 0.32088
 C1019 C 0.45449 0.28096 0.28125
 C1020 C 0.46542 0.27370 0.27398
 H1021 H 0.40430 0.27953 0.30987
 H1022 H 0.42763 0.26459 0.29492
 H1023 H 0.45967 0.30013 0.30938
 H1024 H 0.43632 0.31508 0.32434
 H1025 H 0.41160 0.31981 0.28115
 H1026 H 0.43494 0.30487 0.26619
 C1027 C 0.41659 0.80549 0.80513
 C1028 C 0.42679 0.79401 0.81648
 C1029 C 0.43940 0.78597 0.80847
 C1030 C 0.44057 0.79020 0.78990
 C1031 C 0.44198 0.80923 0.78924
 C1032 C 0.42937 0.81727 0.79725
 C1033 C 0.41068 0.79433 0.79084
 C1034 C 0.42328 0.78629 0.78284
 C1035 C 0.40296 0.81410 0.81370
 C1036 C 0.39162 0.82106 0.82064
 C1037 C 0.45408 0.78150 0.78124
 C1038 C 0.46504 0.77424 0.77401
 H1039 H 0.42433 0.79234 0.82964
 H1040 H 0.44774 0.77741 0.81477
 H1041 H 0.45200 0.81581 0.78304
 H1042 H 0.42858 0.83074 0.79791
 H1043 H 0.39773 0.79286 0.78731
 H1044 H 0.42112 0.77795 0.77245
 C1045 C -0.08355 0.30548 0.80518
 C1046 C -0.07320 0.29418 0.81657
 C1047 C -0.06060 0.28613 0.80855
 C1048 C -0.05960 0.29017 0.78993
 C1049 C -0.05832 0.30920 0.78905
 C1050 C -0.07091 0.31725 0.79707
 C1051 C -0.08951 0.29413 0.79106
 C1052 C -0.07692 0.28608 0.78305
 C1053 C -0.09717 0.31410 0.81376
 C1054 C -0.10849 0.32107 0.82072
 C1055 C -0.04611 0.28145 0.78125
 C1056 C -0.03517 0.27418 0.77402
 H1057 H -0.07554 0.29265 0.82977
 H1058 H -0.05216 0.27770 0.81488
 H1059 H -0.04839 0.31576 0.78270
 H1060 H -0.07177 0.33072 0.79759
 H1061 H -0.10248 0.29254 0.78765
 H1062 H -0.07911 0.27760 0.77277
 C1063 C -0.08328 0.80572 0.30560
 C1064 C -0.07307 0.79420 0.31689
 C1065 C -0.06047 0.78618 0.30884
 C1066 C -0.05933 0.79047 0.29029
 C1067 C -0.05792 0.80950 0.28968
 C1068 C -0.07052 0.81752 0.29773
 C1069 C -0.08922 0.79459 0.29128
 C1070 C -0.07663 0.78658 0.28324
 C1071 C -0.09690 0.81430 0.31420
 C1072 C -0.10823 0.82126 0.32117
 C1073 C -0.04583 0.78179 0.28157
 C1074 C -0.03488 0.77456 0.27430
 H1075 H -0.07550 0.79250 0.33005
 H1076 H -0.05212 0.77761 0.31511
 H1077 H -0.04791 0.81610 0.28348
 H1078 H -0.07130 0.83098 0.29843
 H1079 H -0.10217 0.79314 0.28777
 H1080 H -0.07880 0.77826 0.27283
 C1081 C 0.58295 0.69512 0.30522
 C1082 C 0.58015 0.68891 0.28740
 C1083 C 0.56759 0.69695 0.27933
 C1084 C 0.55906 0.71040 0.28987
 C1085 C 0.57317 0.72196 0.29547
 C1086 C 0.58572 0.71393 0.30354
 C1087 C 0.56599 0.69339 0.31381
 C1088 C 0.55342 0.70142 0.30573
 C1089 C 0.59654 0.68651 0.31385
 C1090 C 0.60783 0.67954 0.32083
 C1091 C 0.54560 0.71910 0.28113
 C1092 C 0.53468 0.72635 0.27384
 H1093 H 0.58738 0.67906 0.28163
 H1094 H 0.56406 0.69398 0.26665
 H1095 H 0.57328 0.73529 0.29329
 H1096 H 0.59659 0.72037 0.30827
 H1097 H 0.56402 0.68646 0.32521
 H1098 H 0.54068 0.70138 0.31022
 C1099 C 0.58323 0.19437 0.80528
 C1100 C 0.58922 0.20644 0.79178
 C1101 C 0.57663 0.21446 0.78377
 C1102 C 0.55926 0.20963 0.79004
 C1103 C 0.55967 0.21295 0.80882
 C1104 C 0.57228 0.20492 0.81684
 C1105 C 0.57114 0.18260 0.79639
 C1106 C 0.55853 0.19063 0.78837
 C1107 C 0.59686 0.18578 0.81386
 C1108 C 0.60820 0.17883 0.82081
 C1109 C 0.54575 0.21832 0.78136
 C1110 C 0.53480 0.22557 0.77412
 H1111 H 0.60222 0.20851 0.78877
 H1112 H 0.57884 0.22339 0.77390
 H1113 H 0.55084 0.22089 0.81526
 H1114 H 0.57425 0.20599 0.83014
 H1115 H 0.57236 0.16915 0.79639
 H1116 H 0.54895 0.18405 0.78151
 C1117 C 1.08337 0.69443 0.80534
 C1118 C 1.08462 0.69353 0.78633
 C1119 C 1.07204 0.70159 0.77832
 C1120 C 1.05943 0.70977 0.79011
 C1121 C 1.06983 0.72113 0.80136
 C1122 C 1.08242 0.71307 0.80937
 C1123 C 1.06604 0.68760 0.80950
 C1124 C 1.05345 0.69566 0.80149
 C1125 C 1.09698 0.68581 0.81391
 C1126 C 1.10830 0.67883 0.82086
 C1127 C 1.04595 0.71850 0.78144
 C1128 C 1.03501 0.72577 0.77421
 H1129 H 1.09452 0.68712 0.77973
 H1130 H 1.07116 0.70208 0.76487
 H1131 H 1.06751 0.73435 0.80291
 H1132 H 1.09087 0.71939 0.81778
 H1133 H 1.06385 0.67734 0.81798
 H1134 H 1.04048 0.69231 0.80311
 C1135 C 1.08363 0.19465 0.30521
 C1136 C 1.08967 0.20758 0.29255
 C1137 C 1.07709 0.21560 0.28451
 C1138 C 1.05970 0.20993 0.28992
 C1139 C 1.05937 0.21229 0.30885
 C1140 C 1.07196 0.20426 0.31689
 C1141 C 1.07223 0.18298 0.29533
 C1142 C 1.05964 0.19101 0.28728
 C1143 C 1.09724 0.18606 0.31382
 C1144 C 1.10856 0.17909 0.32078
 C1145 C 1.04621 0.21861 0.28121
 C1146 C 1.03527 0.22585 0.27395
 H1147 H 1.10269 0.21020 0.29011
 H1148 H 1.07934 0.22509 0.27518
 H1149 H 1.05008 0.21962 0.31536
 H1150 H 1.07345 0.20471 0.33029
 H1151 H 1.07389 0.16959 0.29470
 H1152 H 1.05052 0.18450 0.27977
 C1153 C 0.58289 0.30495 0.69490
 C1154 C 0.57887 0.31227 0.71206
 C1155 C 0.56632 0.30423 0.72010
 C1156 C 0.55901 0.28965 0.71019
 C1157 C 0.57394 0.27843 0.70613
 C1158 C 0.58649 0.28647 0.69810
 C1159 C 0.56632 0.30522 0.68541
 C1160 C 0.55376 0.29718 0.69346
 C1161 C 0.59646 0.31356 0.68629
 C1162 C 0.60775 0.32052 0.67933
 C1163 C 0.54557 0.28094 0.71889
 C1164 C 0.53465 0.27367 0.72615
 H1165 H 0.58531 0.32285 0.71742
 H1166 H 0.56200 0.30792 0.73234
 H1167 H 0.57459 0.26532 0.70929
 H1168 H 0.59789 0.28024 0.69437
 H1169 H 0.56460 0.31121 0.67344
 H1170 H 0.54128 0.29627 0.68838
 C1171 C 0.58310 0.80557 0.19467
 C1172 C 0.57477 0.79201 0.18414
 C1173 C 0.56218 0.78399 0.19215
 C1174 C 0.55915 0.79031 0.20990
 C1175 C 0.55626 0.80910 0.20805
 C1176 C 0.56886 0.81713 0.20004
 C1177 C 0.58862 0.79672 0.21064
 C1178 C 0.57604 0.78871 0.21865
 C1179 C 0.59671 0.81415 0.18610
 C1180 C 0.60803 0.82109 0.17915
 C1181 C 0.54566 0.78163 0.21856
 C1182 C 0.53472 0.77438 0.22579
 H1183 H 0.57843 0.78898 0.17151
 H1184 H 0.55505 0.77409 0.18637
 H1185 H 0.54530 0.81554 0.21263
 H1186 H 0.56868 0.83043 0.19776
 H1187 H 0.60131 0.79675 0.21527
 H1188 H 0.57795 0.78187 0.23013
 C1189 C 1.08337 0.30527 0.19471
 C1190 C 1.07395 0.29289 0.18366
 C1191 C 1.06140 0.28482 0.19168
 C1192 C 1.05950 0.28992 0.20997
 C1193 C 1.05738 0.30890 0.20965
 C1194 C 1.06993 0.31697 0.20162
 C1195 C 1.08924 0.29503 0.20970
 C1196 C 1.07670 0.28696 0.21773
 C1197 C 1.09693 0.31390 0.18612
 C1198 C 1.10821 0.32089 0.17915
 C1199 C 1.04606 0.28118 0.21866
 C1200 C 1.03516 0.27390 0.22590
 H1201 H 1.07687 0.29067 0.17067
 H1202 H 1.05358 0.27568 0.18557
 H1203 H 1.04694 0.31542 0.21522
 H1204 H 1.07024 0.33040 0.20032
 H1205 H 1.10212 0.29419 0.21368
 H1206 H 1.07884 0.27921 0.22857
 C1207 C 1.08316 0.80532 0.69515
 C1208 C 1.07103 0.81705 0.70412
 C1209 C 1.05848 0.80898 0.71213
 C1210 C 1.05929 0.78998 0.71039
 C1211 C 1.07669 0.78514 0.71660
 C1212 C 1.08924 0.79321 0.70859
 C1213 C 1.07223 0.79480 0.68358
 C1214 C 1.05968 0.78673 0.69159
 C1215 C 1.09674 0.81395 0.68656
 C1216 C 1.10803 0.82094 0.67961
 C1217 C 1.04584 0.78124 0.71907
 C1218 C 1.03493 0.77396 0.72630
 H1219 H 1.07220 0.83050 0.70416
 H1220 H 1.04888 0.81551 0.71905
 H1221 H 1.07896 0.77617 0.72643
 H1222 H 1.10225 0.79114 0.71155
 H1223 H 1.07418 0.79378 0.67026
 H1224 H 1.05087 0.77880 0.68515
 C1225 C 0.41703 0.69479 0.69478
 C1226 C 0.43415 0.69232 0.68666
 C1227 C 0.44669 0.70038 0.69471
 C1228 C 0.44089 0.71011 0.71007
 C1229 C 0.43185 0.69729 0.72093
 C1230 C 0.41931 0.68923 0.71289
 C1231 C 0.41462 0.71371 0.69566
 C1232 C 0.42716 0.72177 0.70370
 C1233 C 0.40347 0.68618 0.68617
 C1234 C 0.39218 0.67921 0.67920
 C1235 C 0.45432 0.71884 0.71878
 C1236 C 0.46523 0.72611 0.72604
 H1237 H 0.43623 0.68490 0.67558
 H1238 H 0.45952 0.69987 0.69052
 H1239 H 0.43503 0.69475 0.73379
 H1240 H 0.41174 0.67980 0.71886
 H1241 H 0.40400 0.72022 0.69043
 H1242 H 0.42727 0.73517 0.70536
 C1243 C 0.41710 0.19444 0.19476
 C1244 C 0.43423 0.19174 0.18674
 C1245 C 0.44681 0.19978 0.19476
 C1246 C 0.44102 0.20971 0.21001
 C1247 C 0.43183 0.19707 0.22095
 C1248 C 0.41925 0.18905 0.21293
 C1249 C 0.41485 0.21339 0.19545
 C1250 C 0.42742 0.22141 0.20346
 C1251 C 0.40350 0.18585 0.18619
 C1252 C 0.39218 0.17890 0.17924
 C1253 C 0.45450 0.21840 0.21869
 C1254 C 0.46543 0.22565 0.22592
 H1255 H 0.43629 0.18419 0.17574
 H1256 H 0.45965 0.19911 0.19063
 H1257 H 0.43493 0.19463 0.23385
 H1258 H 0.41158 0.17973 0.21897
 H1259 H 0.40430 0.21993 0.19010
 H1260 H 0.42764 0.23483 0.20498
 C1261 C -0.08293 0.69511 0.19501
 C1262 C -0.06581 0.69264 0.18691
 C1263 C -0.05328 0.70072 0.19495
 C1264 C -0.05909 0.71047 0.21030
 C1265 C -0.06813 0.69765 0.22117
 C1266 C -0.08066 0.68957 0.21313
 C1267 C -0.08536 0.71403 0.19588
 C1268 C -0.07283 0.72210 0.20391
 C1269 C -0.09649 0.68646 0.18641
 C1270 C -0.10776 0.67947 0.17945
 C1271 C -0.04567 0.71921 0.21900
 C1272 C -0.03477 0.72650 0.22625
 H1273 H -0.06372 0.68521 0.17583
 H1274 H -0.04044 0.70021 0.19076
 H1275 H -0.06495 0.69513 0.23404
 H1276 H -0.08822 0.68014 0.21912
 H1277 H -0.09599 0.72052 0.19063
 H1278 H -0.07273 0.73550 0.20555
 C1279 C -0.08329 0.19471 0.69485
 C1280 C -0.08918 0.20504 0.70979
 C1281 C -0.07663 0.21309 0.71782
 C1282 C -0.05942 0.21004 0.71013
 C1283 C -0.06124 0.21507 0.69181
 C1284 C -0.07379 0.20701 0.68378
 C1285 C -0.06992 0.18299 0.70184
 C1286 C -0.05737 0.19105 0.70988
 C1287 C -0.09686 0.18609 0.68625
 C1288 C -0.10815 0.17912 0.67929
 C1289 C -0.04598 0.21876 0.71882
 C1290 C -0.03507 0.22603 0.72607
 H1291 H -0.10207 0.20594 0.71372
 H1292 H -0.07878 0.22089 0.72863
 H1293 H -0.05336 0.22415 0.68569
 H1294 H -0.07666 0.20919 0.67078
 H1295 H -0.07028 0.16955 0.70059
 H1296 H -0.04697 0.18451 0.71550
 C1297 C 0.30499 0.41720 0.30531
 C1298 C 0.29930 0.43130 0.31686
 C1299 C 0.29127 0.44388 0.30880
 C1300 C 0.28972 0.44112 0.28998
 C1301 C 0.28115 0.42417 0.28816
 C1302 C 0.28918 0.41160 0.29621
 C1303 C 0.31563 0.42571 0.29196
 C1304 C 0.30760 0.43829 0.28390
 C1305 C 0.31358 0.40359 0.31392
 C1306 C 0.32054 0.39228 0.32089
 C1307 C 0.28103 0.45459 0.28126
 C1308 C 0.27379 0.46552 0.27399
 H1309 H 0.30140 0.43140 0.33019
 H1310 H 0.28649 0.45476 0.31522
 H1311 H 0.26978 0.42221 0.28116
 H1312 H 0.28467 0.39888 0.29611
 H1313 H 0.32835 0.42218 0.28909
 H1314 H 0.31345 0.44553 0.27413
 C1315 C 0.30544 -0.08349 0.80508
 C1316 C 0.28839 -0.07928 0.81259
 C1317 C 0.28034 -0.06670 0.80458
 C1318 C 0.29012 -0.05955 0.78984
 C1319 C 0.29393 -0.07456 0.77867
 C1320 C 0.30198 -0.08714 0.78668
 C1321 C 0.31506 -0.06701 0.80513
 C1322 C 0.30700 -0.05442 0.79712
 C1323 C 0.31406 -0.09710 0.81366
 C1324 C 0.32104 -0.10841 0.82061
 C1325 C 0.28139 -0.04607 0.78117
 C1326 C 0.27412 -0.03513 0.77393
 H1327 H 0.28311 -0.08562 0.82327
 H1328 H 0.26816 -0.06226 0.80839
 H1329 H 0.29060 -0.07525 0.76562
 H1330 H 0.30555 -0.09860 0.78049
 H1331 H 0.32713 -0.06537 0.81096
 H1332 H 0.31216 -0.04199 0.79607
 C1333 C 0.80546 0.41664 0.80529
 C1334 C 0.81479 0.43328 0.80594
 C1335 C 0.80676 0.44589 0.79792
 C1336 C 0.79019 0.44062 0.79005
 C1337 C 0.78010 0.43302 0.80435
 C1338 C 0.78813 0.42042 0.81236
 C1339 C 0.80260 0.41329 0.78673
 C1340 C 0.79458 0.42589 0.77872
 C1341 C 0.81405 0.40301 0.81386
 C1342 C 0.82101 0.39168 0.82080
 C1343 C 0.78149 0.45412 0.78138
 C1344 C 0.77424 0.46507 0.77414
 H1345 H 0.82665 0.43500 0.81214
 H1346 H 0.81174 0.45841 0.79727
 H1347 H 0.76774 0.43719 0.80789
 H1348 H 0.78265 0.41379 0.82276
 H1349 H 0.80655 0.40201 0.78042
 H1350 H 0.79164 0.42540 0.76556
 C1351 C 0.80558 -0.08336 0.30562
 C1352 C 0.79845 -0.08846 0.28868
 C1353 C 0.79042 -0.07589 0.28064
 C1354 C 0.79030 -0.05944 0.29032
 C1355 C 0.80867 -0.05571 0.29393
 C1356 C 0.81671 -0.06829 0.30197
 C1357 C 0.79072 -0.07630 0.31532
 C1358 C 0.78268 -0.06373 0.30728
 C1359 C 0.81419 -0.09696 0.31422
 C1360 C 0.82116 -0.10827 0.32118
 C1361 C 0.78160 -0.04596 0.28160
 C1362 C 0.77435 -0.03503 0.27433
 H1363 H 0.79962 -0.10086 0.28345
 H1364 H 0.78470 -0.07752 0.26852
 H1365 H 0.81482 -0.04420 0.29048
 H1366 H 0.82974 -0.06756 0.30541
 H1367 H 0.78685 -0.08079 0.32745
 H1368 H 0.77193 -0.05743 0.31251
 C1369 C 0.30495 0.58286 0.69479
 C1370 C 0.30680 0.56587 0.68626
 C1371 C 0.29875 0.55333 0.69432
 C1372 C 0.28965 0.55901 0.71012
 C1373 C 0.27808 0.57310 0.70441
 C1374 C 0.28612 0.58563 0.69635
 C1375 C 0.31105 0.58010 0.71266
 C1376 C 0.30301 0.56756 0.72071
 C1377 C 0.31357 0.59642 0.68618
 C1378 C 0.32054 0.60769 0.67920
 C1379 C 0.28093 0.54558 0.71884
 C1380 C 0.27366 0.53468 0.72610
 H1381 H 0.31381 0.56387 0.67490
 H1382 H 0.29886 0.54058 0.68987
 H1383 H 0.26473 0.57322 0.70650
 H1384 H 0.27967 0.59648 0.69155
 H1385 H 0.32084 0.58735 0.71847
 H1386 H 0.30590 0.56407 0.73342
 C1387 C 0.30528 1.08335 0.19453
 C1388 C 0.28684 1.08187 0.18982
 C1389 C 0.27878 1.06934 0.19786
 C1390 C 0.28995 1.05951 0.20983
 C1391 C 0.29735 1.07261 0.22156
 C1392 C 0.30541 1.08514 0.21352
 C1393 C 0.31270 1.06607 0.19112
 C1394 C 0.30464 1.05353 0.19917
 C1395 C 0.31391 1.09691 0.18591
 C1396 C 0.32089 1.10818 0.17894
 C1397 C 0.28122 1.04608 0.21854
 C1398 C 0.27395 1.03518 0.22580
 H1399 H 0.28066 1.08995 0.18094
 H1400 H 0.26570 1.06669 0.19587
 H1401 H 0.29635 1.07209 0.23501
 H1402 H 0.31131 1.09535 0.22007
 H1403 H 0.32334 1.06388 0.18310
 H1404 H 0.30837 1.04060 0.19805
 C1405 C 0.80537 0.58274 0.19489
 C1406 C 0.79340 0.57296 0.18370
 C1407 C 0.78538 0.56038 0.19171
 C1408 C 0.79012 0.55880 0.21013
 C1409 C 0.78669 0.57604 0.21760
 C1410 C 0.79471 0.58861 0.20959
 C1411 C 0.81716 0.56960 0.20221
 C1412 C 0.80913 0.55701 0.21022
 C1413 C 0.81395 0.59634 0.18631
 C1414 C 0.82089 0.60766 0.17937
 C1415 C 0.78143 0.54532 0.21880
 C1416 C 0.77418 0.53439 0.22603
 H1417 H 0.79141 0.57568 0.17063
 H1418 H 0.77651 0.55231 0.18551
 H1419 H 0.77868 0.57818 0.22825
 H1420 H 0.79356 0.60153 0.21338
 H1421 H 0.83061 0.57013 0.20118
 H1422 H 0.81571 0.54676 0.21606
 C1423 C 0.80536 1.08310 0.69521
 C1424 C 0.79588 1.08882 0.71076
 C1425 C 0.78781 1.07628 0.71877
 C1426 C 0.79000 1.05923 0.71044
 C1427 C 0.80889 1.05664 0.70929
 C1428 C 0.81697 1.06919 0.70128
 C1429 C 0.79231 1.07431 0.68442
 C1430 C 0.78423 1.06176 0.69243
 C1431 C 0.81400 1.09667 0.68664
 C1432 C 0.82099 1.10796 0.67968
 C1433 C 0.78126 1.04579 0.71911
 C1434 C 0.77397 1.03488 0.72634
 H1435 H 0.79554 1.10160 0.71511
 H1436 H 0.78056 1.07832 0.72997
 H1437 H 0.81535 1.04589 0.71432
 H1438 H 0.83035 1.06920 0.69944
 H1439 H 0.78965 1.07764 0.67162
 H1440 H 0.77466 1.05434 0.68649
 C1441 C 0.69496 0.58279 0.30537
 C1442 C 0.69772 0.58614 0.28679
 C1443 C 0.70574 0.57355 0.27875
 C1444 C 0.71022 0.55884 0.29007
 C1445 C 0.69370 0.55354 0.29802
 C1446 C 0.68567 0.56614 0.30607
 C1447 C 0.71233 0.57906 0.31236
 C1448 C 0.72035 0.56647 0.30432
 C1449 C 0.68637 0.59641 0.31397
 C1450 C 0.67941 0.60774 0.32093
 C1451 C 0.71891 0.54536 0.28136
 C1452 C 0.72615 0.53442 0.27409
 H1453 H 0.69372 0.59740 0.28050
 H1454 H 0.70862 0.57404 0.26558
 H1455 H 0.68874 0.54100 0.29739
 H1456 H 0.67384 0.56439 0.31234
 H1457 H 0.71784 0.58571 0.32273
 H1458 H 0.73274 0.56234 0.30779
 C1459 C 0.69439 1.08337 0.80535
 C1460 C 0.69331 1.06660 0.81441
 C1461 C 0.70138 1.05401 0.80641
 C1462 C 0.70973 1.05942 0.79012
 C1463 C 0.72113 1.07392 0.79499
 C1464 C 0.71307 1.08650 0.80299
 C1465 C 0.68769 1.07996 0.78781
 C1466 C 0.69576 1.06737 0.77981
 C1467 C 0.68576 1.09698 0.81391
 C1468 C 0.67878 1.10831 0.82085
 C1469 C 0.71846 1.04593 0.78146
 C1470 C 0.72574 1.03499 0.77423
 H1471 H 0.68679 1.06478 0.82609
 H1472 H 0.70177 1.04140 0.81122
 H1473 H 0.73438 1.07427 0.79238
 H1474 H 0.71941 1.09763 0.80724
 H1475 H 0.67751 1.08682 0.78218
 H1476 H 0.69248 1.06344 0.76732
 C1477 C 0.19436 0.58328 0.80531
 C1478 C 0.21241 0.58740 0.80068
 C1479 C 0.22043 0.57480 0.79266
 C1480 C 0.20962 0.55930 0.79004
 C1481 C 0.19410 0.56559 0.78086
 C1482 C 0.18608 0.57820 0.78889
 C1483 C 0.19544 0.56717 0.81550
 C1484 C 0.20347 0.55456 0.80747
 C1485 C 0.18577 0.59691 0.81389
 C1486 C 0.17881 0.60824 0.82084
 C1487 C 0.21831 0.54580 0.78136
 C1488 C 0.22556 0.53484 0.77412
 H1489 H 0.21837 0.59919 0.80346
 H1490 H 0.23326 0.57580 0.78857
 H1491 H 0.18979 0.56058 0.76910
 H1492 H 0.17489 0.58398 0.78400
 H1493 H 0.19035 0.56579 0.82792
 H1494 H 0.20526 0.54238 0.81302
 C1495 C 0.19470 1.08365 0.30521
 C1496 C 0.19765 1.06824 0.31609
 C1497 C 0.20569 1.05566 0.30804
 C1498 C 0.20999 1.05972 0.28990
 C1499 C 0.22003 1.07592 0.29070
 C1500 C 0.21199 1.08850 0.29875
 C1501 C 0.18533 1.07718 0.28990
 C1502 C 0.19337 1.06460 0.28185
 C1503 C 0.18610 1.09725 0.31382
 C1504 C 0.17912 1.10856 0.32078
 C1505 C 0.21868 1.04624 0.28118
 C1506 C 0.22593 1.03530 0.27391
 H1507 H 0.19376 1.06730 0.32898
 H1508 H 0.20869 1.04393 0.31403
 H1509 H 0.23237 1.07739 0.28542
 H1510 H 0.21745 1.10073 0.30036
 H1511 H 0.17343 1.08205 0.28575
 H1512 H 0.18835 1.05869 0.27081
 C1513 C 0.69489 0.41698 0.69490
 C1514 C 0.71009 0.41115 0.70489
 C1515 C 0.71813 0.42370 0.71292
 C1516 C 0.71019 0.44086 0.71019
 C1517 C 0.69197 0.43883 0.71552
 C1518 C 0.68393 0.42627 0.70748
 C1519 C 0.70154 0.43051 0.68321
 C1520 C 0.70959 0.44307 0.69125
 C1521 C 0.68628 0.40340 0.68630
 C1522 C 0.67932 0.39211 0.67934
 C1523 C 0.71890 0.45431 0.71889
 C1524 C 0.72617 0.46522 0.72614
 H1525 H 0.71418 0.39829 0.70559
 H1526 H 0.72910 0.42159 0.72050
 H1527 H 0.68592 0.44657 0.72478
 H1528 H 0.67098 0.42326 0.70986
 H1529 H 0.70006 0.43026 0.66980
 H1530 H 0.71500 0.45357 0.68473
 C1531 C 0.69477 -0.08313 0.19520
 C1532 C 0.71369 -0.08556 0.19601
 C1533 C 0.72179 -0.07303 0.20402
 C1534 C 0.71016 -0.05929 0.21045
 C1535 C 0.69737 -0.06832 0.22135
 C1536 C 0.68928 -0.08085 0.21333
 C1537 C 0.69228 -0.06602 0.18710
 C1538 C 0.70038 -0.05348 0.19512
 C1539 C 0.68611 -0.09669 0.18662
 C1540 C 0.67911 -0.10796 0.17967
 C1541 C 0.71893 -0.04586 0.21912
 C1542 C 0.72623 -0.03496 0.22634
 H1543 H 0.72017 -0.09619 0.19075
 H1544 H 0.73520 -0.07292 0.20562
 H1545 H 0.69488 -0.06514 0.23422
 H1546 H 0.67985 -0.08841 0.21935
 H1547 H 0.68482 -0.06394 0.17605
 H1548 H 0.69985 -0.04065 0.19094
 C1549 C 0.19447 0.41714 0.19494
 C1550 C 0.18272 0.43056 0.20181
 C1551 C 0.19076 0.44315 0.20980
 C1552 C 0.20975 0.44108 0.21014
 C1553 C 0.21486 0.43914 0.19186
 C1554 C 0.20682 0.42655 0.18386
 C1555 C 0.20472 0.41134 0.20996
 C1556 C 0.21275 0.42392 0.21794
 C1557 C 0.18587 0.40352 0.18638
 C1558 C 0.17892 0.39220 0.17945
 C1559 C 0.21845 0.45457 0.21879
 C1560 C 0.22571 0.46551 0.22600
 H1561 H 0.16929 0.43021 0.20050
 H1562 H 0.18421 0.45359 0.21534
 H1563 H 0.22398 0.44698 0.18572
 H1564 H 0.20906 0.42360 0.17089
 H1565 H 0.20559 0.39847 0.21397
 H1566 H 0.22050 0.42183 0.22879
 C1567 C 0.19472 -0.08330 0.69475
 C1568 C 0.18299 -0.06990 0.70169
 C1569 C 0.19103 -0.05734 0.70972
 C1570 C 0.21002 -0.05941 0.71003
 C1571 C 0.21510 -0.06127 0.69173
 C1572 C 0.20706 -0.07383 0.68369
 C1573 C 0.20499 -0.08916 0.70972
 C1574 C 0.21303 -0.07661 0.71775
 C1575 C 0.18611 -0.09687 0.68615
 C1576 C 0.17915 -0.10817 0.67919
 C1577 C 0.21873 -0.04596 0.71872
 C1578 C 0.22599 -0.03505 0.72597
 H1579 H 0.16955 -0.07025 0.70040
 H1580 H 0.18449 -0.04693 0.71532
 H1581 H 0.22421 -0.05341 0.68562
 H1582 H 0.20928 -0.07673 0.67070
 H1583 H 0.20587 -0.10204 0.71368
 H1584 H 0.22080 -0.07874 0.72858
 C1585 C 0.30506 0.30514 0.41740
 C1586 C 0.28752 0.31190 0.42081
 C1587 C 0.27949 0.30386 0.43337
 C1588 C 0.28979 0.28986 0.44129
 C1589 C 0.30609 0.29816 0.44672
 C1590 C 0.31413 0.30620 0.43415
 C1591 C 0.30268 0.28647 0.41423
 C1592 C 0.29465 0.27844 0.42679
 C1593 C 0.31365 0.31374 0.40381
 C1594 C 0.32061 0.32070 0.39251
 C1595 C 0.28109 0.28116 0.45475
 C1596 C 0.27384 0.27390 0.46566
 H1597 H 0.28190 0.32210 0.41397
 H1598 H 0.26699 0.30718 0.43729
 H1599 H 0.31090 0.29776 0.45932
 H1600 H 0.32582 0.31268 0.43599
 H1601 H 0.30693 0.28012 0.40310
 H1602 H 0.29203 0.26521 0.42642
 C1603 C 0.30516 0.80523 -0.08328
 C1604 C 0.31174 0.78759 -0.08003
 C1605 C 0.30372 0.77958 -0.06745
 C1606 C 0.28990 0.78999 -0.05935
 C1607 C 0.27841 0.79507 -0.07372
 C1608 C 0.28644 0.80307 -0.08630
 C1609 C 0.30645 0.81418 -0.06647
 C1610 C 0.29842 0.80617 -0.05389
 C1611 C 0.31375 0.81380 -0.09688
 C1612 C 0.32070 0.82074 -0.10820
 C1613 C 0.28120 0.78132 -0.04587
 C1614 C 0.27395 0.77409 -0.03493
 H1615 H 0.32183 0.78190 -0.08699
 H1616 H 0.30693 0.76703 -0.06363
 H1617 H 0.26514 0.79259 -0.07400
 H1618 H 0.28004 0.80746 -0.09734
 H1619 H 0.31308 0.82578 -0.06462
 H1620 H 0.29818 0.81091 -0.04125
 C1621 C 0.80511 0.30518 -0.08318
 C1622 C 0.80774 0.31322 -0.06608
 C1623 C 0.79973 0.30518 -0.05350
 C1624 C 0.78989 0.28988 -0.05927
 C1625 C 0.80260 0.27897 -0.06845
 C1626 C 0.81060 0.28701 -0.08102
 C1627 C 0.78617 0.30442 -0.08543
 C1628 C 0.77816 0.29638 -0.07286
 C1629 C 0.81368 0.31378 -0.09678
 C1630 C 0.82062 0.32073 -0.10809
 C1631 C 0.78122 0.28117 -0.04580
 C1632 C 0.77400 0.27391 -0.03487
 H1633 H 0.81523 0.32426 -0.06403
 H1634 H 0.80036 0.30932 -0.04067
 H1635 H 0.80510 0.26607 -0.06535
 H1636 H 0.81996 0.28100 -0.08869
 H1637 H 0.77961 0.30974 -0.09596
 H1638 H 0.76475 0.29482 -0.07262
 C1639 C 0.80537 0.80534 0.41730
 C1640 C 0.80777 0.78640 0.41703
 C1641 C 0.79976 0.77838 0.42961
 C1642 C 0.79012 0.79009 0.44123
 C1643 C 0.77844 0.79995 0.42979
 C1644 C 0.78645 0.80797 0.41722
 C1645 C 0.81105 0.81081 0.43468
 C1646 C 0.80303 0.80278 0.44726
 C1647 C 0.81395 0.81393 0.40369
 C1648 C 0.82089 0.82087 0.39238
 C1649 C 0.78145 0.78140 0.45470
 C1650 C 0.77421 0.77415 0.46564
 H1651 H 0.81513 0.77986 0.40778
 H1652 H 0.80025 0.76497 0.43113
 H1653 H 0.76505 0.80059 0.43144
 H1654 H 0.77993 0.81548 0.40809
 H1655 H 0.82052 0.82015 0.43690
 H1656 H 0.80563 0.80525 0.46027
 C1657 C 0.69491 0.30504 0.58275
 C1658 C 0.70997 0.31461 0.57599
 C1659 C 0.71802 0.30659 0.56341
 C1660 C 0.71024 0.28978 0.55883
 C1661 C 0.69195 0.29371 0.55495
 C1662 C 0.68389 0.30174 0.56753
 C1663 C 0.70178 0.28793 0.58772
 C1664 C 0.70983 0.27991 0.57515
 C1665 C 0.68630 0.31363 0.59635
 C1666 C 0.67933 0.32058 0.60766
 C1667 C 0.71896 0.28110 0.54537
 C1668 C 0.72624 0.27385 0.53444
 H1669 H 0.71394 0.32664 0.58065
 H1670 H 0.72890 0.31175 0.55730
 H1671 H 0.68587 0.29048 0.54335
 H1672 H 0.67091 0.30538 0.56670
 H1673 H 0.70043 0.28257 0.60003
 H1674 H 0.71538 0.26768 0.57670
 C1675 C 0.69443 0.80509 1.08296
 C1676 C 0.69847 0.78683 1.08682
 C1677 C 0.70651 0.77882 1.07423
 C1678 C 0.70973 0.78986 1.05900
 C1679 C 0.71923 0.80496 1.06575
 C1680 C 0.71118 0.81297 1.07835
 C1681 C 0.68451 0.80463 1.06666
 C1682 C 0.69255 0.79662 1.05406
 C1683 C 0.68583 0.81366 1.09657
 C1684 C 0.67888 0.82060 1.10790
 C1685 C 0.71844 0.78119 1.04552
 C1686 C 0.72571 0.77396 1.03458
 H1687 H 0.69529 0.78072 1.09842
 H1688 H 0.71022 0.76586 1.07505
 H1689 H 0.73121 0.80902 1.06105
 H1690 H 0.71628 0.82389 1.08443
 H1691 H 0.67225 0.81012 1.06515
 H1692 H 0.68719 0.79525 1.04176
 C1693 C 0.19449 0.30509 1.08287
 C1694 C 0.20374 0.28934 1.08847
 C1695 C 0.21177 0.28132 1.07588
 C1696 C 0.20976 0.28983 1.05892
 C1697 C 0.21575 0.30774 1.06162
 C1698 C 0.20773 0.31577 1.07422
 C1699 C 0.18287 0.29930 1.06889
 C1700 C 0.19090 0.29128 1.05629
 C1701 C 0.18591 0.31367 1.09649
 C1702 C 0.17895 0.32062 1.10782
 C1703 C 0.21845 0.28114 1.04543
 C1704 C 0.22570 0.27388 1.03449
 H1705 H 0.20397 0.28488 1.10120
 H1706 H 0.21886 0.26999 1.07783
 H1707 H 0.22544 0.31361 1.05429
 H1708 H 0.21053 0.32851 1.07767
 H1709 H 0.16951 0.30134 1.06888
 H1710 H 0.18442 0.28644 1.04549
 C1711 C 0.19496 0.80559 0.58285
 C1712 C 0.19923 0.81692 0.56811
 C1713 C 0.20723 0.80889 0.55549
 C1714 C 0.21017 0.79033 0.55887
 C1715 C 0.19288 0.78322 0.56272
 C1716 C 0.18488 0.79125 0.57532
 C1717 C 0.21158 0.79776 0.58806
 C1718 C 0.21957 0.78973 0.57546
 C1719 C 0.18640 0.81418 0.59649
 C1720 C 0.17946 0.82112 0.60783
 C1721 C 0.21884 0.78163 0.54537
 C1722 C 0.22607 0.77438 0.53442
 H1723 H 0.19623 0.83008 0.56761
 H1724 H 0.21109 0.81517 0.54419
 H1725 H 0.18740 0.77281 0.55611
 H1726 H 0.17255 0.78771 0.57952
 H1727 H 0.21663 0.79845 0.60056
 H1728 H 0.23147 0.78356 0.57717
 C1729 C 0.30517 0.69481 0.58262
 C1730 C 0.29708 0.71127 0.58798
 C1731 C 0.28907 0.71933 0.57541
 C1732 C 0.28994 0.71015 0.55870
 C1733 C 0.28301 0.69273 0.56225
 C1734 C 0.29102 0.68466 0.57482
 C1735 C 0.31658 0.69942 0.56803
 C1736 C 0.30857 0.70749 0.55545
 C1737 C 0.31374 0.68619 0.59621
 C1738 C 0.32068 0.67921 0.60752
 C1739 C 0.28127 0.71889 0.54524
 C1740 C 0.27403 0.72617 0.53432
 H1741 H 0.29759 0.71616 0.60054
 H1742 H 0.28273 0.73112 0.57722
 H1743 H 0.27273 0.68721 0.55548
 H1744 H 0.28760 0.67224 0.57882
 H1745 H 0.32979 0.69659 0.56761
 H1746 H 0.31491 0.71157 0.54426
 C1747 C 0.30500 0.19453 1.08278
 C1748 C 0.29405 0.18306 1.07216
 C1749 C 0.28602 0.19110 1.05958
 C1750 C 0.28972 0.20981 1.05886
 C1751 C 0.30875 0.21104 1.05781
 C1752 C 0.31678 0.20300 1.07039
 C1753 C 0.29329 0.20839 1.08876
 C1754 C 0.28526 0.21642 1.07620
 C1755 C 0.31359 0.18593 1.09637
 C1756 C 0.32055 0.17897 1.10768
 C1757 C 0.28102 0.21851 1.04539
 C1758 C 0.27377 0.22577 1.03446
 H1759 H 0.29274 0.16980 1.07432
 H1760 H 0.27782 0.18472 1.05097
 H1761 H 0.31533 0.21763 1.04805
 H1762 H 0.33024 0.20270 1.07140
 H1763 H 0.29147 0.21162 1.10174
 H1764 H 0.27657 0.22653 1.07841
 C1765 C 0.80515 0.69476 1.08285
 C1766 C 0.79524 0.68308 1.07147
 C1767 C 0.78719 0.69110 1.05889
 C1768 C 0.78984 0.71001 1.05893
 C1769 C 0.80879 0.71232 1.05860
 C1770 C 0.81684 0.70430 1.07117
 C1771 C 0.79249 0.70773 1.08888
 C1772 C 0.78444 0.71574 1.07631
 C1773 C 0.81377 0.68618 1.09645
 C1774 C 0.82074 0.67924 1.10776
 C1775 C 0.78113 0.71869 1.04546
 C1776 C 0.77387 0.72594 1.03453
 H1777 H 0.79460 0.66970 1.07314
 H1778 H 0.77966 0.68459 1.04979
 H1779 H 0.81531 0.71960 1.04930
 H1780 H 0.83026 0.70472 1.07265
 H1781 H 0.79005 0.71039 1.10188
 H1782 H 0.77512 0.72527 1.07855
 C1783 C 0.80567 0.19482 0.58292
 C1784 C 0.81605 0.20861 0.57479
 C1785 C 0.80802 0.21660 0.56218
 C1786 C 0.79040 0.21002 0.55894
 C1787 C 0.78144 0.21136 0.57574
 C1788 C 0.78946 0.20337 0.58834
 C1789 C 0.80063 0.18329 0.56857
 C1790 C 0.79260 0.19129 0.55596
 C1791 C 0.81425 0.18627 0.59656
 C1792 C 0.82119 0.17935 0.60790
 C1793 C 0.78171 0.21868 0.54544
 C1794 C 0.77445 0.22589 0.53449
 H1795 H 0.82860 0.21181 0.57859
 H1796 H 0.81370 0.22664 0.55518
 H1797 H 0.76981 0.21800 0.57757
 H1798 H 0.78470 0.20317 0.60097
 H1799 H 0.80315 0.17002 0.56834
 H1800 H 0.78825 0.18487 0.54492
 C1801 C 0.69495 0.69494 0.41738
 C1802 C 0.71288 0.68892 0.42005
 C1803 C 0.72092 0.69695 0.43261
 C1804 C 0.71023 0.71020 0.44128
 C1805 C 0.69451 0.70098 0.44693
 C1806 C 0.68647 0.69296 0.43436
 C1807 C 0.69637 0.71379 0.41474
 C1808 C 0.70440 0.72181 0.42730
 C1809 C 0.68635 0.68636 0.40379
 C1810 C 0.67940 0.67941 0.39248
 C1811 C 0.71894 0.71889 0.45474
 C1812 C 0.72619 0.72613 0.46566
 H1813 H 0.71875 0.67921 0.41272
 H1814 H 0.73367 0.69410 0.43605
 H1815 H 0.69008 0.70078 0.45968
 H1816 H 0.67515 0.68588 0.43633
 H1817 H 0.69148 0.72028 0.40395
 H1818 H 0.70640 0.73516 0.42727
 C1819 C 0.69468 0.19478 -0.08314
 C1820 C 0.71089 0.18620 -0.07777
 C1821 C 0.71893 0.19421 -0.06520
 C1822 C 0.70999 0.21000 -0.05923
 C1823 C 0.69237 0.20429 -0.05461
 C1824 C 0.68432 0.19629 -0.06718
 C1825 C 0.69972 0.21267 -0.08746
 C1826 C 0.70777 0.22067 -0.07490
 C1827 C 0.68607 0.18621 -0.09674
 C1828 C 0.67911 0.17926 -0.10804
 C1829 C 0.71871 0.21866 -0.04577
 C1830 C 0.72598 0.22589 -0.03484
 H1831 H 0.71562 0.17484 -0.08334
 H1832 H 0.73056 0.18970 -0.06000
 H1833 H 0.68672 0.20635 -0.04252
 H1834 H 0.67177 0.19149 -0.06587
 H1835 H 0.69719 0.21854 -0.09935
 H1836 H 0.71213 0.23339 -0.07602
 C1837 C 0.19479 0.69478 -0.08316
 C1838 C 0.21008 0.68539 -0.07662
 C1839 C 0.21810 0.69343 -0.06405
 C1840 C 0.21004 0.71008 -0.05926
 C1841 C 0.19186 0.70584 -0.05524
 C1842 C 0.18384 0.69779 -0.06781
 C1843 C 0.20128 0.71204 -0.08805
 C1844 C 0.20929 0.72008 -0.07549
 C1845 C 0.18621 0.68617 -0.09675
 C1846 C 0.17926 0.67921 -0.10805
 C1847 C 0.21871 0.71879 -0.04580
 C1848 C 0.22595 0.72606 -0.03488
 H1849 H 0.21424 0.67347 -0.08142
 H1850 H 0.22913 0.68840 -0.05809
 H1851 H 0.18583 0.70888 -0.04356
 H1852 H 0.17094 0.69394 -0.06689
 H1853 H 0.19972 0.71748 -0.10031
 H1854 H 0.21460 0.73240 -0.07699
 C1855 C 0.19476 0.19480 0.41709
 C1856 C 0.21173 0.18718 0.42142
 C1857 C 0.21973 0.19517 0.43403
 C1858 C 0.20996 0.21000 0.44108
 C1859 C 0.19300 0.20284 0.44611
 C1860 C 0.18500 0.19485 0.43350
 C1861 C 0.19835 0.21318 0.41343
 C1862 C 0.20634 0.22117 0.42603
 C1863 C 0.18621 0.18624 0.40345
 C1864 C 0.17929 0.17932 0.39211
 C1865 C 0.21862 0.21866 0.45458
 C1866 C 0.22584 0.22589 0.46554
 H1867 H 0.21701 0.17644 0.41514
 H1868 H 0.23185 0.19128 0.43855
 H1869 H 0.18774 0.20396 0.45849
 H1870 H 0.17289 0.18911 0.43507
 H1871 H 0.19491 0.21938 0.40194
 H1872 H 0.20974 0.23421 0.42534
 C1873 C 0.30488 0.41711 0.69507
 C1874 C 0.30040 0.43178 0.68370
 C1875 C 0.29236 0.44440 0.69171
 C1876 C 0.28959 0.44110 0.71029
 C1877 C 0.30697 0.43740 0.71730
 C1878 C 0.31500 0.42479 0.70930
 C1879 C 0.28836 0.41183 0.70303
 C1880 C 0.28032 0.42443 0.71103
 C1881 C 0.31347 0.40348 0.68650
 C1882 C 0.32043 0.39214 0.67957
 C1883 C 0.28089 0.45460 0.71896
 C1884 C 0.27363 0.46556 0.72619
 H1885 H 0.30329 0.43223 0.67053
 H1886 H 0.28836 0.45565 0.68539
 H1887 H 0.31248 0.44410 0.72764
 H1888 H 0.32740 0.42069 0.71278
 H1889 H 0.28340 0.39929 0.70244
 H1890 H 0.26849 0.42269 0.71729
 C1891 C 0.30500 0.91768 0.19446
 C1892 C 0.30028 0.93227 0.18308
 C1893 C 0.29226 0.94487 0.19114
 C1894 C 0.28976 0.94163 0.20977
 C1895 C 0.30724 0.93808 0.21658
 C1896 C 0.31526 0.92549 0.20852
 C1897 C 0.28862 0.91233 0.20266
 C1898 C 0.28061 0.92492 0.21071
 C1899 C 0.31358 0.90406 0.18584
 C1900 C 0.32053 0.89274 0.17888
 C1901 C 0.28108 0.95512 0.21849
 C1902 C 0.27385 0.96607 0.22576
 H1903 H 0.30300 0.93268 0.16987
 H1904 H 0.28812 0.95607 0.18483
 H1905 H 0.31284 0.94486 0.22681
 H1906 H 0.32772 0.92148 0.21186
 H1907 H 0.28374 0.89976 0.20218
 H1908 H 0.26887 0.92312 0.21712
 C1909 C 0.80537 0.41693 0.19458
 C1910 C 0.80078 0.43159 0.18324
 C1911 C 0.79274 0.44418 0.19130
 C1912 C 0.79009 0.44086 0.20990
 C1913 C 0.80751 0.43721 0.21682
 C1914 C 0.81555 0.42463 0.20876
 C1915 C 0.78891 0.41159 0.20263
 C1916 C 0.78088 0.42417 0.21068
 C1917 C 0.81397 0.40333 0.18597
 C1918 C 0.82094 0.39202 0.17900
 C1919 C 0.78139 0.45433 0.21862
 C1920 C 0.77414 0.46527 0.22590
 H1921 H 0.80360 0.43205 0.17006
 H1922 H 0.78868 0.45542 0.18501
 H1923 H 0.81305 0.44393 0.22712
 H1924 H 0.82797 0.42057 0.21217
 H1925 H 0.78399 0.39904 0.20206
 H1926 H 0.76908 0.42238 0.21700
 C1927 C 0.80522 0.91741 0.69512
 C1928 C 0.80070 0.93208 0.68378
 C1929 C 0.79265 0.94467 0.69181
 C1930 C 0.78992 0.94135 0.71040
 C1931 C 0.80731 0.93767 0.71738
 C1932 C 0.81535 0.92508 0.70935
 C1933 C 0.78872 0.91209 0.70311
 C1934 C 0.78068 0.92467 0.71113
 C1935 C 0.81383 0.90379 0.68653
 C1936 C 0.82081 0.89248 0.67958
 C1937 C 0.78120 0.95483 0.71909
 C1938 C 0.77393 0.96577 0.72633
 H1939 H 0.80357 0.93254 0.67060
 H1940 H 0.78863 0.95592 0.68551
 H1941 H 0.81282 0.94437 0.72771
 H1942 H 0.82776 0.92100 0.71280
 H1943 H 0.78379 0.89954 0.70251
 H1944 H 0.76886 0.92289 0.71740
 C1945 C 0.69503 0.58276 0.69500
 C1946 C 0.71073 0.57669 0.68598
 C1947 C 0.71876 0.56408 0.69400
 C1948 C 0.71030 0.55879 0.71026
 C1949 C 0.69235 0.55454 0.70535
 C1950 C 0.68432 0.56714 0.69733
 C1951 C 0.70090 0.58739 0.71255
 C1952 C 0.70892 0.57480 0.72057
 C1953 C 0.68644 0.59639 0.68642
 C1954 C 0.67949 0.60772 0.67948
 C1955 C 0.71899 0.54529 0.71894
 C1956 C 0.72623 0.53434 0.72618
 H1957 H 0.71515 0.58182 0.67431
 H1958 H 0.73005 0.55843 0.68920
 H1959 H 0.68646 0.54267 0.70794
 H1960 H 0.67156 0.56608 0.69305
 H1961 H 0.69893 0.59951 0.71819
 H1962 H 0.71382 0.57612 0.73307
 C1963 C 0.69527 0.08245 0.19476
 C1964 C 0.70565 0.07131 0.18322
 C1965 C 0.71367 0.05874 0.19129
 C1966 C 0.71052 0.05854 0.21011
 C1967 C 0.69153 0.05795 0.21196
 C1968 C 0.68350 0.07052 0.20389
 C1969 C 0.70750 0.08850 0.20809
 C1970 C 0.71552 0.07593 0.21615
 C1971 C 0.68668 0.09604 0.18613
 C1972 C 0.67972 0.10734 0.17915
 C1973 C 0.71920 0.04507 0.21885
 C1974 C 0.72644 0.03414 0.22613
 H1975 H 0.70661 0.07314 0.16989
 H1976 H 0.72150 0.04979 0.18487
 H1977 H 0.68495 0.04848 0.21898
 H1978 H 0.67006 0.07183 0.20399
 H1979 H 0.70968 0.10151 0.21094
 H1980 H 0.72456 0.07819 0.22592
 C1981 C 0.19461 0.58302 0.19456
 C1982 C 0.19120 0.58257 0.21333
 C1983 C 0.19922 0.56998 0.22136
 C1984 C 0.20987 0.55907 0.20984
 C1985 C 0.22164 0.57122 0.20102
 C1986 C 0.21362 0.58381 0.19299
 C1987 C 0.18985 0.56565 0.18824
 C1988 C 0.19787 0.55306 0.19628
 C1989 C 0.18602 0.59665 0.18597
 C1990 C 0.17907 0.60797 0.17902
 C1991 C 0.21855 0.54559 0.21855
 C1992 C 0.22579 0.53464 0.22581
 H1993 H 0.18319 0.59136 0.21974
 H1994 H 0.19808 0.56798 0.23466
 H1995 H 0.23509 0.57003 0.20107
 H1996 H 0.22020 0.59340 0.18616
 H1997 H 0.18096 0.56345 0.17832
 H1998 H 0.19586 0.54005 0.19325
 C1999 C 0.19465 0.08244 0.69489
 C2000 C 0.19138 0.08205 0.71368
 C2001 C 0.19943 0.06946 0.72169
 C2002 C 0.20996 0.05850 0.71013
 C2003 C 0.22170 0.07059 0.70119
 C2004 C 0.21365 0.08317 0.69318
 C2005 C 0.18980 0.06507 0.68865
 C2006 C 0.19786 0.05247 0.69666
 C2007 C 0.18604 0.09606 0.68632
 C2008 C 0.17907 0.10738 0.67937
 C2009 C 0.21868 0.04501 0.71881
 C2010 C 0.22595 0.03407 0.72604
 H2011 H 0.18343 0.09087 0.72013
 H2012 H 0.19837 0.06750 0.73500
 H2013 H 0.23515 0.06937 0.70115
 H2014 H 0.22021 0.09273 0.68628
 H2015 H 0.18084 0.06285 0.67881
 H2016 H 0.19580 0.03947 0.69369
 C2017 C 0.30519 0.58297 0.30485
 C2018 C 0.29343 0.57305 0.31613
 C2019 C 0.28537 0.56047 0.30814
 C2020 C 0.28988 0.55904 0.28965
 C2021 C 0.30890 0.55737 0.28928
 C2022 C 0.31695 0.56996 0.29727
 C2023 C 0.29430 0.58888 0.29033
 C2024 C 0.28625 0.57631 0.28235
 C2025 C 0.31380 0.59657 0.31340
 C2026 C 0.32076 0.60788 0.32034
 C2027 C 0.28116 0.54557 0.28100
 C2028 C 0.27389 0.53464 0.27378
 H2029 H 0.29159 0.57566 0.32924
 H2030 H 0.27664 0.55231 0.31440
 H2031 H 0.31547 0.54720 0.28328
 H2032 H 0.33042 0.57056 0.29812
 H2033 H 0.29302 0.60181 0.28665
 H2034 H 0.27808 0.57847 0.27182
 C2035 C 0.30531 0.08225 0.80522
 C2036 C 0.30911 0.08146 0.78655
 C2037 C 0.30108 0.06890 0.77851
 C2038 C 0.29003 0.05836 0.78994
 C2039 C 0.27825 0.07084 0.79834
 C2040 C 0.28628 0.08340 0.80637
 C2041 C 0.30967 0.06489 0.81189
 C2042 C 0.30163 0.05233 0.80385
 C2043 C 0.31390 0.09584 0.81382
 C2044 C 0.32085 0.10714 0.82078
 C2045 C 0.28133 0.04490 0.78125
 C2046 C 0.27407 0.03398 0.77400
 H2047 H 0.31739 0.09001 0.78019
 H2048 H 0.30248 0.06670 0.76528
 H2049 H 0.26478 0.06989 0.79802
 H2050 H 0.27969 0.09320 0.81293
 H2051 H 0.31830 0.06267 0.82202
 H2052 H 0.30338 0.03934 0.80710
 C2053 C 0.80553 0.58251 0.80536
 C2054 C 0.79337 0.57289 0.81648
 C2055 C 0.78534 0.56031 0.80846
 C2056 C 0.79025 0.55859 0.79010
 C2057 C 0.80925 0.55666 0.79020
 C2058 C 0.81729 0.56924 0.79823
 C2059 C 0.79506 0.58837 0.79052
 C2060 C 0.78703 0.57581 0.78250
 C2061 C 0.81412 0.59610 0.81394
 C2062 C 0.82107 0.60741 0.82089
 C2063 C 0.78155 0.54513 0.78142
 C2064 C 0.77429 0.53420 0.77418
 H2065 H 0.79126 0.57570 0.82951
 H2066 H 0.77635 0.55235 0.81462
 H2067 H 0.81582 0.54633 0.78449
 H2068 H 0.83073 0.56968 0.79938
 H2069 H 0.79404 0.60127 0.78664
 H2070 H 0.77914 0.57794 0.77176
 C2071 C 0.80584 0.08240 0.30521
 C2072 C 0.79418 0.07239 0.31652
 C2073 C 0.78612 0.05982 0.30852
 C2074 C 0.79052 0.05849 0.29000
 C2075 C 0.80955 0.05689 0.28951
 C2076 C 0.81760 0.06946 0.29751
 C2077 C 0.79484 0.08834 0.29078
 C2078 C 0.78679 0.07577 0.28279
 C2079 C 0.81445 0.09600 0.31377
 C2080 C 0.82141 0.10731 0.32071
 C2081 C 0.78180 0.04502 0.28134
 C2082 C 0.77452 0.03409 0.27413
 H2083 H 0.79241 0.07495 0.32965
 H2084 H 0.77746 0.05160 0.31480
 H2085 H 0.81612 0.04677 0.28343
 H2086 H 0.83107 0.07012 0.29828
 H2087 H 0.79349 0.10128 0.28716
 H2088 H 0.77855 0.07795 0.27232
 C2089 C 0.69482 0.41700 0.30510
 C2090 C 0.68425 0.43280 0.30311
 C2091 C 0.69230 0.44538 0.29510
 C2092 C 0.71012 0.44091 0.28986
 C2093 C 0.70840 0.42504 0.27940
 C2094 C 0.70036 0.41248 0.28741
 C2095 C 0.71073 0.42275 0.31393
 C2096 C 0.71877 0.43532 0.30592
 C2097 C 0.68621 0.40341 0.31367
 C2098 C 0.67925 0.39211 0.32062
 C2099 C 0.71883 0.45437 0.28118
 C2100 C 0.72609 0.46530 0.27395
 H2101 H 0.67157 0.43401 0.30761
 H2102 H 0.68651 0.45735 0.29273
 H2103 H 0.71308 0.42378 0.26681
 H2104 H 0.69815 0.40046 0.28167
 H2105 H 0.71527 0.41742 0.32547
 H2106 H 0.73020 0.44075 0.31060
 C2107 C 0.69444 0.91760 0.80540
 C2108 C 0.69172 0.91759 0.78652
 C2109 C 0.69977 0.93015 0.77850
 C2110 C 0.70974 0.94150 0.79015
 C2111 C 0.72144 0.92977 0.79966
 C2112 C 0.71339 0.91721 0.80767
 C2113 C 0.68908 0.93501 0.81116
 C2114 C 0.69713 0.94758 0.80314
 C2115 C 0.68583 0.90401 0.81398
 C2116 C 0.67887 0.89271 0.82093
 C2117 C 0.71846 0.95495 0.78146
 C2118 C 0.72573 0.96587 0.77423
 H2119 H 0.68414 0.90852 0.78002
 H2120 H 0.69907 0.93183 0.76513
 H2121 H 0.73486 0.93121 0.80007
 H2122 H 0.71992 0.90789 0.81495
 H2123 H 0.67979 0.93727 0.82069
 H2124 H 0.69474 0.96060 0.80580
 C2125 C 0.19427 0.41743 0.80534
 C2126 C 0.21099 0.42209 0.81328
 C2127 C 0.21903 0.43465 0.80526
 C2128 C 0.20957 0.44133 0.79009
 C2129 C 0.19236 0.44630 0.79675
 C2130 C 0.18432 0.43373 0.80476
 C2131 C 0.19839 0.41348 0.78713
 C2132 C 0.20642 0.42604 0.77912
 C2133 C 0.18567 0.40383 0.81391
 C2134 C 0.17871 0.39253 0.82086
 C2135 C 0.21827 0.45480 0.78141
 C2136 C 0.22554 0.46572 0.77417
 H2137 H 0.21606 0.41605 0.82424
 H2138 H 0.23099 0.43939 0.80936
 H2139 H 0.18697 0.45861 0.79529
 H2140 H 0.17204 0.43526 0.81018
 H2141 H 0.19526 0.40184 0.78106
 H2142 H 0.21018 0.42516 0.76619
 C2143 C 0.19463 0.91794 0.30512
 C2144 C 0.18304 0.92901 0.29475
 C2145 C 0.19107 0.94158 0.28670
 C2146 C 0.20991 0.94182 0.28983
 C2147 C 0.21601 0.92442 0.28486
 C2148 C 0.20799 0.91187 0.29290
 C2149 C 0.20374 0.92993 0.31685
 C2150 C 0.21177 0.94249 0.30880
 C2151 C 0.18604 0.90436 0.31373
 C2152 C 0.17909 0.89306 0.32070
 C2153 C 0.21860 0.95528 0.28112
 C2154 C 0.22586 0.96619 0.27386
 H2155 H 0.16970 0.92716 0.29381
 H2156 H 0.18461 0.95048 0.27887
 H2157 H 0.22579 0.92215 0.27582
 H2158 H 0.21089 0.89885 0.29074
 H2159 H 0.20386 0.92866 0.33028
 H2160 H 0.21877 0.95199 0.31534
 C2161 C 0.41711 0.30488 0.69507
 C2162 C 0.41729 0.30785 0.71391
 C2163 C 0.42989 0.29982 0.72192
 C2164 C 0.44108 0.28959 0.71030
 C2165 C 0.44710 0.30196 0.69709
 C2166 C 0.43449 0.31001 0.68907
 C2167 C 0.41660 0.28590 0.69306
 C2168 C 0.42920 0.27786 0.70106
 C2169 C 0.40348 0.31347 0.68650
 C2170 C 0.39214 0.32043 0.67957
 C2171 C 0.45458 0.28089 0.71897
 C2172 C 0.46553 0.27363 0.72621
 H2173 H 0.40831 0.31560 0.72040
 H2174 H 0.43170 0.30068 0.73526
 H2175 H 0.46011 0.30421 0.69427
 H2176 H 0.43670 0.31914 0.67939
 H2177 H 0.40718 0.27935 0.68596
 H2178 H 0.43057 0.26443 0.70082
 C2179 C 0.41722 0.80555 0.19436
 C2180 C 0.41620 0.80688 0.21336
 C2181 C 0.42878 0.79885 0.22140
 C2182 C 0.44116 0.79028 0.20965
 C2183 C 0.44717 0.80406 0.19790
 C2184 C 0.43457 0.81209 0.18986
 C2185 C 0.41792 0.78681 0.19073
 C2186 C 0.43050 0.77879 0.19877
 C2187 C 0.40360 0.81414 0.18576
 C2188 C 0.39228 0.82109 0.17881
 C2189 C 0.45464 0.78159 0.21836
 C2190 C 0.46558 0.77434 0.22562
 H2191 H 0.40645 0.81354 0.21993
 H2192 H 0.42981 0.79864 0.23485
 H2193 H 0.46016 0.80723 0.19606
 H2194 H 0.43678 0.82214 0.18112
 H2195 H 0.40930 0.78042 0.18256
 H2196 H 0.43266 0.76552 0.19748
 C2197 C 0.91765 0.30487 0.19451
 C2198 C 0.91662 0.30622 0.21351
 C2199 C 0.92921 0.29821 0.22156
 C2200 C 0.94160 0.28964 0.20982
 C2201 C 0.94760 0.30341 0.19806
 C2202 C 0.93500 0.31142 0.19000
 C2203 C 0.91836 0.28613 0.19091
 C2204 C 0.93095 0.27813 0.19895
 C2205 C 0.90403 0.31344 0.18590
 C2206 C 0.89270 0.32039 0.17895
 C2207 C 0.95509 0.28097 0.21854
 C2208 C 0.96604 0.27374 0.22581
 H2209 H 0.90687 0.31289 0.22007
 H2210 H 0.93024 0.29802 0.23501
 H2211 H 0.96059 0.30659 0.19621
 H2212 H 0.93719 0.32147 0.18126
 H2213 H 0.90974 0.27972 0.18274
 H2214 H 0.93312 0.26485 0.19768
 C2215 C 0.91746 0.80522 0.69510
 C2216 C 0.91646 0.80655 0.71411
 C2217 C 0.92904 0.79851 0.72213
 C2218 C 0.94139 0.78992 0.71037
 C2219 C 0.94741 0.80370 0.69862
 C2220 C 0.93482 0.81175 0.69059
 C2221 C 0.91813 0.78649 0.69147
 C2222 C 0.93071 0.77845 0.69949
 C2223 C 0.90385 0.81383 0.68651
 C2224 C 0.89253 0.82080 0.67956
 C2225 C 0.95487 0.78120 0.71906
 C2226 C 0.96581 0.77394 0.72630
 H2227 H 0.90672 0.81323 0.72068
 H2228 H 0.93008 0.79829 0.73558
 H2229 H 0.96040 0.80685 0.69677
 H2230 H 0.93703 0.82180 0.68186
 H2231 H 0.90949 0.78011 0.68330
 H2232 H 0.93285 0.76517 0.69820
 C2233 C 0.58280 0.30495 0.30508
 C2234 C 0.56544 0.30937 0.31170
 C2235 C 0.55287 0.30132 0.30367
 C2236 C 0.55891 0.28966 0.28981
 C2237 C 0.57135 0.27789 0.29826
 C2238 C 0.58391 0.28593 0.30628
 C2239 C 0.58206 0.30869 0.28638
 C2240 C 0.56950 0.30065 0.27836
 C2241 C 0.59639 0.31355 0.31367
 C2242 C 0.60769 0.32051 0.32062
 C2243 C 0.54545 0.28096 0.28112
 C2244 C 0.53452 0.27370 0.27387
 H2245 H 0.56321 0.31804 0.32181
 H2246 H 0.53987 0.30311 0.30690
 H2247 H 0.57038 0.26443 0.29797
 H2248 H 0.59370 0.27934 0.31287
 H2249 H 0.59063 0.31693 0.28001
 H2250 H 0.56731 0.30201 0.26511
 C2251 C 0.58241 0.80557 0.80530
 C2252 C 0.58845 0.79385 0.79149
 C2253 C 0.57590 0.78582 0.78346
 C2254 C 0.55853 0.79027 0.79002
 C2255 C 0.55745 0.80929 0.78875
 C2256 C 0.57001 0.81734 0.79678
 C2257 C 0.57178 0.79463 0.81676
 C2258 C 0.55922 0.78659 0.80873
 C2259 C 0.59600 0.81417 0.81389
 C2260 C 0.60729 0.82113 0.82086
 C2261 C 0.54508 0.78156 0.78133
 C2262 C 0.53417 0.77429 0.77408
 H2263 H 0.60145 0.79203 0.78829
 H2264 H 0.57815 0.77711 0.77339
 H2265 H 0.54768 0.81587 0.78213
 H2266 H 0.57100 0.83080 0.79705
 H2267 H 0.57392 0.79333 0.83002
 H2268 H 0.55060 0.77840 0.81511
 C2269 C 0.08225 0.30538 0.80525
 C2270 C 0.06535 0.30695 0.81402
 C2271 C 0.05278 0.29891 0.80599
 C2272 C 0.05834 0.29010 0.78999
 C2273 C 0.07261 0.27858 0.79535
 C2274 C 0.08517 0.28661 0.80337
 C2275 C 0.07922 0.31173 0.78752
 C2276 C 0.06665 0.30370 0.77949
 C2277 C 0.09584 0.31398 0.81384
 C2278 C 0.10714 0.32093 0.82080
 C2279 C 0.04488 0.28140 0.78130
 C2280 C 0.03396 0.27414 0.77405
 H2281 H 0.06342 0.31376 0.82551
 H2282 H 0.04008 0.29884 0.81060
 H2283 H 0.07282 0.26527 0.79305
 H2284 H 0.09614 0.28018 0.80795
 H2285 H 0.08631 0.32167 0.78177
 H2286 H 0.06298 0.30676 0.76687
 C2287 C 0.08255 0.80597 0.30531
 C2288 C 0.08594 0.80305 0.28676
 C2289 C 0.07338 0.79501 0.27876
 C2290 C 0.05864 0.79067 0.29008
 C2291 C 0.05331 0.80727 0.29789
 C2292 C 0.06589 0.81532 0.30590
 C2293 C 0.07880 0.78867 0.31243
 C2294 C 0.06623 0.78063 0.30442
 C2295 C 0.09614 0.81458 0.31388
 C2296 C 0.10745 0.82154 0.32082
 C2297 C 0.04517 0.78196 0.28140
 C2298 C 0.03425 0.77469 0.27417
 H2299 H 0.09722 0.80696 0.28047
 H2300 H 0.07390 0.79203 0.26561
 H2301 H 0.04077 0.81226 0.29719
 H2302 H 0.06412 0.82720 0.31207
 H2303 H 0.08543 0.78322 0.32285
 H2304 H 0.06209 0.76828 0.30798
 C2305 C 0.58279 0.69495 0.69496
 C2306 C 0.58434 0.71397 0.69456
 C2307 C 0.57174 0.72200 0.70257
 C2308 C 0.55881 0.71022 0.71021
 C2309 C 0.56884 0.69851 0.72147
 C2310 C 0.58145 0.69048 0.71346
 C2311 C 0.56553 0.69125 0.68771
 C2312 C 0.55292 0.69929 0.69572
 C2313 C 0.59643 0.68635 0.68639
 C2314 C 0.60777 0.67940 0.67945
 C2315 C 0.54531 0.71892 0.71888
 C2316 C 0.53435 0.72617 0.72611
 H2317 H 0.59445 0.72055 0.68851
 H2318 H 0.57105 0.73546 0.70338
 H2319 H 0.56626 0.69668 0.73459
 H2320 H 0.58966 0.68177 0.71972
 H2321 H 0.56340 0.68305 0.67720
 H2322 H 0.53998 0.69797 0.69209
 C2323 C 0.58294 0.19445 0.19456
 C2324 C 0.58441 0.21347 0.19404
 C2325 C 0.57182 0.22150 0.20207
 C2326 C 0.55899 0.20972 0.20985
 C2327 C 0.56913 0.19811 0.22112
 C2328 C 0.58172 0.19008 0.21309
 C2329 C 0.56565 0.19064 0.18742
 C2330 C 0.55305 0.19868 0.19546
 C2331 C 0.59656 0.18586 0.18596
 C2332 C 0.60789 0.17890 0.17900
 C2333 C 0.54550 0.21841 0.21856
 C2334 C 0.53456 0.22566 0.22582
 H2335 H 0.59445 0.22006 0.18789
 H2336 H 0.57108 0.23496 0.20281
 H2337 H 0.56663 0.19634 0.23427
 H2338 H 0.59000 0.18144 0.21934
 H2339 H 0.56349 0.18238 0.17698
 H2340 H 0.54010 0.19729 0.19191
 C2341 C 0.08263 0.69540 0.19476
 C2342 C 0.08419 0.71442 0.19436
 C2343 C 0.07163 0.72246 0.20242
 C2344 C 0.05872 0.71069 0.21010
 C2345 C 0.06879 0.69897 0.22133
 C2346 C 0.08135 0.69093 0.21326
 C2347 C 0.06533 0.69172 0.18757
 C2348 C 0.05276 0.69976 0.19564
 C2349 C 0.09622 0.68679 0.18613
 C2350 C 0.10752 0.67982 0.17915
 C2351 C 0.04526 0.71939 0.21884
 C2352 C 0.03432 0.72664 0.22612
 H2353 H 0.09428 0.72100 0.18827
 H2354 H 0.07095 0.73592 0.20324
 H2355 H 0.06626 0.69713 0.23445
 H2356 H 0.08959 0.68221 0.21948
 H2357 H 0.06315 0.68353 0.17707
 H2358 H 0.03981 0.69846 0.19206
 C2359 C 0.08245 0.19470 0.69495
 C2360 C 0.06965 0.18293 0.70282
 C2361 C 0.05706 0.19099 0.71084
 C2362 C 0.05849 0.21001 0.71019
 C2363 C 0.05967 0.21427 0.69163
 C2364 C 0.07226 0.20621 0.68362
 C2365 C 0.08838 0.20584 0.70925
 C2366 C 0.07579 0.21389 0.71726
 C2367 C 0.09607 0.18608 0.68637
 C2368 C 0.10739 0.17911 0.67942
 C2369 C 0.04500 0.21873 0.71887
 C2370 C 0.03406 0.22600 0.72610
 H2371 H 0.07042 0.16947 0.70215
 H2372 H 0.04703 0.18442 0.71703
 H2373 H 0.05134 0.22284 0.68534
 H2374 H 0.07472 0.20789 0.67045
 H2375 H 0.10133 0.20728 0.71278
 H2376 H 0.07797 0.22222 0.72765
 C2377 C 0.41725 0.69504 0.30479
 C2378 C 0.41341 0.69895 0.28652
 C2379 C 0.42598 0.70699 0.27851
 C2380 C 0.44117 0.71034 0.28956
 C2381 C 0.44621 0.69323 0.29640
 C2382 C 0.43363 0.68518 0.30441
 C2383 C 0.42175 0.71186 0.31260
 C2384 C 0.43432 0.71990 0.30459
 C2385 C 0.40366 0.68643 0.31336
 C2386 C 0.39235 0.67947 0.32030
 C2387 C 0.45464 0.71905 0.28089
 C2388 C 0.46557 0.72631 0.27366
 H2389 H 0.40183 0.69568 0.28040
 H2390 H 0.42516 0.71061 0.26554
 H2391 H 0.45856 0.68791 0.29508
 H2392 H 0.43520 0.67297 0.30995
 H2393 H 0.41560 0.71699 0.32347
 H2394 H 0.43895 0.73193 0.30861
 C2395 C 0.41736 0.19426 0.80533
 C2396 C 0.41967 0.18870 0.78722
 C2397 C 0.43224 0.19674 0.77921
 C2398 C 0.44127 0.20955 0.79008
 C2399 C 0.44703 0.19981 0.80546
 C2400 C 0.43445 0.19177 0.81348
 C2401 C 0.41498 0.21318 0.80445
 C2402 C 0.42754 0.22122 0.79644
 C2403 C 0.40376 0.18566 0.81391
 C2404 C 0.39245 0.17870 0.82085
 C2405 C 0.45474 0.21826 0.78140
 C2406 C 0.46566 0.22552 0.77416
 H2407 H 0.41211 0.17927 0.78123
 H2408 H 0.43544 0.19420 0.76635
 H2409 H 0.45985 0.19927 0.80967
 H2410 H 0.43650 0.18434 0.82456
 H2411 H 0.40435 0.21970 0.80967
 H2412 H 0.42768 0.23462 0.79480
 C2413 C 0.91757 0.69452 0.80537
 C2414 C 0.91372 0.69843 0.78710
 C2415 C 0.92629 0.70646 0.77909
 C2416 C 0.94149 0.70981 0.79012
 C2417 C 0.94652 0.69271 0.79698
 C2418 C 0.93394 0.68467 0.80500
 C2419 C 0.92207 0.71135 0.81317
 C2420 C 0.93465 0.71938 0.80516
 C2421 C 0.90397 0.68593 0.81395
 C2422 C 0.89266 0.67898 0.82090
 C2423 C 0.95496 0.71851 0.78145
 C2424 C 0.96588 0.72578 0.77421
 H2425 H 0.90213 0.69516 0.78099
 H2426 H 0.92547 0.71007 0.76611
 H2427 H 0.95887 0.68738 0.79565
 H2428 H 0.93551 0.67246 0.81054
 H2429 H 0.91594 0.71649 0.82405
 H2430 H 0.93928 0.73141 0.80916
 C2431 C 0.91788 0.19445 0.30507
 C2432 C 0.91398 0.19841 0.28682
 C2433 C 0.92653 0.20645 0.27880
 C2434 C 0.94177 0.20974 0.28980
 C2435 C 0.94680 0.19261 0.29658
 C2436 C 0.93423 0.18457 0.30462
 C2437 C 0.92243 0.21124 0.31291
 C2438 C 0.93499 0.21928 0.30488
 C2439 C 0.90429 0.18585 0.31367
 C2440 C 0.89300 0.17889 0.32063
 C2441 C 0.95523 0.21845 0.28110
 C2442 C 0.96615 0.22572 0.27386
 H2443 H 0.90237 0.19518 0.28074
 H2444 H 0.92568 0.21010 0.26584
 H2445 H 0.95914 0.18727 0.29521
 H2446 H 0.93581 0.17234 0.31012
 H2447 H 0.91633 0.21636 0.32382
 H2448 H 0.93965 0.23129 0.30891
 C2449 C 0.30495 0.30495 0.58309
 C2450 C 0.29271 0.29161 0.58910
 C2451 C 0.28470 0.28360 0.57652
 C2452 C 0.28970 0.28971 0.55915
 C2453 C 0.30870 0.28783 0.55853
 C2454 C 0.31672 0.29584 0.57112
 C2455 C 0.29458 0.31656 0.57203
 C2456 C 0.28656 0.30855 0.55945
 C2457 C 0.31353 0.31352 0.59670
 C2458 C 0.32048 0.32046 0.60802
 C2459 C 0.28102 0.28104 0.54567
 C2460 C 0.27378 0.27381 0.53473
 H2461 H 0.29053 0.28870 0.60209
 H2462 H 0.27565 0.27384 0.57874
 H2463 H 0.31527 0.28083 0.54903
 H2464 H 0.33016 0.29570 0.57240
 H2465 H 0.29363 0.32990 0.57392
 H2466 H 0.27874 0.31503 0.55055
 C2467 C 0.30504 0.80550 0.08242
 C2468 C 0.29276 0.79221 0.08846
 C2469 C 0.28475 0.78417 0.07590
 C2470 C 0.28979 0.79021 0.05852
 C2471 C 0.30879 0.78828 0.05793
 C2472 C 0.31680 0.79633 0.07050
 C2473 C 0.29471 0.81710 0.07130
 C2474 C 0.28669 0.80905 0.05873
 C2475 C 0.31362 0.81411 0.09601
 C2476 C 0.32057 0.82107 0.10731
 C2477 C 0.28111 0.78150 0.04506
 C2478 C 0.27388 0.77423 0.03414
 H2479 H 0.29055 0.78936 0.10146
 H2480 H 0.27568 0.77444 0.07814
 H2481 H 0.31536 0.78123 0.04847
 H2482 H 0.33024 0.79617 0.07180
 H2483 H 0.29378 0.83044 0.07313
 H2484 H 0.27890 0.81551 0.04979
 C2485 C 0.80547 0.30489 0.08249
 C2486 C 0.81055 0.31092 0.06511
 C2487 C 0.80250 0.30291 0.05254
 C2488 C 0.79017 0.28966 0.05858
 C2489 C 0.77845 0.29888 0.07051
 C2490 C 0.78649 0.30688 0.08308
 C2491 C 0.80850 0.28604 0.08227
 C2492 C 0.80046 0.27803 0.06970
 C2493 C 0.81408 0.31347 0.09608
 C2494 C 0.82104 0.32041 0.10738
 C2495 C 0.78145 0.28098 0.04512
 C2496 C 0.77418 0.27376 0.03420
 H2497 H 0.81966 0.32062 0.06288
 H2498 H 0.80471 0.30574 0.03953
 H2499 H 0.76501 0.29910 0.06920
 H2500 H 0.77994 0.31397 0.09253
 H2501 H 0.81629 0.27955 0.09119
 H2502 H 0.80135 0.26468 0.06786
 C2503 C 0.80542 0.80535 0.58303
 C2504 C 0.81037 0.81152 0.56566
 C2505 C 0.80234 0.80349 0.55308
 C2506 C 0.79017 0.79009 0.55911
 C2507 C 0.77840 0.79914 0.57113
 C2508 C 0.78642 0.80716 0.58370
 C2509 C 0.80863 0.78653 0.58270
 C2510 C 0.80061 0.77851 0.57012
 C2511 C 0.81400 0.81394 0.59663
 C2512 C 0.82094 0.82089 0.60794
 C2513 C 0.78148 0.78140 0.54564
 C2514 C 0.77424 0.77415 0.53471
 H2515 H 0.81937 0.82132 0.56344
 H2516 H 0.80447 0.80641 0.54008
 H2517 H 0.76496 0.79924 0.56987
 H2518 H 0.77984 0.81413 0.59321
 H2519 H 0.81652 0.78007 0.59155
 H2520 H 0.80163 0.76518 0.56821
 C2521 C 0.30524 0.69503 0.41689
 C2522 C 0.30382 0.68467 0.43286
 C2523 C 0.29579 0.69271 0.44545
 C2524 C 0.28997 0.71031 0.44083
 C2525 C 0.27929 0.70806 0.42518
 C2526 C 0.28731 0.70002 0.41261
 C2527 C 0.31373 0.71125 0.42225
 C2528 C 0.30571 0.71929 0.43483
 C2529 C 0.31383 0.68643 0.40329
 C2530 C 0.32078 0.67947 0.39197
 C2531 C 0.28128 0.71901 0.45431
 C2532 C 0.27403 0.72627 0.46525
 H2533 H 0.30869 0.67214 0.43416
 H2534 H 0.29378 0.68707 0.45754
 H2535 H 0.26653 0.71239 0.42408
 H2536 H 0.28143 0.69747 0.40073
 H2537 H 0.32506 0.71600 0.41666
 H2538 H 0.31016 0.73093 0.44002
 C2539 C 0.30509 0.19443 0.91718
 C2540 C 0.28653 0.19015 0.91835
 C2541 C 0.27847 0.19821 0.93090
 C2542 C 0.28977 0.20976 0.94105
 C2543 C 0.29763 0.22151 0.92824
 C2544 C 0.30568 0.21345 0.91570
 C2545 C 0.31217 0.19058 0.93448
 C2546 C 0.30411 0.19864 0.94704
 C2547 C 0.31372 0.18580 0.90361
 C2548 C 0.32070 0.17882 0.89232
 C2549 C 0.28105 0.21848 0.95449
 C2550 C 0.27378 0.22576 0.96541
 H2551 H 0.28026 0.18155 0.91006
 H2552 H 0.26530 0.19651 0.93336
 H2553 H 0.29693 0.23497 0.92896
 H2554 H 0.31189 0.22001 0.90567
 H2555 H 0.32259 0.18226 0.93668
 H2556 H 0.30762 0.19723 0.95999
 C2557 C 0.80529 0.69472 0.91724
 C2558 C 0.79868 0.71195 0.91232
 C2559 C 0.79061 0.71999 0.92486
 C2560 C 0.78994 0.71003 0.94111
 C2561 C 0.80814 0.70585 0.94513
 C2562 C 0.81621 0.69780 0.93258
 C2563 C 0.79006 0.68530 0.92382
 C2564 C 0.78199 0.69334 0.93637
 C2565 C 0.81392 0.68611 0.90367
 C2566 C 0.82091 0.67914 0.89238
 C2567 C 0.78120 0.71873 0.95456
 C2568 C 0.77392 0.72599 0.96548
 H2569 H 0.80020 0.71737 0.90005
 H2570 H 0.78523 0.73229 0.92334
 H2571 H 0.81416 0.70894 0.95681
 H2572 H 0.82915 0.69400 0.93350
 H2573 H 0.78597 0.67335 0.91904
 H2574 H 0.77099 0.68829 0.94235
 C2575 C 0.80580 0.19455 0.41715
 C2576 C 0.79945 0.21190 0.41232
 C2577 C 0.79140 0.21994 0.42488
 C2578 C 0.79048 0.20984 0.44104
 C2579 C 0.80860 0.20540 0.44515
 C2580 C 0.81666 0.19736 0.43259
 C2581 C 0.79041 0.18526 0.42353
 C2582 C 0.78235 0.19330 0.43609
 C2583 C 0.81442 0.18594 0.40356
 C2584 C 0.82139 0.17897 0.39226
 C2585 C 0.78175 0.21855 0.45449
 C2586 C 0.77448 0.22580 0.46541
 H2587 H 0.80113 0.21740 0.40011
 H2588 H 0.78618 0.23232 0.42342
 H2589 H 0.81457 0.20832 0.45690
 H2590 H 0.82953 0.19338 0.43356
 H2591 H 0.78621 0.17341 0.41863
 H2592 H 0.77125 0.18834 0.44195
 C2593 C 0.69491 0.30497 0.41710
 C2594 C 0.69021 0.31137 0.43446
 C2595 C 0.69828 0.30335 0.44703
 C2596 C 0.71024 0.28972 0.44100
 C2597 C 0.72197 0.29848 0.42877
 C2598 C 0.71392 0.30650 0.41621
 C2599 C 0.69149 0.28620 0.41763
 C2600 C 0.69955 0.27818 0.43019
 C2601 C 0.68628 0.31356 0.40351
 C2602 C 0.67931 0.32051 0.39221
 C2603 C 0.71897 0.28103 0.45446
 C2604 C 0.72625 0.27379 0.46538
 H2605 H 0.68134 0.32132 0.43668
 H2606 H 0.69632 0.30642 0.46002
 H2607 H 0.73543 0.29839 0.42989
 H2608 H 0.72047 0.31328 0.40657
 H2609 H 0.68344 0.27978 0.40892
 H2610 H 0.69840 0.26489 0.43224
 C2611 C 0.69449 0.80539 0.91728
 C2612 C 0.70669 0.79199 0.91122
 C2613 C 0.71472 0.78393 0.92377
 C2614 C 0.70978 0.79005 0.94115
 C2615 C 0.69078 0.78827 0.94183
 C2616 C 0.68274 0.79634 0.92928
 C2617 C 0.70492 0.81694 0.92832
 C2618 C 0.71296 0.80887 0.94087
 C2619 C 0.68589 0.81402 0.90370
 C2620 C 0.67892 0.82100 0.89242
 C2621 C 0.71849 0.78132 0.95460
 C2622 C 0.72575 0.77405 0.96551
 H2623 H 0.70883 0.78908 0.89822
 H2624 H 0.72374 0.77412 0.92151
 H2625 H 0.68423 0.78130 0.95134
 H2626 H 0.66930 0.79628 0.92803
 H2627 H 0.70590 0.83027 0.92644
 H2628 H 0.72082 0.81530 0.94975
 C2629 C 0.19439 0.30521 0.91719
 C2630 C 0.20651 0.29173 0.91114
 C2631 C 0.21455 0.28367 0.92369
 C2632 C 0.20970 0.28989 0.94107
 C2633 C 0.19070 0.28820 0.94182
 C2634 C 0.18265 0.29625 0.92927
 C2635 C 0.20491 0.31675 0.92815
 C2636 C 0.21296 0.30869 0.94071
 C2637 C 0.18578 0.31383 0.90362
 C2638 C 0.17881 0.32081 0.89233
 C2639 C 0.21841 0.28117 0.95451
 C2640 C 0.22568 0.27390 0.96543
 H2641 H 0.20858 0.28876 0.89814
 H2642 H 0.22351 0.27382 0.92143
 H2643 H 0.18414 0.28129 0.95138
 H2644 H 0.16920 0.29625 0.92807
 H2645 H 0.20595 0.33007 0.92623
 H2646 H 0.22089 0.31511 0.94954
 C2647 C 0.19476 0.80586 0.41715
 C2648 C 0.18997 0.81212 0.43453
 C2649 C 0.19802 0.80405 0.44708
 C2650 C 0.21006 0.79051 0.44101
 C2651 C 0.22181 0.79941 0.42889
 C2652 C 0.21376 0.80747 0.41634
 C2653 C 0.19142 0.78707 0.41755
 C2654 C 0.19947 0.77900 0.43009
 C2655 C 0.18614 0.81449 0.40358
 C2656 C 0.17917 0.82146 0.39230
 C2657 C 0.21877 0.78178 0.45445
 C2658 C 0.22603 0.77449 0.46535
 H2659 H 0.18104 0.82202 0.43678
 H2660 H 0.19599 0.80704 0.46009
 H2661 H 0.23526 0.79938 0.43005
 H2662 H 0.22033 0.81435 0.40677
 H2663 H 0.18344 0.78066 0.40876
 H2664 H 0.19838 0.76569 0.43204
 C2665 C 0.69503 0.69492 0.58303
 C2666 C 0.68444 0.69693 0.56728
 C2667 C 0.69247 0.70496 0.55470
 C2668 C 0.71029 0.71019 0.55912
 C2669 C 0.71897 0.69409 0.56467
 C2670 C 0.71094 0.68607 0.57724
 C2671 C 0.70055 0.71261 0.58756
 C2672 C 0.70857 0.72064 0.57500
 C2673 C 0.68644 0.68633 0.59663
 C2674 C 0.67949 0.67938 0.60793
 C2675 C 0.71898 0.71888 0.54565
 C2676 C 0.72622 0.72613 0.53473
 H2677 H 0.67177 0.69244 0.56610
 H2678 H 0.68667 0.70735 0.54275
 H2679 H 0.73040 0.68941 0.55920
 H2680 H 0.71550 0.67451 0.58254
 H2681 H 0.69835 0.71834 0.59958
 H2682 H 0.71325 0.73324 0.57626
 C2683 C 0.69508 0.19445 0.08255
 C2684 C 0.68594 0.21007 0.07645
 C2685 C 0.69393 0.21812 0.06388
 C2686 C 0.71029 0.20975 0.05863
 C2687 C 0.70553 0.19176 0.05438
 C2688 C 0.69754 0.18371 0.06696
 C2689 C 0.71258 0.20044 0.08722
 C2690 C 0.72058 0.20848 0.07465
 C2691 C 0.68652 0.18584 0.09615
 C2692 C 0.67958 0.17888 0.10746
 C2693 C 0.71895 0.21846 0.04516
 C2694 C 0.72616 0.22573 0.03423
 H2695 H 0.67421 0.21443 0.08156
 H2696 H 0.68905 0.22936 0.05821
 H2697 H 0.70821 0.18587 0.04253
 H2698 H 0.69336 0.17092 0.06589
 H2699 H 0.71821 0.19853 0.09934
 H2700 H 0.73305 0.21346 0.07600
 C2701 C 0.19464 0.69511 0.08254
 C2702 C 0.18401 0.70847 0.07398
 C2703 C 0.19204 0.71647 0.06139
 C2704 C 0.20992 0.71033 0.05861
 C2705 C 0.20835 0.69149 0.05591
 C2706 C 0.20031 0.68349 0.06850
 C2707 C 0.21046 0.70419 0.08813
 C2708 C 0.21849 0.71219 0.07555
 C2709 C 0.18605 0.68655 0.09615
 C2710 C 0.17909 0.67962 0.10747
 C2711 C 0.21862 0.71899 0.04513
 C2712 C 0.22587 0.72621 0.03419
 H2713 H 0.17129 0.71139 0.07748
 H2714 H 0.18621 0.72624 0.05411
 H2715 H 0.21312 0.68501 0.04506
 H2716 H 0.19820 0.67016 0.06844
 H2717 H 0.21497 0.70433 0.10084
 H2718 H 0.22987 0.71917 0.07749
 C2719 C 0.19457 0.19457 0.58292
 C2720 C 0.18393 0.20795 0.57440
 C2721 C 0.19196 0.21598 0.56182
 C2722 C 0.20983 0.20984 0.55901
 C2723 C 0.20826 0.19101 0.55627
 C2724 C 0.20023 0.18298 0.56884
 C2725 C 0.21039 0.20363 0.58851
 C2726 C 0.21841 0.21166 0.57595
 C2727 C 0.18598 0.18598 0.59651
 C2728 C 0.17902 0.17902 0.60782
 C2729 C 0.21852 0.21853 0.54555
 C2730 C 0.22577 0.22579 0.53463
 H2731 H 0.17122 0.21086 0.57791
 H2732 H 0.18612 0.22576 0.55458
 H2733 H 0.21302 0.18456 0.54540
 H2734 H 0.19811 0.16965 0.56875
 H2735 H 0.21491 0.20374 0.60123
 H2736 H 0.22980 0.21863 0.57791
   
