data_POSCAR
  _audit_creation_date              2014-09-24
  _audit_creation_method            'ToBaCCo'
  _symmetry_space_group_name_H-M    'P1'
  _symmetry_Int_Tables_number       1
  _symmetry_cell_setting            triclinic
  loop_
  _symmetry_equiv_pos_as_xyz
 x,y,z
_cell_length_a 78.4303
_cell_length_b 78.4264
_cell_length_c 78.4965
_cell_angle_alpha 89.985000
_cell_angle_beta 89.983600
_cell_angle_gamma 89.959700
loop_
  _atom_site_label
  _atom_site_type_symbol
  _atom_site_fract_x
  _atom_site_fract_y
  _atom_site_fract_z
C1 C 0.35131 0.35114 0.32947
 C2 C 0.36580 0.34363 0.32214
 C3 C 0.37296 0.32893 0.32935
 C4 C 0.36578 0.32170 0.34400
 C5 C 0.35130 0.32904 0.35150
 C6 C 0.34400 0.34383 0.34421
 C7 C 0.34385 0.36567 0.32218
 C8 C 0.32920 0.37288 0.32943
 C9 C 0.32196 0.36570 0.34408
 C10 C 0.32926 0.35117 0.35154
 C11 C 0.32195 0.34369 0.36604
 C12 C 0.32916 0.32900 0.37320
 C13 C 0.34381 0.32173 0.36600
 H14 H 0.37141 0.34907 0.31074
 H15 H 0.37138 0.31027 0.34943
 H16 H 0.34929 0.37127 0.31077
 H17 H 0.31057 0.37133 0.34954
 H18 H 0.31055 0.34916 0.37166
 H19 H 0.34925 0.31031 0.37159
 C20 C 0.35144 0.85144 -0.17125
 C21 C 0.36594 0.84396 -0.17858
 C22 C 0.37316 0.82929 -0.17135
 C23 C 0.36601 0.82208 -0.15665
 C24 C 0.35151 0.82941 -0.14916
 C25 C 0.34416 0.84415 -0.15648
 C26 C 0.34392 0.86594 -0.17857
 C27 C 0.32925 0.87314 -0.17131
 C28 C 0.32206 0.86596 -0.15662
 C29 C 0.32942 0.85147 -0.14914
 C30 C 0.32214 0.84400 -0.13462
 C31 C 0.32941 0.82935 -0.12743
 C32 C 0.34407 0.82211 -0.13463
 H33 H 0.37149 0.84943 -0.19001
 H34 H 0.37161 0.81068 -0.15116
 H35 H 0.34938 0.87151 -0.18999
 H36 H 0.31066 0.87155 -0.15111
 H37 H 0.31074 0.84946 -0.12899
 H38 H 0.34954 0.81071 -0.12902
 C39 C 0.85151 0.35155 -0.17108
 C40 C 0.86602 0.34406 -0.17839
 C41 C 0.87324 0.32940 -0.17115
 C42 C 0.86606 0.32218 -0.15646
 C43 C 0.85155 0.32951 -0.14899
 C44 C 0.84421 0.34425 -0.15632
 C45 C 0.84401 0.36604 -0.17841
 C46 C 0.82932 0.37323 -0.17118
 C47 C 0.82211 0.36605 -0.15650
 C48 C 0.82945 0.35156 -0.14901
 C49 C 0.82216 0.34409 -0.13450
 C50 C 0.82942 0.32944 -0.12730
 C51 C 0.84409 0.32220 -0.13448
 H52 H 0.87159 0.34954 -0.18981
 H53 H 0.87166 0.31078 -0.15096
 H54 H 0.84948 0.37161 -0.18982
 H55 H 0.81069 0.37163 -0.15101
 H56 H 0.81075 0.34954 -0.12889
 H57 H 0.84956 0.31081 -0.12886
 C58 C 0.85095 0.85156 0.32936
 C59 C 0.86546 0.84407 0.32205
 C60 C 0.87266 0.82942 0.32930
 C61 C 0.86548 0.82220 0.34397
 C62 C 0.85097 0.82952 0.35144
 C63 C 0.84364 0.84426 0.34411
 C64 C 0.84346 0.86606 0.32203
 C65 C 0.82877 0.87326 0.32925
 C66 C 0.82155 0.86608 0.34393
 C67 C 0.82888 0.85158 0.35142
 C68 C 0.82158 0.84411 0.36593
 C69 C 0.82883 0.82945 0.37312
 C70 C 0.84350 0.82221 0.36594
 H71 H 0.87107 0.84951 0.31065
 H72 H 0.87110 0.81079 0.34942
 H73 H 0.84894 0.87163 0.31062
 H74 H 0.81013 0.87166 0.34941
 H75 H 0.81017 0.84956 0.37153
 H76 H 0.84896 0.81081 0.37156
 C77 C 0.64868 0.64863 0.32927
 C78 C 0.63418 0.65613 0.32195
 C79 C 0.62698 0.67079 0.32919
 C80 C 0.63413 0.67798 0.34388
 C81 C 0.64862 0.67065 0.35137
 C82 C 0.65595 0.65590 0.34404
 C83 C 0.65618 0.63414 0.32194
 C84 C 0.67083 0.62693 0.32918
 C85 C 0.67804 0.63408 0.34387
 C86 C 0.67070 0.64857 0.35136
 C87 C 0.67798 0.65602 0.36588
 C88 C 0.67072 0.67067 0.37308
 C89 C 0.65607 0.67792 0.36589
 H90 H 0.62860 0.65071 0.31053
 H91 H 0.62850 0.68938 0.34933
 H92 H 0.65076 0.62856 0.31052
 H93 H 0.68943 0.62845 0.34932
 H94 H 0.68938 0.65055 0.37150
 H95 H 0.65060 0.68932 0.37151
 C96 C 0.64890 0.14846 -0.17082
 C97 C 0.63439 0.15595 -0.17812
 C98 C 0.62720 0.17062 -0.17090
 C99 C 0.63439 0.17786 -0.15626
 C100 C 0.64890 0.17055 -0.14879
 C101 C 0.65622 0.15578 -0.15609
 C102 C 0.65639 0.13395 -0.17812
 C103 C 0.67107 0.12676 -0.17090
 C104 C 0.67831 0.13396 -0.15624
 C105 C 0.67098 0.14847 -0.14878
 C106 C 0.67829 0.15597 -0.13430
 C107 C 0.67105 0.17064 -0.12713
 C108 C 0.65638 0.17787 -0.13430
 H109 H 0.62878 0.15049 -0.18951
 H110 H 0.62877 0.18927 -0.15082
 H111 H 0.65090 0.12836 -0.18952
 H112 H 0.68972 0.12838 -0.15076
 H113 H 0.68971 0.15052 -0.12869
 H114 H 0.65092 0.18928 -0.12871
 C115 C 0.14901 0.64848 -0.17079
 C116 C 0.13451 0.65597 -0.17810
 C117 C 0.12733 0.67065 -0.17088
 C118 C 0.13451 0.67789 -0.15623
 C119 C 0.14902 0.67056 -0.14875
 C120 C 0.15633 0.65579 -0.15605
 C121 C 0.15649 0.63396 -0.17809
 C122 C 0.17117 0.62676 -0.17086
 C123 C 0.17840 0.63395 -0.15620
 C124 C 0.17108 0.64847 -0.14874
 C125 C 0.17839 0.65595 -0.13425
 C126 C 0.17116 0.67063 -0.12709
 C127 C 0.15650 0.67788 -0.13427
 H128 H 0.12890 0.65053 -0.18949
 H129 H 0.12891 0.68930 -0.15080
 H130 H 0.15100 0.62838 -0.18949
 H131 H 0.18981 0.62836 -0.15071
 H132 H 0.18980 0.65050 -0.12864
 H133 H 0.15105 0.68929 -0.12867
 C134 C 0.14874 0.14868 0.32897
 C135 C 0.13425 0.15619 0.32164
 C136 C 0.12702 0.17084 0.32889
 C137 C 0.13415 0.17802 0.34360
 C138 C 0.14863 0.17067 0.35110
 C139 C 0.15599 0.15594 0.34377
 C140 C 0.15626 0.13420 0.32164
 C141 C 0.17092 0.12699 0.32889
 C142 C 0.17809 0.13413 0.34361
 C143 C 0.17072 0.14861 0.35110
 C144 C 0.17798 0.15604 0.36565
 C145 C 0.17070 0.17068 0.37285
 C146 C 0.15606 0.17793 0.36565
 H147 H 0.12872 0.15074 0.31020
 H148 H 0.12854 0.18941 0.34911
 H149 H 0.15082 0.12866 0.31020
 H150 H 0.18948 0.12853 0.34912
 H151 H 0.18937 0.15057 0.37127
 H152 H 0.15058 0.18932 0.37127
 C153 C 0.64864 0.35135 0.67042
 C154 C 0.63413 0.34388 0.67772
 C155 C 0.62692 0.32925 0.67046
 C156 C 0.63408 0.32204 0.65578
 C157 C 0.64859 0.32935 0.64830
 C158 C 0.65593 0.34407 0.65565
 C159 C 0.65615 0.36582 0.67776
 C160 C 0.67082 0.37299 0.67054
 C161 C 0.67804 0.36584 0.65586
 C162 C 0.67069 0.35137 0.64834
 C163 C 0.67799 0.34391 0.63383
 C164 C 0.67072 0.32928 0.62662
 C165 C 0.65605 0.32206 0.63379
 H166 H 0.62853 0.34931 0.68914
 H167 H 0.62845 0.31066 0.65031
 H168 H 0.65071 0.37140 0.68918
 H169 H 0.68945 0.37143 0.65042
 H170 H 0.68940 0.34935 0.62823
 H171 H 0.65058 0.31068 0.62816
 C172 C 0.64836 0.85107 1.17089
 C173 C 0.63384 0.84362 1.17821
 C174 C 0.62662 0.82896 1.17099
 C175 C 0.63380 0.82172 1.15631
 C176 C 0.64832 0.82901 1.14884
 C177 C 0.65566 0.84374 1.15615
 C178 C 0.65586 0.86555 1.17820
 C179 C 0.67054 0.87271 1.17097
 C180 C 0.67776 0.86552 1.15631
 C181 C 0.67042 0.85103 1.14883
 C182 C 0.67772 0.84354 1.13434
 C183 C 0.67047 0.82890 1.12716
 C184 C 0.65579 0.82169 1.13434
 H185 H 0.62827 0.84911 1.18962
 H186 H 0.62821 0.81032 1.15083
 H187 H 0.65043 0.87117 1.18960
 H188 H 0.68918 0.87110 1.15086
 H189 H 0.68914 0.84897 1.12873
 H190 H 0.65032 0.81030 1.12873
 C191 C 0.14853 0.35112 1.17106
 C192 C 0.13406 0.34361 1.17839
 C193 C 0.12690 0.32891 1.17118
 C194 C 0.13410 0.32170 1.15650
 C195 C 0.14857 0.32905 1.14901
 C196 C 0.15585 0.34382 1.15630
 C197 C 0.15599 0.36564 1.17835
 C198 C 0.17062 0.37286 1.17110
 C199 C 0.17786 0.36569 1.15643
 C200 C 0.17058 0.35117 1.14897
 C201 C 0.17790 0.34370 1.13447
 C202 C 0.17070 0.32902 1.12731
 C203 C 0.15606 0.32176 1.13450
 H204 H 0.12848 0.34909 1.18980
 H205 H 0.12854 0.31028 1.15103
 H206 H 0.15054 0.37124 1.18975
 H207 H 0.18925 0.37132 1.15097
 H208 H 0.18928 0.34918 1.12885
 H209 H 0.15064 0.31034 1.12891
 C210 C 0.14814 0.85117 0.67090
 C211 C 0.13366 0.84367 0.67823
 C212 C 0.12644 0.82903 0.67097
 C213 C 0.13360 0.82184 0.65626
 C214 C 0.14809 0.82918 0.64877
 C215 C 0.15542 0.84390 0.65611
 C216 C 0.15565 0.86564 0.67823
 C217 C 0.17030 0.87284 0.67099
 C218 C 0.17750 0.86570 0.65629
 C219 C 0.17016 0.85123 0.64878
 C220 C 0.17744 0.84380 0.63425
 C221 C 0.17019 0.82916 0.62704
 C222 C 0.15554 0.82191 0.63423
 H223 H 0.12811 0.84913 0.68966
 H224 H 0.12800 0.81045 0.65075
 H225 H 0.15023 0.87122 0.68966
 H226 H 0.18889 0.87132 0.65083
 H227 H 0.18883 0.84926 0.62863
 H228 H 0.15007 0.81053 0.62860
 C229 C 0.35114 0.64880 0.67053
 C230 C 0.36563 0.65629 0.67784
 C231 C 0.37281 0.67095 0.67060
 C232 C 0.36563 0.67818 0.65593
 C233 C 0.35114 0.67085 0.64846
 C234 C 0.34383 0.65610 0.65578
 C235 C 0.34365 0.63430 0.67786
 C236 C 0.32900 0.62712 0.67063
 C237 C 0.32177 0.63428 0.65596
 C238 C 0.32908 0.64878 0.64847
 C239 C 0.32177 0.65625 0.63397
 C240 C 0.32900 0.67091 0.62678
 C241 C 0.34366 0.67816 0.63395
 H242 H 0.37123 0.65085 0.68925
 H243 H 0.37124 0.68958 0.65048
 H244 H 0.34910 0.62871 0.68926
 H245 H 0.31037 0.62867 0.65052
 H246 H 0.31037 0.65080 0.62836
 H247 H 0.34911 0.68956 0.62834
 C248 C 0.35156 0.14857 1.17125
 C249 C 0.36608 0.15603 1.17856
 C250 C 0.37331 0.17067 1.17129
 C251 C 0.36615 0.17788 1.15660
 C252 C 0.35163 0.17058 1.14914
 C253 C 0.34428 0.15586 1.15649
 C254 C 0.34405 0.13410 1.17860
 C255 C 0.32936 0.12692 1.17138
 C256 C 0.32216 0.13410 1.15669
 C257 C 0.32952 0.14857 1.14919
 C258 C 0.32223 0.15603 1.13466
 C259 C 0.32951 0.17066 1.12745
 C260 C 0.34418 0.17787 1.13462
 H261 H 0.37164 0.15055 1.18998
 H262 H 0.37175 0.18926 1.15108
 H263 H 0.34951 0.12853 1.19002
 H264 H 0.31074 0.12854 1.15121
 H265 H 0.31082 0.15060 1.12907
 H266 H 0.34966 0.18925 1.12898
 C267 C 0.85127 0.64815 1.17089
 C268 C 0.86576 0.65566 1.17819
 C269 C 0.87292 0.67033 1.17095
 C270 C 0.86574 0.67753 1.15628
 C271 C 0.85125 0.67019 1.14880
 C272 C 0.84396 0.65543 1.15613
 C273 C 0.84382 0.63364 1.17822
 C274 C 0.82916 0.62642 1.17100
 C275 C 0.82192 0.63359 1.15631
 C276 C 0.82922 0.64809 1.14882
 C277 C 0.82191 0.65555 1.13431
 C278 C 0.82912 0.67022 1.12712
 C279 C 0.84377 0.67748 1.13430
 H280 H 0.87137 0.65023 1.18960
 H281 H 0.87133 0.68894 1.15082
 H282 H 0.84931 0.62808 1.18964
 H283 H 0.81053 0.62799 1.15083
 H284 H 0.81052 0.65009 1.12871
 H285 H 0.84920 0.68889 1.12868
 C286 C 0.85129 0.14882 0.67069
 C287 C 0.86576 0.15632 0.67803
 C288 C 0.87295 0.17097 0.67078
 C289 C 0.86581 0.17817 0.65609
 C290 C 0.85134 0.17083 0.64858
 C291 C 0.84401 0.15609 0.65591
 C292 C 0.84379 0.13433 0.67802
 C293 C 0.82916 0.12712 0.67077
 C294 C 0.82196 0.13427 0.65607
 C295 C 0.82929 0.14876 0.64858
 C296 C 0.82201 0.15621 0.63404
 C297 C 0.82926 0.17086 0.62685
 C298 C 0.84389 0.17812 0.63405
 H299 H 0.87134 0.15090 0.68945
 H300 H 0.87143 0.18957 0.65063
 H301 H 0.84921 0.12875 0.68945
 H302 H 0.81058 0.12865 0.65061
 H303 H 0.81063 0.15074 0.62842
 H304 H 0.84935 0.18951 0.62843
 C305 C 0.35102 0.35133 0.67075
 C306 C 0.34354 0.36584 0.67806
 C307 C 0.32886 0.37302 0.67084
 C308 C 0.32161 0.36584 0.65620
 C309 C 0.32893 0.35133 0.64872
 C310 C 0.34370 0.34401 0.65602
 C311 C 0.36554 0.34385 0.67804
 C312 C 0.37273 0.32919 0.67081
 C313 C 0.36554 0.32195 0.65617
 C314 C 0.35102 0.32926 0.64871
 C315 C 0.34353 0.32194 0.63423
 C316 C 0.32885 0.32917 0.62706
 C317 C 0.32161 0.34384 0.63424
 H318 H 0.34900 0.37145 0.68945
 H319 H 0.31020 0.37144 0.65077
 H320 H 0.37116 0.34931 0.68943
 H321 H 0.37115 0.31054 0.65072
 H322 H 0.34899 0.31053 0.62862
 H323 H 0.31019 0.34929 0.62865
 C324 C 0.35142 0.85202 0.17039
 C325 C 0.34393 0.86652 0.17771
 C326 C 0.32926 0.87371 0.17049
 C327 C 0.32202 0.86654 0.15584
 C328 C 0.32934 0.85204 0.14835
 C329 C 0.34411 0.84472 0.15565
 C330 C 0.36593 0.84453 0.17769
 C331 C 0.37312 0.82987 0.17045
 C332 C 0.36594 0.82264 0.15580
 C333 C 0.35143 0.82997 0.14833
 C334 C 0.34395 0.82266 0.13384
 C335 C 0.32927 0.82990 0.12668
 C336 C 0.32203 0.84456 0.13386
 H337 H 0.34938 0.87213 0.18911
 H338 H 0.31061 0.87216 0.15041
 H339 H 0.37154 0.84997 0.18909
 H340 H 0.37155 0.81124 0.15035
 H341 H 0.34940 0.81126 0.12823
 H342 H 0.31062 0.85002 0.12827
 C343 C 0.85195 0.35122 0.17046
 C344 C 0.84446 0.36574 0.17776
 C345 C 0.82980 0.37293 0.17052
 C346 C 0.82257 0.36575 0.15587
 C347 C 0.82990 0.35124 0.14840
 C348 C 0.84464 0.34391 0.15572
 C349 C 0.86645 0.34373 0.17778
 C350 C 0.87363 0.32906 0.17056
 C351 C 0.86646 0.32182 0.15591
 C352 C 0.85196 0.32915 0.14842
 C353 C 0.84449 0.32183 0.13393
 C354 C 0.82983 0.32908 0.12674
 C355 C 0.82259 0.34375 0.13391
 H356 H 0.84990 0.37134 0.18916
 H357 H 0.81117 0.37137 0.15041
 H358 H 0.87205 0.34918 0.18918
 H359 H 0.87208 0.31041 0.15047
 H360 H 0.84994 0.31042 0.12833
 H361 H 0.81119 0.34921 0.12829
 C362 C 0.85123 0.85147 0.67077
 C363 C 0.84373 0.86597 0.67810
 C364 C 0.82905 0.87314 0.67089
 C365 C 0.82180 0.86597 0.65625
 C366 C 0.82913 0.85147 0.64876
 C367 C 0.84390 0.84416 0.65603
 C368 C 0.86576 0.84400 0.67805
 C369 C 0.87295 0.82934 0.67080
 C370 C 0.86576 0.82211 0.65616
 C371 C 0.85123 0.82942 0.64871
 C372 C 0.84374 0.82211 0.63422
 C373 C 0.82905 0.82934 0.62708
 C374 C 0.82180 0.84399 0.63427
 H375 H 0.84919 0.87158 0.68949
 H376 H 0.81038 0.87157 0.65083
 H377 H 0.87137 0.84945 0.68944
 H378 H 0.87138 0.81071 0.65070
 H379 H 0.84920 0.81071 0.62860
 H380 H 0.81038 0.84944 0.62869
 C381 C 0.64858 0.64855 0.67109
 C382 C 0.65609 0.63405 0.67841
 C383 C 0.67075 0.62686 0.67116
 C384 C 0.67796 0.63403 0.65649
 C385 C 0.67063 0.64852 0.64901
 C386 C 0.65587 0.65585 0.65633
 C387 C 0.63408 0.65604 0.67841
 C388 C 0.62687 0.67069 0.67117
 C389 C 0.63404 0.67791 0.65650
 C390 C 0.64854 0.67059 0.64901
 C391 C 0.65600 0.67789 0.63450
 C392 C 0.67066 0.67065 0.62731
 C393 C 0.67792 0.65599 0.63449
 H394 H 0.65065 0.62845 0.68982
 H395 H 0.68936 0.62841 0.65103
 H396 H 0.62848 0.65060 0.68982
 H397 H 0.62841 0.68931 0.65104
 H398 H 0.65053 0.68929 0.62888
 H399 H 0.68932 0.65054 0.62888
 C400 C 0.64878 0.14829 0.17031
 C401 C 0.65627 0.13380 0.17764
 C402 C 0.67098 0.12664 0.17045
 C403 C 0.67824 0.13383 0.15582
 C404 C 0.67091 0.14833 0.14832
 C405 C 0.65612 0.15562 0.15558
 C406 C 0.63423 0.15575 0.17758
 C407 C 0.62704 0.17041 0.17033
 C408 C 0.63425 0.17766 0.15569
 C409 C 0.64879 0.17036 0.14825
 C410 C 0.65630 0.17769 0.13378
 C411 C 0.67100 0.17048 0.12664
 C412 C 0.67825 0.15582 0.13384
 H413 H 0.65080 0.12818 0.18903
 H414 H 0.68967 0.12824 0.15040
 H415 H 0.62861 0.15030 0.18897
 H416 H 0.62863 0.18906 0.15023
 H417 H 0.65084 0.18909 0.12815
 H418 H 0.68968 0.15039 0.12826
 C419 C 0.14863 0.64881 0.17046
 C420 C 0.15611 0.63430 0.17778
 C421 C 0.17078 0.62711 0.17056
 C422 C 0.17804 0.63429 0.15591
 C423 C 0.17073 0.64881 0.14843
 C424 C 0.15596 0.65613 0.15573
 C425 C 0.13412 0.65630 0.17776
 C426 C 0.12694 0.67097 0.17053
 C427 C 0.13414 0.67821 0.15588
 C428 C 0.14865 0.67089 0.14842
 C429 C 0.15615 0.67821 0.13393
 C430 C 0.17083 0.67097 0.12677
 C431 C 0.17806 0.65629 0.13395
 H432 H 0.15065 0.62869 0.18917
 H433 H 0.18945 0.62868 0.15048
 H434 H 0.12850 0.65085 0.18915
 H435 H 0.12853 0.68962 0.15044
 H436 H 0.15071 0.68962 0.12832
 H437 H 0.18947 0.65084 0.12835
 C438 C 0.14844 0.14850 0.67112
 C439 C 0.15593 0.13400 0.67844
 C440 C 0.17057 0.12678 0.67118
 C441 C 0.17778 0.13393 0.65650
 C442 C 0.17046 0.14843 0.64901
 C443 C 0.15572 0.15578 0.65634
 C444 C 0.13395 0.15602 0.67845
 C445 C 0.12676 0.17068 0.67120
 C446 C 0.13392 0.17788 0.65652
 C447 C 0.14840 0.17053 0.64902
 C448 C 0.15586 0.17781 0.63449
 C449 C 0.17050 0.17054 0.62729
 C450 C 0.17775 0.15588 0.63448
 H451 H 0.15050 0.12841 0.68986
 H452 H 0.18917 0.12829 0.65103
 H453 H 0.12836 0.15060 0.68987
 H454 H 0.12831 0.18929 0.65106
 H455 H 0.15040 0.18922 0.62888
 H456 H 0.18914 0.15040 0.62886
 C457 C 0.35136 0.64891 0.32916
 C458 C 0.34390 0.63439 0.32187
 C459 C 0.32924 0.62720 0.32911
 C460 C 0.32199 0.63439 0.34376
 C461 C 0.32929 0.64891 0.35122
 C462 C 0.34403 0.65623 0.34390
 C463 C 0.36585 0.65640 0.32184
 C464 C 0.37301 0.67107 0.32905
 C465 C 0.36582 0.67832 0.34370
 C466 C 0.35133 0.67100 0.35119
 C467 C 0.34383 0.67832 0.36567
 C468 C 0.32917 0.67108 0.37286
 C469 C 0.32196 0.65640 0.36570
 H470 H 0.34936 0.62877 0.31048
 H471 H 0.31060 0.62878 0.34921
 H472 H 0.37147 0.65094 0.31045
 H473 H 0.37141 0.68973 0.34913
 H474 H 0.34926 0.68973 0.37126
 H475 H 0.31056 0.65094 0.37132
 C476 C 0.35156 0.14823 0.82958
 C477 C 0.34408 0.13372 0.82228
 C478 C 0.32943 0.12653 0.82954
 C479 C 0.32221 0.13370 0.84420
 C480 C 0.32952 0.14821 0.85167
 C481 C 0.34425 0.15553 0.84434
 C482 C 0.36604 0.15572 0.82224
 C483 C 0.37321 0.17039 0.82946
 C484 C 0.36604 0.17762 0.84413
 C485 C 0.35156 0.17029 0.85163
 C486 C 0.34409 0.17760 0.86614
 C487 C 0.32944 0.17035 0.87334
 C488 C 0.32222 0.15568 0.86618
 H489 H 0.34952 0.12812 0.81087
 H490 H 0.31082 0.12808 0.84967
 H491 H 0.37164 0.15028 0.81083
 H492 H 0.37164 0.18903 0.84956
 H493 H 0.34953 0.18901 0.87173
 H494 H 0.31082 0.15023 0.87180
 C495 C 0.85170 0.64844 0.82943
 C496 C 0.84425 0.63391 0.82214
 C497 C 0.82960 0.62671 0.82938
 C498 C 0.82235 0.63389 0.84404
 C499 C 0.82964 0.64841 0.85150
 C500 C 0.84437 0.65574 0.84418
 C501 C 0.86618 0.65594 0.82211
 C502 C 0.87333 0.67062 0.82933
 C503 C 0.86614 0.67786 0.84398
 C504 C 0.85165 0.67052 0.85147
 C505 C 0.84416 0.67783 0.86596
 C506 C 0.82951 0.67057 0.87315
 C507 C 0.82231 0.65588 0.86599
 H508 H 0.84971 0.62831 0.81074
 H509 H 0.81096 0.62826 0.84949
 H510 H 0.87180 0.65050 0.81071
 H511 H 0.87172 0.68927 0.84941
 H512 H 0.84958 0.68925 0.87156
 H513 H 0.81092 0.65042 0.87161
 C514 C 0.85189 0.14828 0.32919
 C515 C 0.84441 0.13378 0.32189
 C516 C 0.82973 0.12662 0.32911
 C517 C 0.82247 0.13383 0.34374
 C518 C 0.82979 0.14833 0.35121
 C519 C 0.84456 0.15562 0.34391
 C520 C 0.86641 0.15574 0.32188
 C521 C 0.87359 0.17041 0.32910
 C522 C 0.86639 0.17767 0.34374
 C523 C 0.85187 0.17038 0.35121
 C524 C 0.84437 0.17772 0.36569
 C525 C 0.82969 0.17051 0.37285
 C526 C 0.82245 0.15584 0.36569
 H527 H 0.84987 0.12815 0.31050
 H528 H 0.81106 0.12824 0.34918
 H529 H 0.87203 0.15028 0.31050
 H530 H 0.87199 0.18907 0.34918
 H531 H 0.84981 0.18912 0.37128
 H532 H 0.81104 0.15041 0.37128
 C533 C 0.64860 0.35119 0.32872
 C534 C 0.65608 0.36569 0.32141
 C535 C 0.67073 0.37288 0.32865
 C536 C 0.67796 0.36571 0.34331
 C537 C 0.67064 0.35120 0.35079
 C538 C 0.65590 0.34388 0.34348
 C539 C 0.63411 0.34370 0.32140
 C540 C 0.62693 0.32904 0.32864
 C541 C 0.63410 0.32181 0.34331
 C542 C 0.64859 0.32913 0.35079
 C543 C 0.65606 0.32183 0.36530
 C544 C 0.67071 0.32907 0.37248
 C545 C 0.67794 0.34373 0.36530
 H546 H 0.65064 0.37130 0.31000
 H547 H 0.68935 0.37132 0.34877
 H548 H 0.62851 0.34914 0.31000
 H549 H 0.62849 0.31041 0.34876
 H550 H 0.65061 0.31042 0.37091
 H551 H 0.68934 0.34919 0.37091
 C552 C 0.64829 0.85157 0.82970
 C553 C 0.65577 0.86608 0.82241
 C554 C 0.67044 0.87324 0.82964
 C555 C 0.67768 0.86603 0.84427
 C556 C 0.67037 0.85151 0.85173
 C557 C 0.65561 0.84422 0.84443
 C558 C 0.63378 0.84411 0.82240
 C559 C 0.62660 0.82943 0.82961
 C560 C 0.63380 0.82216 0.84424
 C561 C 0.64831 0.82945 0.85172
 C562 C 0.65580 0.82210 0.86619
 C563 C 0.67047 0.82932 0.87336
 C564 C 0.67770 0.84399 0.86621
 H565 H 0.65031 0.87172 0.81103
 H566 H 0.68910 0.87162 0.84971
 H567 H 0.62816 0.84958 0.81101
 H568 H 0.62819 0.81074 0.84967
 H569 H 0.65036 0.81069 0.87178
 H570 H 0.68911 0.84943 0.87181
 C571 C 0.14845 0.35155 0.82988
 C572 C 0.15593 0.36607 0.82258
 C573 C 0.17061 0.37322 0.82980
 C574 C 0.17786 0.36600 0.84443
 C575 C 0.17055 0.35149 0.85190
 C576 C 0.15578 0.34420 0.84460
 C577 C 0.13394 0.34410 0.82258
 C578 C 0.12676 0.32942 0.82980
 C579 C 0.13396 0.32215 0.84443
 C580 C 0.14848 0.32944 0.85190
 C581 C 0.15598 0.32209 0.86636
 C582 C 0.17066 0.32929 0.87353
 C583 C 0.17789 0.34397 0.86636
 H584 H 0.15047 0.37170 0.81121
 H585 H 0.18928 0.37159 0.84986
 H586 H 0.12831 0.34958 0.81120
 H587 H 0.12836 0.31074 0.84986
 H588 H 0.15053 0.31067 0.87196
 H589 H 0.18930 0.34940 0.87196
 C590 C 0.14834 0.85199 0.32911
 C591 C 0.15583 0.86650 0.32180
 C592 C 0.17048 0.87368 0.32905
 C593 C 0.17770 0.86650 0.34372
 C594 C 0.17038 0.85199 0.35119
 C595 C 0.15564 0.84467 0.34386
 C596 C 0.13386 0.84450 0.32178
 C597 C 0.12668 0.82984 0.32900
 C598 C 0.13384 0.82260 0.34366
 C599 C 0.14833 0.82991 0.35116
 C600 C 0.15580 0.82260 0.36566
 C601 C 0.17045 0.82983 0.37286
 C602 C 0.17768 0.84450 0.36569
 H603 H 0.15039 0.87211 0.31040
 H604 H 0.18909 0.87210 0.34918
 H605 H 0.12826 0.84996 0.31037
 H606 H 0.12823 0.81119 0.34910
 H607 H 0.15035 0.81119 0.37126
 H608 H 0.18907 0.84995 0.37131
 O609 O 0.25183 1.01743 0.22836
 O610 O 0.22828 0.98418 0.25168
 O611 O 0.22833 1.01743 0.25174
 O612 O 0.25176 0.98418 0.22828
 O613 O 0.27167 0.98408 0.24824
 O614 O 0.24823 1.01734 0.27170
 O615 O 0.24818 0.98408 0.27163
 O616 O 0.27173 1.01733 0.24831
 Cu617 Cu 0.23804 1.00081 0.23800
 Cu618 Cu 0.26196 1.00070 0.26198
 C619 C 0.26572 1.02304 0.23443
 C620 C 0.23429 0.97847 0.26556
 C621 C 0.23436 1.02304 0.26564
 C622 C 0.26564 0.97847 0.23433
 O623 O 0.27145 0.48356 0.74845
 O624 O 0.24810 0.51687 0.77193
 O625 O 0.24808 0.48361 0.77197
 O626 O 0.27147 0.51681 0.74841
 O627 O 0.25146 0.51682 0.72857
 O628 O 0.22807 0.48362 0.75212
 O629 O 0.22810 0.51688 0.75208
 O630 O 0.25144 0.48357 0.72860
 Cu631 Cu 0.26179 0.50021 0.76219
 Cu632 Cu 0.23775 0.50022 0.73834
 C633 C 0.26535 0.47790 0.73460
 C634 C 0.23419 0.52254 0.76593
 C635 C 0.23416 0.47796 0.76598
 C636 C 0.26538 0.52247 0.73455
 O637 O 0.74837 -0.01705 0.22846
 O638 O 0.77189 0.01618 0.25181
 O639 O 0.77179 -0.01708 0.25190
 O640 O 0.74846 0.01620 0.22837
 O641 O 0.72850 0.01632 0.24828
 O642 O 0.75184 -0.01696 0.27182
 O643 O 0.75194 0.01630 0.27172
 O644 O 0.72841 -0.01693 0.24838
 Cu645 Cu 0.76214 -0.00045 0.23813
 Cu646 Cu 0.73816 -0.00031 0.26206
 C647 C 0.73445 -0.02265 0.23451
 C648 C 0.76585 0.02189 0.26567
 C649 C 0.76572 -0.02268 0.26580
 C650 C 0.73457 0.02192 0.23439
 O651 O 0.75210 0.48299 0.77179
 O652 O 0.72861 0.51631 0.74847
 O653 O 0.72863 0.48306 0.74839
 O654 O 0.75209 0.51625 0.77186
 O655 O 0.77200 0.51629 0.75191
 O656 O 0.74854 0.48310 0.72844
 O657 O 0.74852 0.51635 0.72852
 O658 O 0.77201 0.48303 0.75184
 Cu659 Cu 0.73835 0.49965 0.76214
 Cu660 Cu 0.76228 0.49970 0.73817
 C661 C 0.76598 0.47734 0.76572
 C662 C 0.73464 0.52200 0.73459
 C663 C 0.73466 0.47743 0.73449
 C664 C 0.76597 0.52192 0.76581
 O665 O 0.27167 0.51663 0.25179
 O666 O 0.24820 0.48336 0.22844
 O667 O 0.24823 0.51661 0.22836
 O668 O 0.27164 0.48337 0.25186
 O669 O 0.25170 0.48344 0.27179
 O670 O 0.22829 0.51668 0.24828
 O671 O 0.22825 0.48343 0.24837
 O672 O 0.25173 0.51670 0.27171
 Cu673 Cu 0.26195 0.49998 0.23810
 Cu674 Cu 0.23798 0.50007 0.26205
 C675 C 0.26562 0.52232 0.26566
 C676 C 0.23430 0.47773 0.23450
 C677 C 0.23434 0.52231 0.23439
 C678 C 0.26559 0.47775 0.26576
 O679 O 0.72807 0.98365 0.75208
 O680 O 0.75151 1.01686 0.72860
 O681 O 0.75149 0.98361 0.72862
 O682 O 0.72810 1.01691 0.75206
 O683 O 0.74807 1.01689 0.77195
 O684 O 0.77145 0.98359 0.74851
 O685 O 0.77148 1.01684 0.74848
 O686 O 0.74804 0.98363 0.77197
 Cu687 Cu 0.73778 1.00026 0.73833
 Cu688 Cu 0.76177 1.00023 0.76224
 C689 C 0.73413 0.97799 0.76596
 C690 C 0.76542 1.02250 0.73461
 C691 C 0.76538 0.97793 0.73464
 C692 C 0.73417 1.02257 0.76593
 O693 O 0.75209 0.51668 0.22805
 O694 O 0.72859 0.48340 0.25138
 O695 O 0.72860 0.51665 0.25145
 O696 O 0.75209 0.48342 0.22800
 O697 O 0.77199 0.48337 0.24796
 O698 O 0.74850 0.51659 0.27140
 O699 O 0.74849 0.48334 0.27134
 O700 O 0.77199 0.51662 0.24801
 Cu701 Cu 0.73833 0.50004 0.23771
 Cu702 Cu 0.76225 0.49997 0.26169
 C703 C 0.76597 0.52231 0.23413
 C704 C 0.73460 0.47770 0.26526
 C705 C 0.73462 0.52228 0.26535
 C706 C 0.76597 0.47774 0.23406
 O707 O 0.27172 0.01619 0.75198
 O708 O 0.24820 -0.01700 0.72858
 O709 O 0.24821 0.01625 0.72862
 O710 O 0.27172 -0.01706 0.75192
 O711 O 0.25184 -0.01709 0.77191
 O712 O 0.22833 0.01623 0.74861
 O713 O 0.22832 -0.01702 0.74856
 O714 O 0.25184 0.01617 0.77197
 Cu715 Cu 0.26197 -0.00040 0.73826
 Cu716 Cu 0.23808 -0.00043 0.76228
 C717 C 0.26571 0.02183 0.76589
 C718 C 0.23432 -0.02266 0.73465
 C719 C 0.23433 0.02191 0.73472
 C720 C 0.26572 -0.02274 0.76581
 O721 O 0.24837 0.27146 0.98370
 O722 O 0.27186 0.24804 1.01692
 O723 O 0.27184 0.24801 0.98370
 O724 O 0.24838 0.27147 1.01692
 O725 O 0.22846 0.25152 1.01695
 O726 O 0.25192 0.22807 0.98373
 O727 O 0.25194 0.22809 1.01695
 O728 O 0.22845 0.25152 0.98372
 Cu729 Cu 0.26212 0.26176 1.00031
 Cu730 Cu 0.23819 0.23779 1.00034
 C731 C 0.23448 0.26541 0.97806
 C732 C 0.26583 0.23415 1.02260
 C733 C 0.26581 0.23412 0.97806
 C734 C 0.23450 0.26542 1.02259
 O735 O 0.24788 0.77203 0.48325
 O736 O 0.27131 0.74853 0.51645
 O737 O 0.27135 0.74859 0.48323
 O738 O 0.24783 0.77195 0.51648
 O739 O 0.22792 0.75199 0.51642
 O740 O 0.25144 0.72863 0.48317
 O741 O 0.25141 0.72857 0.51640
 O742 O 0.22797 0.75207 0.48319
 Cu743 Cu 0.26160 0.76229 0.49986
 Cu744 Cu 0.23767 0.73830 0.49979
 C745 C 0.23400 0.76598 0.47757
 C746 C 0.26528 0.73462 0.52208
 C747 C 0.26534 0.73470 0.47754
 C748 C 0.23394 0.76587 0.52211
 O749 O 0.27195 0.75200 -0.01680
 O750 O 0.24850 0.72860 0.01646
 O751 O 0.24855 0.72852 -0.01676
 O752 O 0.27189 0.75209 0.01643
 O753 O 0.25191 0.77199 0.01635
 O754 O 0.22857 0.74842 -0.01684
 O755 O 0.22852 0.74850 0.01638
 O756 O 0.25196 0.77191 -0.01688
 Cu757 Cu 0.26224 0.73829 -0.00016
 Cu758 Cu 0.23822 0.76222 -0.00026
 C759 C 0.26588 0.76587 -0.02250
 C760 C 0.23459 0.73463 0.02208
 C761 C 0.23466 0.73453 -0.02245
 C762 C 0.26580 0.76599 0.02204
 O763 O 0.27140 0.25148 0.48354
 O764 O 0.24792 0.22804 0.51675
 O765 O 0.24796 0.22804 0.48352
 O766 O 0.27135 0.25149 0.51676
 O767 O 0.25140 0.27143 0.51673
 O768 O 0.22801 0.24798 0.48350
 O769 O 0.22797 0.24798 0.51673
 O770 O 0.25144 0.27142 0.48351
 Cu771 Cu 0.26167 0.23775 0.50015
 Cu772 Cu 0.23769 0.26171 0.50011
 C773 C 0.26535 0.26537 0.47787
 C774 C 0.23402 0.23409 0.52240
 C775 C 0.23407 0.23409 0.47785
 C776 C 0.26529 0.26539 0.52240
 O777 O 0.74813 0.77140 0.98356
 O778 O 0.77156 0.74788 1.01676
 O779 O 0.77160 0.74796 0.98354
 O780 O 0.74809 0.77133 1.01678
 O781 O 0.72817 0.75138 1.01673
 O782 O 0.75168 0.72801 0.98348
 O783 O 0.75163 0.72794 1.01671
 O784 O 0.72821 0.75145 0.98350
 Cu785 Cu 0.76185 0.76165 1.00016
 Cu786 Cu 0.73791 0.73768 1.00010
 C787 C 0.73425 0.76536 0.97788
 C788 C 0.76551 0.73398 1.02239
 C789 C 0.76558 0.73407 0.97785
 C790 C 0.73420 0.76527 1.02241
 O791 O 0.75187 0.22825 0.48304
 O792 O 0.72836 0.25172 0.51622
 O793 O 0.72838 0.25167 0.48299
 O794 O 0.75184 0.22829 0.51626
 O795 O 0.77175 0.24824 0.51624
 O796 O 0.74829 0.27163 0.48297
 O797 O 0.74827 0.27167 0.51620
 O798 O 0.77178 0.24821 0.48302
 Cu799 Cu 0.73811 0.23797 0.49963
 Cu800 Cu 0.76203 0.26195 0.49960
 C801 C 0.76576 0.23430 0.47738
 C802 C 0.73439 0.26562 0.52186
 C803 C 0.73441 0.26556 0.47732
 C804 C 0.76572 0.23435 0.52191
 O805 O 0.77206 0.25174 -0.01687
 O806 O 0.74867 0.22824 0.01636
 O807 O 0.74864 0.22828 -0.01686
 O808 O 0.77211 0.25168 0.01636
 O809 O 0.75215 0.27162 0.01642
 O810 O 0.72868 0.24822 -0.01681
 O811 O 0.72872 0.24818 0.01642
 O812 O 0.75211 0.27168 -0.01681
 Cu813 Cu 0.76238 0.23797 -0.00026
 Cu814 Cu 0.73840 0.26194 -0.00019
 C815 C 0.76600 0.26564 -0.02250
 C816 C 0.73478 0.23428 0.02204
 C817 C 0.73473 0.23434 -0.02249
 C818 C 0.76606 0.26556 0.02204
 O819 O 0.72805 0.74819 0.48357
 O820 O 0.75146 0.77167 0.51678
 O821 O 0.75144 0.77169 0.48356
 O822 O 0.72806 0.74819 0.51680
 O823 O 0.74805 0.72828 0.51679
 O824 O 0.77143 0.75178 0.48354
 O825 O 0.77145 0.75177 0.51677
 O826 O 0.74804 0.72829 0.48356
 Cu827 Cu 0.73774 0.76194 0.50018
 Cu828 Cu 0.76176 0.73802 0.50016
 C829 C 0.73414 0.73431 0.47791
 C830 C 0.76537 0.76565 0.52243
 C831 C 0.76534 0.76567 0.47789
 C832 C 0.73415 0.73430 0.52245
 O833 O 0.98411 0.25151 0.22826
 O834 O 1.01738 0.22808 0.25172
 O835 O 0.98412 0.22805 0.25168
 O836 O 1.01736 0.25154 0.22830
 O837 O 1.01730 0.27147 0.24823
 O838 O 0.98406 0.24797 0.27161
 O839 O 1.01732 0.24801 0.27165
 O840 O 0.98405 0.27143 0.24819
 Cu841 Cu 1.00075 0.23778 0.23798
 Cu842 Cu 1.00068 0.26173 0.26193
 C843 C 0.97842 0.26539 0.23430
 C844 C 1.02301 0.23412 0.26561
 C845 C 0.97843 0.23408 0.26556
 C846 C 1.02299 0.26544 0.23435
 O847 O 0.51658 0.27159 0.74811
 O848 O 0.48340 0.24813 0.77161
 O849 O 0.51665 0.24815 0.77155
 O850 O 0.48333 0.27157 0.74817
 O851 O 0.48333 0.25163 0.72826
 O852 O 0.51665 0.22821 0.75164
 O853 O 0.48340 0.22818 0.75169
 O854 O 0.51658 0.25165 0.72820
 Cu855 Cu 0.49999 0.26187 0.76187
 Cu856 Cu 0.49999 0.23791 0.73794
 C857 C 0.52223 0.26555 0.73423
 C858 C 0.47775 0.23423 0.76558
 C859 C 0.52232 0.23426 0.76551
 C860 C 0.47766 0.26552 0.73430
 O861 O 0.01630 0.25207 0.77207
 O862 O -0.01691 0.22867 0.74856
 O863 O 0.01634 0.22862 0.74865
 O864 O -0.01696 0.25213 0.77197
 O865 O -0.01687 0.27207 0.75204
 O866 O 0.01642 0.24855 0.72872
 O867 O -0.01683 0.24861 0.72863
 O868 O 0.01638 0.27200 0.75213
 Cu869 Cu -0.00031 0.23836 0.76233
 Cu870 Cu -0.00022 0.26232 0.73837
 C871 C 0.02199 0.26595 0.76603
 C872 C -0.02252 0.23472 0.73466
 C873 C 0.02205 0.23465 0.73478
 C874 C -0.02258 0.26604 0.76591
 O875 O 0.48318 0.27122 0.25149
 O876 O 0.51639 0.24781 0.22795
 O877 O 0.48314 0.24777 0.22807
 O878 O 0.51643 0.27126 0.25137
 O879 O 0.51653 0.25133 0.27130
 O880 O 0.48324 0.22783 0.24800
 O881 O 0.51649 0.22787 0.24789
 O882 O 0.48328 0.25129 0.27142
 Cu883 Cu 0.49977 0.26153 0.23771
 Cu884 Cu 0.49989 0.23757 0.26166
 C885 C 0.47757 0.26518 0.26539
 C886 C 0.52210 0.23392 0.23398
 C887 C 0.47752 0.23387 0.23414
 C888 C 0.52214 0.26523 0.26523
 O889 O 1.01683 0.77176 0.74812
 O890 O 0.98362 0.74830 0.77158
 O891 O 1.01687 0.74831 0.77155
 O892 O 0.98358 0.77175 0.74815
 O893 O 0.98358 0.75182 0.72823
 O894 O 1.01687 0.72837 0.75162
 O895 O 0.98362 0.72837 0.75166
 O896 O 1.01684 0.75183 0.72820
 Cu897 Cu 1.00022 0.76204 0.76186
 Cu898 Cu 1.00023 0.73808 0.73791
 C899 C 1.02249 0.76572 0.73423
 C900 C 0.97797 0.73441 0.76554
 C901 C 1.02253 0.73441 0.76550
 C902 C 0.97791 0.76571 0.73427
 O903 O 0.48350 0.75213 0.22807
 O904 O 0.51671 0.72863 0.25153
 O905 O 0.48345 0.72868 0.25151
 O906 O 0.51675 0.75207 0.22810
 O907 O 0.51675 0.77201 0.24801
 O908 O 0.48345 0.74862 0.27142
 O909 O 0.51670 0.74857 0.27145
 O910 O 0.48350 0.77207 0.24799
 Cu911 Cu 0.50010 0.73837 0.23779
 Cu912 Cu 0.50010 0.76233 0.26173
 C913 C 0.47785 0.76603 0.23411
 C914 C 0.52236 0.73467 0.26542
 C915 C 0.47779 0.73474 0.26539
 C916 C 0.52242 0.76596 0.23414
 O917 O 0.01645 0.75200 0.27155
 O918 O -0.01677 0.72842 0.24824
 O919 O 0.01648 0.72852 0.24816
 O920 O -0.01681 0.75190 0.27163
 O921 O -0.01692 0.77181 0.25167
 O922 O 0.01637 0.74843 0.22820
 O923 O -0.01688 0.74833 0.22828
 O924 O 0.01633 0.77191 0.25159
 Cu925 Cu -0.00015 0.73820 0.26191
 Cu926 Cu -0.00029 0.76213 0.23792
 C927 C 0.02204 0.76590 0.26547
 C928 C -0.02248 0.73443 0.23436
 C929 C 0.02209 0.73456 0.23425
 C930 C -0.02253 0.76577 0.26557
 O931 O 0.48304 0.77197 0.75180
 O932 O 0.51636 0.74845 0.72850
 O933 O 0.48311 0.74850 0.72839
 O934 O 0.51630 0.77192 0.75191
 O935 O 0.51621 0.75199 0.77185
 O936 O 0.48302 0.72858 0.74833
 O937 O 0.51628 0.72853 0.74845
 O938 O 0.48296 0.75204 0.77174
 Cu939 Cu 0.49971 0.76222 0.73814
 Cu940 Cu 0.49961 0.73828 0.76210
 C941 C 0.47733 0.76594 0.76567
 C942 C 0.52199 0.73455 0.73458
 C943 C 0.47742 0.73462 0.73443
 C944 C 0.52190 0.76587 0.76581
 C945 C 0.43987 0.29707 0.30884
 C946 C 0.43122 0.31376 0.30270
 C947 C 0.41371 0.30566 0.30605
 C948 C 0.42212 0.28912 0.31232
 C949 C 0.43910 0.29020 0.29053
 C950 C 0.42158 0.28211 0.29388
 C951 C 0.43069 0.30674 0.28425
 C952 C 0.41296 0.29878 0.28774
 C953 C 0.39939 0.31413 0.31454
 C954 C 0.38744 0.32095 0.32137
 C955 C 0.45306 0.28144 0.28173
 C956 C 0.46435 0.27409 0.27435
 H957 H 0.45109 0.29627 0.31741
 H958 H 0.43502 0.32687 0.30642
 H959 H 0.41844 0.28196 0.32396
 H960 H 0.41776 0.26900 0.29016
 H961 H 0.43436 0.31389 0.27261
 H962 H 0.40174 0.29958 0.27916
 C963 C 0.43939 0.79791 0.80884
 C964 C 0.43077 0.81459 0.80265
 C965 C 0.41324 0.80650 0.80591
 C966 C 0.42162 0.78995 0.81224
 C967 C 0.43872 0.79102 0.79053
 C968 C 0.42118 0.78294 0.79380
 C969 C 0.43034 0.80756 0.78420
 C970 C 0.41259 0.79960 0.78760
 C971 C 0.39888 0.81496 0.81433
 C972 C 0.38689 0.82176 0.82112
 C973 C 0.45273 0.78225 0.78183
 C974 C 0.46406 0.77488 0.77452
 H975 H 0.45057 0.79711 0.81748
 H976 H 0.43455 0.82771 0.80639
 H977 H 0.41788 0.78281 0.82386
 H978 H 0.41739 0.76983 0.79007
 H979 H 0.43408 0.81471 0.77258
 H980 H 0.40142 0.80039 0.77896
 C981 C -0.07894 0.29371 0.78295
 C982 C -0.08706 0.28801 0.80000
 C983 C -0.08666 0.30660 0.80615
 C984 C -0.07875 0.31244 0.78922
 C985 C -0.06118 0.29112 0.79078
 C986 C -0.06076 0.30972 0.79692
 C987 C -0.06909 0.28528 0.80772
 C988 C -0.06890 0.30401 0.81400
 C989 C -0.10103 0.31506 0.81456
 C990 C -0.11303 0.32187 0.82134
 C991 C -0.04717 0.28235 0.78208
 C992 C -0.03584 0.27498 0.77477
 H993 H -0.08292 0.28938 0.77009
 H994 H -0.09803 0.27917 0.80136
 H995 H -0.08289 0.32370 0.78170
 H996 H -0.04979 0.31854 0.79556
 H997 H -0.06496 0.27402 0.81523
 H998 H -0.06494 0.30835 0.82686
 C999 C -0.07886 0.79336 0.28284
 C1000 C -0.08693 0.78762 0.29990
 C1001 C -0.08652 0.80620 0.30609
 C1002 C -0.07865 0.81207 0.28915
 C1003 C -0.06108 0.79075 0.29063
 C1004 C -0.06065 0.80933 0.29681
 C1005 C -0.06894 0.78487 0.30756
 C1006 C -0.06874 0.80359 0.31389
 C1007 C -0.10086 0.81465 0.31455
 C1008 C -0.11284 0.82146 0.32135
 C1009 C -0.04709 0.78201 0.28186
 C1010 C -0.03577 0.77467 0.27450
 H1011 H -0.08287 0.78907 0.26998
 H1012 H -0.09790 0.77878 0.30127
 H1013 H -0.08281 0.82335 0.28168
 H1014 H -0.04968 0.81816 0.29543
 H1015 H -0.06479 0.77359 0.31504
 H1016 H -0.06475 0.80790 0.32675
 C1017 C 0.56454 0.71087 0.30964
 C1018 C 0.56731 0.69131 0.31021
 C1019 C 0.58622 0.69408 0.30595
 C1020 C 0.58368 0.71350 0.30552
 C1021 C 0.56083 0.70957 0.29047
 C1022 C 0.57975 0.71233 0.28622
 C1023 C 0.56336 0.69015 0.29089
 C1024 C 0.58250 0.69278 0.28678
 C1025 C 0.60054 0.68559 0.31442
 C1026 C 0.61250 0.67877 0.32123
 C1027 C 0.54687 0.71835 0.28170
 C1028 C 0.53557 0.72573 0.27434
 H1029 H 0.55700 0.71841 0.31895
 H1030 H 0.56236 0.68257 0.32017
 H1031 H 0.59219 0.72300 0.31162
 H1032 H 0.58472 0.72107 0.27626
 H1033 H 0.55485 0.68065 0.28478
 H1034 H 0.59004 0.68525 0.27747
 C1035 C 0.57752 0.21806 0.79595
 C1036 C 0.57635 0.20890 0.81340
 C1037 C 0.58636 0.19382 0.80591
 C1038 C 0.58774 0.20285 0.78860
 C1039 C 0.56090 0.20926 0.79048
 C1040 C 0.57092 0.19418 0.78299
 C1041 C 0.55951 0.20023 0.80780
 C1042 C 0.56975 0.18501 0.80044
 C1043 C 0.60072 0.18537 0.81436
 C1044 C 0.61270 0.17857 0.82116
 C1045 C 0.54690 0.21801 0.78174
 C1046 C 0.53558 0.22535 0.77441
 H1047 H 0.58056 0.23174 0.79401
 H1048 H 0.57874 0.21486 0.82600
 H1049 H 0.59950 0.20384 0.78079
 H1050 H 0.56853 0.18822 0.77039
 H1051 H 0.54774 0.19926 0.81559
 H1052 H 0.56673 0.17132 0.80239
 C1053 C 1.07585 0.70039 0.78127
 C1054 C 1.08855 0.70903 0.79365
 C1055 C 1.08652 0.69390 0.80592
 C1056 C 1.07403 0.68512 0.79367
 C1057 C 1.06109 0.70937 0.79048
 C1058 C 1.05904 0.69425 0.80276
 C1059 C 1.07358 0.71814 0.80274
 C1060 C 1.07176 0.70289 0.81515
 C1061 C 1.10087 0.68543 0.81437
 C1062 C 1.11284 0.67862 0.82117
 C1063 C 1.04710 0.71814 0.78174
 C1064 C 1.03578 0.72549 0.77440
 H1065 H 1.07738 0.69945 0.76724
 H1066 H 1.10084 0.71501 0.78999
 H1067 H 1.07438 0.67145 0.79003
 H1068 H 1.04674 0.68827 0.80640
 H1069 H 1.07324 0.73182 0.80637
 H1070 H 1.07024 0.70382 0.82918
 C1071 C 1.07906 0.20571 0.28251
 C1072 C 1.08771 0.21195 0.29910
 C1073 C 1.08699 0.19366 0.30608
 C1074 C 1.07854 0.18729 0.28962
 C1075 C 1.06155 0.20911 0.29063
 C1076 C 1.06081 0.19082 0.29761
 C1077 C 1.07000 0.21548 0.30710
 C1078 C 1.06950 0.19705 0.31422
 C1079 C 1.10134 0.18520 0.31454
 C1080 C 1.11331 0.17839 0.32135
 C1081 C 1.04757 0.21787 0.28188
 C1082 C 1.03625 0.22521 0.27452
 H1083 H 1.08284 0.20937 0.26938
 H1084 H 1.09893 0.22054 0.29981
 H1085 H 1.08221 0.17561 0.28253
 H1086 H 1.04959 0.18223 0.29689
 H1087 H 1.06634 0.22716 0.31419
 H1088 H 1.06573 0.19339 0.32735
 C1089 C 0.57955 0.28873 0.71421
 C1090 C 0.58422 0.28660 0.69516
 C1091 C 0.58612 0.30604 0.69368
 C1092 C 0.58165 0.30830 0.71260
 C1093 C 0.56071 0.29058 0.70916
 C1094 C 0.56260 0.31002 0.70768
 C1095 C 0.56518 0.28831 0.69023
 C1096 C 0.56729 0.30790 0.68862
 C1097 C 0.60045 0.31449 0.68522
 C1098 C 0.61242 0.32130 0.67841
 C1099 C 0.54675 0.28182 0.71793
 C1100 C 0.53545 0.27447 0.72529
 H1101 H 0.58444 0.28076 0.72482
 H1102 H 0.59327 0.27705 0.68992
 H1103 H 0.58859 0.31661 0.72171
 H1104 H 0.55354 0.31956 0.71293
 H1105 H 0.55824 0.28000 0.68113
 H1106 H 0.56242 0.31588 0.67799
 C1107 C 0.55910 0.80652 0.19751
 C1108 C 0.57452 0.81489 0.20660
 C1109 C 0.58652 0.80627 0.19374
 C1110 C 0.57134 0.79803 0.18452
 C1111 C 0.56103 0.79089 0.20916
 C1112 C 0.57303 0.78227 0.19631
 C1113 C 0.57621 0.79913 0.21837
 C1114 C 0.58842 0.79064 0.20539
 C1115 C 0.60089 0.81468 0.18530
 C1116 C 0.61289 0.82145 0.17851
 C1117 C 0.54702 0.78217 0.21790
 C1118 C 0.53568 0.77485 0.22524
 H1119 H 0.54689 0.81295 0.19438
 H1120 H 0.57529 0.82841 0.21073
 H1121 H 0.56950 0.79767 0.17050
 H1122 H 0.57226 0.76875 0.19217
 H1123 H 0.57806 0.79949 0.23239
 H1124 H 0.60063 0.78420 0.20854
 C1125 C 1.08033 0.28868 0.21443
 C1126 C 1.08502 0.28660 0.19538
 C1127 C 1.08691 0.30604 0.19396
 C1128 C 1.08243 0.30825 0.21289
 C1129 C 1.06150 0.29054 0.20938
 C1130 C 1.06338 0.30999 0.20797
 C1131 C 1.06597 0.28833 0.19045
 C1132 C 1.06808 0.30792 0.18890
 C1133 C 1.10124 0.31453 0.18552
 C1134 C 1.11320 0.32135 0.17872
 C1135 C 1.04753 0.28175 0.21812
 C1136 C 1.03622 0.27438 0.22545
 H1137 H 1.08522 0.28067 0.22503
 H1138 H 1.09407 0.27708 0.19011
 H1139 H 1.08936 0.31654 0.22202
 H1140 H 1.05432 0.31950 0.21324
 H1141 H 1.05904 0.28004 0.18133
 H1142 H 1.06321 0.31593 0.17830
 C1143 C 1.07983 0.78888 0.71425
 C1144 C 1.08451 0.78677 0.69521
 C1145 C 1.08642 0.80621 0.69376
 C1146 C 1.08195 0.80845 0.71268
 C1147 C 1.06100 0.79075 0.70920
 C1148 C 1.06290 0.81020 0.70776
 C1149 C 1.06547 0.78851 0.69028
 C1150 C 1.06760 0.80810 0.68869
 C1151 C 1.10076 0.81467 0.68531
 C1152 C 1.11274 0.82148 0.67850
 C1153 C 1.04702 0.78199 0.71796
 C1154 C 1.03572 0.77464 0.72531
 H1155 H 1.08472 0.78089 0.72486
 H1156 H 1.09356 0.77723 0.68995
 H1157 H 1.08889 0.81674 0.72180
 H1158 H 1.05385 0.81973 0.71302
 H1159 H 1.05853 0.78021 0.68116
 H1160 H 1.06273 0.81609 0.67808
 C1161 C 0.42258 0.71854 0.70331
 C1162 C 0.42394 0.70890 0.68614
 C1163 C 0.41356 0.69418 0.69384
 C1164 C 0.41200 0.70369 0.71088
 C1165 C 0.43896 0.70963 0.70933
 C1166 C 0.42858 0.69491 0.71703
 C1167 C 0.44054 0.70012 0.69229
 C1168 C 0.42993 0.68526 0.69986
 C1169 C 0.39924 0.68573 0.68537
 C1170 C 0.38728 0.67892 0.67855
 C1171 C 0.45291 0.71838 0.71811
 C1172 C 0.46421 0.72572 0.72548
 H1173 H 0.41971 0.73231 0.70482
 H1174 H 0.42187 0.71455 0.67334
 H1175 H 0.40011 0.70507 0.71843
 H1176 H 0.43064 0.68925 0.72983
 H1177 H 0.45244 0.69875 0.68475
 H1178 H 0.43279 0.67148 0.69834
 C1179 C 0.44071 0.19791 0.19316
 C1180 C 0.42905 0.18423 0.20140
 C1181 C 0.41342 0.19340 0.19396
 C1182 C 0.42484 0.20693 0.18559
 C1183 C 0.43891 0.20884 0.20930
 C1184 C 0.42327 0.21799 0.20186
 C1185 C 0.42749 0.19531 0.21767
 C1186 C 0.41165 0.20434 0.21010
 C1187 C 0.39905 0.18496 0.18556
 C1188 C 0.38705 0.17818 0.17880
 C1189 C 0.45292 0.21759 0.21799
 C1190 C 0.46426 0.22494 0.22529
 H1191 H 0.45282 0.19536 0.18630
 H1192 H 0.43127 0.17026 0.20111
 H1193 H 0.42358 0.21162 0.17230
 H1194 H 0.42104 0.23197 0.20214
 H1195 H 0.42874 0.19062 0.23096
 H1196 H 0.39954 0.20689 0.21698
 C1197 C -0.07739 0.71807 0.20351
 C1198 C -0.07606 0.70843 0.18634
 C1199 C -0.08634 0.69367 0.19410
 C1200 C -0.08788 0.70319 0.21113
 C1201 C -0.06095 0.70924 0.20947
 C1202 C -0.07123 0.69448 0.21723
 C1203 C -0.05939 0.69972 0.19244
 C1204 C -0.06991 0.68482 0.20006
 C1205 C -0.10066 0.68516 0.18567
 C1206 C -0.11261 0.67832 0.17889
 C1207 C -0.04699 0.71805 0.21818
 C1208 C -0.03570 0.72545 0.22549
 H1209 H -0.08031 0.73184 0.20502
 H1210 H -0.07820 0.71406 0.17355
 H1211 H -0.09974 0.70453 0.21873
 H1212 H -0.06910 0.68884 0.23002
 H1213 H -0.04752 0.69839 0.18485
 H1214 H -0.06700 0.67105 0.19854
 C1215 C -0.07736 0.21860 0.70356
 C1216 C -0.07600 0.20899 0.68637
 C1217 C -0.08634 0.19424 0.69406
 C1218 C -0.08791 0.20373 0.71111
 C1219 C -0.06097 0.20971 0.70956
 C1220 C -0.07131 0.19496 0.71724
 C1221 C -0.05937 0.20023 0.69251
 C1222 C -0.06995 0.18534 0.70006
 C1223 C -0.10064 0.18577 0.68558
 C1224 C -0.11259 0.17895 0.67875
 C1225 C -0.04702 0.21847 0.71834
 C1226 C -0.03573 0.22582 0.72572
 H1227 H -0.08026 0.23237 0.70509
 H1228 H -0.07808 0.21466 0.67358
 H1229 H -0.09980 0.20507 0.71867
 H1230 H -0.06923 0.18929 0.73003
 H1231 H -0.04747 0.19890 0.68496
 H1232 H -0.06706 0.17157 0.69852
 C1233 C 0.30725 0.43095 0.28464
 C1234 C 0.31404 0.43134 0.30318
 C1235 C 0.30601 0.41374 0.30625
 C1236 C 0.29935 0.41314 0.28785
 C1237 C 0.29058 0.43920 0.29080
 C1238 C 0.28256 0.42159 0.29389
 C1239 C 0.29723 0.43982 0.30920
 C1240 C 0.28934 0.42199 0.31241
 C1241 C 0.31446 0.39938 0.31470
 C1242 C 0.32126 0.38739 0.32149
 C1243 C 0.28183 0.45319 0.28205
 C1244 C 0.27449 0.46451 0.27469
 H1245 H 0.31451 0.43479 0.27313
 H1246 H 0.32708 0.43518 0.30710
 H1247 H 0.30032 0.40201 0.27917
 H1248 H 0.26952 0.41774 0.28997
 H1249 H 0.29625 0.45095 0.31788
 H1250 H 0.28207 0.41814 0.32392
 C1251 C 0.29179 -0.06363 0.81007
 C1252 C 0.28729 -0.08273 0.80780
 C1253 C 0.30637 -0.08680 0.80600
 C1254 C 0.31102 -0.06793 0.80840
 C1255 C 0.29084 -0.06134 0.79066
 C1256 C 0.30993 -0.06540 0.78884
 C1257 C 0.28622 -0.08022 0.78827
 C1258 C 0.30542 -0.08449 0.78658
 C1259 C 0.31487 -0.10116 0.81440
 C1260 C 0.32170 -0.11314 0.82117
 C1261 C 0.28205 -0.04733 0.78196
 C1262 C 0.27467 -0.03600 0.77467
 H1263 H 0.28609 -0.05490 0.81963
 H1264 H 0.27808 -0.09002 0.81570
 H1265 H 0.32132 -0.06304 0.81677
 H1266 H 0.31913 -0.05811 0.78095
 H1267 H 0.27592 -0.08512 0.77990
 H1268 H 0.31111 -0.09323 0.77702
 C1269 C 0.80772 0.43053 0.78447
 C1270 C 0.81451 0.43090 0.80300
 C1271 C 0.80650 0.41329 0.80605
 C1272 C 0.79984 0.41270 0.78766
 C1273 C 0.79104 0.43875 0.79064
 C1274 C 0.78304 0.42114 0.79370
 C1275 C 0.79769 0.43935 0.80904
 C1276 C 0.78982 0.42151 0.81223
 C1277 C 0.81496 0.39893 0.81449
 C1278 C 0.82177 0.38695 0.82129
 C1279 C 0.78228 0.45275 0.78192
 C1280 C 0.77492 0.46408 0.77460
 H1281 H 0.81498 0.43439 0.77296
 H1282 H 0.82755 0.43475 0.80693
 H1283 H 0.80082 0.40159 0.77896
 H1284 H 0.77001 0.41727 0.78978
 H1285 H 0.79671 0.45047 0.81773
 H1286 H 0.78256 0.41764 0.82374
 C1287 C 0.80434 -0.07258 0.28271
 C1288 C 0.81518 -0.07100 0.29913
 C1289 C 0.80601 -0.08669 0.30642
 C1290 C 0.79530 -0.08848 0.29013
 C1291 C 0.79062 -0.06124 0.29092
 C1292 C 0.78147 -0.07694 0.29821
 C1293 C 0.80133 -0.05943 0.30720
 C1294 C 0.79230 -0.07536 0.31463
 C1295 C 0.81444 -0.10104 0.31489
 C1296 C 0.82123 -0.11303 0.32171
 C1297 C 0.78191 -0.04725 0.28213
 C1298 C 0.77460 -0.03593 0.27475
 H1299 H 0.80919 -0.07128 0.26949
 H1300 H 0.82914 -0.06872 0.29961
 H1301 H 0.79292 -0.10059 0.28320
 H1302 H 0.76751 -0.07924 0.29774
 H1303 H 0.80371 -0.04732 0.31412
 H1304 H 0.78745 -0.07667 0.32785
 C1305 C 0.30435 0.55878 0.69588
 C1306 C 0.29539 0.57248 0.68480
 C1307 C 0.30579 0.58635 0.69391
 C1308 C 0.31488 0.57288 0.70485
 C1309 C 0.29036 0.56094 0.70942
 C1310 C 0.30076 0.57481 0.71851
 C1311 C 0.28127 0.57441 0.69847
 C1312 C 0.29180 0.58849 0.70744
 C1313 C 0.31424 0.60067 0.68542
 C1314 C 0.32104 0.61263 0.67860
 C1315 C 0.28161 0.54698 0.71821
 C1316 C 0.27428 0.53569 0.72559
 H1317 H 0.30941 0.54641 0.69123
 H1318 H 0.29328 0.57169 0.67084
 H1319 H 0.32880 0.57242 0.70738
 H1320 H 0.30287 0.57562 0.73247
 H1321 H 0.26735 0.57489 0.69594
 H1322 H 0.28673 0.60085 0.71210
 C1323 C 0.31027 1.06442 0.20975
 C1324 C 0.30972 1.06802 0.19034
 C1325 C 0.30645 1.08695 0.19416
 C1326 C 0.30713 1.08358 0.21342
 C1327 C 0.29089 1.06155 0.20954
 C1328 C 0.28764 1.08049 0.21334
 C1329 C 0.29020 1.06491 0.19027
 C1330 C 0.28708 1.08407 0.19395
 C1331 C 0.31496 1.10128 0.18573
 C1332 C 0.32179 1.11324 0.17893
 C1333 C 0.28208 1.04758 0.21825
 C1334 C 0.27469 1.03627 0.22556
 H1335 H 0.31970 1.05619 0.21634
 H1336 H 0.31890 1.06306 0.18078
 H1337 H 0.31419 1.09141 0.22285
 H1338 H 0.27846 1.08546 0.22290
 H1339 H 0.28315 1.05707 0.18085
 H1340 H 0.27764 1.09230 0.18736
 C1341 C 0.81037 0.56381 0.20933
 C1342 C 0.80974 0.56743 0.18992
 C1343 C 0.80643 0.58635 0.19378
 C1344 C 0.80720 0.58296 0.21304
 C1345 C 0.79100 0.56089 0.20920
 C1346 C 0.78771 0.57981 0.21304
 C1347 C 0.79023 0.56427 0.18994
 C1348 C 0.78706 0.58341 0.19365
 C1349 C 0.81486 0.60071 0.18534
 C1350 C 0.82165 0.61270 0.17853
 C1351 C 0.78226 0.54689 0.21793
 C1352 C 0.77490 0.53557 0.22525
 H1353 H 0.81986 0.55559 0.21588
 H1354 H 0.81889 0.56250 0.18032
 H1355 H 0.81428 0.59080 0.22245
 H1356 H 0.77856 0.58476 0.22264
 H1357 H 0.78315 0.55643 0.18053
 H1358 H 0.77757 0.59163 0.18711
 C1359 C 0.78130 1.07489 0.69921
 C1360 C 0.79246 1.08851 0.70810
 C1361 C 0.80591 1.08637 0.69403
 C1362 C 0.79488 1.07295 0.68500
 C1363 C 0.79045 1.06097 0.70953
 C1364 C 0.80390 1.05881 0.69546
 C1365 C 0.80148 1.07440 0.71855
 C1366 C 0.81507 1.07246 0.70435
 C1367 C 0.81437 1.10069 0.68555
 C1368 C 0.82119 1.11265 0.67873
 C1369 C 0.78169 1.04701 0.71830
 C1370 C 0.77434 1.03572 0.72567
 H1371 H 0.76731 1.07573 0.69719
 H1372 H 0.78784 1.10088 0.71321
 H1373 H 0.79226 1.07252 0.67111
 H1374 H 0.80850 1.04643 0.69036
 H1375 H 0.80410 1.07484 0.73244
 H1376 H 0.82906 1.07163 0.70636
 C1377 C 0.70614 0.56154 0.30967
 C1378 C 0.71237 0.58028 0.30979
 C1379 C 0.69410 0.58617 0.30591
 C1380 C 0.68771 0.56765 0.30593
 C1381 C 0.70956 0.56077 0.29041
 C1382 C 0.69129 0.56666 0.28653
 C1383 C 0.71593 0.57929 0.29041
 C1384 C 0.69753 0.58539 0.28666
 C1385 C 0.68563 0.60050 0.31439
 C1386 C 0.67881 0.61245 0.32122
 C1387 C 0.71833 0.54680 0.28163
 C1388 C 0.72569 0.53550 0.27427
 H1389 H 0.70977 0.55157 0.31903
 H1390 H 0.72095 0.58604 0.31945
 H1391 H 0.67601 0.56304 0.31241
 H1392 H 0.68271 0.56090 0.27687
 H1393 H 0.72763 0.58393 0.28393
 H1394 H 0.69390 0.59535 0.27729
 C1395 C 0.69707 1.05918 0.80616
 C1396 C 0.70620 1.07424 0.81511
 C1397 C 0.69383 1.08666 0.80636
 C1398 C 0.68456 1.07183 0.79755
 C1399 C 0.70923 1.06117 0.79093
 C1400 C 0.69686 1.07360 0.78219
 C1401 C 0.71848 1.07600 0.79975
 C1402 C 0.70598 1.08863 0.79114
 C1403 C 0.68539 1.10103 0.81480
 C1404 C 0.67860 1.11303 0.82158
 C1405 C 0.71795 1.04716 0.78219
 C1406 C 0.72528 1.03583 0.77484
 H1407 H 0.69351 1.04690 0.81223
 H1408 H 0.70994 1.07467 0.82874
 H1409 H 0.67052 1.07028 0.79674
 H1410 H 0.69311 1.07318 0.76856
 H1411 H 0.73252 1.07757 0.80056
 H1412 H 0.70956 1.10090 0.78505
 C1413 C 0.21452 0.56830 0.80841
 C1414 C 0.21278 0.58660 0.80118
 C1415 C 0.19390 0.58664 0.80640
 C1416 C 0.19550 0.56856 0.81376
 C1417 C 0.20929 0.56115 0.79096
 C1418 C 0.19040 0.56118 0.79617
 C1419 C 0.20768 0.57924 0.78361
 C1420 C 0.18867 0.57949 0.78894
 C1421 C 0.18548 0.60102 0.81484
 C1422 C 0.17869 0.61302 0.82162
 C1423 C 0.21800 0.54714 0.78221
 C1424 C 0.22532 0.53581 0.77486
 H1425 H 0.22525 0.56354 0.81632
 H1426 H 0.22189 0.59721 0.80334
 H1427 H 0.19039 0.56434 0.82626
 H1428 H 0.18130 0.55057 0.79400
 H1429 H 0.21278 0.58348 0.77112
 H1430 H 0.17794 0.58426 0.78103
 C1431 C 0.18990 1.06427 0.29083
 C1432 C 0.19081 1.06806 0.31019
 C1433 C 0.19380 1.08699 0.30610
 C1434 C 0.19276 1.08341 0.28689
 C1435 C 0.20930 1.06157 0.29066
 C1436 C 0.21228 1.08050 0.28660
 C1437 C 0.21036 1.06513 0.30988
 C1438 C 0.21321 1.08428 0.30593
 C1439 C 0.18532 1.10132 0.31455
 C1440 C 0.17849 1.11329 0.32135
 C1441 C 0.21808 1.04759 0.28191
 C1442 C 0.22544 1.03628 0.27456
 H1443 H 0.18041 1.05588 0.28452
 H1444 H 0.18188 1.06312 0.31999
 H1445 H 0.18542 1.09109 0.27753
 H1446 H 0.22121 1.08546 0.27680
 H1447 H 0.21769 1.05746 0.31924
 H1448 H 0.22269 1.09266 0.31224
 C1449 C 0.70803 0.42087 0.71661
 C1450 C 0.68899 0.42069 0.71140
 C1451 C 0.69411 0.41367 0.69386
 C1452 C 0.71302 0.41364 0.69894
 C1453 C 0.70959 0.43901 0.70939
 C1454 C 0.71472 0.43199 0.69184
 C1455 C 0.69068 0.43905 0.70431
 C1456 C 0.69566 0.43180 0.68662
 C1457 C 0.68563 0.39937 0.68536
 C1458 C 0.67880 0.38744 0.67852
 C1459 C 0.71837 0.45295 0.71818
 C1460 C 0.72573 0.46423 0.72555
 H1461 H 0.71321 0.41653 0.72903
 H1462 H 0.67831 0.41588 0.71935
 H1463 H 0.72212 0.40304 0.69664
 H1464 H 0.72540 0.43680 0.68390
 H1465 H 0.68159 0.44966 0.70661
 H1466 H 0.69048 0.43613 0.67419
 C1467 C 0.70946 -0.07969 0.21588
 C1468 C 0.69005 -0.08073 0.21246
 C1469 C 0.69383 -0.08654 0.19415
 C1470 C 0.71312 -0.08570 0.19745
 C1471 C 0.70934 -0.06114 0.20957
 C1472 C 0.71313 -0.06694 0.19127
 C1473 C 0.69005 -0.06197 0.20629
 C1474 C 0.69370 -0.06800 0.18783
 C1475 C 0.68535 -0.10086 0.18571
 C1476 C 0.67852 -0.11282 0.17892
 C1477 C 0.71813 -0.04717 0.21831
 C1478 C 0.72550 -0.03588 0.22563
 H1479 H 0.71604 -0.08434 0.22751
 H1480 H 0.68046 -0.08656 0.22108
 H1481 H 0.72252 -0.09561 0.19372
 H1482 H 0.72272 -0.06111 0.18265
 H1483 H 0.68066 -0.05205 0.21002
 H1484 H 0.68711 -0.06336 0.17620
 C1485 C 0.19070 0.43964 0.20336
 C1486 C 0.19647 0.43144 0.18634
 C1487 C 0.19380 0.41371 0.19422
 C1488 C 0.18789 0.42168 0.21110
 C1489 C 0.20926 0.43917 0.20960
 C1490 C 0.20657 0.42143 0.21747
 C1491 C 0.21517 0.43120 0.19272
 C1492 C 0.21236 0.41325 0.20047
 C1493 C 0.18535 0.39935 0.18581
 C1494 C 0.17855 0.38737 0.17903
 C1495 C 0.21802 0.45316 0.21831
 C1496 C 0.22537 0.46449 0.22562
 H1497 H 0.18189 0.45066 0.20464
 H1498 H 0.19222 0.43539 0.17344
 H1499 H 0.17658 0.41761 0.21856
 H1500 H 0.21082 0.41747 0.23037
 H1501 H 0.22648 0.43527 0.18526
 H1502 H 0.22117 0.40225 0.19920
 C1503 C 0.19353 -0.05906 0.69807
 C1504 C 0.20192 -0.07130 0.68502
 C1505 C 0.19363 -0.08646 0.69423
 C1506 C 0.18509 -0.07445 0.70713
 C1507 C 0.20917 -0.06109 0.70966
 C1508 C 0.20087 -0.07626 0.71886
 C1509 C 0.21770 -0.07310 0.69676
 C1510 C 0.20927 -0.08848 0.70583
 C1511 C 0.18512 -0.10076 0.68577
 C1512 C 0.17828 -0.11270 0.67896
 C1513 C 0.21798 -0.04715 0.71841
 C1514 C 0.22537 -0.03586 0.72575
 H1515 H 0.18715 -0.04680 0.69497
 H1516 H 0.20226 -0.06942 0.67100
 H1517 H 0.17159 -0.07517 0.71130
 H1518 H 0.20054 -0.07815 0.73287
 H1519 H 0.23121 -0.07240 0.69258
 H1520 H 0.21566 -0.10073 0.70893
 C1521 C 0.30306 0.28168 0.42720
 C1522 C 0.29399 0.29039 0.41198
 C1523 C 0.30591 0.30580 0.41397
 C1524 C 0.31512 0.29722 0.42897
 C1525 C 0.29042 0.29037 0.43938
 C1526 C 0.30234 0.30578 0.44139
 C1527 C 0.28122 0.29895 0.42437
 C1528 C 0.29327 0.31449 0.42615
 C1529 C 0.31438 0.31424 0.39964
 C1530 C 0.32120 0.32104 0.38768
 C1531 C 0.28164 0.28163 0.45335
 C1532 C 0.27428 0.27428 0.46465
 H1533 H 0.30699 0.26809 0.42778
 H1534 H 0.29065 0.28415 0.39974
 H1535 H 0.32915 0.29661 0.43070
 H1536 H 0.30567 0.31201 0.45364
 H1537 H 0.26719 0.29957 0.42263
 H1538 H 0.28934 0.32808 0.42555
 C1539 C 0.28321 0.80566 -0.07131
 C1540 C 0.30051 0.81512 -0.07010
 C1541 C 0.30628 0.80621 -0.08655
 C1542 C 0.28912 0.79689 -0.08798
 C1543 C 0.29087 0.79081 -0.06108
 C1544 C 0.29664 0.78192 -0.07754
 C1545 C 0.30803 0.80013 -0.05964
 C1546 C 0.31394 0.79136 -0.07632
 C1547 C 0.31471 0.81463 -0.10092
 C1548 C 0.32149 0.82142 -0.11291
 C1549 C 0.28213 0.78209 -0.04708
 C1550 C 0.27479 0.77476 -0.03575
 H1551 H 0.27048 0.81145 -0.06910
 H1552 H 0.30220 0.82887 -0.06721
 H1553 H 0.28143 0.79564 -0.09978
 H1554 H 0.29496 0.76817 -0.08044
 H1555 H 0.31571 0.80136 -0.04782
 H1556 H 0.32667 0.78558 -0.07854
 C1557 C 0.81006 0.29481 -0.06157
 C1558 C 0.81072 0.28820 -0.08016
 C1559 C 0.80629 0.30621 -0.08647
 C1560 C 0.80577 0.31296 -0.06811
 C1561 C 0.79092 0.29072 -0.06103
 C1562 C 0.78648 0.30873 -0.06734
 C1563 C 0.79145 0.28399 -0.07940
 C1564 C 0.78714 0.30212 -0.08592
 C1565 C 0.81471 0.31468 -0.10082
 C1566 C 0.82149 0.32149 -0.11280
 C1567 C 0.78220 0.28194 -0.04704
 C1568 C 0.77488 0.27458 -0.03573
 H1569 H 0.81939 0.29170 -0.05139
 H1570 H 0.82079 0.27986 -0.08559
 H1571 H 0.81175 0.32498 -0.06363
 H1572 H 0.77641 0.31708 -0.06191
 H1573 H 0.78547 0.27198 -0.08389
 H1574 H 0.77781 0.30522 -0.09609
 C1575 C 0.80923 0.78857 0.43492
 C1576 C 0.80431 0.78679 0.41589
 C1577 C 0.80567 0.80623 0.41393
 C1578 C 0.81072 0.80816 0.43274
 C1579 C 0.79028 0.79075 0.43937
 C1580 C 0.79163 0.81019 0.43742
 C1581 C 0.78524 0.78883 0.42055
 C1582 C 0.78672 0.80840 0.41839
 C1583 C 0.81410 0.81470 0.39959
 C1584 C 0.82089 0.82151 0.38761
 C1585 C 0.78155 0.78197 0.45335
 C1586 C 0.77423 0.77460 0.46466
 H1587 H 0.81839 0.78032 0.44187
 H1588 H 0.80962 0.77725 0.40688
 H1589 H 0.82130 0.81621 0.43759
 H1590 H 0.78631 0.81972 0.44644
 H1591 H 0.77466 0.78079 0.41569
 H1592 H 0.77755 0.81665 0.41143
 C1593 C 0.69120 0.29799 0.55950
 C1594 C 0.68733 0.28985 0.57707
 C1595 C 0.69391 0.30610 0.58579
 C1596 C 0.69764 0.31438 0.56845
 C1597 C 0.70935 0.29065 0.56035
 C1598 C 0.71592 0.30690 0.56907
 C1599 C 0.70560 0.28238 0.57770
 C1600 C 0.71205 0.29875 0.58663
 C1601 C 0.68546 0.31455 0.60013
 C1602 C 0.67866 0.32135 0.61211
 C1603 C 0.71810 0.28189 0.54638
 C1604 C 0.72545 0.27454 0.53508
 H1605 H 0.68272 0.29758 0.54818
 H1606 H 0.67547 0.28293 0.58052
 H1607 H 0.69427 0.32764 0.56481
 H1608 H 0.72778 0.31382 0.56563
 H1609 H 0.70897 0.26912 0.58136
 H1610 H 0.72053 0.29916 0.59794
 C1611 C 0.69426 0.78259 1.07114
 C1612 C 0.70300 0.78850 1.08782
 C1613 C 0.69367 0.80567 1.08636
 C1614 C 0.68479 0.79990 1.06990
 C1615 C 0.70913 0.79023 1.06093
 C1616 C 0.69980 0.80740 1.05946
 C1617 C 0.71798 0.79601 1.07740
 C1618 C 0.70853 0.81331 1.07615
 C1619 C 0.68521 0.81413 1.10070
 C1620 C 0.67841 0.82093 1.11267
 C1621 C 0.71789 0.78149 1.04696
 C1622 C 0.72526 0.77416 1.03565
 H1623 H 0.68849 0.76987 1.06893
 H1624 H 0.70422 0.78082 1.09964
 H1625 H 0.67105 0.80159 1.06698
 H1626 H 0.69859 0.81508 1.04763
 H1627 H 0.73173 0.79432 1.08034
 H1628 H 0.71430 0.82604 1.07837
 C1629 C 0.20737 0.28285 1.07903
 C1630 C 0.21272 0.30022 1.08672
 C1631 C 0.19396 0.30585 1.08651
 C1632 C 0.18847 0.28861 1.07903
 C1633 C 0.20944 0.29043 1.06109
 C1634 C 0.19067 0.29606 1.06087
 C1635 C 0.21493 0.30767 1.06858
 C1636 C 0.19602 0.31344 1.06859
 C1637 C 0.18548 0.31429 1.10085
 C1638 C 0.17866 0.32109 1.11282
 C1639 C 0.21821 0.28168 1.04712
 C1640 C 0.22557 0.27434 1.03582
 H1641 H 0.21213 0.27018 1.08317
 H1642 H 0.22169 0.30203 1.09750
 H1643 H 0.17750 0.28087 1.08349
 H1644 H 0.18171 0.29424 1.05008
 H1645 H 0.22590 0.31541 1.06412
 H1646 H 0.19126 0.32612 1.06446
 C1647 C 0.21034 0.80987 0.56464
 C1648 C 0.19077 0.81064 0.56729
 C1649 C 0.19337 0.80609 0.58615
 C1650 C 0.21280 0.80547 0.58373
 C1651 C 0.20885 0.79075 0.56067
 C1652 C 0.21144 0.78622 0.57954
 C1653 C 0.18942 0.79137 0.56309
 C1654 C 0.19188 0.78697 0.58217
 C1655 C 0.18491 0.81449 0.60052
 C1656 C 0.17811 0.82125 0.61251
 C1657 C 0.21762 0.78205 0.54667
 C1658 C 0.22499 0.77475 0.53535
 H1659 H 0.21803 0.81919 0.55728
 H1660 H 0.18217 0.82078 0.56241
 H1661 H 0.22232 0.81135 0.59237
 H1662 H 0.22003 0.77609 0.58443
 H1663 H 0.17990 0.78548 0.55444
 H1664 H 0.18420 0.77765 0.58954
 C1665 C 0.28520 0.71137 0.57938
 C1666 C 0.28686 0.69181 0.58148
 C1667 C 0.30578 0.69411 0.58598
 C1668 C 0.30424 0.71355 0.58409
 C1669 C 0.29031 0.70956 0.56057
 C1670 C 0.30923 0.71188 0.56507
 C1671 C 0.29184 0.69012 0.56245
 C1672 C 0.31090 0.69229 0.56718
 C1673 C 0.31424 0.68566 0.60032
 C1674 C 0.32105 0.67886 0.61229
 C1675 C 0.28155 0.71832 0.54660
 C1676 C 0.27420 0.72568 0.53530
 H1677 H 0.27454 0.71931 0.58425
 H1678 H 0.27775 0.68346 0.58838
 H1679 H 0.30944 0.72310 0.59315
 H1680 H 0.31833 0.72022 0.55817
 H1681 H 0.28664 0.68059 0.55339
 H1682 H 0.32157 0.68435 0.56233
 C1683 C 0.28572 0.21100 1.07994
 C1684 C 0.28743 0.19145 1.08205
 C1685 C 0.30633 0.19380 1.08660
 C1686 C 0.30475 0.21324 1.08469
 C1687 C 0.29087 0.20919 1.06114
 C1688 C 0.30978 0.21156 1.06568
 C1689 C 0.29245 0.18976 1.06304
 C1690 C 0.31150 0.19198 1.06780
 C1691 C 0.31478 0.18538 1.10095
 C1692 C 0.32158 0.17859 1.11294
 C1693 C 0.28211 0.21792 1.04715
 C1694 C 0.27475 0.22525 1.03583
 H1695 H 0.27503 0.21892 1.08478
 H1696 H 0.27833 0.18308 1.08895
 H1697 H 0.30990 0.22280 1.09375
 H1698 H 0.31887 0.21992 1.05878
 H1699 H 0.28729 0.18020 1.05397
 H1700 H 0.32219 0.18406 1.06298
 C1701 C 0.80609 0.69719 1.05892
 C1702 C 0.81454 0.70625 1.07430
 C1703 C 0.80592 0.69342 1.08631
 C1704 C 0.79760 0.68421 1.07118
 C1705 C 0.79050 0.70889 1.06089
 C1706 C 0.78188 0.69606 1.07291
 C1707 C 0.79882 0.71809 1.07603
 C1708 C 0.79033 0.70513 1.08826
 C1709 C 0.81437 0.68496 1.10065
 C1710 C 0.82117 0.67816 1.11263
 C1711 C 0.78176 0.71767 1.04691
 C1712 C 0.77442 0.72503 1.03561
 H1713 H 0.81247 0.69402 1.04670
 H1714 H 0.82807 0.71035 1.07503
 H1715 H 0.79720 0.67018 1.06935
 H1716 H 0.76836 0.69196 1.07219
 H1717 H 0.79922 0.73212 1.07788
 H1718 H 0.78394 0.70830 1.10047
 C1719 C 0.78555 0.21122 0.57928
 C1720 C 0.78723 0.19166 0.58140
 C1721 C 0.80613 0.19399 0.58597
 C1722 C 0.80457 0.21343 0.58406
 C1723 C 0.79072 0.20940 0.56049
 C1724 C 0.80962 0.21174 0.56505
 C1725 C 0.79227 0.18996 0.56239
 C1726 C 0.81132 0.19216 0.56718
 C1727 C 0.81456 0.18557 0.60033
 C1728 C 0.82134 0.17878 0.61233
 C1729 C 0.78198 0.21813 0.54649
 C1730 C 0.77464 0.22546 0.53516
 H1731 H 0.77486 0.21915 0.58411
 H1732 H 0.77811 0.18331 0.58829
 H1733 H 0.80973 0.22299 0.59312
 H1734 H 0.81873 0.22010 0.55816
 H1735 H 0.78711 0.18041 0.55332
 H1736 H 0.82201 0.18423 0.56237
 C1737 C 0.71415 0.69160 0.43254
 C1738 C 0.69502 0.68667 0.43211
 C1739 C 0.69383 0.69383 0.41393
 C1740 C 0.71282 0.69861 0.41414
 C1741 C 0.70921 0.70928 0.43938
 C1742 C 0.70801 0.71642 0.42119
 C1743 C 0.69021 0.70450 0.43918
 C1744 C 0.68889 0.71151 0.42076
 C1745 C 0.68541 0.68538 0.39957
 C1746 C 0.67864 0.67859 0.38759
 C1747 C 0.71792 0.71803 0.45337
 C1748 C 0.72524 0.72539 0.46468
 H1749 H 0.72463 0.68350 0.43754
 H1750 H 0.68958 0.67435 0.43644
 H1751 H 0.72203 0.69610 0.40370
 H1752 H 0.71344 0.72874 0.41685
 H1753 H 0.68102 0.70702 0.44963
 H1754 H 0.67841 0.71960 0.41576
 C1755 C 0.69157 0.21351 -0.06710
 C1756 C 0.69803 0.21308 -0.08574
 C1757 C 0.69426 0.19387 -0.08637
 C1758 C 0.68765 0.19416 -0.06795
 C1759 C 0.70970 0.20934 -0.06097
 C1760 C 0.70593 0.19012 -0.06159
 C1761 C 0.71629 0.20903 -0.07941
 C1762 C 0.71239 0.18970 -0.08025
 C1763 C 0.68580 0.18541 -0.10070
 C1764 C 0.67900 0.17860 -0.11265
 C1765 C 0.71846 0.21809 -0.04701
 C1766 C 0.72581 0.22543 -0.03571
 H1767 H 0.68311 0.22340 -0.06153
 H1768 H 0.69470 0.22243 -0.09583
 H1769 H 0.67578 0.18795 -0.06340
 H1770 H 0.70927 0.18078 -0.05150
 H1771 H 0.72816 0.21524 -0.08397
 H1772 H 0.72085 0.17981 -0.08581
 C1773 C 0.21298 0.69079 -0.06615
 C1774 C 0.19347 0.68806 -0.06766
 C1775 C 0.19434 0.69388 -0.08633
 C1776 C 0.21371 0.69647 -0.08503
 C1777 C 0.20974 0.70939 -0.06093
 C1778 C 0.21060 0.71520 -0.07960
 C1779 C 0.19037 0.70681 -0.06221
 C1780 C 0.19110 0.71248 -0.08110
 C1781 C 0.18590 0.68540 -0.10065
 C1782 C 0.17911 0.67859 -0.11261
 C1783 C 0.21846 0.71818 -0.04696
 C1784 C 0.22578 0.72556 -0.03567
 H1785 H 0.22208 0.68196 -0.05984
 H1786 H 0.18633 0.67680 -0.06291
 H1787 H 0.22322 0.69213 -0.09457
 H1788 H 0.21773 0.72645 -0.08436
 H1789 H 0.18087 0.71115 -0.05266
 H1790 H 0.18201 0.72131 -0.08741
 C1791 C 0.21476 0.21040 0.42055
 C1792 C 0.21248 0.19087 0.41878
 C1793 C 0.19377 0.19376 0.41377
 C1794 C 0.19593 0.21316 0.41533
 C1795 C 0.20915 0.20913 0.43926
 C1796 C 0.19043 0.21203 0.43425
 C1797 C 0.20699 0.18972 0.43771
 C1798 C 0.18813 0.19248 0.43247
 C1799 C 0.18536 0.18535 0.39939
 C1800 C 0.17859 0.17858 0.38739
 C1801 C 0.21786 0.21785 0.45327
 C1802 C 0.22518 0.22518 0.46460
 H1803 H 0.22581 0.21786 0.41580
 H1804 H 0.22146 0.18207 0.41226
 H1805 H 0.19129 0.22271 0.40597
 H1806 H 0.18146 0.22082 0.44077
 H1807 H 0.21164 0.18018 0.44708
 H1808 H 0.17708 0.18501 0.43721
 C1809 C 0.29495 0.43913 0.69053
 C1810 C 0.31281 0.43206 0.69522
 C1811 C 0.30568 0.41386 0.69406
 C1812 C 0.28796 0.42070 0.68924
 C1813 C 0.29027 0.43932 0.70954
 C1814 C 0.28315 0.42111 0.70837
 C1815 C 0.30799 0.43248 0.71436
 C1816 C 0.30099 0.41406 0.71307
 C1817 C 0.31411 0.39951 0.68560
 C1818 C 0.32091 0.38753 0.67879
 C1819 C 0.28155 0.45331 0.71830
 C1820 C 0.27423 0.46464 0.72567
 H1821 H 0.29237 0.44960 0.68136
 H1822 H 0.32511 0.43640 0.68971
 H1823 H 0.27982 0.41569 0.67881
 H1824 H 0.27086 0.41675 0.71387
 H1825 H 0.31612 0.43748 0.72479
 H1826 H 0.30356 0.40360 0.72224
 C1827 C 0.30213 0.92683 0.21818
 C1828 C 0.29305 0.91241 0.20825
 C1829 C 0.30605 0.91451 0.19376
 C1830 C 0.31528 0.92872 0.20357
 C1831 C 0.29063 0.93994 0.20926
 C1832 C 0.30363 0.94206 0.19477
 C1833 C 0.28141 0.92572 0.19945
 C1834 C 0.29455 0.92761 0.18483
 C1835 C 0.31450 0.90017 0.18528
 C1836 C 0.32130 0.88820 0.17846
 C1837 C 0.28189 0.95392 0.21804
 C1838 C 0.27455 0.96523 0.22540
 H1839 H 0.30516 0.92667 0.23200
 H1840 H 0.28878 0.90007 0.21370
 H1841 H 0.32930 0.92979 0.20516
 H1842 H 0.30788 0.95441 0.18933
 H1843 H 0.26739 0.92464 0.19785
 H1844 H 0.29152 0.92777 0.17101
 C1845 C 0.78331 0.42876 0.19444
 C1846 C 0.80046 0.43009 0.18472
 C1847 C 0.80654 0.41376 0.19367
 C1848 C 0.78952 0.41222 0.20325
 C1849 C 0.79104 0.43920 0.20908
 C1850 C 0.79713 0.42286 0.21801
 C1851 C 0.80806 0.44076 0.19950
 C1852 C 0.81428 0.42420 0.20831
 C1853 C 0.81502 0.39941 0.18524
 C1854 C 0.82184 0.38743 0.17845
 C1855 C 0.78227 0.45319 0.21781
 C1856 C 0.77490 0.46450 0.22515
 H1857 H 0.77047 0.43080 0.18883
 H1858 H 0.80192 0.43290 0.17094
 H1859 H 0.78199 0.40033 0.20470
 H1860 H 0.79567 0.42004 0.23179
 H1861 H 0.81558 0.45266 0.19806
 H1862 H 0.82711 0.42216 0.21392
 C1863 C 0.78921 0.93576 0.69040
 C1864 C 0.80876 0.93286 0.68999
 C1865 C 0.80582 0.91394 0.69414
 C1866 C 0.78641 0.91662 0.69441
 C1867 C 0.79037 0.93938 0.70960
 C1868 C 0.78744 0.92045 0.71374
 C1869 C 0.80978 0.93671 0.70933
 C1870 C 0.80697 0.91756 0.71334
 C1871 C 0.81428 0.89960 0.68567
 C1872 C 0.82109 0.88763 0.67886
 C1873 C 0.78162 0.95336 0.71837
 C1874 C 0.77428 0.96468 0.72572
 H1875 H 0.78181 0.94340 0.68107
 H1876 H 0.81762 0.93779 0.68013
 H1877 H 0.77690 0.90821 0.68819
 H1878 H 0.77859 0.91550 0.72360
 H1879 H 0.81928 0.94512 0.71557
 H1880 H 0.81437 0.90992 0.72267
 C1881 C 0.71676 0.57025 0.69428
 C1882 C 0.69903 0.56921 0.68562
 C1883 C 0.69403 0.58604 0.69432
 C1884 C 0.71162 0.58729 0.70284
 C1885 C 0.70954 0.56058 0.70970
 C1886 C 0.70453 0.57741 0.71838
 C1887 C 0.69195 0.55931 0.70118
 C1888 C 0.68681 0.57637 0.70974
 C1889 C 0.68555 0.60038 0.68590
 C1890 C 0.67872 0.61236 0.67911
 C1891 C 0.71833 0.54659 0.71841
 C1892 C 0.72570 0.53526 0.72572
 H1893 H 0.72917 0.56758 0.68802
 H1894 H 0.69668 0.56601 0.67205
 H1895 H 0.71962 0.59895 0.70343
 H1896 H 0.70689 0.58063 0.73195
 H1897 H 0.68397 0.54765 0.70060
 H1898 H 0.67440 0.57904 0.71600
 C1899 C 0.71689 0.07003 0.19381
 C1900 C 0.69918 0.06899 0.18513
 C1901 C 0.69420 0.08586 0.19374
 C1902 C 0.71177 0.08712 0.20229
 C1903 C 0.70963 0.06044 0.20926
 C1904 C 0.70464 0.07732 0.21786
 C1905 C 0.69205 0.05917 0.20072
 C1906 C 0.68693 0.07628 0.20919
 C1907 C 0.68575 0.10019 0.18526
 C1908 C 0.67894 0.11216 0.17843
 C1909 C 0.71837 0.04647 0.21805
 C1910 C 0.72569 0.03516 0.22543
 H1911 H 0.72931 0.06731 0.18758
 H1912 H 0.69684 0.06573 0.17157
 H1913 H 0.71979 0.09876 0.20284
 H1914 H 0.70698 0.08060 0.23142
 H1915 H 0.68404 0.04752 0.20017
 H1916 H 0.67452 0.07900 0.21542
 C1917 C 0.19156 0.56753 0.21398
 C1918 C 0.19845 0.58600 0.21286
 C1919 C 0.19396 0.58628 0.19381
 C1920 C 0.18694 0.56803 0.19479
 C1921 C 0.20937 0.56084 0.20930
 C1922 C 0.20490 0.56111 0.19025
 C1923 C 0.21638 0.57910 0.20830
 C1924 C 0.21177 0.57960 0.18913
 C1925 C 0.18552 0.60063 0.18533
 C1926 C 0.17873 0.61261 0.17852
 C1927 C 0.21811 0.54686 0.21808
 C1928 C 0.22544 0.53554 0.22545
 H1929 H 0.18335 0.56241 0.22430
 H1930 H 0.19570 0.59639 0.22206
 H1931 H 0.17474 0.56364 0.18914
 H1932 H 0.20765 0.55071 0.18105
 H1933 H 0.22858 0.58351 0.21395
 H1934 H 0.21999 0.58472 0.17881
 C1935 C 0.21651 0.07014 0.69438
 C1936 C 0.19879 0.06911 0.68570
 C1937 C 0.19380 0.08595 0.69438
 C1938 C 0.21138 0.08719 0.70292
 C1939 C 0.20926 0.06050 0.70980
 C1940 C 0.20427 0.07734 0.71846
 C1941 C 0.19168 0.05924 0.70127
 C1942 C 0.18655 0.07631 0.70980
 C1943 C 0.18534 0.10030 0.68594
 C1944 C 0.17853 0.11228 0.67913
 C1945 C 0.21803 0.04650 0.71853
 C1946 C 0.22539 0.03517 0.72585
 H1947 H 0.22892 0.06745 0.68813
 H1948 H 0.19644 0.06590 0.67213
 H1949 H 0.21939 0.09884 0.70350
 H1950 H 0.20661 0.08057 0.73203
 H1951 H 0.18368 0.04758 0.70069
 H1952 H 0.17414 0.07900 0.71605
 C1953 C 0.29192 0.57907 0.28340
 C1954 C 0.28709 0.58619 0.30115
 C1955 C 0.30608 0.58635 0.30597
 C1956 C 0.31103 0.57944 0.28834
 C1957 C 0.29064 0.56089 0.29058
 C1958 C 0.30963 0.56103 0.29539
 C1959 C 0.28569 0.56780 0.30821
 C1960 C 0.30482 0.56817 0.31317
 C1961 C 0.31452 0.60070 0.31440
 C1962 C 0.32131 0.61269 0.32118
 C1963 C 0.28190 0.54689 0.28186
 C1964 C 0.27455 0.53557 0.27454
 H1965 H 0.28652 0.58340 0.27106
 H1966 H 0.27792 0.59669 0.30361
 H1967 H 0.32154 0.58438 0.28026
 H1968 H 0.31880 0.55053 0.29293
 H1969 H 0.27518 0.56285 0.31629
 H1970 H 0.31022 0.56386 0.32551
 C1971 C 0.28834 0.07921 0.78632
 C1972 C 0.28679 0.08344 0.80552
 C1973 C 0.30622 0.08573 0.80634
 C1974 C 0.30790 0.08172 0.78726
 C1975 C 0.29077 0.06032 0.79089
 C1976 C 0.31021 0.06260 0.79170
 C1977 C 0.28909 0.06433 0.80997
 C1978 C 0.30867 0.06684 0.81093
 C1979 C 0.31468 0.10006 0.81479
 C1980 C 0.32148 0.11203 0.82160
 C1981 C 0.28201 0.04635 0.78214
 C1982 C 0.27465 0.03505 0.77479
 H1983 H 0.27988 0.08415 0.77610
 H1984 H 0.27725 0.09216 0.81130
 H1985 H 0.31573 0.08902 0.77801
 H1986 H 0.31974 0.05388 0.78592
 H1987 H 0.28126 0.05702 0.81922
 H1988 H 0.31713 0.06192 0.82115
 C1989 C 0.79070 0.57900 0.78458
 C1990 C 0.78713 0.58491 0.80306
 C1991 C 0.80643 0.58587 0.80622
 C1992 C 0.81013 0.58017 0.78787
 C1993 C 0.79099 0.56043 0.79081
 C1994 C 0.81030 0.56138 0.79396
 C1995 C 0.78729 0.56613 0.80916
 C1996 C 0.80674 0.56731 0.81246
 C1997 C 0.81488 0.60022 0.81466
 C1998 C 0.82167 0.61220 0.82145
 C1999 C 0.78224 0.54645 0.78206
 C2000 C 0.77489 0.53514 0.77472
 H2001 H 0.78400 0.58367 0.77302
 H2002 H 0.77769 0.59475 0.80689
 H2003 H 0.81961 0.58610 0.77920
 H2004 H 0.81973 0.55154 0.79012
 H2005 H 0.77780 0.56020 0.81782
 H2006 H 0.81344 0.56266 0.82403
 C2007 C 0.78854 0.07929 0.28598
 C2008 C 0.78703 0.08354 0.30519
 C2009 C 0.80647 0.08583 0.30596
 C2010 C 0.80810 0.08178 0.28688
 C2011 C 0.79097 0.06040 0.29058
 C2012 C 0.81041 0.06267 0.29134
 C2013 C 0.78933 0.06444 0.30966
 C2014 C 0.80891 0.06694 0.31057
 C2015 C 0.81495 0.10016 0.31439
 C2016 C 0.82177 0.11213 0.32117
 C2017 C 0.78218 0.04643 0.28186
 C2018 C 0.77480 0.03512 0.27455
 H2019 H 0.78007 0.08423 0.27578
 H2020 H 0.77752 0.09228 0.31097
 H2021 H 0.81592 0.08907 0.27761
 H2022 H 0.81992 0.05393 0.28555
 H2023 H 0.78151 0.05715 0.31893
 H2024 H 0.81739 0.06203 0.32078
 C2025 C 0.71152 0.43479 0.30912
 C2026 C 0.69193 0.43254 0.31046
 C2027 C 0.69399 0.41370 0.30551
 C2028 C 0.71344 0.41572 0.30430
 C2029 C 0.70950 0.43915 0.29014
 C2030 C 0.71155 0.42030 0.28521
 C2031 C 0.69005 0.43714 0.29134
 C2032 C 0.69198 0.41807 0.28653
 C2033 C 0.68551 0.39935 0.31392
 C2034 C 0.67869 0.38738 0.32071
 C2035 C 0.71829 0.45314 0.28144
 C2036 C 0.72566 0.46446 0.27413
 H2037 H 0.71965 0.44182 0.31831
 H2038 H 0.68376 0.43741 0.32093
 H2039 H 0.72296 0.40676 0.30973
 H2040 H 0.71971 0.41542 0.27473
 H2041 H 0.68053 0.44610 0.28591
 H2042 H 0.68385 0.41104 0.27734
 C2043 C 0.71116 0.93517 0.80999
 C2044 C 0.69157 0.93291 0.81136
 C2045 C 0.69365 0.91406 0.80645
 C2046 C 0.71309 0.91610 0.80522
 C2047 C 0.70911 0.93949 0.79100
 C2048 C 0.71117 0.92063 0.78611
 C2049 C 0.68966 0.93745 0.79223
 C2050 C 0.69161 0.91838 0.78747
 C2051 C 0.68520 0.89972 0.81490
 C2052 C 0.67839 0.88774 0.82170
 C2053 C 0.71786 0.95346 0.78224
 C2054 C 0.72521 0.96476 0.77489
 H2055 H 0.71930 0.94224 0.81915
 H2056 H 0.68342 0.93779 0.82184
 H2057 H 0.72264 0.90716 0.81065
 H2058 H 0.71932 0.91573 0.77564
 H2059 H 0.68013 0.94639 0.78680
 H2060 H 0.68347 0.91132 0.77831
 C2061 C 0.19670 0.42715 0.78242
 C2062 C 0.20582 0.41202 0.79126
 C2063 C 0.19379 0.41403 0.80658
 C2064 C 0.18454 0.42895 0.79788
 C2065 C 0.20921 0.43946 0.79109
 C2066 C 0.19719 0.44149 0.80642
 C2067 C 0.21845 0.42454 0.79980
 C2068 C 0.20630 0.42634 0.81526
 C2069 C 0.18536 0.39969 0.81505
 C2070 C 0.17856 0.38772 0.82186
 C2071 C 0.21794 0.45344 0.78231
 C2072 C 0.22527 0.46474 0.77494
 H2073 H 0.19285 0.42763 0.76882
 H2074 H 0.20928 0.39975 0.78511
 H2075 H 0.17050 0.43060 0.79718
 H2076 H 0.19374 0.45377 0.81255
 H2077 H 0.23249 0.42288 0.80050
 H2078 H 0.21015 0.42585 0.82886
 C2079 C 0.21124 0.93559 0.30945
 C2080 C 0.19165 0.93334 0.31082
 C2081 C 0.19371 0.91450 0.30588
 C2082 C 0.21315 0.91652 0.30465
 C2083 C 0.20919 0.93994 0.29047
 C2084 C 0.21123 0.92108 0.28555
 C2085 C 0.18974 0.93792 0.29170
 C2086 C 0.19166 0.91885 0.28691
 C2087 C 0.18524 0.90015 0.31432
 C2088 C 0.17843 0.88818 0.32111
 C2089 C 0.21796 0.95392 0.28175
 C2090 C 0.22534 0.96523 0.27443
 H2091 H 0.21939 0.94263 0.31862
 H2092 H 0.18350 0.93822 0.32131
 H2093 H 0.22269 0.90757 0.31006
 H2094 H 0.21938 0.91619 0.27506
 H2095 H 0.18022 0.94688 0.28629
 H2096 H 0.18352 0.91181 0.27774
 C2097 C 0.43936 0.29641 0.69069
 C2098 C 0.42126 0.28887 0.68828
 C2099 C 0.41359 0.30598 0.69395
 C2100 C 0.43146 0.31367 0.69623
 C2101 C 0.43906 0.29053 0.70936
 C2102 C 0.43139 0.30764 0.71504
 C2103 C 0.42119 0.28285 0.70707
 C2104 C 0.41331 0.30008 0.71262
 C2105 C 0.39923 0.31443 0.68553
 C2106 C 0.38724 0.32124 0.67874
 C2107 C 0.45307 0.28178 0.71808
 C2108 C 0.46440 0.27443 0.72541
 H2109 H 0.45023 0.29481 0.68177
 H2110 H 0.41694 0.28124 0.67718
 H2111 H 0.43551 0.32644 0.69168
 H2112 H 0.43572 0.31526 0.72614
 H2113 H 0.41712 0.27008 0.71162
 H2114 H 0.40245 0.30168 0.72155
 C2115 C 0.43564 0.78985 0.18991
 C2116 C 0.41650 0.78719 0.19403
 C2117 C 0.41393 0.80661 0.19364
 C2118 C 0.43284 0.80942 0.18938
 C2119 C 0.43935 0.79112 0.20908
 C2120 C 0.43678 0.81054 0.20870
 C2121 C 0.42043 0.78832 0.21333
 C2122 C 0.41765 0.80786 0.21281
 C2123 C 0.39959 0.81508 0.18519
 C2124 C 0.38762 0.82190 0.17839
 C2125 C 0.45332 0.78234 0.21784
 C2126 C 0.46462 0.77497 0.22519
 H2127 H 0.44319 0.78235 0.18059
 H2128 H 0.40801 0.77768 0.18790
 H2129 H 0.43777 0.81819 0.17944
 H2130 H 0.44528 0.82004 0.21483
 H2131 H 0.41548 0.77955 0.22327
 H2132 H 0.41009 0.81537 0.22214
 C2133 C 0.93619 0.28913 0.19008
 C2134 C 0.91706 0.28642 0.19418
 C2135 C 0.91444 0.30583 0.19380
 C2136 C 0.93335 0.30868 0.18956
 C2137 C 0.93988 0.29039 0.20926
 C2138 C 0.93727 0.30981 0.20889
 C2139 C 0.92096 0.28755 0.21348
 C2140 C 0.91813 0.30709 0.21297
 C2141 C 0.90010 0.31429 0.18533
 C2142 C 0.88813 0.32110 0.17852
 C2143 C 0.95386 0.28164 0.21803
 C2144 C 0.96518 0.27430 0.22538
 H2145 H 0.94377 0.28164 0.18077
 H2146 H 0.90859 0.27690 0.18804
 H2147 H 0.93828 0.31747 0.17963
 H2148 H 0.94574 0.31932 0.21503
 H2149 H 0.91601 0.27877 0.22341
 H2150 H 0.91055 0.31457 0.22229
 C2151 C 0.93769 0.79270 0.68992
 C2152 C 0.91872 0.78737 0.69120
 C2153 C 0.91384 0.80615 0.69392
 C2154 C 0.93259 0.81163 0.69250
 C2155 C 0.93932 0.79071 0.70932
 C2156 C 0.93444 0.80949 0.71205
 C2157 C 0.92056 0.78525 0.71073
 C2158 C 0.91547 0.80415 0.71332
 C2159 C 0.89947 0.81460 0.68550
 C2160 C 0.88747 0.82140 0.67872
 C2161 C 0.95332 0.78197 0.71805
 C2162 C 0.96466 0.77462 0.72538
 H2163 H 0.94699 0.78790 0.68039
 H2164 H 0.91209 0.77837 0.68253
 H2165 H 0.93737 0.82257 0.68491
 H2166 H 0.94107 0.81849 0.72072
 H2167 H 0.91577 0.77431 0.71831
 H2168 H 0.90618 0.80896 0.72286
 C2169 C 0.57596 0.28113 0.29827
 C2170 C 0.58806 0.29422 0.28981
 C2171 C 0.58613 0.30579 0.30548
 C2172 C 0.57423 0.29283 0.31407
 C2173 C 0.56069 0.29031 0.29011
 C2174 C 0.55874 0.30188 0.30578
 C2175 C 0.57260 0.30328 0.28152
 C2176 C 0.57088 0.31499 0.29733
 C2177 C 0.60047 0.31427 0.31391
 C2178 C 0.61244 0.32108 0.32070
 C2179 C 0.54671 0.28153 0.28140
 C2180 C 0.53539 0.27416 0.27409
 H2181 H 0.57789 0.26711 0.29856
 H2182 H 0.60027 0.29116 0.28334
 H2183 H 0.57507 0.28863 0.32755
 H2184 H 0.54653 0.30493 0.31224
 H2185 H 0.57177 0.30748 0.26804
 H2186 H 0.56895 0.32901 0.29704
 C2187 C 0.56535 0.78794 0.80960
 C2188 C 0.58431 0.78686 0.80417
 C2189 C 0.58580 0.80627 0.80638
 C2190 C 0.56706 0.80748 0.81195
 C2191 C 0.56039 0.79085 0.79089
 C2192 C 0.56187 0.81026 0.79309
 C2193 C 0.57914 0.78965 0.78534
 C2194 C 0.58084 0.80918 0.78767
 C2195 C 0.60014 0.81470 0.81484
 C2196 C 0.61211 0.82150 0.82165
 C2197 C 0.54642 0.78211 0.78212
 C2198 C 0.53512 0.77478 0.77475
 H2199 H 0.55882 0.77910 0.81853
 H2200 H 0.59369 0.77733 0.80882
 H2201 H 0.56226 0.81492 0.82299
 H2202 H 0.55248 0.81978 0.78844
 H2203 H 0.58395 0.78222 0.77430
 H2204 H 0.58736 0.81800 0.77874
 C2205 C 0.07339 0.30267 0.78223
 C2206 C 0.07152 0.31555 0.79708
 C2207 C 0.08594 0.30629 0.80658
 C2208 C 0.08801 0.29355 0.79186
 C2209 C 0.06050 0.29089 0.79111
 C2210 C 0.07492 0.28165 0.80061
 C2211 C 0.05841 0.30363 0.80583
 C2212 C 0.07306 0.29451 0.81547
 C2213 C 0.10028 0.31471 0.81505
 C2214 C 0.11226 0.32150 0.82185
 C2215 C 0.04653 0.28217 0.78233
 C2216 C 0.03522 0.27484 0.77497
 H2217 H 0.07338 0.30593 0.76847
 H2218 H 0.07029 0.32958 0.79573
 H2219 H 0.10034 0.28949 0.78621
 H2220 H 0.07617 0.26761 0.80196
 H2221 H 0.04607 0.30768 0.81147
 H2222 H 0.07308 0.29125 0.82923
 C2223 C 0.07335 0.80286 0.28146
 C2224 C 0.07146 0.81576 0.29630
 C2225 C 0.08592 0.80657 0.30579
 C2226 C 0.08802 0.79381 0.29109
 C2227 C 0.06052 0.79105 0.29038
 C2228 C 0.07499 0.78188 0.29988
 C2229 C 0.05840 0.80381 0.30508
 C2230 C 0.07310 0.79476 0.31472
 C2231 C 0.10024 0.81505 0.31423
 C2232 C 0.11220 0.82188 0.32104
 C2233 C 0.04656 0.78226 0.28166
 C2234 C 0.03526 0.77487 0.27434
 H2235 H 0.07330 0.80610 0.26770
 H2236 H 0.07017 0.82979 0.29492
 H2237 H 0.10036 0.78979 0.28543
 H2238 H 0.07629 0.76785 0.30126
 H2239 H 0.04606 0.80782 0.31073
 H2240 H 0.07316 0.79153 0.32848
 C2241 C 0.56106 0.70525 0.69059
 C2242 C 0.57964 0.71191 0.68983
 C2243 C 0.58604 0.69395 0.69433
 C2244 C 0.56768 0.68714 0.69496
 C2245 C 0.56058 0.70945 0.70971
 C2246 C 0.56698 0.69149 0.71421
 C2247 C 0.57894 0.71624 0.70906
 C2248 C 0.58555 0.69815 0.71344
 C2249 C 0.60039 0.68547 0.68591
 C2250 C 0.61237 0.67865 0.67912
 C2251 C 0.54658 0.71823 0.71841
 C2252 C 0.53525 0.72561 0.72572
 H2253 H 0.55082 0.70827 0.68130
 H2254 H 0.58500 0.72022 0.67971
 H2255 H 0.56322 0.67508 0.68906
 H2256 H 0.56161 0.68318 0.72433
 H2257 H 0.58342 0.72830 0.71495
 H2258 H 0.59577 0.69514 0.72274
 C2259 C 0.57752 0.20399 0.21757
 C2260 C 0.57651 0.18629 0.20890
 C2261 C 0.58614 0.19356 0.19348
 C2262 C 0.58735 0.21114 0.20203
 C2263 C 0.56066 0.20897 0.20892
 C2264 C 0.57029 0.21624 0.19350
 C2265 C 0.55943 0.19139 0.20037
 C2266 C 0.56929 0.19853 0.18481
 C2267 C 0.60051 0.18513 0.18503
 C2268 C 0.61251 0.17835 0.17825
 C2269 C 0.54666 0.21769 0.21768
 C2270 C 0.53534 0.22502 0.22504
 H2271 H 0.58075 0.20633 0.23114
 H2272 H 0.57924 0.17387 0.21513
 H2273 H 0.59898 0.21917 0.20262
 H2274 H 0.56757 0.22865 0.18727
 H2275 H 0.54779 0.18337 0.19979
 H2276 H 0.56607 0.19618 0.17124
 C2277 C 0.06281 0.70858 0.18977
 C2278 C 0.08189 0.71322 0.19187
 C2279 C 0.08610 0.69418 0.19373
 C2280 C 0.06724 0.68939 0.19150
 C2281 C 0.06065 0.70960 0.20920
 C2282 C 0.06486 0.69055 0.21107
 C2283 C 0.07952 0.71437 0.21142
 C2284 C 0.08394 0.69520 0.21316
 C2285 C 0.10045 0.68573 0.18527
 C2286 C 0.11244 0.67893 0.17847
 C2287 C 0.04666 0.71833 0.21797
 C2288 C 0.03534 0.72567 0.22533
 H2289 H 0.05396 0.71418 0.18026
 H2290 H 0.08905 0.72245 0.18388
 H2291 H 0.06236 0.67902 0.18321
 H2292 H 0.05770 0.68133 0.21906
 H2293 H 0.08442 0.72474 0.21971
 H2294 H 0.09279 0.68961 0.22268
 C2295 C 0.06372 0.20995 0.69053
 C2296 C 0.08288 0.21333 0.69395
 C2297 C 0.08600 0.19400 0.69442
 C2298 C 0.06706 0.19047 0.69087
 C2299 C 0.06058 0.20952 0.70985
 C2300 C 0.06369 0.19018 0.71033
 C2301 C 0.07952 0.21303 0.71338
 C2302 C 0.08285 0.19357 0.71373
 C2303 C 0.10033 0.18550 0.68597
 C2304 C 0.11229 0.17867 0.67917
 C2305 C 0.04660 0.21831 0.71858
 C2306 C 0.03529 0.22569 0.72590
 H2307 H 0.05570 0.21678 0.68109
 H2308 H 0.09092 0.22276 0.68712
 H2309 H 0.06211 0.18109 0.68151
 H2310 H 0.05564 0.18076 0.71716
 H2311 H 0.08449 0.22241 0.72274
 H2312 H 0.09087 0.18675 0.72318
 C2313 C 0.44135 0.69517 0.30330
 C2314 C 0.42811 0.70399 0.31504
 C2315 C 0.41381 0.69430 0.30583
 C2316 C 0.42681 0.68534 0.29424
 C2317 C 0.43924 0.70975 0.29039
 C2318 C 0.42493 0.70005 0.28120
 C2319 C 0.42624 0.71869 0.30199
 C2320 C 0.41172 0.70887 0.29292
 C2321 C 0.39947 0.68584 0.31429
 C2322 C 0.38750 0.67903 0.32110
 C2323 C 0.45322 0.71850 0.28164
 C2324 C 0.46454 0.72584 0.27429
 H2325 H 0.45369 0.68964 0.30747
 H2326 H 0.42926 0.70551 0.32905
 H2327 H 0.42688 0.67153 0.29115
 H2328 H 0.42377 0.69853 0.26718
 H2329 H 0.42615 0.73250 0.30508
 H2330 H 0.39938 0.71442 0.28874
 C2331 C 0.44132 0.19757 0.80633
 C2332 C 0.42588 0.20662 0.81470
 C2333 C 0.41393 0.19367 0.80617
 C2334 C 0.42915 0.18447 0.79793
 C2335 C 0.43931 0.20916 0.79067
 C2336 C 0.42736 0.19620 0.78214
 C2337 C 0.42409 0.21834 0.79891
 C2338 C 0.41194 0.20526 0.79051
 C2339 C 0.39963 0.18519 0.81465
 C2340 C 0.38768 0.17837 0.82148
 C2341 C 0.45326 0.21793 0.78189
 C2342 C 0.46454 0.22530 0.77452
 H2343 H 0.45357 0.19451 0.81273
 H2344 H 0.42510 0.21081 0.82819
 H2345 H 0.43106 0.17045 0.79762
 H2346 H 0.42813 0.19201 0.76866
 H2347 H 0.42216 0.23236 0.79922
 H2348 H 0.39970 0.20833 0.78410
 C2349 C 0.92144 0.70753 0.78319
 C2350 C 0.92136 0.68856 0.78870
 C2351 C 0.91408 0.69389 0.80608
 C2352 C 0.91396 0.71273 0.80069
 C2353 C 0.93948 0.70936 0.79060
 C2354 C 0.93220 0.71469 0.80797
 C2355 C 0.93962 0.69053 0.79598
 C2356 C 0.93211 0.69572 0.81350
 C2357 C 0.89976 0.68542 0.81455
 C2358 C 0.88781 0.67860 0.82136
 C2359 C 0.95344 0.71813 0.78183
 C2360 C 0.96474 0.72549 0.77447
 H2361 H 0.91721 0.71248 0.77064
 H2362 H 0.91675 0.67773 0.78087
 H2363 H 0.90325 0.72176 0.80272
 H2364 H 0.93682 0.72554 0.81580
 H2365 H 0.95034 0.68150 0.79394
 H2366 H 0.93634 0.69076 0.82605
 C2367 C 0.92115 0.21026 0.28494
 C2368 C 0.91944 0.19072 0.28723
 C2369 C 0.91444 0.19358 0.30593
 C2370 C 0.91594 0.21300 0.30377
 C2371 C 0.93989 0.20903 0.29052
 C2372 C 0.93489 0.21190 0.30922
 C2373 C 0.93839 0.18962 0.29267
 C2374 C 0.93317 0.19235 0.31153
 C2375 C 0.90008 0.18514 0.31437
 C2376 C 0.88810 0.17834 0.32116
 C2377 C 0.95388 0.21779 0.28178
 C2378 C 0.96519 0.22515 0.27445
 H2379 H 0.91636 0.21772 0.27391
 H2380 H 0.91292 0.18192 0.27827
 H2381 H 0.90655 0.22252 0.30842
 H2382 H 0.94140 0.22071 0.31817
 H2383 H 0.94778 0.18011 0.28801
 H2384 H 0.93794 0.18488 0.32256
 C2385 C 0.28603 0.28759 0.57980
 C2386 C 0.30536 0.28652 0.58371
 C2387 C 0.30566 0.30593 0.58631
 C2388 C 0.28646 0.30713 0.58261
 C2389 C 0.29025 0.29045 0.56090
 C2390 C 0.29054 0.30986 0.56349
 C2391 C 0.30945 0.28924 0.56459
 C2392 C 0.30989 0.30880 0.56741
 C2393 C 0.31410 0.31440 0.60063
 C2394 C 0.32090 0.32122 0.61259
 C2395 C 0.28151 0.28167 0.54693
 C2396 C 0.27418 0.27431 0.53563
 H2397 H 0.27613 0.27878 0.58475
 H2398 H 0.31154 0.27701 0.59217
 H2399 H 0.27710 0.31458 0.59018
 H2400 H 0.28435 0.31936 0.55502
 H2401 H 0.31880 0.28179 0.55702
 H2402 H 0.31979 0.31762 0.56248
 C2403 C 0.30521 0.80413 0.05840
 C2404 C 0.29634 0.81582 0.07163
 C2405 C 0.30610 0.80665 0.08591
 C2406 C 0.31511 0.79509 0.07291
 C2407 C 0.29071 0.79113 0.06051
 C2408 C 0.30047 0.78197 0.07480
 C2409 C 0.28171 0.80269 0.07351
 C2410 C 0.29160 0.79365 0.08801
 C2411 C 0.31453 0.81513 0.10024
 C2412 C 0.32132 0.82195 0.11220
 C2413 C 0.28199 0.78234 0.04655
 C2414 C 0.27468 0.77495 0.03525
 H2415 H 0.31070 0.80834 0.04606
 H2416 H 0.29473 0.82984 0.07049
 H2417 H 0.32894 0.79207 0.07283
 H2418 H 0.30208 0.76795 0.07595
 H2419 H 0.26788 0.80572 0.07361
 H2420 H 0.28610 0.78943 0.10034
 C2421 C 0.80565 0.30347 0.05844
 C2422 C 0.79684 0.31515 0.07172
 C2423 C 0.80660 0.30591 0.08596
 C2424 C 0.81556 0.29437 0.07291
 C2425 C 0.79112 0.29051 0.06054
 C2426 C 0.80089 0.28128 0.07479
 C2427 C 0.78218 0.30205 0.07360
 C2428 C 0.79208 0.29294 0.08805
 C2429 C 0.81507 0.31434 0.10029
 C2430 C 0.82188 0.32113 0.11226
 C2431 C 0.78235 0.28178 0.04657
 C2432 C 0.77499 0.27446 0.03527
 H2433 H 0.81113 0.30770 0.04610
 H2434 H 0.79527 0.32918 0.07063
 H2435 H 0.82938 0.29131 0.07279
 H2436 H 0.80246 0.26725 0.07589
 H2437 H 0.76836 0.30511 0.07373
 H2438 H 0.78659 0.28870 0.10037
 C2439 C 0.80487 0.80368 0.55880
 C2440 C 0.79603 0.81535 0.57208
 C2441 C 0.80582 0.80613 0.58632
 C2442 C 0.81479 0.79460 0.57327
 C2443 C 0.79036 0.79069 0.56091
 C2444 C 0.80015 0.78148 0.57516
 C2445 C 0.78140 0.80222 0.57396
 C2446 C 0.79132 0.79314 0.58841
 C2447 C 0.81428 0.81458 0.60064
 C2448 C 0.82109 0.82139 0.61260
 C2449 C 0.78161 0.78193 0.54695
 C2450 C 0.77427 0.77458 0.53565
 H2451 H 0.81034 0.80791 0.54646
 H2452 H 0.79443 0.82937 0.57097
 H2453 H 0.82862 0.79157 0.57315
 H2454 H 0.80175 0.76746 0.57628
 H2455 H 0.76757 0.80525 0.57409
 H2456 H 0.78584 0.78890 0.60075
 C2457 C 0.30512 0.69694 0.44114
 C2458 C 0.29635 0.68507 0.42801
 C2459 C 0.30592 0.69430 0.41363
 C2460 C 0.31483 0.70603 0.42652
 C2461 C 0.29043 0.70974 0.43904
 C2462 C 0.30000 0.71896 0.42465
 C2463 C 0.28154 0.69801 0.42614
 C2464 C 0.29123 0.70710 0.41155
 C2465 C 0.31439 0.68584 0.39930
 C2466 C 0.32121 0.67904 0.38734
 C2467 C 0.28166 0.71848 0.45301
 C2468 C 0.27428 0.72581 0.46431
 H2469 H 0.31073 0.69286 0.45346
 H2470 H 0.29495 0.67104 0.42922
 H2471 H 0.32861 0.70923 0.42652
 H2472 H 0.30141 0.73299 0.42343
 H2473 H 0.26775 0.69481 0.42613
 H2474 H 0.28561 0.71119 0.39923
 C2475 C 0.28647 0.21177 0.92067
 C2476 C 0.30575 0.21301 0.91663
 C2477 C 0.30626 0.19358 0.91414
 C2478 C 0.28709 0.19222 0.91796
 C2479 C 0.29082 0.20906 0.93956
 C2480 C 0.29132 0.18964 0.93707
 C2481 C 0.30999 0.21043 0.93574
 C2482 C 0.31062 0.19086 0.93302
 C2483 C 0.31470 0.18512 0.89980
 C2484 C 0.32150 0.17831 0.88783
 C2485 C 0.28207 0.21783 0.95353
 C2486 C 0.27473 0.22519 0.96483
 H2487 H 0.27644 0.22046 0.91573
 H2488 H 0.31178 0.22252 0.90807
 H2489 H 0.27777 0.18464 0.91050
 H2490 H 0.28528 0.18013 0.94563
 H2491 H 0.31930 0.21801 0.94321
 H2492 H 0.32066 0.18217 0.93794
 C2493 C 0.80538 0.69633 0.94144
 C2494 C 0.79664 0.68448 0.92828
 C2495 C 0.80622 0.69373 0.91393
 C2496 C 0.81510 0.70545 0.92685
 C2497 C 0.79070 0.70914 0.93934
 C2498 C 0.80028 0.71838 0.92498
 C2499 C 0.78182 0.69742 0.92641
 C2500 C 0.79153 0.70654 0.91185
 C2501 C 0.81471 0.68530 0.89960
 C2502 C 0.82154 0.67851 0.88764
 C2503 C 0.78190 0.71786 0.95331
 C2504 C 0.77452 0.72518 0.96462
 H2505 H 0.81098 0.69224 0.95377
 H2506 H 0.79524 0.67045 0.92948
 H2507 H 0.82889 0.70865 0.92687
 H2508 H 0.80168 0.73241 0.92378
 H2509 H 0.76803 0.69422 0.92639
 H2510 H 0.78592 0.71064 0.89953
 C2511 C 0.80555 0.19644 0.44107
 C2512 C 0.79679 0.18457 0.42794
 C2513 C 0.80639 0.19378 0.41357
 C2514 C 0.81528 0.20551 0.42647
 C2515 C 0.79087 0.20925 0.43894
 C2516 C 0.80047 0.21845 0.42456
 C2517 C 0.78199 0.19752 0.42603
 C2518 C 0.79172 0.20659 0.41145
 C2519 C 0.81488 0.18531 0.39926
 C2520 C 0.82171 0.17848 0.38731
 C2521 C 0.78208 0.21801 0.45289
 C2522 C 0.77471 0.22537 0.46417
 H2523 H 0.81113 0.19236 0.45341
 H2524 H 0.79538 0.17054 0.42916
 H2525 H 0.82907 0.20869 0.42649
 H2526 H 0.80189 0.23248 0.42333
 H2527 H 0.76820 0.19433 0.42601
 H2528 H 0.78612 0.21068 0.39912
 C2529 C 0.69319 0.30141 0.44059
 C2530 C 0.70136 0.31510 0.42891
 C2531 C 0.69391 0.30591 0.41331
 C2532 C 0.68560 0.29236 0.42476
 C2533 C 0.70937 0.29051 0.43876
 C2534 C 0.70192 0.28134 0.42316
 C2535 C 0.71768 0.30405 0.42732
 C2536 C 0.71009 0.29501 0.41151
 C2537 C 0.68545 0.31434 0.39896
 C2538 C 0.67865 0.32113 0.38699
 C2539 C 0.71813 0.28178 0.45275
 C2540 C 0.72549 0.27446 0.46407
 H2541 H 0.68634 0.30394 0.45270
 H2542 H 0.70104 0.32907 0.43111
 H2543 H 0.67231 0.28765 0.42354
 H2544 H 0.70224 0.26736 0.42095
 H2545 H 0.73097 0.30877 0.42852
 H2546 H 0.71695 0.29246 0.39940
 C2547 C 0.69346 0.80196 0.94142
 C2548 C 0.70184 0.81517 0.92934
 C2549 C 0.69373 0.80600 0.91407
 C2550 C 0.68521 0.79293 0.92591
 C2551 C 0.70921 0.79048 0.93944
 C2552 C 0.70110 0.78132 0.92416
 C2553 C 0.71773 0.80354 0.92759
 C2554 C 0.70949 0.79451 0.91211
 C2555 C 0.68526 0.81449 0.89976
 C2556 C 0.67844 0.82133 0.88782
 C2557 C 0.71798 0.78169 0.95338
 C2558 C 0.72533 0.77431 0.96467
 H2559 H 0.68696 0.80493 0.95363
 H2560 H 0.70204 0.82918 0.93131
 H2561 H 0.67175 0.78867 0.92506
 H2562 H 0.70089 0.76731 0.92218
 H2563 H 0.73119 0.80781 0.92843
 H2564 H 0.71599 0.79154 0.89990
 C2565 C 0.19169 0.29874 0.94082
 C2566 C 0.19864 0.31453 0.93119
 C2567 C 0.19393 0.30597 0.91423
 C2568 C 0.18684 0.29032 0.92363
 C2569 C 0.20941 0.29047 0.93960
 C2570 C 0.20469 0.28192 0.92263
 C2571 C 0.21649 0.30612 0.93020
 C2572 C 0.21165 0.29770 0.91303
 C2573 C 0.18545 0.31447 0.89992
 C2574 C 0.17863 0.32130 0.88798
 C2575 C 0.21818 0.28169 0.95355
 C2576 C 0.22555 0.27433 0.96484
 H2577 H 0.18358 0.29906 0.95241
 H2578 H 0.19605 0.32804 0.93454
 H2579 H 0.17455 0.28392 0.92077
 H2580 H 0.20728 0.26842 0.91927
 H2581 H 0.22879 0.31252 0.93305
 H2582 H 0.21976 0.29737 0.90144
 C2583 C 0.19924 0.80798 0.44068
 C2584 C 0.20810 0.81440 0.42423
 C2585 C 0.19361 0.80657 0.41365
 C2586 C 0.18461 0.80029 0.42986
 C2587 C 0.20902 0.79107 0.43907
 C2588 C 0.19453 0.78325 0.42848
 C2589 C 0.21800 0.79736 0.42285
 C2590 C 0.20339 0.78967 0.41206
 C2591 C 0.18517 0.81505 0.39932
 C2592 C 0.17838 0.82187 0.38735
 C2593 C 0.21775 0.78229 0.45304
 C2594 C 0.22509 0.77492 0.46434
 H2595 H 0.19764 0.81540 0.45261
 H2596 H 0.21358 0.82730 0.42232
 H2597 H 0.17078 0.80159 0.43258
 H2598 H 0.18904 0.77034 0.43039
 H2599 H 0.23183 0.79606 0.42012
 H2600 H 0.20500 0.78223 0.40014
 C2601 C 0.70737 0.71673 0.57900
 C2602 C 0.68842 0.71118 0.57914
 C2603 C 0.69381 0.69383 0.58646
 C2604 C 0.71262 0.69926 0.58653
 C2605 C 0.70921 0.70927 0.56100
 C2606 C 0.71460 0.69191 0.56832
 C2607 C 0.69039 0.70384 0.56091
 C2608 C 0.69564 0.68634 0.56847
 C2609 C 0.68538 0.68538 0.60082
 C2610 C 0.67859 0.67859 0.61280
 C2611 C 0.71794 0.71802 0.54701
 C2612 C 0.72526 0.72537 0.53569
 H2613 H 0.71228 0.72933 0.58319
 H2614 H 0.67756 0.71901 0.58374
 H2615 H 0.72168 0.69728 0.59722
 H2616 H 0.72546 0.68408 0.56372
 H2617 H 0.68135 0.70583 0.55022
 H2618 H 0.69072 0.67375 0.56430
 C2619 C 0.70253 0.19102 0.05966
 C2620 C 0.71061 0.18721 0.07727
 C2621 C 0.69428 0.19373 0.08591
 C2622 C 0.68605 0.19740 0.06853
 C2623 C 0.70976 0.20920 0.06052
 C2624 C 0.69342 0.21572 0.06916
 C2625 C 0.71796 0.20552 0.07791
 C2626 C 0.70151 0.21191 0.08675
 C2627 C 0.68580 0.18526 0.10022
 C2628 C 0.67897 0.17844 0.11217
 C2629 C 0.71852 0.21797 0.04656
 C2630 C 0.72587 0.22534 0.03527
 H2631 H 0.70305 0.18253 0.04836
 H2632 H 0.71758 0.17539 0.08077
 H2633 H 0.67284 0.19396 0.06483
 H2634 H 0.68645 0.22753 0.06566
 H2635 H 0.73118 0.20896 0.08162
 H2636 H 0.70099 0.22041 0.09805
 C2637 C 0.19356 0.69849 0.05870
 C2638 C 0.20183 0.68500 0.07054
 C2639 C 0.19408 0.69418 0.08600
 C2640 C 0.18567 0.70753 0.07439
 C2641 C 0.20955 0.70963 0.06059
 C2642 C 0.20179 0.71880 0.07606
 C2643 C 0.21795 0.69629 0.07221
 C2644 C 0.21007 0.70533 0.08788
 C2645 C 0.18561 0.68573 0.10033
 C2646 C 0.17880 0.67892 0.11229
 C2647 C 0.21831 0.71838 0.04662
 C2648 C 0.22566 0.72573 0.03531
 H2649 H 0.18687 0.69578 0.04654
 H2650 H 0.20175 0.67101 0.06844
 H2651 H 0.17230 0.71206 0.07545
 H2652 H 0.20187 0.73280 0.07818
 H2653 H 0.23132 0.69176 0.07115
 H2654 H 0.21677 0.70805 0.10003
 C2655 C 0.20726 0.21655 0.57896
 C2656 C 0.18829 0.21107 0.57913
 C2657 C 0.19364 0.19368 0.58642
 C2658 C 0.21247 0.19905 0.58646
 C2659 C 0.20904 0.20910 0.56095
 C2660 C 0.21438 0.19172 0.56824
 C2661 C 0.19020 0.20375 0.56089
 C2662 C 0.19541 0.18622 0.56841
 C2663 C 0.18521 0.18525 0.60078
 C2664 C 0.17843 0.17846 0.61277
 C2665 C 0.21777 0.21784 0.54695
 C2666 C 0.22511 0.22518 0.53563
 H2667 H 0.21223 0.22912 0.58315
 H2668 H 0.17747 0.21893 0.58377
 H2669 H 0.22154 0.19702 0.59713
 H2670 H 0.22521 0.18386 0.56360
 H2671 H 0.18114 0.20578 0.55022
 H2672 H 0.19043 0.17364 0.56424
   
