data_POSCAR
  _audit_creation_date              2014-09-24
  _audit_creation_method            'ToBaCCo'
  _symmetry_space_group_name_H-M    'P1'
  _symmetry_Int_Tables_number       1
  _symmetry_cell_setting            triclinic
  loop_
  _symmetry_equiv_pos_as_xyz
 x,y,z
_cell_length_a 85.2957
_cell_length_b 85.3842
_cell_length_c 85.6331
_cell_angle_alpha 89.959800
_cell_angle_beta 89.967900
_cell_angle_gamma 89.930300
loop_
  _atom_site_label
  _atom_site_type_symbol
  _atom_site_fract_x
  _atom_site_fract_y
  _atom_site_fract_z
N1 N 0.36434 0.32087 0.33208
 N2 N 0.36416 0.33183 0.32127
 C3 C 0.37651 0.32974 0.31167
 C4 C 0.38479 0.31688 0.31686
 C5 C 0.37680 0.31146 0.32975
 H6 H 0.37941 0.33711 0.30182
 H7 H 0.37986 0.30147 0.33691
 Cu8 Cu 0.34798 0.34790 0.32122
 Cu9 Cu 0.34869 0.31983 0.34865
 Cu10 Cu 0.31979 0.34852 0.34855
 N11 N 0.33182 0.36398 0.32118
 N12 N 0.32080 0.36412 0.33194
 C13 C 0.31134 0.37653 0.32957
 C14 C 0.31679 0.38452 0.31669
 C15 C 0.32972 0.37630 0.31156
 H16 H 0.30132 0.37957 0.33670
 H17 H 0.33713 0.37922 0.30175
 N18 N 0.32082 0.33173 0.36434
 N19 N 0.33183 0.32082 0.36439
 C20 C 0.32952 0.31127 0.37671
 C21 C 0.31652 0.31649 0.38471
 C22 C 0.31124 0.32941 0.37664
 H23 H 0.33679 0.30134 0.37974
 H24 H 0.30124 0.33662 0.37961
 H25 H 0.33093 0.33081 0.33647
 H26 H 0.34348 0.34346 0.34901
 N27 N 0.36446 0.82097 -0.16852
 N28 N 0.36420 0.83187 -0.17940
 C29 C 0.37652 0.82977 -0.18905
 C30 C 0.38480 0.81691 -0.18386
 C31 C 0.37691 0.81155 -0.17087
 H32 H 0.37933 0.83707 -0.19899
 H33 H 0.38005 0.80165 -0.16362
 Cu34 Cu 0.34796 0.84788 -0.17942
 Cu35 Cu 0.34889 0.82002 -0.15186
 Cu36 Cu 0.32004 0.84878 -0.15188
 N37 N 0.33191 0.86408 -0.17942
 N38 N 0.32098 0.86432 -0.16856
 C39 C 0.31154 0.87675 -0.17093
 C40 C 0.31692 0.88464 -0.18391
 C41 C 0.32981 0.87638 -0.18908
 H42 H 0.30161 0.87987 -0.16370
 H43 H 0.33713 0.87921 -0.19900
 N44 N 0.32114 0.83203 -0.13604
 N45 N 0.33212 0.82109 -0.13602
 C46 C 0.32985 0.81157 -0.12367
 C47 C 0.31690 0.81683 -0.11562
 C48 C 0.31160 0.82974 -0.12369
 H49 H 0.33710 0.80162 -0.12066
 H50 H 0.30161 0.83695 -0.12071
 H51 H 0.33104 0.83096 -0.16390
 H52 H 0.34375 0.84369 -0.15157
 N53 N 0.86381 0.32116 -0.16836
 N54 N 0.86400 0.33250 -0.17878
 C55 C 0.87689 0.33099 -0.18778
 C56 C 0.88505 0.31801 -0.18269
 C57 C 0.87649 0.31199 -0.17042
 H58 H 0.88002 0.33861 -0.19738
 H59 H 0.87917 0.30165 -0.16362
 Cu60 Cu 0.84711 0.34780 -0.17928
 Cu61 Cu 0.84687 0.31887 -0.15317
 Cu62 Cu 0.82008 0.34963 -0.15113
 N63 N 0.83143 0.36432 -0.17930
 N64 N 0.82090 0.36498 -0.16807
 C65 C 0.81162 0.37753 -0.17036
 C66 C 0.81669 0.38507 -0.18366
 C67 C 0.82925 0.37649 -0.18911
 H68 H 0.80197 0.38093 -0.16289
 H69 H 0.83629 0.37899 -0.19932
 N70 N 0.82125 0.33278 -0.13535
 N71 N 0.83131 0.32101 -0.13622
 C72 C 0.82912 0.31146 -0.12388
 C73 C 0.81715 0.31754 -0.11494
 C74 C 0.81236 0.33098 -0.12246
 H75 H 0.83572 0.30089 -0.12156
 H76 H 0.80305 0.33877 -0.11884
 H77 H 0.82914 0.33170 -0.16388
 H78 H 0.84347 0.34267 -0.15169
 N79 N 0.86389 0.82110 0.33175
 N80 N 0.86363 0.83200 0.32087
 C81 C 0.87596 0.82991 0.31124
 C82 C 0.88426 0.81706 0.31642
 C83 C 0.87635 0.81170 0.32939
 H84 H 0.87879 0.83722 0.30131
 H85 H 0.87951 0.80180 0.33664
 Cu86 Cu 0.84740 0.84800 0.32084
 Cu87 Cu 0.84833 0.82015 0.34842
 Cu88 Cu 0.81951 0.84894 0.34840
 N89 N 0.83138 0.86422 0.32085
 N90 N 0.82046 0.86448 0.33172
 C91 C 0.81104 0.87693 0.32936
 C92 C 0.81644 0.88480 0.31638
 C93 C 0.82930 0.87652 0.31120
 H94 H 0.80114 0.88008 0.33661
 H95 H 0.83663 0.87934 0.30127
 N96 N 0.82060 0.83220 0.36425
 N97 N 0.83157 0.82125 0.36426
 C98 C 0.82931 0.81174 0.37662
 C99 C 0.81638 0.81702 0.38469
 C100 C 0.81108 0.82994 0.37661
 H101 H 0.83655 0.80178 0.37962
 H102 H 0.80111 0.83717 0.37961
 H103 H 0.83048 0.83111 0.33639
 H104 H 0.84322 0.84383 0.34869
 N105 N 0.63578 0.67917 0.33223
 N106 N 0.63594 0.66818 0.32146
 C107 C 0.62363 0.67030 0.31182
 C108 C 0.61544 0.68325 0.31690
 C109 C 0.62339 0.68865 0.32982
 H110 H 0.62076 0.66296 0.30195
 H111 H 0.62031 0.69862 0.33698
 Cu112 Cu 0.65201 0.65202 0.32135
 Cu113 Cu 0.65138 0.68012 0.34880
 Cu114 Cu 0.68016 0.65139 0.34879
 N115 N 0.66819 0.63597 0.32145
 N116 N 0.67920 0.63581 0.33222
 C117 C 0.68869 0.62343 0.32981
 C118 C 0.68328 0.61549 0.31690
 C119 C 0.67031 0.62367 0.31182
 H120 H 0.69867 0.62036 0.33696
 H121 H 0.66295 0.62079 0.30196
 N122 N 0.67912 0.66814 0.36457
 N123 N 0.66815 0.67909 0.36458
 C124 C 0.67043 0.68862 0.37691
 C125 C 0.68338 0.68335 0.38495
 C126 C 0.68866 0.67043 0.37690
 H127 H 0.66318 0.69857 0.37990
 H128 H 0.69864 0.66320 0.37989
 H129 H 0.66910 0.66908 0.33657
 H130 H 0.65647 0.65645 0.34914
 N131 N 0.63581 0.17868 -0.16794
 N132 N 0.63600 0.16770 -0.17873
 C133 C 0.62370 0.16982 -0.18837
 C134 C 0.61544 0.18272 -0.18326
 C135 C 0.62340 0.18813 -0.17035
 H136 H 0.62085 0.16248 -0.19824
 H137 H 0.62034 0.19813 -0.16321
 Cu138 Cu 0.65217 0.15162 -0.17873
 Cu139 Cu 0.65145 0.17972 -0.15138
 Cu140 Cu 0.68031 0.15096 -0.15139
 N141 N 0.66830 0.13550 -0.17874
 N142 N 0.67930 0.13533 -0.16796
 C143 C 0.68880 0.12296 -0.17038
 C144 C 0.68338 0.11503 -0.18330
 C145 C 0.67043 0.12323 -0.18840
 H146 H 0.69882 0.11993 -0.16325
 H147 H 0.66307 0.12038 -0.19827
 N148 N 0.67927 0.16778 -0.13564
 N149 N 0.66829 0.17872 -0.13564
 C150 C 0.67061 0.18829 -0.12335
 C151 C 0.68359 0.18308 -0.11534
 C152 C 0.68886 0.17012 -0.12335
 H153 H 0.66336 0.19825 -0.12037
 H154 H 0.69885 0.16292 -0.12037
 H155 H 0.66923 0.16872 -0.16350
 H156 H 0.65662 0.15608 -0.15096
 N157 N 0.13569 0.67902 -0.16781
 N158 N 0.13596 0.66820 -0.17873
 C159 C 0.12358 0.67028 -0.18827
 C160 C 0.11522 0.68304 -0.18298
 C161 C 0.12316 0.68836 -0.17003
 H162 H 0.12080 0.66307 -0.19827
 H163 H 0.12000 0.69822 -0.16275
 Cu164 Cu 0.15229 0.65227 -0.17932
 Cu165 Cu 0.15143 0.68006 -0.15141
 Cu166 Cu 0.18009 0.65133 -0.15139
 N167 N 0.16817 0.63590 -0.17870
 N168 N 0.17901 0.63560 -0.16777
 C169 C 0.18831 0.62304 -0.16998
 C170 C 0.18296 0.61512 -0.18293
 C171 C 0.17022 0.62352 -0.18824
 H172 H 0.19817 0.61987 -0.16270
 H173 H 0.16299 0.62077 -0.19824
 N174 N 0.17926 0.66821 -0.13578
 N175 N 0.16832 0.67918 -0.13578
 C176 C 0.17071 0.68880 -0.12355
 C177 C 0.18370 0.68356 -0.11555
 C178 C 0.18890 0.67057 -0.12354
 H179 H 0.16348 0.69877 -0.12057
 H180 H 0.19886 0.66332 -0.12055
 H181 H 0.16919 0.66911 -0.16361
 H182 H 0.15632 0.65630 -0.15142
 N183 N 0.13557 0.17893 0.33233
 N184 N 0.13592 0.16818 0.32134
 C185 C 0.12352 0.17023 0.31180
 C186 C 0.11508 0.18290 0.31717
 C187 C 0.12298 0.18821 0.33015
 H188 H 0.12079 0.16306 0.30177
 H189 H 0.11978 0.19803 0.33746
 Cu190 Cu 0.15232 0.15233 0.32068
 Cu191 Cu 0.15129 0.18000 0.34874
 Cu192 Cu 0.18011 0.15141 0.34863
 N193 N 0.16828 0.13604 0.32125
 N194 N 0.17910 0.13574 0.33219
 C195 C 0.18843 0.12320 0.32996
 C196 C 0.18311 0.11530 0.31699
 C197 C 0.17036 0.12368 0.31169
 H198 H 0.19830 0.12004 0.33725
 H199 H 0.16313 0.12091 0.30169
 N200 N 0.17920 0.16823 0.36431
 N201 N 0.16819 0.17913 0.36436
 C202 C 0.17052 0.18871 0.37664
 C203 C 0.18354 0.18351 0.38461
 C204 C 0.18881 0.17058 0.37656
 H205 H 0.16323 0.19862 0.37967
 H206 H 0.19880 0.16336 0.37953
 H207 H 0.16909 0.16921 0.33647
 H208 H 0.15628 0.15627 0.34860
 N209 N 0.63571 0.32108 0.66793
 N210 N 0.63595 0.33193 0.67885
 C211 C 0.62356 0.32986 0.68839
 C212 C 0.61523 0.31709 0.68313
 C213 C 0.62320 0.31174 0.67019
 H214 H 0.62075 0.33711 0.69836
 H215 H 0.62011 0.30183 0.66297
 Cu216 Cu 0.65227 0.34783 0.67944
 Cu217 Cu 0.65144 0.32003 0.65153
 Cu218 Cu 0.68006 0.34876 0.65143
 N219 N 0.66811 0.36421 0.67876
 N220 N 0.67896 0.36449 0.66782
 C221 C 0.68827 0.37701 0.67004
 C222 C 0.68290 0.38496 0.68298
 C223 C 0.67016 0.37659 0.68828
 H224 H 0.69819 0.38012 0.66280
 H225 H 0.66291 0.37938 0.69827
 N226 N 0.67923 0.33186 0.63581
 N227 N 0.66831 0.32090 0.63586
 C228 C 0.67063 0.31134 0.62355
 C229 C 0.68356 0.31659 0.61549
 C230 C 0.68879 0.32956 0.62349
 H231 H 0.66336 0.30142 0.62054
 H232 H 0.69869 0.33684 0.62043
 H233 H 0.66921 0.33103 0.66375
 H234 H 0.65630 0.34380 0.65153
 N235 N 0.63590 0.82087 1.16825
 N236 N 0.63615 0.83177 1.17911
 C237 C 0.62383 0.82969 1.18875
 C238 C 0.61555 0.81684 1.18360
 C239 C 0.62346 0.81147 1.17063
 H240 H 0.62100 0.83700 1.19867
 H241 H 0.62032 0.80158 1.16340
 Cu242 Cu 0.65236 0.84775 1.17913
 Cu243 Cu 0.65146 0.81991 1.15158
 Cu244 Cu 0.68028 0.84864 1.15158
 N245 N 0.66839 0.86391 1.17912
 N246 N 0.67932 0.86415 1.16826
 C247 C 0.68874 0.87656 1.17064
 C248 C 0.68336 0.88445 1.18361
 C249 C 0.67048 0.87620 1.18876
 H250 H 0.69866 0.87970 1.16341
 H251 H 0.66316 0.87903 1.19868
 N252 N 0.67918 0.83192 1.13574
 N253 N 0.66822 0.82099 1.13574
 C254 C 0.67047 0.81150 1.12337
 C255 C 0.68339 0.81677 1.11529
 C256 C 0.68869 0.82966 1.12336
 H257 H 0.66323 0.80156 1.12037
 H258 H 0.69865 0.83689 1.12036
 H259 H 0.66931 0.83084 1.16361
 H260 H 0.65658 0.84359 1.15128
 N261 N 0.13588 0.32098 1.16820
 N262 N 0.13611 0.33190 1.17904
 C263 C 0.12378 0.32985 1.18867
 C264 C 0.11550 0.31699 1.18352
 C265 C 0.12343 0.31159 1.17058
 H266 H 0.12094 0.33717 1.19857
 H267 H 0.12031 0.30168 1.16337
 Cu268 Cu 0.15233 0.34788 1.17903
 Cu269 Cu 0.15146 0.31999 1.15155
 Cu270 Cu 0.18026 0.34875 1.15151
 N271 N 0.16834 0.36406 1.17900
 N272 N 0.17927 0.36430 1.16815
 C273 C 0.18867 0.37673 1.17049
 C274 C 0.18327 0.38464 1.18344
 C275 C 0.17041 0.37638 1.18862
 H276 H 0.19858 0.37986 1.16326
 H277 H 0.16308 0.37921 1.19853
 N278 N 0.17918 0.33199 1.13569
 N279 N 0.16823 0.32105 1.13572
 C280 C 0.17049 0.31155 1.12336
 C281 C 0.18339 0.31682 1.11526
 C282 C 0.18868 0.32973 1.12331
 H283 H 0.16325 0.30160 1.12037
 H284 H 0.19862 0.33697 1.12029
 H285 H 0.16931 0.33094 1.16356
 H286 H 0.15659 0.34365 1.15120
 N287 N 0.13591 0.82094 0.66814
 N288 N 0.13616 0.83183 0.67901
 C289 C 0.12386 0.82973 0.68868
 C290 C 0.11559 0.81687 0.68353
 C291 C 0.12349 0.81153 0.67054
 H292 H 0.12103 0.83702 0.69860
 H293 H 0.12035 0.80163 0.66331
 Cu294 Cu 0.15234 0.84786 0.67898
 Cu295 Cu 0.15142 0.82004 0.65142
 Cu296 Cu 0.18013 0.84887 0.65133
 N297 N 0.16832 0.86407 0.67892
 N298 N 0.17919 0.86437 0.66802
 C299 C 0.18859 0.87680 0.67037
 C300 C 0.18326 0.88464 0.68339
 C301 C 0.17043 0.87634 0.68859
 H302 H 0.19848 0.87996 0.66311
 H303 H 0.16315 0.87912 0.69856
 N304 N 0.17904 0.83215 0.63549
 N305 N 0.16812 0.82117 0.63553
 C306 C 0.17039 0.81167 0.62318
 C307 C 0.18328 0.81698 0.61508
 C308 C 0.18853 0.82991 0.62311
 H309 H 0.16320 0.80168 0.62022
 H310 H 0.19847 0.83715 0.62008
 H311 H 0.16928 0.83102 0.66339
 H312 H 0.15645 0.84374 0.65112
 N313 N 0.36409 0.67927 0.66825
 N314 N 0.36383 0.66836 0.67911
 C315 C 0.37610 0.67047 0.68879
 C316 C 0.38436 0.68336 0.68366
 C317 C 0.37649 0.68871 0.67066
 H318 H 0.37892 0.66317 0.69873
 H319 H 0.37962 0.69862 0.66344
 Cu320 Cu 0.34766 0.65233 0.67907
 Cu321 Cu 0.34859 0.68021 0.65153
 Cu322 Cu 0.31991 0.65133 0.65142
 N323 N 0.33174 0.63604 0.67899
 N324 N 0.32088 0.63576 0.66808
 C325 C 0.31150 0.62330 0.67043
 C326 C 0.31684 0.61542 0.68343
 C327 C 0.32966 0.62373 0.68863
 H328 H 0.30162 0.62015 0.66318
 H329 H 0.33693 0.62094 0.69860
 N330 N 0.32097 0.66810 0.63559
 N331 N 0.33188 0.67909 0.63564
 C332 C 0.32961 0.68862 0.62329
 C333 C 0.31672 0.68332 0.61519
 C334 C 0.31148 0.67037 0.62322
 H335 H 0.33680 0.69861 0.62033
 H336 H 0.30155 0.66312 0.62019
 H337 H 0.33073 0.66919 0.66348
 H338 H 0.34359 0.65651 0.65121
 N339 N 0.36461 0.17875 1.16765
 N340 N 0.36412 0.16815 1.17881
 C341 C 0.37597 0.17077 1.18886
 C342 C 0.38422 0.18362 1.18365
 C343 C 0.37677 0.18845 1.17021
 H344 H 0.37862 0.16371 1.19902
 H345 H 0.38012 0.19806 1.16269
 Cu346 Cu 0.34849 0.15156 1.17859
 Cu347 Cu 0.35010 0.17845 1.15012
 Cu348 Cu 0.31983 0.15144 1.15159
 N349 N 0.33230 0.13553 1.17849
 N350 N 0.32103 0.13567 1.16799
 C351 C 0.31151 0.12335 1.17044
 C352 C 0.31717 0.11512 1.18308
 C353 C 0.33032 0.12309 1.18797
 H354 H 0.30133 0.12050 1.16347
 H355 H 0.33786 0.12000 1.19764
 N356 N 0.32093 0.16827 1.13585
 N357 N 0.33253 0.17850 1.13521
 C358 C 0.33024 0.18809 1.12292
 C359 C 0.31664 0.18359 1.11553
 C360 C 0.31098 0.17107 1.12394
 H361 H 0.33796 0.19752 1.11947
 H362 H 0.30055 0.16435 1.12140
 H363 H 0.33213 0.16888 1.16307
 H364 H 0.34350 0.15492 1.15067
 N365 N 0.86415 0.67919 1.16826
 N366 N 0.86391 0.66828 1.17911
 C367 C 0.87622 0.67037 1.18876
 C368 C 0.88448 0.68324 1.18361
 C369 C 0.87657 0.68861 1.17064
 H370 H 0.87905 0.66305 1.19868
 H371 H 0.87969 0.69853 1.16342
 Cu372 Cu 0.84772 0.65226 1.17912
 Cu373 Cu 0.84859 0.68016 1.15159
 Cu374 Cu 0.81982 0.65138 1.15159
 N375 N 0.83171 0.63606 1.17911
 N376 N 0.82079 0.63583 1.16826
 C377 C 0.81138 0.62340 1.17063
 C378 C 0.81675 0.61549 1.18359
 C379 C 0.82962 0.62375 1.18875
 H380 H 0.80147 0.62028 1.16340
 H381 H 0.83693 0.62091 1.19867
 N382 N 0.82090 0.66814 1.13576
 N383 N 0.83184 0.67908 1.13576
 C384 C 0.82957 0.68860 1.12340
 C385 C 0.81665 0.68332 1.11533
 C386 C 0.81138 0.67041 1.12340
 H387 H 0.83680 0.69855 1.12040
 H388 H 0.80143 0.66318 1.12040
 H389 H 0.83076 0.66917 1.16362
 H390 H 0.84351 0.65646 1.15128
 N391 N 0.86410 0.17920 0.66815
 N392 N 0.86385 0.16830 0.67902
 C393 C 0.87612 0.17042 0.68870
 C394 C 0.88438 0.18329 0.68356
 C395 C 0.87651 0.18863 0.67055
 H396 H 0.87893 0.16312 0.69864
 H397 H 0.87964 0.19854 0.66332
 Cu398 Cu 0.84770 0.15226 0.67898
 Cu399 Cu 0.84860 0.18011 0.65143
 Cu400 Cu 0.81993 0.15124 0.65133
 N401 N 0.83175 0.13601 0.67892
 N402 N 0.82089 0.13571 0.66802
 C403 C 0.81151 0.12325 0.67037
 C404 C 0.81685 0.11539 0.68338
 C405 C 0.82966 0.12371 0.68858
 H406 H 0.80164 0.12009 0.66312
 H407 H 0.83693 0.12093 0.69855
 N408 N 0.82101 0.16798 0.63549
 N409 N 0.83191 0.17898 0.63553
 C410 C 0.82964 0.18849 0.62317
 C411 C 0.81677 0.18317 0.61506
 C412 C 0.81152 0.17023 0.62310
 H413 H 0.83683 0.19847 0.62020
 H414 H 0.80160 0.16297 0.62008
 H415 H 0.83074 0.16909 0.66339
 H416 H 0.84359 0.15640 0.65112
 N417 N 0.32091 0.36430 0.66778
 N418 N 0.33174 0.36399 0.67871
 C419 C 0.32968 0.37637 0.68826
 C420 C 0.31693 0.38476 0.68296
 C421 C 0.31158 0.37684 0.67001
 H422 H 0.33691 0.37913 0.69825
 H423 H 0.30170 0.37999 0.66274
 Cu424 Cu 0.34765 0.34765 0.67933
 Cu425 Cu 0.31988 0.34860 0.65137
 Cu426 Cu 0.34859 0.31989 0.65139
 N427 N 0.36399 0.33173 0.67875
 N428 N 0.36429 0.32090 0.66782
 C429 C 0.37682 0.31157 0.67007
 C430 C 0.38474 0.31690 0.68303
 C431 C 0.37636 0.32965 0.68831
 H432 H 0.37997 0.30169 0.66281
 H433 H 0.37912 0.33686 0.69831
 N434 N 0.33172 0.32079 0.63572
 N435 N 0.32077 0.33174 0.63571
 C436 C 0.31116 0.32939 0.62345
 C437 C 0.31639 0.31641 0.61545
 C438 C 0.32937 0.31118 0.62346
 H439 H 0.30119 0.33662 0.62045
 H440 H 0.33662 0.30123 0.62047
 H441 H 0.33078 0.33081 0.66357
 H442 H 0.34366 0.34366 0.65143
 N443 N 0.32105 0.86456 0.16747
 N444 N 0.33199 0.86436 0.17828
 C445 C 0.32986 0.87666 0.18793
 C446 C 0.31700 0.88494 0.18272
 C447 C 0.31159 0.87697 0.16982
 H448 H 0.33723 0.87958 0.19778
 H449 H 0.30150 0.87990 0.16274
 Cu450 Cu 0.34810 0.84821 0.17836
 Cu451 Cu 0.32005 0.84892 0.15094
 Cu452 Cu 0.34880 0.82014 0.15099
 N453 N 0.36426 0.83211 0.17832
 N454 N 0.36446 0.82116 0.16753
 C455 C 0.37688 0.81170 0.16990
 C456 C 0.38486 0.81714 0.18279
 C457 C 0.37658 0.82999 0.18797
 H458 H 0.37980 0.80161 0.16285
 H459 H 0.37952 0.83739 0.19780
 N460 N 0.33198 0.82112 0.13527
 N461 N 0.32103 0.83209 0.13524
 C462 C 0.31147 0.82977 0.12293
 C463 C 0.31672 0.81680 0.11493
 C464 C 0.32966 0.81155 0.12298
 H465 H 0.30153 0.83703 0.11990
 H466 H 0.33691 0.80159 0.11999
 H467 H 0.33102 0.83117 0.16332
 H468 H 0.34374 0.84384 0.15074
 N469 N 0.82099 0.36463 0.16750
 N470 N 0.83195 0.36441 0.17831
 C471 C 0.82987 0.37673 0.18792
 C472 C 0.81699 0.38501 0.18278
 C473 C 0.81156 0.37706 0.16988
 H474 H 0.83724 0.37959 0.19777
 H475 H 0.80152 0.38010 0.16278
 Cu476 Cu 0.84806 0.34828 0.17836
 Cu477 Cu 0.81994 0.34898 0.15096
 Cu478 Cu 0.84863 0.32007 0.15109
 N479 N 0.86410 0.33208 0.17842
 N480 N 0.86425 0.32107 0.16767
 C481 C 0.87665 0.31159 0.17009
 C482 C 0.88465 0.31704 0.18296
 C483 C 0.87643 0.32998 0.18804
 H484 H 0.87966 0.30154 0.16302
 H485 H 0.87936 0.33740 0.19783
 N486 N 0.83182 0.32111 0.13532
 N487 N 0.82091 0.33212 0.13526
 C488 C 0.81135 0.32981 0.12295
 C489 C 0.81655 0.31680 0.11499
 C490 C 0.82948 0.31152 0.12305
 H491 H 0.80142 0.33708 0.11991
 H492 H 0.83667 0.30151 0.12011
 H493 H 0.83090 0.33124 0.16312
 H494 H 0.84359 0.34375 0.15057
 N495 N 0.82094 0.86481 0.66768
 N496 N 0.83196 0.86467 0.67845
 C497 C 0.82978 0.87692 0.68812
 C498 C 0.81680 0.88510 0.68304
 C499 C 0.81141 0.87715 0.67013
 H500 H 0.83708 0.87974 0.69804
 H501 H 0.80135 0.88015 0.66303
 Cu502 Cu 0.84803 0.84849 0.67859
 Cu503 Cu 0.81995 0.84918 0.65115
 Cu504 Cu 0.84861 0.82035 0.65126
 N505 N 0.86417 0.83236 0.67852
 N506 N 0.86425 0.82130 0.66781
 C507 C 0.87657 0.81175 0.67028
 C508 C 0.88458 0.81718 0.68315
 C509 C 0.87645 0.83020 0.68817
 H510 H 0.87954 0.80168 0.66321
 H511 H 0.87933 0.83756 0.69803
 N512 N 0.83183 0.82137 0.63548
 N513 N 0.82093 0.83237 0.63541
 C514 C 0.81135 0.83005 0.62312
 C515 C 0.81654 0.81703 0.61516
 C516 C 0.82947 0.81175 0.62323
 H517 H 0.80139 0.83729 0.62011
 H518 H 0.83663 0.80172 0.62030
 H519 H 0.83091 0.83151 0.66345
 H520 H 0.84362 0.84406 0.65086
 N521 N 0.67912 0.63574 0.66813
 N522 N 0.66813 0.63592 0.67892
 C523 C 0.67021 0.62359 0.68854
 C524 C 0.68313 0.61534 0.68342
 C525 C 0.68857 0.62333 0.67052
 H526 H 0.66279 0.62068 0.69835
 H527 H 0.69862 0.62031 0.66342
 Cu528 Cu 0.65189 0.65194 0.67889
 Cu529 Cu 0.68013 0.65137 0.65156
 Cu530 Cu 0.65124 0.68009 0.65149
 N531 N 0.63580 0.66811 0.67887
 N532 N 0.63558 0.67906 0.66804
 C533 C 0.62314 0.68848 0.67043
 C534 C 0.61518 0.68307 0.68335
 C535 C 0.62347 0.67020 0.68850
 H536 H 0.62009 0.69851 0.66332
 H537 H 0.62059 0.66282 0.69836
 N538 N 0.66812 0.67912 0.63576
 N539 N 0.67912 0.66820 0.63580
 C540 C 0.68873 0.67055 0.62351
 C541 C 0.68346 0.68349 0.61546
 C542 C 0.67045 0.68869 0.62345
 H543 H 0.69872 0.66334 0.62054
 H544 H 0.66319 0.69863 0.62043
 H545 H 0.66899 0.66908 0.66363
 H546 H 0.65646 0.65647 0.65107
 N547 N 0.67927 0.13537 0.16768
 N548 N 0.66829 0.13556 0.17849
 C549 C 0.67041 0.12327 0.18815
 C550 C 0.68335 0.11505 0.18305
 C551 C 0.68874 0.12298 0.17010
 H552 H 0.66308 0.12043 0.19806
 H553 H 0.69873 0.11990 0.16293
 Cu554 Cu 0.65220 0.15171 0.17851
 Cu555 Cu 0.68026 0.15098 0.15108
 Cu556 Cu 0.65145 0.17978 0.15112
 N557 N 0.63602 0.16776 0.17852
 N558 N 0.63583 0.17875 0.16773
 C559 C 0.62342 0.18821 0.17017
 C560 C 0.61548 0.18279 0.18310
 C561 C 0.62371 0.16985 0.18818
 H562 H 0.62033 0.19820 0.16303
 H563 H 0.62086 0.16250 0.19806
 N564 N 0.66827 0.17876 0.13533
 N565 N 0.67922 0.16779 0.13530
 C566 C 0.68878 0.17011 0.12298
 C567 C 0.68354 0.18309 0.11497
 C568 C 0.67059 0.18834 0.12303
 H569 H 0.69875 0.16288 0.11997
 H570 H 0.66336 0.19832 0.12006
 H571 H 0.66923 0.16872 0.16318
 H572 H 0.65657 0.15610 0.15070
 N573 N 0.17920 0.63585 0.16784
 N574 N 0.16828 0.63611 0.17871
 C575 C 0.17039 0.62383 0.18838
 C576 C 0.18328 0.61555 0.18323
 C577 C 0.18864 0.62343 0.17024
 H578 H 0.16309 0.62101 0.19831
 H579 H 0.19856 0.62028 0.16302
 Cu580 Cu 0.15221 0.65229 0.17868
 Cu581 Cu 0.18013 0.65138 0.15115
 Cu582 Cu 0.15125 0.68012 0.15108
 N583 N 0.13595 0.66826 0.17862
 N584 N 0.13567 0.67915 0.16774
 C585 C 0.12321 0.68856 0.17011
 C586 C 0.11533 0.68320 0.18311
 C587 C 0.12364 0.67036 0.18828
 H588 H 0.12007 0.69847 0.16289
 H589 H 0.12084 0.66307 0.19823
 N590 N 0.16804 0.67905 0.13527
 N591 N 0.17903 0.66812 0.13529
 C592 C 0.18858 0.67041 0.12296
 C593 C 0.18330 0.68334 0.11489
 C594 C 0.17034 0.68859 0.12293
 H595 H 0.19858 0.66321 0.11999
 H596 H 0.16311 0.69856 0.11994
 H597 H 0.16911 0.66921 0.16314
 H598 H 0.15642 0.65646 0.15083
 N599 N 0.17893 0.13524 0.66793
 N600 N 0.16809 0.13552 0.67887
 C601 C 0.17022 0.12320 0.68848
 C602 C 0.18303 0.11487 0.68322
 C603 C 0.18832 0.12276 0.67022
 H604 H 0.16300 0.12043 0.69849
 H605 H 0.19822 0.11963 0.66295
 Cu606 Cu 0.15210 0.15180 0.67939
 Cu607 Cu 0.17992 0.15089 0.65145
 Cu608 Cu 0.15111 0.17953 0.65141
 N609 N 0.13571 0.16768 0.67879
 N610 N 0.13540 0.17849 0.66785
 C611 C 0.12286 0.18783 0.67010
 C612 C 0.11495 0.18251 0.68309
 C613 C 0.12333 0.16975 0.68837
 H614 H 0.11971 0.19770 0.66283
 H615 H 0.12058 0.16254 0.69839
 N616 N 0.16800 0.17865 0.63573
 N617 N 0.17897 0.16772 0.63574
 C618 C 0.18860 0.17009 0.62348
 C619 C 0.18337 0.18306 0.61546
 C620 C 0.17036 0.18826 0.62346
 H621 H 0.19859 0.16287 0.62051
 H622 H 0.16312 0.19823 0.62047
 H623 H 0.16896 0.16865 0.66363
 H624 H 0.15615 0.15579 0.65147
 N625 N 0.32081 0.63569 0.33193
 N626 N 0.33188 0.63576 0.32122
 C627 C 0.32973 0.62348 0.31156
 C628 C 0.31672 0.61537 0.31661
 C629 C 0.31131 0.62335 0.32950
 H630 H 0.33706 0.62057 0.30167
 H631 H 0.30132 0.62032 0.33665
 Cu632 Cu 0.34799 0.65186 0.32113
 Cu633 Cu 0.31978 0.65129 0.34849
 Cu634 Cu 0.34860 0.67995 0.34856
 N635 N 0.36417 0.66788 0.32128
 N636 N 0.36427 0.67889 0.33202
 C637 C 0.37663 0.68837 0.32961
 C638 C 0.38462 0.68299 0.31670
 C639 C 0.37647 0.67003 0.31162
 H640 H 0.37968 0.69833 0.33677
 H641 H 0.37936 0.66276 0.30169
 N642 N 0.33176 0.67898 0.36428
 N643 N 0.32078 0.66807 0.36426
 C644 C 0.31119 0.67040 0.37656
 C645 C 0.31648 0.68330 0.38463
 C646 C 0.32945 0.68852 0.37660
 H647 H 0.30121 0.66320 0.37952
 H648 H 0.33670 0.69844 0.37960
 H649 H 0.33090 0.66898 0.33627
 H650 H 0.34347 0.65631 0.34888
 N651 N 0.32108 0.13527 0.83230
 N652 N 0.33188 0.13559 0.82134
 C653 C 0.32988 0.12318 0.81182
 C654 C 0.31719 0.11476 0.81717
 C655 C 0.31183 0.12268 0.83013
 H656 H 0.33711 0.12042 0.80182
 H657 H 0.30200 0.11949 0.83745
 Cu658 Cu 0.34770 0.15199 0.82064
 Cu659 Cu 0.32000 0.15097 0.84871
 Cu660 Cu 0.34858 0.17974 0.84861
 N661 N 0.36397 0.16794 0.82119
 N662 N 0.36425 0.17875 0.83213
 C663 C 0.37676 0.18810 0.82987
 C664 C 0.38468 0.18279 0.81688
 C665 C 0.37634 0.17004 0.81161
 H666 H 0.37990 0.19794 0.83716
 H667 H 0.37912 0.16282 0.80161
 N668 N 0.33176 0.17880 0.86433
 N669 N 0.32084 0.16783 0.86437
 C670 C 0.31124 0.17017 0.87665
 C671 C 0.31643 0.18315 0.88465
 C672 C 0.32939 0.18840 0.87660
 H673 H 0.30131 0.16292 0.87967
 H674 H 0.33660 0.19837 0.87957
 H675 H 0.33080 0.16879 0.83645
 H676 H 0.34376 0.15598 0.84857
 N677 N 0.82121 0.63535 0.83236
 N678 N 0.83202 0.63565 0.82139
 C679 C 0.82994 0.62329 0.81184
 C680 C 0.81722 0.61491 0.81717
 C681 C 0.81189 0.62283 0.83015
 H682 H 0.83716 0.62052 0.80182
 H683 H 0.80199 0.61972 0.83741
 Cu684 Cu 0.84788 0.65201 0.82074
 Cu685 Cu 0.82013 0.65106 0.84876
 Cu686 Cu 0.84876 0.67978 0.84870
 N687 N 0.86420 0.66792 0.82132
 N688 N 0.86447 0.67873 0.83227
 C689 C 0.87697 0.68808 0.83002
 C690 C 0.88491 0.68276 0.81705
 C691 C 0.87657 0.67001 0.81175
 H692 H 0.88006 0.69798 0.83725
 H693 H 0.87937 0.66280 0.80175
 N694 N 0.83189 0.67890 0.86437
 N695 N 0.82097 0.66794 0.86440
 C696 C 0.81137 0.67028 0.87670
 C697 C 0.81658 0.68326 0.88469
 C698 C 0.82954 0.68849 0.87664
 H699 H 0.80146 0.66301 0.87973
 H700 H 0.83678 0.69844 0.87963
 H701 H 0.83101 0.66885 0.83647
 H702 H 0.84393 0.65602 0.84864
 N703 N 0.82105 0.13539 0.33210
 N704 N 0.83201 0.13559 0.32128
 C705 C 0.82987 0.12333 0.31162
 C706 C 0.81695 0.11511 0.31674
 C707 C 0.81157 0.12303 0.32969
 H708 H 0.83723 0.12045 0.30175
 H709 H 0.80159 0.11997 0.33687
 Cu710 Cu 0.84828 0.15154 0.32130
 Cu711 Cu 0.82010 0.15094 0.34872
 Cu712 Cu 0.84888 0.17964 0.34876
 N713 N 0.86425 0.16779 0.32129
 N714 N 0.86444 0.17872 0.33213
 C715 C 0.87680 0.18821 0.32971
 C716 C 0.88472 0.18288 0.31674
 C717 C 0.87651 0.16998 0.31161
 H718 H 0.87985 0.19818 0.33688
 H719 H 0.87939 0.16266 0.30171
 N720 N 0.83210 0.17859 0.36456
 N721 N 0.82113 0.16767 0.36455
 C722 C 0.81150 0.17004 0.37680
 C723 C 0.81673 0.18299 0.38482
 C724 C 0.82973 0.18819 0.37683
 H725 H 0.80149 0.16287 0.37974
 H726 H 0.83692 0.19818 0.37978
 H727 H 0.83122 0.16861 0.33658
 H728 H 0.84384 0.15594 0.34911
 N729 N 0.67935 0.36399 0.33186
 N730 N 0.66780 0.36451 0.32169
 C731 C 0.66950 0.37733 0.31266
 C732 C 0.68278 0.38514 0.31750
 C733 C 0.68881 0.37641 0.32964
 H734 H 0.66178 0.38071 0.30322
 H735 H 0.69931 0.37882 0.33628
 Cu736 Cu 0.65180 0.34827 0.32122
 Cu737 Cu 0.68150 0.34707 0.34694
 Cu738 Cu 0.65096 0.32040 0.34898
 N739 N 0.63600 0.33184 0.32113
 N740 N 0.63563 0.32111 0.33216
 C741 C 0.62340 0.31149 0.32967
 C742 C 0.61573 0.31653 0.31643
 C743 C 0.62396 0.32942 0.31124
 H744 H 0.62026 0.30164 0.33697
 H745 H 0.62124 0.33654 0.30115
 N746 N 0.66774 0.32150 0.36472
 N747 N 0.67950 0.33152 0.36382
 C748 C 0.68909 0.32929 0.37612
 C749 C 0.68303 0.31733 0.38507
 C750 C 0.66957 0.31259 0.37758
 H751 H 0.69965 0.33588 0.37843
 H752 H 0.66177 0.30329 0.38120
 H753 H 0.66833 0.32990 0.33559
 H754 H 0.65762 0.34387 0.34861
 N755 N 0.67905 0.86432 0.83188
 N756 N 0.66811 0.86409 0.82104
 C757 C 0.67015 0.87644 0.81144
 C758 C 0.68301 0.88471 0.81660
 C759 C 0.68842 0.87677 0.82953
 H760 H 0.66281 0.87929 0.80154
 H761 H 0.69832 0.87991 0.83676
 Cu762 Cu 0.65215 0.84785 0.82103
 Cu763 Cu 0.68004 0.84875 0.84854
 Cu764 Cu 0.65124 0.81999 0.84859
 N765 N 0.63593 0.83186 0.82106
 N766 N 0.63569 0.82096 0.83193
 C767 C 0.62324 0.81157 0.82958
 C768 C 0.61534 0.81693 0.81661
 C769 C 0.62362 0.82978 0.81143
 H770 H 0.62010 0.80168 0.83683
 H771 H 0.62078 0.83708 0.80149
 N772 N 0.66801 0.82107 0.86441
 N773 N 0.67898 0.83199 0.86437
 C774 C 0.68851 0.82971 0.87672
 C775 C 0.68322 0.81683 0.88481
 C776 C 0.67028 0.81157 0.87678
 H777 H 0.69848 0.83692 0.87969
 H778 H 0.66303 0.80164 0.87981
 H779 H 0.66908 0.83092 0.83655
 H780 H 0.65634 0.84367 0.84887
 N781 N 0.17872 0.36446 0.83224
 N782 N 0.16793 0.36416 0.82127
 C783 C 0.17003 0.37651 0.81169
 C784 C 0.18277 0.38487 0.81700
 C785 C 0.18805 0.37697 0.83001
 H786 H 0.16284 0.37926 0.80165
 H787 H 0.19790 0.38012 0.83731
 Cu788 Cu 0.15204 0.34783 0.82067
 Cu789 Cu 0.17973 0.34880 0.84871
 Cu790 Cu 0.15105 0.32014 0.84872
 N791 N 0.13570 0.33194 0.82129
 N792 N 0.13539 0.32115 0.83226
 C793 C 0.12287 0.31183 0.83004
 C794 C 0.11497 0.31712 0.81703
 C795 C 0.12334 0.32985 0.81171
 H796 H 0.11971 0.30199 0.83734
 H797 H 0.12059 0.33704 0.80168
 N798 N 0.16787 0.32105 0.86442
 N799 N 0.17881 0.33199 0.86442
 C800 C 0.18840 0.32965 0.87670
 C801 C 0.18318 0.31668 0.88472
 C802 C 0.17021 0.31146 0.87671
 H803 H 0.19836 0.33687 0.87968
 H804 H 0.16298 0.30151 0.87970
 H805 H 0.16886 0.33099 0.83650
 H806 H 0.15596 0.34388 0.84860
 N807 N 0.17875 0.86446 0.33199
 N808 N 0.16822 0.86382 0.32078
 C809 C 0.17040 0.87598 0.31097
 C810 C 0.18296 0.88456 0.31638
 C811 C 0.18803 0.87700 0.32968
 H812 H 0.16336 0.87851 0.30077
 H813 H 0.19767 0.88039 0.33713
 Cu814 Cu 0.15252 0.84736 0.32084
 Cu815 Cu 0.17955 0.84914 0.34895
 Cu816 Cu 0.15274 0.81845 0.34698
 N817 N 0.13564 0.83210 0.32136
 N818 N 0.13581 0.82077 0.33179
 C819 C 0.12314 0.81163 0.32974
 C820 C 0.11459 0.81765 0.31746
 C821 C 0.12277 0.83061 0.31236
 H822 H 0.12045 0.80130 0.33655
 H823 H 0.11965 0.83822 0.30275
 N824 N 0.16829 0.82058 0.36392
 N825 N 0.17837 0.83232 0.36476
 C826 C 0.18725 0.83051 0.37764
 C827 C 0.18246 0.81710 0.38519
 C828 C 0.17048 0.81105 0.37628
 H829 H 0.19657 0.83829 0.38124
 H830 H 0.16387 0.80050 0.37862
 H831 H 0.17046 0.83120 0.33623
 H832 H 0.15615 0.84224 0.34842
 C833 C 0.24437 1.04933 0.25564
 C834 C 0.25579 1.04931 0.24437
 C835 C 0.25912 1.03374 0.24106
 N836 N 0.25004 1.02435 0.24999
 C837 C 0.24100 1.03377 0.25893
 C838 C 0.27040 1.02868 0.22996
 C839 C 0.27399 1.01283 0.22641
 C840 C 0.28503 1.00807 0.21547
 C841 C 0.28501 0.99193 0.21546
 C842 C 0.27396 0.98719 0.22639
 N843 N 0.26739 1.00002 0.23295
 C844 C 0.27033 0.97135 0.22993
 C845 C 0.25903 0.96632 0.24103
 C846 C 0.25567 0.95076 0.24433
 C847 C 0.24423 0.95078 0.25557
 C848 C 0.24087 0.96634 0.25886
 N849 N 0.24995 0.97574 0.24994
 C850 C 0.22957 0.97140 0.26994
 C851 C 0.22598 0.98725 0.27351
 C852 C 0.21491 0.99202 0.28441
 C853 C 0.21495 1.00816 0.28444
 C854 C 0.22605 1.01290 0.27356
 N855 N 0.23263 1.00006 0.26702
 C856 C 0.22971 1.02873 0.27003
 H857 H 0.23917 1.05967 0.26080
 H858 H 0.26102 1.05964 0.23921
 H859 H 0.24118 1.00005 0.25861
 H860 H 0.29236 1.01543 0.20822
 H861 H 0.29232 0.98455 0.20821
 H862 H 0.26090 0.94043 0.23918
 H863 H 0.23900 0.94045 0.26073
 H864 H 0.20763 1.01555 0.29167
 H865 H 0.25892 1.00003 0.24144
 H866 H 0.20754 0.98465 0.29162
 C867 C 0.24422 0.45068 0.75555
 C868 C 0.25567 0.45069 0.74431
 C869 C 0.25902 0.46626 0.74103
 N870 N 0.24993 0.47565 0.74996
 C871 C 0.24085 0.46623 0.75886
 C872 C 0.27029 0.47132 0.72994
 C873 C 0.27390 0.48718 0.72642
 C874 C 0.28487 0.49195 0.71542
 C875 C 0.28488 0.50809 0.71547
 C876 C 0.27392 0.51282 0.72649
 N877 N 0.26740 0.49999 0.73307
 C878 C 0.27031 0.52866 0.73008
 C879 C 0.25899 0.53369 0.74117
 C880 C 0.25561 0.54924 0.74447
 C881 C 0.24415 0.54923 0.75570
 C882 C 0.24080 0.53366 0.75897
 N883 N 0.24991 0.52427 0.75006
 C884 C 0.22952 0.52858 0.77005
 C885 C 0.22593 0.51273 0.77358
 C886 C 0.21498 0.50796 0.78460
 C887 C 0.21499 0.49183 0.78458
 C888 C 0.22593 0.48709 0.77354
 N889 N 0.23243 0.49992 0.76693
 C890 C 0.22955 0.47126 0.76995
 H891 H 0.23899 0.44034 0.76069
 H892 H 0.26089 0.44036 0.73914
 H893 H 0.24071 0.49993 0.75824
 H894 H 0.29213 0.48458 0.70809
 H895 H 0.29216 0.51546 0.70817
 H896 H 0.26085 0.55957 0.73934
 H897 H 0.23890 0.55956 0.76085
 H898 H 0.20773 0.48446 0.79190
 H899 H 0.25910 0.49998 0.74173
 H900 H 0.20772 0.51532 0.79193
 C901 C 0.74451 0.04902 0.24450
 C902 C 0.75600 0.04900 0.25569
 C903 C 0.75936 0.03343 0.25897
 N904 N 0.75024 0.02405 0.25011
 C905 C 0.74113 0.03347 0.24124
 C906 C 0.77068 0.02836 0.27002
 C907 C 0.77426 0.01252 0.27360
 C908 C 0.78513 0.00774 0.28469
 C909 C 0.78512 -0.00840 0.28470
 C910 C 0.77424 -0.01313 0.27362
 N911 N 0.76781 -0.00029 0.26693
 C912 C 0.77063 -0.02896 0.27007
 C913 C 0.75933 -0.03398 0.25901
 C914 C 0.75594 -0.04954 0.25575
 C915 C 0.74444 -0.04951 0.24457
 C916 C 0.74108 -0.03394 0.24130
 N917 N 0.75021 -0.02456 0.25015
 C918 C 0.72977 -0.02887 0.23024
 C919 C 0.72618 -0.01303 0.22666
 C920 C 0.71531 -0.00826 0.21557
 C921 C 0.71533 0.00788 0.21554
 C922 C 0.72621 0.01261 0.22663
 N923 N 0.73264 -0.00022 0.23333
 C924 C 0.72983 0.02845 0.23017
 H925 H 0.73929 0.05937 0.23936
 H926 H 0.76124 0.05933 0.26081
 H927 H 0.74076 -0.00023 0.24215
 H928 H 0.79235 0.01510 0.29204
 H929 H 0.79233 -0.01579 0.29206
 H930 H 0.76119 -0.05988 0.26088
 H931 H 0.73918 -0.05983 0.23945
 H932 H 0.70813 0.01526 0.20818
 H933 H 0.75969 -0.00028 0.25811
 H934 H 0.70809 -0.01562 0.20823
 C935 C 0.74439 0.45061 0.74455
 C936 C 0.75582 0.45060 0.75579
 C937 C 0.75918 0.46616 0.75906
 N938 N 0.75011 0.47557 0.75014
 C939 C 0.74103 0.46617 0.74124
 C940 C 0.77048 0.47120 0.77014
 C941 C 0.77408 0.48704 0.77369
 C942 C 0.78514 0.49178 0.78459
 C943 C 0.78511 0.50792 0.78461
 C944 C 0.77405 0.51269 0.77370
 N945 N 0.76747 0.49988 0.76717
 C946 C 0.77041 0.52854 0.77016
 C947 C 0.75912 0.53359 0.75906
 C948 C 0.75575 0.54915 0.75576
 C949 C 0.74434 0.54917 0.74450
 C950 C 0.74100 0.53361 0.74121
 N951 N 0.75007 0.52419 0.75014
 C952 C 0.72972 0.52856 0.73012
 C953 C 0.72612 0.51272 0.72658
 C954 C 0.71510 0.50798 0.71563
 C955 C 0.71511 0.49184 0.71564
 C956 C 0.72613 0.48707 0.72659
 N957 N 0.73269 0.49989 0.73314
 C958 C 0.72975 0.47122 0.73014
 H959 H 0.73917 0.44029 0.73941
 H960 H 0.76103 0.44026 0.76096
 H961 H 0.74112 0.49988 0.74166
 H962 H 0.79248 0.48439 0.79180
 H963 H 0.79244 0.51529 0.79184
 H964 H 0.76095 0.55948 0.76092
 H965 H 0.73914 0.55952 0.73933
 H966 H 0.70780 0.48447 0.70839
 H967 H 0.75897 0.49989 0.75871
 H968 H 0.70779 0.51537 0.70839
 C969 C 0.24429 0.45075 0.24437
 C970 C 0.25576 0.45073 0.25557
 C971 C 0.25912 0.46629 0.25885
 N972 N 0.25002 0.47571 0.24997
 C973 C 0.24092 0.46632 0.24109
 C974 C 0.27042 0.47132 0.26992
 C975 C 0.27401 0.48715 0.27349
 C976 C 0.28495 0.49188 0.28452
 C977 C 0.28494 0.50802 0.28453
 C978 C 0.27400 0.51279 0.27350
 N979 N 0.26751 0.49998 0.26687
 C980 C 0.27040 0.52864 0.26992
 C981 C 0.25910 0.53370 0.25886
 C982 C 0.25576 0.54927 0.25557
 C983 C 0.24431 0.54929 0.24435
 C984 C 0.24092 0.53373 0.24108
 N985 N 0.25000 0.52431 0.24999
 C986 C 0.22964 0.52871 0.22999
 C987 C 0.22602 0.51287 0.22645
 C988 C 0.21505 0.50814 0.21545
 C989 C 0.21504 0.49200 0.21546
 C990 C 0.22601 0.48723 0.22646
 N991 N 0.23254 0.50004 0.23305
 C992 C 0.22962 0.47138 0.23002
 H993 H 0.23906 0.44043 0.23923
 H994 H 0.26100 0.44039 0.26071
 H995 H 0.24087 0.50003 0.24167
 H996 H 0.29222 0.48449 0.29182
 H997 H 0.29219 0.51537 0.29185
 H998 H 0.26101 0.55960 0.26071
 H999 H 0.23909 0.55962 0.23917
 H1000 H 0.20776 0.48463 0.20818
 H1001 H 0.25925 0.50000 0.25819
 H1002 H 0.20778 0.51552 0.20816
 C1003 C 0.74421 1.04957 0.75582
 C1004 C 0.75563 1.04952 0.74455
 C1005 C 0.75895 1.03394 0.74128
 N1006 N 0.74987 1.02458 0.75023
 C1007 C 0.74082 1.03402 0.75915
 C1008 C 0.77021 1.02884 0.73018
 C1009 C 0.77379 1.01299 0.72664
 C1010 C 0.78483 1.00820 0.71572
 C1011 C 0.78480 0.99206 0.71573
 C1012 C 0.77373 0.98735 0.72666
 N1013 N 0.76716 1.00020 0.73318
 C1014 C 0.77009 0.97153 0.73022
 C1015 C 0.75880 0.96652 0.74134
 C1016 C 0.75542 0.95097 0.74466
 C1017 C 0.74401 0.95102 0.75594
 C1018 C 0.74068 0.96660 0.75921
 N1019 N 0.74976 0.97596 0.75026
 C1020 C 0.72941 0.97169 0.77032
 C1021 C 0.72583 0.98754 0.77385
 C1022 C 0.71477 0.99234 0.78476
 C1023 C 0.71481 1.00848 0.78474
 C1024 C 0.72588 1.01319 0.77383
 N1025 N 0.73246 1.00034 0.76732
 C1026 C 0.72953 1.02902 0.77026
 H1027 H 0.73902 1.05993 0.76096
 H1028 H 0.76086 1.05983 0.73937
 H1029 H 0.74099 1.00030 0.75888
 H1030 H 0.79218 1.01555 0.70847
 H1031 H 0.79210 0.98466 0.70849
 H1032 H 0.76062 0.94062 0.73952
 H1033 H 0.73877 0.94071 0.76112
 H1034 H 0.70749 1.01588 0.79197
 H1035 H 0.75866 1.00023 0.74164
 H1036 H 0.70742 0.98499 0.79199
 C1037 C 0.74415 0.45074 0.25577
 C1038 C 0.75560 0.45073 0.24453
 C1039 C 0.75900 0.46629 0.24127
 N1040 N 0.74991 0.47570 0.25018
 C1041 C 0.74079 0.46630 0.25905
 C1042 C 0.77028 0.47133 0.23017
 C1043 C 0.77389 0.48717 0.22661
 C1044 C 0.78472 0.49192 0.21547
 C1045 C 0.78476 0.50805 0.21549
 C1046 C 0.77393 0.51281 0.22664
 N1047 N 0.76751 0.50000 0.23336
 C1048 C 0.77035 0.52866 0.23021
 C1049 C 0.75902 0.53371 0.24126
 C1050 C 0.75565 0.54927 0.24454
 C1051 C 0.74413 0.54928 0.25570
 C1052 C 0.74074 0.53372 0.25896
 N1053 N 0.74988 0.52431 0.25011
 C1054 C 0.72945 0.52868 0.27004
 C1055 C 0.72585 0.51285 0.27362
 C1056 C 0.71504 0.50811 0.28477
 C1057 C 0.71506 0.49198 0.28481
 C1058 C 0.72589 0.48721 0.27366
 N1059 N 0.73226 0.50002 0.26689
 C1060 C 0.72948 0.47137 0.27012
 H1061 H 0.73890 0.44042 0.26091
 H1062 H 0.76080 0.44039 0.23936
 H1063 H 0.74026 0.50001 0.25795
 H1064 H 0.79188 0.48453 0.20807
 H1065 H 0.79196 0.51542 0.20812
 H1066 H 0.76094 0.55960 0.23944
 H1067 H 0.73889 0.55962 0.26084
 H1068 H 0.70791 0.48462 0.29224
 H1069 H 0.75948 0.50000 0.24228
 H1070 H 0.70785 0.51550 0.29215
 C1071 C 0.25607 0.04890 0.75601
 C1072 C 0.24466 0.04898 0.74474
 C1073 C 0.24129 0.03344 0.74139
 N1074 N 0.25034 0.02397 0.75029
 C1075 C 0.25941 0.03332 0.75925
 C1076 C 0.23001 0.02846 0.73028
 C1077 C 0.22635 0.01264 0.72670
 C1078 C 0.21530 0.00796 0.71577
 C1079 C 0.21526 -0.00818 0.71574
 C1080 C 0.22629 -0.01300 0.72665
 N1081 N 0.23290 -0.00022 0.73322
 C1082 C 0.22989 -0.02886 0.73015
 C1083 C 0.24120 -0.03399 0.74119
 C1084 C 0.24455 -0.04957 0.74441
 C1085 C 0.25600 -0.04965 0.75563
 C1086 C 0.25938 -0.03411 0.75898
 N1087 N 0.25030 -0.02464 0.75012
 C1088 C 0.27069 -0.02914 0.77006
 C1089 C 0.27432 -0.01331 0.77368
 C1090 C 0.28535 -0.00863 0.78463
 C1091 C 0.28534 0.00751 0.78470
 C1092 C 0.27431 0.01233 0.77380
 N1093 N 0.26774 -0.00045 0.76719
 C1094 C 0.27069 0.02820 0.77032
 H1095 H 0.26129 0.05920 0.76121
 H1096 H 0.23946 0.05934 0.73961
 H1097 H 0.25930 -0.00039 0.75867
 H1098 H 0.20799 0.01538 0.70855
 H1099 H 0.20792 -0.01551 0.70849
 H1100 H 0.23931 -0.05987 0.73923
 H1101 H 0.26123 -0.06001 0.76073
 H1102 H 0.29265 0.01484 0.79199
 H1103 H 0.24137 -0.00028 0.74171
 H1104 H 0.29267 -0.01605 0.79184
 C1105 C 0.24432 0.25576 1.04913
 C1106 C 0.25561 0.24432 1.04915
 C1107 C 0.25891 0.24093 1.03364
 N1108 N 0.24995 0.24999 1.02425
 C1109 C 0.24100 0.25908 1.03361
 C1110 C 0.27008 0.22967 1.02863
 C1111 C 0.27365 0.22605 1.01284
 C1112 C 0.28479 0.21517 1.00811
 C1113 C 0.28476 0.21513 0.99202
 C1114 C 0.27361 0.22598 0.98726
 N1115 N 0.26692 0.23246 1.00004
 C1116 C 0.27000 0.22953 0.97146
 C1117 C 0.25884 0.24079 0.96641
 C1118 C 0.25552 0.24412 0.95089
 C1119 C 0.24425 0.25557 0.95087
 C1120 C 0.24095 0.25896 0.96638
 N1121 N 0.24990 0.24990 0.97578
 C1122 C 0.22980 0.27024 0.97140
 C1123 C 0.22622 0.27385 0.98719
 C1124 C 0.21509 0.28474 0.99192
 C1125 C 0.21510 0.28476 1.00801
 C1126 C 0.22623 0.27389 1.01276
 N1127 N 0.23292 0.26742 0.99998
 C1128 C 0.22983 0.27033 1.02856
 H1129 H 0.23915 0.26100 1.05943
 H1130 H 0.26079 0.23912 1.05946
 H1131 H 0.24172 0.25923 0.99999
 H1132 H 0.29218 0.20798 1.01547
 H1133 H 0.29214 0.20790 0.98467
 H1134 H 0.26068 0.23887 0.94060
 H1135 H 0.23908 0.26078 0.94056
 H1136 H 0.20772 0.29199 1.01536
 H1137 H 0.25810 0.24063 1.00003
 H1138 H 0.20771 0.29195 0.98455
 C1139 C 0.24443 0.75587 0.54906
 C1140 C 0.25577 0.74448 0.54905
 C1141 C 0.25907 0.74113 0.53353
 N1142 N 0.25005 0.75016 0.52416
 C1143 C 0.24107 0.75920 0.53355
 C1144 C 0.27025 0.72990 0.52849
 C1145 C 0.27380 0.72630 0.51268
 C1146 C 0.28478 0.71528 0.50792
 C1147 C 0.28474 0.71528 0.49183
 C1148 C 0.27375 0.72631 0.48711
 N1149 N 0.26721 0.73289 0.49991
 C1150 C 0.27013 0.72991 0.47132
 C1151 C 0.25892 0.74113 0.46630
 C1152 C 0.25556 0.74446 0.45079
 C1153 C 0.24420 0.75584 0.45080
 C1154 C 0.24091 0.75918 0.46632
 N1155 N 0.24993 0.75016 0.47569
 C1156 C 0.22970 0.77039 0.47137
 C1157 C 0.22617 0.77399 0.48717
 C1158 C 0.21516 0.78499 0.49194
 C1159 C 0.21521 0.78500 0.50803
 C1160 C 0.22624 0.77401 0.51274
 N1161 N 0.23280 0.76744 0.49995
 C1162 C 0.22987 0.77042 0.52853
 H1163 H 0.23926 0.76108 0.55937
 H1164 H 0.26098 0.73928 0.55935
 H1165 H 0.24134 0.75898 0.49993
 H1166 H 0.29208 0.70797 0.51526
 H1167 H 0.29201 0.70797 0.48446
 H1168 H 0.26073 0.73925 0.44048
 H1169 H 0.23899 0.76103 0.44051
 H1170 H 0.20792 0.79229 0.51540
 H1171 H 0.25872 0.74140 0.49992
 H1172 H 0.20783 0.79227 0.48460
 C1173 C 0.25600 0.75577 0.04883
 C1174 C 0.24456 0.74452 0.04886
 C1175 C 0.24120 0.74119 0.03335
 N1176 N 0.25029 0.75010 0.02395
 C1177 C 0.25936 0.75904 0.03330
 C1178 C 0.22996 0.73004 0.02835
 C1179 C 0.22639 0.72642 0.01256
 C1180 C 0.21558 0.71524 0.00785
 C1181 C 0.21558 0.71521 -0.00824
 C1182 C 0.22640 0.72638 -0.01301
 N1183 N 0.23279 0.73314 -0.00024
 C1184 C 0.22998 0.72995 -0.02881
 C1185 C 0.24123 0.74109 -0.03387
 C1186 C 0.24459 0.74437 -0.04940
 C1187 C 0.25602 0.75564 -0.04943
 C1188 C 0.25937 0.75896 -0.03392
 N1189 N 0.25030 0.75004 -0.02452
 C1190 C 0.27060 0.77013 -0.02892
 C1191 C 0.27418 0.77374 -0.01313
 C1192 C 0.28497 0.78493 -0.00842
 C1193 C 0.28498 0.78494 0.00767
 C1194 C 0.27418 0.77376 0.01244
 N1195 N 0.26779 0.76699 -0.00033
 C1196 C 0.27061 0.77019 0.02824
 H1197 H 0.26122 0.76096 0.05911
 H1198 H 0.23933 0.73938 0.05918
 H1199 H 0.25975 0.75808 -0.00031
 H1200 H 0.20841 0.70785 0.01523
 H1201 H 0.20842 0.70779 -0.01558
 H1202 H 0.23937 0.73919 -0.05969
 H1203 H 0.26124 0.76078 -0.05975
 H1204 H 0.29213 0.79237 0.01501
 H1205 H 0.24086 0.74203 -0.00027
 H1206 H 0.29212 0.79234 -0.01579
 C1207 C 0.24426 0.24423 0.45097
 C1208 C 0.25562 0.25556 0.45096
 C1209 C 0.25895 0.25888 0.46648
 N1210 N 0.24993 0.24988 0.47586
 C1211 C 0.24091 0.24090 0.46648
 C1212 C 0.27015 0.27007 0.47150
 C1213 C 0.27372 0.27366 0.48730
 C1214 C 0.28466 0.28470 0.49203
 C1215 C 0.28465 0.28470 0.50813
 C1216 C 0.27370 0.27365 0.51287
 N1217 N 0.26718 0.26705 0.50008
 C1218 C 0.27010 0.27006 0.52867
 C1219 C 0.25890 0.25886 0.53370
 C1220 C 0.25556 0.25553 0.54922
 C1221 C 0.24420 0.24418 0.54923
 C1222 C 0.24088 0.24086 0.53371
 N1223 N 0.24989 0.24986 0.52433
 C1224 C 0.22968 0.22966 0.52869
 C1225 C 0.22610 0.22608 0.51289
 C1226 C 0.21516 0.21504 0.50815
 C1227 C 0.21517 0.21506 0.49206
 C1228 C 0.22611 0.22610 0.48732
 N1229 N 0.23263 0.23270 0.50010
 C1230 C 0.22971 0.22970 0.47152
 H1231 H 0.23906 0.23904 0.44067
 H1232 H 0.26082 0.26075 0.44066
 H1233 H 0.24102 0.24129 0.50010
 H1234 H 0.29193 0.29202 0.48467
 H1235 H 0.29191 0.29201 0.51548
 H1236 H 0.26075 0.26071 0.55952
 H1237 H 0.23901 0.23899 0.55954
 H1238 H 0.20791 0.20774 0.48471
 H1239 H 0.25879 0.25846 0.50009
 H1240 H 0.20790 0.20772 0.51551
 C1241 C 0.74445 0.75583 0.95088
 C1242 C 0.75569 0.74434 0.95088
 C1243 C 0.75898 0.74097 0.96640
 N1244 N 0.75006 0.75008 0.97578
 C1245 C 0.74115 0.75919 0.96639
 C1246 C 0.77011 0.72968 0.97143
 C1247 C 0.77370 0.72610 0.98723
 C1248 C 0.78489 0.71529 0.99197
 C1249 C 0.78489 0.71529 1.00807
 C1250 C 0.77369 0.72610 1.01280
 N1251 N 0.76693 0.73250 1.00001
 C1252 C 0.77010 0.72969 1.02860
 C1253 C 0.75895 0.74095 1.03363
 C1254 C 0.75563 0.74431 1.04914
 C1255 C 0.74438 0.75578 1.04914
 C1256 C 0.74110 0.75915 1.03362
 N1257 N 0.75003 0.75006 1.02424
 C1258 C 0.72995 0.77043 1.02858
 C1259 C 0.72638 0.77403 1.01278
 C1260 C 0.71519 0.78484 1.00804
 C1261 C 0.71520 0.78485 0.99195
 C1262 C 0.72640 0.77404 0.98721
 N1263 N 0.73315 0.76764 1.00000
 C1264 C 0.73000 0.77046 0.97142
 H1265 H 0.73930 0.76108 0.94058
 H1266 H 0.76085 0.73910 0.94058
 H1267 H 0.74210 0.75960 1.00000
 H1268 H 0.79232 0.70812 0.98462
 H1269 H 0.79232 0.70812 1.01542
 H1270 H 0.76078 0.73907 1.05945
 H1271 H 0.73921 0.76101 1.05944
 H1272 H 0.70778 0.79203 0.98459
 H1273 H 0.75798 0.74053 1.00001
 H1274 H 0.70776 0.79201 1.01539
 C1275 C 0.74419 0.25550 0.54908
 C1276 C 0.75553 0.24412 0.54904
 C1277 C 0.75886 0.24083 0.53352
 N1278 N 0.74986 0.24989 0.52417
 C1279 C 0.74086 0.25888 0.53357
 C1280 C 0.77006 0.22963 0.52846
 C1281 C 0.77362 0.22605 0.51265
 C1282 C 0.78460 0.21504 0.50788
 C1283 C 0.78457 0.21505 0.49179
 C1284 C 0.77358 0.22609 0.48708
 N1285 N 0.76703 0.23266 0.49988
 C1286 C 0.76999 0.22971 0.47129
 C1287 C 0.75880 0.24097 0.46628
 C1288 C 0.75547 0.24435 0.45078
 C1289 C 0.74414 0.25576 0.45081
 C1290 C 0.74083 0.25907 0.46634
 N1291 N 0.74982 0.25000 0.47569
 C1292 C 0.72967 0.27032 0.47141
 C1293 C 0.72610 0.27388 0.48722
 C1294 C 0.71517 0.28495 0.49200
 C1295 C 0.71518 0.28490 0.50809
 C1296 C 0.72610 0.27380 0.51279
 N1297 N 0.73261 0.26720 0.49998
 C1298 C 0.72968 0.27014 0.52857
 H1299 H 0.73900 0.26067 0.55940
 H1300 H 0.76072 0.23888 0.55933
 H1301 H 0.74099 0.25859 0.49995
 H1302 H 0.79189 0.20772 0.51522
 H1303 H 0.79185 0.20775 0.48442
 H1304 H 0.76065 0.23916 0.44046
 H1305 H 0.73895 0.26101 0.44053
 H1306 H 0.70794 0.29223 0.51547
 H1307 H 0.75855 0.24117 0.49990
 H1308 H 0.70793 0.29233 0.48467
 C1309 C 0.74438 0.24464 -0.04939
 C1310 C 0.75577 0.25596 -0.04937
 C1311 C 0.75910 0.25923 -0.03385
 N1312 N 0.75006 0.25023 -0.02448
 C1313 C 0.74103 0.24128 -0.03388
 C1314 C 0.77030 0.27040 -0.02879
 C1315 C 0.77384 0.27396 -0.01298
 C1316 C 0.78464 0.28513 -0.00821
 C1317 C 0.78462 0.28509 0.00788
 C1318 C 0.77381 0.27390 0.01259
 N1319 N 0.76742 0.26720 -0.00021
 C1320 C 0.77023 0.27025 0.02837
 C1321 C 0.75903 0.25904 0.03338
 C1322 C 0.75568 0.25569 0.04889
 C1323 C 0.74429 0.24438 0.04887
 C1324 C 0.74096 0.24111 0.03335
 N1325 N 0.75000 0.25010 0.02399
 C1326 C 0.72976 0.22992 0.02830
 C1327 C 0.72622 0.22636 0.01249
 C1328 C 0.71545 0.21516 0.00772
 C1329 C 0.71548 0.21520 -0.00837
 C1330 C 0.72626 0.22642 -0.01308
 N1331 N 0.73262 0.23314 -0.00028
 C1332 C 0.72985 0.23005 -0.02887
 H1333 H 0.73919 0.23948 -0.05970
 H1334 H 0.76097 0.26118 -0.05966
 H1335 H 0.74067 0.24205 -0.00027
 H1336 H 0.79181 0.29257 -0.01555
 H1337 H 0.79178 0.29248 0.01525
 H1338 H 0.76089 0.26084 0.05920
 H1339 H 0.73909 0.23917 0.05917
 H1340 H 0.70835 0.20778 -0.01574
 H1341 H 0.75933 0.25833 -0.00023
 H1342 H 0.70830 0.20771 0.01506
 C1343 C 0.74425 0.74451 0.45094
 C1344 C 0.75558 0.75588 0.45091
 C1345 C 0.75893 0.75921 0.46642
 N1346 N 0.74995 0.75018 0.47582
 C1347 C 0.74095 0.74117 0.46646
 C1348 C 0.77011 0.77042 0.47143
 C1349 C 0.77372 0.77400 0.48722
 C1350 C 0.78469 0.78502 0.49193
 C1351 C 0.78471 0.78501 0.50802
 C1352 C 0.77375 0.77399 0.51279
 N1353 N 0.76718 0.76741 0.50002
 C1354 C 0.77019 0.77040 0.52859
 C1355 C 0.75902 0.75917 0.53365
 C1356 C 0.75571 0.75584 0.54917
 C1357 C 0.74438 0.74447 0.54919
 C1358 C 0.74103 0.74114 0.53369
 N1359 N 0.75001 0.75016 0.52429
 C1360 C 0.72984 0.72993 0.52868
 C1361 C 0.72624 0.72634 0.51290
 C1362 C 0.71527 0.71532 0.50818
 C1363 C 0.71526 0.71532 0.49208
 C1364 C 0.72622 0.72634 0.48732
 N1365 N 0.73278 0.73293 0.50010
 C1366 C 0.72979 0.72994 0.47152
 H1367 H 0.73905 0.73931 0.44065
 H1368 H 0.76074 0.76109 0.44060
 H1369 H 0.74123 0.74145 0.50008
 H1370 H 0.79195 0.79233 0.48456
 H1371 H 0.79199 0.79231 0.51536
 H1372 H 0.76091 0.76103 0.55946
 H1373 H 0.73920 0.73927 0.55950
 H1374 H 0.70798 0.70802 0.48474
 H1375 H 0.75873 0.75889 0.50003
 H1376 H 0.70801 0.70801 0.51554
 C1377 C 0.95065 0.25575 0.24431
 C1378 C 0.95065 0.24429 0.25553
 C1379 C 0.96623 0.24093 0.25884
 N1380 N 0.97564 0.25004 0.24996
 C1381 C 0.96623 0.25912 0.24105
 C1382 C 0.97128 0.22962 0.26990
 C1383 C 0.98713 0.22603 0.27349
 C1384 C 0.99188 0.21497 0.28441
 C1385 C 1.00803 0.21499 0.28445
 C1386 C 1.01279 0.22605 0.27356
 N1387 N 0.99997 0.23264 0.26700
 C1388 C 1.02865 0.22969 0.27005
 C1389 C 1.03371 0.24099 0.25899
 C1390 C 1.04929 0.24436 0.25573
 C1391 C 1.04930 0.25581 0.24451
 C1392 C 1.03373 0.25917 0.24119
 N1393 N 1.02431 0.25007 0.25007
 C1394 C 1.02868 0.27046 0.23011
 C1395 C 1.01283 0.27407 0.22653
 C1396 C 1.00808 0.28512 0.21561
 C1397 C 0.99192 0.28511 0.21557
 C1398 C 0.98716 0.27406 0.22648
 N1399 N 0.99999 0.26747 0.23304
 C1400 C 0.97129 0.27043 0.22999
 H1401 H 0.94030 0.26097 0.23916
 H1402 H 0.94031 0.23904 0.26066
 H1403 H 0.99998 0.25899 0.24151
 H1404 H 0.98449 0.20763 0.29163
 H1405 H 1.01541 0.20766 0.29170
 H1406 H 1.05963 0.23912 0.26089
 H1407 H 1.05965 0.26105 0.23940
 H1408 H 0.98455 0.29243 0.20832
 H1409 H 0.99997 0.24113 0.25854
 H1410 H 1.01547 0.29246 0.20839
 C1411 C 0.54935 0.24409 0.75575
 C1412 C 0.54936 0.25556 0.74454
 C1413 C 0.53379 0.25894 0.74124
 N1414 N 0.52436 0.24982 0.75010
 C1415 C 0.53377 0.24071 0.75899
 C1416 C 0.52875 0.27025 0.73016
 C1417 C 0.51290 0.27387 0.72659
 C1418 C 0.50815 0.28479 0.71554
 C1419 C 0.49200 0.28478 0.71551
 C1420 C 0.48722 0.27386 0.72655
 N1421 N 0.50006 0.26739 0.73322
 C1422 C 0.47136 0.27025 0.73006
 C1423 C 0.46629 0.25897 0.74114
 C1424 C 0.45071 0.25560 0.74439
 C1425 C 0.45070 0.24416 0.75563
 C1426 C 0.46627 0.24080 0.75894
 N1427 N 0.47570 0.24988 0.75006
 C1428 C 0.47131 0.22950 0.77003
 C1429 C 0.48716 0.22586 0.77358
 C1430 C 0.49191 0.21491 0.78461
 C1431 C 0.50806 0.21489 0.78461
 C1432 C 0.51283 0.22581 0.77358
 N1433 N 0.50000 0.23232 0.76694
 C1434 C 0.52869 0.22940 0.77004
 H1435 H 0.55970 0.23887 0.76091
 H1436 H 0.55971 0.26079 0.73942
 H1437 H 0.50001 0.24055 0.75821
 H1438 H 0.51554 0.29203 0.70822
 H1439 H 0.48461 0.29202 0.70818
 H1440 H 0.44036 0.26081 0.73922
 H1441 H 0.44035 0.23893 0.76077
 H1442 H 0.51543 0.20762 0.79192
 H1443 H 0.50005 0.25920 0.74198
 H1444 H 0.48452 0.20767 0.79192
 C1445 C -0.04949 0.24443 0.74465
 C1446 C -0.04948 0.25595 0.75580
 C1447 C -0.03390 0.25930 0.75904
 N1448 N -0.02449 0.25014 0.75019
 C1449 C -0.03391 0.24102 0.74137
 C1450 C -0.02883 0.27062 0.77006
 C1451 C -0.01296 0.27417 0.77358
 C1452 C -0.00817 0.28507 0.78462
 C1453 C 0.00798 0.28501 0.78461
 C1454 C 0.01271 0.27408 0.77357
 N1455 N -0.00014 0.26766 0.76692
 C1456 C 0.02856 0.27042 0.77002
 C1457 C 0.03360 0.25908 0.75899
 C1458 C 0.04918 0.25568 0.75571
 C1459 C 0.04917 0.24419 0.74453
 C1460 C 0.03359 0.24084 0.74128
 N1461 N 0.02418 0.24998 0.75014
 C1462 C 0.02853 0.22954 0.73024
 C1463 C 0.01266 0.22597 0.72672
 C1464 C 0.00787 0.21509 0.71567
 C1465 C -0.00828 0.21512 0.71571
 C1466 C -0.01302 0.22603 0.72677
 N1467 N -0.00017 0.23245 0.73341
 C1468 C -0.02887 0.22968 0.73033
 H1469 H -0.05984 0.23919 0.73955
 H1470 H -0.05981 0.26122 0.76092
 H1471 H -0.00016 0.24059 0.74221
 H1472 H -0.01554 0.29234 0.79194
 H1473 H 0.01537 0.29221 0.79193
 H1474 H 0.05952 0.26090 0.76083
 H1475 H 0.05951 0.23895 0.73939
 H1476 H -0.01568 0.20791 0.70839
 H1477 H -0.00015 0.25949 0.75815
 H1478 H 0.01524 0.20785 0.70832
 C1479 C 0.54946 0.25543 0.25549
 C1480 C 0.54942 0.24395 0.24431
 C1481 C 0.53383 0.24060 0.24110
 N1482 N 0.52445 0.24973 0.25000
 C1483 C 0.53390 0.25883 0.25882
 C1484 C 0.52874 0.22932 0.23005
 C1485 C 0.51286 0.22576 0.22654
 C1486 C 0.50806 0.21487 0.21551
 C1487 C 0.49190 0.21492 0.21556
 C1488 C 0.48719 0.22584 0.22661
 N1489 N 0.50006 0.23227 0.23322
 C1490 C 0.47135 0.22950 0.23021
 C1491 C 0.46634 0.24081 0.24129
 C1492 C 0.45078 0.24423 0.24461
 C1493 C 0.45083 0.25571 0.25579
 C1494 C 0.46642 0.25904 0.25901
 N1495 N 0.47580 0.24990 0.25011
 C1496 C 0.47152 0.27033 0.27003
 C1497 C 0.48739 0.27389 0.27354
 C1498 C 0.49219 0.28480 0.28455
 C1499 C 0.50834 0.28475 0.28451
 C1500 C 0.51306 0.27381 0.27347
 N1501 N 0.50020 0.26736 0.26688
 C1502 C 0.52889 0.27017 0.26986
 H1503 H 0.55983 0.26065 0.26057
 H1504 H 0.55975 0.23872 0.23913
 H1505 H 0.50016 0.25915 0.25815
 H1506 H 0.51542 0.20762 0.20817
 H1507 H 0.48449 0.20771 0.20826
 H1508 H 0.44041 0.23901 0.23952
 H1509 H 0.44050 0.26097 0.26095
 H1510 H 0.51575 0.29197 0.29180
 H1511 H 0.50009 0.24048 0.24196
 H1512 H 0.48483 0.29208 0.29187
 C1513 C 1.04929 0.74441 0.75577
 C1514 C 1.04929 0.75588 0.74456
 C1515 C 1.03372 0.75925 0.74126
 N1516 N 1.02429 0.75015 0.75013
 C1517 C 1.03370 0.74104 0.75903
 C1518 C 1.02867 0.77054 0.73017
 C1519 C 1.01282 0.77415 0.72659
 C1520 C 1.00807 0.78510 0.71556
 C1521 C 0.99191 0.78510 0.71554
 C1522 C 0.98714 0.77415 0.72655
 N1523 N 0.99997 0.76764 0.73319
 C1524 C 0.97128 0.77056 0.73008
 C1525 C 0.96621 0.75925 0.74114
 C1526 C 0.95063 0.75588 0.74441
 C1527 C 0.95064 0.74441 0.75562
 C1528 C 0.96621 0.74103 0.75891
 N1529 N 0.97563 0.75013 0.75003
 C1530 C 0.97125 0.72973 0.77000
 C1531 C 0.98710 0.72612 0.77357
 C1532 C 0.99186 0.71516 0.78458
 C1533 C 1.00801 0.71517 0.78460
 C1534 C 1.01277 0.72613 0.77361
 N1535 N 0.99994 0.73264 0.76698
 C1536 C 1.02863 0.72975 0.77009
 H1537 H 1.05963 0.73916 0.76092
 H1538 H 1.05963 0.76112 0.73943
 H1539 H 0.99993 0.74094 0.75832
 H1540 H 1.01545 0.79236 0.70827
 H1541 H 0.98453 0.79236 0.70823
 H1542 H 0.94028 0.76110 0.73927
 H1543 H 0.94030 0.73917 0.76075
 H1544 H 1.01539 0.70790 0.79189
 H1545 H 0.99996 0.75936 0.74186
 H1546 H 0.98448 0.70789 0.79188
 C1547 C 0.54930 0.75581 0.24462
 C1548 C 0.54929 0.74432 0.25581
 C1549 C 0.53371 0.74093 0.25903
 N1550 N 0.52430 0.75002 0.25013
 C1551 C 0.53373 0.75916 0.24129
 C1552 C 0.52865 0.72962 0.27009
 C1553 C 0.51279 0.72601 0.27361
 C1554 C 0.50803 0.71505 0.28461
 C1555 C 0.49187 0.71507 0.28459
 C1556 C 0.48712 0.72602 0.27357
 N1557 N 0.49997 0.73252 0.26697
 C1558 C 0.47127 0.72963 0.26997
 C1559 C 0.46623 0.74095 0.25892
 C1560 C 0.45065 0.74429 0.25561
 C1561 C 0.45066 0.75574 0.24438
 C1562 C 0.46624 0.75914 0.24115
 N1563 N 0.47565 0.75007 0.25007
 C1564 C 0.47130 0.77044 0.23009
 C1565 C 0.48716 0.77406 0.22658
 C1566 C 0.49194 0.78501 0.21557
 C1567 C 0.50809 0.78503 0.21562
 C1568 C 0.51284 0.77408 0.22664
 N1569 N 0.49999 0.76757 0.23324
 C1570 C 0.52869 0.77047 0.23023
 H1571 H 0.55965 0.76109 0.23954
 H1572 H 0.55963 0.73910 0.26098
 H1573 H 0.49998 0.75931 0.24193
 H1574 H 0.51540 0.70777 0.29191
 H1575 H 0.48449 0.70781 0.29189
 H1576 H 0.44030 0.73902 0.26072
 H1577 H 0.44033 0.76094 0.23918
 H1578 H 0.51549 0.79230 0.20834
 H1579 H 0.49998 0.74080 0.25830
 H1580 H 0.48457 0.79226 0.20824
 C1581 C 0.04926 0.75590 0.25572
 C1582 C 0.04928 0.74450 0.24444
 C1583 C 0.03371 0.74115 0.24115
 N1584 N 0.02428 0.75018 0.25009
 C1585 C 0.03367 0.75923 0.25902
 C1586 C 0.02867 0.72987 0.23006
 C1587 C 0.01282 0.72621 0.22655
 C1588 C 0.00809 0.71502 0.21579
 C1589 C -0.00807 0.71501 0.21579
 C1590 C -0.01285 0.72619 0.22655
 N1591 N -0.00003 0.73291 0.23296
 C1592 C -0.02872 0.72981 0.23008
 C1593 C -0.03379 0.74109 0.24115
 C1594 C -0.04938 0.74443 0.24446
 C1595 C -0.04940 0.75584 0.25571
 C1596 C -0.03382 0.75919 0.25900
 N1597 N -0.02439 0.75014 0.25008
 C1598 C -0.02879 0.77048 0.27007
 C1599 C -0.01295 0.77412 0.27360
 C1600 C -0.00822 0.78531 0.28436
 C1601 C 0.00793 0.78531 0.28437
 C1602 C 0.01272 0.77412 0.27362
 N1603 N -0.00009 0.76741 0.26721
 C1604 C 0.02859 0.77049 0.27011
 H1605 H 0.05959 0.76112 0.26087
 H1606 H 0.05963 0.73930 0.23929
 H1607 H -0.00008 0.75864 0.25904
 H1608 H 0.01549 0.70761 0.20865
 H1609 H -0.01543 0.70759 0.20866
 H1610 H -0.05971 0.73921 0.23931
 H1611 H -0.05975 0.76105 0.26087
 H1612 H 0.01530 0.79273 0.29151
 H1613 H -0.00005 0.74167 0.24113
 H1614 H -0.01562 0.79273 0.29149
 C1615 C 0.45044 0.75590 0.75588
 C1616 C 0.45047 0.74450 0.74461
 C1617 C 0.46605 0.74116 0.74131
 N1618 N 0.47545 0.75021 0.75023
 C1619 C 0.46601 0.75925 0.75917
 C1620 C 0.47112 0.72989 0.73022
 C1621 C 0.48699 0.72627 0.72668
 C1622 C 0.49176 0.71511 0.71588
 C1623 C 0.50792 0.71512 0.71587
 C1624 C 0.51266 0.72628 0.72666
 N1625 N 0.49981 0.73296 0.73310
 C1626 C 0.52851 0.72990 0.73019
 C1627 C 0.53355 0.74117 0.74128
 C1628 C 0.54912 0.74451 0.74459
 C1629 C 0.54909 0.75588 0.75588
 C1630 C 0.53351 0.75922 0.75919
 N1631 N 0.52411 0.75019 0.75023
 C1632 C 0.52843 0.77048 0.77028
 C1633 C 0.51257 0.77412 0.77381
 C1634 C 0.50779 0.78531 0.78457
 C1635 C 0.49164 0.78533 0.78455
 C1636 C 0.48690 0.77415 0.77378
 N1637 N 0.49974 0.76742 0.76740
 C1638 C 0.47104 0.77054 0.77024
 H1639 H 0.44009 0.76110 0.76103
 H1640 H 0.44014 0.73927 0.73947
 H1641 H 0.49976 0.75865 0.75923
 H1642 H 0.48439 0.70771 0.70873
 H1643 H 0.51531 0.70773 0.70870
 H1644 H 0.55947 0.73931 0.73942
 H1645 H 0.55942 0.76108 0.76105
 H1646 H 0.48425 0.79276 0.79168
 H1647 H 0.49980 0.74168 0.74132
 H1648 H 0.51516 0.79272 0.79171
 C1649 C 0.39887 0.31046 0.31023
 C1650 C 0.41064 0.30499 0.30465
 C1651 C 0.42428 0.29841 0.29802
 C1652 C 0.43573 0.29257 0.29215
 C1653 C 0.44874 0.28536 0.28494
 C1654 C 0.45939 0.27878 0.27840
 C1655 C 0.39816 0.81087 0.80989
 C1656 C 0.40996 0.80542 0.80435
 C1657 C 0.42363 0.79882 0.79778
 C1658 C 0.43510 0.79294 0.79199
 C1659 C 0.44815 0.78566 0.78491
 C1660 C 0.45885 0.77904 0.77848
 C1661 C -0.10085 0.31158 0.81070
 C1662 C -0.08916 0.30600 0.80505
 C1663 C -0.07567 0.29922 0.79828
 C1664 C -0.06439 0.29319 0.79230
 C1665 C -0.05154 0.28578 0.78499
 C1666 C -0.04096 0.27910 0.77841
 C1667 C -0.10162 0.81071 0.30983
 C1668 C -0.08982 0.80527 0.30429
 C1669 C -0.07615 0.79870 0.29770
 C1670 C -0.06470 0.79283 0.29189
 C1671 C -0.05166 0.78557 0.28477
 C1672 C -0.04098 0.77896 0.27832
 C1673 C 0.60137 0.68967 0.31027
 C1674 C 0.58962 0.69514 0.30468
 C1675 C 0.57598 0.70171 0.29804
 C1676 C 0.56454 0.70753 0.29217
 C1677 C 0.55150 0.71470 0.28498
 C1678 C 0.54082 0.72123 0.27845
 C1679 C 0.60136 0.18914 0.81010
 C1680 C 0.58960 0.19462 0.80452
 C1681 C 0.57595 0.20122 0.79790
 C1682 C 0.56451 0.20710 0.79206
 C1683 C 0.55151 0.21435 0.78488
 C1684 C 0.54085 0.22095 0.77837
 C1685 C 1.10112 0.68947 0.81044
 C1686 C 1.08937 0.69496 0.80487
 C1687 C 1.07576 0.70160 0.79820
 C1688 C 1.06438 0.70750 0.79228
 C1689 C 1.05143 0.71476 0.78502
 C1690 C 1.04079 0.72134 0.77846
 C1691 C 1.10101 0.18934 0.31055
 C1692 C 1.08928 0.19486 0.30494
 C1693 C 1.07572 0.20151 0.29823
 C1694 C 1.06435 0.20741 0.29229
 C1695 C 1.05142 0.21468 0.28501
 C1696 C 1.04080 0.22127 0.27843
 C1697 C 0.60121 0.31061 0.68981
 C1698 C 0.58951 0.30506 0.69544
 C1699 C 0.57594 0.29839 0.70215
 C1700 C 0.56456 0.29248 0.70805
 C1701 C 0.55159 0.28522 0.71527
 C1702 C 0.54094 0.27865 0.72181
 C1703 C 0.60145 0.81048 0.19022
 C1704 C 0.58968 0.80504 0.19580
 C1705 C 0.57603 0.79850 0.20243
 C1706 C 0.56458 0.79266 0.20828
 C1707 C 0.55156 0.78545 0.21544
 C1708 C 0.54087 0.77889 0.22193
 C1709 C 1.10141 0.31062 0.19015
 C1710 C 1.08965 0.30515 0.19573
 C1711 C 1.07601 0.29856 0.20235
 C1712 C 1.06457 0.29270 0.20818
 C1713 C 1.05155 0.28547 0.21533
 C1714 C 1.04087 0.27890 0.22181
 C1715 C 1.10150 0.81049 0.69016
 C1716 C 1.08972 0.80505 0.69572
 C1717 C 1.07606 0.79850 0.70234
 C1718 C 1.06460 0.79267 0.70818
 C1719 C 1.05156 0.78548 0.71534
 C1720 C 1.04086 0.77894 0.72184
 C1721 C 0.39843 0.68974 0.69032
 C1722 C 0.41019 0.69519 0.69590
 C1723 C 0.42383 0.70175 0.70252
 C1724 C 0.43526 0.70761 0.70835
 C1725 C 0.44829 0.71484 0.71549
 C1726 C 0.45896 0.72143 0.72195
 C1727 C 0.39826 0.19007 0.19031
 C1728 C 0.41004 0.19548 0.19588
 C1729 C 0.42374 0.20193 0.20248
 C1730 C 0.43525 0.20766 0.20829
 C1731 C 0.44837 0.21472 0.21542
 C1732 C 0.45912 0.22117 0.22189
 C1733 C -0.10144 0.68962 0.19023
 C1734 C -0.08967 0.69508 0.19579
 C1735 C -0.07603 0.70166 0.20240
 C1736 C -0.06459 0.70752 0.20822
 C1737 C -0.05156 0.71476 0.21534
 C1738 C -0.04088 0.72135 0.22180
 C1739 C -0.10157 0.18970 0.69022
 C1740 C -0.08982 0.19517 0.69581
 C1741 C -0.07620 0.20175 0.70246
 C1742 C -0.06477 0.20759 0.70832
 C1743 C -0.05175 0.21478 0.71550
 C1744 C -0.04106 0.22131 0.72201
 C1745 C 0.31038 0.39859 0.31005
 C1746 C 0.30493 0.41035 0.30446
 C1747 C 0.29838 0.42400 0.29781
 C1748 C 0.29258 0.43545 0.29195
 C1749 C 0.28540 0.44848 0.28476
 C1750 C 0.27885 0.45915 0.27824
 C1751 C 0.31086 -0.10203 0.80983
 C1752 C 0.30540 -0.09024 0.80427
 C1753 C 0.29882 -0.07658 0.79768
 C1754 C 0.29295 -0.06512 0.79187
 C1755 C 0.28571 -0.05207 0.78476
 C1756 C 0.27913 -0.04136 0.77832
 C1757 C 0.81064 0.39838 0.81001
 C1758 C 0.80517 0.41014 0.80443
 C1759 C 0.79858 0.42380 0.79782
 C1760 C 0.79272 0.43525 0.79201
 C1761 C 0.78550 0.44831 0.78490
 C1762 C 0.77893 0.45902 0.77844
 C1763 C 0.81042 -0.10184 0.31013
 C1764 C 0.80502 -0.09004 0.30457
 C1765 C 0.79850 -0.07636 0.29796
 C1766 C 0.79270 -0.06489 0.29212
 C1767 C 0.78554 -0.05184 0.28494
 C1768 C 0.77902 -0.04114 0.27843
 C1769 C 0.31045 0.60135 0.69007
 C1770 C 0.30499 0.58959 0.69565
 C1771 C 0.29841 0.57595 0.70227
 C1772 C 0.29254 0.56453 0.70812
 C1773 C 0.28530 0.55151 0.71528
 C1774 C 0.27873 0.54084 0.72177
 C1775 C 0.31077 1.10105 0.18970
 C1776 C 0.30529 1.08931 0.19529
 C1777 C 0.29866 1.07572 0.20196
 C1778 C 0.29275 1.06436 0.20786
 C1779 C 0.28546 1.05142 0.21508
 C1780 C 0.27885 1.04081 0.22162
 C1781 C 0.81037 0.60139 0.19020
 C1782 C 0.80491 0.58962 0.19575
 C1783 C 0.79835 0.57597 0.20236
 C1784 C 0.79251 0.56453 0.20820
 C1785 C 0.78531 0.55150 0.21536
 C1786 C 0.77876 0.54082 0.22186
 C1787 C 0.81047 1.10133 0.69003
 C1788 C 0.80501 1.08958 0.69563
 C1789 C 0.79842 1.07597 0.70228
 C1790 C 0.79254 1.06457 0.70815
 C1791 C 0.78528 1.05160 0.71533
 C1792 C 0.77868 1.04097 0.72185
 C1793 C 0.68969 0.60143 0.31028
 C1794 C 0.69515 0.58967 0.30471
 C1795 C 0.70169 0.57603 0.29807
 C1796 C 0.70749 0.56458 0.29220
 C1797 C 0.71462 0.55154 0.28500
 C1798 C 0.72110 0.54086 0.27844
 C1799 C 0.68947 1.10174 0.81039
 C1800 C 0.69495 1.08999 0.80478
 C1801 C 0.70152 1.07636 0.79813
 C1802 C 0.70736 1.06492 0.79226
 C1803 C 0.71456 1.05190 0.78508
 C1804 C 0.72112 1.04122 0.77857
 C1805 C 0.18936 0.60103 0.81048
 C1806 C 0.19483 0.58927 0.80491
 C1807 C 0.20144 0.57567 0.79823
 C1808 C 0.20733 0.56430 0.79231
 C1809 C 0.21456 0.55135 0.78503
 C1810 C 0.22112 0.54072 0.77845
 C1811 C 0.18954 1.10124 0.31038
 C1812 C 0.19504 1.08951 0.30478
 C1813 C 0.20165 1.07591 0.29809
 C1814 C 0.20753 1.06452 0.29219
 C1815 C 0.21475 1.05155 0.28495
 C1816 C 0.22131 1.04090 0.27840
 C1817 C 0.68937 0.39897 0.68964
 C1818 C 0.69490 0.41066 0.69528
 C1819 C 0.70157 0.42420 0.70201
 C1820 C 0.70749 0.43554 0.70794
 C1821 C 0.71476 0.44846 0.71521
 C1822 C 0.72134 0.45908 0.72177
 C1823 C 0.68973 -0.10148 0.19022
 C1824 C 0.69518 -0.08972 0.19578
 C1825 C 0.70174 -0.07610 0.20240
 C1826 C 0.70759 -0.06468 0.20824
 C1827 C 0.71480 -0.05167 0.21541
 C1828 C 0.72135 -0.04102 0.22191
 C1829 C 0.18964 0.39872 0.19005
 C1830 C 0.19508 0.41048 0.19561
 C1831 C 0.20164 0.42412 0.20222
 C1832 C 0.20747 0.43555 0.20805
 C1833 C 0.21467 0.44857 0.21520
 C1834 C 0.22122 0.45923 0.22169
 C1835 C 0.18965 -0.10130 0.69003
 C1836 C 0.19512 -0.08956 0.69561
 C1837 C 0.20171 -0.07596 0.70225
 C1838 C 0.20758 -0.06456 0.70811
 C1839 C 0.21483 -0.05159 0.71529
 C1840 C 0.22143 -0.04097 0.72180
 C1841 C 0.31002 0.31001 0.39877
 C1842 C 0.30453 0.30453 0.41054
 C1843 C 0.29798 0.29798 0.42420
 C1844 C 0.29217 0.29216 0.43564
 C1845 C 0.28503 0.28500 0.44868
 C1846 C 0.27852 0.27847 0.45936
 C1847 C 0.31040 0.81032 -0.10156
 C1848 C 0.30491 0.80481 -0.08981
 C1849 C 0.29835 0.79821 -0.07618
 C1850 C 0.29255 0.79235 -0.06475
 C1851 C 0.28541 0.78513 -0.05174
 C1852 C 0.27893 0.77856 -0.04107
 C1853 C 0.81068 0.31099 -0.10089
 C1854 C 0.80514 0.30541 -0.08920
 C1855 C 0.79845 0.29872 -0.07568
 C1856 C 0.79252 0.29278 -0.06436
 C1857 C 0.78524 0.28548 -0.05147
 C1858 C 0.77867 0.27886 -0.04089
 C1859 C 0.80989 0.81053 0.39875
 C1860 C 0.80441 0.80502 0.41051
 C1861 C 0.79786 0.79843 0.42415
 C1862 C 0.79207 0.79259 0.43558
 C1863 C 0.78493 0.78539 0.44861
 C1864 C 0.77845 0.77884 0.45928
 C1865 C 0.69004 0.31009 0.60142
 C1866 C 0.69550 0.30458 0.58966
 C1867 C 0.70202 0.29799 0.57600
 C1868 C 0.70779 0.29217 0.56454
 C1869 C 0.71488 0.28503 0.55146
 C1870 C 0.72134 0.27852 0.54075
 C1871 C 0.68988 0.81030 1.10122
 C1872 C 0.69537 0.80481 1.08946
 C1873 C 0.70194 0.79826 1.07581
 C1874 C 0.70778 0.79245 1.06438
 C1875 C 0.71497 0.78530 1.05137
 C1876 C 0.72153 0.77879 1.04071
 C1877 C 0.18988 0.31033 1.10120
 C1878 C 0.19537 0.30483 1.08945
 C1879 C 0.20193 0.29824 1.07581
 C1880 C 0.20774 0.29241 1.06438
 C1881 C 0.21491 0.28524 1.05136
 C1882 C 0.22143 0.27872 1.04069
 C1883 C 0.18979 0.81048 0.60103
 C1884 C 0.19530 0.80498 0.58930
 C1885 C 0.20190 0.79839 0.57569
 C1886 C 0.20775 0.79254 0.56429
 C1887 C 0.21495 0.78535 0.55131
 C1888 C 0.22149 0.77881 0.54067
 C1889 C 0.31023 0.68983 0.60112
 C1890 C 0.30474 0.69534 0.58937
 C1891 C 0.29817 0.70193 0.57573
 C1892 C 0.29235 0.70777 0.56429
 C1893 C 0.28518 0.71495 0.55127
 C1894 C 0.27865 0.72149 0.54062
 C1895 C 0.31011 0.19012 1.10150
 C1896 C 0.30461 0.19558 1.08972
 C1897 C 0.29805 0.20207 1.07604
 C1898 C 0.29223 0.20781 1.06456
 C1899 C 0.28505 0.21488 1.05148
 C1900 C 0.27851 0.22134 1.04079
 C1901 C 0.81017 0.68981 1.10126
 C1902 C 0.80468 0.69530 1.08950
 C1903 C 0.79811 0.70187 1.07586
 C1904 C 0.79228 0.70768 1.06442
 C1905 C 0.78508 0.71483 1.05140
 C1906 C 0.77853 0.72133 1.04074
 C1907 C 0.81026 0.18966 0.60100
 C1908 C 0.80474 0.19516 0.58926
 C1909 C 0.79813 0.20173 0.57563
 C1910 C 0.79226 0.20755 0.56422
 C1911 C 0.78505 0.21471 0.55122
 C1912 C 0.77848 0.22124 0.54057
 C1913 C 0.68988 0.68986 0.39899
 C1914 C 0.69537 0.69537 0.41073
 C1915 C 0.70193 0.70195 0.42435
 C1916 C 0.70775 0.70779 0.43577
 C1917 C 0.71490 0.71499 0.44876
 C1918 C 0.72142 0.72153 0.45940
 C1919 C 0.69013 0.18964 -0.10134
 C1920 C 0.69564 0.19519 -0.08963
 C1921 C 0.70220 0.20185 -0.07605
 C1922 C 0.70800 0.20775 -0.06466
 C1923 C 0.71511 0.21501 -0.05167
 C1924 C 0.72157 0.22160 -0.04102
 C1925 C 0.19020 0.69004 -0.10150
 C1926 C 0.19567 0.69550 -0.08973
 C1927 C 0.20220 0.70203 -0.07607
 C1928 C 0.20799 0.70783 -0.06461
 C1929 C 0.21512 0.71499 -0.05159
 C1930 C 0.22162 0.72153 -0.04093
 C1931 C 0.19001 0.18997 0.39869
 C1932 C 0.19546 0.19541 0.41047
 C1933 C 0.20197 0.20192 0.42416
 C1934 C 0.20774 0.20769 0.43563
 C1935 C 0.21486 0.21482 0.44869
 C1936 C 0.22135 0.22132 0.45937
 C1937 C 0.31050 0.39883 0.68958
 C1938 C 0.30501 0.41057 0.69517
 C1939 C 0.29840 0.42417 0.70185
 C1940 C 0.29252 0.43557 0.70775
 C1941 C 0.28528 0.44854 0.71499
 C1942 C 0.27870 0.45918 0.72155
 C1943 C 0.31048 0.89891 0.18946
 C1944 C 0.30497 0.91058 0.19516
 C1945 C 0.29841 0.92416 0.20191
 C1946 C 0.29258 0.93557 0.20782
 C1947 C 0.28534 0.94855 0.21504
 C1948 C 0.27875 0.95919 0.22158
 C1949 C 0.81050 0.39900 0.18951
 C1950 C 0.80496 0.41068 0.19520
 C1951 C 0.79832 0.42423 0.20194
 C1952 C 0.79244 0.43561 0.20788
 C1953 C 0.78521 0.44856 0.21517
 C1954 C 0.77865 0.45918 0.22176
 C1955 C 0.81032 0.89909 0.68976
 C1956 C 0.80481 0.91078 0.69543
 C1957 C 0.79820 0.92435 0.70218
 C1958 C 0.79233 0.93573 0.70810
 C1959 C 0.78509 0.94871 0.71534
 C1960 C 0.77851 0.95935 0.72188
 C1961 C 0.68953 0.60126 0.69006
 C1962 C 0.69501 0.58950 0.69564
 C1963 C 0.70160 0.57585 0.70226
 C1964 C 0.70746 0.56440 0.70809
 C1965 C 0.71469 0.55138 0.71527
 C1966 C 0.72128 0.54072 0.72178
 C1967 C 0.68979 0.10101 0.18973
 C1968 C 0.69527 0.08928 0.19536
 C1969 C 0.70186 0.07567 0.20206
 C1970 C 0.70771 0.06427 0.20797
 C1971 C 0.71492 0.05127 0.21522
 C1972 C 0.72146 0.04062 0.22178
 C1973 C 0.18967 0.60147 0.18987
 C1974 C 0.19512 0.58970 0.19545
 C1975 C 0.20167 0.57605 0.20208
 C1976 C 0.20751 0.56460 0.20793
 C1977 C 0.21470 0.55157 0.21511
 C1978 C 0.22124 0.54089 0.22164
 C1979 C 0.18954 0.10087 0.68992
 C1980 C 0.19511 0.08919 0.69557
 C1981 C 0.20181 0.07565 0.70229
 C1982 C 0.20775 0.06429 0.70822
 C1983 C 0.21503 0.05133 0.71545
 C1984 C 0.22161 0.04067 0.72197
 C1985 C 0.31030 0.60131 0.31000
 C1986 C 0.30487 0.58954 0.30444
 C1987 C 0.29835 0.57589 0.29780
 C1988 C 0.29254 0.56448 0.29192
 C1989 C 0.28536 0.55148 0.28471
 C1990 C 0.27882 0.54081 0.27822
 C1991 C 0.31082 0.10066 0.81059
 C1992 C 0.30537 0.08891 0.80502
 C1993 C 0.29879 0.07531 0.79835
 C1994 C 0.29292 0.06391 0.79246
 C1995 C 0.28569 0.05095 0.78524
 C1996 C 0.27912 0.04032 0.77870
 C1997 C 0.81076 0.60089 0.81052
 C1998 C 0.80524 0.58918 0.80490
 C1999 C 0.79860 0.57562 0.79821
 C2000 C 0.79269 0.56425 0.79230
 C2001 C 0.78542 0.55131 0.78506
 C2002 C 0.77883 0.54069 0.77851
 C2003 C 0.81056 0.10104 0.31012
 C2004 C 0.80514 0.08928 0.30454
 C2005 C 0.79862 0.07562 0.29791
 C2006 C 0.79282 0.06418 0.29206
 C2007 C 0.78565 0.05116 0.28487
 C2008 C 0.77910 0.04051 0.27836
 C2009 C 0.68925 0.39920 0.31092
 C2010 C 0.69475 0.41090 0.30528
 C2011 C 0.70136 0.42443 0.29847
 C2012 C 0.70723 0.43575 0.29245
 C2013 C 0.71448 0.44865 0.28510
 C2014 C 0.72107 0.45924 0.27850
 C2015 C 0.68933 0.89886 0.81004
 C2016 C 0.69474 0.91067 0.80454
 C2017 C 0.70129 0.92436 0.79798
 C2018 C 0.70713 0.93582 0.79220
 C2019 C 0.71436 0.94887 0.78511
 C2020 C 0.72094 0.95955 0.77864
 C2021 C 0.18924 0.39889 0.81034
 C2022 C 0.19476 0.41059 0.80470
 C2023 C 0.20140 0.42414 0.79797
 C2024 C 0.20729 0.43551 0.79204
 C2025 C 0.21455 0.44846 0.78480
 C2026 C 0.22113 0.45909 0.77827
 C2027 C 0.18934 0.89862 0.30970
 C2028 C 0.19481 0.91037 0.30412
 C2029 C 0.20139 0.92403 0.29752
 C2030 C 0.20725 0.93548 0.29173
 C2031 C 0.21449 0.94854 0.28465
 C2032 C 0.22108 0.95923 0.27822
 C2033 C 0.39881 0.31046 0.68967
 C2034 C 0.41055 0.30496 0.69528
 C2035 C 0.42416 0.29834 0.70196
 C2036 C 0.43556 0.29246 0.70787
 C2037 C 0.44855 0.28522 0.71510
 C2038 C 0.45920 0.27865 0.72166
 C2039 C 0.39884 0.81063 0.18954
 C2040 C 0.41051 0.80511 0.19525
 C2041 C 0.42411 0.79854 0.20200
 C2042 C 0.43552 0.79270 0.20790
 C2043 C 0.44851 0.78545 0.21514
 C2044 C 0.45914 0.77886 0.22170
 C2045 C 0.89868 0.31058 0.18967
 C2046 C 0.91040 0.30508 0.19532
 C2047 C 0.92402 0.29848 0.20200
 C2048 C 0.93545 0.29263 0.20789
 C2049 C 0.94846 0.28542 0.21511
 C2050 C 0.95913 0.27886 0.22165
 C2051 C 0.89863 0.81072 0.68983
 C2052 C 0.91037 0.80524 0.69547
 C2053 C 0.92400 0.79867 0.70216
 C2054 C 0.93543 0.79282 0.70804
 C2055 C 0.94845 0.78559 0.71522
 C2056 C 0.95912 0.77901 0.72174
 C2057 C 0.60174 0.31003 0.30974
 C2058 C 0.59001 0.30457 0.30414
 C2059 C 0.57635 0.29805 0.29750
 C2060 C 0.56489 0.29227 0.29166
 C2061 C 0.55182 0.28513 0.28454
 C2062 C 0.54111 0.27859 0.27810
 C2063 C 0.60122 0.81058 0.81003
 C2064 C 0.58943 0.80515 0.80450
 C2065 C 0.57576 0.79860 0.79793
 C2066 C 0.56431 0.79275 0.79213
 C2067 C 0.55127 0.78552 0.78502
 C2068 C 0.54060 0.77893 0.77856
 C2069 C 0.10094 0.31067 0.81039
 C2070 C 0.08924 0.30515 0.80476
 C2071 C 0.07568 0.29852 0.79804
 C2072 C 0.06433 0.29263 0.79211
 C2073 C 0.05138 0.28538 0.78487
 C2074 C 0.04074 0.27881 0.77834
 C2075 C 0.10052 0.81126 0.31084
 C2076 C 0.08885 0.80572 0.30517
 C2077 C 0.07538 0.79899 0.29836
 C2078 C 0.06411 0.79299 0.29235
 C2079 C 0.05128 0.78561 0.28502
 C2080 C 0.04072 0.77896 0.27844
 C2081 C 0.60113 0.68951 0.69005
 C2082 C 0.58940 0.69502 0.69568
 C2083 C 0.57578 0.70166 0.70234
 C2084 C 0.56436 0.70755 0.70820
 C2085 C 0.55135 0.71482 0.71538
 C2086 C 0.54070 0.72144 0.72189
 C2087 C 0.60141 0.18919 0.18979
 C2088 C 0.58966 0.19466 0.19541
 C2089 C 0.57602 0.20124 0.20208
 C2090 C 0.56458 0.20709 0.20796
 C2091 C 0.55156 0.21431 0.21515
 C2092 C 0.54089 0.22088 0.22168
 C2093 C 0.10126 0.68962 0.18979
 C2094 C 0.08952 0.69510 0.19542
 C2095 C 0.07592 0.70170 0.20213
 C2096 C 0.06452 0.70758 0.20803
 C2097 C 0.05152 0.71483 0.21525
 C2098 C 0.04086 0.72142 0.22176
 C2099 C 0.10092 0.18900 0.68978
 C2100 C 0.08922 0.19456 0.69543
 C2101 C 0.07566 0.20126 0.70217
 C2102 C 0.06430 0.20721 0.70809
 C2103 C 0.05134 0.21450 0.71534
 C2104 C 0.04070 0.22111 0.72188
 C2105 C 0.39867 0.68943 0.31005
 C2106 C 0.41042 0.69490 0.30446
 C2107 C 0.42405 0.70147 0.29780
 C2108 C 0.43544 0.70734 0.29190
 C2109 C 0.44842 0.71459 0.28470
 C2110 C 0.45908 0.72118 0.27823
 C2111 C 0.39874 0.18924 0.81024
 C2112 C 0.41047 0.19475 0.80464
 C2113 C 0.42407 0.20139 0.79797
 C2114 C 0.43546 0.20729 0.79208
 C2115 C 0.44846 0.21453 0.78488
 C2116 C 0.45912 0.22110 0.77836
 C2117 C 0.89893 0.68924 0.81039
 C2118 C 0.91063 0.69479 0.80476
 C2119 C 0.92419 0.70147 0.79806
 C2120 C 0.93555 0.70740 0.79214
 C2121 C 0.94848 0.71469 0.78490
 C2122 C 0.95909 0.72130 0.77834
 C2123 C 0.89878 0.18931 0.31009
 C2124 C 0.91052 0.19479 0.30449
 C2125 C 0.92414 0.20139 0.29782
 C2126 C 0.93554 0.20726 0.29193
 C2127 C 0.94850 0.21453 0.28471
 C2128 C 0.95912 0.22115 0.27819
 C2129 C 0.30989 0.30992 0.60139
 C2130 C 0.30442 0.30445 0.58963
 C2131 C 0.29788 0.29792 0.57597
 C2132 C 0.29209 0.29212 0.56451
 C2133 C 0.28496 0.28497 0.55148
 C2134 C 0.27846 0.27845 0.54081
 C2135 C 0.31026 0.81032 0.10087
 C2136 C 0.30481 0.80483 0.08910
 C2137 C 0.29830 0.79825 0.07546
 C2138 C 0.29253 0.79240 0.06402
 C2139 C 0.28542 0.78519 0.05101
 C2140 C 0.27895 0.77862 0.04036
 C2141 C 0.81005 0.31030 0.10095
 C2142 C 0.80456 0.30481 0.08921
 C2143 C 0.79800 0.29824 0.07559
 C2144 C 0.79218 0.29240 0.06417
 C2145 C 0.78504 0.28521 0.05117
 C2146 C 0.77855 0.27866 0.04052
 C2147 C 0.81003 0.81051 0.60113
 C2148 C 0.80456 0.80501 0.58938
 C2149 C 0.79802 0.79843 0.57574
 C2150 C 0.79222 0.79258 0.56432
 C2151 C 0.78507 0.78537 0.55133
 C2152 C 0.77855 0.77881 0.54070
 C2153 C 0.30998 0.68979 0.39868
 C2154 C 0.30450 0.69530 0.41044
 C2155 C 0.29796 0.70188 0.42409
 C2156 C 0.29216 0.70772 0.43552
 C2157 C 0.28501 0.71493 0.44853
 C2158 C 0.27849 0.72149 0.45918
 C2159 C 0.30992 0.18965 0.89870
 C2160 C 0.30442 0.19513 0.91047
 C2161 C 0.29787 0.20168 0.92414
 C2162 C 0.29207 0.20748 0.93560
 C2163 C 0.28491 0.21462 0.94865
 C2164 C 0.27840 0.22114 0.95932
 C2165 C 0.81006 0.68977 0.89873
 C2166 C 0.80456 0.69527 0.91048
 C2167 C 0.79799 0.70185 0.92412
 C2168 C 0.79218 0.70767 0.93556
 C2169 C 0.78503 0.71481 0.94861
 C2170 C 0.77851 0.72131 0.95929
 C2171 C 0.81016 0.18954 0.39883
 C2172 C 0.80463 0.19507 0.41055
 C2173 C 0.79802 0.20168 0.42415
 C2174 C 0.79215 0.20755 0.43555
 C2175 C 0.78493 0.21477 0.44851
 C2176 C 0.77838 0.22132 0.45914
 C2177 C 0.68954 0.31091 0.39916
 C2178 C 0.69506 0.30540 0.41090
 C2179 C 0.70168 0.29874 0.42447
 C2180 C 0.70755 0.29279 0.43582
 C2181 C 0.71477 0.28546 0.44873
 C2182 C 0.72131 0.27881 0.45931
 C2183 C 0.68973 0.81034 0.89887
 C2184 C 0.69524 0.80486 0.91062
 C2185 C 0.70186 0.79830 0.92425
 C2186 C 0.70774 0.79248 0.93566
 C2187 C 0.71498 0.78532 0.94865
 C2188 C 0.72156 0.77882 0.95929
 C2189 C 0.18972 0.31014 0.89874
 C2190 C 0.19525 0.30463 0.91047
 C2191 C 0.20185 0.29805 0.92409
 C2192 C 0.20769 0.29223 0.93552
 C2193 C 0.21487 0.28509 0.94856
 C2194 C 0.22140 0.27860 0.95924
 C2195 C 0.18893 0.81056 0.39925
 C2196 C 0.19450 0.80501 0.41094
 C2197 C 0.20123 0.79836 0.42447
 C2198 C 0.20722 0.79248 0.43579
 C2199 C 0.21457 0.78527 0.44868
 C2200 C 0.22122 0.77874 0.45927
 C2201 C 0.68997 0.68998 0.60140
 C2202 C 0.69546 0.69546 0.58964
 C2203 C 0.70202 0.70202 0.57599
 C2204 C 0.70783 0.70783 0.56454
 C2205 C 0.71498 0.71500 0.55151
 C2206 C 0.72149 0.72153 0.54084
 C2207 C 0.69005 0.18962 0.10093
 C2208 C 0.69554 0.19515 0.08919
 C2209 C 0.70208 0.20177 0.07555
 C2210 C 0.70786 0.20764 0.06411
 C2211 C 0.71497 0.21486 0.05108
 C2212 C 0.72143 0.22145 0.04042
 C2213 C 0.18987 0.68989 0.10089
 C2214 C 0.19541 0.69542 0.08917
 C2215 C 0.20204 0.70204 0.07558
 C2216 C 0.20789 0.70790 0.06417
 C2217 C 0.21508 0.71510 0.05117
 C2218 C 0.22160 0.72164 0.04051
 C2219 C 0.18990 0.18959 0.60143
 C2220 C 0.19540 0.19510 0.58968
 C2221 C 0.20195 0.20168 0.57603
 C2222 C 0.20774 0.20751 0.56457
 C2223 C 0.21485 0.21469 0.55153
 C2224 C 0.22133 0.22124 0.54084
   
