data_POSCAR
  _audit_creation_date              2014-09-24
  _audit_creation_method            'ToBaCCo'
  _symmetry_space_group_name_H-M    'P1'
  _symmetry_Int_Tables_number       1
  _symmetry_cell_setting            triclinic
  loop_
  _symmetry_equiv_pos_as_xyz
 x,y,z
_cell_length_a 69.0275
_cell_length_b 69.0526
_cell_length_c 69.9610
_cell_angle_alpha 89.951000
_cell_angle_beta 89.964800
_cell_angle_gamma 89.934600
loop_
  _atom_site_label
  _atom_site_type_symbol
  _atom_site_fract_x
  _atom_site_fract_y
  _atom_site_fract_z
N1 N 0.37586 0.32188 0.33626
 N2 N 0.37535 0.33526 0.32288
 C3 C 0.38915 0.33141 0.30978
 C4 C 0.39881 0.31492 0.31546
 C5 C 0.39005 0.30914 0.33221
 H6 H 0.39145 0.33944 0.29669
 H7 H 0.39326 0.29623 0.34038
 Cu8 Cu 0.35549 0.35522 0.32303
 Cu9 Cu 0.35696 0.32089 0.35693
 Cu10 Cu 0.32158 0.35674 0.35734
 N11 N 0.33565 0.37520 0.32321
 N12 N 0.32247 0.37578 0.33679
 C13 C 0.30969 0.38998 0.33288
 C14 C 0.31520 0.39864 0.31599
 C15 C 0.33159 0.38893 0.31010
 H16 H 0.29687 0.39318 0.34119
 H17 H 0.33935 0.39109 0.29683
 N18 N 0.32317 0.33616 0.37686
 N19 N 0.33656 0.32246 0.37665
 C20 C 0.33280 0.30971 0.39076
 C21 C 0.31640 0.31578 0.40025
 C22 C 0.31058 0.33248 0.39113
 H23 H 0.34078 0.29648 0.39336
 H24 H 0.29758 0.34071 0.39407
 H25 H 0.33458 0.33437 0.34232
 H26 H 0.35056 0.34994 0.35720
 N27 N 0.37678 0.82266 -0.16328
 N28 N 0.37618 0.83577 -0.17694
 C29 C 0.39004 0.83174 -0.18995
 C30 C 0.39976 0.81536 -0.18397
 C31 C 0.39102 0.80988 -0.16710
 H32 H 0.39233 0.83953 -0.20317
 H33 H 0.39413 0.79706 -0.15873
 Cu34 Cu 0.35616 0.85572 -0.17726
 Cu35 Cu 0.35773 0.82175 -0.14268
 Cu36 Cu 0.32226 0.85732 -0.14295
 N37 N 0.33636 0.87591 -0.17699
 N38 N 0.32315 0.87647 -0.16342
 C39 C 0.31043 0.89077 -0.16724
 C40 C 0.31606 0.89960 -0.18402
 C41 C 0.33246 0.88986 -0.18994
 H42 H 0.29756 0.89388 -0.15895
 H43 H 0.34034 0.89217 -0.20310
 N44 N 0.32352 0.83686 -0.12334
 N45 N 0.33709 0.82335 -0.12318
 C46 C 0.33324 0.81069 -0.10900
 C47 C 0.31656 0.81658 -0.09987
 C48 C 0.31068 0.83311 -0.10928
 H49 H 0.34138 0.79762 -0.10611
 H50 H 0.29753 0.84120 -0.10664
 H51 H 0.33595 0.83476 -0.15767
 H52 H 0.35192 0.85080 -0.14306
 N53 N 0.87625 0.32370 -0.16322
 N54 N 0.87540 0.33664 -0.17702
 C55 C 0.88930 0.33270 -0.18999
 C56 C 0.89930 0.31653 -0.18390
 C57 C 0.89068 0.31111 -0.16695
 H58 H 0.89141 0.34035 -0.20332
 H59 H 0.89399 0.29839 -0.15853
 Cu60 Cu 0.85501 0.35618 -0.17770
 Cu61 Cu 0.85711 0.32263 -0.14280
 Cu62 Cu 0.82127 0.35770 -0.14285
 N63 N 0.83522 0.37633 -0.17694
 N64 N 0.82212 0.37688 -0.16326
 C65 C 0.80941 0.39122 -0.16694
 C66 C 0.81497 0.40012 -0.18370
 C67 C 0.83129 0.39037 -0.18977
 H68 H 0.79659 0.39431 -0.15857
 H69 H 0.83911 0.39275 -0.20297
 N70 N 0.82279 0.33709 -0.12338
 N71 N 0.83653 0.32376 -0.12331
 C72 C 0.83282 0.31091 -0.10927
 C73 C 0.81605 0.31652 -0.10011
 C74 C 0.80999 0.33306 -0.10937
 H75 H 0.84108 0.29789 -0.10650
 H76 H 0.79673 0.34097 -0.10670
 H77 H 0.83476 0.33578 -0.15759
 H78 H 0.85074 0.35216 -0.14331
 N79 N 0.87587 0.82275 0.33701
 N80 N 0.87559 0.83630 0.32376
 C81 C 0.88912 0.83221 0.31045
 C82 C 0.89838 0.81534 0.31584
 C83 C 0.88965 0.80965 0.33266
 H84 H 0.89157 0.84043 0.29750
 H85 H 0.89252 0.79655 0.34068
 Cu86 Cu 0.85655 0.85705 0.32501
 Cu87 Cu 0.85691 0.82183 0.35774
 Cu88 Cu 0.82075 0.85709 0.35710
 N89 N 0.83573 0.87599 0.32345
 N90 N 0.82178 0.87599 0.33630
 C91 C 0.80877 0.88981 0.33183
 C92 C 0.81500 0.89890 0.31538
 C93 C 0.83204 0.88979 0.31029
 H94 H 0.79548 0.89258 0.33958
 H95 H 0.84072 0.89259 0.29770
 N96 N 0.82240 0.83669 0.37689
 N97 N 0.83626 0.82344 0.37724
 C98 C 0.83269 0.81094 0.39161
 C99 C 0.81594 0.81668 0.40066
 C100 C 0.80968 0.83291 0.39102
 H101 H 0.84103 0.79804 0.39468
 H102 H 0.79634 0.84073 0.39356
 H103 H 0.83500 0.83524 0.34240
 H104 H 0.84971 0.85067 0.35858
 N105 N 0.62422 0.67803 0.33645
 N106 N 0.62488 0.66487 0.32287
 C107 C 0.61079 0.66857 0.31005
 C108 C 0.60086 0.68480 0.31601
 C109 C 0.60972 0.69054 0.33272
 H110 H 0.60842 0.66061 0.29696
 H111 H 0.60640 0.70330 0.34106
 Cu112 Cu 0.64505 0.64513 0.32251
 Cu113 Cu 0.64323 0.67900 0.35699
 Cu114 Cu 0.67845 0.64321 0.35749
 N115 N 0.66481 0.62500 0.32311
 N116 N 0.67762 0.62415 0.33701
 C117 C 0.69025 0.60974 0.33340
 C118 C 0.68502 0.60118 0.31639
 C119 C 0.66892 0.61116 0.31015
 H120 H 0.70285 0.60637 0.34197
 H121 H 0.66139 0.60905 0.29677
 N122 N 0.67697 0.66381 0.37689
 N123 N 0.66366 0.67757 0.37660
 C124 C 0.66753 0.69041 0.39058
 C125 C 0.68392 0.68433 0.40006
 C126 C 0.68963 0.66753 0.39107
 H127 H 0.65962 0.70370 0.39309
 H128 H 0.70258 0.65924 0.39404
 H129 H 0.66562 0.66546 0.34242
 H130 H 0.64923 0.64958 0.35679
 N131 N 0.62410 0.17720 -0.16309
 N132 N 0.62486 0.16414 -0.17677
 C133 C 0.61109 0.16816 -0.18984
 C134 C 0.60119 0.18442 -0.18385
 C135 C 0.60979 0.18987 -0.16693
 H136 H 0.60893 0.16042 -0.20310
 H137 H 0.60646 0.20259 -0.15853
 Cu138 Cu 0.64481 0.14419 -0.17671
 Cu139 Cu 0.64305 0.17816 -0.14247
 Cu140 Cu 0.67892 0.14287 -0.14265
 N141 N 0.66476 0.12427 -0.17665
 N142 N 0.67802 0.12379 -0.16314
 C143 C 0.69069 0.10945 -0.16688
 C144 C 0.68497 0.10054 -0.18356
 C145 C 0.66861 0.11027 -0.18953
 H146 H 0.70352 0.10629 -0.15858
 H147 H 0.66068 0.10786 -0.20264
 N148 N 0.67734 0.16335 -0.12312
 N149 N 0.66359 0.17668 -0.12295
 C150 C 0.66723 0.18934 -0.10875
 C151 C 0.68395 0.18360 -0.09963
 C152 C 0.69008 0.16720 -0.10905
 H153 H 0.65896 0.20232 -0.10588
 H154 H 0.70334 0.15928 -0.10643
 H155 H 0.66538 0.16519 -0.15744
 H156 H 0.64970 0.14914 -0.14259
 N157 N 0.12394 0.67754 -0.16304
 N158 N 0.12469 0.66455 -0.17677
 C159 C 0.11075 0.66847 -0.18969
 C160 C 0.10077 0.68461 -0.18356
 C161 C 0.10947 0.69009 -0.16670
 H162 H 0.10855 0.66076 -0.20296
 H163 H 0.10613 0.70277 -0.15824
 Cu164 Cu 0.14478 0.64474 -0.17704
 Cu165 Cu 0.14307 0.67854 -0.14262
 Cu166 Cu 0.17870 0.64311 -0.14265
 N167 N 0.16465 0.62472 -0.17680
 N168 N 0.17769 0.62401 -0.16310
 C169 C 0.19029 0.60959 -0.16679
 C170 C 0.18479 0.60087 -0.18363
 C171 C 0.16858 0.61079 -0.18971
 H172 H 0.20301 0.60630 -0.15837
 H173 H 0.16084 0.60855 -0.20296
 N174 N 0.17727 0.66370 -0.12322
 N175 N 0.16369 0.67719 -0.12320
 C176 C 0.16753 0.69001 -0.10920
 C177 C 0.18420 0.68420 -0.10003
 C178 C 0.19010 0.66759 -0.10923
 H179 H 0.15942 0.70314 -0.10649
 H180 H 0.20328 0.65956 -0.10656
 H181 H 0.16546 0.66534 -0.15752
 H182 H 0.14952 0.64930 -0.14288
 N183 N 0.12386 0.17702 0.33670
 N184 N 0.12462 0.16409 0.32291
 C185 C 0.11079 0.16818 0.30992
 C186 C 0.10091 0.18439 0.31603
 C187 C 0.10953 0.18971 0.33299
 H188 H 0.10865 0.16057 0.29658
 H189 H 0.10627 0.20241 0.34144
 Cu190 Cu 0.14473 0.14430 0.32247
 Cu191 Cu 0.14294 0.17793 0.35718
 Cu192 Cu 0.17877 0.14274 0.35676
 N193 N 0.16455 0.12424 0.32275
 N194 N 0.17780 0.12369 0.33625
 C195 C 0.19037 0.10926 0.33251
 C196 C 0.18459 0.10033 0.31586
 C197 C 0.16827 0.11015 0.30994
 H198 H 0.20321 0.10605 0.34079
 H199 H 0.16028 0.10771 0.29687
 N200 N 0.17733 0.16319 0.37636
 N201 N 0.16356 0.17649 0.37662
 C202 C 0.16725 0.18914 0.39082
 C203 C 0.18403 0.18345 0.39986
 C204 C 0.19015 0.16706 0.39038
 H205 H 0.15893 0.20208 0.39377
 H206 H 0.20343 0.15916 0.39293
 H207 H 0.16511 0.16501 0.34214
 H208 H 0.14932 0.14873 0.35672
 N209 N 0.62401 0.32248 0.66337
 N210 N 0.62496 0.33527 0.67727
 C211 C 0.61105 0.33133 0.69022
 C212 C 0.60094 0.31533 0.68401
 C213 C 0.60950 0.30998 0.66701
 H214 H 0.60894 0.33893 0.70357
 H215 H 0.60604 0.29742 0.65845
 Cu216 Cu 0.64518 0.35491 0.67791
 Cu217 Cu 0.64295 0.32164 0.64276
 Cu218 Cu 0.67842 0.35706 0.64269
 N219 N 0.66475 0.37520 0.67708
 N220 N 0.67757 0.37609 0.66319
 C221 C 0.69004 0.39064 0.66673
 C222 C 0.68465 0.39927 0.68368
 C223 C 0.66865 0.38917 0.68994
 H224 H 0.70262 0.39406 0.65815
 H225 H 0.66103 0.39132 0.70329
 N226 N 0.67695 0.33658 0.62315
 N227 N 0.66339 0.32310 0.62314
 C228 C 0.66717 0.31036 0.60903
 C229 C 0.68379 0.31621 0.59978
 C230 C 0.68970 0.33276 0.60905
 H231 H 0.65905 0.29727 0.60629
 H232 H 0.70285 0.34081 0.60632
 H233 H 0.66543 0.33462 0.65751
 H234 H 0.64910 0.35099 0.64355
 N235 N 0.62399 0.82254 1.16362
 N236 N 0.62442 0.83595 1.17696
 C237 C 0.61071 0.83203 1.19012
 C238 C 0.60118 0.81544 1.18452
 C239 C 0.60994 0.80970 1.16776
 H240 H 0.60833 0.84012 1.20315
 H241 H 0.60694 0.79670 1.15968
 Cu242 Cu 0.64403 0.85609 1.17628
 Cu243 Cu 0.64288 0.82159 1.14286
 Cu244 Cu 0.67858 0.85719 1.14293
 N245 N 0.66435 0.87551 1.17711
 N246 N 0.67775 0.87596 1.16373
 C247 C 0.69069 0.88989 1.16792
 C248 C 0.68501 0.89855 1.18476
 C249 C 0.66837 0.88908 1.19035
 H250 H 0.70370 0.89289 1.15982
 H251 H 0.66031 0.89141 1.20341
 N252 N 0.67686 0.83687 1.12319
 N253 N 0.66334 0.82331 1.12320
 C254 C 0.66699 0.81078 1.10890
 C255 C 0.68343 0.81683 1.09952
 C256 C 0.68942 0.83329 1.10888
 H257 H 0.65892 0.79767 1.10611
 H258 H 0.70251 0.84140 1.10607
 H259 H 0.66520 0.83476 1.15784
 H260 H 0.64967 0.85035 1.14246
 N261 N 0.12340 0.32303 1.16281
 N262 N 0.12340 0.33683 1.17576
 C263 C 0.10935 0.33324 1.18866
 C264 C 0.10009 0.31642 1.18335
 C265 C 0.10934 0.31020 1.16701
 H266 H 0.10661 0.34165 1.20141
 H267 H 0.10666 0.29690 1.15931
 Cu268 Cu 0.14312 0.35686 1.17532
 Cu269 Cu 0.14278 0.32166 1.14254
 Cu270 Cu 0.17840 0.35727 1.14251
 N271 N 0.16325 0.37648 1.17586
 N272 N 0.17706 0.37653 1.16288
 C273 C 0.18996 0.39048 1.16716
 C274 C 0.18380 0.39962 1.18358
 C275 C 0.16692 0.39040 1.18885
 H276 H 0.20328 0.39316 1.15946
 H277 H 0.15849 0.39308 1.20161
 N278 N 0.17714 0.33645 1.12323
 N279 N 0.16365 0.32288 1.12328
 C280 C 0.16756 0.31003 1.10931
 C281 C 0.18418 0.31590 1.10009
 C282 C 0.18997 0.33257 1.10921
 H283 H 0.15949 0.29691 1.10659
 H284 H 0.20305 0.34071 1.10641
 H285 H 0.16465 0.33549 1.15749
 H286 H 0.14932 0.35079 1.14159
 N287 N 0.12379 0.82283 0.66315
 N288 N 0.12369 0.83679 0.67595
 C289 C 0.10982 0.83313 0.68903
 C290 C 0.10075 0.81610 0.68398
 C291 C 0.10994 0.80986 0.66759
 H292 H 0.10704 0.84174 0.70165
 H293 H 0.10732 0.79650 0.65998
 Cu294 Cu 0.14289 0.85730 0.67472
 Cu295 Cu 0.14305 0.82154 0.64267
 Cu296 Cu 0.17885 0.85704 0.64279
 N297 N 0.16372 0.87613 0.67627
 N298 N 0.17768 0.87607 0.66344
 C299 C 0.19077 0.88974 0.66800
 C300 C 0.18465 0.89875 0.68451
 C301 C 0.16753 0.88977 0.68950
 H302 H 0.20413 0.89238 0.66035
 H303 H 0.15894 0.89249 0.70215
 N304 N 0.17736 0.83645 0.62327
 N305 N 0.16382 0.82291 0.62328
 C306 C 0.16756 0.81027 0.60908
 C307 C 0.18408 0.81624 0.59977
 C308 C 0.19002 0.83276 0.60907
 H309 H 0.15941 0.79721 0.60625
 H310 H 0.20307 0.84091 0.60623
 H311 H 0.16464 0.83552 0.65777
 H312 H 0.14980 0.85053 0.64122
 N313 N 0.37606 0.67782 0.66305
 N314 N 0.37519 0.66500 0.67695
 C315 C 0.38917 0.66892 0.68980
 C316 C 0.39924 0.68495 0.68356
 C317 C 0.39058 0.69033 0.66661
 H318 H 0.39133 0.66130 0.70314
 H319 H 0.39398 0.70292 0.65804
 Cu320 Cu 0.35496 0.64537 0.67787
 Cu321 Cu 0.35697 0.67865 0.64261
 Cu322 Cu 0.32174 0.64302 0.64262
 N323 N 0.33560 0.62488 0.67693
 N324 N 0.32280 0.62392 0.66304
 C325 C 0.31043 0.60927 0.66660
 C326 C 0.31586 0.60064 0.68353
 C327 C 0.33180 0.61084 0.68978
 H328 H 0.29784 0.60581 0.65806
 H329 H 0.33942 0.60874 0.70312
 N330 N 0.32298 0.66361 0.62316
 N331 N 0.33644 0.67718 0.62314
 C332 C 0.33254 0.68996 0.60908
 C333 C 0.31595 0.68402 0.59987
 C334 C 0.31016 0.66739 0.60912
 H335 H 0.34057 0.70311 0.60632
 H336 H 0.29708 0.65926 0.60640
 H337 H 0.33456 0.66551 0.65743
 H338 H 0.35105 0.64925 0.64351
 N339 N 0.37619 0.17710 1.16384
 N340 N 0.37541 0.16419 1.17766
 C341 C 0.38943 0.16805 1.19048
 C342 C 0.39945 0.18409 1.18422
 C343 C 0.39072 0.18957 1.16737
 H344 H 0.39166 0.16037 1.20378
 H345 H 0.39409 0.20220 1.15884
 Cu346 Cu 0.35527 0.14453 1.17839
 Cu347 Cu 0.35714 0.17803 1.14340
 Cu348 Cu 0.32185 0.14249 1.14338
 N349 N 0.33576 0.12424 1.17763
 N350 N 0.32288 0.12339 1.16380
 C351 C 0.31048 0.10879 1.16735
 C352 C 0.31598 0.10008 1.18422
 C353 C 0.33196 0.11019 1.19046
 H354 H 0.29786 0.10538 1.15884
 H355 H 0.33962 0.10801 1.20377
 N356 N 0.32316 0.16305 1.12392
 N357 N 0.33665 0.17660 1.12393
 C358 C 0.33289 0.18930 1.10977
 C359 C 0.31637 0.18336 1.10046
 C360 C 0.31047 0.16679 1.10975
 H361 H 0.34100 0.20240 1.10700
 H362 H 0.29741 0.15864 1.10696
 H363 H 0.33487 0.16484 1.15824
 H364 H 0.35121 0.14865 1.14408
 N365 N 0.87658 0.67727 1.16282
 N366 N 0.87673 0.66333 1.17562
 C367 C 0.89078 0.66692 1.18852
 C368 C 0.89989 0.68387 1.18333
 C369 C 0.89059 0.69013 1.16702
 H370 H 0.89348 0.65853 1.20131
 H371 H 0.89322 0.70345 1.15929
 Cu372 Cu 0.85695 0.64333 1.17564
 Cu373 Cu 0.85704 0.67873 1.14279
 Cu374 Cu 0.82172 0.64293 1.14249
 N375 N 0.83686 0.62363 1.17571
 N376 N 0.82316 0.62352 1.16267
 C377 C 0.81024 0.60958 1.16691
 C378 C 0.81618 0.60061 1.18351
 C379 C 0.83302 0.60984 1.18883
 H380 H 0.79705 0.60681 1.15904
 H381 H 0.84116 0.60742 1.20182
 N382 N 0.82289 0.66385 1.12333
 N383 N 0.83618 0.67760 1.12358
 C384 C 0.83231 0.69041 1.10955
 C385 C 0.81592 0.68433 1.10013
 C386 C 0.81024 0.66754 1.10912
 H387 H 0.84030 0.70359 1.10684
 H388 H 0.79740 0.65916 1.10602
 H389 H 0.83503 0.66474 1.15796
 H390 H 0.85055 0.64966 1.14198
 N391 N 0.87654 0.17692 0.66273
 N392 N 0.87654 0.16313 0.67575
 C393 C 0.89051 0.16685 0.68866
 C394 C 0.89967 0.18375 0.68337
 C395 C 0.89051 0.18983 0.66693
 H396 H 0.89312 0.15855 0.70153
 H397 H 0.89302 0.20320 0.65925
 Cu398 Cu 0.85667 0.14319 0.67556
 Cu399 Cu 0.85699 0.17849 0.64266
 Cu400 Cu 0.82131 0.14313 0.64287
 N401 N 0.83658 0.12348 0.67593
 N402 N 0.82272 0.12361 0.66301
 C403 C 0.80967 0.10982 0.66734
 C404 C 0.81573 0.10061 0.68377
 C405 C 0.83278 0.10958 0.68892
 H406 H 0.79622 0.10744 0.65977
 H407 H 0.84114 0.10689 0.70172
 N408 N 0.82240 0.16400 0.62369
 N409 N 0.83599 0.17747 0.62360
 C410 C 0.83226 0.19014 0.60942
 C411 C 0.81565 0.18427 0.60023
 C412 C 0.80968 0.16777 0.60957
 H413 H 0.84055 0.20307 0.60642
 H414 H 0.79666 0.15958 0.60671
 H415 H 0.83514 0.16507 0.65825
 H416 H 0.85035 0.14968 0.64217
 N417 N 0.32263 0.37617 0.66292
 N418 N 0.33567 0.37546 0.67662
 C419 C 0.33200 0.38967 0.68931
 C420 C 0.31587 0.39968 0.68321
 C421 C 0.31019 0.39077 0.66650
 H422 H 0.33980 0.39193 0.70252
 H423 H 0.29736 0.39397 0.65820
 Cu424 Cu 0.35487 0.35483 0.67797
 Cu425 Cu 0.32144 0.35674 0.64285
 Cu426 Cu 0.35691 0.32132 0.64285
 N427 N 0.37544 0.33555 0.67674
 N428 N 0.37623 0.32258 0.66300
 C429 C 0.39083 0.31014 0.66660
 C430 C 0.39963 0.31573 0.68338
 C431 C 0.38957 0.33182 0.68951
 H432 H 0.39409 0.29735 0.65827
 H433 H 0.39176 0.33957 0.70276
 N434 N 0.33610 0.32242 0.62363
 N435 N 0.32252 0.33591 0.62365
 C436 C 0.30970 0.33202 0.60964
 C437 C 0.31561 0.31540 0.60043
 C438 C 0.33228 0.30960 0.60961
 H439 H 0.29661 0.34015 0.60684
 H440 H 0.34050 0.29657 0.60679
 H441 H 0.33474 0.33441 0.65761
 H442 H 0.35103 0.35073 0.64355
 N443 N 0.32370 0.87751 0.16188
 N444 N 0.33724 0.87707 0.17509
 C445 C 0.33369 0.89107 0.18803
 C446 C 0.31719 0.90077 0.18248
 C447 C 0.31115 0.89187 0.16590
 H448 H 0.34182 0.89337 0.20103
 H449 H 0.29801 0.89489 0.15802
 Cu450 Cu 0.35704 0.85711 0.17506
 Cu451 Cu 0.32189 0.85780 0.14203
 Cu452 Cu 0.35737 0.82198 0.14207
 N453 N 0.37681 0.83710 0.17513
 N454 N 0.37711 0.82355 0.16193
 C455 C 0.39145 0.81092 0.16590
 C456 C 0.40049 0.81696 0.18242
 C457 C 0.39088 0.83351 0.18798
 H458 H 0.39440 0.79780 0.15798
 H459 H 0.39335 0.84170 0.20092
 N460 N 0.33613 0.82293 0.12324
 N461 N 0.32263 0.83653 0.12323
 C462 C 0.30954 0.83246 0.10953
 C463 C 0.31517 0.81562 0.10058
 C464 C 0.33196 0.80987 0.10956
 H465 H 0.29650 0.84068 0.10674
 H466 H 0.34006 0.79676 0.10679
 H467 H 0.33554 0.83593 0.15701
 H468 H 0.35098 0.85120 0.14120
 N469 N 0.82222 0.37599 0.16311
 N470 N 0.83604 0.37594 0.17610
 C471 C 0.83212 0.38958 0.18931
 C472 C 0.81510 0.39868 0.18417
 C473 C 0.80912 0.38972 0.16758
 H474 H 0.84059 0.39224 0.20205
 H475 H 0.79585 0.39243 0.15980
 Cu476 Cu 0.85684 0.35701 0.17471
 Cu477 Cu 0.82128 0.35702 0.14239
 Cu478 Cu 0.85701 0.32132 0.14262
 N479 N 0.87591 0.33632 0.17620
 N480 N 0.87597 0.32242 0.16331
 C481 C 0.88972 0.30938 0.16783
 C482 C 0.89870 0.31546 0.18436
 C483 C 0.88959 0.33251 0.18942
 H484 H 0.89244 0.29607 0.16012
 H485 H 0.89225 0.34105 0.20211
 N486 N 0.83651 0.32283 0.12295
 N487 N 0.82299 0.33642 0.12281
 C488 C 0.81051 0.33277 0.10845
 C489 C 0.81656 0.31625 0.09919
 C490 C 0.83295 0.31022 0.10869
 H491 H 0.79748 0.34094 0.10548
 H492 H 0.84108 0.29712 0.10594
 H493 H 0.83511 0.33530 0.15750
 H494 H 0.85020 0.35025 0.14117
 N495 N 0.82219 0.87650 0.66324
 N496 N 0.83514 0.87567 0.67701
 C497 C 0.83139 0.88976 0.68981
 C498 C 0.81535 0.89986 0.68363
 C499 C 0.80977 0.89111 0.66682
 H500 H 0.83915 0.89198 0.70305
 H501 H 0.79711 0.89453 0.65835
 Cu502 Cu 0.85467 0.85532 0.67783
 Cu503 Cu 0.82123 0.85741 0.64282
 Cu504 Cu 0.85667 0.82190 0.64278
 N505 N 0.87489 0.83566 0.67708
 N506 N 0.87572 0.82276 0.66327
 C507 C 0.89024 0.81024 0.66689
 C508 C 0.89894 0.81571 0.68377
 C509 C 0.88889 0.83179 0.68993
 H510 H 0.89362 0.79760 0.65840
 H511 H 0.89111 0.83950 0.70320
 N512 N 0.83615 0.82338 0.62329
 N513 N 0.82258 0.83688 0.62334
 C514 C 0.80981 0.83310 0.60927
 C515 C 0.81574 0.81654 0.59997
 C516 C 0.83236 0.81066 0.60918
 H517 H 0.79667 0.84118 0.60655
 H518 H 0.84050 0.79756 0.60639
 H519 H 0.83438 0.83498 0.65762
 H520 H 0.85066 0.85125 0.64350
 N521 N 0.67757 0.62399 0.66315
 N522 N 0.66472 0.62488 0.67702
 C523 C 0.66843 0.61070 0.68974
 C524 C 0.68434 0.60048 0.68341
 C525 C 0.68988 0.60925 0.66658
 H526 H 0.66077 0.60852 0.70305
 H527 H 0.70249 0.60582 0.65804
 Cu528 Cu 0.64538 0.64537 0.67818
 Cu529 Cu 0.67865 0.64324 0.64289
 Cu530 Cu 0.64311 0.67859 0.64285
 N531 N 0.62494 0.66477 0.67712
 N532 N 0.62393 0.67752 0.66317
 C533 C 0.60920 0.68983 0.66663
 C534 C 0.60056 0.68440 0.68357
 C535 C 0.61085 0.66855 0.68992
 H536 H 0.60567 0.70237 0.65803
 H537 H 0.60878 0.66097 0.70330
 N538 N 0.66377 0.67736 0.62351
 N539 N 0.67739 0.66392 0.62358
 C540 C 0.69018 0.66777 0.60952
 C541 C 0.68418 0.68429 0.60022
 C542 C 0.66752 0.69011 0.60940
 H543 H 0.70334 0.65972 0.60680
 H544 H 0.65931 0.70314 0.60656
 H545 H 0.66562 0.66568 0.65775
 H546 H 0.64930 0.64926 0.64385
 N547 N 0.67673 0.12274 0.16263
 N548 N 0.66327 0.12318 0.17593
 C549 C 0.66681 0.10907 0.18879
 C550 C 0.68326 0.09932 0.18311
 C551 C 0.68927 0.10832 0.16654
 H552 H 0.65868 0.10666 0.20180
 H553 H 0.70233 0.10526 0.15854
 Cu554 Cu 0.64341 0.14314 0.17604
 Cu555 Cu 0.67830 0.14235 0.14259
 Cu556 Cu 0.64274 0.17797 0.14254
 N557 N 0.62345 0.16300 0.17581
 N558 N 0.62309 0.17646 0.16250
 C559 C 0.60866 0.18902 0.16634
 C560 C 0.59958 0.18301 0.18286
 C561 C 0.60928 0.16657 0.18860
 H562 H 0.60568 0.20209 0.15834
 H563 H 0.60681 0.15846 0.20161
 N564 N 0.66385 0.17702 0.12357
 N565 N 0.67738 0.16346 0.12357
 C566 C 0.69046 0.16757 0.10984
 C567 C 0.68480 0.18441 0.10085
 C568 C 0.66799 0.19011 0.10986
 H569 H 0.70356 0.15944 0.10711
 H570 H 0.65990 0.20324 0.10716
 H571 H 0.66455 0.16416 0.15741
 H572 H 0.64898 0.14859 0.14198
 N573 N 0.17763 0.62383 0.16310
 N574 N 0.16395 0.62403 0.17620
 C575 C 0.16787 0.61039 0.18944
 C576 C 0.18476 0.60115 0.18414
 C577 C 0.19067 0.61002 0.16747
 H578 H 0.15952 0.60782 0.20228
 H579 H 0.20386 0.60721 0.15959
 Cu580 Cu 0.14320 0.64302 0.17488
 Cu581 Cu 0.17857 0.64277 0.14237
 Cu582 Cu 0.14296 0.67862 0.14260
 N583 N 0.12428 0.66384 0.17644
 N584 N 0.12412 0.67762 0.16344
 C585 C 0.11039 0.69070 0.16796
 C586 C 0.10154 0.68474 0.18462
 C587 C 0.11070 0.66775 0.18976
 H588 H 0.10762 0.70396 0.16017
 H589 H 0.10813 0.65930 0.20254
 N590 N 0.16340 0.67694 0.12285
 N591 N 0.17690 0.66333 0.12275
 C592 C 0.18940 0.66692 0.10838
 C593 C 0.18339 0.68343 0.09907
 C594 C 0.16699 0.68951 0.10854
 H595 H 0.20244 0.65875 0.10546
 H596 H 0.15891 0.70264 0.10578
 H597 H 0.16485 0.66468 0.15746
 H598 H 0.14968 0.64972 0.14126
 N599 N 0.17725 0.12320 0.66306
 N600 N 0.16427 0.12393 0.67682
 C601 C 0.16806 0.10980 0.68958
 C602 C 0.18414 0.09975 0.68338
 C603 C 0.18970 0.10859 0.66658
 H604 H 0.16034 0.10755 0.70285
 H605 H 0.20241 0.10530 0.65812
 Cu606 Cu 0.14475 0.14432 0.67768
 Cu607 Cu 0.17837 0.14253 0.64285
 Cu608 Cu 0.14303 0.17813 0.64290
 N609 N 0.12458 0.16408 0.67702
 N610 N 0.12384 0.17706 0.66326
 C611 C 0.10927 0.18954 0.66684
 C612 C 0.10048 0.18400 0.68366
 C613 C 0.11051 0.16790 0.68983
 H614 H 0.10592 0.20221 0.65835
 H615 H 0.10824 0.16015 0.70308
 N616 N 0.16371 0.17680 0.62354
 N617 N 0.17723 0.16326 0.62356
 C618 C 0.19003 0.16704 0.60949
 C619 C 0.18415 0.18363 0.60022
 C620 C 0.16754 0.18955 0.60944
 H621 H 0.20311 0.15889 0.60672
 H622 H 0.15941 0.20264 0.60662
 H623 H 0.16511 0.16489 0.65777
 H624 H 0.14890 0.14880 0.64340
 N625 N 0.32275 0.62369 0.33658
 N626 N 0.33581 0.62443 0.32290
 C627 C 0.33217 0.61026 0.31017
 C628 C 0.31606 0.60024 0.31627
 C629 C 0.31035 0.60910 0.33299
 H630 H 0.34003 0.60797 0.29699
 H631 H 0.29757 0.60582 0.34135
 Cu632 Cu 0.35518 0.64491 0.32181
 Cu633 Cu 0.32155 0.64290 0.35682
 Cu634 Cu 0.35732 0.67793 0.35728
 N635 N 0.37578 0.66412 0.32317
 N636 N 0.37665 0.67686 0.33711
 C637 C 0.39113 0.68942 0.33355
 C638 C 0.39977 0.68415 0.31657
 C639 C 0.38975 0.66811 0.31030
 H640 H 0.39435 0.70211 0.34201
 H641 H 0.39181 0.66064 0.29688
 N642 N 0.33649 0.67678 0.37648
 N643 N 0.32274 0.66350 0.37620
 C644 C 0.30982 0.66742 0.39012
 C645 C 0.31584 0.68383 0.39955
 C646 C 0.33267 0.68951 0.39058
 H647 H 0.29658 0.65949 0.39269
 H648 H 0.34096 0.70244 0.39356
 H649 H 0.33500 0.66515 0.34231
 H650 H 0.35106 0.64847 0.35625
 N651 N 0.32278 0.12333 0.83708
 N652 N 0.33594 0.12393 0.82348
 C653 C 0.33221 0.10982 0.81071
 C654 C 0.31594 0.09996 0.81672
 C655 C 0.31026 0.10886 0.83343
 H656 H 0.34007 0.10748 0.79754
 H657 H 0.29740 0.10571 0.84171
 Cu658 Cu 0.35551 0.14424 0.82274
 Cu659 Cu 0.32153 0.14270 0.85724
 Cu660 Cu 0.35701 0.17807 0.85743
 N661 N 0.37572 0.16392 0.82352
 N662 N 0.37638 0.17691 0.83725
 C663 C 0.39086 0.18946 0.83366
 C664 C 0.39968 0.18397 0.81684
 C665 C 0.38978 0.16781 0.81071
 H666 H 0.39405 0.20220 0.84206
 H667 H 0.39206 0.16011 0.79744
 N668 N 0.33617 0.17688 0.87662
 N669 N 0.32257 0.16344 0.87650
 C670 C 0.30967 0.16733 0.89045
 C671 C 0.31556 0.18388 0.89974
 C672 C 0.33229 0.18966 0.89066
 H673 H 0.29653 0.15926 0.89315
 H674 H 0.34048 0.20267 0.89355
 H675 H 0.33501 0.16490 0.84242
 H676 H 0.35102 0.14874 0.85698
 N677 N 0.82236 0.62399 0.83692
 N678 N 0.83533 0.62473 0.82316
 C679 C 0.83147 0.61073 0.81030
 C680 C 0.81532 0.60078 0.81644
 C681 C 0.80982 0.60952 0.83330
 H682 H 0.83921 0.60848 0.79705
 H683 H 0.79712 0.60621 0.84176
 Cu684 Cu 0.85500 0.64491 0.82245
 Cu685 Cu 0.82141 0.64312 0.85733
 Cu686 Cu 0.85687 0.67857 0.85722
 N687 N 0.87522 0.66454 0.82304
 N688 N 0.87600 0.67752 0.83677
 C689 C 0.89053 0.69000 0.83310
 C690 C 0.89925 0.68445 0.81624
 C691 C 0.88923 0.66834 0.81016
 H692 H 0.89388 0.70269 0.84152
 H693 H 0.89145 0.66059 0.79691
 N694 N 0.83627 0.67726 0.87670
 N695 N 0.82278 0.66371 0.87676
 C696 C 0.81006 0.66749 0.89090
 C697 C 0.81593 0.68408 0.90013
 C698 C 0.83248 0.69001 0.89080
 H699 H 0.79700 0.65933 0.89374
 H700 H 0.84059 0.70310 0.89356
 H701 H 0.83456 0.66542 0.84241
 H702 H 0.85077 0.64926 0.85672
 N703 N 0.82273 0.12362 0.33680
 N704 N 0.83561 0.12439 0.32295
 C705 C 0.83161 0.11046 0.31008
 C706 C 0.81549 0.10053 0.31631
 C707 C 0.81013 0.10921 0.33322
 H708 H 0.83922 0.10828 0.29673
 H709 H 0.79745 0.10594 0.34173
 Cu710 Cu 0.85533 0.14452 0.32220
 Cu711 Cu 0.82174 0.14269 0.35718
 Cu712 Cu 0.85686 0.17840 0.35671
 N713 N 0.87567 0.16403 0.32297
 N714 N 0.87612 0.17729 0.33646
 C715 C 0.89069 0.18973 0.33288
 C716 C 0.89982 0.18385 0.31635
 C717 C 0.88999 0.16760 0.31035
 H718 H 0.89384 0.20257 0.34115
 H719 H 0.89253 0.15959 0.29731
 N720 N 0.83628 0.17716 0.37615
 N721 N 0.82307 0.16334 0.37651
 C722 C 0.81044 0.16700 0.39076
 C723 C 0.81608 0.18382 0.39972
 C724 C 0.83239 0.18998 0.39016
 H725 H 0.79758 0.15863 0.39382
 H726 H 0.84028 0.20325 0.39270
 H727 H 0.83457 0.16468 0.34205
 H728 H 0.85103 0.14880 0.35647
 N729 N 0.67735 0.37594 0.33659
 N730 N 0.66425 0.37532 0.32295
 C731 C 0.66793 0.38953 0.31024
 C732 C 0.68410 0.39947 0.31634
 C733 C 0.68979 0.39051 0.33302
 H734 H 0.66004 0.39195 0.29710
 H735 H 0.70253 0.39376 0.34143
 Cu736 Cu 0.64473 0.35498 0.32218
 Cu737 Cu 0.67839 0.35679 0.35697
 Cu738 Cu 0.64285 0.32150 0.35719
 N739 N 0.62459 0.33526 0.32290
 N740 N 0.62380 0.32239 0.33676
 C741 C 0.60941 0.30977 0.33317
 C742 C 0.60077 0.31509 0.31622
 C743 C 0.61069 0.33122 0.30999
 H744 H 0.60613 0.29712 0.34170
 H745 H 0.60852 0.33881 0.29664
 N746 N 0.66339 0.32288 0.37663
 N747 N 0.67706 0.33625 0.37645
 C748 C 0.68990 0.33234 0.39043
 C749 C 0.68392 0.31584 0.39978
 C750 C 0.66718 0.31012 0.39072
 H751 H 0.70312 0.34029 0.39304
 H752 H 0.65898 0.29710 0.39358
 H753 H 0.66502 0.33454 0.34224
 H754 H 0.64892 0.35088 0.35651
 N755 N 0.67739 0.87628 0.83693
 N756 N 0.66441 0.87550 0.82318
 C757 C 0.66824 0.88951 0.81030
 C758 C 0.68435 0.89952 0.81641
 C759 C 0.68988 0.89080 0.83327
 H760 H 0.66051 0.89172 0.79704
 H761 H 0.70256 0.89413 0.84171
 Cu762 Cu 0.64480 0.85526 0.82253
 Cu763 Cu 0.67847 0.85713 0.85732
 Cu764 Cu 0.64294 0.82175 0.85750
 N765 N 0.62458 0.83561 0.82327
 N766 N 0.62376 0.82272 0.83711
 C767 C 0.60929 0.81017 0.83348
 C768 C 0.60064 0.81557 0.81653
 C769 C 0.61065 0.83167 0.81036
 H770 H 0.60595 0.79751 0.84198
 H771 H 0.60850 0.83933 0.79704
 N772 N 0.66361 0.82308 0.87687
 N773 N 0.67720 0.83653 0.87675
 C774 C 0.69007 0.83263 0.89072
 C775 C 0.68419 0.81607 0.90001
 C776 C 0.66749 0.81028 0.89091
 H777 H 0.70324 0.84067 0.89336
 H778 H 0.65936 0.79720 0.89373
 H779 H 0.66528 0.83485 0.84256
 H780 H 0.64914 0.85114 0.85683
 N781 N 0.17714 0.37592 0.83692
 N782 N 0.16411 0.37524 0.82321
 C783 C 0.16801 0.38924 0.81032
 C784 C 0.18427 0.39909 0.81634
 C785 C 0.18977 0.39030 0.83318
 H786 H 0.16019 0.39156 0.79712
 H787 H 0.20254 0.39350 0.84155
 Cu788 Cu 0.14438 0.35506 0.82259
 Cu789 Cu 0.17801 0.35679 0.85741
 Cu790 Cu 0.14265 0.32124 0.85729
 N791 N 0.12412 0.33543 0.82326
 N792 N 0.12353 0.32224 0.83683
 C793 C 0.10914 0.30964 0.83304
 C794 C 0.10025 0.31536 0.81632
 C795 C 0.11005 0.33170 0.81043
 H796 H 0.10601 0.29676 0.84128
 H797 H 0.10765 0.33967 0.79733
 N798 N 0.16320 0.32258 0.87683
 N799 N 0.17662 0.33621 0.87693
 C800 C 0.18937 0.33242 0.89105
 C801 C 0.18362 0.31572 0.90022
 C802 C 0.16709 0.30977 0.89088
 H803 H 0.20238 0.34063 0.89388
 H804 H 0.15906 0.29660 0.89357
 H805 H 0.16482 0.33461 0.84262
 H806 H 0.14855 0.35068 0.85695
 N807 N 0.17669 0.87682 0.33734
 N808 N 0.16302 0.87677 0.32422
 C809 C 0.16688 0.89067 0.31125
 C810 C 0.18373 0.89984 0.31663
 C811 C 0.18964 0.89076 0.33316
 H812 H 0.15873 0.89322 0.29828
 H813 H 0.20292 0.89336 0.34094
 Cu814 Cu 0.14311 0.85691 0.32413
 Cu815 Cu 0.17813 0.85726 0.35736
 Cu816 Cu 0.14289 0.82137 0.35681
 N817 N 0.12319 0.83704 0.32405
 N818 N 0.12332 0.82302 0.33682
 C819 C 0.10919 0.81030 0.33263
 C820 C 0.09978 0.81674 0.31645
 C821 C 0.10898 0.83366 0.31131
 H822 H 0.10654 0.79692 0.34024
 H823 H 0.10615 0.84223 0.29867
 N824 N 0.16382 0.82235 0.37595
 N825 N 0.17706 0.83615 0.37632
 C826 C 0.18968 0.83242 0.39054
 C827 C 0.18403 0.81557 0.39945
 C828 C 0.16770 0.80947 0.38992
 H829 H 0.20246 0.84086 0.39373
 H830 H 0.15970 0.79628 0.39256
 H831 H 0.16469 0.83559 0.34202
 H832 H 0.14901 0.85061 0.35793
 C833 C 0.26274 1.04028 0.23792
 C834 C 0.25018 1.05016 0.25015
 C835 C 0.23769 1.04017 0.26237
 C836 C 0.23756 1.01971 0.26242
 C837 C 0.25036 1.00952 0.25013
 C838 C 0.26305 1.01984 0.23785
 C839 C 0.27567 1.00947 0.22584
 C840 C 0.27576 0.98931 0.22581
 C841 C 0.26325 0.97879 0.23782
 C842 C 0.25046 0.98898 0.25011
 C843 C 0.22501 1.00920 0.27437
 C844 C 0.22510 0.98903 0.27433
 C845 C 0.23775 0.97864 0.26235
 C846 C 0.23805 0.95819 0.26225
 C847 C 0.25069 0.94832 0.25007
 C848 C 0.26317 0.95834 0.23787
 H849 H 0.28561 1.01686 0.21635
 H850 H 0.28575 0.98202 0.21629
 H851 H 0.21498 1.01650 0.28385
 H852 H 0.21512 0.98163 0.28379
 H853 H 0.25012 1.06588 0.25016
 H854 H 0.25078 0.93260 0.25007
 C855 C 0.26234 0.45897 0.73748
 C856 C 0.25007 0.44903 0.74998
 C857 C 0.23774 0.45895 0.76244
 C858 C 0.23755 0.47943 0.76250
 C859 C 0.24998 0.48969 0.74988
 C860 C 0.26243 0.47943 0.73730
 C861 C 0.27460 0.48988 0.72491
 C862 C 0.27455 0.51006 0.72485
 C863 C 0.26238 0.52052 0.73722
 C864 C 0.24997 0.51025 0.74985
 C865 C 0.22531 0.48990 0.77481
 C866 C 0.22534 0.51008 0.77481
 C867 C 0.23758 0.52052 0.76248
 C868 C 0.23780 0.54098 0.76240
 C869 C 0.25005 0.55091 0.74989
 C870 C 0.26226 0.54099 0.73735
 H871 H 0.28429 0.48254 0.71513
 H872 H 0.28419 0.51740 0.71502
 H873 H 0.21561 0.48256 0.78458
 H874 H 0.21566 0.51744 0.78459
 H875 H 0.25012 0.43331 0.75001
 H876 H 0.25008 0.56664 0.74993
 C877 C 0.76303 -0.04090 0.26247
 C878 C 0.75071 -0.05090 0.25013
 C879 C 0.73807 -0.04108 0.23794
 C880 C 0.73754 -0.02063 0.23797
 C881 C 0.74998 -0.01027 0.25042
 C882 C 0.76283 -0.02043 0.26272
 C883 C 0.77506 -0.00986 0.27490
 C884 C 0.77470 0.01032 0.27502
 C885 C 0.76204 0.02067 0.26300
 C886 C 0.74957 0.01029 0.25059
 C887 C 0.72491 -0.01030 0.22592
 C888 C 0.72451 0.00986 0.22609
 C889 C 0.73673 0.02044 0.23828
 C890 C 0.73654 0.04090 0.23848
 C891 C 0.74883 0.05095 0.25082
 C892 C 0.76150 0.04112 0.26301
 H893 H 0.78504 -0.01712 0.28446
 H894 H 0.78445 0.01778 0.28463
 H895 H 0.71522 -0.01774 0.21624
 H896 H 0.71451 0.01712 0.21655
 H897 H 0.75091 -0.06663 0.25004
 H898 H 0.74860 0.06667 0.25086
 C899 C 0.73764 0.54100 0.73754
 C900 C 0.74989 0.55096 0.74999
 C901 C 0.76217 0.54105 0.76249
 C902 C 0.76237 0.52059 0.76264
 C903 C 0.74993 0.51030 0.75009
 C904 C 0.73750 0.52055 0.73748
 C905 C 0.72528 0.51008 0.72518
 C906 C 0.72528 0.48991 0.72524
 C907 C 0.73750 0.47947 0.73759
 C908 C 0.74994 0.48974 0.75014
 C909 C 0.77463 0.51015 0.77495
 C910 C 0.77465 0.48997 0.77499
 C911 C 0.76238 0.47949 0.76274
 C912 C 0.76218 0.45902 0.76273
 C913 C 0.74989 0.44909 0.75029
 C914 C 0.73765 0.45901 0.73776
 H915 H 0.71560 0.51742 0.71538
 H916 H 0.71558 0.48256 0.71550
 H917 H 0.78433 0.51752 0.78467
 H918 H 0.78440 0.48263 0.78472
 H919 H 0.74987 0.56669 0.74995
 H920 H 0.74985 0.43337 0.75036
 C921 C 0.23760 0.54092 0.23804
 C922 C 0.25015 0.55071 0.25033
 C923 C 0.26248 0.54064 0.26265
 C924 C 0.26241 0.52018 0.26280
 C925 C 0.24973 0.51006 0.25035
 C926 C 0.23726 0.52046 0.23790
 C927 C 0.22484 0.51015 0.22568
 C928 C 0.22470 0.48997 0.22563
 C929 C 0.23693 0.47938 0.23785
 C930 C 0.24954 0.48950 0.25035
 C931 C 0.27461 0.50958 0.27504
 C932 C 0.27437 0.48941 0.27508
 C933 C 0.26197 0.47910 0.26283
 C934 C 0.26164 0.45865 0.26268
 C935 C 0.24920 0.44886 0.25030
 C936 C 0.23692 0.45892 0.23794
 H937 H 0.21513 0.51761 0.21600
 H938 H 0.21488 0.48273 0.21592
 H939 H 0.28445 0.51682 0.28472
 H940 H 0.28403 0.48194 0.28480
 H941 H 0.25032 0.56643 0.25032
 H942 H 0.24908 0.43313 0.25026
 C943 C 0.73761 0.95935 0.76249
 C944 C 0.75001 0.94957 0.75001
 C945 C 0.76236 0.95964 0.73772
 C946 C 0.76253 0.98010 0.73785
 C947 C 0.74993 0.99022 0.75039
 C948 C 0.73736 0.97981 0.76274
 C949 C 0.72491 0.99012 0.77498
 C950 C 0.72485 1.01029 0.77516
 C951 C 0.73728 1.02088 0.76314
 C952 C 0.74989 1.01077 0.75060
 C953 C 0.77493 0.99070 0.72581
 C954 C 0.77493 1.01088 0.72604
 C955 C 0.76248 1.02119 0.73828
 C956 C 0.76225 1.04166 0.73856
 C957 C 0.74983 1.05142 0.75102
 C958 C 0.73746 1.04133 0.76327
 H959 H 0.71507 0.98265 0.78452
 H960 H 0.71495 1.01752 0.78481
 H961 H 0.78479 0.98346 0.71611
 H962 H 0.78480 1.01834 0.71654
 H963 H 0.75004 0.93384 0.74986
 H964 H 0.74979 1.06714 0.75119
 C965 C 0.76238 0.45903 0.23821
 C966 C 0.74983 0.44931 0.25058
 C967 C 0.73753 0.45943 0.26289
 C968 C 0.73762 0.47988 0.26294
 C969 C 0.75031 0.48995 0.25043
 C970 C 0.76277 0.47949 0.23801
 C971 C 0.77524 0.48977 0.22577
 C972 C 0.77541 0.50995 0.22565
 C973 C 0.76317 0.52059 0.23783
 C974 C 0.75053 0.51051 0.25036
 C975 C 0.72542 0.49052 0.27514
 C976 C 0.72568 0.51069 0.27510
 C977 C 0.73812 0.52096 0.26283
 C978 C 0.73851 0.54141 0.26266
 C979 C 0.75093 0.55116 0.25020
 C980 C 0.76319 0.54105 0.23785
 H981 H 0.78498 0.48228 0.21614
 H982 H 0.78525 0.51717 0.21593
 H983 H 0.71556 0.48332 0.28486
 H984 H 0.71601 0.51819 0.28479
 H985 H 0.74961 0.43359 0.25064
 H986 H 0.75105 0.56688 0.25010
 C987 C 0.26277 -0.04126 0.76311
 C988 C 0.25035 -0.05130 0.75089
 C989 C 0.23787 -0.04151 0.73850
 C990 C 0.23767 -0.02104 0.73819
 C991 C 0.25018 -0.01065 0.75057
 C992 C 0.26279 -0.02079 0.76311
 C993 C 0.27503 -0.01020 0.77528
 C994 C 0.27487 0.00998 0.77519
 C995 C 0.26253 0.02031 0.76285
 C996 C 0.25009 0.00991 0.75040
 C997 C 0.22535 -0.01071 0.72584
 C998 C 0.22534 0.00946 0.72560
 C999 C 0.23758 0.02005 0.73777
 C1000 C 0.23768 0.04051 0.73768
 C1001 C 0.24993 0.05058 0.75005
 C1002 C 0.26228 0.04078 0.76259
 H1003 H 0.28485 -0.01744 0.78501
 H1004 H 0.28454 0.01744 0.78487
 H1005 H 0.21560 -0.01816 0.71621
 H1006 H 0.21561 0.01670 0.71578
 H1007 H 0.25041 -0.06703 0.75101
 H1008 H 0.24987 0.06630 0.74992
 C1009 C 0.26251 0.23739 0.95985
 C1010 C 0.25006 0.24996 0.95015
 C1011 C 0.23769 0.26246 0.96003
 C1012 C 0.23772 0.26256 0.98024
 C1013 C 0.25033 0.24985 0.99027
 C1014 C 0.26277 0.23717 0.98004
 C1015 C 0.27509 0.22466 0.99025
 C1016 C 0.27524 0.22461 1.01017
 C1017 C 0.26306 0.23708 1.02059
 C1018 C 0.25048 0.24979 1.01056
 C1019 C 0.22553 0.27498 0.99067
 C1020 C 0.22566 0.27492 1.01058
 C1021 C 0.23802 0.26244 1.02080
 C1022 C 0.23826 0.26223 1.04099
 C1023 C 0.25075 0.24971 1.05069
 C1024 C 0.26308 0.23719 1.04079
 H1025 H 0.28473 0.21477 0.98291
 H1026 H 0.28498 0.21470 1.01735
 H1027 H 0.21576 0.28487 0.98349
 H1028 H 0.21599 0.28477 1.01793
 H1029 H 0.24998 0.24998 0.93463
 H1030 H 0.25085 0.24968 1.06621
 C1031 C 0.26247 0.73737 0.45933
 C1032 C 0.25011 0.74988 0.44948
 C1033 C 0.23767 0.76239 0.45922
 C1034 C 0.23749 0.76260 0.47941
 C1035 C 0.24999 0.74994 0.48959
 C1036 C 0.26255 0.73725 0.47952
 C1037 C 0.27479 0.72481 0.48988
 C1038 C 0.27473 0.72483 0.50980
 C1039 C 0.26242 0.73730 0.52006
 C1040 C 0.24993 0.74997 0.50987
 C1041 C 0.22517 0.77507 0.48966
 C1042 C 0.22512 0.77511 0.50957
 C1043 C 0.23738 0.76268 0.51995
 C1044 C 0.23746 0.76257 0.54014
 C1045 C 0.24981 0.75003 0.54999
 C1046 C 0.26223 0.73748 0.54025
 H1047 H 0.28454 0.71494 0.48266
 H1048 H 0.28442 0.71496 0.51710
 H1049 H 0.21547 0.78493 0.48235
 H1050 H 0.21537 0.78499 0.51679
 H1051 H 0.25015 0.74985 0.43396
 H1052 H 0.24977 0.75006 0.56551
 C1053 C 0.26210 0.76216 0.04056
 C1054 C 0.24951 0.74969 0.05015
 C1055 C 0.23714 0.73736 0.04014
 C1056 C 0.23718 0.73739 0.01997
 C1057 C 0.24995 0.74996 0.01003
 C1058 C 0.26251 0.76240 0.02036
 C1059 C 0.27509 0.77470 0.01022
 C1060 C 0.27527 0.77485 -0.00971
 C1061 C 0.26290 0.76269 -0.02021
 C1062 C 0.25015 0.75010 -0.01026
 C1063 C 0.22481 0.72522 0.00948
 C1064 C 0.22501 0.72534 -0.01042
 C1065 C 0.23757 0.73765 -0.02056
 C1066 C 0.23791 0.73789 -0.04074
 C1067 C 0.25048 0.75036 -0.05037
 C1068 C 0.26289 0.76274 -0.04042
 H1069 H 0.28491 0.78432 0.01764
 H1070 H 0.28522 0.78459 -0.01683
 H1071 H 0.21484 0.71550 0.01660
 H1072 H 0.21519 0.71570 -0.01780
 H1073 H 0.24932 0.74958 0.06567
 H1074 H 0.25060 0.75044 -0.06589
 C1075 C 0.26246 0.26197 0.54038
 C1076 C 0.24996 0.24955 0.55017
 C1077 C 0.23747 0.23715 0.54037
 C1078 C 0.23727 0.23709 0.52018
 C1079 C 0.24992 0.24964 0.51004
 C1080 C 0.26261 0.26211 0.52018
 C1081 C 0.27508 0.27436 0.50986
 C1082 C 0.27505 0.27441 0.48994
 C1083 C 0.26254 0.26223 0.47962
 C1084 C 0.24987 0.24970 0.48975
 C1085 C 0.22480 0.22486 0.50986
 C1086 C 0.22476 0.22493 0.48995
 C1087 C 0.23717 0.23722 0.47962
 C1088 C 0.23728 0.23741 0.45942
 C1089 C 0.24977 0.24986 0.44963
 C1090 C 0.26232 0.26219 0.45943
 H1091 H 0.28499 0.28401 0.51712
 H1092 H 0.28494 0.28410 0.48269
 H1093 H 0.21495 0.21514 0.51713
 H1094 H 0.21487 0.21524 0.48269
 H1095 H 0.24996 0.24952 0.56569
 H1096 H 0.24974 0.24993 0.43411
 C1097 C 0.73710 0.76270 1.04071
 C1098 C 0.74940 0.75021 1.05063
 C1099 C 0.76179 0.73762 1.04095
 C1100 C 0.76199 0.73730 1.02076
 C1101 C 0.74955 0.74995 1.01052
 C1102 C 0.73704 0.76274 1.02053
 C1103 C 0.72486 0.77519 1.01012
 C1104 C 0.72493 0.77510 0.99022
 C1105 C 0.73720 0.76255 0.98001
 C1106 C 0.74963 0.74986 0.99024
 C1107 C 0.77426 0.72474 1.01056
 C1108 C 0.77435 0.72464 0.99064
 C1109 C 0.76217 0.73710 0.98021
 C1110 C 0.76216 0.73722 0.96001
 C1111 C 0.74982 0.74973 0.95013
 C1112 C 0.73741 0.76232 0.95983
 H1113 H 0.71515 0.78515 1.01731
 H1114 H 0.71529 0.78500 0.98289
 H1115 H 0.78391 0.71486 1.01792
 H1116 H 0.78407 0.71470 0.98346
 H1117 H 0.74935 0.75032 1.06616
 H1118 H 0.74989 0.74970 0.93461
 C1119 C 0.76234 0.23710 0.45941
 C1120 C 0.74996 0.24958 0.44954
 C1121 C 0.73760 0.26220 0.45925
 C1122 C 0.73751 0.26253 0.47944
 C1123 C 0.74996 0.24984 0.48965
 C1124 C 0.76243 0.23704 0.47960
 C1125 C 0.77462 0.22456 0.48999
 C1126 C 0.77459 0.22467 0.50990
 C1127 C 0.76238 0.23725 0.52013
 C1128 C 0.74993 0.24995 0.50993
 C1129 C 0.72536 0.27517 0.48968
 C1130 C 0.72533 0.27528 0.50959
 C1131 C 0.73746 0.26275 0.51999
 C1132 C 0.73751 0.26264 0.54019
 C1133 C 0.74983 0.25010 0.55005
 C1134 C 0.76223 0.23752 0.54032
 H1135 H 0.78428 0.21458 0.48279
 H1136 H 0.78424 0.21476 0.51722
 H1137 H 0.71575 0.28511 0.48235
 H1138 H 0.71571 0.28529 0.51679
 H1139 H 0.74996 0.24948 0.43402
 H1140 H 0.74978 0.25012 0.56557
 C1141 C 0.76294 0.26251 0.04009
 C1142 C 0.75052 0.25015 0.05004
 C1143 C 0.73796 0.23770 0.04041
 C1144 C 0.73768 0.23751 0.02020
 C1145 C 0.75025 0.25003 0.00992
 C1146 C 0.76295 0.26259 0.01991
 C1147 C 0.77530 0.27487 0.00948
 C1148 C 0.77517 0.27485 -0.01042
 C1149 C 0.76269 0.26254 -0.02062
 C1150 C 0.75012 0.25001 -0.01036
 C1151 C 0.72523 0.22517 0.01000
 C1152 C 0.72512 0.22513 -0.00992
 C1153 C 0.73744 0.23744 -0.02036
 C1154 C 0.73746 0.23756 -0.04056
 C1155 C 0.74986 0.24998 -0.05048
 C1156 C 0.76242 0.26240 -0.04081
 H1157 H 0.78519 0.28462 0.01663
 H1158 H 0.78495 0.28458 -0.01777
 H1159 H 0.71547 0.21542 0.01737
 H1160 H 0.71526 0.21535 -0.01709
 H1161 H 0.75063 0.25023 0.06556
 H1162 H 0.74974 0.24997 -0.06600
 C1163 C 0.76251 0.76259 0.45965
 C1164 C 0.75007 0.75019 0.44982
 C1165 C 0.73754 0.73780 0.45960
 C1166 C 0.73731 0.73772 0.47979
 C1167 C 0.74994 0.75025 0.48993
 C1168 C 0.76263 0.76275 0.47982
 C1169 C 0.77505 0.77503 0.49012
 C1170 C 0.77501 0.77507 0.51002
 C1171 C 0.76254 0.76283 0.52033
 C1172 C 0.74990 0.75029 0.51021
 C1173 C 0.72481 0.72550 0.49011
 C1174 C 0.72478 0.72553 0.51002
 C1175 C 0.73723 0.73779 0.52033
 C1176 C 0.73738 0.73792 0.54051
 C1177 C 0.74984 0.75033 0.55031
 C1178 C 0.76234 0.76274 0.54052
 H1179 H 0.78494 0.78473 0.48286
 H1180 H 0.78486 0.78479 0.51727
 H1181 H 0.71494 0.71581 0.48285
 H1182 H 0.71489 0.71584 0.51728
 H1183 H 0.75013 0.75019 0.43430
 H1184 H 0.74982 0.75033 0.56583
 C1185 C 1.04135 0.23861 0.26273
 C1186 C 1.05110 0.25123 0.25046
 C1187 C 1.04097 0.26346 0.23808
 C1188 C 1.02051 0.26329 0.23791
 C1189 C 1.01043 0.25053 0.25032
 C1190 C 1.02089 0.23811 0.26279
 C1191 C 1.01062 0.22555 0.27493
 C1192 C 0.99045 0.22519 0.27485
 C1193 C 0.97981 0.23738 0.26263
 C1194 C 0.98988 0.25016 0.25024
 C1195 C 1.00987 0.27548 0.22568
 C1196 C 0.98969 0.27514 0.22563
 C1197 C 0.97941 0.26260 0.23779
 C1198 C 0.95895 0.26212 0.23788
 C1199 C 0.94922 0.24944 0.25012
 C1200 C 0.95935 0.23718 0.26245
 H1201 H 1.01813 0.21589 0.28463
 H1202 H 0.98325 0.21524 0.28448
 H1203 H 1.01708 0.28541 0.21605
 H1204 H 0.98219 0.28481 0.21594
 H1205 H 1.06683 0.25148 0.25047
 H1206 H 0.93349 0.24915 0.25010
 C1207 C 0.45889 0.26189 0.73736
 C1208 C 0.44894 0.24963 0.74984
 C1209 C 0.45886 0.23738 0.76237
 C1210 C 0.47933 0.23721 0.76250
 C1211 C 0.48961 0.24961 0.74989
 C1212 C 0.47936 0.26202 0.73726
 C1213 C 0.48984 0.27421 0.72490
 C1214 C 0.51002 0.27422 0.72495
 C1215 C 0.52046 0.26206 0.73736
 C1216 C 0.51018 0.24964 0.74995
 C1217 C 0.48978 0.22502 0.77488
 C1218 C 0.50996 0.22505 0.77494
 C1219 C 0.52043 0.23726 0.76262
 C1220 C 0.54090 0.23749 0.76259
 C1221 C 0.55084 0.24976 0.75013
 C1222 C 0.54093 0.26197 0.73757
 H1223 H 0.48250 0.28387 0.71509
 H1224 H 0.51739 0.28387 0.71516
 H1225 H 0.48241 0.21534 0.78465
 H1226 H 0.51730 0.21540 0.78477
 H1227 H 0.43321 0.24964 0.74983
 H1228 H 0.56657 0.24981 0.75021
 C1229 C -0.04150 0.23717 0.73814
 C1230 C -0.05136 0.24958 0.75055
 C1231 C -0.04136 0.26206 0.76274
 C1232 C -0.02088 0.26218 0.76273
 C1233 C -0.01068 0.24962 0.75020
 C1234 C -0.02102 0.23706 0.73783
 C1235 C -0.01063 0.22478 0.72549
 C1236 C 0.00956 0.22485 0.72528
 C1237 C 0.02009 0.23717 0.73742
 C1238 C 0.00989 0.24966 0.75002
 C1239 C -0.01035 0.27450 0.77488
 C1240 C 0.00984 0.27447 0.77475
 C1241 C 0.02023 0.26219 0.76243
 C1242 C 0.04071 0.26207 0.76215
 C1243 C 0.05057 0.24977 0.74963
 C1244 C 0.04056 0.23739 0.73733
 H1245 H -0.01804 0.21500 0.71588
 H1246 H 0.01685 0.21514 0.71549
 H1247 H -0.01764 0.28426 0.78462
 H1248 H 0.01725 0.28421 0.78440
 H1249 H -0.06709 0.24958 0.75067
 H1250 H 0.06629 0.24981 0.74947
 C1251 C 0.45939 0.26194 0.26236
 C1252 C 0.44944 0.24967 0.24994
 C1253 C 0.45936 0.23727 0.23761
 C1254 C 0.47981 0.23690 0.23762
 C1255 C 0.49009 0.24930 0.25018
 C1256 C 0.47985 0.26194 0.26259
 C1257 C 0.49033 0.27420 0.27483
 C1258 C 0.51052 0.27399 0.27495
 C1259 C 0.52094 0.26148 0.26286
 C1260 C 0.51064 0.24905 0.25034
 C1261 C 0.49021 0.22449 0.22544
 C1262 C 0.51038 0.22423 0.22561
 C1263 C 0.52086 0.23639 0.23794
 C1264 C 0.54131 0.23629 0.23820
 C1265 C 0.55130 0.24849 0.25065
 C1266 C 0.54141 0.26104 0.26290
 H1267 H 0.48300 0.28407 0.28443
 H1268 H 0.51790 0.28373 0.28462
 H1269 H 0.48284 0.21485 0.21566
 H1270 H 0.51769 0.21437 0.21598
 H1271 H 0.43371 0.24978 0.24987
 H1272 H 0.56703 0.24829 0.25076
 C1273 C 1.04093 0.73799 0.76275
 C1274 C 1.05091 0.75055 0.75059
 C1275 C 1.04103 0.76297 0.73821
 C1276 C 1.02056 0.76304 0.73793
 C1277 C 1.01025 0.75030 0.75019
 C1278 C 1.02047 0.73767 0.76263
 C1279 C 1.00998 0.72510 0.77459
 C1280 C 0.98980 0.72504 0.77446
 C1281 C 0.97938 0.73751 0.76233
 C1282 C 0.98969 0.75020 0.75002
 C1283 C 1.01014 0.77546 0.72576
 C1284 C 0.98996 0.77532 0.72554
 C1285 C 0.97946 0.76280 0.73755
 C1286 C 0.95899 0.76252 0.73748
 C1287 C 0.94902 0.75006 0.74975
 C1288 C 0.95892 0.73766 0.76215
 H1289 H 1.01730 0.71518 0.78417
 H1290 H 0.98241 0.71511 0.78397
 H1291 H 1.01753 0.78543 0.71629
 H1292 H 0.98263 0.78515 0.71589
 H1293 H 1.06664 0.75063 0.75074
 H1294 H 0.93329 0.75004 0.74968
 C1295 C 0.45866 0.76385 0.23816
 C1296 C 0.44855 0.75159 0.25053
 C1297 C 0.45834 0.73904 0.26286
 C1298 C 0.47881 0.73859 0.26294
 C1299 C 0.48923 0.75105 0.25051
 C1300 C 0.47912 0.76380 0.23810
 C1301 C 0.48974 0.77609 0.22596
 C1302 C 0.50991 0.77575 0.22588
 C1303 C 0.52021 0.76312 0.23795
 C1304 C 0.50979 0.75070 0.25043
 C1305 C 0.48912 0.72600 0.27505
 C1306 C 0.50930 0.72569 0.27501
 C1307 C 0.51990 0.73792 0.26281
 C1308 C 0.54037 0.73774 0.26261
 C1309 C 0.55044 0.74993 0.25017
 C1310 C 0.54066 0.76253 0.23791
 H1311 H 0.48251 0.78610 0.21641
 H1312 H 0.51739 0.78549 0.21626
 H1313 H 0.48165 0.71625 0.28468
 H1314 H 0.51654 0.71573 0.28460
 H1315 H 0.43282 0.75177 0.25049
 H1316 H 0.56617 0.74963 0.25007
 C1317 C -0.04086 0.73664 0.23800
 C1318 C -0.05107 0.74896 0.25022
 C1319 C -0.04143 0.76182 0.26231
 C1320 C -0.02096 0.76248 0.26229
 C1321 C -0.01042 0.74996 0.24999
 C1322 C -0.02040 0.73694 0.23781
 C1323 C -0.00967 0.72463 0.22578
 C1324 C 0.01051 0.72507 0.22572
 C1325 C 0.02070 0.73790 0.23761
 C1326 C 0.01015 0.75049 0.24985
 C1327 C -0.01077 0.77529 0.27421
 C1328 C 0.00940 0.77582 0.27405
 C1329 C 0.02013 0.76354 0.26199
 C1330 C 0.04059 0.76389 0.26176
 C1331 C 0.05080 0.75152 0.24961
 C1332 C 0.04117 0.73854 0.23764
 H1333 H -0.01682 0.71453 0.21630
 H1334 H 0.01807 0.71526 0.21623
 H1335 H -0.01833 0.78501 0.28379
 H1336 H 0.01655 0.78595 0.28350
 H1337 H -0.06680 0.74858 0.25024
 H1338 H 0.06652 0.75192 0.24956
 C1339 C 0.54090 0.73784 0.73743
 C1340 C 0.55090 0.75017 0.74977
 C1341 C 0.54103 0.76250 0.76225
 C1342 C 0.52055 0.76270 0.76244
 C1343 C 0.51023 0.75019 0.75001
 C1344 C 0.52044 0.73767 0.73745
 C1345 C 0.50993 0.72535 0.72529
 C1346 C 0.48975 0.72534 0.72542
 C1347 C 0.47934 0.73767 0.73769
 C1348 C 0.48965 0.75019 0.75013
 C1349 C 0.51014 0.77504 0.77470
 C1350 C 0.48995 0.77507 0.77480
 C1351 C 0.47943 0.76272 0.76268
 C1352 C 0.45895 0.76251 0.76273
 C1353 C 0.44898 0.75015 0.75037
 C1354 C 0.45887 0.73785 0.73788
 H1355 H 0.51724 0.71558 0.71556
 H1356 H 0.48236 0.71555 0.71580
 H1357 H 0.51754 0.78482 0.78432
 H1358 H 0.48263 0.78489 0.78447
 H1359 H 0.56663 0.75015 0.74967
 H1360 H 0.43326 0.75013 0.75046
 C1361 C 0.41311 0.30440 0.30479
 C1362 C 0.42467 0.29523 0.29560
 C1363 C 0.43755 0.28409 0.28448
 C1364 C 0.44791 0.27422 0.27463
 C1365 C 0.41307 0.80506 0.80586
 C1366 C 0.42445 0.79573 0.79654
 C1367 C 0.43719 0.78454 0.78521
 C1368 C 0.44748 0.77471 0.77518
 C1369 C -0.08670 0.30562 0.80536
 C1370 C -0.07545 0.29614 0.79606
 C1371 C -0.06289 0.28466 0.78484
 C1372 C -0.05275 0.27455 0.77496
 C1373 C -0.08766 0.80454 0.30491
 C1374 C -0.07632 0.79521 0.29555
 C1375 C -0.06355 0.78398 0.28431
 C1376 C -0.05317 0.77408 0.27446
 C1377 C 0.58644 0.69531 0.30543
 C1378 C 0.57487 0.70445 0.29619
 C1379 C 0.56202 0.71554 0.28495
 C1380 C 0.55174 0.72541 0.27498
 C1381 C 0.58695 0.19513 0.80553
 C1382 C 0.57547 0.20439 0.79630
 C1383 C 0.56267 0.21555 0.78506
 C1384 C 0.55237 0.22535 0.77506
 C1385 C 1.08656 0.69535 0.80582
 C1386 C 1.07517 0.70464 0.79653
 C1387 C 1.06251 0.71585 0.78520
 C1388 C 1.05233 0.72574 0.77516
 C1389 C 1.08696 0.19538 0.30534
 C1390 C 1.07574 0.20490 0.29606
 C1391 C 1.06319 0.21634 0.28483
 C1392 C 1.05296 0.22634 0.27495
 C1393 C 0.58675 0.30457 0.69463
 C1394 C 0.57536 0.29527 0.70392
 C1395 C 0.56266 0.28405 0.71520
 C1396 C 0.55241 0.27417 0.72519
 C1397 C 0.58704 0.80480 0.19529
 C1398 C 0.57558 0.79557 0.20455
 C1399 C 0.56271 0.78445 0.21572
 C1400 C 0.55230 0.77466 0.22560
 C1401 C 1.08606 0.30588 0.19434
 C1402 C 1.07481 0.29673 0.20391
 C1403 C 1.06232 0.28562 0.21549
 C1404 C 1.05225 0.27575 0.22563
 C1405 C 1.08672 0.80555 0.69502
 C1406 C 1.07541 0.79635 0.70451
 C1407 C 1.06277 0.78518 0.71593
 C1408 C 1.05254 0.77528 0.72593
 C1409 C 0.41335 0.69572 0.69424
 C1410 C 0.42465 0.70495 0.70368
 C1411 C 0.43722 0.71604 0.71521
 C1412 C 0.44739 0.72578 0.72538
 C1413 C 0.41367 0.19480 0.19475
 C1414 C 0.42506 0.20408 0.20399
 C1415 C 0.43772 0.21527 0.21525
 C1416 C 0.44791 0.22511 0.22524
 C1417 C -0.08611 0.69439 0.19436
 C1418 C -0.07480 0.70342 0.20396
 C1419 C -0.06217 0.71438 0.21552
 C1420 C -0.05206 0.72421 0.22563
 C1421 C -0.08663 0.19458 0.69452
 C1422 C -0.07559 0.20390 0.70416
 C1423 C -0.06317 0.21511 0.71573
 C1424 C -0.05302 0.22496 0.72581
 C1425 C 0.30441 0.41271 0.30527
 C1426 C 0.29506 0.42407 0.29601
 C1427 C 0.28377 0.43677 0.28482
 C1428 C 0.27386 0.44706 0.27493
 C1429 C 0.30584 -0.08705 0.80581
 C1430 C 0.29651 -0.07564 0.79653
 C1431 C 0.28521 -0.06290 0.78530
 C1432 C 0.27521 -0.05265 0.77540
 C1433 C 0.80466 0.41341 0.80614
 C1434 C 0.79533 0.42472 0.79676
 C1435 C 0.78414 0.43736 0.78533
 C1436 C 0.77433 0.44757 0.77523
 C1437 C 0.80518 -0.08753 0.30510
 C1438 C 0.79620 -0.07586 0.29580
 C1439 C 0.78525 -0.06281 0.28461
 C1440 C 0.77543 -0.05236 0.27473
 C1441 C 0.30508 0.58649 0.69421
 C1442 C 0.29572 0.57518 0.70355
 C1443 C 0.28441 0.56260 0.71490
 C1444 C 0.27449 0.55243 0.72493
 C1445 C 0.30527 1.08590 0.19485
 C1446 C 0.29600 1.07455 0.20418
 C1447 C 0.28482 1.06194 0.21554
 C1448 C 0.27496 1.05175 0.22558
 C1449 C 0.80552 0.58665 0.19450
 C1450 C 0.79636 0.57532 0.20397
 C1451 C 0.78530 0.56260 0.21537
 C1452 C 0.77548 0.55237 0.22542
 C1453 C 0.80483 1.08699 0.69498
 C1454 C 0.79547 1.07596 0.70463
 C1455 C 0.78424 1.06349 0.71617
 C1456 C 0.77441 1.05327 0.72623
 C1457 C 0.69596 0.58716 0.30575
 C1458 C 0.70536 0.57588 0.29643
 C1459 C 0.71660 0.56326 0.28508
 C1460 C 0.72642 0.55301 0.27505
 C1461 C 0.69507 1.08705 0.80640
 C1462 C 0.70428 1.07557 0.79715
 C1463 C 0.71541 1.06284 0.78584
 C1464 C 0.72524 1.05265 0.77577
 C1465 C 0.19553 0.58669 0.80574
 C1466 C 0.20481 0.57531 0.79642
 C1467 C 0.21596 0.56265 0.78504
 C1468 C 0.22573 0.55244 0.77494
 C1469 C 0.19515 1.08602 0.30523
 C1470 C 0.20433 1.07454 0.29594
 C1471 C 0.21547 1.06180 0.28464
 C1472 C 0.22536 1.05157 0.27467
 C1473 C 0.69540 0.41344 0.69431
 C1474 C 0.70465 0.42478 0.70368
 C1475 C 0.71577 0.43739 0.71513
 C1476 C 0.72555 0.44756 0.72526
 C1477 C 0.69568 -0.08735 0.19552
 C1478 C 0.70490 -0.07591 0.20476
 C1479 C 0.71603 -0.06305 0.21588
 C1480 C 0.72586 -0.05266 0.22572
 C1481 C 0.19438 0.41361 0.19457
 C1482 C 0.20358 0.42487 0.20407
 C1483 C 0.21475 0.43743 0.21551
 C1484 C 0.22464 0.44758 0.22555
 C1485 C 0.19525 -0.08728 0.69555
 C1486 C 0.20449 -0.07600 0.70501
 C1487 C 0.21569 -0.06335 0.71635
 C1488 C 0.22559 -0.05308 0.72628
 C1489 C 0.30563 0.30506 0.41428
 C1490 C 0.29623 0.29576 0.42552
 C1491 C 0.28483 0.28449 0.43804
 C1492 C 0.27477 0.27453 0.44812
 C1493 C 0.30580 0.80592 -0.08575
 C1494 C 0.29649 0.79662 -0.07440
 C1495 C 0.28523 0.78529 -0.06177
 C1496 C 0.27528 0.77524 -0.05163
 C1497 C 0.80536 0.30559 -0.08614
 C1498 C 0.79606 0.29614 -0.07492
 C1499 C 0.78476 0.28475 -0.06238
 C1500 C 0.77478 0.27474 -0.05224
 C1501 C 0.80533 0.80592 0.41472
 C1502 C 0.79608 0.79650 0.42595
 C1503 C 0.78484 0.78507 0.43839
 C1504 C 0.77487 0.77499 0.44840
 C1505 C 0.69450 0.30552 0.58566
 C1506 C 0.70382 0.29625 0.57431
 C1507 C 0.71512 0.28503 0.56165
 C1508 C 0.72511 0.27507 0.55147
 C1509 C 0.69416 0.80615 1.08548
 C1510 C 0.70350 0.79677 1.07428
 C1511 C 0.71481 0.78536 1.06187
 C1512 C 0.72478 0.77524 1.05188
 C1513 C 0.19501 0.30512 1.08617
 C1514 C 0.20443 0.29578 1.07498
 C1515 C 0.21584 0.28449 1.06249
 C1516 C 0.22589 0.27455 1.05238
 C1517 C 0.19472 0.80563 0.58557
 C1518 C 0.20399 0.79637 0.57419
 C1519 C 0.21522 0.78508 0.56156
 C1520 C 0.22515 0.77505 0.55141
 C1521 C 0.30519 0.69469 0.58579
 C1522 C 0.29586 0.70395 0.57445
 C1523 C 0.28455 0.71517 0.56181
 C1524 C 0.27457 0.72512 0.55163
 C1525 C 0.30576 0.19400 1.08625
 C1526 C 0.29655 0.20331 1.07485
 C1527 C 0.28537 0.21465 1.06218
 C1528 C 0.27544 0.22470 1.05204
 C1529 C 0.80508 0.69504 1.08621
 C1530 C 0.79561 0.70433 1.07504
 C1531 C 0.78418 0.71552 1.06255
 C1532 C 0.77415 0.72538 1.05238
 C1533 C 0.80508 0.19484 0.58597
 C1534 C 0.79583 0.20405 0.57454
 C1535 C 0.78456 0.21525 0.56188
 C1536 C 0.77457 0.22518 0.55169
 C1537 C 0.69466 0.69499 0.41413
 C1538 C 0.70399 0.70425 0.42544
 C1539 C 0.71526 0.71549 0.43807
 C1540 C 0.72520 0.72544 0.44825
 C1541 C 0.69458 0.19437 -0.08559
 C1542 C 0.70384 0.20374 -0.07432
 C1543 C 0.71509 0.21510 -0.06181
 C1544 C 0.72506 0.22514 -0.05176
 C1545 C 0.19496 0.69500 -0.08609
 C1546 C 0.20431 0.70435 -0.07487
 C1547 C 0.21562 0.71565 -0.06234
 C1548 C 0.22559 0.72560 -0.05219
 C1549 C 0.19466 0.19422 0.41395
 C1550 C 0.20387 0.20361 0.42528
 C1551 C 0.21504 0.21499 0.43791
 C1552 C 0.22494 0.22502 0.44807
 C1553 C 0.30508 0.41373 0.69399
 C1554 C 0.29574 0.42495 0.70346
 C1555 C 0.28447 0.43744 0.71494
 C1556 C 0.27456 0.44754 0.72504
 C1557 C 0.30638 0.91437 0.19374
 C1558 C 0.29698 0.92520 0.20353
 C1559 C 0.28558 0.93725 0.21528
 C1560 C 0.27554 0.94708 0.22549
 C1561 C 0.80448 0.41273 0.19514
 C1562 C 0.79532 0.42413 0.20458
 C1563 C 0.78428 0.43695 0.21594
 C1564 C 0.77453 0.44735 0.22591
 C1565 C 0.80471 0.91413 0.69427
 C1566 C 0.79552 0.92553 0.70363
 C1567 C 0.78440 0.93818 0.71507
 C1568 C 0.77458 0.94833 0.72520
 C1569 C 0.69507 0.58629 0.69405
 C1570 C 0.70436 0.57499 0.70344
 C1571 C 0.71559 0.56248 0.71491
 C1572 C 0.72547 0.55239 0.72505
 C1573 C 0.69391 0.08540 0.19418
 C1574 C 0.70314 0.07433 0.20392
 C1575 C 0.71433 0.06208 0.21570
 C1576 C 0.72423 0.05217 0.22599
 C1577 C 0.19536 0.58704 0.19504
 C1578 C 0.20452 0.57563 0.20444
 C1579 C 0.21560 0.56286 0.21578
 C1580 C 0.22541 0.55252 0.22575
 C1581 C 0.19494 0.08562 0.69405
 C1582 C 0.20429 0.07435 0.70346
 C1583 C 0.21555 0.06186 0.71495
 C1584 C 0.22546 0.05181 0.72512
 C1585 C 0.30539 0.58606 0.30558
 C1586 C 0.29611 0.57472 0.29624
 C1587 C 0.28486 0.56211 0.28492
 C1588 C 0.27489 0.55197 0.27495
 C1589 C 0.30509 0.08600 0.80591
 C1590 C 0.29569 0.07485 0.79646
 C1591 C 0.28436 0.06243 0.78500
 C1592 C 0.27445 0.05231 0.77494
 C1593 C 0.80457 0.58665 0.80577
 C1594 C 0.79529 0.57533 0.79640
 C1595 C 0.78412 0.56272 0.78500
 C1596 C 0.77431 0.55252 0.77493
 C1597 C 0.80458 0.08652 0.30569
 C1598 C 0.79513 0.07529 0.29641
 C1599 C 0.78375 0.06279 0.28515
 C1600 C 0.77377 0.05264 0.27523
 C1601 C 0.69472 0.41380 0.30578
 C1602 C 0.70396 0.42527 0.29654
 C1603 C 0.71518 0.43797 0.28526
 C1604 C 0.72514 0.44814 0.27528
 C1605 C 0.69511 0.91364 0.80569
 C1606 C 0.70442 0.92495 0.79631
 C1607 C 0.71562 0.93755 0.78490
 C1608 C 0.72546 0.94778 0.77486
 C1609 C 0.19507 0.41323 0.80562
 C1610 C 0.20441 0.42458 0.79628
 C1611 C 0.21566 0.43724 0.78493
 C1612 C 0.22554 0.44747 0.77489
 C1613 C 0.19469 0.91343 0.30550
 C1614 C 0.20419 0.92438 0.29592
 C1615 C 0.21564 0.93666 0.28445
 C1616 C 0.22569 0.94672 0.27446
 C1617 C 0.41365 0.30490 0.69414
 C1618 C 0.42487 0.29549 0.70354
 C1619 C 0.43736 0.28413 0.71493
 C1620 C 0.44747 0.27416 0.72496
 C1621 C 0.41430 0.80626 0.19356
 C1622 C 0.42531 0.79702 0.20334
 C1623 C 0.43753 0.78587 0.21518
 C1624 C 0.44743 0.77604 0.22554
 C1625 C 0.91276 0.30486 0.19534
 C1626 C 0.92414 0.29560 0.20469
 C1627 C 0.93692 0.28436 0.21589
 C1628 C 0.94729 0.27442 0.22573
 C1629 C 0.91319 0.80501 0.69439
 C1630 C 0.92462 0.79577 0.70370
 C1631 C 0.93733 0.78462 0.71504
 C1632 C 0.94756 0.77476 0.72507
 C1633 C 0.58676 0.30416 0.30561
 C1634 C 0.57553 0.29469 0.29634
 C1635 C 0.56302 0.28330 0.28510
 C1636 C 0.55287 0.27331 0.27517
 C1637 C 0.58659 0.80476 0.80578
 C1638 C 0.57532 0.79549 0.79633
 C1639 C 0.56275 0.78437 0.78483
 C1640 C 0.55255 0.77460 0.77471
 C1641 C 0.08619 0.30463 0.80550
 C1642 C 0.07494 0.29533 0.79605
 C1643 C 0.06239 0.28412 0.78458
 C1644 C 0.05222 0.27426 0.77452
 C1645 C 0.08573 0.80632 0.30539
 C1646 C 0.07445 0.79729 0.29576
 C1647 C 0.06190 0.78625 0.28418
 C1648 C 0.05181 0.77636 0.27408
 C1649 C 0.58634 0.69513 0.69419
 C1650 C 0.57499 0.70442 0.70353
 C1651 C 0.56241 0.71567 0.71492
 C1652 C 0.55228 0.72558 0.72499
 C1653 C 0.58569 0.19370 0.19388
 C1654 C 0.57466 0.20296 0.20359
 C1655 C 0.56249 0.21418 0.21538
 C1656 C 0.55261 0.22407 0.22569
 C1657 C 0.08752 0.69542 0.19559
 C1658 C 0.07615 0.70476 0.20490
 C1659 C 0.06335 0.71611 0.21599
 C1660 C 0.05293 0.72612 0.22568
 C1661 C 0.08622 0.19471 0.69426
 C1662 C 0.07481 0.20400 0.70355
 C1663 C 0.06215 0.21523 0.71487
 C1664 C 0.05195 0.22513 0.72490
 C1665 C 0.41349 0.69532 0.30577
 C1666 C 0.42447 0.70499 0.29638
 C1667 C 0.43675 0.71661 0.28504
 C1668 C 0.44680 0.72672 0.27509
 C1669 C 0.41368 0.19486 0.80609
 C1670 C 0.42486 0.20424 0.79663
 C1671 C 0.43732 0.21547 0.78509
 C1672 C 0.44742 0.22529 0.77491
 C1673 C 0.91338 0.69516 0.80550
 C1674 C 0.92469 0.70443 0.79608
 C1675 C 0.93727 0.71560 0.78463
 C1676 C 0.94744 0.72545 0.77454
 C1677 C 0.91409 0.19444 0.30571
 C1678 C 0.92546 0.20365 0.29634
 C1679 C 0.93803 0.21485 0.28492
 C1680 C 0.94810 0.22479 0.27485
 C1681 C 0.30505 0.30476 0.58620
 C1682 C 0.29587 0.29550 0.57474
 C1683 C 0.28473 0.28427 0.56198
 C1684 C 0.27483 0.27432 0.55174
 C1685 C 0.30440 0.80489 0.08660
 C1686 C 0.29516 0.79560 0.07526
 C1687 C 0.28407 0.78437 0.06248
 C1688 C 0.27428 0.77447 0.05212
 C1689 C 0.80600 0.30558 0.08502
 C1690 C 0.79675 0.29625 0.07372
 C1691 C 0.78545 0.28491 0.06124
 C1692 C 0.77541 0.27489 0.05124
 C1693 C 0.80506 0.80584 0.58589
 C1694 C 0.79580 0.79651 0.57457
 C1695 C 0.78459 0.78517 0.56197
 C1696 C 0.77467 0.77515 0.55184
 C1697 C 0.30520 0.69449 0.41371
 C1698 C 0.29595 0.70374 0.42512
 C1699 C 0.28474 0.71496 0.43783
 C1700 C 0.27481 0.72494 0.44803
 C1701 C 0.30493 0.19451 0.91394
 C1702 C 0.29574 0.20376 0.92538
 C1703 C 0.28461 0.21501 0.93815
 C1704 C 0.27475 0.22498 0.94842
 C1705 C 0.80527 0.69467 0.91436
 C1706 C 0.79597 0.70384 0.92580
 C1707 C 0.78466 0.71497 0.93854
 C1708 C 0.77462 0.72485 0.94874
 C1709 C 0.80537 0.19437 0.41391
 C1710 C 0.79605 0.20356 0.42531
 C1711 C 0.78473 0.21473 0.43798
 C1712 C 0.77473 0.22467 0.44814
 C1713 C 0.69464 0.30505 0.41379
 C1714 C 0.70396 0.29571 0.42507
 C1715 C 0.71526 0.28445 0.43767
 C1716 C 0.72524 0.27452 0.44786
 C1717 C 0.69487 0.80537 0.91413
 C1718 C 0.70412 0.79607 0.92550
 C1719 C 0.71529 0.78477 0.93819
 C1720 C 0.72517 0.77476 0.94842
 C1721 C 0.19438 0.30507 0.91439
 C1722 C 0.20375 0.29587 0.92580
 C1723 C 0.21513 0.28472 0.93852
 C1724 C 0.22519 0.27483 0.94873
 C1725 C 0.19468 0.80497 0.41362
 C1726 C 0.20399 0.79576 0.42500
 C1727 C 0.21530 0.78460 0.43766
 C1728 C 0.22529 0.77470 0.44785
 C1729 C 0.69476 0.69494 0.58603
 C1730 C 0.70396 0.70423 0.57464
 C1731 C 0.71513 0.71552 0.56198
 C1732 C 0.72505 0.72552 0.55182
 C1733 C 0.69553 0.19515 0.08677
 C1734 C 0.70474 0.20440 0.07530
 C1735 C 0.71584 0.21555 0.06239
 C1736 C 0.72567 0.22541 0.05196
 C1737 C 0.19402 0.69409 0.08493
 C1738 C 0.20332 0.70343 0.07365
 C1739 C 0.21464 0.71481 0.06120
 C1740 C 0.22468 0.72490 0.05124
 C1741 C 0.19480 0.19424 0.58603
 C1742 C 0.20404 0.20349 0.57461
 C1743 C 0.21523 0.21475 0.56191
 C1744 C 0.22514 0.22474 0.55171
   
