data_POSCAR
  _audit_creation_date              2014-09-24
  _audit_creation_method            'ToBaCCo'
  _symmetry_space_group_name_H-M    'P1'
  _symmetry_Int_Tables_number       1
  _symmetry_cell_setting            triclinic
  loop_
  _symmetry_equiv_pos_as_xyz
 x,y,z
_cell_length_a 40.0166
_cell_length_b 40.7205
_cell_length_c 39.2636
_cell_angle_alpha 89.734800
_cell_angle_beta 89.999300
_cell_angle_gamma 90.087300
loop_
  _atom_site_label
  _atom_site_type_symbol
  _atom_site_fract_x
  _atom_site_fract_y
  _atom_site_fract_z
C1 C 0.41759 0.27430 -0.01591
 C2 C 0.41717 0.27565 0.01895
 C3 C 0.38667 0.28903 0.02793
 N4 N 0.36827 0.29577 -0.00017
 C5 C 0.38700 0.28633 -0.02706
 C6 C 0.37507 0.29212 0.06169
 C7 C 0.34790 0.31239 0.07044
 C8 C 0.33140 0.31197 0.10151
 C9 C 0.30797 0.33667 0.10028
 C10 C 0.31086 0.35134 0.06848
 N11 N 0.33532 0.33651 0.05054
 C12 C 0.29255 0.37886 0.05723
 C13 C 0.29093 0.38794 0.02257
 C14 C 0.27951 0.41792 0.01059
 C15 C 0.27850 0.41559 -0.02418
 C16 C 0.28921 0.38417 -0.03228
 N17 N 0.29720 0.36739 -0.00366
 C18 C 0.28901 0.37059 -0.06542
 C19 C 0.30943 0.34328 -0.07394
 C20 C 0.30497 0.32348 -0.10227
 C21 C 0.32944 0.29992 -0.10119
 C22 C 0.34830 0.30568 -0.07216
 N23 N 0.33591 0.33219 -0.05565
 C24 C 0.37577 0.28615 -0.06131
 H25 H 0.43798 0.26516 -0.03128
 H26 H 0.43699 0.26763 0.03580
 H27 H 0.34630 0.34335 -0.03429
 H28 H 0.33585 0.29571 0.12291
 H29 H 0.29084 0.34311 0.12050
 H30 H 0.27226 0.43909 0.02542
 H31 H 0.27051 0.43473 -0.04156
 H32 H 0.33216 0.28007 -0.11919
 H33 H 0.34516 0.34459 0.02742
 H34 H 0.28547 0.32503 -0.12128
 C35 C 0.72347 0.58090 -0.01150
 C36 C 0.72495 0.58263 0.02331
 C37 C 0.71454 0.61390 0.03190
 N38 N 0.70711 0.63153 0.00364
 C39 C 0.71309 0.61150 -0.02301
 C40 C 0.71440 0.62660 0.06520
 C41 C 0.69524 0.65419 0.07429
 C42 C 0.69845 0.67165 0.10435
 C43 C 0.67363 0.69502 0.10419
 C44 C 0.65608 0.69112 0.07402
 N45 N 0.66931 0.66610 0.05605
 C46 C 0.62755 0.70922 0.06443
 C47 C 0.61503 0.70936 0.03089
 C48 C 0.58419 0.72165 0.02117
 C49 C 0.58323 0.72025 -0.01372
 C50 C 0.61363 0.70740 -0.02403
 N51 N 0.63295 0.70056 0.00326
 C52 C 0.62463 0.70531 -0.05806
 C53 C 0.65243 0.68617 -0.06773
 C54 C 0.66893 0.68867 -0.09867
 C55 C 0.69331 0.66487 -0.09862
 C56 C 0.69081 0.64826 -0.06775
 N57 N 0.66588 0.66151 -0.04905
 C58 C 0.71077 0.62116 -0.05763
 H59 H 0.72960 0.55960 -0.02664
 H60 H 0.73259 0.56310 0.04039
 H61 H 0.65651 0.65219 -0.02622
 H62 H 0.71660 0.66784 0.12441
 H63 H 0.66899 0.71276 0.12408
 H64 H 0.56463 0.73102 0.03749
 H65 H 0.56282 0.72844 -0.02971
 H66 H 0.71102 0.66052 -0.11893
 H67 H 0.65910 0.65548 0.03435
 H68 H 0.66406 0.70596 -0.11908
 C69 C 0.62229 0.23949 0.99202
 C70 C 0.62263 0.24195 1.02680
 C71 C 0.63300 0.27359 1.03414
 N72 N 0.63875 0.29063 1.00519
 C73 C 0.63194 0.26992 0.97935
 C74 C 0.63307 0.28744 1.06688
 C75 C 0.65165 0.31588 1.07512
 C76 C 0.65040 0.33184 1.10612
 C77 C 0.67375 0.35655 1.10478
 C78 C 0.68799 0.35594 1.07243
 N79 N 0.67476 0.33050 1.05489
 C80 C 0.71427 0.37672 1.06068
 C81 C 0.72255 0.38026 1.02555
 C82 C 0.74635 0.40192 1.01270
 C83 C 0.74459 0.40032 0.97796
 C84 C 0.71951 0.37808 0.97028
 N85 N 0.70574 0.36625 0.99938
 C86 C 0.70803 0.37143 0.93686
 C87 C 0.68167 0.34942 0.92943
 C88 C 0.66421 0.34839 0.89890
 C89 C 0.64199 0.32269 0.90128
 C90 C 0.64698 0.30820 0.93286
 N91 N 0.67119 0.32468 0.94985
 C92 C 0.63067 0.27951 0.94477
 H93 H 0.61510 0.21794 0.97775
 H94 H 0.61560 0.22287 1.04472
 H95 H 0.68259 0.31725 0.97239
 H96 H 0.63495 0.32593 1.12791
 H97 H 0.67954 0.37256 1.12581
 H98 H 0.76236 0.41850 1.02665
 H99 H 0.75921 0.41507 0.96045
 H100 H 0.62437 0.31551 0.88178
 H101 H 0.68347 0.32144 1.03186
 H102 H 0.66695 0.36442 0.87705
 C103 C 0.27738 0.58007 1.01484
 C104 C 0.27741 0.57829 0.98000
 C105 C 0.28876 0.60840 0.96821
 N106 N 0.29596 0.62847 0.99460
 C107 C 0.28867 0.61127 1.02315
 C108 C 0.28971 0.61803 0.93365
 C109 C 0.30773 0.64585 0.92260
 C110 C 0.30427 0.66124 0.89122
 C111 C 0.32790 0.68591 0.89007
 C112 C 0.34509 0.68465 0.92072
 N113 N 0.33268 0.66017 0.94029
 C114 C 0.37335 0.70365 0.92901
 C115 C 0.38713 0.70388 0.96200
 C116 C 0.41961 0.71285 0.96959
 C117 C 0.42215 0.71230 1.00438
 C118 C 0.39084 0.70367 1.01693
 N119 N 0.36958 0.69802 0.99086
 C120 C 0.38135 0.70358 1.05179
 C121 C 0.35248 0.68618 1.06277
 C122 C 0.33439 0.69280 1.09208
 C123 C 0.30857 0.67053 1.09335
 C124 C 0.31144 0.65079 1.06478
 N125 N 0.33815 0.66069 1.04612
 C126 C 0.28980 0.62431 1.05650
 H127 H 0.26977 0.56068 1.03213
 H128 H 0.26961 0.55737 0.96505
 H129 H 0.34760 0.64914 1.02453
 H130 H 0.28679 0.65516 0.87118
 H131 H 0.33237 0.70240 0.86885
 H132 H 0.43930 0.71925 0.95184
 H133 H 0.44451 0.71785 1.01875
 H134 H 0.28938 0.66965 1.11275
 H135 H 0.34313 0.65129 0.96279
 H136 H 0.33870 0.71227 1.11023
 C137 C 0.02332 0.26681 0.41224
 C138 C -0.01092 0.26717 0.41282
 C139 C -0.02125 0.28112 0.38226
 N140 N 0.00559 0.28994 0.36336
 C141 C 0.03282 0.28097 0.38161
 C142 C -0.05491 0.28373 0.37124
 C143 C -0.06425 0.30619 0.34508
 C144 C -0.09340 0.30430 0.32598
 C145 C -0.09319 0.33048 0.30383
 C146 C -0.06386 0.34773 0.30971
 N147 N -0.04625 0.33268 0.33479
 C148 C -0.05398 0.37655 0.29190
 C149 C -0.02026 0.38709 0.29120
 C150 C -0.00953 0.41841 0.28232
 C151 C 0.02467 0.41733 0.28088
 C152 C 0.03367 0.38566 0.28985
 N153 N 0.00625 0.36720 0.29636
 C154 C 0.06656 0.37344 0.28917
 C155 C 0.07576 0.34438 0.30639
 C156 C 0.10568 0.32778 0.30208
 C157 C 0.10553 0.30211 0.32500
 C158 C 0.07549 0.30379 0.34252
 N159 N 0.05758 0.32966 0.33113
 C160 C 0.06607 0.28313 0.36978
 H161 H 0.03940 0.25725 0.43210
 H162 H -0.02644 0.25811 0.43339
 H163 H 0.03581 0.33873 0.34213
 H164 H -0.11252 0.28552 0.32710
 H165 H -0.11211 0.33565 0.28487
 H166 H -0.02483 0.43967 0.27678
 H167 H 0.04107 0.43746 0.27399
 H168 H 0.12534 0.28435 0.32847
 H169 H -0.02438 0.34141 0.34599
 H170 H 0.12564 0.33366 0.28447
 C171 C -0.01696 0.72811 0.58729
 C172 C 0.01726 0.72763 0.58688
 C173 C 0.02722 0.71486 0.61800
 N174 N 0.00032 0.70734 0.63739
 C175 C -0.02676 0.71574 0.61875
 C176 C 0.06063 0.71244 0.62909
 C177 C 0.07014 0.69233 0.65671
 C178 C 0.10073 0.69349 0.67324
 C179 C 0.10092 0.66793 0.69633
 C180 C 0.07044 0.65195 0.69313
 N181 N 0.05189 0.66699 0.66893
 C182 C 0.06140 0.62271 0.71018
 C183 C 0.02838 0.61066 0.71044
 C184 C 0.01892 0.57933 0.72037
 C185 C -0.01540 0.57879 0.71992
 C186 C -0.02562 0.60985 0.70976
 N187 N 0.00116 0.62922 0.70383
 C188 C -0.05894 0.62106 0.70928
 C189 C -0.06854 0.65036 0.69254
 C190 C -0.09823 0.66694 0.69811
 C191 C -0.09865 0.69317 0.67593
 C192 C -0.06934 0.69170 0.65704
 N193 N -0.05107 0.66555 0.66749
 C194 C -0.06016 0.71381 0.63054
 H195 H -0.03284 0.73648 0.56670
 H196 H 0.03303 0.73583 0.56612
 H197 H -0.02939 0.65678 0.65604
 H198 H 0.12098 0.71062 0.66875
 H199 H 0.12138 0.66147 0.71308
 H200 H 0.03507 0.55921 0.72773
 H201 H -0.03105 0.55812 0.72686
 H202 H -0.11821 0.71142 0.67431
 H203 H 0.02982 0.65814 0.65836
 H204 H -0.11747 0.66097 0.71651
 C205 C 0.98551 0.72830 0.41675
 C206 C 1.01973 0.72781 0.41679
 C207 C 1.02957 0.71506 0.38563
 N208 N 1.00248 0.70712 0.36684
 C209 C 0.97556 0.71545 0.38579
 C210 C 1.06299 0.71329 0.37387
 C211 C 1.07232 0.69227 0.34672
 C212 C 1.10115 0.69565 0.32737
 C213 C 1.10084 0.67095 0.30374
 C214 C 1.07183 0.65294 0.30913
 N215 N 1.05449 0.66619 0.33536
 C216 C 1.06176 0.62537 0.28957
 C217 C 1.02814 0.61454 0.28920
 C218 C 1.01745 0.58387 0.27834
 C219 C 0.98324 0.58464 0.27819
 C220 C 0.97419 0.61554 0.28944
 N221 N 1.00161 0.63376 0.29643
 C222 C 0.94121 0.62757 0.29007
 C223 C 0.93212 0.65576 0.30854
 C224 C 0.90217 0.67255 0.30510
 C225 C 0.90245 0.69713 0.32903
 C226 C 0.93256 0.69458 0.34632
 N227 N 0.95042 0.66927 0.33376
 C228 C 0.94222 0.71406 0.37425
 H229 H 0.96973 0.73719 0.43711
 H230 H 1.03561 0.73616 0.43733
 H231 H 0.97224 0.65961 0.34418
 H232 H 1.12002 0.71461 0.32921
 H233 H 1.11941 0.66749 0.28407
 H234 H 1.03276 0.56322 0.27088
 H235 H 0.96687 0.56484 0.27047
 H236 H 0.88269 0.71476 0.33325
 H237 H 1.03283 0.65667 0.34637
 H238 H 0.88214 0.66755 0.28734
 C239 C 1.00547 0.27360 0.57713
 C240 C 0.97145 0.27106 0.57954
 C241 C 0.96307 0.28182 0.61177
 N242 N 0.99074 0.29056 0.62937
 C243 C 1.01686 0.28508 0.60834
 C244 C 0.93048 0.28152 0.62528
 C245 C 0.92131 0.30111 0.65318
 C246 C 0.89175 0.29838 0.67140
 C247 C 0.89140 0.32396 0.69422
 C248 C 0.92081 0.34140 0.68924
 N249 N 0.93880 0.32737 0.66416
 C250 C 0.92934 0.37093 0.70562
 C251 C 0.96184 0.38423 0.70453
 C252 C 0.97040 0.41571 0.71447
 C253 C 1.00461 0.41752 0.71291
 C254 C 1.01572 0.38706 0.70203
 N255 N 0.98951 0.36681 0.69678
 C256 C 1.04947 0.37706 0.70054
 C257 C 1.05955 0.34883 0.68239
 C258 C 1.08985 0.33285 0.68636
 C259 C 1.09033 0.30769 0.66302
 C260 C 1.06043 0.30922 0.64513
 N261 N 1.04174 0.33424 0.65732
 C262 C 1.05093 0.28829 0.61793
 H263 H 1.02010 0.26768 0.55482
 H264 H 0.95473 0.26262 0.55974
 H265 H 1.01938 0.34275 0.64695
 H266 H 0.87223 0.28023 0.66819
 H267 H 0.87155 0.32940 0.71204
 H268 H 0.95375 0.43506 0.72265
 H269 H 1.01960 0.43871 0.71947
 H270 H 1.11029 0.29006 0.65997
 H271 H 0.95980 0.33738 0.65241
 H272 H 1.10943 0.33847 0.70443
 C273 C 0.28233 -0.01755 0.41976
 C274 C 0.28178 0.01608 0.41990
 C275 C 0.29027 0.02607 0.38729
 N276 N 0.29591 -0.00018 0.36714
 C277 C 0.29061 -0.02691 0.38688
 C278 C 0.29002 0.05881 0.37566
 C279 C 0.30654 0.06851 0.34560
 C280 C 0.30198 0.09812 0.32872
 C281 C 0.32455 0.09869 0.30225
 C282 C 0.34223 0.06943 0.30389
 N283 N 0.33108 0.05122 0.33036
 C284 C 0.36965 0.06118 0.28307
 C285 C 0.38242 0.02895 0.28120
 C286 C 0.41306 0.02057 0.26734
 C287 C 0.41486 -0.01304 0.26838
 C288 C 0.38516 -0.02407 0.28265
 N289 N 0.36541 0.00167 0.29060
 C290 C 0.37545 -0.05735 0.28566
 C291 C 0.34809 -0.06738 0.30593
 C292 C 0.33167 -0.09722 0.30320
 C293 C 0.30773 -0.09788 0.32838
 C294 C 0.31054 -0.06858 0.34614
 N295 N 0.33513 -0.05009 0.33211
 C296 C 0.29129 -0.05963 0.37498
 H297 H 0.27684 -0.03339 0.44127
 H298 H 0.27563 0.03145 0.44143
 H299 H 0.34473 -0.02829 0.34188
 H300 H 0.28449 0.11741 0.33501
 H301 H 0.32783 0.11856 0.28415
 H302 H 0.43214 0.03695 0.25757
 H303 H 0.43568 -0.02763 0.25953
 H304 H 0.29016 -0.11765 0.33289
 H305 H 0.34219 0.03001 0.33993
 H306 H 0.33625 -0.11638 0.28477
 C307 C 0.59015 0.01759 0.73389
 C308 C 0.58992 -0.01605 0.73483
 C309 C 0.62051 -0.02631 0.72206
 N310 N 0.63908 -0.00000 0.71260
 C311 C 0.62058 0.02681 0.72003
 C312 C 0.63153 -0.05937 0.72035
 C313 C 0.65858 -0.06843 0.69896
 C314 C 0.67729 -0.09699 0.70218
 C315 C 0.69981 -0.09713 0.67577
 C316 C 0.69466 -0.06846 0.65741
 N317 N 0.66954 -0.05105 0.67168
 C318 C 0.71169 -0.06000 0.62713
 C319 C 0.71181 -0.02791 0.61363
 C320 C 0.72340 -0.01917 0.58160
 C321 C 0.72329 0.01455 0.58034
 C322 C 0.71135 0.02511 0.61156
 N323 N 0.70426 -0.00087 0.63180
 C324 C 0.71035 0.05808 0.62236
 C325 C 0.69304 0.06797 0.65196
 C326 C 0.69684 0.09806 0.66793
 C327 C 0.67479 0.09838 0.69483
 C328 C 0.65814 0.06850 0.69451
 N329 N 0.66930 0.05017 0.66826
 C330 C 0.63183 0.05952 0.71667
 H331 H 0.57010 0.03348 0.74217
 H332 H 0.56941 -0.03116 0.74369
 H333 H 0.65888 0.02817 0.65999
 H334 H 0.67519 -0.11577 0.72165
 H335 H 0.71799 -0.11615 0.67074
 H336 H 0.73194 -0.03539 0.56165
 H337 H 0.73160 0.02958 0.55916
 H338 H 0.67139 0.11840 0.71252
 H339 H 0.65824 -0.03023 0.66138
 H340 H 0.71373 0.11775 0.66097
 C341 C 0.26559 0.98096 0.59033
 C342 C 0.26479 1.01461 0.59054
 C343 C 0.27874 1.02450 0.62122
 N344 N 0.28866 0.99797 0.63942
 C345 C 0.28046 0.97138 0.62061
 C346 C 0.28095 1.05741 0.63273
 C347 C 0.30328 1.06644 0.65921
 C348 C 0.30086 1.09480 0.67859
 C349 C 0.32756 1.09487 0.70054
 C350 C 0.34544 1.06640 0.69436
 N351 N 0.33051 1.04916 0.66914
 C352 C 0.37533 1.05757 0.71121
 C353 C 0.38792 1.02527 0.71120
 C354 C 0.41931 1.01604 0.72271
 C355 C 0.41994 0.98232 0.72239
 C356 C 0.38887 0.97223 0.71092
 N357 N 0.36943 0.99848 0.70392
 C358 C 0.37756 0.93947 0.71015
 C359 C 0.34787 0.93000 0.69347
 C360 C 0.33229 0.89975 0.69724
 C361 C 0.30575 0.89949 0.67501
 C362 C 0.30595 0.92956 0.65828
 N363 N 0.33169 0.94798 0.66963
 C364 C 0.28430 0.93852 0.63149
 H365 H 0.25651 0.96533 0.57011
 H366 H 0.25519 1.03001 0.57026
 H367 H 0.33992 0.96995 0.65887
 H368 H 0.28159 1.11338 0.67748
 H369 H 0.33290 1.11357 0.71927
 H370 H 0.43936 1.03195 0.73108
 H371 H 0.44054 0.96696 0.73051
 H372 H 0.28849 0.87933 0.67136
 H373 H 0.34001 1.02833 0.65731
 H374 H 0.33951 0.87980 0.71399
 C375 C 0.72691 0.98021 0.41181
 C376 C 0.72676 1.01384 0.41068
 C377 C 0.71476 1.02270 0.37878
 N378 N 0.70720 0.99566 0.36054
 C379 C 0.71496 0.96968 0.38062
 C380 C 0.71300 1.05520 0.36599
 C381 C 0.69061 1.06366 0.33929
 C382 C 0.69268 1.09181 0.31931
 C383 C 0.66601 1.09117 0.29730
 C384 C 0.64833 1.06258 0.30420
 N385 N 0.66366 1.04577 0.32962
 C386 C 0.61879 1.05257 0.28712
 C387 C 0.60946 1.01893 0.28587
 C388 C 0.57817 1.00705 0.27668
 C389 C 0.58070 0.97355 0.27535
 C390 C 0.61311 0.96596 0.28468
 N391 N 0.63070 0.99363 0.29125
 C392 C 0.62658 0.93401 0.28479
 C393 C 0.65559 0.92571 0.30326
 C394 C 0.67294 0.89636 0.30058
 C395 C 0.69765 0.89702 0.32499
 C396 C 0.69469 0.92680 0.34165
 N397 N 0.66901 0.94407 0.32832
 C398 C 0.71377 0.93669 0.36996
 H399 H 0.73515 0.96521 0.43303
 H400 H 0.73465 1.02998 0.43099
 H401 H 0.65887 0.96547 0.33836
 H402 H 0.71177 1.11063 0.31992
 H403 H 0.66077 1.10931 0.27780
 H404 H 0.55573 1.02096 0.27145
 H405 H 0.56088 0.95665 0.26866
 H406 H 0.71553 0.87770 0.33008
 H407 H 0.65465 1.02461 0.34154
 H408 H 0.66801 0.87635 0.28323
 O409 O 0.86477 0.81779 0.46971
 O410 O 0.81756 0.86224 0.53528
 O411 O 0.86416 0.81793 0.53593
 O412 O 0.81794 0.86181 0.46905
 O413 O 0.77962 0.82275 0.46890
 O414 O 0.82564 0.77911 0.53682
 O415 O 0.77862 0.82380 0.53456
 O416 O 0.82693 0.77830 0.47036
 Cu417 Cu 0.84497 0.84381 0.50249
 Cu418 Cu 0.79894 0.79695 0.50267
 C419 C 0.85403 0.79038 0.45896
 C420 C 0.78979 0.85091 0.54571
 C421 C 0.85289 0.79108 0.54787
 C422 C 0.79075 0.84999 0.45776
 O423 O 0.17830 0.13495 0.53757
 O424 O 0.13869 0.17927 0.46692
 O425 O 0.18419 0.13475 0.47175
 O426 O 0.13422 0.18201 0.53237
 O427 O 0.17361 0.21991 0.53505
 O428 O 0.22407 0.17218 0.47419
 O429 O 0.17790 0.21741 0.46929
 O430 O 0.21800 0.17250 0.54024
 Cu431 Cu 0.15496 0.15391 0.50215
 Cu432 Cu 0.20247 0.19925 0.50505
 C433 C 0.20510 0.14573 0.55068
 C434 C 0.15129 0.20597 0.45614
 C435 C 0.21262 0.14539 0.46249
 C436 C 0.14485 0.20940 0.54339
 O437 O 0.13878 0.81541 0.53261
 O438 O 0.18549 0.86228 0.46828
 O439 O 0.13875 0.81783 0.46655
 O440 O 0.18289 0.86161 0.53419
 O441 O 0.22250 0.82390 0.53405
 O442 O 0.17789 0.77973 0.46564
 O443 O 0.22492 0.82444 0.46794
 O444 O 0.17762 0.77698 0.53180
 Cu445 Cu 0.15753 0.84306 0.50030
 Cu446 Cu 0.20470 0.79740 0.49983
 C447 C 0.15017 0.78810 0.54309
 C448 C 0.21335 0.85166 0.45744
 C449 C 0.15041 0.79130 0.45466
 C450 C 0.21021 0.85038 0.54569
 O451 O 0.86086 0.17708 0.52652
 O452 O 0.81894 0.13166 0.45815
 O453 O 0.86511 0.17700 0.46047
 O454 O 0.81626 0.13143 0.52416
 O455 O 0.77653 0.16891 0.52163
 O456 O 0.82616 0.21521 0.45794
 O457 O 0.77974 0.16961 0.45537
 O458 O 0.82167 0.21513 0.52416
 Cu459 Cu 0.84423 0.15053 0.49237
 Cu460 Cu 0.79708 0.19605 0.48941
 C461 C 0.84834 0.20376 0.53720
 C462 C 0.79198 0.14258 0.44534
 C463 C 0.85433 0.20401 0.44855
 C464 C 0.78818 0.14235 0.53395
 O465 O 0.46932 0.85815 0.81511
 O466 O 0.53190 0.81061 0.86278
 O467 O 0.53403 0.85962 0.82003
 O468 O 0.46692 0.81010 0.85833
 O469 O 0.47035 0.77471 0.81607
 O470 O 0.53841 0.82400 0.77810
 O471 O 0.53474 0.77470 0.82091
 O472 O 0.47376 0.82360 0.77221
 Cu473 Cu 0.50025 0.83813 0.84333
 Cu474 Cu 0.50465 0.79576 0.79249
 C475 C 0.46109 0.84916 0.78536
 C476 C 0.54362 0.78432 0.85025
 C477 C 0.54761 0.85042 0.79246
 C478 C 0.45724 0.78392 0.84392
 O479 O 0.53180 0.18910 0.13869
 O480 O 0.46649 0.14044 0.18117
 O481 O 0.46748 0.18754 0.13783
 O482 O 0.53113 0.13896 0.18214
 O483 O 0.53053 0.17337 0.22538
 O484 O 0.46843 0.22402 0.17928
 O485 O 0.46591 0.17609 0.22339
 O486 O 0.53346 0.22309 0.18240
 Cu487 Cu 0.49980 0.16040 0.15569
 Cu488 Cu 0.49982 0.20273 0.20687
 C489 C 0.54309 0.21474 0.15295
 C490 C 0.45472 0.15026 0.20938
 C491 C 0.45699 0.21401 0.15091
 C492 C 0.54067 0.14692 0.21182
 O493 O 0.53457 0.13432 0.82106
 O494 O 0.46704 0.17822 0.86490
 O495 O 0.46937 0.13282 0.81882
 O496 O 0.53092 0.17944 0.86768
 O497 O 0.53373 0.21698 0.82690
 O498 O 0.46937 0.17111 0.77887
 O499 O 0.46847 0.21706 0.82555
 O500 O 0.53452 0.17165 0.78012
 Cu501 Cu 0.50045 0.15222 0.84696
 Cu502 Cu 0.50156 0.19802 0.79875
 C503 C 0.54602 0.14535 0.79307
 C504 C 0.45665 0.20546 0.85316
 C505 C 0.45852 0.14401 0.79073
 C506 C 0.54261 0.20611 0.85590
 O507 O 0.46668 0.81222 0.13298
 O508 O 0.52931 0.85914 0.18045
 O509 O 0.53101 0.81341 0.13601
 O510 O 0.46454 0.85920 0.17908
 O511 O 0.46374 0.82247 0.22057
 O512 O 0.52934 0.77556 0.17645
 O513 O 0.52857 0.82184 0.22144
 O514 O 0.46464 0.77501 0.17395
 Cu515 Cu 0.49748 0.83977 0.15305
 Cu516 Cu 0.49598 0.79497 0.20228
 C517 C 0.45597 0.78501 0.14453
 C518 C 0.54014 0.84830 0.20872
 C519 C 0.54167 0.78677 0.14892
 C520 C 0.45382 0.84948 0.20785
 O521 O 0.85784 0.52728 0.81338
 O522 O 0.80855 0.46365 0.85721
 O523 O 0.85431 0.46365 0.81133
 O524 O 0.81130 0.52743 0.86017
 O525 O 0.77271 0.53156 0.82021
 O526 O 0.81576 0.46721 0.77126
 O527 O 0.76914 0.46825 0.81803
 O528 O 0.81948 0.53061 0.77311
 Cu529 Cu 0.83688 0.49539 0.83957
 Cu530 Cu 0.79038 0.49989 0.79161
 C531 C 0.84750 0.53922 0.78537
 C532 C 0.78044 0.45519 0.84511
 C533 C 0.84239 0.45449 0.78298
 C534 C 0.78441 0.53996 0.84895
 O535 O 0.13764 0.53318 0.18216
 O536 O 0.18618 0.47149 0.13576
 O537 O 0.14009 0.46947 0.18215
 O538 O 0.18353 0.53498 0.13538
 O539 O 0.22242 0.53718 0.17515
 O540 O 0.17870 0.47099 0.22224
 O541 O 0.22552 0.47348 0.17511
 O542 O 0.17630 0.53510 0.22216
 Cu543 Cu 0.15795 0.50212 0.15495
 Cu544 Cu 0.20461 0.50425 0.20277
 C545 C 0.14854 0.54472 0.21002
 C546 C 0.21433 0.46226 0.14718
 C547 C 0.15182 0.45904 0.21020
 C548 C 0.21044 0.54716 0.14696
 O549 O 0.86588 0.46800 0.18592
 O550 O 0.81942 0.53168 0.13979
 O551 O 0.86572 0.53164 0.18528
 O552 O 0.81910 0.46786 0.13946
 O553 O 0.77977 0.46905 0.17892
 O554 O 0.82793 0.53100 0.22627
 O555 O 0.78132 0.53230 0.18048
 O556 O 0.82733 0.46706 0.22609
 Cu557 Cu 0.84638 0.49953 0.15857
 Cu558 Cu 0.80025 0.49949 0.20712
 C559 C 0.85500 0.45708 0.21414
 C560 C 0.79264 0.54313 0.15235
 C561 C 0.85477 0.54234 0.21348
 C562 C 0.79097 0.45844 0.15079
 O563 O 0.18446 0.52248 0.85741
 O564 O 0.13423 0.46265 0.80998
 O565 O 0.18078 0.45880 0.85696
 O566 O 0.13836 0.52599 0.81186
 O567 O 0.17642 0.52409 0.77120
 O568 O 0.21928 0.45673 0.81684
 O569 O 0.17252 0.46088 0.76959
 O570 O 0.22338 0.52068 0.81763
 Cu571 Cu 0.15567 0.49235 0.83813
 Cu572 Cu 0.20189 0.49029 0.78986
 C573 C 0.21241 0.53195 0.84561
 C574 C 0.14416 0.45236 0.78121
 C575 C 0.20753 0.44664 0.84509
 C576 C 0.14995 0.53637 0.78371
 C577 C 0.23870 0.40241 0.07894
 C578 C 0.27302 0.39806 0.08237
 C579 C 0.28815 0.41388 0.11053
 C580 C 0.26902 0.43403 0.13273
 C581 C 0.23435 0.43891 0.12714
 C582 C 0.22051 0.42176 0.09999
 C583 C 0.18912 0.41725 0.08016
 C584 C 0.20972 0.39517 0.05635
 H585 H 0.31476 0.41142 0.11480
 H586 H 0.28156 0.44656 0.15337
 H587 H 0.18067 0.44043 0.06785
 H588 H 0.16971 0.40376 0.09489
 H589 H 0.21270 0.40563 0.03035
 H590 H 0.20233 0.36886 0.05739
 C591 C 0.72263 0.59747 0.12110
 C592 C 0.73601 0.61080 0.09118
 C593 C 0.77052 0.60692 0.08542
 C594 C 0.78964 0.58626 0.10656
 C595 C 0.77457 0.56923 0.13393
 C596 C 0.74149 0.57717 0.14206
 C597 C 0.71234 0.55523 0.14918
 C598 C 0.69172 0.57756 0.12625
 H599 H 0.78212 0.61797 0.06322
 H600 H 0.81561 0.58206 0.10018
 H601 H 0.70456 0.55614 0.17633
 H602 H 0.71572 0.53011 0.13873
 H603 H 0.67216 0.59141 0.14021
 H604 H 0.68314 0.56543 0.10247
 C605 C 0.70876 0.41417 0.89032
 C606 C 0.72455 0.38867 0.90803
 C607 C 0.75790 0.38138 0.89939
 C608 C 0.77596 0.40223 0.87736
 C609 C 0.76062 0.43011 0.86291
 C610 C 0.72627 0.43420 0.86784
 C611 C 0.70734 0.46398 0.87868
 C612 C 0.68821 0.44194 0.90327
 H613 H 0.77071 0.36122 0.91184
 H614 H 0.80228 0.39761 0.87315
 H615 H 0.69150 0.47397 0.85783
 H616 H 0.72344 0.48241 0.89162
 H617 H 0.66138 0.43917 0.89653
 H618 H 0.69327 0.44747 0.93050
 C619 C 0.23600 0.59395 0.91210
 C620 C 0.27025 0.59876 0.90851
 C621 C 0.28556 0.58263 0.88067
 C622 C 0.26672 0.56153 0.85911
 C623 C 0.23220 0.55598 0.86507
 C624 C 0.21811 0.57365 0.89171
 C625 C 0.18682 0.57768 0.91177
 C626 C 0.20708 0.60079 0.93489
 H627 H 0.31213 0.58543 0.87631
 H628 H 0.27940 0.54877 0.83873
 H629 H 0.17909 0.55453 0.92467
 H630 H 0.16693 0.59033 0.89696
 H631 H 0.21060 0.59090 0.96105
 H632 H 0.19898 0.62685 0.93341
 C633 C 0.12003 0.27599 0.40165
 C634 C 0.09193 0.26219 0.38604
 C635 C 0.08814 0.22783 0.38776
 C636 C 0.10909 0.20890 0.40890
 C637 C 0.13433 0.22402 0.42849
 C638 C 0.14080 0.25733 0.42239
 C639 C 0.14537 0.28492 0.44692
 C640 C 0.12267 0.30531 0.42410
 H641 H 0.06752 0.21600 0.37480
 H642 H 0.10402 0.18289 0.41165
 H643 H 0.17158 0.29398 0.44737
 H644 H 0.13436 0.27955 0.47236
 H645 H 0.13582 0.32603 0.41132
 H646 H 0.09847 0.31177 0.43626
 C647 C 0.08473 0.76563 0.60772
 C648 C 0.08660 0.73163 0.61089
 C649 C 0.11349 0.71623 0.59382
 C650 C 0.13551 0.73473 0.57277
 C651 C 0.13089 0.76897 0.56817
 C652 C 0.10556 0.78323 0.58733
 C653 C 0.08605 0.81411 0.59110
 C654 C 0.06246 0.79421 0.61434
 H655 H 0.11655 0.68985 0.59550
 H656 H 0.15493 0.72200 0.55891
 H657 H 0.07415 0.82194 0.56680
 H658 H 0.10034 0.83346 0.60469
 H659 H 0.03707 0.79117 0.60336
 H660 H 0.06318 0.80197 0.64143
 C661 C 0.88786 0.72104 0.40547
 C662 C 0.91671 0.73482 0.39121
 C663 C 0.92116 0.76903 0.39426
 C664 C 0.89974 0.78765 0.41505
 C665 C 0.87330 0.77242 0.43298
 C666 C 0.86663 0.73939 0.42583
 C667 C 0.86072 0.71114 0.44950
 C668 C 0.88393 0.69109 0.42707
 H669 H 0.94237 0.78094 0.38230
 H670 H 0.90501 0.81350 0.41852
 H671 H 0.83438 0.70249 0.44876
 H672 H 0.87089 0.71557 0.47544
 H673 H 0.87093 0.67099 0.41331
 H674 H 0.90756 0.68386 0.43998
 C675 C 0.87622 0.27279 0.59449
 C676 C 0.90515 0.25988 0.60934
 C677 C 0.91106 0.22597 0.60581
 C678 C 0.89121 0.20699 0.58380
 C679 C 0.86507 0.22162 0.56500
 C680 C 0.85657 0.25407 0.57283
 C681 C 0.85023 0.28266 0.54976
 C682 C 0.87170 0.30312 0.57358
 H683 H 0.93255 0.21479 0.61794
 H684 H 0.89780 0.18152 0.57981
 H685 H 0.82352 0.29009 0.54975
 H686 H 0.86151 0.27943 0.52411
 H687 H 0.85734 0.32222 0.58740
 H688 H 0.89541 0.31177 0.56176
 C689 C 0.39907 0.11537 0.27804
 C690 C 0.38575 0.08744 0.26251
 C691 C 0.38979 0.08429 0.22701
 C692 C 0.41086 0.10597 0.20900
 C693 C 0.42799 0.13128 0.22619
 C694 C 0.41965 0.13685 0.26030
 C695 C 0.44168 0.14192 0.29056
 C696 C 0.41899 0.11840 0.30995
 H697 H 0.37864 0.06374 0.21376
 H698 H 0.41534 0.10161 0.18221
 H699 H 0.44044 0.16753 0.30014
 H700 H 0.46736 0.13223 0.28667
 H701 H 0.40460 0.13047 0.33060
 H702 H 0.43147 0.09503 0.31731
 C703 C 0.60142 0.11322 0.72285
 C704 C 0.61564 0.08527 0.73774
 C705 C 0.61220 0.08138 0.77329
 C706 C 0.59085 0.10210 0.79192
 C707 C 0.57285 0.12733 0.77539
 C708 C 0.58062 0.13383 0.74123
 C709 C 0.55811 0.13905 0.71135
 C710 C 0.58103 0.11653 0.69127
 H711 H 0.62402 0.06088 0.78615
 H712 H 0.58692 0.09706 0.81873
 H713 H 0.55860 0.16490 0.70215
 H714 H 0.53276 0.12858 0.71548
 H715 H 0.59488 0.12944 0.67063
 H716 H 0.56895 0.09306 0.68370
 C717 C 0.39390 0.91096 0.76435
 C718 C 0.39650 0.91404 0.72897
 C719 C 0.41579 0.89050 0.71162
 C720 C 0.43568 0.86791 0.72995
 C721 C 0.43664 0.86870 0.76590
 C722 C 0.41368 0.88915 0.78227
 C723 C 0.41655 0.91153 0.81211
 C724 C 0.39445 0.93550 0.79250
 H725 H 0.41679 0.89072 0.68406
 H726 H 0.45186 0.85146 0.71600
 H727 H 0.44243 0.92078 0.81597
 H728 H 0.40426 0.90122 0.83520
 H729 H 0.40752 0.95869 0.78580
 H730 H 0.36939 0.93871 0.80422
 C731 C 0.59593 0.88036 0.27890
 C732 C 0.60983 0.90851 0.26401
 C733 C 0.60552 0.91305 0.22871
 C734 C 0.58409 0.89234 0.21019
 C735 C 0.56658 0.86668 0.22665
 C736 C 0.57481 0.85985 0.26062
 C737 C 0.55262 0.85440 0.29071
 C738 C 0.57582 0.87682 0.31067
 H739 H 0.61691 0.93390 0.21598
 H740 H 0.57977 0.89768 0.18351
 H741 H 0.55322 0.82849 0.29972
 H742 H 0.52718 0.86480 0.28698
 H743 H 0.58984 0.86380 0.33108
 H744 H 0.56388 0.90024 0.31853
 C745 C 0.39926 0.27390 0.88204
 C746 C 0.39088 0.26418 0.91532
 C747 C 0.39861 0.23143 0.92461
 C748 C 0.41826 0.21152 0.90337
 C749 C 0.43088 0.22378 0.87226
 C750 C 0.41902 0.25438 0.86124
 C751 C 0.43734 0.28334 0.84711
 C752 C 0.41564 0.30471 0.86978
 H753 H 0.39066 0.22161 0.94899
 H754 H 0.42526 0.18733 0.91241
 H755 H 0.43233 0.28699 0.81951
 H756 H 0.46419 0.28358 0.85442
 H757 H 0.39807 0.32058 0.85523
 H758 H 0.42990 0.31740 0.89017
 C759 C 0.60388 0.75923 0.91894
 C760 C 0.60718 0.72533 0.91579
 C761 C 0.59125 0.71097 0.88728
 C762 C 0.57157 0.73033 0.86472
 C763 C 0.56713 0.76442 0.87041
 C764 C 0.58475 0.77762 0.89765
 C765 C 0.58914 0.80813 0.91791
 C766 C 0.61097 0.78735 0.94205
 H767 H 0.59298 0.68475 0.88318
 H768 H 0.55872 0.71838 0.84391
 H769 H 0.56538 0.81641 0.92973
 H770 H 0.60329 0.82731 0.90374
 H771 H 0.59977 0.78423 0.96774
 H772 H 0.63780 0.79445 0.94178
 C773 C 0.41381 0.75305 0.06556
 C774 C 0.40002 0.72275 0.07533
 C775 C 0.40666 0.71219 0.10914
 C776 C 0.42431 0.73245 0.13215
 C777 C 0.43539 0.76400 0.12217
 C778 C 0.43094 0.77290 0.08808
 C779 C 0.41664 0.80350 0.07291
 C780 C 0.39791 0.78164 0.04808
 H781 H 0.39847 0.68821 0.11779
 H782 H 0.42898 0.72353 0.15772
 H783 H 0.43609 0.81892 0.06043
 H784 H 0.39996 0.81675 0.09084
 H785 H 0.40665 0.78446 0.02135
 H786 H 0.37033 0.78220 0.05152
 C787 C 0.61990 0.26055 0.12354
 C788 C 0.60939 0.27342 0.09218
 C789 C 0.57512 0.27124 0.08415
 C790 C 0.55338 0.25268 0.10465
 C791 C 0.56538 0.23651 0.13388
 C792 C 0.59819 0.24275 0.14426
 C793 C 0.62502 0.21917 0.15431
 C794 C 0.64870 0.23872 0.13164
 H795 H 0.56567 0.28204 0.06080
 H796 H 0.52756 0.24975 0.09689
 H797 H 0.62021 0.19385 0.14498
 H798 H 0.63127 0.22091 0.18183
 H799 H 0.65760 0.22480 0.10910
 H800 H 0.66851 0.25178 0.14612
 C801 C 0.27175 0.11321 0.61001
 C802 C 0.25983 0.08167 0.61812
 C803 C 0.22595 0.07513 0.61028
 C804 C 0.20714 0.09719 0.59035
 C805 C 0.22166 0.12640 0.57775
 C806 C 0.25328 0.13488 0.59018
 C807 C 0.28363 0.14706 0.57193
 C808 C 0.30387 0.12339 0.59373
 H809 H 0.21443 0.05223 0.61813
 H810 H 0.18206 0.09020 0.58294
 H811 H 0.28895 0.17327 0.57758
 H812 H 0.28359 0.14063 0.54443
 H813 H 0.32076 0.13599 0.61197
 H814 H 0.31561 0.10327 0.57890
 C815 C 0.72406 0.11126 0.38683
 C816 C 0.73488 0.07928 0.37958
 C817 C 0.76849 0.07175 0.38776
 C818 C 0.78806 0.09345 0.40715
 C819 C 0.77458 0.12325 0.41898
 C820 C 0.74329 0.13258 0.40625
 C821 C 0.71337 0.14591 0.42416
 C822 C 0.69232 0.12264 0.40287
 H823 H 0.77915 0.04832 0.38067
 H824 H 0.81285 0.08576 0.41480
 H825 H 0.70899 0.17221 0.41792
 H826 H 0.71314 0.13982 0.45180
 H827 H 0.67588 0.13555 0.38434
 H828 H 0.67987 0.10307 0.41814
 C829 C 0.76642 0.91334 0.61237
 C830 C 0.73155 0.91429 0.60989
 C831 C 0.71579 0.88890 0.59161
 C832 C 0.73490 0.86664 0.57220
 C833 C 0.77006 0.86964 0.57066
 C834 C 0.78506 0.89188 0.59301
 C835 C 0.81332 0.91556 0.58939
 C836 C 0.79296 0.93917 0.61112
 H837 H 0.68878 0.88751 0.59070
 H838 H 0.72204 0.84882 0.55654
 H839 H 0.81673 0.92429 0.56273
 H840 H 0.83637 0.90672 0.60226
 H841 H 0.78555 0.96169 0.59707
 H842 H 0.80421 0.94357 0.63658
 C843 C 0.23893 0.92277 0.40217
 C844 C 0.27188 0.91655 0.39229
 C845 C 0.28488 0.88557 0.40251
 C846 C 0.26571 0.86366 0.42303
 C847 C 0.23280 0.87184 0.43332
 C848 C 0.22049 0.90150 0.42109
 C849 C 0.19061 0.92316 0.42181
 C850 C 0.21118 0.94720 0.39991
 H851 H 0.31037 0.87898 0.39632
 H852 H 0.27701 0.84092 0.43155
 H853 H 0.18522 0.93245 0.44781
 H854 H 0.16898 0.91225 0.40814
 H855 H 0.21662 0.97055 0.41326
 H856 H 0.20159 0.94999 0.37349
 C857 C 0.06813 0.40411 0.75448
 C858 C 0.07451 0.39603 0.72052
 C859 C 0.10399 0.40863 0.70566
 C860 C 0.12726 0.42639 0.72544
 C861 C 0.12141 0.43204 0.76043
 C862 C 0.09072 0.42179 0.77380
 C863 C 0.08326 0.40194 0.80498
 C864 C 0.05835 0.38266 0.78367
 H865 H 0.10919 0.40438 0.67898
 H866 H 0.14979 0.43553 0.71339
 H867 H 0.07120 0.41686 0.82517
 H868 H 0.10500 0.38706 0.81358
 H869 H 0.03196 0.38663 0.79143
 H870 H 0.06559 0.35658 0.77984
 C871 C 0.11771 0.60219 0.27880
 C872 C 0.08520 0.60975 0.26791
 C873 C 0.07677 0.60084 0.23417
 C874 C 0.09816 0.58109 0.21462
 C875 C 0.12860 0.56960 0.22821
 C876 C 0.13873 0.58244 0.25959
 C877 C 0.15227 0.56559 0.29048
 C878 C 0.12933 0.58728 0.31151
 H879 H 0.05301 0.60809 0.22329
 H880 H 0.08990 0.57338 0.18964
 H881 H 0.17921 0.57103 0.29446
 H882 H 0.14546 0.53912 0.29160
 H883 H 0.14307 0.60524 0.32752
 H884 H 0.10924 0.57340 0.32488
 C885 C 0.92822 0.40477 0.23941
 C886 C 0.92206 0.39437 0.27280
 C887 C 0.89041 0.40346 0.28630
 C888 C 0.86779 0.42322 0.26715
 C889 C 0.87578 0.43375 0.23366
 C890 C 0.90620 0.42285 0.22093
 C891 C 0.92770 0.42365 0.19004
 C892 C 0.95251 0.40262 0.21059
 H893 H 0.88374 0.39660 0.31211
 H894 H 0.84457 0.43078 0.27887
 H895 H 0.93708 0.44877 0.18423
 H896 H 0.91619 0.41042 0.16829
 H897 H 0.97648 0.41550 0.21548
 H898 H 0.95499 0.37714 0.20089
 C899 C 0.91912 0.59532 0.76317
 C900 C 0.91549 0.60224 0.72860
 C901 C 0.88633 0.58966 0.71287
 C902 C 0.86324 0.57004 0.73153
 C903 C 0.86884 0.56244 0.76637
 C904 C 0.89714 0.57645 0.78094
 C905 C 0.91732 0.57749 0.81277
 C906 C 0.94218 0.59907 0.79270
 H907 H 0.88185 0.59427 0.68607
 H908 H 0.84176 0.56001 0.71841
 H909 H 0.92754 0.55300 0.81976
 H910 H 0.90431 0.59074 0.83359
 H911 H 0.96672 0.58699 0.78864
 H912 H 0.94343 0.62484 0.80179
 C913 C 0.76226 0.59406 0.92280
 C914 C 0.72905 0.60350 0.91764
 C915 C 0.71457 0.59302 0.88643
 C916 C 0.73271 0.57306 0.86327
 C917 C 0.76602 0.56344 0.87034
 C918 C 0.77966 0.57549 0.90032
 C919 C 0.81093 0.57606 0.92077
 C920 C 0.79159 0.59759 0.94610
 H921 H 0.68879 0.59884 0.88061
 H922 H 0.72031 0.56447 0.84047
 H923 H 0.83151 0.58928 0.90750
 H924 H 0.81744 0.55141 0.93105
 H925 H 0.80084 0.62332 0.94715
 H926 H 0.78811 0.58550 0.97124
 C927 C 0.27599 0.38977 0.87627
 C928 C 0.26644 0.38365 0.91012
 C929 C 0.23331 0.39217 0.91910
 C930 C 0.21305 0.41054 0.89680
 C931 C 0.22538 0.42116 0.86495
 C932 C 0.25614 0.40832 0.85440
 C933 C 0.28574 0.42486 0.83875
 C934 C 0.30744 0.40450 0.86259
 H935 H 0.22358 0.38606 0.94409
 H936 H 0.18873 0.41840 0.90565
 H937 H 0.28665 0.45163 0.84422
 H938 H 0.28891 0.41824 0.81151
 H939 H 0.32096 0.41943 0.88184
 H940 H 0.32301 0.38611 0.84908
 C941 C 0.27826 0.60453 0.11491
 C942 C 0.26777 0.61126 0.08148
 C943 C 0.23436 0.60294 0.07332
 C944 C 0.21474 0.58406 0.09577
 C945 C 0.22797 0.57278 0.12697
 C946 C 0.25900 0.58551 0.13695
 C947 C 0.28897 0.56869 0.15139
 C948 C 0.31004 0.58954 0.12736
 H949 H 0.22394 0.60953 0.04876
 H950 H 0.19013 0.57639 0.08751
 H951 H 0.28963 0.54204 0.14534
 H952 H 0.29291 0.57478 0.17866
 H953 H 0.32297 0.57500 0.10741
 H954 H 0.32605 0.60766 0.14081
 C955 C 0.76655 0.39264 0.08877
 C956 C 0.73205 0.39574 0.08459
 C957 C 0.71654 0.42038 0.10460
 C958 C 0.73546 0.44000 0.12743
 C959 C 0.77050 0.43612 0.13021
 C960 C 0.78467 0.41185 0.11012
 C961 C 0.81691 0.39577 0.10152
 C962 C 0.79643 0.37372 0.07747
 H963 H 0.69006 0.42520 0.10191
 H964 H 0.72289 0.45898 0.14179
 H965 H 0.82775 0.38234 0.12360
 H966 H 0.83428 0.41269 0.08799
 H967 H 0.79533 0.34762 0.08581
 H968 H 0.80250 0.37762 0.05015
 C969 C 0.88347 0.72403 0.60728
 C970 C 0.91557 0.73508 0.61605
 C971 C 0.92316 0.76825 0.60828
 C972 C 0.90166 0.78728 0.58791
 C973 C 0.87199 0.77371 0.57464
 C974 C 0.86235 0.74275 0.58689
 C975 C 0.84986 0.71329 0.56831
 C976 C 0.87291 0.69280 0.59065
 H977 H 0.94659 0.77899 0.61646
 H978 H 0.90948 0.81183 0.58074
 H979 H 0.85716 0.71336 0.54098
 H980 H 0.82293 0.70858 0.57329
 H981 H 0.89355 0.68095 0.57629
 H982 H 0.85923 0.67633 0.60851
 C983 C 0.88831 0.27321 0.39367
 C984 C 0.92063 0.26233 0.38554
 C985 C 0.92768 0.22890 0.39255
 C986 C 0.90525 0.20929 0.41139
 C987 C 0.87502 0.22244 0.42373
 C988 C 0.86621 0.25390 0.41237
 C989 C 0.85323 0.28274 0.43157
 C990 C 0.87736 0.30388 0.41106
 H991 H 0.95115 0.21816 0.38460
 H992 H 0.91254 0.18444 0.41786
 H993 H 0.85940 0.28160 0.45916
 H994 H 0.82657 0.28783 0.42564
 H995 H 0.89750 0.31504 0.42674
 H996 H 0.86458 0.32108 0.39329
 C997 C 0.06762 0.23761 0.58914
 C998 C 0.07525 0.26938 0.60040
 C999 C 0.10704 0.28197 0.59117
 C1000 C 0.13025 0.26245 0.57320
 C1001 C 0.12240 0.22978 0.56427
 C1002 C 0.09021 0.21856 0.57151
 C1003 C 0.07904 0.18787 0.58912
 C1004 C 0.05409 0.20887 0.60842
 H1005 H 0.11381 0.30704 0.59718
 H1006 H 0.15422 0.27294 0.56636
 H1007 H 0.09878 0.17710 0.60566
 H1008 H 0.06696 0.17036 0.57129
 H1009 H 0.05930 0.21033 0.63619
 H1010 H 0.02768 0.20352 0.60161
 C1011 C 0.11941 0.72372 0.39681
 C1012 C 0.08719 0.73460 0.38826
 C1013 C 0.07973 0.76783 0.39535
 C1014 C 0.10150 0.78713 0.41498
 C1015 C 0.13132 0.77376 0.42816
 C1016 C 0.14080 0.74269 0.41650
 C1017 C 0.15348 0.71345 0.43555
 C1018 C 0.13015 0.69267 0.41392
 H1019 H 0.05626 0.77847 0.38712
 H1020 H 0.09379 0.81175 0.42170
 H1021 H 0.14651 0.71380 0.46297
 H1022 H 0.18034 0.70873 0.43032
 H1023 H 0.10967 0.68092 0.42878
 H1024 H 0.14358 0.67607 0.39619
 C1025 C 0.60856 0.88489 0.72792
 C1026 C 0.61571 0.91625 0.74076
 C1027 C 0.60579 0.92237 0.77476
 C1028 C 0.58523 0.90002 0.79254
 C1029 C 0.57408 0.87089 0.77686
 C1030 C 0.58818 0.86293 0.74536
 C1031 C 0.57218 0.85112 0.71332
 C1032 C 0.59458 0.87511 0.69420
 H1033 H 0.61271 0.94509 0.78717
 H1034 H 0.57648 0.90658 0.81770
 H1035 H 0.54520 0.85748 0.71178
 H1036 H 0.57820 0.82500 0.70804
 H1037 H 0.58061 0.89536 0.68154
 H1038 H 0.61352 0.86279 0.67799
 C1039 C 0.40039 0.92210 0.23122
 C1040 C 0.39428 0.91761 0.26599
 C1041 C 0.40916 0.89030 0.28211
 C1042 C 0.42757 0.86725 0.26308
 C1043 C 0.43161 0.87117 0.22755
 C1044 C 0.41878 0.89970 0.21255
 C1045 C 0.39640 0.90336 0.18233
 C1046 C 0.37637 0.92801 0.20287
 H1047 H 0.40641 0.88673 0.30931
 H1048 H 0.43880 0.84660 0.27620
 H1049 H 0.38233 0.88048 0.17652
 H1050 H 0.40957 0.91463 0.16024
 H1051 H 0.35065 0.91948 0.20907
 H1052 H 0.37814 0.95349 0.19274
 C1053 C 0.58457 0.06897 0.23792
 C1054 C 0.59913 0.07624 0.26948
 C1055 C 0.59236 0.10775 0.28303
 C1056 C 0.57368 0.13111 0.26436
 C1057 C 0.56179 0.12385 0.23140
 C1058 C 0.56649 0.09191 0.21953
 C1059 C 0.58018 0.08014 0.18639
 C1060 C 0.59994 0.05486 0.20662
 H1061 H 0.60132 0.11433 0.30812
 H1062 H 0.56901 0.15493 0.27554
 H1063 H 0.59618 0.09880 0.17354
 H1064 H 0.56053 0.06901 0.17009
 H1065 H 0.62743 0.05879 0.20552
 H1066 H 0.59159 0.02921 0.20201
 C1067 C 0.40458 0.11178 0.71909
 C1068 C 0.39225 0.08240 0.73279
 C1069 C 0.39650 0.07698 0.76798
 C1070 C 0.41674 0.09808 0.78738
 C1071 C 0.43297 0.12515 0.77199
 C1072 C 0.42448 0.13270 0.73823
 C1073 C 0.44627 0.14055 0.70840
 C1074 C 0.42437 0.11766 0.68749
 H1075 H 0.38585 0.05536 0.77998
 H1076 H 0.42116 0.09208 0.81389
 H1077 H 0.47222 0.13141 0.71169
 H1078 H 0.44418 0.16670 0.70047
 H1079 H 0.43763 0.09528 0.67867
 H1080 H 0.40957 0.13066 0.66764
 C1081 C 0.59635 0.71715 0.11921
 C1082 C 0.61121 0.73045 0.09001
 C1083 C 0.60848 0.76455 0.08462
 C1084 C 0.58724 0.78353 0.10516
 C1085 C 0.56854 0.76870 0.13155
 C1086 C 0.57549 0.73587 0.13958
 C1087 C 0.55220 0.70770 0.14543
 C1088 C 0.57515 0.68723 0.12314
 H1089 H 0.62080 0.77600 0.06305
 H1090 H 0.58387 0.80925 0.09896
 H1091 H 0.52710 0.71184 0.13401
 H1092 H 0.55201 0.69959 0.17249
 H1093 H 0.56341 0.67950 0.09878
 H1094 H 0.58824 0.66742 0.13739
 C1095 C 0.40707 0.28557 0.11655
 C1096 C 0.39085 0.27159 0.08855
 C1097 C 0.39122 0.23713 0.08570
 C1098 C 0.41131 0.21804 0.10746
 C1099 C 0.43124 0.23303 0.13265
 C1100 C 0.42679 0.26669 0.13822
 C1101 C 0.45220 0.29337 0.14158
 C1102 C 0.43055 0.31399 0.11792
 H1103 H 0.37782 0.22525 0.06519
 H1104 H 0.41279 0.19183 0.10317
 H1105 H 0.47676 0.28666 0.13031
 H1106 H 0.45339 0.30316 0.16793
 H1107 H 0.44251 0.31923 0.09290
 H1108 H 0.41921 0.33559 0.13066
 C1109 C 0.57717 0.25024 0.93141
 C1110 C 0.60924 0.25995 0.92125
 C1111 C 0.62056 0.24892 0.88917
 C1112 C 0.59877 0.23183 0.86708
 C1113 C 0.56575 0.22476 0.87723
 C1114 C 0.55626 0.23256 0.91036
 C1115 C 0.52603 0.25040 0.92275
 C1116 C 0.54917 0.26978 0.94596
 H1117 H 0.64579 0.25427 0.88086
 H1118 H 0.60759 0.22432 0.84224
 H1119 H 0.50865 0.23394 0.93689
 H1120 H 0.51412 0.26564 0.90255
 H1121 H 0.54522 0.26438 0.97344
 H1122 H 0.55083 0.29628 0.93921
 C1123 C 0.38728 0.75834 0.90277
 C1124 C 0.38935 0.72405 0.90223
 C1125 C 0.40858 0.70975 0.87612
 C1126 C 0.42909 0.72953 0.85503
 C1127 C 0.43087 0.76383 0.86006
 C1128 C 0.40766 0.77760 0.88249
 C1129 C 0.41005 0.80399 0.90864
 C1130 C 0.38721 0.78294 0.93088
 H1131 H 0.40974 0.68329 0.87379
 H1132 H 0.44556 0.71771 0.83698
 H1133 H 0.39815 0.82723 0.89999
 H1134 H 0.43565 0.80662 0.91929
 H1135 H 0.36211 0.79399 0.93467
 H1136 H 0.39960 0.77428 0.95453
 C1137 C 0.76787 0.91492 0.39350
 C1138 C 0.73351 0.91178 0.38892
 C1139 C 0.71823 0.88441 0.40503
 C1140 C 0.73707 0.86302 0.42635
 C1141 C 0.77158 0.86867 0.43219
 C1142 C 0.78579 0.89463 0.41408
 C1143 C 0.81683 0.91464 0.41107
 C1144 C 0.79661 0.93757 0.38758
 H1145 H 0.69162 0.88036 0.40230
 H1146 H 0.72431 0.84317 0.43940
 H1147 H 0.83716 0.90125 0.39778
 H1148 H 0.82396 0.92623 0.43560
 H1149 H 0.80514 0.93734 0.36064
 H1150 H 0.79271 0.96232 0.39863
 C1151 C 0.27970 0.88540 0.59943
 C1152 C 0.26431 0.91246 0.61466
 C1153 C 0.22924 0.91460 0.61264
 C1154 C 0.21113 0.89298 0.59169
 C1155 C 0.22777 0.86864 0.57265
 C1156 C 0.26185 0.86391 0.57896
 C1157 C 0.29028 0.86050 0.55459
 C1158 C 0.30980 0.88400 0.57712
 H1159 H 0.21616 0.93430 0.62538
 H1160 H 0.18448 0.89666 0.58881
 H1161 H 0.28453 0.87079 0.52897
 H1162 H 0.30068 0.83521 0.55459
 H1163 H 0.31537 0.90795 0.56461
 H1164 H 0.33135 0.87222 0.59017
 C1165 C 0.23659 0.07908 0.40105
 C1166 C 0.27056 0.08332 0.39508
 C1167 C 0.28554 0.11128 0.41010
 C1168 C 0.26664 0.13247 0.43142
 C1169 C 0.23242 0.12603 0.43820
 C1170 C 0.21863 0.09918 0.42148
 C1171 C 0.18793 0.07856 0.41926
 C1172 C 0.20832 0.05576 0.39601
 H1173 H 0.31190 0.11609 0.40632
 H1174 H 0.27905 0.15306 0.44336
 H1175 H 0.16720 0.09143 0.40593
 H1176 H 0.18130 0.06712 0.44412
 H1177 H 0.19946 0.05544 0.36919
 H1178 H 0.21311 0.03130 0.40759
 C1179 C 0.71678 0.11004 0.58791
 C1180 C 0.73103 0.08260 0.60378
 C1181 C 0.76589 0.07860 0.60119
 C1182 C 0.78484 0.09901 0.57955
 C1183 C 0.76932 0.12399 0.56019
 C1184 C 0.73550 0.13030 0.56660
 C1185 C 0.70712 0.13439 0.54226
 C1186 C 0.68667 0.11228 0.56566
 H1187 H 0.77812 0.05850 0.61435
 H1188 H 0.81128 0.09413 0.57672
 H1189 H 0.71227 0.12327 0.51699
 H1190 H 0.69787 0.16011 0.54142
 H1191 H 0.67995 0.08834 0.55398
 H1192 H 0.66574 0.12529 0.57838
 C1193 C 0.88703 0.59696 0.28374
 C1194 C 0.91561 0.61081 0.26905
 C1195 C 0.92025 0.60689 0.23373
 C1196 C 0.89938 0.58576 0.21507
 C1197 C 0.87339 0.56832 0.23139
 C1198 C 0.86633 0.57621 0.26532
 C1199 C 0.86078 0.55425 0.29538
 C1200 C 0.88343 0.57707 0.31550
 H1201 H 0.94134 0.61839 0.22112
 H1202 H 0.90483 0.58169 0.18841
 H1203 H 0.87148 0.52932 0.29175
 H1204 H 0.83439 0.55470 0.30418
 H1205 H 0.90729 0.56541 0.32355
 H1206 H 0.87006 0.59073 0.33580
 C1207 C 0.90248 0.38665 0.76084
 C1208 C 0.90327 0.38814 0.72529
 C1209 C 0.87814 0.40645 0.70876
 C1210 C 0.85647 0.42667 0.72773
 C1211 C 0.85991 0.42898 0.76344
 C1212 C 0.88161 0.40677 0.77936
 C1213 C 0.90631 0.41024 0.80761
 C1214 C 0.92921 0.38770 0.78737
 H1215 H 0.87676 0.40682 0.68121
 H1216 H 0.83898 0.44229 0.71426
 H1217 H 0.89723 0.39897 0.83173
 H1218 H 0.91621 0.43566 0.80992
 H1219 H 0.93295 0.36338 0.79976
 H1220 H 0.95249 0.40005 0.77883
 C1221 C 0.08945 0.60498 0.76444
 C1222 C 0.08760 0.60438 0.72889
 C1223 C 0.11223 0.58638 0.71138
 C1224 C 0.13442 0.56569 0.72940
 C1225 C 0.13208 0.56256 0.76517
 C1226 C 0.11082 0.58440 0.78202
 C1227 C 0.08710 0.58052 0.81109
 C1228 C 0.06364 0.60355 0.79190
 H1229 H 0.11290 0.58671 0.68381
 H1230 H 0.15147 0.55034 0.71517
 H1231 H 0.09706 0.59129 0.83499
 H1232 H 0.07713 0.55511 0.81348
 H1233 H 0.06045 0.62765 0.80467
 H1234 H 0.04002 0.59145 0.78410
 C1235 C 0.12060 0.40449 0.28182
 C1236 C 0.09169 0.39072 0.26777
 C1237 C 0.08648 0.39471 0.23252
 C1238 C 0.10729 0.41555 0.21322
 C1239 C 0.13376 0.43284 0.22880
 C1240 C 0.14117 0.42510 0.26278
 C1241 C 0.14715 0.44721 0.29241
 C1242 C 0.12470 0.42457 0.31320
 H1243 H 0.06512 0.38333 0.22040
 H1244 H 0.10138 0.41959 0.18662
 H1245 H 0.13647 0.47215 0.28854
 H1246 H 0.17365 0.44675 0.30088
 H1247 H 0.10098 0.43635 0.32139
 H1248 H 0.13829 0.41100 0.33353
   
