data_POSCAR
  _audit_creation_date              2014-09-24
  _audit_creation_method            'ToBaCCo'
  _symmetry_space_group_name_H-M    'P1'
  _symmetry_Int_Tables_number       1
  _symmetry_cell_setting            triclinic
  loop_
  _symmetry_equiv_pos_as_xyz
 x,y,z
_cell_length_a 47.8268
_cell_length_b 48.2637
_cell_length_c 48.8889
_cell_angle_alpha 89.681600
_cell_angle_beta 89.993600
_cell_angle_gamma 90.016500
loop_
  _atom_site_label
  _atom_site_type_symbol
  _atom_site_fract_x
  _atom_site_fract_y
  _atom_site_fract_z
C1 C 0.36321 1.34233 0.33402
 C2 C 0.35344 1.32117 0.35133
 C3 C 0.32566 1.32070 0.35880
 C4 C 0.30742 1.34109 0.34938
 C5 C 0.31703 1.36283 0.33341
 C6 C 0.34517 1.36287 0.32473
 C7 C 0.38880 1.34696 0.32221
 N8 N 0.38672 1.36902 0.30493
 C9 C 0.36014 1.37907 0.30650
 C10 C 0.29484 1.38115 0.33064
 N11 N 0.27218 1.36998 0.34352
 C12 C 0.27975 1.34534 0.35460
 C13 C 0.32191 1.29919 0.37680
 N14 N 0.34674 1.28626 0.38030
 C15 C 0.36623 1.29922 0.36457
 H16 H 0.40700 1.33387 0.32469
 H17 H 0.35206 1.39640 0.29479
 H18 H 0.29520 1.40104 0.32030
 H19 H 0.26664 1.33240 0.36746
 H20 H 0.30259 1.29362 0.38699
 H21 H 0.38818 1.29382 0.36378
 C22 C 0.35137 0.82860 0.81861
 C23 C 0.33726 0.80635 0.83095
 C24 C 0.30981 0.80940 0.83894
 C25 C 0.29629 0.83481 0.83538
 C26 C 0.31043 0.85737 0.82455
 C27 C 0.33809 0.85395 0.81515
 C28 C 0.37747 0.83068 0.80706
 N29 N 0.38020 0.85629 0.79585
 C30 C 0.35638 0.87083 0.80087
 C31 C 0.29261 0.87992 0.82676
 N32 N 0.26797 0.87097 0.83768
 C33 C 0.27009 0.84338 0.84261
 C34 C 0.30180 0.78527 0.85178
 N35 N 0.32389 0.76767 0.85205
 C36 C 0.34562 0.78024 0.83902
 H37 H 0.39265 0.81414 0.80536
 H38 H 0.35226 0.89169 0.79370
 H39 H 0.29726 0.90112 0.82100
 H40 H 0.25439 0.83066 0.85254
 H41 H 0.28186 0.78151 0.86157
 H42 H 0.36634 0.77159 0.83667
 C43 C 0.86095 1.34223 0.83001
 C44 C 0.85043 1.32142 0.84725
 C45 C 0.82298 1.32250 0.85557
 C46 C 0.80583 1.34419 0.84720
 C47 C 0.81617 1.36565 0.83125
 C48 C 0.84400 1.36401 0.82148
 C49 C 0.88637 1.34513 0.81745
 N50 N 0.88531 1.36729 0.80026
 C51 C 0.85953 1.37918 0.80268
 C52 C 0.79488 1.38526 0.82972
 N53 N 0.77210 1.37504 0.84326
 C54 C 0.77871 1.34982 0.85353
 C55 C 0.81833 1.30073 0.87302
 N56 N 0.84235 1.28614 0.87539
 C57 C 0.86215 1.29832 0.85945
 H58 H 0.90360 1.33070 0.81926
 H59 H 0.85232 1.39701 0.79117
 H60 H 0.79589 1.40528 0.81968
 H61 H 0.76536 1.33729 0.86655
 H62 H 0.79897 1.29604 0.88355
 H63 H 0.88365 1.29152 0.85774
 C64 C 0.86774 0.83776 0.32901
 C65 C 0.85818 0.82223 0.35139
 C66 C 0.83930 0.83362 0.36952
 C67 C 0.82972 0.86082 0.36545
 C68 C 0.83925 0.87622 0.34335
 C69 C 0.85835 0.86453 0.32491
 C70 C 0.88599 0.83172 0.30821
 N71 N 0.88793 0.85414 0.29136
 C72 C 0.87104 0.87435 0.30147
 C73 C 0.82636 0.90169 0.34448
 N74 N 0.80915 0.90204 0.36659
 C75 C 0.81110 0.87714 0.37954
 C76 C 0.83389 0.81383 0.38923
 N77 N 0.84908 0.79079 0.38342
 C78 C 0.86395 0.79577 0.36026
 H79 H 0.89688 0.81226 0.30570
 H80 H 0.86812 0.89472 0.29255
 H81 H 0.82894 0.91849 0.32994
 H82 H 0.79971 0.87124 0.39780
 H83 H 0.81997 0.81615 0.40651
 H84 H 0.87813 0.78133 0.35064
 C85 C 0.63672 0.66815 0.32954
 C86 C 0.64452 0.68284 0.35288
 C87 C 0.66177 0.67074 0.37217
 C88 C 0.67150 0.64360 0.36827
 C89 C 0.66357 0.62897 0.34522
 C90 C 0.64607 0.64139 0.32564
 C91 C 0.62062 0.67526 0.30741
 N92 N 0.61982 0.65346 0.28995
 C93 C 0.63537 0.63257 0.30098
 C94 C 0.67650 0.60353 0.34655
 N95 N 0.69221 0.60248 0.36968
 C96 C 0.68926 0.62687 0.38310
 C97 C 0.66578 0.68995 0.39253
 N98 N 0.65130 0.71329 0.38593
 C99 C 0.63831 0.70908 0.36165
 H100 H 0.61039 0.69503 0.30442
 H101 H 0.63888 0.61253 0.29177
 H102 H 0.67520 0.58733 0.33138
 H103 H 0.69952 0.63218 0.40210
 H104 H 0.67824 0.68703 0.41078
 H105 H 0.62512 0.72392 0.35117
 C106 C 0.64219 0.16465 0.83493
 C107 C 0.64382 0.17760 0.86039
 C108 C 0.65602 0.16405 0.88219
 C109 C 0.66726 0.13749 0.87865
 C110 C 0.66712 0.12510 0.85310
 C111 C 0.65348 0.13853 0.83111
 C112 C 0.62839 0.17203 0.81151
 N113 N 0.62993 0.15079 0.79347
 C114 C 0.64565 0.13028 0.80512
 C115 C 0.68100 0.10002 0.85590
 N116 N 0.68815 0.09667 0.88266
 C117 C 0.67951 0.11931 0.89666
 C118 C 0.65458 0.18158 0.90430
 N119 N 0.64185 0.20547 0.89627
 C120 C 0.63494 0.20305 0.86947
 H121 H 0.61641 0.19085 0.80885
 H122 H 0.64985 0.11029 0.79609
 H123 H 0.68476 0.08501 0.83994
 H124 H 0.68284 0.12280 0.91828
 H125 H 0.66273 0.17737 0.92454
 H126 H 0.62469 0.21884 0.85726
 C127 C 1.14613 0.66710 0.82678
 C128 C 1.14897 0.68155 0.85143
 C129 C 1.16122 0.66874 0.87366
 C130 C 1.17121 0.64155 0.87148
 C131 C 1.16999 0.62770 0.84674
 C132 C 1.15648 0.64038 0.82428
 C133 C 1.13210 0.67340 0.80308
 N134 N 1.13298 0.65113 0.78624
 C135 C 1.14813 0.63088 0.79889
 C136 C 1.18242 0.60205 0.85087
 N137 N 1.18973 0.59989 0.87770
 C138 C 1.18266 0.62380 0.89040
 C139 C 1.16127 0.68748 0.89478
 N140 N 1.14946 0.71150 0.88588
 C141 C 1.14155 0.70795 0.85942
 H142 H 1.12068 0.69235 0.79923
 H143 H 1.15153 0.61028 0.79093
 H144 H 1.18479 0.58580 0.83587
 H145 H 1.18624 0.62824 0.91182
 H146 H 1.16983 0.68391 0.91497
 H147 H 1.13169 0.72355 0.84671
 C148 C 1.12488 0.14697 0.33680
 C149 C 1.13861 0.16803 0.35172
 C150 C 1.15979 0.16091 0.36997
 C151 C 1.16727 0.13303 0.37394
 C152 C 1.15270 0.11265 0.36050
 C153 C 1.13141 0.11957 0.34226
 C154 C 1.10612 0.14663 0.31503
 N155 N 1.10092 0.11970 0.30824
 C156 C 1.11609 0.10327 0.32518
 C157 C 1.16523 0.08776 0.36628
 N158 N 1.18765 0.09234 0.38266
 C159 C 1.18884 0.12006 0.38783
 C160 C 1.16934 0.18491 0.38166
 N161 N 1.15419 0.20652 0.37179
 C162 C 1.13547 0.19654 0.35327
 H163 H 1.09739 0.16454 0.30469
 H164 H 1.11780 0.08095 0.32384
 H165 H 1.15924 0.06806 0.35762
 H166 H 1.20490 0.13029 0.39964
 H167 H 1.18530 0.18633 0.39729
 H168 H 1.12031 0.20897 0.34227
 C169 C 0.63511 1.35616 0.67658
 C170 C 0.62315 1.33844 0.65711
 C171 C 0.63859 1.33043 0.63455
 C172 C 0.66596 1.34005 0.63099
 C173 C 0.67775 1.35751 0.65005
 C174 C 0.66222 1.36556 0.67302
 C175 C 0.62547 1.36698 0.70088
 N176 N 0.64610 1.38271 0.71209
 C177 C 0.66861 1.38185 0.69508
 C178 C 0.70459 1.36322 0.64143
 N179 N 0.70924 1.34962 0.61759
 C180 C 0.68570 1.33535 0.61113
 C181 C 0.62250 1.31231 0.61979
 N182 N 0.59763 1.30908 0.63277
 C183 C 0.59774 1.32506 0.65558
 H184 H 0.60499 1.36349 0.70970
 H185 H 0.68838 1.39221 0.69831
 H186 H 0.71953 1.37636 0.65173
 H187 H 0.68297 1.32246 0.59331
 H188 H 0.62869 1.30180 0.60124
 H189 H 0.58103 1.32609 0.67048
 C190 C 0.63639 0.86402 1.16902
 C191 C 0.62485 0.84514 1.15031
 C192 C 0.64062 0.83618 1.12829
 C193 C 0.66792 0.84601 1.12451
 C194 C 0.67916 0.86463 1.14279
 C195 C 0.66333 0.87365 1.16508
 C196 C 0.62661 0.87596 1.19280
 N197 N 0.64705 0.89256 1.20317
 C198 C 0.66948 0.89121 1.18616
 C199 C 0.70596 0.87043 1.13435
 N200 N 0.71123 0.85581 1.11129
 C201 C 0.68808 0.84076 1.10513
 C202 C 0.62468 0.81752 1.11399
 N203 N 0.59956 0.81494 1.12664
 C204 C 0.59941 0.83179 1.14884
 H205 H 0.60623 0.87261 1.20187
 H206 H 0.68918 0.90187 1.18886
 H207 H 0.72048 0.88434 1.14427
 H208 H 0.68599 0.82690 1.08793
 H209 H 0.63099 0.80653 1.09577
 H210 H 0.58234 0.83380 1.16320
 C211 C 1.12957 1.35964 1.16242
 C212 C 1.13109 1.33331 1.15046
 C213 C 1.15076 1.32810 1.13018
 C214 C 1.16844 1.34946 1.12085
 C215 C 1.16511 1.37581 1.13119
 C216 C 1.14635 1.38071 1.15249
 C217 C 1.11799 1.36892 1.18662
 N218 N 1.12813 1.39471 1.19162
 C219 C 1.14487 1.40223 1.17051
 C220 C 1.18493 1.39247 1.11944
 N221 N 1.20111 1.37689 1.10275
 C222 C 1.19148 1.35034 1.10364
 C223 C 1.14813 1.30066 1.12320
 N224 N 1.12703 1.28945 1.13819
 C225 C 1.11666 1.30905 1.15512
 H226 H 1.10603 1.35661 1.20104
 H227 H 1.15750 1.42083 1.16971
 H228 H 1.18853 1.41403 1.12434
 H229 H 1.20056 1.33306 1.09277
 H230 H 1.15989 1.28987 1.10762
 H231 H 1.09967 1.30592 1.16946
 C232 C 1.13527 0.86064 0.66496
 C233 C 1.12528 0.84002 0.64735
 C234 C 1.14237 0.82974 0.62689
 C235 C 1.16961 0.84009 0.62366
 C236 C 1.17921 0.86066 0.64079
 C237 C 1.16203 0.87087 0.66152
 C238 C 1.12415 0.87348 0.68764
 N239 N 1.14366 0.89114 0.69780
 C240 C 1.16682 0.88966 0.68187
 C241 C 1.20647 0.86617 0.63385
 N242 N 1.21379 0.84931 0.61297
 C243 C 1.19140 0.83326 0.60654
 C244 C 1.12765 0.80926 0.61372
 N245 N 1.10206 0.80698 0.62559
 C246 C 1.10046 0.82569 0.64618
 H247 H 1.10365 0.86987 0.69633
 H248 H 1.18612 0.90086 0.68513
 H249 H 1.22018 0.88084 0.64380
 H250 H 1.19101 0.81758 0.59082
 H251 H 1.13511 0.79686 0.59687
 H252 H 1.08279 0.82837 0.65972
 C253 C 0.36833 0.63984 0.66718
 C254 C 0.38081 0.65866 0.64894
 C255 C 0.36672 0.66689 0.62551
 C256 C 0.34000 0.65618 0.61992
 C257 C 0.32779 0.63768 0.63799
 C258 C 0.34201 0.62948 0.66169
 C259 C 0.37661 0.62890 0.69195
 N260 N 0.35590 0.61216 0.70151
 C261 C 0.33468 0.61240 0.68308
 C262 C 0.30173 0.63129 0.62808
 N263 N 0.29770 0.64531 0.60422
 C264 C 0.32107 0.66062 0.59907
 C265 C 0.38323 0.68627 0.61250
 N266 N 0.40693 0.68989 0.62741
 C267 C 0.40565 0.67301 0.64967
 H268 H 0.39611 0.63308 0.70237
 H269 H 0.31518 0.60120 0.68507
 H270 H 0.28690 0.61736 0.63766
 H271 H 0.32414 0.67427 0.58171
 H272 H 0.37813 0.69728 0.59381
 H273 H 0.42115 0.67191 0.66576
 C274 C 0.36602 0.14482 1.17206
 C275 C 0.37814 0.16382 1.15388
 C276 C 0.36327 0.17298 1.13135
 C277 C 0.33616 0.16311 1.12658
 C278 C 0.32416 0.14427 1.14445
 C279 C 0.33923 0.13507 1.16744
 C280 C 0.37527 0.13333 1.19618
 N281 N 0.35479 0.11678 1.20636
 C282 C 0.33267 0.11768 1.18891
 C283 C 0.29755 0.13894 1.13499
 N284 N 0.29321 0.15406 1.11176
 C285 C 0.31680 0.16893 1.10660
 C286 C 0.37946 0.19251 1.11829
 N287 N 0.40375 0.19539 1.13239
 C288 C 0.40319 0.17781 1.15413
 H289 H 0.39532 0.13705 1.20572
 H290 H 0.31307 0.10683 1.19171
 H291 H 0.28256 0.12509 1.14446
 H292 H 0.31987 0.18312 1.08966
 H293 H 0.37365 0.20428 1.10026
 H294 H 0.41925 0.17614 1.16964
 C295 C 0.86740 0.64577 1.17013
 C296 C 0.87896 0.66571 1.15245
 C297 C 0.86344 0.67577 1.13064
 C298 C 0.83620 0.66598 1.12616
 C299 C 0.82494 0.64630 1.14358
 C300 C 0.84060 0.63615 1.16560
 C301 C 0.87727 0.63250 1.19321
 N302 N 0.85706 0.61507 1.20259
 C303 C 0.83459 0.61720 1.18577
 C304 C 0.79838 0.64060 1.13460
 N305 N 0.79317 0.65628 1.11205
 C306 C 0.81620 0.67192 1.10671
 C307 C 0.87962 0.69517 1.11735
 N308 N 0.90456 0.69708 1.13050
 C309 C 0.90436 0.67910 1.15197
 H310 H 0.89760 0.63539 1.20249
 H311 H 0.81511 0.60603 1.18808
 H312 H 0.78400 0.62594 1.14377
 H313 H 0.81834 0.68652 1.08997
 H314 H 0.87359 0.70711 1.09950
 H315 H 0.92120 0.67630 1.16651
 C316 C 0.88112 0.12582 0.65538
 C317 C 0.88884 0.14796 0.63863
 C318 C 0.86871 0.16399 0.62616
 C319 C 0.84039 0.15759 0.62984
 C320 C 0.83245 0.13576 0.64679
 C321 C 0.85324 0.12019 0.66061
 C322 C 0.89705 0.10898 0.67152
 N323 N 0.87996 0.09377 0.68778
 C324 C 0.85296 0.10044 0.68143
 C325 C 0.80356 0.13417 0.64529
 N326 N 0.79422 0.15443 0.62802
 C327 C 0.81658 0.16908 0.61899
 C328 C 0.88227 0.18605 0.61407
 N329 N 0.91008 0.18388 0.61954
 C330 C 0.91425 0.16039 0.63426
 H331 H 0.91962 0.10979 0.67302
 H332 H 0.83465 0.09218 0.69163
 H333 H 0.79043 0.11889 0.65528
 H334 H 0.81579 0.18597 0.60433
 H335 H 0.87237 0.20336 0.60378
 H336 H 0.93402 0.15370 0.64278
 C337 C 1.33860 0.35284 0.68658
 C338 C 1.31189 0.35599 0.67500
 C339 C 1.30052 0.33451 0.66011
 C340 C 1.31568 0.31033 0.65569
 C341 C 1.34237 0.30745 0.66598
 C342 C 1.35386 0.32884 0.68186
 C343 C 1.35422 0.36917 0.70382
 N344 N 1.37849 0.35575 0.70951
 C345 C 1.37863 0.33128 0.69594
 C346 C 1.35222 0.28212 0.65707
 N347 N 1.33187 0.26982 0.64182
 C348 C 1.30946 0.28704 0.64113
 C349 C 1.27484 0.34276 0.65089
 N350 N 1.27041 0.36901 0.65928
 C351 C 1.29284 0.37753 0.67406
 H352 H 1.34816 0.38905 0.71209
 H353 H 1.39499 0.31583 0.69723
 H354 H 1.37266 0.27348 0.66126
 H355 H 1.29018 0.28353 0.63012
 H356 H 1.26083 0.33099 0.63799
 H357 H 1.29525 0.39789 0.68292
 C358 C 1.35514 0.86627 1.17155
 C359 C 1.33745 0.87845 1.15204
 C360 C 1.32907 0.86348 1.12942
 C361 C 1.33849 0.83623 1.12585
 C362 C 1.35603 0.82426 1.14501
 C363 C 1.36435 0.83938 1.16802
 C364 C 1.36657 0.87580 1.19559
 N365 N 1.38258 0.85533 1.20669
 C366 C 1.38126 0.83298 1.18988
 C367 C 1.36196 0.79785 1.13622
 N368 N 1.34849 0.79350 1.11211
 C369 C 1.33401 0.81694 1.10572
 C370 C 1.31152 0.88020 1.11434
 N371 N 1.30918 0.90495 1.12721
 C372 C 1.32502 0.90411 1.15025
 H373 H 1.36350 0.89619 1.20417
 H374 H 1.39184 0.81342 1.19303
 H375 H 1.37531 0.78307 1.14662
 H376 H 1.32117 0.82001 1.08774
 H377 H 1.30107 0.87466 1.09551
 H378 H 1.32686 0.92065 1.16499
 C379 C 0.85438 0.36263 1.17244
 C380 C 0.83773 0.37540 1.15245
 C381 C 0.83032 0.36104 1.12910
 C382 C 0.83986 0.33382 1.12528
 C383 C 0.85634 0.32133 1.14500
 C384 C 0.86348 0.33576 1.16874
 C385 C 0.86446 0.37133 1.19734
 N386 N 0.87940 0.35028 1.20881
 C387 C 0.87882 0.32845 1.19136
 C388 C 0.86266 0.29512 1.13607
 N389 N 0.85053 0.29130 1.11124
 C390 C 0.83640 0.31490 1.10456
 C391 C 0.81304 0.37808 1.11404
 N392 N 0.80993 0.40234 1.12766
 C393 C 0.82508 0.40095 1.15109
 H394 H 0.86102 0.39147 1.20636
 H395 H 0.88890 0.30864 1.19458
 H396 H 0.87539 0.28012 1.14689
 H397 H 0.82459 0.31834 1.08598
 H398 H 0.80304 0.37298 1.09485
 H399 H 0.82595 0.41689 1.16656
 C400 C 0.84504 0.85668 0.68014
 C401 C 0.81859 0.85948 0.66811
 C402 C 0.80973 0.84024 0.64916
 C403 C 0.82726 0.81853 0.64145
 C404 C 0.85344 0.81570 0.65309
 C405 C 0.86244 0.83503 0.67258
 C406 C 0.85901 0.87201 0.69940
 N407 N 0.88448 0.86038 0.70348
 C408 C 0.88689 0.83789 0.68710
 C409 C 0.86589 0.79302 0.64103
 N410 N 0.84789 0.78265 0.62218
 C411 C 0.82427 0.79810 0.62235
 C412 C 0.78362 0.84795 0.64051
 N413 N 0.77658 0.87166 0.65342
 C414 C 0.79777 0.87913 0.67027
 H415 H 0.85131 0.89035 0.70961
 H416 H 0.90490 0.82434 0.68618
 H417 H 0.88672 0.78518 0.64501
 H418 H 0.80625 0.79482 0.60937
 H419 H 0.77098 0.83763 0.62526
 H420 H 0.79806 0.89753 0.68283
 C421 C 0.64588 0.63829 0.67316
 C422 C 0.66493 0.62700 0.65455
 C423 C 0.67505 0.64298 0.63314
 C424 C 0.66595 0.67049 0.62992
 C425 C 0.64683 0.68144 0.64813
 C426 C 0.63688 0.66530 0.66993
 C427 C 0.63348 0.62793 0.69646
 N428 N 0.61721 0.64808 0.70740
 C429 C 0.61913 0.67098 0.69125
 C430 C 0.64186 0.70841 0.64038
 N431 N 0.65761 0.71420 0.61799
 C432 C 0.67249 0.69117 0.61145
 C433 C 0.69388 0.62686 0.61904
 N434 N 0.69524 0.60156 0.63136
 C435 C 0.67756 0.60150 0.65307
 H436 H 0.63629 0.60735 0.70491
 H437 H 0.60873 0.69052 0.69484
 H438 H 0.62812 0.72288 0.65057
 H439 H 0.68692 0.68951 0.59449
 H440 H 0.70584 0.63316 0.60128
 H441 H 0.67453 0.58440 0.66717
 C442 C 0.62916 1.12537 1.15753
 C443 C 0.65204 1.11851 1.14137
 C444 C 0.66740 1.13889 1.12857
 C445 C 0.65912 1.16674 1.13109
 C446 C 0.63627 1.17380 1.14721
 C447 C 0.62183 1.15274 1.16177
 C448 C 0.61298 1.10902 1.17390
 N449 N 0.59662 1.12541 1.18954
 C450 C 0.60182 1.15236 1.18247
 C451 C 0.63249 1.20218 1.14413
 N452 N 0.65255 1.21226 1.12685
 C453 C 0.66918 1.19068 1.11944
 C454 C 0.69020 1.12591 1.11680
 N455 N 0.68888 1.09832 1.12275
 C456 C 0.66539 1.09373 1.13754
 H457 H 0.61505 1.08678 1.17607
 H458 H 0.59238 1.17023 1.19206
 H459 H 0.61603 1.21437 1.15333
 H460 H 0.68648 1.19176 1.10521
 H461 H 0.70717 1.13602 1.10603
 H462 H 0.65903 1.07403 1.14616
 C463 C 0.15270 0.64521 1.17695
 C464 C 0.17060 0.63297 1.15782
 C465 C 0.17915 0.64790 1.13504
 C466 C 0.17006 0.67528 1.13121
 C467 C 0.15248 0.68742 1.15012
 C468 C 0.14369 0.67221 1.17317
 C469 C 0.14007 0.63515 1.20025
 N470 N 0.12348 0.65534 1.21078
 C471 C 0.12570 0.67811 1.19433
 C472 C 0.14649 0.71376 1.14063
 N473 N 0.16003 0.71784 1.11641
 C474 C 0.17448 0.69430 1.11061
 C475 C 0.19530 0.63050 1.11940
 N476 N 0.19680 0.60561 1.13229
 C477 C 0.18179 0.60676 1.15574
 H478 H 0.14247 0.61445 1.20852
 H479 H 0.11471 0.69748 1.19707
 H480 H 0.13301 0.72863 1.15057
 H481 H 0.18717 0.69089 1.09263
 H482 H 0.20488 0.63536 1.09989
 H483 H 0.17876 0.58963 1.16982
 C484 C 0.12701 1.11978 0.65310
 C485 C 0.15007 1.11238 0.63735
 C486 C 0.16557 1.13241 0.62417
 C487 C 0.15754 1.16032 0.62601
 C488 C 0.13465 1.16793 0.64176
 C489 C 0.11982 1.14733 0.65653
 C490 C 0.11022 1.10401 0.66949
 N491 N 0.09360 1.12100 0.68426
 C492 C 0.09929 1.14769 0.67668
 C493 C 0.13128 1.19627 0.63815
 N494 N 0.15161 1.20576 0.62085
 C495 C 0.16800 1.18386 0.61396
 C496 C 0.18834 1.11922 0.61275
 N497 N 0.18698 1.09178 0.61924
 C498 C 0.16343 1.08747 0.63407
 H499 H 0.11187 1.08178 0.67219
 H500 H 0.08970 1.16589 0.68548
 H501 H 0.11490 1.20883 0.64700
 H502 H 0.18544 1.18444 0.59987
 H503 H 0.20533 1.12912 0.60182
 H504 H 0.15711 1.06794 0.64309
 C505 C 1.35202 0.63470 0.33938
 C506 C 1.33039 0.64151 0.35737
 C507 C 1.32641 0.66865 0.36527
 C508 C 1.34513 0.68916 0.35617
 C509 C 1.36738 0.68224 0.33929
 C510 C 1.36999 0.65492 0.32967
 C511 C 1.35858 0.61038 0.32659
 N512 N 1.37917 0.61537 0.30809
 C513 C 1.38657 0.64257 0.30999
 C514 C 1.38414 0.70548 0.33706
 N515 N 1.37207 0.72635 0.35145
 C516 C 1.34792 0.71667 0.36263
 C517 C 1.30372 0.66890 0.38284
 N518 N 1.29435 0.64249 0.38575
 C519 C 1.31048 0.62566 0.37026
 H520 H 1.34729 0.59108 0.32896
 H521 H 1.40209 0.65284 0.29739
 H522 H 1.40392 0.70690 0.32637
 H523 H 1.33459 0.72803 0.37652
 H524 H 1.29526 0.68670 0.39337
 H525 H 1.30803 0.60342 0.36873
 C526 C 1.34931 1.12988 0.83686
 C527 C 1.32861 1.14345 0.85229
 C528 C 1.33615 1.16467 0.86979
 C529 C 1.36425 1.17235 0.87253
 C530 C 1.38459 1.15854 0.85798
 C531 C 1.37714 1.13722 0.84007
 C532 C 1.34846 1.10940 0.81720
 N533 N 1.37506 1.10418 0.80895
 C534 C 1.39270 1.12090 0.82289
 C535 C 1.40981 1.17067 0.86416
 N536 N 1.40526 1.19179 0.88193
 C537 C 1.37736 1.19280 0.88729
 C538 C 1.31224 1.17402 0.88224
 N539 N 1.29033 1.15877 0.87318
 C540 C 1.30005 1.14004 0.85480
 H541 H 1.33000 1.09907 0.80950
 H542 H 1.41517 1.12148 0.82025
 H543 H 1.42979 1.16494 0.85550
 H544 H 1.36716 1.20759 0.90052
 H545 H 1.31106 1.19010 0.89754
 H546 H 1.28735 1.12486 0.84432
 C547 C 0.84312 0.63209 0.83189
 C548 C 0.82547 0.64276 0.85219
 C549 C 0.83460 0.66427 0.86855
 C550 C 0.86168 0.67504 0.86512
 C551 C 0.87898 0.66439 0.84510
 C552 C 0.86958 0.64305 0.82821
 C553 C 0.83982 0.61152 0.81282
 N554 N 0.86352 0.61002 0.79759
 C555 C 0.88184 0.62926 0.80678
 C556 C 0.90394 0.67834 0.84640
 N557 N 0.90234 0.69729 0.86673
 C558 C 0.87651 0.69555 0.87825
 C559 C 0.81287 0.67100 0.88574
 N560 N 0.79087 0.65408 0.88024
 C561 C 0.79843 0.63664 0.85984
 H562 H 0.82141 0.59880 0.81002
 H563 H 0.90263 0.63272 0.79868
 H564 H 0.92188 0.67492 0.83338
 H565 H 0.86912 0.70806 0.89508
 H566 H 0.81306 0.68713 0.90102
 H567 H 0.78504 0.62112 0.85078
 C568 C 0.84939 1.12395 0.34069
 C569 C 0.83216 1.13465 0.36130
 C570 C 0.84277 1.15363 0.37962
 C571 C 0.87081 1.16182 0.37781
 C572 C 0.88784 1.15134 0.35743
 C573 C 0.87699 1.13236 0.33856
 C574 C 0.84406 1.10673 0.31908
 N575 N 0.86759 1.10460 0.30369
 C576 C 0.88793 1.12015 0.31544
 C577 C 0.91328 1.16452 0.35953
 N578 N 0.91197 1.18269 0.38060
 C579 C 0.88611 1.18111 0.39191
 C580 C 0.82100 1.16211 0.39598
 N581 N 0.79749 1.14854 0.38812
 C582 C 0.80411 1.13163 0.36698
 H583 H 0.82414 1.09723 0.31445
 H584 H 0.90895 1.12270 0.30761
 H585 H 0.93092 1.16195 0.34591
 H586 H 0.87867 1.19360 0.40873
 H587 H 0.82216 1.17725 0.41220
 H588 H 0.78943 1.11877 0.35596
 C589 C 0.65729 0.37831 0.34104
 C590 C 0.67334 0.36804 0.36276
 C591 C 0.66271 0.34760 0.37960
 C592 C 0.63581 0.33724 0.37502
 C593 C 0.61978 0.34734 0.35358
 C594 C 0.63073 0.36805 0.33624
 C595 C 0.66324 0.39714 0.32080
 N596 N 0.64111 0.39863 0.30341
 C597 C 0.62101 0.38094 0.31277
 C598 C 0.59509 0.33253 0.35374
 N599 N 0.59604 0.31378 0.37461
 C600 C 0.62088 0.31659 0.38767
 C601 C 0.68325 0.34067 0.39809
 N602 N 0.70610 0.35650 0.39281
 C603 C 0.70022 0.37331 0.37121
 H604 H 0.68275 0.40829 0.31871
 H605 H 0.60101 0.37725 0.30308
 H606 H 0.57805 0.33482 0.33934
 H607 H 0.62781 0.30425 0.40493
 H608 H 0.68179 0.32485 0.41379
 H609 H 0.71452 0.38806 0.36205
 C610 C 0.66092 0.87141 0.83647
 C611 C 0.67653 0.86135 0.85850
 C612 C 0.66542 0.84150 0.87586
 C613 C 0.63822 0.83147 0.87119
 C614 C 0.62279 0.84159 0.84934
 C615 C 0.63426 0.86159 0.83184
 C616 C 0.66717 0.88975 0.81585
 N617 N 0.64493 0.89120 0.79870
 C618 C 0.62463 0.87407 0.80832
 C619 C 0.59775 0.82771 0.84898
 N620 N 0.59752 0.80928 0.86999
 C621 C 0.62216 0.81140 0.88373
 C622 C 0.68580 0.83533 0.89494
 N623 N 0.70877 0.85101 0.88934
 C624 C 0.70320 0.86690 0.86706
 H625 H 0.68675 0.90068 0.81328
 H626 H 0.60457 0.87055 0.79872
 H627 H 0.58130 0.83034 0.83401
 H628 H 0.62818 0.79899 0.90126
 H629 H 0.68404 0.82042 0.91146
 H630 H 0.71748 0.88151 0.85766
 C631 C 0.15682 0.37571 0.83788
 C632 C 0.17176 0.36633 0.86070
 C633 C 0.16004 0.34705 0.87825
 C634 C 0.13296 0.33712 0.87325
 C635 C 0.11809 0.34654 0.85073
 C636 C 0.13022 0.36588 0.83279
 C637 C 0.16407 0.39285 0.81658
 N638 N 0.14257 0.39365 0.79842
 C639 C 0.12167 0.37723 0.80826
 C640 C 0.09321 0.33225 0.85015
 N641 N 0.09271 0.31433 0.87164
 C642 C 0.11692 0.31718 0.88588
 C643 C 0.18002 0.34052 0.89754
 N644 N 0.20344 0.35550 0.89203
 C645 C 0.19852 0.37134 0.86953
 H646 H 0.18396 0.40327 0.81433
 H647 H 0.10197 0.37324 0.79814
 H648 H 0.07718 0.33404 0.83462
 H649 H 0.12276 0.30519 0.90376
 H650 H 0.17774 0.32570 0.91408
 H651 H 0.21351 0.38500 0.85981
 C652 C 0.16758 0.86761 0.32886
 C653 C 0.18304 0.85778 0.35122
 C654 C 0.17172 0.83802 0.36851
 C655 C 0.14473 0.82780 0.36363
 C656 C 0.12941 0.83754 0.34156
 C657 C 0.14099 0.85758 0.32395
 C658 C 0.17361 0.88658 0.30869
 N659 N 0.15138 0.88838 0.29143
 C660 C 0.13129 0.87064 0.30066
 C661 C 0.10416 0.82383 0.34185
 N662 N 0.10390 0.80598 0.36345
 C663 C 0.12863 0.80831 0.37688
 C664 C 0.19133 0.83246 0.38841
 N665 N 0.21425 0.84840 0.38354
 C666 C 0.20934 0.86393 0.36079
 H667 H 0.19300 0.89796 0.30680
 H668 H 0.11113 0.86731 0.29119
 H669 H 0.08744 0.82638 0.32715
 H670 H 0.13454 0.79665 0.39494
 H671 H 0.18895 0.81796 0.40521
 H672 H 0.22372 0.87880 0.35194
 O673 O 0.99658 0.90184 0.86190
 O674 O 1.00365 0.87086 0.82964
 C675 C 0.98923 0.89051 0.83968
 C676 C 0.96343 0.89984 0.82560
 C677 C 0.95723 0.89009 0.79936
 H678 H 0.97172 0.87607 0.78965
 O679 O 1.00353 1.10594 0.85655
 O680 O 0.99494 1.13745 0.82477
 C681 C 1.00986 1.11783 0.83415
 C682 C 1.03502 1.10873 0.81927
 C683 C 1.03828 1.11422 0.79119
 H684 H 1.02203 1.12505 0.77998
 O685 O 0.86975 0.94670 0.90099
 O686 O 0.83674 0.93866 0.87055
 C687 C 0.84928 0.93231 0.89266
 C688 C 0.84044 0.90783 0.90889
 C689 C 0.81396 0.89579 0.90522
 H690 H 0.79969 0.90501 0.89062
 O691 O 1.13029 1.06121 0.89434
 O692 O 1.16193 1.06823 0.86224
 C693 C 1.15056 1.07510 0.88468
 C694 C 1.16026 1.09990 0.89950
 C695 C 1.18485 1.11377 0.89174
 H696 H 1.19719 1.10580 0.87499
 O697 O 0.93690 0.84669 0.97176
 O698 O 0.91202 0.80822 0.97242
 C699 C 0.93170 0.82275 0.96242
 C700 C 0.94802 0.81226 0.93898
 C701 C 0.94190 0.78633 0.92754
 H702 H 0.92608 0.77327 0.93684
 O703 O 1.06724 1.15831 0.96828
 O704 O 1.09143 1.19718 0.96758
 C705 C 1.07136 1.18247 0.95872
 C706 C 1.05344 1.19311 0.93625
 C707 C 1.05745 1.22002 0.92595
 H708 H 1.07248 1.23348 0.93574
 O709 O 0.89329 1.00705 0.86155
 O710 O 0.86148 0.99882 0.82993
 C711 C 0.88155 1.01335 0.83909
 C712 C 0.89167 1.03779 0.82368
 C713 C 0.88634 1.04072 0.79554
 H714 H 0.87460 1.02497 0.78477
 O715 O 1.10255 1.00158 0.85722
 O716 O 1.13359 1.00881 0.82454
 C717 C 1.11367 0.99466 0.83471
 C718 C 1.10449 0.96912 0.82088
 C719 C 1.11667 0.96157 0.79600
 H720 H 1.13086 0.97582 0.78597
 O721 O 1.05888 0.87622 0.89786
 O722 O 1.06540 0.84405 0.86663
 C723 C 1.07257 0.85568 0.88881
 C724 C 1.09693 0.84542 0.90454
 C725 C 1.10730 0.81842 0.90090
 H726 H 1.09731 0.80489 0.88626
 O727 O 0.94350 1.12961 0.89637
 O728 O 0.93488 1.16174 0.86522
 C729 C 0.92911 1.14997 0.88782
 C730 C 0.90548 1.15984 0.90448
 C731 C 0.89347 1.18596 0.89966
 H732 H 0.90201 1.19900 0.88366
 O733 O 0.84513 1.06874 0.97247
 O734 O 0.80669 1.09395 0.97345
 C735 C 0.82066 1.07393 0.96368
 C736 C 0.80842 1.05703 0.94148
 C737 C 0.78041 1.06058 0.93407
 H738 H 0.76756 1.07518 0.94521
 O739 O 1.15862 0.93800 0.96685
 O740 O 1.19725 0.91306 0.96608
 C741 C 1.18204 0.93218 0.95605
 C742 C 1.19053 0.94566 0.93002
 C743 C 1.20768 0.93080 0.91200
 H744 H 1.21597 0.91082 0.91820
 O745 O 0.95040 1.09270 0.85867
 O746 O 0.94189 1.12433 0.82700
 C747 C 0.93821 1.10012 0.83674
 C748 C 0.91966 1.08022 0.82257
 C749 C 0.91431 1.08273 0.79446
 H750 H 0.92395 1.09935 0.78281
 O751 O 1.04996 0.91266 0.85938
 O752 O 1.05737 0.88104 0.82782
 C753 C 1.06131 0.90525 0.83707
 C754 C 1.07964 0.92494 0.82215
 C755 C 1.09245 0.91751 0.79729
 H756 H 1.08854 0.89730 0.78859
 O757 O 1.14114 1.00798 0.89314
 O758 O 1.17218 1.01445 0.86030
 C759 C 1.16451 1.00227 0.88216
 C760 C 1.18182 0.97959 0.89361
 C761 C 1.19873 0.96399 0.87583
 H762 H 1.19999 0.96949 0.85434
 O763 O 0.85652 0.99906 0.89921
 O764 O 0.82397 0.99165 0.86818
 C765 C 0.83207 1.00346 0.88998
 C766 C 0.81355 1.02296 0.90490
 C767 C 0.78528 1.02712 0.89747
 H768 H 0.77619 1.01563 0.88070
 O769 O 0.87509 1.11345 0.97185
 O770 O 0.83663 1.13870 0.97254
 C771 C 0.86079 1.13375 0.96300
 C772 C 0.87227 1.15181 0.94136
 C773 C 0.86039 1.17784 0.93629
 H774 H 0.84287 1.18422 0.94865
 O775 O 1.13033 0.89242 0.96939
 O776 O 1.16900 0.86746 0.96948
 C777 C 1.14438 0.87190 0.96071
 C778 C 1.13185 0.85330 0.94007
 C779 C 1.14196 0.82627 0.93631
 H780 H 1.15936 0.81914 0.94861
 O781 O 1.09247 1.05444 0.85683
 O782 O 1.12368 1.06152 0.82430
 C783 C 1.09952 1.06563 0.83425
 C784 C 1.07916 1.08330 0.81946
 C785 C 1.08206 1.08876 0.79136
 H786 H 1.09951 1.08004 0.78018
 O787 O 0.90613 0.95481 0.86246
 O788 O 0.87393 0.94614 0.83140
 C789 C 0.89863 0.94289 0.84057
 C790 C 0.91896 0.92496 0.82596
 C791 C 0.91318 0.91493 0.79958
 H792 H 0.89388 0.92082 0.78957
 O793 O 0.99614 1.14125 0.89521
 O794 O 0.98789 1.17318 0.86378
 C795 C 0.99992 1.16552 0.88577
 C796 C 1.01892 1.18477 0.90029
 C797 C 1.02338 1.21175 0.89024
 H798 H 1.01250 1.21852 0.87200
 O799 O 1.00599 0.86369 0.89793
 O800 O 1.01239 0.83242 0.86580
 C801 C 1.00132 0.83976 0.88822
 C802 C 0.98213 0.82063 0.90270
 C803 C 0.97592 0.79454 0.89169
 H804 H 0.98597 0.78817 0.87292
 O805 O 1.11427 1.13106 0.96649
 O806 O 1.13849 1.16995 0.96578
 C807 C 1.13408 1.14574 0.95679
 C808 C 1.15194 1.13464 0.93463
 C809 C 1.17663 1.14831 0.92667
 H810 H 1.18298 1.16669 0.93759
 O811 O 0.89119 0.87541 0.97258
 O812 O 0.86618 0.83699 0.97361
 C813 C 0.87049 0.86122 0.96429
 C814 C 0.85107 0.87306 0.94381
 C815 C 0.82459 0.86120 0.93982
 H816 H 0.81884 0.84308 0.95164
 Cu817 Cu 1.02735 0.89178 0.88245
 Cu818 Cu 1.03546 0.85403 0.84419
 Cu819 Cu 0.97418 1.11403 0.87971
 Cu820 Cu 0.96393 1.15233 0.84198
 Cu821 Cu 0.88455 0.97766 0.88418
 Cu822 Cu 0.84574 0.96786 0.84691
 Cu823 Cu 1.11355 1.03089 0.87875
 Cu824 Cu 1.15116 1.03923 0.83971
 C825 C 0.94432 0.91751 0.83865
 H826 H 0.94889 0.92487 0.85906
 C827 C 0.93235 0.89760 0.78603
 C828 C 1.05558 1.09340 0.83319
 H829 H 1.05313 1.08917 0.85485
 C830 C 1.06157 1.10396 0.77715
 C831 C 0.85870 0.89648 0.92846
 H832 H 0.87918 0.90560 0.93141
 C833 C 0.80562 0.87265 0.92095
 C834 C 1.14412 1.11037 0.92107
 H835 H 1.12496 1.09994 0.92694
 C836 C 1.19335 1.13797 0.90530
 C837 C 0.96833 0.82915 0.92654
 H838 H 0.97269 0.84945 0.93487
 C839 C 0.95571 0.77736 0.90386
 C840 C 1.03388 1.17573 0.92345
 H841 H 1.03101 1.15478 0.93099
 C842 C 1.04277 1.22945 0.90282
 C843 C 0.90828 1.05765 0.83697
 H844 H 0.91247 1.05549 0.85866
 C845 C 0.89796 1.06292 0.78086
 C846 C 1.08570 0.95088 0.83366
 H847 H 1.07657 0.95649 0.85313
 C848 C 1.11130 0.93568 0.78432
 C849 C 1.10926 0.86256 0.92425
 H850 H 1.10140 0.88341 0.92708
 C851 C 1.12950 0.80843 0.91712
 C852 C 0.89496 1.14305 0.92559
 H853 H 0.90407 1.12284 0.92939
 C854 C 0.87097 1.19532 0.91567
 C855 C 0.82474 1.03802 0.92698
 H856 H 0.84648 1.03537 0.93264
 C857 C 0.76857 1.04567 0.91242
 C858 C 1.17769 0.97018 0.92069
 H859 H 1.16340 0.98113 0.93400
 C860 C 1.21092 0.93922 0.88475
 O861 O 1.05456 0.91224 1.13428
 O862 O 1.06304 0.88056 1.16587
 C863 C 1.06675 0.90478 1.15621
 C864 C 1.08599 0.92430 1.17004
 C865 C 1.09975 0.91675 1.19441
 H866 H 1.09572 0.89668 1.20359
 O867 O 0.95494 1.09541 1.13621
 O868 O 0.94669 1.12714 1.16742
 C869 C 0.94289 1.10285 1.15814
 C870 C 0.92423 1.08276 1.17246
 C871 C 0.91274 1.08823 1.19853
 H872 H 0.91742 1.10759 1.20863
 O873 O 0.86287 0.99926 1.09940
 O874 O 0.83118 0.99182 1.13139
 C875 C 0.83872 1.00371 1.10935
 C876 C 0.81969 1.02348 1.09540
 C877 C 0.79295 1.02922 1.10597
 H878 H 0.78582 1.01856 1.12422
 O879 O 1.14355 1.00931 1.09478
 O880 O 1.17642 1.01664 1.12555
 C881 C 1.16816 1.00509 1.10368
 C882 C 1.18714 0.98594 1.08900
 C883 C 1.21371 0.98004 1.09977
 H884 H 1.22035 0.99013 1.11838
 O885 O 1.13209 0.89301 1.02247
 O886 O 1.17118 0.86876 1.02204
 C887 C 1.14687 0.87305 1.03153
 C888 C 1.13562 0.85469 1.05331
 C889 C 1.14793 0.82882 1.05888
 H890 H 1.16605 0.82263 1.04721
 O891 O 0.87630 1.11391 1.02497
 O892 O 0.83795 1.13933 1.02515
 C893 C 0.86251 1.13452 1.03383
 C894 C 0.87507 1.15323 1.05432
 C895 C 0.86361 1.17958 1.05861
 H896 H 0.84544 1.18577 1.04693
 O897 O 0.91235 0.95371 1.13561
 O898 O 0.88047 0.94533 1.16716
 C899 C 0.90481 0.94149 1.15751
 C900 C 0.92436 0.92205 1.17130
 C901 C 0.91638 0.90770 1.19520
 H902 H 0.89606 0.91152 1.20420
 O903 O 1.09588 1.05390 1.13410
 O904 O 1.12858 1.06100 1.16509
 C905 C 1.10389 1.06492 1.15632
 C906 C 1.08407 1.08229 1.17201
 C907 C 1.08814 1.08745 1.19996
 H908 H 1.10598 1.07851 1.21044
 O909 O 1.00955 0.86324 1.09748
 O910 O 1.01746 0.83159 1.12926
 C911 C 1.00544 0.83914 1.10727
 C912 C 0.98571 0.82012 1.09346
 C913 C 0.97968 0.79400 1.10487
 H914 H 0.99027 0.78754 1.12338
 O915 O 1.00161 1.14277 1.09881
 O916 O 0.99595 1.17412 1.13101
 C917 C 1.00783 1.16605 1.10915
 C918 C 1.03040 1.18285 1.09641
 C919 C 1.04595 1.20163 1.11238
 H920 H 1.04061 1.20488 1.13367
 O921 O 0.89248 0.87588 1.02548
 O922 O 0.86733 0.83752 1.02613
 C923 C 0.87207 0.86185 1.03474
 C924 C 0.85351 0.87411 1.05549
 C925 C 0.82664 0.86334 1.05981
 H926 H 0.82002 0.84558 1.04809
 O927 O 1.11569 1.12999 1.01970
 O928 O 1.14050 1.16856 1.01860
 C929 C 1.13618 1.14438 1.02813
 C930 C 1.15471 1.13297 1.04967
 C931 C 1.18099 1.14478 1.05491
 H932 H 1.18755 1.16241 1.04279
 O933 O 1.00806 1.10683 1.13702
 O934 O 1.00022 1.13765 1.16931
 C935 C 1.01475 1.11799 1.15956
 C936 C 1.04015 1.10815 1.17386
 C937 C 1.04462 1.11337 1.20179
 H938 H 1.02899 1.12435 1.21357
 O939 O 1.00128 0.90023 1.13450
 O940 O 1.00948 0.86870 1.16632
 C941 C 0.99452 0.88825 1.15671
 C942 C 0.96837 0.89624 1.17086
 C943 C 0.95997 0.88211 1.19460
 H944 H 0.97365 0.86660 1.20344
 O945 O 1.13169 1.06186 1.09458
 O946 O 1.16474 1.06920 1.12515
 C947 C 1.15253 1.07573 1.10295
 C948 C 1.16256 1.09959 1.08652
 C949 C 1.18893 1.11141 1.09134
 H950 H 1.20205 1.10258 1.10714
 O951 O 0.87551 0.94680 1.09721
 O952 O 0.84310 0.93934 1.12852
 C953 C 0.85486 0.93294 1.10613
 C954 C 0.84482 0.90898 1.09027
 C955 C 0.81787 0.89810 1.09434
 H956 H 0.80415 0.90779 1.10905
 O957 O 1.06986 1.15773 1.02232
 O958 O 1.09469 1.19625 1.02152
 C959 C 1.07586 1.18120 1.03237
 C960 C 1.06310 1.19018 1.05847
 C961 C 1.07793 1.20898 1.07466
 H962 H 1.09713 1.21817 1.06702
 O963 O 0.93795 0.84670 1.02543
 O964 O 0.91300 0.80828 1.02624
 C965 C 0.93311 0.82277 1.03531
 C966 C 0.95034 0.81215 1.05829
 C967 C 0.94459 0.78614 1.07004
 H968 H 0.92850 0.77321 1.06120
 O969 O 1.10744 1.00101 1.13327
 O970 O 1.14034 1.00819 1.16404
 C971 C 1.12009 0.99383 1.15501
 C972 C 1.11185 0.96799 1.16941
 C973 C 1.12524 0.96016 1.19377
 H974 H 1.14032 0.97407 1.20284
 O975 O 0.90200 1.00674 1.13483
 O976 O 0.87057 0.99870 1.16693
 C977 C 0.89048 1.01323 1.15724
 C978 C 0.89953 1.03840 1.17185
 C979 C 0.88881 1.04393 1.19782
 H980 H 0.87565 1.02853 1.20750
 O981 O 0.94812 1.13201 1.09754
 O982 O 0.94116 1.16486 1.12793
 C983 C 0.93439 1.15283 1.10580
 C984 C 0.91009 1.16252 1.08949
 C985 C 0.89838 1.18896 1.09346
 H986 H 0.90764 1.20273 1.10832
 O987 O 1.06246 0.87572 1.09628
 O988 O 1.07047 0.84360 1.12758
 C989 C 1.07684 0.85547 1.10517
 C990 C 1.10132 0.84597 1.08927
 C991 C 1.11371 0.82005 1.09450
 H992 H 1.10480 0.80674 1.11008
 O993 O 1.15994 0.93927 1.02094
 O994 O 1.19908 0.91518 1.02047
 C995 C 1.18437 0.93481 1.03009
 C996 C 1.19521 0.95175 1.05303
 C997 C 1.22165 0.94611 1.06430
 H998 H 1.23478 0.93042 1.05515
 O999 O 0.84650 1.06906 1.02620
 O1000 O 0.80820 1.09449 1.02692
 C1001 C 0.82267 1.07452 1.03624
 C1002 C 0.81203 1.05809 1.05957
 C1003 C 0.78555 1.06368 1.07048
 H1004 H 0.77240 1.07921 1.06089
 Cu1005 Cu 1.03128 0.89109 1.11250
 Cu1006 Cu 1.04102 0.85303 1.15054
 Cu1007 Cu 0.97868 1.11610 1.11431
 Cu1008 Cu 0.96986 1.15431 1.15189
 Cu1009 Cu 0.91734 0.86493 0.99873
 Cu1010 Cu 0.88736 0.81871 0.99971
 Cu1011 Cu 1.14149 0.91828 0.99506
 Cu1012 Cu 1.18834 0.88910 0.99455
 Cu1013 Cu 0.86455 1.08860 0.99882
 Cu1014 Cu 0.81837 1.11899 0.99957
 Cu1015 Cu 1.08919 1.14046 0.99407
 Cu1016 Cu 1.11838 1.18709 0.99315
 Cu1017 Cu 0.89135 0.97726 1.11355
 Cu1018 Cu 0.85326 0.96795 1.15182
 Cu1019 Cu 1.11625 1.03099 1.11116
 Cu1020 Cu 1.15576 1.03965 1.14808
 C1021 C 1.09203 0.95008 1.15787
 H1022 H 1.08195 0.95583 1.13883
 C1023 C 1.11960 0.93450 1.20628
 C1024 C 0.91749 1.05767 1.15946
 H1025 H 0.92572 1.05335 1.13927
 C1026 C 0.89483 1.06880 1.21129
 C1027 C 0.82890 1.03790 1.07205
 H1028 H 0.84960 1.03393 1.06397
 C1029 C 0.77585 1.04945 1.09364
 C1030 C 1.17817 0.97189 1.06544
 H1031 H 1.15748 0.97594 1.05733
 C1032 C 1.23096 0.95999 1.08778
 C1033 C 1.11225 0.86295 1.06848
 H1034 H 1.10280 0.88295 1.06439
 C1035 C 1.13686 0.81102 1.07913
 C1036 C 0.89845 1.14499 1.06960
 H1037 H 0.90722 1.12457 1.06640
 C1038 C 0.87537 1.19788 1.07766
 C1039 C 0.95054 0.91636 1.15949
 H1040 H 0.95668 0.92697 1.14085
 C1041 C 0.93396 0.88743 1.20676
 C1042 C 1.05999 1.09265 1.15924
 H1043 H 1.05668 1.08859 1.13771
 C1044 C 1.06837 1.10267 1.21497
 C1045 C 0.97113 0.82887 1.07000
 H1046 H 0.97529 0.84920 1.06141
 C1047 C 0.95896 0.77698 1.09347
 C1048 C 1.03930 1.17713 1.06947
 H1049 H 1.02838 1.16174 1.05746
 C1050 C 1.07015 1.21403 1.10169
 C1051 C 0.86234 0.89704 1.07060
 H1052 H 0.88316 0.90532 1.06737
 C1053 C 0.80838 0.87549 1.07879
 C1054 C 1.14579 1.11031 1.06546
 H1055 H 1.12541 1.10131 1.06168
 C1056 C 1.19861 1.13388 1.07542
 O1057 O 0.99377 0.39311 0.36356
 O1058 O 0.99950 0.36189 0.33126
 C1059 C 0.98551 0.38151 0.34175
 C1060 C 0.95894 0.39016 0.32883
 C1061 C 0.94897 0.37580 0.30601
 H1062 H 0.96153 0.35946 0.29719
 O1063 O 1.00401 0.60409 0.36136
 O1064 O 0.99612 0.63555 0.32940
 C1065 C 1.01093 0.61599 0.33915
 C1066 C 1.03728 0.60798 0.32541
 C1067 C 1.04713 0.62328 0.30293
 H1068 H 1.03422 0.63958 0.29439
 O1069 O 0.87107 0.44427 0.40351
 O1070 O 0.83779 0.43713 0.37309
 C1071 C 0.85021 0.43046 0.39515
 C1072 C 0.84066 0.40620 0.41115
 C1073 C 0.81361 0.39552 0.40770
 H1074 H 0.79956 0.40579 0.39360
 O1075 O 1.12793 0.55256 0.39863
 O1076 O 1.16112 0.55772 0.36765
 C1077 C 1.14952 0.56507 0.38982
 C1078 C 1.16092 0.58865 0.40536
 C1079 C 1.18911 0.59612 0.40290
 H1080 H 1.20286 0.58419 0.38984
 O1081 O 0.93445 0.34135 0.47450
 O1082 O 0.90932 0.30302 0.47488
 C1083 C 0.92952 0.31721 0.46545
 C1084 C 0.94703 0.30588 0.44323
 C1085 C 0.94372 0.27838 0.43458
 H1086 H 0.92898 0.26498 0.44505
 O1087 O 1.06988 0.65599 0.46859
 O1088 O 1.09580 0.69375 0.46776
 C1089 C 1.07522 0.67983 0.45879
 C1090 C 1.05791 0.69090 0.43606
 C1091 C 1.06414 0.71667 0.42401
 H1092 H 1.08076 0.72920 0.43246
 O1093 O 0.89638 0.50406 0.36412
 O1094 O 0.86393 0.49664 0.33297
 C1095 C 0.88423 0.51094 0.34205
 C1096 C 0.89307 0.53644 0.32743
 C1097 C 0.88043 0.54391 0.30260
 H1098 H 0.86552 0.52993 0.29338
 O1099 O 1.09847 0.49439 0.35989
 O1100 O 1.12986 0.50141 0.32752
 C1101 C 1.10949 0.48762 0.33726
 C1102 C 1.09962 0.46261 0.32280
 C1103 C 1.11041 0.45609 0.29703
 H1104 H 1.12421 0.47069 0.28696
 O1105 O 1.05700 0.36654 0.39730
 O1106 O 1.06268 0.33533 0.36499
 C1107 C 1.07043 0.34625 0.38727
 C1108 C 1.09533 0.33552 0.40179
 C1109 C 1.10904 0.31134 0.39311
 H1110 H 1.10114 0.30018 0.37559
 O1111 O 0.94359 0.62958 0.39986
 O1112 O 0.93566 0.66156 0.36839
 C1113 C 0.92942 0.64998 0.39097
 C1114 C 0.90536 0.65992 0.40716
 C1115 C 0.89361 0.68623 0.40252
 H1116 H 0.90268 0.69957 0.38703
 O1117 O 0.84429 0.56732 0.47299
 O1118 O 0.80605 0.59280 0.47385
 C1119 C 0.82000 0.57278 0.46400
 C1120 C 0.80845 0.55620 0.44124
 C1121 C 0.78202 0.56225 0.43016
 H1122 H 0.76938 0.57837 0.43924
 O1123 O 1.15141 0.42472 0.46989
 O1124 O 1.19027 0.40014 0.46910
 C1125 C 1.17496 0.41936 0.45924
 C1126 C 1.18348 0.43344 0.43346
 C1127 C 1.20107 0.41914 0.41546
 H1128 H 1.20958 0.39917 0.42142
 O1129 O 0.95075 0.59218 0.36244
 O1130 O 0.94249 0.62366 0.33061
 C1131 C 0.93861 0.59953 0.34047
 C1132 C 0.91934 0.57994 0.32671
 C1133 C 0.90634 0.58709 0.30186
 H1134 H 0.91091 0.60689 0.29237
 O1135 O 1.04678 0.40517 0.36128
 O1136 O 1.05263 0.37426 0.32873
 C1137 C 1.05703 0.39828 0.33838
 C1138 C 1.07461 0.41846 0.32333
 C1139 C 1.08572 0.41221 0.29744
 H1140 H 1.08095 0.39255 0.28791
 O1141 O 1.13617 0.49867 0.39717
 O1142 O 1.16768 0.50383 0.36456
 C1143 C 1.15930 0.49188 0.38631
 C1144 C 1.17565 0.46840 0.39768
 C1145 C 1.19332 0.45345 0.38006
 H1146 H 1.19569 0.45978 0.35888
 O1147 O 0.85850 0.49675 0.40133
 O1148 O 0.82597 0.48962 0.37018
 C1149 C 0.83410 0.50130 0.39198
 C1150 C 0.81537 0.52109 0.40608
 C1151 C 0.78884 0.52732 0.39535
 H1152 H 0.78183 0.51687 0.37708
 O1153 O 0.87369 0.61243 0.47303
 O1154 O 0.83550 0.63803 0.47437
 C1155 C 0.85957 0.63311 0.46464
 C1156 C 0.87126 0.65153 0.44330
 C1157 C 0.85961 0.67776 0.43838
 H1158 H 0.84175 0.68418 0.45032
 O1159 O 1.12591 0.37744 0.47077
 O1160 O 1.16494 0.35312 0.47052
 C1161 C 1.14062 0.35772 0.46123
 C1162 C 1.12959 0.34088 0.43833
 C1163 C 1.14335 0.31683 0.42926
 H1164 H 1.16177 0.30976 0.44007
 O1165 O 1.09034 0.54796 0.36055
 O1166 O 1.12299 0.55512 0.32947
 C1167 C 1.09883 0.56021 0.33900
 C1168 C 1.08064 0.58113 0.32549
 C1169 C 1.09024 0.59686 0.30300
 H1170 H 1.11098 0.59320 0.29490
 O1171 O 0.90643 0.45066 0.36402
 O1172 O 0.87356 0.44302 0.33335
 C1173 C 0.89795 0.43847 0.34257
 C1174 C 0.91624 0.41799 0.32888
 C1175 C 0.90672 0.40338 0.30581
 H1176 H 0.88632 0.40785 0.29725
 O1177 O 0.99670 0.64101 0.39839
 O1178 O 0.98892 0.67256 0.36647
 C1179 C 1.00115 0.66495 0.38834
 C1180 C 1.02159 0.68363 0.40165
 C1181 C 1.02812 0.70947 0.38991
 H1182 H 1.01737 0.71602 0.37152
 O1183 O 1.00413 0.35644 0.40063
 O1184 O 1.00969 0.32497 0.36852
 C1185 C 0.99943 0.33242 0.39132
 C1186 C 0.98132 0.31330 0.40698
 C1187 C 0.97792 0.28573 0.39870
 H1188 H 0.98918 0.27832 0.38098
 O1189 O 1.11487 0.62605 0.46781
 O1190 O 1.14140 0.66347 0.46757
 C1191 C 1.13590 0.63932 0.45880
 C1192 C 1.15418 0.62588 0.43836
 C1193 C 1.18249 0.63343 0.43541
 H1194 H 1.19119 0.64994 0.44770
 O1195 O 0.88979 0.37171 0.47426
 O1196 O 0.86425 0.33361 0.47477
 C1197 C 0.86909 0.35784 0.46561
 C1198 C 0.85021 0.37032 0.44512
 C1199 C 0.82324 0.35963 0.44123
 H1200 H 0.81691 0.34158 0.45284
 Cu1201 Cu 1.02507 0.38356 0.38388
 Cu1202 Cu 1.03173 0.34606 0.34499
 Cu1203 Cu 0.97437 0.61349 0.38366
 Cu1204 Cu 0.96481 0.65139 0.34541
 Cu1205 Cu 0.88641 0.47468 0.38628
 Cu1206 Cu 0.84714 0.46583 0.34919
 Cu1207 Cu 1.11000 0.52301 0.38228
 Cu1208 Cu 1.14867 0.53031 0.34417
 C1209 C 0.94250 0.41131 0.34013
 H1210 H 0.94981 0.42204 0.35818
 C1211 C 0.92286 0.38196 0.29461
 C1212 C 1.05405 0.58678 0.33635
 H1213 H 1.04669 0.57518 0.35397
 C1214 C 1.07369 0.61822 0.29182
 C1215 C 0.85871 0.39366 0.43011
 H1216 H 0.87961 0.40184 0.43290
 C1217 C 0.80450 0.37240 0.42297
 C1218 C 1.14368 0.60352 0.42321
 H1219 H 1.12191 0.59761 0.42531
 C1220 C 1.20004 0.61820 0.41803
 C1221 C 0.96609 0.32308 0.42948
 H1222 H 0.96832 0.34448 0.43569
 C1223 C 0.95911 0.26815 0.41234
 C1224 C 1.03640 0.67469 0.42488
 H1225 H 1.03183 0.65456 0.43371
 C1226 C 1.04948 0.72609 0.40082
 C1227 C 0.91271 0.55446 0.33920
 H1228 H 0.92221 0.54900 0.35860
 C1229 C 0.88669 0.56926 0.28978
 C1230 C 1.08151 0.44382 0.33569
 H1231 H 1.07358 0.44854 0.35589
 C1232 C 1.10392 0.43088 0.28434
 C1233 C 1.10557 0.34983 0.42453
 H1234 H 1.09511 0.36853 0.43117
 C1235 C 1.13309 0.30171 0.40673
 C1236 C 0.89421 0.64290 0.42778
 H1237 H 0.90311 0.62257 0.43143
 C1238 C 0.87091 0.69557 0.41838
 C1239 C 0.82480 0.53538 0.42922
 H1240 H 0.84539 0.53093 0.43734
 C1241 C 0.77207 0.54799 0.40712
 C1242 C 1.17062 0.45812 0.42436
 H1243 H 1.15592 0.46867 0.43756
 C1244 C 1.20520 0.42845 0.38860
 O1245 O 1.05148 0.40765 0.63652
 O1246 O 1.05895 0.37697 0.66927
 C1247 C 1.06342 0.40073 0.65869
 C1248 C 1.08308 0.42044 0.67178
 C1249 C 1.09593 0.41407 0.69693
 H1250 H 1.09108 0.39473 0.70723
 O1251 O 0.95785 0.58885 0.63666
 O1252 O 0.95057 0.62040 0.66828
 C1253 C 0.94619 0.59631 0.65878
 C1254 C 0.92670 0.57685 0.67283
 C1255 C 0.91533 0.58279 0.69879
 H1256 H 0.92163 0.60153 0.70913
 O1257 O 0.86072 0.49493 0.59840
 O1258 O 0.82896 0.48823 0.63047
 C1259 C 0.83661 0.49971 0.60829
 C1260 C 0.81771 0.51957 0.59439
 C1261 C 0.79142 0.52584 0.60564
 H1262 H 0.78470 0.51539 0.62414
 O1263 O 1.14342 0.49986 0.59354
 O1264 O 1.17659 0.50594 0.62432
 C1265 C 1.16718 0.49358 0.60339
 C1266 C 1.18282 0.46977 0.59235
 C1267 C 1.20047 0.45501 0.61018
 H1268 H 1.20397 0.46235 0.63082
 O1269 O 1.12480 0.37860 0.52441
 O1270 O 1.16361 0.35393 0.52379
 C1271 C 1.13949 0.35870 0.53367
 C1272 C 1.12870 0.34174 0.55686
 C1273 C 1.14168 0.31680 0.56470
 H1274 H 1.15897 0.30932 0.55258
 O1275 O 0.87615 0.61048 0.52614
 O1276 O 0.83803 0.63620 0.52718
 C1277 C 0.86256 0.63081 0.53572
 C1278 C 0.87541 0.64848 0.55690
 C1279 C 0.86423 0.67468 0.56241
 H1280 H 0.84593 0.68141 0.55123
 O1281 O 0.90959 0.45006 0.63623
 O1282 O 0.87769 0.44319 0.66814
 C1283 C 0.90213 0.43921 0.65885
 C1284 C 0.92211 0.42176 0.67434
 C1285 C 0.91639 0.41348 0.70141
 H1286 H 0.89738 0.42055 0.71110
 O1287 O 1.09903 0.54854 0.63173
 O1288 O 1.13293 0.55575 0.66141
 C1289 C 1.10825 0.56043 0.65306
 C1290 C 1.09021 0.58032 0.66782
 C1291 C 1.10033 0.59515 0.69048
 H1292 H 1.12140 0.59153 0.69781
 O1293 O 1.00514 0.35902 0.60132
 O1294 O 1.01172 0.32793 0.63392
 C1295 C 1.00040 0.33522 0.61144
 C1296 C 0.98119 0.31620 0.59692
 C1297 C 0.97677 0.28897 0.60634
 H1298 H 0.98775 0.28156 0.62432
 O1299 O 1.00239 0.63718 0.59768
 O1300 O 0.99548 0.66900 0.62918
 C1301 C 1.00683 0.66134 0.60692
 C1302 C 1.02604 0.68040 0.59211
 C1303 C 1.03168 0.70684 0.60258
 H1304 H 1.02133 0.71343 0.62112
 O1305 O 0.88871 0.37069 0.52720
 O1306 O 0.86332 0.33249 0.52747
 C1307 C 0.86814 0.35671 0.53628
 C1308 C 0.84977 0.36891 0.55729
 C1309 C 0.82324 0.35774 0.56266
 H1310 H 0.81649 0.33974 0.55136
 O1311 O 1.11637 0.62555 0.52042
 O1312 O 1.14225 0.66343 0.52000
 C1313 C 1.13749 0.63906 0.52876
 C1314 C 1.15681 0.62611 0.54859
 C1315 C 1.18390 0.63662 0.55221
 H1316 H 1.19027 0.65472 0.54063
 O1317 O 1.01138 0.60142 0.63595
 O1318 O 1.00447 0.63309 0.66756
 C1319 C 1.01916 0.61368 0.65758
 C1320 C 1.04632 0.60614 0.67024
 C1321 C 1.05689 0.62099 0.69261
 H1322 H 1.04420 0.63698 0.70186
 O1323 O 0.99811 0.39605 0.63864
 O1324 O 1.00523 0.36555 0.67166
 C1325 C 0.99107 0.38533 0.66143
 C1326 C 0.96578 0.39566 0.67571
 C1327 C 0.95966 0.38737 0.70265
 H1328 H 0.97407 0.37359 0.71289
 O1329 O 1.13458 0.55352 0.59149
 O1330 O 1.16882 0.55960 0.62107
 C1331 C 1.15626 0.56652 0.59918
 C1332 C 1.16634 0.59033 0.58271
 C1333 C 1.19349 0.60098 0.58607
 H1334 H 1.20755 0.59100 0.60038
 O1335 O 0.87264 0.44205 0.59783
 O1336 O 0.84046 0.43547 0.62953
 C1337 C 0.85204 0.42841 0.60724
 C1338 C 0.84178 0.40403 0.59205
 C1339 C 0.81518 0.39272 0.59720
 H1340 H 0.80184 0.40232 0.61229
 O1341 O 1.07103 0.65471 0.52230
 O1342 O 1.09655 0.69275 0.52206
 C1343 C 1.07663 0.67839 0.53202
 C1344 C 1.06030 0.68877 0.55570
 C1345 C 1.06580 0.71504 0.56674
 H1346 H 1.08130 0.72830 0.55721
 O1347 O 0.93500 0.34310 0.52788
 O1348 O 0.90980 0.30482 0.52840
 C1349 C 0.92988 0.31926 0.53768
 C1350 C 0.94692 0.30855 0.56062
 C1351 C 0.94276 0.28155 0.57034
 H1352 H 0.92794 0.26818 0.56011
 O1353 O 1.10718 0.49522 0.63201
 O1354 O 1.14026 0.50223 0.66266
 C1355 C 1.11937 0.48842 0.65411
 C1356 C 1.10999 0.46356 0.66948
 C1357 C 1.12242 0.45686 0.69457
 H1358 H 1.13748 0.47098 0.70337
 O1359 O 0.89973 0.50282 0.63405
 O1360 O 0.86807 0.49600 0.66620
 C1361 C 0.88842 0.50987 0.65642
 C1362 C 0.89863 0.53457 0.67120
 C1363 C 0.88780 0.54071 0.69703
 H1364 H 0.87274 0.52659 0.70573
 O1365 O 0.94939 0.62559 0.59851
 O1366 O 0.94237 0.65765 0.62975
 C1367 C 0.93544 0.64598 0.60751
 C1368 C 0.91093 0.65606 0.59192
 C1369 C 0.89957 0.68240 0.59702
 H1370 H 0.90921 0.69555 0.61219
 O1371 O 1.05841 0.36818 0.60119
 O1372 O 1.06537 0.33703 0.63364
 C1373 C 1.07207 0.34771 0.61076
 C1374 C 1.09599 0.33655 0.59497
 C1375 C 1.10924 0.31161 0.60260
 H1376 H 1.10180 0.30027 0.62032
 O1377 O 1.15391 0.42379 0.52396
 O1378 O 1.19280 0.39922 0.52371
 C1379 C 1.17792 0.41844 0.53376
 C1380 C 1.18765 0.43280 0.55867
 C1381 C 1.20470 0.41820 0.57719
 H1382 H 1.21151 0.39734 0.57246
 O1383 O 0.84498 0.56670 0.52640
 O1384 O 0.80672 0.59217 0.52743
 C1385 C 0.82104 0.57191 0.53636
 C1386 C 0.81017 0.55489 0.55924
 C1387 C 0.78399 0.56086 0.57076
 H1388 H 0.77114 0.57699 0.56181
 Cu1389 Cu 1.02767 0.38588 0.61626
 Cu1390 Cu 1.03602 0.34887 0.65550
 Cu1391 Cu 0.98084 0.60991 0.61425
 Cu1392 Cu 0.97238 0.64808 0.65199
 Cu1393 Cu 0.91461 0.36049 0.50089
 Cu1394 Cu 0.88432 0.31447 0.50132
 Cu1395 Cu 1.13517 0.40355 0.49731
 Cu1396 Cu 1.18205 0.37458 0.49686
 Cu1397 Cu 0.86355 0.58658 0.49946
 Cu1398 Cu 0.81763 0.61725 0.50088
 Cu1399 Cu 1.09027 0.63695 0.49478
 Cu1400 Cu 1.12125 0.68246 0.49427
 Cu1401 Cu 0.88879 0.47291 0.61329
 Cu1402 Cu 0.85060 0.46496 0.65178
 Cu1403 Cu 1.11771 0.52396 0.60906
 Cu1404 Cu 1.15807 0.53173 0.64532
 C1405 C 1.09017 0.44536 0.65832
 H1406 H 1.08088 0.45021 0.63866
 C1407 C 1.11583 0.43212 0.70830
 C1408 C 0.91827 0.55255 0.65935
 H1409 H 0.92639 0.54797 0.63920
 C1410 C 0.89575 0.56470 0.71116
 C1411 C 0.82678 0.53404 0.57103
 H1412 H 0.84726 0.52976 0.56258
 C1413 C 0.77454 0.54663 0.59408
 C1414 C 1.17647 0.45857 0.56651
 H1415 H 1.16194 0.46923 0.55310
 C1416 C 1.21048 0.42893 0.60308
 C1417 C 1.10578 0.35122 0.57202
 H1418 H 1.09587 0.37057 0.56625
 C1419 C 1.13211 0.30142 0.58753
 C1420 C 0.89892 0.63939 0.57157
 H1421 H 0.90756 0.61908 0.56749
 C1422 C 0.87644 0.69208 0.58202
 C1423 C 0.94699 0.41305 0.66187
 H1424 H 0.95137 0.41922 0.64096
 C1425 C 0.93506 0.39631 0.71592
 C1426 C 1.06310 0.58573 0.65818
 H1427 H 1.05534 0.57460 0.64056
 C1428 C 1.08392 0.61575 0.70277
 C1429 C 0.96632 0.32568 0.57387
 H1430 H 0.96929 0.34673 0.56664
 C1431 C 0.95747 0.27163 0.59316
 C1432 C 1.04024 0.67167 0.56847
 H1433 H 1.03626 0.65116 0.56047
 C1434 C 1.05158 0.72422 0.59016
 C1435 C 0.85874 0.39214 0.57191
 H1436 H 0.87927 0.40073 0.56788
 C1437 C 0.80548 0.36980 0.58222
 C1438 C 1.14835 0.60281 0.56365
 H1439 H 1.12739 0.59475 0.56096
 C1440 C 1.20266 0.62392 0.57050
 O1441 O 0.49747 0.90179 0.36081
 O1442 O 0.50553 0.87110 0.32847
 C1443 C 0.49073 0.89052 0.33837
 C1444 C 0.46438 0.89876 0.32475
 C1445 C 0.45510 0.88463 0.30151
 H1446 H 0.46859 0.86939 0.29211
 O1447 O 0.50788 1.10648 0.36199
 O1448 O 0.49925 1.13825 0.33049
 C1449 C 0.51412 1.11850 0.33963
 C1450 C 0.53926 1.10944 0.32467
 C1451 C 0.54292 1.11555 0.29677
 H1452 H 0.52691 1.12679 0.28562
 O1453 O 0.37435 0.94509 0.40394
 O1454 O 0.34081 0.93850 0.37372
 C1455 C 0.35341 0.93140 0.39555
 C1456 C 0.34386 0.90692 0.41135
 C1457 C 0.31767 0.89481 0.40625
 H1458 H 0.30417 0.90402 0.39097
 O1459 O 0.63190 1.06154 0.40082
 O1460 O 0.66414 1.06894 0.36937
 C1461 C 0.65239 1.07555 0.39173
 C1462 C 0.66249 1.09972 0.40747
 C1463 C 0.68818 1.11241 0.40125
 H1464 H 0.70046 1.10463 0.38437
 O1465 O 0.43826 0.84549 0.47309
 O1466 O 0.41219 0.80776 0.47323
 C1467 C 0.43147 0.82242 0.46263
 C1468 C 0.44368 0.81390 0.43619
 C1469 C 0.42787 0.79672 0.41913
 H1470 H 0.40857 0.78770 0.42669
 O1471 O 0.57250 1.15838 0.47588
 O1472 O 0.59647 1.19740 0.47548
 C1473 C 0.57681 1.18246 0.46609
 C1474 C 0.55938 1.19273 0.44296
 C1475 C 0.56340 1.21956 0.43225
 H1476 H 0.57843 1.23324 0.44177
 O1477 O 0.39886 1.00630 0.36613
 O1478 O 0.36584 0.99962 0.33537
 C1479 C 0.38622 1.01378 0.34451
 C1480 C 0.39457 1.03973 0.33043
 C1481 C 0.38054 1.04821 0.30668
 H1482 H 0.36487 1.03477 0.29788
 O1483 O 0.60600 1.00098 0.36328
 O1484 O 0.63814 1.00818 0.33168
 C1485 C 0.61802 0.99386 0.34127
 C1486 C 0.60933 0.96814 0.32716
 C1487 C 0.62229 0.96055 0.30261
 H1488 H 0.63736 0.97446 0.29335
 O1489 O 0.55693 0.87501 0.39999
 O1490 O 0.56422 0.84282 0.36895
 C1491 C 0.57069 0.85435 0.39140
 C1492 C 0.59475 0.84425 0.40765
 C1493 C 0.60582 0.81758 0.40376
 H1494 H 0.59615 0.80394 0.38904
 O1495 O 0.44842 1.13025 0.40258
 O1496 O 0.44033 1.16318 0.37209
 C1497 C 0.43440 1.15107 0.39448
 C1498 C 0.41090 1.16104 0.41128
 C1499 C 0.39917 1.18730 0.40661
 H1500 H 0.40803 1.20047 0.39088
 O1501 O 0.34883 1.06903 0.47618
 O1502 O 0.31043 1.09434 0.47637
 C1503 C 0.32460 1.07436 0.46686
 C1504 C 0.31290 1.05746 0.44447
 C1505 C 0.28551 1.06215 0.43516
 H1506 H 0.27263 1.07769 0.44490
 O1507 O 0.65917 0.93678 0.47219
 O1508 O 0.69760 0.91158 0.47172
 C1509 C 0.68329 0.93175 0.46252
 C1510 C 0.69434 0.94881 0.43960
 C1511 C 0.72049 0.94271 0.42796
 H1512 H 0.73325 0.92644 0.43680
 O1513 O 0.45461 1.09359 0.36437
 O1514 O 0.44573 1.12609 0.33373
 C1515 C 0.44176 1.10175 0.34305
 C1516 C 0.42147 1.08288 0.32958
 C1517 C 0.40704 1.09104 0.30573
 H1518 H 0.41129 1.11106 0.29654
 O1519 O 0.55092 0.91248 0.36201
 O1520 O 0.55945 0.88107 0.33053
 C1521 C 0.56340 0.90512 0.34028
 C1522 C 0.58307 0.92460 0.32665
 C1523 C 0.59645 0.91737 0.30204
 H1524 H 0.59208 0.89756 0.29267
 O1525 O 0.64388 1.00881 0.40002
 O1526 O 0.67605 1.01614 0.36848
 C1527 C 0.66816 1.00431 0.39045
 C1528 C 0.68698 0.98432 0.40443
 C1529 C 0.71323 0.97793 0.39318
 H1530 H 0.71998 0.98842 0.37471
 O1531 O 0.36178 0.99769 0.40350
 O1532 O 0.32863 0.99108 0.37286
 C1533 C 0.33720 1.00238 0.39471
 C1534 C 0.31881 1.02188 0.40959
 C1535 C 0.29122 1.02660 0.40083
 H1536 H 0.28305 1.01519 0.38357
 O1537 O 0.37908 1.11372 0.47736
 O1538 O 0.34070 1.13907 0.47789
 C1539 C 0.36506 1.13433 0.46873
 C1540 C 0.37708 1.15280 0.44764
 C1541 C 0.36538 1.17896 0.44260
 H1542 H 0.34755 1.18528 0.45459
 O1543 O 0.62885 0.89188 0.47219
 O1544 O 0.66721 0.86649 0.47176
 C1545 C 0.64266 0.87141 0.46314
 C1546 C 0.63001 0.85294 0.44260
 C1547 C 0.64088 0.82632 0.43847
 H1548 H 0.65886 0.81972 0.45024
 O1549 O 0.59554 1.05415 0.36205
 O1550 O 0.62743 1.06131 0.33019
 C1551 C 0.60308 1.06545 0.33968
 C1552 C 0.58310 1.08350 0.32481
 C1553 C 0.58646 1.08962 0.29688
 H1554 H 0.60401 1.08103 0.28575
 O1555 O 0.40904 0.95335 0.36369
 O1556 O 0.37591 0.94624 0.33318
 C1557 C 0.40064 0.94210 0.34171
 C1558 C 0.41978 0.92345 0.32657
 C1559 C 0.41081 0.90904 0.30316
 H1560 H 0.38986 0.91223 0.29534
 O1561 O 0.50142 1.14059 0.40184
 O1562 O 0.49356 1.17289 0.37069
 C1563 C 0.50556 1.16487 0.39259
 C1564 C 0.52480 1.18392 0.40707
 C1565 C 0.52912 1.21081 0.39687
 H1566 H 0.51811 1.21740 0.37864
 O1567 O 0.50357 0.86371 0.39700
 O1568 O 0.51026 0.83289 0.36445
 C1569 C 0.49787 0.84051 0.38612
 C1570 C 0.47539 0.82319 0.39803
 C1571 C 0.45865 0.80646 0.38097
 H1572 H 0.46304 0.80526 0.35926
 O1573 O 0.61786 1.12940 0.47598
 O1574 O 0.64232 1.16817 0.47583
 C1575 C 0.63780 1.14397 0.46662
 C1576 C 0.65554 1.13281 0.44445
 C1577 C 0.68144 1.14498 0.43826
 H1578 H 0.68871 1.16196 0.45069
 O1579 O 0.39249 0.87368 0.47583
 O1580 O 0.36682 0.83566 0.47657
 C1581 C 0.37155 0.85988 0.46742
 C1582 C 0.35275 0.87203 0.44656
 C1583 C 0.32662 0.86002 0.44108
 H1584 H 0.32044 0.84171 0.45239
 Cu1585 Cu 0.52668 0.89135 0.38316
 Cu1586 Cu 0.53601 0.85388 0.34487
 Cu1587 Cu 0.47883 1.11427 0.38559
 Cu1588 Cu 0.46887 1.15330 0.34857
 Cu1589 Cu 0.38934 0.97609 0.38737
 Cu1590 Cu 0.34955 0.96809 0.35064
 Cu1591 Cu 0.61608 1.03083 0.38469
 Cu1592 Cu 0.65462 1.03948 0.34674
 C1593 C 0.44673 0.91839 0.33689
 H1594 H 0.45361 0.92896 0.35518
 C1595 C 0.42831 0.88933 0.29077
 C1596 C 0.55949 1.09361 0.33846
 H1597 H 0.55678 1.08901 0.36002
 C1598 C 0.56632 1.10542 0.28277
 C1599 C 0.36109 0.89556 0.43174
 H1600 H 0.38137 0.90471 0.43570
 C1601 C 0.30866 0.87145 0.42124
 C1602 C 0.64642 1.11000 0.42920
 H1603 H 0.62648 1.10047 0.43399
 C1604 C 0.69817 1.13474 0.41691
 C1605 C 0.46760 0.82690 0.42556
 H1606 H 0.47936 0.84100 0.43834
 C1607 C 0.43439 0.79391 0.39139
 C1608 C 0.53984 1.17511 0.43029
 H1609 H 0.53690 1.15425 0.43804
 C1610 C 0.54842 1.22873 0.40914
 C1611 C 0.41517 1.05706 0.34161
 H1612 H 0.42573 1.05078 0.36023
 C1613 C 0.38635 1.07385 0.29432
 C1614 C 0.58958 0.95013 0.33896
 H1615 H 0.57984 0.95565 0.35817
 C1616 C 0.61632 0.93515 0.29008
 C1617 C 0.60681 0.86163 0.42735
 H1618 H 0.59848 0.88225 0.43044
 C1619 C 0.62867 0.80825 0.41950
 C1620 C 0.39997 1.14409 0.43206
 H1621 H 0.40884 1.12374 0.43565
 C1622 C 0.37645 1.19662 0.42233
 C1623 C 0.32932 1.03719 0.43168
 H1624 H 0.35062 1.03386 0.43845
 C1625 C 0.27448 1.04672 0.41348
 C1626 C 0.67786 0.96982 0.42781
 H1627 H 0.65741 0.97422 0.43627
 C1628 C 0.73002 0.95698 0.40463
 O1629 O 0.55182 0.91007 0.63768
 O1630 O 0.56079 0.87856 0.66932
 C1631 C 0.56422 0.90277 0.65951
 C1632 C 0.58332 0.92251 0.67314
 C1633 C 0.59631 0.91547 0.69804
 H1634 H 0.59189 0.89568 0.70764
 O1635 O 0.45755 1.09010 0.64266
 O1636 O 0.45071 1.12144 0.67462
 C1637 C 0.44629 1.09741 0.66502
 C1638 C 0.42741 1.07783 0.67950
 C1639 C 0.41915 1.08239 0.70669
 H1640 H 0.42707 1.10017 0.71771
 O1641 O 0.36365 0.99709 0.60301
 O1642 O 0.33116 0.98966 0.63421
 C1643 C 0.33917 1.00130 0.61218
 C1644 C 0.32025 1.02041 0.59724
 C1645 C 0.29272 1.02500 0.60627
 H1646 H 0.28496 1.01398 0.62407
 O1647 O 0.64562 1.00564 0.59938
 O1648 O 0.67774 1.01068 0.63141
 C1649 C 0.66917 0.99925 0.60966
 C1650 C 0.68552 0.97637 0.59783
 C1651 C 0.70253 0.96039 0.61528
 H1652 H 0.70512 0.96617 0.63653
 O1653 O 0.62962 0.89078 0.52533
 O1654 O 0.66788 0.86524 0.52420
 C1655 C 0.64376 0.87017 0.53392
 C1656 C 0.63239 0.85200 0.55577
 C1657 C 0.64527 0.82655 0.56179
 H1658 H 0.66279 0.82013 0.54944
 O1659 O 0.37837 1.11242 0.53076
 O1660 O 0.33968 1.13730 0.53089
 C1661 C 0.36379 1.13207 0.54046
 C1662 C 0.37440 1.14849 0.56370
 C1663 C 0.35849 1.17051 0.57395
 H1664 H 0.33942 1.17636 0.56354
 O1665 O 0.41234 0.95214 0.64056
 O1666 O 0.37992 0.94393 0.67165
 C1667 C 0.40446 0.94015 0.66242
 C1668 C 0.42393 0.92121 0.67682
 C1669 C 0.41725 0.91035 0.70269
 H1670 H 0.39809 0.91689 0.71244
 O1671 O 0.59928 1.05188 0.63806
 O1672 O 0.63212 1.05801 0.66913
 C1673 C 0.60775 1.06291 0.66014
 C1674 C 0.58930 1.08229 0.67493
 C1675 C 0.59905 1.09693 0.69783
 H1676 H 0.62000 1.09328 0.70545
 O1677 O 0.50741 0.86041 0.60140
 O1678 O 0.51559 0.82881 0.63314
 C1679 C 0.50376 0.83618 0.61099
 C1680 C 0.48502 0.81676 0.59645
 C1681 C 0.47920 0.79036 0.60729
 H1682 H 0.48913 0.78397 0.62617
 O1683 O 0.50155 1.13869 0.60344
 O1684 O 0.49399 1.17051 0.63478
 C1685 C 0.50543 1.16298 0.61253
 C1686 C 0.52408 1.18246 0.59764
 C1687 C 0.52831 1.20930 0.60771
 H1688 H 0.51729 1.21574 0.62592
 O1689 O 0.39518 0.87412 0.52881
 O1690 O 0.36982 0.83593 0.52895
 C1691 C 0.37478 0.86004 0.53804
 C1692 C 0.35630 0.87165 0.55935
 C1693 C 0.33027 0.85932 0.56442
 H1694 H 0.32406 0.84192 0.55204
 O1695 O 0.61972 1.13121 0.52915
 O1696 O 0.64390 1.17011 0.52913
 C1697 C 0.63980 1.14579 0.53834
 C1698 C 0.65791 1.13413 0.56030
 C1699 C 0.68218 1.14787 0.56953
 H1700 H 0.68836 1.16711 0.55982
 O1701 O 0.51084 1.10334 0.64220
 O1702 O 0.50393 1.13519 0.67364
 C1703 C 0.51855 1.11569 0.66382
 C1704 C 0.54547 1.10809 0.67677
 C1705 C 0.55563 1.12277 0.69941
 H1706 H 0.54276 1.13866 0.70859
 O1707 O 0.49900 0.89661 0.63948
 O1708 O 0.50754 0.86534 0.67144
 C1709 C 0.49256 0.88492 0.66198
 C1710 C 0.46701 0.89403 0.67671
 C1711 C 0.45986 0.88309 0.70253
 H1712 H 0.47358 0.86798 0.71185
 O1713 O 0.63533 1.05915 0.59891
 O1714 O 0.66823 1.06424 0.63008
 C1715 C 0.65622 1.07225 0.60827
 C1716 C 0.66598 1.09762 0.59416
 C1717 C 0.69004 1.11143 0.60307
 H1718 H 0.70190 1.10281 0.61993
 O1719 O 0.37610 0.94459 0.60213
 O1720 O 0.34316 0.93673 0.63279
 C1721 C 0.35561 0.93025 0.61072
 C1722 C 0.34660 0.90571 0.59484
 C1723 C 0.32067 0.89283 0.59987
 H1724 H 0.30717 0.90104 0.61560
 O1725 O 0.57218 1.15727 0.52957
 O1726 O 0.59608 1.19633 0.52948
 C1727 C 0.57643 1.18133 0.53903
 C1728 C 0.55887 1.19150 0.56193
 C1729 C 0.56288 1.21823 0.57252
 H1730 H 0.57808 1.23191 0.56310
 O1731 O 0.43973 0.84338 0.52720
 O1732 O 0.41457 0.80510 0.52731
 C1733 C 0.43476 0.81928 0.53660
 C1734 C 0.45163 0.80834 0.55964
 C1735 C 0.44607 0.78200 0.57074
 H1736 H 0.43074 0.76882 0.56102
 O1737 O 0.60735 0.99873 0.63570
 O1738 O 0.63938 1.00486 0.66758
 C1739 C 0.61888 0.99129 0.65792
 C1740 C 0.60943 0.96601 0.67232
 C1741 C 0.62183 0.95875 0.69726
 H1742 H 0.63654 0.97283 0.70664
 O1743 O 0.40042 1.00464 0.64120
 O1744 O 0.36845 0.99677 0.67281
 C1745 C 0.38881 1.01103 0.66365
 C1746 C 0.39916 1.03549 0.67885
 C1747 C 0.39145 1.04016 0.70620
 H1748 H 0.37805 1.02552 0.71680
 O1749 O 0.44854 1.12704 0.60511
 O1750 O 0.44098 1.15842 0.63689
 C1751 C 0.43398 1.14672 0.61472
 C1752 C 0.40837 1.15560 0.60022
 C1753 C 0.39199 1.17746 0.61036
 H1754 H 0.39844 1.18820 0.62869
 O1755 O 0.56001 0.87326 0.60024
 O1756 O 0.56855 0.84122 0.63148
 C1757 C 0.57468 0.85316 0.60900
 C1758 C 0.59908 0.84379 0.59278
 C1759 C 0.61241 0.81848 0.59869
 H1760 H 0.60463 0.80585 0.61537
 O1761 O 0.65883 0.93567 0.52614
 O1762 O 0.69685 0.90975 0.52587
 C1763 C 0.68239 0.92913 0.53621
 C1764 C 0.69187 0.94206 0.56186
 C1765 C 0.70859 0.92638 0.57971
 H1766 H 0.71595 0.90607 0.57366
 O1767 O 0.34914 1.06748 0.52958
 O1768 O 0.31051 1.09245 0.52955
 C1769 C 0.32483 1.07232 0.53882
 C1770 C 0.31340 1.05501 0.56120
 C1771 C 0.28608 1.05939 0.57056
 H1772 H 0.27294 1.07450 0.56035
 Cu1773 Cu 0.52867 0.88828 0.61662
 Cu1774 Cu 0.53903 0.85037 0.65460
 Cu1775 Cu 0.48029 1.11147 0.62032
 Cu1776 Cu 0.47167 1.14953 0.65819
 Cu1777 Cu 0.41926 0.86284 0.50128
 Cu1778 Cu 0.38868 0.81703 0.50180
 Cu1779 Cu 0.64039 0.91652 0.49883
 Cu1780 Cu 0.68650 0.88607 0.49806
 Cu1781 Cu 0.36776 1.08811 0.50333
 Cu1782 Cu 0.32144 1.11829 0.50360
 Cu1783 Cu 0.59314 1.14026 0.50280
 Cu1784 Cu 0.62195 1.18699 0.50240
 Cu1785 Cu 0.39131 0.97544 0.61862
 Cu1786 Cu 0.35237 0.96598 0.65598
 Cu1787 Cu 0.61869 1.02857 0.61468
 Cu1788 Cu 0.65774 1.03507 0.65261
 C1789 C 0.58994 0.94794 0.66047
 H1790 H 0.58064 0.95328 0.64094
 C1791 C 0.61582 0.93345 0.71002
 C1792 C 0.41730 1.05434 0.66584
 H1793 H 0.42328 1.05091 0.64475
 C1794 C 0.40146 1.06350 0.72013
 C1795 C 0.33026 1.03533 0.57449
 H1796 H 0.35156 1.03225 0.56760
 C1797 C 0.27559 1.04459 0.59307
 C1798 C 0.68029 0.96710 0.57106
 H1799 H 0.66610 0.97858 0.55795
 C1800 C 0.71321 0.93507 0.60652
 C1801 C 0.60914 0.86030 0.57116
 H1802 H 0.59922 0.87998 0.56667
 C1803 C 0.63544 0.80945 0.58312
 C1804 C 0.39945 1.14131 0.57682
 H1805 H 0.41165 1.12411 0.56918
 C1806 C 0.36688 1.18489 0.59743
 C1807 C 0.44894 0.91318 0.66420
 H1808 H 0.45400 0.92136 0.64412
 C1809 C 0.43497 0.89119 0.71585
 C1810 C 0.56238 1.08774 0.66487
 H1811 H 0.55492 1.07672 0.64706
 C1812 C 0.58247 1.11747 0.70994
 C1813 C 0.47143 0.82536 0.57241
 H1814 H 0.47546 0.84587 0.56420
 C1815 C 0.45962 0.77286 0.59464
 C1816 C 0.53922 1.17383 0.57454
 H1817 H 0.53640 1.15299 0.56692
 C1818 C 0.54779 1.22723 0.59550
 C1819 C 0.36421 0.89499 0.57442
 H1820 H 0.38433 0.90455 0.57053
 C1821 C 0.31215 0.86966 0.58450
 C1822 C 0.65029 1.10894 0.57266
 H1823 H 0.63152 1.09839 0.56600
 C1824 C 0.69857 1.13645 0.59087
 O1825 O 0.49146 0.39806 0.86823
 O1826 O 0.49842 0.36604 0.83698
 C1827 C 0.48431 0.38629 0.84613
 C1828 C 0.45893 0.39576 0.83131
 C1829 C 0.45249 0.38511 0.80542
 H1830 H 0.46663 0.37031 0.79637
 O1831 O 0.50254 0.60253 0.86377
 O1832 O 0.49555 0.63355 0.83118
 C1833 C 0.50997 0.61402 0.84153
 C1834 C 0.53633 0.60566 0.82817
 C1835 C 0.54520 0.61944 0.80444
 H1836 H 0.53165 0.63467 0.79496
 O1837 O 0.36671 0.44631 0.90576
 O1838 O 0.33410 0.43819 0.87493
 C1839 C 0.34609 0.43217 0.89741
 C1840 C 0.33620 0.40851 0.91418
 C1841 C 0.30995 0.39643 0.90946
 H1842 H 0.29700 0.40479 0.89329
 O1843 O 0.62969 0.55654 0.90320
 O1844 O 0.66194 0.56242 0.87147
 C1845 C 0.65035 0.56999 0.89359
 C1846 C 0.66018 0.59514 0.90800
 C1847 C 0.68569 0.60803 0.90112
 H1848 H 0.69867 0.59905 0.88536
 O1849 O 0.42808 0.34871 0.98144
 O1850 O 0.40280 0.31054 0.98342
 C1851 C 0.42272 0.32446 0.97293
 C1852 C 0.43946 0.31289 0.95009
 C1853 C 0.43506 0.28566 0.94083
 H1854 H 0.41983 0.27251 0.95091
 O1855 O 0.56588 0.65830 0.97152
 O1856 O 0.59094 0.69662 0.96960
 C1857 C 0.57065 0.68195 0.96111
 C1858 C 0.55310 0.69217 0.93827
 C1859 C 0.55829 0.71834 0.92682
 H1860 H 0.57397 0.73154 0.93597
 O1861 O 0.39214 0.50553 0.86594
 O1862 O 0.35994 0.49776 0.83462
 C1863 C 0.38022 0.51210 0.84368
 C1864 C 0.38946 0.53719 0.82871
 C1865 C 0.37626 0.54509 0.80430
 H1866 H 0.36030 0.53184 0.79571
 O1867 O 0.60146 0.49603 0.86702
 O1868 O 0.63279 0.50252 0.83449
 C1869 C 0.61285 0.48847 0.84482
 C1870 C 0.60402 0.46227 0.83163
 C1871 C 0.61813 0.45288 0.80834
 H1872 H 0.63397 0.46588 0.79902
 O1873 O 0.55184 0.37129 0.90683
 O1874 O 0.55800 0.33824 0.87643
 C1875 C 0.56493 0.34998 0.89859
 C1876 C 0.58835 0.33893 0.91516
 C1877 C 0.59781 0.31151 0.91207
 H1878 H 0.58772 0.29812 0.89736
 O1879 O 0.44064 0.62842 0.89979
 O1880 O 0.43361 0.65937 0.86714
 C1881 C 0.42629 0.64800 0.88951
 C1882 C 0.40026 0.65686 0.90315
 C1883 C 0.38346 0.67756 0.89142
 H1884 H 0.39021 0.68776 0.87278
 O1885 O 0.34124 0.56891 0.97457
 O1886 O 0.30239 0.59349 0.97557
 C1887 C 0.31661 0.57357 0.96595
 C1888 C 0.30460 0.55642 0.94382
 C1889 C 0.27691 0.56047 0.93553
 H1890 H 0.26400 0.57538 0.94621
 O1891 O 0.65324 0.42978 0.97527
 O1892 O 0.69111 0.40375 0.97426
 C1893 C 0.67639 0.42325 0.96425
 C1894 C 0.68542 0.43706 0.93847
 C1895 C 0.70274 0.42261 0.92025
 H1896 H 0.71025 0.40211 0.92568
 O1897 O 0.44903 0.59139 0.86273
 O1898 O 0.44209 0.62231 0.83005
 C1899 C 0.43750 0.59853 0.84035
 C1900 C 0.41765 0.57939 0.82686
 C1901 C 0.40423 0.58693 0.80232
 H1902 H 0.40933 0.60647 0.79253
 O1903 O 0.54530 0.40875 0.86876
 O1904 O 0.55252 0.37614 0.83819
 C1905 C 0.55727 0.40038 0.84714
 C1906 C 0.57740 0.41891 0.83280
 C1907 C 0.59189 0.40992 0.80937
 H1908 H 0.58791 0.38949 0.80118
 O1909 O 0.63960 0.50284 0.90321
 O1910 O 0.67098 0.50853 0.87056
 C1911 C 0.66292 0.49661 0.89242
 C1912 C 0.67949 0.47333 0.90371
 C1913 C 0.69731 0.45862 0.88606
 H1914 H 0.70031 0.46561 0.86515
 O1915 O 0.35353 0.49850 0.90214
 O1916 O 0.32107 0.49070 0.87111
 C1917 C 0.32910 0.50281 0.89274
 C1918 C 0.31042 0.52247 0.90725
 C1919 C 0.28255 0.52731 0.89879
 H1920 H 0.27393 0.51630 0.88149
 O1921 O 0.36999 0.61419 0.97230
 O1922 O 0.33105 0.63866 0.97256
 C1923 C 0.35498 0.63359 0.96254
 C1924 C 0.36517 0.64972 0.93872
 C1925 C 0.34848 0.67041 0.92661
 H1926 H 0.32851 0.67556 0.93566
 O1927 O 0.62303 0.38558 0.97959
 O1928 O 0.66092 0.35948 0.97966
 C1929 C 0.63630 0.36451 0.97119
 C1930 C 0.62299 0.34601 0.95108
 C1931 C 0.63215 0.31862 0.94790
 H1932 H 0.64920 0.31107 0.96043
 O1933 O 0.59174 0.54923 0.86571
 O1934 O 0.62367 0.55596 0.83383
 C1935 C 0.59947 0.56061 0.84344
 C1936 C 0.58034 0.58000 0.82910
 C1937 C 0.58893 0.59418 0.80527
 H1938 H 0.60950 0.59042 0.79682
 O1939 O 0.40276 0.45274 0.86654
 O1940 O 0.37077 0.44450 0.83516
 C1941 C 0.39524 0.44076 0.84466
 C1942 C 0.41520 0.42205 0.83056
 C1943 C 0.40921 0.41125 0.80452
 H1944 H 0.39009 0.41734 0.79430
 O1945 O 0.49375 0.64080 0.89948
 O1946 O 0.48673 0.67183 0.86691
 C1947 C 0.49824 0.66468 0.88928
 C1948 C 0.51784 0.68386 0.90308
 C1949 C 0.52359 0.71011 0.89174
 H1950 H 0.51299 0.71655 0.87322
 O1951 O 0.49843 0.36247 0.90739
 O1952 O 0.50454 0.33001 0.87638
 C1953 C 0.49341 0.33830 0.89851
 C1954 C 0.47414 0.31983 0.91385
 C1955 C 0.46988 0.29248 0.90532
 H1956 H 0.48112 0.28479 0.88770
 O1957 O 0.61233 0.63041 0.97198
 O1958 O 0.63746 0.66872 0.97015
 C1959 C 0.63273 0.64416 0.96219
 C1960 C 0.65115 0.63148 0.94138
 C1961 C 0.67674 0.64390 0.93451
 H1962 H 0.68298 0.66231 0.94536
 O1963 O 0.38334 0.37866 0.98133
 O1964 O 0.35774 0.34065 0.98323
 C1965 C 0.36266 0.36444 0.97308
 C1966 C 0.34428 0.37559 0.95133
 C1967 C 0.31794 0.36376 0.94644
 H1968 H 0.31125 0.34668 0.95920
 Cu1969 Cu 0.52123 0.38851 0.89076
 Cu1970 Cu 0.52902 0.34949 0.85374
 Cu1971 Cu 0.47216 0.61265 0.88471
 Cu1972 Cu 0.46382 0.64986 0.84551
 Cu1973 Cu 0.38194 0.47648 0.88822
 Cu1974 Cu 0.34333 0.46682 0.85073
 Cu1975 Cu 0.61250 0.52587 0.88812
 Cu1976 Cu 0.65055 0.53318 0.84942
 C1977 C 0.44029 0.41441 0.84358
 H1978 H 0.44497 0.42240 0.86373
 C1979 C 0.42782 0.39280 0.79165
 C1980 C 0.55389 0.58578 0.84026
 H1981 H 0.54729 0.57542 0.85888
 C1982 C 0.57154 0.61422 0.79310
 C1983 C 0.35310 0.39809 0.93530
 H1984 H 0.37345 0.40722 0.93897
 C1985 C 0.30035 0.37417 0.92572
 C1986 C 0.64321 0.60699 0.92826
 H1987 H 0.62336 0.59747 0.93340
 C1988 C 0.69430 0.63246 0.91442
 C1989 C 0.45917 0.32971 0.93651
 H1990 H 0.46235 0.35085 0.94314
 C1991 C 0.45044 0.27529 0.91861
 C1992 C 0.53260 0.67517 0.92648
 H1993 H 0.52882 0.65472 0.93496
 C1994 C 0.54399 0.72737 0.90337
 C1995 C 0.41030 0.55432 0.83971
 H1996 H 0.42018 0.54857 0.85886
 C1997 C 0.38335 0.56997 0.79104
 C1998 C 0.58353 0.44523 0.84364
 H1999 H 0.57297 0.45212 0.86198
 C2000 C 0.61257 0.42670 0.79729
 C2001 C 0.60093 0.35586 0.93487
 H2002 H 0.59387 0.37705 0.93725
 C2003 C 0.61939 0.30102 0.92879
 C2004 C 0.39110 0.64328 0.92693
 H2005 H 0.40385 0.62705 0.93587
 C2006 C 0.35749 0.68440 0.90291
 C2007 C 0.32108 0.53716 0.92981
 H2008 H 0.34256 0.53410 0.93615
 C2009 C 0.26565 0.54608 0.91326
 C2010 C 0.67373 0.46246 0.92997
 H2011 H 0.65918 0.47310 0.94325
 C2012 C 0.70810 0.43290 0.89387
 O2013 O 0.55068 0.41464 1.14167
 O2014 O 0.55784 0.38406 1.17461
 C2015 C 0.56236 0.40779 1.16400
 C2016 C 0.58169 0.42764 1.17728
 C2017 C 0.59376 0.42178 1.20292
 H2018 H 0.58860 0.40262 1.21338
 O2019 O 0.45420 0.60021 1.13794
 O2020 O 0.44748 0.63254 1.16895
 C2021 C 0.44374 0.60802 1.16055
 C2022 C 0.42698 0.58821 1.17688
 C2023 C 0.42118 0.59282 1.20474
 H2024 H 0.42939 0.61112 1.21463
 O2025 O 0.36170 0.50441 1.10632
 O2026 O 0.33024 0.49920 1.13893
 C2027 C 0.33765 0.50962 1.11613
 C2028 C 0.31830 0.52806 1.10083
 C2029 C 0.29100 0.53309 1.11047
 H2030 H 0.28371 0.52346 1.12923
 O2031 O 0.64269 0.50731 1.09788
 O2032 O 0.67534 0.51476 1.12881
 C2033 C 0.66702 0.50267 1.10724
 C2034 C 0.68546 0.48242 1.09333
 C2035 C 0.71238 0.47681 1.10346
 H2036 H 0.71982 0.48790 1.12119
 O2037 O 0.62662 0.38692 1.03266
 O2038 O 0.66511 0.36179 1.03234
 C2039 C 0.64112 0.36695 1.04220
 C2040 C 0.62997 0.34981 1.06514
 C2041 C 0.64273 0.32467 1.07281
 H2042 H 0.66041 0.31752 1.06105
 O2043 O 0.37235 0.61561 1.02566
 O2044 O 0.33378 0.64067 1.02565
 C2045 C 0.35838 0.63615 1.03436
 C2046 C 0.37076 0.65490 1.05493
 C2047 C 0.35920 0.68119 1.05942
 H2048 H 0.34104 0.68738 1.04774
 O2049 O 0.41061 0.46007 1.14465
 O2050 O 0.37885 0.45355 1.17674
 C2051 C 0.40316 0.44918 1.16722
 C2052 C 0.42297 0.43099 1.18215
 C2053 C 0.41735 0.42187 1.20900
 H2054 H 0.39863 0.42897 1.21922
 O2055 O 0.59527 0.55458 1.13414
 O2056 O 0.62802 0.56285 1.16477
 C2057 C 0.60359 0.56716 1.15539
 C2058 C 0.58491 0.58760 1.16872
 C2059 C 0.59366 0.60202 1.19216
 H2060 H 0.61391 0.59765 1.20111
 O2061 O 0.50365 0.36671 1.10645
 O2062 O 0.50997 0.33579 1.13924
 C2063 C 0.49840 0.34318 1.11689
 C2064 C 0.47822 0.32456 1.10313
 C2065 C 0.47337 0.29774 1.11336
 H2066 H 0.48472 0.29071 1.13123
 O2067 O 0.49710 0.64815 1.09714
 O2068 O 0.49008 0.68061 1.12797
 C2069 C 0.50137 0.67254 1.10593
 C2070 C 0.52059 0.69128 1.09102
 C2071 C 0.52621 0.71790 1.10105
 H2072 H 0.51540 0.72497 1.11916
 O2073 O 0.38405 0.38005 1.03444
 O2074 O 0.35761 0.34258 1.03603
 C2075 C 0.36314 0.36697 1.04403
 C2076 C 0.34529 0.38072 1.06456
 C2077 C 0.31615 0.37628 1.06526
 H2078 H 0.30649 0.36219 1.05090
 O2079 O 0.61262 0.63146 1.02490
 O2080 O 0.63805 0.66957 1.02287
 C2081 C 0.63346 0.64561 1.03280
 C2082 C 0.65260 0.63384 1.05353
 C2083 C 0.67890 0.64580 1.05824
 H2084 H 0.68477 0.66415 1.04684
 O2085 O 0.50729 0.61054 1.13337
 O2086 O 0.50091 0.64307 1.16426
 C2087 C 0.51522 0.62306 1.15473
 C2088 C 0.54174 0.61485 1.16818
 C2089 C 0.55091 0.62898 1.19144
 H2090 H 0.53780 0.64489 1.20024
 O2091 O 0.49751 0.40341 1.14434
 O2092 O 0.50454 0.37287 1.17735
 C2093 C 0.49064 0.39289 1.16728
 C2094 C 0.46592 0.40368 1.18208
 C2095 C 0.45995 0.39469 1.20879
 H2096 H 0.47399 0.38006 1.21840
 O2097 O 0.63232 0.56036 1.09601
 O2098 O 0.66550 0.56793 1.12642
 C2099 C 0.65319 0.57432 1.10424
 C2100 C 0.66261 0.59860 1.08809
 C2101 C 0.68897 0.61063 1.09246
 H2102 H 0.70294 0.60128 1.10725
 O2103 O 0.37378 0.45175 1.10656
 O2104 O 0.34120 0.44642 1.13815
 C2105 C 0.35266 0.43892 1.11590
 C2106 C 0.34063 0.41589 1.10000
 C2107 C 0.31180 0.41122 1.10054
 H2108 H 0.29869 0.42385 1.11358
 O2109 O 0.56798 0.66199 1.02482
 O2110 O 0.59310 0.70027 1.02304
 C2111 C 0.57312 0.68634 1.03327
 C2112 C 0.55612 0.69805 1.05577
 C2113 C 0.56171 0.72459 1.06627
 H2114 H 0.57789 0.73723 1.05702
 O2115 O 0.42983 0.35118 1.03497
 O2116 O 0.40398 0.31341 1.03726
 C2117 C 0.42465 0.32767 1.04557
 C2118 C 0.44237 0.31704 1.06822
 C2119 C 0.43805 0.29025 1.07866
 H2120 H 0.42260 0.27705 1.06916
 O2121 O 0.60613 0.50156 1.13666
 O2122 O 0.63852 0.50962 1.16772
 C2123 C 0.61803 0.49534 1.15910
 C2124 C 0.60854 0.47073 1.17484
 C2125 C 0.62017 0.46464 1.20049
 H2126 H 0.63485 0.47907 1.20939
 O2127 O 0.40028 0.51288 1.14245
 O2128 O 0.36930 0.50668 1.17537
 C2129 C 0.38948 0.52028 1.16497
 C2130 C 0.40052 0.54507 1.17892
 C2131 C 0.39482 0.54988 1.20660
 H2132 H 0.38191 0.53517 1.21756
 O2133 O 0.44443 0.63416 1.09731
 O2134 O 0.43756 0.66694 1.12784
 C2135 C 0.43041 0.65462 1.10596
 C2136 C 0.40568 0.66400 1.09018
 C2137 C 0.39401 0.69040 1.09426
 H2138 H 0.40345 0.70414 1.10903
 O2139 O 0.55757 0.37456 1.10706
 O2140 O 0.56421 0.34350 1.13965
 C2141 C 0.57122 0.35418 1.11689
 C2142 C 0.59571 0.34335 1.10170
 C2143 C 0.60882 0.31826 1.10926
 H2144 H 0.60074 0.30642 1.12639
 O2145 O 0.65515 0.43281 1.02897
 O2146 O 0.69372 0.40785 1.02832
 C2147 C 0.67977 0.42824 1.03748
 C2148 C 0.69175 0.44618 1.05905
 C2149 C 0.71861 0.44098 1.06943
 H2150 H 0.73120 0.42479 1.06043
 O2151 O 0.34352 0.57018 1.02822
 O2152 O 0.30489 0.59511 1.02890
 C2153 C 0.31971 0.57545 1.03842
 C2154 C 0.30945 0.55932 1.06219
 C2155 C 0.28212 0.56331 1.07167
 H2156 H 0.26807 0.57714 1.06081
 Cu2157 Cu 0.52680 0.39288 1.12162
 Cu2158 Cu 0.53483 0.35595 1.16097
 Cu2159 Cu 0.47616 0.62002 1.11333
 Cu2160 Cu 0.46817 0.65894 1.15042
 Cu2161 Cu 0.40896 0.36838 1.00791
 Cu2162 Cu 0.37817 0.32282 1.01030
 Cu2163 Cu 0.63580 0.41140 1.00430
 Cu2164 Cu 0.68178 0.38097 1.00364
 Cu2165 Cu 0.36067 0.58972 1.00016
 Cu2166 Cu 0.31408 0.61937 1.00086
 Cu2167 Cu 0.58706 0.64179 0.99855
 Cu2168 Cu 0.61724 0.68776 0.99621
 Cu2169 Cu 0.38977 0.48281 1.12181
 Cu2170 Cu 0.35175 0.47575 1.16058
 Cu2171 Cu 0.61585 0.53019 1.11310
 Cu2172 Cu 0.65509 0.53954 1.15007
 C2173 C 0.58910 0.45227 1.16355
 H2174 H 0.58032 0.45671 1.14358
 C2175 C 0.61324 0.44011 1.21457
 C2176 C 0.41680 0.56419 1.16434
 H2177 H 0.42103 0.56065 1.14286
 C2178 C 0.40543 0.57347 1.21994
 C2179 C 0.32729 0.54130 1.07662
 H2180 H 0.34845 0.53818 1.06939
 C2181 C 0.27291 0.55045 1.09572
 C2182 C 0.67547 0.46717 1.07094
 H2183 H 0.65453 0.47098 1.06337
 C2184 C 0.72904 0.45600 1.09177
 C2185 C 0.60641 0.35875 1.07961
 H2186 H 0.59661 0.37818 1.07392
 C2187 C 0.63240 0.30859 1.09487
 C2188 C 0.39409 0.64656 1.07025
 H2189 H 0.40296 0.62620 1.06694
 C2190 C 0.37094 0.69940 1.07862
 C2191 C 0.44750 0.42208 1.16908
 H2192 H 0.45186 0.42882 1.14834
 C2193 C 0.43583 0.40376 1.22263
 C2194 C 0.55880 0.59407 1.15701
 H2195 H 0.55205 0.58340 1.13873
 C2196 C 0.57685 0.62294 1.20340
 C2197 C 0.46270 0.33399 1.08044
 H2198 H 0.46591 0.35484 1.07274
 C2199 C 0.45327 0.28047 1.10131
 C2200 C 0.53531 0.68174 1.06815
 H2201 H 0.53130 0.66105 1.06061
 C2202 C 0.54683 0.73467 1.08899
 C2203 C 0.35725 0.40067 1.08186
 H2204 H 0.37954 0.40466 1.08094
 C2205 C 0.29930 0.39223 1.08267
 C2206 C 0.64475 0.61017 1.06838
 H2207 H 0.62436 0.60103 1.06496
 C2208 C 0.69751 0.63412 1.07735
 N2209 N 1.06761 1.07833 1.25917
 N2210 N 1.07737 1.08294 1.28551
 C2211 C 1.08554 1.10965 1.28700
 C2212 C 1.08077 1.12283 1.26195
 C2213 C 1.07008 1.10216 1.24501
 H2214 H 1.08751 1.14335 1.25586
 H2215 H 1.06220 1.05897 1.25135
 H2216 H 1.07907 1.06760 1.30055
 N2217 N 1.08829 0.65986 0.72890
 N2218 N 1.10162 0.66933 0.75055
 C2219 C 1.11758 0.64884 0.76102
 C2220 C 1.11445 0.62523 0.74515
 C2221 C 1.09541 0.63314 0.72502
 H2222 H 1.12375 0.60503 0.74832
 H2223 H 1.07466 0.67173 0.71697
 H2224 H 1.09935 0.68942 0.75799
 N2225 N 0.58603 1.16128 0.73640
 N2226 N 0.59980 1.17074 0.75961
 C2227 C 0.61556 1.14971 0.76937
 C2228 C 0.61262 1.12669 0.75253
 C2229 C 0.59363 1.13474 0.73236
 H2230 H 0.62188 1.10642 0.75524
 H2231 H 0.57252 1.17324 0.72444
 H2232 H 0.59736 1.19058 0.76762
 N2233 N 0.57866 0.66589 1.23140
 N2234 N 0.59078 0.67443 1.25582
 C2235 C 0.60571 0.65293 1.26577
 C2236 C 0.60376 0.63052 1.24808
 C2237 C 0.58645 0.63945 1.22696
 H2238 H 0.61296 0.61018 1.25052
 H2239 H 0.56622 0.67843 1.21890
 H2240 H 0.58814 0.69406 1.26426
 N2241 N 0.93392 0.84467 1.23583
 N2242 N 0.92082 0.83531 1.25958
 C2243 C 0.90405 0.85584 1.26841
 C2244 C 0.90590 0.87846 1.25072
 C2245 C 0.92488 0.87065 1.23063
 H2246 H 0.89511 0.89807 1.25227
 H2247 H 0.94750 0.83276 1.22402
 H2248 H 0.92401 0.81580 1.26833
 N2249 N 0.94642 0.37230 0.76028
 N2250 N 0.93222 0.36406 0.78381
 C2251 C 0.90601 0.37413 0.78223
 C2252 C 0.90288 0.38909 0.75800
 C2253 C 0.92855 0.38689 0.74439
 H2254 H 0.88376 0.39823 0.75036
 H2255 H 0.96716 0.36708 0.75623
 H2256 H 0.94092 0.35192 0.79936
 N2257 N 0.44322 0.86237 0.75834
 N2258 N 0.42872 0.85351 0.77967
 C2259 C 0.40299 0.86470 0.77857
 C2260 C 0.40084 0.88133 0.75555
 C2261 C 0.42689 0.87916 0.74291
 H2262 H 0.38222 0.89166 0.74821
 H2263 H 0.46377 0.85634 0.75442
 H2264 H 0.43621 0.83949 0.79427
 N2265 N 0.44812 0.37920 1.26641
 N2266 N 0.43406 0.36915 1.28934
 C2267 C 0.40730 0.37758 1.28752
 C2268 C 0.40363 0.39322 1.26378
 C2269 C 0.42960 0.39319 1.25070
 H2270 H 0.38414 0.40139 1.25595
 H2271 H 0.46925 0.37557 1.26256
 H2272 H 0.44322 0.35698 1.30461
 N2273 N 0.92109 1.05891 0.73625
 N2274 N 0.91612 1.06813 0.70972
 C2275 C 0.88959 1.07755 0.70862
 C2276 C 0.87684 1.07409 0.73404
 C2277 C 0.89763 1.06299 0.75083
 H2278 H 0.85686 1.08229 0.74047
 H2279 H 0.94064 1.05311 0.74388
 H2280 H 0.93130 1.06910 0.69441
 N2281 N 0.84648 0.56740 0.25699
 N2282 N 0.83864 0.57958 0.23400
 C2283 C 0.85871 0.59758 0.22638
 C2284 C 0.88030 0.59696 0.24525
 C2285 C 0.87170 0.57744 0.26446
 H2286 H 0.89935 0.60903 0.24509
 H2287 H 0.83420 0.55301 0.26755
 H2288 H 0.81975 0.57561 0.22409
 N2289 N 0.34395 1.07357 0.26424
 N2290 N 0.33563 1.08487 0.24095
 C2291 C 0.35620 1.10135 0.23153
 C2292 C 0.37859 1.10072 0.24955
 C2293 C 0.36999 1.08266 0.27005
 H2294 H 0.39842 1.11135 0.24780
 H2295 H 0.33164 1.06016 0.27596
 H2296 H 0.31623 1.08115 0.23193
 N2297 N 0.34196 0.57019 0.75966
 N2298 N 0.33470 0.58138 0.73601
 C2299 C 0.35610 0.59704 0.72688
 C2300 C 0.37792 0.59595 0.74550
 C2301 C 0.36812 0.57851 0.76602
 H2302 H 0.39811 0.60595 0.74411
 H2303 H 0.32886 0.55745 0.77130
 H2304 H 0.31539 0.57827 0.72658
 N2305 N 1.15226 0.93783 0.75275
 N2306 N 1.16078 0.92612 0.72989
 C2307 C 1.14111 0.90802 0.72176
 C2308 C 1.11907 0.90800 0.74019
 C2309 C 1.12699 0.92742 0.75958
 H2310 H 1.10013 0.89577 0.73960
 H2311 H 1.16413 0.95221 0.76360
 H2312 H 1.17981 0.93057 0.72043
 N2313 N 1.14249 0.43459 0.25034
 N2314 N 1.14858 0.42548 0.22573
 C2315 C 1.12776 0.40881 0.21734
 C2316 C 1.10753 0.40684 0.23758
 C2317 C 1.11759 0.42403 0.25812
 H2318 H 1.08821 0.39521 0.23713
 H2319 H 1.15571 0.44732 0.26170
 H2320 H 1.16710 0.43014 0.21539
 N2321 N 0.65822 0.93617 0.25973
 N2322 N 0.66684 0.92412 0.23536
 C2323 C 0.64586 0.90777 0.22657
 C2324 C 0.62362 0.90888 0.24494
 C2325 C 0.63221 0.92697 0.26539
 H2326 H 0.60382 0.89814 0.24363
 H2327 H 0.67069 0.94914 0.27163
 H2328 H 0.68625 0.92765 0.22626
 N2329 N 0.65654 0.42465 0.77001
 N2330 N 0.66594 0.41229 0.74606
 C2331 C 0.64470 0.39705 0.73602
 C2332 C 0.62157 0.39905 0.75328
 C2333 C 0.62982 0.41676 0.77417
 H2334 H 0.60121 0.38966 0.75068
 H2335 H 0.66874 0.43738 0.78244
 H2336 H 0.68591 0.41504 0.73792
 N2337 N 1.23990 1.16361 1.06268
 N2338 N 1.26649 1.16914 1.07300
 C2339 C 1.26951 1.15430 1.09623
 C2340 C 1.24526 1.13925 1.10132
 C2341 C 1.22711 1.14557 1.07983
 H2342 H 1.24145 1.12544 1.11838
 H2343 H 1.23239 1.17168 1.04427
 H2344 H 1.28101 1.18220 1.06358
 N2345 N 1.24459 0.65087 0.55438
 N2346 N 1.27132 0.65698 0.56406
 C2347 C 1.27421 0.64418 0.58845
 C2348 C 1.24981 0.62985 0.59486
 C2349 C 1.23168 0.63465 0.57313
 H2350 H 1.24555 0.61792 0.61316
 H2351 H 1.23691 0.65728 0.53539
 H2352 H 1.28601 0.66902 0.55360
 N2353 N 0.73178 1.17673 0.59547
 N2354 N 0.75688 1.18150 0.60587
 C2355 C 0.76613 1.15816 0.61807
 C2356 C 0.74622 1.13761 0.61535
 C2357 C 0.72464 1.15015 0.60063
 H2358 H 0.74811 1.11617 0.62159
 H2359 H 0.72012 1.19155 0.58488
 H2360 H 0.76749 1.20031 0.60410
 N2361 N 0.73849 0.66391 1.06360
 N2362 N 0.76377 0.66976 1.07283
 C2363 C 0.76774 0.65588 1.09644
 C2364 C 0.74408 0.64057 1.10261
 C2365 C 0.72585 0.64618 1.08120
 H2366 H 0.74074 0.62720 1.12012
 H2367 H 0.73061 0.67154 1.04514
 H2368 H 0.77801 0.68264 1.06274
 N2369 N 1.20323 0.89535 0.86094
 N2370 N 1.21971 0.87537 0.84848
 C2371 C 1.24529 0.88641 0.84463
 C2372 C 1.24578 0.91359 0.85418
 C2373 C 1.21912 0.91801 0.86482
 H2374 H 1.26393 0.92672 0.85670
 H2375 H 1.18329 0.89177 0.86892
 H2376 H 1.21327 0.85512 0.84452
 N2377 N 1.20430 0.38346 0.36553
 N2378 N 1.22372 0.36645 0.35283
 C2379 C 1.24678 0.38170 0.34789
 C2380 C 1.24261 0.40875 0.35683
 C2381 C 1.21603 0.40861 0.36850
 H2382 H 1.25838 0.42466 0.35910
 H2383 H 1.18573 0.37652 0.37450
 H2384 H 1.22143 0.34507 0.35051
 N2385 N 0.77133 0.96481 0.37369
 N2386 N 0.79221 0.95015 0.36354
 C2387 C 0.79108 0.92445 0.37433
 C2388 C 0.76872 0.92261 0.39221
 C2389 C 0.75650 0.94869 0.39110
 H2390 H 0.76146 0.90446 0.40318
 H2391 H 0.76740 0.98545 0.36851
 H2392 H 0.80664 0.95770 0.34932
 N2393 N 0.70556 0.38942 0.86813
 N2394 N 0.72374 0.37298 0.85316
 C2395 C 0.74734 0.38763 0.84875
 C2396 C 0.74465 0.41386 0.86033
 C2397 C 0.71847 0.41364 0.87294
 H2398 H 0.76107 0.42898 0.86325
 H2399 H 0.68675 0.38258 0.87667
 H2400 H 0.72048 0.35201 0.84908
 N2401 N 0.76616 0.84893 1.06314
 N2402 N 0.74051 0.84373 1.07176
 C2403 C 0.73682 0.85638 1.09594
 C2404 C 0.76107 0.87025 1.10312
 C2405 C 0.77935 0.86495 1.08172
 H2406 H 0.76482 0.88233 1.12132
 H2407 H 0.77397 0.84201 1.04446
 H2408 H 0.72590 0.83206 1.06093
 N2409 N 0.76297 0.34286 0.56808
 N2410 N 0.73759 0.33761 0.57740
 C2411 C 0.73452 0.35025 0.60167
 C2412 C 0.75895 0.36418 0.60818
 C2413 C 0.77666 0.35893 0.58624
 H2414 H 0.76313 0.37639 0.62619
 H2415 H 0.77021 0.33600 0.54916
 H2416 H 0.72273 0.32593 0.56692
 N2417 N 0.27588 0.83241 0.57736
 N2418 N 0.24975 0.82735 0.58452
 C2419 C 0.24099 0.84802 0.60070
 C2420 C 0.26230 0.86711 0.60406
 C2421 C 0.28426 0.85655 0.58874
 H2422 H 0.26161 0.88612 0.61562
 H2423 H 0.28751 0.81909 0.56508
 H2424 H 0.23846 0.80986 0.57862
 N2425 N 0.25538 0.41801 1.07698
 N2426 N 0.22745 0.41388 1.08358
 C2427 C 0.22408 0.38682 1.08954
 C2428 C 0.24946 0.37290 1.08646
 C2429 C 0.26868 0.39353 1.07945
 H2430 H 0.25417 0.35191 1.09285
 H2431 H 0.26466 0.43742 1.07425
 H2432 H 0.21268 0.42969 1.08539
 N2433 N 0.72007 1.05051 0.92821
 N2434 N 0.69752 1.06685 0.92028
 C2435 C 0.70186 1.07487 0.89423
 C2436 C 0.72708 1.06390 0.88488
 C2437 C 0.73836 1.04961 0.90725
 H2438 H 0.73817 1.07016 0.86656
 H2439 H 0.72406 1.04452 0.94840
 H2440 H 0.68183 1.07376 0.93344
 N2441 N 0.73046 0.53997 0.37677
 N2442 N 0.70938 0.55454 0.36675
 C2443 C 0.71022 0.58006 0.37768
 C2444 C 0.73261 0.58191 0.39549
 C2445 C 0.74519 0.55601 0.39416
 H2446 H 0.73977 0.60003 0.40637
 H2447 H 0.73465 0.51949 0.37139
 H2448 H 0.69507 0.54711 0.35244
 N2449 N 0.22949 1.03281 0.39164
 N2450 N 0.20489 1.04574 0.38323
 C2451 C 0.20677 1.07272 0.39010
 C2452 C 0.23205 1.07751 0.40331
 C2453 C 0.24577 1.05206 0.40355
 H2454 H 0.24017 1.09711 0.41040
 H2455 H 0.23407 1.01187 0.38876
 H2456 H 0.18875 1.03575 0.37285
 N2457 N 0.21657 0.55375 0.92622
 N2458 N 0.19531 0.57082 0.91653
 C2459 C 0.20147 0.57771 0.89053
 C2460 C 0.22669 0.56538 0.88299
 C2461 C 0.23599 0.55135 0.90637
 H2462 H 0.23912 0.57057 0.86518
 H2463 H 0.21902 0.54813 0.94675
 H2464 H 0.17929 0.57897 0.92856
 N2465 N 1.11711 1.21937 1.12190
 N2466 N 1.13270 1.23980 1.13122
 C2467 C 1.11628 1.26204 1.13489
 C2468 C 1.08901 1.25568 1.12752
 C2469 C 1.09051 1.22828 1.11928
 H2470 H 1.07175 1.26993 1.12476
 H2471 H 1.12504 1.20039 1.11526
 H2472 H 1.15443 1.23904 1.13315
 N2473 N 1.04107 0.76582 0.61891
 N2474 N 1.05453 0.78766 0.62839
 C2475 C 1.08072 0.78743 0.61830
 C2476 C 1.08414 0.76463 0.60156
 C2477 C 1.05846 0.75128 0.60263
 H2478 H 1.10297 0.75792 0.59129
 H2479 H 1.02035 0.76107 0.62372
 H2480 H 1.04583 0.80214 0.64168
 N2481 N 0.53671 1.26800 0.62542
 N2482 N 0.55011 1.28961 0.63550
 C2483 C 0.57600 1.29019 0.62474
 C2484 C 0.57929 1.26822 0.60699
 C2485 C 0.55392 1.25440 0.60815
 H2486 H 0.59810 1.26203 0.59636
 H2487 H 0.51627 1.26261 0.63074
 H2488 H 0.54171 1.30326 0.64981
 N2489 N 0.53721 0.77619 1.11832
 N2490 N 0.55134 0.79726 1.12857
 C2491 C 0.57749 0.79658 1.11847
 C2492 C 0.58022 0.77428 1.10093
 C2493 C 0.55416 0.76163 1.10159
 H2494 H 0.59893 0.76725 1.09065
 H2495 H 0.51638 0.77187 1.12311
 H2496 H 0.54317 0.81146 1.14248
 N2497 N 0.83799 1.23433 0.92645
 N2498 N 0.83045 1.25826 0.91562
 C2499 C 0.84596 1.26279 0.89314
 C2500 C 0.86419 1.24101 0.88923
 C2501 C 0.85829 1.22301 0.91081
 H2502 H 0.87867 1.23838 0.87246
 H2503 H 0.82902 1.22631 0.94425
 H2504 H 0.81498 1.27113 0.92364
 N2505 N 0.84264 0.73702 0.43275
 N2506 N 0.83687 0.76213 0.42347
 C2507 C 0.84980 0.76564 0.39926
 C2508 C 0.86442 0.74179 0.39274
 C2509 C 0.85934 0.72396 0.41459
 H2510 H 0.87695 0.73807 0.37473
 H2511 H 0.83565 0.72952 0.45160
 H2512 H 0.82467 0.77655 0.43391
 N2513 N 0.34387 1.23601 0.43297
 N2514 N 0.33610 1.25968 0.42171
 C2515 C 0.35128 1.26377 0.39892
 C2516 C 0.36952 1.24196 0.39526
 C2517 C 0.36396 1.22438 0.41730
 H2518 H 0.38357 1.23886 0.37821
 H2519 H 0.33513 1.22825 0.45099
 H2520 H 0.32056 1.27260 0.42952
 N2521 N 0.31171 0.70751 0.89228
 N2522 N 0.30280 0.72934 0.87832
 C2523 C 0.32504 0.74178 0.86662
 C2524 C 0.34909 0.72737 0.87325
 C2525 C 0.33976 0.70578 0.88974
 H2526 H 0.37041 0.73256 0.86787
 H2527 H 0.29862 0.69410 0.90315
 H2528 H 0.28192 0.73551 0.87716
 N2529 N 1.15207 0.76515 0.93525
 N2530 N 1.15699 0.73955 0.92715
 C2531 C 1.14708 0.73659 0.90155
 C2532 C 1.13524 0.76141 0.89292
 C2533 C 1.13892 0.77914 0.91500
 H2534 H 1.12562 0.76597 0.87339
 H2535 H 1.15725 0.77251 0.95463
 H2536 H 1.16696 0.72457 0.93914
 N2537 N 1.17417 0.26944 0.40339
 N2538 N 1.17973 0.24449 0.39382
 C2539 C 1.15674 0.23458 0.38135
 C2540 C 1.13549 0.25408 0.38298
 C2541 C 1.14739 0.27597 0.39747
 H2542 H 1.11407 0.25185 0.37625
 H2543 H 1.18865 0.28154 0.41393
 H2544 H 1.19887 0.23438 0.39624
 N2545 N 0.65490 0.76619 0.43579
 N2546 N 0.66093 0.74110 0.42688
 C2547 C 0.64957 0.73809 0.40191
 C2548 C 0.63568 0.76218 0.39452
 C2549 C 0.63962 0.77964 0.41662
 H2550 H 0.62449 0.76643 0.37576
 H2551 H 0.66076 0.77348 0.45501
 H2552 H 0.67229 0.72642 0.43800
 N2553 N 0.64032 0.25720 0.94753
 N2554 N 0.64600 0.23188 0.93902
 C2555 C 0.63773 0.22969 0.91281
 C2556 C 0.62617 0.25462 0.90420
 C2557 C 0.62833 0.27165 0.92690
 H2558 H 0.61808 0.25988 0.88418
 H2559 H 0.64442 0.26418 0.96731
 H2560 H 0.65551 0.21666 0.95107
 N2561 N 0.96697 0.73646 1.12510
 N2562 N 0.95241 0.71538 1.13501
 C2563 C 0.92685 0.71575 1.12349
 C2564 C 0.92498 0.73783 1.10543
 C2565 C 0.95089 0.75064 1.10713
 H2566 H 0.90687 0.74444 1.09388
 H2567 H 0.98750 0.74093 1.13081
 H2568 H 0.95993 0.70134 1.14955
 N2569 N 0.96984 0.22735 0.61731
 N2570 N 0.95733 0.20378 0.62376
 C2571 C 0.93087 0.20466 0.61425
 C2572 C 0.92630 0.22965 0.60119
 C2573 C 0.95156 0.24349 0.60356
 H2574 H 0.90707 0.23716 0.59217
 H2575 H 0.99053 0.23209 0.62223
 H2576 H 0.96678 0.18780 0.63485
 N2577 N 0.46774 0.73195 0.62572
 N2578 N 0.45369 0.71001 0.63440
 C2579 C 0.42876 0.70951 0.62163
 C2580 C 0.42677 0.73196 0.60403
 C2581 C 0.45196 0.74589 0.60732
 H2582 H 0.40893 0.73808 0.59183
 H2583 H 0.48773 0.73716 0.63252
 H2584 H 0.46110 0.69596 0.64900
 N2585 N 0.46362 0.23862 1.13059
 N2586 N 0.45038 0.21600 1.13878
 C2587 C 0.42512 0.21543 1.12666
 C2588 C 0.42206 0.23845 1.11006
 C2589 C 0.44692 0.25285 1.11320
 H2590 H 0.40366 0.24462 1.09870
 H2591 H 0.48365 0.24409 1.13710
 H2592 H 0.45850 0.20159 1.15266
 N2593 N 1.05813 1.08062 0.73282
 N2594 N 1.06763 1.08533 0.70634
 C2595 C 1.07692 1.11168 0.70492
 C2596 C 1.07321 1.12454 0.73012
 C2597 C 1.06200 1.10402 0.74710
 H2598 H 1.08138 1.14444 0.73635
 H2599 H 1.05231 1.06129 0.74068
 H2600 H 1.06895 1.07014 0.69128
 N2601 N 1.07603 0.66277 0.26548
 N2602 N 1.09021 0.67322 0.24276
 C2603 C 1.10691 0.65290 0.23337
 C2604 C 1.10398 0.62935 0.24975
 C2605 C 1.08435 0.63634 0.26953
 H2606 H 1.11427 0.60956 0.24741
 H2607 H 1.06206 0.67419 0.27734
 H2608 H 1.08772 0.69323 0.23496
 N2609 N 0.56329 1.08303 0.23793
 N2610 N 0.57201 1.08866 0.21137
 C2611 C 0.58073 1.11523 0.21042
 C2612 C 0.57740 1.12733 0.23606
 C2613 C 0.56702 1.10611 0.25273
 H2614 H 0.58518 1.14728 0.24260
 H2615 H 0.55778 1.06344 0.24534
 H2616 H 0.57312 1.07394 0.19585
 N2617 N 0.57220 0.65703 0.76416
 N2618 N 0.58427 0.66601 0.74152
 C2619 C 0.60098 0.64582 0.73199
 C2620 C 0.59971 0.62300 0.74931
 C2621 C 0.58102 0.63098 0.76946
 H2622 H 0.61038 0.60336 0.74735
 H2623 H 0.55848 0.66891 0.77586
 H2624 H 0.58091 0.68559 0.73299
 N2625 N 0.94542 0.87459 0.74183
 N2626 N 0.93262 0.86444 0.72015
 C2627 C 0.90517 0.86985 0.72241
 C2628 C 0.90004 0.88402 0.74641
 C2629 C 0.92622 0.88636 0.75845
 H2630 H 0.87998 0.89022 0.75454
 H2631 H 0.96696 0.87323 0.74491
 H2632 H 0.94262 0.85399 0.70428
 N2633 N 0.91929 0.33810 0.26820
 N2634 N 0.90709 0.32922 0.24393
 C2635 C 0.89298 0.35090 0.23327
 C2636 C 0.89549 0.37375 0.25035
 C2637 C 0.91237 0.36491 0.27180
 H2638 H 0.88720 0.39437 0.24716
 H2639 H 0.93139 0.32561 0.28107
 H2640 H 0.90922 0.30931 0.23600
 N2641 N 0.42687 0.84579 0.26359
 N2642 N 0.41388 0.83620 0.23998
 C2643 C 0.39775 0.85691 0.23024
 C2644 C 0.39978 0.87985 0.24732
 C2645 C 0.41839 0.87207 0.26781
 H2646 H 0.38974 0.89980 0.24491
 H2647 H 0.44036 0.83401 0.27577
 H2648 H 0.41686 0.81650 0.23181
 N2649 N 0.43960 0.36646 0.74881
 N2650 N 0.42645 0.35661 0.72719
 C2651 C 0.39962 0.36474 0.72827
 C2652 C 0.39527 0.38038 0.75155
 C2653 C 0.42125 0.38077 0.76437
 H2654 H 0.37564 0.38871 0.75880
 H2655 H 0.46079 0.36306 0.75260
 H2656 H 0.43575 0.34435 0.71219
 N2657 N 1.16135 0.93561 1.23701
 N2658 N 1.17031 0.92244 1.26086
 C2659 C 1.14984 0.90498 1.26882
 C2660 C 1.12762 0.90649 1.25048
 C2661 C 1.13566 0.92592 1.23085
 H2662 H 1.10819 0.89503 1.25123
 H2663 H 1.17346 0.94955 1.22570
 H2664 H 1.18964 0.92590 1.27014
 N2665 N 1.15663 0.43438 0.74002
 N2666 N 1.16408 0.42355 0.76542
 C2667 C 1.14260 0.40779 0.77424
 C2668 C 1.12121 0.40808 0.75495
 C2669 C 1.13082 0.42502 0.73386
 H2670 H 1.10125 0.39761 0.75609
 H2671 H 1.16966 0.44674 0.72793
 H2672 H 1.18312 0.42735 0.77512
 N2673 N 0.65649 0.93556 0.74200
 N2674 N 0.66415 0.92446 0.76554
 C2675 C 0.64369 0.90733 0.77405
 C2676 C 0.62207 0.90736 0.75525
 C2677 C 0.63102 0.92568 0.73519
 H2678 H 0.60267 0.89586 0.75607
 H2679 H 0.66898 0.94919 0.73071
 H2680 H 0.68312 0.92858 0.77524
 N2681 N 0.65320 0.44321 1.24725
 N2682 N 0.66101 0.43145 1.27215
 C2683 C 0.64017 0.41448 1.28022
 C2684 C 0.61872 0.41503 1.26095
 C2685 C 0.62777 0.43324 1.24055
 H2686 H 0.59932 0.40350 1.26145
 H2687 H 0.66602 0.45619 1.23559
 H2688 H 0.68004 0.43526 1.28185
 N2689 N 0.85752 1.06128 1.24648
 N2690 N 0.85058 1.07045 1.27085
 C2691 C 0.86960 1.08931 1.27868
 C2692 C 0.88976 1.09236 1.25838
 C2693 C 0.88120 1.07411 1.23808
 H2694 H 0.90774 1.10598 1.25826
 H2695 H 0.84560 1.04685 1.23574
 H2696 H 0.83298 1.06386 1.28174
 N2697 N 0.86352 0.55450 0.75083
 N2698 N 0.85486 0.56669 0.77338
 C2699 C 0.86834 0.59091 0.77579
 C2700 C 0.88647 0.59455 0.75393
 C2701 C 0.88263 0.57090 0.73818
 H2702 H 0.89972 0.61225 0.74983
 H2703 H 0.85596 0.53528 0.74467
 H2704 H 0.84008 0.55834 0.78681
 N2705 N 0.41090 1.05480 0.76930
 N2706 N 0.40389 1.06570 0.79306
 C2707 C 0.38369 1.08461 0.78876
 C2708 C 0.37784 1.08636 0.76104
 C2709 C 0.39558 1.06692 0.74946
 H2710 H 0.36452 1.10118 0.75066
 H2711 H 0.42706 1.04053 0.76658
 H2712 H 0.41371 1.06119 0.81164
 N2713 N 0.39041 0.55733 1.26639
 N2714 N 0.38284 0.56930 1.29112
 C2715 C 0.38794 0.59667 1.28915
 C2716 C 0.39908 0.60283 1.26349
 C2717 C 0.39949 0.57766 1.24951
 H2718 H 0.40350 0.62319 1.25520
 H2719 H 0.38844 0.53626 1.26219
 H2720 H 0.37416 0.55847 1.30760
 N2721 N 1.03284 1.27103 0.87303
 N2722 N 1.04621 1.29355 0.86476
 C2723 C 1.07132 1.29423 0.87719
 C2724 C 1.07412 1.27139 0.89409
 C2725 C 1.04927 1.25698 0.89080
 H2726 H 1.09232 1.26532 0.90579
 H2727 H 1.01290 1.26549 0.86630
 H2728 H 1.03828 1.30784 0.85066
 N2729 N 1.04148 0.76668 0.36925
 N2730 N 1.05601 0.78773 0.35925
 C2731 C 1.08171 0.78718 0.37045
 C2732 C 1.08370 0.76501 0.38841
 C2733 C 1.05769 0.75231 0.38696
 H2734 H 1.10188 0.75835 0.39983
 H2735 H 1.02081 0.76243 0.36386
 H2736 H 1.04834 0.80197 0.34497
 N2737 N 0.53680 1.26983 0.37934
 N2738 N 0.54958 1.29225 0.36998
 C2739 C 0.57525 1.29334 0.38117
 C2740 C 0.57901 1.27084 0.39847
 C2741 C 0.55416 1.25623 0.39662
 H2742 H 0.59771 1.26508 0.40957
 H2743 H 0.51658 1.26406 0.37370
 H2744 H 0.54085 1.30619 0.35599
 N2745 N 0.53605 0.76819 0.87213
 N2746 N 0.55036 0.78992 0.86333
 C2747 C 0.57553 0.78986 0.87570
 C2748 C 0.57742 0.76733 0.89308
 C2749 C 0.55191 0.75395 0.89021
 H2750 H 0.59534 0.76092 0.90503
 H2751 H 0.51583 0.76339 0.86568
 H2752 H 0.54293 0.80422 0.84898
 N2753 N 0.84793 1.23902 1.06120
 N2754 N 0.84090 1.26527 1.07076
 C2755 C 0.85258 1.26805 1.09565
 C2756 C 0.86711 1.24400 1.10253
 C2757 C 0.86367 1.22627 1.08045
 H2758 H 0.87856 1.23982 1.12116
 H2759 H 0.84247 1.23162 1.04191
 H2760 H 0.82898 1.27970 1.05990
 N2761 N 0.84755 0.73344 0.56897
 N2762 N 0.84008 0.75733 0.57967
 C2763 C 0.85279 0.76000 0.60402
 C2764 C 0.86915 0.73694 0.60927
 C2765 C 0.86496 0.72025 0.58651
 H2766 H 0.88113 0.73251 0.62754
 H2767 H 0.84074 0.72666 0.54987
 H2768 H 0.82651 0.77144 0.57032
 N2769 N 0.32133 1.20944 0.60305
 N2770 N 0.31160 1.23342 0.61550
 C2771 C 0.33340 1.24515 0.62853
 C2772 C 0.35725 1.22910 0.62497
 C2773 C 0.34887 1.20712 0.60853
 H2774 H 0.37814 1.23349 0.63223
 H2775 H 0.30876 1.19590 0.59192
 H2776 H 0.29095 1.24031 0.61447
 N2777 N 0.34286 0.74050 1.06302
 N2778 N 0.33659 0.76693 1.07255
 C2779 C 0.34951 0.76997 1.09683
 C2780 C 0.36406 0.74585 1.10337
 C2781 C 0.35937 0.72783 1.08171
 H2782 H 0.37637 0.74190 1.12152
 H2783 H 0.33646 0.73295 1.04407
 H2784 H 0.32441 0.78137 1.06197
 N2785 N 0.96465 0.73632 0.87399
 N2786 N 0.95041 0.71521 0.86406
 C2787 C 0.92430 0.71600 0.87435
 C2788 C 0.92175 0.73839 0.89174
 C2789 C 0.94786 0.75092 0.89078
 H2790 H 0.90323 0.74535 0.90238
 H2791 H 0.98548 0.74056 0.86912
 H2792 H 0.95856 0.70087 0.85031
 N2793 N 0.97209 0.22509 0.38673
 N2794 N 0.95943 0.20237 0.37819
 C2795 C 0.93314 0.20232 0.38803
 C2796 C 0.92883 0.22576 0.40358
 C2797 C 0.95399 0.23987 0.40203
 H2798 H 0.90954 0.23264 0.41289
 H2799 H 0.99262 0.23043 0.38170
 H2800 H 0.96858 0.18768 0.36541
 N2801 N 0.38589 0.79339 0.37485
 N2802 N 0.36768 0.77344 0.36480
 C2803 C 0.38318 0.75172 0.35673
 C2804 C 0.41149 0.75726 0.36110
 C2805 C 0.41213 0.78328 0.37334
 H2806 H 0.42856 0.74259 0.36001
 H2807 H 0.37959 0.81107 0.38544
 H2808 H 0.34590 0.77474 0.36567
 N2809 N 0.46533 0.23165 0.89565
 N2810 N 0.45241 0.20815 0.88508
 C2811 C 0.42501 0.20976 0.89133
 C2812 C 0.41993 0.23367 0.90633
 C2813 C 0.44562 0.24698 0.90819
 H2814 H 0.39996 0.24155 0.91318
 H2815 H 0.48647 0.23649 0.89320
 H2816 H 0.46260 0.19306 0.87359
 N2817 N 1.16608 0.76998 1.06575
 N2818 N 1.17241 0.74382 1.07626
 C2819 C 1.15907 0.74113 1.10041
 C2820 C 1.14414 0.76525 1.10586
 C2821 C 1.14903 0.78289 1.08364
 H2822 H 1.13136 0.76937 1.12361
 H2823 H 1.17280 0.77715 1.04668
 H2824 H 1.18498 0.72932 1.06639
 N2825 N 1.17144 0.26707 0.58617
 N2826 N 1.17671 0.24024 0.59544
 C2827 C 1.15452 0.23196 0.61040
 C2828 C 1.13478 0.25324 0.61121
 C2829 C 1.14599 0.27478 0.59530
 H2830 H 1.11432 0.25249 0.62060
 H2831 H 1.18534 0.27857 0.57421
 H2832 H 1.19487 0.22916 0.59106
 N2833 N 0.67290 0.77311 0.57702
 N2834 N 0.67853 0.74787 0.58607
 C2835 C 0.65848 0.74036 0.60389
 C2836 C 0.63922 0.76160 0.60640
 C2837 C 0.64901 0.78218 0.58882
 H2838 H 0.62053 0.76163 0.61883
 H2839 H 0.68562 0.78368 0.56312
 H2840 H 0.69597 0.73631 0.58025
 N2841 N 0.67211 0.27461 1.09383
 N2842 N 0.67754 0.24765 1.10262
 C2843 C 0.65517 0.23874 1.11693
 C2844 C 0.63508 0.25977 1.11774
 C2845 C 0.64633 0.28184 1.10249
 H2846 H 0.61443 0.25854 1.12669
 H2847 H 0.68622 0.28657 1.08256
 H2848 H 0.69600 0.23695 1.09851
 N2849 N 1.22654 1.17839 0.90439
 N2850 N 1.25214 1.18382 0.89577
 C2851 C 1.26213 1.16131 0.88291
 C2852 C 1.24213 1.14058 0.88328
 C2853 C 1.21977 1.15218 0.89741
 H2854 H 1.24426 1.11965 0.87576
 H2855 H 1.21418 1.19258 0.91494
 H2856 H 1.26252 1.20256 0.89894
 N2857 N 1.24849 0.60263 0.42622
 N2858 N 1.27376 0.60895 0.41736
 C2859 C 1.27236 0.63296 0.40333
 C2860 C 1.24499 0.64252 0.40319
 C2861 C 1.23050 0.62245 0.41796
 H2862 H 1.23639 0.65943 0.39126
 H2863 H 1.24335 0.58406 0.43608
 H2864 H 1.29125 0.59616 0.41949
 N2865 N 0.73601 1.17066 0.42217
 N2866 N 0.76242 1.17400 0.41490
 C2867 C 0.77009 1.15225 0.39952
 C2868 C 0.74776 1.13426 0.39679
 C2869 C 0.72641 1.14658 0.41169
 H2870 H 0.74757 1.11459 0.38629
 H2871 H 0.72500 1.18490 0.43402
 H2872 H 0.77470 1.19100 0.42030
 N2873 N 0.72909 0.67165 0.91619
 N2874 N 0.75465 0.67710 0.90749
 C2875 C 0.76389 0.65530 0.89310
 C2876 C 0.74339 0.63497 0.89252
 C2877 C 0.72148 0.64609 0.90769
 H2878 H 0.74460 0.61488 0.88292
 H2879 H 0.71722 0.68568 0.92745
 H2880 H 0.76522 0.69564 0.91113
 N2881 N 1.27195 0.96791 1.11889
 N2882 N 1.29258 0.95314 1.12951
 C2883 C 1.29171 0.92758 1.11868
 C2884 C 1.26981 0.92592 1.10030
 C2885 C 1.25755 0.95194 1.10118
 H2886 H 1.26261 0.90782 1.08940
 H2887 H 1.26775 0.98843 1.12414
 H2888 H 1.30652 0.96047 1.14423
 N2889 N 1.20479 0.38962 0.63507
 N2890 N 1.22060 0.37414 0.65108
 C2891 C 1.24656 0.38489 0.65139
 C2892 C 1.24752 0.40820 0.63470
 C2893 C 1.22051 0.41028 0.62470
 H2894 H 1.26575 0.41983 0.62831
 H2895 H 1.18400 0.38520 0.63017
 H2896 H 1.21421 0.35550 0.66004
 N2897 N 0.70948 0.89142 0.63267
 N2898 N 0.72648 0.87435 0.64565
 C2899 C 0.75153 0.88675 0.64817
 C2900 C 0.75064 0.91281 0.63621
 C2901 C 0.72353 0.91482 0.62653
 H2902 H 0.76803 0.92647 0.63182
 H2903 H 0.68928 0.88628 0.62633
 H2904 H 0.72163 0.85386 0.65073
 N2905 N 0.77132 0.46466 1.12113
 N2906 N 0.79275 0.45028 1.13069
 C2907 C 0.79185 0.42473 1.11983
 C2908 C 0.76907 0.42264 1.10260
 C2909 C 0.75632 0.44842 1.10414
 H2910 H 0.76175 0.40435 1.09211
 H2911 H 0.76706 0.48511 1.12656
 H2912 H 0.80731 0.45782 1.14471
 N2913 N 0.73206 1.03860 1.11963
 N2914 N 0.70888 1.05146 1.12690
 C2915 C 0.70980 1.07768 1.11725
 C2916 C 0.73454 1.08173 1.10316
 C2917 C 0.74813 1.05633 1.10516
 H2918 H 0.74191 1.10058 1.09349
 H2919 H 0.73653 1.01795 1.12440
 H2920 H 0.69307 1.04228 1.13854
 N2921 N 0.73303 0.53877 0.62464
 N2922 N 0.71203 0.55343 0.63450
 C2923 C 0.71327 0.57913 0.62369
 C2924 C 0.73583 0.58097 0.60610
 C2925 C 0.74802 0.55490 0.60740
 H2926 H 0.74321 0.59912 0.59520
 H2927 H 0.73695 0.51814 0.62989
 H2928 H 0.69746 0.54588 0.64859
 N2929 N 0.23088 1.03256 0.61713
 N2930 N 0.20723 1.04502 0.62366
 C2931 C 0.20809 1.07127 0.61411
 C2932 C 0.23322 1.07575 0.60085
 C2933 C 0.24715 1.05062 0.60326
 H2934 H 0.24072 1.09479 0.59168
 H2935 H 0.23560 1.01202 0.62211
 H2936 H 0.19118 1.03563 0.63481
 N2937 N 0.22147 0.55224 1.09036
 N2938 N 0.20087 0.56743 1.10019
 C2939 C 0.21052 0.58168 1.12176
 C2940 C 0.23846 0.57556 1.12584
 C2941 C 0.24458 0.55661 1.10551
 H2942 H 0.25305 0.58624 1.13901
 H2943 H 0.22033 0.54093 1.07224
 H2944 H 0.18133 0.56971 1.09091
 N2945 N 0.76472 0.84349 0.93639
 N2946 N 0.73912 0.83773 0.92795
 C2947 C 0.73466 0.85122 0.90421
 C2948 C 0.75832 0.86614 0.89713
 C2949 C 0.77707 0.86075 0.91811
 H2950 H 0.76132 0.87915 0.87930
 H2951 H 0.77302 0.83617 0.95479
 H2952 H 0.72500 0.82524 0.93865
 N2953 N 0.76290 0.34403 0.43776
 N2954 N 0.73686 0.33991 0.42977
 C2955 C 0.73222 0.35529 0.40718
 C2956 C 0.75619 0.36975 0.40039
 C2957 C 0.77537 0.36205 0.42034
 H2958 H 0.75914 0.38377 0.38332
 H2959 H 0.77147 0.33489 0.45524
 H2960 H 0.72267 0.32704 0.43992
 N2961 N 0.26748 0.84136 0.43364
 N2962 N 0.24257 0.83529 0.42363
 C2963 C 0.23920 0.84916 0.39990
 C2964 C 0.26290 0.86474 0.39447
 C2965 C 0.28052 0.85923 0.41646
 H2966 H 0.26665 0.87816 0.37707
 H2967 H 0.27484 0.83375 0.45232
 H2968 H 0.22816 0.82226 0.43327
 N2969 N 0.26094 0.34062 0.93548
 N2970 N 0.23526 0.33590 0.92667
 C2971 C 0.22938 0.35433 0.90677
 C2972 C 0.25214 0.37152 0.90264
 C2973 C 0.27195 0.36222 0.92134
 H2974 H 0.25371 0.38848 0.88822
 H2975 H 0.27040 0.32896 0.95092
 H2976 H 0.22229 0.32021 0.93416
   
