data_POSCAR
  _audit_creation_date              2014-09-24
  _audit_creation_method            'ToBaCCo'
  _symmetry_space_group_name_H-M    'P1'
  _symmetry_Int_Tables_number       1
  _symmetry_cell_setting            triclinic
  loop_
  _symmetry_equiv_pos_as_xyz
 x,y,z
_cell_length_a 54.0574
_cell_length_b 55.0710
_cell_length_c 54.8021
_cell_angle_alpha 89.844100
_cell_angle_beta 90.271100
_cell_angle_gamma 90.143200
loop_
  _atom_site_label
  _atom_site_type_symbol
  _atom_site_fract_x
  _atom_site_fract_y
  _atom_site_fract_z
N1 N 0.21223 0.21020 0.21192
 N2 N 0.71103 0.71587 0.70960
 N3 N 0.28658 0.78919 0.70641
 N4 N 0.78920 0.28359 0.20821
 N5 N 0.78855 0.70732 0.29668
 N6 N 0.28892 0.21337 -0.20680
 N7 N 0.71423 0.28713 -0.21417
 N8 N 0.20895 0.78928 0.28590
 N9 N 0.46116 0.45979 0.46076
 N10 N -0.04183 -0.04608 0.95911
 N11 N 1.03903 0.53769 0.96009
 N12 N 0.53957 0.04222 0.45957
 N13 N -0.03851 0.04666 0.54266
 N14 N 0.46703 0.53893 0.03822
 N15 N 0.53881 -0.04221 0.03672
 N16 N 1.03569 0.46561 0.53761
 C17 C 0.41426 0.01030 0.21591
 H18 H 0.41618 0.02602 0.22757
 C19 C 0.43003 0.00736 0.19602
 H20 H 0.44419 0.02086 0.19260
 C21 C 0.39388 -0.02672 0.20674
 H22 H 0.37992 -0.04009 0.21106
 C23 C 0.40921 -0.03037 0.18667
 H24 H 0.40650 -0.04634 0.17549
 N25 N 0.39643 -0.00648 0.22071
 C26 C 0.33667 0.02973 0.25922
 H27 H 0.33456 0.01753 0.27458
 C28 C 0.32085 0.04956 0.25658
 H29 H 0.30642 0.05236 0.26991
 C30 C 0.35770 0.04040 0.22289
 H31 H 0.37197 0.03671 0.20971
 C32 C 0.34232 0.06050 0.21957
 H33 H 0.34528 0.07231 0.20403
 Zn34 Zn 0.37569 -0.00143 0.24797
 N35 N 0.35487 0.02572 0.24269
 C36 C 0.39292 0.02387 0.28977
 N37 N 0.39613 0.00386 0.27565
 C38 C 0.41432 -0.01247 0.28065
 C39 C 0.42981 -0.00926 0.30088
 C40 C 0.40786 0.02769 0.31024
 C41 C 0.33696 -0.03306 0.23613
 C42 C 0.32098 -0.05281 0.23881
 C43 C 0.34220 -0.06330 0.27627
 C44 C 0.35773 -0.04327 0.27291
 N45 N 0.35504 -0.02880 0.25292
 H46 H 0.37881 0.03697 0.28522
 H47 H 0.41668 -0.02808 0.26894
 H48 H 0.44396 -0.02262 0.30482
 H49 H 0.40505 0.04374 0.32124
 H50 H 0.33499 -0.02102 0.22061
 H51 H 0.30657 -0.05573 0.22534
 H52 H 0.34498 -0.07488 0.29203
 H53 H 0.37193 -0.03940 0.28626
 C54 C 0.32368 0.06539 0.23664
 C55 C 0.42754 -0.01316 0.18102
 C56 C 0.32354 -0.06833 0.25906
 C57 C 0.42652 0.01095 0.31607
 C58 C 0.08606 -0.00725 0.72270
 H59 H 0.08262 -0.02177 0.73558
 C60 C 0.06980 -0.00347 0.70321
 H61 H 0.05396 -0.01536 0.70109
 C62 C 0.11127 0.02554 0.70965
 H63 H 0.12757 0.03667 0.71218
 C64 C 0.09547 0.02996 0.68989
 H65 H 0.09956 0.04484 0.67759
 N66 N 0.10622 0.00727 0.72563
 C67 C 0.16283 -0.03480 0.76371
 H68 H 0.16411 -0.02558 0.78108
 C69 C 0.17764 -0.05501 0.75926
 H70 H 0.19021 -0.06134 0.77333
 C71 C 0.14466 -0.03795 0.72441
 H72 H 0.13194 -0.03115 0.71076
 C73 C 0.15894 -0.05840 0.71929
 H74 H 0.15715 -0.06711 0.70168
 Zn75 Zn 0.12700 0.00121 0.75281
 N76 N 0.14679 -0.02659 0.74634
 C77 C 0.10747 -0.02669 0.79202
 N78 N 0.10632 -0.00493 0.78023
 C79 C 0.08950 0.01214 0.78686
 C80 C 0.07331 0.00781 0.80621
 C81 C 0.09176 -0.03172 0.81153
 C82 C 0.17263 0.02622 0.76023
 C83 C 0.18780 0.04619 0.76505
 C84 C 0.15158 0.07172 0.76516
 C85 C 0.13700 0.05114 0.76092
 N86 N 0.14762 0.02885 0.75870
 H87 H 0.12025 -0.04046 0.78617
 H88 H 0.08817 0.02894 0.77676
 H89 H 0.05976 0.02147 0.81082
 H90 H 0.09332 -0.04903 0.82081
 H91 H 0.18104 0.00872 0.75764
 H92 H 0.20764 0.04375 0.76641
 H93 H 0.14292 0.08935 0.76683
 H94 H 0.11723 0.05310 0.75893
 C95 C 0.17575 -0.06708 0.73682
 C96 C 0.07434 0.01542 0.68653
 C97 C 0.17726 0.06922 0.76756
 C98 C 0.07430 -0.01441 0.81883
 C99 C 0.59655 0.48329 0.21266
 H100 H 0.59623 0.46564 0.22123
 C101 C 0.58201 0.48740 0.19195
 H102 H 0.56978 0.47311 0.18566
 C103 C 0.61340 0.52287 0.21004
 H104 H 0.62609 0.53651 0.21659
 C105 C 0.59941 0.52767 0.18910
 H106 H 0.60152 0.54504 0.18004
 N107 N 0.61114 0.50124 0.22192
 C108 C 0.64583 0.44713 0.26160
 H109 H 0.63311 0.44756 0.27674
 C110 C 0.66012 0.42643 0.25764
 H111 H 0.65834 0.41102 0.26983
 C112 C 0.66399 0.46672 0.22749
 H113 H 0.66524 0.48253 0.21580
 C114 C 0.67887 0.44655 0.22308
 H115 H 0.69153 0.44683 0.20782
 Zn116 Zn 0.62886 0.49490 0.25150
 N117 N 0.64804 0.46673 0.24661
 C118 C 0.58774 0.47346 0.27596
 N119 N 0.60651 0.48987 0.27797
 C120 C 0.61005 0.50255 0.29902
 C121 C 0.59419 0.49925 0.31881
 C122 C 0.57133 0.46977 0.29520
 C123 C 0.67467 0.51786 0.26282
 C124 C 0.69024 0.53738 0.26839
 C125 C 0.65485 0.56404 0.26675
 C126 C 0.63987 0.54396 0.26178
 N127 N 0.65001 0.52150 0.25928
 H128 H 0.58554 0.46290 0.25961
 H129 H 0.62532 0.51512 0.30065
 H130 H 0.59716 0.50966 0.33531
 H131 H 0.55659 0.45656 0.29325
 H132 H 0.68232 0.49982 0.26145
 H133 H 0.70987 0.53431 0.27094
 H134 H 0.64662 0.58189 0.26823
 H135 H 0.62012 0.54629 0.25959
 C136 C 0.67699 0.42608 0.23826
 C137 C 0.58299 0.51000 0.18006
 C138 C 0.68035 0.56081 0.27003
 C139 C 0.57443 0.48279 0.31695
 C140 C 0.91169 0.51337 0.71793
 H141 H 0.91583 0.52691 0.73164
 C142 C 0.92701 0.51097 0.69765
 H143 H 0.94310 0.52259 0.69597
 C144 C 0.88585 0.48151 0.70375
 H145 H 0.86958 0.47031 0.70607
 C146 C 0.90072 0.47842 0.68323
 H147 H 0.89575 0.46479 0.66987
 N148 N 0.89167 0.49865 0.72067
 C149 C 0.83557 0.53694 0.76258
 H150 H 0.83492 0.52652 0.77933
 C151 C 0.82029 0.55715 0.75971
 H152 H 0.80767 0.56185 0.77422
 C153 C 0.85247 0.54306 0.72325
 H154 H 0.86502 0.53752 0.70904
 C155 C 0.83767 0.56352 0.71969
 H156 H 0.83935 0.57370 0.70285
 Zn157 Zn 0.87198 0.50261 0.74879
 N158 N 0.85124 0.53023 0.74446
 C159 C 0.89201 0.52816 0.78940
 N160 N 0.89358 0.50750 0.77592
 C161 C 0.91118 0.49055 0.78088
 C162 C 0.92768 0.49378 0.80032
 C163 C 0.90800 0.53204 0.80907
 C164 C 0.82746 0.47567 0.75627
 C165 C 0.81323 0.45483 0.76009
 C166 C 0.85034 0.43074 0.75719
 C167 C 0.86396 0.45209 0.75401
 N168 N 0.85245 0.47407 0.75369
 H169 H 0.87854 0.54187 0.78490
 H170 H 0.91281 0.47471 0.76947
 H171 H 0.94178 0.48023 0.80367
 H172 H 0.90603 0.54840 0.81978
 H173 H 0.81834 0.49301 0.75523
 H174 H 0.79339 0.45641 0.76221
 H175 H 0.85971 0.41338 0.75726
 H176 H 0.88367 0.45102 0.75120
 C177 C 0.82124 0.57082 0.73804
 C178 C 0.92166 0.49321 0.68003
 C179 C 0.82470 0.43207 0.76050
 C180 C 0.92618 0.51474 0.81478
 C181 C 0.21902 0.41353 0.01396
 H182 H 0.23038 0.41560 0.03013
 C183 C 0.19908 0.42914 0.00990
 H184 H 0.19530 0.44330 0.02301
 C185 C 0.21088 0.39310 -0.02322
 H186 H 0.21568 0.37924 -0.03625
 C187 C 0.19076 0.40827 -0.02798
 H188 H 0.18001 0.40554 -0.04448
 N189 N 0.22443 0.39586 -0.00244
 C190 C 0.26419 0.33831 0.03575
 H191 H 0.28014 0.33665 0.02403
 C192 C 0.26129 0.32256 0.05552
 H193 H 0.27504 0.30865 0.05877
 C194 C 0.22651 0.35803 0.04510
 H195 H 0.21289 0.37173 0.04086
 C196 C 0.22290 0.34269 0.06512
 H197 H 0.20667 0.34509 0.07636
 Zn198 Zn 0.25238 0.37603 0.00361
 N199 N 0.24705 0.35577 0.03106
 C200 C 0.29395 0.39440 0.02965
 N201 N 0.27983 0.39678 0.00918
 C202 C 0.28453 0.41451 -0.00751
 C203 C 0.30440 0.43043 -0.00417
 C204 C 0.31405 0.40986 0.03367
 C205 C 0.24193 0.33735 -0.02779
 C206 C 0.24554 0.32139 -0.04719
 C207 C 0.28305 0.34309 -0.05721
 C208 C 0.27879 0.35854 -0.03753
 N209 N 0.25835 0.35559 -0.02344
 H210 H 0.28972 0.38050 0.04292
 H211 H 0.27274 0.41627 -0.02342
 H212 H 0.30766 0.44456 -0.01756
 H213 H 0.32534 0.40731 0.04983
 H214 H 0.22604 0.33517 -0.01605
 H215 H 0.23240 0.30680 -0.05011
 H216 H 0.29917 0.34608 -0.06849
 H217 H 0.29185 0.37288 -0.03359
 C218 C 0.24046 0.32468 0.07060
 C219 C 0.18465 0.42663 -0.01134
 C220 C 0.26630 0.32418 -0.06229
 C221 C 0.31955 0.42817 0.01662
 C222 C 0.71766 0.08525 -0.01592
 H223 H 0.72976 0.08346 -0.03148
 C224 C 0.69761 0.06947 -0.01316
 H225 H 0.69451 0.05543 -0.02663
 C226 C 0.70772 0.10517 0.02101
 H227 H 0.71185 0.11889 0.03446
 C228 C 0.68741 0.08985 0.02444
 H229 H 0.67586 0.09237 0.04031
 N230 N 0.72222 0.10278 0.00095
 C231 C 0.76287 0.16108 -0.03503
 H232 H 0.77859 0.16274 -0.02286
 C233 C 0.76035 0.17694 -0.05480
 H234 H 0.77417 0.19093 -0.05759
 C235 C 0.72539 0.14126 -0.04558
 H236 H 0.71168 0.12747 -0.04183
 C237 C 0.72218 0.15667 -0.06561
 H238 H 0.70620 0.15421 -0.07734
 Zn239 Zn 0.75028 0.12289 -0.00363
 N240 N 0.74565 0.14352 -0.03095
 C241 C 0.79272 0.10492 -0.02823
 N242 N 0.77781 0.10231 -0.00846
 C243 C 0.78170 0.08434 0.00817
 C244 C 0.80151 0.06838 0.00554
 C245 C 0.81282 0.08940 -0.03153
 C246 C 0.73863 0.16040 0.02881
 C247 C 0.74156 0.17547 0.04908
 C248 C 0.77944 0.15435 0.05894
 C249 C 0.77583 0.13974 0.03845
 N250 N 0.75549 0.14276 0.02407
 H251 H 0.78912 0.11904 -0.04147
 H252 H 0.76930 0.08243 0.02350
 H253 H 0.80411 0.05405 0.01887
 H254 H 0.82475 0.09209 -0.04712
 H255 H 0.72277 0.16260 0.01690
 H256 H 0.72770 0.18911 0.05283
 H257 H 0.79580 0.15173 0.07011
 H258 H 0.78934 0.12604 0.03409
 C259 C 0.73983 0.17479 -0.07049
 C260 C 0.68214 0.07167 0.00724
 C261 C 0.76211 0.17242 0.06454
 C262 C 0.81747 0.07084 -0.01448
 C263 C 0.21775 0.58790 0.48573
 H264 H 0.22924 0.58578 0.46976
 C265 C 0.19788 0.57213 0.48963
 H266 H 0.19428 0.55778 0.47662
 C267 C 0.20919 0.60868 0.52253
 H268 H 0.21380 0.62275 0.53546
 C269 C 0.18914 0.59336 0.52713
 H270 H 0.17823 0.59618 0.54339
 N271 N 0.22290 0.60584 0.50199
 C272 C 0.26234 0.66325 0.46341
 H273 H 0.27836 0.66518 0.47517
 C274 C 0.25931 0.67872 0.44341
 H275 H 0.27302 0.69266 0.44000
 C276 C 0.22463 0.64319 0.45420
 H277 H 0.21103 0.62948 0.45859
 C278 C 0.22087 0.65824 0.43397
 H279 H 0.20456 0.65561 0.42273
 Zn280 Zn 0.25067 0.62597 0.49607
 N281 N 0.24525 0.64577 0.46828
 C282 C 0.29239 0.60768 0.47081
 N283 N 0.27831 0.60553 0.49121
 C284 C 0.28316 0.58822 0.50831
 C285 C 0.30320 0.57253 0.50551
 C286 C 0.31268 0.59248 0.46734
 C287 C 0.23956 0.66490 0.52667
 C288 C 0.24276 0.68117 0.54591
 C289 C 0.28038 0.66020 0.55703
 C290 C 0.27656 0.64443 0.53745
 N291 N 0.25625 0.64687 0.52291
 H292 H 0.28792 0.62112 0.45712
 H293 H 0.27145 0.58669 0.52420
 H294 H 0.30703 0.55912 0.51950
 H295 H 0.32363 0.59439 0.45095
 H296 H 0.22370 0.66657 0.51466
 H297 H 0.22912 0.69523 0.54881
 H298 H 0.29669 0.65808 0.56839
 H299 H 0.28990 0.63034 0.53389
 C300 C 0.23838 0.67628 0.42831
 C301 C 0.18325 0.57475 0.51058
 C302 C 0.26334 0.67886 0.56145
 C303 C 0.31835 0.57467 0.48487
 C304 C 0.72089 0.91774 0.51088
 H305 H 0.73334 0.91977 0.52626
 C306 C 0.70120 0.93382 0.50779
 H307 H 0.69839 0.94807 0.52106
 C308 C 0.70953 0.89665 0.47487
 H309 H 0.71307 0.88240 0.46186
 C310 C 0.68951 0.91223 0.47116
 H311 H 0.67781 0.90982 0.45526
 N312 N 0.72461 0.89953 0.49460
 C313 C 0.76457 0.84168 0.53198
 H314 H 0.78025 0.83966 0.51996
 C315 C 0.76171 0.82603 0.55185
 H316 H 0.77523 0.81186 0.55491
 C317 C 0.72743 0.86209 0.54190
 H318 H 0.71396 0.87598 0.53782
 C319 C 0.72388 0.84688 0.56201
 H320 H 0.70788 0.84959 0.57348
 Zn321 Zn 0.75236 0.87920 0.49962
 N322 N 0.74764 0.85938 0.52748
 C323 C 0.79495 0.89752 0.52405
 N324 N 0.78032 0.89955 0.50389
 C325 C 0.78444 0.91710 0.48688
 C326 C 0.80405 0.93343 0.48970
 C327 C 0.81485 0.91337 0.52753
 C328 C 0.73975 0.84032 0.46939
 C329 C 0.74223 0.82380 0.45030
 C330 C 0.77967 0.84451 0.43817
 C331 C 0.77655 0.86055 0.45761
 N332 N 0.75671 0.85831 0.47262
 H333 H 0.79107 0.88384 0.53766
 H334 H 0.77231 0.91852 0.47118
 H335 H 0.80713 0.94721 0.47592
 H336 H 0.82610 0.91169 0.54385
 H337 H 0.72436 0.83872 0.48185
 H338 H 0.72871 0.80940 0.44833
 H339 H 0.79535 0.84689 0.42617
 H340 H 0.79003 0.87473 0.46067
 C341 C 0.74114 0.82852 0.56720
 C342 C 0.68518 0.93115 0.48773
 C343 C 0.76239 0.82578 0.43431
 C344 C 0.81953 0.93168 0.51028
 C345 C 0.01299 0.22392 0.41565
 H346 H 0.02872 0.23602 0.41726
 C347 C 0.01010 0.20479 0.43216
 H348 H 0.02385 0.20208 0.44634
 C349 C -0.02396 0.21277 0.39507
 H350 H -0.03740 0.21614 0.38083
 C351 C -0.02749 0.19332 0.41110
 H352 H -0.04370 0.18190 0.40903
 N353 N -0.00380 0.22742 0.39743
 C354 C 0.03449 0.26460 0.33827
 H355 H 0.02290 0.28045 0.33597
 C356 C 0.05420 0.26064 0.32239
 H357 H 0.05760 0.27350 0.30780
 C358 C 0.04330 0.22804 0.35943
 H359 H 0.03879 0.21516 0.37363
 C360 C 0.06319 0.22338 0.34401
 H361 H 0.07410 0.20716 0.34689
 Zn362 Zn 0.00139 0.25401 0.37607
 N363 N 0.02948 0.24843 0.35639
 C364 C 0.02628 0.29630 0.39333
 N365 N 0.00584 0.28202 0.39555
 C366 C -0.01179 0.28686 0.41246
 C367 C -0.00951 0.30704 0.42766
 C368 C 0.02929 0.31670 0.40816
 C369 C -0.03007 0.24057 0.33773
 C370 C -0.04959 0.24281 0.32111
 C371 C -0.06033 0.28102 0.33979
 C372 C -0.04052 0.27812 0.35597
 N373 N -0.02602 0.25800 0.35484
 H374 H 0.04030 0.29193 0.38009
 H375 H -0.02764 0.27495 0.41412
 H376 H -0.02365 0.31043 0.44115
 H377 H 0.04547 0.32808 0.40583
 H378 H -0.01805 0.22492 0.33702
 H379 H -0.05271 0.22861 0.30781
 H380 H -0.07156 0.29724 0.34084
 H381 H -0.03667 0.29207 0.36927
 C382 C 0.06880 0.23972 0.32509
 C383 C -0.01031 0.18913 0.42992
 C384 C -0.06506 0.26322 0.32207
 C385 C 0.01122 0.32232 0.42559
 C386 C -0.01723 0.71140 0.08757
 H387 H -0.03335 0.72281 0.08537
 C388 C -0.01393 0.69138 0.07236
 H389 H -0.02757 0.68763 0.05833
 C390 C 0.02058 0.70315 0.10797
 H391 H 0.03414 0.70793 0.12167
 C392 C 0.02457 0.68291 0.09322
 H393 H 0.04100 0.67206 0.09612
 N394 N -0.00017 0.71679 0.10506
 C395 C -0.03726 0.75722 0.16245
 H396 H -0.02525 0.77293 0.16358
 C397 C -0.05689 0.75466 0.17871
 H398 H -0.05972 0.76843 0.19248
 C399 C -0.04746 0.71982 0.14361
 H400 H -0.04359 0.70616 0.13006
 C401 C -0.06736 0.71657 0.15945
 H402 H -0.07889 0.70057 0.15757
 Zn403 Zn -0.00560 0.74473 0.12436
 N404 N -0.03303 0.74003 0.14522
 C405 C -0.03212 0.78501 0.10511
 N406 N -0.01148 0.77114 0.10289
 C407 C 0.00519 0.77535 0.08485
 C408 C 0.00167 0.79447 0.06841
 C409 C -0.03633 0.80436 0.08913
 C410 C 0.02739 0.73526 0.16275
 C411 C 0.04728 0.73946 0.17855
 C412 C 0.05610 0.77651 0.15650
 C413 C 0.03602 0.77162 0.14116
 N414 N 0.02227 0.75116 0.14440
 H415 H -0.04538 0.78117 0.11929
 H416 H 0.02124 0.76378 0.08325
 H417 H 0.01505 0.79737 0.05405
 H418 H -0.05261 0.81548 0.09155
 H419 H 0.01586 0.71936 0.16519
 H420 H 0.05085 0.72674 0.19324
 H421 H 0.06704 0.79271 0.15338
 H422 H 0.03142 0.78427 0.12677
 C423 C -0.07232 0.73414 0.17732
 C424 C 0.00719 0.67678 0.07509
 C425 C 0.06196 0.76033 0.17552
 C426 C -0.01928 0.80936 0.07049
 C427 C 0.48591 0.21811 0.58614
 H428 H 0.46996 0.22983 0.58444
 C429 C 0.48901 0.19884 0.56993
 H430 H 0.47517 0.19563 0.55596
 C431 C 0.52338 0.20820 0.60641
 H432 H 0.53696 0.21214 0.62036
 C433 C 0.52715 0.18866 0.59068
 H434 H 0.54368 0.17776 0.59270
 N435 N 0.50291 0.22234 0.60401
 C436 C 0.46651 0.26096 0.66309
 H437 H 0.47905 0.27616 0.66517
 C438 C 0.44646 0.25837 0.67885
 H439 H 0.44387 0.27157 0.69321
 C440 C 0.45525 0.22493 0.64224
 H441 H 0.45881 0.21185 0.62805
 C442 C 0.43490 0.22168 0.65754
 H443 H 0.42278 0.20627 0.65463
 Zn444 Zn 0.49799 0.24952 0.62448
 N445 N 0.47038 0.24450 0.64506
 C446 C 0.47258 0.29140 0.60731
 N447 N 0.49264 0.27690 0.60414
 C448 C 0.50920 0.28131 0.58604
 C449 C 0.50624 0.30132 0.57060
 C450 C 0.46898 0.31167 0.59237
 C451 C 0.53097 0.23826 0.66262
 C452 C 0.55106 0.24170 0.67838
 C453 C 0.56057 0.27899 0.65707
 C454 C 0.54026 0.27491 0.64181
 N455 N 0.52605 0.25470 0.64468
 H456 H 0.45932 0.28734 0.62141
 H457 H 0.52484 0.26933 0.58375
 H458 H 0.51984 0.30480 0.55657
 H459 H 0.45289 0.32299 0.59513
 H460 H 0.51912 0.22255 0.66476
 H461 H 0.55443 0.22859 0.69276
 H462 H 0.57186 0.29500 0.65417
 H463 H 0.53588 0.28798 0.62775
 C464 C 0.43022 0.23858 0.67611
 C465 C 0.50986 0.18381 0.57211
 C466 C 0.56619 0.26232 0.67572
 C467 C 0.48600 0.31690 0.57380
 C468 C 0.51107 0.71683 0.91043
 H469 H 0.52671 0.72901 0.91213
 C470 C 0.50904 0.69678 0.92593
 H471 H 0.52314 0.69377 0.93969
 C472 C 0.47331 0.70654 0.89086
 H473 H 0.45932 0.71050 0.87730
 C474 C 0.47056 0.68624 0.90595
 H475 H 0.45462 0.67454 0.90351
 N476 N 0.49348 0.72118 0.89317
 C477 C 0.52864 0.76185 0.83447
 H478 H 0.51629 0.77723 0.83310
 C479 C 0.54843 0.75972 0.81834
 H480 H 0.55106 0.77347 0.80443
 C481 C 0.53966 0.72491 0.85389
 H482 H 0.53610 0.71128 0.86762
 C483 C 0.55970 0.72209 0.83818
 H484 H 0.57163 0.70647 0.84039
 Zn485 Zn 0.49757 0.74893 0.87315
 N486 N 0.52481 0.74473 0.85198
 C487 C 0.52369 0.78985 0.89136
 N488 N 0.50312 0.77583 0.89396
 C489 C 0.48667 0.78000 0.91217
 C490 C 0.49042 0.79914 0.92847
 C491 C 0.52814 0.80918 0.90720
 C492 C 0.46468 0.73769 0.83530
 C493 C 0.44439 0.74069 0.81974
 C494 C 0.43366 0.77707 0.84182
 C495 C 0.45427 0.77347 0.85684
 N496 N 0.46915 0.75389 0.85349
 H497 H 0.53681 0.78603 0.87710
 H498 H 0.47070 0.76828 0.91411
 H499 H 0.47728 0.80196 0.94303
 H500 H 0.54444 0.82033 0.90456
 H501 H 0.47699 0.72243 0.83288
 H502 H 0.44099 0.72750 0.80549
 H503 H 0.42210 0.79284 0.84461
 H504 H 0.45840 0.78644 0.87103
 C505 C 0.56437 0.73967 0.82015
 C506 C 0.48861 0.68110 0.92374
 C507 C 0.42854 0.76057 0.82296
 C508 C 0.51142 0.81402 0.92611
 C509 C 0.15013 0.22032 0.25877
 C510 C 0.16487 0.24039 0.25162
 C511 C 0.18509 0.23697 0.23601
 C512 C 0.19105 0.21375 0.22746
 C513 C 0.17641 0.19392 0.23448
 C514 C 0.15621 0.19709 0.24989
 C515 C 0.12884 0.22472 0.27566
 C516 C 0.11302 0.20602 0.28377
 C517 C 0.09362 0.21099 0.29970
 C518 C 0.08942 0.23469 0.30802
 C519 C 0.10497 0.25348 0.29990
 C520 C 0.12454 0.24869 0.28385
 C521 C 0.15950 0.26369 0.26024
 C522 C 0.13981 0.26775 0.27604
 H523 H 0.17078 0.27905 0.25477
 H524 H 0.13650 0.28611 0.28227
 H525 H 0.19651 0.25232 0.23078
 H526 H 0.18064 0.17588 0.22792
 H527 H 0.08165 0.19622 0.30529
 H528 H 0.10208 0.27183 0.30638
 H529 H 0.14574 0.18111 0.25466
 H530 H 0.11519 0.18745 0.27804
 C531 C 0.64896 0.72888 0.75577
 C532 C 0.65453 0.70505 0.74788
 C533 C 0.67494 0.70095 0.73272
 C534 C 0.68997 0.72027 0.72507
 C535 C 0.68435 0.74388 0.73270
 C536 C 0.66414 0.74819 0.74785
 C537 C 0.62714 0.73241 0.77220
 C538 C 0.62027 0.75527 0.78146
 C539 C 0.59991 0.75755 0.79686
 C540 C 0.58579 0.73717 0.80344
 C541 C 0.59242 0.71435 0.79422
 C542 C 0.61293 0.71181 0.77883
 C543 C 0.63971 0.68545 0.75511
 C544 C 0.61931 0.68877 0.77017
 H545 H 0.64394 0.66723 0.74901
 H546 H 0.60844 0.67300 0.77525
 H547 H 0.67910 0.68270 0.72664
 H548 H 0.69584 0.75901 0.72708
 H549 H 0.59546 0.77532 0.80399
 H550 H 0.58147 0.69850 0.79888
 H551 H 0.66081 0.76673 0.75313
 H552 H 0.63044 0.77159 0.77723
 C553 C 0.34461 0.77590 0.75803
 C554 C 0.34902 0.77365 0.73268
 C555 C 0.32986 0.77795 0.71585
 C556 C 0.30611 0.78424 0.72383
 C557 C 0.30164 0.78592 0.74894
 C558 C 0.32058 0.78187 0.76585
 C559 C 0.36578 0.77185 0.77537
 C560 C 0.36364 0.77472 0.80083
 C561 C 0.38399 0.77102 0.81616
 C562 C 0.40695 0.76424 0.80659
 C563 C 0.40929 0.76128 0.78129
 C564 C 0.38902 0.76521 0.76566
 C565 C 0.37250 0.76715 0.72427
 C566 C 0.39202 0.76286 0.74040
 H567 H 0.37585 0.76531 0.70488
 H568 H 0.40983 0.75784 0.73296
 H569 H 0.33344 0.77667 0.69645
 H570 H 0.28334 0.79041 0.75548
 H571 H 0.38170 0.77325 0.83565
 H572 H 0.42709 0.75643 0.77370
 H573 H 0.31596 0.78345 0.78489
 H574 H 0.34651 0.77995 0.80930
 C575 C -0.14723 0.27479 0.25416
 C576 C -0.17003 0.28254 0.26404
 C577 C -0.19079 0.28540 0.24883
 C578 C -0.18928 0.28081 0.22372
 C579 C -0.16658 0.27354 0.21389
 C580 C -0.14583 0.27050 0.22884
 C581 C -0.12560 0.27157 0.27112
 C582 C -0.10233 0.26321 0.26330
 C583 C -0.08281 0.26047 0.27985
 C584 C -0.08591 0.26604 0.30460
 C585 C -0.10901 0.27430 0.31260
 C586 C -0.12883 0.27697 0.29616
 C587 C -0.17201 0.28743 0.28901
 C588 C -0.15182 0.28482 0.30470
 H589 H -0.18944 0.29344 0.29656
 H590 H -0.15431 0.28890 0.32387
 H591 H -0.20829 0.29099 0.25657
 H592 H -0.16488 0.27029 0.19449
 H593 H -0.06509 0.25427 0.27318
 H594 H -0.11169 0.27829 0.33177
 H595 H -0.12893 0.26490 0.22018
 H596 H -0.09877 0.25865 0.24453
 C597 C -0.15362 0.72135 0.24553
 C598 C -0.15816 0.69745 0.25403
 C599 C -0.17729 0.69298 0.27069
 C600 C -0.19195 0.71205 0.27937
 C601 C -0.18741 0.73571 0.27102
 C602 C -0.16854 0.74036 0.25432
 C603 C -0.13298 0.72530 0.22771
 C604 C -0.12719 0.74826 0.21781
 C605 C -0.10765 0.75101 0.20145
 C606 C -0.09329 0.73101 0.19452
 C607 C -0.09902 0.70804 0.20416
 C608 C -0.11871 0.70504 0.22054
 C609 C -0.14348 0.67816 0.24602
 C610 C -0.12412 0.68189 0.22973
 H611 H -0.14694 0.65987 0.25256
 H612 H -0.11323 0.66636 0.22420
 H613 H -0.18060 0.67468 0.27725
 H614 H -0.19866 0.75064 0.27734
 H615 H -0.10395 0.76887 0.19398
 H616 H -0.08791 0.69248 0.19921
 H617 H -0.16594 0.75894 0.24863
 H618 H -0.13754 0.76432 0.22233
 C619 C 0.34670 0.22655 0.74182
 C620 C 0.34096 0.20256 0.74930
 C621 C 0.32161 0.19833 0.76579
 C622 C 0.30799 0.21772 0.77536
 C623 C 0.31358 0.24144 0.76783
 C624 C 0.33262 0.24586 0.75127
 C625 C 0.36781 0.23029 0.72450
 C626 C 0.37492 0.25336 0.71577
 C627 C 0.39500 0.25593 0.70004
 C628 C 0.40861 0.23563 0.69256
 C629 C 0.40150 0.21253 0.70094
 C630 C 0.38127 0.20972 0.71670
 C631 C 0.35479 0.18296 0.74061
 C632 C 0.37456 0.18647 0.72475
 H633 H 0.35040 0.16460 0.74634
 H634 H 0.38480 0.17071 0.71872
 H635 H 0.31751 0.17997 0.77172
 H636 H 0.30313 0.25662 0.77487
 H637 H 0.39973 0.27392 0.69351
 H638 H 0.41199 0.19670 0.69553
 H639 H 0.33610 0.26450 0.74632
 H640 H 0.36523 0.26968 0.72080
 C641 C 0.65079 0.27907 0.73968
 C642 C 0.66460 0.25847 0.74703
 C643 C 0.68537 0.26122 0.76229
 C644 C 0.69284 0.28431 0.77022
 C645 C 0.67934 0.30470 0.76265
 C646 C 0.65859 0.30219 0.74764
 C647 C 0.62864 0.27534 0.72351
 C648 C 0.61327 0.29454 0.71578
 C649 C 0.59304 0.29019 0.70049
 C650 C 0.58753 0.26663 0.69239
 C651 C 0.60254 0.24732 0.70025
 C652 C 0.62289 0.25147 0.71576
 C653 C 0.65775 0.23529 0.73896
 C654 C 0.63745 0.23189 0.72354
 H655 H 0.66835 0.21952 0.74452
 H656 H 0.63302 0.21360 0.71769
 H657 H 0.69598 0.24545 0.76783
 H658 H 0.68476 0.32268 0.76861
 H659 H 0.58149 0.30537 0.69519
 H660 H 0.59862 0.22905 0.69401
 H661 H 0.64903 0.31857 0.74247
 H662 H 0.61642 0.31304 0.72139
 C663 C 0.14550 0.77951 0.24010
 C664 C 0.16008 0.75933 0.24720
 C665 C 0.18077 0.76265 0.26242
 C666 C 0.18738 0.78588 0.27064
 C667 C 0.17294 0.80583 0.26362
 C668 C 0.15227 0.80276 0.24859
 C669 C 0.12364 0.77520 0.22368
 C670 C 0.10785 0.79398 0.21572
 C671 C 0.08791 0.78907 0.20023
 C672 C 0.08310 0.76534 0.19221
 C673 C 0.09860 0.74647 0.20019
 C674 C 0.11870 0.75119 0.21581
 C675 C 0.15407 0.73601 0.23891
 C676 C 0.13388 0.73204 0.22351
 H677 H 0.16524 0.72057 0.24433
 H678 H 0.13008 0.71366 0.21752
 H679 H 0.19204 0.74721 0.26763
 H680 H 0.17767 0.82388 0.26992
 H681 H 0.07600 0.80391 0.19473
 H682 H 0.09525 0.72810 0.19392
 H683 H 0.14196 0.81882 0.24381
 H684 H 0.11049 0.81258 0.22125
 C685 C 0.25997 0.14974 0.22499
 C686 C 0.25231 0.15564 0.20095
 C687 C 0.23680 0.17565 0.19677
 C688 C 0.22855 0.18991 0.21625
 C689 C 0.23610 0.18405 0.24004
 C690 C 0.25161 0.16428 0.24442
 C691 C 0.27650 0.12817 0.22866
 C692 C 0.28538 0.12093 0.25178
 C693 C 0.30061 0.10064 0.25424
 C694 C 0.30743 0.08696 0.23380
 C695 C 0.29875 0.09407 0.21068
 C696 C 0.28347 0.11451 0.20796
 C697 C 0.26000 0.14145 0.18124
 C698 C 0.27517 0.12129 0.18468
 H699 H 0.25411 0.14594 0.16284
 H700 H 0.28053 0.11086 0.16882
 H701 H 0.23078 0.18001 0.17838
 H702 H 0.23001 0.19495 0.25528
 H703 H 0.30738 0.09584 0.27225
 H704 H 0.30363 0.08351 0.19476
 H705 H 0.25673 0.16070 0.26311
 H706 H 0.28091 0.13069 0.26819
 C707 C 0.75809 0.65533 0.72426
 C708 C 0.74925 0.65981 0.70030
 C709 C 0.73399 0.67989 0.69559
 C710 C 0.72696 0.69544 0.71451
 C711 C 0.73535 0.69080 0.73828
 C712 C 0.75077 0.67106 0.74315
 C713 C 0.77459 0.63383 0.72845
 C714 C 0.78523 0.62836 0.75134
 C715 C 0.80036 0.60806 0.75432
 C716 C 0.80525 0.59254 0.73466
 C717 C 0.79487 0.59796 0.71174
 C718 C 0.77985 0.61849 0.70846
 C719 C 0.75544 0.64410 0.68125
 C720 C 0.77022 0.62377 0.68528
 H721 H 0.74858 0.64747 0.66293
 H722 H 0.77432 0.61208 0.66995
 H723 H 0.72721 0.68330 0.67725
 H724 H 0.73006 0.70266 0.75308
 H725 H 0.80852 0.60470 0.77209
 H726 H 0.79825 0.58604 0.69642
 H727 H 0.75658 0.66841 0.76181
 H728 H 0.78232 0.63962 0.76713
 C729 C 0.76312 0.34666 0.77340
 C730 C 0.74966 0.34491 0.79545
 C731 C 0.73410 0.32491 0.79965
 C732 C 0.73091 0.30711 0.78174
 C733 C 0.74352 0.30917 0.75961
 C734 C 0.75962 0.32861 0.75548
 C735 C 0.77990 0.36808 0.76983
 C736 C 0.79580 0.37046 0.74962
 C737 C 0.81068 0.39105 0.74689
 C738 C 0.80982 0.40984 0.76403
 C739 C 0.79452 0.40748 0.78446
 C740 C 0.77996 0.38659 0.78773
 C741 C 0.75130 0.36340 0.81288
 C742 C 0.76574 0.38402 0.80888
 H743 H 0.74084 0.36215 0.82966
 H744 H 0.76601 0.39805 0.82270
 H745 H 0.72386 0.32341 0.81656
 H746 H 0.74093 0.29557 0.74559
 H747 H 0.82255 0.39256 0.73109
 H748 H 0.79424 0.42182 0.79798
 H749 H 0.76878 0.32938 0.73806
 H750 H 0.79714 0.35658 0.73584
 C751 C 0.25781 -0.15124 0.27187
 C752 C 0.25023 -0.15662 0.29600
 C753 C 0.23431 -0.17629 0.30048
 C754 C 0.22554 -0.19068 0.28122
 C755 C 0.23291 -0.18528 0.25734
 C756 C 0.24885 -0.16585 0.25266
 C757 C 0.27489 -0.13008 0.26789
 C758 C 0.28387 -0.12345 0.24470
 C759 C 0.29963 -0.10352 0.24195
 C760 C 0.30685 -0.08959 0.26218
 C761 C 0.29809 -0.09612 0.28537
 C762 C 0.28233 -0.11621 0.28838
 C763 C 0.25843 -0.14227 0.31549
 C764 C 0.27403 -0.12244 0.31175
 H765 H 0.25259 -0.14636 0.33394
 H766 H 0.27976 -0.11185 0.32744
 H767 H 0.22841 -0.18030 0.31894
 H768 H 0.22638 -0.19628 0.24227
 H769 H 0.30644 -0.09919 0.22390
 H770 H 0.30328 -0.08536 0.30112
 H771 H 0.25381 -0.16261 0.23390
 H772 H 0.27911 -0.13345 0.22845
 C773 C 0.23738 -0.15126 0.71807
 C774 C 0.26291 -0.14898 0.72352
 C775 C 0.27897 -0.16851 0.71940
 C776 C 0.26997 -0.19066 0.71036
 C777 C 0.24462 -0.19303 0.70536
 C778 C 0.22851 -0.17363 0.70907
 C779 C 0.22092 -0.12982 0.72242
 C780 C 0.19549 -0.12979 0.71655
 C781 C 0.18096 -0.10939 0.72110
 C782 C 0.19131 -0.08857 0.73173
 C783 C 0.21663 -0.08832 0.73746
 C784 C 0.23149 -0.10861 0.73269
 C785 C 0.27226 -0.12732 0.73325
 C786 C 0.25685 -0.10765 0.73795
 H787 H 0.29178 -0.12561 0.73751
 H788 H 0.26496 -0.09136 0.74569
 H789 H 0.29856 -0.16653 0.72322
 H790 H 0.23724 -0.21008 0.69870
 H791 H 0.16143 -0.11000 0.71660
 H792 H 0.22484 -0.07211 0.74528
 H793 H 0.20922 -0.17663 0.70499
 H794 H 0.18646 -0.14525 0.70837
 C795 C 0.73938 0.34220 0.22077
 C796 C 0.76508 0.34660 0.21836
 C797 C 0.78135 0.32720 0.21443
 C798 C 0.77238 0.30342 0.21230
 C799 C 0.74692 0.29910 0.21406
 C800 C 0.73057 0.31819 0.21834
 C801 C 0.72270 0.36339 0.22551
 C802 C 0.69711 0.36084 0.22974
 C803 C 0.68238 0.38118 0.23401
 C804 C 0.69271 0.40454 0.23397
 C805 C 0.71817 0.40729 0.22998
 C806 C 0.73323 0.38696 0.22608
 C807 C 0.77437 0.37032 0.21959
 C808 C 0.75875 0.39009 0.22307
 H809 H 0.79402 0.37369 0.21759
 H810 H 0.76683 0.40811 0.22366
 H811 H 0.80104 0.33053 0.21268
 H812 H 0.73976 0.28080 0.21236
 H813 H 0.66275 0.37867 0.23705
 H814 H 0.72633 0.42530 0.23039
 H815 H 0.71117 0.31377 0.21950
 H816 H 0.68811 0.34335 0.23000
 C817 C 0.74341 0.64433 0.28803
 C818 C 0.74424 0.66233 0.26953
 C819 C 0.75949 0.68280 0.27235
 C820 C 0.77321 0.68613 0.29380
 C821 C 0.77172 0.66887 0.31250
 C822 C 0.75714 0.64809 0.30965
 C823 C 0.72752 0.62234 0.28392
 C824 C 0.72727 0.60229 0.30000
 C825 C 0.71208 0.58225 0.29534
 C826 C 0.69658 0.58189 0.27481
 C827 C 0.69684 0.60157 0.25856
 C828 C 0.71253 0.62150 0.26268
 C829 C 0.72951 0.66004 0.24857
 C830 C 0.71364 0.64029 0.24544
 H831 H 0.72996 0.67393 0.23453
 H832 H 0.70234 0.63953 0.22907
 H833 H 0.76037 0.69650 0.25813
 H834 H 0.78213 0.67143 0.32923
 H835 H 0.71221 0.56707 0.30796
 H836 H 0.68521 0.60104 0.24238
 H837 H 0.75663 0.63538 0.32465
 H838 H 0.73885 0.60159 0.31606
 C839 C 0.24128 0.15205 0.78539
 C840 C 0.24213 0.17017 0.76702
 C841 C 0.25815 0.19013 0.76956
 C842 C 0.27266 0.19280 0.79060
 C843 C 0.27112 0.17543 0.80921
 C844 C 0.25574 0.15519 0.80665
 C845 C 0.22473 0.13050 0.78152
 C846 C 0.22447 0.11032 0.79741
 C847 C 0.20898 0.09052 0.79280
 C848 C 0.19314 0.09051 0.77252
 C849 C 0.19319 0.11042 0.75656
 C850 C 0.20923 0.13013 0.76061
 C851 C 0.22674 0.16845 0.74646
 C852 C 0.21031 0.14909 0.74355
 H853 H 0.22720 0.18244 0.73253
 H854 H 0.19861 0.14873 0.72744
 H855 H 0.25908 0.20390 0.75541
 H856 H 0.28214 0.17746 0.82563
 H857 H 0.20928 0.07516 0.80519
 H858 H 0.18128 0.11016 0.74058
 H859 H 0.25528 0.14240 0.82157
 H860 H 0.23637 0.10926 0.81322
 C861 C 0.22682 0.25923 0.15308
 C862 C 0.20239 0.25112 0.15772
 C863 C 0.19773 0.23513 0.17716
 C864 C 0.21709 0.22684 0.19210
 C865 C 0.24127 0.23478 0.18744
 C866 C 0.24613 0.25076 0.16824
 C867 C 0.23099 0.27632 0.13211
 C868 C 0.25448 0.28574 0.12617
 C869 C 0.25742 0.30142 0.10634
 C870 C 0.23710 0.30816 0.09183
 C871 C 0.21359 0.29900 0.09770
 C872 C 0.21039 0.28328 0.11767
 C873 C 0.18280 0.25886 0.14283
 C874 C 0.18673 0.27450 0.12319
 H875 H 0.16412 0.25262 0.14636
 H876 H 0.17095 0.27986 0.11217
 H877 H 0.17905 0.22882 0.18056
 H878 H 0.25643 0.22866 0.19886
 H879 H 0.27569 0.30853 0.10251
 H880 H 0.19777 0.30383 0.08649
 H881 H 0.26510 0.25617 0.16559
 H882 H 0.27082 0.28134 0.13661
 C883 C 0.72659 0.76340 0.64978
 C884 C 0.70200 0.75593 0.65463
 C885 C 0.69704 0.74033 0.67432
 C886 C 0.71625 0.73185 0.68933
 C887 C 0.74061 0.73904 0.68438
 C888 C 0.74577 0.75462 0.66491
 C889 C 0.73105 0.78025 0.62867
 C890 C 0.75472 0.78911 0.62255
 C891 C 0.75789 0.80474 0.60270
 C892 C 0.73762 0.81196 0.58837
 C893 C 0.71396 0.80327 0.59436
 C894 C 0.71054 0.78763 0.61434
 C895 C 0.68252 0.76399 0.63978
 C896 C 0.68670 0.77941 0.62003
 H897 H 0.66371 0.75823 0.64346
 H898 H 0.67099 0.78508 0.60907
 H899 H 0.67822 0.73456 0.67791
 H900 H 0.75567 0.73274 0.69583
 H901 H 0.77629 0.81145 0.59875
 H902 H 0.69818 0.80845 0.58325
 H903 H 0.76486 0.75951 0.66208
 H904 H 0.77102 0.78435 0.63289
 C905 C 0.77473 0.75687 0.35490
 C906 C 0.79925 0.75010 0.34905
 C907 C 0.80365 0.73378 0.32992
 C908 C 0.78393 0.72380 0.31656
 C909 C 0.75965 0.73010 0.32270
 C910 C 0.75504 0.74643 0.34156
 C911 C 0.77086 0.77472 0.37516
 C912 C 0.74732 0.78338 0.38177
 C913 C 0.74469 0.79995 0.40081
 C914 C 0.76539 0.80833 0.41387
 C915 C 0.78895 0.79992 0.40730
 C916 C 0.79183 0.78341 0.38804
 C917 C 0.81921 0.75954 0.36238
 C918 C 0.81558 0.77568 0.38157
 H919 H 0.83798 0.75428 0.35798
 H920 H 0.83165 0.78237 0.39138
 H921 H 0.82243 0.72864 0.32546
 H922 H 0.74418 0.72258 0.31259
 H923 H 0.72634 0.80646 0.40511
 H924 H 0.80510 0.80602 0.41738
 H925 H 0.73597 0.75059 0.34536
 H926 H 0.73070 0.77777 0.37239
 C927 C 0.28211 0.25963 -0.14472
 C928 C 0.26082 0.25183 -0.15769
 C929 C 0.26321 0.23643 -0.17791
 C930 C 0.28660 0.22891 -0.18578
 C931 C 0.30767 0.23673 -0.17303
 C932 C 0.30553 0.25185 -0.15275
 C933 C 0.27872 0.27604 -0.12318
 C934 C 0.29859 0.28432 -0.10866
 C935 C 0.29449 0.29978 -0.08894
 C936 C 0.27050 0.30749 -0.08315
 C937 C 0.25057 0.29917 -0.09740
 C938 C 0.25446 0.28349 -0.11716
 C939 C 0.23730 0.25963 -0.15059
 C940 C 0.23420 0.27523 -0.13087
 H941 H 0.22101 0.25371 -0.16056
 H942 H 0.21562 0.28086 -0.12623
 H943 H 0.24689 0.23058 -0.18788
 H944 H 0.32588 0.23094 -0.17874
 H945 H 0.31018 0.30548 -0.07801
 H946 H 0.23196 0.30517 -0.09332
 H947 H 0.32242 0.25729 -0.14376
 H948 H 0.31744 0.27901 -0.11208
 C949 C 0.72773 0.23932 -0.15400
 C950 C 0.70335 0.24697 -0.15961
 C951 C 0.69902 0.26253 -0.17951
 C952 C 0.71867 0.27083 -0.19395
 C953 C 0.74280 0.26342 -0.18825
 C954 C 0.74733 0.24785 -0.16860
 C955 C 0.73154 0.22262 -0.13263
 C956 C 0.75495 0.21358 -0.12580
 C957 C 0.75753 0.19814 -0.10571
 C958 C 0.73691 0.19129 -0.09183
 C959 C 0.71350 0.20015 -0.09853
 C960 C 0.71066 0.21559 -0.11878
 C961 C 0.68348 0.23922 -0.14525
 C962 C 0.68706 0.22396 -0.12521
 H963 H 0.66483 0.24512 -0.14950
 H964 H 0.67107 0.21855 -0.11464
 H965 H 0.68037 0.26852 -0.18361
 H966 H 0.75822 0.26959 -0.19919
 H967 H 0.77575 0.19126 -0.10125
 H968 H 0.69745 0.19524 -0.08780
 H969 H 0.76629 0.24282 -0.16518
 H970 H 0.77150 0.21805 -0.13576
 C971 C 0.22399 0.74072 0.34510
 C972 C 0.19958 0.74888 0.34054
 C973 C 0.19475 0.76471 0.32097
 C974 C 0.21395 0.77275 0.30582
 C975 C 0.23811 0.76470 0.31037
 C976 C 0.24313 0.74890 0.32971
 C977 C 0.22835 0.72388 0.36626
 C978 C 0.25187 0.71453 0.37224
 C979 C 0.25500 0.69910 0.39225
 C980 C 0.23483 0.69252 0.40689
 C981 C 0.21129 0.70160 0.40099
 C982 C 0.20792 0.71711 0.38086
 C983 C 0.18015 0.74137 0.35560
 C984 C 0.18423 0.72588 0.37536
 H985 H 0.16146 0.74763 0.35212
 H986 H 0.16858 0.72068 0.38652
 H987 H 0.17608 0.77109 0.31765
 H988 H 0.25315 0.77061 0.29877
 H989 H 0.27329 0.69205 0.39613
 H990 H 0.19559 0.69690 0.41231
 H991 H 0.26209 0.74340 0.33226
 H992 H 0.26810 0.71883 0.36171
 C993 C 0.27729 0.74473 0.64313
 C994 C 0.28344 0.73416 0.66595
 C995 C 0.28645 0.74886 0.68664
 C996 C 0.28373 0.77414 0.68500
 C997 C 0.27812 0.78462 0.66230
 C998 C 0.27488 0.77018 0.64164
 C999 C 0.27367 0.72831 0.62160
 C1000 C 0.26651 0.73687 0.59835
 C1001 C 0.26319 0.72081 0.57894
 C1002 C 0.26702 0.69583 0.58211
 C1003 C 0.27415 0.68709 0.60516
 C1004 C 0.27730 0.70305 0.62489
 C1005 C 0.28659 0.70900 0.66800
 C1006 C 0.28375 0.69381 0.64788
 H1007 H 0.29141 0.70093 0.68543
 H1008 H 0.28647 0.67447 0.65041
 H1009 H 0.29074 0.74066 0.70415
 H1010 H 0.27630 0.80413 0.66057
 H1011 H 0.25784 0.72799 0.56128
 H1012 H 0.27677 0.66776 0.60786
 H1013 H 0.27062 0.77933 0.62474
 H1014 H 0.26325 0.75585 0.59475
 C1015 C 0.77664 0.23407 0.14946
 C1016 C 0.77218 0.25921 0.14632
 C1017 C 0.77613 0.27532 0.16576
 C1018 C 0.78452 0.26683 0.18848
 C1019 C 0.78851 0.24188 0.19171
 C1020 C 0.78467 0.22568 0.17251
 C1021 C 0.77275 0.21756 0.12804
 C1022 C 0.77724 0.19237 0.12906
 C1023 C 0.77370 0.17785 0.10850
 C1024 C 0.76553 0.18797 0.08639
 C1025 C 0.76086 0.21300 0.08520
 C1026 C 0.76449 0.22781 0.10573
 C1027 C 0.76395 0.26818 0.12377
 C1028 C 0.76013 0.25281 0.10394
 H1029 H 0.76047 0.28741 0.12139
 H1030 H 0.75380 0.26067 0.08687
 H1031 H 0.77307 0.29460 0.16316
 H1032 H 0.79464 0.23494 0.20922
 H1033 H 0.77715 0.15854 0.10998
 H1034 H 0.75486 0.22105 0.06810
 H1035 H 0.78813 0.20675 0.17613
 H1036 H 0.78357 0.18349 0.14549
 C1037 C 0.47242 0.40119 0.51097
 C1038 C 0.47584 0.39768 0.48563
 C1039 C 0.47221 0.41703 0.46928
 C1040 C 0.46533 0.44006 0.47773
 C1041 C 0.46243 0.44362 0.50288
 C1042 C 0.46587 0.42449 0.51931
 C1043 C 0.47593 0.37988 0.52776
 C1044 C 0.47218 0.38122 0.55316
 C1045 C 0.47546 0.36080 0.56796
 C1046 C 0.48265 0.33853 0.55792
 C1047 C 0.48648 0.33699 0.53267
 C1048 C 0.48304 0.35736 0.51756
 C1049 C 0.48279 0.37490 0.47671
 C1050 C 0.48644 0.35522 0.49234
 H1051 H 0.48549 0.37225 0.45732
 H1052 H 0.49184 0.33798 0.48452
 H1053 H 0.47443 0.41412 0.44986
 H1054 H 0.45752 0.46134 0.50984
 H1055 H 0.47262 0.36251 0.58743
 H1056 H 0.49168 0.31976 0.52468
 H1057 H 0.46335 0.42840 0.53840
 H1058 H 0.46662 0.39779 0.56199
 C1059 C -0.03486 0.89148 0.00510
 C1060 C -0.01365 0.90496 -0.00180
 C1061 C -0.01606 0.92531 -0.01711
 C1062 C -0.03939 0.93272 -0.02551
 C1063 C -0.06037 0.91943 -0.01862
 C1064 C -0.05821 0.89907 -0.00355
 C1065 C -0.03148 0.86990 0.02157
 C1066 C -0.05128 0.85505 0.02917
 C1067 C -0.04723 0.83541 0.04483
 C1068 C -0.02336 0.82999 0.05339
 C1069 C -0.00347 0.84451 0.04568
 C1070 C -0.00732 0.86427 0.02986
 C1071 C 0.00978 0.89822 0.00681
 C1072 C 0.01287 0.87840 0.02238
 H1073 H 0.02600 0.90856 0.00156
 H1074 H 0.03138 0.87405 0.02867
 H1075 H 0.00017 0.93571 -0.02224
 H1076 H -0.07852 0.92482 -0.02505
 H1077 H -0.06286 0.82426 0.05007
 H1078 H 0.01504 0.84070 0.05234
 H1079 H -0.07504 0.88966 0.00115
 H1080 H -0.07004 0.85820 0.02323
 C1081 C 0.02319 0.59461 0.01047
 C1082 C 0.04777 0.59043 0.00272
 C1083 C 0.05292 0.57141 -0.01348
 C1084 C 0.03385 0.55655 -0.02243
 C1085 C 0.00954 0.56067 -0.01475
 C1086 C 0.00422 0.57938 0.00151
 C1087 C 0.01844 0.61533 0.02753
 C1088 C -0.00526 0.62087 0.03655
 C1089 C -0.00878 0.64065 0.05202
 C1090 C 0.01117 0.65548 0.05897
 C1091 C 0.03490 0.64994 0.05030
 C1092 C 0.03868 0.63005 0.03479
 C1093 C 0.06702 0.60546 0.01088
 C1094 C 0.06255 0.62490 0.02647
 H1095 H 0.08582 0.60228 0.00494
 H1096 H 0.07806 0.63610 0.03209
 H1097 H 0.07169 0.56843 -0.01963
 H1098 H -0.00539 0.54931 -0.02143
 H1099 H -0.02721 0.64419 0.05878
 H1100 H 0.05045 0.66140 0.05527
 H1101 H -0.01486 0.58169 0.00663
 H1102 H -0.02134 0.61018 0.03195
 C1103 C 0.52626 0.10376 0.50509
 C1104 C 0.53426 0.08149 0.51538
 C1105 C 0.53854 0.06135 0.50034
 C1106 C 0.53520 0.06302 0.47499
 C1107 C 0.52753 0.08514 0.46480
 C1108 C 0.52307 0.10525 0.47957
 C1109 C 0.52166 0.12477 0.52184
 C1110 C 0.51308 0.14751 0.51354
 C1111 C 0.50918 0.16651 0.52988
 C1112 C 0.51375 0.16343 0.55490
 C1113 C 0.52218 0.14083 0.56339
 C1114 C 0.52604 0.12154 0.54714
 C1115 C 0.53802 0.07945 0.54060
 C1116 C 0.53411 0.09907 0.55612
 H1117 H 0.54420 0.06243 0.54848
 H1118 H 0.53739 0.09657 0.57549
 H1119 H 0.54435 0.04425 0.50832
 H1120 H 0.52512 0.08687 0.44524
 H1121 H 0.50289 0.18383 0.52284
 H1122 H 0.52541 0.13816 0.58275
 H1123 H 0.51727 0.12174 0.47062
 H1124 H 0.50927 0.15105 0.49454
 C1125 C -0.02474 0.10834 0.49701
 C1126 C -0.03190 0.08583 0.48668
 C1127 C -0.03604 0.06559 0.50176
 C1128 C -0.03353 0.06739 0.52718
 C1129 C -0.02648 0.08969 0.53738
 C1130 C -0.02208 0.10989 0.52257
 C1131 C -0.02059 0.12954 0.48024
 C1132 C -0.01300 0.15260 0.48859
 C1133 C -0.00959 0.17179 0.47224
 C1134 C -0.01372 0.16859 0.44718
 C1135 C -0.02113 0.14569 0.43865
 C1136 C -0.02447 0.12620 0.45490
 C1137 C -0.03510 0.08368 0.46141
 C1138 C -0.03157 0.10345 0.44588
 H1139 H -0.04060 0.06646 0.45351
 H1140 H -0.03445 0.10087 0.42647
 H1141 H -0.04131 0.04835 0.49375
 H1142 H -0.02466 0.09154 0.55698
 H1143 H -0.00405 0.18935 0.47930
 H1144 H -0.02398 0.14294 0.41926
 H1145 H -0.01687 0.12654 0.53154
 H1146 H -0.00960 0.15624 0.50763
 C1147 C 0.47862 0.59769 0.98843
 C1148 C 0.45456 0.59231 0.99707
 C1149 C 0.45083 0.57280 1.01319
 C1150 C 0.47079 0.55853 1.02108
 C1151 C 0.49459 0.56386 1.01252
 C1152 C 0.49851 0.58312 0.99639
 C1153 C 0.48183 0.61886 0.97143
 C1154 C 0.50492 0.62563 0.96166
 C1155 C 0.50699 0.64569 0.94618
 C1156 C 0.48616 0.65958 0.93998
 C1157 C 0.46304 0.65286 0.94944
 C1158 C 0.46072 0.63268 0.96500
 C1159 C 0.43441 0.60658 0.98981
 C1160 C 0.43743 0.62636 0.97418
 H1161 H 0.41600 0.60247 0.99643
 H1162 H 0.42126 0.63691 0.96923
 H1163 H 0.43245 0.56891 1.02000
 H1164 H 0.51020 0.55297 1.01834
 H1165 H 0.52499 0.65019 0.93881
 H1166 H 0.44683 0.66360 0.94503
 H1167 H 0.51724 0.58632 0.99053
 H1168 H 0.52162 0.61570 0.96566
 C1169 C 0.52952 0.89513 0.99172
 C1170 C 0.50877 0.90911 0.99869
 C1171 C 0.51190 0.92947 1.01378
 C1172 C 0.53552 0.93637 1.02190
 C1173 C 0.55602 0.92248 1.01507
 C1174 C 0.55313 0.90212 1.00023
 C1175 C 0.52543 0.87373 0.97529
 C1176 C 0.54480 0.85861 0.96743
 C1177 C 0.54012 0.83923 0.95170
 C1178 C 0.51606 0.83434 0.94333
 C1179 C 0.49657 0.84908 0.95135
 C1180 C 0.50105 0.86863 0.96720
 C1181 C 0.48508 0.90288 0.99032
 C1182 C 0.48132 0.88313 0.97485
 H1183 H 0.46919 0.91356 0.99564
 H1184 H 0.46264 0.87919 0.96874
 H1185 H 0.49604 0.94031 1.01886
 H1186 H 0.57438 0.92744 1.02132
 H1187 H 0.55544 0.82788 0.94622
 H1188 H 0.47792 0.84563 0.94486
 H1189 H 0.56964 0.89228 0.99555
 H1190 H 0.56369 0.86136 0.97317
 C1191 C 0.02267 0.40601 0.48934
 C1192 C 0.04676 0.41079 0.49844
 C1193 C 0.05089 0.43045 0.51419
 C1194 C 0.03133 0.44554 0.52121
 C1195 C 0.00750 0.44083 0.51221
 C1196 C 0.00316 0.42136 0.49648
 C1197 C 0.01905 0.38473 0.47264
 C1198 C -0.00410 0.37845 0.46251
 C1199 C -0.00653 0.35832 0.44724
 C1200 C 0.01401 0.34388 0.44162
 C1201 C 0.03718 0.35006 0.45151
 C1202 C 0.03984 0.37028 0.46687
 C1203 C 0.06656 0.39585 0.49191
 C1204 C 0.06317 0.37601 0.47651
 H1205 H 0.08499 0.39950 0.49888
 H1206 H 0.07909 0.36498 0.47207
 H1207 H 0.06931 0.43392 0.52128
 H1208 H -0.00779 0.45240 0.51730
 H1209 H -0.02455 0.35419 0.43958
 H1210 H 0.05313 0.33888 0.44756
 H1211 H -0.01557 0.41868 0.49020
 H1212 H -0.02058 0.38881 0.46607
 C1213 C 0.40250 0.51063 0.47124
 C1214 C 0.39875 0.48562 0.47609
 C1215 C 0.41809 0.46902 0.47266
 C1216 C 0.44136 0.47693 0.46461
 C1217 C 0.44511 0.50172 0.46005
 C1218 C 0.42601 0.51837 0.46328
 C1219 C 0.38125 0.52771 0.47475
 C1220 C 0.38287 0.55280 0.46982
 C1221 C 0.36249 0.56790 0.47316
 C1222 C 0.33996 0.55848 0.48158
 C1223 C 0.33814 0.53354 0.48663
 C1224 C 0.35848 0.51813 0.48317
 C1225 C 0.37573 0.47732 0.48431
 C1226 C 0.35607 0.49323 0.48787
 H1227 H 0.37287 0.45819 0.48809
 H1228 H 0.33865 0.48589 0.49427
 H1229 H 0.41503 0.44984 0.47602
 H1230 H 0.46299 0.50822 0.45403
 H1231 H 0.36443 0.58712 0.46938
 H1232 H 0.32070 0.52604 0.49283
 H1233 H 0.43010 0.53717 0.45949
 H1234 H 0.39964 0.56116 0.46330
 C1235 C 0.89996 0.00437 -0.02713
 C1236 C 0.90517 -0.00314 -0.05126
 C1237 C 0.92451 -0.01950 -0.05566
 C1238 C 0.93871 -0.02879 -0.03633
 C1239 C 0.93354 -0.02138 -0.01246
 C1240 C 0.91447 -0.00501 -0.00785
 C1241 C 0.87903 0.02176 -0.02321
 C1242 C 0.87251 0.03058 0.00000
 C1243 C 0.85267 0.04651 0.00272
 C1244 C 0.83874 0.05410 -0.01757
 C1245 C 0.84522 0.04555 -0.04080
 C1246 C 0.86519 0.02959 -0.04376
 C1247 C 0.89092 0.00550 -0.07082
 C1248 C 0.87131 0.02143 -0.06714
 H1249 H 0.89490 -0.00027 -0.08928
 H1250 H 0.86076 0.02746 -0.08289
 H1251 H 0.92831 -0.02540 -0.07412
 H1252 H 0.94441 -0.02829 0.00268
 H1253 H 0.84839 0.05314 0.02079
 H1254 H 0.83444 0.05103 -0.05660
 H1255 H 0.91137 -0.00007 0.01090
 H1256 H 0.88249 0.02551 0.01630
 C1257 C 0.59868 0.00623 0.02149
 C1258 C 0.59379 -0.00127 0.04575
 C1259 C 0.57398 -0.01705 0.05061
 C1260 C 0.55897 -0.02575 0.03163
 C1261 C 0.56389 -0.01849 0.00762
 C1262 C 0.58344 -0.00268 0.00255
 C1263 C 0.61999 0.02318 0.01711
 C1264 C 0.62614 0.03212 -0.00622
 C1265 C 0.64622 0.04781 -0.00933
 C1266 C 0.66076 0.05500 0.01067
 C1267 C 0.65473 0.04623 0.03399
 C1268 C 0.63450 0.03057 0.03736
 C1269 C 0.60878 0.00685 0.06498
 C1270 C 0.62876 0.02233 0.06086
 H1271 H 0.60506 0.00106 0.08353
 H1272 H 0.63985 0.02802 0.07636
 H1273 H 0.57035 -0.02289 0.06917
 H1274 H 0.55242 -0.02500 -0.00724
 H1275 H 0.65017 0.05459 -0.02746
 H1276 H 0.66599 0.05138 0.04956
 H1277 H 0.58631 0.00223 -0.01628
 H1278 H 0.61564 0.02738 -0.02229
 C1279 C 0.09943 0.51078 0.52867
 C1280 C 0.08478 0.50415 0.50823
 C1281 C 0.06399 0.48915 0.51129
 C1282 C 0.05732 0.48073 0.53451
 C1283 C 0.07180 0.48727 0.55473
 C1284 C 0.09259 0.50208 0.55191
 C1285 C 0.12141 0.52696 0.52462
 C1286 C 0.13729 0.53443 0.54366
 C1287 C 0.15731 0.54976 0.53901
 C1288 C 0.16211 0.55812 0.51529
 C1289 C 0.14654 0.55061 0.49615
 C1290 C 0.12636 0.53513 0.50061
 C1291 C 0.09084 0.51268 0.48491
 C1292 C 0.11112 0.52790 0.48120
 H1293 H 0.07962 0.50762 0.46928
 H1294 H 0.11493 0.53410 0.46281
 H1295 H 0.05269 0.48424 0.49566
 H1296 H 0.06701 0.48078 0.57277
 H1297 H 0.16927 0.55490 0.55405
 H1298 H 0.14989 0.55713 0.47778
 H1299 H 0.10293 0.50652 0.56817
 H1300 H 0.13466 0.52863 0.56227
 C1301 C 0.10151 0.49108 -0.03037
 C1302 C 0.08671 0.49755 -0.01016
 C1303 C 0.06626 0.51292 -0.01342
 C1304 C 0.06013 0.52195 -0.03662
 C1305 C 0.07475 0.51546 -0.05662
 C1306 C 0.09516 0.50026 -0.05360
 C1307 C 0.12321 0.47463 -0.02610
 C1308 C 0.13924 0.46733 -0.04490
 C1309 C 0.15909 0.45187 -0.04001
 C1310 C 0.16355 0.44322 -0.01630
 C1311 C 0.14778 0.45050 0.00259
 C1312 C 0.12777 0.46610 -0.00210
 C1313 C 0.09231 0.48857 0.01314
 C1314 C 0.11235 0.47314 0.01707
 H1315 H 0.08097 0.49350 0.02861
 H1316 H 0.11584 0.46663 0.03545
 H1317 H 0.05487 0.51770 0.00206
 H1318 H 0.07044 0.52237 -0.07466
 H1319 H 0.17120 0.44692 -0.05486
 H1320 H 0.15086 0.44375 0.02095
 H1321 H 0.10564 0.49596 -0.06970
 H1322 H 0.13689 0.47337 -0.06348
 C1323 C 0.60287 0.99733 0.47215
 C1324 C 0.57984 0.98685 0.46561
 C1325 C 0.55911 1.00168 0.46166
 C1326 C 0.56094 1.02701 0.46380
 C1327 C 0.58382 1.03737 0.47001
 C1328 C 0.60451 1.02280 0.47419
 C1329 C 0.62450 0.98080 0.47645
 C1330 C 0.64802 0.98931 0.48370
 C1331 C 0.66757 0.97317 0.48742
 C1332 C 0.66426 0.94816 0.48394
 C1333 C 0.64090 0.93947 0.47683
 C1334 C 0.62105 0.95551 0.47321
 C1335 C 0.57762 0.96165 0.46295
 C1336 C 0.59781 0.94634 0.46654
 H1337 H 0.56000 0.95364 0.45789
 H1338 H 0.59514 0.92698 0.46413
 H1339 H 0.54144 0.99355 0.45697
 H1340 H 0.58571 1.05689 0.47147
 H1341 H 0.68547 0.98035 0.49271
 H1342 H 0.63807 0.92012 0.47446
 H1343 H 0.62157 1.03188 0.47883
 H1344 H 0.65177 1.00831 0.48664
 C1345 C 0.89996 1.00001 0.52739
 C1346 C 0.92278 0.99022 0.53546
 C1347 C 0.94294 1.00563 0.54026
 C1348 C 0.94073 1.03086 0.53745
 C1349 C 0.91804 1.04055 0.52972
 C1350 C 0.89793 1.02540 0.52469
 C1351 C 0.87892 0.98288 0.52236
 C1352 C 0.85566 0.99067 0.51365
 C1353 C 0.83658 0.97402 0.50955
 C1354 C 0.84011 0.94918 0.51404
 C1355 C 0.86327 0.94119 0.52245
 C1356 C 0.88264 0.95775 0.52650
 C1357 C 0.92534 0.96514 0.53886
 C1358 C 0.90567 0.94927 0.53461
 H1359 H 0.94280 0.95765 0.54508
 H1360 H 0.90855 0.93004 0.53769
 H1361 H 0.96046 0.99804 0.54616
 H1362 H 0.91584 1.06000 0.52775
 H1363 H 0.81883 0.98067 0.50324
 H1364 H 0.86628 0.92198 0.52561
 H1365 H 0.88097 1.03397 0.51890
 H1366 H 0.85176 1.00951 0.50994
 C1367 C 0.40404 0.49226 0.03171
 C1368 C 0.41773 0.49901 0.01078
 C1369 C 0.43838 0.51437 0.01305
 C1370 C 0.44585 0.52304 0.03597
 C1371 C 0.43246 0.51612 0.05670
 C1372 C 0.41183 0.50097 0.05467
 C1373 C 0.38197 0.47598 0.02846
 C1374 C 0.36675 0.46871 0.04799
 C1375 C 0.34654 0.45337 0.04404
 C1376 C 0.34089 0.44481 0.02057
 C1377 C 0.35581 0.45213 0.00096
 C1378 C 0.37613 0.46765 0.00469
 C1379 C 0.41084 0.49030 -0.01226
 C1380 C 0.39058 0.47486 -0.01522
 H1381 H 0.42135 0.49542 -0.02827
 H1382 H 0.38609 0.46854 -0.03342
 H1383 H 0.44888 0.51946 -0.00299
 H1384 H 0.43788 0.52270 0.07455
 H1385 H 0.33509 0.44843 0.05945
 H1386 H 0.35183 0.44546 -0.01724
 H1387 H 0.40232 0.49632 0.07129
 H1388 H 0.37002 0.47470 0.06643
 C1389 C 0.50699 0.46875 0.39811
 C1390 C 0.51769 0.46548 0.42154
 C1391 C 0.50251 0.46213 0.44200
 C1392 C 0.47670 0.46242 0.43959
 C1393 C 0.46610 0.46583 0.41648
 C1394 C 0.48098 0.46889 0.39596
 C1395 C 0.52386 0.47224 0.37672
 C1396 C 0.51511 0.47478 0.35257
 C1397 C 0.53156 0.47813 0.33331
 C1398 C 0.55713 0.47917 0.33755
 C1399 C 0.56607 0.47654 0.36149
 C1400 C 0.54971 0.47289 0.38100
 C1401 C 0.54344 0.46592 0.42445
 C1402 C 0.55909 0.46972 0.40466
 H1403 H 0.55163 0.46349 0.44238
 H1404 H 0.57888 0.47010 0.40792
 H1405 H 0.51068 0.45977 0.45995
 H1406 H 0.44617 0.46607 0.41437
 H1407 H 0.52423 0.48023 0.31499
 H1408 H 0.58585 0.47692 0.36486
 H1409 H 0.47172 0.47154 0.37870
 H1410 H 0.49567 0.47417 0.34811
 C1411 C 0.00711 -0.03523 0.89901
 C1412 C 0.00099 -0.01566 0.91455
 C1413 C -0.01514 -0.01936 0.93423
 C1414 C -0.02514 -0.04241 0.93893
 C1415 C -0.01881 -0.06184 0.92375
 C1416 C -0.00294 -0.05836 0.90403
 C1417 C 0.02419 -0.03044 0.87802
 C1418 C 0.03077 -0.04844 0.86103
 C1419 C 0.04686 -0.04312 0.84190
 C1420 C 0.05693 -0.01977 0.83914
 C1421 C 0.05029 -0.00163 0.85583
 C1422 C 0.03397 -0.00674 0.87507
 C1423 C 0.01111 0.00742 0.91048
 C1424 C 0.02737 0.01174 0.89127
 H1425 H 0.00649 0.02238 0.92242
 H1426 H 0.03479 0.02991 0.88899
 H1427 H -0.01978 -0.00437 0.94612
 H1428 H -0.02643 -0.07974 0.92707
 H1429 H 0.05118 -0.05735 0.82901
 H1430 H 0.05806 0.01644 0.85404
 H1431 H 0.00122 -0.07402 0.89305
 H1432 H 0.02361 -0.06670 0.86205
 C1433 C 0.00706 0.03304 0.60517
 C1434 C 0.01784 0.03917 0.58246
 C1435 C 0.00276 0.04362 0.56201
 C1436 C -0.02307 0.04203 0.56374
 C1437 C -0.03373 0.03592 0.58620
 C1438 C -0.01894 0.03147 0.60666
 C1439 C 0.02385 0.02845 0.62658
 C1440 C 0.01501 0.02236 0.64997
 C1441 C 0.03140 0.01819 0.66928
 C1442 C 0.05705 0.01996 0.66587
 C1443 C 0.06605 0.02609 0.64266
 C1444 C 0.04973 0.03034 0.62309
 C1445 C 0.04359 0.04077 0.58026
 C1446 C 0.05918 0.03642 0.60012
 H1447 H 0.05185 0.04545 0.56288
 H1448 H 0.07899 0.03787 0.59744
 H1449 H 0.01105 0.04816 0.54461
 H1450 H -0.05365 0.03477 0.58791
 H1451 H 0.02393 0.01386 0.68707
 H1452 H 0.08583 0.02722 0.63971
 H1453 H -0.02825 0.02687 0.62340
 H1454 H -0.00446 0.02078 0.65382
 C1455 C 0.51711 0.52962 0.09796
 C1456 C 0.51072 0.50970 0.08288
 C1457 C 0.49410 0.51286 0.06337
 C1458 C 0.48410 0.53577 0.05827
 C1459 C 0.49087 0.55560 0.07279
 C1460 C 0.50710 0.55263 0.09244
 C1461 C 0.53436 0.52531 0.11904
 C1462 C 0.54067 0.54352 0.13599
 C1463 C 0.55651 0.53851 0.15553
 C1464 C 0.56671 0.51529 0.15870
 C1465 C 0.56061 0.49705 0.14180
 C1466 C 0.54435 0.50178 0.12231
 C1467 C 0.52108 0.48680 0.08723
 C1468 C 0.53775 0.48300 0.10635
 H1469 H 0.51634 0.47160 0.07559
 H1470 H 0.54532 0.46496 0.10888
 H1471 H 0.48910 0.49761 0.05189
 H1472 H 0.48329 0.57341 0.06901
 H1473 H 0.56034 0.55283 0.16853
 H1474 H 0.56851 0.47909 0.14378
 H1475 H 0.51161 0.56857 0.10295
 H1476 H 0.53327 0.56165 0.13477
 C1477 C 0.49097 -0.02736 0.09673
 C1478 C 0.49915 -0.05134 0.09220
 C1479 C 0.51463 -0.05613 0.07230
 C1480 C 0.52231 -0.03733 0.05675
 C1481 C 0.51414 -0.01363 0.06119
 C1482 C 0.49868 -0.00865 0.08086
 C1483 C 0.47461 -0.02300 0.11832
 C1484 C 0.46542 0.00014 0.12440
 C1485 C 0.45029 0.00324 0.14472
 C1486 C 0.44387 -0.01657 0.15956
 C1487 C 0.45295 -0.03968 0.15367
 C1488 C 0.46814 -0.04303 0.13325
 C1489 C 0.49200 -0.07037 0.10765
 C1490 C 0.47687 -0.06630 0.12774
 H1491 H 0.49826 -0.08872 0.10420
 H1492 H 0.47190 -0.08164 0.13916
 H1493 H 0.52109 -0.07446 0.06906
 H1494 H 0.51975 0.00110 0.04930
 H1495 H 0.44326 0.02121 0.14862
 H1496 H 0.44842 -0.05509 0.16518
 H1497 H 0.49308 0.00996 0.08331
 H1498 H 0.46958 0.01607 0.11370
 C1499 C 0.98640 0.48001 0.59663
 C1500 C 0.99243 0.45581 0.59034
 C1501 C 1.00852 0.45122 0.57086
 C1502 C 1.01873 0.47040 0.55732
 C1503 C 1.01249 0.49432 0.56336
 C1504 C 0.99657 0.49913 0.58273
 C1505 C 0.96951 0.48413 0.61787
 C1506 C 0.96284 0.50747 0.62601
 C1507 C 0.94731 0.51033 0.64607
 C1508 C 0.93792 0.49006 0.65853
 C1509 C 0.94436 0.46674 0.65052
 C1510 C 0.96009 0.46364 0.63046
 C1511 C 0.98247 0.43635 0.60356
 C1512 C 0.96659 0.44017 0.62312
 H1513 H 0.98703 0.41783 0.59871
 H1514 H 0.95939 0.42448 0.63277
 H1515 H 1.01340 0.43269 0.56637
 H1516 H 1.01997 0.50937 0.55297
 H1517 H 0.94242 0.52852 0.65173
 H1518 H 0.93749 0.45095 0.66024
 H1519 H 0.99252 0.51790 0.58646
 H1520 H 0.96944 0.52377 0.61724
 C1521 C 0.99238 0.53037 0.89738
 C1522 C 0.99917 0.50969 0.91128
 C1523 C 1.01472 0.51220 0.93172
 C1524 C 1.02336 0.53513 0.93885
 C1525 C 1.01645 0.55561 0.92527
 C1526 C 1.00121 0.55333 0.90477
 C1527 C 0.97579 0.52690 0.87564
 C1528 C 0.96861 0.54616 0.86019
 C1529 C 0.95278 0.54208 0.84044
 C1530 C 0.94357 0.51875 0.83551
 C1531 C 0.95094 0.49937 0.85056
 C1532 C 0.96700 0.50323 0.87041
 C1533 C 0.99016 0.48669 0.90488
 C1534 C 0.97428 0.48356 0.88501
 H1535 H 0.99529 0.47087 0.91555
 H1536 H 0.96765 0.46542 0.88096
 H1537 H 1.01984 0.49638 0.94241
 H1538 H 1.02303 0.57345 0.93051
 H1539 H 0.94792 0.55729 0.82882
 H1540 H 0.94385 0.48127 0.84709
 H1541 H 0.99649 0.56978 0.89514
 H1542 H 0.97507 0.56449 0.86292
 C1543 C 0.48936 0.02757 0.40084
 C1544 C 0.51518 0.02482 0.39757
 C1545 C 0.53155 0.02958 0.41695
 C1546 C 0.52264 0.03685 0.43979
 C1547 C 0.49706 0.03910 0.44312
 C1548 C 0.48061 0.03456 0.42396
 C1549 C 0.47255 0.02298 0.37946
 C1550 C 0.44671 0.02614 0.38053
 C1551 C 0.43191 0.02209 0.36001
 C1552 C 0.44239 0.01467 0.33790
 C1553 C 0.46807 0.01125 0.33666
 C1554 C 0.48319 0.01553 0.35714
 C1555 C 0.52451 0.01743 0.37499
 C1556 C 0.50885 0.01275 0.35526
 H1557 H 0.54425 0.01522 0.37252
 H1558 H 0.51701 0.00708 0.33817
 H1559 H 0.55132 0.02789 0.41425
 H1560 H 0.48979 0.04438 0.46070
 H1561 H 0.41211 0.02462 0.36148
 H1562 H 0.47636 0.00583 0.31955
 H1563 H 0.46117 0.03663 0.42770
 H1564 H 0.43753 0.03189 0.39694
   
