data_POSCAR
  _audit_creation_date              2014-09-24
  _audit_creation_method            'ToBaCCo'
  _symmetry_space_group_name_H-M    'P1'
  _symmetry_Int_Tables_number       1
  _symmetry_cell_setting            triclinic
  loop_
  _symmetry_equiv_pos_as_xyz
 x,y,z
_cell_length_a 42.0083
_cell_length_b 42.0771
_cell_length_c 42.3251
_cell_angle_alpha 90.274500
_cell_angle_beta 89.984000
_cell_angle_gamma 89.599700
loop_
  _atom_site_label
  _atom_site_type_symbol
  _atom_site_fract_x
  _atom_site_fract_y
  _atom_site_fract_z
C1 C 0.24764 1.05049 0.02866
 C2 C 0.24717 1.06611 -0.00049
 C3 C 0.24811 1.05016 -0.02975
 C4 C 0.25075 1.01628 -0.02961
 C5 C 0.25131 0.99969 -0.00025
 C6 C 0.25107 1.01690 0.02882
 C7 C 0.25802 1.00037 0.05684
 C8 C 0.26072 0.96758 0.05724
 C9 C 0.25777 0.94969 0.02944
 C10 C 0.25447 0.96582 0.00012
 C11 C 0.25680 0.99869 -0.05733
 C12 C 0.25914 0.96569 -0.05701
 C13 C 0.25638 0.94839 -0.02878
 C14 C 0.25876 0.91450 -0.02808
 C15 C 0.25939 0.89949 0.00152
 C16 C 0.26019 0.91621 0.02998
 H17 H 0.26296 1.01253 0.07878
 H18 H 0.26632 0.95661 0.07961
 H19 H 0.26159 1.01014 -0.07956
 H20 H 0.26496 0.95431 -0.07917
 H21 H 0.24391 1.09171 -0.00034
 H22 H 0.25841 0.87380 0.00283
 C23 C 0.73835 0.42870 0.51780
 C24 C 0.74260 0.41354 0.48857
 C25 C 0.74378 0.43040 0.46024
 C26 C 0.74034 0.46390 0.46094
 C27 C 0.73714 0.47992 0.49044
 C28 C 0.73647 0.46232 0.51901
 C29 C 0.73323 0.47888 0.54777
 C30 C 0.73224 0.51185 0.54872
 C31 C 0.73191 0.52979 0.52084
 C32 C 0.73386 0.51362 0.49135
 C33 C 0.73921 0.48176 0.43302
 C34 C 0.73634 0.51463 0.43394
 C35 C 0.73316 0.53109 0.46277
 C36 C 0.73013 0.56461 0.46386
 C37 C 0.72966 0.58022 0.49313
 C38 C 0.73042 0.56345 0.52157
 H39 H 0.73162 0.46685 0.57013
 H40 H 0.73148 0.52292 0.57177
 H41 H 0.74030 0.47064 0.41000
 H42 H 0.73702 0.52690 0.41159
 H43 H 0.74492 0.38785 0.48783
 H44 H 0.72840 0.60598 0.49380
 C45 C 0.74497 1.01902 1.05818
 C46 C 0.73905 0.98896 1.07096
 C47 C 0.73933 0.96112 1.05243
 C48 C 0.74089 0.96421 1.01906
 C49 C 0.74677 0.99444 1.00552
 C50 C 0.74996 1.02168 1.02522
 C51 C 0.75914 1.05048 1.01148
 C52 C 0.76231 1.05322 0.97890
 C53 C 0.75521 1.02768 0.95854
 C54 C 0.74952 0.99743 0.97213
 C55 C 0.73433 0.93851 0.99876
 C56 C 0.73758 0.94125 0.96625
 C57 C 0.74656 0.97012 0.95251
 C58 C 0.75167 0.97268 0.91960
 C59 C 0.75673 1.00281 0.90666
 C60 C 0.75600 1.03081 0.92505
 H61 H 0.76464 1.07110 1.02575
 H62 H 0.77119 1.07548 0.96994
 H63 H 0.72586 0.91609 1.00771
 H64 H 0.73222 0.92057 0.95203
 H65 H 0.73601 0.98717 1.09633
 H66 H 0.75967 1.00437 0.88128
 C67 C 0.25715 0.51744 0.43289
 C68 C 0.26062 0.48820 0.41699
 C69 C 0.26488 0.45955 0.43313
 C70 C 0.26614 0.45969 0.46651
 C71 C 0.26385 0.48893 0.48323
 C72 C 0.25868 0.51783 0.46650
 C73 C 0.25359 0.54590 0.48400
 C74 C 0.25520 0.54605 0.51685
 C75 C 0.26180 0.51813 0.53377
 C76 C 0.26548 0.48905 0.51688
 C77 C 0.26802 0.43119 0.48363
 C78 C 0.26922 0.43130 0.51644
 C79 C 0.26923 0.45992 0.53361
 C80 C 0.27123 0.46034 0.56710
 C81 C 0.26892 0.48945 0.58295
 C82 C 0.26323 0.51806 0.56719
 H83 H 0.24750 0.56807 0.47273
 H84 H 0.25056 0.56837 0.52877
 H85 H 0.26789 0.40831 0.47191
 H86 H 0.26948 0.40851 0.52804
 H87 H 0.26007 0.48761 0.39138
 H88 H 0.27083 0.48980 0.60852
 C89 C 0.91524 0.25366 -0.03028
 C90 C 0.89996 0.24699 -0.00148
 C91 C 0.91621 0.24549 0.02715
 C92 C 0.94936 0.25014 0.02763
 C93 C 0.96618 0.25370 -0.00117
 C94 C 0.94914 0.25663 -0.03016
 C95 C 0.96636 0.26576 -0.05712
 C96 C 0.99935 0.26807 -0.05657
 C97 C 1.01700 0.26112 -0.02920
 C98 C 1.00003 0.25629 -0.00062
 C99 C 0.96578 0.25370 0.05623
 C100 C 0.99847 0.25720 0.05673
 C101 C 1.01651 0.25590 0.02877
 C102 C 1.05023 0.25798 0.02936
 C103 C 1.06636 0.26254 0.00074
 C104 C 1.05085 0.26260 -0.02872
 H105 H 0.95480 0.27277 -0.07874
 H106 H 1.01067 0.27698 -0.07764
 H107 H 0.95346 0.25508 0.07862
 H108 H 1.00916 0.26206 0.07943
 H109 H 0.87467 0.24206 -0.00109
 H110 H 1.09216 0.26326 0.00130
 C111 C 0.57256 0.79060 0.53455
 C112 C 0.58873 0.79145 0.50571
 C113 C 0.57286 0.79085 0.47675
 C114 C 0.53925 0.78846 0.47638
 C115 C 0.52229 0.78661 0.50543
 C116 C 0.53896 0.78804 0.53465
 C117 C 0.52152 0.78797 0.56299
 C118 C 0.48844 0.78574 0.56283
 C119 C 0.47146 0.78332 0.53432
 C120 C 0.48852 0.78413 0.50525
 C121 C 0.52206 0.78900 0.44792
 C122 C 0.48905 0.78662 0.44773
 C123 C 0.47182 0.78361 0.47600
 C124 C 0.43824 0.78136 0.47599
 C125 C 0.42212 0.77942 0.50479
 C126 C 0.43780 0.78133 0.53386
 H127 H 0.53321 0.79019 0.58564
 H128 H 0.47635 0.78631 0.58537
 H129 H 0.53384 0.79188 0.42542
 H130 H 0.47721 0.78766 0.42509
 H131 H 0.61455 0.79205 0.50581
 H132 H 0.39643 0.77689 0.50456
 C133 C -0.02406 0.74944 -0.06228
 C134 C 0.00550 0.74454 -0.07730
 C135 C 0.03461 0.74419 -0.06098
 C136 C 0.03379 0.74516 -0.02736
 C137 C 0.00437 0.75010 -0.01125
 C138 C -0.02469 0.75161 -0.02854
 C139 C -0.05337 0.75237 -0.01123
 C140 C -0.05369 0.75600 0.02148
 C141 C -0.02535 0.75602 0.03901
 C142 C 0.00396 0.75224 0.02249
 C143 C 0.06095 0.73806 -0.00921
 C144 C 0.06069 0.74101 0.02343
 C145 C 0.03293 0.75004 0.03964
 C146 C 0.03305 0.75501 0.07276
 C147 C 0.00398 0.75887 0.08855
 C148 C -0.02534 0.75919 0.07252
 H149 H -0.07619 0.74920 -0.02241
 H150 H -0.07666 0.75827 0.03269
 H151 H 0.08262 0.72917 -0.01992
 H152 H 0.08240 0.73512 0.03589
 H153 H 0.00612 0.74395 -0.10291
 H154 H 0.00423 0.76166 0.11402
 C155 C 0.51908 0.23887 0.56777
 C156 C 0.49087 0.24505 0.58435
 C157 C 0.46146 0.24749 0.56920
 C158 C 0.45997 0.24447 0.53595
 C159 C 0.48846 0.23957 0.51842
 C160 C 0.51802 0.23597 0.53441
 C161 C 0.54524 0.22799 0.51673
 C162 C 0.54386 0.22495 0.48398
 C163 C 0.51535 0.23049 0.46735
 C164 C 0.48717 0.23713 0.48490
 C165 C 0.43072 0.24460 0.51990
 C166 C 0.42950 0.24272 0.48720
 C167 C 0.45745 0.24029 0.46914
 C168 C 0.45639 0.23943 0.43579
 C169 C 0.48442 0.23381 0.41889
 C170 C 0.51374 0.22840 0.43386
 H171 H 0.56783 0.22325 0.52807
 H172 H 0.56545 0.21764 0.47213
 H173 H 0.40829 0.24568 0.53234
 H174 H 0.40621 0.24251 0.47635
 H175 H 0.49174 0.24782 0.60984
 H176 H 0.48329 0.23388 0.39330
 C177 C 0.92919 -0.02499 0.22387
 C178 C 0.91523 0.00544 0.22429
 C179 C 0.93301 0.03330 0.22509
 C180 C 0.96652 0.03125 0.22568
 C181 C 0.98151 0.00105 0.22814
 C182 C 0.96302 -0.02722 0.22627
 C183 C 0.97934 -0.05640 0.22377
 C184 C 1.01215 -0.05822 0.22753
 C185 C 1.03036 -0.03105 0.23410
 C186 C 1.01527 -0.00088 0.23118
 C187 C 0.98544 0.05836 0.22231
 C188 C 1.01840 0.05635 0.22381
 C189 C 1.03387 0.02724 0.22960
 C190 C 1.06745 0.02507 0.23200
 C191 C 1.08143 -0.00461 0.23800
 C192 C 1.06370 -0.03286 0.23997
 H193 H 0.96738 -0.07818 0.21771
 H194 H 1.02316 -0.08118 0.22361
 H195 H 0.97501 0.08139 0.21746
 H196 H 1.03135 0.07803 0.21997
 H197 H 0.88956 0.00778 0.22565
 H198 H 1.10692 -0.00533 0.24197
 C199 C 0.44430 0.47425 0.78942
 C200 C 0.42631 0.50222 0.78716
 C201 C 0.44027 0.53189 0.78247
 C202 C 0.47376 0.53353 0.77866
 C203 C 0.49247 0.50519 0.78009
 C204 C 0.47772 0.47553 0.78588
 C205 C 0.49686 0.44820 0.78900
 C206 C 0.52965 0.44950 0.78483
 C207 C 0.54478 0.47823 0.77757
 C208 C 0.52611 0.50658 0.77641
 C209 C 0.48919 0.56264 0.77411
 C210 C 0.52201 0.56396 0.77029
 C211 C 0.54100 0.53637 0.77197
 C212 C 0.57449 0.53772 0.76895
 C213 C 0.59226 0.50947 0.76820
 C214 C 0.57816 0.47967 0.77254
 H215 H 0.48680 0.42547 0.79513
 H216 H 0.54297 0.42772 0.78814
 H217 H 0.47625 0.58488 0.77363
 H218 H 0.53223 0.58700 0.76579
 H219 H 0.40058 0.50079 0.78876
 H220 H 0.61776 0.51085 0.76455
 C221 C 1.03692 0.94189 0.74224
 C222 C 1.00695 0.92727 0.74174
 C223 C 0.97857 0.94476 0.74041
 C224 C 0.97970 0.97818 0.73819
 C225 C 1.00935 0.99382 0.73978
 C226 C 1.03811 0.97571 0.74029
 C227 C 1.06674 0.99192 0.73497
 C228 C 1.06779 1.02484 0.73569
 C229 C 1.04018 1.04311 0.74102
 C230 C 1.01034 1.02769 0.73924
 C231 C 0.95225 0.99615 0.73188
 C232 C 0.95345 1.02899 0.72942
 C233 C 0.98182 1.04582 0.73517
 C234 C 0.98338 1.07979 0.73439
 C235 C 1.01310 1.09401 0.74019
 C236 C 1.04138 1.07657 0.74457
 H237 H 1.08858 0.97955 0.72917
 H238 H 1.09043 1.03585 0.73075
 H239 H 0.92965 0.98488 0.72726
 H240 H 0.93173 1.04026 0.72188
 H241 H 1.00543 0.90162 0.74376
 H242 H 1.01384 1.11948 0.74378
 C243 C 0.47645 0.56772 0.26759
 C244 C 0.50727 0.57969 0.26437
 C245 C 0.53456 0.56086 0.26883
 C246 C 0.53075 0.52824 0.27641
 C247 C 0.49961 0.51506 0.27748
 C248 C 0.47239 0.53486 0.27330
 C249 C 0.44196 0.52127 0.27587
 C250 C 0.43818 0.48887 0.27986
 C251 C 0.46455 0.46880 0.28395
 C252 C 0.49557 0.48209 0.28361
 C253 C 0.55680 0.50867 0.28428
 C254 C 0.55281 0.47639 0.29017
 C255 C 0.52257 0.46236 0.28875
 C256 C 0.51841 0.42924 0.29289
 C257 C 0.48771 0.41663 0.29235
 C258 C 0.46086 0.43570 0.28783
 H259 H 0.42036 0.53509 0.27473
 H260 H 0.41415 0.47993 0.28005
 H261 H 0.58053 0.51809 0.28655
 H262 H 0.57374 0.46262 0.29627
 H263 H 0.51002 0.60464 0.25872
 H264 H 0.48463 0.39110 0.29392
 O265 O 0.24679 0.17026 0.18674
 O266 O 0.28030 0.15676 0.23142
 O267 O 0.16440 0.20854 0.23618
 O268 O 0.15231 0.25029 0.26577
 O269 O 0.20742 0.25926 0.15443
 O270 O 0.25321 0.29056 0.14860
 O271 O 0.24886 0.28879 0.32143
 O272 O 0.20993 0.24742 0.32599
 O273 O 0.32927 0.24131 0.28157
 O274 O 0.33992 0.21091 0.23542
 O275 O 0.29566 0.32875 0.24712
 O276 O 0.25203 0.34240 0.20754
 O277 O 0.24874 0.32878 0.28548
 O278 O 0.21775 0.34335 0.24057
 O279 O 0.33198 0.28870 0.24228
 O280 O 0.33998 0.24461 0.20291
 O281 O 0.29087 0.24376 0.31945
 O282 O 0.24622 0.20958 0.32677
 O283 O 0.25042 0.21138 0.15224
 O284 O 0.28657 0.25456 0.14726
 O285 O 0.16734 0.25468 0.19027
 O286 O 0.16017 0.29055 0.23660
 O287 O 0.20120 0.16913 0.22988
 O288 O 0.24338 0.15567 0.26489
 Zr289 Zr 0.24495 0.19279 0.23146
 O290 O 0.27478 0.21661 0.26358
 Zr291 Zr 0.19128 0.25079 0.23413
 O292 O 0.21897 0.27726 0.26648
 Zr293 Zr 0.24910 0.25232 0.18053
 O294 O 0.27915 0.27866 0.21016
 Zr295 Zr 0.24811 0.24695 0.29339
 O296 O 0.21751 0.21996 0.26367
 Zr297 Zr 0.30494 0.24721 0.23883
 O298 O 0.27772 0.22060 0.20638
 Zr299 Zr 0.25145 0.30576 0.24169
 O300 O 0.22112 0.28216 0.20938
 O301 O 0.21730 0.22230 0.20324
 O302 O 0.27977 0.27666 0.27007
 C303 C 0.24971 0.18164 0.15874
 C304 C 0.17249 0.17907 0.23350
 C305 C 0.17790 0.25917 0.16210
 C306 C 0.24817 0.31836 0.31383
 C307 C 0.31994 0.24069 0.31039
 C308 C 0.32435 0.31807 0.24572
 H309 H 0.28704 0.20061 0.27562
 H310 H 0.29321 0.29204 0.19716
 H311 H 0.20358 0.21015 0.18857
 H312 H 0.20460 0.28997 0.28015
 H313 H 0.19389 0.23230 0.31787
 H314 H 0.16004 0.25861 0.28624
 H315 H 0.33818 0.26403 0.18993
 H316 H 0.30257 0.23844 0.15364
 H317 H 0.25953 0.19183 0.31879
 H318 H 0.22903 0.16303 0.28203
 H319 H 0.27205 0.34050 0.19535
 H320 H 0.24067 0.30839 0.15768
 H321 H 0.29706 0.16360 0.21652
 H322 H 0.33226 0.19255 0.24771
 H323 H 0.16689 0.30552 0.21994
 H324 H 0.19939 0.33689 0.25362
 O325 O 0.74400 0.83593 0.20494
 O326 O 0.71766 0.85027 0.25060
 O327 O 0.83187 0.79632 0.24948
 O328 O 0.84407 0.75401 0.27833
 O329 O 0.78930 0.75045 0.16688
 O330 O 0.74249 0.71729 0.16055
 O331 O 0.74984 0.71763 0.33470
 O332 O 0.78700 0.75761 0.34020
 O333 O 0.66744 0.75950 0.29772
 O334 O 0.65762 0.79521 0.25051
 O335 O 0.70097 0.67504 0.25791
 O336 O 0.73851 0.66354 0.22024
 O337 O 0.74379 0.67710 0.29941
 O338 O 0.78318 0.66663 0.25633
 O339 O 0.66496 0.71564 0.25793
 O340 O 0.65419 0.75860 0.21997
 O341 O 0.70712 0.76236 0.33420
 O342 O 0.75301 0.79697 0.33988
 O343 O 0.74357 0.79713 0.16731
 O344 O 0.70874 0.75252 0.16136
 O345 O 0.82866 0.75298 0.20370
 O346 O 0.83483 0.71396 0.24801
 O347 O 0.79493 0.83570 0.24380
 O348 O 0.75399 0.84808 0.28296
 Zr349 Zr 0.75096 0.81250 0.24764
 O350 O 0.72104 0.78851 0.27903
 Zr351 Zr 0.80464 0.75449 0.24725
 O352 O 0.77732 0.72811 0.27952
 Zr353 Zr 0.74683 0.75461 0.19390
 O354 O 0.71735 0.72745 0.22381
 Zr355 Zr 0.74913 0.75872 0.30729
 O356 O 0.77961 0.78530 0.27804
 Zr357 Zr 0.69121 0.75762 0.25389
 O358 O 0.71817 0.78495 0.22194
 Zr359 Zr 0.74472 0.69954 0.25477
 O360 O 0.77451 0.72357 0.22185
 O361 O 0.77825 0.78404 0.21772
 O362 O 0.71736 0.72873 0.28413
 C363 C 0.74122 0.82634 0.17632
 C364 C 0.82378 0.82565 0.24628
 C365 C 0.81885 0.75080 0.17506
 C366 C 0.74720 0.68813 0.32761
 C367 C 0.67763 0.76178 0.32625
 C368 C 0.67231 0.68601 0.25958
 H369 H 0.70869 0.80417 0.29154
 H370 H 0.70341 0.71384 0.21076
 H371 H 0.79115 0.79689 0.20302
 H372 H 0.79169 0.71500 0.29271
 H373 H 0.80411 0.77107 0.33149
 H374 H 0.83674 0.74486 0.29852
 H375 H 0.65770 0.74064 0.20518
 H376 H 0.69213 0.76728 0.16940
 H377 H 0.73709 0.81339 0.33420
 H378 H 0.77113 0.84144 0.29763
 H379 H 0.75621 0.66567 0.20500
 H380 H 0.75898 0.70127 0.16579
 H381 H 0.69750 0.84202 0.24181
 H382 H 0.66048 0.80933 0.26904
 H383 H 0.82860 0.70024 0.23000
 H384 H 0.77442 0.64562 0.26213
 O385 O 0.75203 0.16267 0.77321
 O386 O 0.71688 0.15654 0.72955
 O387 O 0.83313 0.20596 0.73315
 O388 O 0.84225 0.25250 0.70383
 O389 O 0.79322 0.24627 0.81924
 O390 O 0.74895 0.27072 0.83527
 O391 O 0.74636 0.29845 0.66038
 O392 O 0.78339 0.25583 0.64586
 O393 O 0.66735 0.25098 0.69503
 O394 O 0.65539 0.21706 0.73581
 O395 O 0.70666 0.33170 0.74531
 O396 O 0.74705 0.33638 0.78123
 O397 O 0.74753 0.33424 0.70082
 O398 O 0.78833 0.33682 0.74226
 O399 O 0.66818 0.29419 0.73987
 O400 O 0.66045 0.24408 0.77514
 O401 O 0.70503 0.25574 0.65681
 O402 O 0.75159 0.21991 0.64489
 O403 O 0.75166 0.19671 0.81510
 O404 O 0.71126 0.24093 0.82526
 O405 O 0.83234 0.24609 0.78200
 O406 O 0.84001 0.28579 0.74064
 O407 O 0.79577 0.16708 0.73096
 O408 O 0.75133 0.16197 0.69338
 Zr409 Zr 0.75207 0.19202 0.73357
 O410 O 0.72118 0.22137 0.70744
 Zr411 Zr 0.80686 0.24822 0.73902
 O412 O 0.77913 0.27949 0.71164
 Zr413 Zr 0.75054 0.24237 0.79397
 O414 O 0.72145 0.27508 0.76969
 Zr415 Zr 0.74844 0.25388 0.68183
 O416 O 0.77971 0.22253 0.70579
 Zr417 Zr 0.69306 0.25005 0.73750
 O418 O 0.72037 0.21665 0.76376
 Zr419 Zr 0.74893 0.30550 0.74160
 O420 O 0.77842 0.27602 0.76965
 O421 O 0.78098 0.21598 0.76541
 O422 O 0.71879 0.28186 0.71025
 C423 C 0.75248 0.16858 0.80295
 C424 C 0.82478 0.17672 0.73107
 C425 C 0.82259 0.24666 0.81082
 C426 C 0.74653 0.32687 0.67132
 C427 C 0.67601 0.25353 0.66608
 C428 C 0.67745 0.32313 0.74372
 H429 H 0.70798 0.20779 0.69361
 H430 H 0.70860 0.28731 0.78516
 H431 H 0.79516 0.20189 0.77780
 H432 H 0.79330 0.29378 0.69973
 H433 H 0.79943 0.27169 0.65229
 H434 H 0.83404 0.24133 0.68491
 H435 H 0.66097 0.26348 0.78842
 H436 H 0.69846 0.22218 0.81925
 H437 H 0.73376 0.20490 0.64737
 H438 H 0.76815 0.16960 0.67895
 H439 H 0.76517 0.33046 0.79501
 H440 H 0.74584 0.29286 0.82814
 H441 H 0.70009 0.16204 0.74509
 H442 H 0.66373 0.19790 0.72491
 H443 H 0.83350 0.29987 0.75833
 H444 H 0.78012 0.35889 0.74030
 O445 O 0.23712 0.82532 0.78898
 O446 O 0.27336 0.83801 0.74889
 O447 O 0.16176 0.78008 0.73518
 O448 O 0.15554 0.73793 0.70481
 O449 O 0.19593 0.74043 0.82253
 O450 O 0.24290 0.70666 0.83446
 O451 O 0.26129 0.70161 0.66229
 O452 O 0.22000 0.73935 0.65130
 O453 O 0.33337 0.74875 0.70810
 O454 O 0.33635 0.78463 0.75384
 O455 O 0.29711 0.66409 0.74701
 O456 O 0.25600 0.65254 0.77884
 O457 O 0.25922 0.66287 0.69959
 O458 O 0.21654 0.65263 0.73760
 O459 O 0.33236 0.70498 0.74884
 O460 O 0.33476 0.75081 0.78779
 O461 O 0.29850 0.74935 0.66700
 O462 O 0.25683 0.78052 0.65437
 O463 O 0.24012 0.78650 0.82610
 O464 O 0.27370 0.74348 0.83869
 O465 O 0.16198 0.73542 0.78099
 O466 O 0.16269 0.69841 0.73457
 O467 O 0.19533 0.82161 0.74270
 O468 O 0.24335 0.83488 0.71028
 Zr469 Zr 0.24080 0.80004 0.74610
 O470 O 0.27566 0.77576 0.71927
 Zr471 Zr 0.19071 0.73969 0.74047
 O472 O 0.22314 0.71341 0.71270
 Zr473 Zr 0.24109 0.74354 0.80068
 O474 O 0.27535 0.71672 0.77571
 Zr475 Zr 0.25370 0.74381 0.68819
 O476 O 0.21825 0.77066 0.71246
 Zr477 Zr 0.30397 0.74668 0.74840
 O478 O 0.27166 0.77419 0.77599
 Zr479 Zr 0.25291 0.68706 0.74269
 O480 O 0.21817 0.71084 0.77067
 O481 O 0.21136 0.77095 0.77252
 O482 O 0.28316 0.71567 0.71622
 C483 C 0.23860 0.81575 0.81770
 C484 C 0.16759 0.80991 0.73754
 C485 C 0.16800 0.73640 0.81076
 C486 C 0.26188 0.67238 0.67093
 C487 C 0.32675 0.75031 0.67853
 C488 C 0.32542 0.67524 0.74880
 H489 H 0.28840 0.79150 0.70757
 H490 H 0.28796 0.70410 0.79094
 H491 H 0.19570 0.78342 0.78502
 H492 H 0.21131 0.69945 0.69801
 H493 H 0.20309 0.75534 0.65543
 H494 H 0.16639 0.73109 0.68517
 H495 H 0.33243 0.73147 0.80077
 H496 H 0.29171 0.75698 0.83213
 H497 H 0.24023 0.79634 0.65983
 H498 H 0.22496 0.83173 0.69603
 H499 H 0.23660 0.65493 0.79189
 H500 H 0.22570 0.69160 0.82918
 H501 H 0.29084 0.83076 0.76285
 H502 H 0.33135 0.80059 0.73746
 H503 H 0.16689 0.68454 0.75295
 H504 H 0.22681 0.63161 0.73407
 O505 O 0.26686 0.34208 0.73114
 O506 O 0.23669 0.35612 0.77603
 O507 O 0.34727 0.29250 0.77395
 O508 O 0.35288 0.25116 0.80687
 O509 O 0.30313 0.25494 0.69200
 O510 O 0.25356 0.22581 0.68305
 O511 O 0.25510 0.21727 0.85595
 O512 O 0.29608 0.25459 0.86424
 O513 O 0.17798 0.26851 0.81898
 O514 O 0.17325 0.30787 0.77449
 O515 O 0.20495 0.18432 0.77471
 O516 O 0.24311 0.17095 0.73866
 O517 O 0.24727 0.17893 0.81880
 O518 O 0.28561 0.16706 0.77698
 O519 O 0.17289 0.22811 0.77325
 O520 O 0.16783 0.27477 0.74109
 O521 O 0.21664 0.26577 0.85647
 O522 O 0.26368 0.29498 0.86667
 O523 O 0.26408 0.30440 0.69250
 O524 O 0.22380 0.26506 0.68382
 O525 O 0.34038 0.24691 0.73014
 O526 O 0.34389 0.21138 0.77440
 O527 O 0.31370 0.33523 0.77609
 O528 O 0.27116 0.35113 0.80977
 Zr529 Zr 0.26772 0.31642 0.77366
 O530 O 0.23502 0.29372 0.80330
 Zr531 Zr 0.31602 0.25352 0.77287
 O532 O 0.28526 0.22813 0.80271
 Zr533 Zr 0.26058 0.26143 0.71775
 O534 O 0.22770 0.23611 0.74533
 Zr535 Zr 0.25894 0.25985 0.83088
 O536 O 0.29242 0.28526 0.80386
 Zr537 Zr 0.20321 0.26720 0.77588
 O538 O 0.23357 0.29319 0.74577
 Zr539 Zr 0.25100 0.20404 0.77566
 O540 O 0.28417 0.22669 0.74511
 O541 O 0.29376 0.28667 0.74384
 O542 O 0.22512 0.23416 0.80549
 C543 C 0.26497 0.33341 0.70205
 C544 C 0.34154 0.32249 0.77611
 C545 C 0.33156 0.24848 0.70121
 C546 C 0.25099 0.18820 0.84758
 C547 C 0.18750 0.26853 0.84782
 C548 C 0.17753 0.19797 0.77247
 H549 H 0.22380 0.30978 0.81633
 H550 H 0.21323 0.22482 0.73074
 H551 H 0.30879 0.29849 0.73031
 H552 H 0.29795 0.21317 0.81563
 H553 H 0.31373 0.26841 0.85729
 H554 H 0.34472 0.23914 0.82516
 H555 H 0.17191 0.25947 0.72371
 H556 H 0.20959 0.28257 0.69090
 H557 H 0.25106 0.31386 0.86046
 H558 H 0.28453 0.34174 0.82662
 H559 H 0.26186 0.17192 0.72457
 H560 H 0.26928 0.20873 0.68721
 H561 H 0.21745 0.35028 0.76388
 H562 H 0.17765 0.32098 0.79343
 H563 H 0.33464 0.19637 0.75890
 H564 H 0.27440 0.14665 0.78019
 O565 O 0.76357 0.66982 0.68976
 O566 O 0.80375 0.65874 0.73077
 O567 O 0.68570 0.70430 0.74647
 O568 O 0.67842 0.74376 0.78230
 O569 O 0.71501 0.75695 0.66342
 O570 O 0.75988 0.79071 0.65194
 O571 O 0.77493 0.78958 0.82323
 O572 O 0.73954 0.74471 0.83180
 O573 O 0.85342 0.74582 0.77518
 O574 O 0.85719 0.71148 0.72673
 O575 O 0.81312 0.83007 0.74092
 O576 O 0.76278 0.84107 0.70846
 O577 O 0.77134 0.82904 0.78689
 O578 O 0.73547 0.84295 0.74714
 O579 O 0.84983 0.79084 0.73315
 O580 O 0.85709 0.74804 0.69720
 O581 O 0.81934 0.74839 0.81684
 O582 O 0.78267 0.71138 0.82917
 O583 O 0.76022 0.71080 0.65493
 O584 O 0.79232 0.75486 0.64461
 O585 O 0.68062 0.75096 0.70453
 O586 O 0.67744 0.78525 0.75075
 O587 O 0.72376 0.66693 0.73617
 O588 O 0.77012 0.65437 0.76685
 Zr589 Zr 0.76627 0.69236 0.73449
 O590 O 0.79826 0.71760 0.76344
 Zr591 Zr 0.71070 0.74775 0.74416
 O592 O 0.74096 0.77632 0.77204
 Zr593 Zr 0.76071 0.75175 0.68333
 O594 O 0.79367 0.77878 0.70898
 Zr595 Zr 0.77413 0.74750 0.79560
 O596 O 0.74178 0.71818 0.77008
 Zr597 Zr 0.82404 0.74876 0.73495
 O598 O 0.79406 0.72154 0.70546
 Zr599 Zr 0.76922 0.80560 0.74325
 O600 O 0.73555 0.78043 0.71566
 O601 O 0.73392 0.72058 0.71007
 O602 O 0.80173 0.77798 0.76846
 C603 C 0.76187 0.68113 0.66161
 C604 C 0.69493 0.67545 0.74158
 C605 C 0.68686 0.75571 0.67524
 C606 C 0.77311 0.81908 0.81540
 C607 C 0.84740 0.74653 0.80494
 C608 C 0.84169 0.82011 0.73568
 H609 H 0.81218 0.70240 0.77476
 H610 H 0.80551 0.79228 0.69405
 H611 H 0.71909 0.70811 0.69682
 H612 H 0.72781 0.78878 0.78707
 H613 H 0.72585 0.72630 0.82672
 H614 H 0.68748 0.75557 0.80039
 H615 H 0.84914 0.76291 0.68094
 H616 H 0.81055 0.74064 0.64942
 H617 H 0.77510 0.69144 0.81948
 H618 H 0.75425 0.65835 0.78374
 H619 H 0.78094 0.83975 0.69360
 H620 H 0.74532 0.80681 0.66123
 H621 H 0.81740 0.66560 0.71303
 H622 H 0.85545 0.69619 0.74431
 H623 H 0.68219 0.80150 0.73461
 H624 H 0.71774 0.83504 0.76024
 O625 O 0.25079 0.66734 0.30692
 O626 O 0.21355 0.65844 0.26692
 O627 O 0.33219 0.70047 0.25669
 O628 O 0.34137 0.74120 0.22011
 O629 O 0.30313 0.75357 0.33902
 O630 O 0.26143 0.78102 0.35641
 O631 O 0.24767 0.78998 0.17920
 O632 O 0.27556 0.74341 0.16589
 O633 O 0.16596 0.75204 0.22742
 O634 O 0.15615 0.72559 0.27362
 O635 O 0.21658 0.83514 0.26217
 O636 O 0.26006 0.84051 0.29483
 O637 O 0.25049 0.82964 0.21579
 O638 O 0.29702 0.83346 0.25193
 O639 O 0.17471 0.80122 0.26348
 O640 O 0.16782 0.75750 0.30813
 O641 O 0.19967 0.75118 0.18537
 O642 O 0.24301 0.70937 0.17390
 O643 O 0.25921 0.70556 0.34413
 O644 O 0.22165 0.75319 0.35251
 O645 O 0.33836 0.74564 0.29884
 O646 O 0.34430 0.77943 0.25205
 O647 O 0.29236 0.66411 0.25846
 O648 O 0.24284 0.65840 0.22760
 Zr649 Zr 0.25051 0.69213 0.26398
 O650 O 0.21904 0.72097 0.23776
 Zr651 Zr 0.30904 0.74436 0.25830
 O652 O 0.28104 0.77411 0.22969
 Zr653 Zr 0.25812 0.74872 0.31823
 O654 O 0.22916 0.78101 0.29304
 Zr655 Zr 0.24569 0.74810 0.20588
 O656 O 0.27722 0.71741 0.23056
 Zr657 Zr 0.19605 0.75508 0.26670
 O658 O 0.22354 0.72243 0.29377
 Zr659 Zr 0.25587 0.80542 0.25907
 O660 O 0.28571 0.77730 0.28791
 O661 O 0.28387 0.71702 0.29039
 O662 O 0.22116 0.78115 0.23351
 C663 C 0.25509 0.67640 0.33559
 C664 C 0.32191 0.67192 0.25651
 C665 C 0.33151 0.75089 0.32803
 C666 C 0.24868 0.81940 0.18719
 C667 C 0.17161 0.75112 0.19766
 C668 C 0.18674 0.82934 0.26171
 H669 H 0.20359 0.70701 0.22697
 H670 H 0.21872 0.79604 0.30787
 H671 H 0.29817 0.70331 0.30306
 H672 H 0.29499 0.78573 0.21493
 H673 H 0.29608 0.75339 0.17138
 H674 H 0.33145 0.72713 0.20415
 H675 H 0.16840 0.77958 0.31622
 H676 H 0.20778 0.73439 0.35017
 H677 H 0.22307 0.69782 0.17829
 H678 H 0.25857 0.66284 0.21080
 H679 H 0.27905 0.83475 0.30747
 H680 H 0.26081 0.80249 0.34704
 H681 H 0.19744 0.66754 0.28150
 H682 H 0.16166 0.70469 0.26425
 H683 H 0.34087 0.79564 0.26876
 H684 H 0.28995 0.85562 0.24797
 O685 O 0.73454 0.31580 0.29559
 O686 O 0.76635 0.32663 0.24896
 O687 O 0.64784 0.28165 0.25832
 O688 O 0.63221 0.24389 0.22366
 O689 O 0.69448 0.23060 0.33209
 O690 O 0.73959 0.19444 0.33272
 O691 O 0.72158 0.19880 0.16056
 O692 O 0.68208 0.24006 0.16036
 O693 O 0.80521 0.23774 0.19237
 O694 O 0.81960 0.27187 0.24057
 O695 O 0.77104 0.15443 0.23225
 O696 O 0.73101 0.14334 0.27412
 O697 O 0.72803 0.15849 0.19559
 O698 O 0.68996 0.14862 0.24024
 O699 O 0.80992 0.19191 0.23249
 O700 O 0.82600 0.23271 0.26748
 O701 O 0.76251 0.24291 0.15964
 O702 O 0.71773 0.27858 0.15783
 O703 O 0.73706 0.27464 0.33029
 O704 O 0.77469 0.23054 0.33173
 O705 O 0.65242 0.23234 0.29822
 O706 O 0.63884 0.20084 0.25267
 O707 O 0.68653 0.31915 0.25439
 O708 O 0.72787 0.33090 0.21843
 Zr709 Zr 0.72911 0.29317 0.25123
 O710 O 0.75446 0.26792 0.21632
 Zr711 Zr 0.67251 0.23811 0.25315
 O712 O 0.69573 0.21040 0.21834
 Zr713 Zr 0.73436 0.23359 0.30200
 O714 O 0.76043 0.20585 0.26938
 Zr715 Zr 0.72304 0.23991 0.18943
 O716 O 0.69701 0.26825 0.22190
 Zr717 Zr 0.78532 0.23529 0.23815
 O718 O 0.76247 0.26317 0.27347
 Zr719 Zr 0.72902 0.18034 0.24028
 O720 O 0.70300 0.20525 0.27550
 O721 O 0.70239 0.26508 0.28141
 O722 O 0.75541 0.20837 0.20965
 C723 C 0.73645 0.30441 0.32368
 C724 C 0.65744 0.31061 0.25727
 C725 C 0.66450 0.23009 0.32599
 C726 C 0.72494 0.16920 0.16742
 C727 C 0.79250 0.24162 0.16501
 C728 C 0.80016 0.16317 0.22989
 H729 H 0.76617 0.28329 0.20321
 H730 H 0.77508 0.19165 0.28101
 H731 H 0.69015 0.27766 0.29710
 H732 H 0.68014 0.19805 0.20587
 H733 H 0.66701 0.25572 0.16965
 H734 H 0.63592 0.23111 0.20431
 H735 H 0.82015 0.22001 0.28617
 H736 H 0.78969 0.24708 0.32456
 H737 H 0.73442 0.29432 0.16265
 H738 H 0.71182 0.32517 0.20230
 H739 H 0.75090 0.14560 0.28638
 H740 H 0.72367 0.17855 0.32601
 H741 H 0.78378 0.31840 0.26245
 H742 H 0.81535 0.28682 0.22308
 H743 H 0.64774 0.18346 0.26571
 H744 H 0.69698 0.12809 0.23084
 C745 C 0.25654 0.11938 0.08062
 C746 C 0.24076 0.10983 0.10813
 N747 N 0.22661 0.08093 0.10881
 C748 C 0.22811 0.06089 0.08346
 C749 C 0.24523 0.06980 0.05616
 N750 N 0.25831 0.09934 0.05561
 N751 N 0.26972 0.14861 0.07916
 C752 C 0.26783 0.16891 0.10406
 C753 C 0.25230 0.15948 0.13190
 N754 N 0.23912 0.12999 0.13331
 H755 H 0.21514 0.03879 0.08435
 H756 H 0.27860 0.19213 0.10220
 C757 C 0.75821 0.62192 0.58121
 C758 C 0.73572 0.61861 0.60552
 N759 N 0.71144 0.59776 0.60183
 C760 C 0.70884 0.57982 0.57509
 C761 C 0.73197 0.58234 0.55119
 N762 N 0.75586 0.60374 0.55479
 N763 N 0.78170 0.64368 0.58413
 C764 C 0.78370 0.66245 0.61024
 C765 C 0.76151 0.65901 0.63478
 N766 N 0.73794 0.63710 0.63188
 H767 H 0.68904 0.56370 0.57250
 H768 H 0.80235 0.68002 0.61182
 C769 C 0.72608 0.90327 0.11489
 C770 C 0.74462 0.87724 0.10486
 N771 N 0.76012 0.87884 0.07677
 C772 C 0.75799 0.90524 0.05836
 C773 C 0.73947 0.93163 0.06846
 N774 N 0.72426 0.92960 0.09678
 N775 N 0.71134 0.90254 0.14329
 C776 C 0.71483 0.87717 0.16256
 C777 C 0.73417 0.85135 0.15321
 N778 N 0.74840 0.85174 0.12426
 H779 H 0.77228 0.90622 0.03713
 H780 H 0.70314 0.87746 0.18536
 C781 C 0.25644 0.40682 0.63494
 C782 C 0.27839 0.38202 0.63000
 N783 N 0.29773 0.38284 0.60423
 C784 C 0.29594 0.40722 0.58314
 C785 C 0.27315 0.43159 0.58751
 N786 N 0.25425 0.43065 0.61365
 N787 N 0.23831 0.40731 0.66143
 C788 C 0.24106 0.38403 0.68336
 C789 C 0.26251 0.35875 0.67837
 N790 N 0.28069 0.35821 0.65162
 H791 H 0.31253 0.40791 0.56361
 H792 H 0.22630 0.38498 0.70432
 C793 C 0.76409 0.08783 0.86073
 C794 C 0.74851 0.11490 0.87264
 N795 N 0.73580 0.11401 0.90211
 C796 C 0.73824 0.08743 0.92026
 C797 C 0.75473 0.06027 0.90871
 N798 N 0.76676 0.06159 0.87885
 N799 N 0.77545 0.08768 0.83082
 C800 C 0.77182 0.11345 0.81207
 C801 C 0.75635 0.14086 0.82375
 N802 N 0.74515 0.14105 0.85402
 H803 H 0.72571 0.08713 0.94256
 H804 H 0.78110 0.11253 0.78825
 C805 C 0.26354 0.60003 0.40009
 C806 C 0.24336 0.59812 0.37378
 N807 N 0.22717 0.57092 0.36809
 C808 C 0.23048 0.54531 0.38728
 C809 C 0.25147 0.54649 0.41324
 N810 N 0.26755 0.57409 0.41891
 N811 N 0.27912 0.62765 0.40605
 C812 C 0.27572 0.65327 0.38665
 C813 C 0.25644 0.65096 0.35956
 N814 N 0.24068 0.62329 0.35399
 H815 H 0.21699 0.52408 0.38215
 H816 H 0.28887 0.67475 0.39164
 C817 C 0.24224 0.88217 0.89266
 C818 C 0.25789 0.85270 0.89432
 N819 N 0.27498 0.84512 0.92027
 C820 C 0.27663 0.86534 0.94518
 C821 C 0.25985 0.89466 0.94465
 N822 N 0.24325 0.90227 0.91792
 N823 N 0.22601 0.88993 0.86595
 C824 C 0.22464 0.86937 0.84098
 C825 C 0.23962 0.83946 0.84317
 N826 N 0.25595 0.83205 0.86985
 H827 H 0.29144 0.85860 0.96499
 H828 H 0.21153 0.87600 0.81998
 C829 C 0.72879 0.36637 0.40185
 C830 C 0.75166 0.37217 0.37839
 N831 N 0.77177 0.39711 0.38194
 C832 C 0.76986 0.41656 0.40775
 C833 C 0.74629 0.41126 0.43077
 N834 N 0.72663 0.38597 0.42721
 N835 N 0.70941 0.34092 0.39926
 C836 C 0.71189 0.32081 0.37427
 C837 C 0.73449 0.32647 0.35056
 N838 N 0.75385 0.35227 0.35297
 H839 H 0.78670 0.43572 0.41045
 H840 H 0.69599 0.30082 0.37257
 C841 C 0.11571 0.27015 0.08482
 C842 C 0.10783 0.24969 0.10965
 N843 N 0.08126 0.23168 0.10736
 C844 C 0.06189 0.23364 0.08165
 C845 C 0.06897 0.25517 0.05710
 N846 N 0.09631 0.27227 0.05938
 N847 N 0.14292 0.28718 0.08620
 C848 C 0.16284 0.28453 0.11128
 C849 C 0.15513 0.26408 0.13628
 N850 N 0.12762 0.24716 0.13495
 H851 H 0.04190 0.21765 0.07998
 H852 H 0.18462 0.29814 0.11164
 C853 C 0.61247 0.76613 0.60916
 C854 C 0.63785 0.78766 0.61021
 N855 N 0.63925 0.81154 0.58892
 C856 C 0.61691 0.81437 0.56595
 C857 C 0.59246 0.79177 0.56350
 N858 N 0.59066 0.76827 0.58551
 N859 N 0.61095 0.74259 0.63098
 C860 C 0.63395 0.73937 0.65346
 C861 C 0.66012 0.75998 0.65343
 N862 N 0.66127 0.78379 0.63188
 H863 H 0.61897 0.83329 0.54884
 H864 H 0.63246 0.72023 0.67039
 C865 C 0.08848 0.73071 0.87189
 C866 C 0.11625 0.74612 0.88168
 N867 N 0.11671 0.76092 0.91024
 C868 C 0.09085 0.76060 0.92968
 C869 C 0.06303 0.74413 0.92055
 N870 N 0.06281 0.73016 0.89134
 N871 N 0.08730 0.71709 0.84281
 C872 C 0.11267 0.71830 0.82293
 C873 C 0.14072 0.73364 0.83259
 N874 N 0.14182 0.74715 0.86195
 H875 H 0.09169 0.77443 0.95125
 H876 H 0.11095 0.70734 0.79981
 C877 C 0.59473 0.23214 0.39746
 C878 C 0.59013 0.21456 0.36961
 N879 N 0.56211 0.19961 0.36469
 C880 C 0.53807 0.20210 0.38600
 C881 C 0.54165 0.22144 0.41307
 N882 N 0.57020 0.23584 0.41814
 N883 N 0.62337 0.24592 0.40289
 C884 C 0.64728 0.24364 0.38125
 C885 C 0.64183 0.22807 0.35231
 N886 N 0.61340 0.21356 0.34744
 H887 H 0.51602 0.18977 0.38140
 H888 H 0.66975 0.25502 0.38600
 C889 C 0.89376 0.74643 0.10809
 C890 C 0.89417 0.76832 0.13317
 N891 N 0.91939 0.78792 0.13672
 C892 C 0.94460 0.78634 0.11664
 C893 C 0.94519 0.76356 0.09212
 N894 N 0.91948 0.74410 0.08850
 N895 N 0.86789 0.72751 0.10419
 C896 C 0.84266 0.72924 0.12448
 C897 C 0.84372 0.75020 0.15043
 N898 N 0.86954 0.76930 0.15394
 H899 H 0.96431 0.80241 0.12014
 H900 H 0.82255 0.71364 0.12111
 C901 C 0.40530 0.23453 0.63522
 C902 C 0.38257 0.25870 0.63065
 N903 N 0.38588 0.27897 0.60600
 C904 C 0.41081 0.27601 0.58561
 C905 C 0.43310 0.25125 0.58968
 N906 N 0.42983 0.23136 0.61469
 N907 N 0.40304 0.21514 0.66058
 C908 C 0.37910 0.21890 0.68181
 C909 C 0.35616 0.24290 0.67730
 N910 N 0.35832 0.26223 0.65167
 H911 H 0.41336 0.29291 0.56659
 H912 H 0.37799 0.20335 0.70208
 C913 C 0.88693 0.24712 0.88755
 C914 C 0.85567 0.25849 0.89067
 N915 N 0.84523 0.26935 0.91896
 C916 C 0.86444 0.26887 0.94466
 C917 C 0.89581 0.25653 0.94235
 N918 N 0.90614 0.24611 0.91343
 N919 N 0.89732 0.23684 0.85879
 C920 C 0.87764 0.23719 0.83315
 C921 C 0.84598 0.24778 0.83662
 N922 N 0.83600 0.25828 0.86540
 H923 H 0.85529 0.27875 0.96652
 H924 H 0.88633 0.22854 0.81059
 C925 C 0.40245 0.75965 0.39810
 C926 C 0.37533 0.77934 0.39803
 N927 N 0.37083 0.80076 0.42161
 C928 C 0.39186 0.80298 0.44579
 C929 C 0.41832 0.78232 0.44698
 N930 N 0.42313 0.76118 0.42283
 N931 N 0.40694 0.73860 0.37397
 C932 C 0.38526 0.73606 0.35011
 C933 C 0.35743 0.75479 0.35094
 N934 N 0.35338 0.77611 0.37486
 H935 H 0.38747 0.82009 0.46450
 H936 H 0.38909 0.71880 0.33142
 C937 C 0.10434 0.10572 0.24011
 C938 C 0.13203 0.10188 0.22194
 N939 N 0.13760 0.07393 0.20679
 C940 C 0.11683 0.04946 0.20913
 C941 C 0.08929 0.05270 0.22793
 N942 N 0.08388 0.08095 0.24314
 N943 N 0.09851 0.13411 0.25455
 C944 C 0.11932 0.15870 0.25189
 C945 C 0.14764 0.15448 0.23456
 N946 N 0.15313 0.12605 0.21997
 H947 H 0.12186 0.02754 0.19654
 H948 H 0.11432 0.18089 0.26399
 C949 C 0.63219 0.59787 0.74138
 C950 C 0.62918 0.62182 0.76449
 N951 N 0.60785 0.61822 0.78829
 C952 C 0.58944 0.59178 0.79003
 C953 C 0.59221 0.56795 0.76670
 N954 N 0.61378 0.57161 0.74307
 N955 N 0.65428 0.60065 0.71827
 C956 C 0.67390 0.62609 0.71740
 C957 C 0.67130 0.64997 0.74063
 N958 N 0.64874 0.64744 0.76359
 H959 H 0.57319 0.58910 0.80967
 H960 H 0.69170 0.62750 0.69895
 C961 C 0.90127 0.11141 0.73594
 C962 C 0.90546 0.14177 0.72330
 N963 N 0.93469 0.15073 0.71348
 C964 C 0.96015 0.13086 0.71606
 C965 C 0.95662 0.10037 0.72975
 N966 N 0.92687 0.09184 0.73933
 N967 N 0.87172 0.10204 0.74477
 C968 C 0.84622 0.12197 0.74193
 C969 C 0.85062 0.15296 0.73048
 N970 N 0.88027 0.16197 0.72132
 H971 H 0.98270 0.13873 0.70670
 H972 H 0.82303 0.11406 0.74954
 C973 C 0.39716 0.60541 0.25175
 C974 C 0.39950 0.63337 0.26967
 N975 N 0.42657 0.63970 0.28582
 C976 C 0.45153 0.61911 0.28513
 C977 C 0.44956 0.59095 0.26717
 N978 N 0.42243 0.58512 0.25042
 N979 N 0.36937 0.59870 0.23666
 C980 C 0.34391 0.61893 0.23856
 C981 C 0.34673 0.64737 0.25579
 N982 N 0.37455 0.65375 0.27086
 H983 H 0.47254 0.62443 0.29892
 H984 H 0.32217 0.61337 0.22605
 C985 C 0.08848 0.87217 0.73217
 C986 C 0.11617 0.88130 0.74817
 N987 N 0.11689 0.90985 0.76318
 C988 C 0.09148 0.93007 0.76220
 C989 C 0.06408 0.92181 0.74468
 N990 N 0.06332 0.89244 0.73089
 N991 N 0.08715 0.84319 0.71811
 C992 C 0.11235 0.82282 0.71932
 C993 C 0.14036 0.83196 0.73505
 N994 N 0.14155 0.86112 0.74915
 H995 H 0.09244 0.95187 0.77581
 H996 H 0.11056 0.79980 0.70796
 C997 C 0.59060 0.38481 0.26763
 C998 C 0.58938 0.35794 0.28715
 N999 N 0.56678 0.35620 0.30995
 C1000 C 0.54489 0.37984 0.31369
 C1001 C 0.54522 0.40621 0.29332
 N1002 N 0.56827 0.40799 0.27081
 N1003 N 0.61365 0.38694 0.24531
 C1004 C 0.63553 0.36331 0.24156
 C1005 C 0.63378 0.33601 0.26044
 N1006 N 0.61075 0.33400 0.28292
 H1007 H 0.52682 0.37766 0.33177
 H1008 H 0.65384 0.36557 0.22372
 C1009 C 0.89382 0.89695 0.24023
 C1010 C 0.86429 0.90011 0.22515
 N1011 N 0.85767 0.92656 0.20831
 C1012 C 0.87893 0.95054 0.20643
 C1013 C 0.90835 0.94851 0.22268
 N1014 N 0.91497 0.92128 0.23897
 N1015 N 0.90054 0.86986 0.25639
 C1016 C 0.87885 0.84598 0.25831
 C1017 C 0.84884 0.84971 0.24401
 N1018 N 0.84251 0.87673 0.22765
 H1019 H 0.87288 0.97084 0.19197
 H1020 H 0.88467 0.82471 0.27145
 C1021 C 0.41150 0.39319 0.77724
 C1022 C 0.38661 0.39328 0.79937
 N1023 N 0.38306 0.41809 0.81959
 C1024 C 0.40280 0.44340 0.81818
 C1025 C 0.42666 0.44440 0.79488
 N1026 N 0.43064 0.41899 0.77509
 N1027 N 0.41493 0.36807 0.75716
 C1028 C 0.39404 0.34343 0.75772
 C1029 C 0.36808 0.34460 0.77861
 N1030 N 0.36526 0.36939 0.79911
 H1031 H 0.39916 0.46313 0.83431
 H1032 H 0.39662 0.32413 0.74089
 C1033 C 0.12067 0.27620 0.92175
 C1034 C 0.11264 0.26060 0.89358
 N1035 N 0.08403 0.24600 0.89125
 C1036 C 0.06294 0.24654 0.91570
 C1037 C 0.07049 0.26297 0.94395
 N1038 N 0.09961 0.27696 0.94592
 N1039 N 0.14981 0.28942 0.92502
 C1040 C 0.17152 0.28756 0.90134
 C1041 C 0.16366 0.27198 0.87297
 N1042 N 0.13421 0.25898 0.86966
 H1043 H 0.04143 0.23273 0.91354
 H1044 H 0.19470 0.29816 0.90462
 C1045 C 0.61026 0.76773 0.40011
 C1046 C 0.63571 0.78915 0.39849
 N1047 N 0.63876 0.81192 0.42103
 C1048 C 0.61783 0.81395 0.44543
 C1049 C 0.59290 0.79186 0.44783
 N1050 N 0.58975 0.76925 0.42491
 N1051 N 0.60696 0.74528 0.37724
 C1052 C 0.62802 0.74322 0.35289
 C1053 C 0.65393 0.76409 0.35165
 N1054 N 0.65714 0.78662 0.37459
 H1055 H 0.62103 0.83218 0.46327
 H1056 H 0.62513 0.72492 0.33525
 C1057 C 0.92457 0.73906 0.86850
 C1058 C 0.89835 0.75846 0.87577
 N1059 N 0.89845 0.77560 0.90302
 C1060 C 0.92320 0.77359 0.92375
 C1061 C 0.94889 0.75252 0.91760
 N1062 N 0.94883 0.73652 0.88943
 N1063 N 0.92557 0.72327 0.84049
 C1064 C 0.90131 0.72585 0.81940
 C1065 C 0.87449 0.74456 0.82690
 N1066 N 0.87367 0.76051 0.85505
 H1067 H 0.92332 0.78944 0.94392
 H1068 H 0.90263 0.71285 0.79730
 C1069 C 0.39513 0.22552 0.37432
 C1070 C 0.37436 0.25151 0.37855
 N1071 N 0.38041 0.27301 0.40180
 C1072 C 0.40621 0.26964 0.42101
 C1073 C 0.42672 0.24329 0.41713
 N1074 N 0.42062 0.22206 0.39360
 N1075 N 0.39019 0.20475 0.35028
 C1076 C 0.36552 0.20889 0.33001
 C1077 C 0.34464 0.23480 0.33408
 N1078 N 0.34941 0.25555 0.35842
 H1079 H 0.41098 0.28756 0.43879
 H1080 H 0.36234 0.19226 0.31068
 C1081 C 0.09025 0.74383 0.13919
 C1082 C 0.11677 0.76123 0.12911
 N1083 N 0.11544 0.77671 0.10105
 C1084 C 0.08900 0.77526 0.08249
 C1085 C 0.06280 0.75681 0.09195
 N1086 N 0.06410 0.74195 0.12045
 N1087 N 0.09086 0.72943 0.16775
 C1088 C 0.11677 0.73160 0.18678
 C1089 C 0.14364 0.74860 0.17672
 N1090 N 0.14304 0.76300 0.14792
 H1091 H 0.08835 0.78852 0.06065
 H1092 H 0.11653 0.71984 0.20947
 C1093 C 0.60070 0.25226 0.59991
 C1094 C 0.59960 0.23416 0.62765
 N1095 N 0.57369 0.21628 0.63391
 C1096 C 0.54840 0.21612 0.61400
 C1097 C 0.54861 0.23525 0.58680
 N1098 N 0.57501 0.25280 0.58030
 N1099 N 0.62710 0.26964 0.59357
 C1100 C 0.65227 0.26995 0.61392
 C1101 C 0.65058 0.25274 0.64227
 N1102 N 0.62424 0.23516 0.64824
 H1103 H 0.52789 0.20183 0.61977
 H1104 H 0.67293 0.28416 0.60849
 C1105 C 0.85098 0.25423 0.08542
 C1106 C 0.85958 0.23217 0.10877
 N1107 N 0.88624 0.21414 0.10482
 C1108 C 0.90488 0.21751 0.07875
 C1109 C 0.89692 0.24052 0.05598
 N1110 N 0.86983 0.25796 0.05983
 N1111 N 0.82378 0.27142 0.08850
 C1112 C 0.80465 0.26758 0.11397
 C1113 C 0.81334 0.24594 0.13770
 N1114 N 0.84075 0.22871 0.13462
 H1115 H 0.92572 0.20251 0.07585
 H1116 H 0.78300 0.28159 0.11588
 C1117 C 0.39966 0.75951 0.61048
 C1118 C 0.37237 0.77899 0.60982
 N1119 N 0.36870 0.80055 0.58644
 C1120 C 0.39068 0.80306 0.56313
 C1121 C 0.41726 0.78247 0.56252
 N1122 N 0.42125 0.76125 0.58653
 N1123 N 0.40344 0.73847 0.63450
 C1124 C 0.38095 0.73575 0.65756
 C1125 C 0.35299 0.75422 0.65598
 N1126 N 0.34956 0.77552 0.63216
 H1127 H 0.38687 0.82023 0.54451
 H1128 H 0.38432 0.71862 0.67628
 C1129 C 0.25740 0.12090 0.92140
 C1130 C 0.24220 0.11263 0.89315
 N1131 N 0.22904 0.08327 0.89046
 C1132 C 0.23072 0.06182 0.91459
 C1133 C 0.24683 0.06980 0.94288
 N1134 N 0.25930 0.09957 0.94508
 N1135 N 0.26953 0.15037 0.92517
 C1136 C 0.26722 0.17221 0.90187
 C1137 C 0.25228 0.16428 0.87313
 N1138 N 0.24014 0.13440 0.86936
 H1139 H 0.21803 0.03967 0.91220
 H1140 H 0.27744 0.19545 0.90570
 C1141 C 0.75032 0.62745 0.40636
 C1142 C 0.72795 0.62234 0.38220
 N1143 N 0.70616 0.59889 0.38540
 C1144 C 0.70599 0.58010 0.41149
 C1145 C 0.72909 0.58451 0.43516
 N1146 N 0.75042 0.60845 0.43210
 N1147 N 0.77135 0.65157 0.40393
 C1148 C 0.77099 0.67101 0.37845
 C1149 C 0.74886 0.66588 0.35408
 N1150 N 0.72783 0.64153 0.35644
 H1151 H 0.68816 0.56180 0.41371
 H1152 H 0.78784 0.69031 0.37720
 C1153 C 0.72916 0.09821 0.09617
 C1154 C 0.74497 0.09455 0.12510
 N1155 N 0.76180 0.06761 0.13087
 C1156 C 0.76315 0.04376 0.10920
 C1157 C 0.74641 0.04656 0.08051
 N1158 N 0.72985 0.07400 0.07465
 N1159 N 0.71297 0.12570 0.09038
 C1160 C 0.71166 0.14952 0.11238
 C1161 C 0.72663 0.14534 0.14181
 N1162 N 0.74300 0.11787 0.14720
 H1163 H 0.77684 0.02256 0.11451
 H1164 H 0.69847 0.17107 0.10727
 C1165 C 0.27068 0.59889 0.60321
 C1166 C 0.25046 0.59608 0.62944
 N1167 N 0.23348 0.56919 0.63358
 C1168 C 0.23617 0.54459 0.61293
 C1169 C 0.25735 0.54657 0.58724
 N1170 N 0.27409 0.57390 0.58293
 N1171 N 0.28696 0.62635 0.59888
 C1172 C 0.28411 0.65096 0.61979
 C1173 C 0.26474 0.64757 0.64664
 N1174 N 0.24833 0.62017 0.65063
 H1175 H 0.22241 0.52332 0.61692
 H1176 H 0.29744 0.67253 0.61599
 C1177 C 0.76883 0.89270 0.88386
 C1178 C 0.75339 0.89538 0.85464
 N1179 N 0.73674 0.92215 0.84772
 C1180 C 0.73509 0.94671 0.86857
 C1181 C 0.75129 0.94480 0.89763
 N1182 N 0.76781 0.91759 0.90455
 N1183 N 0.78476 0.86533 0.89086
 C1184 C 0.78611 0.84067 0.86979
 C1185 C 0.77142 0.84383 0.84011
 N1186 N 0.75536 0.87120 0.83348
 H1187 H 0.72138 0.96765 0.86241
 H1188 H 0.79909 0.81924 0.87582
 C1189 C 0.24192 0.39549 0.37711
 C1190 C 0.26892 0.37556 0.37736
 N1191 N 0.29409 0.38330 0.39596
 C1192 C 0.29346 0.40999 0.41432
 C1193 C 0.26640 0.42988 0.41413
 N1194 N 0.24134 0.42211 0.39532
 N1195 N 0.21705 0.38840 0.35799
 C1196 C 0.21805 0.36250 0.33875
 C1197 C 0.24508 0.34267 0.33859
 N1198 N 0.27002 0.34964 0.35797
 H1199 H 0.31388 0.41579 0.42878
 H1200 H 0.19826 0.35785 0.32304
 C1201 C 0.24573 0.88328 0.11063
 C1202 C 0.26717 0.85754 0.11098
 N1203 N 0.28692 0.85261 0.08611
 C1204 C 0.28595 0.87198 0.06058
 C1205 C 0.26372 0.89719 0.05942
 N1206 N 0.24410 0.90222 0.08470
 N1207 N 0.22651 0.88849 0.13600
 C1208 C 0.22763 0.86894 0.16157
 C1209 C 0.24836 0.84259 0.16142
 N1210 N 0.26765 0.83760 0.13604
 H1211 H 0.30203 0.86743 0.04106
 H1212 H 0.21176 0.87324 0.18124
 C1213 C 0.74933 0.39403 0.59817
 C1214 C 0.72957 0.36737 0.59632
 N1215 N 0.71237 0.36190 0.56981
 C1216 C 0.71422 0.38180 0.54477
 C1217 C 0.73472 0.40810 0.54597
 N1218 N 0.75193 0.41346 0.57277
 N1219 N 0.76595 0.39972 0.62516
 C1220 C 0.76408 0.37954 0.65017
 C1221 C 0.74543 0.35206 0.64765
 N1222 N 0.72853 0.34683 0.62076
 H1223 H 0.70004 0.37696 0.52397
 H1224 H 0.77810 0.38409 0.67115
 C1225 C 0.09676 0.14277 0.75177
 C1226 C 0.12219 0.12939 0.76866
 N1227 N 0.12018 0.09880 0.77844
 C1228 C 0.09425 0.08082 0.77144
 C1229 C 0.06927 0.09365 0.75286
 N1230 N 0.07135 0.12473 0.74430
 N1231 N 0.09773 0.17362 0.74304
 C1232 C 0.12319 0.19182 0.75026
 C1233 C 0.14923 0.17847 0.76656
 N1234 N 0.14814 0.14738 0.77542
 H1235 H 0.09285 0.05725 0.78136
 H1236 H 0.12336 0.21633 0.74260
 C1237 C 0.59326 0.62611 0.27522
 C1238 C 0.61987 0.61424 0.25882
 N1239 N 0.61866 0.58437 0.24639
 C1240 C 0.59216 0.56601 0.24967
 C1241 C 0.56574 0.57770 0.26686
 N1242 N 0.56730 0.60767 0.27896
 N1243 N 0.59299 0.65649 0.28574
 C1244 C 0.61816 0.67574 0.28074
 C1245 C 0.64541 0.66410 0.26503
 N1246 N 0.64568 0.63334 0.25438
 H1247 H 0.59140 0.54299 0.23819
 H1248 H 0.61674 0.70010 0.28874
 C1249 C 0.13006 0.91091 0.24513
 C1250 C 0.11646 0.88441 0.25971
 N1251 N 0.08551 0.88603 0.26894
 C1252 C 0.06748 0.91256 0.26350
 C1253 C 0.08066 0.93865 0.24708
 N1254 N 0.11202 0.93687 0.23919
 N1255 N 0.16119 0.91056 0.23721
 C1256 C 0.17953 0.88472 0.24300
 C1257 C 0.16612 0.85749 0.25686
 N1258 N 0.13465 0.85794 0.26500
 H1259 H 0.04360 0.91352 0.27298
 H1260 H 0.20439 0.88543 0.23638
 C1261 C 0.61118 0.39906 0.75236
 C1262 C 0.64102 0.40015 0.76713
 N1263 N 0.64921 0.42611 0.78429
 C1264 C 0.62905 0.45134 0.78713
 C1265 C 0.59936 0.45099 0.77168
 N1266 N 0.59121 0.42463 0.75457
 N1267 N 0.60287 0.37257 0.73584
 C1268 C 0.62319 0.34724 0.73325
 C1269 C 0.65351 0.34874 0.74725
 N1270 N 0.66149 0.37528 0.76392
 H1271 H 0.63625 0.47161 0.80118
 H1272 H 0.61610 0.32655 0.71975
 C1273 C 0.86696 0.09035 0.21234
 C1274 C 0.87359 0.11435 0.23446
 N1275 N 0.90056 0.11248 0.25204
 C1276 C 0.92109 0.08751 0.24869
 C1277 C 0.91461 0.06352 0.22633
 N1278 N 0.88757 0.06578 0.20876
 N1279 N 0.83911 0.09090 0.19617
 C1280 C 0.81734 0.11431 0.20131
 C1281 C 0.82386 0.13843 0.22336
 N1282 N 0.85204 0.13809 0.23926
 H1283 H 0.94152 0.08580 0.26417
 H1284 H 0.79516 0.11413 0.18832
 C1285 C 0.39792 0.60574 0.75622
 C1286 C 0.37307 0.60752 0.77835
 N1287 N 0.37191 0.58629 0.80228
 C1288 C 0.39419 0.56293 0.80486
 C1289 C 0.41849 0.56004 0.78204
 N1290 N 0.41972 0.58174 0.75819
 N1291 N 0.39943 0.62771 0.73282
 C1292 C 0.37699 0.65113 0.73041
 C1293 C 0.35146 0.65208 0.75184
 N1294 N 0.35022 0.63022 0.77537
 H1295 H 0.39257 0.54628 0.82420
 H1296 H 0.37848 0.66821 0.71143
 C1297 C 0.91908 0.88213 0.72458
 C1298 C 0.89485 0.88953 0.74639
 N1299 N 0.89799 0.91541 0.76541
 C1300 C 0.92425 0.93412 0.76363
 C1301 C 0.94840 0.92678 0.74163
 N1302 N 0.94512 0.90078 0.72279
 N1303 N 0.91677 0.85581 0.70626
 C1304 C 0.89151 0.83618 0.70899
 C1305 C 0.86733 0.84312 0.73103
 N1306 N 0.86937 0.86992 0.74911
 H1307 H 0.92657 0.95415 0.77958
 H1308 H 0.89045 0.81510 0.69426
 C1309 C 0.40323 0.37851 0.25483
 C1310 C 0.37643 0.38303 0.27421
 N1311 N 0.37731 0.40533 0.29756
 C1312 C 0.40380 0.42325 0.30236
 C1313 C 0.43045 0.41895 0.28263
 N1314 N 0.42939 0.39647 0.25949
 N1315 N 0.40319 0.35543 0.23241
 C1316 C 0.37762 0.33631 0.22861
 C1317 C 0.35074 0.34057 0.24795
 N1318 N 0.35062 0.36405 0.27026
 H1319 H 0.40427 0.44030 0.32158
 H1320 H 0.37835 0.31775 0.21081
   
