data_POSCAR
  _audit_creation_date              2014-09-24
  _audit_creation_method            'ToBaCCo'
  _symmetry_space_group_name_H-M    'P1'
  _symmetry_Int_Tables_number       1
  _symmetry_cell_setting            triclinic
  loop_
  _symmetry_equiv_pos_as_xyz
 x,y,z
_cell_length_a 27.2962
_cell_length_b 43.3181
_cell_length_c 34.0218
_cell_angle_alpha 90.291300
_cell_angle_beta 90.109900
_cell_angle_gamma 89.634800
loop_
  _atom_site_label
  _atom_site_type_symbol
  _atom_site_fract_x
  _atom_site_fract_y
  _atom_site_fract_z
B1 B -0.03363 -0.02746 0.00598
 B2 B 0.02222 -0.01765 0.02253
 B3 B 0.01386 -0.02727 -0.02525
 B4 B -0.04115 -0.01366 -0.03998
 B5 B -0.06681 0.00502 -0.00077
 B6 B -0.02745 0.00213 0.03823
 B7 B 0.01789 0.03479 -0.01923
 B8 B -0.03788 0.02494 -0.03636
 B9 B -0.02994 0.03459 0.01159
 B10 B 0.02530 0.02085 0.02650
 B11 B 0.05079 0.00240 -0.01282
 B12 B 0.01166 0.00517 -0.05172
 B13 B 0.52897 0.48865 0.52760
 B14 B 0.46811 0.48174 0.52608
 B15 B 0.48951 0.51791 0.53420
 B16 B 0.54029 0.52272 0.50647
 B17 B 0.54949 0.48933 0.48085
 B18 B 0.50521 0.46426 0.49363
 B19 B 0.46120 0.51355 0.45795
 B20 B 0.52229 0.51968 0.45935
 B21 B 0.50047 0.48376 0.45132
 B22 B 0.44975 0.47904 0.47888
 B23 B 0.44027 0.51235 0.50470
 B24 B 0.48545 0.53761 0.49193
 B25 B 0.51759 0.02145 0.52970
 B26 B 0.45713 0.01696 0.53798
 B27 B 0.47608 0.03380 0.49616
 B28 B 0.52892 0.01613 0.48162
 B29 B 0.54148 -0.01239 0.51480
 B30 B 0.49658 -0.01155 0.54975
 B31 B 0.45358 -0.02537 0.47937
 B32 B 0.51424 -0.02090 0.47164
 B33 B 0.49475 -0.03786 0.51343
 B34 B 0.44201 -0.02011 0.52784
 B35 B 0.42962 0.00828 0.49476
 B36 B 0.47465 0.00780 0.45995
 B37 B -0.02603 0.51220 0.05044
 B38 B 0.03253 0.51581 0.03510
 B39 B 0.01089 0.48051 0.04620
 B40 B -0.04865 0.47877 0.03148
 B41 B -0.06303 0.51350 0.01078
 B42 B -0.01256 0.53656 0.01338
 B43 B 0.01056 0.48671 -0.03295
 B44 B -0.04798 0.48304 -0.01807
 B45 B -0.02654 0.51847 -0.02877
 B46 B 0.03273 0.52008 -0.01435
 B47 B 0.04720 0.48545 0.00633
 B48 B -0.00316 0.46240 0.00410
 B49 B 0.04605 0.47164 0.48767
 B50 B -0.01209 0.48284 0.47863
 B51 B 0.00478 0.47129 0.52419
 B52 B 0.06265 0.48376 0.53339
 B53 B 0.08113 0.50295 0.49263
 B54 B 0.03483 0.50250 0.45899
 B55 B 0.00124 0.53348 0.52304
 B56 B 0.05994 0.52293 0.53192
 B57 B 0.04312 0.53354 0.48621
 B58 B -0.01475 0.52148 0.47771
 B59 B -0.03331 0.50182 0.51833
 B60 B 0.01349 0.50304 0.55203
 B61 B 0.52192 -0.01865 -0.03570
 B62 B 0.57932 -0.02203 -0.01753
 B63 B 0.55987 0.01209 -0.03439
 B64 B 0.50012 0.01672 -0.02281
 B65 B 0.48208 -0.01533 0.00219
 B66 B 0.53174 -0.03973 0.00497
 B67 B 0.55443 0.01239 0.04505
 B68 B 0.49749 0.01758 0.02660
 B69 B 0.51641 -0.01760 0.04371
 B70 B 0.57626 -0.02221 0.03172
 B71 B 0.59393 0.00976 0.00727
 B72 B 0.54564 0.03390 0.00406
 B73 B 0.46707 0.52434 -0.00736
 B74 B 0.52564 0.51704 -0.02063
 B75 B 0.51086 0.52444 0.02681
 B76 B 0.45580 0.50826 0.03674
 B77 B 0.43699 0.49070 -0.00550
 B78 B 0.47994 0.49659 -0.04098
 B79 B 0.52254 0.46315 0.01811
 B80 B 0.46356 0.46984 0.03022
 B81 B 0.47850 0.46305 -0.01705
 B82 B 0.53339 0.47892 -0.02648
 B83 B 0.55223 0.49657 0.01570
 B84 B 0.50875 0.49116 0.05115
 B85 B 0.02061 0.00571 0.46905
 B86 B -0.03279 0.01994 0.48589
 B87 B -0.02906 -0.01693 0.46972
 B88 B 0.02609 -0.03152 0.48326
 B89 B 0.05616 -0.00315 0.50804
 B90 B 0.01964 0.02861 0.50939
 B91 B -0.02741 -0.01680 0.54919
 B92 B 0.02651 -0.03088 0.53280
 B93 B 0.02260 0.00577 0.54873
 B94 B -0.03234 0.02036 0.53511
 B95 B -0.06234 -0.00778 0.50997
 B96 B -0.02572 -0.03988 0.50903
 B97 B 0.77234 0.28161 0.28052
 B98 B 0.71414 0.27022 0.28704
 B99 B 0.73197 0.28139 0.24211
 B100 B 0.79054 0.27034 0.23494
 B101 B 0.80869 0.25067 0.27586
 B102 B 0.76074 0.25034 0.30833
 B103 B 0.73220 0.21928 0.24298
 B104 B 0.78992 0.23166 0.23518
 B105 B 0.77178 0.21965 0.28008
 B106 B 0.71310 0.23119 0.28791
 B107 B 0.69525 0.25029 0.24691
 B108 B 0.74253 0.25030 0.21439
 B109 B 0.72523 0.77772 0.76351
 B110 B 0.70019 0.76787 0.71982
 B111 B 0.76084 0.77582 0.72366
 B112 B 0.78168 0.76206 0.76726
 B113 B 0.73309 0.74533 0.79008
 B114 B 0.68260 0.74946 0.76086
 B115 B 0.75048 0.71405 0.72157
 B116 B 0.77408 0.72344 0.76574
 B117 B 0.71371 0.71588 0.76159
 B118 B 0.69339 0.72940 0.71807
 B119 B 0.74208 0.74618 0.69525
 B120 B 0.79241 0.74260 0.72488
 B121 B 0.25373 0.22578 0.73076
 B122 B 0.19717 0.23160 0.71244
 B123 B 0.20514 0.22519 0.76087
 B124 B 0.25694 0.24239 0.77579
 B125 B 0.28104 0.26014 0.73598
 B126 B 0.24427 0.25334 0.69634
 B127 B 0.19164 0.28652 0.75054
 B128 B 0.24802 0.28032 0.76910
 B129 B 0.24046 0.28722 0.72077
 B130 B 0.18832 0.26987 0.70531
 B131 B 0.16409 0.25198 0.74530
 B132 B 0.20104 0.25892 0.78481
 B133 B 0.22330 0.77714 0.21964
 B134 B 0.28488 0.77722 0.21475
 B135 B 0.25972 0.78228 0.25949
 B136 B 0.20897 0.76033 0.26243
 B137 B 0.20364 0.74070 0.21891
 B138 B 0.25103 0.75142 0.18937
 B139 B 0.28992 0.72294 0.25391
 B140 B 0.22827 0.72374 0.25884
 B141 B 0.25375 0.71785 0.21424
 B142 B 0.30474 0.74001 0.21084
 B143 B 0.31000 0.75960 0.25417
 B144 B 0.26259 0.74920 0.28385
 B145 B 0.30612 0.72498 0.77753
 B146 B 0.31788 0.73223 0.73020
 B147 B 0.26074 0.72273 0.74366
 B148 B 0.24973 0.73839 0.78873
 B149 B 0.30155 0.75834 0.80196
 B150 B 0.34354 0.75433 0.76535
 B151 B 0.26398 0.78463 0.73581
 B152 B 0.25259 0.77681 0.78335
 B153 B 0.30927 0.78674 0.76857
 B154 B 0.32058 0.77098 0.72408
 B155 B 0.26959 0.75156 0.71091
 B156 B 0.22679 0.75496 0.74748
 B157 B 0.21226 0.20351 0.26230
 B158 B 0.26961 0.21580 0.27259
 B159 B 0.25360 0.20553 0.22632
 B160 B 0.19505 0.21712 0.21767
 B161 B 0.17495 0.23490 0.25956
 B162 B 0.22100 0.23335 0.29332
 B163 B 0.25316 0.26778 0.23141
 B164 B 0.19534 0.25613 0.22124
 B165 B 0.21121 0.26589 0.26757
 B166 B 0.26929 0.25442 0.27612
 B167 B 0.28950 0.23673 0.23446
 B168 B 0.24327 0.23765 0.20025
 B169 B 0.77310 0.72440 0.23513
 B170 B 0.71970 0.73288 0.21251
 B171 B 0.72062 0.72504 0.26094
 B172 B 0.77235 0.74023 0.28079
 B173 B 0.80268 0.75798 0.24330
 B174 B 0.76999 0.75285 0.20102
 B175 B 0.71402 0.78692 0.25230
 B176 B 0.76778 0.77885 0.27432
 B177 B 0.76580 0.78641 0.22578
 B178 B 0.71465 0.77119 0.20648
 B179 B 0.68473 0.75376 0.24367
 B180 B 0.71722 0.75853 0.28612
 B181 B 0.72750 0.22554 0.72320
 B182 B 0.70823 0.23115 0.77016
 B183 B 0.76866 0.22587 0.76004
 B184 B 0.78174 0.24369 0.71756
 B185 B 0.72881 0.25993 0.70091
 B186 B 0.68288 0.25181 0.73309
 B187 B 0.75121 0.28675 0.77168
 B188 B 0.77036 0.28160 0.72501
 B189 B 0.71030 0.28645 0.73427
 B190 B 0.69696 0.26882 0.77709
 B191 B 0.75048 0.25241 0.79389
 B192 B 0.79579 0.26078 0.76136
 C193 C 0.09463 0.46293 0.87700
 C194 C 0.07836 0.43256 0.86812
 C195 C 0.03701 0.42188 0.88877
 C196 C 0.01696 0.43915 0.91959
 C197 C 0.03256 0.46934 0.92843
 C198 C 0.07157 0.48110 0.90629
 C199 C 0.01615 0.39349 0.87950
 C200 C 0.03623 0.37474 0.85065
 C201 C 0.07972 0.38295 0.83109
 C202 C 0.10191 0.41199 0.84053
 C203 C 0.14817 0.41842 0.82404
 C204 C 0.17290 0.39661 0.80087
 C205 C 0.15156 0.36818 0.79161
 C206 C 0.10349 0.36189 0.80467
 C207 C 0.08167 0.33412 0.79179
 C208 C 0.10873 0.31169 0.77179
 C209 C 0.15851 0.31601 0.76324
 C210 C 0.17864 0.34536 0.77099
 H211 H 0.12477 0.47327 0.86152
 H212 H -0.01128 0.42844 0.93703
 H213 H 0.08550 0.50396 0.91251
 H214 H -0.01615 0.38556 0.89488
 H215 H 0.01831 0.35292 0.84619
 H216 H 0.16742 0.43951 0.83055
 H217 H 0.20947 0.40186 0.79063
 H218 H 0.04377 0.32879 0.79721
 H219 H 0.09056 0.29024 0.76473
 H220 H 0.21649 0.34983 0.76363
 C221 C 0.41093 0.54322 0.35650
 C222 C 0.39012 0.57203 0.36763
 C223 C 0.38599 0.57840 0.40837
 C224 C 0.40104 0.55669 0.43626
 C225 C 0.42710 0.52991 0.42517
 C226 C 0.43020 0.52288 0.38487
 C227 C 0.36993 0.60730 0.42143
 C228 C 0.36128 0.63090 0.39499
 C229 C 0.36527 0.62584 0.35420
 C230 C 0.37550 0.59540 0.34014
 C231 C 0.36974 0.58956 0.29947
 C232 C 0.35360 0.61280 0.27386
 C233 C 0.34681 0.64318 0.28727
 C234 C 0.35647 0.65017 0.32714
 C235 C 0.35791 0.68142 0.33849
 C236 C 0.34294 0.70447 0.31281
 C237 C 0.32334 0.69716 0.27561
 C238 C 0.32932 0.66659 0.26184
 H239 H 0.41621 0.53703 0.32603
 H240 H 0.39736 0.56268 0.46709
 H241 H 0.44953 0.50248 0.37496
 H242 H 0.36626 0.61220 0.45258
 H243 H 0.34937 0.65278 0.40711
 H244 H 0.37477 0.56673 0.28721
 H245 H 0.34700 0.60704 0.24329
 H246 H 0.37057 0.68857 0.36722
 H247 H 0.34296 0.72797 0.32380
 H248 H 0.31962 0.66075 0.23198
 C249 C 0.94804 0.93892 0.64766
 C250 C 0.90074 0.92675 0.64050
 C251 C 0.87479 0.93810 0.60742
 C252 C 0.89584 0.95976 0.58243
 C253 C 0.94492 0.96877 0.58677
 C254 C 0.96991 0.95932 0.62089
 C255 C 0.82895 0.92631 0.59759
 C256 C 0.81040 0.90116 0.61733
 C257 C 0.83624 0.88771 0.64879
 C258 C 0.87932 0.90245 0.66319
 C259 C 0.89914 0.89202 0.69922
 C260 C 0.87796 0.86740 0.71959
 C261 C 0.83903 0.85074 0.70318
 C262 C 0.81966 0.86005 0.66649
 C263 C 0.78681 0.84019 0.64719
 C264 C 0.77136 0.81317 0.66478
 C265 C 0.78469 0.80572 0.70337
 C266 C 0.81989 0.82445 0.72226
 H267 H 0.97026 0.93123 0.67203
 H268 H 0.87470 0.96715 0.55719
 H269 H 1.00762 0.96596 0.62563
 H270 H 0.80835 0.93551 0.57296
 H271 H 0.77502 0.89285 0.60792
 H272 H 0.93011 0.90320 0.71282
 H273 H 0.89352 0.86055 0.74757
 H274 H 0.77489 0.84409 0.61732
 H275 H 0.74956 0.79786 0.64725
 H276 H 0.83313 0.81832 0.75125
 C277 C 0.55414 0.06075 0.14125
 C278 C 0.60265 0.07187 0.14168
 C279 C 0.63773 0.05620 0.11821
 C280 C 0.62264 0.03490 0.08977
 C281 C 0.57286 0.02802 0.08501
 C282 C 0.54002 0.03817 0.11409
 C283 C 0.68725 0.06328 0.12148
 C284 C 0.70256 0.08658 0.14656
 C285 C 0.66834 0.10487 0.16748
 C286 C 0.61746 0.09824 0.16374
 C287 C 0.58313 0.11964 0.17911
 C288 C 0.59840 0.14723 0.19636
 C289 C 0.64823 0.15333 0.20145
 C290 C 0.68341 0.13103 0.18955
 C291 C 0.73252 0.13564 0.20031
 C292 C 0.74681 0.16276 0.21853
 C293 C 0.71342 0.18705 0.22526
 C294 C 0.66348 0.18156 0.21802
 H295 H 0.52664 0.06932 0.16139
 H296 H 0.64969 0.02515 0.06992
 H297 H 0.50243 0.03046 0.11425
 H298 H 0.71434 0.05111 0.10390
 H299 H 0.74127 0.09149 0.14643
 H300 H 0.54414 0.11657 0.17552
 H301 H 0.57101 0.16386 0.20590
 H302 H 0.76043 0.11816 0.19619
 H303 H 0.78464 0.16425 0.22741
 H304 H 0.63643 0.19907 0.22535
 C305 C 0.94615 0.09924 0.43804
 C306 C 0.90589 0.09388 0.41324
 C307 C 0.87918 0.06621 0.41777
 C308 C 0.89695 0.04291 0.44263
 C309 C 0.94035 0.04742 0.46392
 C310 C 0.96276 0.07654 0.46309
 C311 C 0.83552 0.06206 0.39705
 C312 C 0.81722 0.08539 0.37300
 C313 C 0.84377 0.11289 0.36713
 C314 C 0.89060 0.11583 0.38516
 C315 C 0.92143 0.14023 0.37399
 C316 C 0.90486 0.16310 0.34915
 C317 C 0.85684 0.16274 0.33541
 C318 C 0.82552 0.13765 0.34389
 C319 C 0.77652 0.13933 0.33067
 C320 C 0.75962 0.16506 0.31019
 C321 C 0.79130 0.18940 0.30109
 C322 C 0.83980 0.18795 0.31410
 H323 H 0.96512 0.12101 0.43910
 H324 H 0.87785 0.02116 0.44443
 H325 H 0.99484 0.08184 0.48048
 H326 H 0.81481 0.04094 0.40012
 H327 H 0.78303 0.08084 0.35821
 H328 H 0.95914 0.14176 0.38336
 H329 H 0.92941 0.18175 0.34167
 H330 H 0.74988 0.12186 0.33737
 H331 H 0.72130 0.16598 0.30202
 H332 H 0.86430 0.20711 0.30938
 C333 C 0.44637 0.41081 0.59317
 C334 C 0.39810 0.41473 0.60675
 C335 C 0.37029 0.43987 0.59209
 C336 C 0.39256 0.46207 0.56770
 C337 C 0.44195 0.45874 0.55633
 C338 C 0.46706 0.43184 0.56783
 C339 C 0.32037 0.44197 0.60109
 C340 C 0.29742 0.41894 0.62295
 C341 C 0.32432 0.39381 0.63852
 C342 C 0.37606 0.39314 0.63248
 C343 C 0.40462 0.37104 0.65254
 C344 C 0.38303 0.34811 0.67436
 C345 C 0.33228 0.34627 0.67701
 C346 C 0.30185 0.36917 0.65984
 C347 C 0.25048 0.36552 0.66355
 C348 C 0.23074 0.33995 0.68306
 C349 C 0.26143 0.31752 0.70002
 C350 C 0.31218 0.32110 0.69644
 H351 H 0.46828 0.39068 0.59980
 H352 H 0.37127 0.48152 0.55704
 H353 H 0.50333 0.42642 0.55698
 H354 H 0.29851 0.46102 0.59005
 H355 H 0.25864 0.42171 0.62794
 H356 H 0.44414 0.37130 0.65251
 H357 H 0.40643 0.33123 0.68869
 H358 H 0.22475 0.38152 0.65063
 H359 H 0.19132 0.33759 0.68446
 H360 H 0.33701 0.30371 0.70765
 C361 C 0.67579 0.91443 0.95950
 C362 C 0.67754 0.91509 0.91790
 C363 C 0.65578 0.94063 0.89874
 C364 C 0.62840 0.96219 0.92001
 C365 C 0.62153 0.95900 0.96062
 C366 C 0.64784 0.93595 0.98040
 C367 C 0.65783 0.94329 0.85802
 C368 C 0.67676 0.91954 0.83526
 C369 C 0.69353 0.89192 0.85259
 C370 C 0.69626 0.89025 0.89461
 C371 C 0.71397 0.86286 0.91194
 C372 C 0.72376 0.83693 0.88939
 C373 C 0.71741 0.83750 0.84879
 C374 C 0.70468 0.86524 0.82946
 C375 C 0.70168 0.86461 0.78789
 C376 C 0.70827 0.83715 0.76697
 C377 C 0.71702 0.80934 0.78663
 C378 C 0.72295 0.81009 0.82760
 H379 H 0.69351 0.89684 0.97676
 H380 H 0.60785 0.97921 0.90370
 H381 H 0.64463 0.93320 1.01190
 H382 H 0.64243 0.96333 0.84341
 H383 H 0.67532 0.92304 0.80399
 H384 H 0.71872 0.86015 0.94314
 H385 H 0.73508 0.81589 0.90410
 H386 H 0.69427 0.88480 0.77050
 H387 H 0.70631 0.83790 0.73525
 H388 H 0.73196 0.78927 0.84361
 C389 C 0.10630 0.54581 0.12611
 C390 C 0.13593 0.56931 0.11015
 C391 C 0.13540 0.57295 0.06876
 C392 C 0.10476 0.55474 0.04493
 C393 C 0.07336 0.53280 0.06146
 C394 C 0.07569 0.52810 0.10223
 C395 C 0.16410 0.59557 0.05133
 C396 C 0.19121 0.61596 0.07411
 C397 C 0.19073 0.61458 0.11558
 C398 C 0.16415 0.59014 0.13386
 C399 C 0.16529 0.58806 0.17529
 C400 C 0.18799 0.61042 0.19821
 C401 C 0.21071 0.63565 0.18092
 C402 C 0.21412 0.63757 0.13946
 C403 C 0.23918 0.66320 0.12377
 C404 C 0.25529 0.68721 0.14798
 C405 C 0.24754 0.68665 0.18878
 C406 C 0.22812 0.65965 0.20502
 H407 H 0.10435 0.54117 0.15711
 H408 H 0.10404 0.55874 0.01353
 H409 H 0.05172 0.51179 0.11636
 H410 H 0.16453 0.59815 0.01965
 H411 H 0.21136 0.63307 0.05812
 H412 H 0.14798 0.56971 0.19119
 H413 H 0.18624 0.60845 0.22994
 H414 H 0.24540 0.66611 0.09278
 H415 H 0.27197 0.70698 0.13414
 H416 H 0.22510 0.65735 0.23645
 C417 C 0.50649 0.91394 0.11641
 C418 C 0.45534 0.91153 0.12130
 C419 C 0.42619 0.93716 0.10993
 C420 C 0.44685 0.96179 0.08919
 C421 C 0.49679 0.96231 0.08016
 C422 C 0.52678 0.93907 0.09667
 C423 C 0.37598 0.93729 0.11715
 C424 C 0.35387 0.91234 0.13512
 C425 C 0.38097 0.88561 0.14515
 C426 C 0.43200 0.88454 0.13640
 C427 C 0.45705 0.85607 0.14082
 C428 C 0.43274 0.82958 0.15338
 C429 C 0.38345 0.83088 0.16442
 C430 C 0.35797 0.85945 0.16216
 C431 C 0.31099 0.86125 0.17867
 C432 C 0.28929 0.83553 0.19492
 C433 C 0.31157 0.80611 0.19363
 C434 C 0.35962 0.80420 0.17869
 H435 H 0.53152 0.89649 0.12704
 H436 H 0.42297 0.97911 0.07745
 H437 H 0.56595 0.93876 0.09186
 H438 H 0.35337 0.95677 0.10843
 H439 H 0.31465 0.91383 0.13855
 H440 H 0.49506 0.85329 0.13285
 H441 H 0.45301 0.80804 0.15527
 H442 H 0.29141 0.88283 0.18197
 H443 H 0.25579 0.83969 0.21080
 H444 H 0.37920 0.78238 0.17967
 C445 C 0.56255 0.44850 0.35940
 C446 C 0.55550 0.41655 0.36618
 C447 C 0.51810 0.40811 0.39256
 C448 C 0.49391 0.43085 0.41493
 C449 C 0.50855 0.46205 0.41342
 C450 C 0.53993 0.47076 0.38309
 C451 C 0.50763 0.37695 0.39869
 C452 C 0.53593 0.35378 0.38128
 C453 C 0.57652 0.36097 0.35753
 C454 C 0.58579 0.39295 0.34932
 C455 C 0.62704 0.40052 0.32666
 C456 C 0.65881 0.37800 0.31323
 C457 C 0.65064 0.34697 0.32123
 C458 C 0.60921 0.33754 0.34262
 C459 C 0.60305 0.30518 0.34805
 C460 C 0.63653 0.28351 0.33206
 C461 C 0.67753 0.29338 0.31089
 C462 C 0.68398 0.32543 0.30680
 H463 H 0.58687 0.45713 0.33718
 H464 H 0.46763 0.42357 0.43680
 H465 H 0.54916 0.49462 0.37860
 H466 H 0.47834 0.37037 0.41836
 H467 H 0.52630 0.33035 0.38826
 H468 H 0.63703 0.42386 0.31978
 H469 H 0.69053 0.38509 0.29643
 H470 H 0.57225 0.29591 0.36374
 H471 H 0.62974 0.25909 0.33562
 H472 H 0.71369 0.33432 0.28945
 C473 C 0.87693 0.55730 0.90155
 C474 C 0.90105 0.58331 0.88662
 C475 C 0.94907 0.58938 0.90023
 C476 C 0.97403 0.56749 0.92408
 C477 C 0.94991 0.54083 0.93781
 C478 C 0.90011 0.53757 0.92781
 C479 C 0.97051 0.61780 0.89120
 C480 C 0.94442 0.64043 0.87029
 C481 C 0.89726 0.63449 0.85487
 C482 C 0.87727 0.60449 0.86077
 C483 C 0.83465 0.59612 0.83997
 C484 C 0.81068 0.61696 0.81578
 C485 C 0.82674 0.64736 0.81294
 C486 C 0.86948 0.65699 0.83305
 C487 C 0.88148 0.68877 0.83109
 C488 C 0.85153 0.70989 0.81047
 C489 C 0.80970 0.69992 0.78992
 C490 C 0.79946 0.66815 0.79028
 H491 H 0.83864 0.55304 0.89582
 H492 H 1.01107 0.57218 0.93380
 H493 H 0.87764 0.52013 0.94119
 H494 H 1.00704 0.62308 0.90168
 H495 H 0.96267 0.66208 0.86521
 H496 H 0.82018 0.57299 0.84067
 H497 H 0.77824 0.60942 0.80008
 H498 H 0.91271 0.69803 0.84656
 H499 H 0.86135 0.73406 0.81058
 H500 H 0.76941 0.65918 0.77305
 C501 C 0.03593 0.05801 0.64019
 C502 C 0.08051 0.07323 0.63191
 C503 C 0.11110 0.06006 0.60260
 C504 C 0.09599 0.03402 0.58118
 C505 C 0.04856 0.02205 0.58571
 C506 C 0.02004 0.03321 0.61705
 C507 C 0.15498 0.07432 0.59252
 C508 C 0.16720 0.10287 0.60828
 C509 C 0.13636 0.11800 0.63555
 C510 C 0.09430 0.10196 0.64975
 C511 C 0.06716 0.11549 0.68073
 C512 C 0.07999 0.14398 0.69662
 C513 C 0.11918 0.16063 0.68141
 C514 C 0.14691 0.14836 0.64981
 C515 C 0.18366 0.16726 0.63343
 C516 C 0.19605 0.19546 0.65079
 C517 C 0.17262 0.20562 0.68523
 C518 C 0.13186 0.18907 0.69853
 H519 H 0.01055 0.06628 0.66210
 H520 H 0.11912 0.02574 0.55748
 H521 H -0.01679 0.02482 0.62149
 H522 H 0.17914 0.06397 0.57082
 H523 H 0.20155 0.11249 0.59885
 H524 H 0.03639 0.10422 0.69411
 H525 H 0.05879 0.15315 0.72099
 H526 H 0.20392 0.16065 0.60751
 H527 H 0.22659 0.20811 0.63876
 H528 H 0.11130 0.19744 0.72358
 C529 C 0.11442 0.39381 0.46550
 C530 C 0.11029 0.39160 0.42394
 C531 C 0.08575 0.41578 0.40418
 C532 C 0.06629 0.44053 0.42496
 C533 C 0.06899 0.44226 0.46603
 C534 C 0.09419 0.41892 0.48612
 C535 C 0.08049 0.41553 0.36351
 C536 C 0.10054 0.39203 0.34129
 C537 C 0.12685 0.36776 0.35905
 C538 C 0.13015 0.36678 0.40111
 C539 C 0.15260 0.34091 0.41872
 C540 C 0.17164 0.31701 0.39604
 C541 C 0.17028 0.31838 0.35509
 C542 C 0.14897 0.34404 0.33600
 C543 C 0.15164 0.34524 0.29451
 C544 C 0.17189 0.32101 0.27299
 C545 C 0.19027 0.29472 0.29175
 C546 C 0.19027 0.29410 0.33311
 H547 H 0.13354 0.37683 0.48286
 H548 H 0.04974 0.45886 0.40815
 H549 H 0.09807 0.41995 0.51779
 H550 H 0.06064 0.43382 0.34856
 H551 H 0.09370 0.39325 0.31015
 H552 H 0.15514 0.33811 0.45010
 H553 H 0.18802 0.29733 0.41077
 H554 H 0.13976 0.36492 0.27770
 H555 H 0.17450 0.32371 0.24162
 H556 H 0.20598 0.27472 0.34878
 C557 C 0.36175 0.57714 0.95634
 C558 C 0.38783 0.60179 0.93955
 C559 C 0.43899 0.60337 0.94622
 C560 C 0.46247 0.58110 0.96903
 C561 C 0.43765 0.55437 0.97995
 C562 C 0.38657 0.55346 0.97551
 C563 C 0.46710 0.62569 0.92761
 C564 C 0.44619 0.64442 0.89918
 C565 C 0.39574 0.64267 0.89054
 C566 C 0.36547 0.62348 0.91399
 C567 C 0.31413 0.62634 0.91068
 C568 C 0.29320 0.64633 0.88364
 C569 C 0.32264 0.66264 0.85765
 C570 C 0.37428 0.66008 0.85977
 C571 C 0.40244 0.67443 0.83047
 C572 C 0.38018 0.69287 0.80225
 C573 C 0.32930 0.69782 0.80257
 C574 C 0.30077 0.68211 0.83009
 H575 H 0.32294 0.57404 0.95208
 H576 H 0.50109 0.58355 0.97521
 H577 H 0.36560 0.53380 0.98519
 H578 H 0.50617 0.62727 0.93304
 H579 H 0.47011 0.66063 0.88492
 H580 H 0.28929 0.61424 0.92971
 H581 H 0.25362 0.64844 0.88243
 H582 H 0.44164 0.67147 0.82843
 H583 H 0.40339 0.70423 0.78106
 H584 H 0.26155 0.68585 0.83137
 C585 C 0.58352 0.05520 0.62131
 C586 C 0.60482 0.08254 0.60720
 C587 C 0.60265 0.08824 0.56623
 C588 C 0.57576 0.06860 0.54124
 C589 C 0.55194 0.04264 0.55639
 C590 C 0.55766 0.03578 0.59644
 C591 C 0.62680 0.11370 0.55069
 C592 C 0.65277 0.13376 0.57500
 C593 C 0.65378 0.12981 0.61620
 C594 C 0.62798 0.10432 0.63256
 C595 C 0.62396 0.10219 0.67383
 C596 C 0.64433 0.12420 0.69834
 C597 C 0.67061 0.14873 0.68291
 C598 C 0.67746 0.15135 0.64186
 C599 C 0.70721 0.17570 0.62845
 C600 C 0.72571 0.19774 0.65464
 C601 C 0.71488 0.19663 0.69508
 C602 C 0.68852 0.17127 0.70861
 H603 H 0.58660 0.04786 0.65142
 H604 H 0.57270 0.07386 0.51020
 H605 H 0.54113 0.01563 0.60941
 H606 H 0.62566 0.11818 0.51938
 H607 H 0.66989 0.15306 0.56078
 H608 H 0.60298 0.08461 0.68826
 H609 H 0.63895 0.12214 0.72981
 H610 H 0.71680 0.17835 0.59793
 H611 H 0.74722 0.21637 0.64267
 H612 H 0.68011 0.16894 0.73904
 C613 C 0.94743 0.89195 0.05230
 C614 C 0.90288 0.89648 0.07277
 C615 C 0.87402 0.92254 0.06278
 C616 C 0.89228 0.94498 0.03740
 C617 C 0.93968 0.94236 0.02180
 C618 C 0.96539 0.91456 0.02719
 C619 C 0.82819 0.92708 0.07983
 C620 C 0.81057 0.90660 0.10747
 C621 C 0.83886 0.88105 0.11994
 C622 C 0.88638 0.87643 0.10311
 C623 C 0.91669 0.85285 0.11840
 C624 C 0.90036 0.83349 0.14788
 C625 C 0.85300 0.83644 0.16276
 C626 C 0.82148 0.86017 0.14903
 C627 C 0.77320 0.86127 0.16397
 C628 C 0.75667 0.83912 0.19019
 C629 C 0.78780 0.81556 0.20364
 C630 C 0.83641 0.81489 0.19022
 H631 H 0.96990 0.87160 0.05593
 H632 H 0.87061 0.96563 0.03241
 H633 H 1.00158 0.91121 0.01502
 H634 H 0.80591 0.94698 0.07215
 H635 H 0.77525 0.91225 0.11964
 H636 H 0.95391 0.84926 0.10882
 H637 H 0.92483 0.81559 0.15862
 H638 H 0.74621 0.87781 0.15432
 H639 H 0.71831 0.83959 0.19792
 H640 H 0.86080 0.79636 0.19914
 C641 C 0.85583 0.06100 0.90077
 C642 C 0.88100 0.08079 0.87482
 C643 C 0.93272 0.08136 0.87704
 C644 C 0.95776 0.06182 0.90294
 C645 C 0.93259 0.04457 0.93124
 C646 C 0.88129 0.04340 0.92859
 C647 C 0.95925 0.10204 0.85417
 C648 C 0.93521 0.12397 0.83142
 C649 C 0.88366 0.12452 0.82868
 C650 C 0.85662 0.10077 0.84777
 C651 C 0.80642 0.09770 0.83887
 C652 C 0.78279 0.11857 0.81429
 C653 C 0.80736 0.14446 0.80026
 C654 C 0.85803 0.14798 0.80753
 C655 C 0.88027 0.17568 0.79530
 C656 C 0.85239 0.19954 0.77886
 C657 C 0.80163 0.19641 0.77279
 C658 C 0.78079 0.16764 0.78089
 H659 H 0.81637 0.05983 0.90153
 H660 H 0.99725 0.06078 0.90136
 H661 H 0.86046 0.02902 0.94833
 H662 H 0.99893 0.10224 0.85531
 H663 H 0.95795 0.13975 0.81529
 H664 H 0.78481 0.07883 0.84981
 H665 H 0.74416 0.11539 0.80813
 H666 H 0.91848 0.18043 0.80058
 H667 H 0.87091 0.22085 0.77200
 H668 H 0.74281 0.16373 0.77521
 C669 C 0.11719 0.60046 0.56746
 C670 C 0.14458 0.59302 0.60083
 C671 C 0.14185 0.56267 0.61568
 C672 C 0.11860 0.53913 0.59288
 C673 C 0.09352 0.54677 0.55762
 C674 C 0.09069 0.57833 0.54796
 C675 C 0.16020 0.55714 0.65367
 C676 C 0.17879 0.58149 0.67696
 C677 C 0.18375 0.61165 0.66160
 C678 C 0.17034 0.61618 0.62158
 C679 C 0.18303 0.64381 0.60276
 C680 C 0.20273 0.66801 0.62356
 C681 C 0.21013 0.66570 0.66392
 C682 C 0.20158 0.63766 0.68390
 C683 C 0.20974 0.63766 0.72512
 C684 C 0.22610 0.66449 0.74504
 C685 C 0.23583 0.69194 0.72448
 C686 C 0.22653 0.69178 0.68380
 H687 H 0.11194 0.62401 0.55790
 H688 H 0.11754 0.51565 0.60361
 H689 H 0.06554 0.58709 0.52629
 H690 H 0.15797 0.53424 0.66618
 H691 H 0.19036 0.57610 0.70652
 H692 H 0.17884 0.64694 0.57143
 H693 H 0.21123 0.68905 0.60790
 H694 H 0.20294 0.61736 0.74252
 H695 H 0.23185 0.66337 0.77631
 H696 H 0.23238 0.71209 0.66621
 C697 C 0.61311 0.95449 0.39281
 C698 C 0.59554 0.92576 0.37867
 C699 C 0.55027 0.91541 0.39372
 C700 C 0.52623 0.93178 0.42363
 C701 C 0.54332 0.96039 0.43741
 C702 C 0.58712 0.97156 0.42127
 C703 C 0.52919 0.88840 0.37938
 C704 C 0.55215 0.87109 0.35039
 C705 C 0.59845 0.87944 0.33558
 C706 C 0.62131 0.90669 0.35076
 C707 C 0.66990 0.91294 0.33905
 C708 C 0.69577 0.89268 0.31457
 C709 C 0.67369 0.86610 0.29947
 C710 C 0.62394 0.86014 0.30808
 C711 C 0.60198 0.83450 0.28948
 C712 C 0.62998 0.81313 0.26846
 C713 C 0.68092 0.81655 0.26461
 C714 C 0.70157 0.84459 0.27746
 H715 H 0.64637 0.96462 0.38191
 H716 H 0.49486 0.92120 0.43720
 H717 H 0.60202 0.99340 0.43103
 H718 H 0.49430 0.88054 0.39066
 H719 H 0.53366 0.85025 0.34167
 H720 H 0.68985 0.93256 0.35009
 H721 H 0.73377 0.89760 0.30799
 H722 H 0.56327 0.82995 0.29124
 H723 H 0.61140 0.79301 0.25702
 H724 H 0.74008 0.84893 0.27264
 C725 C 0.41848 0.38863 0.06311
 C726 C 0.38688 0.39441 0.09486
 C727 C 0.38084 0.42538 0.10767
 C728 C 0.40301 0.44986 0.08656
 C729 C 0.43320 0.44359 0.05378
 C730 C 0.44114 0.41244 0.04362
 C731 C 0.35386 0.43126 0.14193
 C732 C 0.33416 0.40705 0.16397
 C733 C 0.33875 0.37595 0.15155
 C734 C 0.36330 0.36997 0.11521
 C735 C 0.36302 0.33972 0.09970
 C736 C 0.34303 0.31556 0.12028
 C737 C 0.32205 0.32043 0.15701
 C738 C 0.31919 0.35048 0.17346
 C739 C 0.29802 0.35326 0.21139
 C740 C 0.27881 0.32737 0.23090
 C741 C 0.27871 0.29810 0.21290
 C742 C 0.30308 0.29502 0.17674
 H743 H 0.42895 0.36570 0.05385
 H744 H 0.39799 0.47350 0.09637
 H745 H 0.46725 0.40567 0.02141
 H746 H 0.34894 0.45476 0.15234
 H747 H 0.31446 0.41335 0.19030
 H748 H 0.37679 0.33401 0.07089
 H749 H 0.34398 0.29270 0.10713
 H750 H 0.29662 0.37503 0.22689
 H751 H 0.26465 0.33044 0.26024
 H752 H 0.30633 0.27260 0.16272
 C753 C 0.51380 0.60374 0.08257
 C754 C 0.56438 0.60740 0.09070
 C755 C 0.59680 0.58392 0.07761
 C756 C 0.57884 0.55729 0.05967
 C757 C 0.52915 0.55439 0.05005
 C758 C 0.49666 0.57771 0.06232
 C759 C 0.64724 0.58694 0.08237
 C760 C 0.66667 0.61328 0.09919
 C761 C 0.63601 0.63701 0.11368
 C762 C 0.58406 0.63331 0.11139
 C763 C 0.55390 0.65483 0.13136
 C764 C 0.57407 0.67864 0.15363
 C765 C 0.62470 0.68295 0.15485
 C766 C 0.65593 0.66337 0.13274
 C767 C 0.70602 0.67104 0.13048
 C768 C 0.72514 0.69471 0.15348
 C769 C 0.69555 0.71053 0.18062
 C770 C 0.64464 0.70618 0.17879
 H771 H 0.48689 0.62100 0.09046
 H772 H 0.60444 0.53883 0.05315
 H773 H 0.45780 0.57588 0.05645
 H774 H 0.67210 0.56890 0.07245
 H775 H 0.70598 0.61371 0.10247
 H776 H 0.51457 0.65277 0.13216
 H777 H 0.54980 0.69378 0.17011
 H778 H 0.73110 0.65930 0.11092
 H779 H 0.76388 0.69954 0.15116
 H780 H 0.62036 0.72043 0.19636
 C781 C 0.02660 0.89737 0.91105
 C782 C 0.07799 0.89382 0.90740
 C783 C 0.10794 0.91463 0.92868
 C784 C 0.08726 0.93934 0.94954
 C785 C 0.03642 0.94284 0.95312
 C786 C 0.00633 0.92132 0.93380
 C787 C 0.15869 0.91121 0.92852
 C788 C 0.18068 0.88716 0.90813
 C789 C 0.15271 0.86629 0.88555
 C790 C 0.10088 0.87064 0.88332
 C791 C 0.07436 0.85271 0.85583
 C792 C 0.09804 0.83158 0.83106
 C793 C 0.14842 0.82614 0.83443
 C794 C 0.17558 0.84224 0.86341
 C795 C 0.22465 0.83337 0.86967
 C796 C 0.24721 0.81175 0.84547
 C797 C 0.22254 0.79871 0.81314
 C798 C 0.17214 0.80491 0.80904
 H799 H 0.00130 0.88167 0.89719
 H800 H 0.11150 0.95640 0.96186
 H801 H -0.03317 0.92329 0.93557
 H802 H 0.18175 0.92719 0.94463
 H803 H 0.22017 0.88651 0.90881
 H804 H 0.03549 0.85574 0.85143
 H805 H 0.07664 0.81922 0.80929
 H806 H 0.24629 0.84230 0.89368
 H807 H 0.28517 0.80623 0.85162
 H808 H 0.15128 0.79327 0.78641
 C809 C 0.39169 0.10459 0.47572
 C810 C 0.41059 0.11652 0.44043
 C811 C 0.45676 0.10516 0.42768
 C812 C 0.48172 0.08194 0.44919
 C813 C 0.45995 0.06814 0.48226
 C814 C 0.41503 0.08054 0.49524
 C815 C 0.47603 0.11548 0.39210
 C816 C 0.44920 0.13519 0.36776
 C817 C 0.40195 0.14589 0.37833
 C818 C 0.38343 0.13752 0.41612
 C819 C 0.33749 0.14956 0.42787
 C820 C 0.30886 0.16707 0.40266
 C821 C 0.32489 0.17386 0.36489
 C822 C 0.37199 0.16411 0.35227
 C823 C 0.38638 0.17263 0.31383
 C824 C 0.35476 0.18923 0.28903
 C825 C 0.30730 0.19755 0.30107
 C826 C 0.29350 0.19030 0.33970
 H827 H 0.35667 0.11135 0.48755
 H828 H 0.51572 0.07251 0.43776
 H829 H 0.39430 0.06994 0.51832
 H830 H 0.51150 0.10723 0.38215
 H831 H 0.46627 0.14128 0.34038
 H832 H 0.32213 0.14583 0.45654
 H833 H 0.27335 0.17512 0.41280
 H834 H 0.42179 0.16675 0.30193
 H835 H 0.36805 0.19566 0.26045
 H836 H 0.25748 0.19683 0.35031
 C837 C 0.96276 0.38709 0.55217
 C838 C 0.93663 0.39230 0.58762
 C839 C 0.93415 0.42300 0.60191
 C840 C 0.95724 0.44692 0.58207
 C841 C 0.98286 0.44184 0.54682
 C842 C 0.98515 0.41151 0.53209
 C843 C 0.90806 0.43013 0.63590
 C844 C 0.88229 0.40764 0.65545
 C845 C 0.88199 0.37684 0.64193
 C846 C 0.91177 0.36857 0.60891
 C847 C 0.91603 0.33697 0.59894
 C848 C 0.89151 0.31437 0.62028
 C849 C 0.86006 0.32246 0.65110
 C850 C 0.85369 0.35395 0.66125
 C851 C 0.81805 0.36156 0.68966
 C852 C 0.79222 0.33880 0.70898
 C853 C 0.80080 0.30734 0.70147
 C854 C 0.83446 0.29940 0.67168
 H855 H 0.96494 0.36462 0.53850
 H856 H 0.95350 0.47001 0.59409
 H857 H 1.00214 0.40665 0.50413
 H858 H 0.90698 0.45354 0.64734
 H859 H 0.86402 0.41501 0.68197
 H860 H 0.93931 0.32894 0.57540
 H861 H 0.89657 0.29035 0.61209
 H862 H 0.80790 0.38501 0.69675
 H863 H 0.76509 0.34630 0.73009
 H864 H 0.84044 0.27536 0.66405
 C865 C 0.88048 0.54026 0.13106
 C866 C 0.89838 0.56999 0.14120
 C867 C 0.94543 0.57771 0.12712
 C868 C 0.97041 0.55822 0.10081
 C869 C 0.95161 0.52943 0.08904
 C870 C 0.90681 0.52038 0.10566
 C871 C 0.96671 0.60573 0.13753
 C872 C 0.94173 0.62703 0.16057
 C873 C 0.89335 0.62168 0.17334
 C874 C 0.87103 0.59278 0.16336
 C875 C 0.82148 0.58852 0.17392
 C876 C 0.79423 0.61200 0.19215
 C877 C 0.81544 0.64040 0.20168
 C878 C 0.86578 0.64509 0.19377
 C879 C 0.88624 0.67353 0.20572
 C880 C 0.85715 0.69735 0.22067
 C881 C 0.80630 0.69403 0.22525
 C882 C 0.78631 0.66460 0.21769
 H883 H 0.84582 0.53198 0.14174
 H884 H 1.00303 0.56712 0.08720
 H885 H 0.89045 0.49863 0.09719
 H886 H 1.00304 0.61154 0.12716
 H887 H 0.96085 0.64825 0.16617
 H888 H 0.80208 0.56760 0.16689
 H889 H 0.75583 0.60803 0.19825
 H890 H 0.92474 0.67844 0.20345
 H891 H 0.87514 0.71891 0.22746
 H892 H 0.74747 0.66096 0.22183
 C893 C 0.63866 0.44418 0.57189
 C894 C 0.61889 0.43281 0.60718
 C895 C 0.57688 0.44773 0.62264
 C896 C 0.55099 0.46941 0.59950
 C897 C 0.56570 0.47521 0.56052
 C898 C 0.61227 0.46475 0.54886
 C899 C 0.55950 0.43924 0.65971
 C900 C 0.58183 0.41529 0.68079
 C901 C 0.62064 0.39776 0.66440
 C902 C 0.63843 0.40638 0.62648
 C903 C 0.67217 0.38681 0.60717
 C904 C 0.68793 0.35964 0.62406
 C905 C 0.67267 0.35154 0.66159
 C906 C 0.64066 0.37090 0.68331
 C907 C 0.63050 0.36232 0.72272
 C908 C 0.65186 0.33567 0.73941
 C909 C 0.68217 0.31622 0.71686
 C910 C 0.69028 0.32407 0.67741
 H911 H 0.67386 0.43681 0.56077
 H912 H 0.51688 0.47898 0.61031
 H913 H 0.62763 0.47078 0.52066
 H914 H 0.52772 0.45075 0.67216
 H915 H 0.56591 0.40959 0.70881
 H916 H 0.68483 0.39088 0.57766
 H917 H 0.71280 0.34488 0.60757
 H918 H 0.60776 0.37642 0.74161
 H919 H 0.64483 0.33041 0.76996
 H920 H 0.71332 0.30968 0.65892
 C921 C 0.02859 0.05165 0.37153
 C922 C 0.07702 0.06270 0.37241
 C923 C 0.11049 0.04829 0.39849
 C924 C 0.09346 0.02793 0.42756
 C925 C 0.04358 0.02014 0.42959
 C926 C 0.01277 0.03001 0.39888
 C927 C 0.16025 0.05536 0.39636
 C928 C 0.17720 0.07681 0.36928
 C929 C 0.14436 0.09369 0.34535
 C930 C 0.09324 0.08765 0.34855
 C931 C 0.05988 0.10816 0.33030
 C932 C 0.07620 0.13416 0.31031
 C933 C 0.12626 0.13941 0.30528
 C934 C 0.16073 0.11796 0.32045
 C935 C 0.21022 0.12152 0.30980
 C936 C 0.22533 0.14707 0.28836
 C937 C 0.19251 0.17107 0.27893
 C938 C 0.14235 0.16622 0.28591
 H939 H 0.00232 0.05941 0.34989
 H940 H 0.11876 0.01942 0.44963
 H941 H -0.02498 0.02280 0.39738
 H942 H 0.18634 0.04426 0.41585
 H943 H 0.21599 0.08150 0.36973
 H944 H 0.02074 0.10578 0.33352
 H945 H 0.04938 0.15020 0.29852
 H946 H 0.23771 0.10438 0.31689
 H947 H 0.26340 0.14807 0.28000
 H948 H 0.11572 0.18342 0.27680
 C949 C 0.51226 0.91180 0.89188
 C950 C 0.47103 0.91851 0.86878
 C951 C 0.44557 0.94661 0.87594
 C952 C 0.46407 0.96834 0.90349
 C953 C 0.50537 0.96105 0.92667
 C954 C 0.52724 0.93182 0.92109
 C955 C 0.40039 0.95160 0.85744
 C956 C 0.37857 0.92827 0.83492
 C957 C 0.40272 0.89972 0.82814
 C958 C 0.45158 0.89629 0.84222
 C959 C 0.47913 0.87018 0.83050
 C960 C 0.45735 0.84579 0.81094
 C961 C 0.40751 0.84664 0.80223
 C962 C 0.37972 0.87395 0.80916
 C963 C 0.32958 0.87350 0.79880
 C964 C 0.30776 0.84652 0.78453
 C965 C 0.33477 0.81892 0.78037
 C966 C 0.38524 0.81981 0.78780
 H967 H 0.53081 0.88973 0.89086
 H968 H 0.44435 0.98974 0.90886
 H969 H 0.55475 0.92288 0.94078
 H970 H 0.38039 0.97297 0.86231
 H971 H 0.34271 0.93320 0.82311
 H972 H 0.51790 0.86804 0.83633
 H973 H 0.47936 0.82557 0.80400
 H974 H 0.30586 0.89324 0.80289
 H975 H 0.26896 0.84721 0.77817
 H976 H 0.40747 0.79924 0.78381
 C977 C 0.05363 0.89464 0.59106
 C978 C 0.10049 0.90024 0.60700
 C979 C 0.12628 0.92657 0.59418
 C980 C 0.10317 0.94822 0.56980
 C981 C 0.05510 0.94341 0.55664
 C982 C 0.03164 0.91574 0.56603
 C983 C 0.17471 0.93111 0.60598
 C984 C 0.19847 0.90955 0.62957
 C985 C 0.17353 0.88349 0.64393
 C986 C 0.12285 0.88005 0.63448
 C987 C 0.09554 0.85715 0.65367
 C988 C 0.11783 0.83659 0.67897
 C989 C 0.16820 0.83758 0.68522
 C990 C 0.19707 0.86084 0.66782
 C991 C 0.24839 0.85958 0.67383
 C992 C 0.26973 0.83588 0.69587
 C993 C 0.24058 0.81331 0.71349
 C994 C 0.18976 0.81470 0.70810
 H995 H 0.03344 0.87382 0.59677
 H996 H 0.12261 0.96888 0.56146
 H997 H -0.00483 0.91068 0.55532
 H998 H 0.19471 0.95123 0.59632
 H999 H 0.23594 0.91447 0.63733
 H1000 H 0.05635 0.85517 0.65058
 H1001 H 0.09552 0.81921 0.69301
 H1002 H 0.27311 0.87571 0.66042
 H1003 H 0.30924 0.83503 0.69863
 H1004 H 0.16635 0.79711 0.72019
 C1005 C 0.63055 0.55426 0.39882
 C1006 C 0.60915 0.58065 0.38130
 C1007 C 0.55817 0.58537 0.38678
 C1008 C 0.53111 0.56589 0.41103
 C1009 C 0.55264 0.54011 0.42882
 C1010 C 0.60276 0.53447 0.42212
 C1011 C 0.53430 0.61002 0.36886
 C1012 C 0.55987 0.63040 0.34560
 C1013 C 0.61100 0.62742 0.34008
 C1014 C 0.63640 0.60274 0.35916
 C1015 C 0.68814 0.60187 0.35684
 C1016 C 0.71414 0.62472 0.33721
 C1017 C 0.68968 0.64861 0.31783
 C1018 C 0.63772 0.64935 0.31765
 C1019 C 0.61429 0.67236 0.29533
 C1020 C 0.64089 0.69523 0.27707
 C1021 C 0.69235 0.69598 0.27898
 C1022 C 0.71661 0.67211 0.29914
 H1023 H 0.66857 0.54817 0.39487
 H1024 H 0.49345 0.57178 0.41695
 H1025 H 0.62109 0.51486 0.43532
 H1026 H 0.49527 0.61370 0.37295
 H1027 H 0.53852 0.64920 0.33386
 H1028 H 0.70982 0.58447 0.37140
 H1029 H 0.75383 0.62367 0.33727
 H1030 H 0.57519 0.67346 0.29119
 H1031 H 0.61982 0.71287 0.26234
 H1032 H 0.75626 0.67209 0.30091
 C1033 C 0.45731 0.09536 0.07484
 C1034 C 0.41247 0.08878 0.09273
 C1035 C 0.38862 0.06104 0.08218
 C1036 C 0.41312 0.03878 0.05841
 C1037 C 0.46202 0.04354 0.04665
 C1038 C 0.48142 0.07338 0.05282
 C1039 C 0.34094 0.05601 0.09572
 C1040 C 0.31720 0.07787 0.11966
 C1041 C 0.34118 0.10509 0.13226
 C1042 C 0.39042 0.10970 0.11970
 C1043 C 0.41716 0.13469 0.13527
 C1044 C 0.39513 0.15658 0.15881
 C1045 C 0.34605 0.15402 0.16880
 C1046 C 0.31832 0.12802 0.15689
 C1047 C 0.26890 0.12679 0.16951
 C1048 C 0.24837 0.15072 0.19234
 C1049 C 0.27636 0.17649 0.20334
 C1050 C 0.32496 0.17781 0.19069
 H1051 H 0.47502 0.11747 0.07728
 H1052 H 0.39395 0.01832 0.04902
 H1053 H 0.51714 0.08019 0.04259
 H1054 H 0.32174 0.03510 0.08761
 H1055 H 0.28034 0.07256 0.12859
 H1056 H 0.45586 0.13769 0.13042
 H1057 H 0.41690 0.17582 0.16929
 H1058 H 0.24509 0.10798 0.16162
 H1059 H 0.21019 0.14928 0.20064
 H1060 H 0.34696 0.19795 0.19681
 C1061 C 0.89978 0.44924 0.88504
 C1062 C 0.86992 0.42521 0.89803
 C1063 C 0.85536 0.42501 0.93791
 C1064 C 0.87920 0.44448 0.96538
 C1065 C 0.91446 0.46580 0.95251
 C1066 C 0.92049 0.46953 0.91166
 C1067 C 0.81834 0.40480 0.94956
 C1068 C 0.79632 0.38490 0.92222
 C1069 C 0.81428 0.38242 0.88334
 C1070 C 0.85418 0.40145 0.87234
 C1071 C 0.87985 0.39478 0.83735
 C1072 C 0.86624 0.37031 0.81345
 C1073 C 0.82428 0.35345 0.82184
 C1074 C 0.79601 0.36042 0.85565
 C1075 C 0.75072 0.34526 0.85997
 C1076 C 0.73495 0.32361 0.83197
 C1077 C 0.76498 0.31515 0.80001
 C1078 C 0.81064 0.32949 0.79656
 H1079 H 0.90776 0.45265 0.85426
 H1080 H 0.87155 0.44228 0.99647
 H1081 H 0.94519 0.48647 0.89979
 H1082 H 0.80590 0.40464 0.97979
 H1083 H 0.76774 0.36999 0.93285
 H1084 H 0.91281 0.40689 0.82932
 H1085 H 0.88799 0.36511 0.78758
 H1086 H 0.72628 0.35057 0.88405
 H1087 H 0.69979 0.31275 0.83632
 H1088 H 0.83606 0.32219 0.77393
 C1089 C 0.65357 0.06226 0.91117
 C1090 C 0.62302 0.08319 0.89090
 C1091 C 0.57331 0.07513 0.88538
 C1092 C 0.55356 0.04966 0.90542
 C1093 C 0.58318 0.03171 0.93049
 C1094 C 0.63393 0.03708 0.93063
 C1095 C 0.54340 0.09349 0.86153
 C1096 C 0.56176 0.11990 0.84358
 C1097 C 0.61009 0.12999 0.85087
 C1098 C 0.64027 0.11195 0.87645
 C1099 C 0.68562 0.12402 0.88886
 C1100 C 0.70239 0.15199 0.87495
 C1101 C 0.67587 0.16823 0.84672
 C1102 C 0.62938 0.15765 0.83407
 C1103 C 0.60513 0.17481 0.80438
 C1104 C 0.62836 0.19956 0.78582
 C1105 C 0.67640 0.20781 0.79616
 C1106 C 0.69726 0.19411 0.82952
 H1107 H 0.69275 0.06513 0.91305
 H1108 H 0.51456 0.04530 0.90367
 H1109 H 0.65854 0.02305 0.94812
 H1110 H 0.50539 0.08741 0.85672
 H1111 H 0.53645 0.13284 0.82562
 H1112 H 0.70835 0.11274 0.91051
 H1113 H 0.73767 0.16024 0.88508
 H1114 H 0.56959 0.16850 0.79320
 H1115 H 0.61000 0.21069 0.76141
 H1116 H 0.73300 0.20143 0.83975
 C1117 C 0.43413 0.55178 0.63062
 C1118 C 0.44649 0.58343 0.62774
 C1119 C 0.48055 0.59186 0.59849
 C1120 C 0.49960 0.56957 0.57258
 C1121 C 0.48254 0.53892 0.57281
 C1122 C 0.45140 0.53014 0.60331
 C1123 C 0.49314 0.62280 0.59352
 C1124 C 0.46996 0.64597 0.61506
 C1125 C 0.43397 0.63898 0.64325
 C1126 C 0.42430 0.60710 0.65133
 C1127 C 0.39194 0.59995 0.68214
 C1128 C 0.36764 0.62294 0.70280
 C1129 C 0.37403 0.65393 0.69337
 C1130 C 0.40712 0.66268 0.66366
 C1131 C 0.41071 0.69469 0.65518
 C1132 C 0.38258 0.71677 0.67571
 C1133 C 0.35021 0.70776 0.70537
 C1134 C 0.34689 0.67612 0.71378
 H1135 H 0.40874 0.54316 0.65204
 H1136 H 0.52443 0.57702 0.54973
 H1137 H 0.43826 0.50685 0.60538
 H1138 H 0.51980 0.62931 0.57153
 H1139 H 0.48105 0.66929 0.60896
 H1140 H 0.38475 0.57668 0.69135
 H1141 H 0.34273 0.61630 0.72604
 H1142 H 0.43415 0.70336 0.63236
 H1143 H 0.38626 0.74091 0.66826
 H1144 H 0.32298 0.66814 0.73667
 C1145 C 0.10996 0.43037 0.09803
 C1146 C 0.08315 0.40559 0.11353
 C1147 C 0.03167 0.40912 0.11642
 C1148 C 0.00772 0.43463 0.09828
 C1149 C 0.03492 0.45765 0.07889
 C1150 C 0.08640 0.45572 0.08135
 C1151 C 0.00480 0.38656 0.13623
 C1152 C 0.02807 0.36078 0.15294
 C1153 C 0.07886 0.35537 0.14801
 C1154 C 0.10608 0.37748 0.12609
 C1155 C 0.15473 0.37013 0.11539
 C1156 C 0.17672 0.34263 0.12687
 C1157 C 0.15226 0.32209 0.15128
 C1158 C 0.10344 0.32836 0.16315
 C1159 C 0.08222 0.30773 0.19043
 C1160 C 0.10975 0.28334 0.20692
 C1161 C 0.15868 0.27787 0.19564
 C1162 C 0.17756 0.29598 0.16520
 H1163 H 0.14948 0.43067 0.09819
 H1164 H -0.03194 0.43565 0.09759
 H1165 H 0.10939 0.47287 0.06778
 H1166 H -0.03457 0.38897 0.13914
 H1167 H 0.00499 0.34449 0.16789
 H1168 H 0.17610 0.38472 0.09649
 H1169 H 0.21406 0.33795 0.11764
 H1170 H 0.04559 0.31121 0.20153
 H1171 H 0.09340 0.26982 0.23007
 H1172 H 0.21362 0.29110 0.15387
 C1173 C 0.95297 0.93426 0.37471
 C1174 C 0.90585 0.92148 0.38041
 C1175 C 0.87703 0.93379 0.41140
 C1176 C 0.89568 0.95688 0.43630
 C1177 C 0.94425 0.96719 0.43270
 C1178 C 0.97189 0.95632 0.40072
 C1179 C 0.83069 0.92180 0.41896
 C1180 C 0.81347 0.89637 0.39824
 C1181 C 0.84181 0.88210 0.36857
 C1182 C 0.88738 0.89596 0.35789
 C1183 C 0.91312 0.88359 0.32542
 C1184 C 0.89573 0.85813 0.30479
 C1185 C 0.85276 0.84342 0.31619
 C1186 C 0.82568 0.85471 0.34874
 C1187 C 0.78405 0.83771 0.36045
 C1188 C 0.76795 0.81222 0.33870
 C1189 C 0.79232 0.80294 0.30431
 C1190 C 0.83619 0.81781 0.29457
 H1191 H 0.97750 0.92630 0.35203
 H1192 H 0.87340 0.96468 0.46076
 H1193 H 1.00967 0.96319 0.39719
 H1194 H 0.80805 0.93154 0.44211
 H1195 H 0.77736 0.88854 0.40593
 H1196 H 0.94657 0.89347 0.31461
 H1197 H 0.91642 0.84973 0.27970
 H1198 H 0.76300 0.84357 0.38622
 H1199 H 0.73466 0.80084 0.34780
 H1200 H 0.85699 0.81012 0.26929
 C1201 C 0.96584 0.58846 0.60796
 C1202 C 0.92256 0.60268 0.59503
 C1203 C 0.90338 0.59440 0.55786
 C1204 C 0.93091 0.57499 0.53256
 C1205 C 0.97515 0.56150 0.54575
 C1206 C 0.99016 0.56767 0.58451
 C1207 C 0.85597 0.60418 0.54776
 C1208 C 0.82708 0.62076 0.57472
 C1209 C 0.84622 0.63008 0.61154
 C1210 C 0.89615 0.62282 0.61994
 C1211 C 0.91907 0.63606 0.65294
 C1212 C 0.89290 0.65345 0.67935
 C1213 C 0.84311 0.65855 0.67366
 C1214 C 0.81842 0.64710 0.64008
 C1215 C 0.76755 0.65362 0.63684
 C1216 C 0.74358 0.67239 0.66491
 C1217 C 0.76966 0.68492 0.69682
 C1218 C 0.81917 0.67701 0.70074
 H1219 H 0.97934 0.59066 0.63769
 H1220 H 0.91621 0.56868 0.50404
 H1221 H 1.01929 0.55504 0.59866
 H1222 H 0.84034 0.59781 0.51959
 H1223 H 0.79032 0.62674 0.56570
 H1224 H 0.95797 0.63425 0.65832
 H1225 H 0.91206 0.66317 0.70445
 H1226 H 0.74588 0.64500 0.61266
 H1227 H 0.70545 0.67846 0.66038
 H1228 H 0.84161 0.68758 0.72309
 C1229 C 0.62795 0.40458 0.04404
 C1230 C 0.61668 0.39789 0.08382
 C1231 C 0.57201 0.40953 0.09892
 C1232 C 0.54224 0.42817 0.07647
 C1233 C 0.55322 0.43549 0.03745
 C1234 C 0.59640 0.42316 0.02113
 C1235 C 0.55749 0.40395 0.13734
 C1236 C 0.58539 0.38550 0.16112
 C1237 C 0.62908 0.37212 0.14724
 C1238 C 0.64738 0.38027 0.10950
 C1239 C 0.69569 0.37113 0.09982
 C1240 C 0.72425 0.35399 0.12629
 C1241 C 0.70404 0.34328 0.16150
 C1242 C 0.65510 0.35107 0.17080
 C1243 C 0.63186 0.33566 0.20162
 C1244 C 0.65690 0.31439 0.22371
 C1245 C 0.70730 0.30914 0.21849
 C1246 C 0.73080 0.32355 0.18661
 H1247 H 0.66082 0.39586 0.03019
 H1248 H 0.51143 0.43865 0.09133
 H1249 H 0.60686 0.42894 -0.00860
 H1250 H 0.52391 0.41378 0.14916
 H1251 H 0.57284 0.38289 0.19101
 H1252 H 0.71263 0.37785 0.07256
 H1253 H 0.76152 0.34792 0.11835
 H1254 H 0.59300 0.33763 0.20714
 H1255 H 0.63533 0.30130 0.24424
 H1256 H 0.76855 0.31787 0.17975
 C1257 C 0.40395 0.94177 0.38114
 C1258 C 0.37426 0.91719 0.39255
 C1259 C 0.36170 0.91435 0.43267
 C1260 C 0.38648 0.93235 0.46130
 C1261 C 0.42067 0.95472 0.44945
 C1262 C 0.42580 0.96038 0.40886
 C1263 C 0.32495 0.89349 0.44315
 C1264 C 0.30127 0.87560 0.41437
 C1265 C 0.31707 0.87588 0.37479
 C1266 C 0.35656 0.89563 0.36476
 C1267 C 0.38007 0.89187 0.32820
 C1268 C 0.36493 0.86964 0.30186
 C1269 C 0.32396 0.85183 0.30988
 C1270 C 0.29755 0.85575 0.34529
 C1271 C 0.25361 0.83892 0.34952
 C1272 C 0.23838 0.81797 0.32024
 C1273 C 0.26767 0.81215 0.28693
 C1274 C 0.31094 0.82904 0.28307
 H1275 H 0.41021 0.94738 0.35066
 H1276 H 0.37942 0.92889 0.49229
 H1277 H 0.44936 0.97820 0.39753
 H1278 H 0.31391 0.89136 0.47358
 H1279 H 0.27298 0.86013 0.42415
 H1280 H 0.41279 0.90434 0.32048
 H1281 H 0.38528 0.86655 0.27475
 H1282 H 0.23044 0.84183 0.37499
 H1283 H 0.20518 0.80497 0.32497
 H1284 H 0.33709 0.82351 0.26041
 C1285 C 0.03908 0.11747 0.94179
 C1286 C 0.08180 0.11305 0.91902
 C1287 C 0.11009 0.08613 0.92570
 C1288 C 0.09193 0.06257 0.94942
 C1289 C 0.04546 0.06521 0.96682
 C1290 C 0.02124 0.09385 0.96532
 C1291 C 0.15487 0.08197 0.90673
 C1292 C 0.17158 0.10364 0.88015
 C1293 C 0.14295 0.12975 0.87035
 C1294 C 0.09656 0.13393 0.88917
 C1295 C 0.06501 0.15756 0.87578
 C1296 C 0.07889 0.17709 0.84574
 C1297 C 0.12530 0.17460 0.82898
 C1298 C 0.15842 0.15135 0.84148
 C1299 C 0.20619 0.15135 0.82546
 C1300 C 0.22031 0.17376 0.79859
 C1301 C 0.18698 0.19619 0.78541
 C1302 C 0.13924 0.19608 0.80068
 H1303 H 0.01782 0.13853 0.94099
 H1304 H 0.11263 0.04122 0.95154
 H1305 H -0.01404 0.09734 0.97884
 H1306 H 0.17687 0.06147 0.91197
 H1307 H 0.20597 0.09835 0.86608
 H1308 H 0.02833 0.16071 0.88687
 H1309 H 0.05328 0.19472 0.83605
 H1310 H 0.23443 0.13552 0.83485
 H1311 H 0.25831 0.17426 0.78977
 H1312 H 0.11326 0.21391 0.79238
 C1313 C 0.12802 0.93187 0.06367
 C1314 C 0.10464 0.91446 0.09294
 C1315 C 0.05795 0.92432 0.10603
 C1316 C 0.03240 0.94742 0.08525
 C1317 C 0.05352 0.96124 0.05198
 C1318 C 0.10315 0.95539 0.04437
 C1319 C 0.03698 0.91040 0.13893
 C1320 C 0.06193 0.88707 0.15911
 C1321 C 0.10703 0.87527 0.14510
 C1322 C 0.12672 0.88794 0.10992
 C1323 C 0.16615 0.87272 0.09130
 C1324 C 0.18691 0.84643 0.10736
 C1325 C 0.17136 0.83565 0.14375
 C1326 C 0.13251 0.85051 0.16402
 C1327 C 0.12218 0.84062 0.20273
 C1328 C 0.15043 0.81738 0.22062
 C1329 C 0.18803 0.80235 0.19977
 C1330 C 0.19600 0.81065 0.16047
 H1331 H 0.16592 0.92807 0.05580
 H1332 H -0.00464 0.95348 0.09388
 H1333 H 0.12307 0.96861 0.02297
 H1334 H 0.00126 0.91778 0.14935
 H1335 H 0.04384 0.87733 0.18432
 H1336 H 0.17994 0.87982 0.06305
 H1337 H 0.21662 0.83508 0.09175
 H1338 H 0.09438 0.85169 0.22049
 H1339 H 0.14312 0.81149 0.25092
 H1340 H 0.22468 0.79940 0.14359
 C1341 C 0.93176 0.45021 0.38121
 C1342 C 0.90345 0.42513 0.39426
 C1343 C 0.89620 0.42239 0.43542
 C1344 C 0.91986 0.44223 0.46203
 C1345 C 0.95284 0.46437 0.44877
 C1346 C 0.95540 0.46959 0.40800
 C1347 C 0.86643 0.39929 0.45009
 C1348 C 0.84456 0.37821 0.42503
 C1349 C 0.85193 0.37911 0.38386
 C1350 C 0.88216 0.40279 0.36815
 C1351 C 0.89136 0.40261 0.32719
 C1352 C 0.87194 0.37994 0.30246
 C1353 C 0.84210 0.35671 0.31728
 C1354 C 0.83111 0.35650 0.35813
 C1355 C 0.79982 0.33339 0.37190
 C1356 C 0.78241 0.31070 0.34710
 C1357 C 0.79371 0.30990 0.30664
 C1358 C 0.82347 0.33348 0.29180
 H1359 H 0.93665 0.45539 0.35053
 H1360 H 0.91303 0.43989 0.49312
 H1361 H 0.97727 0.48814 0.39629
 H1362 H 0.86062 0.39709 0.48148
 H1363 H 0.82320 0.36088 0.43946
 H1364 H 0.91470 0.41931 0.31338
 H1365 H 0.88066 0.38053 0.27141
 H1366 H 0.78744 0.33196 0.40181
 H1367 H 0.75874 0.29387 0.36055
 H1368 H 0.83243 0.33362 0.26078
 C1369 C 0.35871 0.04682 0.61427
 C1370 C 0.37658 0.07644 0.62493
 C1371 C 0.42273 0.08494 0.60976
 C1372 C 0.44752 0.06586 0.58311
 C1373 C 0.42952 0.03681 0.57189
 C1374 C 0.38496 0.02736 0.58842
 C1375 C 0.44371 0.11306 0.61998
 C1376 C 0.41954 0.13358 0.64450
 C1377 C 0.37240 0.12719 0.65920
 C1378 C 0.35016 0.09831 0.64896
 C1379 C 0.30166 0.09304 0.66161
 C1380 C 0.27533 0.11552 0.68232
 C1381 C 0.29649 0.14385 0.69211
 C1382 C 0.34588 0.14954 0.68201
 C1383 C 0.36644 0.17784 0.69444
 C1384 C 0.33777 0.20078 0.71185
 C1385 C 0.28754 0.19648 0.71849
 C1386 C 0.26809 0.16701 0.71068
 H1387 H 0.32456 0.03808 0.62534
 H1388 H 0.47933 0.07523 0.56902
 H1389 H 0.36941 0.00526 0.58046
 H1390 H 0.47929 0.11947 0.60855
 H1391 H 0.43825 0.15497 0.64993
 H1392 H 0.28233 0.07211 0.65458
 H1393 H 0.23761 0.11087 0.69014
 H1394 H 0.40455 0.18332 0.69071
 H1395 H 0.35540 0.22241 0.71894
 H1396 H 0.23015 0.16233 0.71739
 C1397 C 0.62821 0.57235 0.94208
 C1398 C 0.60869 0.58411 0.90663
 C1399 C 0.56506 0.57076 0.89208
 C1400 C 0.53955 0.54896 0.91464
 C1401 C 0.55715 0.53956 0.95173
 C1402 C 0.60318 0.55022 0.96372
 C1403 C 0.54682 0.57960 0.85539
 C1404 C 0.57128 0.60126 0.83263
 C1405 C 0.61386 0.61608 0.84661
 C1406 C 0.63142 0.60833 0.88502
 C1407 C 0.66967 0.62598 0.90141
 C1408 C 0.69044 0.65017 0.88092
 C1409 C 0.67551 0.65693 0.84270
 C1410 C 0.63841 0.63932 0.82428
 C1411 C 0.62789 0.64569 0.78428
 C1412 C 0.65249 0.66911 0.76405
 C1413 C 0.68743 0.68748 0.78318
 C1414 C 0.69774 0.68138 0.82290
 H1415 H 0.66347 0.57923 0.95334
 H1416 H 0.50511 0.54007 0.90365
 H1417 H 0.62052 0.54142 0.98984
 H1418 H 0.51339 0.56954 0.84401
 H1419 H 0.55470 0.60704 0.80481
 H1420 H 0.68281 0.62259 0.93099
 H1421 H 0.71895 0.66357 0.89509
 H1422 H 0.60175 0.63239 0.76761
 H1423 H 0.64360 0.67301 0.73344
 H1424 H 0.72445 0.69521 0.83854
 C1425 C 0.46827 0.39570 0.90645
 C1426 C 0.41714 0.38987 0.90603
 C1427 C 0.38784 0.40581 0.93385
 C1428 C 0.40828 0.42785 0.95878
 C1429 C 0.45847 0.43454 0.95780
 C1430 C 0.48846 0.41773 0.93196
 C1431 C 0.33775 0.40046 0.93620
 C1432 C 0.31538 0.37976 0.91108
 C1433 C 0.34234 0.36366 0.88209
 C1434 C 0.39389 0.36921 0.87892
 C1435 C 0.41991 0.35478 0.84799
 C1436 C 0.39644 0.33570 0.82104
 C1437 C 0.34649 0.32960 0.82434
 C1438 C 0.31901 0.34286 0.85546
 C1439 C 0.26929 0.33437 0.85896
 C1440 C 0.24751 0.31477 0.83174
 C1441 C 0.27384 0.30323 0.79948
 C1442 C 0.32390 0.31010 0.79675
 H1443 H 0.49359 0.38374 0.88738
 H1444 H 0.38427 0.44017 0.97885
 H1445 H 0.52745 0.42206 0.93072
 H1446 H 0.31532 0.41272 0.95752
 H1447 H 0.27633 0.37779 0.91438
 H1448 H 0.45840 0.35846 0.84313
 H1449 H 0.41772 0.32553 0.79735
 H1450 H 0.24624 0.34180 0.88288
 H1451 H 0.20950 0.30875 0.83620
 H1452 H 0.34589 0.29982 0.77372
 C1453 C 0.87888 0.09979 0.04343
 C1454 C 0.90373 0.11499 0.07442
 C1455 C 0.95097 0.10400 0.08470
 C1456 C 0.97278 0.07958 0.06349
 C1457 C 0.94744 0.06455 0.03288
 C1458 C 0.90020 0.07493 0.02354
 C1459 C 0.97561 0.11685 0.11681
 C1460 C 0.95348 0.13945 0.14010
 C1461 C 0.90626 0.15097 0.13127
 C1462 C 0.88230 0.13974 0.09657
 C1463 C 0.83772 0.15363 0.08506
 C1464 C 0.81538 0.17607 0.10804
 C1465 C 0.83604 0.18527 0.14367
 C1466 C 0.88183 0.17317 0.15592
 C1467 C 0.90013 0.18314 0.19292
 C1468 C 0.87262 0.20287 0.21730
 C1469 C 0.82618 0.21342 0.20572
 C1470 C 0.80980 0.20576 0.16768
 H1471 H 0.84187 0.10552 0.03501
 H1472 H 1.00906 0.07175 0.07189
 H1473 H 0.87859 0.06332 0.00155
 H1474 H 1.01191 0.10869 0.12475
 H1475 H 0.97464 0.14779 0.16467
 H1476 H 0.81935 0.14794 0.05794
 H1477 H 0.78071 0.18572 0.09827
 H1478 H 0.93469 0.17519 0.20454
 H1479 H 0.88758 0.20933 0.24552
 H1480 H 0.77445 0.21386 0.15740
 C1481 C 0.56866 0.88537 0.53043
 C1482 C 0.55099 0.87511 0.56699
 C1483 C 0.51158 0.89167 0.58416
 C1484 C 0.48892 0.91630 0.56376
 C1485 C 0.50858 0.92754 0.52819
 C1486 C 0.54934 0.91171 0.51261
 C1487 C 0.49746 0.88492 0.62270
 C1488 C 0.52398 0.86374 0.64531
 C1489 C 0.56369 0.84687 0.62924
 C1490 C 0.57424 0.85077 0.58845
 C1491 C 0.60785 0.83032 0.57044
 C1492 C 0.63322 0.80835 0.59219
 C1493 C 0.62792 0.80693 0.63294
 C1494 C 0.59343 0.82627 0.65225
 C1495 C 0.59159 0.82485 0.69382
 C1496 C 0.62447 0.80618 0.71504
 C1497 C 0.66009 0.78809 0.69576
 C1498 C 0.65820 0.78682 0.65448
 H1499 H 0.60091 0.87543 0.51697
 H1500 H 0.45907 0.92870 0.57782
 H1501 H 0.56980 0.92075 0.48839
 H1502 H 0.46728 0.89735 0.63626
 H1503 H 0.51200 0.86047 0.67519
 H1504 H 0.61426 0.83036 0.53914
 H1505 H 0.65890 0.79322 0.57713
 H1506 H 0.56665 0.83897 0.71078
 H1507 H 0.62231 0.80632 0.74680
 H1508 H 0.68187 0.77097 0.63862
 C1509 C 0.14210 0.58721 0.44278
 C1510 C 0.11636 0.60521 0.41529
 C1511 C 0.06573 0.59956 0.40977
 C1512 C 0.04118 0.57837 0.43402
 C1513 C 0.06734 0.56116 0.46208
 C1514 C 0.11831 0.56536 0.46491
 C1515 C 0.04070 0.61434 0.37926
 C1516 C 0.06545 0.63365 0.35339
 C1517 C 0.11569 0.64028 0.35864
 C1518 C 0.14033 0.62744 0.39182
 C1519 C 0.18799 0.63755 0.40112
 C1520 C 0.21225 0.65802 0.37726
 C1521 C 0.19037 0.66871 0.34295
 C1522 C 0.14216 0.65982 0.33260
 C1523 C 0.12305 0.67066 0.29647
 C1524 C 0.15056 0.69013 0.27245
 C1525 C 0.19779 0.69943 0.28370
 C1526 C 0.21670 0.68876 0.31933
 H1527 H 0.18133 0.58817 0.44630
 H1528 H 0.00235 0.57440 0.42984
 H1529 H 0.14069 0.55161 0.48452
 H1530 H 0.00201 0.61018 0.37456
 H1531 H 0.04396 0.64388 0.33018
 H1532 H 0.20692 0.63090 0.42763
 H1533 H 0.24884 0.66524 0.38555
 H1534 H 0.08743 0.66404 0.28573
 H1535 H 0.13456 0.69799 0.24510
 H1536 H 0.25179 0.69658 0.32971
   
