data_POSCAR
  _audit_creation_date              2014-09-24
  _audit_creation_method            'ToBaCCo'
  _symmetry_space_group_name_H-M    'P1'
  _symmetry_Int_Tables_number       1
  _symmetry_cell_setting            triclinic
  loop_
  _symmetry_equiv_pos_as_xyz
 x,y,z
_cell_length_a 57.3729
_cell_length_b 57.3269
_cell_length_c 57.1584
_cell_angle_alpha 89.963500
_cell_angle_beta 90.016300
_cell_angle_gamma 89.990500
loop_
  _atom_site_label
  _atom_site_type_symbol
  _atom_site_fract_x
  _atom_site_fract_y
  _atom_site_fract_z
C1 C 0.35676 1.35720 0.32919
 N2 N 0.33736 1.36707 0.33878
 C3 C 0.32698 1.35737 0.35789
 N4 N 0.33631 1.33770 0.36731
 C5 C 0.35567 1.32774 0.35813
 N6 N 0.36573 1.33755 0.33906
 C7 C 0.35808 0.85765 0.82986
 N8 N 0.36627 0.83769 0.83967
 C9 C 0.35576 0.82826 0.85872
 N10 N 0.33670 0.83894 0.86790
 C11 C 0.32828 0.85903 0.85842
 N12 N 0.33914 0.86827 0.83937
 C13 C 0.85837 1.36089 0.83030
 N14 N 0.83886 1.36993 0.84018
 C15 C 0.82912 1.36021 0.85954
 N16 N 0.83924 1.34092 0.86908
 C17 C 0.85896 1.33172 0.85956
 N18 N 0.86837 1.34182 0.84022
 C19 C 0.86026 0.86139 0.32994
 N20 N 0.86931 0.84144 0.33903
 C21 C 0.85963 0.83119 0.35816
 N22 N 0.84048 0.84101 0.36818
 C23 C 0.83126 0.86103 0.35936
 N24 N 0.84131 0.87107 0.34034
 C25 C 0.63896 0.63844 0.33317
 N26 N 0.65857 0.62897 0.34246
 C27 C 0.66961 0.63923 0.36074
 N28 N 0.66084 0.65928 0.36977
 C29 C 0.64122 0.66906 0.36071
 N30 N 0.63039 0.65858 0.34232
 C31 C 0.64184 0.14114 0.82931
 N32 N 0.63209 0.16044 0.83901
 C33 C 0.64186 0.17085 0.85800
 N34 N 0.66179 0.16182 0.86728
 C35 C 0.67186 0.14253 0.85774
 N36 N 0.66166 0.13239 0.83885
 C37 C 1.14194 0.64146 0.83147
 N38 N 1.16146 0.63272 0.84164
 C39 C 1.17026 0.64235 0.86145
 N40 N 1.15940 0.66113 0.87103
 C41 C 1.13986 0.67015 0.86103
 N42 N 1.13122 0.66018 0.84127
 C43 C 1.14352 0.14306 0.32943
 N44 N 1.16232 0.13264 0.33961
 C45 C 1.17182 0.14144 0.35959
 N46 N 1.16228 0.16088 0.36925
 C47 C 1.14364 0.17155 0.35933
 N48 N 1.13439 0.16255 0.33945
 C49 C 0.64439 1.35621 0.67058
 N50 N 0.66327 1.36648 0.66050
 C51 C 0.67265 1.35765 0.64047
 N52 N 0.66291 1.33832 0.63076
 C53 C 0.64415 1.32782 0.64067
 N54 N 0.63501 1.33688 0.66056
 C55 C 0.64344 0.85731 1.16993
 N56 N 0.66202 0.86786 1.15952
 C57 C 0.67152 0.85888 1.13966
 N58 N 0.66232 0.83916 1.13029
 C59 C 0.64382 0.82841 1.14041
 N60 N 0.63452 0.83758 1.16019
 C61 C 1.14127 1.35902 1.16994
 N62 N 1.16055 1.36918 1.16057
 C63 C 1.17092 1.36023 1.14113
 N64 N 1.16169 1.34084 1.13107
 C65 C 1.14245 1.33043 1.14017
 N66 N 1.13241 1.33959 1.15960
 C67 C 1.14316 0.85785 0.66934
 N68 N 1.16248 0.86726 0.65927
 C69 C 1.17119 0.85831 0.63898
 N70 N 1.16032 0.83972 0.62895
 C71 C 1.14105 0.83017 0.63885
 N72 N 1.13263 0.83935 0.65899
 C73 C 0.35832 0.64187 0.66940
 N74 N 0.36739 0.66137 0.65935
 C75 C 0.35723 0.67105 0.64025
 N76 N 0.33775 0.66111 0.63129
 C77 C 0.32835 0.64162 0.64097
 N78 N 0.33879 0.63204 0.66011
 C79 C 0.35972 0.14021 1.16899
 N80 N 0.36783 0.16022 1.15913
 C81 C 0.35723 0.16968 1.14014
 N82 N 0.33816 0.15902 1.13103
 C83 C 0.32978 0.13893 1.14047
 N84 N 0.34074 0.12962 1.15944
 C85 C 0.85780 0.64334 1.17049
 N86 N 0.86693 0.66275 1.16032
 C87 C 0.85677 0.67238 1.14117
 N88 N 0.83723 0.66247 1.13229
 C89 C 0.82785 0.64306 1.14213
 N90 N 0.83822 0.63355 1.16129
 C91 C 0.85834 0.13988 0.66998
 N92 N 0.86625 0.16050 0.66124
 C93 C 0.85548 0.17081 0.64273
 N94 N 0.83648 0.16042 0.63308
 C95 C 0.82834 0.13978 0.64149
 N96 N 0.83949 0.12966 0.65985
 C97 C 1.35798 0.35584 0.67143
 N98 N 1.36704 0.33618 0.66160
 C99 C 1.35691 0.32619 0.64260
 N100 N 1.33745 0.33610 0.63350
 C101 C 1.32813 0.35572 0.64288
 N102 N 1.33849 0.36555 0.66188
 C103 C 1.35996 0.85837 1.16775
 N104 N 1.36915 0.83885 1.15787
 C105 C 1.35896 0.82877 1.13897
 N106 N 1.33932 0.83850 1.13002
 C107 C 1.32989 0.85803 1.13953
 N108 N 1.34028 0.86790 1.15848
 C109 C 0.85882 0.35873 1.17075
 N110 N 0.83934 0.36840 1.16111
 C111 C 0.82920 0.35863 1.14196
 N112 N 0.83870 0.33912 1.13252
 C113 C 0.85811 0.32931 1.14177
 N114 N 0.86803 0.33916 1.16090
 C115 C 0.85969 0.86117 0.66871
 N116 N 0.84018 0.87036 0.65876
 C117 C 0.82966 0.85952 0.64048
 N118 N 0.83885 0.83937 0.63219
 C119 C 0.85832 0.82995 0.64179
 N120 N 0.86866 0.84090 0.66015
 C121 C 0.64018 0.63989 0.66898
 N122 N 0.63152 0.65987 0.65950
 C123 C 0.64228 0.67008 0.64090
 N124 N 0.66189 0.66019 0.63196
 C125 C 0.67074 0.64031 0.64130
 N126 N 0.65978 0.63032 0.65978
 C127 C 0.64253 1.14225 1.17050
 N128 N 0.63276 1.16129 1.16014
 C129 C 0.64269 1.17110 1.14082
 N130 N 0.66251 1.16152 1.13190
 C131 C 0.67236 1.14250 1.14198
 N132 N 0.66230 1.13311 1.16123
 C133 C 0.14152 0.64254 1.17085
 N134 N 0.16098 0.63287 1.16143
 C135 C 0.17193 0.64281 1.14293
 N136 N 0.16316 0.66276 1.13366
 C137 C 0.14362 0.67280 1.14267
 N138 N 0.13293 0.66258 1.16136
 C139 C 0.13980 1.14043 0.66782
 N140 N 0.13117 1.16041 0.65833
 C141 C 0.14204 1.17079 0.63986
 N142 N 0.16177 1.16091 0.63106
 C143 C 0.17056 1.14099 0.64040
 N144 N 0.15948 1.13092 0.65875
 C145 C 1.35859 0.64027 0.32983
 N146 N 1.36742 0.66070 0.33820
 C147 C 1.35728 0.67159 0.35671
 N148 N 1.33812 0.66197 0.36670
 C149 C 1.32907 0.64166 0.35867
 N150 N 1.33942 0.63088 0.34026
 C151 C 1.35827 1.14125 0.82894
 N152 N 1.36768 1.16141 0.83724
 C153 C 1.35876 1.17212 0.85648
 N154 N 1.33995 1.16252 0.86728
 C155 C 1.33018 1.14252 0.85918
 N156 N 1.33950 1.13195 0.84008
 C157 C 0.85814 0.64162 0.83041
 N158 N 0.83873 0.63234 0.84043
 C159 C 0.82821 0.64315 0.85874
 N160 N 0.83730 0.66338 0.86696
 C161 C 0.85668 0.67289 0.85728
 N162 N 0.86703 0.66195 0.83891
 C163 C 0.85709 1.14314 0.32862
 N164 N 0.86699 1.16251 0.33827
 C165 C 0.85725 1.17294 0.35732
 N166 N 0.83753 1.16370 0.36663
 C167 C 0.82751 1.14439 0.35740
 N168 N 0.83734 1.13425 0.33838
 C169 C 0.64027 0.35897 0.33200
 N170 N 0.63164 0.33908 0.34164
 C171 C 0.64256 0.32875 0.36011
 N172 N 0.66237 0.33861 0.36877
 C173 C 0.67118 0.35845 0.35928
 N174 N 0.66002 0.36847 0.34092
 C175 C 0.64108 0.85659 0.83003
 N176 N 0.66099 0.86592 0.83874
 C177 C 0.67113 0.85698 0.85830
 N178 N 0.66110 0.83837 0.86919
 C179 C 0.64106 0.82890 0.86065
 N180 N 0.63128 0.83811 0.84109
 C181 C 0.14014 0.36003 0.83127
 N182 N 0.15943 0.36924 0.84153
 C183 C 0.16904 0.35915 0.86076
 N184 N 0.15914 0.33959 0.86979
 C185 C 0.13979 0.33011 0.85987
 N186 N 0.13046 0.34048 0.84061
 C187 C 0.13986 0.85850 0.33000
 N188 N 0.15971 0.86786 0.33891
 C189 C 0.16994 0.85871 0.35831
 N190 N 0.16006 0.83991 0.36896
 C191 C 0.14009 0.83042 0.36033
 N192 N 0.13024 0.83978 0.34088
 O193 O 1.08462 1.02306 1.11772
 O194 O 1.11191 1.02290 1.14489
 C195 C 1.09298 1.03102 1.13669
 C196 C 1.08085 1.05034 1.14888
 C197 C 1.08950 1.05930 1.17008
 H198 H 1.10497 1.05171 1.17781
 O199 O 0.91686 0.97758 1.11602
 O200 O 0.88957 0.97742 1.14318
 C201 C 0.90855 0.96949 1.13495
 C202 C 0.92090 0.95037 1.14722
 C203 C 0.91343 0.94274 1.16933
 H204 H 0.89857 0.95107 1.17749
 O205 O 1.02350 1.11642 1.08581
 O206 O 1.02353 1.14377 1.11292
 C207 C 1.03153 1.13539 1.09397
 C208 C 1.05074 1.14741 1.08150
 C209 C 1.05952 1.16884 1.08963
 H210 H 1.05192 1.17688 1.10497
 O211 O 0.97786 0.88412 1.08355
 O212 O 0.97758 0.85671 1.11064
 C213 C 0.96971 0.86516 1.09165
 C214 C 0.95047 0.85326 1.07914
 C215 C 0.94152 0.83195 1.08740
 H216 H 0.94908 0.82392 1.10279
 O217 O 1.11653 1.08429 1.02318
 O218 O 1.14384 1.11135 1.02334
 C219 C 1.13556 1.09233 1.03118
 C220 C 1.14780 1.07968 1.05020
 C221 C 1.17001 1.08680 1.05777
 H222 H 1.17874 1.10098 1.04884
 O223 O 0.88461 0.91713 1.02172
 O224 O 0.85735 0.89002 1.02166
 C225 C 0.86563 0.90896 1.02968
 C226 C 0.85338 0.92138 1.04880
 C227 C 0.83132 0.91395 1.05643
 H228 H 0.82308 0.89917 1.04803
 O229 O 0.97783 1.08470 1.11765
 O230 O 0.97767 1.11186 1.14495
 C231 C 0.96971 1.09293 1.13660
 C232 C 0.95041 1.08058 1.14860
 C233 C 0.94149 1.08885 1.16996
 H234 H 0.94905 1.10423 1.17790
 O235 O 1.02314 0.91592 1.11596
 O236 O 1.02297 0.88860 1.14315
 C237 C 1.03093 0.90766 1.13504
 C238 C 1.04990 0.91996 1.14755
 C239 C 1.05791 0.91171 1.16921
 H240 H 1.04912 0.89712 1.17740
 O241 O 1.11607 0.97758 1.08520
 O242 O 1.14343 0.97722 1.11231
 C243 C 1.13504 0.96944 1.09327
 C244 C 1.14711 0.95037 1.08065
 C245 C 1.16848 0.94159 1.08886
 H246 H 1.17640 0.94910 1.10432
 O247 O 0.88543 1.02352 1.08403
 O248 O 0.85803 1.02338 1.11108
 C249 C 0.86643 1.03147 1.09216
 C250 C 0.85434 1.05077 1.07989
 C251 C 0.83299 1.05924 1.08832
 H252 H 0.82477 1.05074 1.10310
 O253 O 0.91724 1.11690 1.02252
 O254 O 0.89019 1.14423 1.02288
 C255 C 0.90913 1.13580 1.03075
 C256 C 0.92138 1.14774 1.05017
 C257 C 0.91305 1.16911 1.05867
 H258 H 0.89846 1.17748 1.05004
 O259 O 1.08453 0.88460 1.02225
 O260 O 1.11175 0.85743 1.02203
 C261 C 1.09282 0.86560 1.03015
 C262 C 1.08073 0.85329 1.04950
 C263 C 1.08937 0.83203 1.05809
 H264 H 1.10414 0.82394 1.04954
 O265 O 0.91678 1.02315 1.11670
 O266 O 0.88945 1.02296 1.14382
 C267 C 0.90846 1.03098 1.13575
 C268 C 0.92061 1.05012 1.14821
 C269 C 0.91215 1.05842 1.16969
 H270 H 0.89749 1.04974 1.17785
 O271 O 1.08427 0.97749 1.11727
 O272 O 1.11147 0.97717 1.14453
 C273 C 1.09251 0.96928 1.13618
 C274 C 1.08016 0.94995 1.14813
 C275 C 1.08823 0.94115 1.16963
 H276 H 1.10347 0.94883 1.17771
 O277 O 1.02343 0.88387 1.08407
 O278 O 1.02328 0.85643 1.11111
 C279 C 1.03143 0.86487 1.09225
 C280 C 1.05084 0.85294 1.07998
 C281 C 1.05993 0.83179 1.08851
 H282 H 1.05240 0.82393 1.10399
 O283 O 0.97805 1.11635 1.08536
 O284 O 0.97795 1.14367 1.11250
 C285 C 0.97006 1.13536 1.09347
 C286 C 0.95100 1.14755 1.08093
 C287 C 0.94222 1.16887 1.08932
 H288 H 0.94975 1.17667 1.10483
 O289 O 0.88502 1.08532 1.02234
 O290 O 0.85787 1.11255 1.02272
 C291 C 0.86616 1.09353 1.03055
 C292 C 0.85415 1.08114 1.04984
 C293 C 0.83288 1.08950 1.05870
 H294 H 0.82497 1.10485 1.05102
 O295 O 1.11602 0.91698 1.02239
 O296 O 1.14330 0.88988 1.02219
 C297 C 1.13498 0.90875 1.03036
 C298 C 1.14708 0.92083 1.04980
 C299 C 1.16851 0.91246 1.05815
 H300 H 1.17681 0.89789 1.04943
 O301 O 0.97780 0.91568 1.11595
 O302 O 0.97758 0.88843 1.14321
 C303 C 0.96979 0.90750 1.13498
 C304 C 0.95089 0.92009 1.14731
 C305 C 0.94332 0.91284 1.16953
 H306 H 0.95214 0.89853 1.17819
 O307 O 1.02330 1.08432 1.11769
 O308 O 1.02328 1.11152 1.14495
 C309 C 1.03126 1.09254 1.13671
 C310 C 1.05052 1.08030 1.14890
 C311 C 1.05922 1.08881 1.17020
 H312 H 1.05077 1.10357 1.17844
 O313 O 0.88486 0.97802 1.08401
 O314 O 0.85744 0.97789 1.11104
 C315 C 0.86576 0.97011 1.09198
 C316 C 0.85343 0.95130 1.07924
 C317 C 0.83131 0.94372 1.08655
 H318 H 0.82275 0.95243 1.10099
 O319 O 1.11600 1.02303 1.08520
 O320 O 1.14347 1.02274 1.11220
 C321 C 1.13511 1.03080 1.09324
 C322 C 1.14747 1.04968 1.08061
 C323 C 1.16954 1.05718 1.08807
 H324 H 1.17757 1.04893 1.10309
 O325 O 0.91654 0.88511 1.02151
 O326 O 0.88939 0.85790 1.02146
 C327 C 0.90836 0.86610 1.02944
 C328 C 0.92060 0.85376 1.04863
 C329 C 0.91210 0.83237 1.05698
 H330 H 0.89736 0.82427 1.04837
 O331 O 1.08433 1.11603 1.02344
 O332 O 1.11155 1.14319 1.02360
 C333 C 1.09258 1.13493 1.03154
 C334 C 1.08042 1.14712 1.05084
 C335 C 1.08875 1.16861 1.05902
 H336 H 1.10329 1.17686 1.05023
 Cu337 Cu 1.09748 1.00032 1.09867
 Cu338 Cu 1.13030 1.00000 1.13123
 Cu339 Cu 0.90374 1.00057 1.09749
 Cu340 Cu 0.87088 1.00039 1.13000
 Cu341 Cu 1.00068 1.09772 1.09892
 Cu342 Cu 1.00061 1.13044 1.13157
 Cu343 Cu 1.00057 0.90259 1.09713
 Cu344 Cu 1.00033 0.86975 1.12972
 C345 C 1.06127 1.06089 1.13855
 H346 H 1.05481 1.05440 1.12197
 C347 C 1.07884 1.07861 1.18086
 C348 C 0.93974 0.93904 1.13645
 H349 H 0.94536 0.94460 1.11923
 C350 C 0.92460 0.92407 1.18073
 C351 C 1.06125 1.13678 1.06201
 H352 H 1.05492 1.12005 1.05591
 C353 C 1.07861 1.17954 1.07852
 C354 C 0.93996 0.86393 1.05965
 H355 H 0.94642 0.88059 1.05348
 C356 C 0.92226 0.82141 1.07648
 C357 C 1.13683 1.06093 1.06157
 H358 H 1.11963 1.05548 1.05598
 C359 C 1.18106 1.07563 1.07671
 C360 C 0.86419 0.94018 1.06020
 H361 H 0.88135 0.94578 1.05464
 C362 C 0.82008 0.92506 1.07525
 C363 C 0.93993 1.06114 1.13797
 H364 H 0.94639 1.05497 1.12128
 C365 C 0.92230 1.07790 1.18066
 C366 C 1.06093 0.93928 1.13731
 H367 H 1.05494 0.94560 1.12048
 C368 C 1.07721 0.92199 1.18032
 C369 C 1.13664 0.93996 1.06101
 H370 H 1.11995 0.94633 1.05485
 C371 C 1.17928 0.92257 1.07777
 C372 C 0.86466 1.06167 1.06048
 H373 H 0.88128 1.05540 1.05406
 C374 C 0.82220 1.07870 1.07799
 C375 C 0.94054 1.13720 1.06124
 H376 H 0.94687 1.12055 1.05496
 C377 C 0.92316 1.17971 1.07836
 C378 C 1.06129 0.86345 1.06039
 H379 H 1.05470 0.87998 1.05401
 C380 C 1.07926 0.82119 1.07772
 O381 O 1.08526 0.97858 0.88243
 O382 O 1.11257 0.97868 0.85528
 C383 C 1.09364 0.97060 0.86348
 C384 C 1.08152 0.95128 0.85130
 C385 C 1.09027 0.94227 0.83019
 H386 H 1.10576 0.94984 0.82248
 O387 O 0.91601 1.02451 0.88330
 O388 O 0.88901 1.02469 0.85583
 C389 C 0.90795 1.03255 0.86422
 C390 C 0.92058 1.05148 0.85192
 C391 C 0.91337 1.05901 0.82969
 H392 H 0.89853 1.05074 0.82142
 O393 O 0.97782 1.11768 0.91524
 O394 O 0.97800 1.14509 0.88816
 C395 C 0.96999 1.13679 0.90713
 C396 C 0.95105 1.14911 0.91970
 C397 C 0.94323 1.17110 0.91216
 H398 H 0.95138 1.17927 0.89716
 O399 O 1.02320 0.88577 0.91442
 O400 O 1.02310 0.85848 0.88724
 C401 C 1.03101 0.86669 0.90632
 C402 C 1.04980 0.85425 0.91902
 C403 C 1.05725 0.83209 0.91169
 H404 H 1.04897 0.82394 0.89676
 O405 O 1.11645 0.91694 0.97668
 O406 O 1.14371 0.88982 0.97649
 C407 C 1.13547 0.90887 0.96866
 C408 C 1.14778 0.92146 0.94965
 C409 C 1.16979 0.91398 0.94189
 H410 H 1.17832 0.89958 0.95068
 O411 O 0.88472 1.08583 0.97664
 O412 O 0.85763 1.11312 0.97696
 C413 C 0.86578 1.09422 0.96875
 C414 C 0.85351 1.08212 0.94943
 C415 C 0.83229 1.09075 0.94064
 H416 H 0.82464 1.10621 0.94834
 O417 O 1.02311 1.08552 0.88319
 O418 O 1.02329 1.11276 0.85594
 C419 C 1.03107 1.09369 0.86414
 C420 C 1.04989 1.08110 0.85171
 C421 C 1.05712 1.08826 0.82936
 H422 H 1.04816 1.10251 0.82073
 O423 O 0.97815 0.91812 0.88224
 O424 O 0.97813 0.89117 0.85472
 C425 C 0.97024 0.91013 0.86311
 C426 C 0.95123 0.92272 0.85091
 C427 C 0.94366 0.91556 0.82868
 H428 H 0.95257 0.90140 0.81989
 O429 O 1.11678 1.02408 0.91475
 O430 O 1.14411 1.02447 0.88763
 C431 C 1.13574 1.03223 0.90667
 C432 C 1.14777 1.05127 0.91936
 C433 C 1.16931 1.05995 0.91146
 H434 H 1.17739 1.05242 0.89609
 O435 O 0.88396 0.97878 0.91494
 O436 O 0.85682 0.97894 0.88762
 C437 C 0.86503 0.97083 0.90660
 C438 C 0.85291 0.95148 0.91876
 C439 C 0.83160 0.94287 0.91030
 H440 H 0.82335 0.95131 0.89551
 O441 O 1.08455 1.11663 0.97776
 O442 O 1.11163 1.14392 0.97796
 C443 C 1.09268 1.13571 0.96992
 C444 C 1.08024 1.14808 0.95085
 C445 C 1.08763 1.17022 0.94329
 H446 H 1.10186 1.17881 0.95227
 O447 O 0.91652 0.88555 0.97581
 O448 O 0.88942 0.85828 0.97576
 C449 C 0.90830 0.86664 0.96770
 C450 C 0.92040 0.85469 0.94819
 C451 C 0.91177 0.83358 0.93931
 H452 H 0.89695 0.82537 0.94767
 O453 O 0.91612 0.97905 0.88309
 O454 O 0.88911 0.97922 0.85563
 C455 C 0.90809 0.97128 0.86391
 C456 C 0.92076 0.95254 0.85137
 C457 C 0.91336 0.94505 0.82919
 H458 H 0.89839 0.95325 0.82108
 O459 O 1.08464 1.02407 0.88290
 O460 O 1.11177 1.02428 0.85558
 C461 C 1.09274 1.03209 0.86386
 C462 C 1.08007 1.05099 0.85155
 C463 C 1.08711 1.05845 0.82923
 H464 H 1.10180 1.05008 0.82080
 O465 O 0.97772 0.88575 0.91385
 O466 O 0.97757 0.85867 0.88647
 C467 C 0.96959 0.86690 0.90548
 C468 C 0.95026 0.85481 0.91768
 C469 C 0.94126 0.83372 0.90896
 H470 H 0.94881 0.82598 0.89343
 O471 O 1.02330 1.11696 0.91569
 O472 O 1.02354 1.14438 0.88862
 C473 C 1.03139 1.13594 0.90763
 C474 C 1.05038 1.14807 0.92032
 C475 C 1.05817 1.17006 0.91287
 H476 H 1.05009 1.17818 0.89780
 O477 O 0.88417 0.91704 0.97603
 O478 O 0.85701 0.88983 0.97599
 C479 C 0.86521 0.90880 0.96801
 C480 C 0.85300 0.92110 0.94877
 C481 C 0.83175 0.91261 0.93996
 H482 H 0.82399 0.89719 0.94765
 O483 O 1.11628 1.08444 0.97750
 O484 O 1.14346 1.11164 0.97771
 C485 C 1.13524 1.09274 0.96958
 C486 C 1.14750 1.08069 0.95027
 C487 C 1.16910 1.08894 0.94230
 H488 H 1.17738 1.10337 0.95127
 O489 O 1.02365 0.91755 0.88220
 O490 O 1.02368 0.89041 0.85488
 C491 C 1.03173 0.90929 0.86324
 C492 C 1.05117 0.92137 0.85121
 C493 C 1.06004 0.91273 0.83003
 H494 H 1.05170 0.89790 0.82181
 O495 O 0.97770 1.08564 0.88332
 O496 O 0.97784 1.11287 0.85605
 C497 C 0.96984 1.09388 0.86426
 C498 C 0.95086 1.08146 0.85188
 C499 C 0.94350 1.08867 0.82956
 H500 H 0.95247 1.10287 0.82089
 O501 O 0.88412 1.02434 0.91536
 O502 O 0.85698 1.02459 0.88803
 C503 C 0.86523 1.03246 0.90710
 C504 C 0.85320 1.05176 0.91942
 C505 C 0.83187 1.06043 0.91109
 H506 H 0.82351 1.05194 0.89640
 O507 O 1.11653 0.97860 0.91499
 O508 O 1.14400 0.97886 0.88801
 C509 C 1.13560 0.97075 0.90692
 C510 C 1.14779 0.95166 0.91943
 C511 C 1.16966 0.94377 0.91177
 H512 H 1.17772 0.95193 0.89672
 O513 O 1.08421 0.88517 0.97655
 O514 O 1.11133 0.85790 0.97635
 C515 C 1.09232 0.86619 0.96849
 C516 C 1.07976 0.85398 0.94944
 C517 C 1.08687 0.83175 0.94197
 H518 H 1.10102 0.82302 0.95095
 O519 O 0.91677 1.11766 0.97689
 O520 O 0.88980 1.14507 0.97724
 C521 C 0.90868 1.13679 0.96913
 C522 C 0.92109 1.14914 0.95008
 C523 C 0.91358 1.17117 0.94239
 H524 H 0.89924 1.17971 0.95124
 Cu525 Cu 1.09808 1.00134 0.90147
 Cu526 Cu 1.13086 1.00162 0.86890
 Cu527 Cu 0.90273 1.00164 0.90193
 Cu528 Cu 0.87023 1.00187 0.86906
 Cu529 Cu 1.09770 1.09762 1.00045
 Cu530 Cu 1.13034 1.13026 1.00068
 Cu531 Cu 1.09758 0.90363 0.99945
 Cu532 Cu 1.13025 0.87105 0.99921
 Cu533 Cu 0.90363 1.09868 0.99952
 Cu534 Cu 0.87115 1.13148 0.99999
 Cu535 Cu 0.90317 0.90395 0.99878
 Cu536 Cu 0.87059 0.87125 0.99875
 Cu537 Cu 1.00044 1.09873 0.90208
 Cu538 Cu 1.00070 1.13154 0.86947
 Cu539 Cu 1.00068 0.90451 0.90091
 Cu540 Cu 1.00063 0.87197 0.86807
 C541 C 1.06188 0.94081 0.86156
 H542 H 1.05531 0.94738 0.87806
 C543 C 1.07969 0.92292 0.81945
 C544 C 0.93944 1.06269 0.86278
 H545 H 0.94488 1.05718 0.88007
 C546 C 0.92479 1.07751 0.81827
 C547 C 0.93998 1.13839 0.93878
 H548 H 0.94568 1.12129 0.94446
 C549 C 0.92454 1.18233 0.92343
 C550 C 1.06105 0.86495 0.93801
 H551 H 1.05563 0.88219 0.94353
 C552 C 1.07571 0.82062 0.92311
 C553 C 1.13708 0.94049 0.93849
 H554 H 1.12002 0.94621 0.94423
 C555 C 1.18090 0.92500 0.92292
 C556 C 0.86371 1.06254 0.93877
 H557 H 0.88029 1.05609 0.94513
 C558 C 0.82133 1.08005 0.92142
 C559 C 1.06131 1.06230 0.86254
 H560 H 1.05599 1.05687 0.87988
 C561 C 1.07568 1.07703 0.81794
 C562 C 0.93983 0.94139 0.86198
 H563 H 0.94541 0.94683 0.87924
 C564 C 0.92473 0.92662 0.81765
 C565 C 1.13711 1.06168 0.93887
 H566 H 1.12031 1.05540 0.94479
 C567 C 1.18009 1.07886 0.92280
 C568 C 0.86331 0.94064 0.93816
 H569 H 0.87990 0.94700 0.94459
 C570 C 0.82092 0.92334 0.92068
 C571 C 1.06142 1.13731 0.93942
 H572 H 1.05574 1.12016 0.94500
 C573 C 1.07669 1.18139 0.92430
 C574 C 0.93981 0.86505 0.93740
 H575 H 0.94637 0.88151 0.94396
 C576 C 0.92193 0.82303 0.91960
 O577 O 1.08388 0.52200 0.61773
 O578 O 1.11104 0.52186 0.64504
 C579 C 1.09212 0.52991 0.63676
 C580 C 1.08001 0.54920 0.64895
 C581 C 1.08845 0.55757 0.67040
 H582 H 1.10306 0.54891 0.67869
 O583 O 0.91667 0.47704 0.61641
 O584 O 0.88935 0.47700 0.64354
 C585 C 0.90832 0.46900 0.63535
 C586 C 0.92041 0.44970 0.64762
 C587 C 0.91213 0.44159 0.66923
 H588 H 0.89768 0.45047 0.67754
 O589 O 1.02307 0.61575 0.58551
 O590 O 1.02320 0.64310 0.61262
 C591 C 1.03105 0.63477 0.59357
 C592 C 1.04993 0.64698 0.58083
 C593 C 1.05751 0.66916 0.58796
 H594 H 1.04926 0.67752 0.60279
 O595 O 0.97736 0.38262 0.58511
 O596 O 0.97736 0.35526 0.61224
 C597 C 0.96933 0.36364 0.59329
 C598 C 0.94993 0.35173 0.58099
 C599 C 0.94061 0.33073 0.58964
 H600 H 0.94805 0.32284 0.60516
 O601 O 1.11607 0.58321 0.52362
 O602 O 1.14337 0.61029 0.52376
 C603 C 1.13503 0.59134 0.53171
 C604 C 1.14709 0.57905 0.55106
 C605 C 1.16851 0.58730 0.55955
 H606 H 1.17686 0.60190 0.55093
 O607 O 0.88475 0.41569 0.52302
 O608 O 0.85731 0.38877 0.52280
 C609 C 0.86565 0.40766 0.53087
 C610 C 0.85334 0.42020 0.54988
 C611 C 0.83136 0.41268 0.55766
 H612 H 0.82329 0.39768 0.54948
 O613 O 0.97780 0.58389 0.61769
 O614 O 0.97790 0.61088 0.64516
 C615 C 0.96993 0.59194 0.63680
 C616 C 0.95092 0.57939 0.64901
 C617 C 0.94314 0.58671 0.67112
 H618 H 0.95188 0.60103 0.67982
 O619 O 1.02256 0.41474 0.61732
 O620 O 1.02260 0.38761 0.64468
 C621 C 1.03043 0.40666 0.63645
 C622 C 1.04929 0.41928 0.64885
 C623 C 1.05681 0.41203 0.67110
 H624 H 1.04794 0.39775 0.67976
 O625 O 1.11592 0.47670 0.58562
 O626 O 1.14312 0.47645 0.61289
 C627 C 1.13488 0.46867 0.59380
 C628 C 1.14708 0.44968 0.58124
 C629 C 1.16832 0.44077 0.58965
 H630 H 1.17608 0.44817 0.60525
 O631 O 0.88507 0.52289 0.58435
 O632 O 0.85776 0.52285 0.61149
 C633 C 0.86610 0.53088 0.59253
 C634 C 0.85395 0.55014 0.58027
 C635 C 0.83242 0.55832 0.58851
 H636 H 0.82411 0.54955 0.60308
 O637 O 0.91696 0.61688 0.52347
 O638 O 0.88974 0.64404 0.52369
 C639 C 0.90868 0.63571 0.53167
 C640 C 0.92080 0.64761 0.55121
 C641 C 0.91233 0.66883 0.55998
 H642 H 0.89762 0.67717 0.55153
 O643 O 1.08408 0.38462 0.52295
 O644 O 1.11131 0.35748 0.52267
 C645 C 1.09237 0.36561 0.53081
 C646 C 1.08029 0.35319 0.55008
 C647 C 1.08880 0.33174 0.55830
 H648 H 1.10346 0.32366 0.54955
 O649 O 0.91646 0.52260 0.61700
 O650 O 0.88923 0.52250 0.64422
 C651 C 0.90825 0.53044 0.63608
 C652 C 0.92072 0.54932 0.64861
 C653 C 0.91310 0.55696 0.67067
 H654 H 0.89813 0.54872 0.67873
 O655 O 1.08381 0.47646 0.61746
 O656 O 1.11087 0.47632 0.64486
 C657 C 1.09193 0.46843 0.63650
 C658 C 1.07941 0.44941 0.64877
 C659 C 1.08685 0.44176 0.67087
 H660 H 1.10178 0.45000 0.67901
 O661 O 1.02290 0.38321 0.58492
 O662 O 1.02314 0.35586 0.61206
 C663 C 1.03110 0.36432 0.59310
 C664 C 1.05048 0.35253 0.58066
 C665 C 1.05947 0.33120 0.58882
 H666 H 1.05191 0.32311 0.60417
 O667 O 0.97765 0.61611 0.58595
 O668 O 0.97766 0.64328 0.61325
 C669 C 0.96967 0.63506 0.59423
 C670 C 0.95051 0.64728 0.58189
 C671 C 0.94168 0.66849 0.59049
 H672 H 0.94924 0.67620 0.60603
 O673 O 0.88487 0.58520 0.52322
 O674 O 0.85751 0.61223 0.52341
 C675 C 0.86588 0.59327 0.53130
 C676 C 0.85381 0.58074 0.55047
 C677 C 0.83237 0.58885 0.55918
 H678 H 0.82441 0.60420 0.55154
 O679 O 1.11608 0.41657 0.52294
 O680 O 1.14334 0.38945 0.52268
 C681 C 1.13507 0.40831 0.53085
 C682 C 1.14720 0.42029 0.55031
 C683 C 1.16851 0.41176 0.55883
 H684 H 1.17677 0.39714 0.55017
 O685 O 0.97720 0.41472 0.61683
 O686 O 0.97708 0.38755 0.64416
 C687 C 0.96913 0.40651 0.63581
 C688 C 0.94995 0.41897 0.64786
 C689 C 0.94118 0.41088 0.66935
 H690 H 0.94872 0.39551 0.67737
 O691 O 1.02321 0.58415 0.61785
 O692 O 1.02345 0.61131 0.64515
 C693 C 1.03131 0.59232 0.63684
 C694 C 1.05044 0.57987 0.64898
 C695 C 1.05928 0.58815 0.67037
 H696 H 1.05177 0.60358 0.67827
 O697 O 0.88453 0.47735 0.58452
 O698 O 0.85712 0.47736 0.61156
 C699 C 0.86544 0.46946 0.59256
 C700 C 0.85318 0.45049 0.57996
 C701 C 0.83110 0.44286 0.58736
 H702 H 0.82249 0.45172 0.60167
 O703 O 1.11581 0.52214 0.58577
 O704 O 1.14307 0.52199 0.61298
 C705 C 1.13479 0.53007 0.59401
 C706 C 1.14696 0.54925 0.58166
 C707 C 1.16828 0.55795 0.59009
 H708 H 1.17606 0.55031 0.60556
 O709 O 0.91644 0.38344 0.52315
 O710 O 0.88909 0.35642 0.52297
 C711 C 0.90804 0.36452 0.53110
 C712 C 0.92002 0.35224 0.55051
 C713 C 0.91110 0.33118 0.55927
 H714 H 0.89618 0.32324 0.55085
 O715 O 1.08424 0.61533 0.52359
 O716 O 1.11145 0.64251 0.52367
 C717 C 1.09242 0.63434 0.53154
 C718 C 1.07991 0.64676 0.55046
 C719 C 1.08714 0.66901 0.55771
 H720 H 1.10135 0.67757 0.54866
 Cu721 Cu 1.09713 0.49932 0.59891
 Cu722 Cu 1.12975 0.49912 0.63170
 Cu723 Cu 0.90342 0.49998 0.59786
 Cu724 Cu 0.87062 0.49993 0.63042
 Cu725 Cu 1.00042 0.59726 0.59903
 Cu726 Cu 1.00057 0.62988 0.63179
 Cu727 Cu 1.00002 0.40150 0.59831
 Cu728 Cu 1.00008 0.36879 0.63099
 C729 C 1.06083 0.56029 0.63852
 H730 H 1.05442 0.55408 0.62182
 C731 C 1.07836 0.57714 0.68117
 C732 C 0.93950 0.43846 0.63721
 H733 H 0.94582 0.44452 0.62042
 C734 C 0.92221 0.42207 0.68017
 C735 C 1.06113 0.63601 0.56196
 H736 H 1.05563 0.61875 0.55659
 C737 C 1.07605 0.68038 0.57644
 C738 C 0.93960 0.36222 0.56132
 H739 H 0.94637 0.37863 0.55482
 C740 C 0.92111 0.32036 0.57895
 C741 C 1.13659 0.55984 0.56206
 H742 H 1.11994 0.55354 0.55576
 C743 C 1.17917 0.57704 0.57919
 C744 C 0.86401 0.43923 0.56105
 H745 H 0.88112 0.44488 0.55541
 C746 C 0.82001 0.42394 0.57633
 C747 C 0.93976 0.56052 0.63804
 H748 H 0.94549 0.55496 0.62088
 C749 C 0.92423 0.57560 0.68212
 C750 C 1.06052 0.43817 0.63798
 H751 H 1.05496 0.44374 0.62075
 C752 C 1.07560 0.42317 0.68230
 C753 C 1.13677 0.43943 0.56146
 H754 H 1.12018 0.44591 0.55516
 C755 C 1.17914 0.42174 0.57861
 C756 C 0.86438 0.56128 0.56106
 H757 H 0.88112 0.55521 0.55477
 C758 C 0.82156 0.57778 0.57826
 C759 C 0.94006 0.63709 0.56214
 H760 H 0.94649 0.62055 0.55566
 C761 C 0.92252 0.67933 0.57971
 C762 C 1.06095 0.36330 0.56121
 H763 H 1.05445 0.37996 0.55510
 C764 C 1.07868 0.32066 0.57777
 O765 O 1.08397 0.47796 0.38224
 O766 O 1.11115 0.47799 0.35497
 C767 C 1.09223 0.46996 0.36325
 C768 C 1.07996 0.45068 0.35116
 C769 C 1.08820 0.44190 0.32973
 H770 H 1.10350 0.44958 0.32176
 O771 O 0.91631 0.52352 0.38365
 O772 O 0.88896 0.52372 0.35654
 C773 C 0.90794 0.53168 0.36476
 C774 C 0.92011 0.55105 0.35267
 C775 C 0.91175 0.55985 0.33128
 H776 H 0.89649 0.55209 0.32331
 O777 O 0.97755 0.61732 0.41592
 O778 O 0.97770 0.64480 0.38890
 C779 C 0.96970 0.63644 0.40785
 C780 C 0.95073 0.64875 0.42038
 C781 C 0.94277 0.67060 0.41262
 H782 H 0.95084 0.67864 0.39751
 O783 O 1.02301 0.38449 0.41500
 O784 O 1.02308 0.35724 0.38779
 C785 C 1.03107 0.36556 0.40678
 C786 C 1.05031 0.35352 0.41918
 C787 C 1.05922 0.33223 0.41086
 H788 H 1.05169 0.32430 0.39541
 O789 O 1.11577 0.41693 0.47714
 O790 O 1.14304 0.38982 0.47699
 C791 C 1.13471 0.40876 0.46902
 C792 C 1.14675 0.42097 0.44958
 C793 C 1.16812 0.41259 0.44104
 H794 H 1.17644 0.39798 0.44970
 O795 O 0.88504 0.58530 0.47759
 O796 O 0.85772 0.61236 0.47767
 C797 C 0.86605 0.59345 0.46961
 C798 C 0.85388 0.58104 0.45043
 C799 C 0.83235 0.58915 0.44191
 H800 H 0.82443 0.60445 0.44965
 O801 O 1.02282 0.58531 0.38358
 O802 O 1.02286 0.61264 0.35641
 C803 C 1.03068 0.59354 0.36450
 C804 C 1.04948 0.58103 0.35194
 C805 C 1.05693 0.58857 0.32978
 H806 H 1.04807 0.60298 0.32135
 O807 O 0.97741 0.41650 0.38327
 O808 O 0.97732 0.38938 0.35593
 C809 C 0.96941 0.40835 0.36424
 C810 C 0.95023 0.42071 0.35208
 C811 C 0.94179 0.41253 0.33056
 H812 H 0.95035 0.39791 0.32221
 O813 O 1.11569 0.52321 0.41469
 O814 O 1.14300 0.52347 0.38755
 C815 C 1.13470 0.53123 0.40664
 C816 C 1.14690 0.55012 0.41938
 C817 C 1.16837 0.55877 0.41130
 H818 H 1.17626 0.55131 0.39581
 O819 O 0.88484 0.47780 0.41593
 O820 O 0.85740 0.47795 0.38890
 C821 C 0.86581 0.46987 0.40782
 C822 C 0.85374 0.45056 0.42009
 C823 C 0.83229 0.44221 0.41178
 H824 H 0.82396 0.45087 0.39716
 O825 O 1.08443 0.61562 0.47798
 O826 O 1.11167 0.64277 0.47815
 C827 C 1.09267 0.63466 0.47014
 C828 C 1.08026 0.64719 0.45120
 C829 C 1.08767 0.66939 0.44390
 H830 H 1.10202 0.67782 0.45285
 O831 O 0.91679 0.38375 0.47743
 O832 O 0.88954 0.35664 0.47723
 C833 C 0.90854 0.36486 0.46931
 C834 C 0.92074 0.35281 0.44992
 C835 C 0.91238 0.33146 0.44130
 H836 H 0.89775 0.32313 0.44987
 O837 O 0.91624 0.47793 0.38339
 O838 O 0.88889 0.47807 0.35627
 C839 C 0.90786 0.47000 0.36441
 C840 C 0.92001 0.45076 0.35213
 C841 C 0.91157 0.44210 0.33073
 H842 H 0.89622 0.44985 0.32290
 O843 O 1.08382 0.52351 0.38261
 O844 O 1.11092 0.52368 0.35527
 C845 C 1.09198 0.53161 0.36362
 C846 C 1.07952 0.55079 0.35151
 C847 C 1.08688 0.55872 0.32945
 H848 H 1.10171 0.55051 0.32111
 O849 O 0.97751 0.38429 0.41507
 O850 O 0.97750 0.35705 0.38784
 C851 C 0.96955 0.36529 0.40686
 C852 C 0.95045 0.35305 0.41927
 C853 C 0.94166 0.33180 0.41074
 H854 H 0.94922 0.32411 0.39519
 O855 O 1.02305 0.61663 0.41626
 O856 O 1.02324 0.64413 0.38926
 C857 C 1.03112 0.63564 0.40824
 C858 C 1.05016 0.64768 0.42092
 C859 C 1.05786 0.66984 0.41382
 H860 H 1.04958 0.67833 0.39907
 O861 O 0.88480 0.41565 0.47732
 O862 O 0.85746 0.38862 0.47710
 C863 C 0.86584 0.40756 0.46918
 C864 C 0.85377 0.41999 0.44993
 C865 C 0.83241 0.41172 0.44116
 H866 H 0.82455 0.39632 0.44879
 O867 O 1.11599 0.58329 0.47786
 O868 O 1.14331 0.61035 0.47803
 C869 C 1.13496 0.59149 0.46989
 C870 C 1.14704 0.57941 0.45045
 C871 C 1.16856 0.58765 0.44225
 H872 H 1.17695 0.60208 0.45111
 O873 O 1.02281 0.41648 0.38297
 O874 O 1.02275 0.38934 0.35565
 C875 C 1.03067 0.40833 0.36388
 C876 C 1.04970 0.42068 0.35150
 C877 C 1.05793 0.41240 0.32994
 H878 H 1.04927 0.39777 0.32171
 O879 O 0.97741 0.58510 0.38417
 O880 O 0.97740 0.61246 0.35702
 C881 C 0.96943 0.59343 0.36520
 C882 C 0.95025 0.58119 0.35294
 C883 C 0.94183 0.58955 0.33147
 H884 H 0.95033 0.60430 0.32325
 O885 O 0.88490 0.52332 0.41617
 O886 O 0.85744 0.52347 0.38916
 C887 C 0.86587 0.53135 0.40814
 C888 C 0.85379 0.55052 0.42058
 C889 C 0.83218 0.55868 0.41254
 H890 H 0.82374 0.54993 0.39804
 O891 O 1.11554 0.47779 0.41453
 O892 O 1.14288 0.47788 0.38742
 C893 C 1.13453 0.46983 0.40638
 C894 C 1.14664 0.45064 0.41882
 C895 C 1.16790 0.44181 0.41039
 H896 H 1.17565 0.44935 0.39485
 O897 O 1.08392 0.38484 0.47722
 O898 O 1.11116 0.35770 0.47706
 C899 C 1.09217 0.36592 0.46915
 C900 C 1.08000 0.35373 0.44985
 C901 C 1.08846 0.33235 0.44148
 H902 H 1.10308 0.32413 0.45019
 O903 O 0.91661 0.61760 0.47780
 O904 O 0.88945 0.64482 0.47794
 C905 C 0.90841 0.63663 0.46991
 C906 C 0.92076 0.64891 0.45076
 C907 C 0.91310 0.67082 0.44283
 H908 H 0.89868 0.67935 0.45156
 Cu909 Cu 1.09701 0.50062 0.40120
 Cu910 Cu 1.12972 0.50080 0.36856
 Cu911 Cu 0.90335 0.50062 0.40246
 Cu912 Cu 0.87041 0.50083 0.37001
 Cu913 Cu 1.09747 0.59663 0.50076
 Cu914 Cu 1.13023 0.62915 0.50093
 Cu915 Cu 1.09725 0.40348 0.50009
 Cu916 Cu 1.12995 0.37091 0.49982
 Cu917 Cu 0.90360 0.59854 0.50047
 Cu918 Cu 0.87088 0.63110 0.50068
 Cu919 Cu 0.90343 0.40234 0.50026
 Cu920 Cu 0.87063 0.36988 0.50002
 Cu921 Cu 1.00021 0.59837 0.40270
 Cu922 Cu 1.00032 0.63126 0.37018
 Cu923 Cu 1.00019 0.40313 0.40183
 Cu924 Cu 1.00016 0.37051 0.36906
 C925 C 1.06062 0.44001 0.36181
 H926 H 1.05448 0.44633 0.37857
 C927 C 1.07732 0.42269 0.31898
 C928 C 0.93945 0.56176 0.36325
 H929 H 0.94571 0.55538 0.37996
 C930 C 0.92248 0.57915 0.32056
 C931 C 0.93973 0.63817 0.43958
 H932 H 0.94555 0.62116 0.44543
 C933 C 0.92402 0.68185 0.42376
 C934 C 1.06075 0.36404 0.43877
 H935 H 1.05432 0.38068 0.44500
 C936 C 1.07838 0.32154 0.42187
 C937 C 1.13629 0.44018 0.43851
 H938 H 1.11967 0.44656 0.44482
 C939 C 1.17875 0.42272 0.42133
 C940 C 0.86438 0.56163 0.43971
 H941 H 0.88119 0.55556 0.44584
 C942 C 0.82139 0.57811 0.42290
 C943 C 1.06070 0.56197 0.36251
 H944 H 1.05517 0.55623 0.37969
 C945 C 1.07563 0.57755 0.31835
 C946 C 0.93942 0.44001 0.36257
 H947 H 0.94572 0.44626 0.37930
 C948 C 0.92233 0.42292 0.31981
 C949 C 1.13647 0.56046 0.43907
 H950 H 1.11971 0.55420 0.44513
 C951 C 1.17929 0.57760 0.42259
 C952 C 0.86421 0.43951 0.43934
 H953 H 0.88089 0.44570 0.44568
 C954 C 0.82155 0.42268 0.42203
 C955 C 1.06136 0.63660 0.43975
 H956 H 1.05573 0.61938 0.44514
 C957 C 1.07655 0.68089 0.42526
 C958 C 0.93997 0.36331 0.43895
 H959 H 0.94633 0.37993 0.44532
 C960 C 0.92257 0.32089 0.42159
 O961 O 0.47832 0.91670 0.38168
 O962 O 0.47835 0.88958 0.35433
 C963 C 0.47040 0.90857 0.36260
 C964 C 0.45126 0.92090 0.35035
 C965 C 0.44303 0.91273 0.32875
 H966 H 0.45171 0.89817 0.32040
 O967 O 0.52355 1.08472 0.38302
 O968 O 0.52365 1.11212 0.35592
 C969 C 0.53158 1.09308 0.36408
 C970 C 0.55070 1.08078 0.35180
 C971 C 0.55934 1.08923 0.33040
 H972 H 0.55171 1.10469 0.32266
 O973 O 0.38455 0.97731 0.41370
 O974 O 0.35737 0.97749 0.38641
 C975 C 0.36559 0.96940 0.40541
 C976 C 0.35337 0.95019 0.41768
 C977 C 0.33192 0.94183 0.40937
 H978 H 0.32369 0.95034 0.39459
 O979 O 0.61620 1.02289 0.41459
 O980 O 0.64369 1.02337 0.38763
 C981 C 0.63514 1.03114 0.40660
 C982 C 0.64697 1.05036 0.41922
 C983 C 0.66815 1.05950 0.41093
 H984 H 0.67609 1.05216 0.39540
 O985 O 0.41641 0.88438 0.47519
 O986 O 0.38939 0.85702 0.47497
 C987 C 0.40830 0.86544 0.46703
 C988 C 0.42055 0.85347 0.44763
 C989 C 0.41198 0.83233 0.43873
 H990 H 0.39709 0.82414 0.44699
 O991 O 0.58386 1.11565 0.47778
 O992 O 0.61099 1.14290 0.47816
 C993 C 0.59209 1.13472 0.46999
 C994 C 0.58001 1.14710 0.45072
 C995 C 0.58851 1.16854 0.44248
 H996 H 0.60309 1.17670 0.45130
 O997 O 0.41642 1.02316 0.38213
 O998 O 0.38937 1.02347 0.35472
 C999 C 0.40829 1.03136 0.36315
 C1000 C 0.42075 1.05059 0.35114
 C1001 C 0.41285 1.05916 0.32950
 H1002 H 0.39764 1.05144 0.32139
 O1003 O 0.58521 0.97724 0.38197
 O1004 O 0.61265 0.97745 0.35496
 C1005 C 0.59370 0.96931 0.36305
 C1006 C 0.58162 0.95002 0.35079
 C1007 C 0.59030 0.94108 0.32960
 H1008 H 0.60580 0.94866 0.32191
 O1009 O 0.52353 0.88441 0.41375
 O1010 O 0.52362 0.85713 0.38657
 C1011 C 0.53153 0.86542 0.40560
 C1012 C 0.55065 0.85330 0.41811
 C1013 C 0.55940 0.83188 0.40993
 H1014 H 0.55178 0.82389 0.39456
 O1015 O 0.47784 1.11618 0.41510
 O1016 O 0.47777 1.14369 0.38812
 C1017 C 0.46974 1.13516 0.40700
 C1018 C 0.45035 1.14698 0.41935
 C1019 C 0.44129 1.16820 0.41096
 H1020 H 0.44885 1.17623 0.39558
 O1021 O 0.38423 1.08335 0.47661
 O1022 O 0.35695 1.11045 0.47671
 C1023 C 0.36525 1.09155 0.46863
 C1024 C 0.35301 1.07922 0.44942
 C1025 C 0.33097 1.08670 0.44175
 H1026 H 0.32278 1.10150 0.45017
 O1027 O 0.61640 0.91626 0.47649
 O1028 O 0.64376 0.88923 0.47659
 C1029 C 0.63550 0.90820 0.46864
 C1030 C 0.64789 0.92075 0.44970
 C1031 C 0.67006 0.91342 0.44226
 H1032 H 0.67861 0.89911 0.45116
 O1033 O 0.47814 1.08442 0.38295
 O1034 O 0.47816 1.11178 0.35582
 C1035 C 0.47024 1.09271 0.36392
 C1036 C 0.45120 1.08042 0.35150
 C1037 C 0.44326 1.08852 0.32973
 H1038 H 0.45208 1.10302 0.32143
 O1039 O 0.52379 0.91630 0.38166
 O1040 O 0.52384 0.88913 0.35436
 C1041 C 0.53184 0.90806 0.36268
 C1042 C 0.55121 0.92019 0.35062
 C1043 C 0.55993 0.91168 0.32933
 H1044 H 0.55146 0.89698 0.32103
 O1045 O 0.61651 0.97743 0.41460
 O1046 O 0.64412 0.97781 0.38777
 C1047 C 0.63569 0.96972 0.40668
 C1048 C 0.64799 0.95082 0.41937
 C1049 C 0.67011 0.94321 0.41212
 H1050 H 0.67841 0.95150 0.39726
 O1051 O 0.38446 1.02272 0.41412
 O1052 O 0.35721 1.02298 0.38690
 C1053 C 0.36542 1.03067 0.40605
 C1054 C 0.35307 1.04942 0.41885
 C1055 C 0.33092 1.05698 0.41159
 H1056 H 0.32237 1.04824 0.39717
 O1057 O 0.41637 1.11513 0.47691
 O1058 O 0.38917 1.14231 0.47689
 C1059 C 0.40816 1.13411 0.46894
 C1060 C 0.42039 1.14642 0.44974
 C1061 C 0.41177 1.16771 0.44126
 H1062 H 0.39695 1.17575 0.44978
 O1063 O 0.58416 0.88457 0.47614
 O1064 O 0.61144 0.85746 0.47617
 C1065 C 0.59248 0.86567 0.46811
 C1066 C 0.58038 0.85349 0.44875
 C1067 C 0.58874 0.83204 0.44045
 H1068 H 0.60336 0.82379 0.44915
 O1069 O 0.58442 1.02276 0.38249
 O1070 O 0.61175 1.02310 0.35537
 C1071 C 0.59269 1.03091 0.36358
 C1072 C 0.58043 1.05022 0.35149
 C1073 C 0.58865 1.05876 0.33000
 H1074 H 0.60322 1.05019 0.32157
 O1075 O 0.41643 0.97763 0.38166
 O1076 O 0.38940 0.97781 0.35423
 C1077 C 0.40832 0.96978 0.36255
 C1078 C 0.42077 0.95070 0.35030
 C1079 C 0.41260 0.94208 0.32877
 H1080 H 0.39726 0.94974 0.32083
 O1081 O 0.52336 1.11640 0.41529
 O1082 O 0.52342 1.14393 0.38834
 C1083 C 0.53135 1.13546 0.40729
 C1084 C 0.55048 1.14747 0.41989
 C1085 C 0.55943 1.16882 0.41171
 H1086 H 0.55198 1.17679 0.39624
 O1087 O 0.47801 0.88449 0.41345
 O1088 O 0.47804 0.85726 0.38621
 C1089 C 0.46998 0.86556 0.40515
 C1090 C 0.45063 0.85350 0.41733
 C1091 C 0.44168 0.83240 0.40859
 H1092 H 0.44933 0.82463 0.39313
 O1093 O 0.61548 1.08335 0.47751
 O1094 O 0.64263 1.11059 0.47782
 C1095 C 0.63441 1.09171 0.46959
 C1096 C 0.64661 1.07981 0.45012
 C1097 C 0.66787 1.08854 0.44171
 H1098 H 0.67598 1.10321 0.45043
 O1099 O 0.38413 0.91596 0.47533
 O1100 O 0.35705 0.88867 0.47507
 C1101 C 0.36526 0.90768 0.46718
 C1102 C 0.35317 0.91999 0.44787
 C1103 C 0.33178 0.91172 0.43917
 H1104 H 0.32383 0.89647 0.44699
 Cu1105 Cu 0.50092 0.90318 0.40038
 Cu1106 Cu 0.50095 0.87055 0.36762
 Cu1107 Cu 0.50074 1.09771 0.40182
 Cu1108 Cu 0.50074 1.13065 0.36934
 Cu1109 Cu 0.40320 1.00019 0.40061
 Cu1110 Cu 0.37063 1.00048 0.36780
 Cu1111 Cu 0.59783 1.00002 0.40109
 Cu1112 Cu 0.63080 1.00047 0.36871
 C1113 C 0.44020 0.94007 0.36084
 H1114 H 0.44631 0.94628 0.37765
 C1115 C 0.42358 0.92302 0.31789
 C1116 C 0.56126 1.06118 0.36209
 H1117 H 0.55500 1.05486 0.37881
 C1118 C 0.57836 1.07837 0.31938
 C1119 C 0.36371 0.93932 0.43710
 H1120 H 0.38040 0.94551 0.44343
 C1121 C 0.32102 0.92251 0.41989
 C1122 C 0.63642 1.06055 0.43892
 H1123 H 0.61987 1.05392 0.44514
 C1124 C 0.67870 1.07866 0.42201
 C1125 C 0.44004 0.86380 0.43695
 H1126 H 0.44655 0.88028 0.44352
 C1127 C 0.42227 0.82175 0.41911
 C1128 C 0.56082 1.13686 0.43949
 H1129 H 0.55436 1.12018 0.44560
 C1130 C 0.57852 1.17948 0.42287
 C1131 C 0.44002 1.06126 0.36191
 H1132 H 0.44592 1.05507 0.37882
 C1133 C 0.42398 1.07815 0.31864
 C1134 C 0.56199 0.93953 0.36104
 H1135 H 0.55549 0.94600 0.37760
 C1136 C 0.57960 0.92184 0.31875
 C1137 C 0.56118 0.86385 0.43763
 H1138 H 0.55483 0.88055 0.44378
 C1139 C 0.57852 0.82115 0.42096
 C1140 C 0.43985 1.13632 0.43884
 H1141 H 0.44641 1.11974 0.44512
 C1142 C 0.42191 1.17863 0.42176
 C1143 C 0.36382 1.06047 0.43795
 H1144 H 0.38098 1.05486 0.44350
 C1145 C 0.31969 1.07563 0.42292
 C1146 C 0.63713 0.93960 0.43831
 H1147 H 0.61993 0.94514 0.44379
 C1148 C 0.68134 0.92457 0.42350
 O1149 O 0.52264 0.91508 0.61567
 O1150 O 0.52255 0.88762 0.64272
 C1151 C 0.53049 0.90671 0.63468
 C1152 C 0.54951 0.91894 0.64719
 C1153 C 0.55774 0.91045 0.66869
 H1154 H 0.54915 0.89568 0.67676
 O1155 O 0.47669 1.08296 0.61728
 O1156 O 0.47639 1.11002 0.64469
 C1157 C 0.46858 1.09103 0.63630
 C1158 C 0.44947 1.07847 0.64836
 C1159 C 0.44142 1.08593 0.67033
 H1160 H 0.45007 1.10029 0.67903
 O1161 O 0.38395 1.02159 0.58385
 O1162 O 0.35653 1.02142 0.61088
 C1163 C 0.36493 1.02950 0.59196
 C1164 C 0.35285 1.04875 0.57964
 C1165 C 0.33143 1.05720 0.58791
 H1166 H 0.32311 1.04863 0.60259
 O1167 O 0.61549 0.97701 0.58498
 O1168 O 0.64278 0.97672 0.61216
 C1169 C 0.63447 0.96895 0.59308
 C1170 C 0.64664 0.94998 0.58043
 C1171 C 0.66812 0.94140 0.58853
 H1172 H 0.67606 0.94900 0.60394
 O1173 O 0.58421 0.88401 0.52184
 O1174 O 0.61147 0.85689 0.52182
 C1175 C 0.59247 0.86502 0.52978
 C1176 C 0.58025 0.85267 0.54897
 C1177 C 0.58876 0.83130 0.55742
 H1178 H 0.60356 0.82321 0.54892
 O1179 O 0.41617 1.11496 0.52260
 O1180 O 0.38905 1.14222 0.52254
 C1181 C 0.40795 1.13391 0.53063
 C1182 C 0.42004 1.14600 0.55008
 C1183 C 0.41158 1.16737 0.55853
 H1184 H 0.39702 1.17566 0.54979
 O1185 O 0.41551 0.97592 0.61597
 O1186 O 0.38816 0.97554 0.64307
 C1187 C 0.40719 0.96771 0.63485
 C1188 C 0.41957 0.94849 0.64696
 C1189 C 0.41146 0.93981 0.66848
 H1190 H 0.39620 0.94750 0.67652
 O1191 O 0.58365 1.02219 0.61743
 O1192 O 0.61077 1.02201 0.64477
 C1193 C 0.59181 1.03002 0.63653
 C1194 C 0.57930 1.04894 0.64894
 C1195 C 0.58698 1.05683 0.67088
 H1196 H 0.60210 1.04880 0.67886
 O1197 O 0.47742 0.88333 0.58311
 O1198 O 0.47725 0.85579 0.61007
 C1199 C 0.46936 0.86429 0.59111
 C1200 C 0.45021 0.85232 0.57854
 C1201 C 0.44134 0.83097 0.58675
 H1202 H 0.44889 0.82296 0.60216
 O1203 O 0.52231 1.11504 0.58568
 O1204 O 0.52222 1.14229 0.61289
 C1205 C 0.53032 1.13398 0.59394
 C1206 C 0.54964 1.14601 0.58162
 C1207 C 0.55860 1.16727 0.59002
 H1208 H 0.55105 1.17519 0.60546
 O1209 O 0.38408 0.91569 0.52108
 O1210 O 0.35697 0.88843 0.52078
 C1211 C 0.36513 0.90735 0.52896
 C1212 C 0.35278 0.91952 0.54819
 C1213 C 0.33089 0.91170 0.55594
 H1214 H 0.32289 0.89678 0.54756
 O1215 O 0.61590 1.08337 0.52325
 O1216 O 0.64315 1.11050 0.52344
 C1217 C 0.63491 1.09149 0.53128
 C1218 C 0.64715 1.07900 0.55038
 C1219 C 0.66923 1.08637 0.55803
 H1220 H 0.67788 1.10061 0.54910
 O1221 O 0.52208 1.08313 0.61772
 O1222 O 0.52189 1.11020 0.64512
 C1223 C 0.52988 1.09125 0.63686
 C1224 C 0.54890 1.07880 0.64918
 C1225 C 0.55663 1.08627 0.67126
 H1226 H 0.54773 1.10053 0.67989
 O1227 O 0.47722 0.91488 0.61551
 O1228 O 0.47712 0.88745 0.64257
 C1229 C 0.46920 0.90650 0.63444
 C1230 C 0.45001 0.91867 0.64673
 C1231 C 0.44183 0.91040 0.66832
 H1232 H 0.45052 0.89580 0.67661
 O1233 O 0.61552 1.02241 0.58536
 O1234 O 0.64284 1.02223 0.61251
 C1235 C 0.63456 1.03026 0.59351
 C1236 C 0.64690 1.04917 0.58092
 C1237 C 0.66889 1.05687 0.58845
 H1238 H 0.67696 1.04874 0.60351
 O1239 O 0.38381 0.97616 0.58368
 O1240 O 0.35630 0.97592 0.61062
 C1241 C 0.36472 0.96817 0.59159
 C1242 C 0.35255 0.94930 0.57877
 C1243 C 0.33055 0.94140 0.58612
 H1244 H 0.32194 0.94998 0.60061
 O1245 O 0.58339 1.11481 0.52349
 O1246 O 0.61058 1.14199 0.52377
 C1247 C 0.59160 1.13369 0.53167
 C1248 C 0.57942 1.14579 0.55103
 C1249 C 0.58790 1.16712 0.55948
 H1250 H 0.60254 1.17533 0.55082
 O1251 O 0.41635 0.88404 0.52086
 O1252 O 0.38932 0.85670 0.52062
 C1253 C 0.40822 0.86498 0.52871
 C1254 C 0.42044 0.85269 0.54794
 C1255 C 0.41202 0.83126 0.55624
 H1256 H 0.39734 0.82309 0.54759
 O1257 O 0.58376 0.97667 0.61708
 O1258 O 0.61088 0.97636 0.64442
 C1259 C 0.59198 0.96843 0.63600
 C1260 C 0.57969 0.94901 0.64786
 C1261 C 0.58788 0.94008 0.66925
 H1262 H 0.60311 0.94774 0.67737
 O1263 O 0.41541 1.02146 0.61632
 O1264 O 0.38812 1.02116 0.64349
 C1265 C 0.40709 1.02927 0.63537
 C1266 C 0.41935 1.04831 0.64786
 C1267 C 0.41138 1.05618 0.66971
 H1268 H 0.39626 1.04803 0.67757
 O1269 O 0.47681 1.11497 0.58532
 O1270 O 0.47653 1.14221 0.61253
 C1271 C 0.46870 1.13391 0.59348
 C1272 C 0.44956 1.14599 0.58093
 C1273 C 0.44063 1.16724 0.58931
 H1274 H 0.44806 1.17502 0.60488
 O1275 O 0.52294 0.88321 0.58356
 O1276 O 0.52284 0.85566 0.61050
 C1277 C 0.53093 0.86417 0.59166
 C1278 C 0.55025 0.85222 0.57932
 C1279 C 0.55915 0.83092 0.58766
 H1280 H 0.55150 0.82291 0.60300
 O1281 O 0.61568 0.91644 0.52217
 O1282 O 0.64299 0.88936 0.52220
 C1283 C 0.63462 0.90826 0.53024
 C1284 C 0.64669 0.92043 0.54962
 C1285 C 0.66823 0.91224 0.55786
 H1286 H 0.67660 0.89773 0.54911
 O1287 O 0.38404 1.08321 0.52236
 O1288 O 0.35687 1.11042 0.52241
 C1289 C 0.36510 1.09144 0.53039
 C1290 C 0.35292 1.07913 0.54963
 C1291 C 0.33159 1.08751 0.55834
 H1292 H 0.32377 1.10290 0.55062
 Cu1293 Cu 0.50007 0.90185 0.59673
 Cu1294 Cu 0.49992 0.86886 0.62917
 Cu1295 Cu 0.49950 1.09634 0.59876
 Cu1296 Cu 0.49922 1.12894 0.63153
 Cu1297 Cu 0.40293 0.90278 0.49815
 Cu1298 Cu 0.37048 0.86995 0.49786
 Cu1299 Cu 0.59738 0.90303 0.49914
 Cu1300 Cu 0.63014 0.87051 0.49919
 Cu1301 Cu 0.40290 1.09641 0.49962
 Cu1302 Cu 0.37030 1.12909 0.49962
 Cu1303 Cu 0.59694 1.09656 0.50049
 Cu1304 Cu 0.62955 1.12923 0.50084
 Cu1305 Cu 0.40243 0.99879 0.59727
 Cu1306 Cu 0.36953 0.99848 0.62974
 Cu1307 Cu 0.59686 0.99961 0.59852
 Cu1308 Cu 0.62954 0.99934 0.63123
 C1309 C 0.56041 0.93840 0.63707
 H1310 H 0.55430 0.94487 0.62035
 C1311 C 0.57703 0.92074 0.67979
 C1312 C 0.43850 1.05947 0.63743
 H1313 H 0.44448 1.05377 0.62039
 C1314 C 0.42233 1.07493 0.68116
 C1315 C 0.36332 1.05966 0.56031
 H1316 H 0.37998 1.05339 0.55401
 C1317 C 0.32073 1.07669 0.57754
 C1318 C 0.63615 0.93948 0.56086
 H1319 H 0.61938 0.94570 0.55477
 C1320 C 0.67901 0.92247 0.57740
 C1321 C 0.56083 0.86284 0.55987
 H1322 H 0.55437 0.87947 0.55362
 C1323 C 0.57847 0.82035 0.57686
 C1324 C 0.43922 1.13559 0.56122
 H1325 H 0.44567 1.11897 0.55496
 C1326 C 0.42158 1.17805 0.57827
 C1327 C 0.43894 0.93789 0.63633
 H1328 H 0.44501 0.94419 0.61953
 C1329 C 0.42247 0.92071 0.67929
 C1330 C 0.56016 1.05995 0.63833
 H1331 H 0.55442 1.05423 0.62121
 C1332 C 0.57570 1.07543 0.68228
 C1333 C 0.43972 0.86295 0.55902
 H1334 H 0.44613 0.87964 0.55288
 C1335 C 0.42217 0.82035 0.57576
 C1336 C 0.56012 1.13550 0.56204
 H1337 H 0.55367 1.11889 0.55574
 C1338 C 0.57783 1.17790 0.57910
 C1339 C 0.36337 0.93842 0.55963
 H1340 H 0.38042 0.94428 0.55401
 C1341 C 0.31955 0.92257 0.57485
 C1342 C 0.63628 1.06023 0.56176
 H1343 H 0.61915 1.05462 0.55610
 C1344 C 0.68028 1.07541 0.57707
 O1345 O 0.47750 0.41650 0.88289
 O1346 O 0.47757 0.38932 0.85561
 C1347 C 0.46954 0.40827 0.86387
 C1348 C 0.45020 0.42039 0.85167
 C1349 C 0.44179 0.41196 0.83023
 H1350 H 0.45053 0.39741 0.82193
 O1351 O 0.52269 0.58403 0.88378
 O1352 O 0.52293 0.61137 0.85662
 C1353 C 0.53073 0.59228 0.86479
 C1354 C 0.54965 0.57976 0.85241
 C1355 C 0.55704 0.58708 0.83016
 H1356 H 0.54816 0.60141 0.82159
 O1357 O 0.38348 0.47722 0.91487
 O1358 O 0.35606 0.47742 0.88782
 C1359 C 0.36437 0.46943 0.90681
 C1360 C 0.35208 0.45052 0.91948
 C1361 C 0.32990 0.44296 0.91228
 H1362 H 0.32125 0.45172 0.89791
 O1363 O 0.61620 0.52235 0.91541
 O1364 O 0.64355 0.52276 0.88832
 C1365 C 0.63516 0.53050 0.90736
 C1366 C 0.64716 0.54955 0.92004
 C1367 C 0.66848 0.55849 0.91186
 H1368 H 0.67643 0.55110 0.89636
 O1369 O 0.41541 0.38379 0.97617
 O1370 O 0.38824 0.35659 0.97585
 C1371 C 0.40716 0.36495 0.96789
 C1372 C 0.41948 0.35306 0.94845
 C1373 C 0.41112 0.33185 0.93934
 H1374 H 0.39567 0.32397 0.94680
 O1375 O 0.58377 0.61466 0.97835
 O1376 O 0.61095 0.64187 0.97859
 C1377 C 0.59198 0.63371 0.97053
 C1378 C 0.57962 0.64621 0.95152
 C1379 C 0.58713 0.66836 0.94417
 H1380 H 0.60147 0.67677 0.95315
 O1381 O 0.41550 0.52272 0.88302
 O1382 O 0.38834 0.52303 0.85572
 C1383 C 0.40732 0.53089 0.86406
 C1384 C 0.41976 0.55014 0.85203
 C1385 C 0.41167 0.55889 0.83053
 H1386 H 0.39639 0.55124 0.82248
 O1387 O 0.58474 0.47699 0.88288
 O1388 O 0.61209 0.47706 0.85578
 C1389 C 0.59312 0.46903 0.86393
 C1390 C 0.58094 0.44979 0.85171
 C1391 C 0.58961 0.44076 0.83057
 H1392 H 0.60513 0.44827 0.82284
 O1393 O 0.52298 0.38443 0.91501
 O1394 O 0.52299 0.35711 0.88787
 C1395 C 0.53093 0.36539 0.90689
 C1396 C 0.54993 0.35309 0.91944
 C1397 C 0.55784 0.33121 0.91174
 H1398 H 0.54973 0.32313 0.89667
 O1399 O 0.47709 0.61597 0.91561
 O1400 O 0.47721 0.64344 0.88858
 C1401 C 0.46909 0.63499 0.90745
 C1402 C 0.44972 0.64692 0.91975
 C1403 C 0.44056 0.66808 0.91127
 H1404 H 0.44802 0.67602 0.89580
 O1405 O 0.38438 0.58326 0.97772
 O1406 O 0.35711 0.61039 0.97795
 C1407 C 0.36535 0.59146 0.96986
 C1408 C 0.35297 0.57919 0.95075
 C1409 C 0.33100 0.58693 0.94323
 H1410 H 0.32299 0.60177 0.95176
 O1411 O 0.61598 0.41588 0.97759
 O1412 O 0.64326 0.38877 0.97766
 C1413 C 0.63504 0.40777 0.96971
 C1414 C 0.64739 0.42022 0.95066
 C1415 C 0.66945 0.41273 0.94309
 H1416 H 0.67800 0.39847 0.95210
 O1417 O 0.47724 0.58387 0.88379
 O1418 O 0.47742 0.61120 0.85663
 C1419 C 0.46938 0.59219 0.86477
 C1420 C 0.45021 0.57999 0.85238
 C1421 C 0.44203 0.58831 0.83079
 H1422 H 0.45072 0.60294 0.82256
 O1423 O 0.52307 0.41625 0.88276
 O1424 O 0.52311 0.38899 0.85555
 C1425 C 0.53111 0.40794 0.86379
 C1426 C 0.55048 0.42000 0.85166
 C1427 C 0.55926 0.41134 0.83045
 H1428 H 0.55086 0.39653 0.82225
 O1429 O 0.61607 0.47691 0.91545
 O1430 O 0.64359 0.47716 0.88853
 C1431 C 0.63518 0.46908 0.90745
 C1432 C 0.64739 0.45008 0.92010
 C1433 C 0.66934 0.44219 0.91263
 H1434 H 0.67747 0.45024 0.89756
 O1435 O 0.38374 0.52259 0.91516
 O1436 O 0.35635 0.52294 0.88809
 C1437 C 0.36472 0.53066 0.90717
 C1438 C 0.35260 0.54955 0.92002
 C1439 C 0.33055 0.55748 0.91282
 H1440 H 0.32186 0.54903 0.89829
 O1441 O 0.41619 0.61533 0.97765
 O1442 O 0.38897 0.64250 0.97772
 C1443 C 0.40790 0.63428 0.96966
 C1444 C 0.41994 0.64650 0.95031
 C1445 C 0.41122 0.66772 0.94177
 H1446 H 0.39646 0.67578 0.95036
 O1447 O 0.58396 0.38397 0.97718
 O1448 O 0.61112 0.35675 0.97717
 C1449 C 0.59220 0.36504 0.96913
 C1450 C 0.57989 0.35290 0.94986
 C1451 C 0.58750 0.33096 0.94197
 H1452 H 0.60187 0.32239 0.95076
 O1453 O 0.58421 0.52248 0.88346
 O1454 O 0.61137 0.52269 0.85617
 C1455 C 0.59235 0.53055 0.86445
 C1456 C 0.57977 0.54958 0.85221
 C1457 C 0.58697 0.55721 0.83000
 H1458 H 0.60170 0.54887 0.82160
 O1459 O 0.41535 0.47717 0.88281
 O1460 O 0.38816 0.47725 0.85555
 C1461 C 0.40710 0.46919 0.86381
 C1462 C 0.41946 0.44997 0.85165
 C1463 C 0.41108 0.44103 0.83033
 H1464 H 0.39558 0.44849 0.82251
 O1465 O 0.52261 0.61555 0.91626
 O1466 O 0.52285 0.64309 0.88931
 C1467 C 0.53066 0.63461 0.90832
 C1468 C 0.54964 0.64669 0.92111
 C1469 C 0.55745 0.66881 0.91396
 H1470 H 0.54927 0.67728 0.89914
 O1471 O 0.47742 0.38447 0.91492
 O1472 O 0.47751 0.35724 0.88769
 C1473 C 0.46946 0.36551 0.90665
 C1474 C 0.45013 0.35332 0.91875
 C1475 C 0.44176 0.33198 0.91016
 H1476 H 0.45051 0.32379 0.89553
 O1477 O 0.61573 0.58264 0.97828
 O1478 O 0.64294 0.60980 0.97854
 C1479 C 0.63471 0.59092 0.97038
 C1480 C 0.64694 0.57894 0.95099
 C1481 C 0.66832 0.58748 0.94269
 H1482 H 0.67650 0.60209 0.95146
 O1483 O 0.38369 0.41592 0.97665
 O1484 O 0.35638 0.38886 0.97659
 C1485 C 0.36464 0.40787 0.96873
 C1486 C 0.35226 0.42047 0.94981
 C1487 C 0.33018 0.41306 0.94230
 H1488 H 0.32205 0.39819 0.95068
 Cu1489 Cu 0.50026 0.40315 0.90161
 Cu1490 Cu 0.50029 0.37045 0.86894
 Cu1491 Cu 0.49991 0.59715 0.90259
 Cu1492 Cu 0.50016 0.63003 0.87007
 Cu1493 Cu 0.40226 0.49989 0.90164
 Cu1494 Cu 0.36952 0.50019 0.86902
 Cu1495 Cu 0.59757 0.49966 0.90199
 Cu1496 Cu 0.63040 0.49996 0.86947
 C1497 C 0.43910 0.43959 0.86208
 H1498 H 0.44536 0.44602 0.87875
 C1499 C 0.42210 0.42194 0.81949
 C1500 C 0.56097 0.56085 0.86317
 H1501 H 0.55552 0.55529 0.88043
 C1502 C 0.57565 0.57589 0.81878
 C1503 C 0.36297 0.43933 0.93842
 H1504 H 0.38016 0.44489 0.94391
 C1505 C 0.31877 0.42424 0.92362
 C1506 C 0.63663 0.55980 0.93971
 H1507 H 0.61999 0.55331 0.94585
 C1508 C 0.67915 0.57754 0.92303
 C1509 C 0.43906 0.36358 0.93808
 H1510 H 0.44531 0.38015 0.94465
 C1511 C 0.42213 0.32118 0.92012
 C1512 C 0.56073 0.63565 0.94003
 H1513 H 0.55503 0.61846 0.94545
 C1514 C 0.57615 0.67983 0.92543
 C1515 C 0.43913 0.56073 0.86272
 H1516 H 0.44519 0.55438 0.87951
 C1517 C 0.42267 0.57802 0.81977
 C1518 C 0.56127 0.43940 0.86199
 H1519 H 0.55476 0.44597 0.87850
 C1520 C 0.57893 0.42145 0.81984
 C1521 C 0.56095 0.36368 0.93862
 H1522 H 0.55517 0.38070 0.94445
 C1523 C 0.57657 0.31994 0.92293
 C1524 C 0.43935 0.63638 0.93937
 H1525 H 0.44598 0.61986 0.94574
 C1526 C 0.42120 0.67855 0.92213
 C1527 C 0.36353 0.56037 0.93917
 H1528 H 0.38065 0.55455 0.94467
 C1529 C 0.31957 0.57616 0.92437
 C1530 C 0.63665 0.43907 0.93923
 H1531 H 0.61955 0.44479 0.94485
 C1532 C 0.68061 0.42358 0.92407
 O1533 O 0.52196 0.41417 1.11708
 O1534 O 0.52179 0.38680 1.14422
 C1535 C 0.52971 0.40589 1.13618
 C1536 C 0.54844 0.41842 1.14882
 C1537 C 0.55567 0.41110 1.17114
 H1538 H 0.54682 0.39669 1.17959
 O1539 O 0.47700 0.58339 1.11770
 O1540 O 0.47679 0.61047 1.14510
 C1541 C 0.46898 0.59147 1.13676
 C1542 C 0.45004 0.57882 1.14896
 C1543 C 0.44231 0.58607 1.17110
 H1544 H 0.45105 0.60040 1.17978
 O1545 O 0.38426 0.52192 1.08498
 O1546 O 0.35691 0.52186 1.11208
 C1547 C 0.36528 0.52990 1.09314
 C1548 C 0.35321 0.54920 1.08089
 C1549 C 0.33187 0.55774 1.08928
 H1550 H 0.32359 0.54921 1.10401
 O1551 O 0.61484 0.47616 1.08624
 O1552 O 0.64202 0.47589 1.11353
 C1553 C 0.63379 0.46811 1.09442
 C1554 C 0.64602 0.44913 1.08183
 C1555 C 0.66746 0.44056 1.09004
 H1556 H 0.67528 0.44814 1.10552
 O1557 O 0.58363 0.38363 1.02286
 O1558 O 0.61083 0.35643 1.02282
 C1559 C 0.59181 0.36459 1.03076
 C1560 C 0.57951 0.35218 1.04987
 C1561 C 0.58782 0.33064 1.05805
 H1562 H 0.60244 0.32247 1.04931
 O1563 O 0.41653 0.61515 1.02331
 O1564 O 0.38941 0.64242 1.02330
 C1565 C 0.40838 0.63415 1.03126
 C1566 C 0.42063 0.64640 1.05047
 C1567 C 0.41244 0.66800 1.05854
 H1568 H 0.39800 0.67633 1.04964
 O1569 O 0.41567 0.47604 1.11706
 O1570 O 0.38834 0.47589 1.14418
 C1571 C 0.40727 0.46788 1.13594
 C1572 C 0.41937 0.44847 1.14802
 C1573 C 0.41100 0.43978 1.16944
 H1574 H 0.39574 0.44761 1.17735
 O1575 O 0.58301 0.52146 1.11855
 O1576 O 0.60999 0.52125 1.14604
 C1577 C 0.59109 0.52928 1.13770
 C1578 C 0.57859 0.54826 1.15001
 C1579 C 0.58573 0.55569 1.17230
 H1580 H 0.60036 0.54721 1.18074
 O1581 O 0.47677 0.38260 1.08437
 O1582 O 0.47655 0.35500 1.11126
 C1583 C 0.46868 0.36355 1.09231
 C1584 C 0.44952 0.35164 1.07965
 C1585 C 0.44053 0.33030 1.08779
 H1586 H 0.44797 0.32225 1.10323
 O1587 O 0.52267 0.61528 1.08609
 O1588 O 0.52271 0.64254 1.11329
 C1589 C 0.53075 0.63419 1.09434
 C1590 C 0.55008 0.64611 1.08198
 C1591 C 0.55909 0.66738 1.09029
 H1592 H 0.55158 0.67538 1.10570
 O1593 O 0.38372 0.41520 1.02233
 O1594 O 0.35647 0.38807 1.02229
 C1595 C 0.36481 0.40694 1.03043
 C1596 C 0.35281 0.41919 1.04985
 C1597 C 0.33134 0.41105 1.05853
 H1598 H 0.32333 0.39581 1.05076
 O1599 O 0.61541 0.58233 1.02407
 O1600 O 0.64267 0.60944 1.02423
 C1601 C 0.63432 0.59052 1.03222
 C1602 C 0.64629 0.57836 1.05171
 C1603 C 0.66754 0.58684 1.06039
 H1604 H 0.67585 0.60150 1.05182
 O1605 O 0.52229 0.58335 1.11808
 O1606 O 0.52220 0.61041 1.14549
 C1607 C 0.53005 0.59138 1.13726
 C1608 C 0.54874 0.57867 1.14976
 C1609 C 0.55603 0.58580 1.17209
 H1610 H 0.54722 0.60016 1.18065
 O1611 O 0.47661 0.41427 1.11665
 O1612 O 0.47636 0.38682 1.14370
 C1613 C 0.46853 0.40592 1.13557
 C1614 C 0.44941 0.41825 1.14784
 C1615 C 0.44102 0.41001 1.16938
 H1616 H 0.44953 0.39530 1.17766
 O1617 O 0.61495 0.52161 1.08657
 O1618 O 0.64210 0.52150 1.11388
 C1619 C 0.63389 0.52955 1.09486
 C1620 C 0.64608 0.54872 1.08250
 C1621 C 0.66728 0.55761 1.09105
 H1622 H 0.67502 0.55010 1.10661
 O1623 O 0.38438 0.47645 1.08440
 O1624 O 0.35696 0.47640 1.11144
 C1625 C 0.36531 0.46853 1.09241
 C1626 C 0.35307 0.44951 1.07991
 C1627 C 0.33148 0.44140 1.08803
 H1628 H 0.32318 0.45016 1.10260
 O1629 O 0.58365 0.61449 1.02404
 O1630 O 0.61091 0.64161 1.02414
 C1631 C 0.59192 0.63342 1.03208
 C1632 C 0.57980 0.64569 1.05137
 C1633 C 0.58835 0.66704 1.05971
 H1634 H 0.60302 0.67517 1.05100
 O1635 O 0.41594 0.38357 1.02186
 O1636 O 0.38880 0.35633 1.02160
 C1637 C 0.40775 0.36451 1.02967
 C1638 C 0.41991 0.35214 1.04888
 C1639 C 0.41138 0.33073 1.05711
 H1640 H 0.39673 0.32262 1.04835
 O1641 O 0.58289 0.47596 1.11820
 O1642 O 0.60988 0.47570 1.14567
 C1643 C 0.59094 0.46784 1.13724
 C1644 C 0.57836 0.44876 1.14934
 C1645 C 0.58542 0.44115 1.17160
 H1646 H 0.60004 0.44955 1.18012
 O1647 O 0.41602 0.52165 1.11720
 O1648 O 0.38877 0.52148 1.14440
 C1649 C 0.40775 0.52950 1.13625
 C1650 C 0.42009 0.54851 1.14871
 C1651 C 0.41243 0.55616 1.17075
 H1652 H 0.39750 0.54786 1.17881
 O1653 O 0.47721 0.61543 1.08578
 O1654 O 0.47703 0.64272 1.11295
 C1655 C 0.46919 0.63441 1.09390
 C1656 C 0.45017 0.64655 1.08127
 C1657 C 0.44150 0.66804 1.08932
 H1658 H 0.44906 0.67602 1.10472
 O1659 O 0.52229 0.38263 1.08468
 O1660 O 0.52223 0.35508 1.11162
 C1661 C 0.53031 0.36361 1.09276
 C1662 C 0.54962 0.35169 1.08035
 C1663 C 0.55843 0.33028 1.08850
 H1664 H 0.55079 0.32223 1.10383
 O1665 O 0.61541 0.41575 1.02332
 O1666 O 0.64268 0.38864 1.02335
 C1667 C 0.63432 0.40752 1.03144
 C1668 C 0.64629 0.41964 1.05094
 C1669 C 0.66781 0.41146 1.05930
 H1670 H 0.67625 0.39699 1.05056
 O1671 O 0.38423 0.58355 1.02346
 O1672 O 0.35708 0.61078 1.02359
 C1673 C 0.36534 0.59182 1.03157
 C1674 C 0.35324 0.57958 1.05089
 C1675 C 0.33199 0.58806 1.05973
 H1676 H 0.32420 0.60348 1.05206
 Cu1677 Cu 0.49943 0.40113 1.09797
 Cu1678 Cu 0.49922 0.36813 1.13038
 Cu1679 Cu 0.49980 0.59668 1.09916
 Cu1680 Cu 0.49966 0.62931 1.13193
 Cu1681 Cu 0.40241 0.40234 0.99926
 Cu1682 Cu 0.36976 0.36972 0.99906
 Cu1683 Cu 0.59703 0.40253 1.00021
 Cu1684 Cu 0.62971 0.36993 1.00025
 Cu1685 Cu 0.40305 0.59657 1.00054
 Cu1686 Cu 0.37042 0.62926 1.00064
 Cu1687 Cu 0.59692 0.59579 1.00114
 Cu1688 Cu 0.62962 0.62837 1.00138
 Cu1689 Cu 0.40286 0.49904 1.09823
 Cu1690 Cu 0.36999 0.49890 1.13074
 Cu1691 Cu 0.59621 0.49883 1.09967
 Cu1692 Cu 0.62874 0.49855 1.13253
 C1693 C 0.55974 0.43741 1.13820
 H1694 H 0.55441 0.44298 1.12090
 C1695 C 0.57411 0.42240 1.18271
 C1696 C 0.43900 0.55985 1.13806
 H1697 H 0.44475 0.55430 1.12089
 C1698 C 0.42348 0.57489 1.18217
 C1699 C 0.36361 0.56006 1.06151
 H1700 H 0.38021 0.55372 1.05510
 C1701 C 0.32118 0.57729 1.07899
 C1702 C 0.63567 0.43865 1.06217
 H1703 H 0.61893 0.44488 1.05600
 C1704 C 0.67847 0.42169 1.07893
 C1705 C 0.56022 0.36242 1.06095
 H1706 H 0.55388 0.37915 1.05487
 C1707 C 0.57759 0.31962 1.07749
 C1708 C 0.43968 0.63595 1.06175
 H1709 H 0.44591 0.61915 1.05575
 C1710 C 0.42257 0.67888 1.07808
 C1711 C 0.43866 0.43767 1.13746
 H1712 H 0.44490 0.44397 1.12073
 C1713 C 0.42170 0.42052 1.18028
 C1714 C 0.55996 0.55974 1.13900
 H1715 H 0.55458 0.55433 1.12166
 C1716 C 0.57450 0.57441 1.18353
 C1717 C 0.43916 0.36233 1.06009
 H1718 H 0.44564 0.37901 1.05400
 C1719 C 0.42137 0.31976 1.07667
 C1720 C 0.56050 0.63550 1.06243
 H1721 H 0.55399 0.61889 1.05621
 C1722 C 0.57833 0.67794 1.07929
 C1723 C 0.36346 0.43849 1.06062
 H1724 H 0.38023 0.44455 1.05440
 C1725 C 0.32055 0.42203 1.07770
 C1726 C 0.63583 0.55913 1.06272
 H1727 H 0.61928 0.55269 1.05630
 C1728 C 0.67809 0.57676 1.08016
 C1729 C 1.11541 1.11707 1.26653
 C1730 C 1.10609 1.13734 1.27656
 C1731 C 1.11525 1.14579 1.29747
 C1732 C 1.13385 1.13421 1.30859
 C1733 C 1.14241 1.11369 1.29808
 N1734 N 1.13304 1.10574 1.27771
 C1735 C 1.10626 1.10769 1.24425
 N1736 N 1.10644 1.08424 1.24048
 C1737 C 1.09794 1.07456 1.22047
 C1738 C 1.08862 1.08877 1.20272
 C1739 C 1.08883 1.11303 1.20611
 C1740 C 1.09755 1.12252 1.22677
 H1741 H 1.10774 1.16152 1.30477
 H1742 H 1.15653 1.10393 1.30596
 H1743 H 1.09811 1.05578 1.21867
 H1744 H 1.08255 1.12476 1.19266
 H1745 H 1.09162 1.14647 1.26854
 H1746 H 1.09782 1.14128 1.22880
 C1747 C 1.11640 0.61258 0.76740
 C1748 C 1.13749 0.60446 0.77684
 C1749 C 1.14567 0.61372 0.79782
 C1750 C 1.13293 0.63105 0.80954
 C1751 C 1.11168 0.63837 0.79974
 N1752 N 1.10404 0.62904 0.77926
 C1753 C 1.10719 0.60350 0.74503
 N1754 N 1.08374 0.60339 0.74130
 C1755 C 1.07414 0.59520 0.72115
 C1756 C 1.08843 0.58652 0.70320
 C1757 C 1.11266 0.58697 0.70653
 C1758 C 1.12208 0.59541 0.72733
 H1759 H 1.16205 0.60737 0.80476
 H1760 H 1.10117 0.65153 0.80827
 H1761 H 1.05536 0.59514 0.71936
 H1762 H 1.12440 0.58113 0.69291
 H1763 H 1.14748 0.59089 0.76833
 H1764 H 1.14083 0.59598 0.72925
 C1765 C 0.61243 1.11010 0.76942
 C1766 C 0.63163 1.09959 0.78034
 C1767 C 0.64132 1.10982 0.80020
 C1768 C 0.63188 1.13051 0.80948
 C1769 C 0.61246 1.14034 0.79804
 N1770 N 0.60356 1.13018 0.77848
 C1771 C 0.60234 1.10048 0.74769
 N1772 N 0.59324 1.11536 0.73153
 C1773 C 0.58440 1.10781 0.71081
 C1774 C 0.58433 1.08389 0.70533
 C1775 C 0.59311 1.06823 0.72206
 C1776 C 0.60214 1.07642 0.74317
 H1777 H 0.65629 1.10147 0.80815
 H1778 H 0.60453 1.15629 0.80432
 H1779 H 0.57802 1.12058 0.69843
 H1780 H 0.59287 1.04961 0.71891
 H1781 H 0.63953 1.08396 0.77329
 H1782 H 0.60865 1.06402 0.75587
 C1783 C 0.60848 0.60728 1.27244
 C1784 C 0.62506 0.59483 1.28551
 C1785 C 0.63465 0.60486 1.30552
 C1786 C 0.62779 0.62726 1.31267
 C1787 C 0.61092 0.63901 1.29932
 N1788 N 0.60201 0.62896 1.27970
 C1789 C 0.59894 0.59805 1.25025
 N1790 N 0.59182 0.61337 1.23351
 C1791 C 0.58370 0.60627 1.21234
 C1792 C 0.58246 0.58240 1.20693
 C1793 C 0.58924 0.56629 1.22413
 C1794 C 0.59741 0.57400 1.24577
 H1795 H 0.64766 0.59516 1.31519
 H1796 H 0.60521 0.65635 1.30410
 H1797 H 0.57880 0.61933 1.19957
 H1798 H 0.58804 0.54771 1.22092
 H1799 H 0.63124 0.57787 1.28001
 H1800 H 0.60221 0.56122 1.25884
 C1801 C 0.88902 0.89130 1.26912
 C1802 C 0.87075 0.90269 1.28073
 C1803 C 0.86131 0.89287 1.30094
 C1804 C 0.87005 0.87170 1.30985
 C1805 C 0.88856 0.86100 1.29771
 N1806 N 0.89724 0.87080 1.27787
 C1807 C 0.89881 0.90044 1.24702
 N1808 N 0.90714 0.88515 1.23085
 C1809 C 0.91571 0.89224 1.20984
 C1810 C 0.91628 0.91607 1.20406
 C1811 C 0.90831 0.93215 1.22078
 C1812 C 0.89956 0.92444 1.24219
 H1813 H 0.84704 0.90188 1.30944
 H1814 H 0.89594 0.84467 1.30368
 H1815 H 0.92150 0.87918 1.19748
 H1816 H 0.90897 0.95072 1.21739
 H1817 H 0.86332 0.91868 1.27398
 H1818 H 0.89373 0.93717 1.25488
 C1819 C 0.88475 0.38863 0.76748
 C1820 C 0.86477 0.39844 0.77760
 C1821 C 0.85629 0.38954 0.79862
 C1822 C 0.86756 0.37073 0.80971
 C1823 C 0.88794 0.36185 0.79922
 N1824 N 0.89590 0.37092 0.77872
 C1825 C 0.89389 0.39712 0.74486
 N1826 N 0.91725 0.39641 0.74069
 C1827 C 0.92669 0.40410 0.72025
 C1828 C 0.91231 0.41306 0.70246
 C1829 C 0.88813 0.41336 0.70628
 C1830 C 0.87890 0.40550 0.72738
 H1831 H 0.84070 0.39730 0.80594
 H1832 H 0.89750 0.34759 0.80711
 H1833 H 0.94542 0.40359 0.71812
 H1834 H 0.87628 0.41938 0.69283
 H1835 H 0.85583 0.41298 0.76949
 H1836 H 0.86019 0.40558 0.72976
 C1837 C 0.38788 0.88362 0.76636
 C1838 C 0.39615 0.86268 0.77603
 C1839 C 0.38672 0.85447 0.79693
 C1840 C 0.36906 0.86702 0.80834
 C1841 C 0.36172 0.88823 0.79843
 N1842 N 0.37120 0.89589 0.77800
 C1843 C 0.39685 0.89262 0.74385
 N1844 N 0.39687 0.91604 0.73981
 C1845 C 0.40485 0.92541 0.71945
 C1846 C 0.41337 0.91090 0.70158
 C1847 C 0.41301 0.88668 0.70525
 C1848 C 0.40482 0.87751 0.72627
 H1849 H 0.39312 0.83814 0.80397
 H1850 H 0.34832 0.89861 0.80673
 H1851 H 0.40485 0.94417 0.71741
 H1852 H 0.41871 0.87476 0.69173
 H1853 H 0.40989 0.85278 0.76769
 H1854 H 0.40430 0.85877 0.72845
 C1855 C 0.38591 0.38364 1.26699
 C1856 C 0.39549 0.36370 1.27742
 C1857 C 0.38611 0.35525 1.29822
 C1858 C 0.36702 0.36649 1.30882
 C1859 C 0.35836 0.38685 1.29806
 N1860 N 0.36791 0.39479 1.27775
 C1861 C 0.39500 0.39267 1.24454
 N1862 N 0.39484 0.41604 1.24034
 C1863 C 0.40318 0.42533 1.22008
 C1864 C 0.41226 0.41077 1.20249
 C1865 C 0.41205 0.38658 1.20637
 C1866 C 0.40353 0.37751 1.22729
 H1867 H 0.39376 0.33969 1.30576
 H1868 H 0.34389 0.39637 1.30557
 H1869 H 0.40306 0.44408 1.21793
 H1870 H 0.41813 0.37459 1.19308
 H1871 H 0.41023 0.35477 1.26971
 H1872 H 0.40323 0.35878 1.22970
 C1873 C 0.88914 1.10992 0.72978
 C1874 C 0.87117 1.09807 0.71815
 C1875 C 0.86117 1.10786 0.69821
 C1876 C 0.86899 1.12950 0.68960
 C1877 C 0.88729 1.14062 0.70167
 N1878 N 0.89655 1.13082 0.72126
 C1879 C 0.89929 1.10087 0.75179
 N1880 N 0.90736 1.11625 0.76801
 C1881 C 0.91596 1.10924 0.78905
 C1882 C 0.91672 1.08542 0.79484
 C1883 C 0.90909 1.06925 0.77806
 C1884 C 0.90040 1.07687 0.75658
 H1885 H 0.84711 1.09848 0.68976
 H1886 H 0.89399 1.15731 0.69590
 H1887 H 0.92154 1.12235 0.80145
 H1888 H 0.90993 1.05070 0.78149
 H1889 H 0.86433 1.08174 0.72472
 H1890 H 0.89481 1.06406 0.74387
 C1891 C 0.88713 0.61681 0.23400
 C1892 C 0.89579 0.63757 0.22432
 C1893 C 0.88647 0.64596 0.20344
 C1894 C 0.86852 0.63378 0.19207
 C1895 C 0.86074 0.61276 0.20204
 N1896 N 0.87014 0.60489 0.22244
 C1897 C 0.89612 0.60763 0.25645
 N1898 N 0.89624 0.58419 0.26030
 C1899 C 0.90441 0.57469 0.28054
 C1900 C 0.91307 0.58909 0.29844
 C1901 C 0.91256 0.61333 0.29496
 C1902 C 0.90417 0.62263 0.27407
 H1903 H 0.89321 0.66214 0.19637
 H1904 H 0.84710 0.60267 0.19377
 H1905 H 0.90451 0.55591 0.28242
 H1906 H 0.91834 0.62518 0.30852
 H1907 H 0.90975 0.64718 0.23262
 H1908 H 0.90360 0.64139 0.27201
 C1909 C 0.38954 1.11452 0.23117
 C1910 C 0.39857 1.13478 0.22083
 C1911 C 0.38901 1.14302 0.20000
 C1912 C 0.37033 1.13121 0.18929
 C1913 C 0.36230 1.11053 0.19993
 N1914 N 0.37198 1.10285 0.22026
 C1915 C 0.39861 1.10567 0.25370
 N1916 N 0.39827 1.08233 0.25809
 C1917 C 0.40624 1.07314 0.27854
 C1918 C 0.41508 1.08778 0.29617
 C1919 C 0.41512 1.11194 0.29209
 C1920 C 0.40700 1.12091 0.27095
 H1921 H 0.39615 1.15884 0.19253
 H1922 H 0.34818 1.10057 0.19233
 H1923 H 0.40596 1.05441 0.28084
 H1924 H 0.42106 1.12399 0.30539
 H1925 H 0.41298 1.14415 0.22864
 H1926 H 0.40681 1.13962 0.26843
 C1927 C 0.38769 0.61540 0.73293
 C1928 C 0.39645 0.63605 0.72311
 C1929 C 0.38712 0.64441 0.70223
 C1930 C 0.36905 0.63230 0.69097
 C1931 C 0.36117 0.61137 0.70106
 N1932 N 0.37059 0.60354 0.72147
 C1933 C 0.39668 0.60629 0.75541
 N1934 N 0.39663 0.58287 0.75941
 C1935 C 0.40475 0.57345 0.77970
 C1936 C 0.41349 0.58790 0.79753
 C1937 C 0.41320 0.61212 0.79388
 C1938 C 0.40487 0.62134 0.77293
 H1939 H 0.39394 0.66051 0.69508
 H1940 H 0.34743 0.60133 0.69288
 H1941 H 0.40469 0.55468 0.78171
 H1942 H 0.41906 0.62401 0.80736
 H1943 H 0.41050 0.64561 0.73132
 H1944 H 0.40444 0.64009 0.77075
 C1945 C 1.11633 0.88410 0.73405
 C1946 C 1.10745 0.86333 0.72466
 C1947 C 1.11617 0.85492 0.70357
 C1948 C 1.13378 0.86709 0.69165
 C1949 C 1.14204 0.88798 0.70147
 N1950 N 1.13314 0.89592 0.72208
 C1951 C 1.10743 0.89358 0.75639
 N1952 N 1.10711 0.91708 0.75983
 C1953 C 1.09856 0.92684 0.77977
 C1954 C 1.08963 0.91268 0.79774
 C1955 C 1.09038 0.88839 0.79472
 C1956 C 1.09923 0.87881 0.77418
 H1957 H 1.10910 0.83882 0.69667
 H1958 H 1.15545 0.89803 0.69279
 H1959 H 1.09833 0.94565 0.78133
 H1960 H 1.08439 0.87675 0.80838
 H1961 H 1.09360 0.85380 0.73326
 H1962 H 1.09993 0.86003 0.77245
 C1963 C 1.11227 0.38502 0.23235
 C1964 C 1.10282 0.36494 0.22204
 C1965 C 1.11216 0.35654 0.20117
 C1966 C 1.13108 0.36797 0.19046
 C1967 C 1.13965 0.38837 0.20119
 N1968 N 1.13012 0.39627 0.22149
 C1969 C 1.10324 0.39420 0.25474
 N1970 N 1.10373 0.41759 0.25881
 C1971 C 1.09566 0.42709 0.27907
 C1972 C 1.08657 0.41273 0.29681
 C1973 C 1.08646 0.38851 0.29308
 C1974 C 1.09466 0.37922 0.27213
 H1975 H 1.10465 0.34092 0.19366
 H1976 H 1.15398 0.39804 0.19361
 H1977 H 1.09603 0.44584 0.28110
 H1978 H 1.08035 0.37665 0.30649
 H1979 H 1.08821 0.35590 0.22985
 H1980 H 1.09473 0.36048 0.26983
 C1981 C 0.61564 0.88343 0.23288
 C1982 C 0.60636 0.86306 0.22301
 C1983 C 0.61539 0.85459 0.20206
 C1984 C 0.63381 0.86625 0.19074
 C1985 C 0.64229 0.88690 0.20106
 N1986 N 0.63307 0.89486 0.22150
 C1987 C 0.60668 0.89280 0.25524
 N1988 N 0.60688 0.91625 0.25902
 C1989 C 0.59854 0.92592 0.27909
 C1990 C 0.58934 0.91170 0.29689
 C1991 C 0.58958 0.88744 0.29351
 C1992 C 0.59815 0.87796 0.27280
 H1993 H 0.60795 0.83877 0.19490
 H1994 H 0.65626 0.89673 0.19302
 H1995 H 0.59869 0.94470 0.28090
 H1996 H 0.58340 0.87571 0.30700
 H1997 H 0.59204 0.85387 0.23119
 H1998 H 0.59844 0.85920 0.27078
 C1999 C 0.61595 0.38247 0.73462
 C2000 C 0.60765 0.36141 0.72532
 C2001 C 0.61685 0.35299 0.70442
 C2002 C 0.63434 0.36544 0.69261
 C2003 C 0.64194 0.38664 0.70232
 N2004 N 0.63262 0.39455 0.72273
 C2005 C 0.60670 0.39196 0.75684
 N2006 N 0.60641 0.41547 0.76026
 C2007 C 0.59780 0.42528 0.78014
 C2008 C 0.58880 0.41116 0.79811
 C2009 C 0.58947 0.38687 0.79510
 C2010 C 0.59837 0.37724 0.77459
 H2011 H 0.61027 0.33666 0.69758
 H2012 H 0.65523 0.39693 0.69372
 H2013 H 0.59762 0.44409 0.78169
 H2014 H 0.58342 0.37525 0.80875
 H2015 H 0.59392 0.35164 0.73383
 H2016 H 0.59905 0.35845 0.77292
 C2017 C 1.26906 1.10835 1.11263
 C2018 C 1.28095 1.09711 1.13090
 C2019 C 1.30115 1.10713 1.14009
 C2020 C 1.30973 1.12830 1.13107
 C2021 C 1.29731 1.13881 1.11258
 N2022 N 1.27753 1.12884 1.10417
 C2023 C 1.24698 1.09914 1.10299
 N2024 N 1.23101 1.11442 1.09428
 C2025 C 1.21014 1.10736 1.08555
 C2026 C 1.20428 1.08356 1.08517
 C2027 C 1.22078 1.06748 1.09357
 C2028 C 1.24206 1.07517 1.10251
 H2029 H 1.30990 1.09828 1.15436
 H2030 H 1.30300 1.15514 1.10497
 H2031 H 1.19795 1.12043 1.07947
 H2032 H 1.21732 1.04892 1.09308
 H2033 H 1.27443 1.08111 1.13851
 H2034 H 1.25459 1.06245 1.10865
 C2035 C 1.26552 0.61467 0.61419
 C2036 C 1.27552 0.63451 0.60400
 C2037 C 1.29646 0.64315 0.61265
 C2038 C 1.30769 0.63218 0.63161
 C2039 C 1.29731 0.61193 0.64094
 N2040 N 1.27683 0.60379 0.63207
 C2041 C 1.24301 0.60542 0.60570
 N2042 N 1.23902 0.58201 0.60600
 C2043 C 1.21883 0.57255 0.59785
 C2044 C 1.20116 0.58694 0.58874
 C2045 C 1.20476 0.61116 0.58893
 C2046 C 1.22558 0.62042 0.59731
 H2047 H 1.30365 0.65862 0.60451
 H2048 H 1.30531 0.60263 0.65535
 H2049 H 1.21682 0.55378 0.59806
 H2050 H 1.19138 0.62302 0.58283
 H2051 H 1.26737 0.64322 0.58931
 H2052 H 1.22782 0.63917 0.59751
 C2053 C 0.76801 1.10911 0.61282
 C2054 C 0.78024 1.09751 0.63063
 C2055 C 0.80029 1.10758 0.64000
 C2056 C 0.80841 1.12924 0.63172
 C2057 C 0.79566 1.14015 0.61371
 N2058 N 0.77602 1.13007 0.60505
 C2059 C 0.74605 1.09968 0.60306
 N2060 N 0.72976 1.11480 0.59467
 C2061 C 0.70892 1.10750 0.58605
 C2062 C 0.70341 1.08362 0.58551
 C2063 C 0.72020 1.06771 0.59358
 C2064 C 0.74148 1.07563 0.60233
 H2065 H 0.80927 1.09837 0.65389
 H2066 H 0.80101 1.15686 0.60669
 H2067 H 0.69648 1.12043 0.58019
 H2068 H 0.71698 1.04911 0.59295
 H2069 H 0.77410 1.08115 0.63777
 H2070 H 0.75424 1.06301 0.60816
 C2071 C 0.76382 0.61562 1.11531
 C2072 C 0.77302 0.63632 1.10602
 C2073 C 0.79398 0.64502 1.11462
 C2074 C 0.80597 0.63322 1.13247
 C2075 C 0.79644 0.61227 1.14097
 N2076 N 0.77592 0.60408 1.13225
 C2077 C 0.74141 0.60609 1.10683
 N2078 N 0.73789 0.58259 1.10683
 C2079 C 0.71784 0.57282 1.09869
 C2080 C 0.69985 0.58697 1.08987
 C2081 C 0.70293 0.61125 1.09038
 C2082 C 0.72358 0.62083 1.09881
 H2083 H 0.80067 0.66112 1.10733
 H2084 H 0.80519 0.60248 1.15458
 H2085 H 0.71619 0.55401 1.09866
 H2086 H 0.68927 0.62288 1.08449
 H2087 H 0.76431 0.64562 1.09205
 H2088 H 0.72537 0.63962 1.09931
 C2089 C 1.26802 0.89040 0.88647
 C2090 C 1.27992 0.90139 0.86807
 C2091 C 1.29993 0.89108 0.85881
 C2092 C 1.30833 0.86983 0.86787
 C2093 C 1.29588 0.85955 0.88645
 N2094 N 1.27628 0.86982 0.89495
 C2095 C 1.24618 0.90005 0.89622
 N2096 N 1.22993 0.88513 0.90500
 C2097 C 1.20924 0.89264 0.91382
 C2098 C 1.20388 0.91656 0.91423
 C2099 C 1.22066 0.93228 0.90574
 C2100 C 1.24174 0.92413 0.89671
 H2101 H 1.30869 0.89978 0.84446
 H2102 H 1.30143 0.84317 0.89408
 H2103 H 1.19682 0.87983 0.91995
 H2104 H 1.21760 0.95091 0.90623
 H2105 H 1.27357 0.91746 0.86044
 H2106 H 1.25450 0.93658 0.89052
 C2107 C 1.26459 0.38457 0.38552
 C2108 C 1.27456 0.36455 0.39543
 C2109 C 1.29534 0.35582 0.38648
 C2110 C 1.30646 0.36687 0.36751
 C2111 C 1.29613 0.38727 0.35846
 N2112 N 1.27580 0.39550 0.36760
 C2113 C 1.24224 0.39394 0.39433
 N2114 N 1.23836 0.41737 0.39404
 C2115 C 1.21832 0.42696 0.40240
 C2116 C 1.20067 0.41268 0.41171
 C2117 C 1.20417 0.38844 0.41157
 C2118 C 1.22484 0.37905 0.40297
 H2119 H 1.30250 0.34023 0.39442
 H2120 H 1.30404 0.39663 0.34405
 H2121 H 1.21640 0.44573 0.40216
 H2122 H 1.19079 0.37667 0.41783
 H2123 H 1.26652 0.35579 0.41014
 H2124 H 1.22697 0.36029 0.40277
 C2125 C 0.76971 0.89141 0.38883
 C2126 C 0.78263 0.90383 0.37211
 C2127 C 0.80279 0.89400 0.36275
 C2128 C 0.81025 0.87179 0.36993
 C2129 C 0.79690 0.85996 0.38678
 N2130 N 0.77717 0.86985 0.39553
 C2131 C 0.74761 0.90066 0.39849
 N2132 N 0.73103 0.88540 0.40597
 C2133 C 0.71001 0.89257 0.41430
 C2134 C 0.70460 0.91646 0.41539
 C2135 C 0.72166 0.93250 0.40826
 C2136 C 0.74313 0.92472 0.39989
 H2137 H 0.81241 0.90376 0.34972
 H2138 H 0.80189 0.84275 0.39273
 H2139 H 0.69736 0.87956 0.41949
 H2140 H 0.71848 0.95109 0.40934
 H2141 H 0.77698 0.92068 0.36574
 H2142 H 0.75609 0.93747 0.39484
 C2143 C 0.76818 0.38947 0.88837
 C2144 C 0.77918 0.40044 0.86943
 C2145 C 0.79930 0.39071 0.85993
 C2146 C 0.80880 0.37004 0.86925
 C2147 C 0.79718 0.35963 0.88829
 N2148 N 0.77737 0.36935 0.89707
 C2149 C 0.74634 0.39887 0.89836
 N2150 N 0.73012 0.38385 0.90703
 C2151 C 0.70928 0.39129 0.91559
 C2152 C 0.70373 0.41519 0.91575
 C2153 C 0.72052 0.43098 0.90745
 C2154 C 0.74175 0.42292 0.89876
 H2155 H 0.80732 0.39951 0.84522
 H2156 H 0.80360 0.34365 0.89608
 H2157 H 0.69687 0.37844 0.92166
 H2158 H 0.71732 0.44959 0.90781
 H2159 H 0.77204 0.41608 0.86161
 H2160 H 0.75449 0.43544 0.89263
 C2161 C 0.73217 0.88949 1.10864
 C2162 C 0.71956 0.87247 1.09634
 C2163 C 0.69964 0.86276 1.10635
 C2164 C 0.69212 0.86992 1.12859
 C2165 C 0.70509 0.88715 1.14023
 N2166 N 0.72461 0.89620 1.13020
 C2167 C 0.75412 0.89940 1.09931
 N2168 N 0.77064 0.90703 1.11459
 C2169 C 0.79155 0.91556 1.10737
 C2170 C 0.79690 0.91675 1.08340
 C2171 C 0.77988 0.90948 1.06734
 C2172 C 0.75852 0.90086 1.07518
 H2173 H 0.69028 0.84946 1.09673
 H2174 H 0.70004 0.89310 1.15746
 H2175 H 0.80417 0.92083 1.12040
 H2176 H 0.78300 0.91062 1.04869
 H2177 H 0.72530 0.86612 1.07948
 H2178 H 0.74559 0.89567 1.06242
 C2179 C 0.73256 0.38765 0.61021
 C2180 C 0.72134 0.36905 0.59896
 C2181 C 0.70146 0.35924 0.60891
 C2182 C 0.69244 0.36791 0.63011
 C2183 C 0.70417 0.38674 0.64070
 N2184 N 0.72374 0.39580 0.63075
 C2185 C 0.75435 0.39779 0.60081
 N2186 N 0.77053 0.40637 0.61595
 C2187 C 0.79133 0.41509 0.60858
 C2188 C 0.79689 0.41550 0.58462
 C2189 C 0.78015 0.40729 0.56871
 C2190 C 0.75894 0.39844 0.57669
 H2191 H 0.69330 0.34474 0.59996
 H2192 H 0.69810 0.39407 0.65705
 H2193 H 0.80371 0.42108 0.62153
 H2194 H 0.78337 0.40782 0.55005
 H2195 H 0.72817 0.36165 0.58295
 H2196 H 0.74625 0.39240 0.56407
 C2197 C 0.23202 0.88641 0.60872
 C2198 C 0.22006 0.86838 0.59728
 C2199 C 0.19990 0.85914 0.60725
 C2200 C 0.19137 0.86781 0.62865
 C2201 C 0.20390 0.88599 0.63945
 N2202 N 0.22367 0.89451 0.62947
 C2203 C 0.25398 0.89613 0.59929
 N2204 N 0.27027 0.90448 0.61444
 C2205 C 0.29108 0.91316 0.60710
 C2206 C 0.29653 0.91385 0.58312
 C2207 C 0.27973 0.90578 0.56719
 C2208 C 0.25852 0.89692 0.57517
 H2209 H 0.19112 0.84510 0.59814
 H2210 H 0.19825 0.89329 0.65597
 H2211 H 0.30352 0.91898 0.62007
 H2212 H 0.28288 0.90651 0.54853
 H2213 H 0.22648 0.86102 0.58109
 H2214 H 0.24575 0.89108 0.56253
 C2215 C 0.23340 0.38863 1.11505
 C2216 C 0.22311 0.39834 1.13506
 C2217 C 0.20218 0.38927 1.14346
 C2218 C 0.19139 0.37036 1.13210
 C2219 C 0.20206 0.36158 1.11171
 N2220 N 0.22242 0.37084 1.10382
 C2221 C 0.25592 0.39723 1.10594
 N2222 N 0.26018 0.39649 1.08252
 C2223 C 0.28059 0.40412 1.07310
 C2224 C 0.29830 0.41301 1.08757
 C2225 C 0.29439 0.41331 1.11184
 C2226 C 0.27329 0.40557 1.12104
 H2227 H 0.19470 0.39693 1.15907
 H2228 H 0.19442 0.34725 1.10206
 H2229 H 0.28277 0.40360 1.05430
 H2230 H 0.30775 0.41926 1.12380
 H2231 H 0.23104 0.41292 1.14408
 H2232 H 0.27084 0.40567 1.13982
 C2233 C 0.73511 1.11578 0.88389
 C2234 C 0.72472 1.10552 0.86424
 C2235 C 0.70368 1.11421 0.85582
 C2236 C 0.69277 1.13330 0.86679
 C2237 C 0.70362 1.14281 0.88675
 N2238 N 0.72415 1.13386 0.89471
 C2239 C 0.75759 1.10709 0.89307
 N2240 N 0.76174 1.10749 0.91652
 C2241 C 0.78189 1.09916 0.92596
 C2242 C 0.79937 1.08977 0.91150
 C2243 C 0.79559 1.08983 0.88723
 C2244 C 0.77481 1.09838 0.87799
 H2245 H 0.69613 1.10597 0.84055
 H2246 H 0.69591 1.15734 0.89602
 H2247 H 0.78399 1.09945 0.94477
 H2248 H 0.80881 1.08353 0.87530
 H2249 H 0.73260 1.09070 0.85557
 H2250 H 0.77242 1.09846 0.85921
 C2251 C 0.73403 0.61166 0.38633
 C2252 C 0.72397 0.60225 0.36604
 C2253 C 0.70281 0.61100 0.35794
 C2254 C 0.69156 0.62915 0.36994
 C2255 C 0.70195 0.63775 0.39046
 N2256 N 0.72260 0.62886 0.39807
 C2257 C 0.75670 0.60322 0.39522
 N2258 N 0.76100 0.60357 0.41865
 C2259 C 0.78145 0.59584 0.42789
 C2260 C 0.79911 0.58720 0.41323
 C2261 C 0.79518 0.58729 0.38898
 C2262 C 0.77407 0.59520 0.37995
 H2263 H 0.69541 0.60369 0.34213
 H2264 H 0.69378 0.65157 0.40040
 H2265 H 0.78369 0.59607 0.44669
 H2266 H 0.80853 0.58150 0.37693
 H2267 H 0.73221 0.58813 0.35660
 H2268 H 0.77161 0.59543 0.36118
 C2269 C 0.23179 1.11136 0.38964
 C2270 C 0.22057 1.12989 0.40099
 C2271 C 0.20065 1.13970 0.39112
 C2272 C 0.19158 1.13108 0.36992
 C2273 C 0.20326 1.11226 0.35927
 N2274 N 0.22289 1.10322 0.36912
 C2275 C 0.25369 1.10133 0.39888
 N2276 N 0.26992 1.09310 0.38361
 C2277 C 0.29084 1.08457 0.39083
 C2278 C 0.29648 1.08396 0.41478
 C2279 C 0.27969 1.09182 0.43082
 C2280 C 0.25836 1.10051 0.42297
 H2281 H 0.19251 1.15418 0.40013
 H2282 H 0.19714 1.10497 0.34292
 H2283 H 0.30325 1.07886 0.37779
 H2284 H 0.28297 1.09112 0.44946
 H2285 H 0.22746 1.13726 0.41699
 H2286 H 0.24563 1.10629 0.43568
 C2287 C 0.23228 0.61383 0.89173
 C2288 C 0.21953 0.63071 0.90413
 C2289 C 0.19929 0.64005 0.89430
 C2290 C 0.19166 0.63261 0.87219
 C2291 C 0.20498 0.61576 0.86038
 N2292 N 0.22470 0.60706 0.87023
 C2293 C 0.25420 0.60377 0.90092
 N2294 N 0.27041 0.59578 0.88549
 C2295 C 0.29111 0.58660 0.89250
 C2296 C 0.29653 0.58501 0.91642
 C2297 C 0.27981 0.59265 0.93264
 C2298 C 0.25869 0.60202 0.92500
 H2299 H 0.18966 0.65310 0.90400
 H2300 H 0.19989 0.60961 0.84322
 H2301 H 0.30351 0.58110 0.87935
 H2302 H 0.28298 0.59124 0.95126
 H2303 H 0.22530 0.63707 0.92098
 H2304 H 0.24597 0.60746 0.93785
 C2305 C 1.11644 1.26650 1.11180
 C2306 C 1.13731 1.27594 1.10314
 C2307 C 1.14559 1.29698 1.11210
 C2308 C 1.13318 1.30871 1.12967
 C2309 C 1.11207 1.29897 1.13744
 N2310 N 1.10433 1.27844 1.12841
 C2311 C 1.10726 1.24395 1.10330
 N2312 N 1.08384 1.24007 1.10357
 C2313 C 1.07429 1.21970 1.09598
 C2314 C 1.08861 1.20169 1.08756
 C2315 C 1.11283 1.20518 1.08772
 C2316 C 1.12219 1.22620 1.09551
 H2317 H 1.16185 1.30389 1.10543
 H2318 H 1.10179 1.30752 1.15078
 H2319 H 1.05552 1.21780 1.09615
 H2320 H 1.12462 1.19154 1.08209
 H2321 H 1.14709 1.26733 1.08946
 H2322 H 1.14093 1.22827 1.09583
 C2323 C 1.10942 0.76907 0.60993
 C2324 C 1.09761 0.78186 0.62719
 C2325 C 1.10779 0.80196 0.63634
 C2326 C 1.12968 0.80947 0.62835
 C2327 C 1.14078 0.79635 0.61087
 N2328 N 1.13063 0.77665 0.60241
 C2329 C 1.10005 0.74688 0.60069
 N2330 N 1.11523 0.73032 0.59302
 C2331 C 1.10801 0.70921 0.58500
 C2332 C 1.08415 0.70370 0.58437
 C2333 C 1.06818 0.72074 0.59173
 C2334 C 1.07601 0.74229 0.59985
 H2335 H 1.09860 0.81146 0.64987
 H2336 H 1.15773 0.80140 0.60429
 H2337 H 1.12098 0.69659 0.57967
 H2338 H 1.04960 0.71747 0.59101
 H2339 H 1.08105 0.77610 0.63415
 H2340 H 1.06334 0.75524 0.60513
 C2341 C 0.61687 1.26416 0.61287
 C2342 C 0.63756 1.27348 0.60366
 C2343 C 0.64624 1.29443 0.61245
 C2344 C 0.63442 1.30617 0.63043
 C2345 C 0.61348 1.29653 0.63878
 N2346 N 0.60533 1.27609 0.62987
 C2347 C 0.60734 1.24172 0.60446
 N2348 N 0.58387 1.23811 0.60482
 C2349 C 0.57405 1.21791 0.59713
 C2350 C 0.58811 1.19980 0.58846
 C2351 C 0.61238 1.20299 0.58860
 C2352 C 0.62202 1.22384 0.59650
 H2353 H 0.66234 1.30126 0.60533
 H2354 H 0.60366 1.30510 0.65245
 H2355 H 0.55526 1.21623 0.59734
 H2356 H 0.62399 1.18926 0.58282
 H2357 H 0.64688 1.26485 0.58967
 H2358 H 0.64079 1.22570 0.59674
 C2359 C 0.61724 0.76427 1.11302
 C2360 C 0.63794 0.77366 1.10390
 C2361 C 0.64643 0.79471 1.11261
 C2362 C 0.63443 0.80650 1.13042
 C2363 C 0.61354 0.79675 1.13876
 N2364 N 0.60555 0.77622 1.12992
 C2365 C 0.60777 0.74182 1.10457
 N2366 N 0.58432 0.73818 1.10492
 C2367 C 0.57452 0.71798 1.09721
 C2368 C 0.58860 0.69989 1.08854
 C2369 C 0.61287 0.70312 1.08865
 C2370 C 0.62248 0.72397 1.09657
 H2371 H 0.66252 0.80162 1.10551
 H2372 H 0.60358 0.80535 1.15232
 H2373 H 0.55574 0.71628 1.09744
 H2374 H 0.62449 0.68941 1.08285
 H2375 H 0.64738 0.76502 1.08999
 H2376 H 0.64125 0.72587 1.09680
 C2377 C 0.89021 1.27018 0.88827
 C2378 C 0.90215 1.28310 0.87118
 C2379 C 0.89201 1.30323 0.86201
 C2380 C 0.87001 1.31065 0.86976
 C2381 C 0.85868 1.29729 0.88694
 N2382 N 0.86883 1.27759 0.89548
 C2383 C 0.89979 1.24815 0.89784
 N2384 N 0.88479 1.23153 0.90575
 C2385 C 0.89223 1.21064 0.91419
 C2386 C 0.91616 1.20541 0.91502
 C2387 C 0.93194 1.22251 0.90740
 C2388 C 0.92388 1.24384 0.89886
 H2389 H 0.90140 1.31288 0.84872
 H2390 H 0.84163 1.30225 0.89334
 H2391 H 0.87940 1.19795 0.91971
 H2392 H 0.95056 1.21948 0.90825
 H2393 H 0.91884 1.27748 0.86443
 H2394 H 0.93643 1.25684 0.89345
 C2395 C 0.88967 0.76895 0.38672
 C2396 C 0.90156 0.78131 0.36919
 C2397 C 0.89172 0.80154 0.35989
 C2398 C 0.87006 0.80961 0.36796
 C2399 C 0.85866 0.79665 0.38542
 N2400 N 0.86854 0.77688 0.39412
 C2401 C 0.89918 0.74711 0.39678
 N2402 N 0.88418 0.73069 0.40512
 C2403 C 0.89164 0.71001 0.41408
 C2404 C 0.91557 0.70481 0.41502
 C2405 C 0.93134 0.72176 0.40703
 C2406 C 0.92326 0.74286 0.39795
 H2407 H 0.90113 0.81083 0.34637
 H2408 H 0.84186 0.80210 0.39205
 H2409 H 0.87882 0.69744 0.41989
 H2410 H 0.94996 0.71879 0.40796
 H2411 H 0.91804 0.77525 0.36231
 H2412 H 0.93580 0.75574 0.39223
 C2413 C 0.38249 1.26410 0.38645
 C2414 C 0.36137 1.27313 0.39489
 C2415 C 0.35278 1.29399 0.38582
 C2416 C 0.36513 1.30596 0.36836
 C2417 C 0.38643 1.29657 0.36071
 N2418 N 0.39449 1.27620 0.36987
 C2419 C 0.39210 1.24186 0.39533
 N2420 N 0.41561 1.23859 0.39556
 C2421 C 0.42553 1.21861 0.40370
 C2422 C 0.41152 1.20040 0.41223
 C2423 C 0.38723 1.20325 0.41157
 C2424 C 0.37748 1.22387 0.40319
 H2425 H 0.33637 1.30062 0.39242
 H2426 H 0.39665 1.30532 0.34743
 H2427 H 0.44434 1.21717 0.40390
 H2428 H 0.37570 1.18941 0.41725
 H2429 H 0.35166 1.26439 0.40855
 H2430 H 0.35870 1.22546 0.40250
 C2431 C 0.38163 0.76419 0.88714
 C2432 C 0.36039 0.77329 0.89529
 C2433 C 0.35203 0.79428 0.88620
 C2434 C 0.36472 0.80627 0.86899
 C2435 C 0.38606 0.79675 0.86160
 N2436 N 0.39389 0.77632 0.87079
 C2437 C 0.39120 0.74193 0.89606
 N2438 N 0.41470 0.73853 0.89597
 C2439 C 0.42467 0.71851 0.90396
 C2440 C 0.41073 0.70033 0.91265
 C2441 C 0.38643 0.70330 0.91233
 C2442 C 0.37663 0.72399 0.90412
 H2443 H 0.33558 0.80102 0.89256
 H2444 H 0.39656 0.80549 0.84854
 H2445 H 0.44347 0.71702 0.90390
 H2446 H 0.37492 0.68951 0.91817
 H2447 H 0.35045 0.76454 0.90877
 H2448 H 0.35785 0.72564 0.90370
 C2449 C 1.10851 0.73189 0.88897
 C2450 C 1.09666 0.71899 0.87181
 C2451 C 1.10675 0.69870 0.86289
 C2452 C 1.12856 0.69113 0.87105
 C2453 C 1.13972 0.70443 0.88838
 N2454 N 1.12966 0.72426 0.89661
 C2455 C 1.09925 0.75417 0.89816
 N2456 N 1.11452 0.77051 0.90611
 C2457 C 1.10746 0.79160 0.91434
 C2458 C 1.08365 0.79732 0.91492
 C2459 C 1.06757 0.78052 0.90723
 C2460 C 1.07526 0.75898 0.89886
 H2461 H 1.09754 0.68908 0.84947
 H2462 H 1.15662 0.69936 0.89510
 H2463 H 1.12051 0.80403 0.91989
 H2464 H 1.04902 0.78393 0.90788
 H2465 H 1.08014 0.72477 0.86477
 H2466 H 1.06250 0.74622 0.89337
 C2467 C 1.11694 0.23529 0.38751
 C2468 C 1.13757 0.22574 0.39661
 C2469 C 1.14607 0.20480 0.38766
 C2470 C 1.13413 0.19327 0.36962
 C2471 C 1.11328 0.20316 0.36134
 N2472 N 1.10529 0.22358 0.37041
 C2473 C 1.10755 0.25770 0.39617
 N2474 N 1.08410 0.26143 0.39584
 C2475 C 1.07439 0.28162 0.40373
 C2476 C 1.08856 0.29957 0.41254
 C2477 C 1.11281 0.29623 0.41242
 C2478 C 1.12233 0.27540 0.40433
 H2479 H 1.16212 0.19779 0.39473
 H2480 H 1.10337 0.19476 0.34760
 H2481 H 1.05562 0.28340 0.40351
 H2482 H 1.12449 0.30985 0.41833
 H2483 H 1.14697 0.23418 0.41067
 H2484 H 1.14109 0.27343 0.40409
 C2485 C 0.61601 0.73413 0.38732
 C2486 C 0.63701 0.72486 0.39584
 C2487 C 0.64507 0.70357 0.38732
 C2488 C 0.63230 0.69136 0.37032
 C2489 C 0.61115 0.70102 0.36257
 N2490 N 0.60361 0.72182 0.37119
 C2491 C 0.60693 0.75680 0.39568
 N2492 N 0.58350 0.76066 0.39574
 C2493 C 0.57403 0.78101 0.40347
 C2494 C 0.58844 0.79901 0.41178
 C2495 C 0.61266 0.79556 0.41129
 C2496 C 0.62194 0.77458 0.40329
 H2497 H 0.66137 0.69677 0.39400
 H2498 H 0.60062 0.69213 0.34964
 H2499 H 0.55527 0.78290 0.40355
 H2500 H 0.62448 0.80920 0.41684
 H2501 H 0.64702 0.73373 0.40918
 H2502 H 0.64068 0.77254 0.40273
 C2503 C 0.61090 0.23246 0.88687
 C2504 C 0.59887 0.21962 0.86979
 C2505 C 0.60892 0.19950 0.86053
 C2506 C 0.63095 0.19200 0.86817
 C2507 C 0.64241 0.20533 0.88529
 N2508 N 0.63232 0.22500 0.89395
 C2509 C 0.60134 0.25440 0.89666
 N2510 N 0.61635 0.27094 0.90472
 C2511 C 0.60891 0.29174 0.91340
 C2512 C 0.58498 0.29693 0.91433
 C2513 C 0.56919 0.27989 0.90658
 C2514 C 0.57726 0.25867 0.89781
 H2515 H 0.59944 0.18990 0.84728
 H2516 H 0.65948 0.20032 0.89160
 H2517 H 0.62174 0.30437 0.91903
 H2518 H 0.55058 0.28288 0.90751
 H2519 H 0.58214 0.22528 0.86314
 H2520 H 0.56469 0.24572 0.89231
 C2521 C 0.88345 0.73572 1.11200
 C2522 C 0.86239 0.72647 1.10361
 C2523 C 0.85388 0.70569 1.11293
 C2524 C 0.86624 0.69400 1.13060
 C2525 C 0.88749 0.70358 1.13816
 N2526 N 0.89547 0.72387 1.12876
 C2527 C 0.89290 0.75795 1.10292
 N2528 N 0.91638 0.76143 1.10279
 C2529 C 0.92616 0.78145 1.09457
 C2530 C 0.91202 0.79952 1.08590
 C2531 C 0.88775 0.79643 1.08641
 C2532 C 0.87816 0.77576 1.09485
 H2533 H 0.83751 0.69892 1.10639
 H2534 H 0.89772 0.69505 1.15158
 H2535 H 0.94495 0.78306 1.09448
 H2536 H 0.87612 0.81014 1.08061
 H2537 H 0.85267 0.73499 1.08982
 H2538 H 0.85939 0.77402 1.09546
 C2539 C 0.88110 0.23548 0.61537
 C2540 C 0.85974 0.22657 0.60736
 C2541 C 0.85141 0.20551 0.61629
 C2542 C 0.86424 0.19322 0.63319
 C2543 C 0.88562 0.20265 0.64060
 N2544 N 0.89344 0.22316 0.63155
 C2545 C 0.89078 0.25764 0.60625
 N2546 N 0.91431 0.26078 0.60599
 C2547 C 0.92438 0.28058 0.59757
 C2548 C 0.91051 0.29877 0.58874
 C2549 C 0.88619 0.29606 0.58938
 C2550 C 0.87629 0.27562 0.59808
 H2551 H 0.83492 0.19889 0.60990
 H2552 H 0.89620 0.19369 0.65345
 H2553 H 0.94319 0.28187 0.59740
 H2554 H 0.87477 0.30989 0.58344
 H2555 H 0.84971 0.23544 0.59402
 H2556 H 0.85751 0.27418 0.59874
 C2557 C 0.38369 0.73454 0.61124
 C2558 C 0.36271 0.72519 0.60278
 C2559 C 0.35427 0.70437 0.61206
 C2560 C 0.36663 0.69273 0.62976
 C2561 C 0.38781 0.70240 0.63740
 N2562 N 0.39572 0.72274 0.62804
 C2563 C 0.39306 0.75680 0.60219
 N2564 N 0.41652 0.76036 0.60206
 C2565 C 0.42622 0.78041 0.59384
 C2566 C 0.41201 0.79842 0.58516
 C2567 C 0.38776 0.79524 0.58567
 C2568 C 0.37825 0.77455 0.59411
 H2569 H 0.33796 0.69752 0.60545
 H2570 H 0.39803 0.69391 0.65085
 H2571 H 0.44501 0.78209 0.59376
 H2572 H 0.37608 0.80891 0.57985
 H2573 H 0.35299 0.73367 0.58896
 H2574 H 0.35948 0.77273 0.59471
 C2575 C 0.38262 0.23380 1.11153
 C2576 C 0.36147 0.22450 1.10339
 C2577 C 0.35327 0.20351 1.11257
 C2578 C 0.36605 0.19170 1.12985
 C2579 C 0.38730 0.20140 1.13723
 N2580 N 0.39497 0.22185 1.12796
 C2581 C 0.39197 0.25609 1.10252
 N2582 N 0.41544 0.25965 1.10257
 C2583 C 0.42522 0.27974 1.09455
 C2584 C 0.41110 0.29781 1.08590
 C2585 C 0.38683 0.29464 1.08619
 C2586 C 0.37723 0.27388 1.09443
 H2587 H 0.33688 0.19662 1.10621
 H2588 H 0.39785 0.19279 1.15035
 H2589 H 0.44401 0.28139 1.09461
 H2590 H 0.37521 0.30835 1.08037
 H2591 H 0.35146 0.23311 1.08986
 H2592 H 0.35847 0.27208 1.09487
 C2593 C 1.10927 1.10964 0.72875
 C2594 C 1.12590 1.09715 0.71581
 C2595 C 1.13547 1.10707 0.69574
 C2596 C 1.12859 1.12940 0.68838
 C2597 C 1.11167 1.14120 0.70161
 N2598 N 1.10276 1.13127 0.72130
 C2599 C 1.09974 1.10050 0.75100
 N2600 N 1.09259 1.11587 0.76766
 C2601 C 1.08456 1.10883 0.78890
 C2602 C 1.08348 1.08497 0.79446
 C2603 C 1.09025 1.06881 0.77733
 C2604 C 1.09831 1.07647 0.75562
 H2605 H 1.14852 1.09731 0.68617
 H2606 H 1.10594 1.15850 0.69668
 H2607 H 1.07963 1.12191 0.80161
 H2608 H 1.08915 1.05025 0.78065
 H2609 H 1.13211 1.08025 0.72145
 H2610 H 1.10312 1.06364 0.74262
 C2611 C 1.11099 0.61195 0.23048
 C2612 C 1.12954 0.60073 0.21919
 C2613 C 1.13947 0.61078 0.19939
 C2614 C 1.13096 0.63207 0.19048
 C2615 C 1.11211 0.64259 0.20221
 N2616 N 1.10295 0.63255 0.22176
 C2617 C 1.10091 0.60245 0.25232
 N2618 N 1.09274 0.61745 0.26884
 C2619 C 1.08431 0.60994 0.28977
 C2620 C 1.08380 0.58599 0.29513
 C2621 C 1.09158 0.57024 0.27803
 C2622 C 1.10012 0.57836 0.25669
 H2623 H 1.15396 0.60184 0.19122
 H2624 H 1.10491 0.65900 0.19622
 H2625 H 1.07863 0.62277 0.30243
 H2626 H 1.09095 0.55161 0.28109
 H2627 H 1.13686 0.58468 0.22595
 H2628 H 1.10586 0.56587 0.24372
 C2629 C 0.61560 1.11426 0.23298
 C2630 C 0.63556 1.10447 0.22287
 C2631 C 0.64417 1.11351 0.20203
 C2632 C 0.63305 1.13246 0.19099
 C2633 C 0.61265 1.14134 0.20142
 N2634 N 0.60455 1.13212 0.22183
 C2635 C 0.60645 1.10542 0.25547
 N2636 N 0.58306 1.10553 0.25949
 C2637 C 0.57369 1.09713 0.27969
 C2638 C 0.58816 1.08799 0.29732
 C2639 C 0.61235 1.08832 0.29366
 C2640 C 0.62151 1.09695 0.27285
 H2641 H 0.65975 1.10568 0.19477
 H2642 H 0.60323 1.15571 0.19357
 H2643 H 0.55494 1.09722 0.28174
 H2644 H 0.62424 1.08218 0.30703
 H2645 H 0.64439 1.08980 0.23086
 H2646 H 0.64024 1.09730 0.27059
 C2647 C 0.60974 0.60902 0.72994
 C2648 C 0.62642 0.59659 0.71701
 C2649 C 0.63599 0.60655 0.69696
 C2650 C 0.62906 0.62887 0.68961
 C2651 C 0.61213 0.64063 0.70286
 N2652 N 0.60321 0.63065 0.72252
 C2653 C 0.60013 0.59977 0.75211
 N2654 N 0.59289 0.61504 0.76883
 C2655 C 0.58475 0.60787 0.78998
 C2656 C 0.58361 0.58399 0.79540
 C2657 C 0.59047 0.56793 0.77820
 C2658 C 0.59865 0.57571 0.75658
 H2659 H 0.64906 0.59682 0.68738
 H2660 H 0.60637 0.65793 0.69793
 H2661 H 0.57975 0.62088 0.80274
 H2662 H 0.58934 0.54935 0.78140
 H2663 H 0.63265 0.57969 0.72263
 H2664 H 0.60352 0.56296 0.74353
 C2665 C 0.88945 0.89315 0.72941
 C2666 C 0.87245 0.90516 0.71646
 C2667 C 0.86301 0.89488 0.69647
 C2668 C 0.87043 0.87268 0.68926
 C2669 C 0.88765 0.86138 0.70256
 N2670 N 0.89642 0.87165 0.72211
 C2671 C 0.89908 0.90260 0.75149
 N2672 N 0.90708 0.88742 0.76796
 C2673 C 0.91557 0.89465 0.78893
 C2674 C 0.91636 0.91852 0.79441
 C2675 C 0.90865 0.93451 0.77748
 C2676 C 0.90006 0.92666 0.75604
 H2677 H 0.84970 0.90423 0.68685
 H2678 H 0.89383 0.84420 0.69776
 H2679 H 0.92116 0.88167 0.80150
 H2680 H 0.90945 0.95310 0.78072
 H2681 H 0.86591 0.92197 0.72199
 H2682 H 0.89455 0.93935 0.74316
 C2683 C 0.88724 0.38557 0.23308
 C2684 C 0.89712 0.36570 0.22280
 C2685 C 0.88799 0.35711 0.20194
 C2686 C 0.86886 0.36813 0.19116
 C2687 C 0.85991 0.38843 0.20179
 N2688 N 0.86922 0.39651 0.22213
 C2689 C 0.89602 0.39473 0.25558
 N2690 N 0.89561 0.41811 0.25971
 C2691 C 0.90373 0.42752 0.28000
 C2692 C 0.91285 0.41307 0.29768
 C2693 C 0.91281 0.38887 0.29391
 C2694 C 0.90452 0.37968 0.27296
 H2695 H 0.89584 0.34161 0.19451
 H2696 H 0.84541 0.39779 0.19413
 H2697 H 0.90345 0.44627 0.28209
 H2698 H 0.91891 0.37695 0.30728
 H2699 H 0.91188 0.35694 0.23067
 H2700 H 0.90439 0.36094 0.27061
 C2701 C 0.38902 0.88549 0.23107
 C2702 C 0.39808 0.86493 0.22134
 C2703 C 0.38889 0.85640 0.20049
 C2704 C 0.37066 0.86823 0.18918
 C2705 C 0.36251 0.88910 0.19914
 N2706 N 0.37179 0.89711 0.21954
 C2707 C 0.39777 0.89467 0.25358
 N2708 N 0.39760 0.91810 0.25753
 C2709 C 0.40558 0.92756 0.27785
 C2710 C 0.41431 0.91314 0.29572
 C2711 C 0.41406 0.88892 0.29214
 C2712 C 0.40587 0.87966 0.27119
 H2713 H 0.39592 0.84035 0.19342
 H2714 H 0.34865 0.89893 0.19091
 H2715 H 0.40546 0.94633 0.27983
 H2716 H 0.41990 0.87706 0.30568
 H2717 H 0.41224 0.85558 0.22962
 H2718 H 0.40550 0.86091 0.26904
 C2719 C 0.38693 0.38328 0.73330
 C2720 C 0.39667 0.36325 0.72317
 C2721 C 0.38737 0.35443 0.70247
 C2722 C 0.36821 0.36539 0.69169
 C2723 C 0.35939 0.38583 0.70216
 N2724 N 0.36886 0.39412 0.72234
 C2725 C 0.39587 0.39275 0.75563
 N2726 N 0.39511 0.41616 0.75958
 C2727 C 0.40322 0.42588 0.77974
 C2728 C 0.41268 0.41175 0.79748
 C2729 C 0.41303 0.38751 0.79389
 C2730 C 0.40475 0.37800 0.77307
 H2731 H 0.39511 0.33883 0.69515
 H2732 H 0.34486 0.39516 0.69450
 H2733 H 0.40262 0.44464 0.78167
 H2734 H 0.41942 0.37581 0.80732
 H2735 H 0.41147 0.35454 0.73103
 H2736 H 0.40491 0.35924 0.77090
 C2737 C 1.11130 0.88465 1.26746
 C2738 C 1.10117 0.86512 1.27817
 C2739 C 1.11035 0.85671 1.29912
 C2740 C 1.12980 0.86755 1.30945
 C2741 C 1.13907 0.88743 1.29831
 N2742 N 1.12967 0.89537 1.27797
 C2743 C 1.10246 0.89376 1.24498
 N2744 N 1.10323 0.91710 1.24069
 C2745 C 1.09536 0.92651 1.22031
 C2746 C 1.08621 0.91210 1.20265
 C2747 C 1.08580 0.88791 1.20663
 C2748 C 1.09377 0.87873 1.22772
 H2749 H 1.10231 0.84151 1.30696
 H2750 H 1.15385 0.89664 1.30560
 H2751 H 1.09593 0.94525 1.21811
 H2752 H 1.07965 0.87600 1.19330
 H2753 H 1.08617 0.85652 1.27058
 H2754 H 1.09359 0.86001 1.23025
 C2755 C 1.11168 0.39009 0.77038
 C2756 C 1.13035 0.40111 0.78171
 C2757 C 1.13976 0.39122 0.80192
 C2758 C 1.13055 0.37038 0.81110
 C2759 C 1.11168 0.36003 0.79920
 N2760 N 1.10306 0.36987 0.77936
 C2761 C 1.10181 0.39932 0.74835
 N2762 N 1.09312 0.38411 0.73229
 C2763 C 1.08438 0.39127 0.71138
 C2764 C 1.08400 0.41510 0.70559
 C2765 C 1.09233 0.43111 0.72221
 C2766 C 1.10127 0.42331 0.74352
 H2767 H 1.15432 0.39994 0.81022
 H2768 H 1.10395 0.34394 0.80537
 H2769 H 1.07834 0.37826 0.69909
 H2770 H 1.09181 0.44968 0.71883
 H2771 H 1.13806 0.41688 0.77475
 H2772 H 1.10742 0.43597 0.75614
 C2773 C 0.61206 0.88267 0.76624
 C2774 C 0.60332 0.86197 0.77601
 C2775 C 0.61258 0.85366 0.79695
 C2776 C 0.63057 0.86584 0.80825
 C2777 C 0.63851 0.88672 0.79813
 N2778 N 0.62913 0.89454 0.77771
 C2779 C 0.60303 0.89191 0.74386
 N2780 N 0.60303 0.91536 0.74008
 C2781 C 0.59493 0.92496 0.71988
 C2782 C 0.58626 0.91066 0.70191
 C2783 C 0.58661 0.88640 0.70533
 C2784 C 0.59490 0.87700 0.72620
 H2785 H 0.60578 0.83757 0.80415
 H2786 H 0.65219 0.89681 0.80635
 H2787 H 0.59493 0.94375 0.71807
 H2788 H 0.58081 0.87463 0.69172
 H2789 H 0.58931 0.85239 0.76774
 H2790 H 0.59537 0.85823 0.72823
 C2791 C 0.60889 0.38960 1.27139
 C2792 C 0.62573 0.40211 1.28404
 C2793 C 0.63564 0.39223 1.30397
 C2794 C 0.62887 0.36992 1.31148
 C2795 C 0.61178 0.35808 1.29851
 N2796 N 0.60254 0.36797 1.27895
 C2797 C 0.59894 0.39875 1.24932
 N2798 N 0.59171 0.38340 1.23266
 C2799 C 0.58334 0.39049 1.21156
 C2800 C 0.58200 0.41437 1.20614
 C2801 C 0.58878 0.43049 1.22332
 C2802 C 0.59718 0.42278 1.24488
 H2803 H 0.64882 0.40201 1.31334
 H2804 H 0.60613 0.34078 1.30357
 H2805 H 0.57840 0.37744 1.19883
 H2806 H 0.58747 0.44906 1.22013
 H2807 H 0.63181 0.41902 1.27827
 H2808 H 0.60204 0.43557 1.25791
 C2809 C 0.88412 1.11372 1.26680
 C2810 C 0.86402 1.10424 1.27699
 C2811 C 0.85534 1.11372 1.29766
 C2812 C 0.86651 1.13281 1.30836
 C2813 C 0.88701 1.14138 1.29782
 N2814 N 0.89517 1.13173 1.27766
 C2815 C 0.89347 1.10453 1.24452
 N2816 N 0.91686 1.10494 1.24057
 C2817 C 0.92646 1.09661 1.22046
 C2818 C 0.91222 1.08728 1.20275
 C2819 C 0.88801 1.08720 1.20636
 C2820 C 0.87861 1.09571 1.22714
 H2821 H 0.83968 1.10615 1.30502
 H2822 H 0.89648 1.15584 1.30541
 H2823 H 0.94522 1.09697 1.21852
 H2824 H 0.87624 1.08091 1.19297
 H2825 H 0.85515 1.08950 1.26922
 H2826 H 0.85988 1.09580 1.22932
 C2827 C 0.88815 0.60954 0.76986
 C2828 C 0.87117 0.59752 0.78282
 C2829 C 0.86162 0.60784 0.80273
 C2830 C 0.86892 0.63011 0.80987
 C2831 C 0.88611 0.64144 0.79655
 N2832 N 0.89498 0.63111 0.77709
 C2833 C 0.89795 0.59999 0.74791
 N2834 N 0.90597 0.61508 0.73138
 C2835 C 0.91466 0.60775 0.71052
 C2836 C 0.91564 0.58384 0.70523
 C2837 C 0.90791 0.56794 0.72224
 C2838 C 0.89911 0.57590 0.74355
 H2839 H 0.84834 0.59847 0.81236
 H2840 H 0.89219 0.65866 0.80130
 H2841 H 0.92025 0.62066 0.69790
 H2842 H 0.90885 0.54933 0.71915
 H2843 H 0.86473 0.58065 0.77735
 H2844 H 0.89360 0.56327 0.75648
 C2845 C 0.38577 1.10973 0.76837
 C2846 C 0.36755 1.09877 0.78050
 C2847 C 0.35847 1.10914 0.80061
 C2848 C 0.36753 1.13043 0.80888
 C2849 C 0.38591 1.14070 0.79619
 N2850 N 0.39424 1.13036 0.77650
 C2851 C 0.39537 1.10001 0.74644
 N2852 N 0.40416 1.11489 0.73012
 C2853 C 0.41296 1.10734 0.70939
 C2854 C 0.41338 1.08340 0.70407
 C2855 C 0.40478 1.06773 0.72089
 C2856 C 0.39576 1.07593 0.74201
 H2857 H 0.34427 1.10045 0.80956
 H2858 H 0.39352 1.15710 0.80163
 H2859 H 0.41915 1.12012 0.69692
 H2860 H 0.40525 1.04910 0.71784
 H2861 H 0.35992 1.08268 0.77426
 H2862 H 0.38954 1.06350 0.75482
 C2863 C 0.38772 0.60877 1.27004
 C2864 C 0.36950 0.59759 1.28196
 C2865 C 0.36001 0.60789 1.30189
 C2866 C 0.36864 0.62933 1.31021
 C2867 C 0.38717 0.63973 1.29786
 N2868 N 0.39589 0.62947 1.27829
 C2869 C 0.39742 0.59927 1.24805
 N2870 N 0.40583 0.61435 1.23171
 C2871 C 0.41440 0.60701 1.21081
 C2872 C 0.41490 0.58311 1.20531
 C2873 C 0.40676 0.56724 1.22216
 C2874 C 0.39800 0.57522 1.24348
 H2875 H 0.34574 0.59906 1.31059
 H2876 H 0.39449 0.65624 1.30339
 H2877 H 0.42028 0.61992 1.19833
 H2878 H 0.40733 0.54864 1.21896
 H2879 H 0.36211 0.58142 1.27561
 H2880 H 0.39207 0.56265 1.25629
 C2881 C 1.11011 1.26903 0.88801
 C2882 C 1.09915 1.28030 0.86919
 C2883 C 1.10896 1.30051 0.85985
 C2884 C 1.12967 1.30977 0.86925
 C2885 C 1.14002 1.29788 0.88818
 N2886 N 1.13024 1.27804 0.89676
 C2887 C 1.10083 1.24711 0.89793
 N2888 N 1.11595 1.23108 0.90680
 C2889 C 1.10870 1.21027 0.91562
 C2890 C 1.08486 1.20457 0.91589
 C2891 C 1.06896 1.22119 0.90741
 C2892 C 1.07684 1.24237 0.89839
 H2893 H 1.10026 1.30880 0.84522
 H2894 H 1.15601 1.30410 0.89604
 H2895 H 1.12163 1.19800 0.92180
 H2896 H 1.05038 1.21787 0.90784
 H2897 H 1.08346 1.27331 0.86136
 H2898 H 1.06425 1.25497 0.89213
 C2899 C 1.10968 0.76941 0.39093
 C2900 C 1.09717 0.78226 0.37420
 C2901 C 1.10701 0.80228 0.36455
 C2902 C 1.12930 0.80968 0.37142
 C2903 C 1.14119 0.79648 0.38835
 N2904 N 1.13131 0.77684 0.39738
 C2905 C 1.10047 0.74734 0.40070
 N2906 N 1.11573 0.73063 0.40792
 C2907 C 1.10855 0.70955 0.41615
 C2908 C 1.08467 0.70422 0.41738
 C2909 C 1.06864 0.72144 0.41059
 C2910 C 1.07642 0.74297 0.40234
 H2911 H 1.09718 0.81182 0.35149
 H2912 H 1.15847 0.80144 0.39408
 H2913 H 1.12154 0.69679 0.42111
 H2914 H 1.05007 0.71831 0.41181
 H2915 H 1.08027 0.77662 0.36802
 H2916 H 1.06369 0.75603 0.39751
 C2917 C 0.61694 1.26575 0.38806
 C2918 C 0.63742 1.27555 0.39717
 C2919 C 0.64577 1.29652 0.38810
 C2920 C 0.63386 1.30791 0.36983
 C2921 C 0.61313 1.29763 0.36153
 N2922 N 0.60531 1.27720 0.37078
 C2923 C 0.60761 1.24338 0.39697
 N2924 N 0.58420 1.23950 0.39648
 C2925 C 0.57452 1.21935 0.40451
 C2926 C 0.58869 1.20152 0.41363
 C2927 C 0.61292 1.20503 0.41376
 C2928 C 0.62241 1.22585 0.40553
 H2929 H 0.66167 1.30366 0.39539
 H2930 H 0.60310 1.30571 0.34768
 H2931 H 0.55576 1.21748 0.40411
 H2932 H 0.62463 1.19154 0.41991
 H2933 H 0.64680 1.26732 0.41138
 H2934 H 0.64115 1.22793 0.40546
 C2935 C 0.61006 0.76822 0.89136
 C2936 C 0.59765 0.78123 0.87470
 C2937 C 0.60767 0.80117 0.86507
 C2938 C 0.63007 0.80834 0.87189
 C2939 C 0.64184 0.79500 0.88879
 N2940 N 0.63178 0.77544 0.89780
 C2941 C 0.60064 0.74617 0.90105
 N2942 N 0.61575 0.72932 0.90828
 C2943 C 0.60839 0.70827 0.91641
 C2944 C 0.58447 0.70310 0.91751
 C2945 C 0.56859 0.72042 0.91067
 C2946 C 0.57656 0.74194 0.90254
 H2947 H 0.59791 0.81081 0.85204
 H2948 H 0.65918 0.79978 0.89448
 H2949 H 0.62126 0.69541 0.92141
 H2950 H 0.54999 0.71741 0.91179
 H2951 H 0.58069 0.77578 0.86851
 H2952 H 0.56393 0.75509 0.89770
 C2953 C 0.88479 1.26558 1.11363
 C2954 C 0.86396 1.27494 1.10481
 C2955 C 0.85547 1.29584 1.11381
 C2956 C 0.86763 1.30755 1.13159
 C2957 C 0.88868 1.29786 1.13959
 N2958 N 0.89664 1.27743 1.13049
 C2959 C 0.89416 1.24322 1.10485
 N2960 N 0.91762 1.23961 1.10480
 C2961 C 0.92729 1.21952 1.09665
 C2962 C 0.91306 1.20158 1.08791
 C2963 C 0.88881 1.20478 1.08841
 C2964 C 0.87933 1.22549 1.09682
 H2965 H 0.83928 1.30270 1.10692
 H2966 H 0.89874 1.30641 1.15311
 H2967 H 0.94607 1.21779 1.09659
 H2968 H 0.87712 1.19115 1.08257
 H2969 H 0.85440 1.26641 1.09092
 H2970 H 0.86057 1.22736 1.09737
 C2971 C 0.88430 0.76506 0.61555
 C2972 C 0.86330 0.77418 0.60689
 C2973 C 0.85500 0.79533 0.61541
 C2974 C 0.86751 0.80762 0.63255
 C2975 C 0.88864 0.79810 0.64053
 N2976 N 0.89644 0.77739 0.63188
 C2977 C 0.89363 0.74262 0.60691
 N2978 N 0.91710 0.73912 0.60644
 C2979 C 0.92673 0.71909 0.59810
 C2980 C 0.91245 0.70111 0.58951
 C2981 C 0.88821 0.70417 0.59045
 C2982 C 0.87876 0.72479 0.59913
 H2983 H 0.83872 0.80200 0.60854
 H2984 H 0.89896 0.80706 0.65358
 H2985 H 0.94552 0.71744 0.59773
 H2986 H 0.87651 0.69050 0.58472
 H2987 H 0.85350 0.76532 0.59338
 H2988 H 0.86000 0.72654 0.59999
 C2989 C 0.38322 1.26375 0.61422
 C2990 C 0.36308 1.27383 0.60470
 C2991 C 0.35456 1.29462 0.61391
 C2992 C 0.36595 1.30557 0.63276
 C2993 C 0.38639 1.29505 0.64148
 N2994 N 0.39441 1.27478 0.63207
 C2995 C 0.39258 1.24151 0.60513
 N2996 N 0.41599 1.23763 0.60555
 C2997 C 0.42564 1.21762 0.59719
 C2998 C 0.41144 1.19996 0.58779
 C2999 C 0.38722 1.20347 0.58774
 C3000 C 0.37776 1.22414 0.59630
 H3001 H 0.33890 1.30195 0.60628
 H3002 H 0.39601 1.30282 0.65579
 H3003 H 0.44440 1.21572 0.59754
 H3004 H 0.37550 1.19010 0.58139
 H3005 H 0.35409 1.26592 0.59006
 H3006 H 0.35902 1.22627 0.59640
 C3007 C 0.38511 0.76589 1.11155
 C3008 C 0.36501 0.77587 1.10182
 C3009 C 0.35658 0.79688 1.11064
 C3010 C 0.36803 0.80811 1.12928
 C3011 C 0.38850 0.79774 1.13810
 N3012 N 0.39640 0.77724 1.12911
 C3013 C 0.39425 0.74333 1.10310
 N3014 N 0.41762 0.73922 1.10369
 C3015 C 0.42707 0.71885 1.09598
 C3016 C 0.41268 0.70108 1.08712
 C3017 C 0.38849 0.70483 1.08697
 C3018 C 0.37925 0.72585 1.09485
 H3019 H 0.34091 0.80411 1.10293
 H3020 H 0.39817 0.80573 1.15224
 H3021 H 0.44580 0.71676 1.09640
 H3022 H 0.37664 0.69138 1.08104
 H3023 H 0.35595 0.76769 1.08739
 H3024 H 0.36053 0.72817 1.09488
 C3025 C 0.88292 0.73770 0.88351
 C3026 C 0.86178 0.72879 0.89202
 C3027 C 0.85337 0.70767 0.88349
 C3028 C 0.86590 0.69524 0.86648
 C3029 C 0.88715 0.70458 0.85862
 N3030 N 0.89506 0.72524 0.86729
 C3031 C 0.89245 0.76007 0.89221
 N3032 N 0.91595 0.76335 0.89271
 C3033 C 0.92577 0.78328 0.90109
 C3034 C 0.91166 0.80139 0.90969
 C3035 C 0.88738 0.79855 0.90871
 C3036 C 0.87774 0.77803 0.90000
 H3037 H 0.83699 0.70114 0.89025
 H3038 H 0.89748 0.69551 0.84567
 H3039 H 0.94457 0.78474 0.90148
 H3040 H 0.87580 0.81233 0.91445
 H3041 H 0.85197 0.73776 0.90544
 H3042 H 0.85897 0.77646 0.89912
 C3043 C 0.88449 0.23522 0.38522
 C3044 C 0.86445 0.22527 0.39502
 C3045 C 0.85571 0.20452 0.38597
 C3046 C 0.86678 0.19342 0.36702
 C3047 C 0.88723 0.20373 0.35808
 N3048 N 0.89546 0.22403 0.36732
 C3049 C 0.89386 0.25754 0.39414
 N3050 N 0.91728 0.26137 0.39401
 C3051 C 0.92685 0.28138 0.40252
 C3052 C 0.91255 0.29902 0.41183
 C3053 C 0.88834 0.29557 0.41153
 C3054 C 0.87897 0.27494 0.40277
 H3055 H 0.84009 0.19738 0.39384
 H3056 H 0.89660 0.19583 0.34369
 H3057 H 0.94561 0.28327 0.40240
 H3058 H 0.87656 0.30894 0.41777
 H3059 H 0.85566 0.23327 0.40972
 H3060 H 0.86022 0.27285 0.40245
 C3061 C 0.38341 0.73652 0.38272
 C3062 C 0.36227 0.72761 0.39123
 C3063 C 0.35389 0.70647 0.38275
 C3064 C 0.36644 0.69401 0.36577
 C3065 C 0.38767 0.70337 0.35788
 N3066 N 0.39557 0.72404 0.36652
 C3067 C 0.39291 0.75887 0.39144
 N3068 N 0.41642 0.76209 0.39215
 C3069 C 0.42620 0.78200 0.40063
 C3070 C 0.41205 0.80012 0.40913
 C3071 C 0.38778 0.79735 0.40793
 C3072 C 0.37817 0.77686 0.39911
 H3073 H 0.33752 0.69994 0.38953
 H3074 H 0.39802 0.69426 0.34496
 H3075 H 0.44500 0.78341 0.40119
 H3076 H 0.37618 0.81114 0.41358
 H3077 H 0.35245 0.73660 0.40463
 H3078 H 0.35941 0.77532 0.39807
 C3079 C 0.38706 0.23514 0.88153
 C3080 C 0.39629 0.22494 0.86124
 C3081 C 0.38709 0.20395 0.85303
 C3082 C 0.36856 0.19303 0.86487
 C3083 C 0.36007 0.20379 0.88534
 N3084 N 0.36947 0.22415 0.89305
 C3085 C 0.39614 0.25741 0.89086
 N3086 N 0.39544 0.26138 0.91433
 C3087 C 0.40350 0.28149 0.92406
 C3088 C 0.41284 0.29920 0.90987
 C3089 C 0.41321 0.29559 0.88555
 C3090 C 0.40499 0.27478 0.87603
 H3091 H 0.39449 0.19644 0.83731
 H3092 H 0.34599 0.19609 0.89531
 H3093 H 0.40293 0.28341 0.94288
 H3094 H 0.41954 0.30898 0.87381
 H3095 H 0.41069 0.23285 0.85194
 H3096 H 0.40512 0.27259 0.85722
 C3097 C 1.11793 0.73567 1.11432
 C3098 C 1.13832 0.72571 1.10520
 C3099 C 1.14669 0.70483 1.11445
 C3100 C 1.13492 0.69367 1.13295
 C3101 C 1.11432 0.70414 1.14134
 N3102 N 1.10644 0.72447 1.13188
 C3103 C 1.10852 0.75787 1.10503
 N3104 N 1.08509 0.76164 1.10526
 C3105 C 1.07537 0.78158 1.09675
 C3106 C 1.08950 0.79932 1.08737
 C3107 C 1.11375 0.79592 1.08749
 C3108 C 1.12328 0.77531 1.09621
 H3109 H 1.16250 0.69758 1.10708
 H3110 H 1.10441 0.69624 1.15538
 H3111 H 1.05660 0.78336 1.09697
 H3112 H 1.12543 0.80934 1.08116
 H3113 H 1.14758 0.73374 1.09080
 H3114 H 1.14204 0.77330 1.09644
 C3115 C 1.11668 0.23408 0.61229
 C3116 C 1.13709 0.22421 0.60311
 C3117 C 1.14534 0.20315 0.61206
 C3118 C 1.13340 0.19173 0.63028
 C3119 C 1.11274 0.20207 0.63866
 N3120 N 1.10501 0.22259 0.62953
 C3121 C 1.10746 0.25653 0.60348
 N3122 N 1.08406 0.26046 0.60382
 C3123 C 1.07448 0.28068 0.59584
 C3124 C 1.08876 0.29853 0.58693
 C3125 C 1.11298 0.29496 0.58695
 C3126 C 1.12236 0.27406 0.59512
 H3127 H 1.16119 0.19598 0.60470
 H3128 H 1.10271 0.19397 0.65249
 H3129 H 1.05572 0.28259 0.59610
 H3130 H 1.12475 0.30845 0.58096
 H3131 H 1.14649 0.23248 0.58894
 H3132 H 1.14109 0.27191 0.59530
 C3133 C 0.61666 0.73436 0.61262
 C3134 C 0.63781 0.72511 0.60450
 C3135 C 0.64601 0.70410 0.61361
 C3136 C 0.63325 0.69215 0.63080
 C3137 C 0.61196 0.70179 0.63818
 N3138 N 0.60428 0.72231 0.62898
 C3139 C 0.60739 0.75672 0.60358
 N3140 N 0.58393 0.76031 0.60321
 C3141 C 0.57430 0.78038 0.59492
 C3142 C 0.58858 0.79839 0.58635
 C3143 C 0.61283 0.79519 0.58709
 C3144 C 0.62227 0.77448 0.59564
 H3145 H 0.66243 0.69731 0.60720
 H3146 H 0.60143 0.69309 0.65124
 H3147 H 0.55552 0.78206 0.59466
 H3148 H 0.62455 0.80884 0.58136
 H3149 H 0.64783 0.73376 0.59102
 H3150 H 0.64102 0.77266 0.59641
 C3151 C 0.61559 0.23312 1.11214
 C3152 C 0.63570 0.22311 1.10248
 C3153 C 0.64439 0.20236 1.11169
 C3154 C 0.63322 0.19140 1.13067
 C3155 C 0.61269 0.20174 1.13938
 N3156 N 0.60453 0.22199 1.13000
 C3157 C 0.60628 0.25551 1.10331
 N3158 N 0.58288 0.25948 1.10377
 C3159 C 0.57332 0.27970 1.09575
 C3160 C 0.58761 0.29749 1.08672
 C3161 C 0.61182 0.29387 1.08667
 C3162 C 0.62117 0.27298 1.09485
 H3163 H 0.66008 0.19515 1.10402
 H3164 H 0.60320 0.19394 1.15376
 H3165 H 0.55457 0.28167 1.09609
 H3166 H 0.62362 0.30732 1.08062
 H3167 H 0.64459 0.23111 1.08783
 H3168 H 0.63991 0.27078 1.09495
 C3169 C 1.26710 1.11625 0.88914
 C3170 C 1.27664 1.13720 0.89750
 C3171 C 1.29745 1.14551 0.88807
 C3172 C 1.30888 1.13303 0.87034
 C3173 C 1.29912 1.11178 0.86297
 N3174 N 1.27878 1.10404 0.87242
 C3175 C 1.24463 1.10717 0.89797
 N3176 N 1.24058 1.08376 0.89766
 C3177 C 1.22022 1.07432 0.90536
 C3178 C 1.20236 1.08874 0.91393
 C3179 C 1.20605 1.11295 0.91391
 C3180 C 1.22706 1.12220 0.90600
 H3181 H 1.30438 1.16186 0.89449
 H3182 H 1.30744 1.10145 0.84951
 H3183 H 1.21817 1.05556 0.90511
 H3184 H 1.19253 1.12482 0.91966
 H3185 H 1.26826 1.14705 0.91127
 H3186 H 1.22924 1.14095 0.90573
 C3187 C 1.26570 0.61518 0.38779
 C3188 C 1.27513 0.63612 0.39627
 C3189 C 1.29594 0.64450 0.38700
 C3190 C 1.30755 0.63211 0.36932
 C3191 C 1.29787 0.61089 0.36175
 N3192 N 1.27749 0.60307 0.37106
 C3193 C 1.24329 0.60603 0.39667
 N3194 N 1.23941 0.58259 0.39662
 C3195 C 1.21920 0.57311 0.40467
 C3196 C 1.20138 0.58752 0.41337
 C3197 C 1.20488 0.61174 0.41305
 C3198 C 1.22572 0.62103 0.40475
 H3199 H 1.30281 0.66081 0.39361
 H3200 H 1.30632 0.60065 0.34831
 H3201 H 1.21724 0.55434 0.40461
 H3202 H 1.19137 0.62356 0.41889
 H3203 H 1.26670 0.64588 0.41007
 H3204 H 1.22777 0.63979 0.40426
 C3205 C 0.76393 1.11791 0.38610
 C3206 C 0.77320 1.13894 0.39452
 C3207 C 0.79399 1.14743 0.38528
 C3208 C 0.80570 1.13506 0.36765
 C3209 C 0.79606 1.11387 0.35997
 N3210 N 0.77576 1.10591 0.36931
 C3211 C 0.74179 1.10837 0.39525
 N3212 N 0.73837 1.08487 0.39529
 C3213 C 0.71848 1.07499 0.40363
 C3214 C 0.70048 1.08904 0.41255
 C3215 C 0.70351 1.11333 0.41217
 C3216 C 0.72405 1.12303 0.40358
 H3217 H 0.80081 1.16375 0.39191
 H3218 H 0.80460 1.10365 0.34656
 H3219 H 0.71692 1.05618 0.40362
 H3220 H 0.68984 1.12489 0.41819
 H3221 H 0.76471 1.14864 0.40834
 H3222 H 0.72574 1.14182 0.40307
 C3223 C 0.76482 0.61636 0.88764
 C3224 C 0.77392 0.63754 0.89588
 C3225 C 0.79469 0.64608 0.88663
 C3226 C 0.80658 0.63360 0.86919
 C3227 C 0.79718 0.61220 0.86179
 N3228 N 0.77685 0.60422 0.87110
 C3229 C 0.74257 0.60691 0.89665
 N3230 N 0.73906 0.58341 0.89674
 C3231 C 0.71905 0.57363 0.90494
 C3232 C 0.70104 0.58778 0.91367
 C3233 C 0.70416 0.61206 0.91323
 C3234 C 0.72480 0.62165 0.90476
 H3235 H 0.80132 0.66254 0.89308
 H3236 H 0.80584 0.60188 0.84855
 H3237 H 0.71740 0.55483 0.90497
 H3238 H 0.69049 0.62368 0.91910
 H3239 H 0.76531 0.64736 0.90953
 H3240 H 0.72653 0.64044 0.90419
 C3241 C 1.26565 0.88465 1.11243
 C3242 C 1.27505 0.86398 1.10333
 C3243 C 1.29608 0.85554 1.11202
 C3244 C 1.30794 0.86760 1.12977
 C3245 C 1.29822 0.88851 1.13807
 N3246 N 1.27762 0.89644 1.12927
 C3247 C 1.24314 0.89392 1.10389
 N3248 N 1.23937 0.91737 1.10386
 C3249 C 1.21918 0.92693 1.09581
 C3250 C 1.20129 0.91258 1.08714
 C3251 C 1.20466 0.88834 1.08760
 C3252 C 1.22546 0.87898 1.09593
 H3253 H 1.30293 0.83945 1.10487
 H3254 H 1.30686 0.89850 1.15160
 H3255 H 1.21733 0.94571 1.09578
 H3256 H 1.19109 0.87656 1.08180
 H3257 H 1.26644 0.85449 1.08944
 H3258 H 1.22746 0.86021 1.09645
 C3259 C 1.26457 0.38300 0.61475
 C3260 C 1.27394 0.36225 0.60579
 C3261 C 1.29474 0.35360 0.61484
 C3262 C 1.30641 0.36551 0.63282
 C3263 C 1.29672 0.38650 0.64100
 N3264 N 1.27636 0.39464 0.63183
 C3265 C 1.24231 0.39248 0.60580
 N3266 N 1.23874 0.41597 0.60574
 C3267 C 1.21879 0.42571 0.59731
 C3268 C 1.20094 0.41154 0.58826
 C3269 C 1.20411 0.38727 0.58871
 C3270 C 1.22467 0.37771 0.59743
 H3271 H 1.30156 0.33747 0.60777
 H3272 H 1.30522 0.39638 0.65469
 H3273 H 1.21709 0.44451 0.59731
 H3274 H 1.19056 0.37562 0.58262
 H3275 H 1.26551 0.35287 0.59171
 H3276 H 1.22649 0.35893 0.59794
 C3277 C 0.76568 0.88539 0.61212
 C3278 C 0.77512 0.86445 0.60367
 C3279 C 0.79610 0.85625 0.61272
 C3280 C 0.80787 0.86883 0.63017
 C3281 C 0.79815 0.89002 0.63775
 N3282 N 0.77761 0.89768 0.62863
 C3283 C 0.74318 0.89442 0.60335
 N3284 N 0.73926 0.91784 0.60315
 C3285 C 0.71899 0.92721 0.59510
 C3286 C 0.70115 0.91268 0.58664
 C3287 C 0.70469 0.88847 0.58722
 C3288 C 0.72558 0.87930 0.59553
 H3289 H 0.80297 0.83994 0.60612
 H3290 H 0.80672 0.90040 0.65100
 H3291 H 0.71700 0.94598 0.59495
 H3292 H 0.69117 0.87657 0.58156
 H3293 H 0.76657 0.85456 0.59003
 H3294 H 0.72767 0.86055 0.59621
 C3295 C 0.76514 0.38493 1.11410
 C3296 C 0.77497 0.36453 1.10486
 C3297 C 0.79596 0.35625 1.11377
 C3298 C 0.80737 0.36819 1.13190
 C3299 C 0.79726 0.38888 1.14032
 N3300 N 0.77669 0.39665 1.13129
 C3301 C 0.74260 0.39391 1.10538
 N3302 N 0.73849 0.41730 1.10537
 C3303 C 0.71824 0.42657 1.09716
 C3304 C 0.70062 0.41198 1.08831
 C3305 C 0.70435 0.38780 1.08871
 C3306 C 0.72522 0.37873 1.09719
 H3307 H 0.80312 0.34035 1.10651
 H3308 H 0.80554 0.39876 1.15413
 H3309 H 0.71611 0.44533 1.09717
 H3310 H 0.69101 0.37583 1.08277
 H3311 H 0.76670 0.35512 1.09070
 H3312 H 0.72750 0.35999 1.09766
 C3313 C 0.73640 1.11444 1.11603
 C3314 C 0.72697 1.10590 1.13699
 C3315 C 0.70601 1.11493 1.14527
 C3316 C 0.69431 1.13247 1.13277
 C3317 C 0.70411 1.14026 1.11164
 N3318 N 0.72459 1.13111 1.10387
 C3319 C 0.75872 1.10548 1.10678
 N3320 N 0.76235 1.10514 1.08324
 C3321 C 0.78239 1.09682 1.07365
 C3322 C 0.80031 1.08823 1.08804
 C3323 C 0.79708 1.08897 1.11237
 C3324 C 0.77640 1.09754 1.12177
 H3325 H 0.69908 1.10821 1.16156
 H3326 H 0.69559 1.15360 1.10132
 H3327 H 0.78412 1.09656 1.05480
 H3328 H 0.81068 1.08322 1.12418
 H3329 H 0.73546 1.09217 1.14680
 H3330 H 0.77452 1.09829 1.14059
 C3331 C 0.73480 0.61208 0.61557
 C3332 C 0.72489 0.60299 0.63608
 C3333 C 0.70386 0.61198 0.64426
 C3334 C 0.69261 0.63006 0.63212
 C3335 C 0.70287 0.63835 0.61140
 N3336 N 0.72338 0.62923 0.60372
 C3337 C 0.75729 0.60334 0.60651
 N3338 N 0.76137 0.60363 0.58304
 C3339 C 0.78166 0.59571 0.57362
 C3340 C 0.79940 0.58692 0.58814
 C3341 C 0.79568 0.58701 0.61242
 C3342 C 0.77473 0.59513 0.62163
 H3343 H 0.69656 0.60490 0.66022
 H3344 H 0.69470 0.65211 0.60135
 H3345 H 0.78373 0.59592 0.55481
 H3346 H 0.80910 0.58111 0.62436
 H3347 H 0.73311 0.58890 0.64562
 H3348 H 0.77246 0.59538 0.64043
 C3349 C 0.23453 1.11236 0.61486
 C3350 C 0.22455 1.10344 0.63541
 C3351 C 0.20359 1.11261 0.64354
 C3352 C 0.19245 1.13070 0.63133
 C3353 C 0.20279 1.13887 0.61060
 N3354 N 0.22323 1.12956 0.60294
 C3355 C 0.25690 1.10332 0.60579
 N3356 N 0.26089 1.10335 0.58231
 C3357 C 0.28104 1.09508 0.57289
 C3358 C 0.29871 1.08617 0.58742
 C3359 C 0.29508 1.08652 0.61171
 C3360 C 0.27428 1.09501 0.62093
 H3361 H 0.19623 1.10562 0.65952
 H3362 H 0.19470 1.15264 0.60049
 H3363 H 0.28304 1.09511 0.55407
 H3364 H 0.30846 1.08054 0.62365
 H3365 H 0.23266 1.08932 0.64500
 H3366 H 0.27208 1.09544 0.63972
 C3367 C 0.23544 0.61360 1.11685
 C3368 C 0.22553 0.60475 1.13746
 C3369 C 0.20471 0.61411 1.14576
 C3370 C 0.19365 0.63232 1.13365
 C3371 C 0.20391 0.64040 1.11285
 N3372 N 0.22421 0.63092 1.10504
 C3373 C 0.25769 0.60438 1.10764
 N3374 N 0.26155 0.60439 1.08413
 C3375 C 0.28158 0.59596 1.07459
 C3376 C 0.29926 0.58689 1.08900
 C3377 C 0.29577 0.58723 1.11331
 C3378 C 0.27509 0.59589 1.12266
 H3379 H 0.19742 0.60717 1.16179
 H3380 H 0.19587 0.65426 1.10282
 H3381 H 0.28347 0.59600 1.05576
 H3382 H 0.30916 0.58113 1.12517
 H3383 H 0.23358 0.59055 1.14698
 H3384 H 0.27300 0.59632 1.14147
 C3385 C 0.73525 0.88608 0.88327
 C3386 C 0.72563 0.89401 0.86214
 C3387 C 0.70472 0.88459 0.85415
 C3388 C 0.69319 0.86725 0.86710
 C3389 C 0.70321 0.86002 0.88834
 N3390 N 0.72364 0.86955 0.89582
 C3391 C 0.75751 0.89557 0.89232
 N3392 N 0.76134 0.89602 0.91583
 C3393 C 0.78131 0.90473 0.92527
 C3394 C 0.79898 0.91365 0.91075
 C3395 C 0.79551 0.91290 0.88645
 C3396 C 0.77491 0.90391 0.87720
 H3397 H 0.69764 0.89090 0.83776
 H3398 H 0.69486 0.84685 0.89901
 H3399 H 0.78318 0.90500 0.94411
 H3400 H 0.80890 0.91890 0.87454
 H3401 H 0.73390 0.90762 0.85198
 H3402 H 0.77291 0.90312 0.85840
 C3403 C 0.73523 0.38715 0.38465
 C3404 C 0.72523 0.39600 0.36407
 C3405 C 0.70424 0.38680 0.35598
 C3406 C 0.69312 0.36875 0.36826
 C3407 C 0.70351 0.36064 0.38900
 N3408 N 0.72396 0.36997 0.39661
 C3409 C 0.75761 0.39622 0.39371
 N3410 N 0.76168 0.39606 0.41718
 C3411 C 0.78184 0.40430 0.42662
 C3412 C 0.79947 0.41331 0.41212
 C3413 C 0.79576 0.41313 0.38784
 C3414 C 0.77494 0.40468 0.37860
 H3415 H 0.69685 0.39375 0.33999
 H3416 H 0.69544 0.34690 0.39916
 H3417 H 0.78388 0.40414 0.44543
 H3418 H 0.80910 0.41920 0.37591
 H3419 H 0.73331 0.41010 0.35443
 H3420 H 0.77270 0.40436 0.35981
 C3421 C 0.23444 0.88698 0.38312
 C3422 C 0.22475 0.89524 0.36215
 C3423 C 0.20366 0.88616 0.35424
 C3424 C 0.19205 0.86883 0.36712
 C3425 C 0.20212 0.86131 0.38824
 N3426 N 0.22272 0.87050 0.39564
 C3427 C 0.25692 0.89600 0.39202
 N3428 N 0.26092 0.89637 0.41550
 C3429 C 0.28113 0.90464 0.42479
 C3430 C 0.29888 0.91315 0.41013
 C3431 C 0.29524 0.91244 0.38586
 C3432 C 0.27439 0.90392 0.37676
 H3433 H 0.19655 0.89267 0.33795
 H3434 H 0.19369 0.84814 0.39884
 H3435 H 0.28314 0.90490 0.44361
 H3436 H 0.30867 0.91813 0.37384
 H3437 H 0.23315 0.90882 0.35205
 H3438 H 0.27222 0.90316 0.35797
 C3439 C 0.23091 0.38796 0.89102
 C3440 C 0.21853 0.37061 0.90314
 C3441 C 0.19831 0.36126 0.89334
 C3442 C 0.19029 0.36917 0.87152
 C3443 C 0.20317 0.38657 0.86000
 N3444 N 0.22294 0.39524 0.86981
 C3445 C 0.25291 0.39784 0.90017
 N3446 N 0.26909 0.40593 0.88475
 C3447 C 0.28995 0.41475 0.89178
 C3448 C 0.29557 0.41581 0.91568
 C3449 C 0.27886 0.40810 0.93189
 C3450 C 0.25758 0.39913 0.92424
 H3451 H 0.18902 0.34780 0.90281
 H3452 H 0.19776 0.39308 0.84308
 H3453 H 0.30231 0.42034 0.87863
 H3454 H 0.28217 0.40913 0.95051
 H3455 H 0.22463 0.36385 0.91973
 H3456 H 0.24490 0.39357 0.93709
   
