data_POSCAR
  _audit_creation_date              2014-09-24
  _audit_creation_method            'ToBaCCo'
  _symmetry_space_group_name_H-M    'P1'
  _symmetry_Int_Tables_number       1
  _symmetry_cell_setting            triclinic
  loop_
  _symmetry_equiv_pos_as_xyz
 x,y,z
_cell_length_a 68.0228
_cell_length_b 70.6787
_cell_length_c 70.3797
_cell_angle_alpha 90.047000
_cell_angle_beta 90.217000
_cell_angle_gamma 90.137700
loop_
  _atom_site_label
  _atom_site_type_symbol
  _atom_site_fract_x
  _atom_site_fract_y
  _atom_site_fract_z
C1 C 0.28132 0.36234 -0.00704
 C2 C 0.28135 0.36278 0.01244
 C3 C 0.29848 0.35392 0.01828
 N4 N 0.30888 0.34808 0.00305
 C5 C 0.29839 0.35310 -0.01250
 C6 C 0.30502 0.35280 0.03732
 C7 C 0.32140 0.34192 0.04307
 C8 C 0.33050 0.34319 0.06070
 C9 C 0.34502 0.32968 0.06104
 C10 C 0.34438 0.32057 0.04360
 N11 N 0.32991 0.32804 0.03277
 C12 C 0.35613 0.30497 0.03851
 C13 C 0.35803 0.29860 0.01961
 C14 C 0.36600 0.28137 0.01442
 C15 C 0.36622 0.28104 -0.00503
 C16 C 0.35870 0.29826 -0.01113
 N17 N 0.35354 0.30894 0.00401
 C18 C 0.35731 0.30414 -0.03037
 C19 C 0.34547 0.31976 -0.03591
 C20 C 0.34700 0.32930 -0.05307
 C21 C 0.33234 0.34262 -0.05339
 C22 C 0.32246 0.34125 -0.03622
 N23 N 0.33054 0.32722 -0.02568
 C24 C 0.30533 0.35159 -0.03139
 H25 H 0.27026 0.36868 -0.01608
 H26 H 0.27026 0.36927 0.02127
 H27 H 0.32480 0.32160 -0.01321
 H28 H 0.32698 0.35278 0.07219
 H29 H 0.35482 0.32680 0.07283
 H30 H 0.37099 0.27014 0.02370
 H31 H 0.37126 0.26937 -0.01367
 H32 H 0.32928 0.35206 -0.06511
 H33 H 0.32479 0.32256 0.01996
 H34 H 0.35751 0.32688 -0.06431
 C35 C 0.71753 0.63462 0.00994
 C36 C 0.71759 0.63434 -0.00954
 C37 C 0.70112 0.64431 -0.01540
 N38 N 0.69101 0.65064 -0.00018
 C39 C 0.70104 0.64474 0.01532
 C40 C 0.69495 0.64627 -0.03448
 C41 C 0.67981 0.65872 -0.04019
 C42 C 0.67092 0.65862 -0.05793
 C43 C 0.65817 0.67367 -0.05832
 C44 C 0.65943 0.68249 -0.04070
 N45 N 0.67281 0.67333 -0.02982
 C46 C 0.64985 0.69959 -0.03568
 C47 C 0.64868 0.70620 -0.01668
 C48 C 0.64022 0.72317 -0.01109
 C49 C 0.63979 0.72307 0.00837
 C50 C 0.64785 0.70602 0.01411
 N51 N 0.65321 0.69573 -0.00120
 C52 C 0.64844 0.69953 0.03309
 C53 C 0.65886 0.68322 0.03889
 C54 C 0.65683 0.67446 0.05641
 C55 C 0.66992 0.65966 0.05676
 C56 C 0.67955 0.65976 0.03943
 N57 N 0.67284 0.67425 0.02869
 C58 C 0.69467 0.64711 0.03425
 H59 H 0.72832 0.62798 0.01909
 H60 H 0.72844 0.62747 -0.01837
 H61 H 0.67886 0.67888 0.01595
 H62 H 0.67359 0.64892 -0.06954
 H63 H 0.64935 0.67782 -0.07043
 H64 H 0.63435 0.73426 -0.02003
 H65 H 0.63379 0.73412 0.01727
 H66 H 0.67207 0.64991 0.06843
 H67 H 0.67863 0.67813 -0.01702
 H68 H 0.64695 0.67831 0.06778
 C69 C 0.63982 0.27684 0.98773
 C70 C 0.63979 0.27671 1.00721
 C71 C 0.64804 0.29373 1.01300
 N72 N 0.65315 0.30421 0.99776
 C73 C 0.64815 0.29389 0.98229
 C74 C 0.64901 0.30009 1.03199
 C75 C 0.65941 0.31652 1.03756
 C76 C 0.65663 0.32598 1.05459
 C77 C 0.66976 0.34078 1.05487
 C78 C 0.68046 0.33981 1.03813
 N79 N 0.67397 0.32499 1.02761
 C80 C 0.69598 0.35229 1.03307
 C81 C 0.70264 0.35390 1.01405
 C82 C 0.72027 0.36217 1.00856
 C83 C 0.72049 0.36209 0.98911
 C84 C 0.70318 0.35348 0.98332
 N85 N 0.69227 0.34843 0.99855
 C86 C 0.69714 0.35160 0.96422
 C87 C 0.68161 0.33961 0.95848
 C88 C 0.67259 0.33998 0.94079
 C89 C 0.65914 0.32541 0.94055
 C90 C 0.66037 0.31656 0.95809
 N91 N 0.67418 0.32524 0.96889
 C92 C 0.64955 0.30032 0.96337
 H93 H 0.63413 0.26576 0.97860
 H94 H 0.63403 0.26551 1.01609
 H95 H 0.67971 0.32044 0.98181
 H96 H 0.64606 0.32271 1.06557
 H97 H 0.67108 0.35117 1.06610
 H98 H 0.73182 0.36769 1.01763
 H99 H 0.73209 0.36766 0.98023
 H100 H 0.64962 0.32171 0.92875
 H101 H 0.68036 0.31988 1.01521
 H102 H 0.67547 0.34967 0.92923
 C103 C 0.27839 0.63570 1.00573
 C104 C 0.27967 0.63601 0.98632
 C105 C 0.29732 0.64477 0.98202
 N106 N 0.30701 0.64965 0.99813
 C107 C 0.29551 0.64395 1.01270
 C108 C 0.30475 0.64703 0.96348
 C109 C 0.32034 0.65948 0.95917
 C110 C 0.33069 0.65960 0.94225
 C111 C 0.34367 0.67453 0.94327
 C112 C 0.34082 0.68313 0.96077
 N113 N 0.32651 0.67391 0.97033
 C114 C 0.35070 0.69960 0.96709
 C115 C 0.35050 0.70579 0.98618
 C116 C 0.35820 0.72283 0.99252
 C117 C 0.35704 0.72255 1.01196
 C118 C 0.34850 0.70539 1.01689
 N119 N 0.34461 0.69516 1.00107
 C120 C 0.34683 0.69830 1.03563
 C121 C 0.33691 0.68115 1.03989
 C122 C 0.33833 0.67145 1.05698
 C123 C 0.32535 0.65658 1.05600
 C124 C 0.31595 0.65774 1.03850
 N125 N 0.32318 0.67270 1.02873
 C126 C 0.30065 0.64550 1.03221
 H127 H 0.26617 0.63008 1.01376
 H128 H 0.26879 0.63054 0.97647
 H129 H 0.31746 0.67806 1.01610
 H130 H 0.32901 0.64999 0.93037
 H131 H 0.35396 0.67863 0.93231
 H132 H 0.36446 0.73410 0.98406
 H133 H 0.36249 0.73352 1.02134
 H134 H 0.32305 0.64614 1.06701
 H135 H 0.31986 0.67837 0.98283
 H136 H 0.34759 0.67479 1.06907
 C137 C -0.01165 0.28162 0.36198
 C138 C 0.00850 0.28144 0.36242
 C139 C 0.01467 0.29829 0.35435
 N140 N -0.00101 0.30873 0.34898
 C141 C -0.01718 0.29856 0.35351
 C142 C 0.03440 0.30446 0.35359
 C143 C 0.04048 0.32073 0.34354
 C144 C 0.05880 0.32923 0.34531
 C145 C 0.05927 0.34391 0.33250
 C146 C 0.04121 0.34396 0.32331
 N147 N 0.02988 0.32976 0.33004
 C148 C 0.03605 0.35608 0.30820
 C149 C 0.01649 0.35846 0.30195
 C150 C 0.01113 0.36699 0.28501
 C151 C -0.00899 0.36747 0.28475
 C152 C -0.01530 0.35951 0.30171
 N153 N 0.00035 0.35387 0.31216
 C154 C -0.03519 0.35814 0.30760
 C155 C -0.04100 0.34597 0.32263
 C156 C -0.05870 0.34710 0.33230
 C157 C -0.05917 0.33225 0.34485
 C158 C -0.04152 0.32262 0.34294
 N159 N -0.03057 0.33106 0.32929
 C160 C -0.03666 0.30552 0.35238
 H161 H -0.02107 0.27077 0.36785
 H162 H 0.01755 0.27037 0.36844
 H163 H -0.01776 0.32571 0.32333
 H164 H 0.07067 0.32520 0.35475
 H165 H 0.07155 0.35337 0.33012
 H166 H 0.02073 0.37218 0.27394
 H167 H -0.01793 0.37297 0.27328
 H168 H -0.07130 0.32891 0.35416
 H169 H 0.01659 0.32525 0.32425
 H170 H -0.07022 0.35748 0.33044
 C171 C -0.00574 0.63202 0.71698
 C172 C 0.01432 0.63124 0.71572
 C173 C 0.01925 0.63901 0.69832
 N174 N 0.00287 0.64441 0.68881
 C175 C -0.01249 0.64000 0.70016
 C176 C 0.03854 0.63981 0.69101
 C177 C 0.04378 0.65115 0.67533
 C178 C 0.06133 0.64984 0.66546
 C179 C 0.06118 0.66405 0.65211
 C180 C 0.04354 0.67362 0.65420
 N181 N 0.03307 0.66572 0.66845
 C182 C 0.03792 0.68974 0.64367
 C183 C 0.01850 0.69676 0.64332
 C184 C 0.01287 0.71374 0.63510
 C185 C -0.00723 0.71448 0.63621
 C186 C -0.01320 0.69796 0.64511
 N187 N 0.00254 0.68714 0.64944
 C188 C -0.03294 0.69233 0.64749
 C189 C -0.03859 0.67667 0.65869
 C190 C -0.05682 0.66794 0.65775
 C191 C -0.05673 0.65380 0.67112
 C192 C -0.03852 0.65441 0.68011
 N193 N -0.02751 0.66840 0.67238
 C194 C -0.03257 0.64234 0.69519
 H195 H -0.01437 0.62728 0.72895
 H196 H 0.02417 0.62566 0.72644
 H197 H -0.01396 0.67318 0.67736
 H198 H 0.07307 0.63978 0.66773
 H199 H 0.07278 0.66704 0.64205
 H200 H 0.02224 0.72436 0.62873
 H201 H -0.01644 0.72575 0.63082
 H202 H -0.06869 0.64404 0.67375
 H203 H 0.02037 0.67116 0.67450
 H204 H -0.06887 0.67127 0.64825
 C205 C 0.98633 0.62680 0.28978
 C206 C 1.00643 0.62644 0.28955
 C207 C 1.01284 0.64302 0.29819
 N208 N 0.99724 0.65340 0.30386
 C209 C 0.98101 0.64343 0.29883
 C210 C 1.03284 0.64841 0.30027
 C211 C 1.03904 0.66355 0.31217
 C212 C 1.05729 0.67229 0.31104
 C213 C 1.05770 0.68618 0.32465
 C214 C 1.03968 0.68566 0.33382
 N215 N 1.02837 0.67178 0.32615
 C216 C 1.03429 0.69801 0.34885
 C217 C 1.01454 0.70065 0.35471
 C218 C 1.00894 0.70983 0.37128
 C219 C 0.98884 0.71008 0.37140
 C220 C 0.98271 0.70081 0.35506
 N221 N 0.99845 0.69514 0.34480
 C222 C 0.96284 0.69861 0.34951
 C223 C 0.95669 0.68739 0.33398
 C224 C 0.93777 0.68705 0.32659
 C225 C 0.93735 0.67312 0.31295
 C226 C 0.95604 0.66534 0.31237
 N227 N 0.96769 0.67408 0.32527
 C228 C 0.96139 0.64945 0.30139
 H229 H 0.97677 0.61599 0.28394
 H230 H 1.01529 0.61515 0.28375
 H231 H 0.98149 0.66957 0.32958
 H232 H 1.06901 0.66927 0.30114
 H233 H 1.06978 0.69584 0.32721
 H234 H 1.01836 0.71568 0.38224
 H235 H 0.97980 0.71637 0.38232
 H236 H 0.92458 0.66890 0.30475
 H237 H 1.01486 0.66715 0.33122
 H238 H 0.92538 0.69561 0.33089
 C239 C 0.98777 0.28344 0.63417
 C240 C 1.00792 0.28319 0.63379
 C241 C 1.01424 0.29921 0.64343
 N242 N 0.99866 0.30925 0.64965
 C243 C 0.98246 0.29960 0.64404
 C244 C 1.03408 0.30494 0.64523
 C245 C 1.04037 0.31975 0.65735
 C246 C 1.05895 0.32783 0.65708
 C247 C 1.05968 0.34062 0.67179
 C248 C 1.04142 0.34021 0.68058
 N249 N 1.02984 0.32728 0.67175
 C250 C 1.03645 0.35024 0.69738
 C251 C 1.01682 0.35207 0.70388
 C252 C 1.01122 0.36116 0.72051
 C253 C 0.99110 0.36189 0.72036
 C254 C 0.98497 0.35338 0.70362
 N255 N 1.00068 0.34746 0.69356
 C256 C 0.96527 0.35272 0.69718
 C257 C 0.95898 0.34202 0.68130
 C258 C 0.94070 0.34366 0.67264
 C259 C 0.94001 0.33036 0.65837
 C260 C 0.95790 0.32104 0.65865
 N261 N 0.96931 0.32810 0.67276
 C262 C 0.96295 0.30589 0.64652
 H263 H 0.97814 0.27299 0.62778
 H264 H 1.01687 0.27248 0.62706
 H265 H 0.98253 0.32244 0.67752
 H266 H 1.07090 0.32460 0.64750
 H267 H 1.07243 0.34892 0.67574
 H268 H 1.02058 0.36722 0.73139
 H269 H 0.98203 0.36835 0.73117
 H270 H 0.92773 0.32789 0.64885
 H271 H 1.01645 0.32220 0.67665
 H272 H 0.92903 0.35339 0.67624
 C273 C 0.36354 -0.00907 0.28065
 C274 C 0.36397 0.01029 0.28132
 C275 C 0.35589 0.01544 0.29858
 N276 N 0.35068 -0.00012 0.30859
 C277 C 0.35549 -0.01517 0.29769
 C278 C 0.35453 0.03423 0.30525
 C279 C 0.34297 0.03947 0.32100
 C280 C 0.34406 0.05677 0.33024
 C281 C 0.32956 0.05674 0.34381
 C282 C 0.32004 0.03941 0.34246
 N283 N 0.32826 0.02901 0.32846
 C284 C 0.30358 0.03402 0.35338
 C285 C 0.29674 0.01519 0.35457
 C286 C 0.27949 0.00966 0.36343
 C287 C 0.27908 -0.00973 0.36287
 C288 C 0.29608 -0.01537 0.35368
 N289 N 0.30686 -0.00013 0.34864
 C290 C 0.30223 -0.03429 0.35163
 C291 C 0.31841 -0.03971 0.34034
 C292 C 0.32780 -0.05704 0.34162
 C293 C 0.34226 -0.05707 0.32806
 C294 C 0.34118 -0.03983 0.31863
 N295 N 0.32660 -0.02930 0.32628
 C296 C 0.35335 -0.03438 0.30320
 H297 H 0.36853 -0.01765 0.26889
 H298 H 0.36949 0.01954 0.27029
 H299 H 0.32132 -0.01652 0.32102
 H300 H 0.35414 0.06829 0.32741
 H301 H 0.32633 0.06822 0.35349
 H302 H 0.26849 0.01864 0.36985
 H303 H 0.26772 -0.01867 0.36881
 H304 H 0.35254 -0.06846 0.32559
 H305 H 0.32279 0.01642 0.32290
 H306 H 0.32470 -0.06842 0.35145
 C307 C 0.71764 0.01146 0.63360
 C308 C 0.71806 -0.00791 0.63377
 C309 C 0.70033 -0.01392 0.64143
 N310 N 0.68927 0.00120 0.64631
 C311 C 0.69985 0.01670 0.64149
 C312 C 0.69427 -0.03309 0.64312
 C313 C 0.67839 -0.03846 0.65504
 C314 C 0.66816 -0.05546 0.65381
 C315 C 0.65446 -0.05542 0.66810
 C316 C 0.65643 -0.03830 0.67753
 N317 N 0.67105 -0.02803 0.66952
 C318 C 0.64534 -0.03294 0.69358
 C319 C 0.64385 -0.01405 0.69991
 C320 C 0.63521 -0.00847 0.71682
 C321 C 0.63487 0.01093 0.71668
 C322 C 0.64336 0.01652 0.69971
 N323 N 0.64883 0.00124 0.68948
 C324 C 0.64456 0.03539 0.69328
 C325 C 0.65549 0.04080 0.67715
 C326 C 0.65405 0.05818 0.66812
 C327 C 0.66777 0.05819 0.65381
 C328 C 0.67718 0.04082 0.65452
 N329 N 0.66968 0.03035 0.66882
 C330 C 0.69320 0.03553 0.64303
 H331 H 0.72916 0.02066 0.62839
 H332 H 0.73011 -0.01656 0.62884
 H333 H 0.67543 0.01769 0.67388
 H334 H 0.67020 -0.06670 0.64357
 H335 H 0.64407 -0.06664 0.67108
 H336 H 0.62946 -0.01744 0.72796
 H337 H 0.62885 0.01988 0.72769
 H338 H 0.67061 0.06974 0.64410
 H339 H 0.67693 -0.01546 0.67478
 H340 H 0.64424 0.06970 0.67156
 C341 C 0.37215 0.99005 0.70975
 C342 C 0.37198 1.00943 0.70988
 C343 C 0.35426 1.01498 0.70178
 N344 N 0.34384 0.99957 0.69628
 C345 C 0.35481 0.98434 0.70110
 C346 C 0.34763 1.03395 0.70006
 C347 C 0.33158 1.03875 0.68804
 C348 C 0.32055 1.05521 0.68943
 C349 C 0.30724 1.05496 0.67471
 C350 C 0.31027 1.03825 0.66486
 N351 N 0.32506 1.02839 0.67309
 C352 C 0.30017 1.03300 0.64809
 C353 C 0.29967 1.01423 0.64130
 C354 C 0.29249 1.00872 0.62367
 C355 C 0.29283 0.98932 0.62343
 C356 C 0.30021 0.98366 0.64090
 N357 N 0.30438 0.99891 0.65180
 C358 C 0.30165 0.96472 0.64708
 C359 C 0.31205 0.95943 0.66365
 C360 C 0.31107 0.94179 0.67221
 C361 C 0.32443 0.94197 0.68694
 C362 C 0.33305 0.95977 0.68705
 N363 N 0.32550 0.97028 0.67278
 C364 C 0.34880 0.96534 0.69890
 H365 H 0.38380 0.98121 0.71528
 H366 H 0.38367 1.01836 0.71527
 H367 H 0.33095 0.98322 0.66816
 H368 H 0.32193 1.06628 0.69999
 H369 H 0.29650 1.06582 0.67164
 H370 H 0.28736 1.01772 0.61227
 H371 H 0.28804 0.98041 0.61178
 H372 H 0.32765 0.93021 0.69628
 H373 H 0.33172 1.01633 0.66760
 H374 H 0.30193 0.92991 0.66810
 C375 C 0.70917 0.98738 0.37548
 C376 C 0.70917 1.00675 0.37549
 C377 C 0.70284 1.01241 0.35760
 N378 N 0.69863 0.99708 0.34679
 C379 C 0.70254 0.98179 0.35772
 C380 C 0.70155 1.03144 0.35131
 C381 C 0.69047 1.03643 0.33490
 C382 C 0.69220 1.05338 0.32513
 C383 C 0.67795 1.05337 0.31128
 C384 C 0.66816 1.03614 0.31245
 N385 N 0.67592 1.02592 0.32695
 C386 C 0.65124 1.03100 0.30169
 C387 C 0.64451 1.01203 0.30018
 C388 C 0.62798 1.00618 0.29009
 C389 C 0.62803 0.98680 0.29020
 C390 C 0.64462 0.98134 0.30025
 N391 N 0.65474 0.99676 0.30616
 C392 C 0.65102 0.96244 0.30233
 C393 C 0.66741 0.95717 0.31349
 C394 C 0.67634 0.93955 0.31308
 C395 C 0.69070 0.93971 0.32690
 C396 C 0.69001 0.95736 0.33549
 N397 N 0.67580 0.96790 0.32723
 C398 C 0.70114 0.96281 0.35157
 H399 H 0.71334 0.97842 0.38729
 H400 H 0.71320 1.01563 0.38742
 H401 H 0.67056 0.98075 0.33228
 H402 H 0.70248 1.06479 0.32784
 H403 H 0.67508 1.06501 0.30173
 H404 H 0.61732 1.01485 0.28272
 H405 H 0.61737 0.97779 0.28315
 H406 H 0.70029 0.92803 0.33046
 H407 H 0.67004 1.01358 0.33264
 H408 H 0.67274 0.92769 0.30398
 O409 O 0.82082 0.84424 0.52164
 O410 O 0.84759 0.81752 0.48522
 O411 O 0.82137 0.84426 0.48470
 O412 O 0.84687 0.81729 0.52209
 O413 O 0.82335 0.79578 0.52133
 O414 O 0.79748 0.82310 0.48438
 O415 O 0.82375 0.79633 0.48426
 O416 O 0.79710 0.82291 0.52124
 Cu417 Cu 0.83653 0.83296 0.50349
 Cu418 Cu 0.80806 0.80736 0.50279
 C419 C 0.80433 0.83828 0.52758
 C420 C 0.84029 0.80238 0.47847
 C421 C 0.80499 0.83838 0.47823
 C422 C 0.83959 0.80181 0.52798
 O423 O 0.17826 0.15312 0.51785
 O424 O 0.15354 0.18005 0.48011
 O425 O 0.17969 0.15330 0.48094
 O426 O 0.15221 0.18002 0.51692
 O427 O 0.17596 0.20129 0.51815
 O428 O 0.20333 0.17470 0.48182
 O429 O 0.17702 0.20160 0.48124
 O430 O 0.20214 0.17427 0.51873
 Cu431 Cu 0.16357 0.16447 0.49886
 Cu432 Cu 0.19200 0.19011 0.50009
 C433 C 0.19449 0.15897 0.52466
 C434 C 0.16091 0.19552 0.47432
 C435 C 0.19624 0.15938 0.47524
 C436 C 0.15929 0.19529 0.52362
 O437 O 0.18046 0.84386 0.47974
 O438 O 0.15512 0.81664 0.51688
 O439 O 0.18108 0.84358 0.51671
 O440 O 0.15416 0.81685 0.48031
 O441 O 0.17821 0.79596 0.47890
 O442 O 0.20478 0.82234 0.51642
 O443 O 0.17852 0.79511 0.51599
 O444 O 0.20444 0.82291 0.47950
 Cu445 Cu 0.16538 0.83240 0.49843
 Cu446 Cu 0.19388 0.80693 0.49767
 C447 C 0.19688 0.83816 0.47338
 C448 C 0.16231 0.80108 0.52261
 C449 C 0.19749 0.83759 0.52285
 C450 C 0.16146 0.80182 0.47348
 O451 O 0.84413 0.18314 0.51800
 O452 O 0.81955 0.15535 0.48061
 O453 O 0.84559 0.18249 0.48118
 O454 O 0.81810 0.15613 0.51748
 O455 O 0.79438 0.17732 0.51622
 O456 O 0.82171 0.20348 0.47948
 O457 O 0.79565 0.17634 0.47934
 O458 O 0.82059 0.20449 0.51647
 Cu459 Cu 0.83421 0.16716 0.49945
 Cu460 Cu 0.80570 0.19254 0.49776
 C461 C 0.83668 0.19864 0.52355
 C462 C 0.80332 0.16097 0.47366
 C463 C 0.83841 0.19752 0.47415
 C464 C 0.80150 0.16214 0.52302
 O465 O 0.48125 0.85027 0.82327
 O466 O 0.51977 0.82445 0.84911
 O467 O 0.51930 0.85024 0.82261
 O468 O 0.48170 0.82450 0.84971
 O469 O 0.48145 0.80191 0.82806
 O470 O 0.51848 0.82820 0.80042
 O471 O 0.51971 0.80238 0.82692
 O472 O 0.48025 0.82774 0.80158
 Cu473 Cu 0.50057 0.83959 0.83837
 Cu474 Cu 0.49992 0.81281 0.81204
 C475 C 0.47418 0.84349 0.80799
 C476 C 0.52630 0.80898 0.84250
 C477 C 0.52515 0.84379 0.80676
 C478 C 0.47527 0.80871 0.84366
 O479 O 0.52116 0.17704 0.15405
 O480 O 0.48321 0.15237 0.18167
 O481 O 0.48309 0.17855 0.15569
 O482 O 0.52130 0.15092 0.18024
 O483 O 0.52353 0.17300 0.20231
 O484 O 0.48505 0.20051 0.17791
 O485 O 0.48535 0.17416 0.20403
 O486 O 0.52312 0.19917 0.17610
 Cu487 Cu 0.50200 0.16252 0.16570
 Cu488 Cu 0.50446 0.18890 0.19233
 C489 C 0.52848 0.19243 0.16019
 C490 C 0.47788 0.15892 0.19764
 C491 C 0.47762 0.19433 0.16251
 C492 C 0.52888 0.15716 0.19554
 O493 O 0.48006 0.17957 0.84598
 O494 O 0.51666 0.15344 0.81808
 O495 O 0.51817 0.17930 0.84437
 O496 O 0.47849 0.15370 0.81967
 O497 O 0.47754 0.17591 0.79769
 O498 O 0.51738 0.20153 0.82240
 O499 O 0.51573 0.17554 0.79599
 O500 O 0.47929 0.20193 0.82414
 Cu501 Cu 0.49842 0.16427 0.83421
 Cu502 Cu 0.49739 0.19094 0.80783
 C503 C 0.47356 0.19531 0.83997
 C504 C 0.52240 0.15994 0.80221
 C505 C 0.52448 0.19487 0.83771
 C506 C 0.47129 0.16034 0.80440
 O507 O 0.47863 0.82098 0.15233
 O508 O 0.51661 0.84743 0.17859
 O509 O 0.51671 0.82184 0.15188
 O510 O 0.47844 0.84648 0.17910
 O511 O 0.47992 0.82441 0.20120
 O512 O 0.51723 0.79903 0.17324
 O513 O 0.51810 0.82465 0.19995
 O514 O 0.47894 0.79878 0.17434
 Cu515 Cu 0.49750 0.83643 0.16332
 Cu516 Cu 0.49862 0.80945 0.18935
 C517 C 0.47229 0.80535 0.15879
 C518 C 0.52387 0.84060 0.19376
 C519 C 0.52336 0.80610 0.15776
 C520 C 0.47283 0.83982 0.19494
 O521 O 0.84547 0.51942 0.81931
 O522 O 0.81965 0.48202 0.84585
 O523 O 0.84631 0.48267 0.81946
 O524 O 0.81910 0.51871 0.84605
 O525 O 0.79578 0.51856 0.82420
 O526 O 0.82291 0.48192 0.79769
 O527 O 0.79614 0.48177 0.82418
 O528 O 0.82230 0.51865 0.79730
 Cu529 Cu 0.83497 0.50077 0.83484
 Cu530 Cu 0.80693 0.50020 0.80865
 C531 C 0.83842 0.52527 0.80364
 C532 C 0.80338 0.47560 0.83964
 C533 C 0.83937 0.47614 0.80401
 C534 C 0.80274 0.52473 0.83982
 O535 O 0.15223 0.51651 0.18126
 O536 O 0.18061 0.48080 0.15528
 O537 O 0.15478 0.48009 0.18231
 O538 O 0.17842 0.51752 0.15413
 O539 O 0.20256 0.51919 0.17509
 O540 O 0.17806 0.48277 0.20406
 O541 O 0.20418 0.48253 0.17682
 O542 O 0.17641 0.51962 0.20208
 Cu543 Cu 0.16416 0.49857 0.16608
 Cu544 Cu 0.19268 0.50123 0.19167
 C545 C 0.15940 0.52412 0.19610
 C546 C 0.19721 0.47548 0.16159
 C547 C 0.16222 0.47518 0.19813
 C548 C 0.19468 0.52457 0.15962
 O549 O 0.84294 0.48084 0.18178
 O550 O 0.81676 0.51714 0.15431
 O551 O 0.84322 0.51742 0.18124
 O552 O 0.81671 0.48042 0.15494
 O553 O 0.79313 0.48070 0.17637
 O554 O 0.81954 0.51828 0.20257
 O555 O 0.79310 0.51751 0.17564
 O556 O 0.81967 0.48145 0.20352
 Cu557 Cu 0.83223 0.49894 0.16590
 Cu558 Cu 0.80398 0.49950 0.19169
 C559 C 0.83594 0.47507 0.19744
 C560 C 0.80039 0.52345 0.16015
 C561 C 0.83604 0.52410 0.19646
 C562 C 0.80038 0.47424 0.16107
 O563 O 0.15660 0.47838 0.82039
 O564 O 0.18395 0.51613 0.84506
 O565 O 0.15730 0.51495 0.81850
 O566 O 0.18327 0.47946 0.84723
 O567 O 0.20650 0.47765 0.82553
 O568 O 0.18051 0.51345 0.79676
 O569 O 0.20736 0.51446 0.82354
 O570 O 0.17992 0.47667 0.79876
 Cu571 Cu 0.16797 0.49736 0.83497
 Cu572 Cu 0.19593 0.49542 0.80898
 C573 C 0.16346 0.47119 0.80526
 C574 C 0.20038 0.52170 0.83860
 C575 C 0.16433 0.52019 0.80266
 C576 C 0.19936 0.47253 0.84138
 C577 C 0.27500 0.38661 0.07892
 C578 C 0.28627 0.39521 0.06460
 C579 C 0.29608 0.38420 0.05116
 C580 C 0.29483 0.36441 0.05182
 C581 C 0.28381 0.35573 0.06620
 C582 C 0.27393 0.36674 0.07962
 C583 C 0.26403 0.39839 0.09274
 C584 C 0.24461 0.39376 0.09766
 C585 C 0.23388 0.40545 0.10982
 C586 C 0.24237 0.42197 0.11740
 C587 C 0.26196 0.42635 0.11286
 C588 C 0.27266 0.41471 0.10063
 C589 C 0.23059 0.43502 0.12933
 C590 C 0.23883 0.44367 0.14550
 C591 C 0.22790 0.45656 0.15621
 C592 C 0.20855 0.46116 0.15089
 C593 C 0.20026 0.45231 0.13485
 C594 C 0.21114 0.43937 0.12422
 H595 H 0.28717 0.41047 0.06355
 H596 H 0.30455 0.39109 0.04015
 H597 H 0.28278 0.34045 0.06692
 H598 H 0.26552 0.35973 0.09060
 H599 H 0.23752 0.38136 0.09170
 H600 H 0.21888 0.40161 0.11322
 H601 H 0.26884 0.43907 0.11835
 H602 H 0.28767 0.41853 0.09726
 H603 H 0.25372 0.44044 0.14988
 H604 H 0.23470 0.46312 0.16851
 H605 H 0.18540 0.45553 0.13035
 H606 H 0.20448 0.43313 0.11169
 C607 C 0.72306 0.61158 0.07559
 C608 C 0.71127 0.60366 0.06118
 C609 C 0.70163 0.61525 0.04810
 C610 C 0.70364 0.63498 0.04914
 C611 C 0.71488 0.64300 0.06385
 C612 C 0.72450 0.63139 0.07700
 C613 C 0.73443 0.59915 0.08855
 C614 C 0.73586 0.60317 0.10808
 C615 C 0.74674 0.59141 0.12013
 C616 C 0.75655 0.57550 0.11286
 C617 C 0.75512 0.57153 0.09335
 C618 C 0.74419 0.58320 0.08134
 C619 C 0.76820 0.56296 0.12549
 C620 C 0.78644 0.55590 0.11950
 C621 C 0.79703 0.54336 0.13092
 C622 C 0.78960 0.53754 0.14858
 C623 C 0.77153 0.54489 0.15476
 C624 C 0.76095 0.55751 0.14335
 H625 H 0.70961 0.58846 0.05994
 H626 H 0.69287 0.60885 0.03692
 H627 H 0.71658 0.65821 0.06482
 H628 H 0.73359 0.63788 0.08786
 H629 H 0.72839 0.61530 0.11404
 H630 H 0.74770 0.59488 0.13510
 H631 H 0.76232 0.55925 0.08737
 H632 H 0.74357 0.57986 0.06633
 H633 H 0.79254 0.56007 0.10594
 H634 H 0.81094 0.53804 0.12576
 H635 H 0.76540 0.54069 0.16830
 H636 H 0.74686 0.56260 0.14827
 C637 C 0.72720 0.38579 0.92293
 C638 C 0.72862 0.36595 0.92229
 C639 C 0.71861 0.35479 0.93552
 C640 C 0.70716 0.36330 0.94966
 C641 C 0.70559 0.38307 0.95025
 C642 C 0.71548 0.39422 0.93698
 C643 C 0.73823 0.39775 0.90930
 C644 C 0.72932 0.41365 0.90099
 C645 C 0.73997 0.42543 0.88884
 C646 C 0.75979 0.42163 0.88482
 C647 C 0.76863 0.40557 0.89292
 C648 C 0.75793 0.39372 0.90498
 C649 C 0.77132 0.43472 0.87270
 C650 C 0.79048 0.44010 0.87799
 C651 C 0.80099 0.45318 0.86712
 C652 C 0.79262 0.46109 0.85067
 C653 C 0.77361 0.45540 0.84517
 C654 C 0.76306 0.44240 0.85610
 H655 H 0.73741 0.35908 0.91151
 H656 H 0.71996 0.33954 0.93490
 H657 H 0.69681 0.38984 0.96111
 H658 H 0.71431 0.40947 0.93797
 H659 H 0.71411 0.41700 0.90393
 H660 H 0.73282 0.43779 0.88295
 H661 H 0.78383 0.40221 0.88994
 H662 H 0.76522 0.38164 0.91130
 H663 H 0.79714 0.43457 0.89083
 H664 H 0.81560 0.45727 0.87175
 H665 H 0.76675 0.46120 0.83255
 H666 H 0.74841 0.43835 0.85157
 C667 C 0.27747 0.61303 0.91998
 C668 C 0.27635 0.63289 0.91922
 C669 C 0.28561 0.64399 0.93309
 C670 C 0.29602 0.63541 0.94800
 C671 C 0.29745 0.61563 0.94862
 C672 C 0.28830 0.60454 0.93472
 C673 C 0.26672 0.60112 0.90599
 C674 C 0.27542 0.58474 0.89846
 C675 C 0.26479 0.57281 0.88633
 C676 C 0.24519 0.57695 0.88154
 C677 C 0.23665 0.59356 0.88870
 C678 C 0.24731 0.60555 0.90075
 C679 C 0.23344 0.56352 0.86986
 C680 C 0.21404 0.55904 0.87502
 C681 C 0.20325 0.54567 0.86471
 C682 C 0.21156 0.53652 0.84893
 C683 C 0.23083 0.54127 0.84353
 C684 C 0.24168 0.55459 0.85393
 H685 H 0.26826 0.63982 0.90793
 H686 H 0.28436 0.65925 0.93243
 H687 H 0.30541 0.60880 0.96006
 H688 H 0.28921 0.58929 0.93583
 H689 H 0.29041 0.58106 0.90210
 H690 H 0.27171 0.56003 0.88116
 H691 H 0.22163 0.59721 0.88510
 H692 H 0.24016 0.61798 0.90645
 H693 H 0.20738 0.56551 0.88736
 H694 H 0.18845 0.54234 0.86925
 H695 H 0.23765 0.53449 0.83144
 H696 H 0.25653 0.55790 0.84952
 C697 C 0.07718 0.27365 0.38624
 C698 C 0.07764 0.27318 0.36626
 C699 C 0.06383 0.28332 0.35562
 C700 C 0.04930 0.29395 0.36479
 C701 C 0.04886 0.29455 0.38469
 C702 C 0.06270 0.28451 0.39533
 C703 C 0.09143 0.26251 0.39763
 C704 C 0.10009 0.27031 0.41403
 C705 C 0.11264 0.25947 0.42538
 C706 C 0.11669 0.24057 0.42062
 C707 C 0.10836 0.23290 0.40401
 C708 C 0.09590 0.24378 0.39260
 C709 C 0.12881 0.22867 0.43346
 C710 C 0.12284 0.21015 0.43783
 C711 C 0.13348 0.19928 0.45084
 C712 C 0.15039 0.20667 0.45970
 C713 C 0.15665 0.22503 0.45498
 C714 C 0.14592 0.23595 0.44203
 H715 H 0.08874 0.26507 0.35890
 H716 H 0.06437 0.28280 0.34025
 H717 H 0.03772 0.30272 0.39195
 H718 H 0.06183 0.28494 0.41068
 H719 H 0.09706 0.28478 0.41814
 H720 H 0.11870 0.26571 0.43818
 H721 H 0.11138 0.21842 0.39992
 H722 H 0.08933 0.23736 0.38012
 H723 H 0.10959 0.20424 0.43162
 H724 H 0.12827 0.18518 0.45416
 H725 H 0.16962 0.23112 0.46154
 H726 H 0.15096 0.25012 0.43878
 C727 C 0.07928 0.71961 0.60860
 C728 C 0.06372 0.70927 0.60038
 C729 C 0.05063 0.69919 0.61177
 C730 C 0.05281 0.69925 0.63159
 C731 C 0.06866 0.70901 0.63985
 C732 C 0.08181 0.71911 0.62844
 C733 C 0.09221 0.73150 0.59653
 C734 C 0.11259 0.73241 0.59981
 C735 C 0.12458 0.74385 0.58846
 C736 C 0.11639 0.75472 0.57371
 C737 C 0.09602 0.75375 0.57045
 C738 C 0.08409 0.74230 0.58172
 C739 C 0.12890 0.76701 0.56163
 C740 C 0.12231 0.78506 0.55624
 C741 C 0.13340 0.79625 0.54394
 C742 C 0.15137 0.78968 0.53673
 C743 C 0.15826 0.77185 0.54252
 C744 C 0.14714 0.76063 0.55488
 H745 H 0.06160 0.70911 0.58513
 H746 H 0.03855 0.69159 0.60518
 H747 H 0.07052 0.70920 0.65514
 H748 H 0.09355 0.72705 0.63518
 H749 H 0.11928 0.72415 0.61104
 H750 H 0.14021 0.74440 0.59137
 H751 H 0.08930 0.76176 0.55904
 H752 H 0.06841 0.74210 0.57899
 H753 H 0.10848 0.79050 0.56148
 H754 H 0.12771 0.80996 0.53987
 H755 H 0.17204 0.76637 0.53721
 H756 H 0.15253 0.74673 0.55868
 C757 C 0.92070 0.72850 0.38355
 C758 C 0.92684 0.73588 0.36595
 C759 C 0.94028 0.72602 0.35471
 C760 C 0.94764 0.70854 0.36077
 C761 C 0.94122 0.70085 0.37800
 C762 C 0.92793 0.71076 0.38934
 C763 C 0.90750 0.73956 0.39619
 C764 C 0.89333 0.73043 0.40746
 C765 C 0.88181 0.74073 0.42021
 C766 C 0.88409 0.76044 0.42191
 C767 C 0.89788 0.76962 0.41025
 C768 C 0.90949 0.75931 0.39763
 C769 C 0.87262 0.77132 0.43618
 C770 C 0.88143 0.78637 0.44618
 C771 C 0.87086 0.79649 0.45976
 C772 C 0.85127 0.79173 0.46384
 C773 C 0.84241 0.77668 0.45391
 C774 C 0.85295 0.76663 0.44018
 H775 H 0.92132 0.74933 0.36089
 H776 H 0.94511 0.73209 0.34139
 H777 H 0.94690 0.68739 0.38288
 H778 H 0.92382 0.70478 0.40291
 H779 H 0.89119 0.71528 0.40653
 H780 H 0.87147 0.73317 0.42907
 H781 H 0.89980 0.78482 0.41094
 H782 H 0.92039 0.76681 0.38935
 H783 H 0.89665 0.79013 0.44377
 H784 H 0.87817 0.80792 0.46726
 H785 H 0.82730 0.77273 0.45666
 H786 H 0.84562 0.75530 0.43257
 C787 C 0.91863 0.27743 0.61331
 C788 C 0.91858 0.27612 0.63326
 C789 C 0.93271 0.28571 0.64410
 C790 C 0.94718 0.29667 0.63516
 C791 C 0.94704 0.29835 0.61531
 C792 C 0.93289 0.28884 0.60448
 C793 C 0.90448 0.26634 0.60166
 C794 C 0.89570 0.27430 0.58542
 C795 C 0.88347 0.26340 0.57372
 C796 C 0.87982 0.24429 0.57795
 C797 C 0.88819 0.23647 0.59444
 C798 C 0.90035 0.24738 0.60619
 C799 C 0.86811 0.23233 0.56473
 C800 C 0.87445 0.21398 0.56017
 C801 C 0.86408 0.20298 0.54701
 C802 C 0.84707 0.21004 0.53815
 C803 C 0.84049 0.22826 0.54296
 C804 C 0.85094 0.23932 0.55607
 H805 H 0.90765 0.26761 0.64046
 H806 H 0.93261 0.28432 0.65942
 H807 H 0.95812 0.30678 0.60822
 H808 H 0.93346 0.28994 0.58915
 H809 H 0.89845 0.28892 0.58168
 H810 H 0.87735 0.26978 0.56103
 H811 H 0.88548 0.22183 0.59817
 H812 H 0.90703 0.24080 0.61851
 H813 H 0.88776 0.20830 0.56641
 H814 H 0.86956 0.18901 0.54363
 H815 H 0.82743 0.23410 0.53640
 H816 H 0.84560 0.25334 0.55945
 C817 C 0.38828 0.07653 0.27582
 C818 C 0.36762 0.07724 0.27572
 C819 C 0.35664 0.06365 0.28550
 C820 C 0.36614 0.04909 0.29544
 C821 C 0.38674 0.04845 0.29574
 C822 C 0.39772 0.06206 0.28605
 C823 C 0.40000 0.09044 0.26484
 C824 C 0.41733 0.09823 0.27252
 C825 C 0.42894 0.11051 0.26176
 C826 C 0.42354 0.11518 0.24305
 C827 C 0.40601 0.10770 0.23551
 C828 C 0.39433 0.09550 0.24631
 C829 C 0.43662 0.12709 0.23117
 C830 C 0.44043 0.12201 0.21224
 C831 C 0.45357 0.13254 0.20129
 C832 C 0.46315 0.14845 0.20898
 C833 C 0.45902 0.15380 0.22779
 C834 C 0.44594 0.14318 0.23879
 H835 H 0.35997 0.08832 0.26810
 H836 H 0.34074 0.06434 0.28515
 H837 H 0.39428 0.03728 0.30335
 H838 H 0.41360 0.06101 0.28619
 H839 H 0.42195 0.09473 0.28683
 H840 H 0.44246 0.11593 0.26789
 H841 H 0.40139 0.11118 0.22120
 H842 H 0.38115 0.08961 0.23996
 H843 H 0.43365 0.10956 0.20605
 H844 H 0.45642 0.12804 0.18685
 H845 H 0.46614 0.16599 0.23413
 H846 H 0.44313 0.14752 0.25329
 C847 C 0.61095 0.07706 0.72354
 C848 C 0.63162 0.07763 0.72392
 C849 C 0.64257 0.06425 0.71387
 C850 C 0.63303 0.05003 0.70341
 C851 C 0.61243 0.04952 0.70284
 C852 C 0.60148 0.06294 0.71278
 C853 C 0.59924 0.09079 0.73471
 C854 C 0.58221 0.09898 0.72694
 C855 C 0.57063 0.11116 0.73781
 C856 C 0.57577 0.11532 0.75672
 C857 C 0.59299 0.10739 0.76438
 C858 C 0.60464 0.09531 0.75347
 C859 C 0.56280 0.12729 0.76860
 C860 C 0.55847 0.12198 0.78736
 C861 C 0.54554 0.13271 0.79832
 C862 C 0.53672 0.14906 0.79081
 C863 C 0.54134 0.15457 0.77216
 C864 C 0.55419 0.14376 0.76115
 H865 H 0.63930 0.08846 0.73194
 H866 H 0.65848 0.06483 0.71440
 H867 H 0.60486 0.03861 0.69482
 H868 H 0.58559 0.06201 0.71241
 H869 H 0.57781 0.09589 0.71247
 H870 H 0.55736 0.11693 0.73158
 H871 H 0.59740 0.11049 0.77885
 H872 H 0.61759 0.08909 0.75988
 H873 H 0.56470 0.10924 0.79341
 H874 H 0.54230 0.12807 0.81263
 H875 H 0.53480 0.16710 0.76597
 H876 H 0.55742 0.14829 0.74680
 C877 C 0.38104 0.92390 0.73090
 C878 C 0.36289 0.93075 0.73754
 C879 C 0.35230 0.94406 0.72702
 C880 C 0.35953 0.95057 0.70960
 C881 C 0.37732 0.94349 0.70266
 C882 C 0.38804 0.93035 0.71325
 C883 C 0.39298 0.91067 0.74262
 C884 C 0.40428 0.89641 0.73403
 C885 C 0.41646 0.88480 0.74498
 C886 C 0.41753 0.88705 0.76481
 C887 C 0.40578 0.90093 0.77344
 C888 C 0.39374 0.91265 0.76249
 C889 C 0.43140 0.87551 0.77634
 C890 C 0.44159 0.88369 0.79172
 C891 C 0.45516 0.87316 0.80219
 C892 C 0.45905 0.85424 0.79742
 C893 C 0.44878 0.84596 0.78217
 C894 C 0.43504 0.85645 0.77180
 H895 H 0.35688 0.92585 0.75088
 H896 H 0.33852 0.94939 0.73249
 H897 H 0.38309 0.94850 0.68924
 H898 H 0.40209 0.92565 0.70783
 H899 H 0.40382 0.89429 0.71880
 H900 H 0.42544 0.87440 0.73781
 H901 H 0.40597 0.90285 0.78870
 H902 H 0.38544 0.92360 0.76959
 H903 H 0.43947 0.89842 0.79541
 H904 H 0.46294 0.88000 0.81377
 H905 H 0.45138 0.83136 0.77823
 H906 H 0.42723 0.84962 0.76024
 C907 C 0.61807 0.92098 0.27065
 C908 C 0.61129 0.92755 0.28834
 C909 C 0.62230 0.94062 0.29885
 C910 C 0.64019 0.94747 0.29182
 C911 C 0.64720 0.94081 0.27437
 C912 C 0.63630 0.92759 0.26391
 C913 C 0.60579 0.90788 0.25900
 C914 C 0.60487 0.90986 0.23913
 C915 C 0.59255 0.89824 0.22825
 C916 C 0.58069 0.88445 0.23695
 C917 C 0.58188 0.88222 0.25678
 C918 C 0.59432 0.89374 0.26765
 C919 C 0.56666 0.87290 0.22549
 C920 C 0.56297 0.85384 0.23003
 C921 C 0.54920 0.84328 0.21966
 C922 C 0.53893 0.85149 0.20440
 C923 C 0.54284 0.87044 0.19967
 C924 C 0.55646 0.88103 0.21012
 H925 H 0.59720 0.92305 0.29383
 H926 H 0.61665 0.94579 0.31225
 H927 H 0.66101 0.94601 0.26878
 H928 H 0.64212 0.92262 0.25052
 H929 H 0.61329 0.92072 0.23199
 H930 H 0.59226 0.90016 0.21300
 H931 H 0.57283 0.87188 0.26400
 H932 H 0.59487 0.89162 0.28288
 H933 H 0.57078 0.84703 0.24158
 H934 H 0.54660 0.82868 0.22359
 H935 H 0.53508 0.87723 0.18808
 H936 H 0.55863 0.89574 0.20642
 C937 C 0.39020 0.27346 0.92864
 C938 C 0.39910 0.27989 0.94550
 C939 C 0.38837 0.29016 0.95883
 C940 C 0.36840 0.29440 0.95567
 C941 C 0.35967 0.28846 0.93847
 C942 C 0.37041 0.27806 0.92517
 C943 C 0.40146 0.26167 0.91498
 C944 C 0.39910 0.26396 0.89526
 C945 C 0.40986 0.25286 0.88254
 C946 C 0.42322 0.23924 0.88926
 C947 C 0.42550 0.23695 0.90898
 C948 C 0.41472 0.24796 0.92166
 C949 C 0.43505 0.22766 0.87587
 C950 C 0.43912 0.20859 0.87994
 C951 C 0.45130 0.19800 0.86808
 C952 C 0.45958 0.20618 0.85176
 C953 C 0.45504 0.22506 0.84734
 C954 C 0.44294 0.23570 0.85929
 H955 H 0.41446 0.27704 0.94838
 H956 H 0.39579 0.29501 0.97159
 H957 H 0.34427 0.29121 0.93563
 H958 H 0.36304 0.27314 0.91243
 H959 H 0.38913 0.27450 0.88964
 H960 H 0.40761 0.25487 0.86744
 H961 H 0.43586 0.22680 0.91466
 H962 H 0.41668 0.24561 0.93675
 H963 H 0.43296 0.20183 0.89237
 H964 H 0.45438 0.18344 0.87180
 H965 H 0.46125 0.23179 0.83490
 H966 H 0.44028 0.25040 0.85584
 C967 C 0.61881 0.73148 0.92325
 C968 C 0.61179 0.71368 0.92915
 C969 C 0.62231 0.70295 0.94236
 C970 C 0.63998 0.70984 0.95009
 C971 C 0.64715 0.72749 0.94413
 C972 C 0.63676 0.73813 0.93074
 C973 C 0.60704 0.74332 0.90996
 C974 C 0.60624 0.76306 0.91227
 C975 C 0.59434 0.77410 0.90049
 C976 C 0.58272 0.76568 0.88623
 C977 C 0.58383 0.74598 0.88365
 C978 C 0.59591 0.73496 0.89530
 C979 C 0.56894 0.77728 0.87464
 C980 C 0.56529 0.77293 0.85543
 C981 C 0.55159 0.78332 0.84490
 C982 C 0.54140 0.79842 0.85328
 C983 C 0.54532 0.80302 0.87234
 C984 C 0.55882 0.79251 0.88292
 H985 H 0.59786 0.70826 0.92401
 H986 H 0.61637 0.68948 0.94697
 H987 H 0.66079 0.73304 0.94989
 H988 H 0.64278 0.75160 0.92628
 H989 H 0.61441 0.77000 0.92353
 H990 H 0.59414 0.78926 0.90268
 H991 H 0.57495 0.73896 0.87296
 H992 H 0.59640 0.71984 0.89288
 H993 H 0.57305 0.76150 0.84850
 H994 H 0.54897 0.77952 0.83020
 H995 H 0.53758 0.81448 0.87926
 H996 H 0.56092 0.79606 0.89776
 C997 C 0.37863 0.72873 0.07747
 C998 C 0.38552 0.71121 0.07073
 C999 C 0.37470 0.70089 0.05734
 C1000 C 0.35683 0.70792 0.05028
 C1001 C 0.34975 0.72526 0.05712
 C1002 C 0.36045 0.73549 0.07069
 C1003 C 0.39077 0.74025 0.09084
 C1004 C 0.39143 0.76007 0.08918
 C1005 C 0.40362 0.77086 0.10100
 C1006 C 0.41570 0.76211 0.11466
 C1007 C 0.41476 0.74233 0.11659
 C1008 C 0.40240 0.73155 0.10489
 C1009 C 0.42970 0.77352 0.12632
 C1010 C 0.43382 0.76867 0.14531
 C1011 C 0.44755 0.77905 0.15594
 C1012 C 0.45731 0.79463 0.14787
 C1013 C 0.45298 0.79964 0.12901
 C1014 C 0.43945 0.78917 0.11834
 H1015 H 0.39959 0.70572 0.07532
 H1016 H 0.38058 0.68767 0.05203
 H1017 H 0.33599 0.73094 0.05184
 H1018 H 0.35452 0.74874 0.07578
 H1019 H 0.38289 0.76729 0.07839
 H1020 H 0.40368 0.78608 0.09932
 H1021 H 0.42397 0.73507 0.12681
 H1022 H 0.40206 0.71636 0.10679
 H1023 H 0.42639 0.75690 0.15202
 H1024 H 0.45049 0.77490 0.17048
 H1025 H 0.46037 0.81147 0.12232
 H1026 H 0.43698 0.79311 0.10367
 C1027 C 0.61509 0.26897 0.07298
 C1028 C 0.60576 0.27882 0.05813
 C1029 C 0.61677 0.28914 0.04503
 C1030 C 0.63733 0.28981 0.04650
 C1031 C 0.64670 0.28041 0.06154
 C1032 C 0.63568 0.27006 0.07468
 C1033 C 0.60335 0.25727 0.08632
 C1034 C 0.60768 0.25704 0.10587
 C1035 C 0.59642 0.24609 0.11833
 C1036 C 0.58067 0.23508 0.11149
 C1037 C 0.57645 0.23525 0.09193
 C1038 C 0.58766 0.24620 0.07951
 C1039 C 0.56841 0.22365 0.12463
 C1040 C 0.56181 0.20556 0.11926
 C1041 C 0.54922 0.19526 0.13101
 C1042 C 0.54297 0.20280 0.14845
 C1043 C 0.55001 0.22066 0.15410
 C1044 C 0.56260 0.23098 0.14231
 H1045 H 0.58991 0.27855 0.05665
 H1046 H 0.60930 0.29650 0.03361
 H1047 H 0.66257 0.28081 0.06286
 H1048 H 0.64329 0.26251 0.08588
 H1049 H 0.61959 0.26554 0.11156
 H1050 H 0.60012 0.24613 0.13331
 H1051 H 0.56427 0.22712 0.08624
 H1052 H 0.58411 0.24587 0.06450
 H1053 H 0.56630 0.19938 0.10588
 H1054 H 0.54418 0.18149 0.12629
 H1055 H 0.54544 0.22688 0.16743
 H1056 H 0.56729 0.24495 0.14677
 C1057 C 0.26740 0.07402 0.61590
 C1058 C 0.28770 0.07644 0.61890
 C1059 C 0.29830 0.06331 0.62967
 C1060 C 0.28877 0.04761 0.63765
 C1061 C 0.26840 0.04551 0.63520
 C1062 C 0.25782 0.05854 0.62436
 C1063 C 0.25634 0.08712 0.60338
 C1064 C 0.24284 0.07993 0.59005
 C1065 C 0.23260 0.09209 0.57797
 C1066 C 0.23552 0.11177 0.57898
 C1067 C 0.24901 0.11897 0.59236
 C1068 C 0.25936 0.10677 0.60440
 C1069 C 0.22470 0.12458 0.56588
 C1070 C 0.23406 0.14037 0.55777
 C1071 C 0.22413 0.15181 0.54469
 C1072 C 0.20466 0.14764 0.53936
 C1073 C 0.19518 0.13209 0.54777
 C1074 C 0.20505 0.12075 0.56092
 H1075 H 0.29547 0.08816 0.61244
 H1076 H 0.31402 0.06514 0.63143
 H1077 H 0.26077 0.03358 0.64143
 H1078 H 0.24215 0.05649 0.62253
 H1079 H 0.24049 0.06483 0.58870
 H1080 H 0.22266 0.08602 0.56756
 H1081 H 0.25142 0.13407 0.59367
 H1082 H 0.26955 0.11269 0.61467
 H1083 H 0.24925 0.14359 0.56111
 H1084 H 0.23186 0.16365 0.53841
 H1085 H 0.18013 0.12860 0.54409
 H1086 H 0.19727 0.10893 0.56718
 C1087 C 0.73188 0.07378 0.38304
 C1088 C 0.71243 0.07673 0.37694
 C1089 C 0.70253 0.06294 0.36632
 C1090 C 0.71179 0.04577 0.36155
 C1091 C 0.73140 0.04304 0.36744
 C1092 C 0.74128 0.05683 0.37804
 C1093 C 0.74220 0.08804 0.39501
 C1094 C 0.76226 0.09192 0.39227
 C1095 C 0.77222 0.10456 0.40420
 C1096 C 0.76233 0.11364 0.41914
 C1097 C 0.74217 0.11007 0.42163
 C1098 C 0.73222 0.09741 0.40972
 C1099 C 0.77314 0.12625 0.43247
 C1100 C 0.76461 0.14311 0.43904
 C1101 C 0.77453 0.15456 0.45218
 C1102 C 0.79316 0.14935 0.45909
 C1103 C 0.80178 0.13261 0.45233
 C1104 C 0.79190 0.12121 0.43916
 H1105 H 0.70484 0.08973 0.38042
 H1106 H 0.68737 0.06549 0.36233
 H1107 H 0.73923 0.03025 0.36368
 H1108 H 0.75620 0.05403 0.38265
 H1109 H 0.77028 0.08519 0.38086
 H1110 H 0.78767 0.10726 0.40173
 H1111 H 0.73421 0.11664 0.43317
 H1112 H 0.71684 0.09452 0.41239
 H1113 H 0.75027 0.14748 0.43398
 H1114 H 0.76749 0.16739 0.45708
 H1115 H 0.81610 0.12816 0.45738
 H1116 H 0.79875 0.10818 0.43456
 C1117 C 0.72496 0.92579 0.61059
 C1118 C 0.71828 0.94261 0.60217
 C1119 C 0.70797 0.95596 0.61279
 C1120 C 0.70398 0.95289 0.63217
 C1121 C 0.71012 0.93571 0.64042
 C1122 C 0.72053 0.92236 0.62977
 C1123 C 0.73692 0.91218 0.59944
 C1124 C 0.73431 0.89254 0.60145
 C1125 C 0.74556 0.87987 0.59075
 C1126 C 0.75969 0.88658 0.57785
 C1127 C 0.76232 0.90622 0.57593
 C1128 C 0.75113 0.91883 0.58662
 C1129 C 0.77148 0.87330 0.56613
 C1130 C 0.79135 0.87719 0.56230
 C1131 C 0.80210 0.86556 0.55014
 C1132 C 0.79330 0.84967 0.54161
 C1133 C 0.77363 0.84537 0.54593
 C1134 C 0.76282 0.85708 0.55804
 H1135 H 0.72097 0.94545 0.58729
 H1136 H 0.70290 0.96867 0.60574
 H1137 H 0.70756 0.93291 0.65534
 H1138 H 0.72564 0.90963 0.63673
 H1139 H 0.72338 0.88696 0.61110
 H1140 H 0.74329 0.86483 0.59267
 H1141 H 0.77285 0.91188 0.56594
 H1142 H 0.75373 0.93386 0.58493
 H1143 H 0.79858 0.88934 0.56861
 H1144 H 0.81728 0.86917 0.54725
 H1145 H 0.76641 0.83325 0.53954
 H1146 H 0.74750 0.85379 0.56055
 C1147 C 0.27215 0.92379 0.38501
 C1148 C 0.28395 0.93764 0.39380
 C1149 C 0.29382 0.95114 0.38291
 C1150 C 0.29212 0.95100 0.36305
 C1151 C 0.28060 0.93707 0.35417
 C1152 C 0.27061 0.92360 0.36507
 C1153 C 0.26121 0.90987 0.39671
 C1154 C 0.24150 0.90547 0.39254
 C1155 C 0.23092 0.89310 0.40417
 C1156 C 0.23986 0.88477 0.42013
 C1157 C 0.25969 0.88888 0.42406
 C1158 C 0.27023 0.90133 0.41251
 C1159 C 0.22846 0.87228 0.43299
 C1160 C 0.23689 0.85572 0.44041
 C1161 C 0.22649 0.84445 0.45324
 C1162 C 0.20746 0.84955 0.45901
 C1163 C 0.19891 0.86596 0.45134
 C1164 C 0.20928 0.87717 0.43844
 H1165 H 0.28522 0.93828 0.40913
 H1166 H 0.30268 0.96181 0.38996
 H1167 H 0.27920 0.93677 0.33884
 H1168 H 0.26178 0.91298 0.35793
 H1169 H 0.23413 0.91196 0.38055
 H1170 H 0.21571 0.89006 0.40070
 H1171 H 0.26693 0.88282 0.43635
 H1172 H 0.28545 0.90432 0.41595
 H1173 H 0.25156 0.85148 0.43629
 H1174 H 0.23349 0.83188 0.45884
 H1175 H 0.18428 0.87028 0.45550
 H1176 H 0.20248 0.88996 0.43311
 C1177 C 0.07909 0.38086 0.72884
 C1178 C 0.07093 0.36405 0.73613
 C1179 C 0.05713 0.35374 0.72559
 C1180 C 0.05140 0.35983 0.70742
 C1181 C 0.05988 0.37632 0.69988
 C1182 C 0.07351 0.38675 0.71050
 C1183 C 0.09272 0.39261 0.74057
 C1184 C 0.10826 0.40267 0.73213
 C1185 C 0.12029 0.41457 0.74301
 C1186 C 0.11724 0.41657 0.76267
 C1187 C 0.10205 0.40611 0.77119
 C1188 C 0.08988 0.39437 0.76028
 C1189 C 0.12941 0.42998 0.77410
 C1190 C 0.12090 0.44054 0.78889
 C1191 C 0.13208 0.45359 0.79924
 C1192 C 0.15199 0.45659 0.79494
 C1193 C 0.16059 0.44597 0.78029
 C1194 C 0.14946 0.43274 0.77006
 H1195 H 0.07514 0.35889 0.75003
 H1196 H 0.05079 0.34104 0.73166
 H1197 H 0.05545 0.38144 0.68600
 H1198 H 0.07917 0.39978 0.70455
 H1199 H 0.11109 0.40145 0.71705
 H1200 H 0.13170 0.42255 0.73590
 H1201 H 0.09945 0.40703 0.78633
 H1202 H 0.07794 0.38705 0.76727
 H1203 H 0.10545 0.43909 0.79219
 H1204 H 0.12498 0.46167 0.81034
 H1205 H 0.17594 0.44788 0.77672
 H1206 H 0.15660 0.42464 0.75901
 C1207 C 0.07425 0.61682 0.26829
 C1208 C 0.05861 0.62629 0.25924
 C1209 C 0.04510 0.63676 0.26974
 C1210 C 0.04715 0.63861 0.28954
 C1211 C 0.06339 0.63012 0.29850
 C1212 C 0.07657 0.61910 0.28807
 C1213 C 0.08750 0.60406 0.25725
 C1214 C 0.10712 0.60100 0.26289
 C1215 C 0.11907 0.58826 0.25302
 C1216 C 0.11190 0.57854 0.23695
 C1217 C 0.09249 0.58208 0.23099
 C1218 C 0.08041 0.59437 0.24114
 C1219 C 0.12435 0.56455 0.22660
 C1220 C 0.11566 0.54886 0.21746
 C1221 C 0.12709 0.53596 0.20737
 C1222 C 0.14756 0.53804 0.20663
 C1223 C 0.15645 0.55334 0.21605
 C1224 C 0.14495 0.56661 0.22572
 H1225 H 0.05667 0.62559 0.24400
 H1226 H 0.03305 0.64361 0.26235
 H1227 H 0.06530 0.63121 0.31376
 H1228 H 0.08816 0.61187 0.29570
 H1229 H 0.11334 0.60840 0.27496
 H1230 H 0.13381 0.58584 0.25827
 H1231 H 0.08647 0.57534 0.21845
 H1232 H 0.06534 0.59591 0.23644
 H1233 H 0.10000 0.54631 0.21825
 H1234 H 0.11994 0.52409 0.20045
 H1235 H 0.17225 0.55525 0.21558
 H1236 H 0.15224 0.57860 0.23224
 C1237 C 0.92303 0.39189 0.27808
 C1238 C 0.91904 0.37275 0.28191
 C1239 C 0.93255 0.36172 0.29201
 C1240 C 0.95048 0.36953 0.29841
 C1241 C 0.95407 0.38888 0.29507
 C1242 C 0.94054 0.39989 0.28509
 C1243 C 0.90942 0.40336 0.26623
 C1244 C 0.91696 0.41616 0.25283
 C1245 C 0.90436 0.42696 0.24156
 C1246 C 0.88387 0.42518 0.24330
 C1247 C 0.87627 0.41238 0.25669
 C1248 C 0.88891 0.40156 0.26803
 C1249 C 0.87064 0.43683 0.23122
 C1250 C 0.85356 0.44506 0.23878
 C1251 C 0.84192 0.45708 0.22767
 C1252 C 0.84717 0.46116 0.20881
 C1253 C 0.86391 0.45247 0.20111
 C1254 C 0.87545 0.44041 0.21216
 H1255 H 0.90578 0.36611 0.27653
 H1256 H 0.92936 0.34684 0.29407
 H1257 H 0.96738 0.39556 0.30033
 H1258 H 0.94382 0.41471 0.28283
 H1259 H 0.93266 0.41770 0.25088
 H1260 H 0.91072 0.43689 0.23160
 H1261 H 0.86055 0.41058 0.25827
 H1262 H 0.88265 0.39193 0.27833
 H1263 H 0.84954 0.44272 0.25346
 H1264 H 0.82913 0.46360 0.23401
 H1265 H 0.86825 0.45516 0.18657
 H1266 H 0.88826 0.43397 0.20578
 C1267 C 0.92465 0.61058 0.72542
 C1268 C 0.94149 0.60177 0.71816
 C1269 C 0.95552 0.61221 0.70823
 C1270 C 0.95299 0.63175 0.70511
 C1271 C 0.93587 0.64047 0.71214
 C1272 C 0.92196 0.63003 0.72234
 C1273 C 0.91016 0.59946 0.73644
 C1274 C 0.90328 0.60610 0.75401
 C1275 C 0.89060 0.59499 0.76497
 C1276 C 0.88436 0.57717 0.75840
 C1277 C 0.89085 0.57077 0.74060
 C1278 C 0.90371 0.58176 0.72978
 C1279 C 0.87174 0.56491 0.77033
 C1280 C 0.85561 0.55530 0.76234
 C1281 C 0.84444 0.54283 0.77332
 C1282 C 0.84933 0.53954 0.79245
 C1283 C 0.86526 0.54942 0.80053
 C1284 C 0.87627 0.56207 0.78960
 H1285 H 0.94395 0.58680 0.72043
 H1286 H 0.96825 0.60491 0.70268
 H1287 H 0.93352 0.65550 0.71021
 H1288 H 0.90904 0.63712 0.72774
 H1289 H 0.90815 0.61965 0.75951
 H1290 H 0.88572 0.60028 0.77860
 H1291 H 0.88639 0.55703 0.73528
 H1292 H 0.90871 0.57638 0.71622
 H1293 H 0.85173 0.55736 0.74755
 H1294 H 0.83227 0.53541 0.76668
 H1295 H 0.86936 0.54721 0.81524
 H1296 H 0.88874 0.56919 0.79606
 C1297 C 0.72392 0.61100 0.92447
 C1298 C 0.72527 0.63081 0.92321
 C1299 C 0.71560 0.64231 0.93636
 C1300 C 0.70439 0.63417 0.95092
 C1301 C 0.70258 0.61443 0.95191
 C1302 C 0.71229 0.60294 0.93883
 C1303 C 0.73522 0.59872 0.91137
 C1304 C 0.74521 0.58282 0.91843
 C1305 C 0.75623 0.57140 0.90633
 C1306 C 0.75749 0.57557 0.88686
 C1307 C 0.74736 0.59136 0.87971
 C1308 C 0.73639 0.60288 0.89188
 C1309 C 0.76947 0.56345 0.87419
 C1310 C 0.76236 0.55783 0.85627
 C1311 C 0.77329 0.54552 0.84488
 C1312 C 0.79159 0.53869 0.85116
 C1313 C 0.79889 0.54475 0.86886
 C1314 C 0.78795 0.55696 0.88024
 H1315 H 0.73427 0.63740 0.91240
 H1316 H 0.71715 0.65753 0.93543
 H1317 H 0.69384 0.60794 0.96298
 H1318 H 0.71074 0.58773 0.93998
 H1319 H 0.74476 0.57938 0.93342
 H1320 H 0.76368 0.55920 0.91219
 H1321 H 0.74817 0.59496 0.86479
 H1322 H 0.72873 0.61497 0.88603
 H1323 H 0.74810 0.56253 0.85130
 H1324 H 0.76727 0.54111 0.83131
 H1325 H 0.81297 0.53984 0.87411
 H1326 H 0.79395 0.56131 0.89384
 C1327 C 0.27469 0.38364 0.92734
 C1328 C 0.26674 0.36662 0.93432
 C1329 C 0.27697 0.35591 0.94779
 C1330 C 0.29550 0.36184 0.95433
 C1331 C 0.30364 0.37865 0.94719
 C1332 C 0.29332 0.38947 0.93388
 C1333 C 0.26336 0.39558 0.91375
 C1334 C 0.27298 0.40582 0.89938
 C1335 C 0.26240 0.41769 0.88720
 C1336 C 0.24191 0.41953 0.88898
 C1337 C 0.23224 0.40897 0.90308
 C1338 C 0.24283 0.39724 0.91536
 C1339 C 0.23072 0.43275 0.87653
 C1340 C 0.21486 0.44317 0.88383
 C1341 C 0.20454 0.45584 0.87233
 C1342 C 0.20995 0.45859 0.85329
 C1343 C 0.22576 0.44819 0.84592
 C1344 C 0.23597 0.43534 0.85739
 H1345 H 0.25259 0.36153 0.92938
 H1346 H 0.27042 0.34299 0.95313
 H1347 H 0.31778 0.38365 0.95229
 H1348 H 0.29974 0.40266 0.92913
 H1349 H 0.28872 0.40468 0.89753
 H1350 H 0.27038 0.42575 0.87666
 H1351 H 0.21645 0.40977 0.90468
 H1352 H 0.23493 0.38978 0.92639
 H1353 H 0.21063 0.44184 0.89859
 H1354 H 0.19252 0.46376 0.87848
 H1355 H 0.23021 0.44992 0.83127
 H1356 H 0.24790 0.42735 0.85119
 C1357 C 0.26929 0.61169 0.07190
 C1358 C 0.27689 0.60368 0.05519
 C1359 C 0.28734 0.61474 0.04227
 C1360 C 0.29057 0.63415 0.04568
 C1361 C 0.28337 0.64203 0.06268
 C1362 C 0.27280 0.63095 0.07558
 C1363 C 0.25760 0.59995 0.08527
 C1364 C 0.25964 0.60218 0.10504
 C1365 C 0.24886 0.59085 0.11753
 C1366 C 0.23581 0.57700 0.11055
 C1367 C 0.23366 0.57492 0.09079
 C1368 C 0.24436 0.58628 0.07832
 C1369 C 0.22484 0.56443 0.12374
 C1370 C 0.20541 0.55891 0.11964
 C1371 C 0.19549 0.54622 0.13145
 C1372 C 0.20474 0.53885 0.14771
 C1373 C 0.22399 0.54473 0.15209
 C1374 C 0.23394 0.55733 0.14022
 H1375 H 0.27491 0.58878 0.05217
 H1376 H 0.29320 0.60801 0.02967
 H1377 H 0.28529 0.65695 0.06569
 H1378 H 0.26695 0.63761 0.08820
 H1379 H 0.26983 0.61247 0.11086
 H1380 H 0.25071 0.59297 0.13267
 H1381 H 0.22394 0.56424 0.08492
 H1382 H 0.24221 0.58438 0.06319
 H1383 H 0.19785 0.56438 0.10725
 H1384 H 0.18063 0.54208 0.12775
 H1385 H 0.23155 0.53925 0.16448
 H1386 H 0.24898 0.56109 0.14367
 C1387 C 0.72395 0.38703 0.07449
 C1388 C 0.71723 0.39473 0.05727
 C1389 C 0.70777 0.38338 0.04383
 C1390 C 0.70468 0.36396 0.04723
 C1391 C 0.71076 0.35643 0.06483
 C1392 C 0.72034 0.36782 0.07826
 C1393 C 0.73528 0.39895 0.08807
 C1394 C 0.73248 0.39736 0.10779
 C1395 C 0.74324 0.40872 0.12040
 C1396 C 0.75707 0.42184 0.11354
 C1397 C 0.75985 0.42336 0.09383
 C1398 C 0.74915 0.41203 0.08127
 C1399 C 0.76849 0.43412 0.12671
 C1400 C 0.78833 0.43823 0.12298
 C1401 C 0.79875 0.45092 0.13441
 C1402 C 0.78964 0.45973 0.14995
 C1403 C 0.77002 0.45513 0.15414
 C1404 C 0.75953 0.44247 0.14262
 H1405 H 0.71930 0.40960 0.05414
 H1406 H 0.70269 0.38985 0.03076
 H1407 H 0.70886 0.34151 0.06789
 H1408 H 0.72550 0.36143 0.09133
 H1409 H 0.72180 0.38750 0.11345
 H1410 H 0.74088 0.40712 0.13552
 H1411 H 0.77016 0.43351 0.08805
 H1412 H 0.75189 0.41341 0.06619
 H1413 H 0.79578 0.43172 0.11109
 H1414 H 0.81391 0.45400 0.13090
 H1415 H 0.76259 0.46171 0.16601
 H1416 H 0.74423 0.43971 0.14578
 C1417 C 0.92351 0.72285 0.61541
 C1418 C 0.93743 0.71144 0.60617
 C1419 C 0.95141 0.70140 0.61663
 C1420 C 0.95170 0.70251 0.63652
 C1421 C 0.93764 0.71359 0.64586
 C1422 C 0.92369 0.72375 0.63538
 C1423 C 0.90929 0.73416 0.60414
 C1424 C 0.90549 0.75311 0.60891
 C1425 C 0.89313 0.76415 0.59754
 C1426 C 0.88420 0.75644 0.58123
 C1427 C 0.88759 0.73734 0.57675
 C1428 C 0.90003 0.72634 0.58806
 C1429 C 0.87209 0.76843 0.56845
 C1430 C 0.85463 0.76141 0.56033
 C1431 C 0.84383 0.77239 0.54750
 C1432 C 0.85033 0.79059 0.54242
 C1433 C 0.86762 0.79772 0.55081
 C1434 C 0.87834 0.78679 0.56371
 H1435 H 0.93782 0.71066 0.59081
 H1436 H 0.96217 0.69289 0.60923
 H1437 H 0.93766 0.71454 0.66122
 H1438 H 0.91303 0.73227 0.64288
 H1439 H 0.91253 0.75957 0.62113
 H1440 H 0.89064 0.77877 0.60144
 H1441 H 0.88106 0.73105 0.56419
 H1442 H 0.90253 0.71173 0.58414
 H1443 H 0.84934 0.74739 0.56387
 H1444 H 0.83056 0.76650 0.54132
 H1445 H 0.87304 0.81168 0.54721
 H1446 H 0.89186 0.79250 0.56956
 C1447 C 0.92127 0.27457 0.38376
 C1448 C 0.92818 0.26771 0.36624
 C1449 C 0.94179 0.27812 0.35568
 C1450 C 0.94855 0.29572 0.36228
 C1451 C 0.94137 0.30282 0.37954
 C1452 C 0.92790 0.29234 0.39019
 C1453 C 0.90786 0.26293 0.39567
 C1454 C 0.89304 0.27147 0.40659
 C1455 C 0.88121 0.26060 0.41860
 C1456 C 0.88381 0.24091 0.41989
 C1457 C 0.89829 0.23233 0.40861
 C1458 C 0.91021 0.24320 0.39673
 C1459 C 0.87190 0.22945 0.43336
 C1460 C 0.88050 0.21438 0.44339
 C1461 C 0.86954 0.20386 0.45640
 C1462 C 0.84974 0.20827 0.45984
 C1463 C 0.84106 0.22327 0.44977
 C1464 C 0.85200 0.23369 0.43662
 H1465 H 0.92315 0.25424 0.36071
 H1466 H 0.94717 0.27238 0.34241
 H1467 H 0.94666 0.31622 0.38506
 H1468 H 0.92320 0.29790 0.40376
 H1469 H 0.89063 0.28659 0.40593
 H1470 H 0.87035 0.26773 0.42721
 H1471 H 0.90049 0.21717 0.40901
 H1472 H 0.92161 0.23615 0.38872
 H1473 H 0.89587 0.21093 0.44152
 H1474 H 0.87670 0.19248 0.46402
 H1475 H 0.82580 0.22694 0.45203
 H1476 H 0.84482 0.24501 0.42893
 C1477 C 0.07517 0.27478 0.61024
 C1478 C 0.06094 0.28665 0.60201
 C1479 C 0.04794 0.29680 0.61341
 C1480 C 0.04890 0.29524 0.63325
 C1481 C 0.06341 0.28384 0.64158
 C1482 C 0.07647 0.27371 0.63017
 C1483 C 0.08807 0.26305 0.59804
 C1484 C 0.10812 0.26080 0.60237
 C1485 C 0.12011 0.24958 0.59086
 C1486 C 0.11224 0.24027 0.57488
 C1487 C 0.09219 0.24254 0.57059
 C1488 C 0.08026 0.25380 0.58202
 C1489 C 0.12480 0.22830 0.56258
 C1490 C 0.11767 0.21101 0.55548
 C1491 C 0.12903 0.20014 0.54314
 C1492 C 0.14780 0.20632 0.53759
 C1493 C 0.15513 0.22342 0.54501
 C1494 C 0.14376 0.23429 0.55741
 H1495 H 0.05979 0.28800 0.58672
 H1496 H 0.03688 0.30564 0.60678
 H1497 H 0.06429 0.28247 0.65689
 H1498 H 0.08717 0.26456 0.63690
 H1499 H 0.11456 0.26787 0.61456
 H1500 H 0.13547 0.24799 0.59458
 H1501 H 0.08576 0.23574 0.55824
 H1502 H 0.06482 0.25506 0.57846
 H1503 H 0.10324 0.20589 0.55945
 H1504 H 0.12298 0.18699 0.53776
 H1505 H 0.16953 0.22858 0.54100
 H1506 H 0.14958 0.24763 0.56253
 C1507 C 0.07711 0.72977 0.37922
 C1508 C 0.06174 0.73887 0.36938
 C1509 C 0.04779 0.72844 0.35924
 C1510 C 0.04917 0.70864 0.35806
 C1511 C 0.06524 0.69959 0.36674
 C1512 C 0.07884 0.70998 0.37747
 C1513 C 0.09051 0.74077 0.39199
 C1514 C 0.10993 0.73486 0.39556
 C1515 C 0.12188 0.74461 0.40853
 C1516 C 0.11490 0.76080 0.41798
 C1517 C 0.09576 0.76708 0.41385
 C1518 C 0.08366 0.75707 0.40134
 C1519 C 0.12719 0.77094 0.43237
 C1520 C 0.11824 0.78010 0.44786
 C1521 C 0.12946 0.79021 0.46102
 C1522 C 0.14997 0.79096 0.45943
 C1523 C 0.15914 0.78140 0.44443
 C1524 C 0.14785 0.77168 0.43087
 H1525 H 0.06028 0.75411 0.36963
 H1526 H 0.03589 0.73585 0.35221
 H1527 H 0.06664 0.68433 0.36611
 H1528 H 0.09023 0.70233 0.38495
 H1529 H 0.11596 0.72262 0.38843
 H1530 H 0.13645 0.73917 0.41139
 H1531 H 0.08993 0.77975 0.42034
 H1532 H 0.06875 0.76199 0.39941
 H1533 H 0.10252 0.77936 0.45001
 H1534 H 0.12210 0.79722 0.47269
 H1535 H 0.17497 0.78187 0.44292
 H1536 H 0.15532 0.76508 0.41906
 C1537 C 0.61114 0.92638 0.72473
 C1538 C 0.63173 0.92480 0.72400
 C1539 C 0.64287 0.93774 0.71350
 C1540 C 0.63357 0.95242 0.70356
 C1541 C 0.61300 0.95363 0.70371
 C1542 C 0.60189 0.94076 0.71421
 C1543 C 0.59933 0.91363 0.73697
 C1544 C 0.58390 0.92098 0.74792
 C1545 C 0.57275 0.90917 0.75957
 C1546 C 0.57675 0.88971 0.76055
 C1547 C 0.59216 0.88230 0.74959
 C1548 C 0.60340 0.89416 0.73797
 C1549 C 0.56464 0.87727 0.77286
 C1550 C 0.55812 0.85952 0.76634
 C1551 C 0.54563 0.84842 0.77751
 C1552 C 0.53946 0.85482 0.79544
 C1553 C 0.54647 0.87233 0.80216
 C1554 C 0.55890 0.88341 0.79100
 H1555 H 0.63927 0.91395 0.73206
 H1556 H 0.65874 0.93662 0.71351
 H1557 H 0.60560 0.96479 0.69596
 H1558 H 0.58604 0.94213 0.71421
 H1559 H 0.58057 0.93596 0.74765
 H1560 H 0.56082 0.91526 0.76765
 H1561 H 0.59566 0.86737 0.75017
 H1562 H 0.61513 0.88809 0.72960
 H1563 H 0.56217 0.85449 0.75237
 H1564 H 0.54049 0.83501 0.77192
 H1565 H 0.54210 0.87764 0.81594
 H1566 H 0.56395 0.89688 0.79653
 C1567 C 0.38591 0.92383 0.27350
 C1568 C 0.39516 0.94032 0.28019
 C1569 C 0.38446 0.95404 0.28994
 C1570 C 0.36423 0.95155 0.29344
 C1571 C 0.35510 0.93479 0.28700
 C1572 C 0.36578 0.92118 0.27699
 C1573 C 0.39726 0.90966 0.26260
 C1574 C 0.38990 0.90243 0.24538
 C1575 C 0.40120 0.89001 0.23449
 C1576 C 0.41993 0.88439 0.24075
 C1577 C 0.42704 0.89123 0.25823
 C1578 C 0.41586 0.90383 0.26899
 C1579 C 0.43243 0.87211 0.22877
 C1580 C 0.44284 0.85693 0.23680
 C1581 C 0.45554 0.84608 0.22568
 C1582 C 0.45828 0.85036 0.20637
 C1583 C 0.44761 0.86535 0.19828
 C1584 C 0.43472 0.87604 0.20934
 H1585 H 0.41064 0.94274 0.27759
 H1586 H 0.39210 0.96652 0.29506
 H1587 H 0.33953 0.93247 0.28923
 H1588 H 0.35835 0.90853 0.27203
 H1589 H 0.37565 0.90681 0.24009
 H1590 H 0.39535 0.88485 0.22111
 H1591 H 0.44150 0.88724 0.26330
 H1592 H 0.42179 0.90911 0.28228
 H1593 H 0.44121 0.85354 0.25171
 H1594 H 0.46358 0.83463 0.23232
 H1595 H 0.44938 0.86897 0.18343
 H1596 H 0.42701 0.88777 0.20285
 C1597 C 0.61924 0.07215 0.27075
 C1598 C 0.61088 0.06310 0.28657
 C1599 C 0.62158 0.04975 0.29691
 C1600 C 0.64091 0.04515 0.29170
 C1601 C 0.64933 0.05421 0.27592
 C1602 C 0.63863 0.06761 0.26559
 C1603 C 0.60754 0.08586 0.25941
 C1604 C 0.60863 0.08596 0.23946
 C1605 C 0.59691 0.09824 0.22877
 C1606 C 0.58379 0.11067 0.23775
 C1607 C 0.58296 0.11081 0.25771
 C1608 C 0.59471 0.09857 0.26840
 C1609 C 0.57053 0.12301 0.22639
 C1610 C 0.56623 0.14151 0.23242
 C1611 C 0.55296 0.15272 0.22224
 C1612 C 0.54374 0.14571 0.20577
 C1613 C 0.54835 0.12736 0.19951
 C1614 C 0.56156 0.11614 0.20972
 H1615 H 0.59588 0.06601 0.29072
 H1616 H 0.61473 0.04288 0.30896
 H1617 H 0.66406 0.05065 0.27137
 H1618 H 0.64554 0.07443 0.25357
 H1619 H 0.61821 0.07623 0.23207
 H1620 H 0.59808 0.09794 0.21343
 H1621 H 0.57287 0.12006 0.26509
 H1622 H 0.59370 0.09903 0.28375
 H1623 H 0.57311 0.14733 0.24503
 H1624 H 0.54980 0.16683 0.22739
 H1625 H 0.54145 0.12151 0.18692
 H1626 H 0.56432 0.10187 0.20483
 C1627 C 0.37761 0.07667 0.73151
 C1628 C 0.37244 0.07965 0.71240
 C1629 C 0.36228 0.06575 0.70217
 C1630 C 0.35707 0.04845 0.71075
 C1631 C 0.36174 0.04581 0.73009
 C1632 C 0.37192 0.05969 0.74029
 C1633 C 0.38957 0.09085 0.74206
 C1634 C 0.38593 0.09459 0.76136
 C1635 C 0.39806 0.10694 0.77158
 C1636 C 0.41406 0.11589 0.76273
 C1637 C 0.41739 0.11255 0.74333
 C1638 C 0.40530 0.10015 0.73312
 C1639 C 0.42779 0.12796 0.77385
 C1640 C 0.43527 0.14484 0.76617
 C1641 C 0.44908 0.15560 0.77626
 C1642 C 0.45578 0.14963 0.79419
 C1643 C 0.44801 0.13293 0.80201
 C1644 C 0.43415 0.12224 0.79197
 H1645 H 0.37639 0.09269 0.70530
 H1646 H 0.35913 0.06829 0.68728
 H1647 H 0.35744 0.03298 0.73740
 H1648 H 0.37576 0.05690 0.75497
 H1649 H 0.37372 0.08790 0.76857
 H1650 H 0.39497 0.10947 0.78645
 H1651 H 0.42977 0.11901 0.73619
 H1652 H 0.40870 0.09735 0.71836
 H1653 H 0.43047 0.14969 0.75232
 H1654 H 0.45475 0.16842 0.76986
 H1655 H 0.45285 0.12795 0.81580
 H1656 H 0.42883 0.10918 0.79816
 C1657 C 0.61321 0.73045 0.07309
 C1658 C 0.60436 0.72007 0.05830
 C1659 C 0.61582 0.70978 0.04557
 C1660 C 0.63636 0.70969 0.04734
 C1661 C 0.64528 0.71966 0.06231
 C1662 C 0.63379 0.72996 0.07511
 C1663 C 0.60098 0.74209 0.08600
 C1664 C 0.60480 0.74265 0.10564
 C1665 C 0.59299 0.75346 0.11772
 C1666 C 0.57720 0.76401 0.11039
 C1667 C 0.57351 0.76355 0.09074
 C1668 C 0.58525 0.75273 0.07870
 C1669 C 0.56435 0.77525 0.12312
 C1670 C 0.55767 0.79321 0.11753
 C1671 C 0.54467 0.80336 0.12895
 C1672 C 0.53804 0.79580 0.14625
 C1673 C 0.54509 0.77803 0.15207
 C1674 C 0.55812 0.76787 0.14063
 H1675 H 0.58853 0.71990 0.05658
 H1676 H 0.60871 0.70202 0.03417
 H1677 H 0.66113 0.71973 0.06385
 H1678 H 0.64103 0.73793 0.08628
 H1679 H 0.61674 0.73450 0.11169
 H1680 H 0.59629 0.75365 0.13278
 H1681 H 0.56132 0.77134 0.08468
 H1682 H 0.58208 0.75279 0.06361
 H1683 H 0.56246 0.79940 0.10425
 H1684 H 0.53962 0.81705 0.12409
 H1685 H 0.54026 0.77179 0.16531
 H1686 H 0.56286 0.75399 0.14524
 C1687 C 0.38896 0.27464 0.08100
 C1688 C 0.36829 0.27464 0.08135
 C1689 C 0.35759 0.28481 0.06778
 C1690 C 0.36739 0.29501 0.05358
 C1691 C 0.38800 0.29524 0.05333
 C1692 C 0.39870 0.28519 0.06694
 C1693 C 0.40041 0.26321 0.09481
 C1694 C 0.41761 0.27054 0.10316
 C1695 C 0.42904 0.25939 0.11528
 C1696 C 0.42357 0.24061 0.11923
 C1697 C 0.40616 0.23340 0.11117
 C1698 C 0.39467 0.24460 0.09914
 C1699 C 0.43645 0.22840 0.13104
 C1700 C 0.44043 0.20971 0.12543
 C1701 C 0.45351 0.19854 0.13584
 C1702 C 0.46284 0.20577 0.15217
 C1703 C 0.45848 0.22430 0.15806
 C1704 C 0.44547 0.23551 0.14757
 H1705 H 0.36042 0.26678 0.09212
 H1706 H 0.34168 0.28450 0.06814
 H1707 H 0.39577 0.30303 0.04243
 H1708 H 0.41459 0.28526 0.06616
 H1709 H 0.42229 0.28490 0.10022
 H1710 H 0.44246 0.26528 0.12114
 H1711 H 0.40150 0.21903 0.11410
 H1712 H 0.38157 0.23852 0.09279
 H1713 H 0.43386 0.20391 0.11264
 H1714 H 0.45654 0.18433 0.13092
 H1715 H 0.46540 0.23028 0.17058
 H1716 H 0.44252 0.24979 0.15234
 C1717 C 0.61613 0.27046 0.92089
 C1718 C 0.60663 0.28112 0.93499
 C1719 C 0.61753 0.29087 0.94871
 C1720 C 0.63812 0.29019 0.94853
 C1721 C 0.64771 0.27977 0.93439
 C1722 C 0.63680 0.26990 0.92070
 C1723 C 0.60442 0.25965 0.90676
 C1724 C 0.60943 0.24092 0.90217
 C1725 C 0.59761 0.23033 0.88981
 C1726 C 0.58064 0.23829 0.88168
 C1727 C 0.57595 0.25718 0.88587
 C1728 C 0.58768 0.26773 0.89831
 C1729 C 0.56733 0.22672 0.86960
 C1730 C 0.55877 0.23439 0.85313
 C1731 C 0.54522 0.22387 0.84248
 C1732 C 0.53986 0.20551 0.84815
 C1733 C 0.54877 0.19770 0.86440
 C1734 C 0.56238 0.20818 0.87498
 H1735 H 0.59073 0.28161 0.93564
 H1736 H 0.60994 0.29887 0.95956
 H1737 H 0.66362 0.27917 0.93407
 H1738 H 0.64449 0.26193 0.90990
 H1739 H 0.62216 0.23429 0.90857
 H1740 H 0.60167 0.21585 0.88669
 H1741 H 0.56286 0.26364 0.87997
 H1742 H 0.58359 0.28220 0.90145
 H1743 H 0.56247 0.24857 0.84855
 H1744 H 0.53866 0.23027 0.83001
 H1745 H 0.54497 0.18359 0.86915
 H1746 H 0.56858 0.20198 0.88772
 C1747 C 0.38616 0.73148 0.92795
 C1748 C 0.36565 0.73045 0.92550
 C1749 C 0.35411 0.71993 0.93808
 C1750 C 0.36290 0.71027 0.95329
 C1751 C 0.38337 0.71097 0.95557
 C1752 C 0.39490 0.72149 0.94303
 C1753 C 0.39843 0.74320 0.91510
 C1754 C 0.41386 0.75425 0.92251
 C1755 C 0.42557 0.76520 0.91052
 C1756 C 0.42213 0.76539 0.89082
 C1757 C 0.40666 0.75439 0.88338
 C1758 C 0.39490 0.74345 0.89540
 C1759 C 0.43486 0.77687 0.87816
 C1760 C 0.44139 0.76958 0.86070
 C1761 C 0.45423 0.78004 0.84930
 C1762 C 0.46079 0.79802 0.85511
 C1763 C 0.45389 0.80547 0.87236
 C1764 C 0.44107 0.79502 0.88373
 H1765 H 0.35849 0.73812 0.91411
 H1766 H 0.33831 0.71952 0.93615
 H1767 H 0.39039 0.70345 0.96715
 H1768 H 0.41068 0.72174 0.94510
 H1769 H 0.41680 0.75455 0.93764
 H1770 H 0.43751 0.77333 0.91666
 H1771 H 0.40356 0.75437 0.86828
 H1772 H 0.38321 0.73497 0.88927
 H1773 H 0.43701 0.75556 0.85611
 H1774 H 0.45929 0.77389 0.83610
 H1775 H 0.45856 0.81932 0.87720
 H1776 H 0.43604 0.80116 0.89695
 C1777 C 0.73189 0.92134 0.38523
 C1778 C 0.74215 0.93626 0.37647
 C1779 C 0.73222 0.94943 0.36521
 C1780 C 0.71181 0.94807 0.36258
 C1781 C 0.70153 0.93306 0.37105
 C1782 C 0.71148 0.91979 0.38220
 C1783 C 0.74236 0.90787 0.39795
 C1784 C 0.73343 0.90131 0.41470
 C1785 C 0.74355 0.88929 0.42707
 C1786 C 0.76289 0.88366 0.42306
 C1787 C 0.77177 0.89001 0.40624
 C1788 C 0.76159 0.90191 0.39378
 C1789 C 0.77390 0.87161 0.43665
 C1790 C 0.79347 0.87594 0.44144
 C1791 C 0.80362 0.86508 0.45483
 C1792 C 0.79446 0.84953 0.46360
 C1793 C 0.77499 0.84501 0.45855
 C1794 C 0.76479 0.85598 0.44529
 H1795 H 0.75779 0.93808 0.37871
 H1796 H 0.74039 0.96093 0.35880
 H1797 H 0.68577 0.93179 0.36920
 H1798 H 0.70318 0.90832 0.38849
 H1799 H 0.71879 0.90587 0.41854
 H1800 H 0.73644 0.88482 0.44006
 H1801 H 0.78656 0.88568 0.40267
 H1802 H 0.76879 0.90641 0.38085
 H1803 H 0.80078 0.88802 0.43515
 H1804 H 0.81860 0.86892 0.45840
 H1805 H 0.76753 0.83313 0.46505
 H1806 H 0.74978 0.85222 0.44172
 C1807 C 0.27106 0.92316 0.61341
 C1808 C 0.29152 0.92193 0.61595
 C1809 C 0.30147 0.93525 0.62715
 C1810 C 0.29109 0.94990 0.63606
 C1811 C 0.27060 0.95080 0.63399
 C1812 C 0.26068 0.93759 0.62273
 C1813 C 0.26056 0.90989 0.60056
 C1814 C 0.24637 0.91678 0.58780
 C1815 C 0.23630 0.90446 0.57570
 C1816 C 0.24006 0.88491 0.57612
 C1817 C 0.25441 0.87802 0.58877
 C1818 C 0.26460 0.89041 0.60084
 C1819 C 0.22899 0.87193 0.56334
 C1820 C 0.23837 0.85663 0.55437
 C1821 C 0.22805 0.84512 0.54155
 C1822 C 0.20819 0.84877 0.53737
 C1823 C 0.19873 0.86375 0.54670
 C1824 C 0.20897 0.87513 0.55958
 H1825 H 0.29989 0.91103 0.60883
 H1826 H 0.31731 0.93438 0.62859
 H1827 H 0.26234 0.96192 0.64091
 H1828 H 0.24487 0.93869 0.62125
 H1829 H 0.24325 0.93178 0.58700
 H1830 H 0.22571 0.91031 0.56581
 H1831 H 0.25752 0.86303 0.58958
 H1832 H 0.27538 0.88472 0.61064
 H1833 H 0.25382 0.85388 0.55683
 H1834 H 0.23574 0.83370 0.53453
 H1835 H 0.18338 0.86680 0.54395
 H1836 H 0.20118 0.88650 0.56657
 C1837 C 0.27373 0.07576 0.38703
 C1838 C 0.27267 0.07636 0.36707
 C1839 C 0.28258 0.06294 0.35611
 C1840 C 0.29358 0.04866 0.36493
 C1841 C 0.29485 0.04812 0.38481
 C1842 C 0.28503 0.06156 0.39577
 C1843 C 0.26270 0.08954 0.39876
 C1844 C 0.27135 0.09761 0.41502
 C1845 C 0.26063 0.10987 0.42660
 C1846 C 0.24099 0.11422 0.42221
 C1847 C 0.23244 0.10640 0.40577
 C1848 C 0.24320 0.09423 0.39414
 C1849 C 0.22927 0.12633 0.43513
 C1850 C 0.20989 0.12128 0.43980
 C1851 C 0.19911 0.13214 0.45264
 C1852 C 0.20742 0.14835 0.46104
 C1853 C 0.22669 0.15360 0.45611
 C1854 C 0.23751 0.14267 0.44334
 H1855 H 0.26423 0.08725 0.35996
 H1856 H 0.28153 0.06355 0.34076
 H1857 H 0.30330 0.03716 0.39181
 H1858 H 0.28592 0.06061 0.41110
 H1859 H 0.28642 0.09439 0.41882
 H1860 H 0.26755 0.11555 0.43926
 H1861 H 0.21738 0.10966 0.40195
 H1862 H 0.23609 0.08810 0.38178
 H1863 H 0.20323 0.10864 0.43388
 H1864 H 0.18431 0.12770 0.45614
 H1865 H 0.23351 0.16602 0.46232
 H1866 H 0.25235 0.14700 0.43984
 C1867 C 0.72333 0.07772 0.61004
 C1868 C 0.72380 0.07844 0.63001
 C1869 C 0.71380 0.06488 0.64075
 C1870 C 0.70328 0.05033 0.63170
 C1871 C 0.70265 0.04965 0.61180
 C1872 C 0.71255 0.06324 0.60106
 C1873 C 0.73443 0.09170 0.59856
 C1874 C 0.72607 0.09954 0.58207
 C1875 C 0.73687 0.11197 0.57074
 C1876 C 0.75632 0.11676 0.57559
 C1877 C 0.76457 0.10918 0.59225
 C1878 C 0.75372 0.09682 0.60365
 C1879 C 0.76817 0.12901 0.56290
 C1880 C 0.78772 0.12427 0.55867
 C1881 C 0.79861 0.13520 0.54594
 C1882 C 0.79024 0.15117 0.53723
 C1883 C 0.77082 0.15614 0.54177
 C1884 C 0.75988 0.14514 0.55443
 H1885 H 0.73185 0.08954 0.63730
 H1886 H 0.71442 0.06559 0.65612
 H1887 H 0.69460 0.03849 0.60461
 H1888 H 0.71213 0.06219 0.58571
 H1889 H 0.71117 0.09598 0.57791
 H1890 H 0.73019 0.11746 0.55789
 H1891 H 0.77946 0.11275 0.59643
 H1892 H 0.76059 0.09089 0.61620
 H1893 H 0.79442 0.11180 0.56481
 H1894 H 0.81354 0.13097 0.54274
 H1895 H 0.76395 0.16837 0.53532
 H1896 H 0.74492 0.14924 0.55759
 C1897 C 0.91806 0.61510 0.27331
 C1898 C 0.92361 0.63261 0.26553
 C1899 C 0.93740 0.64405 0.27487
 C1900 C 0.94555 0.63823 0.29223
 C1901 C 0.93947 0.62112 0.30038
 C1902 C 0.92593 0.60956 0.29093
 C1903 C 0.90508 0.60210 0.26255
 C1904 C 0.91059 0.58313 0.26005
 C1905 C 0.89893 0.57092 0.24921
 C1906 C 0.88141 0.57737 0.24088
 C1907 C 0.87566 0.59624 0.24367
 C1908 C 0.88751 0.60857 0.25428
 C1909 C 0.86945 0.56442 0.22902
 C1910 C 0.84918 0.56238 0.23213
 C1911 C 0.83820 0.54936 0.22147
 C1912 C 0.84728 0.53843 0.20730
 C1913 C 0.86747 0.54088 0.20392
 C1914 C 0.87846 0.55364 0.21476
 H1915 H 0.91786 0.63709 0.25189
 H1916 H 0.94204 0.65722 0.26841
 H1917 H 0.94568 0.61648 0.31378
 H1918 H 0.92176 0.59618 0.29725
 H1919 H 0.92415 0.57786 0.26614
 H1920 H 0.90358 0.55639 0.24735
 H1921 H 0.86223 0.60152 0.23730
 H1922 H 0.88296 0.62314 0.25608
 H1923 H 0.84196 0.57051 0.24312
 H1924 H 0.82266 0.54779 0.22435
 H1925 H 0.87488 0.53263 0.19314
 H1926 H 0.89405 0.55510 0.21202
 C1927 C 0.92434 0.38817 0.72698
 C1928 C 0.92225 0.36837 0.72743
 C1929 C 0.93536 0.35681 0.71751
 C1930 C 0.95070 0.36487 0.70698
 C1931 C 0.95251 0.38461 0.70611
 C1932 C 0.93948 0.39616 0.71602
 C1933 C 0.91125 0.40050 0.73835
 C1934 C 0.91909 0.41600 0.74836
 C1935 C 0.90695 0.42764 0.75919
 C1936 C 0.88666 0.42407 0.76029
 C1937 C 0.87876 0.40860 0.75024
 C1938 C 0.89095 0.39689 0.73943
 C1939 C 0.87392 0.43655 0.77188
 C1940 C 0.85550 0.44250 0.76504
 C1941 C 0.84407 0.45511 0.77560
 C1942 C 0.85081 0.46197 0.79322
 C1943 C 0.86900 0.45562 0.80023
 C1944 C 0.88041 0.44307 0.78969
 H1945 H 0.91084 0.36182 0.73588
 H1946 H 0.93379 0.34157 0.71832
 H1947 H 0.96419 0.39104 0.69790
 H1948 H 0.94125 0.41136 0.71513
 H1949 H 0.93470 0.41902 0.74800
 H1950 H 0.91344 0.43958 0.76657
 H1951 H 0.86320 0.40544 0.75093
 H1952 H 0.88448 0.38513 0.73176
 H1953 H 0.85019 0.43783 0.75129
 H1954 H 0.83012 0.45974 0.76980
 H1955 H 0.87458 0.46053 0.81380
 H1956 H 0.89438 0.43847 0.79548
 C1957 C 0.08063 0.60473 0.72000
 C1958 C 0.08319 0.62448 0.71946
 C1959 C 0.06984 0.63589 0.70957
 C1960 C 0.05377 0.62773 0.70005
 C1961 C 0.05158 0.60800 0.70000
 C1962 C 0.06487 0.59660 0.70987
 C1963 C 0.09368 0.59269 0.73184
 C1964 C 0.08564 0.57802 0.74284
 C1965 C 0.09765 0.56687 0.75435
 C1966 C 0.11803 0.57008 0.75519
 C1967 C 0.12615 0.58465 0.74408
 C1968 C 0.11408 0.59589 0.73258
 C1969 C 0.13060 0.55824 0.76769
 C1970 C 0.14882 0.55139 0.76136
 C1971 C 0.16003 0.53932 0.77283
 C1972 C 0.15325 0.53391 0.79089
 C1973 C 0.13528 0.54120 0.79738
 C1974 C 0.12410 0.55321 0.78593
 H1975 H 0.09508 0.63116 0.72726
 H1976 H 0.07170 0.65112 0.70980
 H1977 H 0.03931 0.60147 0.69262
 H1978 H 0.06270 0.58142 0.70975
 H1979 H 0.06995 0.57535 0.74278
 H1980 H 0.09099 0.55560 0.76254
 H1981 H 0.14179 0.58752 0.74453
 H1982 H 0.12070 0.60701 0.72417
 H1983 H 0.15415 0.55492 0.74732
 H1984 H 0.17381 0.53394 0.76742
 H1985 H 0.12967 0.53743 0.81125
 H1986 H 0.11029 0.55852 0.79133
 C1987 C 0.08039 0.38813 0.27891
 C1988 C 0.08069 0.36824 0.27853
 C1989 C 0.06652 0.35780 0.28836
 C1990 C 0.05178 0.36708 0.29864
 C1991 C 0.05163 0.38690 0.29932
 C1992 C 0.06582 0.39734 0.28957
 C1993 C 0.09467 0.39931 0.26762
 C1994 C 0.10313 0.41589 0.27511
 C1995 C 0.11547 0.42713 0.26397
 C1996 C 0.11952 0.42209 0.24507
 C1997 C 0.11147 0.40525 0.23774
 C1998 C 0.09921 0.39397 0.24891
 C1999 C 0.13124 0.43485 0.23276
 C2000 C 0.12508 0.43856 0.21406
 C2001 C 0.13534 0.45140 0.20274
 C2002 C 0.15207 0.46080 0.20983
 C2003 C 0.15850 0.45678 0.22840
 C2004 C 0.14815 0.44398 0.23977
 H2005 H 0.09186 0.36077 0.27059
 H2006 H 0.06682 0.34249 0.28771
 H2007 H 0.04033 0.39427 0.30719
 H2008 H 0.06505 0.41264 0.28993
 H2009 H 0.10006 0.42025 0.28955
 H2010 H 0.12132 0.44010 0.26995
 H2011 H 0.11450 0.40092 0.22329
 H2012 H 0.09277 0.38136 0.24269
 H2013 H 0.11195 0.43193 0.20835
 H2014 H 0.12999 0.45417 0.18851
 H2015 H 0.17135 0.46377 0.23427
 H2016 H 0.15334 0.44125 0.25407
   
