data_POSCAR
  _audit_creation_date              2014-09-24
  _audit_creation_method            'ToBaCCo'
  _symmetry_space_group_name_H-M    'P1'
  _symmetry_Int_Tables_number       1
  _symmetry_cell_setting            triclinic
  loop_
  _symmetry_equiv_pos_as_xyz
 x,y,z
_cell_length_a 56.2265
_cell_length_b 56.3228
_cell_length_c 56.2676
_cell_angle_alpha 89.919600
_cell_angle_beta 90.115000
_cell_angle_gamma 89.807500
loop_
  _atom_site_label
  _atom_site_type_symbol
  _atom_site_fract_x
  _atom_site_fract_y
  _atom_site_fract_z
C1 C 0.24678 0.96962 0.00394
 C2 C 0.24772 0.96957 -0.02126
 C3 C 0.24823 0.99174 -0.03301
 C4 C 0.24922 1.01361 -0.02084
 C5 C 0.25101 1.01303 0.00431
 C6 C 0.24913 0.99119 0.01613
 H7 H 0.24949 0.99099 0.03542
 H8 H 0.24781 0.99200 -0.05227
 C9 C 0.75160 0.47250 0.48151
 C10 C 0.75794 0.47202 0.50589
 C11 C 0.76121 0.49356 0.51797
 C12 C 0.75795 0.51544 0.50665
 C13 C 0.75176 0.51609 0.48237
 C14 C 0.74886 0.49460 0.47011
 H15 H 0.74478 0.49510 0.45128
 H16 H 0.76523 0.49336 0.53684
 C17 C 0.75557 1.00765 0.97289
 C18 C 0.75933 0.98274 0.97172
 C19 C 0.76001 0.96948 0.99294
 C20 C 0.75859 0.98009 1.01560
 C21 C 0.75747 1.00523 1.01662
 C22 C 0.75533 1.01830 0.99552
 H23 H 0.75403 1.03748 0.99692
 H24 H 0.76218 0.95039 0.99163
 C25 C 0.25315 0.48016 0.51383
 C26 C 0.24744 0.50457 0.51338
 C27 C 0.24559 0.51641 0.49159
 C28 C 0.24990 0.50469 0.47009
 C29 C 0.25578 0.48027 0.47027
 C30 C 0.25710 0.46832 0.49222
 H31 H 0.26086 0.44943 0.49247
 H32 H 0.24171 0.53530 0.49142
 C33 C 0.97029 0.25223 0.01546
 C34 C 0.97006 0.26136 -0.00806
 C35 C 0.99208 0.26600 -0.01905
 C36 C 1.01410 0.26145 -0.00790
 C37 C 1.01397 0.25289 0.01587
 C38 C 0.99211 0.24821 0.02695
 H39 H 0.99199 0.24256 0.04539
 H40 H 0.99210 0.27087 -0.03768
 C41 C 0.46930 0.74429 0.52103
 C42 C 0.46855 0.74993 0.49659
 C43 C 0.48973 0.75456 0.48444
 C44 C 0.51190 0.75343 0.49586
 C45 C 0.51283 0.74779 0.52036
 C46 C 0.49148 0.74345 0.53257
 H47 H 0.49212 0.73980 0.55149
 H48 H 0.48896 0.75822 0.46552
 C49 C -0.02079 0.75003 -0.01308
 C50 C 0.00317 0.74132 -0.01267
 C51 C 0.01448 0.73836 0.00955
 C52 C 0.00351 0.74461 0.03092
 C53 C -0.02005 0.75307 0.03071
 C54 C -0.03174 0.75574 0.00879
 H55 H -0.05035 0.76080 0.00907
 H56 H 0.03305 0.73312 0.01033
 C57 C 0.48055 0.25924 0.52596
 C58 C 0.50541 0.26250 0.52633
 C59 C 0.51789 0.26270 0.50481
 C60 C 0.50634 0.25974 0.48290
 C61 C 0.48139 0.25658 0.48249
 C62 C 0.46886 0.25638 0.50410
 H63 H 0.44968 0.25441 0.50393
 H64 H 0.53710 0.26447 0.50518
 C65 C 1.03014 0.01930 0.25215
 C66 C 1.03154 -0.00572 0.25495
 C67 C 1.01053 -0.01902 0.25626
 C68 C 0.98776 -0.00853 0.25613
 C69 C 0.98637 0.01661 0.25557
 C70 C 1.00734 0.02988 0.25306
 H71 H 1.00572 0.04906 0.25237
 H72 H 1.01214 -0.03815 0.25797
 C73 C 0.48416 0.49295 0.74458
 C74 C 0.48349 0.51782 0.74796
 C75 C 0.50504 0.53032 0.74961
 C76 C 0.52717 0.51870 0.74827
 C77 C 0.52765 0.49389 0.74482
 C78 C 0.50625 0.48144 0.74284
 H79 H 0.50684 0.46228 0.74091
 H80 H 0.50457 0.54945 0.75166
 C81 C 1.01731 0.98462 0.75489
 C82 C 0.99280 0.98436 0.76020
 C83 C 0.98083 1.00591 0.76374
 C84 C 0.99216 1.02810 0.76132
 C85 C 1.01679 1.02830 0.75553
 C86 C 1.02888 1.00655 0.75267
 H87 H 1.04788 1.00668 0.74940
 H88 H 0.96178 1.00526 0.76658
 C89 C 0.52010 0.48450 0.25631
 C90 C 0.49516 0.48429 0.25969
 C91 C 0.48312 0.50586 0.26312
 C92 C 0.49510 0.52763 0.26329
 C93 C 0.51995 0.52787 0.26000
 C94 C 0.53213 0.50637 0.25654
 H95 H 0.55130 0.50668 0.25454
 H96 H 0.46392 0.50578 0.26494
 O97 O 0.26483 0.18959 0.19995
 O98 O 0.29208 0.18308 0.23263
 O99 O 0.20337 0.21697 0.23599
 O100 O 0.19475 0.24779 0.25961
 O101 O 0.22981 0.25175 0.17243
 O102 O 0.26284 0.27778 0.16525
 O103 O 0.26669 0.28376 0.29472
 O104 O 0.23857 0.25249 0.30157
 O105 O 0.32643 0.25220 0.26518
 O106 O 0.33273 0.22463 0.23051
 O107 O 0.29660 0.31222 0.23484
 O108 O 0.26201 0.31897 0.20676
 O109 O 0.26418 0.31209 0.26604
 O110 O 0.23763 0.31956 0.23285
 O111 O 0.32541 0.28393 0.23280
 O112 O 0.33305 0.25088 0.20634
 O113 O 0.29833 0.25138 0.29413
 O114 O 0.26627 0.22486 0.30251
 O115 O 0.26293 0.21833 0.17156
 O116 O 0.28911 0.25107 0.16436
 O117 O 0.20201 0.24950 0.20164
 O118 O 0.19663 0.27758 0.23421
 O119 O 0.23246 0.18885 0.23481
 O120 O 0.26631 0.18207 0.25920
 Zr121 Zr 0.26417 0.20834 0.23240
 O122 O 0.28644 0.22883 0.25431
 Zr123 Zr 0.22170 0.24943 0.23345
 O124 O 0.24224 0.27187 0.25528
 Zr125 Zr 0.26247 0.25024 0.19081
 O126 O 0.28501 0.27244 0.21076
 Zr127 Zr 0.26588 0.25147 0.27579
 O128 O 0.24339 0.22870 0.25604
 Zr129 Zr 0.30675 0.25179 0.23319
 O130 O 0.28633 0.22939 0.21093
 Zr131 Zr 0.26442 0.29309 0.23402
 O132 O 0.24160 0.27277 0.21206
 O133 O 0.24121 0.22777 0.21090
 O134 O 0.28748 0.27388 0.25585
 C135 C 0.26407 0.19650 0.17814
 C136 C 0.21055 0.19524 0.23632
 C137 C 0.20815 0.25089 0.17969
 C138 C 0.26553 0.30554 0.28785
 C139 C 0.32003 0.25168 0.28711
 C140 C 0.31851 0.30562 0.23408
 H141 H 0.29662 0.21809 0.26383
 H142 H 0.29450 0.28238 0.19986
 H143 H 0.23089 0.21744 0.20112
 H144 H 0.23166 0.28150 0.26548
 H145 H 0.22663 0.24051 0.29679
 H146 H 0.19967 0.25804 0.27299
 H147 H 0.32820 0.26220 0.19377
 H148 H 0.30179 0.24001 0.16964
 H149 H 0.27758 0.21233 0.29763
 H150 H 0.25595 0.18752 0.27232
 H151 H 0.27599 0.31710 0.19627
 H152 H 0.25204 0.29032 0.17122
 H153 H 0.30402 0.18868 0.22101
 H154 H 0.33073 0.21379 0.24421
 H155 H 0.20113 0.28886 0.22149
 H156 H 0.22526 0.31509 0.24448
 O157 O 0.75025 0.82612 0.23248
 O158 O 0.72327 0.83348 0.26493
 O159 O 0.81098 0.79646 0.26763
 O160 O 0.81853 0.76578 0.29209
 O161 O 0.78253 0.76371 0.20506
 O162 O 0.74916 0.73752 0.19847
 O163 O 0.74774 0.73246 0.32804
 O164 O 0.77573 0.76409 0.33390
 O165 O 0.68720 0.76558 0.29873
 O166 O 0.68077 0.79300 0.26477
 O167 O 0.71443 0.70448 0.26754
 O168 O 0.74865 0.69630 0.24038
 O169 O 0.74564 0.70397 0.29958
 O170 O 0.77325 0.69537 0.26649
 O171 O 0.68654 0.73374 0.26604
 O172 O 0.68018 0.76791 0.23950
 O173 O 0.71568 0.76345 0.32737
 O174 O 0.74418 0.79082 0.33508
 O175 O 0.74918 0.79713 0.20443
 O176 O 0.72332 0.76447 0.19732
 O177 O 0.81065 0.76275 0.23416
 O178 O 0.81557 0.73592 0.26765
 O179 O 0.78292 0.82559 0.26653
 O180 O 0.74831 0.83419 0.29125
 Zr181 Zr 0.75038 0.80738 0.26499
 O182 O 0.72780 0.78765 0.28730
 Zr183 Zr 0.79134 0.76475 0.26607
 O184 O 0.77036 0.74305 0.28816
 Zr185 Zr 0.75007 0.76524 0.22375
 O186 O 0.72705 0.74390 0.24401
 Zr187 Zr 0.74778 0.76438 0.30865
 O188 O 0.77078 0.78649 0.28871
 Zr189 Zr 0.70632 0.76536 0.26651
 O190 O 0.72721 0.78697 0.24392
 Zr191 Zr 0.74717 0.72256 0.26723
 O192 O 0.77040 0.74206 0.24497
 O193 O 0.77235 0.78700 0.24345
 O194 O 0.72515 0.74267 0.28906
 C195 C 0.74941 0.81903 0.21076
 C196 C 0.80460 0.81842 0.26770
 C197 C 0.80427 0.76259 0.21221
 C198 C 0.74623 0.71071 0.32137
 C199 C 0.69390 0.76429 0.32057
 C200 C 0.69276 0.71179 0.26681
 H201 H 0.71834 0.79861 0.29726
 H202 H 0.71711 0.73432 0.23318
 H203 H 0.78283 0.79687 0.23339
 H204 H 0.78076 0.73313 0.29834
 H205 H 0.78638 0.77747 0.32986
 H206 H 0.81259 0.75724 0.30624
 H207 H 0.68353 0.75538 0.22766
 H208 H 0.71061 0.77541 0.20268
 H209 H 0.75373 0.80449 0.32975
 H210 H 0.76158 0.83154 0.30253
 H211 H 0.73564 0.69955 0.22896
 H212 H 0.76026 0.72510 0.20425
 H213 H 0.71102 0.82808 0.25351
 H214 H 0.68438 0.80445 0.27758
 H215 H 0.81012 0.72409 0.25586
 H216 H 0.78481 0.69857 0.27936
 O217 O 0.75080 0.18722 0.77984
 O218 O 0.72562 0.17956 0.74744
 O219 O 0.81142 0.21896 0.74679
 O220 O 0.82068 0.25087 0.72661
 O221 O 0.78039 0.24907 0.81080
 O222 O 0.74763 0.27352 0.81829
 O223 O 0.74600 0.28179 0.68683
 O224 O 0.77341 0.25234 0.67908
 O225 O 0.68672 0.24898 0.71672
 O226 O 0.67858 0.22435 0.74877
 O227 O 0.71549 0.31053 0.74631
 O228 O 0.74655 0.31982 0.77262
 O229 O 0.74770 0.31056 0.71504
 O230 O 0.77553 0.31660 0.75113
 O231 O 0.68694 0.28210 0.74813
 O232 O 0.68209 0.24647 0.77698
 O233 O 0.71458 0.25081 0.68757
 O234 O 0.74900 0.22192 0.68115
 O235 O 0.74869 0.21479 0.80924
 O236 O 0.72052 0.24824 0.81556
 O237 O 0.80955 0.25119 0.78295
 O238 O 0.81379 0.28013 0.74838
 O239 O 0.78411 0.18928 0.74741
 O240 O 0.75048 0.18286 0.71982
 Zr241 Zr 0.75101 0.20714 0.74846
 O242 O 0.72738 0.22711 0.72731
 Zr243 Zr 0.79126 0.25012 0.74989
 O244 O 0.77041 0.27112 0.72675
 Zr245 Zr 0.74898 0.24777 0.79104
 O246 O 0.72711 0.27064 0.77084
 Zr247 Zr 0.74740 0.25013 0.70606
 O248 O 0.77140 0.22891 0.72604
 Zr249 Zr 0.70623 0.24970 0.74834
 O250 O 0.72693 0.22656 0.76975
 Zr251 Zr 0.74755 0.29178 0.74768
 O252 O 0.76959 0.27191 0.77105
 O253 O 0.77216 0.22699 0.77121
 O254 O 0.72516 0.27211 0.72582
 C255 C 0.74971 0.19316 0.80181
 C256 C 0.80565 0.19693 0.74652
 C257 C 0.80227 0.25061 0.80466
 C258 C 0.74653 0.30359 0.69328
 C259 C 0.69289 0.24995 0.69482
 C260 C 0.69373 0.30386 0.74671
 H261 H 0.71749 0.21621 0.71777
 H262 H 0.71727 0.28044 0.78159
 H263 H 0.78268 0.21692 0.78115
 H264 H 0.78091 0.28084 0.71659
 H265 H 0.78705 0.24255 0.68443
 H266 H 0.81424 0.25444 0.71064
 H267 H 0.68245 0.26145 0.78613
 H268 H 0.70991 0.23490 0.81134
 H269 H 0.73429 0.21245 0.68252
 H270 H 0.76310 0.18786 0.70866
 H271 H 0.73841 0.31377 0.78695
 H272 H 0.75704 0.28721 0.81258
 H273 H 0.71231 0.18467 0.75774
 H274 H 0.68473 0.20997 0.74077
 H275 H 0.81084 0.28955 0.76293
 H276 H 0.78501 0.31609 0.73635
 O277 O 0.23286 0.79344 0.78400
 O278 O 0.25899 0.80038 0.75102
 O279 O 0.17043 0.76634 0.74878
 O280 O 0.16203 0.73608 0.72437
 O281 O 0.19797 0.73146 0.81130
 O282 O 0.23107 0.70508 0.81810
 O283 O 0.23417 0.70024 0.68858
 O284 O 0.20523 0.73111 0.68218
 O285 O 0.29337 0.73073 0.71767
 O286 O 0.30041 0.75821 0.75215
 O287 O 0.26421 0.67077 0.74881
 O288 O 0.22975 0.66400 0.77612
 O289 O 0.23172 0.67155 0.71693
 O290 O 0.20520 0.66394 0.75022
 O291 O 0.29282 0.69909 0.75047
 O292 O 0.30072 0.73248 0.77664
 O293 O 0.26494 0.73252 0.68898
 O294 O 0.23248 0.75924 0.68143
 O295 O 0.23155 0.76457 0.81226
 O296 O 0.25734 0.73144 0.81903
 O297 O 0.16978 0.73345 0.78234
 O298 O 0.16427 0.70578 0.74961
 O299 O 0.19946 0.79437 0.74956
 O300 O 0.23298 0.80139 0.72478
 Zr301 Zr 0.23141 0.77496 0.75144
 O302 O 0.25357 0.75463 0.72922
 Zr303 Zr 0.18914 0.73394 0.75046
 O304 O 0.20954 0.71168 0.72825
 Zr305 Zr 0.23046 0.73281 0.79274
 O306 O 0.25279 0.71069 0.77243
 Zr307 Zr 0.23282 0.73225 0.70776
 O308 O 0.21041 0.75484 0.72785
 Zr309 Zr 0.27420 0.73139 0.74993
 O310 O 0.25397 0.75369 0.77251
 Zr311 Zr 0.23203 0.69019 0.74919
 O312 O 0.20943 0.71044 0.77151
 O313 O 0.20884 0.75545 0.77303
 O314 O 0.25475 0.70953 0.72731
 C315 C 0.23283 0.78642 0.80579
 C316 C 0.17754 0.78802 0.74845
 C317 C 0.17621 0.73208 0.80422
 C318 C 0.23320 0.67843 0.69524
 C319 C 0.28671 0.73162 0.69578
 C320 C 0.28607 0.67736 0.74979
 H321 H 0.26359 0.76540 0.71969
 H322 H 0.26242 0.70070 0.78326
 H323 H 0.19871 0.76574 0.78308
 H324 H 0.19893 0.70215 0.71801
 H325 H 0.19321 0.74303 0.68706
 H326 H 0.16662 0.72556 0.71107
 H327 H 0.29633 0.72085 0.78905
 H328 H 0.27008 0.74230 0.81370
 H329 H 0.24404 0.77156 0.68613
 H330 H 0.22232 0.79613 0.71181
 H331 H 0.24316 0.66642 0.78726
 H332 H 0.21998 0.69278 0.81227
 H333 H 0.27156 0.79433 0.76180
 H334 H 0.29811 0.76916 0.73858
 H335 H 0.16906 0.69432 0.76210
 H336 H 0.19297 0.66831 0.73832
 O337 O 0.24993 0.32378 0.72933
 O338 O 0.22396 0.33065 0.76276
 O339 O 0.31190 0.29387 0.76200
 O340 O 0.31981 0.26328 0.78673
 O341 O 0.28205 0.26172 0.70026
 O342 O 0.24828 0.23582 0.69403
 O343 O 0.25024 0.22874 0.82358
 O344 O 0.27825 0.26041 0.82921
 O345 O 0.18898 0.26283 0.79619
 O346 O 0.18198 0.29033 0.76205
 O347 O 0.21550 0.20165 0.76227
 O348 O 0.24955 0.19388 0.73539
 O349 O 0.24747 0.20073 0.79470
 O350 O 0.27428 0.19262 0.76095
 O351 O 0.18759 0.23084 0.76415
 O352 O 0.18010 0.26442 0.73755
 O353 O 0.21798 0.25996 0.82422
 O354 O 0.24672 0.28689 0.83169
 O355 O 0.24963 0.29527 0.70074
 O356 O 0.22249 0.26327 0.69406
 O357 O 0.31080 0.26017 0.72873
 O358 O 0.31666 0.23341 0.76190
 O359 O 0.28363 0.32284 0.76253
 O360 O 0.24974 0.33109 0.78820
 Zr361 Zr 0.25110 0.30460 0.76159
 O362 O 0.22915 0.28451 0.78416
 Zr363 Zr 0.29225 0.26212 0.76110
 O364 O 0.27181 0.24002 0.78331
 Zr365 Zr 0.25003 0.26315 0.71969
 O366 O 0.22753 0.24146 0.74018
 Zr367 Zr 0.24966 0.26096 0.80470
 O368 O 0.27212 0.28345 0.78453
 Zr369 Zr 0.20730 0.26246 0.76355
 O370 O 0.22754 0.28446 0.74073
 Zr371 Zr 0.24823 0.21980 0.76257
 O372 O 0.27089 0.23969 0.74011
 O373 O 0.27266 0.28461 0.73928
 O374 O 0.22665 0.23944 0.78531
 C375 C 0.24962 0.31706 0.70748
 C376 C 0.30537 0.31577 0.76263
 C377 C 0.30391 0.26032 0.70694
 C378 C 0.24873 0.20709 0.81660
 C379 C 0.19607 0.26131 0.81788
 C380 C 0.19381 0.20890 0.76324
 H381 H 0.21992 0.29535 0.79446
 H382 H 0.21737 0.23200 0.72945
 H383 H 0.28294 0.29456 0.72909
 H384 H 0.28248 0.22998 0.79308
 H385 H 0.28870 0.27394 0.82516
 H386 H 0.31443 0.25406 0.80067
 H387 H 0.18375 0.25256 0.72513
 H388 H 0.21010 0.27427 0.70003
 H389 H 0.25570 0.30085 0.82614
 H390 H 0.26323 0.32825 0.79916
 H391 H 0.23679 0.19760 0.72383
 H392 H 0.25979 0.22346 0.69908
 H393 H 0.21156 0.32562 0.75132
 H394 H 0.18547 0.30143 0.77521
 H395 H 0.31086 0.22153 0.75034
 H396 H 0.28610 0.19565 0.77362
 O397 O 0.76310 0.68844 0.70519
 O398 O 0.79017 0.68253 0.73837
 O399 O 0.70133 0.71645 0.74016
 O400 O 0.69198 0.74808 0.76213
 O401 O 0.72939 0.74989 0.67598
 O402 O 0.76231 0.77636 0.66939
 O403 O 0.76245 0.78418 0.79857
 O404 O 0.73481 0.75180 0.80502
 O405 O 0.82375 0.75130 0.77094
 O406 O 0.83116 0.72406 0.73746
 O407 O 0.79477 0.81150 0.73918
 O408 O 0.76093 0.81779 0.70988
 O409 O 0.76131 0.81209 0.76939
 O410 O 0.73590 0.81902 0.73539
 O411 O 0.82351 0.78305 0.73844
 O412 O 0.83120 0.74900 0.71191
 O413 O 0.79503 0.75344 0.79920
 O414 O 0.76686 0.72600 0.80744
 O415 O 0.76388 0.71689 0.67644
 O416 O 0.78865 0.75014 0.66914
 O417 O 0.70095 0.74845 0.70464
 O418 O 0.69480 0.77693 0.73717
 O419 O 0.73026 0.68826 0.73822
 O420 O 0.76429 0.68128 0.76412
 Zr421 Zr 0.76212 0.70762 0.73734
 O422 O 0.78378 0.72843 0.75959
 Zr423 Zr 0.71984 0.74877 0.73695
 O424 O 0.73985 0.77162 0.75881
 Zr425 Zr 0.76163 0.74903 0.69518
 O426 O 0.78372 0.77142 0.71536
 Zr427 Zr 0.76301 0.75161 0.78017
 O428 O 0.74092 0.72830 0.76040
 Zr429 Zr 0.80477 0.75093 0.73860
 O430 O 0.78487 0.72832 0.71615
 Zr431 Zr 0.76254 0.79249 0.73773
 O432 O 0.74020 0.77181 0.71563
 O433 O 0.73980 0.72686 0.71501
 O434 O 0.78506 0.77358 0.76033
 C435 C 0.76409 0.69515 0.68335
 C436 C 0.70840 0.69470 0.73993
 C437 C 0.70757 0.74935 0.68280
 C438 C 0.76166 0.80585 0.79133
 C439 C 0.81689 0.75276 0.79267
 C440 C 0.81666 0.80479 0.73915
 H441 H 0.79345 0.71791 0.76989
 H442 H 0.79354 0.78116 0.70458
 H443 H 0.72977 0.71643 0.70503
 H444 H 0.72895 0.78136 0.76855
 H445 H 0.72459 0.73802 0.80122
 H446 H 0.69785 0.75615 0.77657
 H447 H 0.82794 0.76170 0.70019
 H448 H 0.80178 0.74000 0.67512
 H449 H 0.75840 0.71169 0.80196
 H450 H 0.75089 0.68399 0.77517
 H451 H 0.77531 0.81587 0.69997
 H452 H 0.75106 0.78874 0.67486
 H453 H 0.80205 0.68774 0.72651
 H454 H 0.82760 0.71247 0.75018
 H455 H 0.69926 0.78790 0.72417
 H456 H 0.72311 0.81466 0.74660
 O457 O 0.24866 0.68850 0.28405
 O458 O 0.22593 0.67915 0.25090
 O459 O 0.31227 0.71627 0.24879
 O460 O 0.32282 0.74731 0.22793
 O461 O 0.28216 0.75241 0.31144
 O462 O 0.24926 0.77655 0.31763
 O463 O 0.25078 0.77771 0.18577
 O464 O 0.27620 0.74657 0.18000
 O465 O 0.18908 0.74753 0.21679
 O466 O 0.18004 0.72531 0.25060
 O467 O 0.21903 0.81044 0.24412
 O468 O 0.25120 0.81984 0.26997
 O469 O 0.25052 0.80784 0.21257
 O470 O 0.27905 0.81534 0.24756
 O471 O 0.18982 0.78276 0.24647
 O472 O 0.18353 0.74906 0.27688
 O473 O 0.21724 0.74761 0.18783
 O474 O 0.25079 0.71756 0.18334
 O475 O 0.24994 0.71761 0.31204
 O476 O 0.22206 0.75152 0.31606
 O477 O 0.31150 0.74928 0.28386
 O478 O 0.31647 0.77747 0.24872
 O479 O 0.28436 0.68740 0.25255
 O480 O 0.25135 0.68047 0.22434
 Zr481 Zr 0.25177 0.70631 0.25157
 O482 O 0.22902 0.72575 0.22903
 Zr483 Zr 0.29317 0.74809 0.25094
 O484 O 0.27313 0.76848 0.22661
 Zr485 Zr 0.25069 0.74937 0.29181
 O486 O 0.22947 0.77152 0.27017
 Zr487 Zr 0.24984 0.74707 0.20673
 O488 O 0.27293 0.72622 0.22812
 Zr489 Zr 0.20825 0.74998 0.24855
 O490 O 0.22818 0.72765 0.27147
 Zr491 Zr 0.25059 0.79085 0.24611
 O492 O 0.27201 0.77170 0.27061
 O493 O 0.27335 0.72670 0.27346
 O494 O 0.22789 0.77067 0.22499
 C495 C 0.24839 0.69571 0.30566
 C496 C 0.30602 0.69445 0.25046
 C497 C 0.30411 0.75169 0.30538
 C498 C 0.25076 0.79982 0.19116
 C499 C 0.19550 0.74708 0.19495
 C500 C 0.19711 0.80433 0.24461
 H501 H 0.21896 0.71456 0.22002
 H502 H 0.21981 0.78211 0.28032
 H503 H 0.28337 0.71684 0.28411
 H504 H 0.28401 0.77737 0.21609
 H505 H 0.28957 0.73696 0.18630
 H506 H 0.31667 0.75062 0.21180
 H507 H 0.18465 0.76425 0.28560
 H508 H 0.21110 0.73836 0.31217
 H509 H 0.23597 0.70838 0.18535
 H510 H 0.26422 0.68466 0.21312
 H511 H 0.24069 0.81583 0.28345
 H512 H 0.25809 0.79016 0.31089
 H513 H 0.21196 0.68539 0.25959
 H514 H 0.18526 0.71079 0.24222
 H515 H 0.31336 0.78758 0.26276
 H516 H 0.28860 0.81342 0.23294
 O517 O 0.73917 0.29818 0.28314
 O518 O 0.76545 0.30473 0.24989
 O519 O 0.67719 0.26922 0.24966
 O520 O 0.66903 0.23860 0.22570
 O521 O 0.70661 0.23724 0.31213
 O522 O 0.73963 0.21013 0.31852
 O523 O 0.73982 0.20280 0.18941
 O524 O 0.71123 0.23439 0.18313
 O525 O 0.80027 0.23670 0.21677
 O526 O 0.80791 0.26290 0.25038
 O527 O 0.77242 0.17526 0.24958
 O528 O 0.73880 0.16855 0.27777
 O529 O 0.73968 0.17474 0.21846
 O530 O 0.71360 0.16763 0.25241
 O531 O 0.80072 0.20396 0.24924
 O532 O 0.80809 0.23830 0.27600
 O533 O 0.77140 0.23405 0.18856
 O534 O 0.74255 0.26120 0.18090
 O535 O 0.74092 0.26962 0.31169
 O536 O 0.76589 0.23644 0.31886
 O537 O 0.67795 0.23623 0.28357
 O538 O 0.67210 0.20884 0.25065
 O539 O 0.70568 0.29777 0.24932
 O540 O 0.74005 0.30555 0.22421
 Zr541 Zr 0.73812 0.27906 0.25085
 O542 O 0.76005 0.25854 0.22854
 Zr543 Zr 0.69664 0.23728 0.25127
 O544 O 0.71693 0.21482 0.22922
 Zr545 Zr 0.73872 0.23758 0.29286
 O546 O 0.76103 0.21545 0.27256
 Zr547 Zr 0.73958 0.23523 0.20791
 O548 O 0.71715 0.25814 0.22783
 Zr549 Zr 0.78162 0.23612 0.24928
 O550 O 0.76146 0.25852 0.27182
 Zr551 Zr 0.74007 0.19417 0.25023
 O552 O 0.71759 0.21453 0.27250
 O553 O 0.71634 0.25950 0.27317
 O554 O 0.76216 0.21335 0.22757
 C555 C 0.74077 0.29141 0.30496
 C556 C 0.68387 0.29102 0.24882
 C557 C 0.68475 0.23645 0.30538
 C558 C 0.73987 0.18110 0.19655
 C559 C 0.79326 0.23537 0.19504
 C560 C 0.79419 0.18212 0.24939
 H561 H 0.76944 0.26925 0.21828
 H562 H 0.77106 0.20582 0.28335
 H563 H 0.70624 0.26980 0.28324
 H564 H 0.70622 0.20496 0.21941
 H565 H 0.70059 0.24789 0.18701
 H566 H 0.67443 0.22943 0.21173
 H567 H 0.80545 0.22518 0.28739
 H568 H 0.77899 0.24643 0.31278
 H569 H 0.73289 0.27491 0.18605
 H570 H 0.72683 0.30273 0.21294
 H571 H 0.75220 0.17161 0.28873
 H572 H 0.72798 0.19806 0.31332
 H573 H 0.77774 0.29948 0.26140
 H574 H 0.80348 0.27515 0.23855
 H575 H 0.67720 0.19742 0.26306
 H576 H 0.70143 0.17116 0.24017
 C577 C 0.25713 0.07206 0.05220
 C578 C 0.27452 0.05411 0.05159
 C579 C 0.27277 0.03551 0.03540
 C580 C 0.25356 0.03433 0.01951
 C581 C 0.23628 0.05237 0.01974
 C582 C 0.23818 0.07124 0.03583
 C583 C 0.25848 0.09089 0.07046
 N584 N 0.24555 0.11121 0.06840
 N585 N 0.24668 0.12790 0.08513
 C586 C 0.26063 0.12488 0.10467
 N587 N 0.27350 0.10455 0.10672
 N588 N 0.27249 0.08795 0.08995
 C589 C 0.26173 0.14324 0.12342
 C590 C 0.27056 0.13765 0.14617
 C591 C 0.27133 0.15491 0.16398
 C592 C 0.26363 0.17821 0.15931
 C593 C 0.25503 0.18384 0.13649
 C594 C 0.25393 0.16650 0.11880
 H595 H 0.28943 0.05430 0.06381
 H596 H 0.28624 0.02171 0.03552
 H597 H 0.22115 0.05158 0.00783
 H598 H 0.22445 0.08477 0.03594
 H599 H 0.27662 0.11985 0.15031
 H600 H 0.27807 0.15005 0.18137
 H601 H 0.24879 0.20159 0.13238
 H602 H 0.24711 0.17138 0.10145
 C603 C 0.76055 0.57449 0.55434
 C604 C 0.78168 0.56353 0.54673
 C605 C 0.78090 0.54467 0.53066
 C606 C 0.75907 0.53701 0.52142
 C607 C 0.73803 0.54851 0.52824
 C608 C 0.73873 0.56699 0.54476
 C609 C 0.76117 0.59278 0.57307
 N610 N 0.74274 0.59517 0.58844
 N611 N 0.74364 0.61097 0.60600
 C612 C 0.76294 0.62514 0.60875
 N613 N 0.78129 0.62290 0.59326
 N614 N 0.78050 0.60691 0.57585
 C615 C 0.76388 0.64268 0.62817
 C616 C 0.77668 0.66385 0.62536
 C617 C 0.77685 0.68087 0.64339
 C618 C 0.76474 0.67673 0.66480
 C619 C 0.75245 0.65530 0.66788
 C620 C 0.75177 0.63854 0.64959
 H621 H 0.79871 0.56889 0.55395
 H622 H 0.79725 0.53575 0.52570
 H623 H 0.72103 0.54259 0.52141
 H624 H 0.72221 0.57523 0.55027
 H625 H 0.78610 0.66749 0.60899
 H626 H 0.78648 0.69727 0.64063
 H627 H 0.74283 0.65181 0.68417
 H628 H 0.74188 0.62229 0.65224
 C629 C 0.75550 0.93455 0.07604
 C630 C 0.76878 0.95562 0.07703
 C631 C 0.77010 0.97066 0.05722
 C632 C 0.75789 0.96519 0.03599
 C633 C 0.74484 0.94386 0.03519
 C634 C 0.74363 0.92887 0.05486
 C635 C 0.75417 0.91820 0.09667
 N636 N 0.74399 0.89653 0.09419
 N637 N 0.74280 0.88156 0.11244
 C638 C 0.75167 0.88759 0.13404
 N639 N 0.76180 0.90933 0.13662
 N640 N 0.76305 0.92432 0.11829
 C641 C 0.75061 0.87048 0.15405
 C642 C 0.75655 0.87727 0.17736
 C643 C 0.75576 0.86074 0.19598
 C644 C 0.74926 0.83705 0.19156
 C645 C 0.74319 0.83040 0.16828
 C646 C 0.74377 0.84689 0.14981
 H647 H 0.77851 0.96030 0.09296
 H648 H 0.78157 0.98598 0.05839
 H649 H 0.73471 0.93902 0.01955
 H650 H 0.73313 0.91286 0.05343
 H651 H 0.76182 0.89533 0.18123
 H652 H 0.76063 0.86639 0.21371
 H653 H 0.73800 0.81234 0.16425
 H654 H 0.73910 0.84100 0.13211
 C655 C 0.25590 0.43713 0.57711
 C656 C 0.23673 0.45275 0.57324
 C657 C 0.23599 0.46706 0.55292
 C658 C 0.25462 0.46638 0.53632
 C659 C 0.27407 0.45126 0.54054
 C660 C 0.27468 0.43673 0.56066
 C661 C 0.25579 0.42041 0.59744
 N662 N 0.26977 0.40072 0.59712
 N663 N 0.26896 0.38499 0.61476
 C664 C 0.25423 0.38832 0.63356
 N665 N 0.24041 0.40816 0.63405
 N666 N 0.24110 0.42383 0.61629
 C667 C 0.25287 0.37030 0.65267
 C668 C 0.24380 0.37605 0.67522
 C669 C 0.24276 0.35882 0.69316
 C670 C 0.25032 0.33544 0.68870
 C671 C 0.25915 0.32971 0.66608
 C672 C 0.26058 0.34697 0.64835
 H673 H 0.22189 0.45330 0.58547
 H674 H 0.22049 0.47808 0.54981
 H675 H 0.28869 0.45047 0.52805
 H676 H 0.28977 0.42499 0.56320
 H677 H 0.23778 0.39392 0.67907
 H678 H 0.23588 0.36373 0.71044
 H679 H 0.26532 0.31191 0.66215
 H680 H 0.26754 0.34193 0.63114
 C681 C 0.74981 0.05772 0.91670
 C682 C 0.73465 0.05871 0.93640
 C683 C 0.73593 0.04153 0.95412
 C684 C 0.75246 0.02267 0.95286
 C685 C 0.76678 0.02091 0.93238
 C686 C 0.76545 0.03828 0.91450
 C687 C 0.74989 0.07762 0.89942
 N688 N 0.76176 0.07600 0.87849
 N689 N 0.76210 0.09428 0.86341
 C690 C 0.75075 0.11497 0.86870
 N691 N 0.73894 0.11657 0.88964
 N692 N 0.73852 0.09829 0.90465
 C693 C 0.75097 0.13526 0.85191
 C694 C 0.74314 0.15795 0.85902
 C695 C 0.74299 0.17695 0.84294
 C696 C 0.75038 0.17356 0.81937
 C697 C 0.75839 0.15092 0.81238
 C698 C 0.75879 0.13206 0.82847
 H699 H 0.72201 0.07311 0.93846
 H700 H 0.72393 0.04315 0.96907
 H701 H 0.78026 0.00725 0.93086
 H702 H 0.77740 0.03702 0.89949
 H703 H 0.73712 0.16104 0.87702
 H704 H 0.73676 0.19417 0.84885
 H705 H 0.76446 0.14773 0.79441
 H706 H 0.76494 0.11488 0.82239
 C707 C 0.24960 0.55623 0.41448
 C708 C 0.27125 0.54752 0.42360
 C709 C 0.27144 0.52914 0.44035
 C710 C 0.25001 0.51940 0.44840
 C711 C 0.22845 0.52745 0.43874
 C712 C 0.22825 0.54547 0.42166
 C713 C 0.24910 0.57730 0.39873
 N714 N 0.22993 0.58178 0.38470
 N715 N 0.22909 0.60115 0.37112
 C716 C 0.24722 0.61703 0.37125
 N717 N 0.26636 0.61262 0.38536
 N718 N 0.26729 0.59313 0.39880
 C719 C 0.24640 0.63818 0.35563
 C720 C 0.26035 0.65834 0.36043
 C721 C 0.26018 0.67779 0.34483
 C722 C 0.24648 0.67707 0.32397
 C723 C 0.23223 0.65716 0.31947
 C724 C 0.23198 0.63805 0.33524
 H725 H 0.28798 0.55536 0.41829
 H726 H 0.28819 0.52344 0.44803
 H727 H 0.21173 0.52046 0.44520
 H728 H 0.21129 0.55184 0.41503
 H729 H 0.27152 0.65898 0.37611
 H730 H 0.27145 0.69290 0.34853
 H731 H 0.22148 0.65623 0.30349
 H732 H 0.22107 0.62281 0.33101
 C733 C 0.24631 0.90994 0.93246
 C734 C 0.26173 0.92902 0.92845
 C735 C 0.26263 0.94801 0.94420
 C736 C 0.24812 0.94870 0.96461
 C737 C 0.23335 0.92901 0.96919
 C738 C 0.23250 0.90984 0.95328
 C739 C 0.24415 0.89106 0.91425
 N740 N 0.23240 0.87048 0.91871
 N741 N 0.23027 0.85395 0.90188
 C742 C 0.23965 0.85740 0.87988
 N743 N 0.25134 0.87796 0.87548
 N744 N 0.25356 0.89439 0.89229
 C745 C 0.23732 0.83926 0.86096
 C746 C 0.24263 0.84505 0.83723
 C747 C 0.24090 0.82800 0.81931
 C748 C 0.23404 0.80466 0.82471
 C749 C 0.22861 0.79886 0.84842
 C750 C 0.23010 0.81601 0.86633
 H751 H 0.27301 0.92953 0.91288
 H752 H 0.27494 0.96225 0.94034
 H753 H 0.22123 0.92898 0.98408
 H754 H 0.22034 0.89540 0.95683
 H755 H 0.24813 0.86283 0.83244
 H756 H 0.24524 0.83306 0.80126
 H757 H 0.22314 0.78106 0.85317
 H758 H 0.22591 0.81097 0.88441
 C759 C 0.74507 0.41298 0.43411
 C760 C 0.72710 0.43031 0.43541
 C761 C 0.72871 0.44887 0.45172
 C762 C 0.74841 0.45071 0.46699
 C763 C 0.76597 0.43291 0.46639
 C764 C 0.76422 0.41411 0.45020
 C765 C 0.74429 0.39463 0.41527
 N766 N 0.75809 0.37482 0.41660
 N767 N 0.75773 0.35872 0.39926
 C768 C 0.74374 0.36186 0.37976
 N769 N 0.72998 0.38168 0.37843
 N770 N 0.73022 0.39768 0.39583
 C771 C 0.74340 0.34404 0.36041
 C772 C 0.73445 0.34992 0.33777
 C773 C 0.73398 0.33300 0.31958
 C774 C 0.74209 0.30975 0.32376
 C775 C 0.75107 0.30391 0.34638
 C776 C 0.75189 0.32090 0.36443
 H777 H 0.71196 0.42980 0.42350
 H778 H 0.71483 0.46226 0.45197
 H779 H 0.78150 0.43408 0.47772
 H780 H 0.77837 0.40104 0.44963
 H781 H 0.72788 0.36764 0.33407
 H782 H 0.72687 0.33800 0.30237
 H783 H 0.75757 0.28617 0.35014
 H784 H 0.75884 0.31578 0.38165
 C785 C 0.07584 0.24981 0.06118
 C786 C 0.05990 0.23066 0.06016
 C787 C 0.04017 0.23145 0.04505
 C788 C 0.03582 0.25149 0.03079
 C789 C 0.05176 0.27063 0.03177
 C790 C 0.07172 0.26969 0.04660
 C791 C 0.09614 0.24935 0.07796
 N792 N 0.11486 0.26430 0.07519
 N793 N 0.13279 0.26426 0.09072
 C794 C 0.13264 0.24939 0.10975
 N795 N 0.11395 0.23443 0.11248
 N796 N 0.09612 0.23436 0.09687
 C797 C 0.15212 0.24978 0.12748
 C798 C 0.14846 0.24056 0.15038
 C799 C 0.16660 0.24119 0.16734
 C800 C 0.18895 0.25071 0.16168
 C801 C 0.19274 0.25971 0.13870
 C802 C 0.17442 0.25945 0.12182
 H803 H 0.06266 0.21504 0.07108
 H804 H 0.02818 0.21645 0.04459
 H805 H 0.04857 0.28648 0.02131
 H806 H 0.08355 0.28481 0.04714
 H807 H 0.13145 0.23308 0.15533
 H808 H 0.16318 0.23393 0.18484
 H809 H 0.20979 0.26717 0.13384
 H810 H 0.17779 0.26661 0.10428
 C811 C 0.57642 0.74557 0.56309
 C812 C 0.56027 0.72658 0.56322
 C813 C 0.54008 0.72710 0.54879
 C814 C 0.53545 0.74667 0.53401
 C815 C 0.55177 0.76550 0.53347
 C816 C 0.57220 0.76486 0.54774
 C817 C 0.59681 0.74560 0.57979
 N818 N 0.61547 0.76059 0.57676
 N819 N 0.63333 0.76097 0.59238
 C820 C 0.63314 0.74654 0.61176
 N821 N 0.61453 0.73154 0.61470
 N822 N 0.59679 0.73104 0.59903
 C823 C 0.65239 0.74741 0.62971
 C824 C 0.64835 0.73873 0.65276
 C825 C 0.66622 0.73963 0.66996
 C826 C 0.68871 0.74889 0.66444
 C827 C 0.69290 0.75740 0.64133
 C828 C 0.67481 0.75688 0.62417
 H829 H 0.56310 0.71137 0.57468
 H830 H 0.52784 0.71230 0.54940
 H831 H 0.54842 0.78095 0.52248
 H832 H 0.58424 0.77982 0.54733
 H833 H 0.63125 0.73143 0.65763
 H834 H 0.66249 0.73277 0.68755
 H835 H 0.71005 0.76468 0.63659
 H836 H 0.67846 0.76363 0.60653
 C837 C 0.04965 0.73436 0.92827
 C838 C 0.05006 0.71771 0.94682
 C839 C 0.03419 0.71957 0.96572
 C840 C 0.01739 0.73820 0.96674
 C841 C 0.01667 0.75456 0.94774
 C842 C 0.03248 0.75254 0.92867
 C843 C 0.06779 0.73327 0.90929
 N844 N 0.06524 0.74597 0.88890
 N845 N 0.08202 0.74542 0.87222
 C846 C 0.10211 0.73228 0.87532
 N847 N 0.10463 0.71957 0.89569
 N848 N 0.08781 0.72003 0.91229
 C849 C 0.12101 0.73202 0.85707
 C850 C 0.14400 0.72384 0.86271
 C851 C 0.16198 0.72392 0.84560
 C852 C 0.15725 0.73186 0.82239
 C853 C 0.13421 0.73986 0.81670
 C854 C 0.11633 0.74008 0.83390
 H855 H 0.06284 0.70329 0.94690
 H856 H 0.03503 0.70622 0.97958
 H857 H 0.00476 0.76969 0.94812
 H858 H 0.03185 0.76578 0.91471
 H859 H 0.14821 0.71762 0.88045
 H860 H 0.17954 0.71762 0.85050
 H861 H 0.13004 0.74624 0.79900
 H862 H 0.09880 0.74644 0.82898
 C863 C 0.55480 0.25451 0.42426
 C864 C 0.53708 0.23723 0.42738
 C865 C 0.52060 0.23930 0.44588
 C866 C 0.52136 0.25889 0.46128
 C867 C 0.53834 0.27668 0.45742
 C868 C 0.55494 0.27448 0.43918
 C869 C 0.57387 0.25125 0.40648
 N870 N 0.59456 0.26347 0.40848
 N871 N 0.61214 0.26013 0.39303
 C872 C 0.60975 0.24448 0.37487
 N873 N 0.58902 0.23232 0.37278
 N874 N 0.57147 0.23554 0.38834
 C875 C 0.62924 0.24111 0.35757
 C876 C 0.62469 0.23117 0.33516
 C877 C 0.64285 0.22924 0.31836
 C878 C 0.66602 0.23687 0.32376
 C879 C 0.67074 0.24611 0.34644
 C880 C 0.65250 0.24838 0.36312
 H881 H 0.53656 0.22162 0.41618
 H882 H 0.50790 0.22518 0.44873
 H883 H 0.53918 0.29198 0.46903
 H884 H 0.56818 0.28823 0.43706
 H885 H 0.60696 0.22543 0.33036
 H886 H 0.63870 0.22196 0.30104
 H887 H 0.68839 0.25226 0.35107
 H888 H 0.65659 0.25596 0.38031
 C889 C 0.93412 0.76166 0.09126
 C890 C 0.93537 0.77940 0.07373
 C891 C 0.95132 0.77731 0.05482
 C892 C 0.96620 0.75731 0.05289
 C893 C 0.96560 0.74001 0.07090
 C894 C 0.94988 0.74228 0.09000
 C895 C 0.91549 0.76261 0.10983
 N896 N 0.91706 0.74884 0.12962
 N897 N 0.89972 0.74890 0.14573
 C898 C 0.87998 0.76254 0.14262
 N899 N 0.87843 0.77634 0.12286
 N900 N 0.89584 0.77641 0.10683
 C901 C 0.86046 0.76220 0.16028
 C902 C 0.83760 0.77046 0.15421
 C903 C 0.81919 0.77011 0.17089
 C904 C 0.82334 0.76185 0.19412
 C905 C 0.84619 0.75359 0.20017
 C906 C 0.86449 0.75359 0.18339
 H907 H 0.92364 0.79468 0.07431
 H908 H 0.95149 0.79095 0.04124
 H909 H 0.97640 0.72413 0.06961
 H910 H 0.94929 0.72825 0.10316
 H911 H 0.83389 0.77708 0.13651
 H912 H 0.80182 0.77673 0.16574
 H913 H 0.84994 0.74706 0.21790
 H914 H 0.88189 0.74715 0.18864
 C915 C 0.43258 0.26066 0.58500
 C916 C 0.44354 0.23926 0.57815
 C917 C 0.45979 0.23888 0.55937
 C918 C 0.46592 0.25997 0.54767
 C919 C 0.45559 0.28145 0.55490
 C920 C 0.43895 0.28179 0.57333
 C921 C 0.41382 0.26074 0.60341
 N922 N 0.39676 0.27787 0.60352
 N923 N 0.37934 0.27751 0.61955
 C924 C 0.37837 0.26008 0.63622
 N925 N 0.39554 0.24304 0.63622
 N926 N 0.41282 0.24328 0.62005
 C927 C 0.35907 0.25969 0.65406
 C928 C 0.36248 0.24835 0.67606
 C929 C 0.34451 0.24849 0.69318
 C930 C 0.32254 0.25951 0.68846
 C931 C 0.31891 0.27043 0.66628
 C932 C 0.33710 0.27075 0.64934
 H933 H 0.43882 0.22268 0.58664
 H934 H 0.46713 0.22207 0.55355
 H935 H 0.45984 0.29781 0.54573
 H936 H 0.43084 0.29853 0.57827
 H937 H 0.37924 0.23974 0.68022
 H938 H 0.34776 0.23989 0.71011
 H939 H 0.30221 0.27921 0.66225
 H940 H 0.33392 0.27953 0.63249
 C941 C 0.91265 0.26429 0.94312
 C942 C 0.91289 0.24702 0.96119
 C943 C 0.93088 0.24686 0.97846
 C944 C 0.94907 0.26404 0.97807
 C945 C 0.94744 0.28241 0.96103
 C946 C 0.92960 0.28246 0.94380
 C947 C 0.89603 0.26249 0.92273
 N948 N 0.89984 0.27528 0.90259
 N949 N 0.88573 0.27285 0.88372
 C950 C 0.86718 0.25750 0.88418
 N951 N 0.86329 0.24479 0.90435
 N952 N 0.87747 0.24714 0.92319
 C953 C 0.85129 0.25488 0.86330
 C954 C 0.82930 0.24343 0.86577
 C955 C 0.81374 0.24175 0.84654
 C956 C 0.81984 0.25123 0.82424
 C957 C 0.84213 0.26204 0.82146
 C958 C 0.85765 0.26402 0.84089
 H959 H 0.90002 0.23276 0.96120
 H960 H 0.93161 0.23195 0.99055
 H961 H 0.96043 0.29657 0.96060
 H962 H 0.92958 0.29640 0.93052
 H963 H 0.82384 0.23615 0.88271
 H964 H 0.79678 0.23309 0.84920
 H965 H 0.84725 0.26953 0.80450
 H966 H 0.87456 0.27280 0.83838
 C967 C 0.41175 0.74950 0.44625
 C968 C 0.41875 0.77088 0.45702
 C969 C 0.43627 0.77089 0.47466
 C970 C 0.44654 0.74950 0.48232
 C971 C 0.43867 0.72802 0.47258
 C972 C 0.42149 0.72801 0.45457
 C973 C 0.39567 0.74986 0.42540
 N974 N 0.39624 0.73203 0.40916
 N975 N 0.38267 0.73296 0.38973
 C976 C 0.36793 0.75171 0.38580
 N977 N 0.36726 0.76945 0.40212
 N978 N 0.38097 0.76863 0.42144
 C979 C 0.35249 0.75264 0.36449
 C980 C 0.33163 0.76641 0.36473
 C981 C 0.31628 0.76645 0.34523
 C982 C 0.32167 0.75312 0.32484
 C983 C 0.34293 0.74001 0.32416
 C984 C 0.35810 0.73956 0.34395
 H985 H 0.41165 0.78772 0.45092
 H986 H 0.44258 0.78765 0.48163
 H987 H 0.44682 0.71140 0.47798
 H988 H 0.41634 0.71127 0.44668
 H989 H 0.32680 0.77665 0.38027
 H990 H 0.30001 0.77676 0.34617
 H991 H 0.34736 0.72945 0.30870
 H992 H 0.37416 0.72891 0.34322
 C993 C 0.08784 0.06744 0.24423
 C994 C 0.09040 0.04729 0.25881
 C995 C 0.07179 0.03092 0.26109
 C996 C 0.05016 0.03424 0.24872
 C997 C 0.04823 0.05410 0.23350
 C998 C 0.06668 0.07037 0.23132
 C999 C 0.10649 0.08595 0.24301
 N1000 N 0.10158 0.10738 0.23300
 N1001 N 0.11792 0.12438 0.23223
 C1002 C 0.13997 0.12071 0.24139
 N1003 N 0.14498 0.09925 0.25135
 N1004 N 0.12856 0.08224 0.25222
 C1005 C 0.15804 0.13980 0.24049
 C1006 C 0.18209 0.13490 0.24532
 C1007 C 0.19911 0.15290 0.24399
 C1008 C 0.19244 0.17627 0.23806
 C1009 C 0.16835 0.18122 0.23351
 C1010 C 0.15138 0.16318 0.23459
 H1011 H 0.10645 0.04461 0.26914
 H1012 H 0.07395 0.01667 0.27381
 H1013 H 0.03238 0.05705 0.22290
 H1014 H 0.06420 0.08544 0.21959
 H1015 H 0.18783 0.11709 0.24987
 H1016 H 0.21752 0.14850 0.24768
 H1017 H 0.16263 0.19900 0.22880
 H1018 H 0.13300 0.16761 0.23085
 C1019 C 0.58706 0.56594 0.75062
 C1020 C 0.57002 0.56605 0.76885
 C1021 C 0.55129 0.54983 0.76867
 C1022 C 0.54907 0.53324 0.75019
 C1023 C 0.56647 0.53261 0.73234
 C1024 C 0.58541 0.54867 0.73266
 C1025 C 0.60559 0.58456 0.74969
 N1026 N 0.62491 0.58215 0.73542
 N1027 N 0.64108 0.59934 0.73400
 C1028 C 0.63850 0.61974 0.74663
 N1029 N 0.61921 0.62213 0.76090
 N1030 N 0.60312 0.60489 0.76243
 C1031 C 0.65628 0.63902 0.74476
 C1032 C 0.65075 0.66217 0.75234
 C1033 C 0.66753 0.68037 0.75049
 C1034 C 0.69031 0.67571 0.74137
 C1035 C 0.69582 0.65254 0.73381
 C1036 C 0.67895 0.63446 0.73534
 H1037 H 0.57088 0.57897 0.78305
 H1038 H 0.53808 0.55066 0.78264
 H1039 H 0.56484 0.52049 0.71754
 H1040 H 0.59817 0.54821 0.71828
 H1041 H 0.63339 0.66629 0.75956
 H1042 H 0.66278 0.69801 0.75650
 H1043 H 0.71317 0.64840 0.72655
 H1044 H 0.68378 0.61682 0.72936
 C1045 C 0.94302 0.08531 0.76139
 C1046 C 0.96256 0.08570 0.74583
 C1047 C 0.97980 0.06766 0.74663
 C1048 C 0.97782 0.04880 0.76303
 C1049 C 0.95909 0.04963 0.77966
 C1050 C 0.94199 0.06754 0.77882
 C1051 C 0.92289 0.10216 0.75866
 N1052 N 0.90184 0.09776 0.76958
 N1053 N 0.88327 0.11216 0.76652
 C1054 C 0.88493 0.13162 0.75239
 N1055 N 0.90602 0.13612 0.74151
 N1056 N 0.92459 0.12162 0.74448
 C1057 C 0.86428 0.14774 0.74935
 C1058 C 0.86733 0.17064 0.73996
 C1059 C 0.84813 0.18636 0.73848
 C1060 C 0.82535 0.17946 0.74608
 C1061 C 0.82208 0.15629 0.75468
 C1062 C 0.84138 0.14064 0.75644
 H1063 H 0.96389 0.09922 0.73221
 H1064 H 0.99342 0.06755 0.73308
 H1065 H 0.95735 0.03606 0.79320
 H1066 H 0.92751 0.06701 0.79148
 H1067 H 0.88470 0.17666 0.73431
 H1068 H 0.85119 0.20408 0.73166
 H1069 H 0.80479 0.15050 0.76078
 H1070 H 0.83840 0.12305 0.76360
 C1071 C 0.44505 0.58495 0.26506
 C1072 C 0.46226 0.58389 0.24697
 C1073 C 0.47974 0.56617 0.24719
 C1074 C 0.48056 0.54946 0.26568
 C1075 C 0.46433 0.55145 0.28452
 C1076 C 0.44672 0.56898 0.28420
 C1077 C 0.42449 0.60136 0.26306
 N1078 N 0.40476 0.59809 0.27658
 N1079 N 0.38573 0.61200 0.27388
 C1080 C 0.38564 0.62977 0.25755
 N1081 N 0.40542 0.63312 0.24414
 N1082 N 0.42440 0.61914 0.24675
 C1083 C 0.36464 0.64545 0.25462
 C1084 C 0.36670 0.66687 0.24202
 C1085 C 0.34739 0.68236 0.24016
 C1086 C 0.32544 0.67671 0.25061
 C1087 C 0.32303 0.65492 0.26250
 C1088 C 0.34252 0.63950 0.26465
 H1089 H 0.46145 0.59590 0.23194
 H1090 H 0.49156 0.56459 0.23213
 H1091 H 0.46457 0.53862 0.29888
 H1092 H 0.43390 0.56946 0.29852
 H1093 H 0.38342 0.67200 0.23403
 H1094 H 0.34976 0.69898 0.23076
 H1095 H 0.30635 0.65020 0.27084
 H1096 H 0.34032 0.62302 0.27433
 C1097 C 0.06075 0.92174 0.74874
 C1098 C 0.06179 0.93975 0.73145
 C1099 C 0.04731 0.95985 0.73323
 C1100 C 0.03159 0.96250 0.75241
 C1101 C 0.03041 0.94446 0.76963
 C1102 C 0.04468 0.92417 0.76770
 C1103 C 0.07703 0.90106 0.74743
 N1104 N 0.07308 0.88123 0.76061
 N1105 N 0.08822 0.86299 0.75993
 C1106 C 0.10802 0.86390 0.74615
 N1107 N 0.11190 0.88368 0.73292
 N1108 N 0.09669 0.90184 0.73349
 C1109 C 0.12545 0.84414 0.74610
 C1110 C 0.14877 0.84797 0.73806
 C1111 C 0.16560 0.82971 0.73877
 C1112 C 0.15941 0.80706 0.74718
 C1113 C 0.13597 0.80304 0.75480
 C1114 C 0.11921 0.82147 0.75445
 H1115 H 0.07387 0.93836 0.71655
 H1116 H 0.04847 0.97345 0.71965
 H1117 H 0.01877 0.94626 0.78483
 H1118 H 0.04359 0.91071 0.78140
 H1119 H 0.15419 0.86524 0.73160
 H1120 H 0.18349 0.83331 0.73266
 H1121 H 0.13073 0.78580 0.76148
 H1122 H 0.10136 0.81795 0.76070
 C1123 C 0.56401 0.42211 0.24917
 C1124 C 0.56573 0.44094 0.23284
 C1125 C 0.55100 0.46083 0.23486
 C1126 C 0.53431 0.46244 0.25331
 C1127 C 0.53230 0.44352 0.26947
 C1128 C 0.54688 0.42345 0.26731
 C1129 C 0.58074 0.40178 0.24783
 N1130 N 0.57684 0.38154 0.26038
 N1131 N 0.59244 0.36367 0.25974
 C1132 C 0.61264 0.36538 0.24664
 N1133 N 0.61646 0.38558 0.23403
 N1134 N 0.60082 0.40336 0.23457
 C1135 C 0.63054 0.34603 0.24662
 C1136 C 0.65387 0.35048 0.23891
 C1137 C 0.67109 0.33259 0.23958
 C1138 C 0.66534 0.30971 0.24766
 C1139 C 0.64192 0.30509 0.25500
 C1140 C 0.62473 0.32313 0.25466
 H1141 H 0.57861 0.44042 0.21858
 H1142 H 0.55282 0.47515 0.22213
 H1143 H 0.51987 0.44451 0.28411
 H1144 H 0.54521 0.40933 0.28026
 H1145 H 0.65896 0.36794 0.23269
 H1146 H 0.68895 0.33668 0.23370
 H1147 H 0.63698 0.28765 0.26142
 H1148 H 0.60690 0.31913 0.26066
 C1149 C 0.93007 0.94299 0.25968
 C1150 C 0.92904 0.96441 0.27245
 C1151 C 0.94770 0.98080 0.27109
 C1152 C 0.96772 0.97624 0.25669
 C1153 C 0.96814 0.95497 0.24349
 C1154 C 0.94969 0.93866 0.24498
 C1155 C 0.91134 0.92473 0.26199
 N1156 N 0.91537 0.90232 0.25406
 N1157 N 0.89879 0.88565 0.25603
 C1158 C 0.87740 0.89067 0.26597
 N1159 N 0.87331 0.91310 0.27394
 N1160 N 0.88998 0.92978 0.27207
 C1161 C 0.85891 0.87210 0.26757
 C1162 C 0.83520 0.87809 0.27270
 C1163 C 0.81762 0.86062 0.27301
 C1164 C 0.82340 0.83674 0.26843
 C1165 C 0.84720 0.83068 0.26385
 C1166 C 0.86473 0.84818 0.26332
 H1167 H 0.91420 0.96814 0.28412
 H1168 H 0.94693 0.99627 0.28242
 H1169 H 0.98275 0.95095 0.23161
 H1170 H 0.95091 0.92254 0.23458
 H1171 H 0.83013 0.89634 0.27603
 H1172 H 0.79945 0.86586 0.27671
 H1173 H 0.85225 0.81248 0.26020
 H1174 H 0.88285 0.84294 0.25943
 C1175 C 0.42543 0.44458 0.74747
 C1176 C 0.42785 0.46234 0.76484
 C1177 C 0.44640 0.47875 0.76348
 C1178 C 0.46256 0.47793 0.74451
 C1179 C 0.45948 0.46088 0.72661
 C1180 C 0.44116 0.44432 0.72811
 C1181 C 0.40748 0.42564 0.75009
 N1182 N 0.40972 0.40499 0.73785
 N1183 N 0.39410 0.38752 0.74073
 C1184 C 0.37555 0.38999 0.75593
 N1185 N 0.37323 0.41068 0.76811
 N1186 N 0.38895 0.42811 0.76534
 C1187 C 0.35808 0.37066 0.75886
 C1188 C 0.33559 0.37535 0.76864
 C1189 C 0.31864 0.35737 0.77027
 C1190 C 0.32393 0.33425 0.76248
 C1191 C 0.34666 0.32937 0.75339
 C1192 C 0.36352 0.34745 0.75143
 H1193 H 0.41604 0.46294 0.78000
 H1194 H 0.44868 0.49146 0.77771
 H1195 H 0.47173 0.45997 0.71180
 H1196 H 0.43961 0.43103 0.71431
 H1197 H 0.33087 0.39304 0.77452
 H1198 H 0.30129 0.36163 0.77745
 H1199 H 0.35120 0.31175 0.74713
 H1200 H 0.38076 0.34326 0.74396
 C1201 C 0.07397 0.26581 0.94635
 C1202 C 0.07302 0.24818 0.96401
 C1203 C 0.05381 0.24718 0.97976
 C1204 C 0.03515 0.26395 0.97840
 C1205 C 0.03697 0.28227 0.96136
 C1206 C 0.05602 0.28313 0.94559
 C1207 C 0.09270 0.26549 0.92789
 N1208 N 0.08988 0.27822 0.90756
 N1209 N 0.10609 0.27729 0.89039
 C1210 C 0.12588 0.26364 0.89283
 N1211 N 0.12883 0.25101 0.91324
 N1212 N 0.11252 0.25183 0.93038
 C1213 C 0.14373 0.26253 0.87356
 C1214 C 0.16672 0.25371 0.87796
 C1215 C 0.18368 0.25324 0.85985
 C1216 C 0.17792 0.26128 0.83687
 C1217 C 0.15480 0.26969 0.83236
 C1218 C 0.13794 0.27046 0.85055
 H1219 H 0.08655 0.23449 0.96497
 H1220 H 0.05292 0.23228 0.99188
 H1221 H 0.02356 0.29607 0.96014
 H1222 H 0.05643 0.29724 0.93250
 H1223 H 0.17172 0.24748 0.89549
 H1224 H 0.20131 0.24651 0.86385
 H1225 H 0.14984 0.27605 0.81486
 H1226 H 0.12033 0.27721 0.84654
 C1227 C 0.57118 0.76059 0.44835
 C1228 C 0.57023 0.74141 0.46435
 C1229 C 0.55140 0.73942 0.48043
 C1230 C 0.53344 0.75679 0.48107
 C1231 C 0.53492 0.77642 0.46575
 C1232 C 0.55354 0.77826 0.44950
 C1233 C 0.58974 0.76162 0.42978
 N1234 N 0.58682 0.77571 0.41037
 N1235 N 0.60305 0.77606 0.39317
 C1236 C 0.62292 0.76237 0.39471
 N1237 N 0.62591 0.74838 0.41419
 N1238 N 0.60961 0.74793 0.43132
 C1239 C 0.64092 0.76269 0.37557
 C1240 C 0.66393 0.75387 0.37978
 C1241 C 0.68107 0.75445 0.36189
 C1242 C 0.67549 0.76355 0.33927
 C1243 C 0.65238 0.77204 0.33491
 C1244 C 0.63531 0.77179 0.35295
 H1245 H 0.58351 0.72746 0.46384
 H1246 H 0.55041 0.72390 0.49176
 H1247 H 0.52129 0.79005 0.46598
 H1248 H 0.55389 0.79337 0.43758
 H1249 H 0.66882 0.74677 0.39701
 H1250 H 0.69868 0.74759 0.36575
 H1251 H 0.64760 0.77920 0.31767
 H1252 H 0.61767 0.77859 0.34912
 C1253 C 0.93485 0.75320 0.92551
 C1254 C 0.93351 0.77073 0.94315
 C1255 C 0.94834 0.76981 0.96302
 C1256 C 0.96504 0.75129 0.96598
 C1257 C 0.96632 0.73371 0.94816
 C1258 C 0.95157 0.73479 0.92810
 C1259 C 0.91829 0.75388 0.90500
 N1260 N 0.92204 0.74024 0.88544
 N1261 N 0.90674 0.74066 0.86731
 C1262 C 0.88699 0.75463 0.86806
 N1263 N 0.88331 0.76828 0.88758
 N1264 N 0.89865 0.76796 0.90562
 C1265 C 0.86943 0.75461 0.84840
 C1266 C 0.84639 0.76358 0.85214
 C1267 C 0.82944 0.76301 0.83400
 C1268 C 0.83520 0.75375 0.81156
 C1269 C 0.85837 0.74518 0.80761
 C1270 C 0.87527 0.74543 0.82592
 H1271 H 0.92099 0.78530 0.94161
 H1272 H 0.94702 0.78407 0.97586
 H1273 H 0.97807 0.71856 0.95006
 H1274 H 0.95283 0.72082 0.91496
 H1275 H 0.84127 0.77073 0.86924
 H1276 H 0.81180 0.76990 0.83756
 H1277 H 0.86330 0.73790 0.79050
 H1278 H 0.89290 0.73848 0.82246
 C1279 C 0.43910 0.25085 0.41887
 C1280 C 0.43707 0.23404 0.43725
 C1281 C 0.45124 0.23565 0.45756
 C1282 C 0.46772 0.25413 0.46003
 C1283 C 0.47011 0.27075 0.44155
 C1284 C 0.45605 0.26903 0.42108
 C1285 C 0.42275 0.24996 0.39820
 N1286 N 0.42657 0.26344 0.37852
 N1287 N 0.41118 0.26321 0.36044
 C1288 C 0.39129 0.24959 0.36141
 N1289 N 0.38761 0.23605 0.38102
 N1290 N 0.40301 0.23619 0.39899
 C1291 C 0.37345 0.25000 0.34201
 C1292 C 0.35031 0.24175 0.34631
 C1293 C 0.33311 0.24243 0.32847
 C1294 C 0.33865 0.25108 0.30572
 C1295 C 0.36186 0.25910 0.30122
 C1296 C 0.37907 0.25876 0.31929
 H1297 H 0.42432 0.21972 0.43608
 H1298 H 0.44917 0.22256 0.47152
 H1299 H 0.48244 0.28538 0.44321
 H1300 H 0.45796 0.28234 0.40731
 H1301 H 0.34534 0.23500 0.36363
 H1302 H 0.31544 0.23598 0.33248
 H1303 H 0.36660 0.26594 0.28387
 H1304 H 0.39677 0.26520 0.31543
 C1305 C 0.05520 0.74525 0.08665
 C1306 C 0.04591 0.72360 0.07848
 C1307 C 0.02796 0.72334 0.06127
 C1308 C 0.01854 0.74470 0.05248
 C1309 C 0.02678 0.76632 0.06160
 C1310 C 0.04513 0.76662 0.07842
 C1311 C 0.07617 0.74546 0.10255
 N1312 N 0.09141 0.76415 0.10257
 N1313 N 0.11087 0.76388 0.11615
 C1314 C 0.11579 0.74496 0.13033
 N1315 N 0.10049 0.72634 0.13038
 N1316 N 0.08118 0.72651 0.11665
 C1317 C 0.13694 0.74481 0.14600
 C1318 C 0.13677 0.73125 0.16693
 C1319 C 0.15607 0.73181 0.18251
 C1320 C 0.17621 0.74551 0.17727
 C1321 C 0.17686 0.75848 0.15596
 C1322 C 0.15720 0.75838 0.14057
 H1323 H 0.05336 0.70686 0.08445
 H1324 H 0.02203 0.70652 0.05412
 H1325 H 0.01996 0.78297 0.05468
 H1326 H 0.05183 0.78354 0.08454
 H1327 H 0.12143 0.72067 0.17163
 H1328 H 0.15521 0.72159 0.19881
 H1329 H 0.19217 0.76928 0.15166
 H1330 H 0.15784 0.76889 0.12445
 C1331 C 0.55449 0.26418 0.58445
 C1332 C 0.53779 0.24571 0.58274
 C1333 C 0.52057 0.24589 0.56477
 C1334 C 0.51945 0.26475 0.54850
 C1335 C 0.53514 0.28391 0.55113
 C1336 C 0.55252 0.28362 0.56888
 C1337 C 0.57487 0.26232 0.60106
 N1338 N 0.59460 0.27583 0.59785
 N1339 N 0.61350 0.27328 0.61196
 C1340 C 0.61345 0.25711 0.62988
 N1341 N 0.59367 0.24371 0.63317
 N1342 N 0.57483 0.24617 0.61899
 C1343 C 0.63431 0.25433 0.64576
 C1344 C 0.63189 0.24263 0.66766
 C1345 C 0.65112 0.24081 0.68323
 C1346 C 0.67338 0.25034 0.67718
 C1347 C 0.67612 0.26137 0.65497
 C1348 C 0.65669 0.26353 0.63946
 H1349 H 0.53887 0.23044 0.59441
 H1350 H 0.50923 0.23056 0.56264
 H1351 H 0.53471 0.29854 0.53861
 H1352 H 0.56495 0.29823 0.56987
 H1353 H 0.61494 0.23533 0.67306
 H1354 H 0.64849 0.23208 0.70019
 H1355 H 0.69304 0.26894 0.64990
 H1356 H 0.65916 0.27249 0.62261
 C1357 C 0.91145 0.24622 0.06353
 C1358 C 0.92361 0.22581 0.05581
 C1359 C 0.94228 0.22768 0.03954
 C1360 C 0.94858 0.24987 0.03013
 C1361 C 0.93581 0.27014 0.03702
 C1362 C 0.91754 0.26837 0.05378
 C1363 C 0.89344 0.24452 0.08258
 N1364 N 0.89019 0.26274 0.09805
 N1365 N 0.87478 0.26085 0.11590
 C1366 C 0.86184 0.24075 0.11890
 N1367 N 0.86492 0.22261 0.10330
 N1368 N 0.88054 0.22439 0.08561
 C1369 C 0.84472 0.23870 0.13872
 C1370 C 0.82427 0.22464 0.13635
 C1371 C 0.80762 0.22345 0.15474
 C1372 C 0.81141 0.23578 0.17610
 C1373 C 0.83219 0.24929 0.17875
 C1374 C 0.84853 0.25099 0.16011
 H1375 H 0.91939 0.20855 0.06313
 H1376 H 0.95214 0.21190 0.03459
 H1377 H 0.94065 0.28744 0.03016
 H1378 H 0.90838 0.28436 0.05936
 H1379 H 0.82087 0.21502 0.12004
 H1380 H 0.79177 0.21285 0.15229
 H1381 H 0.83545 0.25907 0.19499
 H1382 H 0.86423 0.26184 0.16245
 C1383 C 0.40970 0.73486 0.56789
 C1384 C 0.41002 0.75388 0.55167
 C1385 C 0.42889 0.75650 0.53573
 C1386 C 0.44759 0.73992 0.53537
 C1387 C 0.44673 0.72036 0.55087
 C1388 C 0.42806 0.71790 0.56702
 C1389 C 0.39105 0.73337 0.58640
 N1390 N 0.39441 0.71984 0.60615
 N1391 N 0.37812 0.71927 0.62331
 C1392 C 0.35775 0.73216 0.62140
 N1393 N 0.35433 0.74556 0.60158
 N1394 N 0.37067 0.74624 0.58449
 C1395 C 0.33969 0.73181 0.64055
 C1396 C 0.31646 0.73989 0.63604
 C1397 C 0.29936 0.73970 0.65398
 C1398 C 0.30512 0.73173 0.67699
 C1399 C 0.32840 0.72378 0.68160
 C1400 C 0.34547 0.72365 0.66350
 H1401 H 0.39621 0.76733 0.55198
 H1402 H 0.42941 0.77209 0.52449
 H1403 H 0.46093 0.70731 0.55093
 H1404 H 0.42824 0.70293 0.57912
 H1405 H 0.31140 0.74621 0.61856
 H1406 H 0.28161 0.74603 0.64985
 H1407 H 0.33334 0.71743 0.69911
 H1408 H 0.36325 0.71739 0.66756
 C1409 C 0.24682 0.07543 0.93567
 C1410 C 0.23177 0.05609 0.93141
 C1411 C 0.23243 0.03618 0.94604
 C1412 C 0.24813 0.03483 0.96557
 C1413 C 0.26297 0.05448 0.97010
 C1414 C 0.26223 0.07458 0.95537
 C1415 C 0.24681 0.09573 0.91889
 N1416 N 0.25844 0.11625 0.92390
 N1417 N 0.25859 0.13412 0.90831
 C1418 C 0.24722 0.13213 0.88705
 N1419 N 0.23560 0.11164 0.88213
 N1420 N 0.23537 0.09388 0.89770
 C1421 C 0.24766 0.15155 0.86928
 C1422 C 0.24057 0.14710 0.84573
 C1423 C 0.24101 0.16512 0.82872
 C1424 C 0.24834 0.18813 0.83485
 C1425 C 0.25526 0.19270 0.85844
 C1426 C 0.25507 0.17453 0.87546
 H1427 H 0.21943 0.05621 0.91661
 H1428 H 0.22017 0.02188 0.94221
 H1429 H 0.27608 0.05395 0.98418
 H1430 H 0.27424 0.08913 0.95898
 H1431 H 0.23482 0.12959 0.84032
 H1432 H 0.23543 0.16101 0.81076
 H1433 H 0.26104 0.21025 0.86370
 H1434 H 0.26057 0.17854 0.89346
 C1435 C 0.74444 0.57987 0.44077
 C1436 C 0.72656 0.56250 0.44054
 C1437 C 0.72863 0.54218 0.45464
 C1438 C 0.74869 0.53872 0.46915
 C1439 C 0.76639 0.55624 0.46971
 C1440 C 0.76418 0.57673 0.45583
 C1441 C 0.74311 0.60042 0.42441
 N1442 N 0.75720 0.61971 0.42762
 N1443 N 0.75679 0.63764 0.41214
 C1444 C 0.74240 0.63691 0.39274
 N1445 N 0.72822 0.61770 0.38963
 N1446 N 0.72852 0.59987 0.40517
 C1447 C 0.74282 0.65614 0.37481
 C1448 C 0.73439 0.65196 0.35168
 C1449 C 0.73561 0.66967 0.33437
 C1450 C 0.74494 0.69211 0.33989
 C1451 C 0.75295 0.69649 0.36314
 C1452 C 0.75210 0.67860 0.38039
 H1453 H 0.71107 0.56445 0.42923
 H1454 H 0.71472 0.52894 0.45397
 H1455 H 0.78231 0.55374 0.48027
 H1456 H 0.77836 0.58969 0.45625
 H1457 H 0.72723 0.63482 0.34679
 H1458 H 0.72914 0.66580 0.31666
 H1459 H 0.76023 0.71362 0.36790
 H1460 H 0.75865 0.68237 0.39809
 C1461 C 0.75422 0.05166 0.07676
 C1462 C 0.77371 0.05211 0.06119
 C1463 C 0.77519 0.03607 0.04246
 C1464 C 0.75722 0.01926 0.03882
 C1465 C 0.73812 0.01808 0.05478
 C1466 C 0.73673 0.03407 0.07379
 C1467 C 0.75169 0.07043 0.09492
 N1468 N 0.73671 0.06789 0.11366
 N1469 N 0.73423 0.08525 0.12955
 C1470 C 0.74643 0.10591 0.12719
 N1471 N 0.76134 0.10843 0.10844
 N1472 N 0.76393 0.09105 0.09267
 C1473 C 0.74379 0.12529 0.14468
 C1474 C 0.75060 0.14856 0.13877
 C1475 C 0.74878 0.16682 0.15544
 C1476 C 0.74048 0.16212 0.17847
 C1477 C 0.73348 0.13889 0.18433
 C1478 C 0.73494 0.12070 0.16753
 H1479 H 0.78759 0.06524 0.06314
 H1480 H 0.79001 0.03725 0.03025
 H1481 H 0.72397 0.00537 0.05204
 H1482 H 0.72150 0.03333 0.08550
 H1483 H 0.75736 0.15268 0.12124
 H1484 H 0.75438 0.18452 0.15044
 H1485 H 0.72691 0.13475 0.20193
 H1486 H 0.72961 0.10295 0.17261
 C1487 C 0.24260 0.55097 0.57329
 C1488 C 0.22193 0.54409 0.56107
 C1489 C 0.22341 0.52843 0.54190
 C1490 C 0.24544 0.51889 0.53519
 C1491 C 0.26597 0.52497 0.54792
 C1492 C 0.26460 0.54110 0.56672
 C1493 C 0.24136 0.56931 0.59194
 N1494 N 0.25987 0.58431 0.59553
 N1495 N 0.25841 0.60158 0.61161
 C1496 C 0.23845 0.60438 0.62485
 N1497 N 0.22001 0.58925 0.62142
 N1498 N 0.22137 0.57214 0.60515
 C1499 C 0.23680 0.62354 0.64262
 C1500 C 0.22282 0.62059 0.66304
 C1501 C 0.22168 0.63848 0.68015
 C1502 C 0.23398 0.65988 0.67683
 C1503 C 0.24757 0.66306 0.65618
 C1504 C 0.24922 0.64490 0.63935
 H1505 H 0.20479 0.55156 0.56571
 H1506 H 0.20747 0.52403 0.53203
 H1507 H 0.28313 0.51790 0.54274
 H1508 H 0.28076 0.54606 0.57594
 H1509 H 0.21315 0.60426 0.66600
 H1510 H 0.21104 0.63566 0.69593
 H1511 H 0.25735 0.67936 0.65334
 H1512 H 0.26002 0.64764 0.62367
 C1513 C 0.76258 0.93651 0.91122
 C1514 C 0.74321 0.95222 0.91382
 C1515 C 0.74246 0.96824 0.93286
 C1516 C 0.76124 0.96903 0.94932
 C1517 C 0.78107 0.95422 0.94597
 C1518 C 0.78172 0.93812 0.92720
 C1519 C 0.76243 0.91756 0.89298
 N1520 N 0.77678 0.89826 0.89546
 N1521 N 0.77632 0.88072 0.87964
 C1522 C 0.76154 0.88176 0.86057
 N1523 N 0.74724 0.90112 0.85798
 N1524 N 0.74759 0.91862 0.87392
 C1525 C 0.76112 0.86218 0.84302
 C1526 C 0.75204 0.86594 0.82005
 C1527 C 0.75223 0.84762 0.80332
 C1528 C 0.76113 0.82502 0.80930
 C1529 C 0.76985 0.82113 0.83239
 C1530 C 0.77004 0.83958 0.84901
 H1531 H 0.72819 0.95138 0.90178
 H1532 H 0.72688 0.97931 0.93530
 H1533 H 0.79574 0.95456 0.95848
 H1534 H 0.79702 0.92651 0.92556
 H1535 H 0.74512 0.88315 0.81487
 H1536 H 0.74529 0.85114 0.78569
 H1537 H 0.77692 0.80394 0.83748
 H1538 H 0.77707 0.83609 0.86661
 C1539 C 0.26448 0.43418 0.41002
 C1540 C 0.24540 0.45038 0.41080
 C1541 C 0.24305 0.46618 0.42984
 C1542 C 0.25994 0.46636 0.44825
 C1543 C 0.27960 0.45096 0.44686
 C1544 C 0.28180 0.43499 0.42802
 C1545 C 0.26562 0.41565 0.39137
 N1546 N 0.27933 0.39597 0.39445
 N1547 N 0.27957 0.37874 0.37825
 C1548 C 0.26617 0.38051 0.35822
 N1549 N 0.25258 0.40027 0.35505
 N1550 N 0.25223 0.41743 0.37133
 C1551 C 0.26615 0.36123 0.34031
 C1552 C 0.25750 0.36549 0.31726
 C1553 C 0.25741 0.34741 0.30031
 C1554 C 0.26564 0.32451 0.30608
 C1555 C 0.27414 0.32015 0.32918
 C1556 C 0.27456 0.33838 0.34608
 H1557 H 0.23169 0.45014 0.39726
 H1558 H 0.22741 0.47739 0.43074
 H1559 H 0.29291 0.45079 0.46081
 H1560 H 0.29684 0.42293 0.42784
 H1561 H 0.25097 0.38290 0.31222
 H1562 H 0.25067 0.35136 0.28269
 H1563 H 0.28072 0.30273 0.33412
 H1564 H 0.28125 0.33450 0.36372
 C1565 C 0.24466 0.91216 0.05387
 C1566 C 0.22615 0.92891 0.05269
 C1567 C 0.22626 0.94663 0.03540
 C1568 C 0.24490 0.94808 0.01893
 C1569 C 0.26292 0.93079 0.01929
 C1570 C 0.26271 0.91282 0.03655
 C1571 C 0.24569 0.89517 0.07396
 N1572 N 0.25995 0.87568 0.07322
 N1573 N 0.26118 0.86089 0.09170
 C1574 C 0.24840 0.86512 0.11175
 N1575 N 0.23420 0.88463 0.11248
 N1576 N 0.23286 0.89931 0.09397
 C1577 C 0.24969 0.84873 0.13231
 C1578 C 0.24203 0.85603 0.15495
 C1579 C 0.24285 0.84036 0.17426
 C1580 C 0.25096 0.81696 0.17121
 C1581 C 0.25874 0.80974 0.14860
 C1582 C 0.25828 0.82549 0.12942
 H1583 H 0.21184 0.92874 0.06555
 H1584 H 0.21223 0.95987 0.03541
 H1585 H 0.27760 0.93181 0.00691
 H1586 H 0.27722 0.90013 0.03701
 H1587 H 0.23543 0.87389 0.15777
 H1588 H 0.23669 0.84642 0.19144
 H1589 H 0.26523 0.79185 0.14569
 H1590 H 0.26427 0.81930 0.11222
 C1591 C 0.75766 0.41425 0.55540
 C1592 C 0.77783 0.42869 0.55302
 C1593 C 0.77864 0.44628 0.53556
 C1594 C 0.75924 0.44993 0.52022
 C1595 C 0.73965 0.43461 0.52159
 C1596 C 0.73894 0.41679 0.53894
 C1597 C 0.75556 0.39790 0.57591
 N1598 N 0.73886 0.38054 0.57621
 N1599 N 0.73650 0.36646 0.59509
 C1600 C 0.75053 0.36932 0.61457
 N1601 N 0.76718 0.38671 0.61429
 N1602 N 0.76964 0.40069 0.59536
 C1603 C 0.74818 0.35337 0.63537
 C1604 C 0.75801 0.35949 0.65756
 C1605 C 0.75670 0.34375 0.67681
 C1606 C 0.74594 0.32148 0.67406
 C1607 C 0.73565 0.31565 0.65205
 C1608 C 0.73659 0.33147 0.63299
 H1609 H 0.79269 0.42696 0.56518
 H1610 H 0.79396 0.45786 0.53477
 H1611 H 0.72433 0.43730 0.51020
 H1612 H 0.72317 0.40589 0.54028
 H1613 H 0.76690 0.37634 0.65998
 H1614 H 0.76481 0.34866 0.69357
 H1615 H 0.72708 0.29866 0.64945
 H1616 H 0.72881 0.32622 0.61619
 C1617 C 0.06421 0.08816 0.75535
 C1618 C 0.04765 0.08537 0.77386
 C1619 C 0.03153 0.06645 0.77359
 C1620 C 0.03143 0.05024 0.75463
 C1621 C 0.04724 0.05371 0.73567
 C1622 C 0.06349 0.07237 0.73606
 C1623 C 0.08297 0.10655 0.75658
 N1624 N 0.10289 0.10449 0.74311
 N1625 N 0.12023 0.12046 0.74462
 C1626 C 0.11838 0.13925 0.75959
 N1627 N 0.09839 0.14142 0.77298
 N1628 N 0.08109 0.12533 0.77160
 C1629 C 0.13779 0.15692 0.76117
 C1630 C 0.13356 0.17966 0.77053
 C1631 C 0.15176 0.19651 0.77127
 C1632 C 0.17470 0.19086 0.76304
 C1633 C 0.17904 0.16796 0.75416
 C1634 C 0.16075 0.15125 0.75305
 H1635 H 0.04778 0.09722 0.78899
 H1636 H 0.01974 0.06397 0.78858
 H1637 H 0.04743 0.04152 0.72079
 H1638 H 0.07580 0.07417 0.72139
 H1639 H 0.11606 0.18457 0.77690
 H1640 H 0.14789 0.21397 0.77835
 H1641 H 0.19649 0.16308 0.74762
 H1642 H 0.16463 0.13383 0.74589
 C1643 C 0.56581 0.58838 0.26403
 C1644 C 0.55855 0.57658 0.28480
 C1645 C 0.54265 0.55757 0.28354
 C1646 C 0.53404 0.54988 0.26148
 C1647 C 0.54108 0.56169 0.24072
 C1648 C 0.55654 0.58104 0.24201
 C1649 C 0.58382 0.60746 0.26517
 N1650 N 0.58504 0.62430 0.24792
 N1651 N 0.60178 0.64099 0.24858
 C1652 C 0.61815 0.64134 0.26637
 N1653 N 0.61693 0.62449 0.28362
 N1654 N 0.60005 0.60796 0.28308
 C1655 C 0.63715 0.65946 0.26673
 C1656 C 0.65901 0.65473 0.27797
 C1657 C 0.67719 0.67163 0.27776
 C1658 C 0.67367 0.69379 0.26681
 C1659 C 0.65169 0.69865 0.25588
 C1660 C 0.63371 0.68155 0.25560
 H1661 H 0.56536 0.58189 0.30200
 H1662 H 0.53763 0.54837 0.29968
 H1663 H 0.53495 0.55562 0.22352
 H1664 H 0.56199 0.58966 0.22569
 H1665 H 0.66220 0.63781 0.28659
 H1666 H 0.69392 0.66746 0.28642
 H1667 H 0.64852 0.71557 0.24723
 H1668 H 0.61702 0.68571 0.24687
 C1669 C 0.08900 0.94458 0.25243
 C1670 C 0.08518 0.96011 0.23315
 C1671 C 0.06757 0.97776 0.23440
 C1672 C 0.05385 0.98026 0.25506
 C1673 C 0.05886 0.96587 0.27482
 C1674 C 0.07621 0.94820 0.27352
 C1675 C 0.10482 0.92361 0.25022
 N1676 N 0.10236 0.90492 0.26529
 N1677 N 0.11589 0.88561 0.26307
 C1678 C 0.13251 0.88419 0.24568
 N1679 N 0.13504 0.90290 0.23060
 N1680 N 0.12136 0.92217 0.23272
 C1681 C 0.14806 0.86301 0.24379
 C1682 C 0.16986 0.86442 0.23177
 C1683 C 0.18545 0.84509 0.23160
 C1684 C 0.17944 0.82376 0.24308
 C1685 C 0.15721 0.82191 0.25421
 C1686 C 0.14175 0.84145 0.25476
 H1687 H 0.09482 0.95779 0.21667
 H1688 H 0.06373 0.98851 0.21888
 H1689 H 0.04835 0.96748 0.29086
 H1690 H 0.07895 0.93679 0.28880
 H1691 H 0.17525 0.88073 0.22314
 H1692 H 0.20241 0.84695 0.22271
 H1693 H 0.15217 0.80570 0.26323
 H1694 H 0.12496 0.83976 0.26400
 C1695 C 0.58424 0.44330 0.74552
 C1696 C 0.57656 0.45334 0.72392
 C1697 C 0.55914 0.47109 0.72372
 C1698 C 0.54970 0.47963 0.74511
 C1699 C 0.55822 0.47058 0.76673
 C1700 C 0.57529 0.45246 0.76695
 C1701 C 0.60030 0.42242 0.74554
 N1702 N 0.60037 0.40688 0.76404
 N1703 N 0.61405 0.38751 0.76360
 C1704 C 0.62829 0.38295 0.74467
 N1705 N 0.62829 0.39856 0.72623
 N1706 N 0.61446 0.41780 0.72658
 C1707 C 0.64407 0.36187 0.74435
 C1708 C 0.66469 0.36203 0.73033
 C1709 C 0.68045 0.34288 0.73087
 C1710 C 0.67573 0.32290 0.74505
 C1711 C 0.65469 0.32222 0.75839
 C1712 C 0.63910 0.34171 0.75828
 H1713 H 0.58303 0.44657 0.70712
 H1714 H 0.55225 0.47745 0.70688
 H1715 H 0.55067 0.47661 0.78337
 H1716 H 0.58097 0.44515 0.78385
 H1717 H 0.66903 0.37727 0.71944
 H1718 H 0.69651 0.34375 0.72030
 H1719 H 0.65076 0.30702 0.76952
 H1720 H 0.62323 0.34106 0.76912
 C1721 C 0.92361 0.06040 0.25590
 C1722 C 0.94098 0.06248 0.27376
 C1723 C 0.96080 0.04758 0.27397
 C1724 C 0.96379 0.03028 0.25633
 C1725 C 0.94624 0.02766 0.23875
 C1726 C 0.92617 0.04251 0.23864
 C1727 C 0.90374 0.07771 0.25487
 N1728 N 0.88406 0.07369 0.24140
 N1729 N 0.86660 0.08975 0.24028
 C1730 C 0.86822 0.11055 0.25242
 N1731 N 0.88788 0.11450 0.26584
 N1732 N 0.90522 0.09843 0.26708
 C1733 C 0.84920 0.12876 0.25104
 C1734 C 0.85402 0.15228 0.25774
 C1735 C 0.83623 0.16959 0.25687
 C1736 C 0.81307 0.16374 0.24959
 C1737 C 0.80820 0.14021 0.24282
 C1738 C 0.82615 0.12292 0.24336
 H1739 H 0.93947 0.07590 0.28744
 H1740 H 0.97415 0.04985 0.28769
 H1741 H 0.94838 0.01457 0.22483
 H1742 H 0.91312 0.04052 0.22462
 H1743 H 0.87162 0.15741 0.26360
 H1744 H 0.84055 0.18752 0.26227
 H1745 H 0.79054 0.13520 0.23701
 H1746 H 0.82190 0.10494 0.23812
 C1747 C 0.41940 0.55981 0.75180
 C1748 C 0.43716 0.56170 0.76932
 C1749 C 0.45761 0.54765 0.76827
 C1750 C 0.46088 0.53144 0.74964
 C1751 C 0.44301 0.52920 0.73229
 C1752 C 0.42238 0.54314 0.73345
 C1753 C 0.39855 0.57599 0.75228
 N1754 N 0.37922 0.57216 0.73824
 N1755 N 0.36095 0.58734 0.73825
 C1756 C 0.36135 0.60704 0.75218
 N1757 N 0.38062 0.61074 0.76626
 N1758 N 0.39877 0.59554 0.76635
 C1759 C 0.34171 0.62464 0.75164
 C1760 C 0.34556 0.64768 0.76030
 C1761 C 0.32747 0.66465 0.75958
 C1762 C 0.30492 0.65897 0.75047
 C1763 C 0.30087 0.63584 0.74203
 C1764 C 0.31918 0.61887 0.74242
 H1765 H 0.43538 0.57422 0.78381
 H1766 H 0.47105 0.54959 0.78194
 H1767 H 0.44527 0.51704 0.71756
 H1768 H 0.40909 0.54134 0.71962
 H1769 H 0.36271 0.65277 0.76741
 H1770 H 0.33115 0.68226 0.76635
 H1771 H 0.28368 0.63098 0.73484
 H1772 H 0.31567 0.60124 0.73566
 C1773 C 0.94563 0.92459 0.75725
 C1774 C 0.94602 0.93945 0.77728
 C1775 C 0.96229 0.95804 0.77878
 C1776 C 0.97837 0.96232 0.76021
 C1777 C 0.97859 0.94697 0.74056
 C1778 C 0.96251 0.92813 0.73920
 C1779 C 0.92683 0.90645 0.75466
 N1780 N 0.92905 0.88853 0.73869
 N1781 N 0.91168 0.87274 0.73584
 C1782 C 0.89129 0.87439 0.74867
 N1783 N 0.88908 0.89231 0.76462
 N1784 N 0.90651 0.90799 0.76758
 C1785 C 0.87194 0.85695 0.74544
 C1786 C 0.84871 0.86212 0.75315
 C1787 C 0.83054 0.84544 0.75050
 C1788 C 0.83534 0.82312 0.74045
 C1789 C 0.85851 0.81804 0.73259
 C1790 C 0.87657 0.83485 0.73488
 H1791 H 0.93342 0.93702 0.79160
 H1792 H 0.96184 0.96961 0.79414
 H1793 H 0.99052 0.95015 0.72582
 H1794 H 0.96260 0.91702 0.72351
 H1795 H 0.84457 0.87907 0.76123
 H1796 H 0.81288 0.84978 0.75685
 H1797 H 0.86272 0.80101 0.72470
 H1798 H 0.89428 0.83033 0.72880
 C1799 C 0.44763 0.42502 0.25410
 C1800 C 0.44755 0.43955 0.27437
 C1801 C 0.46391 0.45796 0.27667
 C1802 C 0.48060 0.46239 0.25869
 C1803 C 0.48135 0.44735 0.23882
 C1804 C 0.46511 0.42868 0.23663
 C1805 C 0.42872 0.40710 0.25076
 N1806 N 0.43106 0.38940 0.23455
 N1807 N 0.41365 0.37374 0.23125
 C1808 C 0.39309 0.37529 0.24384
 N1809 N 0.39076 0.39302 0.25999
 N1810 N 0.40821 0.40856 0.26340
 C1811 C 0.37372 0.35792 0.24030
 C1812 C 0.35051 0.36299 0.24811
 C1813 C 0.33236 0.34628 0.24544
 C1814 C 0.33715 0.32404 0.23524
 C1815 C 0.36030 0.31908 0.22719
 C1816 C 0.37834 0.33591 0.22952
 H1817 H 0.43452 0.43701 0.28828
 H1818 H 0.46307 0.46927 0.29220
 H1819 H 0.49384 0.45064 0.22457
 H1820 H 0.46559 0.41780 0.22079
 H1821 H 0.34636 0.37985 0.25637
 H1822 H 0.31474 0.35055 0.25194
 H1823 H 0.36451 0.30211 0.21919
 H1824 H 0.39603 0.33147 0.22336
   
