data_POSCAR
  _audit_creation_date              2014-09-24
  _audit_creation_method            'ToBaCCo'
  _symmetry_space_group_name_H-M    'P1'
  _symmetry_Int_Tables_number       1
  _symmetry_cell_setting            triclinic
  loop_
  _symmetry_equiv_pos_as_xyz
 x,y,z
_cell_length_a 52.2562
_cell_length_b 46.3231
_cell_length_c 49.2568
_cell_angle_alpha 90.245700
_cell_angle_beta 89.962000
_cell_angle_gamma 90.279700
loop_
  _atom_site_label
  _atom_site_type_symbol
  _atom_site_fract_x
  _atom_site_fract_y
  _atom_site_fract_z
O1 O 0.36008 0.33370 -0.01733
 O2 O 0.31406 0.34898 0.03765
 O3 O 0.35351 0.31393 0.03272
 O4 O 0.32273 0.36847 -0.00989
 O5 O 0.29742 0.33524 -0.02777
 O6 O 0.32697 0.28084 0.01679
 O7 O 0.28787 0.31625 0.02041
 O8 O 0.33477 0.29902 -0.03272
 Cu9 Cu 0.34048 0.34421 0.01273
 Cu10 Cu 0.30926 0.30427 -0.00726
 C11 C 0.35493 0.31422 -0.03478
 C12 C 0.29249 0.33617 0.03752
 C13 C 0.34546 0.28804 0.03220
 C14 C 0.30487 0.36141 -0.02614
 O15 O 0.67797 0.62819 0.01015
 O16 O 0.63979 0.65493 -0.04709
 O17 O 0.68367 0.63031 -0.04181
 O18 O 0.63336 0.65250 0.00568
 O19 O 0.65057 0.69597 0.00894
 O20 O 0.70298 0.67229 -0.03605
 O21 O 0.65845 0.69761 -0.04321
 O22 O 0.69446 0.67180 0.01606
 Cu23 Cu 0.65671 0.63727 -0.01870
 Cu24 Cu 0.67846 0.68879 -0.01334
 C25 C 0.69253 0.64552 0.02299
 C26 C 0.64282 0.68073 -0.05511
 C27 C 0.70235 0.64715 -0.04659
 C28 C 0.63335 0.67788 0.01555
 O29 O 0.63464 0.34468 1.03740
 O30 O 0.67752 0.37155 0.98375
 O31 O 0.63188 0.34974 0.98471
 O32 O 0.67978 0.36797 1.03614
 O33 O 0.69814 0.32572 1.03000
 O34 O 0.64717 0.30550 0.98148
 O35 O 0.69223 0.32734 0.97749
 O36 O 0.65231 0.30166 1.03374
 Cu37 Cu 0.65421 0.36280 1.01105
 Cu38 Cu 0.67419 0.31060 1.00556
 C39 C 0.63624 0.31850 1.04474
 C40 C 0.69170 0.35381 0.97107
 C41 C 0.63133 0.32469 0.97418
 C42 C 0.69770 0.35046 1.04135
 O43 O 0.34986 0.67686 1.03910
 O44 O 0.32309 0.63571 0.98144
 O45 O 0.36124 0.66958 0.98792
 O46 O 0.31098 0.64099 1.03287
 O47 O 0.28593 0.67712 1.02166
 O48 O 0.33703 0.70692 0.97769
 O49 O 0.29818 0.67250 0.97111
 O50 O 0.32462 0.71325 1.02897
 Cu51 Cu 0.33869 0.65214 1.01172
 Cu52 Cu 0.30900 0.69628 0.99915
 C53 C 0.34204 0.70235 1.04363
 C54 C 0.30646 0.64730 0.96621
 C55 C 0.35755 0.69260 0.97460
 C56 C 0.28948 0.65361 1.03436
 O57 O 0.00949 0.31616 0.36322
 O58 O -0.02431 0.36115 0.31256
 O59 O -0.03857 0.33058 0.35391
 O60 O 0.02319 0.35114 0.32483
 O61 O 0.02058 0.31507 0.29542
 O62 O -0.03988 0.29110 0.32881
 O63 O -0.02751 0.32280 0.28594
 O64 O 0.00786 0.27943 0.33447
 Cu65 Cu -0.00743 0.34340 0.34151
 Cu66 Cu -0.01004 0.29842 0.30837
 C67 C 0.01445 0.29003 0.35713
 C68 C -0.03130 0.34939 0.29036
 C69 C -0.04966 0.30724 0.34706
 C70 C 0.03214 0.33725 0.30480
 O71 O 0.01444 0.69645 0.65190
 O72 O -0.02458 0.65326 0.69947
 O73 O -0.03384 0.69419 0.66400
 O74 O 0.02297 0.65332 0.68349
 O75 O 0.03082 0.68404 0.71693
 O76 O -0.02523 0.72688 0.69536
 O77 O -0.01691 0.68564 0.73146
 O78 O 0.02241 0.72767 0.68498
 Cu79 Cu -0.00626 0.67105 0.67157
 Cu80 Cu 0.00335 0.70904 0.71066
 C81 C 0.02480 0.71964 0.66051
 C82 C -0.02685 0.66197 0.72387
 C83 C -0.03851 0.71834 0.67516
 C84 C 0.03662 0.66156 0.70334
 O85 O 0.97212 0.66172 0.36720
 O86 O 1.02222 0.63591 0.32116
 O87 O 1.02260 0.65924 0.36897
 O88 O 0.97331 0.64047 0.31833
 O89 O 0.97794 0.68351 0.29987
 O90 O 1.02435 0.70344 0.35272
 O91 O 1.02739 0.68003 0.30512
 O92 O 0.97437 0.70518 0.34921
 Cu93 Cu 0.99711 0.64510 0.34594
 Cu94 Cu 1.00118 0.69750 0.32508
 C95 C 0.96418 0.68751 0.36577
 C96 C 1.03354 0.65349 0.30550
 C97 C 1.03227 0.68451 0.36922
 C98 C 0.96784 0.65854 0.29991
 O99 O 1.03452 0.35352 0.68788
 O100 O 0.98552 0.33067 0.63924
 O101 O 0.98516 0.35207 0.68799
 O102 O 1.03576 0.33068 0.64012
 O103 O 1.03547 0.28679 0.65716
 O104 O 0.98521 0.30829 0.70552
 O105 O 0.98516 0.28672 0.65629
 O106 O 1.03435 0.31006 0.70617
 Cu107 Cu 1.01019 0.34597 0.66182
 Cu108 Cu 1.01014 0.29342 0.68280
 C109 C 1.04241 0.33603 0.70570
 C110 C 0.97659 0.30515 0.63957
 C111 C 0.97696 0.33403 0.70535
 C112 C 1.04454 0.30514 0.64059
 O113 O 0.35251 0.01972 0.31557
 O114 O 0.33043 -0.03391 0.36540
 O115 O 0.36710 -0.03025 0.33117
 O116 O 0.31524 0.01820 0.35213
 O117 O 0.28958 -0.00155 0.32166
 O118 O 0.34209 -0.04916 0.29951
 O119 O 0.30481 -0.05286 0.33435
 O120 O 0.32658 0.00076 0.28490
 Cu121 Cu 0.34356 -0.00418 0.34428
 Cu122 Cu 0.31302 -0.02739 0.30702
 C123 C 0.34431 0.01830 0.29130
 C124 C 0.31415 -0.05287 0.35812
 C125 C 0.36356 -0.04774 0.31161
 C126 C 0.29336 0.01608 0.34111
 O127 O 0.64855 0.04334 0.69009
 O128 O 0.68654 -0.01102 0.65165
 O129 O 0.64386 -0.01245 0.67993
 O130 O 0.68869 0.04405 0.65863
 O131 O 0.71319 0.03486 0.69402
 O132 O 0.66603 -0.02009 0.71729
 O133 O 0.70865 -0.01959 0.68895
 O134 O 0.67293 0.03526 0.72572
 Cu135 Cu 0.66427 0.01664 0.66662
 Cu136 Cu 0.69224 0.00681 0.71031
 C137 C 0.65482 0.04885 0.71456
 C138 C 0.70486 -0.02357 0.66381
 C139 C 0.64703 -0.02592 0.70202
 C140 C 0.70915 0.04829 0.67192
 O141 O 0.35494 0.97266 0.68042
 O142 O 0.33148 1.02521 0.63053
 O143 O 0.36716 1.02509 0.66616
 O144 O 0.31831 0.97290 0.64379
 O145 O 0.29138 0.99040 0.67414
 O146 O 0.34055 1.04205 0.69718
 O147 O 0.30433 1.04223 0.66100
 O148 O 0.32807 0.98992 0.71092
 Cu149 Cu 0.34565 0.99690 0.65226
 Cu150 Cu 0.31337 1.01765 0.68899
 C151 C 0.34597 0.97278 0.70440
 C152 C 0.31398 1.04276 0.63732
 C153 C 0.36208 1.04270 0.68521
 C154 C 0.29621 0.97340 0.65452
 O155 O 0.66305 1.01906 0.36640
 O156 O 0.63930 0.96336 0.31895
 O157 O 0.66442 0.96260 0.36418
 O158 O 0.63673 1.01943 0.32130
 O159 O 0.67316 1.02248 0.29887
 O160 O 0.70089 0.96544 0.34167
 O161 O 0.67550 0.96638 0.29606
 O162 O 0.69968 1.02123 0.34432
 Cu163 Cu 0.64730 0.99096 0.34506
 Cu164 Cu 0.69090 0.99428 0.31791
 C165 C 0.68551 1.02944 0.36383
 C166 C 0.65338 0.95537 0.29929
 C167 C 0.68722 0.95419 0.36020
 C168 C 0.65013 1.03043 0.30245
 O169 O 0.82073 0.86416 0.52838
 O170 O 0.85127 0.81358 0.48088
 O171 O 0.81219 0.84984 0.47820
 O172 O 0.85715 0.82832 0.53221
 O173 O 0.83061 0.79341 0.54441
 O174 O 0.78566 0.81538 0.49112
 O175 O 0.82447 0.77935 0.49367
 O176 O 0.79343 0.83021 0.54118
 Cu177 Cu 0.83809 0.84221 0.50316
 Cu178 Cu 0.80586 0.80104 0.51858
 C179 C 0.80232 0.85572 0.54321
 C180 C 0.84349 0.78761 0.47954
 C181 C 0.79077 0.83685 0.47612
 C182 C 0.85116 0.80765 0.54791
 O183 O 0.18883 0.14247 0.51997
 O184 O 0.13590 0.16482 0.47628
 O185 O 0.17344 0.12893 0.47094
 O186 O 0.15141 0.17960 0.52390
 O187 O 0.17602 0.21362 0.50642
 O188 O 0.19827 0.16304 0.45385
 O189 O 0.15998 0.19938 0.45884
 O190 O 0.21363 0.17624 0.50234
 Cu191 Cu 0.16012 0.15043 0.49962
 Cu192 Cu 0.18953 0.19145 0.47865
 C193 C 0.21034 0.15518 0.51845
 C194 C 0.13862 0.18623 0.46054
 C195 C 0.18966 0.13738 0.45341
 C196 C 0.15932 0.20559 0.52359
 O197 O 0.14170 0.82487 0.52068
 O198 O 0.19309 0.84151 0.47281
 O199 O 0.15349 0.80609 0.47318
 O200 O 0.18032 0.85841 0.52176
 O201 O 0.20464 0.82429 0.53923
 O202 O 0.17750 0.77182 0.49066
 O203 O 0.21734 0.80773 0.49078
 O204 O 0.16517 0.79006 0.53829
 Cu205 Cu 0.16502 0.83619 0.49488
 Cu206 Cu 0.19373 0.79493 0.51624
 C207 C 0.14467 0.80470 0.53769
 C208 C 0.21420 0.82820 0.47407
 C209 C 0.16001 0.77975 0.47447
 C210 C 0.19660 0.85011 0.53916
 O211 O 0.80752 0.14911 0.47712
 O212 O 0.85369 0.19212 0.51840
 O213 O 0.82169 0.15030 0.52847
 O214 O 0.84158 0.19036 0.46719
 O215 O 0.81158 0.22253 0.47556
 O216 O 0.79125 0.18218 0.53627
 O217 O 0.82325 0.22407 0.52599
 O218 O 0.77781 0.18155 0.48584
 Cu219 Cu 0.83399 0.16707 0.49682
 Cu220 Cu 0.79790 0.20566 0.50655
 C221 C 0.78455 0.15788 0.47507
 C222 C 0.84620 0.21582 0.52882
 C223 C 0.80320 0.15944 0.54285
 C224 C 0.83064 0.21404 0.46164
 O225 O 0.52565 0.80947 0.84360
 O226 O 0.47200 0.85588 0.82344
 O227 O 0.47732 0.81145 0.85535
 O228 O 0.52128 0.85436 0.81175
 O229 O 0.51253 0.82517 0.77748
 O230 O 0.46990 0.78221 0.82065
 O231 O 0.46398 0.82698 0.78870
 O232 O 0.51754 0.78054 0.80892
 Cu233 Cu 0.49988 0.83592 0.83688
 Cu234 Cu 0.49008 0.80102 0.79539
 C235 C 0.53036 0.78667 0.83010
 C236 C 0.45882 0.84932 0.80264
 C237 C 0.46683 0.78891 0.84546
 C238 C 0.52436 0.84694 0.78706
 O239 O 0.52217 0.17812 0.14053
 O240 O 0.47997 0.12143 0.16816
 O241 O 0.47473 0.16254 0.13442
 O242 O 0.52932 0.13384 0.17180
 O243 O 0.51984 0.16084 0.20745
 O244 O 0.46563 0.19194 0.16850
 O245 O 0.47081 0.14989 0.20287
 O246 O 0.51338 0.20577 0.17589
 Cu247 Cu 0.50272 0.14604 0.15042
 Cu248 Cu 0.49162 0.17987 0.19226
 C249 C 0.52472 0.20181 0.15343
 C250 C 0.46747 0.12655 0.18980
 C251 C 0.46079 0.18190 0.14493
 C252 C 0.53406 0.14233 0.19577
 O253 O 0.46619 0.21271 0.83643
 O254 O 0.52234 0.17269 0.81354
 O255 O 0.51454 0.21518 0.84647
 O256 O 0.47376 0.17144 0.80066
 O257 O 0.47995 0.20352 0.76827
 O258 O 0.52085 0.24635 0.81325
 O259 O 0.52842 0.20340 0.77990
 O260 O 0.47284 0.24531 0.80459
 Cu261 Cu 0.49341 0.18963 0.82737
 Cu262 Cu 0.50091 0.22763 0.78798
 C263 C 0.46079 0.23665 0.82552
 C264 C 0.53509 0.18118 0.79316
 C265 C 0.52428 0.23855 0.83763
 C266 C 0.47036 0.17992 0.77642
 O267 O 0.47487 0.81542 0.14931
 O268 O 0.53612 0.84115 0.17553
 O269 O 0.52318 0.79885 0.14098
 O270 O 0.48879 0.84662 0.18907
 O271 O 0.49017 0.81182 0.21963
 O272 O 0.52440 0.76518 0.17253
 O273 O 0.53655 0.80653 0.20628
 O274 O 0.47533 0.77880 0.17788
 Cu275 Cu 0.50623 0.82824 0.16036
 Cu276 Cu 0.50616 0.78703 0.19641
 C277 C 0.46452 0.79295 0.15898
 C278 C 0.54642 0.82909 0.19576
 C279 C 0.52935 0.77359 0.14867
 C280 C 0.48377 0.83708 0.21274
 O281 O 0.82838 0.46120 0.87132
 O282 O 0.87767 0.50980 0.84455
 O283 O 0.83677 0.51624 0.87199
 O284 O 0.87064 0.45376 0.84332
 O285 O 0.85061 0.45978 0.80430
 O286 O 0.81298 0.51852 0.83494
 O287 O 0.85508 0.51543 0.80708
 O288 O 0.80801 0.46246 0.83205
 Cu289 Cu 0.85565 0.48446 0.86159
 Cu290 Cu 0.82940 0.48931 0.81573
 C291 C 0.80985 0.45349 0.85628
 C292 C 0.87433 0.52177 0.82170
 C293 C 0.81905 0.52789 0.85835
 C294 C 0.86693 0.44663 0.81870
 O295 O 0.13207 0.52155 0.18145
 O296 O 0.16158 0.46416 0.14035
 O297 O 0.13324 0.46568 0.18341
 O298 O 0.16041 0.52098 0.13781
 O299 O 0.19602 0.52208 0.16190
 O300 O 0.16766 0.46913 0.20914
 O301 O 0.19634 0.46632 0.16574
 O302 O 0.16772 0.52579 0.20523
 Cu303 Cu 0.14342 0.49291 0.15810
 Cu304 Cu 0.18537 0.49604 0.18813
 C305 C 0.14498 0.53366 0.20015
 C306 C 0.18381 0.45515 0.14625
 C307 C 0.14579 0.45806 0.20424
 C308 C 0.18282 0.53088 0.14197
 O309 O 0.82290 0.53401 0.12748
 O310 O 0.87123 0.48649 0.15733
 O311 O 0.83113 0.47869 0.12828
 O312 O 0.86407 0.54215 0.15702
 O313 O 0.84239 0.53691 0.19520
 O314 O 0.80610 0.47693 0.16445
 O315 O 0.84738 0.48162 0.19407
 O316 O 0.80102 0.53314 0.16586
 Cu317 Cu 0.84964 0.51093 0.13875
 Cu318 Cu 0.82174 0.50683 0.18360
 C319 C 0.80389 0.54195 0.14167
 C320 C 0.86734 0.47549 0.18054
 C321 C 0.81294 0.46715 0.14145
 C322 C 0.85943 0.54975 0.18133
 O323 O 0.18662 0.53867 0.84773
 O324 O 0.14521 0.47729 0.82789
 O325 O 0.18338 0.48635 0.86142
 O326 O 0.14811 0.53262 0.81408
 O327 O 0.17566 0.52186 0.78170
 O328 O 0.20962 0.47336 0.82833
 O329 O 0.17142 0.46730 0.79399
 O330 O 0.21399 0.52626 0.81562
 Cu331 Cu 0.16263 0.50979 0.84075
 Cu332 Cu 0.19507 0.49595 0.80139
 C333 C 0.20818 0.54172 0.83606
 C334 C 0.15127 0.46192 0.80745
 C335 C 0.20315 0.47317 0.85318
 C336 C 0.15614 0.53561 0.78991
 C337 C 0.25565 0.38018 0.08889
 C338 C 0.23139 0.36929 0.08504
 C339 C 0.22624 0.34618 0.06778
 C340 C 0.24685 0.33425 0.05338
 C341 C 0.27198 0.34575 0.05620
 C342 C 0.27642 0.36870 0.07474
 O343 O 0.25626 0.40305 0.10522
 C344 C 0.23182 0.40680 0.11165
 C345 C 0.21580 0.38683 0.09970
 C346 C 0.18930 0.38800 0.10215
 C347 C 0.17892 0.41067 0.11756
 C348 C 0.19507 0.43133 0.13036
 C349 C 0.22194 0.42916 0.12751
 H350 H 0.20695 0.33813 0.06492
 H351 H 0.24297 0.31685 0.03920
 H352 H 0.29522 0.37831 0.07711
 H353 H 0.17704 0.37234 0.09215
 H354 H 0.15832 0.41209 0.11959
 H355 H 0.23471 0.44492 0.13662
 C356 C 0.73564 0.59986 0.06593
 C357 C 0.73539 0.61514 0.08996
 C358 C 0.72179 0.64069 0.09323
 C359 C 0.70788 0.65082 0.07082
 C360 C 0.70739 0.63496 0.04615
 C361 C 0.72138 0.60907 0.04373
 O362 O 0.75064 0.57686 0.06661
 C363 C 0.75993 0.57748 0.09165
 C364 C 0.75098 0.60024 0.10693
 C365 C 0.75799 0.60459 0.13391
 C366 C 0.77501 0.58475 0.14551
 C367 C 0.78505 0.56169 0.12983
 C368 C 0.77735 0.55802 0.10254
 H369 H 0.72210 0.65255 0.11221
 H370 H 0.69722 0.67071 0.07273
 H371 H 0.72156 0.59685 0.02493
 H372 H 0.75060 0.62255 0.14559
 H373 H 0.78087 0.58771 0.16643
 H374 H 0.78461 0.54044 0.09024
 C375 C 0.73728 0.39820 0.92943
 C376 C 0.73765 0.38251 0.90562
 C377 C 0.72362 0.35718 0.90210
 C378 C 0.70864 0.34768 0.92403
 C379 C 0.70758 0.36393 0.94846
 C380 C 0.72198 0.38962 0.95113
 O381 O 0.75282 0.42089 0.92910
 C382 C 0.76311 0.41962 0.90451
 C383 C 0.75427 0.39677 0.88917
 C384 C 0.76232 0.39177 0.86262
 C385 C 0.78032 0.41105 0.85154
 C386 C 0.79020 0.43416 0.86736
 C387 C 0.78142 0.43850 0.89418
 H388 H 0.72443 0.34499 0.88333
 H389 H 0.69763 0.32793 0.92193
 H390 H 0.72173 0.40212 0.96976
 H391 H 0.75501 0.37374 0.85087
 H392 H 0.78702 0.40764 0.83096
 H393 H 0.78854 0.45618 0.90655
 C394 C 0.26273 0.61505 0.91334
 C395 C 0.28036 0.60259 0.89621
 C396 C 0.30657 0.60352 0.90115
 C397 C 0.31494 0.61803 0.92461
 C398 C 0.29716 0.63162 0.94217
 C399 C 0.27070 0.63030 0.93636
 O400 O 0.23869 0.60964 0.90617
 C401 C 0.24119 0.59352 0.88398
 C402 C 0.26630 0.58891 0.87684
 C403 C 0.27333 0.57176 0.85490
 C404 C 0.25373 0.55808 0.84018
 C405 C 0.22768 0.56129 0.84790
 C406 C 0.22138 0.57990 0.86978
 H407 H 0.32004 0.59302 0.88769
 H408 H 0.33525 0.61902 0.92897
 H409 H 0.25677 0.64011 0.94977
 H410 H 0.29324 0.56830 0.84980
 H411 H 0.25902 0.54369 0.82375
 H412 H 0.20179 0.58246 0.87651
 C413 C 0.06498 0.25737 0.40166
 C414 C 0.05437 0.23047 0.40571
 C415 C 0.03034 0.22266 0.39604
 C416 C 0.01692 0.24320 0.38099
 C417 C 0.02748 0.27098 0.37631
 C418 C 0.05166 0.27842 0.38720
 O419 O 0.08856 0.25976 0.41155
 C420 C 0.09284 0.23383 0.42202
 C421 C 0.07247 0.21520 0.41901
 C422 C 0.07282 0.18688 0.42812
 C423 C 0.09498 0.17743 0.44130
 C424 C 0.11630 0.19618 0.44486
 C425 C 0.11525 0.22477 0.43481
 H426 H 0.02255 0.20126 0.39927
 H427 H -0.00148 0.23731 0.37242
 H428 H 0.06036 0.29924 0.38321
 H429 H 0.05656 0.17262 0.42534
 H430 H 0.09546 0.15551 0.44884
 H431 H 0.13111 0.23966 0.43740
 C432 C 0.07242 0.74607 0.60915
 C433 C 0.06704 0.77514 0.60949
 C434 C 0.04797 0.78710 0.62558
 C435 C 0.03402 0.76833 0.64222
 C436 C 0.03904 0.73829 0.64199
 C437 C 0.05829 0.72689 0.62501
 O438 O 0.09206 0.73942 0.59327
 C439 C 0.09913 0.76482 0.58333
 C440 C 0.08428 0.78730 0.59246
 C441 C 0.08815 0.81573 0.58450
 C442 C 0.10814 0.82119 0.56625
 C443 C 0.12396 0.79843 0.55689
 C444 C 0.11945 0.76985 0.56565
 H445 H 0.04430 0.81007 0.62567
 H446 H 0.01926 0.77710 0.65529
 H447 H 0.06268 0.70406 0.62491
 H448 H 0.07616 0.83302 0.59196
 H449 H 0.11152 0.84316 0.55965
 H450 H 0.13114 0.75209 0.55858
 C451 C 0.91743 0.73319 0.40596
 C452 C 0.90195 0.71198 0.41664
 C453 C 0.90577 0.68279 0.41158
 C454 C 0.92639 0.67511 0.39484
 C455 C 0.94261 0.69651 0.38333
 C456 C 0.93790 0.72605 0.38891
 O457 O 0.91099 0.75955 0.41416
 C458 C 0.89101 0.75482 0.43029
 C459 C 0.88464 0.72609 0.43235
 C460 C 0.86461 0.71622 0.44848
 C461 C 0.85071 0.73677 0.46335
 C462 C 0.85712 0.76657 0.46204
 C463 C 0.87751 0.77565 0.44500
 H464 H 0.89345 0.66649 0.42039
 H465 H 0.92960 0.65243 0.39074
 H466 H 0.95004 0.74288 0.38067
 H467 H 0.86002 0.69346 0.44982
 H468 H 0.83531 0.72934 0.47631
 H469 H 0.88304 0.79814 0.44360
 C470 C 0.92905 0.26291 0.59656
 C471 C 0.91507 0.28532 0.58606
 C472 C 0.92036 0.31409 0.59177
 C473 C 0.94092 0.32016 0.60911
 C474 C 0.95557 0.29758 0.62067
 C475 C 0.94948 0.26845 0.61427
 O476 O 0.92069 0.23714 0.58829
 C477 C 0.90095 0.24353 0.57237
 C478 C 0.89670 0.27274 0.57057
 C479 C 0.87670 0.28443 0.55578
 C480 C 0.86026 0.26523 0.54230
 C481 C 0.86421 0.23497 0.54346
 C482 C 0.88504 0.22393 0.55858
 H483 H 0.90902 0.33130 0.58321
 H484 H 0.94513 0.34252 0.61386
 H485 H 0.96030 0.25075 0.62271
 H486 H 0.87371 0.30751 0.55485
 H487 H 0.84452 0.27400 0.53069
 H488 H 0.88838 0.20094 0.55999
 C489 C 0.39099 0.06764 0.25607
 C490 C 0.38787 0.05872 0.22960
 C491 C 0.36910 0.03904 0.22176
 C492 C 0.35348 0.02737 0.24216
 C493 C 0.35711 0.03521 0.26983
 C494 C 0.37581 0.05620 0.27670
 O495 O 0.41016 0.08621 0.25930
 C496 C 0.41946 0.08888 0.23437
 C497 C 0.40668 0.07230 0.21547
 C498 C 0.41393 0.07103 0.18832
 C499 C 0.43488 0.08804 0.18022
 C500 C 0.44779 0.10604 0.19920
 C501 C 0.44004 0.10621 0.22671
 H502 H 0.36700 0.03235 0.20079
 H503 H 0.33946 0.01114 0.23651
 H504 H 0.37928 0.06244 0.29759
 H505 H 0.40375 0.05757 0.17387
 H506 H 0.44046 0.08794 0.15904
 H507 H 0.44958 0.11967 0.24166
 C508 C 0.60797 0.10668 0.73700
 C509 C 0.61591 0.11064 0.76337
 C510 C 0.63624 0.09579 0.77465
 C511 C 0.64898 0.07589 0.75812
 C512 C 0.64119 0.07095 0.73082
 C513 C 0.62040 0.08681 0.72006
 O514 O 0.58751 0.12231 0.73082
 C515 C 0.58245 0.13626 0.75387
 C516 C 0.59930 0.12971 0.77437
 C517 C 0.59678 0.14021 0.80069
 C518 C 0.57578 0.15790 0.80629
 C519 C 0.55812 0.16504 0.78561
 C520 C 0.56167 0.15447 0.75887
 H521 H 0.64192 0.09916 0.79555
 H522 H 0.66478 0.06409 0.76685
 H523 H 0.61384 0.08344 0.69945
 H524 H 0.61009 0.13432 0.81653
 H525 H 0.57301 0.16575 0.82683
 H526 H 0.54799 0.15905 0.74297
 C527 C 0.38698 0.91638 0.73800
 C528 C 0.38246 0.92246 0.76493
 C529 C 0.36517 0.94340 0.77334
 C530 C 0.35233 0.95901 0.75318
 C531 C 0.35724 0.95376 0.72522
 C532 C 0.37460 0.93178 0.71763
 O533 O 0.40476 0.89638 0.73428
 C534 C 0.41175 0.88984 0.75940
 C535 C 0.39881 0.90532 0.77892
 C536 C 0.40436 0.90323 0.80646
 C537 C 0.42411 0.88450 0.81416
 C538 C 0.43753 0.86811 0.79441
 C539 C 0.43103 0.87065 0.76665
 H540 H 0.36205 0.94795 0.79466
 H541 H 0.33928 0.97588 0.75940
 H542 H 0.37897 0.92736 0.69653
 H543 H 0.39423 0.91598 0.82142
 H544 H 0.42897 0.88278 0.83546
 H545 H 0.44131 0.85887 0.75109
 C546 C 0.61214 0.89776 0.26630
 C547 C 0.62448 0.89444 0.24183
 C548 C 0.64664 0.90963 0.23523
 C549 C 0.65642 0.92912 0.25460
 C550 C 0.64377 0.93340 0.27982
 C551 C 0.62138 0.91721 0.28573
 O552 O 0.59074 0.88230 0.26810
 C553 C 0.58943 0.86907 0.24417
 C554 C 0.60956 0.87586 0.22728
 C555 C 0.61085 0.86637 0.20047
 C556 C 0.59034 0.84971 0.19054
 C557 C 0.56944 0.84244 0.20758
 C558 C 0.56921 0.85181 0.23492
 H559 H 0.65588 0.90690 0.21572
 H560 H 0.67347 0.94138 0.24963
 H561 H 0.61115 0.92004 0.30467
 H562 H 0.62657 0.87254 0.18736
 H563 H 0.59035 0.84307 0.16942
 H564 H 0.55295 0.84748 0.24797
 C565 C 0.38981 0.27873 0.90713
 C566 C 0.40159 0.30224 0.89548
 C567 C 0.39975 0.32995 0.90633
 C568 C 0.38489 0.33357 0.92989
 C569 C 0.37198 0.30974 0.94176
 C570 C 0.37451 0.28194 0.93014
 O571 O 0.39543 0.25399 0.89491
 C572 C 0.41100 0.26203 0.87503
 C573 C 0.41516 0.29136 0.87422
 C574 C 0.43158 0.30421 0.85552
 C575 C 0.44496 0.28599 0.83763
 C576 C 0.44204 0.25555 0.83913
 C577 C 0.42424 0.24356 0.85765
 H578 H 0.40958 0.34807 0.89715
 H579 H 0.38297 0.35499 0.93854
 H580 H 0.36513 0.26332 0.93898
 H581 H 0.43469 0.32733 0.85536
 H582 H 0.45883 0.29546 0.82392
 H583 H 0.42190 0.22042 0.85962
 C584 C 0.60572 0.72952 0.89846
 C585 C 0.59772 0.71010 0.87899
 C586 C 0.60407 0.68099 0.87970
 C587 C 0.61919 0.67151 0.90144
 C588 C 0.62782 0.69120 0.92164
 C589 C 0.62119 0.72069 0.91989
 O590 O 0.59604 0.75570 0.89519
 C591 C 0.58165 0.75277 0.87316
 C592 C 0.58217 0.72537 0.86233
 C593 C 0.56761 0.71728 0.83992
 C594 C 0.55148 0.73813 0.82854
 C595 C 0.54998 0.76633 0.83989
 C596 C 0.56570 0.77379 0.86227
 H597 H 0.59718 0.66600 0.86442
 H598 H 0.62411 0.64886 0.90258
 H599 H 0.62704 0.73607 0.93533
 H600 H 0.56816 0.69550 0.83189
 H601 H 0.53948 0.73193 0.81156
 H602 H 0.56483 0.79494 0.87164
 C603 C 0.38766 0.72826 0.09825
 C604 C 0.37848 0.75564 0.10277
 C605 C 0.35691 0.76628 0.08978
 C606 C 0.34445 0.74811 0.07109
 C607 C 0.35380 0.71994 0.06555
 C608 C 0.37552 0.70979 0.07978
 O609 O 0.40947 0.72312 0.11119
 C610 C 0.41423 0.74785 0.12401
 C611 C 0.39586 0.76847 0.11946
 C612 C 0.39818 0.79674 0.12875
 C613 C 0.42058 0.80423 0.14285
 C614 C 0.43984 0.78343 0.14769
 C615 C 0.43639 0.75467 0.13865
 H616 H 0.35029 0.78807 0.09336
 H617 H 0.32794 0.75634 0.06040
 H618 H 0.38347 0.68866 0.07573
 H619 H 0.38376 0.81275 0.12436
 H620 H 0.42326 0.82638 0.14944
 H621 H 0.45125 0.73871 0.14126
 C622 C 0.59656 0.26748 0.08670
 C623 C 0.58515 0.28636 0.10455
 C624 C 0.58979 0.31596 0.10411
 C625 C 0.60683 0.32648 0.08438
 C626 C 0.61895 0.30733 0.06591
 C627 C 0.61381 0.27738 0.06730
 O628 O 0.58886 0.24037 0.08977
 C629 C 0.57224 0.24213 0.11004
 C630 C 0.56937 0.26975 0.11993
 C631 C 0.55273 0.27646 0.14103
 C632 C 0.53839 0.25378 0.15229
 C633 C 0.54072 0.22516 0.14211
 C634 C 0.55802 0.21935 0.12072
 H635 H 0.58040 0.33045 0.11819
 H636 H 0.61058 0.34947 0.08351
 H637 H 0.62245 0.26227 0.05322
 H638 H 0.55074 0.29836 0.14845
 H639 H 0.52516 0.25863 0.16859
 H640 H 0.56028 0.19778 0.11251
 C641 C 0.26997 0.09068 0.59751
 C642 C 0.28676 0.10238 0.57899
 C643 C 0.31265 0.09550 0.57851
 C644 C 0.32153 0.07575 0.59788
 C645 C 0.30460 0.06381 0.61741
 C646 C 0.27850 0.07161 0.61731
 O647 O 0.24589 0.09845 0.59345
 C648 C 0.24748 0.11552 0.57196
 C649 C 0.27207 0.11891 0.56246
 C650 C 0.27788 0.13541 0.53970
 C651 C 0.25746 0.14853 0.52596
 C652 C 0.23187 0.14446 0.53488
 C653 C 0.22695 0.12799 0.55845
 H654 H 0.32544 0.10457 0.56347
 H655 H 0.34156 0.06984 0.59777
 H656 H 0.26507 0.06235 0.63163
 H657 H 0.29736 0.13768 0.53250
 H658 H 0.26149 0.16085 0.50781
 H659 H 0.20762 0.12436 0.56568
 C660 C 0.72917 0.07835 0.40250
 C661 C 0.71227 0.08952 0.42111
 C662 C 0.68657 0.08177 0.42186
 C663 C 0.67784 0.06156 0.40267
 C664 C 0.69467 0.04984 0.38277
 C665 C 0.72079 0.05869 0.38275
 O666 O 0.75297 0.08804 0.40588
 C667 C 0.75098 0.10585 0.42703
 C668 C 0.72639 0.10763 0.43688
 C669 C 0.71972 0.12528 0.45858
 C670 C 0.73915 0.14185 0.47063
 C671 C 0.76481 0.14020 0.46124
 C672 C 0.77084 0.12175 0.43915
 H673 H 0.67372 0.09075 0.43688
 H674 H 0.65785 0.05529 0.40328
 H675 H 0.73436 0.05012 0.36821
 H676 H 0.70021 0.12637 0.46589
 H677 H 0.73425 0.15569 0.48762
 H678 H 0.79020 0.12016 0.43147
 C679 C 0.73649 0.92564 0.61355
 C680 C 0.76165 0.92981 0.62088
 C681 C 0.76914 0.94797 0.64189
 C682 C 0.74991 0.96256 0.65603
 C683 C 0.72379 0.95924 0.64870
 C684 C 0.71692 0.94062 0.62699
 O685 O 0.73377 0.90687 0.59321
 C686 C 0.75775 0.89930 0.58759
 C687 C 0.77545 0.91304 0.60383
 C688 C 0.80168 0.90927 0.60107
 C689 C 0.81012 0.89049 0.58066
 C690 C 0.79236 0.87552 0.56398
 C691 C 0.76575 0.87979 0.56755
 H692 H 0.78908 0.95078 0.64726
 H693 H 0.75544 0.97701 0.67238
 H694 H 0.69713 0.93773 0.62103
 H695 H 0.81517 0.92057 0.61400
 H696 H 0.83049 0.88722 0.57806
 H697 H 0.75188 0.86876 0.55484
 C698 C 0.27245 0.89436 0.39542
 C699 C 0.28944 0.88353 0.41408
 C700 C 0.31479 0.89279 0.41561
 C701 C 0.32289 0.91397 0.39710
 C702 C 0.30572 0.92497 0.37744
 C703 C 0.28023 0.91480 0.37651
 O704 O 0.24877 0.88469 0.39872
 C705 C 0.25079 0.86730 0.41988
 C706 C 0.27530 0.86550 0.42990
 C707 C 0.28135 0.84941 0.45279
 C708 C 0.26119 0.83530 0.46628
 C709 C 0.23562 0.83806 0.45699
 C710 C 0.23053 0.85376 0.43308
 H711 H 0.32770 0.88445 0.43083
 H712 H 0.34247 0.92169 0.39796
 H713 H 0.26660 0.92332 0.36209
 H714 H 0.30073 0.84850 0.46047
 H715 H 0.26530 0.82364 0.48478
 H716 H 0.21118 0.85655 0.42570
 C717 C 0.09202 0.38195 0.74047
 C718 C 0.08848 0.37401 0.76710
 C719 C 0.07177 0.35192 0.77464
 C720 C 0.05775 0.33799 0.75395
 C721 C 0.06032 0.34682 0.72654
 C722 C 0.07803 0.36878 0.71976
 O723 O 0.10820 0.40383 0.73749
 C724 C 0.11489 0.41011 0.76278
 C725 C 0.10320 0.39277 0.78178
 C726 C 0.10622 0.39717 0.80960
 C727 C 0.12196 0.42025 0.81807
 C728 C 0.13461 0.43789 0.79874
 C729 C 0.13108 0.43256 0.77073
 H730 H 0.06917 0.34609 0.79572
 H731 H 0.04398 0.32146 0.75940
 H732 H 0.08018 0.37615 0.69904
 H733 H 0.09647 0.38365 0.82423
 H734 H 0.12450 0.42424 0.83958
 H735 H 0.14008 0.44608 0.75555
 C736 C 0.07249 0.60408 0.26125
 C737 C 0.09481 0.61972 0.25875
 C738 C 0.09777 0.64728 0.26981
 C739 C 0.07699 0.65893 0.28431
 C740 C 0.05421 0.64265 0.28794
 C741 C 0.05193 0.61493 0.27605
 O742 O 0.07339 0.57848 0.24913
 C743 C 0.09686 0.57776 0.23894
 C744 C 0.11092 0.60229 0.24449
 C745 C 0.13642 0.60535 0.23673
 C746 C 0.14776 0.58228 0.22256
 C747 C 0.13333 0.55720 0.21598
 C748 C 0.10751 0.55500 0.22426
 H749 H 0.11546 0.65927 0.26753
 H750 H 0.07894 0.68010 0.29351
 H751 H 0.03472 0.60208 0.27849
 H752 H 0.14725 0.62466 0.24161
 H753 H 0.16755 0.58413 0.21625
 H754 H 0.09620 0.53592 0.21978
 C755 C 0.92820 0.40365 0.25323
 C756 C 0.93502 0.39744 0.22686
 C757 C 0.95254 0.37615 0.22008
 C758 C 0.96342 0.36048 0.24137
 C759 C 0.95697 0.36665 0.26876
 C760 C 0.93928 0.38876 0.27482
 O761 O 0.91038 0.42392 0.25505
 C762 C 0.90599 0.43067 0.22929
 C763 C 0.92075 0.41524 0.21129
 C764 C 0.91935 0.41883 0.18334
 C765 C 0.90194 0.43917 0.17348
 C766 C 0.88610 0.45500 0.19155
 C767 C 0.88820 0.45066 0.21990
 H768 H 0.95741 0.37152 0.19916
 H769 H 0.97703 0.34366 0.23656
 H770 H 0.93384 0.39362 0.29556
 H771 H 0.93120 0.40640 0.16962
 H772 H 0.90044 0.44217 0.15175
 H773 H 0.87644 0.46252 0.23416
 C774 C 0.93178 0.60472 0.75634
 C775 C 0.93812 0.60883 0.78319
 C776 C 0.95484 0.63029 0.79192
 C777 C 0.96570 0.64814 0.77212
 C778 C 0.95996 0.64402 0.74418
 C779 C 0.94268 0.62197 0.73621
 O780 O 0.91511 0.58337 0.75253
 C781 C 0.91098 0.57377 0.77752
 C782 C 0.92478 0.58848 0.79695
 C783 C 0.92370 0.58180 0.82439
 C784 C 0.90748 0.55915 0.83220
 C785 C 0.89255 0.54405 0.81266
 C786 C 0.89443 0.55144 0.78488
 H787 H 0.95941 0.63314 0.81320
 H788 H 0.97905 0.66476 0.77856
 H789 H 0.93791 0.61834 0.71507
 H790 H 0.93485 0.59367 0.83924
 H791 H 0.90609 0.55388 0.85355
 H792 H 0.88332 0.54024 0.76952
 C793 C 0.74184 0.59988 0.90958
 C794 C 0.76413 0.61568 0.90832
 C795 C 0.76669 0.64280 0.92028
 C796 C 0.74552 0.65387 0.93448
 C797 C 0.72256 0.63744 0.93701
 C798 C 0.72079 0.61018 0.92387
 O799 O 0.74345 0.57429 0.89754
 C800 C 0.76738 0.57375 0.88865
 C801 C 0.78097 0.59845 0.89489
 C802 C 0.80694 0.60147 0.88924
 C803 C 0.81936 0.57803 0.87683
 C804 C 0.80555 0.55264 0.86995
 C805 C 0.77917 0.55057 0.87565
 H806 H 0.78446 0.65482 0.91909
 H807 H 0.74744 0.67475 0.94427
 H808 H 0.70373 0.59688 0.92518
 H809 H 0.81739 0.62084 0.89482
 H810 H 0.83968 0.57951 0.87268
 H811 H 0.76846 0.53105 0.87116
 C812 C 0.26287 0.39794 0.92380
 C813 C 0.27009 0.42614 0.92816
 C814 C 0.28881 0.43418 0.94671
 C815 C 0.30057 0.41226 0.96158
 C816 C 0.29330 0.38281 0.95800
 C817 C 0.27410 0.37569 0.93862
 O818 O 0.24477 0.39512 0.90499
 C819 C 0.24045 0.42218 0.89745
 C820 C 0.25542 0.44193 0.91122
 C821 C 0.25386 0.47150 0.90712
 C822 C 0.23614 0.48119 0.88798
 C823 C 0.22073 0.46135 0.87329
 C824 C 0.22287 0.43138 0.87792
 H825 H 0.29417 0.45657 0.94965
 H826 H 0.31512 0.41845 0.97615
 H827 H 0.26803 0.35360 0.93515
 H828 H 0.26577 0.48656 0.91832
 H829 H 0.23453 0.50417 0.88436
 H830 H 0.21118 0.41594 0.86690
 C831 C 0.25298 0.60352 0.07903
 C832 C 0.22876 0.61464 0.07652
 C833 C 0.22364 0.63924 0.06142
 C834 C 0.24424 0.65273 0.04809
 C835 C 0.26941 0.64117 0.04951
 C836 C 0.27366 0.61620 0.06553
 O837 O 0.25384 0.58024 0.09465
 C838 C 0.22960 0.57645 0.10200
 C839 C 0.21342 0.59673 0.09122
 C840 C 0.18710 0.59617 0.09559
 C841 C 0.17710 0.57394 0.11187
 C842 C 0.19350 0.55323 0.12381
 C843 C 0.22015 0.55459 0.11876
 H844 H 0.20443 0.64772 0.05988
 H845 H 0.24032 0.67173 0.03608
 H846 H 0.29248 0.60670 0.06737
 H847 H 0.17468 0.61219 0.08670
 H848 H 0.15669 0.57320 0.11565
 H849 H 0.23310 0.53892 0.12739
 C850 C 0.73616 0.39559 0.08832
 C851 C 0.75830 0.37978 0.08967
 C852 C 0.76092 0.35307 0.07693
 C853 C 0.74003 0.34253 0.06178
 C854 C 0.71735 0.35915 0.05904
 C855 C 0.71544 0.38585 0.07312
 O856 O 0.73771 0.42085 0.10098
 C857 C 0.76146 0.42122 0.11033
 C858 C 0.77502 0.39672 0.10380
 C859 C 0.80094 0.39379 0.10961
 C860 C 0.81333 0.41712 0.12246
 C861 C 0.79953 0.44229 0.12963
 C862 C 0.77319 0.44422 0.12381
 H863 H 0.77857 0.34103 0.07817
 H864 H 0.74203 0.32207 0.05129
 H865 H 0.69858 0.39928 0.07169
 H866 H 0.81140 0.37465 0.10373
 H867 H 0.83363 0.41576 0.12668
 H868 H 0.76251 0.46361 0.12843
 C869 C 0.91225 0.74590 0.62793
 C870 C 0.91210 0.77459 0.63514
 C871 C 0.92585 0.78531 0.65719
 C872 C 0.94102 0.76584 0.67187
 C873 C 0.94278 0.73636 0.66381
 C874 C 0.92746 0.72630 0.64188
 O875 O 0.89829 0.74011 0.60606
 C876 C 0.88933 0.76577 0.59907
 C877 C 0.89745 0.78769 0.61600
 C878 C 0.89175 0.81655 0.61121
 C879 C 0.87694 0.82298 0.58822
 C880 C 0.86781 0.80061 0.57098
 C881 C 0.87400 0.77159 0.57659
 H882 H 0.92540 0.80799 0.66253
 H883 H 0.95246 0.77419 0.68849
 H884 H 0.92813 0.70408 0.63499
 H885 H 0.89871 0.83352 0.62449
 H886 H 0.87216 0.84526 0.58409
 H887 H 0.86750 0.75419 0.56351
 C888 C 0.89870 0.26366 0.37941
 C889 C 0.88462 0.28541 0.39115
 C890 C 0.89090 0.31440 0.38844
 C891 C 0.91278 0.32134 0.37334
 C892 C 0.92751 0.29952 0.36033
 C893 C 0.91980 0.27018 0.36287
 O894 O 0.89141 0.23753 0.38760
 C895 C 0.87227 0.24299 0.40471
 C896 C 0.86713 0.27196 0.40714
 C897 C 0.84882 0.28281 0.42488
 C898 C 0.83562 0.26309 0.44130
 C899 C 0.84134 0.23316 0.44033
 C900 C 0.85965 0.22294 0.42130
 H901 H 0.87999 0.33105 0.39861
 H902 H 0.91819 0.34389 0.37179
 H903 H 0.93105 0.25288 0.35416
 H904 H 0.84535 0.30576 0.42660
 H905 H 0.82197 0.27143 0.45586
 H906 H 0.86480 0.20035 0.42036
 C907 C 0.09176 0.26119 0.60230
 C908 C 0.10372 0.28236 0.58743
 C909 C 0.09684 0.31125 0.58902
 C910 C 0.07685 0.31867 0.60673
 C911 C 0.06438 0.29732 0.62280
 C912 C 0.07225 0.26811 0.62052
 O913 O 0.10001 0.23483 0.59643
 C914 C 0.11762 0.23949 0.57749
 C915 C 0.12080 0.26824 0.57146
 C916 C 0.13769 0.27792 0.55164
 C917 C 0.15144 0.25706 0.53700
 C918 C 0.14781 0.22715 0.54210
 C919 C 0.13094 0.21836 0.56306
 H920 H 0.10624 0.32747 0.57674
 H921 H 0.07130 0.34113 0.60798
 H922 H 0.06305 0.25107 0.63198
 H923 H 0.13975 0.30066 0.54715
 H924 H 0.16407 0.26424 0.52093
 H925 H 0.12749 0.19576 0.56728
 C926 C 0.08295 0.72599 0.40501
 C927 C 0.09389 0.70462 0.42033
 C928 C 0.08467 0.67640 0.42044
 C929 C 0.06356 0.66988 0.40378
 C930 C 0.05228 0.69145 0.38718
 C931 C 0.06224 0.71999 0.38813
 O932 O 0.09381 0.75165 0.40858
 C933 C 0.11210 0.74640 0.42650
 C934 C 0.11314 0.71793 0.43422
 C935 C 0.13062 0.70794 0.45325
 C936 C 0.14719 0.72827 0.46529
 C937 C 0.14578 0.75798 0.45836
 C938 C 0.12825 0.76693 0.43824
 H939 H 0.09337 0.65999 0.43294
 H940 H 0.05638 0.64790 0.40351
 H941 H 0.05418 0.73721 0.37609
 H942 H 0.13107 0.68546 0.45910
 H943 H 0.16029 0.72104 0.48083
 H944 H 0.12647 0.78941 0.43265
 C945 C 0.60298 0.92477 0.74220
 C946 C 0.59067 0.91084 0.72120
 C947 C 0.59625 0.91598 0.69408
 C948 C 0.61513 0.93659 0.68825
 C949 C 0.62827 0.95140 0.70938
 C950 C 0.62228 0.94513 0.73684
 O951 O 0.59405 0.91715 0.76648
 C952 C 0.57578 0.89798 0.76057
 C953 C 0.57312 0.89335 0.73313
 C954 C 0.55523 0.87435 0.72222
 C955 C 0.53943 0.85930 0.74030
 C956 C 0.54149 0.86357 0.76880
 C957 C 0.55996 0.88338 0.77906
 H958 H 0.58615 0.90481 0.67795
 H959 H 0.61950 0.94107 0.66718
 H960 H 0.63173 0.95635 0.75338
 H961 H 0.55352 0.87117 0.70051
 H962 H 0.52541 0.84442 0.73198
 H963 H 0.56209 0.88710 0.80066
 C964 C 0.40834 0.90941 0.26726
 C965 C 0.42626 0.90110 0.28609
 C966 C 0.42462 0.90845 0.31343
 C967 C 0.40375 0.92528 0.32167
 C968 C 0.38486 0.93385 0.30270
 C969 C 0.38715 0.92562 0.27511
 O970 O 0.41361 0.90032 0.24228
 C971 C 0.43525 0.88583 0.24545
 C972 C 0.44369 0.88551 0.27191
 C973 C 0.46539 0.87064 0.28003
 C974 C 0.47874 0.85510 0.26011
 C975 C 0.47050 0.85524 0.23269
 C976 C 0.44864 0.87114 0.22517
 H977 H 0.43900 0.90168 0.32784
 H978 H 0.40219 0.93148 0.34283
 H979 H 0.37317 0.93216 0.26016
 H980 H 0.47150 0.87049 0.30102
 H981 H 0.49543 0.84284 0.26599
 H982 H 0.44171 0.87106 0.20445
 C983 C 0.60248 0.08051 0.26907
 C984 C 0.61621 0.08891 0.24662
 C985 C 0.64122 0.08008 0.24185
 C986 C 0.65249 0.06158 0.26085
 C987 C 0.63864 0.05201 0.28397
 C988 C 0.61329 0.06198 0.28820
 O989 O 0.57862 0.09039 0.26915
 C990 C 0.57723 0.10521 0.24615
 C991 C 0.59973 0.10483 0.23159
 C992 C 0.60209 0.11712 0.20601
 C993 C 0.58031 0.13003 0.19482
 C994 C 0.55692 0.13086 0.20940
 C995 C 0.55543 0.11866 0.23565
 H996 H 0.65154 0.08679 0.22387
 H997 H 0.67179 0.05415 0.25713
 H998 H 0.60205 0.05492 0.30543
 H999 H 0.61985 0.11607 0.19474
 H1000 H 0.58153 0.13913 0.17464
 H1001 H 0.53759 0.11834 0.24684
 C1002 C 0.40125 0.09532 0.72659
 C1003 C 0.41674 0.10666 0.70668
 C1004 C 0.41570 0.09764 0.67975
 C1005 C 0.39786 0.07608 0.67302
 C1006 C 0.38126 0.06451 0.69304
 C1007 C 0.38296 0.07432 0.72022
 O1008 O 0.40585 0.10637 0.75103
 C1009 C 0.42456 0.12522 0.74640
 C1010 C 0.43170 0.12640 0.71954
 C1011 C 0.45058 0.14497 0.71001
 C1012 C 0.46271 0.16300 0.72899
 C1013 C 0.45615 0.16177 0.75693
 C1014 C 0.43677 0.14255 0.76576
 H1015 H 0.42824 0.10678 0.66451
 H1016 H 0.39662 0.06879 0.65214
 H1017 H 0.37065 0.06565 0.73592
 H1018 H 0.45577 0.14557 0.68874
 H1019 H 0.47765 0.17746 0.72200
 H1020 H 0.43133 0.14124 0.78694
 C1021 C 0.59193 0.72195 0.06285
 C1022 C 0.57866 0.70030 0.07578
 C1023 C 0.58158 0.67128 0.06929
 C1024 C 0.59911 0.66421 0.04878
 C1025 C 0.61355 0.68606 0.03553
 C1026 C 0.60969 0.71540 0.04260
 O1027 O 0.58652 0.74810 0.07239
 C1028 C 0.56959 0.74278 0.09188
 C1029 C 0.56430 0.71383 0.09486
 C1030 C 0.54806 0.70322 0.11483
 C1031 C 0.53680 0.72326 0.13250
 C1032 C 0.54164 0.75328 0.12969
 C1033 C 0.55814 0.76320 0.10891
 H1034 H 0.57093 0.65464 0.07983
 H1035 H 0.60191 0.64167 0.04377
 H1036 H 0.62043 0.73256 0.03294
 H1037 H 0.54442 0.68032 0.11694
 H1038 H 0.52412 0.71541 0.14826
 H1039 H 0.56240 0.78595 0.10652
 C1040 C 0.38891 0.25262 0.08363
 C1041 C 0.38287 0.22405 0.07939
 C1042 C 0.36448 0.21503 0.06076
 C1043 C 0.35185 0.23634 0.04575
 C1044 C 0.35796 0.26602 0.04934
 C1045 C 0.37670 0.27418 0.06879
 O1046 O 0.40760 0.25649 0.10161
 C1047 C 0.41358 0.22973 0.10876
 C1048 C 0.39904 0.20911 0.09562
 C1049 C 0.40311 0.17969 0.09865
 C1050 C 0.42321 0.17113 0.11560
 C1051 C 0.43849 0.19190 0.12940
 C1052 C 0.43335 0.22165 0.12629
 H1053 H 0.36023 0.19237 0.05765
 H1054 H 0.33769 0.22962 0.03095
 H1055 H 0.38196 0.29658 0.07196
 H1056 H 0.39168 0.16389 0.08778
 H1057 H 0.42712 0.14831 0.11777
 H1058 H 0.44515 0.23790 0.13609
 C1059 C 0.58906 0.28453 0.92455
 C1060 C 0.57953 0.30725 0.90987
 C1061 C 0.58539 0.33588 0.91572
 C1062 C 0.60197 0.34135 0.93749
 C1063 C 0.61259 0.31830 0.95261
 C1064 C 0.60591 0.28944 0.94606
 O1065 O 0.58096 0.25898 0.91561
 C1066 C 0.56614 0.26577 0.89472
 C1067 C 0.56483 0.29503 0.89027
 C1068 C 0.55115 0.30696 0.86896
 C1069 C 0.53819 0.28794 0.85153
 C1070 C 0.53883 0.25769 0.85591
 C1071 C 0.55294 0.24645 0.87793
 H1072 H 0.57760 0.35337 0.90384
 H1073 H 0.60703 0.36353 0.94213
 H1074 H 0.61368 0.27143 0.95724
 H1075 H 0.55059 0.33005 0.86578
 H1076 H 0.52729 0.29681 0.83485
 H1077 H 0.55389 0.22344 0.88160
 C1078 C 0.39880 0.73768 0.92737
 C1079 C 0.41185 0.71604 0.91419
 C1080 C 0.40865 0.68701 0.92030
 C1081 C 0.39115 0.67986 0.94077
 C1082 C 0.37687 0.70156 0.95434
 C1083 C 0.38074 0.73097 0.94748
 O1084 O 0.40514 0.76390 0.91857
 C1085 C 0.42240 0.75858 0.89931
 C1086 C 0.42690 0.72958 0.89572
 C1087 C 0.44348 0.71887 0.87611
 C1088 C 0.45605 0.73887 0.85947
 C1089 C 0.45231 0.76896 0.86302
 C1090 C 0.43532 0.77902 0.88338
 H1091 H 0.41924 0.67042 0.90966
 H1092 H 0.38825 0.65728 0.94559
 H1093 H 0.37015 0.74798 0.95752
 H1094 H 0.44650 0.69592 0.87358
 H1095 H 0.46911 0.73094 0.84410
 H1096 H 0.43201 0.80187 0.88636
 C1097 C 0.73360 0.90809 0.39946
 C1098 C 0.71713 0.88790 0.41022
 C1099 C 0.69090 0.88818 0.40546
 C1100 C 0.68124 0.91018 0.38892
 C1101 C 0.69785 0.93106 0.37728
 C1102 C 0.72446 0.92981 0.38250
 O1103 O 0.75759 0.90494 0.40779
 C1104 C 0.75624 0.88223 0.42411
 C1105 C 0.73195 0.87089 0.42611
 C1106 C 0.72603 0.84758 0.44264
 C1107 C 0.74587 0.83574 0.45813
 C1108 C 0.77103 0.84751 0.45711
 C1109 C 0.77627 0.87091 0.43947
 H1110 H 0.67828 0.87230 0.41449
 H1111 H 0.66085 0.91089 0.38509
 H1112 H 0.73753 0.94574 0.37427
 H1113 H 0.70672 0.83913 0.44397
 H1114 H 0.74137 0.81799 0.47157
 H1115 H 0.79513 0.88061 0.43837
 C1116 C 0.26138 0.91725 0.61277
 C1117 C 0.23652 0.92624 0.61609
 C1118 C 0.22983 0.94898 0.63313
 C1119 C 0.24963 0.96343 0.64691
 C1120 C 0.27554 0.95528 0.64303
 C1121 C 0.28139 0.93154 0.62597
 O1122 O 0.26370 0.89564 0.59516
 C1123 C 0.23981 0.89107 0.58701
 C1124 C 0.22248 0.90942 0.59900
 C1125 C 0.19668 0.90967 0.59208
 C1126 C 0.18841 0.89015 0.57203
 C1127 C 0.20583 0.87062 0.55982
 C1128 C 0.23186 0.87096 0.56756
 H1129 H 0.21013 0.95574 0.63532
 H1130 H 0.24484 0.98172 0.65966
 H1131 H 0.30097 0.92495 0.62242
 H1132 H 0.18349 0.92464 0.60147
 H1133 H 0.16843 0.88998 0.56621
 H1134 H 0.24558 0.85658 0.55818
 C1135 C 0.25608 0.07160 0.38086
 C1136 C 0.23160 0.06094 0.37800
 C1137 C 0.22589 0.03702 0.36189
 C1138 C 0.24630 0.02324 0.34860
 C1139 C 0.27184 0.03319 0.35203
 C1140 C 0.27666 0.05801 0.36815
 O1141 O 0.25755 0.09406 0.39759
 C1142 C 0.23353 0.09755 0.40568
 C1143 C 0.21690 0.07769 0.39451
 C1144 C 0.19115 0.07625 0.40171
 C1145 C 0.18225 0.09606 0.42121
 C1146 C 0.19898 0.11704 0.43260
 C1147 C 0.22494 0.11789 0.42451
 H1148 H 0.20651 0.02892 0.36004
 H1149 H 0.24230 0.00412 0.33658
 H1150 H 0.29592 0.06601 0.37136
 H1151 H 0.17850 0.06011 0.39304
 H1152 H 0.16236 0.09517 0.42737
 H1153 H 0.23825 0.13327 0.43334
 C1154 C 0.74164 0.10194 0.62588
 C1155 C 0.76694 0.09635 0.63136
 C1156 C 0.77449 0.07735 0.65164
 C1157 C 0.75520 0.06302 0.66637
 C1158 C 0.72898 0.06752 0.66027
 C1159 C 0.72222 0.08777 0.64007
 O1160 O 0.73839 0.11968 0.60509
 C1161 C 0.76214 0.12525 0.59705
 C1162 C 0.78035 0.11134 0.61227
 C1163 C 0.80631 0.11240 0.60591
 C1164 C 0.81373 0.12840 0.58298
 C1165 C 0.79530 0.14328 0.56726
 C1166 C 0.76916 0.14185 0.57463
 H1167 H 0.79451 0.07306 0.65545
 H1168 H 0.76072 0.04729 0.68145
 H1169 H 0.70242 0.09140 0.63463
 H1170 H 0.82028 0.10081 0.61780
 H1171 H 0.83378 0.12926 0.57748
 H1172 H 0.75461 0.15242 0.56264
 C1173 C 0.91889 0.61691 0.25934
 C1174 C 0.92044 0.63078 0.23475
 C1175 C 0.93606 0.65477 0.23060
 C1176 C 0.95090 0.66456 0.25259
 C1177 C 0.95018 0.65001 0.27790
 C1178 C 0.93366 0.62603 0.28130
 O1179 O 0.90354 0.59405 0.25891
 C1180 C 0.89535 0.59331 0.23345
 C1181 C 0.90523 0.61516 0.21771
 C1182 C 0.90047 0.61715 0.18998
 C1183 C 0.88505 0.59563 0.17802
 C1184 C 0.87450 0.57311 0.19399
 C1185 C 0.87955 0.57220 0.22216
 H1186 H 0.93712 0.66525 0.21103
 H1187 H 0.96360 0.68282 0.24961
 H1188 H 0.93276 0.61436 0.30029
 H1189 H 0.90880 0.63423 0.17788
 H1190 H 0.88141 0.59643 0.15640
 H1191 H 0.87227 0.55486 0.23472
 C1192 C 0.92829 0.37839 0.74339
 C1193 C 0.92736 0.36385 0.76767
 C1194 C 0.94103 0.33866 0.77228
 C1195 C 0.95655 0.32828 0.75113
 C1196 C 0.95843 0.34342 0.72618
 C1197 C 0.94382 0.36868 0.72225
 O1198 O 0.91435 0.40224 0.74333
 C1199 C 0.90456 0.40292 0.76817
 C1200 C 0.91206 0.38006 0.78399
 C1201 C 0.90531 0.37760 0.81122
 C1202 C 0.89028 0.39965 0.82259
 C1203 C 0.88205 0.42318 0.80651
 C1204 C 0.88913 0.42463 0.77885
 H1205 H 0.94011 0.32765 0.79160
 H1206 H 0.96778 0.30905 0.75454
 H1207 H 0.94493 0.38081 0.70354
 H1208 H 0.91178 0.35968 0.82341
 H1209 H 0.88502 0.39840 0.84382
 H1210 H 0.88358 0.44266 0.76628
 C1211 C 0.08525 0.61960 0.74341
 C1212 C 0.09926 0.60759 0.72260
 C1213 C 0.09438 0.61324 0.69541
 C1214 C 0.07399 0.63171 0.68940
 C1215 C 0.05927 0.64441 0.71046
 C1216 C 0.06524 0.63862 0.73790
 O1217 O 0.09201 0.60994 0.76771
 C1218 C 0.11069 0.59149 0.76209
 C1219 C 0.11596 0.58942 0.73480
 C1220 C 0.13433 0.57083 0.72434
 C1221 C 0.14779 0.55357 0.74274
 C1222 C 0.14249 0.55491 0.77101
 C1223 C 0.12369 0.57433 0.78075
 H1224 H 0.10543 0.60320 0.67939
 H1225 H 0.06946 0.63590 0.66833
 H1226 H 0.05389 0.64749 0.75430
 H1227 H 0.13800 0.56945 0.70274
 H1228 H 0.16200 0.53879 0.73488
 H1229 H 0.11910 0.57585 0.80214
 C1230 C 0.07663 0.37510 0.25664
 C1231 C 0.09784 0.37854 0.27293
 C1232 C 0.09937 0.36685 0.29886
 C1233 C 0.07797 0.35164 0.30862
 C1234 C 0.05586 0.34800 0.29228
 C1235 C 0.05537 0.35942 0.26572
 O1236 O 0.07819 0.38993 0.23366
 C1237 C 0.10082 0.40300 0.23549
 C1238 C 0.11365 0.39668 0.25907
 C1239 C 0.13709 0.40922 0.26573
 C1240 C 0.14773 0.42907 0.24735
 C1241 C 0.13479 0.43624 0.22295
 C1242 C 0.11101 0.42273 0.21698
 H1243 H 0.11601 0.37037 0.31155
 H1244 H 0.07820 0.34354 0.32922
 H1245 H 0.03827 0.35797 0.25335
 H1246 H 0.14669 0.40420 0.28458
 H1247 H 0.16586 0.43916 0.25237
 H1248 H 0.10045 0.42782 0.19872
   
