data_POSCAR
  _audit_creation_date              2014-09-24
  _audit_creation_method            'ToBaCCo'
  _symmetry_space_group_name_H-M    'P1'
  _symmetry_Int_Tables_number       1
  _symmetry_cell_setting            triclinic
  loop_
  _symmetry_equiv_pos_as_xyz
 x,y,z
_cell_length_a 39.4264
_cell_length_b 39.8093
_cell_length_c 57.5469
_cell_angle_alpha 90.063400
_cell_angle_beta 90.010600
_cell_angle_gamma 89.969900
loop_
  _atom_site_label
  _atom_site_type_symbol
  _atom_site_fract_x
  _atom_site_fract_y
  _atom_site_fract_z
B1 B 0.27055 0.24101 0.27687
 B2 B 0.22935 0.23526 0.27191
 B3 B 0.24418 0.27367 0.27707
 B4 B 0.28282 0.27771 0.26489
 B5 B 0.29144 0.24014 0.25154
 B6 B 0.25799 0.21357 0.25628
 B7 B 0.23490 0.26713 0.23141
 B8 B 0.27613 0.27288 0.23629
 B9 B 0.26127 0.23445 0.23116
 B10 B 0.22268 0.23043 0.24336
 B11 B 0.21408 0.26797 0.25670
 B12 B 0.24750 0.29456 0.25197
 B13 B 0.74274 0.77619 0.22348
 B14 B 0.73083 0.73649 0.22736
 B15 B 0.77114 0.74539 0.22128
 B16 B 0.78197 0.78168 0.23446
 B17 B 0.74675 0.79501 0.24934
 B18 B 0.71472 0.76675 0.24457
 B19 B 0.76601 0.73423 0.26684
 B20 B 0.77795 0.77392 0.26295
 B21 B 0.73764 0.76506 0.26902
 B22 B 0.72680 0.72875 0.25586
 B23 B 0.76203 0.71541 0.24097
 B24 B 0.79406 0.74366 0.24575
 B25 B 0.73944 0.22702 -0.22515
 B26 B 0.72739 0.26670 -0.22897
 B27 B 0.76774 0.25787 -0.22294
 B28 B 0.77866 0.22164 -0.23617
 B29 B 0.74344 0.20829 -0.25103
 B30 B 0.71133 0.23645 -0.24621
 B31 B 0.76246 0.26916 -0.26846
 B32 B 0.77453 0.22949 -0.26463
 B33 B 0.73420 0.23829 -0.27066
 B34 B 0.72326 0.27452 -0.25744
 B35 B 0.75848 0.28789 -0.24257
 B36 B 0.79060 0.25973 -0.24741
 B37 B 0.27223 0.75317 -0.27599
 B38 B 0.23120 0.76023 -0.27115
 B39 B 0.24488 0.72134 -0.27615
 B40 B 0.28333 0.71621 -0.26385
 B41 B 0.29301 0.75361 -0.25062
 B42 B 0.26041 0.78114 -0.25554
 B43 B 0.23562 0.72852 -0.23053
 B44 B 0.27667 0.72150 -0.23530
 B45 B 0.26295 0.76039 -0.23034
 B46 B 0.22455 0.76547 -0.24263
 B47 B 0.21487 0.72812 -0.25587
 B48 B 0.24746 0.70056 -0.25096
 B49 B 1.23279 1.26879 0.76936
 B50 B 1.27418 1.27357 0.76468
 B51 B 1.25842 1.23555 0.76998
 B52 B 1.21987 1.23216 0.75758
 B53 B 1.21226 1.26966 0.74394
 B54 B 1.24621 1.29559 0.74870
 B55 B 1.26836 1.24117 0.72430
 B56 B 1.22698 1.23637 0.72902
 B57 B 1.24273 1.27438 0.72372
 B58 B 1.28129 1.27779 0.73610
 B59 B 1.28892 1.24027 0.74974
 B60 B 1.25496 1.21434 0.74497
 B61 B 0.77110 0.74402 0.77839
 B62 B 0.73084 0.73569 0.77179
 B63 B 0.74303 0.77515 0.77643
 B64 B 0.78253 0.78061 0.76590
 B65 B 0.79449 0.74281 0.75412
 B66 B 0.76210 0.71473 0.75815
 B67 B 0.73871 0.76545 0.73069
 B68 B 0.77898 0.77374 0.73725
 B69 B 0.76675 0.73428 0.73262
 B70 B 0.72729 0.72886 0.74315
 B71 B 0.71535 0.76662 0.75493
 B72 B 0.74772 0.79470 0.75093
 B73 B 1.24071 0.72858 0.27580
 B74 B 1.22605 0.76714 0.27091
 B75 B 1.26720 0.76111 0.27589
 B76 B 1.27939 0.72452 0.26369
 B77 B 1.24407 0.70802 0.25056
 B78 B 1.21071 0.73470 0.25542
 B79 B 1.25821 0.76831 0.23023
 B80 B 1.27288 0.72975 0.23514
 B81 B 1.23172 0.73577 0.23019
 B82 B 1.21954 0.77237 0.24237
 B83 B 1.25486 0.78889 0.25550
 B84 B 1.28823 0.76221 0.25064
 B85 B 0.77447 1.25031 0.22142
 B86 B 0.73440 1.26019 0.22756
 B87 B 0.74528 1.22025 0.22337
 B88 B 0.78436 1.21359 0.23433
 B89 B 0.79740 1.25117 0.24590
 B90 B 0.76610 1.28028 0.24130
 B91 B 0.74042 1.23099 0.26897
 B92 B 0.78049 1.22115 0.26288
 B93 B 0.76956 1.26110 0.26704
 B94 B 0.73053 1.26770 0.25608
 B95 B 0.71750 1.23017 0.24452
 B96 B 0.74878 1.20104 0.24909
 O97 O 0.44996 1.06390 0.01632
 O98 O 0.52719 0.93734 0.01694
 O99 O 0.42345 0.96082 0.01457
 O100 O 0.55355 1.04035 0.01385
 O101 O 0.46993 0.94333 0.02837
 O102 O 0.50732 1.05823 0.02773
 O103 O 0.54675 0.98441 0.02854
 O104 O 0.43022 1.01725 0.02850
 C105 C 0.43443 1.04763 0.03150
 C106 C 0.54298 0.95405 0.03180
 C107 C 0.43906 0.94648 0.03046
 C108 C 0.53818 1.05488 0.02977
 O109 O 0.52661 1.06370 -0.01822
 O110 O 0.45030 0.93668 -0.01734
 O111 O 0.42305 1.03960 -0.01557
 O112 O 0.55374 0.96082 -0.01524
 O113 O 0.50750 0.94268 -0.02893
 O114 O 0.46932 1.05745 -0.02945
 O115 O 0.54643 1.01674 -0.02989
 O116 O 0.43020 0.98318 -0.02956
 Co117 Co 0.48833 1.05504 -0.00087
 Co118 Co 0.48872 0.94579 -0.00028
 Co119 Co 0.43290 1.00023 -0.00053
 Co120 Co 0.54395 1.00056 -0.00068
 O121 O 0.48847 1.00041 -0.00059
 C122 C 0.54243 1.04708 -0.03313
 C123 C 0.43462 0.95281 -0.03253
 C124 C 0.43845 1.05421 -0.03144
 C125 C 0.53833 0.94607 -0.03105
 O126 O 0.95391 0.56345 0.51607
 O127 O 1.03122 0.43653 0.51701
 O128 O 0.92753 0.46046 0.51448
 O129 O 1.05754 0.53954 0.51450
 O130 O 0.97391 0.44279 0.52838
 O131 O 1.01112 0.55769 0.52800
 O132 O 1.05066 0.48350 0.52886
 O133 O 0.93422 0.51687 0.52829
 C134 C 0.93859 0.54721 0.53135
 C135 C 1.04711 0.45307 0.53190
 C136 C 0.94307 0.44622 0.53047
 C137 C 1.04195 0.55428 0.53023
 O138 O 1.03122 0.56327 0.48232
 O139 O 0.95442 0.43614 0.48269
 O140 O 0.92759 0.53909 0.48402
 O141 O 1.05793 0.46034 0.48498
 O142 O 1.01176 0.44201 0.47120
 O143 O 0.97415 0.55688 0.47054
 O144 O 1.05099 0.51637 0.47056
 O145 O 0.93476 0.48266 0.47026
 Co146 Co 0.99260 0.55452 0.49927
 Co147 Co 0.99280 0.44518 0.49979
 Co148 Co 0.93713 0.49978 0.49929
 Co149 Co 1.04812 0.49993 0.49970
 O150 O 0.99266 0.49985 0.49951
 C151 C 1.04725 0.54677 0.46748
 C152 C 0.93927 0.45232 0.46728
 C153 C 0.94335 0.55348 0.46821
 C154 C 1.04261 0.44546 0.46919
 O155 O 1.01365 0.47408 0.04837
 O156 O 1.00839 0.53347 -0.04802
 O157 O 1.04526 0.45722 -0.02257
 O158 O 1.04582 0.54538 0.02031
 O159 O 1.00957 0.47295 -0.04910
 O160 O 1.00994 0.53602 0.04724
 O161 O 1.04503 0.54141 -0.02135
 O162 O 1.04355 0.44805 0.02159
 C163 C 1.03829 0.45573 0.04237
 C164 C 1.03794 0.54106 -0.04225
 C165 C 1.03836 0.46190 -0.04340
 C166 C 1.03904 0.54463 0.04123
 O167 O 0.94689 0.53248 0.03065
 O168 O 0.94602 0.47134 -0.03050
 O169 O 0.97973 0.43041 0.01834
 O170 O 0.98241 0.57064 -0.02206
 O171 O 0.94620 0.53166 -0.02721
 O172 O 0.94962 0.46861 0.03670
 O173 O 0.98183 0.57154 0.01996
 O174 O 0.98243 0.43262 -0.02465
 Co175 Co 0.98136 0.50300 0.03669
 Co176 Co 0.97911 0.50237 -0.03550
 Co177 Co 1.01131 0.44794 -0.00192
 Co178 Co 1.01221 0.55258 -0.00080
 O179 O 0.99604 0.50117 -0.00020
 C180 C 0.95350 0.56281 0.02812
 C181 C 0.95333 0.44120 -0.03080
 C182 C 0.95535 0.43866 0.03139
 C183 C 0.95307 0.56192 -0.02759
 O184 O 0.55293 0.98260 0.53985
 O185 O 0.55033 1.01502 0.45991
 O186 O 0.55062 0.94127 0.48683
 O187 O 0.55055 1.05650 0.51303
 O188 O 0.52922 0.95866 0.45539
 O189 O 0.53123 1.03870 0.54499
 O190 O 0.53324 1.06181 0.47381
 O191 O 0.53561 0.93562 0.52644
 C192 C 0.55724 0.95206 0.53752
 C193 C 0.55430 1.04563 0.46203
 C194 C 0.55217 0.94312 0.46552
 C195 C 0.55324 1.05474 0.53429
 O196 O 0.46741 1.01509 0.54096
 O197 O 0.46528 0.98151 0.46120
 O198 O 0.46803 0.94098 0.51445
 O199 O 0.46651 1.05571 0.48755
 O200 O 0.48612 1.03777 0.45569
 O201 O 0.48931 0.95908 0.54575
 O202 O 0.48375 1.06188 0.52674
 O203 O 0.48319 0.93496 0.47487
 Co204 Co 0.51010 0.99883 0.53851
 Co205 Co 0.50786 0.99827 0.46243
 Co206 Co 0.50932 0.94404 0.50063
 Co207 Co 0.50856 1.05313 0.50030
 O208 O 0.50897 0.99857 0.50047
 C209 C 0.46293 1.04559 0.53859
 C210 C 0.46142 0.95096 0.46363
 C211 C 0.46642 0.94330 0.53575
 C212 C 0.46380 1.05354 0.46629
 O213 O 1.06131 1.02657 0.47450
 O214 O 0.93416 1.02458 0.52682
 O215 O 0.95745 1.01820 0.45614
 O216 O 1.03842 1.02215 0.54533
 O217 O 0.93911 1.03926 0.48731
 O218 O 1.05530 1.04273 0.51364
 O219 O 0.98139 1.04239 0.54035
 O220 O 1.01335 1.04163 0.46068
 C221 C 1.04391 1.04711 0.46317
 C222 C 0.95056 1.04623 0.53791
 C223 C 0.94249 1.04141 0.46614
 C224 C 1.05240 1.04547 0.53482
 O225 O 1.06290 0.97619 0.52692
 O226 O 0.93517 0.97177 0.47529
 O227 O 1.03901 0.97942 0.45628
 O228 O 0.95899 0.97934 0.54592
 O229 O 0.94140 0.95737 0.51482
 O230 O 1.05727 0.95967 0.48785
 O231 O 1.01598 0.95871 0.54100
 O232 O 0.98310 0.95634 0.46148
 Co233 Co 1.05343 1.00114 0.50073
 Co234 Co 0.94323 0.99838 0.50104
 Co235 Co 0.99827 0.99899 0.46289
 Co236 Co 0.99868 1.00054 0.53887
 O237 O 0.99840 0.99976 0.50088
 C238 C 1.04680 0.95492 0.53848
 C239 C 0.95246 0.95114 0.46388
 C240 C 1.05405 0.95667 0.46671
 C241 C 0.94482 0.95555 0.53601
 O242 O 0.56137 0.52618 -0.02618
 O243 O 0.43500 0.52462 0.02743
 O244 O 0.45708 0.51867 -0.04349
 O245 O 0.53956 0.52215 0.04489
 O246 O 0.43941 0.53963 -0.01208
 O247 O 0.55612 0.54257 0.01305
 O248 O 0.48249 0.54242 0.04047
 O249 O 0.51323 0.54154 -0.03950
 C250 C 0.54390 0.54676 -0.03743
 C251 C 0.45160 0.54626 0.03838
 C252 C 0.44234 0.54186 -0.03329
 C253 C 0.55346 0.54540 0.03424
 O254 O 0.56371 0.47609 0.02638
 O255 O 0.43478 0.47233 -0.02427
 O256 O 0.53828 0.47908 -0.04409
 O257 O 0.46014 0.47924 0.04618
 O258 O 0.44184 0.45758 0.01515
 O259 O 0.55727 0.45943 -0.01267
 O260 O 0.51697 0.45868 0.04078
 O261 O 0.48231 0.45647 -0.03841
 Co262 Co 0.55382 0.50094 0.00020
 Co263 Co 0.44356 0.49866 0.00149
 Co264 Co 0.49784 0.49903 -0.03714
 Co265 Co 0.49969 0.50053 0.03881
 O266 O 0.49873 0.49979 0.00084
 C267 C 0.54776 0.45486 0.03807
 C268 C 0.45167 0.45153 -0.03578
 C269 C 0.55353 0.45635 -0.03376
 C270 C 0.44558 0.45564 0.03631
 C271 C 0.27103 1.21591 0.20875
 C272 C 0.28119 1.20156 0.19170
 C273 C 0.29538 1.18448 0.17197
 C274 C 0.31463 1.20239 0.15576
 C275 C 0.33126 1.18539 0.13780
 C276 C 0.32887 1.15022 0.13590
 C277 C 0.30887 1.13255 0.15203
 C278 C 0.29230 1.14960 0.16998
 C279 C 0.34792 1.13192 0.11759
 C280 C 0.33306 1.10466 0.10581
 C281 C 0.35124 1.08719 0.08881
 C282 C 0.38448 1.09668 0.08339
 C283 C 0.39950 1.12373 0.09500
 C284 C 0.38137 1.14125 0.11201
 C285 C 0.40283 1.07910 0.06553
 C286 C 0.41767 1.06458 0.05022
 H287 H 0.31732 1.22939 0.15725
 H288 H 0.34610 1.19973 0.12548
 H289 H 0.30690 1.10545 0.15120
 H290 H 0.27778 1.13549 0.18262
 H291 H 0.30725 1.09712 0.10955
 H292 H 0.33931 1.06640 0.07980
 H293 H 0.42522 1.13128 0.09092
 H294 H 0.39368 1.16179 0.12102
 C295 C 0.77926 0.71505 0.71113
 C296 C 0.79068 0.70033 0.69460
 C297 C 0.80560 0.68290 0.67525
 C298 C 0.80570 0.64777 0.67472
 C299 C 0.82196 0.63072 0.65664
 C300 C 0.83844 0.64865 0.63886
 C301 C 0.83787 0.68399 0.63942
 C302 C 0.82155 0.70099 0.65752
 C303 C 0.85657 0.63051 0.62003
 C304 C 0.88819 0.64206 0.61198
 C305 C 0.90537 0.62482 0.59437
 C306 C 0.89120 0.59586 0.58458
 C307 C 0.85979 0.58415 0.59247
 C308 C 0.84258 0.60133 0.61009
 C309 C 0.90851 0.57850 0.56613
 C310 C 0.92256 0.56409 0.55042
 H311 H 0.79366 0.63354 0.68848
 H312 H 0.82233 0.60353 0.65686
 H313 H 0.84995 0.69849 0.62583
 H314 H 0.82167 0.72820 0.65781
 H315 H 0.89984 0.66416 0.61950
 H316 H 0.92968 0.63409 0.58838
 H317 H 0.84851 0.56185 0.58492
 H318 H 0.81812 0.59204 0.61572
 C319 C 0.72985 0.79566 0.20226
 C320 C 0.71711 0.80993 0.18603
 C321 C 0.69980 0.82622 0.16720
 C322 C 0.68063 0.80707 0.15160
 C323 C 0.66119 0.82292 0.13453
 C324 C 0.66062 0.85818 0.13290
 C325 C 0.68049 0.87717 0.14841
 C326 C 0.69990 0.86126 0.16549
 C327 C 0.63887 0.87508 0.11540
 C328 C 0.62058 0.90427 0.12126
 C329 C 0.59998 0.92009 0.10480
 C330 C 0.59737 0.90694 0.08232
 C331 C 0.61538 0.87790 0.07634
 C332 C 0.63598 0.86203 0.09276
 C333 C 0.57708 0.92370 0.06512
 C334 C 0.56090 0.93764 0.05022
 H335 H 0.68012 0.77993 0.15296
 H336 H 0.64586 0.80763 0.12304
 H337 H 0.68094 0.90433 0.14738
 H338 H 0.71452 0.87629 0.17758
 H339 H 0.62189 0.91464 0.13864
 H340 H 0.58618 0.94260 0.10959
 H341 H 0.61371 0.86766 0.05893
 H342 H 0.65005 0.83986 0.08765
 C343 C 1.23310 0.29261 0.70121
 C344 C 1.22215 0.30648 0.68422
 C345 C 1.20630 0.32273 0.66479
 C346 C 1.18613 0.30396 0.64956
 C347 C 1.16704 0.32014 0.63244
 C348 C 1.16779 0.35536 0.63044
 C349 C 1.18889 0.37391 0.64544
 C350 C 1.20795 0.35767 0.66255
 C351 C 1.14576 0.37274 0.61334
 C352 C 1.12864 0.40249 0.61948
 C353 C 1.10750 0.41863 0.60350
 C354 C 1.10315 0.40522 0.58123
 C355 C 1.12003 0.37564 0.57496
 C356 C 1.14118 0.35945 0.59090
 C357 C 1.08224 0.42225 0.56451
 C358 C 1.06555 0.43642 0.54997
 H359 H 1.18434 0.27693 0.65138
 H360 H 1.15076 0.30520 0.62135
 H361 H 1.19036 0.40099 0.64410
 H362 H 1.22326 0.37242 0.67440
 H363 H 1.13123 0.41304 0.63674
 H364 H 1.09460 0.44156 0.60851
 H365 H 1.11703 0.36519 0.55769
 H366 H 1.15428 0.33680 0.58559
 C367 C 0.72670 1.20740 -0.20395
 C368 C 0.71415 1.19293 -0.18775
 C369 C 0.69711 1.17633 -0.16895
 C370 C 0.67859 1.19526 -0.15285
 C371 C 0.65946 1.17917 -0.13574
 C372 C 0.65855 1.14387 -0.13456
 C373 C 0.67775 1.12509 -0.15059
 C374 C 0.69686 1.14125 -0.16770
 C375 C 0.63714 1.12675 -0.11699
 C376 C 0.61830 1.09798 -0.12298
 C377 C 0.59797 1.08198 -0.10646
 C378 C 0.59618 1.09455 -0.08378
 C379 C 0.61477 1.12316 -0.07767
 C380 C 0.63510 1.13920 -0.09415
 C381 C 0.57611 1.07765 -0.06653
 C382 C 0.56012 1.06361 -0.05159
 H383 H 0.67833 1.22245 -0.15385
 H384 H 0.64463 1.19431 -0.12385
 H385 H 0.67791 1.09790 -0.14992
 H386 H 0.71096 1.12638 -0.18018
 H387 H 0.61897 1.08808 -0.14051
 H388 H 0.58372 1.05981 -0.11135
 H389 H 0.61373 1.13295 -0.06010
 H390 H 0.64959 1.16104 -0.08894
 C391 C 1.23045 0.70987 0.29798
 C392 C 1.21938 0.69556 0.31474
 C393 C 1.20368 0.67871 0.33396
 C394 C 1.18533 0.69726 0.35037
 C395 C 1.16659 0.68075 0.36750
 C396 C 1.16586 0.64543 0.36834
 C397 C 1.18509 0.62704 0.35212
 C398 C 1.20382 0.64361 0.33501
 C399 C 1.14425 0.62784 0.38556
 C400 C 1.12537 0.59935 0.37903
 C401 C 1.10467 0.58300 0.39515
 C402 C 1.10255 0.59494 0.41797
 C403 C 1.12118 0.62327 0.42463
 C404 C 1.14189 0.63966 0.40854
 C405 C 1.08197 0.57774 0.43478
 C406 C 1.06552 0.56347 0.44937
 H407 H 1.18472 0.72445 0.34950
 H408 H 1.15174 0.69559 0.37956
 H409 H 1.18540 0.59985 0.35254
 H410 H 1.21773 0.62904 0.32226
 H411 H 1.12625 0.58997 0.36137
 H412 H 1.09036 0.56107 0.38984
 H413 H 1.11986 0.63258 0.44231
 H414 H 1.15637 0.66131 0.41414
 C415 C 0.27304 0.77901 -0.20802
 C416 C 0.28323 0.79369 -0.19112
 C417 C 0.29728 0.81142 -0.17161
 C418 C 0.29407 0.84635 -0.17020
 C419 C 0.31042 0.86406 -0.15246
 C420 C 0.33033 0.84700 -0.13596
 C421 C 0.33284 0.81178 -0.13727
 C422 C 0.31643 0.79412 -0.15501
 C423 C 0.34914 0.86600 -0.11788
 C424 C 0.38258 0.85698 -0.11200
 C425 C 0.40050 0.87518 -0.09523
 C426 C 0.38526 0.90259 -0.08413
 C427 C 0.35202 0.91176 -0.08985
 C428 C 0.33407 0.89362 -0.10663
 C429 C 0.40334 0.92075 -0.06643
 C430 C 0.41799 0.93564 -0.05121
 H431 H 0.27960 0.86000 -0.18312
 H432 H 0.30835 0.89117 -0.15210
 H433 H 0.34762 0.79791 -0.12464
 H434 H 0.31920 0.76708 -0.15604
 H435 H 0.39505 0.83616 -0.12059
 H436 H 0.42621 0.86786 -0.09090
 H437 H 0.33992 0.93281 -0.08124
 H438 H 0.30825 0.90094 -0.11059
 C439 C 0.78224 0.28048 0.28841
 C440 C 0.79367 0.29552 0.30480
 C441 C 0.80849 0.31348 0.32393
 C442 C 0.80878 0.34862 0.32389
 C443 C 0.82483 0.36617 0.34183
 C444 C 0.84090 0.34874 0.36003
 C445 C 0.84016 0.31339 0.36003
 C446 C 0.82405 0.29589 0.34207
 C447 C 0.85875 0.36739 0.37874
 C448 C 0.89015 0.35594 0.38726
 C449 C 0.90703 0.37361 0.40479
 C450 C 0.89279 0.40293 0.41402
 C451 C 0.86160 0.41456 0.40564
 C452 C 0.84469 0.39695 0.38810
 C453 C 0.90975 0.42067 0.43244
 C454 C 0.92354 0.43530 0.44816
 H455 H 0.79704 0.36245 0.30982
 H456 H 0.82535 0.39334 0.34118
 H457 H 0.85191 0.29929 0.37395
 H458 H 0.82401 0.26868 0.34223
 H459 H 0.90185 0.33354 0.38018
 H460 H 0.93116 0.36439 0.41116
 H461 H 0.85026 0.43713 0.41277
 H462 H 0.82038 0.40618 0.38210
 C463 C 1.21775 0.28127 0.20946
 C464 C 1.20394 0.29454 0.19318
 C465 C 1.18691 0.31200 0.17462
 C466 C 1.15181 0.30862 0.17188
 C467 C 1.13465 0.32775 0.15525
 C468 C 1.15233 0.35068 0.14114
 C469 C 1.18774 0.35342 0.14370
 C470 C 1.20487 0.33426 0.16039
 C471 C 1.13374 0.37196 0.12412
 C472 C 1.14722 0.37817 0.10189
 C473 C 1.12909 0.39735 0.08571
 C474 C 1.09736 0.41073 0.09157
 C475 C 1.08402 0.40517 0.11376
 C476 C 1.10206 0.38599 0.12993
 C477 C 1.07747 0.42830 0.07441
 C478 C 1.06001 0.44172 0.05990
 H479 H 1.13761 0.29159 0.18287
 H480 H 1.10749 0.32462 0.15346
 H481 H 1.20205 0.37105 0.13327
 H482 H 1.23201 0.33734 0.16251
 H483 H 1.17136 0.36748 0.09679
 H484 H 1.13955 0.40122 0.06852
 H485 H 1.05945 0.41528 0.11848
 H486 H 1.09123 0.38217 0.14701
 C487 C 0.72390 0.77736 0.70733
 C488 C 0.71302 0.78907 0.68949
 C489 C 0.70024 0.80490 0.66876
 C490 C 0.71911 0.83026 0.65795
 C491 C 0.70557 0.84783 0.63905
 C492 C 0.67292 0.84024 0.63067
 C493 C 0.65450 0.81415 0.64132
 C494 C 0.66805 0.79669 0.66026
 C495 C 0.65734 0.86043 0.61172
 C496 C 0.63734 0.84492 0.59454
 C497 C 0.62029 0.86422 0.57793
 C498 C 0.62299 0.89929 0.57820
 C499 C 0.64363 0.91492 0.59480
 C500 C 0.66079 0.89564 0.61140
 C501 C 0.60203 0.91909 0.56291
 C502 C 0.58266 0.93480 0.55083
 H503 H 0.74403 0.83691 0.66442
 H504 H 0.72052 0.86752 0.63109
 H505 H 0.62911 0.80802 0.63553
 H506 H 0.65308 0.77735 0.66861
 H507 H 0.63451 0.81787 0.59414
 H508 H 0.60426 0.85183 0.56526
 H509 H 0.64563 0.94205 0.59535
 H510 H 0.67564 0.90839 0.62455
 C511 C 1.21822 0.71495 -0.20852
 C512 C 1.20446 0.70188 -0.19215
 C513 C 1.18760 0.68449 -0.17351
 C514 C 1.20627 0.66492 -0.15784
 C515 C 1.18952 0.64556 -0.14109
 C516 C 1.15385 0.64535 -0.13993
 C517 C 1.13542 0.66562 -0.15549
 C518 C 1.15218 0.68498 -0.17216
 C519 C 1.13578 0.62377 -0.12287
 C520 C 1.10614 0.60647 -0.12941
 C521 C 1.08826 0.58723 -0.11322
 C522 C 1.09972 0.58490 -0.09027
 C523 C 1.12954 0.60147 -0.08367
 C524 C 1.14754 0.62070 -0.09988
 C525 C 1.07941 0.56763 -0.07322
 C526 C 1.06116 0.55455 -0.05904
 H527 H 1.23370 0.66407 -0.15889
 H528 H 1.20442 0.63002 -0.12951
 H529 H 1.10799 0.66644 -0.15481
 H530 H 1.13747 0.69988 -0.18426
 H531 H 1.09672 0.60786 -0.14706
 H532 H 1.06515 0.57464 -0.11852
 H533 H 1.13849 0.60012 -0.06589
 H534 H 1.17009 0.63393 -0.09426
 C535 C 0.72464 1.22009 0.29223
 C536 C 0.71260 1.20906 0.30990
 C537 C 0.69801 1.19394 0.33030
 C538 C 0.66501 1.20230 0.33710
 C539 C 0.64939 1.18493 0.35528
 C540 C 0.66650 1.15878 0.36686
 C541 C 0.70011 1.15133 0.36042
 C542 C 0.71571 1.16876 0.34221
 C543 C 0.64864 1.13825 0.38464
 C544 C 0.66532 1.12732 0.40492
 C545 C 0.64821 1.10765 0.42137
 C546 C 0.61432 1.09856 0.41766
 C547 C 0.59767 1.10921 0.39750
 C548 C 0.61463 1.12884 0.38113
 C549 C 0.59584 1.07894 0.43445
 C550 C 0.57814 1.06317 0.44762
 H551 H 0.65104 1.22166 0.32797
 H552 H 0.62371 1.19165 0.36007
 H553 H 0.71386 1.13116 0.36882
 H554 H 0.74119 1.16191 0.33698
 H555 H 0.69142 1.13435 0.40820
 H556 H 0.66133 1.09968 0.43696
 H557 H 0.57146 1.10233 0.39442
 H558 H 0.60123 1.13625 0.36553
 C559 C 0.78656 0.73492 0.19774
 C560 C 0.79812 0.72502 0.17956
 C561 C 0.81185 0.71168 0.15824
 C562 C 0.80108 0.68025 0.15021
 C563 C 0.81609 0.66585 0.13056
 C564 C 0.84216 0.68271 0.11858
 C565 C 0.85209 0.71478 0.12641
 C566 C 0.83708 0.72911 0.14613
 C567 C 0.86027 0.66593 0.09901
 C568 C 0.89572 0.66883 0.09690
 C569 C 0.91330 0.65053 0.08000
 C570 C 0.89583 0.62908 0.06489
 C571 C 0.86046 0.62678 0.06633
 C572 C 0.84277 0.64515 0.08321
 C573 C 0.91472 0.60688 0.04986
 C574 C 0.93175 0.58728 0.03887
 H575 H 0.78163 0.66648 0.15948
 H576 H 0.80813 0.64097 0.12527
 H577 H 0.87171 0.72866 0.11743
 H578 H 0.84558 0.75349 0.15215
 H579 H 0.91011 0.68409 0.10896
 H580 H 0.94072 0.65219 0.07928
 H581 H 0.84665 0.61007 0.05486
 H582 H 0.81547 0.64264 0.08416
 C583 C 0.28494 1.22670 0.70224
 C584 C 0.29774 1.21366 0.68548
 C585 C 0.31333 1.19676 0.66609
 C586 C 0.29696 1.16958 0.65544
 C587 C 0.31339 1.15122 0.63800
 C588 C 0.34651 1.15975 0.63105
 C589 C 0.36231 1.18774 0.64141
 C590 C 0.34585 1.20603 0.65883
 C591 C 0.36518 1.13874 0.61391
 C592 C 0.39970 1.13140 0.61742
 C593 C 0.41748 1.11154 0.60155
 C594 C 0.40113 1.09858 0.58192
 C595 C 0.36672 1.10554 0.57824
 C596 C 0.34880 1.12545 0.59417
 C597 C 0.42039 1.07879 0.56559
 C598 C 0.43861 1.06302 0.55274
 H599 H 0.27184 1.16207 0.66103
 H600 H 0.30066 1.12966 0.63054
 H601 H 0.38755 1.19530 0.63619
 H602 H 0.35877 1.22700 0.66695
 H603 H 0.41291 1.14067 0.63263
 H604 H 0.44409 1.10629 0.60461
 H605 H 0.35383 1.09575 0.56306
 H606 H 0.32231 1.13083 0.59090
 C607 C 0.78326 0.26842 -0.19947
 C608 C 0.79501 0.27854 -0.18143
 C609 C 0.80906 0.29227 -0.16035
 C610 C 0.79819 0.32373 -0.15242
 C611 C 0.81365 0.33861 -0.13311
 C612 C 0.84028 0.32220 -0.12140
 C613 C 0.85031 0.29008 -0.12910
 C614 C 0.83484 0.27528 -0.14846
 C615 C 0.85885 0.33948 -0.10228
 C616 C 0.89440 0.33695 -0.10072
 C617 C 0.91232 0.35550 -0.08413
 C618 C 0.89510 0.37684 -0.06881
 C619 C 0.85967 0.37885 -0.06974
 C620 C 0.84164 0.36024 -0.08631
 C621 C 0.91423 0.39872 -0.05373
 C622 C 0.93142 0.41776 -0.04242
 H623 H 0.77833 0.33717 -0.16154
 H624 H 0.80560 0.36351 -0.12792
 H625 H 0.87037 0.27656 -0.12030
 H626 H 0.84345 0.25090 -0.15442
 H627 H 0.90854 0.32170 -0.11292
 H628 H 0.93976 0.35399 -0.08376
 H629 H 0.84605 0.39541 -0.05806
 H630 H 0.81428 0.36245 -0.08684
 C631 C 0.28356 0.77452 0.29833
 C632 C 0.29591 0.78688 0.31548
 C633 C 0.31071 0.80311 0.33541
 C634 C 0.29801 0.83409 0.34299
 C635 C 0.31409 0.85143 0.36104
 C636 C 0.34320 0.83801 0.37174
 C637 C 0.35510 0.80633 0.36446
 C638 C 0.33901 0.78907 0.34639
 C639 C 0.36216 0.85774 0.38945
 C640 C 0.39783 0.85809 0.38917
 C641 C 0.41592 0.87747 0.40515
 C642 C 0.39877 0.89686 0.42168
 C643 C 0.36327 0.89661 0.42228
 C644 C 0.34504 0.87717 0.40625
 C645 C 0.41821 0.91710 0.43761
 C646 C 0.43669 0.93320 0.45007
 H647 H 0.27617 0.84525 0.33455
 H648 H 0.30450 0.87589 0.36603
 H649 H 0.37711 0.79506 0.37258
 H650 H 0.34904 0.76510 0.34068
 H651 H 0.41181 0.84398 0.37623
 H652 H 0.44339 0.87757 0.40445
 H653 H 0.34971 0.91149 0.43502
 H654 H 0.31760 0.87720 0.40705
 C655 C 1.20755 1.21792 0.29042
 C656 C 1.19195 1.20545 0.30617
 C657 C 1.17451 1.19114 0.32567
 C658 C 1.14555 1.20679 0.33468
 C659 C 1.12918 1.19326 0.35408
 C660 C 1.14173 1.16399 0.36474
 C661 C 1.17103 1.14865 0.35563
 C662 C 1.18731 1.16219 0.33625
 C663 C 1.12386 1.14877 0.38481
 C664 C 1.14232 1.13481 0.40337
 C665 C 1.12562 1.11765 0.42118
 C666 C 1.09030 1.11438 0.42072
 C667 C 1.07161 1.12923 0.40278
 C668 C 1.08826 1.14641 0.38495
 C669 C 1.07368 1.09267 0.43706
 C670 C 1.05997 1.07276 0.44968
 H671 H 1.13574 1.22950 0.32678
 H672 H 1.10692 1.20582 0.36086
 H673 H 1.18102 1.12584 0.36325
 H674 H 1.20987 1.15006 0.32950
 H675 H 1.16971 1.13664 0.40389
 H676 H 1.14033 1.10604 0.43490
 H677 H 1.04429 1.12649 0.40212
 H678 H 1.07340 1.15655 0.37077
 C679 C 0.70838 0.71813 -0.21014
 C680 C 0.69235 0.70548 -0.19466
 C681 C 0.67449 0.69095 -0.17539
 C682 C 0.68982 0.66547 -0.16238
 C683 C 0.67307 0.65181 -0.14322
 C684 C 0.64074 0.66355 -0.13676
 C685 C 0.62563 0.68938 -0.14986
 C686 C 0.64246 0.70302 -0.16904
 C687 C 0.62252 0.64805 -0.11692
 C688 C 0.58772 0.64068 -0.11862
 C689 C 0.57120 0.62341 -0.10079
 C690 C 0.58917 0.61341 -0.08099
 C691 C 0.62352 0.62159 -0.07878
 C692 C 0.64011 0.63887 -0.09660
 C693 C 0.57319 0.59182 -0.06424
 C694 C 0.55981 0.57211 -0.05129
 H695 H 0.71472 0.65613 -0.16707
 H696 H 0.68516 0.63164 -0.13370
 H697 H 0.60095 0.69919 -0.14516
 H698 H 0.63058 0.72305 -0.17885
 H699 H 0.57359 0.64703 -0.13415
 H700 H 0.54468 0.61686 -0.10280
 H701 H 0.63772 0.61379 -0.06359
 H702 H 0.66680 0.64461 -0.09465
 C703 C 0.79622 1.21252 0.71661
 C704 C 0.81112 1.20069 0.70030
 C705 C 0.82719 1.18753 0.67985
 C706 C 0.81054 1.18979 0.65843
 C707 C 0.82567 1.17678 0.63841
 C708 C 0.85773 1.16138 0.63958
 C709 C 0.87442 1.15955 0.66118
 C710 C 0.85921 1.17256 0.68120
 C711 C 0.87320 1.14608 0.61860
 C712 C 0.90826 1.14883 0.61451
 C713 C 0.92325 1.13188 0.59588
 C714 C 0.90339 1.11210 0.58107
 C715 C 0.86833 1.11013 0.58452
 C716 C 0.85327 1.12709 0.60312
 C717 C 0.91948 1.09077 0.56421
 C718 C 0.93342 1.07127 0.55136
 H719 H 0.78578 1.20152 0.65723
 H720 H 0.81237 1.17886 0.62201
 H721 H 0.89888 1.14737 0.66269
 H722 H 0.87227 1.17068 0.69771
 H723 H 0.92416 1.16362 0.62595
 H724 H 0.95047 1.13333 0.59348
 H725 H 0.85281 1.09451 0.57334
 H726 H 0.82629 1.12415 0.60598
 C727 C 0.29440 0.71251 0.21639
 C728 C 0.30941 0.70015 0.20031
 C729 C 0.32587 0.68602 0.18031
 C730 C 0.31392 0.65593 0.17082
 C731 C 0.32892 0.64271 0.15082
 C732 C 0.35604 0.65953 0.14000
 C733 C 0.36776 0.68989 0.14962
 C734 C 0.35269 0.70307 0.16965
 C735 C 0.37260 0.64479 0.11920
 C736 C 0.40815 0.64488 0.11714
 C737 C 0.42391 0.62829 0.09865
 C738 C 0.40438 0.61159 0.08195
 C739 C 0.36897 0.61239 0.08338
 C740 C 0.35314 0.62896 0.10186
 C741 C 0.42071 0.59051 0.06502
 C742 C 0.43466 0.57118 0.05206
 H743 H 0.29297 0.64270 0.17885
 H744 H 0.31966 0.61905 0.14404
 H745 H 0.38832 0.70359 0.14153
 H746 H 0.36180 0.72665 0.17671
 H747 H 0.42382 0.65650 0.13034
 H748 H 0.45136 0.62746 0.09786
 H749 H 0.35362 0.59934 0.07063
 H750 H 0.32571 0.62890 0.10280
 C751 C 1.21016 0.77836 0.71031
 C752 C 1.19538 0.79198 0.69465
 C753 C 1.17923 0.80816 0.67533
 C754 C 1.19661 0.83318 0.66317
 C755 C 1.18137 0.84893 0.64421
 C756 C 1.14839 0.83996 0.63722
 C757 C 1.13128 0.81440 0.64937
 C758 C 1.14668 0.79855 0.66831
 C759 C 1.13153 0.85817 0.61794
 C760 C 1.11098 0.84110 0.60177
 C761 C 1.09433 0.85880 0.58412
 C762 C 1.09812 0.89367 0.58248
 C763 C 1.11876 0.91072 0.59834
 C764 C 1.13532 0.89316 0.61594
 C765 C 1.07971 0.91275 0.56548
 C766 C 1.06450 0.93088 0.55240
 H767 H 1.22195 0.84056 0.66838
 H768 H 1.19542 0.86810 0.63499
 H769 H 1.10574 0.80720 0.64456
 H770 H 1.13314 0.77901 0.67754
 H771 H 1.10785 0.81412 0.60274
 H772 H 1.07828 0.84541 0.57197
 H773 H 1.12158 0.93777 0.59734
 H774 H 1.15043 0.90712 0.62834
 C775 C 0.71297 0.27842 0.20923
 C776 C 0.69789 0.29202 0.19370
 C777 C 0.68140 0.30812 0.17446
 C778 C 0.64781 0.30031 0.16879
 C779 C 0.63211 0.31606 0.14992
 C780 C 0.64994 0.33973 0.13649
 C781 C 0.68389 0.34691 0.14214
 C782 C 0.69945 0.33123 0.16102
 C783 C 0.63293 0.35787 0.11722
 C784 C 0.63883 0.39240 0.11404
 C785 C 0.62221 0.40995 0.09645
 C786 C 0.59940 0.39337 0.08179
 C787 C 0.59349 0.35895 0.08462
 C788 C 0.61022 0.34125 0.10223
 C789 C 0.58088 0.41261 0.06492
 C790 C 0.56560 0.43080 0.05191
 H791 H 0.63372 0.28225 0.17902
 H792 H 0.60585 0.31027 0.14615
 H793 H 0.69847 0.36458 0.13193
 H794 H 0.72557 0.33718 0.16515
 H795 H 0.65565 0.40606 0.12553
 H796 H 0.62667 0.43667 0.09456
 H797 H 0.57573 0.34593 0.07342
 H798 H 0.60543 0.31461 0.10412
 C799 C 0.79970 0.79099 0.28166
 C800 C 0.81480 0.80296 0.29784
 C801 C 0.83123 0.81641 0.31808
 C802 C 0.81684 0.84379 0.32971
 C803 C 0.83169 0.85599 0.35007
 C804 C 0.86112 0.84086 0.35912
 C805 C 0.87535 0.81324 0.34734
 C806 C 0.86043 0.80107 0.32695
 C807 C 0.87738 0.85461 0.38036
 C808 C 0.91286 0.85793 0.38158
 C809 C 0.92800 0.87371 0.40063
 C810 C 0.90795 0.88624 0.41875
 C811 C 0.87274 0.88200 0.41810
 C812 C 0.85753 0.86619 0.39906
 C813 C 0.92319 0.90690 0.43639
 C814 C 0.93634 0.92609 0.44983
 H815 H 0.79406 0.85563 0.32308
 H816 H 0.82042 0.87758 0.35853
 H817 H 0.89776 0.80084 0.35402
 H818 H 0.87147 0.77955 0.31824
 H819 H 0.92879 0.84967 0.36736
 H820 H 0.95524 0.87729 0.40081
 H821 H 0.85696 0.89185 0.43194
 H822 H 0.83020 0.86356 0.39877
 C823 C 0.29587 0.29064 -0.21657
 C824 C 0.31097 0.30267 -0.20040
 C825 C 0.32749 0.31624 -0.18023
 C826 C 0.31588 0.34633 -0.17050
 C827 C 0.33074 0.35882 -0.15022
 C828 C 0.35737 0.34129 -0.13935
 C829 C 0.36880 0.31098 -0.14923
 C830 C 0.35387 0.29852 -0.16953
 C831 C 0.37367 0.35518 -0.11816
 C832 C 0.40916 0.35442 -0.11567
 C833 C 0.42472 0.37025 -0.09678
 C834 C 0.40504 0.38684 -0.08009
 C835 C 0.36966 0.38666 -0.08196
 C836 C 0.35404 0.37086 -0.10084
 C837 C 0.42125 0.40744 -0.06282
 C838 C 0.43504 0.42656 -0.04962
 H839 H 0.29526 0.36006 -0.17854
 H840 H 0.32170 0.38245 -0.14324
 H841 H 0.38897 0.29674 -0.14112
 H842 H 0.36269 0.27493 -0.17676
 H843 H 0.42497 0.34289 -0.12883
 H844 H 0.45216 0.37064 -0.09567
 H845 H 0.35420 0.39966 -0.06924
 H846 H 0.32665 0.37142 -0.10211
 C847 C 1.21586 0.28377 -0.20889
 C848 C 1.20238 0.29788 -0.19281
 C849 C 1.18582 0.31643 -0.17457
 C850 C 1.20482 0.33611 -0.15915
 C851 C 1.18842 0.35640 -0.14274
 C852 C 1.15275 0.35741 -0.14168
 C853 C 1.13396 0.33710 -0.15701
 C854 C 1.15039 0.31682 -0.17335
 C855 C 1.13506 0.37970 -0.12483
 C856 C 1.10567 0.39733 -0.13149
 C857 C 1.08796 0.41696 -0.11540
 C858 C 1.09938 0.41937 -0.09244
 C859 C 1.12904 0.40257 -0.08576
 C860 C 1.14685 0.38295 -0.10186
 C861 C 1.07907 0.43659 -0.07535
 C862 C 1.06102 0.44931 -0.06088
 H863 H 1.23227 0.33629 -0.16012
 H864 H 1.20358 0.37194 -0.13131
 H865 H 1.10651 0.33688 -0.15638
 H866 H 1.13542 0.30185 -0.18528
 H867 H 1.09626 0.39580 -0.14914
 H868 H 1.06496 0.42970 -0.12075
 H869 H 1.13793 0.40396 -0.06797
 H870 H 1.16920 0.36947 -0.09614
 C871 C 0.72225 0.77599 0.29247
 C872 C 0.71078 0.78674 0.31044
 C873 C 0.69717 0.80131 0.33141
 C874 C 0.67324 0.78387 0.34469
 C875 C 0.65827 0.79923 0.36404
 C876 C 0.66691 0.83237 0.37033
 C877 C 0.69168 0.84931 0.35719
 C878 C 0.70665 0.83389 0.33789
 C879 C 0.64882 0.84988 0.38959
 C880 C 0.66597 0.87247 0.40436
 C881 C 0.64822 0.89062 0.42135
 C882 C 0.61317 0.88635 0.42386
 C883 C 0.59608 0.86344 0.40958
 C884 C 0.61370 0.84537 0.39261
 C885 C 0.59396 0.90667 0.43994
 C886 C 0.57601 0.92353 0.45233
 H887 H 0.66573 0.75864 0.33987
 H888 H 0.63969 0.78528 0.37395
 H889 H 0.69862 0.87495 0.36130
 H890 H 0.72505 0.84769 0.32769
 H891 H 0.69304 0.87628 0.40269
 H892 H 0.66174 0.90833 0.43225
 H893 H 0.56890 0.86012 0.41121
 H894 H 0.59956 0.82869 0.38133
 C895 C 0.78599 0.73273 -0.19811
 C896 C 0.79720 0.72227 -0.17999
 C897 C 0.81058 0.70836 -0.15877
 C898 C 0.83349 0.72670 -0.14518
 C899 C 0.84817 0.71209 -0.12546
 C900 C 0.84022 0.67885 -0.11911
 C901 C 0.81647 0.66098 -0.13258
 C902 C 0.80180 0.67565 -0.15223
 C903 C 0.85809 0.66208 -0.09946
 C904 C 0.84104 0.63908 -0.08499
 C905 C 0.85877 0.62092 -0.06805
 C906 C 0.89372 0.62563 -0.06523
 C907 C 0.91065 0.64924 -0.07899
 C908 C 0.89302 0.66736 -0.09594
 C909 C 0.91303 0.60401 -0.05008
 C910 C 0.93054 0.58516 -0.03884
 H911 H 0.84043 0.75207 -0.15003
 H912 H 0.86597 0.72671 -0.11532
 H913 H 0.81013 0.63522 -0.12844
 H914 H 0.78417 0.66117 -0.16266
 H915 H 0.81410 0.63473 -0.08702
 H916 H 0.84541 0.60257 -0.05761
 H917 H 0.93777 0.65283 -0.07718
 H918 H 0.90708 0.68442 -0.10695
 C919 C 0.28694 1.22730 0.29926
 C920 C 0.29921 1.21492 0.31646
 C921 C 0.31379 1.19885 0.33657
 C922 C 0.30642 1.16512 0.34122
 C923 C 0.32207 1.14868 0.35983
 C924 C 0.34538 1.16576 0.37413
 C925 C 0.35193 1.19994 0.36965
 C926 C 0.33630 1.21632 0.35098
 C927 C 0.36402 1.14755 0.39281
 C928 C 0.39867 1.15400 0.39667
 C929 C 0.41688 1.13559 0.41316
 C930 C 0.40088 1.11042 0.42610
 C931 C 0.36629 1.10414 0.42273
 C932 C 0.34795 1.12260 0.40623
 C933 C 0.42083 1.08996 0.44164
 C934 C 0.43936 1.07309 0.45361
 H935 H 0.28908 1.15132 0.33015
 H936 H 0.31674 1.12230 0.36255
 H937 H 0.36932 1.21399 0.38050
 H938 H 0.34212 1.24245 0.34761
 H939 H 0.41203 1.17254 0.38642
 H940 H 0.44371 1.14049 0.41543
 H941 H 0.35362 1.08465 0.43257
 H942 H 0.32125 1.11724 0.40389
 C943 C 1.21495 0.72198 0.20802
 C944 C 1.20169 0.70886 0.19147
 C945 C 1.18540 0.69143 0.17261
 C946 C 1.15008 0.69248 0.17050
 C947 C 1.13375 0.67301 0.15368
 C948 C 1.15253 0.65207 0.13873
 C949 C 1.18813 0.65178 0.14060
 C950 C 1.20444 0.67127 0.15750
 C951 C 1.13485 0.63018 0.12166
 C952 C 1.14741 0.62626 0.09892
 C953 C 1.12981 0.60666 0.08270
 C954 C 1.09962 0.59057 0.08904
 C955 C 1.08737 0.59376 0.11175
 C956 C 1.10484 0.61336 0.12795
 C957 C 1.07982 0.57275 0.07198
 C958 C 1.06192 0.55906 0.05786
 H959 H 1.13509 0.70787 0.18217
 H960 H 1.10637 0.67423 0.15241
 H961 H 1.20326 0.63573 0.12948
 H962 H 1.23180 0.67002 0.15913
 H963 H 1.17029 0.63908 0.09352
 H964 H 1.13937 0.60460 0.06511
 H965 H 1.06398 0.58152 0.11684
 H966 H 1.09484 0.61540 0.14542
 C967 C 0.71904 1.22747 0.70582
 C968 C 0.70803 1.21681 0.68770
 C969 C 0.69507 1.20227 0.66655
 C970 C 0.70731 1.17110 0.65900
 C971 C 0.69279 1.15527 0.63970
 C972 C 0.66576 1.17043 0.62764
 C973 C 0.65448 1.20237 0.63489
 C974 C 0.66898 1.21810 0.65425
 C975 C 0.64800 1.15209 0.60862
 C976 C 0.61244 1.15365 0.60681
 C977 C 0.59529 1.13475 0.59007
 C978 C 0.61327 1.11390 0.57483
 C979 C 0.64871 1.11255 0.57614
 C980 C 0.66599 1.13156 0.59290
 C981 C 0.59469 1.09271 0.55898
 C982 C 0.57700 1.07514 0.54691
 H983 H 0.72747 1.15858 0.66843
 H984 H 0.70185 1.13057 0.63482
 H985 H 0.63413 1.21501 0.62578
 H986 H 0.65935 1.24226 0.65990
 H987 H 0.59770 1.16863 0.61885
 H988 H 0.56784 1.13580 0.58937
 H989 H 0.66292 1.09645 0.56448
 H990 H 0.69339 1.13004 0.59365
 C991 C 0.79021 0.26074 0.19802
 C992 C 0.80202 0.27086 0.18001
 C993 C 0.81591 0.28476 0.15897
 C994 C 0.83968 0.26677 0.14584
 C995 C 0.85471 0.28154 0.12631
 C996 C 0.84612 0.31451 0.11967
 C997 C 0.82162 0.33202 0.13271
 C998 C 0.80671 0.31725 0.15221
 C999 C 0.86407 0.33155 0.10023
 C1000 C 0.84662 0.35360 0.08529
 C1001 C 0.86426 0.37257 0.06879
 C1002 C 0.89953 0.36964 0.06688
 C1003 C 0.91693 0.34681 0.08103
 C1004 C 0.89936 0.32784 0.09754
 C1005 C 0.91835 0.39265 0.05250
 C1006 C 0.93483 0.41308 0.04192
 H1007 H 0.84702 0.24160 0.15092
 H1008 H 0.87324 0.26729 0.11651
 H1009 H 0.81486 0.35762 0.12837
 H1010 H 0.78860 0.33153 0.16236
 H1011 H 0.81941 0.35673 0.08672
 H1012 H 0.85053 0.39032 0.05805
 H1013 H 0.94427 0.34463 0.07992
 H1014 H 0.91364 0.31149 0.10895
 C1015 C 0.28943 0.76614 0.70171
 C1016 C 0.30294 0.77792 0.68477
 C1017 C 0.31955 0.79336 0.66519
 C1018 C 0.35494 0.79265 0.66361
 C1019 C 0.37148 0.81011 0.64587
 C1020 C 0.35287 0.82876 0.62945
 C1021 C 0.31721 0.82853 0.63076
 C1022 C 0.30069 0.81099 0.64855
 C1023 C 0.37078 0.84942 0.61175
 C1024 C 0.35896 0.85143 0.58868
 C1025 C 0.37633 0.87082 0.57218
 C1026 C 0.40557 0.88855 0.57859
 C1027 C 0.41722 0.88691 0.60153
 C1028 C 0.40002 0.86758 0.61796
 C1029 C 0.42458 0.90788 0.56188
 C1030 C 0.44252 0.92413 0.54913
 H1031 H 0.36982 0.77912 0.67638
 H1032 H 0.39891 0.80928 0.64512
 H1033 H 0.30217 0.84283 0.61852
 H1034 H 0.27327 0.81182 0.64964
 H1035 H 0.33667 0.83757 0.58332
 H1036 H 0.36713 0.87177 0.55446
 H1037 H 0.43978 0.90053 0.60672
 H1038 H 0.40944 0.86711 0.63563
 C1039 C 0.26772 1.21722 -0.20746
 C1040 C 0.27783 1.20309 -0.19032
 C1041 C 0.29218 1.18638 -0.17051
 C1042 C 0.31196 1.20453 -0.15469
 C1043 C 0.32896 1.18786 -0.13678
 C1044 C 0.32648 1.15274 -0.13453
 C1045 C 0.30591 1.13483 -0.15022
 C1046 C 0.28893 1.15157 -0.16812
 C1047 C 0.34614 1.13480 -0.11637
 C1048 C 0.36247 1.10423 -0.12151
 C1049 C 0.38163 1.08769 -0.10458
 C1050 C 0.38472 1.10147 -0.08231
 C1051 C 0.36847 1.13179 -0.07699
 C1052 C 0.34932 1.14838 -0.09390
 C1053 C 0.40428 1.08445 -0.06481
 C1054 C 0.42024 1.07046 -0.04981
 H1055 H 0.31497 1.23145 -0.15657
 H1056 H 0.34493 1.20230 -0.12517
 H1057 H 0.30314 1.10786 -0.14875
 H1058 H 0.27386 1.13727 -0.18038
 H1059 H 0.36093 1.09339 -0.13875
 H1060 H 0.39412 1.06425 -0.10888
 H1061 H 0.37057 1.14259 -0.05976
 H1062 H 0.33676 1.17166 -0.08934
 C1063 C 0.77839 0.71468 0.28821
 C1064 C 0.78991 0.70024 0.30480
 C1065 C 0.80516 0.68364 0.32434
 C1066 C 0.79820 0.64981 0.32882
 C1067 C 0.81458 0.63331 0.34709
 C1068 C 0.83820 0.65047 0.36109
 C1069 C 0.84469 0.68461 0.35658
 C1070 C 0.82828 0.70105 0.33832
 C1071 C 0.85645 0.63276 0.38003
 C1072 C 0.86253 0.64888 0.40140
 C1073 C 0.88029 0.63242 0.41906
 C1074 C 0.89221 0.59967 0.41562
 C1075 C 0.88618 0.58335 0.39448
 C1076 C 0.86841 0.59976 0.37678
 C1077 C 0.91054 0.58291 0.43385
 C1078 C 0.92570 0.56925 0.44937
 H1079 H 0.78038 0.63611 0.31806
 H1080 H 0.80872 0.60716 0.35032
 H1081 H 0.86306 0.69841 0.36682
 H1082 H 0.83401 0.72719 0.33488
 H1083 H 0.85329 0.67409 0.40454
 H1084 H 0.88470 0.64523 0.43541
 H1085 H 0.89534 0.55801 0.39163
 H1086 H 0.86455 0.58685 0.36043
 C1087 C 0.73175 1.20153 0.20198
 C1088 C 0.71832 1.18818 0.18562
 C1089 C 0.70008 1.17329 0.16662
 C1090 C 0.70086 1.13852 0.16313
 C1091 C 0.68067 1.12390 0.14590
 C1092 C 0.65937 1.14392 0.13199
 C1093 C 0.65921 1.17893 0.13541
 C1094 C 0.67940 1.19348 0.15264
 C1095 C 0.63690 1.12836 0.11431
 C1096 C 0.63223 1.14367 0.09252
 C1097 C 0.61093 1.12908 0.07594
 C1098 C 0.59397 1.09907 0.08091
 C1099 C 0.59835 1.08367 0.10254
 C1100 C 0.61965 1.09822 0.11916
 C1101 C 0.57310 1.08354 0.06345
 C1102 C 0.55650 1.07048 0.04837
 H1103 H 0.71663 1.12267 0.17397
 H1104 H 0.68168 1.09695 0.14347
 H1105 H 0.64277 1.19497 0.12522
 H1106 H 0.67831 1.22040 0.15541
 H1107 H 0.64546 1.16664 0.08817
 H1108 H 0.60792 1.14105 0.05916
 H1109 H 0.58539 1.06038 0.10654
 H1110 H 0.62234 1.08609 0.13589
 C1111 C 1.23405 0.70330 0.70151
 C1112 C 1.22208 0.69015 0.68456
 C1113 C 1.20499 0.67526 0.66510
 C1114 C 1.20648 0.64055 0.66148
 C1115 C 1.18650 0.62567 0.64424
 C1116 C 1.16468 0.64537 0.63051
 C1117 C 1.16401 0.68036 0.63393
 C1118 C 1.18400 0.69517 0.65115
 C1119 C 1.14189 0.62943 0.61320
 C1120 C 1.13637 0.64454 0.59144
 C1121 C 1.11460 0.62966 0.57527
 C1122 C 1.09803 0.59958 0.58065
 C1123 C 1.10326 0.58439 0.60226
 C1124 C 1.12503 0.59922 0.61846
 C1125 C 1.07684 0.58368 0.56357
 C1126 C 1.06013 0.57028 0.54870
 H1127 H 1.22243 0.62490 0.67233
 H1128 H 1.18790 0.59873 0.64179
 H1129 H 1.14717 0.69614 0.62384
 H1130 H 1.18231 0.72203 0.65406
 H1131 H 1.14926 0.66758 0.58679
 H1132 H 1.11094 0.64145 0.55850
 H1133 H 1.09064 0.56104 0.60655
 H1134 H 1.12837 0.58727 0.63520
 C1135 C 0.72977 0.79399 -0.20214
 C1136 C 0.71654 0.80756 -0.18579
 C1137 C 0.69850 0.82285 -0.16685
 C1138 C 0.67582 0.80356 -0.15378
 C1139 C 0.65589 0.81872 -0.13666
 C1140 C 0.65834 0.85345 -0.13243
 C1141 C 0.68167 0.87253 -0.14540
 C1142 C 0.70159 0.85729 -0.16254
 C1143 C 0.63616 0.86978 -0.11490
 C1144 C 0.62132 0.90127 -0.11943
 C1145 C 0.60025 0.91652 -0.10296
 C1146 C 0.59371 0.90049 -0.08182
 C1147 C 0.60827 0.86915 -0.07717
 C1148 C 0.62933 0.85385 -0.09360
 C1149 C 0.57306 0.91663 -0.06450
 C1150 C 0.55659 0.93011 -0.04953
 H1151 H 0.67298 0.77692 -0.15718
 H1152 H 0.63788 0.80343 -0.12719
 H1153 H 0.68446 0.89922 -0.14233
 H1154 H 0.71896 0.87246 -0.17265
 H1155 H 0.62570 0.91394 -0.13579
 H1156 H 0.58917 0.94084 -0.10670
 H1157 H 0.60357 0.85665 -0.06077
 H1158 H 0.64069 0.82981 -0.08949
 C1159 C 1.23382 0.29194 0.29942
 C1160 C 1.22219 0.30547 0.31634
 C1161 C 1.20548 0.32097 0.33573
 C1162 C 1.20662 0.35584 0.33859
 C1163 C 1.18684 0.37127 0.35570
 C1164 C 1.16555 0.35196 0.37006
 C1165 C 1.16527 0.31683 0.36741
 C1166 C 1.18507 0.30147 0.35031
 C1167 C 1.14290 0.36844 0.38720
 C1168 C 1.13803 0.35432 0.40935
 C1169 C 1.11635 0.36967 0.42536
 C1170 C 1.09922 0.39924 0.41944
 C1171 C 1.10381 0.41346 0.39745
 C1172 C 1.12550 0.39816 0.38141
 C1173 C 1.07795 0.41556 0.43629
 C1174 C 1.06109 0.42923 0.45096
 H1175 H 1.22213 0.37117 0.32724
 H1176 H 1.18794 0.39832 0.35755
 H1177 H 1.14885 0.30133 0.37800
 H1178 H 1.18366 0.27448 0.34799
 H1179 H 1.15135 0.33168 0.41439
 H1180 H 1.11317 0.35863 0.44242
 H1181 H 1.09073 0.43641 0.39274
 H1182 H 1.12832 0.40934 0.36438
 C1183 C 0.26825 0.78691 0.20794
 C1184 C 0.27874 0.80096 0.19088
 C1185 C 0.29342 0.81736 0.17108
 C1186 C 0.31298 0.79881 0.15535
 C1187 C 0.33007 0.81508 0.13732
 C1188 C 0.32788 0.85018 0.13485
 C1189 C 0.30758 0.86851 0.15049
 C1190 C 0.29051 0.85218 0.16851
 C1191 C 0.34751 0.86767 0.11647
 C1192 C 0.36409 0.89819 0.12131
 C1193 C 0.38317 0.91432 0.10416
 C1194 C 0.38592 0.90016 0.08198
 C1195 C 0.36944 0.86988 0.07697
 C1196 C 0.35037 0.85370 0.09409
 C1197 C 0.40532 0.91680 0.06424
 C1198 C 0.42111 0.93050 0.04905
 H1199 H 0.31568 0.77188 0.15735
 H1200 H 0.34584 0.80033 0.12576
 H1201 H 0.30505 0.89549 0.14885
 H1202 H 0.27559 0.86677 0.18069
 H1203 H 0.36279 0.90932 0.13847
 H1204 H 0.39584 0.93775 0.10821
 H1205 H 0.37128 0.85880 0.05981
 H1206 H 0.33759 0.83045 0.08976
 C1207 C 0.77466 0.28878 0.71019
 C1208 C 0.78601 0.30327 0.69358
 C1209 C 0.80107 0.31992 0.67402
 C1210 C 0.80108 0.35501 0.67275
 C1211 C 0.81780 0.37121 0.65452
 C1212 C 0.83478 0.35246 0.63735
 C1213 C 0.83417 0.31716 0.63860
 C1214 C 0.81745 0.30102 0.65685
 C1215 C 0.85371 0.36961 0.61850
 C1216 C 0.85274 0.35716 0.59562
 C1217 C 0.87110 0.37298 0.57799
 C1218 C 0.89067 0.40141 0.58297
 C1219 C 0.89173 0.41407 0.60565
 C1220 C 0.87337 0.39830 0.62331
 C1221 C 0.90958 0.41753 0.56477
 C1222 C 0.92512 0.43079 0.54928
 H1223 H 0.78854 0.36984 0.68601
 H1224 H 0.81746 0.39839 0.65385
 H1225 H 0.84736 0.30205 0.62582
 H1226 H 0.81784 0.27383 0.65781
 H1227 H 0.83753 0.33538 0.59132
 H1228 H 0.87001 0.36306 0.56046
 H1229 H 0.90685 0.43603 0.60969
 H1230 H 0.87500 0.40820 0.64081
 C1231 C 1.20526 1.21917 0.71035
 C1232 C 1.19023 1.20667 0.69433
 C1233 C 1.17392 1.19216 0.67440
 C1234 C 1.18607 1.16193 0.66523
 C1235 C 1.17139 1.14834 0.64525
 C1236 C 1.14436 1.16489 0.63411
 C1237 C 1.13235 1.19535 0.64343
 C1238 C 1.14713 1.20894 0.66344
 C1239 C 1.12821 1.14969 0.61332
 C1240 C 1.09269 1.14930 0.61105
 C1241 C 1.07736 1.13189 0.59274
 C1242 C 1.09733 1.11488 0.57641
 C1243 C 1.13271 1.11628 0.57799
 C1244 C 1.14808 1.13366 0.59628
 C1245 C 1.08159 1.09257 0.55998
 C1246 C 1.06832 1.07203 0.54759
 H1247 H 1.20696 1.14890 0.67350
 H1248 H 1.18084 1.12459 0.63873
 H1249 H 1.11181 1.20882 0.63511
 H1250 H 1.13786 1.23261 0.67025
 H1251 H 1.07671 1.16109 0.62401
 H1252 H 1.04994 1.13057 0.59185
 H1253 H 1.14839 1.10297 0.56556
 H1254 H 1.17549 1.13395 0.59739
 C1255 C 0.70906 0.71925 0.20872
 C1256 C 0.69389 0.70679 0.19273
 C1257 C 0.67734 0.69238 0.17284
 C1258 C 0.64867 0.70780 0.16324
 C1259 C 0.63344 0.69429 0.14336
 C1260 C 0.64683 0.66526 0.13280
 C1261 C 0.67578 0.65012 0.14255
 C1262 C 0.69093 0.66365 0.16240
 C1263 C 0.63012 0.64998 0.11222
 C1264 C 0.64961 0.63581 0.09420
 C1265 C 0.63395 0.61834 0.07606
 C1266 C 0.59863 0.61500 0.07559
 C1267 C 0.57895 0.63017 0.09291
 C1268 C 0.59455 0.64763 0.11109
 C1269 C 0.58290 0.59260 0.05921
 C1270 C 0.56956 0.57200 0.04688
 H1271 H 0.63822 0.73033 0.17103
 H1272 H 0.61140 0.70671 0.13612
 H1273 H 0.68639 0.62747 0.13508
 H1274 H 0.71328 0.65169 0.16960
 H1275 H 0.67701 0.63766 0.09440
 H1276 H 0.64944 0.60646 0.06284
 H1277 H 0.55161 0.62736 0.09289
 H1278 H 0.57886 0.65792 0.12480
 C1279 C 1.20455 0.78439 0.28967
 C1280 C 1.18978 0.79686 0.30581
 C1281 C 1.17386 0.81125 0.32592
 C1282 C 1.14758 0.79422 0.33723
 C1283 C 1.13329 0.80763 0.35746
 C1284 C 1.14527 0.83818 0.36664
 C1285 C 1.17178 0.85500 0.35514
 C1286 C 1.18600 0.84156 0.33495
 C1287 C 1.12958 0.85320 0.38766
 C1288 C 1.14975 0.86959 0.40436
 C1289 C 1.13471 0.88686 0.42283
 C1290 C 1.09937 0.88780 0.42491
 C1291 C 1.07915 0.87041 0.40894
 C1292 C 1.09414 0.85311 0.39046
 C1293 C 1.08378 0.91003 0.44145
 C1294 C 1.07040 0.93043 0.45390
 H1295 H 1.13834 0.77048 0.33053
 H1296 H 1.11316 0.79395 0.36606
 H1297 H 1.18118 0.87882 0.36154
 H1298 H 1.20655 0.85476 0.32643
 H1299 H 1.17713 0.86968 0.40286
 H1300 H 1.15058 0.90047 0.43500
 H1301 H 1.05175 0.87136 0.41022
 H1302 H 1.07793 0.84104 0.37776
 C1303 C 0.70571 0.28385 -0.21026
 C1304 C 0.69077 0.29625 -0.19416
 C1305 C 0.67463 0.31059 -0.17411
 C1306 C 0.64645 0.29490 -0.16408
 C1307 C 0.63171 0.30829 -0.14400
 C1308 C 0.64511 0.33748 -0.13368
 C1309 C 0.67356 0.35290 -0.14386
 C1310 C 0.68823 0.33949 -0.16391
 C1311 C 0.62891 0.35263 -0.11288
 C1312 C 0.64883 0.36687 -0.09512
 C1313 C 0.63357 0.38425 -0.07677
 C1314 C 0.59826 0.38743 -0.07587
 C1315 C 0.57818 0.37220 -0.09294
 C1316 C 0.59337 0.35482 -0.11131
 C1317 C 0.58285 0.40969 -0.05926
 C1318 C 0.56965 0.43010 -0.04672
 H1319 H 0.63604 0.27223 -0.17169
 H1320 H 0.61005 0.29567 -0.13643
 H1321 H 0.68415 0.37567 -0.13656
 H1322 H 0.71021 0.35164 -0.17144
 H1323 H 0.67623 0.36515 -0.09567
 H1324 H 0.64936 0.39617 -0.06374
 H1325 H 0.55084 0.37490 -0.09257
 H1326 H 0.57737 0.34446 -0.12482
 C1327 C 0.80158 1.20343 0.28160
 C1328 C 0.81586 1.19119 0.29800
 C1329 C 0.83104 1.17764 0.31863
 C1330 C 0.85572 1.19600 0.33065
 C1331 C 0.86872 1.18388 0.35164
 C1332 C 0.85701 1.15330 0.36088
 C1333 C 0.83221 1.13506 0.34861
 C1334 C 0.81929 1.14721 0.32766
 C1335 C 0.87116 1.13983 0.38286
 C1336 C 0.84999 1.12365 0.39904
 C1337 C 0.86381 1.10784 0.41852
 C1338 C 0.89888 1.10819 0.42216
 C1339 C 0.92000 1.12545 0.40671
 C1340 C 0.90624 1.14128 0.38720
 C1341 C 0.91360 1.08699 0.43965
 C1342 C 0.92647 1.06720 0.45276
 H1343 H 0.86457 1.21987 0.32397
 H1344 H 0.88753 1.19862 0.36080
 H1345 H 0.82307 1.11120 0.35508
 H1346 H 0.79992 1.13301 0.31859
 H1347 H 0.82283 1.12257 0.39633
 H1348 H 0.84728 1.09425 0.43025
 H1349 H 0.94725 1.12543 0.40918
 H1350 H 0.92322 1.15322 0.37495
 C1351 C 0.29747 0.70392 -0.21636
 C1352 C 0.31172 0.69181 -0.19989
 C1353 C 0.32706 0.67845 -0.17925
 C1354 C 0.35279 0.69629 -0.16793
 C1355 C 0.36627 0.68426 -0.14707
 C1356 C 0.35402 0.65427 -0.13725
 C1357 C 0.32809 0.63659 -0.14878
 C1358 C 0.31467 0.64866 -0.16962
 C1359 C 0.36886 0.64075 -0.11549
 C1360 C 0.34809 0.62535 -0.09871
 C1361 C 0.36247 0.60941 -0.07945
 C1362 C 0.39771 0.60888 -0.07664
 C1363 C 0.41847 0.62540 -0.09270
 C1364 C 0.40416 0.64133 -0.11197
 C1365 C 0.41281 0.58755 -0.05937
 C1366 C 0.42600 0.56770 -0.04645
 H1367 H 0.36217 0.71967 -0.17509
 H1368 H 0.38596 0.69859 -0.13847
 H1369 H 0.31849 0.61316 -0.14187
 H1370 H 0.29450 0.63486 -0.17814
 H1371 H 0.32079 0.62496 -0.10076
 H1372 H 0.34619 0.59643 -0.06723
 H1373 H 0.44582 0.62470 -0.09087
 H1374 H 0.42084 0.65266 -0.12469
 C1375 C 0.80104 0.79118 0.71891
 C1376 C 0.81597 0.80353 0.70281
 C1377 C 0.83182 0.81748 0.68254
 C1378 C 0.85615 0.79897 0.67028
 C1379 C 0.86970 0.81159 0.64960
 C1380 C 0.85881 0.84279 0.64086
 C1381 C 0.83443 0.86122 0.65339
 C1382 C 0.82102 0.84860 0.67407
 C1383 C 0.87326 0.85660 0.61907
 C1384 C 0.85238 0.87356 0.60309
 C1385 C 0.86646 0.88954 0.58376
 C1386 C 0.90152 0.88860 0.58008
 C1387 C 0.92234 0.87061 0.59535
 C1388 C 0.90830 0.85458 0.61469
 C1389 C 0.91650 0.90978 0.56267
 C1390 C 0.92929 0.92960 0.54952
 H1391 H 0.86430 0.77461 0.67654
 H1392 H 0.88822 0.79674 0.64023
 H1393 H 0.82596 0.88555 0.64732
 H1394 H 0.80197 0.86298 0.68332
 H1395 H 0.82524 0.87507 0.60581
 H1396 H 0.85015 0.90364 0.57216
 H1397 H 0.94957 0.87014 0.59285
 H1398 H 0.92504 0.84196 0.62678
 C1399 C 0.29754 0.29016 0.21750
 C1400 C 0.31225 0.30242 0.20127
 C1401 C 0.32815 0.31632 0.18099
 C1402 C 0.35437 0.29892 0.16983
 C1403 C 0.36857 0.31168 0.14940
 C1404 C 0.35653 0.34194 0.13982
 C1405 C 0.33011 0.35916 0.15118
 C1406 C 0.31600 0.34638 0.17159
 C1407 C 0.37195 0.35611 0.11844
 C1408 C 0.35154 0.37167 0.10151
 C1409 C 0.36630 0.38794 0.08253
 C1410 C 0.40160 0.38869 0.08015
 C1411 C 0.42206 0.37214 0.09639
 C1412 C 0.40735 0.35584 0.11539
 C1413 C 0.41690 0.40999 0.06292
 C1414 C 0.42988 0.42979 0.04985
 H1415 H 0.36358 0.27534 0.17679
 H1416 H 0.38863 0.29769 0.14092
 H1417 H 0.32063 0.38275 0.14444
 H1418 H 0.29550 0.35988 0.17999
 H1419 H 0.32418 0.37184 0.10320
 H1420 H 0.35024 0.40091 0.07017
 H1421 H 0.44944 0.37296 0.09488
 H1422 H 0.42375 0.34437 0.12822
   
