data_POSCAR
  _audit_creation_date              2014-09-24
  _audit_creation_method            'ToBaCCo'
  _symmetry_space_group_name_H-M    'P1'
  _symmetry_Int_Tables_number       1
  _symmetry_cell_setting            triclinic
  loop_
  _symmetry_equiv_pos_as_xyz
 x,y,z
_cell_length_a 65.6790
_cell_length_b 65.8343
_cell_length_c 66.1715
_cell_angle_alpha 89.956100
_cell_angle_beta 89.968100
_cell_angle_gamma 89.953200
loop_
  _atom_site_label
  _atom_site_type_symbol
  _atom_site_fract_x
  _atom_site_fract_y
  _atom_site_fract_z
N1 N 0.36463 0.30883 0.32290
 N2 N 0.36418 0.32280 0.30871
 C3 C 0.38050 0.32043 0.29659
 C4 C 0.39182 0.30408 0.30360
 C5 C 0.38123 0.29715 0.32035
 H6 H 0.38401 0.33004 0.28382
 H7 H 0.38554 0.28488 0.33032
 Cu8 Cu 0.34282 0.34327 0.30865
 Cu9 Cu 0.34436 0.30744 0.34446
 Cu10 Cu 0.30728 0.34513 0.34475
 N11 N 0.32244 0.36473 0.30883
 N12 N 0.30861 0.36532 0.32317
 C13 C 0.29695 0.38193 0.32065
 C14 C 0.30376 0.39238 0.30378
 C15 C 0.32001 0.38096 0.29665
 H16 H 0.28476 0.38632 0.33071
 H17 H 0.32952 0.38435 0.28375
 N18 N 0.30864 0.32334 0.36520
 N19 N 0.32257 0.30888 0.36494
 C20 C 0.31981 0.29675 0.38111
 C21 C 0.30343 0.30396 0.39218
 C22 C 0.29675 0.32084 0.38160
 H23 H 0.32925 0.28381 0.38471
 H24 H 0.28441 0.33084 0.38577
 H25 H 0.32106 0.32168 0.32919
 H26 H 0.33800 0.33816 0.34474
 N27 N 0.36578 0.80991 -0.17659
 N28 N 0.36571 0.82422 -0.19045
 C29 C 0.38193 0.82165 -0.20266
 C30 C 0.39290 0.80485 -0.19603
 C31 C 0.38206 0.79784 -0.17943
 H32 H 0.38560 0.83150 -0.21520
 H33 H 0.38599 0.78527 -0.16969
 Cu34 Cu 0.34505 0.84546 -0.19024
 Cu35 Cu 0.34568 0.80860 -0.15493
 Cu36 Cu 0.31150 0.84859 -0.15228
 N37 N 0.32391 0.86626 -0.19003
 N38 N 0.31092 0.86747 -0.17498
 C39 C 0.29835 0.88331 -0.17807
 C40 C 0.30366 0.89265 -0.19614
 C41 C 0.31997 0.88128 -0.20331
 H42 H 0.28614 0.88746 -0.16794
 H43 H 0.32822 0.88363 -0.21724
 N44 N 0.31151 0.82592 -0.13282
 N45 N 0.32430 0.81051 -0.13408
 C46 C 0.32039 0.79740 -0.11893
 C47 C 0.30442 0.80492 -0.10749
 C48 C 0.29911 0.82300 -0.11686
 H49 H 0.32843 0.78329 -0.11655
 H50 H 0.28688 0.83312 -0.11263
 H51 H 0.32289 0.82476 -0.16931
 H52 H 0.34191 0.83920 -0.15403
 N53 N 0.86505 0.30983 -0.17724
 N54 N 0.86465 0.32371 -0.19151
 C55 C 0.88110 0.32133 -0.20345
 C56 C 0.89248 0.30513 -0.19621
 C57 C 0.88176 0.29824 -0.17955
 H58 H 0.88465 0.33089 -0.21624
 H59 H 0.88603 0.28601 -0.16951
 Cu60 Cu 0.84335 0.34429 -0.19256
 Cu61 Cu 0.84466 0.30855 -0.15598
 Cu62 Cu 0.80782 0.34606 -0.15570
 N63 N 0.82285 0.36567 -0.19150
 N64 N 0.80912 0.36634 -0.17707
 C65 C 0.79744 0.38295 -0.17959
 C66 C 0.80412 0.39336 -0.19659
 C67 C 0.82033 0.38183 -0.20373
 H68 H 0.78527 0.38730 -0.16949
 H69 H 0.82974 0.38497 -0.21676
 N70 N 0.80898 0.32428 -0.13533
 N71 N 0.82286 0.30981 -0.13563
 C72 C 0.82018 0.29769 -0.11944
 C73 C 0.80386 0.30493 -0.10831
 C74 C 0.79714 0.32180 -0.11889
 H75 H 0.82967 0.28479 -0.11585
 H76 H 0.78486 0.33185 -0.11464
 H77 H 0.82152 0.32283 -0.17174
 H78 H 0.83864 0.33942 -0.15633
 N79 N 0.86515 0.80960 0.32327
 N80 N 0.86493 0.82374 0.30923
 C81 C 0.88137 0.82138 0.29727
 C82 C 0.89255 0.80492 0.30423
 C83 C 0.88171 0.79786 0.32076
 H84 H 0.88514 0.83118 0.28471
 H85 H 0.88585 0.78546 0.33063
 Cu86 Cu 0.84402 0.84470 0.30925
 Cu87 Cu 0.84480 0.80823 0.34466
 Cu88 Cu 0.80764 0.84576 0.34481
 N89 N 0.82311 0.86568 0.30927
 N90 N 0.80897 0.86598 0.32333
 C91 C 0.79715 0.88245 0.32071
 C92 C 0.80419 0.89322 0.30409
 C93 C 0.82074 0.88201 0.29721
 H94 H 0.78473 0.88655 0.33061
 H95 H 0.83053 0.88557 0.28458
 N96 N 0.80895 0.82398 0.36524
 N97 N 0.82293 0.80958 0.36504
 C98 C 0.82032 0.79759 0.38134
 C99 C 0.80398 0.80485 0.39243
 C100 C 0.79715 0.82158 0.38171
 H101 H 0.82988 0.78477 0.38505
 H102 H 0.78485 0.83162 0.38591
 H103 H 0.82180 0.82269 0.32899
 H104 H 0.83835 0.83892 0.34521
 N105 N 0.63296 0.68925 0.32515
 N106 N 0.63344 0.67551 0.31077
 C107 C 0.61776 0.67876 0.29805
 C108 C 0.60675 0.69536 0.30492
 C109 C 0.61693 0.70163 0.32215
 H110 H 0.61475 0.66993 0.28463
 H111 H 0.61330 0.71451 0.33160
 Cu112 Cu 0.65452 0.65477 0.31056
 Cu113 Cu 0.65332 0.69037 0.34662
 Cu114 Cu 0.69058 0.65287 0.34624
 N115 N 0.67504 0.63345 0.31043
 N116 N 0.68919 0.63294 0.32445
 C117 C 0.70156 0.61702 0.32104
 C118 C 0.69477 0.60683 0.30402
 C119 C 0.67788 0.61776 0.29767
 H120 H 0.71475 0.61335 0.33008
 H121 H 0.66856 0.61474 0.28456
 N122 N 0.68921 0.67436 0.36699
 N123 N 0.67517 0.68872 0.36699
 C124 C 0.67855 0.70124 0.38271
 C125 C 0.69542 0.69439 0.39326
 C126 C 0.70178 0.67732 0.38278
 H127 H 0.66961 0.71461 0.38603
 H128 H 0.71490 0.66799 0.38611
 H129 H 0.67658 0.67635 0.33089
 H130 H 0.65992 0.65971 0.34659
 N131 N 0.63430 0.18948 -0.17624
 N132 N 0.63468 0.17557 -0.19045
 C133 C 0.61840 0.17813 -0.20259
 C134 C 0.60719 0.19452 -0.19553
 C135 C 0.61781 0.20132 -0.17879
 H136 H 0.61480 0.16856 -0.21534
 H137 H 0.61361 0.21365 -0.16886
 Cu138 Cu 0.65564 0.15466 -0.19054
 Cu139 Cu 0.65446 0.19060 -0.15465
 Cu140 Cu 0.69153 0.15300 -0.15459
 N141 N 0.67652 0.13365 -0.19061
 N142 N 0.69042 0.13308 -0.17637
 C143 C 0.70241 0.11676 -0.17920
 C144 C 0.69569 0.10638 -0.19618
 C145 C 0.67916 0.11764 -0.20302
 H146 H 0.71477 0.11256 -0.16930
 H147 H 0.66962 0.11438 -0.21590
 N148 N 0.69003 0.17449 -0.13387
 N149 N 0.67611 0.18896 -0.13408
 C150 C 0.67924 0.20138 -0.11823
 C151 C 0.69584 0.19435 -0.10737
 C152 C 0.70229 0.17728 -0.11780
 H153 H 0.67028 0.21474 -0.11497
 H154 H 0.71522 0.16780 -0.11421
 H155 H 0.67767 0.17640 -0.17029
 H156 H 0.66089 0.15998 -0.15448
 N157 N 0.13437 0.68993 -0.17658
 N158 N 0.13462 0.67582 -0.19060
 C159 C 0.11820 0.67817 -0.20256
 C160 C 0.10702 0.69461 -0.19561
 C161 C 0.11780 0.70167 -0.17907
 H162 H 0.11459 0.66849 -0.21525
 H163 H 0.11368 0.71410 -0.16922
 Cu164 Cu 0.15584 0.65520 -0.19145
 Cu165 Cu 0.15486 0.69141 -0.15547
 Cu166 Cu 0.19223 0.65431 -0.15554
 N167 N 0.17650 0.63403 -0.19060
 N168 N 0.19095 0.63403 -0.17687
 C169 C 0.20301 0.61775 -0.17969
 C170 C 0.19569 0.60681 -0.19603
 C171 C 0.17880 0.61763 -0.20254
 H172 H 0.21594 0.61403 -0.17029
 H173 H 0.16876 0.61372 -0.21486
 N174 N 0.19091 0.67605 -0.13516
 N175 N 0.17681 0.69032 -0.13528
 C176 C 0.17934 0.70228 -0.11898
 C177 C 0.19573 0.69512 -0.10793
 C178 C 0.20270 0.67849 -0.11870
 H179 H 0.16963 0.71498 -0.11521
 H180 H 0.21507 0.66851 -0.11453
 H181 H 0.17786 0.67725 -0.17148
 H182 H 0.16135 0.66066 -0.15543
 N183 N 0.13473 0.19065 0.32286
 N184 N 0.13522 0.17667 0.30871
 C185 C 0.11906 0.17916 0.29644
 C186 C 0.10774 0.19553 0.30332
 C187 C 0.11819 0.20241 0.32015
 H188 H 0.11562 0.16953 0.28369
 H189 H 0.11390 0.21478 0.32999
 Cu190 Cu 0.15609 0.15572 0.30855
 Cu191 Cu 0.15501 0.19201 0.34431
 Cu192 Cu 0.19251 0.15495 0.34425
 N193 N 0.17716 0.13496 0.30879
 N194 N 0.19147 0.13487 0.32265
 C195 C 0.20361 0.11864 0.31975
 C196 C 0.19647 0.10786 0.30324
 C197 C 0.17963 0.11871 0.29669
 H198 H 0.21645 0.11484 0.32922
 H199 H 0.16965 0.11479 0.28433
 N200 N 0.19094 0.17651 0.36482
 N201 N 0.17681 0.19075 0.36472
 C202 C 0.17941 0.20278 0.38097
 C203 C 0.19592 0.19571 0.39195
 C204 C 0.20282 0.17902 0.38121
 H205 H 0.16976 0.21553 0.38469
 H206 H 0.21529 0.16914 0.38528
 H207 H 0.17804 0.17786 0.32838
 H208 H 0.16162 0.16131 0.34453
 N209 N 0.63324 0.30974 0.67503
 N210 N 0.63383 0.32352 0.68937
 C211 C 0.61797 0.32060 0.70197
 C212 C 0.60675 0.30418 0.69506
 C213 C 0.61698 0.29768 0.67792
 H214 H 0.61501 0.32951 0.71535
 H215 H 0.61323 0.28483 0.66849
 Cu216 Cu 0.65536 0.34377 0.68970
 Cu217 Cu 0.65371 0.30816 0.65370
 Cu218 Cu 0.69178 0.34478 0.65430
 N219 N 0.67626 0.36467 0.68988
 N220 N 0.69066 0.36472 0.67608
 C221 C 0.70282 0.38087 0.67901
 C222 C 0.69563 0.39169 0.69549
 C223 C 0.67871 0.38092 0.70199
 H224 H 0.71570 0.38461 0.66957
 H225 H 0.66869 0.38488 0.71433
 N226 N 0.69008 0.32334 0.63357
 N227 N 0.67574 0.30930 0.63347
 C228 C 0.67825 0.29743 0.61709
 C229 C 0.69487 0.30439 0.60624
 C230 C 0.70197 0.32084 0.61718
 H231 H 0.66844 0.28488 0.61318
 H232 H 0.71456 0.33060 0.61322
 H233 H 0.67711 0.32170 0.66953
 H234 H 0.66095 0.33871 0.65369
 N235 N 0.63437 0.80962 1.17541
 N236 N 0.63481 0.82362 1.18955
 C237 C 0.61859 0.82113 1.20177
 C238 C 0.60733 0.80474 1.19486
 C239 C 0.61788 0.79784 1.17810
 H240 H 0.61504 0.83080 1.21447
 H241 H 0.61361 0.78550 1.16823
 Cu242 Cu 0.65553 0.84475 1.18954
 Cu243 Cu 0.65448 0.80831 1.15386
 Cu244 Cu 0.69172 0.84545 1.15348
 N245 N 0.67651 0.86561 1.18896
 N246 N 0.69043 0.86592 1.17469
 C247 C 0.70270 0.88202 1.17755
 C248 C 0.69618 0.89242 1.19457
 C249 C 0.67953 0.88148 1.20143
 H250 H 0.71563 0.88563 1.16811
 H251 H 0.67048 0.88468 1.21469
 N252 N 0.69042 0.82353 1.13326
 N253 N 0.67608 0.80952 1.13330
 C254 C 0.67853 0.79751 1.11702
 C255 C 0.69528 0.80419 1.10619
 C256 C 0.70246 0.82071 1.11701
 H257 H 0.66855 0.78511 1.11306
 H258 H 0.71527 0.83022 1.11317
 H259 H 0.67750 0.82259 1.16971
 H260 H 0.66088 0.83900 1.15357
 N261 N 0.13459 0.30884 1.17573
 N262 N 0.13480 0.32294 1.18976
 C263 C 0.11834 0.32061 1.20168
 C264 C 0.10727 0.30407 1.19485
 C265 C 0.11812 0.29699 1.17834
 H266 H 0.11453 0.33044 1.21419
 H267 H 0.11424 0.28433 1.16871
 Cu268 Cu 0.15618 0.34335 1.19091
 Cu269 Cu 0.15479 0.30773 1.15428
 Cu270 Cu 0.19198 0.34489 1.15433
 N271 N 0.17685 0.36451 1.19006
 N272 N 0.19069 0.36509 1.17574
 C273 C 0.20245 0.38160 1.17834
 C274 C 0.19573 0.39197 1.19529
 C275 C 0.17942 0.38063 1.20233
 H276 H 0.21476 0.38591 1.16840
 H277 H 0.16997 0.38395 1.21528
 N278 N 0.19074 0.32321 1.13389
 N279 N 0.17645 0.30916 1.13378
 C280 C 0.17880 0.29748 1.11725
 C281 C 0.19541 0.30445 1.10639
 C282 C 0.20264 0.32076 1.11748
 H283 H 0.16878 0.28517 1.11311
 H284 H 0.21533 0.33045 1.11368
 H285 H 0.17797 0.32169 1.17018
 H286 H 0.16110 0.33853 1.15473
 N287 N 0.13328 0.80957 0.67455
 N288 N 0.13368 0.82343 0.68883
 C289 C 0.11781 0.82044 0.70136
 C290 C 0.10676 0.80389 0.69450
 C291 C 0.11713 0.79737 0.67746
 H292 H 0.11468 0.82946 0.71463
 H293 H 0.11355 0.78442 0.66810
 Cu294 Cu 0.15484 0.84405 0.68913
 Cu295 Cu 0.15376 0.80818 0.65325
 Cu296 Cu 0.19125 0.84530 0.65363
 N297 N 0.17585 0.86486 0.68940
 N298 N 0.18992 0.86530 0.67528
 C299 C 0.20176 0.88172 0.67800
 C300 C 0.19479 0.89221 0.69476
 C301 C 0.17833 0.88100 0.70165
 H302 H 0.21421 0.88593 0.66819
 H303 H 0.16859 0.88453 0.71433
 N304 N 0.18986 0.82376 0.63304
 N305 N 0.17574 0.80951 0.63301
 C306 C 0.17846 0.79757 0.61672
 C307 C 0.19500 0.80472 0.60587
 C308 C 0.20183 0.82133 0.61671
 H309 H 0.16886 0.78484 0.61288
 H310 H 0.21430 0.83124 0.61271
 H311 H 0.17692 0.82213 0.66913
 H312 H 0.16056 0.83878 0.65313
 N313 N 0.36632 0.68914 0.67414
 N314 N 0.36606 0.67521 0.68838
 C315 C 0.38179 0.67844 0.70103
 C316 C 0.39258 0.69521 0.69429
 C317 C 0.38223 0.70160 0.67719
 H318 H 0.38494 0.66950 0.71437
 H319 H 0.38567 0.71463 0.66787
 Cu320 Cu 0.34509 0.65436 0.68873
 Cu321 Cu 0.34586 0.69039 0.65284
 Cu322 Cu 0.30828 0.65340 0.65358
 N323 N 0.32404 0.63359 0.68909
 N324 N 0.30953 0.63352 0.67541
 C325 C 0.29732 0.61744 0.67859
 C326 C 0.30458 0.60670 0.69509
 C327 C 0.32158 0.61744 0.70137
 H328 H 0.28432 0.61371 0.66932
 H329 H 0.33166 0.61353 0.71367
 N330 N 0.30975 0.67477 0.63273
 N331 N 0.32392 0.68896 0.63259
 C332 C 0.32072 0.70136 0.61672
 C333 C 0.30383 0.69458 0.60620
 C334 C 0.29726 0.67770 0.61686
 H335 H 0.32984 0.71455 0.61324
 H336 H 0.28410 0.66845 0.61357
 H337 H 0.32286 0.67644 0.66904
 H338 H 0.33905 0.65977 0.65283
 N339 N 0.36671 0.18877 1.17393
 N340 N 0.36589 0.17538 1.18864
 C341 C 0.38170 0.17845 1.20122
 C342 C 0.39316 0.19456 1.19397
 C343 C 0.38309 0.20073 1.17661
 H344 H 0.38445 0.16985 1.21486
 H345 H 0.38702 0.21334 1.16691
 Cu346 Cu 0.34426 0.15526 1.19023
 Cu347 Cu 0.34621 0.19006 1.15278
 Cu348 Cu 0.30850 0.15344 1.15357
 N349 N 0.32374 0.13397 1.18932
 N350 N 0.30967 0.13350 1.17524
 C351 C 0.29784 0.11706 1.17808
 C352 C 0.30493 0.10651 1.19478
 C353 C 0.32143 0.11773 1.20150
 H354 H 0.28520 0.11297 1.16846
 H355 H 0.33127 0.11414 1.21408
 N356 N 0.30994 0.17484 1.13280
 N357 N 0.32424 0.18889 1.13260
 C358 C 0.32101 0.20141 1.11683
 C359 C 0.30393 0.19487 1.10644
 C360 C 0.29731 0.17798 1.11708
 H361 H 0.33019 0.21456 1.11336
 H362 H 0.28404 0.16886 1.11387
 H363 H 0.32272 0.17678 1.16900
 H364 H 0.33939 0.15938 1.15397
 N365 N 0.86589 0.68974 1.17460
 N366 N 0.86576 0.67575 1.18875
 C367 C 0.88206 0.67843 1.20079
 C368 C 0.89304 0.69500 1.19381
 C369 C 0.88227 0.70174 1.17710
 H370 H 0.88523 0.66953 1.21415
 H371 H 0.88544 0.71500 1.16800
 Cu372 Cu 0.84362 0.65620 1.19105
 Cu373 Cu 0.84367 0.69287 1.15551
 Cu374 Cu 0.80802 0.65429 1.15412
 N375 N 0.82314 0.63484 1.18994
 N376 N 0.80947 0.63408 1.17548
 C377 C 0.79795 0.61737 1.17794
 C378 C 0.80470 0.60703 1.19489
 C379 C 0.82073 0.61862 1.20213
 H380 H 0.78582 0.61290 1.16789
 H381 H 0.83013 0.61537 1.21513
 N382 N 0.80911 0.67616 1.13387
 N383 N 0.82294 0.69066 1.13424
 C384 C 0.82038 0.70270 1.11799
 C385 C 0.80399 0.69559 1.10690
 C386 C 0.79723 0.67873 1.11748
 H387 H 0.82997 0.71552 1.11437
 H388 H 0.78471 0.66890 1.11349
 H389 H 0.82051 0.67723 1.17079
 H390 H 0.83858 0.66194 1.15510
 N391 N 0.86604 0.18923 0.67421
 N392 N 0.86572 0.17542 0.68856
 C393 C 0.88141 0.17874 0.70124
 C394 C 0.89223 0.19547 0.69441
 C395 C 0.88195 0.20171 0.67721
 H396 H 0.88453 0.16989 0.71464
 H397 H 0.88544 0.21465 0.66777
 Cu398 Cu 0.84475 0.15455 0.68894
 Cu399 Cu 0.84569 0.19031 0.65278
 Cu400 Cu 0.80851 0.15296 0.65327
 N401 N 0.82369 0.13374 0.68932
 N402 N 0.80974 0.13316 0.67511
 C403 C 0.79768 0.11695 0.67812
 C404 C 0.80433 0.10674 0.69518
 C405 C 0.82090 0.11789 0.70192
 H406 H 0.78524 0.11271 0.66833
 H407 H 0.83040 0.11455 0.71483
 N408 N 0.80988 0.17431 0.63245
 N409 N 0.82386 0.18868 0.63241
 C410 C 0.82048 0.20114 0.61661
 C411 C 0.80366 0.19419 0.60606
 C412 C 0.79733 0.17716 0.61662
 H413 H 0.82938 0.21450 0.61323
 H414 H 0.78427 0.16778 0.61332
 H415 H 0.82262 0.17626 0.66880
 H416 H 0.83920 0.15964 0.65291
 N417 N 0.30876 0.36466 0.67601
 N418 N 0.32293 0.36434 0.69002
 C419 C 0.32045 0.38053 0.70222
 C420 C 0.30386 0.39166 0.69544
 C421 C 0.29687 0.38107 0.67876
 H422 H 0.33021 0.38412 0.71485
 H423 H 0.28432 0.38518 0.66904
 Cu424 Cu 0.34386 0.34341 0.68991
 Cu425 Cu 0.30729 0.34435 0.65459
 Cu426 Cu 0.34463 0.30700 0.65453
 N427 N 0.36496 0.32266 0.68976
 N428 N 0.36493 0.30826 0.67601
 C429 C 0.38127 0.29624 0.67877
 C430 C 0.39231 0.30354 0.69506
 C431 C 0.38146 0.32036 0.70164
 H432 H 0.38497 0.28336 0.66936
 H433 H 0.38551 0.33042 0.71387
 N434 N 0.32285 0.30844 0.63410
 N435 N 0.30853 0.32252 0.63422
 C436 C 0.29645 0.31987 0.61800
 C437 C 0.30354 0.30340 0.60703
 C438 C 0.32031 0.29657 0.61773
 H439 H 0.28365 0.32948 0.61427
 H440 H 0.33026 0.28417 0.61364
 H441 H 0.32162 0.32136 0.67031
 H442 H 0.33803 0.33771 0.65402
 N443 N 0.30992 0.86626 0.17392
 N444 N 0.32364 0.86572 0.18836
 C445 C 0.32052 0.88148 0.20095
 C446 C 0.30403 0.89261 0.19397
 C447 C 0.29769 0.88241 0.17678
 H448 H 0.32935 0.88445 0.21438
 H449 H 0.28481 0.88609 0.16731
 Cu450 Cu 0.34414 0.84439 0.18896
 Cu451 Cu 0.30857 0.84578 0.15265
 Cu452 Cu 0.34499 0.80760 0.15394
 N453 N 0.36474 0.82313 0.18955
 N454 N 0.36500 0.80890 0.17564
 C455 C 0.38123 0.79680 0.17865
 C456 C 0.39174 0.80371 0.19543
 C457 C 0.38076 0.82046 0.20197
 H458 H 0.38528 0.78418 0.16905
 H459 H 0.38438 0.83024 0.21457
 N460 N 0.32351 0.80905 0.13319
 N461 N 0.30983 0.82372 0.13253
 C462 C 0.29813 0.82116 0.11603
 C463 C 0.30468 0.80402 0.10579
 C464 C 0.32079 0.79672 0.11719
 H465 H 0.28601 0.83130 0.11155
 H466 H 0.33010 0.78360 0.11392
 H467 H 0.32195 0.82260 0.16906
 H468 H 0.33914 0.83838 0.15299
 N469 N 0.80882 0.36504 0.17594
 N470 N 0.82291 0.36469 0.19003
 C471 C 0.82028 0.38077 0.20233
 C472 C 0.80370 0.39187 0.19553
 C473 C 0.79685 0.38139 0.17873
 H474 H 0.82992 0.38430 0.21506
 H475 H 0.78431 0.38549 0.16900
 Cu476 Cu 0.84387 0.34382 0.18997
 Cu477 Cu 0.80748 0.34482 0.15447
 Cu478 Cu 0.84477 0.30744 0.15453
 N479 N 0.86487 0.32301 0.18990
 N480 N 0.86491 0.30863 0.17614
 C481 C 0.88120 0.29658 0.17902
 C482 C 0.89210 0.30384 0.19540
 C483 C 0.88123 0.32065 0.20193
 H484 H 0.88496 0.28368 0.16965
 H485 H 0.88522 0.33068 0.21420
 N486 N 0.82312 0.30897 0.13397
 N487 N 0.80883 0.32307 0.13405
 C488 C 0.79684 0.32053 0.11775
 C489 C 0.80397 0.30410 0.10676
 C490 C 0.82066 0.29718 0.11754
 H491 H 0.78409 0.33017 0.11399
 H492 H 0.83061 0.28478 0.11345
 H493 H 0.82173 0.32180 0.17025
 H494 H 0.83822 0.33815 0.15405
 N495 N 0.80909 0.86585 0.67533
 N496 N 0.82300 0.86538 0.68959
 C497 C 0.82034 0.88145 0.70190
 C498 C 0.80388 0.89265 0.69496
 C499 C 0.79716 0.88224 0.67804
 H500 H 0.82987 0.88488 0.71475
 H501 H 0.78477 0.88645 0.66816
 Cu502 Cu 0.84382 0.84441 0.68950
 Cu503 Cu 0.80787 0.84560 0.65380
 Cu504 Cu 0.84533 0.80825 0.65409
 N505 N 0.86558 0.82442 0.68917
 N506 N 0.86582 0.81008 0.67536
 C507 C 0.88216 0.79814 0.67832
 C508 C 0.89291 0.80542 0.69479
 C509 C 0.88188 0.82214 0.70132
 H510 H 0.88580 0.78496 0.66929
 H511 H 0.88525 0.83173 0.71412
 N512 N 0.82334 0.80932 0.63380
 N513 N 0.80936 0.82374 0.63345
 C514 C 0.79738 0.82098 0.61718
 C515 C 0.80403 0.80397 0.60680
 C516 C 0.82051 0.79697 0.61784
 H517 H 0.78495 0.83086 0.61299
 H518 H 0.82999 0.78402 0.61436
 H519 H 0.82198 0.82240 0.66944
 H520 H 0.83863 0.83886 0.65356
 N521 N 0.69028 0.63439 0.67584
 N522 N 0.67611 0.63471 0.68986
 C523 C 0.67839 0.61836 0.70190
 C524 C 0.69485 0.60712 0.69501
 C525 C 0.70200 0.61782 0.67843
 H526 H 0.66853 0.61472 0.71446
 H527 H 0.71452 0.61368 0.66868
 Cu528 Cu 0.65530 0.65575 0.68984
 Cu529 Cu 0.69181 0.65475 0.65444
 Cu530 Cu 0.65452 0.69216 0.65440
 N531 N 0.63428 0.67657 0.68978
 N532 N 0.63424 0.69094 0.67599
 C533 C 0.61788 0.70294 0.67881
 C534 C 0.60693 0.69562 0.69519
 C535 C 0.61785 0.67885 0.70175
 H536 H 0.61413 0.71584 0.66942
 H537 H 0.61385 0.66875 0.71399
 N538 N 0.67631 0.69067 0.63388
 N539 N 0.69064 0.67660 0.63407
 C540 C 0.70271 0.67916 0.61780
 C541 C 0.69561 0.69554 0.60670
 C542 C 0.67883 0.70243 0.61740
 H543 H 0.71548 0.66950 0.61410
 H544 H 0.66886 0.71479 0.61322
 H545 H 0.67754 0.67782 0.67012
 H546 H 0.66111 0.66149 0.65392
 N547 N 0.68873 0.13228 0.17298
 N548 N 0.67496 0.13281 0.18737
 C549 C 0.67790 0.11691 0.19986
 C550 C 0.69433 0.10571 0.19288
 C551 C 0.70083 0.11601 0.17578
 H552 H 0.66897 0.11388 0.21323
 H553 H 0.71367 0.11226 0.16627
 Cu554 Cu 0.65443 0.15412 0.18860
 Cu555 Cu 0.69003 0.15273 0.15175
 Cu556 Cu 0.65234 0.18947 0.15174
 N557 N 0.63294 0.17449 0.18764
 N558 N 0.63208 0.18810 0.17315
 C559 C 0.61590 0.20026 0.17623
 C560 C 0.60598 0.19396 0.19363
 C561 C 0.61731 0.17757 0.20048
 H562 H 0.61200 0.21305 0.16676
 H563 H 0.61461 0.16883 0.21404
 N564 N 0.67408 0.18841 0.13128
 N565 N 0.68865 0.17461 0.13146
 C566 C 0.70133 0.17811 0.11584
 C567 C 0.69434 0.19483 0.10516
 C568 C 0.67705 0.20098 0.11548
 H569 H 0.71483 0.16931 0.11263
 H570 H 0.66754 0.21390 0.11202
 H571 H 0.67595 0.17586 0.16759
 H572 H 0.65922 0.15876 0.15236
 N573 N 0.19017 0.63413 0.17526
 N574 N 0.17619 0.63460 0.18945
 C575 C 0.17849 0.61825 0.20148
 C576 C 0.19476 0.60687 0.19440
 C577 C 0.20177 0.61747 0.17771
 H578 H 0.16886 0.61479 0.21426
 H579 H 0.21413 0.61320 0.16782
 Cu580 Cu 0.15561 0.65583 0.19035
 Cu581 Cu 0.19175 0.65458 0.15414
 Cu582 Cu 0.15455 0.69182 0.15399
 N583 N 0.13427 0.67627 0.18916
 N584 N 0.13409 0.69048 0.17522
 C585 C 0.11748 0.70219 0.17775
 C586 C 0.10653 0.69486 0.19411
 C587 C 0.11769 0.67838 0.20095
 H588 H 0.11356 0.71490 0.16817
 H589 H 0.11381 0.66839 0.21331
 N590 N 0.17651 0.69057 0.13373
 N591 N 0.19082 0.67650 0.13395
 C592 C 0.20312 0.67923 0.11789
 C593 C 0.19618 0.69574 0.10690
 C594 C 0.17926 0.70252 0.11744
 H595 H 0.21594 0.66962 0.11428
 H596 H 0.16938 0.71496 0.11328
 H597 H 0.17756 0.67768 0.16998
 H598 H 0.16086 0.66102 0.15423
 N599 N 0.19104 0.13426 0.67594
 N600 N 0.17671 0.13427 0.68980
 C601 C 0.17907 0.11782 0.70169
 C602 C 0.19586 0.10696 0.69504
 C603 C 0.20306 0.11791 0.67864
 H604 H 0.16909 0.11388 0.71407
 H605 H 0.21593 0.11419 0.66916
 Cu606 Cu 0.15598 0.15540 0.69082
 Cu607 Cu 0.19228 0.15461 0.65464
 Cu608 Cu 0.15426 0.19097 0.65412
 N609 N 0.13444 0.17572 0.68969
 N610 N 0.13380 0.18945 0.67529
 C611 C 0.11701 0.20092 0.67763
 C612 C 0.10648 0.19409 0.69445
 C613 C 0.11806 0.17805 0.70173
 H614 H 0.11260 0.21308 0.66758
 H615 H 0.11471 0.16861 0.71466
 N616 N 0.17622 0.19008 0.63392
 N617 N 0.19086 0.17637 0.63424
 C618 C 0.20305 0.17927 0.61811
 C619 C 0.19566 0.19554 0.60701
 C620 C 0.17864 0.20199 0.61755
 H621 H 0.21610 0.16996 0.61452
 H622 H 0.16844 0.21415 0.61332
 H623 H 0.17761 0.17746 0.67033
 H624 H 0.16130 0.16028 0.65470
 N625 N 0.30969 0.63341 0.32416
 N626 N 0.32374 0.63363 0.31000
 C627 C 0.32072 0.61774 0.29753
 C628 C 0.30397 0.60687 0.30433
 C629 C 0.29738 0.61737 0.32126
 H630 H 0.32981 0.61448 0.28431
 H631 H 0.28434 0.61389 0.33060
 Cu632 Cu 0.34455 0.65469 0.30967
 Cu633 Cu 0.30819 0.65398 0.34531
 Cu634 Cu 0.34537 0.69134 0.34487
 N635 N 0.36531 0.67582 0.30932
 N636 N 0.36556 0.68998 0.32332
 C637 C 0.38187 0.70196 0.32050
 C638 C 0.39251 0.69508 0.30378
 C639 C 0.38148 0.67844 0.29704
 H640 H 0.38594 0.71447 0.33024
 H641 H 0.38514 0.66874 0.28438
 N642 N 0.32366 0.69009 0.36540
 N643 N 0.30936 0.67603 0.36544
 C644 C 0.29728 0.67886 0.38165
 C645 C 0.30438 0.69542 0.39245
 C646 C 0.32112 0.70214 0.38164
 H647 H 0.28449 0.66930 0.38549
 H648 H 0.33104 0.71458 0.38559
 H649 H 0.32238 0.67686 0.32922
 H650 H 0.33892 0.66066 0.34557
 N651 N 0.30844 0.13370 0.82297
 N652 N 0.32242 0.13421 0.80876
 C653 C 0.32002 0.11802 0.79656
 C654 C 0.30371 0.10665 0.80354
 C655 C 0.29676 0.11713 0.82034
 H656 H 0.32968 0.11455 0.78380
 H657 H 0.28450 0.11276 0.83031
 Cu658 Cu 0.34331 0.15512 0.80873
 Cu659 Cu 0.30722 0.15378 0.84463
 Cu660 Cu 0.34476 0.19084 0.84480
 N661 N 0.36418 0.17604 0.80871
 N662 N 0.36478 0.18982 0.82306
 C663 C 0.38120 0.20169 0.82028
 C664 C 0.39149 0.19510 0.80322
 C665 C 0.38019 0.17877 0.79627
 H666 H 0.38555 0.21392 0.83024
 H667 H 0.38354 0.16937 0.78330
 N668 N 0.32319 0.18928 0.86544
 N669 N 0.30873 0.17537 0.86525
 C670 C 0.29679 0.17794 0.88161
 C671 C 0.30414 0.19417 0.89274
 C672 C 0.32088 0.20097 0.88197
 H673 H 0.28392 0.16844 0.88531
 H674 H 0.33095 0.21322 0.88612
 H675 H 0.32149 0.17690 0.82901
 H676 H 0.33802 0.16012 0.84482
 N677 N 0.80974 0.63248 0.82476
 N678 N 0.82371 0.63279 0.81055
 C679 C 0.82066 0.61701 0.79798
 C680 C 0.80395 0.60611 0.80476
 C681 C 0.79741 0.61646 0.82180
 H682 H 0.82971 0.61386 0.78471
 H683 H 0.78437 0.61294 0.83113
 Cu684 Cu 0.84450 0.65378 0.81038
 Cu685 Cu 0.80832 0.65298 0.84601
 Cu686 Cu 0.84578 0.69021 0.84561
 N687 N 0.86578 0.67427 0.81030
 N688 N 0.86599 0.68861 0.82410
 C689 C 0.88198 0.70090 0.82080
 C690 C 0.89252 0.69388 0.80409
 C691 C 0.88175 0.67693 0.79778
 H692 H 0.88547 0.71418 0.82973
 H693 H 0.88505 0.66744 0.78487
 N694 N 0.82404 0.68902 0.86610
 N695 N 0.80970 0.67500 0.86617
 C696 C 0.79766 0.67785 0.88240
 C697 C 0.80484 0.69439 0.89317
 C698 C 0.82157 0.70107 0.88234
 H699 H 0.78483 0.66836 0.88626
 H700 H 0.83154 0.71348 0.88629
 H701 H 0.82253 0.67596 0.83017
 H702 H 0.83907 0.65958 0.84629
 N703 N 0.81037 0.13314 0.32497
 N704 N 0.82425 0.13354 0.31066
 C705 C 0.82124 0.11771 0.29813
 C706 C 0.80465 0.10670 0.30503
 C707 C 0.79814 0.11702 0.32209
 H708 H 0.83021 0.11464 0.28479
 H709 H 0.78517 0.11343 0.33150
 Cu710 Cu 0.84487 0.15470 0.31010
 Cu711 Cu 0.80889 0.15372 0.34608
 Cu712 Cu 0.84495 0.19216 0.34453
 N713 N 0.86532 0.17603 0.30951
 N714 N 0.86506 0.19079 0.32288
 C715 C 0.88117 0.20299 0.31973
 C716 C 0.89224 0.19545 0.30356
 C717 C 0.88167 0.17832 0.29745
 H718 H 0.88472 0.21614 0.32883
 H719 H 0.88590 0.16798 0.28548
 N720 N 0.82344 0.19068 0.36530
 N721 N 0.80994 0.17587 0.36606
 C722 C 0.79829 0.17831 0.38263
 C723 C 0.80468 0.19551 0.39282
 C724 C 0.82066 0.20297 0.38134
 H725 H 0.78633 0.16804 0.38721
 H726 H 0.82985 0.21616 0.38460
 H727 H 0.82230 0.17672 0.32944
 H728 H 0.83946 0.16134 0.34592
 N729 N 0.69081 0.36511 0.32284
 N730 N 0.67672 0.36476 0.30878
 C731 C 0.67915 0.38101 0.29661
 C732 C 0.69559 0.39223 0.30353
 C733 C 0.70258 0.38161 0.32022
 H734 H 0.66944 0.38459 0.28393
 H735 H 0.71497 0.38580 0.33007
 Cu736 Cu 0.65571 0.34394 0.30873
 Cu737 Cu 0.69225 0.34483 0.34422
 Cu738 Cu 0.65509 0.30751 0.34436
 N739 N 0.63488 0.32295 0.30903
 N740 N 0.63489 0.30865 0.32287
 C741 C 0.61858 0.29661 0.32016
 C742 C 0.60762 0.30379 0.30377
 C743 C 0.61847 0.32053 0.29706
 H744 H 0.61484 0.28382 0.32968
 H745 H 0.61443 0.33049 0.28472
 N746 N 0.67680 0.30900 0.36481
 N747 N 0.69110 0.32305 0.36460
 C748 C 0.70331 0.32035 0.38072
 C749 C 0.69631 0.30386 0.39172
 C750 C 0.67945 0.29708 0.38114
 H751 H 0.71615 0.32990 0.38434
 H752 H 0.66959 0.28464 0.38525
 H753 H 0.67789 0.32189 0.32841
 H754 H 0.66141 0.33826 0.34469
 N755 N 0.69038 0.86515 0.82341
 N756 N 0.67643 0.86477 0.80920
 C757 C 0.67917 0.88081 0.79684
 C758 C 0.69564 0.89195 0.80379
 C759 C 0.70236 0.88149 0.82069
 H760 H 0.66961 0.88431 0.78403
 H761 H 0.71476 0.88567 0.83055
 Cu762 Cu 0.65543 0.84397 0.80919
 Cu763 Cu 0.69138 0.84514 0.84515
 Cu764 Cu 0.65388 0.80806 0.84509
 N765 N 0.63437 0.82323 0.80918
 N766 N 0.63408 0.80906 0.82315
 C767 C 0.61786 0.79696 0.82018
 C768 C 0.60728 0.80397 0.80346
 C769 C 0.61826 0.82067 0.79685
 H770 H 0.61396 0.78420 0.82968
 H771 H 0.61454 0.83051 0.78433
 N772 N 0.67523 0.80970 0.86595
 N773 N 0.68965 0.82364 0.86583
 C774 C 0.70204 0.82052 0.88174
 C775 C 0.69501 0.80391 0.89255
 C776 C 0.67800 0.79744 0.88202
 H777 H 0.71540 0.82947 0.88504
 H778 H 0.66857 0.78446 0.88550
 H779 H 0.67718 0.82208 0.82944
 H780 H 0.66060 0.83875 0.84524
 N781 N 0.18998 0.36554 0.82377
 N782 N 0.17584 0.36539 0.80972
 C783 C 0.17870 0.38137 0.79732
 C784 C 0.19548 0.39222 0.80401
 C785 C 0.20221 0.38165 0.82085
 H786 H 0.16908 0.38501 0.78459
 H787 H 0.21479 0.38562 0.83057
 Cu788 Cu 0.15446 0.34495 0.80990
 Cu789 Cu 0.19098 0.34541 0.84539
 Cu790 Cu 0.15292 0.30888 0.84565
 N791 N 0.13314 0.32444 0.81008
 N792 N 0.13279 0.31027 0.82407
 C793 C 0.11701 0.29776 0.82061
 C794 C 0.10675 0.30445 0.80357
 C795 C 0.11749 0.32144 0.79727
 H796 H 0.11354 0.28449 0.82958
 H797 H 0.11444 0.33064 0.78409
 N798 N 0.17459 0.31007 0.86622
 N799 N 0.18921 0.32380 0.86599
 C800 C 0.20178 0.32036 0.88170
 C801 C 0.19469 0.30375 0.89246
 C802 C 0.17742 0.29763 0.88213
 H803 H 0.21532 0.32909 0.88489
 H804 H 0.16785 0.28477 0.88565
 H805 H 0.17633 0.32259 0.82972
 H806 H 0.16023 0.33940 0.84585
 N807 N 0.19026 0.86545 0.32333
 N808 N 0.17603 0.86529 0.30938
 C809 C 0.17837 0.88165 0.29738
 C810 C 0.19492 0.89273 0.30423
 C811 C 0.20206 0.88193 0.32074
 H812 H 0.16854 0.88539 0.28483
 H813 H 0.21459 0.88598 0.33050
 Cu814 Cu 0.15518 0.84438 0.30948
 Cu815 Cu 0.19180 0.84497 0.34460
 Cu816 Cu 0.15400 0.80806 0.34486
 N817 N 0.13372 0.82408 0.30971
 N818 N 0.13353 0.80974 0.32353
 C819 C 0.11755 0.79742 0.32022
 C820 C 0.10700 0.80446 0.30349
 C821 C 0.11776 0.82144 0.29721
 H822 H 0.11412 0.78409 0.32912
 H823 H 0.11454 0.83086 0.28423
 N824 N 0.17604 0.80912 0.36508
 N825 N 0.19055 0.82299 0.36482
 C826 C 0.20288 0.82003 0.38079
 C827 C 0.19578 0.80357 0.39176
 C828 C 0.17874 0.79706 0.38131
 H829 H 0.21589 0.82940 0.38434
 H830 H 0.16876 0.78471 0.38546
 H831 H 0.17719 0.82206 0.32906
 H832 H 0.16102 0.83865 0.34533
 C833 C 0.23542 0.95718 0.26290
 C834 C 0.24808 0.94635 0.24988
 C835 C 0.26157 0.95619 0.23686
 C836 C 0.26237 0.97765 0.23655
 C837 C 0.24936 0.98888 0.24957
 C838 C 0.23581 0.97860 0.26280
 C839 C 0.22304 0.98996 0.27554
 C840 C 0.22347 1.01110 0.27527
 C841 C 0.23678 1.02161 0.26233
 C842 C 0.24990 1.01043 0.24941
 C843 C 0.27578 0.98815 0.22371
 C844 C 0.27639 1.00934 0.22363
 C845 C 0.26356 1.02075 0.23633
 C846 C 0.26397 1.04223 0.23638
 C847 C 0.25081 1.05301 0.24903
 C848 C 0.23730 1.04305 0.26193
 H849 H 0.21253 0.98258 0.28579
 H850 H 0.21325 1.01915 0.28531
 H851 H 0.28591 0.98002 0.21365
 H852 H 0.28699 1.01674 0.21349
 H853 H 0.24753 0.92987 0.25000
 H854 H 0.25109 1.06949 0.24883
 C855 C 0.26341 0.54248 0.73683
 C856 C 0.25010 0.55287 0.74963
 C857 C 0.23679 0.54250 0.76243
 C858 C 0.23670 0.52104 0.76263
 C859 C 0.25006 0.51027 0.74961
 C860 C 0.26344 0.52102 0.73660
 C861 C 0.27648 0.51005 0.72375
 C862 C 0.27637 0.48888 0.72366
 C863 C 0.26331 0.47794 0.73650
 C864 C 0.25005 0.48871 0.74962
 C865 C 0.22362 0.51009 0.77545
 C866 C 0.22370 0.48893 0.77555
 C867 C 0.23678 0.47796 0.76274
 C868 C 0.23698 0.45651 0.76269
 C869 C 0.25005 0.44611 0.74966
 C870 C 0.26310 0.45648 0.73660
 H871 H 0.28688 0.51777 0.71363
 H872 H 0.28667 0.48114 0.71346
 H873 H 0.21321 0.51783 0.78554
 H874 H 0.21338 0.48121 0.78574
 H875 H 0.25010 0.56935 0.74963
 H876 H 0.25004 0.42963 0.74968
 C877 C 0.73640 0.04234 0.23608
 C878 C 0.74935 0.05303 0.24892
 C879 C 0.76257 0.04312 0.26210
 C880 C 0.76301 0.02169 0.26266
 C881 C 0.74999 0.01052 0.24960
 C882 C 0.73660 0.02087 0.23622
 C883 C 0.72384 0.00952 0.22347
 C884 C 0.72425 -0.01169 0.22378
 C885 C 0.73742 -0.02222 0.23686
 C886 C 0.75038 -0.01102 0.24993
 C887 C 0.77609 0.01119 0.27580
 C888 C 0.77644 -0.00997 0.27616
 C889 C 0.76375 -0.02133 0.26334
 C890 C 0.76405 -0.04277 0.26353
 C891 C 0.75139 -0.05356 0.25049
 C892 C 0.73806 -0.04368 0.23733
 H893 H 0.71347 0.01698 0.21314
 H894 H 0.71418 -0.01981 0.21366
 H895 H 0.78619 0.01929 0.28590
 H896 H 0.78679 -0.01738 0.28655
 H897 H 0.74913 0.06952 0.24866
 H898 H 0.75186 -0.07004 0.25066
 C899 C 0.76331 0.45687 0.76250
 C900 C 0.75052 0.44614 0.74947
 C901 C 0.73691 0.45616 0.73670
 C902 C 0.73625 0.47760 0.73649
 C903 C 0.74932 0.48873 0.74948
 C904 C 0.76288 0.47835 0.76261
 C905 C 0.77567 0.48969 0.77537
 C906 C 0.77519 0.51088 0.77521
 C907 C 0.76187 0.52143 0.76233
 C908 C 0.74880 0.51027 0.74934
 C909 C 0.72292 0.48818 0.72361
 C910 C 0.72248 0.50933 0.72340
 C911 C 0.73529 0.52063 0.73612
 C912 C 0.73498 0.54207 0.73600
 C913 C 0.74776 0.55281 0.74895
 C914 C 0.76122 0.54289 0.76193
 H915 H 0.78620 0.48224 0.78556
 H916 H 0.78536 0.51896 0.78526
 H917 H 0.71273 0.48018 0.71352
 H918 H 0.71198 0.51676 0.71318
 H919 H 0.75104 0.42967 0.74942
 H920 H 0.74731 0.56930 0.74880
 C921 C 0.26301 0.45714 0.26278
 C922 C 0.25016 0.44642 0.24980
 C923 C 0.23691 0.45646 0.23668
 C924 C 0.23640 0.47791 0.23636
 C925 C 0.24941 0.48902 0.24943
 C926 C 0.26281 0.47862 0.26270
 C927 C 0.27559 0.48995 0.27549
 C928 C 0.27523 0.51116 0.27524
 C929 C 0.26204 0.52173 0.26224
 C930 C 0.24901 0.51057 0.24921
 C931 C 0.22325 0.48849 0.22332
 C932 C 0.22286 0.50963 0.22309
 C933 C 0.23559 0.52093 0.23591
 C934 C 0.23528 0.54236 0.23579
 C935 C 0.24803 0.55312 0.24875
 C936 C 0.26145 0.54320 0.26180
 H937 H 0.28599 0.48249 0.28580
 H938 H 0.28537 0.51923 0.28532
 H939 H 0.21313 0.48050 0.21316
 H940 H 0.21244 0.51707 0.21279
 H941 H 0.25043 0.42994 0.24993
 H942 H 0.24759 0.56960 0.24859
 C943 C 0.76251 0.95679 0.73653
 C944 C 0.74948 0.94638 0.74958
 C945 C 0.73649 0.95673 0.76272
 C946 C 0.73634 0.97819 0.76292
 C947 C 0.74952 0.98898 0.74974
 C948 C 0.76268 0.97825 0.73649
 C949 C 0.77563 0.98922 0.72357
 C950 C 0.77567 1.01039 0.72364
 C951 C 0.76275 1.02131 0.73664
 C952 C 0.74955 1.01053 0.74981
 C953 C 0.72342 0.98912 0.77591
 C954 C 0.72343 1.01029 0.77597
 C955 C 0.73637 1.02127 0.76304
 C956 C 0.73655 1.04274 0.76296
 C957 C 0.74959 1.05313 0.74991
 C958 C 0.76263 1.04277 0.73683
 H959 H 0.78586 0.98152 0.71327
 H960 H 0.78592 1.01813 0.71340
 H961 H 0.71317 0.98136 0.78614
 H962 H 0.71320 1.01800 0.78625
 H963 H 0.74947 0.92989 0.74952
 H964 H 0.74960 1.06961 0.74993
 C965 C 0.73784 0.54319 0.26194
 C966 C 0.75144 0.55311 0.24908
 C967 C 0.76423 0.54236 0.23612
 C968 C 0.76386 0.52092 0.23614
 C969 C 0.75030 0.51057 0.24932
 C970 C 0.73715 0.52173 0.26226
 C971 C 0.72378 0.51116 0.27508
 C972 C 0.72342 0.48996 0.27532
 C973 C 0.73635 0.47863 0.26265
 C974 C 0.74986 0.48902 0.24948
 C975 C 0.77666 0.50962 0.22337
 C976 C 0.77622 0.48848 0.22354
 C977 C 0.76296 0.47790 0.23648
 C978 C 0.76241 0.45646 0.23676
 C979 C 0.74910 0.44643 0.24981
 C980 C 0.73617 0.45715 0.26273
 H981 H 0.71352 0.51923 0.28507
 H982 H 0.71289 0.48250 0.28549
 H983 H 0.78716 0.51706 0.21315
 H984 H 0.78639 0.48047 0.21342
 H985 H 0.75189 0.56959 0.24896
 H986 H 0.74883 0.42994 0.24995
 C987 C 0.23727 0.04254 0.73654
 C988 C 0.25079 0.05253 0.74940
 C989 C 0.26355 0.04176 0.76248
 C990 C 0.26320 0.02029 0.76255
 C991 C 0.24970 0.00994 0.74938
 C992 C 0.23665 0.02109 0.73634
 C993 C 0.22337 0.01055 0.72344
 C994 C 0.22295 -0.01059 0.72324
 C995 C 0.23574 -0.02192 0.73600
 C996 C 0.24924 -0.01161 0.74923
 C997 C 0.27598 0.00891 0.77535
 C998 C 0.27555 -0.01230 0.77516
 C999 C 0.26229 -0.02282 0.76223
 C1000 C 0.26166 -0.04429 0.76181
 C1001 C 0.24819 -0.05415 0.74881
 C1002 C 0.23542 -0.04334 0.73590
 H1003 H 0.21319 0.01857 0.71333
 H1004 H 0.21248 -0.01800 0.71300
 H1005 H 0.28645 0.01634 0.78557
 H1006 H 0.28570 -0.02040 0.78523
 H1007 H 0.25124 0.06901 0.74938
 H1008 H 0.24773 -0.07063 0.74865
 C1009 C 0.26353 0.23474 0.95742
 C1010 C 0.25047 0.24722 0.94638
 C1011 C 0.23727 0.26081 0.95586
 C1012 C 0.23674 0.26186 0.97719
 C1013 C 0.24982 0.24910 0.98867
 C1014 C 0.26327 0.23545 0.97876
 C1015 C 0.27604 0.22292 0.99041
 C1016 C 0.27565 0.22376 1.01147
 C1017 C 0.26254 0.23723 1.02158
 C1018 C 0.24949 0.25002 1.01010
 C1019 C 0.22356 0.27527 0.98730
 C1020 C 0.22319 0.27613 1.00836
 C1021 C 0.23605 0.26368 1.02001
 C1022 C 0.23588 0.26448 1.04135
 C1023 C 0.24903 0.25208 1.05239
 C1024 C 0.26211 0.23837 1.04290
 H1025 H 0.28642 0.21232 0.98330
 H1026 H 0.28574 0.21380 1.01979
 H1027 H 0.21341 0.28517 0.97898
 H1028 H 0.21277 0.28668 1.01548
 H1029 H 0.25071 0.24646 0.92999
 H1030 H 0.24882 0.25287 1.06877
 C1031 C 0.23585 0.76378 0.54160
 C1032 C 0.24841 0.75058 0.55234
 C1033 C 0.26171 0.73732 0.54253
 C1034 C 0.26242 0.73695 0.52118
 C1035 C 0.24946 0.75013 0.51003
 C1036 C 0.23610 0.76359 0.52029
 C1037 C 0.22337 0.77647 0.50901
 C1038 C 0.22365 0.77610 0.48798
 C1039 C 0.23677 0.76293 0.47749
 C1040 C 0.24986 0.74987 0.48859
 C1041 C 0.27565 0.72390 0.51070
 C1042 C 0.27614 0.72374 0.48961
 C1043 C 0.26334 0.73657 0.47829
 C1044 C 0.26360 0.73653 0.45692
 C1045 C 0.25048 0.74930 0.44622
 C1046 C 0.23713 0.76241 0.45616
 H1047 H 0.21302 0.78691 0.51638
 H1048 H 0.21347 0.78625 0.47999
 H1049 H 0.28573 0.71371 0.51877
 H1050 H 0.28660 0.71342 0.48222
 H1051 H 0.24791 0.75070 0.56874
 H1052 H 0.25067 0.74905 0.42982
 C1053 C 0.26171 0.76220 -0.04408
 C1054 C 0.24832 0.74905 -0.05388
 C1055 C 0.23570 0.73592 -0.04313
 C1056 C 0.23602 0.73603 -0.02182
 C1057 C 0.24944 0.74941 -0.01156
 C1058 C 0.26240 0.76257 -0.02272
 C1059 C 0.27565 0.77558 -0.01225
 C1060 C 0.27616 0.77571 0.00884
 C1061 C 0.26348 0.76278 0.02018
 C1062 C 0.24998 0.74951 0.00988
 C1063 C 0.22331 0.72314 -0.01053
 C1064 C 0.22376 0.72334 0.01051
 C1065 C 0.23701 0.73635 0.02099
 C1066 C 0.23770 0.73652 0.04233
 C1067 C 0.25123 0.74944 0.05226
 C1068 C 0.26392 0.76264 0.04155
 H1069 H 0.28573 0.78576 -0.02032
 H1070 H 0.28663 0.78600 0.01623
 H1071 H 0.21288 0.71280 -0.01790
 H1072 H 0.21366 0.71312 0.01850
 H1073 H 0.24784 0.74891 -0.07028
 H1074 H 0.25173 0.74939 0.06865
 C1075 C 0.26248 0.26300 0.45675
 C1076 C 0.24955 0.24978 0.44642
 C1077 C 0.23660 0.23655 0.45672
 C1078 C 0.23635 0.23648 0.47809
 C1079 C 0.24949 0.24976 0.48881
 C1080 C 0.26267 0.26305 0.47811
 C1081 C 0.27563 0.27600 0.48902
 C1082 C 0.27570 0.27590 0.51008
 C1083 C 0.26273 0.26292 0.52098
 C1084 C 0.24947 0.24975 0.51026
 C1085 C 0.22337 0.22350 0.48898
 C1086 C 0.22325 0.22359 0.51005
 C1087 C 0.23619 0.23657 0.52097
 C1088 C 0.23623 0.23677 0.54233
 C1089 C 0.24942 0.24973 0.55265
 C1090 C 0.26264 0.26269 0.54234
 H1091 H 0.28586 0.28633 0.48133
 H1092 H 0.28601 0.28612 0.51778
 H1093 H 0.21317 0.21318 0.48128
 H1094 H 0.21292 0.21336 0.51774
 H1095 H 0.24958 0.24979 0.43002
 H1096 H 0.24942 0.24970 0.56905
 C1097 C 0.76389 0.73571 0.95719
 C1098 C 0.75078 0.74837 0.94645
 C1099 C 0.73752 0.76166 0.95628
 C1100 C 0.73698 0.76219 0.97763
 C1101 C 0.75014 0.74921 0.98878
 C1102 C 0.76368 0.73594 0.97851
 C1103 C 0.77663 0.72327 0.98978
 C1104 C 0.77632 0.72360 1.01081
 C1105 C 0.76303 0.73660 1.02131
 C1106 C 0.74981 0.74953 1.01021
 C1107 C 0.72376 0.77526 0.98811
 C1108 C 0.72339 0.77552 1.00920
 C1109 C 0.73628 0.76277 1.02052
 C1110 C 0.73608 0.76286 1.04189
 C1111 C 0.74923 0.75012 1.05258
 C1112 C 0.76264 0.73706 1.04264
 H1113 H 0.78713 0.71298 0.98240
 H1114 H 0.78660 0.71355 1.01879
 H1115 H 0.71360 0.78537 0.98005
 H1116 H 0.71290 0.78580 1.01660
 H1117 H 0.75097 0.74794 0.93005
 H1118 H 0.74902 0.75035 1.06898
 C1119 C 0.76362 0.23656 0.45709
 C1120 C 0.75105 0.24987 0.44637
 C1121 C 0.73754 0.26285 0.45628
 C1122 C 0.73675 0.26298 0.47761
 C1123 C 0.74957 0.24968 0.48873
 C1124 C 0.76303 0.23634 0.47845
 C1125 C 0.77554 0.22324 0.48978
 C1126 C 0.77491 0.22329 0.51087
 C1127 C 0.76172 0.23641 0.52132
 C1128 C 0.74892 0.24973 0.51016
 C1129 C 0.72354 0.27608 0.48808
 C1130 C 0.72300 0.27623 0.50911
 C1131 C 0.73555 0.26319 0.52041
 C1132 C 0.73512 0.26323 0.54172
 C1133 C 0.74757 0.24992 0.55247
 C1134 C 0.76091 0.23670 0.54266
 H1135 H 0.78596 0.21287 0.48241
 H1136 H 0.78484 0.21296 0.51894
 H1137 H 0.71356 0.28641 0.48008
 H1138 H 0.71261 0.28665 0.51647
 H1139 H 0.75162 0.24996 0.42997
 H1140 H 0.74702 0.25001 0.56887
 C1141 C 0.76357 0.26365 -0.04360
 C1142 C 0.75090 0.25029 -0.05396
 C1143 C 0.73777 0.23712 -0.04377
 C1144 C 0.73735 0.23702 -0.02239
 C1145 C 0.75036 0.25043 -0.01162
 C1146 C 0.76355 0.26378 -0.02228
 C1147 C 0.77634 0.27687 -0.01138
 C1148 C 0.77628 0.27688 0.00965
 C1149 C 0.76332 0.26389 0.02052
 C1150 C 0.75018 0.25055 0.00982
 C1151 C 0.72436 0.22403 -0.01150
 C1152 C 0.72416 0.22417 0.00962
 C1153 C 0.73694 0.23732 0.02055
 C1154 C 0.73697 0.23768 0.04193
 C1155 C 0.74991 0.25098 0.05216
 C1156 C 0.76313 0.26385 0.04184
 H1157 H 0.78657 0.28721 -0.01904
 H1158 H 0.78646 0.28723 0.01735
 H1159 H 0.71425 0.21367 -0.01928
 H1160 H 0.71392 0.21390 0.01737
 H1161 H 0.75116 0.25023 -0.07037
 H1162 H 0.74979 0.25119 0.06856
 C1163 C 0.73798 0.73746 0.45636
 C1164 C 0.75119 0.75078 0.44650
 C1165 C 0.76372 0.76402 0.45720
 C1166 C 0.76350 0.76381 0.47853
 C1167 C 0.75028 0.75022 0.48883
 C1168 C 0.73738 0.73702 0.47772
 C1169 C 0.72429 0.72384 0.48822
 C1170 C 0.72395 0.72353 0.50932
 C1171 C 0.73672 0.73637 0.52062
 C1172 C 0.74999 0.74986 0.51028
 C1173 C 0.77611 0.77678 0.48978
 C1174 C 0.77589 0.77636 0.51082
 C1175 C 0.76299 0.76299 0.52135
 C1176 C 0.76277 0.76235 0.54268
 C1177 C 0.74983 0.74886 0.55266
 C1178 C 0.73668 0.73610 0.54200
 H1179 H 0.71424 0.71363 0.48018
 H1180 H 0.71365 0.71308 0.51673
 H1181 H 0.78634 0.78732 0.48238
 H1182 H 0.78596 0.78660 0.51879
 H1183 H 0.75164 0.75092 0.43010
 H1184 H 0.74985 0.74842 0.56906
 C1185 C 0.95677 0.26295 0.23669
 C1186 C 0.94639 0.24960 0.24944
 C1187 C 0.95683 0.23627 0.26216
 C1188 C 0.97834 0.23619 0.26231
 C1189 C 0.98909 0.24961 0.24935
 C1190 C 0.97827 0.26306 0.23647
 C1191 C 0.98921 0.27625 0.22377
 C1192 C 1.01042 0.27618 0.22364
 C1193 C 1.02144 0.26294 0.23623
 C1194 C 1.01069 0.24957 0.24925
 C1195 C 0.98935 0.22306 0.27502
 C1196 C 1.01057 0.22308 0.27497
 C1197 C 1.02151 0.23616 0.26216
 C1198 C 1.04301 0.23618 0.26184
 C1199 C 1.05339 0.24920 0.24875
 C1200 C 1.04295 0.26265 0.23615
 H1201 H 0.98143 0.28673 0.21379
 H1202 H 1.01813 0.28660 0.21356
 H1203 H 0.98164 0.21264 0.28509
 H1204 H 1.01834 0.21266 0.28502
 H1205 H 0.92987 0.24958 0.24946
 H1206 H 1.06991 0.24900 0.24851
 C1207 C 0.45694 0.26249 0.73612
 C1208 C 0.44619 0.24918 0.74862
 C1209 C 0.45624 0.23612 0.76191
 C1210 C 0.47772 0.23594 0.76259
 C1211 C 0.48888 0.24914 0.74973
 C1212 C 0.47847 0.26254 0.73647
 C1213 C 0.48985 0.27555 0.72393
 C1214 C 0.51110 0.27534 0.72434
 C1215 C 0.52167 0.26210 0.73728
 C1216 C 0.51047 0.24892 0.75015
 C1217 C 0.48831 0.22287 0.77571
 C1218 C 0.50951 0.22268 0.77615
 C1219 C 0.52085 0.23553 0.76347
 C1220 C 0.54233 0.23537 0.76373
 C1221 C 0.55311 0.24823 0.75088
 C1222 C 0.54318 0.26164 0.73786
 H1223 H 0.48239 0.28597 0.71366
 H1224 H 0.51919 0.28561 0.71440
 H1225 H 0.48028 0.21263 0.78573
 H1226 H 0.51696 0.21232 0.78649
 H1227 H 0.42967 0.24913 0.74814
 H1228 H 0.56964 0.24785 0.75108
 C1229 C 0.04340 0.26079 0.76143
 C1230 C 0.05293 0.24703 0.74849
 C1231 C 0.04178 0.23457 0.73558
 C1232 C 0.02028 0.23539 0.73580
 C1233 C 0.01033 0.24910 0.74910
 C1234 C 0.02193 0.26194 0.76194
 C1235 C 0.01178 0.27549 0.77489
 C1236 C -0.00943 0.27635 0.77535
 C1237 C -0.02119 0.26376 0.76280
 C1238 C -0.01124 0.25004 0.74950
 C1239 C 0.00852 0.22291 0.72313
 C1240 C -0.01269 0.22381 0.72356
 C1241 C -0.02284 0.23725 0.73661
 C1242 C -0.04432 0.23833 0.73720
 C1243 C -0.05385 0.25197 0.75027
 C1244 C -0.04268 0.26450 0.76311
 H1245 H 0.02018 0.28552 0.78481
 H1246 H -0.01656 0.28702 0.78560
 H1247 H 0.01566 0.21233 0.71281
 H1248 H -0.02110 0.21388 0.71354
 H1249 H 0.06944 0.24623 0.74825
 H1250 H -0.07036 0.25274 0.75056
 C1251 C 0.45676 0.26352 0.26254
 C1252 C 0.44632 0.25058 0.24954
 C1253 C 0.45659 0.23717 0.23675
 C1254 C 0.47813 0.23676 0.23668
 C1255 C 0.48897 0.24996 0.24979
 C1256 C 0.47824 0.26341 0.26276
 C1257 C 0.48920 0.27638 0.27561
 C1258 C 0.51038 0.27620 0.27575
 C1259 C 0.52133 0.26296 0.26313
 C1260 C 0.51057 0.24969 0.25002
 C1261 C 0.48910 0.22354 0.22402
 C1262 C 0.51039 0.22329 0.22422
 C1263 C 0.52138 0.23623 0.23712
 C1264 C 0.54292 0.23610 0.23764
 C1265 C 0.55322 0.24912 0.25077
 C1266 C 0.54280 0.26261 0.26327
 H1267 H 0.48148 0.28683 0.28565
 H1268 H 0.51813 0.28651 0.28590
 H1269 H 0.48128 0.21327 0.21388
 H1270 H 0.51819 0.21285 0.21423
 H1271 H 0.42979 0.25085 0.24946
 H1272 H 0.56975 0.24895 0.25107
 C1273 C 1.04233 0.73520 0.76321
 C1274 C 1.05312 0.74799 0.75029
 C1275 C 1.04319 0.76146 0.73733
 C1276 C 1.02169 0.76210 0.73693
 C1277 C 1.01049 0.74898 0.74986
 C1278 C 1.02085 0.73545 0.76306
 C1279 C 1.00949 0.72257 0.77571
 C1280 C 0.98829 0.72291 0.77542
 C1281 C 0.97775 0.73621 0.76254
 C1282 C 0.98891 0.74942 0.74965
 C1283 C 1.01111 0.77547 0.72409
 C1284 C 0.98987 0.77592 0.72390
 C1285 C 0.97852 0.76303 0.73654
 C1286 C 0.95702 0.76325 0.73651
 C1287 C 0.94632 0.75020 0.74925
 C1288 C 0.95628 0.73675 0.76215
 H1289 H 1.01694 0.71206 0.78591
 H1290 H 0.98019 0.71267 0.78539
 H1291 H 1.01923 0.78569 0.71411
 H1292 H 0.98236 0.78645 0.71376
 H1293 H 1.06964 0.74754 0.75043
 H1294 H 0.92979 0.75047 0.74909
 C1295 C 0.45641 0.76247 0.23678
 C1296 C 0.44639 0.74917 0.24984
 C1297 C 0.45716 0.73634 0.26282
 C1298 C 0.47869 0.73663 0.26278
 C1299 C 0.48908 0.75008 0.24955
 C1300 C 0.47790 0.76306 0.23649
 C1301 C 0.48847 0.77624 0.22347
 C1302 C 0.50966 0.77671 0.22328
 C1303 C 0.52102 0.76402 0.23610
 C1304 C 0.51067 0.75057 0.24937
 C1305 C 0.49010 0.72389 0.27557
 C1306 C 0.51134 0.72432 0.27535
 C1307 C 0.52190 0.73757 0.26240
 C1308 C 0.54340 0.73821 0.26199
 C1309 C 0.55331 0.75166 0.24899
 C1310 C 0.54250 0.76438 0.23602
 H1311 H 0.48042 0.78633 0.21331
 H1312 H 0.51708 0.78714 0.21299
 H1313 H 0.48265 0.71346 0.28584
 H1314 H 0.51947 0.71420 0.28543
 H1315 H 0.42987 0.74885 0.24996
 H1316 H 0.56984 0.75214 0.24886
 C1317 C -0.04269 0.76432 0.26337
 C1318 C -0.05381 0.75175 0.25052
 C1319 C -0.04423 0.73828 0.23732
 C1320 C -0.02275 0.73738 0.23664
 C1321 C -0.01120 0.75028 0.24947
 C1322 C -0.02119 0.76380 0.26292
 C1323 C -0.00947 0.77642 0.27550
 C1324 C 0.01174 0.77585 0.27482
 C1325 C 0.02194 0.76260 0.26161
 C1326 C 0.01038 0.74963 0.24886
 C1327 C -0.01255 0.72400 0.22356
 C1328 C 0.00866 0.72330 0.22303
 C1329 C 0.02038 0.73601 0.23550
 C1330 C 0.04187 0.73553 0.23501
 C1331 C 0.05299 0.74855 0.24739
 C1332 C 0.04341 0.76189 0.26072
 H1333 H -0.01664 0.78689 0.28591
 H1334 H 0.02012 0.78591 0.28473
 H1335 H -0.02091 0.71397 0.21362
 H1336 H 0.01583 0.71274 0.21270
 H1337 H -0.07033 0.75240 0.25088
 H1338 H 0.06950 0.74821 0.24673
 C1339 C 0.45582 0.73799 0.73730
 C1340 C 0.44587 0.75144 0.75027
 C1341 C 0.45664 0.76419 0.76321
 C1342 C 0.47813 0.76391 0.76307
 C1343 C 0.48851 0.75043 0.74985
 C1344 C 0.47733 0.73734 0.73692
 C1345 C 0.48792 0.72402 0.72407
 C1346 C 0.50917 0.72360 0.72387
 C1347 C 0.52054 0.73652 0.73647
 C1348 C 0.51012 0.75006 0.74958
 C1349 C 0.48946 0.77673 0.77575
 C1350 C 0.51065 0.77644 0.77540
 C1351 C 0.52126 0.76325 0.76243
 C1352 C 0.54275 0.76291 0.76190
 C1353 C 0.55281 0.74951 0.74897
 C1354 C 0.54208 0.73630 0.73638
 H1355 H 0.47983 0.71383 0.71406
 H1356 H 0.51664 0.71308 0.71371
 H1357 H 0.48200 0.78715 0.78601
 H1358 H 0.51867 0.78669 0.78540
 H1359 H 0.42935 0.75191 0.75038
 H1360 H 0.56933 0.74933 0.74872
 C1361 C 0.42042 0.27866 0.30360
 C1362 C 0.41130 0.29612 0.29547
 C1363 C 0.42119 0.30544 0.27891
 C1364 C 0.43757 0.29569 0.26910
 C1365 C 0.44448 0.27664 0.27586
 C1366 C 0.43660 0.26915 0.29400
 C1367 C 0.42920 0.24843 0.29937
 C1368 C 0.41137 0.25876 0.30980
 H1369 H 0.41545 0.31944 0.27252
 H1370 H 0.44360 0.30214 0.25528
 H1371 H 0.43963 0.24059 0.31005
 H1372 H 0.42460 0.23931 0.28601
 H1373 H 0.41149 0.25663 0.32646
 H1374 H 0.39651 0.25573 0.30234
 C1375 C 0.42027 0.77940 0.80419
 C1376 C 0.41121 0.79699 0.79610
 C1377 C 0.42135 0.80627 0.77959
 C1378 C 0.43779 0.79649 0.76991
 C1379 C 0.44462 0.77742 0.77666
 C1380 C 0.43652 0.76989 0.79468
 C1381 C 0.42915 0.74915 0.79997
 C1382 C 0.41122 0.75942 0.81025
 H1383 H 0.41591 0.82036 0.77315
 H1384 H 0.44398 0.80299 0.75618
 H1385 H 0.43953 0.74134 0.81073
 H1386 H 0.42468 0.74001 0.78658
 H1387 H 0.41120 0.75722 0.82690
 H1388 H 0.39643 0.75635 0.80265
 C1389 C -0.07875 0.27986 0.80418
 C1390 C -0.08789 0.29725 0.79591
 C1391 C -0.07788 0.30656 0.77941
 C1392 C -0.06135 0.29687 0.76980
 C1393 C -0.05436 0.27789 0.77669
 C1394 C -0.06241 0.27041 0.79477
 C1395 C -0.06979 0.24967 0.80013
 C1396 C -0.08778 0.25994 0.81033
 H1397 H -0.08366 0.32048 0.77289
 H1398 H -0.05531 0.30327 0.75596
 H1399 H -0.05945 0.24190 0.81095
 H1400 H -0.07422 0.24045 0.78677
 H1401 H -0.08785 0.25785 0.82700
 H1402 H -0.10255 0.25680 0.80272
 C1403 C -0.07884 0.77949 0.30445
 C1404 C -0.08785 0.79702 0.29633
 C1405 C -0.07770 0.80644 0.27997
 C1406 C -0.06119 0.79674 0.27033
 C1407 C -0.05439 0.77762 0.27703
 C1408 C -0.06254 0.77002 0.29501
 C1409 C -0.07005 0.74929 0.30021
 C1410 C -0.08801 0.75958 0.31044
 H1411 H -0.08336 0.82047 0.27358
 H1412 H -0.05502 0.80325 0.25660
 H1413 H -0.05978 0.74139 0.31101
 H1414 H -0.07450 0.74019 0.28679
 H1415 H -0.08813 0.75739 0.32710
 H1416 H -0.10277 0.75660 0.30277
 C1417 C 0.58304 0.69949 0.27551
 C1418 C 0.58929 0.70545 0.29487
 C1419 C 0.57959 0.72254 0.30350
 C1420 C 0.56351 0.73239 0.29340
 C1421 C 0.55658 0.72527 0.27461
 C1422 C 0.56721 0.70932 0.26554
 C1423 C 0.55899 0.68987 0.25738
 C1424 C 0.57631 0.67913 0.26817
 H1425 H 0.58431 0.72837 0.31803
 H1426 H 0.55669 0.74578 0.30009
 H1427 H 0.56020 0.68910 0.24064
 H1428 H 0.54372 0.68608 0.26359
 H1429 H 0.58749 0.67223 0.25759
 H1430 H 0.57114 0.66902 0.28062
 C1431 C 0.57881 0.22018 0.80455
 C1432 C 0.58772 0.20261 0.79644
 C1433 C 0.57756 0.19326 0.78008
 C1434 C 0.56108 0.20302 0.77047
 C1435 C 0.55434 0.22215 0.77719
 C1436 C 0.56255 0.22972 0.79513
 C1437 C 0.57014 0.25043 0.80029
 C1438 C 0.58807 0.24005 0.81050
 H1439 H 0.58313 0.17919 0.77372
 H1440 H 0.55481 0.19650 0.75680
 H1441 H 0.55990 0.25836 0.81110
 H1442 H 0.57461 0.25951 0.78685
 H1443 H 0.58820 0.24224 0.82715
 H1444 H 0.60284 0.24297 0.80280
 C1445 C 1.07857 0.72019 0.80433
 C1446 C 1.08754 0.70260 0.79633
 C1447 C 1.07751 0.69318 0.77993
 C1448 C 1.06114 0.70293 0.77014
 C1449 C 1.05433 0.72206 0.77675
 C1450 C 1.06237 0.72969 0.79475
 C1451 C 1.06993 0.75042 0.79986
 C1452 C 1.08779 0.74010 0.81022
 H1453 H 1.08316 0.67911 0.77363
 H1454 H 1.05504 0.69640 0.75640
 H1455 H 1.05962 0.75840 0.81056
 H1456 H 1.07447 0.75944 0.78639
 H1457 H 1.08783 0.74239 0.82687
 H1458 H 1.10260 0.74300 0.80259
 C1459 C 1.07872 0.22054 0.30330
 C1460 C 1.08838 0.20350 0.29491
 C1461 C 1.07912 0.19456 0.27781
 C1462 C 1.06284 0.20431 0.26787
 C1463 C 1.05536 0.22298 0.27502
 C1464 C 1.06259 0.23002 0.29358
 C1465 C 1.06942 0.25070 0.29972
 C1466 C 1.08719 0.24041 0.31029
 H1467 H 1.08526 0.18088 0.27114
 H1468 H 1.05726 0.19815 0.25375
 H1469 H 1.05856 0.25802 0.31035
 H1470 H 1.07417 0.26026 0.28672
 H1471 H 1.08660 0.24201 0.32700
 H1472 H 1.10218 0.24397 0.30330
 C1473 C 0.58307 0.30010 0.72451
 C1474 C 0.58911 0.29433 0.70502
 C1475 C 0.57910 0.27754 0.69620
 C1476 C 0.56298 0.26775 0.70629
 C1477 C 0.55633 0.27465 0.72528
 C1478 C 0.56721 0.29033 0.73448
 C1479 C 0.55921 0.30976 0.74293
 C1480 C 0.57655 0.32044 0.73213
 H1481 H 0.58362 0.27187 0.68154
 H1482 H 0.55595 0.25456 0.69946
 H1483 H 0.56053 0.31031 0.75966
 H1484 H 0.54394 0.31378 0.73687
 H1485 H 0.58786 0.32711 0.74272
 H1486 H 0.57140 0.33075 0.71983
 C1487 C 0.57872 0.77937 0.19489
 C1488 C 0.58787 0.79680 0.20300
 C1489 C 0.57794 0.80619 0.21951
 C1490 C 0.56148 0.79655 0.22926
 C1491 C 0.55448 0.77755 0.22250
 C1492 C 0.56243 0.76998 0.20443
 C1493 C 0.56979 0.74921 0.19916
 C1494 C 0.58773 0.75941 0.18882
 H1495 H 0.58372 0.82016 0.22589
 H1496 H 0.55547 0.80303 0.24307
 H1497 H 0.55939 0.74141 0.18843
 H1498 H 0.57427 0.74006 0.21256
 H1499 H 0.58772 0.75724 0.17216
 H1500 H 0.60253 0.75630 0.19638
 C1501 C 1.07919 0.30398 0.22076
 C1502 C 1.08793 0.29597 0.20313
 C1503 C 1.07780 0.27942 0.19396
 C1504 C 1.06166 0.26949 0.20394
 C1505 C 1.05520 0.27608 0.22310
 C1506 C 1.06323 0.29425 0.23050
 C1507 C 1.07106 0.29956 0.25097
 C1508 C 1.08865 0.31012 0.24038
 H1509 H 1.08317 0.27313 0.17984
 H1510 H 1.05542 0.25572 0.19748
 H1511 H 1.07590 0.28608 0.25986
 H1512 H 1.06078 0.31023 0.25904
 H1513 H 1.10360 0.30264 0.24306
 H1514 H 1.08853 0.32686 0.24254
 C1515 C 1.08272 0.80016 0.72369
 C1516 C 1.08915 0.79400 0.70445
 C1517 C 1.07956 0.77683 0.69591
 C1518 C 1.06343 0.76707 0.70598
 C1519 C 1.05634 0.77436 0.72467
 C1520 C 1.06684 0.79042 0.73365
 C1521 C 1.05846 0.80996 0.74148
 C1522 C 1.07584 0.82060 0.73071
 H1523 H 1.08441 0.77086 0.68147
 H1524 H 1.05669 0.75362 0.69936
 H1525 H 1.05950 0.81095 0.75822
 H1526 H 1.04324 0.81365 0.73508
 H1527 H 1.08689 0.82766 0.74131
 H1528 H 1.07077 0.83052 0.71807
 C1529 C 0.41676 0.69889 0.72338
 C1530 C 0.40998 0.70536 0.70435
 C1531 C 0.41911 0.72292 0.69609
 C1532 C 0.43518 0.73276 0.70617
 C1533 C 0.44268 0.72515 0.72458
 C1534 C 0.43258 0.70870 0.73336
 C1535 C 0.44137 0.68915 0.74070
 C1536 C 0.42406 0.67844 0.72991
 H1537 H 0.41396 0.72916 0.68187
 H1538 H 0.44155 0.74652 0.69978
 H1539 H 0.44052 0.68778 0.75743
 H1540 H 0.45658 0.68586 0.73407
 H1541 H 0.41325 0.67095 0.74048
 H1542 H 0.42918 0.66887 0.71703
 C1543 C 0.41692 0.19860 0.22333
 C1544 C 0.41080 0.20444 0.20388
 C1545 C 0.42077 0.22128 0.19507
 C1546 C 0.43694 0.23102 0.20512
 C1547 C 0.44371 0.22403 0.22405
 C1548 C 0.43283 0.20831 0.23325
 C1549 C 0.44079 0.18883 0.24163
 C1550 C 0.42337 0.17823 0.23091
 H1551 H 0.41614 0.22704 0.18048
 H1552 H 0.44388 0.24430 0.19833
 H1553 H 0.43952 0.18824 0.25837
 H1554 H 0.45603 0.18478 0.23550
 H1555 H 0.41208 0.17158 0.24154
 H1556 H 0.42845 0.16793 0.21858
 C1557 C -0.08309 0.69894 0.22310
 C1558 C -0.08965 0.70525 0.20393
 C1559 C -0.08067 0.72296 0.19579
 C1560 C -0.06494 0.73309 0.20612
 C1561 C -0.05763 0.72562 0.22467
 C1562 C -0.06760 0.70902 0.23330
 C1563 C -0.05861 0.68964 0.24086
 C1564 C -0.07556 0.67862 0.22980
 H1565 H -0.08570 0.72908 0.18147
 H1566 H -0.05861 0.74687 0.19977
 H1567 H -0.05973 0.68830 0.25757
 H1568 H -0.04324 0.68657 0.23449
 H1569 H -0.08642 0.67098 0.24019
 H1570 H -0.07007 0.66912 0.21701
 C1571 C -0.08353 0.19922 0.72344
 C1572 C -0.09041 0.20571 0.70445
 C1573 C -0.08144 0.22338 0.69623
 C1574 C -0.06542 0.23331 0.70630
 C1575 C -0.05780 0.22567 0.72464
 C1576 C -0.06774 0.20911 0.73340
 C1577 C -0.05878 0.18960 0.74065
 C1578 C -0.07603 0.17880 0.72987
 H1579 H -0.08667 0.22962 0.68203
 H1580 H -0.05912 0.24709 0.69990
 H1581 H -0.05956 0.18816 0.75737
 H1582 H -0.04356 0.18645 0.73396
 H1583 H -0.08675 0.17118 0.74043
 H1584 H -0.07088 0.16933 0.71692
 C1585 C 0.27840 0.42102 0.30389
 C1586 C 0.29579 0.41182 0.29564
 C1587 C 0.30502 0.42162 0.27897
 C1588 C 0.29527 0.43802 0.26925
 C1589 C 0.27629 0.44509 0.27618
 C1590 C 0.26887 0.43723 0.29436
 C1591 C 0.24811 0.42989 0.29986
 C1592 C 0.25846 0.41205 0.31020
 H1593 H 0.31893 0.41576 0.27244
 H1594 H 0.30161 0.44393 0.25533
 H1595 H 0.23886 0.42534 0.28655
 H1596 H 0.24035 0.44029 0.31060
 H1597 H 0.25533 0.39724 0.30275
 H1598 H 0.25644 0.41215 0.32688
 C1599 C 0.30041 -0.08391 0.77528
 C1600 C 0.29398 -0.09082 0.79433
 C1601 C 0.27659 -0.08133 0.80278
 C1602 C 0.26696 -0.06500 0.79288
 C1603 C 0.27454 -0.05751 0.77447
 C1604 C 0.29074 -0.06788 0.76549
 C1605 C 0.31037 -0.05945 0.75789
 C1606 C 0.32095 -0.07696 0.76849
 H1607 H 0.27023 -0.08639 0.81698
 H1608 H 0.25333 -0.05845 0.79941
 H1609 H 0.31402 -0.04436 0.76450
 H1610 H 0.31148 -0.06027 0.74114
 H1611 H 0.33080 -0.07208 0.78126
 H1612 H 0.32814 -0.08781 0.75778
 C1613 C 0.77924 0.42126 0.80389
 C1614 C 0.79639 0.41166 0.79544
 C1615 C 0.80528 0.42115 0.77835
 C1616 C 0.79546 0.43747 0.76857
 C1617 C 0.77674 0.44485 0.77579
 C1618 C 0.76969 0.43742 0.79427
 C1619 C 0.74896 0.43055 0.80035
 C1620 C 0.75926 0.41274 0.81077
 H1621 H 0.81906 0.41528 0.77158
 H1622 H 0.80161 0.44316 0.75447
 H1623 H 0.73938 0.42593 0.78732
 H1624 H 0.74161 0.44128 0.81106
 H1625 H 0.75569 0.39786 0.80366
 H1626 H 0.75758 0.41317 0.82748
 C1627 C 0.77895 -0.07926 0.30446
 C1628 C 0.79654 -0.08835 0.29637
 C1629 C 0.80597 -0.07820 0.27996
 C1630 C 0.79633 -0.06166 0.27037
 C1631 C 0.77722 -0.05476 0.27708
 C1632 C 0.76954 -0.06293 0.29500
 C1633 C 0.74869 -0.07030 0.30007
 C1634 C 0.75886 -0.08828 0.31030
 H1635 H 0.82007 -0.08369 0.27355
 H1636 H 0.80292 -0.05545 0.25669
 H1637 H 0.73961 -0.07465 0.28659
 H1638 H 0.74079 -0.06003 0.31086
 H1639 H 0.75582 -0.10297 0.30257
 H1640 H 0.75654 -0.08844 0.32694
 C1641 C 0.30450 0.57902 0.72136
 C1642 C 0.29642 0.58754 0.70366
 C1643 C 0.27989 0.57728 0.69455
 C1644 C 0.27011 0.56111 0.70459
 C1645 C 0.27679 0.55478 0.72377
 C1646 C 0.29488 0.56306 0.73119
 C1647 C 0.30004 0.57109 0.75162
 C1648 C 0.31047 0.58868 0.74092
 H1649 H 0.27355 0.58251 0.68041
 H1650 H 0.25637 0.55472 0.69816
 H1651 H 0.31083 0.56101 0.75980
 H1652 H 0.28645 0.57582 0.76046
 H1653 H 0.32724 0.58877 0.74315
 H1654 H 0.30280 0.60353 0.74344
 C1655 C 0.30502 1.07879 0.22105
 C1656 C 0.29701 1.08719 0.20325
 C1657 C 0.28073 1.07667 0.19400
 C1658 C 0.27104 1.06040 0.20398
 C1659 C 0.27759 1.05419 0.22326
 C1660 C 0.29552 1.06272 0.23081
 C1661 C 0.30049 1.07078 0.25128
 C1662 C 0.31077 1.08850 0.24066
 H1663 H 0.27444 1.08182 0.17980
 H1664 H 0.25740 1.05390 0.19748
 H1665 H 0.31137 1.06082 0.25950
 H1666 H 0.28684 1.07537 0.26010
 H1667 H 0.32753 1.08879 0.24299
 H1668 H 0.30290 1.10325 0.24316
 C1669 C 0.77948 0.57829 0.19486
 C1670 C 0.79681 0.58759 0.20308
 C1671 C 0.80609 0.57789 0.21978
 C1672 C 0.79641 0.56149 0.22956
 C1673 C 0.77748 0.55434 0.22266
 C1674 C 0.77006 0.56207 0.20443
 C1675 C 0.74926 0.56923 0.19886
 C1676 C 0.75950 0.58712 0.18849
 H1677 H 0.81998 0.58378 0.22626
 H1678 H 0.80280 0.55562 0.24348
 H1679 H 0.73990 0.57374 0.21212
 H1680 H 0.74164 0.55874 0.18811
 H1681 H 0.75621 0.60192 0.19591
 H1682 H 0.75752 0.58697 0.17181
 C1683 C 0.77840 1.07866 0.69561
 C1684 C 0.79589 1.08772 0.70378
 C1685 C 0.80487 1.07811 0.72068
 C1686 C 0.79486 1.06200 0.73059
 C1687 C 0.77586 1.05507 0.72365
 C1688 C 0.76864 1.06273 0.70532
 C1689 C 0.74799 1.07021 0.69961
 C1690 C 0.75860 1.08777 0.68906
 H1691 H 0.81886 1.08382 0.72714
 H1692 H 0.80113 1.05608 0.74454
 H1693 H 0.74021 1.05973 0.68897
 H1694 H 0.73871 1.07504 0.71281
 H1695 H 0.75557 1.10273 0.69627
 H1696 H 0.75669 1.08744 0.67238
 C1697 C 0.72291 0.58126 0.30137
 C1698 C 0.70466 0.58935 0.29388
 C1699 C 0.69720 0.58139 0.27551
 C1700 C 0.70721 0.56515 0.26584
 C1701 C 0.72471 0.55632 0.27442
 C1702 C 0.73282 0.56529 0.29174
 C1703 C 0.73826 0.55546 0.31134
 C1704 C 0.72755 0.57294 0.32185
 H1705 H 0.68372 0.58764 0.26849
 H1706 H 0.70152 0.55972 0.25147
 H1707 H 0.75498 0.55531 0.31393
 H1708 H 0.73056 0.54059 0.31359
 H1709 H 0.73816 0.58285 0.33042
 H1710 H 0.71363 0.56826 0.33021
 C1711 C 0.72114 1.07906 0.80393
 C1712 C 0.70364 1.08823 0.79575
 C1713 C 0.69456 1.07843 0.77896
 C1714 C 0.70440 1.06208 0.76926
 C1715 C 0.72337 1.05507 0.77620
 C1716 C 0.73075 1.06294 0.79435
 C1717 C 0.75150 1.07028 0.79979
 C1718 C 0.74111 1.08806 0.81015
 H1719 H 0.68056 1.08401 0.77242
 H1720 H 0.69800 1.05602 0.75544
 H1721 H 0.75929 1.05987 0.81051
 H1722 H 0.76071 1.07487 0.78645
 H1723 H 0.74419 1.10289 0.80269
 H1724 H 0.74320 1.08794 0.82682
 C1725 C 0.19563 0.57894 0.77799
 C1726 C 0.20379 0.58756 0.79559
 C1727 C 0.22041 0.57738 0.80466
 C1728 C 0.23021 0.56121 0.79464
 C1729 C 0.22345 0.55481 0.77552
 C1730 C 0.20526 0.56297 0.76819
 C1731 C 0.19991 0.57088 0.74774
 C1732 C 0.18947 0.58848 0.75840
 H1733 H 0.22682 0.58272 0.81873
 H1734 H 0.24402 0.55488 0.80101
 H1735 H 0.18910 0.56073 0.73972
 H1736 H 0.21342 0.57559 0.73876
 H1737 H 0.17268 0.58851 0.75630
 H1738 H 0.19706 0.60334 0.75571
 C1739 C 0.19647 1.08005 0.27717
 C1740 C 0.20459 1.08862 0.29482
 C1741 C 0.22109 1.07833 0.30398
 C1742 C 0.23082 1.06208 0.29401
 C1743 C 0.22413 1.05572 0.27485
 C1744 C 0.20604 1.06402 0.26743
 C1745 C 0.20084 1.07195 0.24695
 C1746 C 0.19045 1.08961 0.25756
 H1747 H 0.22742 1.08359 0.31811
 H1748 H 0.24450 1.05560 0.30051
 H1749 H 0.19002 1.06185 0.23887
 H1750 H 0.21442 1.07659 0.23806
 H1751 H 0.17367 1.08972 0.25538
 H1752 H 0.19812 1.10443 0.25491
 C1753 C 0.69578 0.41955 0.72152
 C1754 C 0.70383 0.41090 0.70387
 C1755 C 0.72041 0.42103 0.69470
 C1756 C 0.73031 0.43715 0.70465
 C1757 C 0.72368 0.44356 0.72382
 C1758 C 0.70550 0.43547 0.73126
 C1759 C 0.70026 0.42757 0.75173
 C1760 C 0.68968 0.41003 0.74114
 H1761 H 0.72670 0.41573 0.68055
 H1762 H 0.74405 0.44349 0.69815
 H1763 H 0.68956 0.43778 0.75987
 H1764 H 0.71382 0.42275 0.76053
 H1765 H 0.67291 0.41012 0.74336
 H1766 H 0.69721 0.39513 0.74376
 C1767 C 0.69917 -0.08287 0.22324
 C1768 C 0.70602 -0.08991 0.20444
 C1769 C 0.72369 -0.08080 0.19631
 C1770 C 0.73330 -0.06457 0.20631
 C1771 C 0.72535 -0.05686 0.22449
 C1772 C 0.70875 -0.06688 0.23314
 C1773 C 0.68898 -0.05807 0.23995
 C1774 C 0.67851 -0.07554 0.22923
 H1775 H 0.73021 -0.08615 0.18228
 H1776 H 0.74719 -0.05828 0.20008
 H1777 H 0.68577 -0.04301 0.23301
 H1778 H 0.68727 -0.05865 0.25665
 H1779 H 0.66917 -0.07067 0.21607
 H1780 H 0.67082 -0.08618 0.23981
 C1781 C 0.22136 0.42036 0.19552
 C1782 C 0.20397 0.41114 0.20373
 C1783 C 0.19494 0.42068 0.22066
 C1784 C 0.20488 0.43683 0.23058
 C1785 C 0.22384 0.44387 0.22362
 C1786 C 0.23104 0.43632 0.20524
 C1787 C 0.25172 0.42902 0.19943
 C1788 C 0.24121 0.41142 0.18887
 H1789 H 0.18099 0.41490 0.22715
 H1790 H 0.19857 0.44269 0.24453
 H1791 H 0.26105 0.42420 0.21260
 H1792 H 0.25940 0.43961 0.18880
 H1793 H 0.24436 0.39646 0.19602
 H1794 H 0.24306 0.41184 0.17218
 C1795 C 0.22025 -0.07929 0.69477
 C1796 C 0.20279 -0.08842 0.70294
 C1797 C 0.19344 -0.07858 0.71951
 C1798 C 0.20315 -0.06221 0.72925
 C1799 C 0.22219 -0.05525 0.72243
 C1800 C 0.22971 -0.06310 0.70430
 C1801 C 0.25051 -0.07040 0.69888
 C1802 C 0.24023 -0.08826 0.68855
 H1803 H 0.17944 -0.08432 0.72593
 H1804 H 0.19668 -0.05619 0.74307
 H1805 H 0.25976 -0.07492 0.71220
 H1806 H 0.25826 -0.05998 0.68813
 H1807 H 0.24340 -0.10306 0.69604
 H1808 H 0.24230 -0.08816 0.67188
 C1809 C 0.27766 0.30403 0.42032
 C1810 C 0.29524 0.29585 0.41146
 C1811 C 0.30455 0.27929 0.42147
 C1812 C 0.29473 0.26957 0.43777
 C1813 C 0.27558 0.27637 0.44448
 C1814 C 0.26805 0.29449 0.43641
 C1815 C 0.24733 0.29982 0.42887
 C1816 C 0.25778 0.31016 0.41115
 H1817 H 0.31865 0.27287 0.41595
 H1818 H 0.30125 0.25579 0.44396
 H1819 H 0.23939 0.31064 0.43907
 H1820 H 0.23823 0.28634 0.42435
 H1821 H 0.25564 0.32691 0.41111
 H1822 H 0.25485 0.30256 0.39643
 C1823 C 0.30020 0.77547 -0.08379
 C1824 C 0.29422 0.79490 -0.09013
 C1825 C 0.27719 0.80370 -0.08044
 C1826 C 0.26745 0.79371 -0.06427
 C1827 C 0.27465 0.77486 -0.05724
 C1828 C 0.29050 0.76561 -0.06789
 C1829 C 0.31006 0.75738 -0.05987
 C1830 C 0.32066 0.76805 -0.07727
 H1831 H 0.27129 0.81825 -0.08526
 H1832 H 0.25408 0.80051 -0.05748
 H1833 H 0.31076 0.74055 -0.06093
 H1834 H 0.31404 0.76373 -0.04481
 H1835 H 0.32743 0.75729 -0.08833
 H1836 H 0.33089 0.78056 -0.07236
 C1837 C 0.77807 0.30477 -0.08017
 C1838 C 0.79583 0.29686 -0.08895
 C1839 C 0.80546 0.28058 -0.07876
 C1840 C 0.79580 0.27079 -0.06242
 C1841 C 0.77649 0.27724 -0.05582
 C1842 C 0.76862 0.29515 -0.06404
 C1843 C 0.74781 0.30003 -0.07165
 C1844 C 0.75810 0.31046 -0.08943
 H1845 H 0.81971 0.27442 -0.08420
 H1846 H 0.80257 0.25718 -0.05612
 H1847 H 0.73965 0.31076 -0.06153
 H1848 H 0.73897 0.28636 -0.07610
 H1849 H 0.75564 0.32716 -0.08958
 H1850 H 0.75535 0.30269 -0.10410
 C1851 C 0.77832 0.80502 0.42065
 C1852 C 0.79605 0.79701 0.41191
 C1853 C 0.80570 0.78084 0.42222
 C1854 C 0.79606 0.77121 0.43867
 C1855 C 0.77677 0.77772 0.44525
 C1856 C 0.76889 0.79557 0.43689
 C1857 C 0.74807 0.80038 0.42923
 C1858 C 0.75834 0.81063 0.41135
 H1859 H 0.81991 0.77459 0.41678
 H1860 H 0.80280 0.75759 0.44501
 H1861 H 0.73991 0.81121 0.43925
 H1862 H 0.73921 0.78668 0.42491
 H1863 H 0.75588 0.82733 0.41104
 H1864 H 0.75558 0.80271 0.39676
 C1865 C 0.72066 0.30434 0.57813
 C1866 C 0.70285 0.29648 0.58681
 C1867 C 0.69313 0.28037 0.57651
 C1868 C 0.70277 0.27064 0.56012
 C1869 C 0.72212 0.27701 0.55360
 C1870 C 0.73008 0.29480 0.56194
 C1871 C 0.75091 0.29944 0.56962
 C1872 C 0.74067 0.30978 0.58746
 H1873 H 0.67888 0.27421 0.58191
 H1874 H 0.69598 0.25707 0.55379
 H1875 H 0.75916 0.31020 0.55960
 H1876 H 0.75967 0.28568 0.57399
 H1877 H 0.74325 0.32646 0.58775
 H1878 H 0.74334 0.30184 0.60206
 C1879 C 0.69502 0.77829 1.07821
 C1880 C 0.70325 0.79590 1.08690
 C1881 C 0.71975 0.80513 1.07669
 C1882 C 0.72938 0.79524 1.06039
 C1883 C 0.72255 0.77610 1.05384
 C1884 C 0.70447 0.76862 1.06211
 C1885 C 0.69925 0.74798 1.06983
 C1886 C 0.68901 0.75849 1.08757
 H1887 H 0.72623 0.81920 1.08210
 H1888 H 0.74319 0.80167 1.05413
 H1889 H 0.71281 0.73892 1.07430
 H1890 H 0.68834 0.73999 1.05977
 H1891 H 0.69678 0.75565 1.10223
 H1892 H 0.67223 0.75632 1.08776
 C1893 C 0.19483 0.27931 1.07776
 C1894 C 0.20313 0.29671 1.08677
 C1895 C 0.21947 0.30624 1.07657
 C1896 C 0.22896 0.29674 1.05995
 C1897 C 0.22212 0.27773 1.05304
 C1898 C 0.20412 0.27005 1.06132
 C1899 C 0.19899 0.24922 1.06866
 C1900 C 0.18895 0.25931 1.08675
 H1901 H 0.22600 0.32018 1.08225
 H1902 H 0.24275 0.30329 1.05377
 H1903 H 0.21258 0.24006 1.07279
 H1904 H 0.18796 0.24145 1.05856
 H1905 H 0.19690 0.25616 1.10125
 H1906 H 0.17218 0.25713 1.08710
 C1907 C 0.22100 0.80478 0.57798
 C1908 C 0.20315 0.79684 0.58652
 C1909 C 0.19356 0.78072 0.57612
 C1910 C 0.20335 0.77105 0.55980
 C1911 C 0.22275 0.77747 0.55347
 C1912 C 0.23058 0.79528 0.56187
 C1913 C 0.25133 0.80006 0.56970
 C1914 C 0.24090 0.81037 0.58744
 H1915 H 0.17927 0.77454 0.58140
 H1916 H 0.19664 0.75749 0.55338
 H1917 H 0.25959 0.81086 0.55972
 H1918 H 0.26016 0.78636 0.57416
 H1919 H 0.24336 0.82707 0.58771
 H1920 H 0.24352 0.80250 0.60209
 C1921 C 0.30048 0.72347 0.58172
 C1922 C 0.29387 0.70446 0.58865
 C1923 C 0.27636 0.69611 0.57948
 C1924 C 0.26671 0.70609 0.56326
 C1925 C 0.27448 0.72448 0.55566
 C1926 C 0.29086 0.73335 0.56578
 C1927 C 0.31057 0.74056 0.55718
 C1928 C 0.32108 0.72987 0.57461
 H1929 H 0.27002 0.68190 0.58472
 H1930 H 0.25297 0.69966 0.55688
 H1931 H 0.31196 0.75737 0.55783
 H1932 H 0.31400 0.73371 0.54221
 H1933 H 0.32850 0.74059 0.58529
 H1934 H 0.33069 0.71682 0.56981
 C1935 C 0.30119 0.22356 1.08163
 C1936 C 0.29387 0.20501 1.08908
 C1937 C 0.27569 0.19740 1.08059
 C1938 C 0.26606 0.20757 1.06448
 C1939 C 0.27450 0.22541 1.05631
 C1940 C 0.29159 0.23365 1.06579
 C1941 C 0.31138 0.23973 1.05653
 C1942 C 0.32186 0.22881 1.07384
 H1943 H 0.26881 0.18362 1.08628
 H1944 H 0.25186 0.20169 1.05859
 H1945 H 0.31363 0.25646 1.05685
 H1946 H 0.31406 0.23248 1.04158
 H1947 H 0.33011 0.23931 1.08412
 H1948 H 0.33066 0.21522 1.06899
 C1949 C 0.80370 0.72183 1.07921
 C1950 C 0.79573 0.70404 1.08779
 C1951 C 0.77916 0.69482 1.07771
 C1952 C 0.76926 0.70484 1.06164
 C1953 C 0.77588 0.72410 1.05521
 C1954 C 0.79401 0.73160 1.06331
 C1955 C 0.79917 0.75219 1.07114
 C1956 C 0.80968 0.74157 1.08867
 H1957 H 0.77287 0.68061 1.08302
 H1958 H 0.75552 0.69831 1.05535
 H1959 H 0.78558 0.76109 1.07582
 H1960 H 0.80993 0.76034 1.06101
 H1961 H 0.80204 0.74419 1.10344
 H1962 H 0.82644 0.74383 1.08868
 C1963 C 0.80005 0.22301 0.58154
 C1964 C 0.79348 0.20405 0.58863
 C1965 C 0.77582 0.19569 0.57973
 C1966 C 0.76600 0.20561 0.56358
 C1967 C 0.77374 0.22393 0.55578
 C1968 C 0.79027 0.23281 0.56566
 C1969 C 0.80990 0.23992 0.55681
 C1970 C 0.82058 0.22932 0.57419
 H1971 H 0.76950 0.18154 0.58512
 H1972 H 0.75217 0.19919 0.55740
 H1973 H 0.81134 0.25673 0.55734
 H1974 H 0.81316 0.23297 0.54184
 H1975 H 0.82813 0.24008 0.58473
 H1976 H 0.83011 0.21622 0.56936
 C1977 C 0.69898 0.72344 0.41748
 C1978 C 0.70558 0.70440 0.41060
 C1979 C 0.72325 0.69615 0.41961
 C1980 C 0.73302 0.70622 0.43568
 C1981 C 0.72523 0.72460 0.44328
 C1982 C 0.70872 0.73339 0.43328
 C1983 C 0.68907 0.74063 0.44200
 C1984 C 0.67843 0.72986 0.42472
 H1985 H 0.72960 0.68195 0.41436
 H1986 H 0.74685 0.69985 0.44195
 H1987 H 0.68764 0.75744 0.44127
 H1988 H 0.68578 0.73385 0.45705
 H1989 H 0.67090 0.74053 0.41404
 H1990 H 0.66889 0.71684 0.42969
 C1991 C 0.69899 0.22314 -0.08280
 C1992 C 0.70566 0.20415 -0.08971
 C1993 C 0.72314 0.19579 -0.08046
 C1994 C 0.73271 0.20575 -0.06420
 C1995 C 0.72487 0.22412 -0.05660
 C1996 C 0.70851 0.23298 -0.06680
 C1997 C 0.68873 0.24020 -0.05833
 C1998 C 0.67834 0.22958 -0.07585
 H1999 H 0.72958 0.18163 -0.08574
 H2000 H 0.74651 0.19937 -0.05787
 H2001 H 0.68735 0.25701 -0.05897
 H2002 H 0.68519 0.23331 -0.04339
 H2003 H 0.67103 0.24035 -0.08658
 H2004 H 0.66867 0.21655 -0.07114
 C2005 C 0.22116 0.69488 -0.07952
 C2006 C 0.20354 0.70295 -0.08841
 C2007 C 0.19385 0.71916 -0.07819
 C2008 C 0.20340 0.72879 -0.06171
 C2009 C 0.22263 0.72223 -0.05502
 C2010 C 0.23049 0.70432 -0.06326
 C2011 C 0.25135 0.69940 -0.07074
 C2012 C 0.24119 0.68915 -0.08865
 H2013 H 0.17971 0.72545 -0.08373
 H2014 H 0.19668 0.74244 -0.05546
 H2015 H 0.25938 0.68856 -0.06062
 H2016 H 0.26031 0.71304 -0.07507
 H2017 H 0.24357 0.67244 -0.08888
 H2018 H 0.24410 0.69701 -0.10325
 C2019 C 0.22156 0.19558 0.42022
 C2020 C 0.20401 0.20378 0.41128
 C2021 C 0.19467 0.22033 0.42127
 C2022 C 0.20442 0.23002 0.43761
 C2023 C 0.22353 0.22320 0.44442
 C2024 C 0.23108 0.20508 0.43637
 C2025 C 0.25184 0.19977 0.42891
 C2026 C 0.24149 0.18947 0.41113
 H2027 H 0.18062 0.22679 0.41568
 H2028 H 0.19790 0.24382 0.44375
 H2029 H 0.25971 0.18891 0.43914
 H2030 H 0.26098 0.21325 0.42446
 H2031 H 0.24362 0.17272 0.41107
 H2032 H 0.24450 0.19713 0.39644
 C2033 C 0.27841 0.42027 0.69552
 C2034 C 0.29575 0.41097 0.70376
 C2035 C 0.30491 0.42060 0.72055
 C2036 C 0.29515 0.43695 0.73033
 C2037 C 0.27624 0.44413 0.72335
 C2038 C 0.26890 0.43645 0.70510
 C2039 C 0.24814 0.42930 0.69944
 C2040 C 0.25846 0.41147 0.68905
 H2041 H 0.31880 0.41472 0.72708
 H2042 H 0.30150 0.44283 0.74425
 H2043 H 0.24053 0.43984 0.68871
 H2044 H 0.23878 0.42473 0.71268
 H2045 H 0.25655 0.41171 0.67236
 H2046 H 0.25517 0.39663 0.69640
 C2047 C 0.30034 0.91668 0.22311
 C2048 C 0.29402 0.91013 0.20396
 C2049 C 0.27667 0.91960 0.19554
 C2050 C 0.26692 0.93575 0.20560
 C2051 C 0.27440 0.94299 0.22414
 C2052 C 0.29061 0.93257 0.23305
 C2053 C 0.31024 0.94097 0.24068
 C2054 C 0.32086 0.92360 0.22992
 H2055 H 0.27055 0.91465 0.18121
 H2056 H 0.25331 0.94237 0.19908
 H2057 H 0.31136 0.94000 0.25741
 H2058 H 0.31384 0.95614 0.23418
 H2059 H 0.32807 0.91263 0.24050
 H2060 H 0.33069 0.92863 0.21718
 C2061 C 0.77805 0.42030 0.19571
 C2062 C 0.79538 0.41102 0.20400
 C2063 C 0.80434 0.42053 0.22095
 C2064 C 0.79442 0.43674 0.23081
 C2065 C 0.77553 0.44386 0.22374
 C2066 C 0.76838 0.43632 0.20536
 C2067 C 0.74771 0.42913 0.19947
 C2068 C 0.75820 0.41146 0.18898
 H2069 H 0.81823 0.41469 0.22752
 H2070 H 0.80067 0.44257 0.24479
 H2071 H 0.74012 0.43975 0.18879
 H2072 H 0.73828 0.42438 0.21260
 H2073 H 0.75644 0.41187 0.17228
 H2074 H 0.75495 0.39652 0.19613
 C2075 C 0.77818 0.92101 0.69520
 C2076 C 0.79560 0.91181 0.70339
 C2077 C 0.80463 0.92137 0.72029
 C2078 C 0.79468 0.93750 0.73022
 C2079 C 0.77571 0.94454 0.72328
 C2080 C 0.76849 0.93699 0.70492
 C2081 C 0.74782 0.92965 0.69918
 C2082 C 0.75834 0.91203 0.68866
 H2083 H 0.81857 0.91557 0.72678
 H2084 H 0.80095 0.94331 0.74420
 H2085 H 0.74010 0.94020 0.68853
 H2086 H 0.73850 0.92488 0.71238
 H2087 H 0.75644 0.91237 0.67197
 H2088 H 0.75524 0.89709 0.69589
 C2089 C 0.72017 0.57842 0.69498
 C2090 C 0.70271 0.58761 0.70309
 C2091 C 0.69324 0.57769 0.71957
 C2092 C 0.70281 0.56116 0.72925
 C2093 C 0.72183 0.55409 0.72248
 C2094 C 0.72950 0.56208 0.70446
 C2095 C 0.75036 0.56932 0.69922
 C2096 C 0.74023 0.58732 0.68894
 H2097 H 0.67925 0.58350 0.72598
 H2098 H 0.69624 0.55511 0.74301
 H2099 H 0.75815 0.55894 0.68845
 H2100 H 0.75953 0.57368 0.71263
 H2101 H 0.74241 0.58735 0.67229
 H2102 H 0.74341 0.60204 0.69655
 C2103 C 0.69725 0.08103 0.22163
 C2104 C 0.70404 0.08794 0.20275
 C2105 C 0.72157 0.07861 0.19456
 C2106 C 0.73112 0.06233 0.20460
 C2107 C 0.72327 0.05478 0.22290
 C2108 C 0.70678 0.06499 0.23156
 C2109 C 0.68697 0.05636 0.23849
 C2110 C 0.67658 0.07394 0.22781
 H2111 H 0.72808 0.08387 0.18049
 H2112 H 0.74501 0.05600 0.19839
 H2113 H 0.68537 0.05696 0.25520
 H2114 H 0.68362 0.04133 0.23160
 H2115 H 0.66908 0.08467 0.23844
 H2116 H 0.66708 0.06915 0.21476
 C2117 C 0.22020 0.57831 0.19449
 C2118 C 0.20268 0.58743 0.20255
 C2119 C 0.19327 0.57758 0.21910
 C2120 C 0.20299 0.56125 0.22895
 C2121 C 0.22210 0.55432 0.22225
 C2122 C 0.22967 0.56215 0.20413
 C2123 C 0.25046 0.56951 0.19880
 C2124 C 0.24017 0.58732 0.18836
 H2125 H 0.17923 0.58333 0.22544
 H2126 H 0.19647 0.55526 0.24276
 H2127 H 0.25832 0.55910 0.18813
 H2128 H 0.25960 0.57408 0.21217
 H2129 H 0.24233 0.58722 0.17170
 H2130 H 0.24321 0.60214 0.19582
 C2131 C 0.19599 0.07897 0.72100
 C2132 C 0.20410 0.08772 0.70342
 C2133 C 0.22085 0.07771 0.69439
 C2134 C 0.23082 0.06164 0.70444
 C2135 C 0.22408 0.05515 0.72356
 C2136 C 0.20576 0.06309 0.73082
 C2137 C 0.20024 0.07088 0.75124
 C2138 C 0.18961 0.08837 0.74057
 H2139 H 0.22721 0.08309 0.68029
 H2140 H 0.24466 0.05541 0.69805
 H2141 H 0.21366 0.07577 0.76019
 H2142 H 0.18955 0.06057 0.75926
 H2143 H 0.19697 0.10332 0.74329
 H2144 H 0.17281 0.08815 0.74262
 C2145 C 0.30052 0.58238 0.27550
 C2146 C 0.29402 0.58925 0.29448
 C2147 C 0.27652 0.58001 0.30286
 C2148 C 0.26675 0.56385 0.29290
 C2149 C 0.27435 0.55633 0.27450
 C2150 C 0.29076 0.56646 0.26564
 C2151 C 0.31041 0.55774 0.25836
 C2152 C 0.32106 0.57513 0.26903
 H2153 H 0.27027 0.58520 0.31707
 H2154 H 0.25302 0.55745 0.29936
 H2155 H 0.31177 0.55848 0.24163
 H2156 H 0.31377 0.54263 0.26509
 H2157 H 0.32852 0.58588 0.25839
 H2158 H 0.33067 0.57016 0.28195
 C2159 C 0.27891 0.07750 0.80382
 C2160 C 0.29596 0.08714 0.79538
 C2161 C 0.30514 0.07768 0.77850
 C2162 C 0.29557 0.06123 0.76874
 C2163 C 0.27684 0.05375 0.77587
 C2164 C 0.26959 0.06121 0.79427
 C2165 C 0.24877 0.06806 0.80018
 C2166 C 0.25889 0.08597 0.81056
 H2167 H 0.31884 0.08383 0.77182
 H2168 H 0.30184 0.05560 0.75467
 H2169 H 0.24140 0.05735 0.81091
 H2170 H 0.23926 0.07258 0.78705
 H2171 H 0.25715 0.08561 0.82726
 H2172 H 0.25531 0.10080 0.80333
 C2173 C 0.79993 0.58243 0.77539
 C2174 C 0.79398 0.58861 0.79478
 C2175 C 0.77693 0.57885 0.80348
 C2176 C 0.76710 0.56281 0.79339
 C2177 C 0.77420 0.55598 0.77454
 C2178 C 0.79011 0.56665 0.76542
 C2179 C 0.80961 0.55851 0.75716
 C2180 C 0.82034 0.57577 0.76796
 H2181 H 0.77111 0.58351 0.81804
 H2182 H 0.75373 0.55595 0.80012
 H2183 H 0.81032 0.55977 0.74042
 H2184 H 0.81348 0.54326 0.76331
 H2185 H 0.82720 0.58696 0.75738
 H2186 H 0.83052 0.57059 0.78036
 C2187 C 0.80147 0.08227 0.27617
 C2188 C 0.79476 0.08913 0.29508
 C2189 C 0.77716 0.07994 0.30327
 C2190 C 0.76751 0.06377 0.29322
 C2191 C 0.77534 0.05623 0.27492
 C2192 C 0.79185 0.06635 0.26623
 C2193 C 0.81159 0.05765 0.25917
 C2194 C 0.82209 0.07509 0.26990
 H2195 H 0.77074 0.08517 0.31738
 H2196 H 0.75371 0.05738 0.29953
 H2197 H 0.81313 0.05835 0.24245
 H2198 H 0.81492 0.04255 0.26597
 H2199 H 0.82962 0.08584 0.25931
 H2200 H 0.83158 0.07016 0.28293
 C2201 C 0.72076 0.42101 0.30378
 C2202 C 0.70350 0.41170 0.29543
 C2203 C 0.69430 0.42146 0.27872
 C2204 C 0.70399 0.43792 0.26905
 C2205 C 0.72286 0.44510 0.27609
 C2206 C 0.73020 0.43729 0.29432
 C2207 C 0.75098 0.43015 0.30000
 C2208 C 0.74072 0.41222 0.31027
 H2209 H 0.68045 0.41556 0.27214
 H2210 H 0.69765 0.44383 0.25513
 H2211 H 0.75852 0.44062 0.31082
 H2212 H 0.76042 0.42567 0.28679
 H2213 H 0.74256 0.41235 0.32696
 H2214 H 0.74409 0.39743 0.30286
 C2215 C 0.72118 0.92041 0.80373
 C2216 C 0.70381 0.91122 0.79548
 C2217 C 0.69465 0.92095 0.77873
 C2218 C 0.70442 0.93730 0.76898
 C2219 C 0.72336 0.94437 0.77595
 C2220 C 0.73071 0.93658 0.79417
 C2221 C 0.75146 0.92929 0.79976
 C2222 C 0.74111 0.91148 0.81013
 H2223 H 0.68073 0.91515 0.77221
 H2224 H 0.69806 0.94325 0.75509
 H2225 H 0.75915 0.93975 0.81049
 H2226 H 0.76076 0.92473 0.78648
 H2227 H 0.74305 0.91164 0.82681
 H2228 H 0.74431 0.89664 0.80275
 C2229 C 0.22137 0.42037 0.80377
 C2230 C 0.20388 0.41134 0.79558
 C2231 C 0.19481 0.42111 0.77880
 C2232 C 0.20476 0.43732 0.76898
 C2233 C 0.22378 0.44421 0.77590
 C2234 C 0.23106 0.43641 0.79415
 C2235 C 0.25174 0.42896 0.79978
 C2236 C 0.24121 0.41128 0.81021
 H2237 H 0.18083 0.41544 0.77232
 H2238 H 0.19842 0.44334 0.75510
 H2239 H 0.25949 0.43940 0.81049
 H2240 H 0.26103 0.42427 0.78654
 H2241 H 0.24314 0.41147 0.82690
 H2242 H 0.24429 0.39639 0.80288
 C2243 C 0.22046 0.92117 0.30415
 C2244 C 0.20287 0.91217 0.29615
 C2245 C 0.19339 0.92216 0.27973
 C2246 C 0.20310 0.93849 0.26990
 C2247 C 0.22226 0.94530 0.27650
 C2248 C 0.22992 0.93734 0.29453
 C2249 C 0.25072 0.92988 0.29968
 C2250 C 0.24045 0.91205 0.31009
 H2251 H 0.17930 0.91651 0.27344
 H2252 H 0.19653 0.94457 0.25615
 H2253 H 0.25867 0.94020 0.31035
 H2254 H 0.25978 0.92535 0.28622
 H2255 H 0.24273 0.91205 0.32673
 H2256 H 0.24342 0.89726 0.30251
 C2257 C 0.42062 0.30372 0.72068
 C2258 C 0.41175 0.29552 0.70322
 C2259 C 0.42188 0.27894 0.69407
 C2260 C 0.43823 0.26919 0.70392
 C2261 C 0.44490 0.27600 0.72293
 C2262 C 0.43679 0.29418 0.73030
 C2263 C 0.42909 0.29956 0.75081
 C2264 C 0.41129 0.30991 0.74035
 H2265 H 0.41636 0.27249 0.68009
 H2266 H 0.44443 0.25536 0.69754
 H2267 H 0.43933 0.31039 0.75870
 H2268 H 0.42447 0.28612 0.75986
 H2269 H 0.41124 0.32666 0.74240
 H2270 H 0.39645 0.30231 0.74323
 C2271 C 0.42011 0.77800 0.19574
 C2272 C 0.41088 0.79536 0.20396
 C2273 C 0.42046 0.80434 0.22087
 C2274 C 0.43669 0.79443 0.23074
 C2275 C 0.44376 0.77553 0.22375
 C2276 C 0.43616 0.76835 0.20541
 C2277 C 0.42891 0.74772 0.19959
 C2278 C 0.41121 0.75820 0.18908
 H2279 H 0.41467 0.81826 0.22736
 H2280 H 0.44260 0.80072 0.24467
 H2281 H 0.42414 0.73837 0.21275
 H2282 H 0.43953 0.74010 0.18893
 H2283 H 0.39623 0.75501 0.19625
 H2284 H 0.41161 0.75639 0.17238
 C2285 C 0.92002 0.30387 0.22141
 C2286 C 0.91143 0.29579 0.20376
 C2287 C 0.92175 0.27936 0.19457
 C2288 C 0.93805 0.26964 0.20451
 C2289 C 0.94442 0.27630 0.22367
 C2290 C 0.93610 0.29433 0.23113
 C2291 C 0.92814 0.29947 0.25161
 C2292 C 0.91040 0.30981 0.24102
 H2293 H 0.91647 0.27304 0.18044
 H2294 H 0.94449 0.25596 0.19803
 H2295 H 0.93823 0.31030 0.25970
 H2296 H 0.92351 0.28591 0.26050
 H2297 H 0.91023 0.32654 0.24323
 H2298 H 0.89557 0.30209 0.24363
 C2299 C 0.91878 0.77759 0.69726
 C2300 C 0.91097 0.79605 0.70443
 C2301 C 0.91963 0.80412 0.72222
 C2302 C 0.93613 0.79436 0.73173
 C2303 C 0.94455 0.77651 0.72354
 C2304 C 0.93504 0.76795 0.70672
 C2305 C 0.94436 0.76200 0.68703
 C2306 C 0.92655 0.77238 0.67671
 H2307 H 0.91364 0.81781 0.72899
 H2308 H 0.94192 0.80039 0.74582
 H2309 H 0.94447 0.74526 0.68489
 H2310 H 0.95919 0.76963 0.68422
 H2311 H 0.91639 0.76155 0.66871
 H2312 H 0.93100 0.78601 0.66781
 C2313 C 0.57951 0.30370 0.27796
 C2314 C 0.58820 0.29577 0.29565
 C2315 C 0.57790 0.27947 0.30510
 C2316 C 0.56157 0.26966 0.29535
 C2317 C 0.55511 0.27612 0.27614
 C2318 C 0.56338 0.29407 0.26843
 C2319 C 0.57125 0.29897 0.24785
 C2320 C 0.58902 0.30942 0.25823
 H2321 H 0.58325 0.27329 0.31927
 H2322 H 0.55517 0.25606 0.30202
 H2323 H 0.56112 0.30970 0.23966
 H2324 H 0.57586 0.28531 0.23912
 H2325 H 0.58915 0.32613 0.25582
 H2326 H 0.60385 0.30169 0.25564
 C2327 C 0.57966 0.80376 0.77712
 C2328 C 0.58812 0.79577 0.79490
 C2329 C 0.57778 0.77933 0.80407
 C2330 C 0.56162 0.76953 0.79404
 C2331 C 0.55538 0.77611 0.77479
 C2332 C 0.56370 0.79413 0.76731
 C2333 C 0.57181 0.79921 0.74687
 C2334 C 0.58940 0.80965 0.75756
 H2335 H 0.58295 0.77309 0.81829
 H2336 H 0.55512 0.75591 0.80056
 H2337 H 0.56174 0.80996 0.73863
 H2338 H 0.57658 0.78562 0.73811
 H2339 H 0.58950 0.82638 0.75527
 H2340 H 0.60430 0.80199 0.75511
 C2341 C 0.08179 0.27583 0.80066
 C2342 C 0.08950 0.29427 0.79330
 C2343 C 0.08141 0.30166 0.77493
 C2344 C 0.06537 0.29142 0.76518
 C2345 C 0.05689 0.27375 0.77367
 C2346 C 0.06602 0.26570 0.79096
 C2347 C 0.05626 0.25991 0.81049
 C2348 C 0.07353 0.27088 0.82109
 H2349 H 0.08736 0.31532 0.76804
 H2350 H 0.05971 0.29716 0.75090
 H2351 H 0.05647 0.24321 0.81297
 H2352 H 0.04119 0.26727 0.81277
 H2353 H 0.08368 0.26043 0.82962
 H2354 H 0.06852 0.28460 0.82953
 C2355 C 0.08242 0.77561 0.29978
 C2356 C 0.08953 0.79460 0.29329
 C2357 C 0.08074 0.80289 0.27562
 C2358 C 0.06467 0.79287 0.26569
 C2359 C 0.05685 0.77452 0.27333
 C2360 C 0.06661 0.76572 0.28990
 C2361 C 0.05747 0.75858 0.30929
 C2362 C 0.07477 0.76929 0.32009
 H2363 H 0.08616 0.81707 0.26939
 H2364 H 0.05851 0.79928 0.25191
 H2365 H 0.05808 0.74178 0.31077
 H2366 H 0.04231 0.76547 0.31232
 H2367 H 0.08534 0.75859 0.32775
 H2368 H 0.06969 0.78238 0.32944
 C2369 C 0.57883 0.69539 0.72108
 C2370 C 0.58750 0.70356 0.70348
 C2371 C 0.57714 0.71998 0.69428
 C2372 C 0.56070 0.72957 0.70414
 C2373 C 0.55417 0.72280 0.72324
 C2374 C 0.56260 0.70480 0.73073
 C2375 C 0.57048 0.69964 0.75125
 C2376 C 0.58835 0.68946 0.74074
 H2377 H 0.58252 0.72640 0.68022
 H2378 H 0.55429 0.74326 0.69767
 H2379 H 0.56041 0.68872 0.75927
 H2380 H 0.57497 0.71318 0.76020
 H2381 H 0.58862 0.67272 0.74293
 H2382 H 0.60312 0.69726 0.74346
 C2383 C 0.58174 0.19705 0.22281
 C2384 C 0.58853 0.20389 0.20390
 C2385 C 0.57935 0.22160 0.19599
 C2386 C 0.56326 0.23123 0.20628
 C2387 C 0.55575 0.22328 0.22455
 C2388 C 0.56588 0.20665 0.23299
 C2389 C 0.55708 0.18693 0.23984
 C2390 C 0.57445 0.17645 0.22887
 H2391 H 0.58455 0.22816 0.18193
 H2392 H 0.55695 0.24516 0.20020
 H2393 H 0.54190 0.18382 0.23307
 H2394 H 0.55784 0.18516 0.25652
 H2395 H 0.56940 0.16717 0.21577
 H2396 H 0.58523 0.16873 0.23930
 C2397 C 0.07841 0.69453 0.21995
 C2398 C 0.08694 0.70256 0.20223
 C2399 C 0.07636 0.71869 0.19279
 C2400 C 0.05989 0.72828 0.20258
 C2401 C 0.05356 0.72176 0.22183
 C2402 C 0.06214 0.70393 0.22952
 C2403 C 0.07010 0.69907 0.25009
 C2404 C 0.08802 0.68891 0.23966
 H2405 H 0.08163 0.72497 0.17862
 H2406 H 0.05339 0.74188 0.19600
 H2407 H 0.06013 0.68818 0.25826
 H2408 H 0.07452 0.71273 0.25891
 H2409 H 0.08843 0.67221 0.24208
 H2410 H 0.10272 0.69687 0.24227
 C2411 C 0.07771 0.21935 0.69431
 C2412 C 0.08692 0.20196 0.70250
 C2413 C 0.07705 0.19264 0.71907
 C2414 C 0.06056 0.20228 0.72879
 C2415 C 0.05346 0.22124 0.72194
 C2416 C 0.06140 0.22876 0.70381
 C2417 C 0.06874 0.24951 0.69844
 C2418 C 0.08670 0.23928 0.68814
 H2419 H 0.08291 0.17873 0.72555
 H2420 H 0.05464 0.19588 0.74268
 H2421 H 0.07321 0.25872 0.71179
 H2422 H 0.05835 0.25728 0.68766
 H2423 H 0.10149 0.24241 0.69569
 H2424 H 0.08668 0.24139 0.67148
 C2425 C 0.42089 0.72074 0.30378
 C2426 C 0.41185 0.70331 0.29554
 C2427 C 0.42179 0.69419 0.27890
 C2428 C 0.43819 0.70404 0.26922
 C2429 C 0.44511 0.72301 0.27616
 C2430 C 0.43710 0.73034 0.29431
 C2431 C 0.42959 0.75101 0.29980
 C2432 C 0.41174 0.74057 0.31006
 H2433 H 0.41609 0.68025 0.27239
 H2434 H 0.44425 0.69772 0.25536
 H2435 H 0.42503 0.76026 0.28649
 H2436 H 0.43994 0.75877 0.31060
 H2437 H 0.39691 0.74364 0.30255
 H2438 H 0.41176 0.74256 0.32674
 C2439 C 0.42022 0.22038 0.80316
 C2440 C 0.41073 0.20327 0.79476
 C2441 C 0.42011 0.19440 0.77766
 C2442 C 0.43633 0.20427 0.76775
 C2443 C 0.44361 0.22300 0.77491
 C2444 C 0.43628 0.22999 0.79345
 C2445 C 0.42920 0.25061 0.79955
 C2446 C 0.41154 0.24018 0.81014
 H2447 H 0.41412 0.18065 0.77103
 H2448 H 0.44203 0.19812 0.75366
 H2449 H 0.42437 0.26010 0.78652
 H2450 H 0.43997 0.25805 0.81017
 H2451 H 0.39652 0.24359 0.80316
 H2452 H 0.41210 0.24180 0.82685
 C2453 C 0.91790 0.72209 0.80138
 C2454 C 0.91015 0.70366 0.79410
 C2455 C 0.91851 0.69594 0.77600
 C2456 C 0.93475 0.70595 0.76635
 C2457 C 0.94319 0.72369 0.77469
 C2458 C 0.93390 0.73198 0.79177
 C2459 C 0.94348 0.73780 0.81137
 C2460 C 0.92597 0.72711 0.82186
 H2461 H 0.91255 0.68227 0.76918
 H2462 H 0.94048 0.70009 0.75215
 H2463 H 0.94343 0.75452 0.81370
 H2464 H 0.95844 0.73029 0.81385
 H2465 H 0.91582 0.73773 0.83019
 H2466 H 0.93072 0.71341 0.83050
 C2467 C 0.92011 0.19535 0.27749
 C2468 C 0.91157 0.20343 0.29517
 C2469 C 0.92192 0.21982 0.30436
 C2470 C 0.93820 0.22951 0.29439
 C2471 C 0.94452 0.22289 0.27519
 C2472 C 0.93617 0.20489 0.26771
 C2473 C 0.92813 0.19982 0.24726
 C2474 C 0.91044 0.18947 0.25790
 H2475 H 0.91667 0.22611 0.31853
 H2476 H 0.94468 0.24315 0.30089
 H2477 H 0.93821 0.18903 0.23908
 H2478 H 0.92346 0.21341 0.23842
 H2479 H 0.91029 0.17274 0.25564
 H2480 H 0.89559 0.19718 0.25535
 C2481 C 0.30370 0.27779 0.57881
 C2482 C 0.29546 0.29530 0.58771
 C2483 C 0.27887 0.30459 0.57770
 C2484 C 0.26917 0.29483 0.56138
 C2485 C 0.27601 0.27575 0.55463
 C2486 C 0.29418 0.26825 0.56269
 C2487 C 0.29955 0.24755 0.57016
 C2488 C 0.30988 0.25792 0.58792
 H2489 H 0.27241 0.31863 0.58326
 H2490 H 0.25535 0.30133 0.55521
 H2491 H 0.31043 0.23970 0.55993
 H2492 H 0.28606 0.23842 0.57465
 H2493 H 0.32667 0.25583 0.58795
 H2494 H 0.30224 0.25492 0.60262
 C2495 C 0.27939 0.80410 0.07724
 C2496 C 0.29668 0.79575 0.08651
 C2497 C 0.30584 0.77886 0.07693
 C2498 C 0.29610 0.76905 0.06065
 C2499 C 0.27722 0.77610 0.05349
 C2500 C 0.26989 0.79449 0.06114
 C2501 C 0.24914 0.80020 0.06833
 C2502 C 0.25946 0.81063 0.08605
 H2503 H 0.31970 0.77225 0.08281
 H2504 H 0.30243 0.75502 0.05486
 H2505 H 0.23983 0.78691 0.07292
 H2506 H 0.24149 0.81098 0.05787
 H2507 H 0.25620 0.80325 0.10082
 H2508 H 0.25756 0.82740 0.08582
 C2509 C 0.80409 0.27851 0.07854
 C2510 C 0.79600 0.29612 0.08736
 C2511 C 0.77964 0.30564 0.07718
 C2512 C 0.76994 0.29599 0.06079
 C2513 C 0.77659 0.27682 0.05412
 C2514 C 0.79459 0.26908 0.06235
 C2515 C 0.79964 0.24832 0.06988
 C2516 C 0.80994 0.25857 0.08772
 H2517 H 0.77331 0.31977 0.08266
 H2518 H 0.75626 0.30266 0.05450
 H2519 H 0.81050 0.24034 0.05974
 H2520 H 0.78601 0.23935 0.07426
 H2521 H 0.82670 0.25627 0.08789
 H2522 H 0.80213 0.25567 0.10236
 C2523 C 0.77821 0.80368 0.57871
 C2524 C 0.79571 0.79550 0.58775
 C2525 C 0.80481 0.77860 0.57812
 C2526 C 0.79487 0.76864 0.56206
 C2527 C 0.77580 0.77552 0.55522
 C2528 C 0.76850 0.79390 0.56285
 C2529 C 0.74784 0.79957 0.57030
 C2530 C 0.75839 0.81022 0.58775
 H2531 H 0.81884 0.77215 0.58375
 H2532 H 0.80127 0.75471 0.55610
 H2533 H 0.73870 0.78625 0.57515
 H2534 H 0.73996 0.81020 0.55985
 H2535 H 0.75538 0.80299 0.60265
 H2536 H 0.75641 0.82699 0.58737
 C2537 C 0.30460 0.72125 0.42047
 C2538 C 0.29638 0.70366 0.41176
 C2539 C 0.27993 0.69437 0.42199
 C2540 C 0.27034 0.70418 0.43836
 C2541 C 0.27715 0.72332 0.44495
 C2542 C 0.29519 0.73085 0.43664
 C2543 C 0.30040 0.75153 0.42898
 C2544 C 0.31059 0.74108 0.41117
 H2545 H 0.27347 0.68030 0.41657
 H2546 H 0.25657 0.69771 0.44466
 H2547 H 0.31135 0.75946 0.43904
 H2548 H 0.28685 0.76062 0.42458
 H2549 H 0.32737 0.74324 0.41094
 H2550 H 0.30278 0.74398 0.39654
 C2551 C 0.30455 0.21969 0.92103
 C2552 C 0.29633 0.20213 0.91224
 C2553 C 0.28001 0.19268 0.92253
 C2554 C 0.27050 0.20232 0.93906
 C2555 C 0.27727 0.22144 0.94574
 C2556 C 0.29522 0.22912 0.93735
 C2557 C 0.30025 0.24987 0.92977
 C2558 C 0.31034 0.23961 0.91182
 H2559 H 0.27356 0.17863 0.91702
 H2560 H 0.25676 0.19577 0.94534
 H2561 H 0.31123 0.25781 0.93980
 H2562 H 0.28662 0.25894 0.92553
 H2563 H 0.32711 0.24187 0.91146
 H2564 H 0.30239 0.24257 0.89727
 C2565 C 0.80496 0.72046 0.92091
 C2566 C 0.79689 0.70269 0.91243
 C2567 C 0.78059 0.69331 0.92281
 C2568 C 0.77091 0.70322 0.93905
 C2569 C 0.77750 0.72252 0.94534
 C2570 C 0.79546 0.73015 0.93695
 C2571 C 0.80042 0.75079 0.92906
 C2572 C 0.81071 0.74025 0.91137
 H2573 H 0.77429 0.67909 0.91757
 H2574 H 0.75723 0.69667 0.94546
 H2575 H 0.81128 0.75897 0.93902
 H2576 H 0.78677 0.75968 0.92455
 H2577 H 0.82747 0.74260 0.91109
 H2578 H 0.80285 0.74288 0.89671
 C2579 C 0.77931 0.19524 0.42132
 C2580 C 0.79663 0.20364 0.41214
 C2581 C 0.80574 0.22046 0.42185
 C2582 C 0.79592 0.23019 0.43815
 C2583 C 0.77699 0.22313 0.44518
 C2584 C 0.76972 0.20479 0.43743
 C2585 C 0.74901 0.19911 0.43014
 C2586 C 0.75943 0.18875 0.41242
 H2587 H 0.81963 0.22707 0.41606
 H2588 H 0.80221 0.24418 0.44404
 H2589 H 0.73971 0.21243 0.42556
 H2590 H 0.74132 0.18830 0.44053
 H2591 H 0.75623 0.19618 0.39766
 H2592 H 0.75755 0.17197 0.41258
 C2593 C 0.69631 0.27831 0.42004
 C2594 C 0.70465 0.29564 0.41089
 C2595 C 0.72159 0.30468 0.42052
 C2596 C 0.73146 0.29481 0.43670
 C2597 C 0.72443 0.27590 0.44368
 C2598 C 0.70598 0.26869 0.43604
 C2599 C 0.70020 0.24806 0.42879
 C2600 C 0.68967 0.25851 0.41118
 H2601 H 0.72816 0.31859 0.41479
 H2602 H 0.74544 0.30114 0.44264
 H2603 H 0.68943 0.24039 0.43927
 H2604 H 0.71351 0.23877 0.42410
 H2605 H 0.67285 0.25667 0.41149
 H2606 H 0.69697 0.25531 0.39634
 C2607 C 0.72400 0.80038 0.91694
 C2608 C 0.70482 0.79401 0.91017
 C2609 C 0.69622 0.77674 0.91955
 C2610 C 0.70616 0.76706 0.93576
 C2611 C 0.72477 0.77454 0.94316
 C2612 C 0.73384 0.79071 0.93288
 C2613 C 0.74134 0.81031 0.94135
 C2614 C 0.73070 0.82087 0.92391
 H2615 H 0.68185 0.77061 0.91444
 H2616 H 0.69954 0.75349 0.94228
 H2617 H 0.75821 0.81149 0.94061
 H2618 H 0.73457 0.81388 0.95634
 H2619 H 0.74150 0.82810 0.91316
 H2620 H 0.71776 0.83064 0.92874
 C2621 C 0.22378 0.29984 0.91669
 C2622 C 0.20463 0.29350 0.90981
 C2623 C 0.19617 0.27596 0.91882
 C2624 C 0.20616 0.26604 0.93486
 C2625 C 0.22467 0.27356 0.94247
 C2626 C 0.23365 0.28996 0.93249
 C2627 C 0.24110 0.30946 0.94124
 C2628 C 0.23041 0.32025 0.92396
 H2629 H 0.18185 0.26983 0.91360
 H2630 H 0.19960 0.25234 0.94116
 H2631 H 0.25796 0.31071 0.94052
 H2632 H 0.23432 0.31279 0.95628
 H2633 H 0.24118 0.32767 0.91330
 H2634 H 0.21745 0.32990 0.92894
 C2635 C 0.19600 0.77763 0.41968
 C2636 C 0.20413 0.79522 0.41085
 C2637 C 0.22083 0.80440 0.42075
 C2638 C 0.23070 0.79449 0.43690
 C2639 C 0.22391 0.77537 0.44357
 C2640 C 0.20569 0.76794 0.43563
 C2641 C 0.20031 0.74732 0.42802
 C2642 C 0.18979 0.75786 0.41045
 H2643 H 0.22721 0.81850 0.41527
 H2644 H 0.24452 0.80097 0.44306
 H2645 H 0.18955 0.73935 0.43828
 H2646 H 0.21380 0.73826 0.42335
 H2647 H 0.17300 0.75575 0.41055
 H2648 H 0.19730 0.75502 0.39565
 C2649 C 0.69530 0.72073 0.57803
 C2650 C 0.70369 0.70346 0.58727
 C2651 C 0.72048 0.69426 0.57749
 C2652 C 0.73022 0.70395 0.56111
 C2653 C 0.72318 0.72283 0.55400
 C2654 C 0.70483 0.73018 0.56182
 C2655 C 0.69914 0.75089 0.56901
 C2656 C 0.68881 0.74062 0.58683
 H2657 H 0.72712 0.68041 0.58332
 H2658 H 0.74422 0.69759 0.55521
 H2659 H 0.68826 0.75851 0.55861
 H2660 H 0.71249 0.76020 0.57347
 H2661 H 0.67200 0.74252 0.58675
 H2662 H 0.69632 0.74390 0.60154
 C2663 C 0.72337 0.19858 0.08078
 C2664 C 0.70424 0.20497 0.08771
 C2665 C 0.69570 0.22240 0.07856
 C2666 C 0.70560 0.23215 0.06234
 C2667 C 0.72410 0.22459 0.05471
 C2668 C 0.73316 0.20830 0.06484
 C2669 C 0.74061 0.18871 0.05626
 C2670 C 0.73003 0.17810 0.07371
 H2671 H 0.68142 0.22862 0.08383
 H2672 H 0.69904 0.24585 0.05603
 H2673 H 0.75748 0.18749 0.05691
 H2674 H 0.73378 0.18523 0.04129
 H2675 H 0.74087 0.17082 0.08440
 H2676 H 0.71707 0.16838 0.06891
 C2677 C 0.19634 0.72129 0.07858
 C2678 C 0.20458 0.70390 0.08772
 C2679 C 0.22149 0.69477 0.07808
 C2680 C 0.23142 0.70458 0.06191
 C2681 C 0.22450 0.72355 0.05493
 C2682 C 0.20608 0.73087 0.06259
 C2683 C 0.20041 0.75153 0.06991
 C2684 C 0.18980 0.74112 0.08749
 H2685 H 0.22799 0.68082 0.08381
 H2686 H 0.24538 0.69817 0.05595
 H2687 H 0.18970 0.75931 0.05945
 H2688 H 0.21376 0.76069 0.07463
 H2689 H 0.17299 0.74306 0.08719
 H2690 H 0.19710 0.74421 0.10234
 C2691 C 0.19534 0.22132 0.57891
 C2692 C 0.20368 0.20380 0.58772
 C2693 C 0.22029 0.19463 0.57761
 C2694 C 0.22989 0.20451 0.56128
 C2695 C 0.22294 0.22359 0.55462
 C2696 C 0.20477 0.23099 0.56279
 C2697 C 0.19938 0.25162 0.57041
 C2698 C 0.18914 0.24110 0.58816
 H2699 H 0.22683 0.18059 0.58310
 H2700 H 0.24372 0.19811 0.55503
 H2701 H 0.18844 0.25951 0.56027
 H2702 H 0.21286 0.26076 0.57488
 H2703 H 0.17234 0.24315 0.58828
 H2704 H 0.19682 0.24402 0.60284
   
