data_POSCAR
  _audit_creation_date              2014-09-24
  _audit_creation_method            'ToBaCCo'
  _symmetry_space_group_name_H-M    'P1'
  _symmetry_Int_Tables_number       1
  _symmetry_cell_setting            triclinic
  loop_
  _symmetry_equiv_pos_as_xyz
 x,y,z
_cell_length_a 33.2279
_cell_length_b 33.5270
_cell_length_c 34.8020
_cell_angle_alpha 90.606800
_cell_angle_beta 89.175300
_cell_angle_gamma 91.545400
loop_
  _atom_site_label
  _atom_site_type_symbol
  _atom_site_fract_x
  _atom_site_fract_y
  _atom_site_fract_z
C1 C 0.75404 0.62643 1.00009
 C2 C 0.74283 0.40275 0.48632
 C3 C 0.27757 -0.09807 0.00907
 C4 C 0.23861 0.12136 0.50415
 C5 C 0.11844 0.48486 0.25378
 C6 C -0.11279 -0.03134 0.25126
 C7 C 0.37094 0.51700 0.75477
 C8 C 0.63453 1.02430 0.74544
 C9 C -0.00388 0.22166 -0.12325
 C10 C 0.50407 0.26381 0.09949
 C11 C 0.97393 0.72675 0.63691
 C12 C 0.47660 0.75433 0.37353
 C13 C 0.45145 -0.01668 0.30532
 H14 H 0.45443 0.01139 0.32076
 C15 C 0.46605 -0.05146 0.32125
 H16 H 0.48041 -0.05015 0.34899
 C17 C 0.42468 -0.05376 0.25269
 H18 H 0.40668 -0.05504 0.22711
 C19 C 0.43877 -0.08914 0.26756
 H20 H 0.43176 -0.11726 0.25322
 N21 N 0.42996 -0.01873 0.27237
 C22 C 0.40354 0.10287 0.24057
 H23 H 0.37143 0.09997 0.24582
 C24 C 0.41936 0.13694 0.22308
 H25 H 0.39940 0.16029 0.21480
 C26 C 0.46785 0.07365 0.24071
 H27 H 0.48596 0.04800 0.24601
 C28 C 0.48494 0.10722 0.22243
 H29 H 0.51629 0.10742 0.21351
 Zn30 Zn 0.39798 0.02478 0.25977
 N31 N 0.42755 0.07180 0.24816
 C32 C 0.37335 0.06756 0.32421
 N33 N 0.36362 0.03481 0.30257
 C34 C 0.33231 0.00986 0.31282
 C35 C 0.30720 0.01963 0.34408
 C36 C 0.34955 0.07813 0.35558
 C37 C 0.39499 0.01077 0.18238
 C38 C 0.37967 -0.00001 0.14664
 C39 C 0.31327 -0.00539 0.17578
 C40 C 0.32985 0.00610 0.21106
 N41 N 0.37030 0.01263 0.21386
 H42 H 0.39974 0.08568 0.31724
 H43 H 0.32648 -0.01725 0.29651
 H44 H 0.28145 0.00056 0.35133
 H45 H 0.35729 0.10481 0.37201
 H46 H 0.42698 0.01649 0.18537
 H47 H 0.39989 -0.00307 0.12216
 H48 H 0.28137 -0.01252 0.17394
 H49 H 0.31055 0.00877 0.23610
 C50 C 0.46003 0.13853 0.21241
 C51 C 0.45811 -0.08826 0.30297
 C52 C 0.33854 -0.00892 0.14334
 C53 C 0.31528 0.05485 0.36498
 C54 C 0.09906 1.02134 0.80597
 H55 H 0.11124 1.00067 0.82609
 C56 C 0.08053 1.05559 0.81974
 H57 H 0.07863 1.06104 0.85044
 C58 C 0.08726 1.03985 0.74165
 H59 H 0.09078 1.03387 0.71121
 C60 C 0.06771 1.07423 0.75430
 H61 H 0.05544 1.09426 0.73355
 N62 N 0.10306 1.01461 0.76751
 C63 C 0.12333 0.89532 0.71949
 H64 H 0.15472 0.89874 0.71121
 C65 C 0.10173 0.86076 0.70899
 H66 H 0.11646 0.83844 0.69147
 C67 C 0.06567 0.92155 0.75030
 H68 H 0.05173 0.94554 0.76617
 C69 C 0.04336 0.88655 0.74186
 H70 H 0.01224 0.88393 0.75136
 Zn71 Zn 0.13628 0.97243 0.75045
 N72 N 0.10489 0.92538 0.73887
 C73 C 0.17094 0.92354 0.80611
 N74 N 0.17165 0.96096 0.79123
 C75 C 0.19283 0.99139 0.80848
 C76 C 0.21324 0.98506 0.84257
 C77 C 0.19072 0.91600 0.84027
 C78 C 0.15435 0.97432 0.67070
 C79 C 0.17227 0.98860 0.63692
 C80 C 0.21193 1.03541 0.67465
 C81 C 0.19360 1.01984 0.70789
 N82 N 0.16521 0.98986 0.70547
 H83 H 0.15348 0.89982 0.79263
 H84 H 0.19161 1.02127 0.79745
 H85 H 0.22886 1.00976 0.85672
 H86 H 0.18872 0.88645 0.85256
 H87 H 0.13029 0.95221 0.66871
 H88 H 0.16226 0.97677 0.60948
 H89 H 0.23293 1.06057 0.67690
 H90 H 0.20099 1.03298 0.73534
 C91 C 0.06133 0.85552 0.72074
 C92 C 0.06551 1.08305 0.79380
 C93 C 0.20104 1.01987 0.63863
 C94 C 0.21113 0.94728 0.85935
 C95 C 0.54264 0.54909 0.27455
 H96 H 0.53623 0.51865 0.28316
 C97 C 0.51705 0.57926 0.28649
 H98 H 0.49092 0.57189 0.30424
 C99 C 0.58598 0.59610 0.24324
 H100 H 0.61305 0.60280 0.22688
 C101 C 0.56145 0.62731 0.25504
 H102 H 0.57046 0.65777 0.24836
 N103 N 0.57707 0.55805 0.25444
 C104 C 0.58886 0.43314 0.24790
 H105 H 0.60873 0.43002 0.27192
 C106 C 0.57191 0.39910 0.23025
 H107 H 0.57911 0.36978 0.24050
 C108 C 0.55804 0.47463 0.20268
 H109 H 0.55409 0.50413 0.19125
 C110 C 0.54063 0.44151 0.18419
 H111 H 0.52340 0.44551 0.15840
 Zn112 Zn 0.61361 0.51564 0.24783
 N113 N 0.58298 0.46979 0.23285
 C114 C 0.67152 0.48262 0.29609
 N115 N 0.64016 0.50782 0.29507
 C116 C 0.62772 0.52769 0.32729
 C117 C 0.64585 0.52126 0.36257
 C118 C 0.69085 0.47571 0.33072
 C119 C 0.65380 0.50131 0.17697
 C120 C 0.67664 0.51161 0.14441
 C121 C 0.70043 0.57090 0.17793
 C122 C 0.67751 0.55916 0.21011
 N123 N 0.65267 0.52628 0.20814
 H124 H 0.68110 0.46745 0.27007
 H125 H 0.60324 0.54810 0.32597
 H126 H 0.63486 0.53625 0.38820
 H127 H 0.71500 0.45469 0.33146
 H128 H 0.63535 0.47435 0.17632
 H129 H 0.67436 0.49336 0.11862
 H130 H 0.71691 0.59921 0.17839
 H131 H 0.67751 0.57769 0.23573
 C132 C 0.54894 0.40327 0.19709
 C133 C 0.52705 0.61909 0.27776
 C134 C 0.69851 0.54783 0.14410
 C135 C 0.67767 0.49489 0.36448
 C136 C 0.85931 0.38700 0.78672
 H137 H 0.82732 0.38873 0.79244
 C138 C 0.87972 0.35301 0.79711
 H139 H 0.86330 0.32879 0.81117
 C140 C 0.91999 0.41770 0.76394
 H141 H 0.93578 0.44336 0.75199
 C142 C 0.94158 0.38401 0.77359
 H143 H 0.97383 0.38390 0.76865
 N144 N 0.87951 0.41850 0.77046
 C145 C 0.87529 0.54488 0.76475
 H146 H 0.85675 0.54615 0.79043
 C147 C 0.89044 0.58041 0.74881
 H148 H 0.88385 0.60860 0.76269
 C149 C 0.90324 0.50728 0.71337
 H150 H 0.90629 0.47895 0.69860
 C151 C 0.91975 0.54199 0.69697
 H152 H 0.93666 0.54000 0.67021
 Zn153 Zn 0.84848 0.46421 0.76095
 N154 N 0.88090 0.50934 0.74636
 C155 C 0.84461 0.47792 0.83919
 N156 N 0.82114 0.47716 0.80745
 C157 C 0.78266 0.49002 0.80896
 C158 C 0.76755 0.50726 0.84292
 C159 C 0.83074 0.49475 0.87354
 C160 C 0.80142 0.48697 0.69921
 C161 C 0.78782 0.48304 0.66143
 C162 C 0.79517 0.41180 0.66587
 C163 C 0.80946 0.41714 0.70320
 N164 N 0.81362 0.45446 0.71865
 H165 H 0.87525 0.46793 0.83703
 H166 H 0.76479 0.48957 0.78322
 H167 H 0.73818 0.52050 0.84309
 H168 H 0.85093 0.49807 0.89760
 H169 H 0.80560 0.51642 0.71175
 H170 H 0.78125 0.50945 0.64527
 H171 H 0.79412 0.38217 0.65314
 H172 H 0.81989 0.39170 0.71858
 C173 C 0.91166 0.57930 0.71372
 C174 C 0.92137 0.35108 0.79039
 C175 C 0.78651 0.44525 0.64381
 C176 C 0.79249 0.51114 0.87511
 C177 C 0.25371 0.46316 -0.04350
 H178 H 0.24856 0.47712 -0.01583
 C179 C 0.26682 0.48648 -0.07459
 H180 H 0.27284 0.51814 -0.07054
 C181 C 0.25484 0.40466 -0.08237
 H182 H 0.25022 0.37271 -0.08512
 C183 C 0.26797 0.42672 -0.11403
 H184 H 0.27469 0.41156 -0.14091
 N185 N 0.24962 0.42281 -0.04762
 C186 C 0.18154 0.41473 0.05071
 H187 H 0.16027 0.39598 0.03523
 C188 C 0.16991 0.43174 0.08564
 H189 H 0.13965 0.42614 0.09667
 C190 C 0.24738 0.44298 0.05678
 H191 H 0.27790 0.44615 0.04576
 C192 C 0.23720 0.45989 0.09239
 H193 H 0.25988 0.47605 0.10884
 Zn194 Zn 0.23719 0.38916 -0.00559
 N195 N 0.21997 0.41981 0.03738
 C196 C 0.29035 0.35635 0.04710
 N197 N 0.28396 0.36116 0.00890
 C198 C 0.31168 0.34922 -0.01776
 C199 C 0.34801 0.33315 -0.00621
 C200 C 0.32646 0.34120 0.05985
 C201 C 0.16397 0.36990 -0.03942
 C202 C 0.13106 0.34629 -0.05086
 C203 C 0.16256 0.28892 -0.02405
 C204 C 0.19518 0.31374 -0.01319
 N205 N 0.19502 0.35349 -0.02073
 H206 H 0.26772 0.36502 0.06792
 H207 H 0.30616 0.35281 -0.04798
 H208 H 0.36981 0.32383 -0.02769
 H209 H 0.33137 0.33862 0.09041
 H210 H 0.16476 0.40154 -0.04525
 H211 H 0.10673 0.35980 -0.06599
 H212 H 0.16273 0.25736 -0.01775
 H213 H 0.22035 0.30140 0.00156
 C214 C 0.19820 0.45363 0.10735
 C215 C 0.27541 0.46780 -0.10985
 C216 C 0.12975 0.30541 -0.04263
 C217 C 0.35624 0.33019 0.03310
 C218 C 0.76469 0.01211 1.05400
 H219 H 0.76007 -0.00262 1.02658
 C220 C 0.77968 -0.00931 1.08481
 H221 H 0.78740 -0.04027 1.08082
 C222 C 0.76371 0.07118 1.09203
 H223 H 0.75810 0.10274 1.09443
 C224 C 0.77849 0.05099 1.12343
 H225 H 0.78513 0.06729 1.14973
 N226 N 0.75835 0.05194 1.05783
 C227 C 0.68507 0.05883 0.96385
 H228 H 0.66521 0.07550 0.98233
 C229 C 0.67172 0.04687 0.92774
 H230 H 0.64160 0.05403 0.91904
 C231 C 0.74913 0.03172 0.95109
 H232 H 0.77990 0.02773 0.95973
 C233 C 0.73727 0.02010 0.91414
 H234 H 0.75882 0.00678 0.89458
 Zn235 Zn 0.74476 0.08390 1.01553
 N236 N 0.72377 0.05282 0.97415
 C237 C 0.79573 0.11736 0.95858
 N238 N 0.79107 0.11319 0.99725
 C239 C 0.81864 0.12948 1.02186
 C240 C 0.85325 0.14942 1.00761
 C241 C 0.83022 0.13587 0.94321
 C242 C 0.67413 0.10649 1.05363
 C243 C 0.64133 0.13051 1.06125
 C244 C 0.67319 0.18244 1.02280
 C245 C 0.70539 0.15731 1.01572
 N246 N 0.70506 0.12006 1.03090
 H247 H 0.77266 0.10637 0.93939
 H248 H 0.81401 0.12686 1.05252
 H249 H 0.87489 0.16245 1.02739
 H250 H 0.83379 0.13790 0.91229
 H251 H 0.67442 0.07650 1.06477
 H252 H 0.61660 0.11935 1.07907
 H253 H 0.67352 0.21205 1.01063
 H254 H 0.73010 0.16713 0.99729
 C255 C 0.69854 0.02903 0.90182
 C256 C 0.78779 0.01066 1.11957
 C257 C 0.64043 0.16864 1.04519
 C258 C 0.85991 0.15150 0.96773
 C259 C 0.27093 0.54713 0.55051
 H260 H 0.28572 0.54165 0.52327
 C261 C 0.28561 0.52974 0.58357
 H262 H 0.31246 0.51217 0.58166
 C263 C 0.22033 0.57919 0.58703
 H264 H 0.19534 0.59902 0.58860
 C265 C 0.23418 0.56260 0.62089
 H266 H 0.22068 0.57090 0.64823
 N267 N 0.24057 0.57349 0.55315
 C268 C 0.21597 0.60154 0.43380
 H269 H 0.22325 0.63316 0.43529
 C270 C 0.20281 0.58446 0.39943
 H271 H 0.19966 0.60300 0.37440
 C272 C 0.20930 0.53921 0.46529
 H273 H 0.21121 0.52204 0.49130
 C274 C 0.19620 0.52077 0.43126
 H275 H 0.18784 0.48933 0.43103
 Zn276 Zn 0.23132 0.60796 0.51102
 N277 N 0.21793 0.57910 0.46601
 C278 C 0.28220 0.67815 0.50150
 N279 N 0.27945 0.63762 0.49864
 C280 C 0.30972 0.61651 0.48214
 C281 C 0.34381 0.63600 0.46684
 C282 C 0.31588 0.69890 0.48644
 C283 C 0.15238 0.63563 0.50500
 C284 C 0.11771 0.65501 0.51697
 C285 C 0.15619 0.68833 0.56675
 C286 C 0.19033 0.66839 0.55371
 N287 N 0.18768 0.64188 0.52384
 H288 H 0.25752 0.69466 0.51353
 H289 H 0.30628 0.58465 0.47836
 H290 H 0.36653 0.61893 0.45190
 H291 H 0.31688 0.73122 0.48695
 H292 H 0.15034 0.61395 0.48191
 H293 H 0.08947 0.64828 0.50283
 H294 H 0.15809 0.70757 0.59189
 H295 H 0.21836 0.67224 0.56890
 C296 C 0.19173 0.54394 0.39828
 C297 C 0.26864 0.53954 0.61941
 C298 C 0.11922 0.68105 0.54866
 C299 C 0.34657 0.67765 0.46806
 C300 C 0.78680 0.92308 0.45932
 H301 H 0.79926 0.93051 0.48712
 C302 C 0.80496 0.93851 0.42598
 H303 H 0.83175 0.95749 0.42810
 C304 C 0.73909 0.88637 0.42216
 H305 H 0.71460 0.86465 0.42048
 C306 C 0.75629 0.90115 0.38815
 H307 H 0.74498 0.89070 0.36069
 N308 N 0.75469 0.89718 0.45688
 C309 C 0.70311 0.89226 0.57255
 H310 H 0.70026 0.86009 0.57409
 C311 C 0.69238 0.91557 0.60412
 H312 H 0.68107 0.90146 0.63012
 C313 C 0.72231 0.94990 0.53696
 H314 H 0.73408 0.96295 0.51072
 C315 C 0.71165 0.97452 0.56803
 H316 H 0.71536 1.00660 0.56586
 Zn317 Zn 0.73469 0.87231 0.50248
 N318 N 0.71852 0.90953 0.54018
 C319 C 0.79483 0.85719 0.55542
 N320 N 0.77648 0.84174 0.52363
 C321 C 0.78895 0.80706 0.50719
 C322 C 0.81954 0.78545 0.52412
 C323 C 0.82547 0.83686 0.57297
 C324 C 0.65799 0.86331 0.47567
 C325 C 0.62325 0.84443 0.46193
 C326 C 0.64762 0.78168 0.48447
 C327 C 0.68265 0.80177 0.49701
 N328 N 0.68769 0.84167 0.49102
 H329 H 0.78603 0.88562 0.56718
 H330 H 0.77490 0.79595 0.48120
 H331 H 0.82871 0.75747 0.51137
 H332 H 0.83952 0.84955 0.59837
 H333 H 0.66239 0.89518 0.47227
 H334 H 0.60110 0.86177 0.44744
 H335 H 0.64432 0.74968 0.48785
 H336 H 0.70600 0.78538 0.51061
 C337 C 0.69716 0.95702 0.60211
 C338 C 0.79003 0.92689 0.38995
 C339 C 0.61848 0.80298 0.46496
 C340 C 0.83748 0.80007 0.55793
 C341 C -0.06442 0.26959 0.44357
 H342 H -0.03775 0.26856 0.46092
 C343 C -0.09736 0.29148 0.45637
 H344 H -0.09625 0.30681 0.48390
 C345 C -0.09699 0.25474 0.38469
 H346 H -0.09575 0.24209 0.35599
 C347 C -0.13085 0.27517 0.39677
 H348 H -0.15614 0.27733 0.37768
 N349 N -0.06453 0.25269 0.40785
 C350 C 0.06212 0.24372 0.40935
 H351 H 0.06616 0.26408 0.38569
 C352 C 0.09590 0.23009 0.42784
 H353 H 0.12566 0.24033 0.41860
 C354 C 0.01915 0.20158 0.44711
 H355 H -0.01070 0.18923 0.45298
 C356 C 0.05216 0.18737 0.46660
 H357 H 0.04776 0.16420 0.48782
 Zn358 Zn -0.01696 0.23540 0.38368
 N359 N 0.02489 0.22829 0.41833
 C360 C 0.00217 0.31299 0.36859
 N361 N -0.00144 0.27707 0.35026
 C362 C 0.00767 0.27297 0.31219
 C363 C 0.02399 0.30552 0.29183
 C364 C 0.01786 0.34613 0.34938
 C365 C -0.05971 0.16413 0.36693
 C366 C -0.06731 0.12743 0.34909
 C367 C -0.00305 0.13371 0.31597
 C368 C 0.00351 0.17041 0.33480
 N369 N -0.02545 0.18555 0.35850
 H370 H -0.00536 0.31537 0.39884
 H371 H 0.00388 0.24434 0.29801
 H372 H 0.03350 0.30178 0.26214
 H373 H 0.02263 0.37404 0.36484
 H374 H -0.08136 0.17553 0.38740
 H375 H -0.09555 0.11151 0.35471
 H376 H 0.01903 0.12282 0.29552
 H377 H 0.03134 0.18719 0.32993
 C378 C 0.09106 0.20030 0.45545
 C379 C -0.13032 0.29561 0.43209
 C380 C -0.03925 0.11241 0.32265
 C381 C 0.03005 0.34214 0.31100
 C382 C 1.06877 0.77504 0.04499
 H383 H 1.03882 0.77998 0.03470
 C384 C 1.10144 0.79610 0.02848
 H385 H 1.09646 0.81667 0.00534
 C386 C 1.11120 0.74817 0.09182
 H387 H 1.11446 0.73231 0.11842
 C388 C 1.14463 0.76811 0.07589
 H389 H 1.17347 0.76678 0.08990
 N390 N 1.07405 0.75211 0.07653
 C391 C 0.94821 0.72483 0.10660
 H392 H 0.95140 0.73146 0.13685
 C393 C 0.91062 0.71342 0.09259
 H394 H 0.88541 0.71018 0.11248
 C395 C 0.97792 0.71831 0.04462
 H396 H 1.00452 0.71848 0.02640
 C397 C 0.94035 0.70798 0.02908
 H398 H 0.93820 0.70102 -0.00129
 Zn399 Zn 1.02971 0.73758 0.10890
 N400 N 0.98103 0.72662 0.08283
 C401 C 1.00661 0.81460 0.12069
 N402 N 1.02060 0.78304 0.14024
 C403 C 1.02448 0.78441 0.17912
 C404 C 1.01028 0.81715 0.20010
 C405 C 0.99259 0.84792 0.14038
 C406 C 1.06655 0.66419 0.12288
 C407 C 1.07228 0.62805 0.14129
 C408 C 1.02117 0.64570 0.18797
 C409 C 1.01689 0.68183 0.16903
 N410 N 1.03990 0.69077 0.13742
 H411 H 1.00389 0.81278 0.08981
 H412 H 1.03669 0.75949 0.19406
 H413 H 1.01031 0.81675 0.23121
 H414 H 0.97862 0.87145 0.12465
 H415 H 1.08297 0.67062 0.09656
 H416 H 1.09453 0.60781 0.13002
 H417 H 1.00283 0.63914 0.21321
 H418 H 0.99479 0.70249 0.17947
 C419 C 0.90610 0.70536 0.05328
 C420 C 1.13947 0.79374 0.04499
 C421 C 1.04901 0.61823 0.17395
 C422 C 0.99286 0.84858 0.18053
 C423 C 0.53018 0.31552 0.56609
 H424 H 0.50209 0.33106 0.56714
 C425 C 0.56299 0.33158 0.54531
 H426 H 0.55994 0.35911 0.52974
 C427 C 0.57007 0.26292 0.58787
 H428 H 0.57365 0.23717 0.60559
 C429 C 0.60343 0.27788 0.56760
 H430 H 0.63194 0.26312 0.56938
 N431 N 0.53438 0.28197 0.58718
 C432 C 0.42532 0.21583 0.61794
 H433 H 0.43679 0.20428 0.64437
 C434 C 0.38882 0.20073 0.60403
 H435 H 0.37331 0.17651 0.61896
 C436 C 0.43128 0.26145 0.56649
 H437 H 0.44774 0.28536 0.55221
 C438 C 0.39440 0.24759 0.55188
 H439 H 0.38296 0.26051 0.52596
 Zn440 Zn 0.49335 0.26634 0.62267
 N441 N 0.44608 0.24529 0.59890
 C442 C 0.43997 0.32063 0.65384
 N443 N 0.47960 0.31185 0.65166
 C444 C 0.50834 0.33626 0.66772
 C445 C 0.49729 0.37091 0.68766
 C446 C 0.42776 0.35473 0.67312
 C447 C 0.51844 0.19030 0.63607
 C448 C 0.53747 0.15974 0.65461
 C449 C 0.54582 0.20308 0.71013
 C450 C 0.52642 0.23303 0.69043
 N451 N 0.51394 0.22627 0.65380
 H452 H 0.41759 0.30120 0.64067
 H453 H 0.53974 0.32886 0.66492
 H454 H 0.52004 0.38999 0.70096
 H455 H 0.39599 0.36117 0.67489
 H456 H 0.50848 0.18595 0.60683
 H457 H 0.54185 0.13155 0.63983
 H458 H 0.55668 0.20867 0.73893
 H459 H 0.52247 0.26189 0.70388
 C460 C 0.37263 0.21704 0.57096
 C461 C 0.60018 0.31287 0.54660
 C462 C 0.55203 0.16635 0.69166
 C463 C 0.45646 0.37994 0.69070
 C464 C 0.48772 0.81496 0.93012
 H465 H 0.51791 0.82779 0.93124
 C466 C 0.45749 0.82987 0.95411
 H467 H 0.46465 0.85401 0.97400
 C468 C 0.44110 0.76939 0.90136
 H469 H 0.43453 0.74674 0.87988
 C470 C 0.40984 0.78395 0.92428
 H471 H 0.37943 0.77240 0.92023
 N472 N 0.47911 0.78517 0.90448
 C473 C 0.59596 0.74131 0.86802
 H474 H 0.59156 0.74254 0.83731
 C475 C 0.63084 0.72527 0.88224
 H476 H 0.65327 0.71350 0.86261
 C477 C 0.57046 0.75224 0.93126
 H478 H 0.54626 0.76152 0.95008
 C479 C 0.60474 0.73591 0.94674
 H480 H 0.60685 0.73236 0.97754
 Zn481 Zn 0.51929 0.76955 0.86876
 N482 N 0.56661 0.75409 0.89250
 C483 C 0.56824 0.83120 0.83957
 N484 N 0.53115 0.81334 0.83673
 C485 C 0.50214 0.82890 0.81453
 C486 C 0.51016 0.86392 0.79394
 C487 C 0.57744 0.86593 0.81962
 C488 C 0.49492 0.69118 0.86360
 C489 C 0.47878 0.65617 0.84765
 C490 C 0.47756 0.68885 0.78602
 C491 C 0.49392 0.72336 0.80319
 N492 N 0.50097 0.72414 0.84158
 H493 H 0.59035 0.81963 0.85858
 H494 H 0.47252 0.81473 0.81372
 H495 H 0.48682 0.87690 0.77706
 H496 H 0.60669 0.88050 0.82297
 H497 H 0.50131 0.69270 0.89398
 H498 H 0.47197 0.63076 0.86582
 H499 H 0.46978 0.68887 0.75590
 H500 H 0.49976 0.74971 0.78617
 C501 C 0.63477 0.72160 0.92193
 C502 C 0.41787 0.81458 0.95106
 C503 C 0.46904 0.65528 0.80875
 C504 C 0.54813 0.88271 0.79696
 C505 C 0.43995 -0.17438 0.37299
 C506 C 0.47005 -0.20187 0.35921
 C507 C 0.49939 -0.18598 0.33322
 C508 C 0.49546 -0.14928 0.31568
 C509 C 0.46255 -0.12588 0.32399
 C510 C 0.43445 -0.13807 0.35266
 C511 C 0.41597 -0.18007 0.40672
 C512 C 0.38424 -0.15526 0.41608
 C513 C 0.37621 -0.12298 0.39320
 C514 C 0.40135 -0.11396 0.36213
 H515 H 0.42131 -0.20234 0.42765
 H516 H 0.36595 -0.16101 0.44152
 H517 H 0.35132 -0.10397 0.40040
 H518 H 0.39489 -0.08752 0.34602
 H519 H 0.52460 -0.20323 0.32401
 H520 H 0.51781 -0.13959 0.29455
 C521 C 0.94808 0.24496 0.81999
 C522 C 0.97845 0.25383 0.84849
 C523 C 0.99287 0.29413 0.85002
 C524 C 0.97547 0.32447 0.82982
 C525 C 0.94388 0.31656 0.80491
 C526 C 0.93204 0.27641 0.79761
 C527 C 0.93137 0.20614 0.81420
 C528 C 0.90325 0.19785 0.78569
 C529 C 0.89023 0.22808 0.76240
 C530 C 0.90416 0.26707 0.76839
 H531 H 0.93796 0.18188 0.83241
 H532 H 0.89125 0.16775 0.78189
 H533 H 0.86867 0.22142 0.74005
 H534 H 0.89315 0.28984 0.74973
 H535 H 1.01811 0.30362 0.86719
 H536 H 0.98613 0.35488 0.83483
 C537 C 0.04486 1.19281 0.82101
 C538 C 0.01366 1.18695 0.85004
 C539 C -0.00183 1.14722 0.85370
 C540 C 0.01436 1.11507 0.83427
 C541 C 0.04671 1.11997 0.80896
 C542 C 0.06171 1.15907 0.80123
 C543 C 0.06182 1.23096 0.81265
 C544 C 0.09317 1.23610 0.78604
 C545 C 0.10945 1.20336 0.76751
 C546 C 0.09437 1.16519 0.77531
 H547 H 0.05293 1.25730 0.82761
 H548 H 0.10560 1.26570 0.78048
 H549 H 0.13434 1.20749 0.74740
 H550 H 0.10896 1.14067 0.76098
 H551 H -0.02768 1.13966 0.87138
 H552 H 0.00161 1.08550 0.83961
 C553 C 0.47761 0.71974 0.30104
 C554 C 0.48154 0.71981 0.34270
 C555 C 0.49361 0.68358 0.35924
 C556 C 0.50560 0.65115 0.33778
 C557 C 0.50611 0.65206 0.29797
 C558 C 0.49043 0.68537 0.27920
 C559 C 0.46272 0.75181 0.27956
 C560 C 0.46028 0.75028 0.23963
 C561 C 0.47229 0.71683 0.21934
 C562 C 0.48707 0.68459 0.23881
 H563 H 0.45189 0.77871 0.29183
 H564 H 0.44860 0.77532 0.22430
 H565 H 0.46992 0.71577 0.18835
 H566 H 0.49534 0.65873 0.22191
 H567 H 0.49727 0.68106 0.38988
 H568 H 0.51725 0.62582 0.35276
 C569 C 0.56051 0.32200 0.11954
 C570 C 0.52055 0.30279 0.12138
 C571 C 0.49172 0.32135 0.14566
 C572 C 0.50137 0.35305 0.17006
 C573 C 0.54045 0.36852 0.17164
 C574 C 0.57023 0.35368 0.14627
 C575 C 0.59104 0.31305 0.09177
 C576 C 0.62931 0.33096 0.09257
 C577 C 0.63870 0.35958 0.12005
 C578 C 0.60948 0.37133 0.14627
 H579 H 0.58701 0.29349 0.06768
 H580 H 0.65173 0.32291 0.07118
 H581 H 0.66844 0.37358 0.12039
 H582 H 0.61801 0.39498 0.16612
 H583 H 0.46106 0.30968 0.14731
 H584 H 0.47806 0.36528 0.18843
 C585 C 0.03156 0.74907 0.68633
 C586 C -0.00577 0.75670 0.66719
 C587 C -0.02132 0.79542 0.67277
 C588 C -0.00028 0.82582 0.69172
 C589 C 0.03717 0.81963 0.70770
 C590 C 0.05201 0.78037 0.70746
 C591 C 0.04934 0.71112 0.68532
 C592 C 0.08460 0.70382 0.70489
 C593 C 0.10299 0.73377 0.72669
 C594 C 0.08674 0.77153 0.72837
 H595 H 0.03573 0.68588 0.67092
 H596 H 0.09719 0.67437 0.70387
 H597 H 0.12982 0.72764 0.74265
 H598 H 0.10135 0.79356 0.74674
 H599 H -0.04842 0.80475 0.65937
 H600 H -0.01259 0.85542 0.69163
 C601 C 0.93186 0.65768 0.63542
 C602 C 0.95605 0.68709 0.65612
 C603 C 0.96087 0.68026 0.69594
 C604 C 0.94640 0.64574 0.71380
 C605 C 0.92387 0.61695 0.69378
 C606 C 0.91405 0.62416 0.65508
 C607 C 0.92556 0.65983 0.59532
 C608 C 0.89933 0.63340 0.57643
 C609 C 0.87902 0.60351 0.59668
 C610 C 0.88639 0.59866 0.63554
 H611 H 0.94183 0.68069 0.57747
 H612 H 0.89481 0.63615 0.54584
 H613 H 0.85809 0.58347 0.58207
 H614 H 0.86984 0.57495 0.65014
 H615 H 0.97572 0.70176 0.71447
 H616 H 0.95296 0.64152 0.74387
 C617 C 0.47345 0.19174 0.11679
 C618 C 0.48938 0.23034 0.12920
 C619 C 0.49760 0.23473 0.16903
 C620 C 0.48888 0.20467 0.19532
 C621 C 0.47306 0.16796 0.18333
 C622 C 0.46581 0.16079 0.14400
 C623 C 0.46413 0.18309 0.07799
 C624 C 0.44915 0.14581 0.06621
 C625 C 0.44252 0.11580 0.09280
 C626 C 0.45056 0.12309 0.13133
 H627 H 0.46666 0.20515 0.05629
 H628 H 0.44224 0.14036 0.03628
 H629 H 0.43074 0.08688 0.08361
 H630 H 0.44471 0.09880 0.15102
 H631 H 0.51270 0.26084 0.18078
 H632 H 0.49484 0.21010 0.22549
 C633 C 0.36591 0.49685 -0.17182
 C634 C 0.34648 0.50871 -0.20683
 C635 C 0.30398 0.51207 -0.20508
 C636 C 0.28142 0.50121 -0.17266
 C637 C 0.30001 0.48832 -0.13965
 C638 C 0.34237 0.48805 -0.13817
 C639 C 0.40785 0.49045 -0.16973
 C640 C 0.42607 0.47947 -0.13580
 C641 C 0.40308 0.47317 -0.10287
 C642 C 0.36162 0.47679 -0.10403
 H643 H 0.42740 0.49152 -0.19417
 H644 H 0.45822 0.47508 -0.13532
 H645 H 0.41728 0.46440 -0.07657
 H646 H 0.34489 0.47037 -0.07787
 H647 H 0.28683 0.52102 -0.22936
 H648 H 0.24886 0.50134 -0.17390
 C649 C 0.87482 0.92315 0.31483
 C650 C 0.86350 0.95470 0.28890
 C651 C 0.83028 0.97756 0.30079
 C652 C 0.80645 0.96799 0.33278
 C653 C 0.81448 0.93491 0.35486
 C654 C 0.84798 0.91158 0.34554
 C655 C 0.91225 0.90351 0.31326
 C656 C 0.91979 0.87055 0.33583
 C657 C 0.89126 0.85689 0.36220
 C658 C 0.85603 0.87756 0.36767
 H659 H 0.93760 0.91343 0.29655
 H660 H 0.94834 0.85586 0.33317
 H661 H 0.89716 0.83118 0.37960
 H662 H 0.83541 0.86687 0.38984
 H663 H 0.82215 1.00349 0.28500
 H664 H 0.78145 0.98672 0.34041
 C665 C 0.88013 -0.00717 1.17938
 C666 C 0.86196 -0.02400 1.21398
 C667 C 0.82007 -0.03347 1.21273
 C668 C 0.79669 -0.02420 1.18125
 C669 C 0.81400 -0.00688 1.14860
 C670 C 0.85602 -0.00016 1.14658
 C671 C 0.92115 0.00555 1.17690
 C672 C 0.93829 0.02088 1.14325
 C673 C 0.91501 0.02530 1.11102
 C674 C 0.87420 0.01546 1.11267
 H675 H 0.94065 0.00596 1.20088
 H676 H 0.96980 0.03001 1.14243
 H677 H 0.92838 0.03735 1.08492
 H678 H 0.85705 0.02044 1.08707
 H679 H 0.80387 -0.04621 1.23683
 H680 H 0.76438 -0.02935 1.18297
 C681 C 0.35351 0.55758 0.69030
 C682 C 0.34588 0.52549 0.71748
 C683 C 0.31517 0.49729 0.70763
 C684 C 0.28975 0.50242 0.67670
 C685 C 0.29356 0.53620 0.65399
 C686 C 0.32473 0.56464 0.66119
 C687 C 0.38920 0.58196 0.68897
 C688 C 0.39294 0.61536 0.66562
 C689 C 0.36223 0.62470 0.64117
 C690 C 0.32880 0.59925 0.63826
 H691 H 0.41597 0.57549 0.70393
 H692 H 0.42021 0.63378 0.66612
 H693 H 0.36511 0.65077 0.62314
 H694 H 0.30655 0.60671 0.61733
 H695 H 0.31024 0.47073 0.72436
 H696 H 0.26687 0.47974 0.67044
 C697 C 0.11192 0.50624 0.32739
 C698 C 0.13604 0.50235 0.29265
 C699 C 0.17765 0.51208 0.29551
 C700 C 0.19497 0.52457 0.32983
 C701 C 0.17209 0.52733 0.36352
 C702 C 0.13036 0.51813 0.36273
 C703 C 0.06950 0.50032 0.32779
 C704 C 0.04665 0.50362 0.36145
 C705 C 0.06500 0.51418 0.39570
 C706 C 0.10626 0.52201 0.39637
 H707 H 0.05276 0.49519 0.30208
 H708 H 0.01432 0.49881 0.36074
 H709 H 0.04706 0.51725 0.42172
 H710 H 0.11880 0.53156 0.42353
 H711 H 0.19805 0.50904 0.27133
 H712 H 0.22692 0.53196 0.33015
 C713 C 0.67363 -0.01121 0.80087
 C714 C 0.65979 0.02486 0.78333
 C715 C 0.66398 0.06049 0.80515
 C716 C 0.67792 0.06085 0.84244
 C717 C 0.68760 0.02571 0.86078
 C718 C 0.68592 -0.01070 0.84012
 C719 C 0.67511 -0.04805 0.78067
 C720 C 0.68548 -0.08310 0.79875
 C721 C 0.69486 -0.08263 0.83746
 C722 C 0.69522 -0.04685 0.85805
 H723 H 0.66916 -0.05045 0.75050
 H724 H 0.68600 -0.11086 0.78260
 H725 H 0.70229 -0.11006 0.85152
 H726 H 0.70272 -0.04790 0.88813
 H727 H 0.65375 0.08865 0.79516
 H728 H 0.67950 0.08909 0.85789
 C729 C 0.70098 1.00274 0.70327
 C730 C 0.65917 1.01378 0.70750
 C731 C 0.63652 1.01447 0.67320
 C732 C 0.65035 0.99849 0.63880
 C733 C 0.68776 0.98126 0.63649
 C734 C 0.71398 0.98428 0.66801
 C735 C 0.73081 1.00935 0.73167
 C736 C 0.76956 0.99489 0.72732
 C737 C 0.78057 0.97446 0.69419
 C738 C 0.75335 0.96960 0.66453
 H739 H 0.72643 1.02690 0.75713
 H740 H 0.79140 1.00007 0.74975
 H741 H 0.81074 0.96335 0.69098
 H742 H 0.76374 0.95494 0.63850
 H743 H 0.60569 1.02401 0.67366
 H744 H 0.63039 0.99701 0.61444
 C745 C 0.16873 0.51142 0.19896
 C746 C 0.15184 0.47875 0.22134
 C747 C 0.15968 0.43982 0.20733
 C748 C 0.17757 0.43305 0.17187
 C749 C 0.18783 0.46441 0.14755
 C750 C 0.18489 0.50402 0.16123
 C751 C 0.16793 0.55153 0.21199
 C752 C 0.18007 0.58301 0.18832
 C753 C 0.19367 0.57556 0.15111
 C754 C 0.19622 0.53650 0.13759
 H755 H 0.15809 0.55937 0.24056
 H756 H 0.17864 0.61343 0.19890
 H757 H 0.20260 0.60018 0.13271
 H758 H 0.20706 0.53208 0.10846
 H759 H 0.14849 0.41319 0.22112
 H760 H 0.18050 0.40247 0.16197
 C761 C -0.20932 0.37689 0.42698
 C762 C -0.22794 0.37329 0.46479
 C763 C -0.21605 0.34049 0.48711
 C764 C -0.18508 0.31584 0.47597
 C765 C -0.16316 0.32298 0.44237
 C766 C -0.17421 0.35442 0.41814
 C767 C -0.22397 0.40038 0.39689
 C768 C -0.20142 0.40786 0.36356
 C769 C -0.16415 0.39094 0.35838
 C770 C -0.15078 0.36400 0.38508
 H771 H -0.25354 0.41215 0.39708
 H772 H -0.21302 0.42692 0.34162
 H773 H -0.14625 0.39750 0.33288
 H774 H -0.12198 0.35069 0.37943
 H775 H -0.22908 0.33510 0.51525
 H776 H -0.17728 0.29159 0.49458
 C777 C 0.32097 0.83343 1.01059
 C778 C 0.31523 0.87475 1.00075
 C779 C 0.34840 0.89481 0.98280
 C780 C 0.38129 0.87506 0.96822
 C781 C 0.38424 0.83404 0.97203
 C782 C 0.35507 0.81304 0.99468
 C783 C 0.29599 0.81187 1.03697
 C784 C 0.30185 0.77175 1.04456
 C785 C 0.33364 0.75200 1.02749
 C786 C 0.36045 0.77247 1.00334
 H787 H 0.27238 0.82507 1.05360
 H788 H 0.28193 0.75606 1.06452
 H789 H 0.33831 0.72097 1.03395
 H790 H 0.38611 0.75644 0.99251
 H791 H 0.34763 0.92628 0.97709
 H792 H 0.40389 0.89203 0.95207
 C793 C 1.21133 0.88462 0.05475
 C794 C 1.23819 0.87777 0.02191
 C795 C 1.22681 0.84628 -0.00369
 C796 C 1.19470 0.82007 0.00362
 C797 C 1.17114 0.82430 0.03647
 C798 C 1.17812 0.85711 0.06156
 C799 C 1.21467 0.91741 0.08103
 C800 C 1.18830 0.92220 0.11208
 C801 C 1.15691 0.89513 0.11823
 C802 C 1.15157 0.86311 0.09322
 H803 H 1.23653 0.94102 0.07928
 H804 H 1.19211 0.94752 0.13139
 H805 H 1.13628 0.89921 0.14222
 H806 H 1.12586 0.84345 0.09879
 H807 H 1.24468 0.84013 -0.02915
 H808 H 1.18892 0.79545 -0.01615
 C809 C 0.67787 0.35466 0.47410
 C810 C 0.70623 0.37401 0.49986
 C811 C 0.70124 0.36444 0.53930
 C812 C 0.66709 0.34470 0.55347
 C813 C 0.63663 0.33159 0.52904
 C814 C 0.64233 0.33493 0.48902
 C815 C 0.68333 0.35466 0.43390
 C816 C 0.65480 0.33779 0.40921
 C817 C 0.61994 0.31974 0.42397
 C818 C 0.61376 0.31797 0.46351
 H819 H 0.70965 0.36710 0.42094
 H820 H 0.65992 0.33859 0.37844
 H821 H 0.59789 0.30653 0.40473
 H822 H 0.58672 0.30266 0.47386
 H823 H 0.72387 0.37188 0.56030
 H824 H 0.66421 0.34001 0.58417
 C825 C 0.26596 0.17075 0.55949
 C826 C 0.26981 0.15330 0.52148
 C827 C 0.30629 0.16247 0.50119
 C828 C 0.33755 0.18480 0.51703
 C829 C 0.33514 0.19936 0.55440
 C830 C 0.29880 0.19371 0.57562
 C831 C 0.23036 0.16631 0.58208
 C832 C 0.22721 0.18302 0.61878
 C833 C 0.25903 0.20538 0.63393
 C834 C 0.29433 0.21112 0.61253
 H835 H 0.20373 0.15142 0.57147
 H836 H 0.19952 0.17920 0.63527
 H837 H 0.25615 0.21884 0.66221
 H838 H 0.31783 0.22985 0.62499
 H839 H 0.31347 0.15015 0.47340
 H840 H 0.36521 0.18862 0.50041
 C841 C 0.79245 0.68576 0.03931
 C842 C 0.79279 0.65049 0.01528
 C843 C 0.83135 0.63443 0.00779
 C844 C 0.86689 0.65347 0.01877
 C845 C 0.86680 0.68962 0.03867
 C846 C 0.82940 0.70667 0.04835
 C847 C 0.75662 0.70117 0.05477
 C848 C 0.75615 0.73732 0.07485
 C849 C 0.79164 0.75928 0.08019
 C850 C 0.82798 0.74427 0.06702
 H851 H 0.72855 0.68606 0.05105
 H852 H 0.72794 0.74866 0.08572
 H853 H 0.79108 0.78785 0.09495
 H854 H 0.85490 0.76245 0.07156
 H855 H 0.83509 0.60584 -0.00616
 H856 H 0.89499 0.63885 0.01259
 C857 C 0.68751 0.63145 0.96017
 C858 C 0.72278 0.65055 0.97717
 C859 C 0.72857 0.69202 0.97103
 C860 C 0.70041 0.71436 0.95237
 C861 C 0.66600 0.69627 0.93723
 C862 C 0.65992 0.65459 0.93944
 C863 C 0.67688 0.59064 0.96581
 C864 C 0.64307 0.57277 0.94900
 C865 C 0.61778 0.59517 0.92709
 C866 C 0.62560 0.63579 0.92279
 H867 H 0.69276 0.57209 0.98484
 H868 H 0.63603 0.54147 0.95372
 H869 H 0.59135 0.58128 0.91427
 H870 H 0.60419 0.65226 0.90656
 H871 H 0.75489 0.70834 0.98067
 H872 H 0.70539 0.74633 0.95001
 C873 C 0.16728 0.11873 0.47049
 C874 C 0.19727 0.14024 0.49294
 C875 C 0.18948 0.18064 0.50209
 C876 C 0.15484 0.19905 0.49051
 C877 C 0.12656 0.17873 0.46812
 C878 C 0.13311 0.13883 0.45674
 C879 C 0.16979 0.07743 0.46179
 C880 C 0.14241 0.05791 0.43767
 C881 C 0.11124 0.07864 0.42191
 C882 C 0.10634 0.11859 0.43143
 H883 H 0.19186 0.05902 0.47440
 H884 H 0.14539 0.02645 0.43129
 H885 H 0.09030 0.06352 0.40276
 H886 H 0.08144 0.13336 0.41855
 H887 H 0.21088 0.19966 0.51690
 H888 H 0.15052 0.23002 0.49839
 C889 C 0.63717 0.10087 0.72467
 C890 C 0.61450 0.06550 0.73612
 C891 C 0.57199 0.06679 0.73250
 C892 C 0.55269 0.10043 0.72063
 C893 C 0.57440 0.13453 0.71002
 C894 C 0.61681 0.13526 0.71178
 C895 C 0.67968 0.10290 0.72481
 C896 C 0.70133 0.13681 0.71286
 C897 C 0.68129 0.16985 0.70019
 C898 C 0.63946 0.16921 0.69954
 H899 H 0.69685 0.07888 0.73487
 H900 H 0.73391 0.13743 0.71352
 H901 H 0.69824 0.19609 0.69080
 H902 H 0.62511 0.19552 0.68916
 H903 H 0.55228 0.04124 0.73728
 H904 H 0.52021 0.09916 0.71798
 C905 C 1.07323 0.50972 0.19655
 C906 C 1.08835 0.51489 0.23512
 C907 C 1.08151 0.55239 0.25307
 C908 C 1.06605 0.58419 0.23356
 C909 C 1.05621 0.58080 0.19497
 C910 C 1.05728 0.54292 0.17678
 C911 C 1.07473 0.47282 0.17638
 C912 C 1.06108 0.46866 0.13887
 C913 C 1.04500 0.50086 0.12033
 C914 C 1.04277 0.53758 0.13907
 H915 H 1.08560 0.44629 0.18923
 H916 H 1.06256 0.44005 0.12426
 H917 H 1.03392 0.49731 0.09136
 H918 H 1.02913 0.56162 0.12389
 H919 H 1.09191 0.55989 0.28140
 H920 H 1.06491 0.61288 0.24813
 C921 C 0.89934 0.89576 0.22428
 C922 C 0.91531 0.93465 0.23586
 C923 C 0.95748 0.94126 0.23116
 C924 C 0.98224 0.91297 0.21424
 C925 C 0.96644 0.87657 0.20118
 C926 C 0.92503 0.86745 0.20622
 C927 C 0.85864 0.88346 0.23079
 C928 C 0.84346 0.84655 0.21822
 C929 C 0.86834 0.82011 0.19929
 C930 C 0.90876 0.83013 0.19359
 H931 H 0.83774 0.90094 0.24666
 H932 H 0.81217 0.83829 0.22357
 H933 H 0.85645 0.79143 0.18956
 H934 H 0.92711 0.80807 0.17942
 H935 H 0.97237 0.96867 0.24001
 H936 H 1.01409 0.91995 0.21058
 C937 C 0.38730 0.43805 0.75510
 C938 C 0.39490 0.47871 0.74207
 C939 C 0.42419 0.48361 0.71243
 C940 C 0.44673 0.45223 0.69819
 C941 C 0.44201 0.41425 0.71349
 C942 C 0.41462 0.40773 0.74414
 C943 C 0.35258 0.42474 0.77616
 C944 C 0.34986 0.38703 0.79265
 C945 C 0.38036 0.36022 0.78674
 C946 C 0.41204 0.36997 0.76187
 H947 H 0.32586 0.44150 0.77909
 H948 H 0.32353 0.37836 0.80959
 H949 H 0.37835 0.33103 0.79972
 H950 H 0.43412 0.34748 0.75585
 H951 H 0.42929 0.51209 0.69904
 H952 H 0.46678 0.45733 0.67379
 C953 C 0.37775 0.59248 0.77736
 C954 C 0.39643 0.55522 0.76702
 C955 C 0.43900 0.55434 0.76957
 C956 C 0.46189 0.58691 0.78255
 C957 C 0.44373 0.62206 0.79385
 C958 C 0.40161 0.62515 0.79188
 C959 C 0.33609 0.59894 0.77279
 C960 C 0.31839 0.63432 0.78450
 C961 C 0.34158 0.66486 0.80065
 C962 C 0.38280 0.66060 0.80413
 H963 H 0.31632 0.57794 0.75899
 H964 H 0.28644 0.63811 0.78073
 H965 H 0.32770 0.69225 0.80990
 H966 H 0.39972 0.68552 0.81638
 H967 H 0.45576 0.52838 0.76180
 H968 H 0.49428 0.58450 0.78416
 C969 C -0.10427 0.04950 0.25647
 C970 C -0.09208 0.00925 0.26559
 C971 C -0.06168 0.00645 0.29346
 C972 C -0.04252 0.03979 0.30980
 C973 C -0.05170 0.07800 0.29830
 C974 C -0.08060 0.08299 0.26971
 C975 C -0.14020 0.05895 0.23715
 C976 C -0.14763 0.09741 0.22476
 C977 C -0.12093 0.12853 0.23319
 C978 C -0.08824 0.12173 0.25632
 H979 H -0.16463 0.03833 0.23258
 H980 H -0.17476 0.10317 0.20910
 H981 H -0.12669 0.15838 0.22346
 H982 H -0.06929 0.14720 0.26420
 H983 H -0.05313 -0.02209 0.30398
 H984 H -0.02126 0.03571 0.33266
 C985 C 0.11771 0.41391 0.28742
 C986 C 0.09747 0.44369 0.26553
 C987 C 0.05610 0.43614 0.25796
 C988 C 0.03538 0.40238 0.27124
 C989 C 0.05445 0.37464 0.29348
 C990 C 0.09569 0.37993 0.30176
 C991 C 0.15954 0.41637 0.29498
 C992 C 0.17825 0.38822 0.31725
 C993 C 0.15621 0.35612 0.33210
 C994 C 0.11547 0.35164 0.32418
 H995 H 0.17908 0.43872 0.28240
 H996 H 0.21024 0.39103 0.32249
 H997 H 0.17090 0.33417 0.34922
 H998 H 0.09975 0.32557 0.33558
 H999 H 0.03812 0.45736 0.24335
 H1000 H 0.00352 0.39877 0.26547
 C1001 C 0.57680 0.99228 0.78973
 C1002 C 0.60057 0.99142 0.75455
 C1003 C 0.59602 0.95673 0.73105
 C1004 C 0.57510 0.92285 0.74365
 C1005 C 0.55724 0.92190 0.77993
 C1006 C 0.55603 0.95696 0.80248
 C1007 C 0.57407 1.02682 0.81341
 C1008 C 0.55329 1.02616 0.84846
 C1009 C 0.53418 0.99128 0.86097
 C1010 C 0.53531 0.95698 0.83824
 H1011 H 0.58711 1.05516 0.80527
 H1012 H 0.55192 1.05299 0.86596
 H1013 H 0.51807 0.99090 0.88823
 H1014 H 0.51946 0.93056 0.84873
 H1015 H 0.61216 0.95282 0.70436
 H1016 H 0.57605 0.89587 0.72625
 C1017 C 0.69447 0.61310 0.05491
 C1018 C 0.73445 0.60698 0.03779
 C1019 C 0.76027 0.58229 0.05856
 C1020 C 0.74845 0.56311 0.09229
 C1021 C 0.70959 0.56644 0.10689
 C1022 C 0.68186 0.59006 0.08767
 C1023 C 0.66657 0.64201 0.04291
 C1024 C 0.62747 0.64360 0.05760
 C1025 C 0.61476 0.61807 0.08640
 C1026 C 0.64176 0.59222 0.10196
 H1027 H 0.67357 0.66595 0.02388
 H1028 H 0.60712 0.66553 0.04702
 H1029 H 0.58435 0.61946 0.09785
 H1030 H 0.63078 0.57429 0.12572
 H1031 H 0.79065 0.57741 0.04836
 H1032 H 0.76995 0.54527 0.10711
 C1033 C 0.26326 1.07060 0.55738
 C1034 C 0.23131 1.08871 0.53648
 C1035 C 0.19147 1.07972 0.54968
 C1036 C 0.18307 1.05640 0.58134
 C1037 C 0.21360 1.04080 0.60288
 C1038 C 0.25407 1.04720 0.59089
 C1039 C 0.30424 1.07490 0.54609
 C1040 C 0.33476 1.05817 0.56714
 C1041 C 0.32550 1.03600 0.59969
 C1042 C 0.28558 1.03015 0.61134
 H1043 H 0.31348 1.08988 0.52021
 H1044 H 0.36582 1.06198 0.55777
 H1045 H 0.34934 1.02276 0.61570
 H1046 H 0.27963 1.01178 0.63625
 H1047 H 0.16525 1.09263 0.53774
 H1048 H 0.15187 1.05219 0.59036
 C1049 C 0.23197 0.95015 0.96780
 C1050 C 0.26326 0.92121 0.97015
 C1051 C 0.27539 0.90340 0.93464
 C1052 C 0.25937 0.91343 0.89965
 C1053 C 0.22873 0.94052 0.89752
 C1054 C 0.21416 0.95872 0.93159
 C1055 C 0.21757 0.97099 1.00030
 C1056 C 0.18570 0.99700 0.99835
 C1057 C 0.16718 1.00332 0.96360
 C1058 C 0.18123 0.98454 0.93044
 H1059 H 0.23165 0.96917 1.02720
 H1060 H 0.17548 1.01246 1.02399
 H1061 H 0.14213 1.02322 0.96223
 H1062 H 0.16575 0.99031 0.90405
 H1063 H 0.29587 0.87904 0.93296
 H1064 H 0.27003 0.89844 0.87384
 C1065 C 0.75154 0.46848 0.44295
 C1066 C 0.72677 0.43864 0.46211
 C1067 C 0.68472 0.44334 0.45850
 C1068 C 0.66893 0.46407 0.42811
 C1069 C 0.69437 0.48376 0.40200
 C1070 C 0.73541 0.48930 0.41111
 C1071 C 0.79212 0.47640 0.45216
 C1072 C 0.81652 0.50199 0.43003
 C1073 C 0.80104 0.52066 0.39822
 C1074 C 0.76074 0.51465 0.38886
 H1075 H 0.80528 0.46443 0.47699
 H1076 H 0.84764 0.50749 0.43776
 H1077 H 0.82016 0.54043 0.38112
 H1078 H 0.74937 0.53051 0.36452
 H1079 H 0.66312 0.42884 0.47751
 H1080 H 0.63674 0.46235 0.42353
 C1081 C 0.80315 0.41752 0.53734
 C1082 C 0.76292 0.42293 0.52311
 C1083 C 0.73705 0.44581 0.54683
 C1084 C 0.74548 0.45382 0.58531
 C1085 C 0.78093 0.44094 0.60156
 C1086 C 0.81121 0.42519 0.57713
 C1087 C 0.83645 0.40745 0.51349
 C1088 C 0.87428 0.40073 0.52840
 C1089 C 0.88098 0.40579 0.56733
 C1090 C 0.85018 0.41874 0.59139
 H1091 H 0.83503 0.40667 0.48277
 H1092 H 0.89884 0.39254 0.50938
 H1093 H 0.91063 0.40119 0.57872
 H1094 H 0.85780 0.42491 0.62098
 H1095 H 0.70753 0.45339 0.53690
 H1096 H 0.72293 0.46806 0.60314
 C1097 C 0.30858 -0.02840 0.03827
 C1098 C 0.29575 -0.06985 0.04100
 C1099 C 0.30372 -0.08911 0.07603
 C1100 C 0.31623 -0.06857 0.10847
 C1101 C 0.32344 -0.02768 0.10762
 C1102 C 0.32058 -0.00718 0.07252
 C1103 C 0.31133 -0.00725 0.00325
 C1104 C 0.32159 0.03334 0.00240
 C1105 C 0.33034 0.05404 0.03612
 C1106 C 0.33021 0.03402 0.07088
 H1107 H 0.30719 -0.02107 -0.02430
 H1108 H 0.32307 0.04878 -0.02477
 H1109 H 0.33818 0.08557 0.03522
 H1110 H 0.33813 0.05102 0.09641
 H1111 H 0.29768 -0.12052 0.07945
 H1112 H 0.32024 -0.08497 0.13477
 C1113 C 0.25868 0.12599 0.43000
 C1114 C 0.25584 0.10334 0.46519
 C1115 C 0.26733 0.06292 0.46282
 C1116 C 0.28423 0.04661 0.42958
 C1117 C 0.28833 0.06896 0.39623
 C1118 C 0.27250 0.10754 0.39535
 C1119 C 0.25026 0.16719 0.42839
 C1120 C 0.25022 0.18760 0.39374
 C1121 C 0.25987 0.16807 0.35967
 C1122 C 0.27148 0.12858 0.36039
 H1123 H 0.24551 0.18496 0.45371
 H1124 H 0.24307 0.21891 0.39343
 H1125 H 0.25953 0.18390 0.33273
 H1126 H 0.27970 0.11458 0.33332
 H1127 H 0.26384 0.04303 0.48680
 H1128 H 0.29544 0.01658 0.43032
 C1129 C 0.78545 0.60925 0.93140
 C1130 C 0.76840 0.59576 0.96778
 C1131 C 0.76351 0.55391 0.97225
 C1132 C 0.77078 0.52710 0.94213
 C1133 C 0.78343 0.54047 0.90602
 C1134 C 0.79146 0.58158 0.90048
 C1135 C 0.79775 0.64952 0.92489
 C1136 C 0.81255 0.66241 0.88939
 C1137 C 0.81657 0.63557 0.85921
 C1138 C 0.80661 0.59554 0.86465
 H1139 H 0.79789 0.67180 0.94704
 H1140 H 0.82146 0.69341 0.88549
 H1141 H 0.82828 0.64562 0.83168
 H1142 H 0.81145 0.57572 0.84046
 H1143 H 0.75187 0.54103 0.99849
 H1144 H 0.76586 0.49546 0.94692
 C1145 C 0.03546 0.74711 0.58991
 C1146 C 0.00916 0.71693 0.60715
 C1147 C 0.01980 0.67672 0.60033
 C1148 C 0.05429 0.66641 0.58028
 C1149 C 0.08123 0.69530 0.56627
 C1150 C 0.07191 0.73596 0.57042
 C1151 C 0.02678 0.78821 0.59136
 C1152 C 0.05324 0.81704 0.57609
 C1153 C 0.08882 0.80590 0.55815
 C1154 C 0.09798 0.76578 0.55489
 H1155 H -0.00105 0.79888 0.60292
 H1156 H 0.04577 0.84825 0.57777
 H1157 H 0.10910 0.82843 0.54609
 H1158 H 0.12546 0.75833 0.53973
 H1159 H 0.00347 0.65177 0.61263
 H1160 H 0.06112 0.63506 0.57741
 C1161 C 0.54352 0.22904 1.03814
 C1162 C 0.53891 0.24102 1.07812
 C1163 C 0.56917 0.22856 1.10359
 C1164 C 0.60135 0.20618 1.09207
 C1165 C 0.60615 0.19456 1.05411
 C1166 C 0.57782 0.20608 1.02660
 C1167 C 0.51568 0.23765 1.00911
 C1168 C 0.52151 0.22570 0.97102
 C1169 C 0.55483 0.20401 0.96040
 C1170 C 0.58252 0.19385 0.98786
 H1171 H 0.48802 0.25200 1.01450
 H1172 H 0.49952 0.23279 0.94965
 H1173 H 0.55891 0.19446 0.93082
 H1174 H 0.60750 0.17604 0.97839
 H1175 H 0.56843 0.23708 1.13365
 H1176 H 0.62298 0.19778 1.11337
 C1177 C 0.96929 0.17504 0.93461
 C1178 C 0.96220 0.20441 0.90539
 C1179 C 0.92214 0.21771 0.90305
 C1180 C 0.89067 0.20165 0.92480
 C1181 C 0.89658 0.17112 0.95064
 C1182 C 0.93617 0.15803 0.95652
 C1183 C 1.00791 0.15966 0.94082
 C1184 C 1.01412 0.12994 0.96756
 C1185 C 0.98194 0.11358 0.98827
 C1186 C 0.94328 0.12691 0.98248
 H1187 H 1.03368 0.16838 0.92399
 H1188 H 1.04404 0.11875 0.97144
 H1189 H 0.98682 0.08987 1.00842
 H1190 H 0.91920 0.11205 0.99831
 H1191 H 0.91389 0.24165 0.88465
 H1192 H 0.86071 0.21277 0.92066
 C1193 C 0.39925 0.73250 0.38470
 C1194 C 0.44005 0.73650 0.39849
 C1195 C 0.44743 0.71889 0.43460
 C1196 C 0.41698 0.70116 0.45697
 C1197 C 0.37754 0.69860 0.44419
 C1198 C 0.36844 0.71330 0.40758
 C1199 C 0.38770 0.74755 0.34897
 C1200 C 0.34864 0.74297 0.33538
 C1201 C 0.31939 0.72322 0.35723
 C1202 C 0.32899 0.70857 0.39303
 H1203 H 0.40791 0.76426 0.33153
 H1204 H 0.34102 0.75507 0.30778
 H1205 H 0.28906 0.71950 0.34656
 H1206 H 0.30512 0.69335 0.40899
 H1207 H 0.47741 0.71708 0.44580
 H1208 H 0.42454 0.68840 0.48434
 C1209 C 0.55808 0.75215 0.38451
 C1210 C 0.51709 0.76075 0.39714
 C1211 C 0.51339 0.78250 0.43202
 C1212 C 0.54592 0.79287 0.45484
 C1213 C 0.58482 0.78278 0.44421
 C1214 C 0.59124 0.76131 0.40954
 C1215 C 0.56858 0.73765 0.34719
 C1216 C 0.60768 0.72762 0.33699
 C1217 C 0.63862 0.73377 0.36259
 C1218 C 0.63084 0.75137 0.39803
 H1219 H 0.54844 0.73554 0.32379
 H1220 H 0.61415 0.71597 0.30848
 H1221 H 0.66910 0.72641 0.35436
 H1222 H 0.65659 0.75749 0.41584
 H1223 H 0.48454 0.79239 0.44204
 H1224 H 0.54076 0.81055 0.48061
 C1225 C 0.02208 0.27228 -0.06797
 C1226 C 0.02990 0.24156 -0.09652
 C1227 C 0.07040 0.22907 -0.09935
 C1228 C 0.10183 0.24852 -0.08035
 C1229 C 0.09476 0.28028 -0.05545
 C1230 C 0.05459 0.29022 -0.04670
 C1231 C -0.01669 0.28761 -0.06118
 C1232 C -0.02393 0.31590 -0.03247
 C1233 C 0.00737 0.33063 -0.01006
 C1234 C 0.04636 0.31830 -0.01725
 H1235 H -0.04172 0.27990 -0.07882
 H1236 H -0.05403 0.32676 -0.02787
 H1237 H 0.00157 0.35236 0.01243
 H1238 H 0.07005 0.33077 0.00061
 H1239 H 0.07911 0.20379 -0.11649
 H1240 H 0.13236 0.23935 -0.08624
 C1241 C 0.46911 0.31271 0.05026
 C1242 C 0.46669 0.27950 0.07636
 C1243 C 0.42704 0.26663 0.08730
 C1244 C 0.39271 0.28235 0.07197
 C1245 C 0.39492 0.31417 0.04670
 C1246 C 0.43328 0.33055 0.03651
 C1247 C 0.50637 0.32847 0.03693
 C1248 C 0.50904 0.36190 0.01354
 C1249 C 0.47438 0.38059 0.00248
 C1250 C 0.43680 0.36514 0.01370
 H1251 H 0.53363 0.31413 0.04301
 H1252 H 0.53822 0.37329 0.00390
 H1253 H 0.47657 0.40692 -0.01525
 H1254 H 0.41069 0.38089 0.00462
 H1255 H 0.42101 0.24479 0.10921
 H1256 H 0.36364 0.27007 0.08107
 C1257 C 0.89907 0.75330 0.63725
 C1258 C 0.93661 0.74631 0.61709
 C1259 C 0.93768 0.75500 0.57724
 C1260 C 0.90515 0.77086 0.55847
 C1261 C 0.86906 0.77782 0.57787
 C1262 C 0.86509 0.76720 0.61698
 C1263 C 0.89443 0.74799 0.67743
 C1264 C 0.85738 0.75222 0.69605
 C1265 C 0.82389 0.76258 0.67546
 C1266 C 0.82762 0.77032 0.63639
 H1267 H 0.91936 0.74209 0.69551
 H1268 H 0.85474 0.74759 0.72673
 H1269 H 0.79504 0.76540 0.68995
 H1270 H 0.80077 0.77855 0.62149
 H1271 H 0.96361 0.74899 0.55939
 H1272 H 0.90847 0.77834 0.52835
   
