data_POSCAR
  _audit_creation_date              2014-09-24
  _audit_creation_method            'ToBaCCo'
  _symmetry_space_group_name_H-M    'P1'
  _symmetry_Int_Tables_number       1
  _symmetry_cell_setting            triclinic
  loop_
  _symmetry_equiv_pos_as_xyz
 x,y,z
_cell_length_a 64.4818
_cell_length_b 64.2982
_cell_length_c 65.7835
_cell_angle_alpha 90.168300
_cell_angle_beta 90.154000
_cell_angle_gamma 89.623400
loop_
  _atom_site_label
  _atom_site_type_symbol
  _atom_site_fract_x
  _atom_site_fract_y
  _atom_site_fract_z
N1 N 0.37998 0.32495 0.33853
 N2 N 0.37533 0.33527 0.32191
 C3 C 0.38935 0.33072 0.30746
 C4 C 0.40388 0.31711 0.31553
 C5 C 0.39731 0.31361 0.33527
 H6 H 0.38862 0.33628 0.29198
 H7 H 0.40420 0.30307 0.34620
 Cu8 Cu 0.35138 0.35353 0.32032
 Cu9 Cu 0.36230 0.32616 0.36253
 Cu10 Cu 0.31439 0.34996 0.35551
 N11 N 0.33005 0.37477 0.32312
 N12 N 0.31575 0.37370 0.33724
 C13 C 0.30232 0.38965 0.33489
 C14 C 0.30867 0.40148 0.31845
 C15 C 0.32616 0.39128 0.31122
 H16 H 0.28849 0.39193 0.34391
 H17 H 0.33473 0.39490 0.29759
 N18 N 0.32011 0.33048 0.37778
 N19 N 0.33857 0.32210 0.38100
 C20 C 0.33719 0.30853 0.39649
 C21 C 0.31677 0.30798 0.40291
 C22 C 0.30650 0.32240 0.39098
 H23 H 0.34987 0.29895 0.40196
 H24 H 0.29008 0.32594 0.39123
 H25 H 0.33673 0.32881 0.34419
 H26 H 0.34522 0.35337 0.35692
 N27 N 0.37794 0.82117 -0.16277
 N28 N 0.37654 0.83549 -0.17692
 C29 C 0.39168 0.83232 -0.19065
 C30 C 0.40343 0.81506 -0.18486
 C31 C 0.39389 0.80834 -0.16711
 H32 H 0.39370 0.84166 -0.20412
 H33 H 0.39704 0.79414 -0.15889
 Cu34 Cu 0.35348 0.85524 -0.17709
 Cu35 Cu 0.35745 0.81879 -0.14112
 Cu36 Cu 0.31878 0.85643 -0.13921
 N37 N 0.33046 0.87501 -0.17720
 N38 N 0.31736 0.87570 -0.16195
 C39 C 0.30238 0.88972 -0.16601
 C40 C 0.30570 0.89787 -0.18524
 C41 C 0.32411 0.88852 -0.19158
 H42 H 0.29009 0.89375 -0.15555
 H43 H 0.33160 0.89047 -0.20613
 N44 N 0.32276 0.83527 -0.11791
 N45 N 0.33773 0.82119 -0.11827
 C46 C 0.33529 0.80826 -0.10238
 C47 C 0.31778 0.81431 -0.09159
 C48 C 0.31016 0.83133 -0.10215
 H49 H 0.34482 0.79469 -0.09950
 H50 H 0.29558 0.83926 -0.09948
 H51 H 0.33236 0.83293 -0.15560
 H52 H 0.35026 0.84987 -0.14073
 N53 N 0.87865 0.32339 -0.16358
 N54 N 0.87917 0.33927 -0.17609
 C55 C 0.89503 0.33656 -0.18915
 C56 C 0.90496 0.31791 -0.18463
 C57 C 0.89384 0.30988 -0.16849
 H58 H 0.89847 0.34686 -0.20164
 H59 H 0.89588 0.29477 -0.16157
 Cu60 Cu 0.85731 0.36036 -0.17610
 Cu61 Cu 0.85738 0.32050 -0.14286
 Cu62 Cu 0.82388 0.36236 -0.13740
 N63 N 0.83156 0.37646 -0.17782
 N64 N 0.81861 0.37725 -0.16248
 C65 C 0.80227 0.38930 -0.16740
 C66 C 0.80461 0.39609 -0.18728
 C67 C 0.82379 0.38798 -0.19316
 H68 H 0.79000 0.39331 -0.15688
 H69 H 0.83126 0.38977 -0.20774
 N70 N 0.82516 0.33931 -0.11804
 N71 N 0.83829 0.32361 -0.11962
 C72 C 0.83460 0.31010 -0.10447
 C73 C 0.81803 0.31745 -0.09298
 C74 C 0.81231 0.33588 -0.10238
 H75 H 0.84271 0.29547 -0.10252
 H76 H 0.79881 0.34537 -0.09913
 H77 H 0.83444 0.33888 -0.15576
 H78 H 0.85501 0.35145 -0.14000
 N79 N 0.87767 0.82266 0.33760
 N80 N 0.87875 0.83856 0.32515
 C81 C 0.89445 0.83532 0.31203
 C82 C 0.90374 0.81634 0.31650
 C83 C 0.89241 0.80867 0.33267
 H84 H 0.89815 0.84548 0.29949
 H85 H 0.89394 0.79348 0.33953
 Cu86 Cu 0.85768 0.86036 0.32537
 Cu87 Cu 0.85591 0.82026 0.35786
 Cu88 Cu 0.82247 0.86241 0.36260
 N89 N 0.83229 0.87674 0.32264
 N90 N 0.81887 0.87786 0.33756
 C91 C 0.80300 0.89027 0.33210
 C92 C 0.80605 0.89676 0.31222
 C93 C 0.82522 0.88822 0.30696
 H94 H 0.79051 0.89458 0.34223
 H95 H 0.83317 0.88964 0.29258
 N96 N 0.82292 0.83903 0.38170
 N97 N 0.83621 0.82342 0.38057
 C98 C 0.83210 0.80989 0.39558
 C99 C 0.81498 0.81702 0.40640
 C100 C 0.80945 0.83541 0.39680
 H101 H 0.84032 0.79538 0.39784
 H102 H 0.79573 0.84475 0.39951
 H103 H 0.83344 0.83949 0.34471
 H104 H 0.85336 0.85164 0.36148
 N105 N 0.62848 0.68196 0.33195
 N106 N 0.62981 0.66765 0.31772
 C107 C 0.61458 0.67066 0.30405
 C108 C 0.60258 0.68746 0.31023
 C109 C 0.61210 0.69439 0.32796
 H110 H 0.61307 0.66195 0.29004
 H111 H 0.60799 0.70801 0.33679
 Cu112 Cu 0.65208 0.64724 0.31739
 Cu113 Cu 0.65019 0.68497 0.35241
 Cu114 Cu 0.67630 0.63882 0.36217
 N115 N 0.66991 0.62333 0.32177
 N116 N 0.67920 0.61981 0.33924
 C117 C 0.69076 0.60234 0.33765
 C118 C 0.68833 0.59444 0.31819
 C119 C 0.67520 0.60832 0.30850
 H120 H 0.70065 0.59621 0.34955
 H121 H 0.67045 0.60788 0.29273
 N122 N 0.67801 0.66345 0.38007
 N123 N 0.66867 0.68127 0.37593
 C124 C 0.67564 0.69596 0.38880
 C125 C 0.69033 0.68704 0.40144
 C126 C 0.69108 0.66630 0.39582
 H127 H 0.67139 0.71225 0.38818
 H128 H 0.70140 0.65448 0.40183
 H129 H 0.67350 0.66386 0.34310
 H130 H 0.64862 0.65377 0.35375
 N131 N 0.61916 0.17468 -0.15923
 N132 N 0.62148 0.16179 -0.17460
 C133 C 0.60738 0.16637 -0.18903
 C134 C 0.59517 0.18275 -0.18217
 C135 C 0.60321 0.18767 -0.16320
 H136 H 0.60679 0.15905 -0.20384
 H137 H 0.59852 0.20044 -0.15346
 Cu138 Cu 0.64315 0.14069 -0.17468
 Cu139 Cu 0.63891 0.17520 -0.13669
 Cu140 Cu 0.68660 0.15433 -0.15050
 N141 N 0.66802 0.12363 -0.17626
 N142 N 0.68504 0.12902 -0.16667
 C143 C 0.70027 0.11546 -0.17128
 C144 C 0.69234 0.10038 -0.18429
 C145 C 0.67179 0.10639 -0.18728
 H146 H 0.71624 0.11742 -0.16665
 H147 H 0.66042 0.09892 -0.19689
 N148 N 0.68305 0.17434 -0.12809
 N149 N 0.66480 0.18142 -0.12208
 C150 C 0.66756 0.19445 -0.10626
 C151 C 0.68863 0.19593 -0.10244
 C152 C 0.69791 0.18270 -0.11633
 H153 H 0.65519 0.20258 -0.09842
 H154 H 0.71434 0.17961 -0.11788
 H155 H 0.65989 0.17056 -0.15897
 H156 H 0.65748 0.14832 -0.14101
 N157 N 0.11921 0.67748 -0.15999
 N158 N 0.12133 0.66588 -0.17634
 C159 C 0.10858 0.67303 -0.19099
 C160 C 0.09795 0.69019 -0.18351
 C161 C 0.10460 0.69210 -0.16351
 H162 H 0.10785 0.66684 -0.20629
 H163 H 0.10001 0.70391 -0.15265
 Cu164 Cu 0.14161 0.64341 -0.17738
 Cu165 Cu 0.13860 0.67513 -0.13714
 Cu166 Cu 0.18584 0.65524 -0.15366
 N167 N 0.16650 0.62692 -0.18152
 N168 N 0.18406 0.63208 -0.17274
 C169 C 0.19937 0.61990 -0.18006
 C170 C 0.19095 0.60645 -0.19429
 C171 C 0.16991 0.61103 -0.19445
 H172 H 0.21554 0.62120 -0.17587
 H173 H 0.15810 0.60387 -0.20379
 N174 N 0.18289 0.67303 -0.12932
 N175 N 0.16480 0.67965 -0.12239
 C176 C 0.16798 0.69151 -0.10578
 C177 C 0.18914 0.69277 -0.10239
 C178 C 0.19805 0.68055 -0.11736
 H179 H 0.15584 0.69928 -0.09728
 H180 H 0.21445 0.67785 -0.11965
 H181 H 0.15905 0.67188 -0.16000
 H182 H 0.15698 0.64839 -0.14363
 N183 N 0.12396 0.17965 0.33697
 N184 N 0.12130 0.16343 0.32510
 C185 C 0.10571 0.16737 0.31203
 C186 C 0.09752 0.18691 0.31631
 C187 C 0.10971 0.19426 0.33222
 H188 H 0.10168 0.15730 0.29946
 H189 H 0.10899 0.20952 0.33912
 Cu190 Cu 0.13953 0.13936 0.32639
 Cu191 Cu 0.14802 0.18186 0.35492
 Cu192 Cu 0.17771 0.13719 0.36078
 N193 N 0.16279 0.12033 0.32322
 N194 N 0.17839 0.12024 0.33610
 C195 C 0.19336 0.10747 0.32898
 C196 C 0.18687 0.09932 0.31049
 C197 C 0.16707 0.10735 0.30773
 H198 H 0.20814 0.10485 0.33639
 H199 H 0.15667 0.10441 0.29513
 N200 N 0.18031 0.16153 0.37877
 N201 N 0.16995 0.17904 0.37584
 C202 C 0.17728 0.19359 0.38873
 C203 C 0.19316 0.18487 0.40016
 C204 C 0.19418 0.16432 0.39383
 H205 H 0.17200 0.20958 0.38930
 H206 H 0.20476 0.15244 0.39923
 H207 H 0.16720 0.15952 0.34184
 H208 H 0.14789 0.15092 0.36105
 N209 N 0.62239 0.31981 0.66408
 N210 N 0.62171 0.33552 0.67687
 C211 C 0.60950 0.33060 0.69264
 C212 C 0.60272 0.31037 0.69003
 C213 C 0.61082 0.30419 0.67145
 H214 H 0.60612 0.34093 0.70523
 H215 H 0.60894 0.28924 0.66410
 Cu216 Cu 0.63849 0.36008 0.67288
 Cu217 Cu 0.63878 0.32112 0.63923
 Cu218 Cu 0.68095 0.35390 0.64406
 N219 N 0.66085 0.38006 0.67345
 N220 N 0.67701 0.37830 0.66145
 C221 C 0.69057 0.39344 0.66607
 C222 C 0.68263 0.40523 0.68206
 C223 C 0.66382 0.39592 0.68645
 H224 H 0.70570 0.39490 0.65919
 H225 H 0.65379 0.39922 0.69922
 N226 N 0.67975 0.33108 0.62385
 N227 N 0.66311 0.31949 0.62132
 C228 C 0.66697 0.30503 0.60700
 C229 C 0.68735 0.30696 0.60077
 C230 C 0.69482 0.32396 0.61142
 H231 H 0.65603 0.29330 0.60221
 H232 H 0.71038 0.33009 0.61077
 H233 H 0.66052 0.33349 0.65773
 H234 H 0.65014 0.35180 0.63824
 N235 N 0.61970 0.82086 1.16028
 N236 N 0.61672 0.83782 1.17114
 C237 C 0.60232 0.83407 1.18540
 C238 C 0.59664 0.81338 1.18405
 C239 C 0.60764 0.80559 1.16759
 H240 H 0.59728 0.84528 1.19669
 H241 H 0.60762 0.78976 1.16200
 Cu242 Cu 0.63462 0.86203 1.16834
 Cu243 Cu 0.63993 0.82025 1.13833
 Cu244 Cu 0.68214 0.84871 1.14736
 N245 N 0.65985 0.87860 1.17256
 N246 N 0.67820 0.87270 1.16570
 C247 C 0.69281 0.88507 1.17384
 C248 C 0.68324 0.89917 1.18671
 C249 C 0.66227 0.89496 1.18514
 H250 H 0.70931 0.88334 1.17137
 H251 H 0.64984 0.90237 1.19353
 N252 N 0.68018 0.83039 1.12378
 N253 N 0.66359 0.81921 1.12007
 C254 C 0.66700 0.80731 1.10351
 C255 C 0.68676 0.81141 1.09634
 C256 C 0.69476 0.82587 1.10984
 H257 H 0.65618 0.79609 1.09745
 H258 H 0.71032 0.83207 1.10999
 H259 H 0.65701 0.84007 1.16508
 H260 H 0.65232 0.85604 1.14189
 N261 N 0.12165 0.32160 1.16441
 N262 N 0.12630 0.33193 1.18106
 C263 C 0.11239 0.32741 1.19556
 C264 C 0.09805 0.31369 1.18756
 C265 C 0.10458 0.31016 1.16779
 H266 H 0.11319 0.33288 1.21110
 H267 H 0.09789 0.29938 1.15700
 Cu268 Cu 0.15085 0.34918 1.18321
 Cu269 Cu 0.13963 0.32170 1.14062
 Cu270 Cu 0.17978 0.35696 1.14153
 N271 N 0.17101 0.37149 1.18174
 N272 N 0.18164 0.37503 1.16511
 C273 C 0.19493 0.39070 1.16852
 C274 C 0.19297 0.39692 1.18857
 C275 C 0.17735 0.38467 1.19639
 H276 H 0.20580 0.39659 1.15748
 H277 H 0.17164 0.38484 1.21183
 N278 N 0.17555 0.33728 1.11911
 N279 N 0.15991 0.32419 1.11834
 C280 C 0.16259 0.31140 1.10228
 C281 C 0.18089 0.31660 1.09253
 C282 C 0.18874 0.33292 1.10388
 H283 H 0.15279 0.29828 1.09881
 H284 H 0.20386 0.33987 1.10226
 H285 H 0.16662 0.33062 1.15485
 H286 H 0.14827 0.35179 1.14658
 N287 N 0.12127 0.82201 0.66567
 N288 N 0.12090 0.83722 0.67905
 C289 C 0.10544 0.83387 0.69234
 C290 C 0.09561 0.81549 0.68707
 C291 C 0.10636 0.80829 0.67021
 H292 H 0.10230 0.84341 0.70556
 H293 H 0.10441 0.79349 0.66261
 Cu294 Cu 0.14321 0.85740 0.67957
 Cu295 Cu 0.14273 0.81970 0.64489
 Cu296 Cu 0.17322 0.86373 0.63889
 N297 N 0.16533 0.87777 0.67966
 N298 N 0.17661 0.88062 0.66330
 C299 C 0.19097 0.89518 0.66714
 C300 C 0.18921 0.90114 0.68729
 C301 C 0.17254 0.89004 0.69469
 H302 H 0.20226 0.90051 0.65623
 H303 H 0.16663 0.89038 0.71006
 N304 N 0.17333 0.84018 0.61964
 N305 N 0.16117 0.82389 0.62140
 C306 C 0.16564 0.81030 0.60642
 C307 C 0.18183 0.81808 0.59490
 C308 C 0.18644 0.83698 0.60405
 H309 H 0.15841 0.79528 0.60474
 H310 H 0.19941 0.84697 0.60075
 H311 H 0.16616 0.83887 0.65649
 H312 H 0.14363 0.85095 0.64304
 N313 N 0.37055 0.68549 0.67010
 N314 N 0.37598 0.66819 0.67933
 C315 C 0.39313 0.67167 0.69055
 C316 C 0.39886 0.69224 0.68802
 C317 C 0.38391 0.70060 0.67522
 H318 H 0.40058 0.66027 0.70022
 H319 H 0.38245 0.71664 0.67049
 Cu320 Cu 0.35909 0.64338 0.67687
 Cu321 Cu 0.34583 0.68737 0.65315
 Cu322 Cu 0.32571 0.63990 0.63790
 N323 N 0.33813 0.62180 0.67588
 N324 N 0.32549 0.61994 0.66028
 C325 C 0.31250 0.60401 0.66368
 C326 C 0.31722 0.59542 0.68247
 C327 C 0.33342 0.60737 0.68985
 H328 H 0.29997 0.59959 0.65363
 H329 H 0.34062 0.60629 0.70469
 N330 N 0.32011 0.66606 0.62330
 N331 N 0.32689 0.68422 0.62982
 C332 C 0.31921 0.69931 0.61778
 C333 C 0.30676 0.69028 0.60314
 C334 C 0.30797 0.66910 0.60686
 H335 H 0.32224 0.71573 0.61966
 H336 H 0.30025 0.65685 0.59851
 H337 H 0.32957 0.66052 0.66059
 H338 H 0.35231 0.65818 0.64326
 N339 N 0.37126 0.18658 1.16960
 N340 N 0.37165 0.17206 1.18360
 C341 C 0.38760 0.17556 1.19632
 C342 C 0.39821 0.19294 1.18971
 C343 C 0.38716 0.19966 1.17279
 H344 H 0.39059 0.16675 1.21001
 H345 H 0.38994 0.21353 1.16396
 Cu346 Cu 0.35044 0.15078 1.18487
 Cu347 Cu 0.34824 0.18885 1.15044
 Cu348 Cu 0.32398 0.14173 1.14164
 N349 N 0.33184 0.12733 1.18217
 N350 N 0.32176 0.12355 1.16518
 C351 C 0.30996 0.10654 1.16767
 C352 C 0.31295 0.09920 1.18724
 C353 C 0.32675 0.11295 1.19606
 H354 H 0.29952 0.10035 1.15630
 H355 H 0.33210 0.11287 1.21165
 N356 N 0.32072 0.16604 1.12361
 N357 N 0.32922 0.18425 1.12749
 C358 C 0.32152 0.19844 1.11444
 C359 C 0.30723 0.18878 1.10194
 C360 C 0.30750 0.16813 1.10786
 H361 H 0.32520 0.21482 1.11469
 H362 H 0.29790 0.15578 1.10190
 H363 H 0.32666 0.16681 1.16067
 H364 H 0.35132 0.15790 1.14842
 N365 N 0.87651 0.67779 1.16493
 N366 N 0.87188 0.66873 1.18222
 C367 C 0.88405 0.67649 1.19703
 C368 C 0.89688 0.69129 1.18860
 C369 C 0.89205 0.69130 1.16807
 H370 H 0.88312 0.67232 1.21292
 H371 H 0.89869 0.70105 1.15644
 Cu372 Cu 0.84981 0.64831 1.18383
 Cu373 Cu 0.86025 0.67327 1.14028
 Cu374 Cu 0.81291 0.64957 1.14817
 N375 N 0.82723 0.62835 1.18379
 N376 N 0.81344 0.62822 1.16905
 C377 C 0.79910 0.61370 1.17294
 C378 C 0.80363 0.60475 1.19157
 C379 C 0.82187 0.61416 1.19780
 H380 H 0.78596 0.61044 1.16321
 H381 H 0.83009 0.61144 1.21190
 N382 N 0.81849 0.66726 1.12458
 N383 N 0.83681 0.67551 1.12100
 C384 C 0.83518 0.68830 1.10487
 C385 C 0.81469 0.68855 1.09845
 C386 C 0.80471 0.67467 1.11100
 H387 H 0.84764 0.69781 1.09916
 H388 H 0.78830 0.67133 1.11105
 H389 H 0.83476 0.67120 1.15848
 H390 H 0.84377 0.64605 1.14712
 N391 N 0.87422 0.18312 0.66873
 N392 N 0.87317 0.16979 0.68377
 C393 C 0.88840 0.17388 0.69720
 C394 C 0.89994 0.19041 0.68998
 C395 C 0.89027 0.19597 0.67193
 H396 H 0.89022 0.16618 0.71169
 H397 H 0.89403 0.20902 0.66231
 Cu398 Cu 0.85096 0.14954 0.68527
 Cu399 Cu 0.85264 0.18483 0.64815
 Cu400 Cu 0.82530 0.13910 0.64163
 N401 N 0.83184 0.12646 0.68297
 N402 N 0.82197 0.12223 0.66596
 C403 C 0.80994 0.10544 0.66880
 C404 C 0.81265 0.09866 0.68860
 C405 C 0.82643 0.11256 0.69719
 H406 H 0.79976 0.09883 0.65743
 H407 H 0.83175 0.11275 0.71280
 N408 N 0.82491 0.16195 0.62160
 N409 N 0.83503 0.17949 0.62441
 C410 C 0.83010 0.19281 0.60944
 C411 C 0.81631 0.18322 0.59637
 C412 C 0.81319 0.16371 0.60469
 H413 H 0.83518 0.20879 0.60876
 H414 H 0.80234 0.15211 0.59942
 H415 H 0.82915 0.16505 0.65892
 H416 H 0.85355 0.15341 0.64846
 N417 N 0.31753 0.37430 0.66445
 N418 N 0.32773 0.37086 0.68144
 C419 C 0.32035 0.38357 0.69601
 C420 C 0.30460 0.39558 0.68774
 C421 C 0.30349 0.38955 0.66752
 H422 H 0.32571 0.38375 0.71161
 H423 H 0.29295 0.39546 0.65606
 Cu424 Cu 0.34906 0.34943 0.68360
 Cu425 Cu 0.32207 0.35687 0.64079
 Cu426 Cu 0.36457 0.32670 0.63818
 N427 N 0.37497 0.33333 0.68066
 N428 N 0.38135 0.32526 0.66327
 C429 C 0.39934 0.31496 0.66646
 C430 C 0.40465 0.31694 0.68681
 C431 C 0.38872 0.32848 0.69532
 H432 H 0.40753 0.30603 0.65503
 H433 H 0.38691 0.33238 0.71122
 N434 N 0.34074 0.32232 0.62021
 N435 N 0.32375 0.33359 0.62197
 C436 C 0.30905 0.32588 0.60958
 C437 C 0.31719 0.30875 0.59954
 C438 C 0.33755 0.30728 0.60628
 H439 H 0.29337 0.33186 0.60845
 H440 H 0.34899 0.29574 0.60191
 H441 H 0.34220 0.33055 0.65884
 H442 H 0.35755 0.35452 0.65413
 N443 N 0.32411 0.87974 0.15882
 N444 N 0.33767 0.87879 0.17373
 C445 C 0.33278 0.89303 0.18793
 C446 C 0.31547 0.90402 0.18142
 C447 C 0.31029 0.89500 0.16289
 H448 H 0.34064 0.89451 0.20240
 H449 H 0.29692 0.89860 0.15354
 Cu450 Cu 0.35984 0.85832 0.17395
 Cu451 Cu 0.32439 0.85910 0.13689
 Cu452 Cu 0.34699 0.81276 0.15306
 N453 N 0.37640 0.83366 0.17865
 N454 N 0.37100 0.81557 0.17104
 C455 C 0.38342 0.80069 0.17888
 C456 C 0.39717 0.81003 0.19225
 C457 C 0.39256 0.83104 0.19136
 H458 H 0.38198 0.78423 0.17581
 H459 H 0.39973 0.84335 0.20007
 N460 N 0.32734 0.81450 0.12996
 N461 N 0.31956 0.83226 0.12324
 C462 C 0.30695 0.82839 0.10736
 C463 C 0.30634 0.80710 0.10422
 C464 C 0.31975 0.79884 0.11858
 H465 H 0.29844 0.84017 0.09904
 H466 H 0.32338 0.78255 0.12076
 H467 H 0.33036 0.83955 0.16001
 H468 H 0.35198 0.84157 0.14139
 N469 N 0.82806 0.38394 0.15736
 N470 N 0.84197 0.38258 0.17192
 C471 C 0.83760 0.39669 0.18643
 C472 C 0.82019 0.40788 0.18054
 C473 C 0.81448 0.39925 0.16200
 H474 H 0.84575 0.39780 0.20078
 H475 H 0.80082 0.40301 0.15313
 Cu476 Cu 0.86347 0.36134 0.17165
 Cu477 Cu 0.82736 0.36354 0.13523
 Cu478 Cu 0.84833 0.31636 0.15100
 N479 N 0.87917 0.33599 0.17591
 N480 N 0.87283 0.31817 0.16839
 C481 C 0.88469 0.30273 0.17601
 C482 C 0.89907 0.31139 0.18915
 C483 C 0.89542 0.33261 0.18833
 H484 H 0.88239 0.28636 0.17302
 H485 H 0.90324 0.34455 0.19700
 N486 N 0.82845 0.31894 0.12818
 N487 N 0.82129 0.33699 0.12157
 C488 C 0.80841 0.33366 0.10578
 C489 C 0.80702 0.31243 0.10258
 C490 C 0.82021 0.30362 0.11681
 H491 H 0.80029 0.34578 0.09755
 H492 H 0.82330 0.28721 0.11888
 H493 H 0.83299 0.34378 0.15825
 H494 H 0.85436 0.34490 0.13927
 N495 N 0.82165 0.88227 0.66079
 N496 N 0.83335 0.87979 0.67700
 C497 C 0.82561 0.89135 0.69231
 C498 C 0.80798 0.90152 0.68537
 C499 C 0.80633 0.89589 0.66508
 H500 H 0.83190 0.89174 0.70757
 H501 H 0.79438 0.90060 0.65445
 Cu502 Cu 0.85709 0.86103 0.67673
 Cu503 Cu 0.82527 0.86484 0.63669
 Cu504 Cu 0.84931 0.81815 0.64906
 N505 N 0.87632 0.83776 0.67798
 N506 N 0.87307 0.82083 0.66723
 C507 C 0.88739 0.80643 0.67224
 C508 C 0.90063 0.81493 0.68661
 C509 C 0.89294 0.83481 0.69006
 H510 H 0.88755 0.79062 0.66657
 H511 H 0.89852 0.84593 0.70113
 N512 N 0.83037 0.82140 0.62569
 N513 N 0.82233 0.83947 0.62020
 C514 C 0.80973 0.83655 0.60411
 C515 C 0.80938 0.81551 0.59965
 C516 C 0.82298 0.80646 0.61333
 H517 H 0.80059 0.84867 0.59696
 H518 H 0.82652 0.79006 0.61470
 H519 H 0.83032 0.84267 0.65784
 H520 H 0.85335 0.84828 0.64175
 N521 N 0.68098 0.62237 0.66501
 N522 N 0.66674 0.62321 0.67922
 C523 C 0.67108 0.60864 0.69334
 C524 C 0.68912 0.59819 0.68770
 C525 C 0.69511 0.60776 0.66985
 H526 H 0.66230 0.60637 0.70712
 H527 H 0.70936 0.60518 0.66157
 Cu528 Cu 0.64585 0.64527 0.67876
 Cu529 Cu 0.68150 0.64130 0.64204
 Cu530 Cu 0.64369 0.67988 0.64073
 N531 N 0.62504 0.66739 0.67842
 N532 N 0.62327 0.67965 0.66255
 C533 C 0.60830 0.69384 0.66606
 C534 C 0.60101 0.69115 0.68566
 C535 C 0.61166 0.67387 0.69288
 H536 H 0.60385 0.70593 0.65550
 H537 H 0.61052 0.66727 0.70793
 N538 N 0.66603 0.67751 0.62039
 N539 N 0.67956 0.66202 0.62020
 C540 C 0.69386 0.66565 0.60582
 C541 C 0.68994 0.68494 0.59739
 C542 C 0.67186 0.69177 0.60659
 H543 H 0.70710 0.65575 0.60276
 H544 H 0.66446 0.70675 0.60448
 H545 H 0.66769 0.66632 0.65691
 H546 H 0.65031 0.64867 0.64223
 N547 N 0.68034 0.12294 0.16289
 N548 N 0.66585 0.12294 0.17690
 C549 C 0.66972 0.10739 0.19005
 C550 C 0.68771 0.09716 0.18412
 C551 C 0.69416 0.10774 0.16696
 H552 H 0.66064 0.10424 0.20347
 H553 H 0.70848 0.10537 0.15873
 Cu554 Cu 0.64467 0.14464 0.17808
 Cu555 Cu 0.68107 0.14377 0.14154
 Cu556 Cu 0.64275 0.18133 0.14178
 N557 N 0.62262 0.16545 0.17718
 N558 N 0.62130 0.17904 0.16234
 C559 C 0.60511 0.19185 0.16580
 C560 C 0.59576 0.18611 0.18386
 C561 C 0.60752 0.16943 0.19075
 H562 H 0.60114 0.20512 0.15649
 H563 H 0.60599 0.16166 0.20522
 N564 N 0.66362 0.17911 0.12006
 N565 N 0.67774 0.16419 0.11946
 C566 C 0.69012 0.16729 0.10331
 C567 C 0.68368 0.18517 0.09331
 C568 C 0.66696 0.19233 0.10461
 H569 H 0.70359 0.15789 0.09972
 H570 H 0.65873 0.20687 0.10255
 H571 H 0.66665 0.16722 0.15765
 H572 H 0.64961 0.14997 0.14200
 N573 N 0.17851 0.62123 0.16076
 N574 N 0.16926 0.62544 0.17810
 C575 C 0.17727 0.61314 0.19269
 C576 C 0.19246 0.60065 0.18409
 C577 C 0.19251 0.60588 0.16368
 H578 H 0.17269 0.61344 0.20849
 H579 H 0.20220 0.59928 0.15188
 Cu580 Cu 0.14757 0.64649 0.17998
 Cu581 Cu 0.17241 0.63682 0.13606
 Cu582 Cu 0.14354 0.68188 0.14324
 N583 N 0.12415 0.66572 0.17889
 N584 N 0.12222 0.67905 0.16390
 C585 C 0.10558 0.69128 0.16726
 C586 C 0.09648 0.68538 0.18540
 C587 C 0.10893 0.66923 0.19247
 H588 H 0.10112 0.70425 0.15774
 H589 H 0.10778 0.66154 0.20701
 N590 N 0.16102 0.67717 0.11930
 N591 N 0.17143 0.65974 0.11610
 C592 C 0.18317 0.66201 0.09935
 C593 C 0.17991 0.68180 0.09159
 C594 C 0.16588 0.69096 0.10480
 H595 H 0.19438 0.65065 0.09404
 H596 H 0.16078 0.70701 0.10473
 H597 H 0.16806 0.66279 0.15349
 H598 H 0.14386 0.65074 0.14327
 N599 N 0.18344 0.12914 0.66865
 N600 N 0.16636 0.12405 0.67823
 C601 C 0.17006 0.10710 0.68966
 C602 C 0.19059 0.10117 0.68703
 C603 C 0.19867 0.11579 0.67386
 H604 H 0.15888 0.10002 0.69968
 H605 H 0.21463 0.11713 0.66904
 Cu606 Cu 0.14169 0.14142 0.67637
 Cu607 Cu 0.18490 0.15351 0.65124
 Cu608 Cu 0.13722 0.17439 0.63729
 N609 N 0.12047 0.16301 0.67601
 N610 N 0.11808 0.17533 0.66026
 C611 C 0.10251 0.18882 0.66404
 C612 C 0.09476 0.18484 0.68328
 C613 C 0.10679 0.16849 0.69050
 H614 H 0.09783 0.20124 0.65393
 H615 H 0.10634 0.16172 0.70552
 N616 N 0.16281 0.17933 0.62186
 N617 N 0.18109 0.17223 0.62783
 C618 C 0.19577 0.17964 0.61536
 C619 C 0.18635 0.19226 0.60104
 C620 C 0.16537 0.19143 0.60539
 H621 H 0.21219 0.17640 0.61677
 H622 H 0.15296 0.19945 0.59750
 H623 H 0.15854 0.17038 0.65938
 H624 H 0.15550 0.14740 0.64229
 N625 N 0.31926 0.62434 0.33579
 N626 N 0.33392 0.62419 0.32195
 C627 C 0.33005 0.60889 0.30846
 C628 C 0.31226 0.59860 0.31441
 C629 C 0.30578 0.60898 0.33175
 H630 H 0.33881 0.60618 0.29471
 H631 H 0.29172 0.60620 0.34022
 Cu632 Cu 0.35582 0.64495 0.32215
 Cu633 Cu 0.31703 0.64628 0.35610
 Cu634 Cu 0.35622 0.68252 0.35765
 N635 N 0.37808 0.66529 0.32351
 N636 N 0.37785 0.68027 0.33715
 C637 C 0.39337 0.69353 0.33325
 C638 C 0.40438 0.68626 0.31658
 C639 C 0.39407 0.66833 0.31075
 H640 H 0.39562 0.70812 0.34115
 H641 H 0.39739 0.65881 0.29757
 N642 N 0.33489 0.68056 0.37897
 N643 N 0.31948 0.66720 0.37790
 C644 C 0.30625 0.67097 0.39327
 C645 C 0.31389 0.68716 0.40496
 C646 C 0.33204 0.69291 0.39531
 H647 H 0.29153 0.66328 0.39518
 H648 H 0.34194 0.70577 0.39942
 H649 H 0.33312 0.66887 0.34064
 H650 H 0.34851 0.65134 0.35767
 N651 N 0.32196 0.12486 0.83595
 N652 N 0.33116 0.12922 0.81869
 C653 C 0.32572 0.11505 0.80463
 C654 C 0.31264 0.10084 0.81360
 C655 C 0.31034 0.10770 0.83345
 H656 H 0.33056 0.11528 0.78891
 H657 H 0.30070 0.10092 0.84508
 Cu658 Cu 0.34945 0.15280 0.81582
 Cu659 Cu 0.32558 0.14210 0.86010
 Cu660 Cu 0.35247 0.18801 0.85316
 N661 N 0.37203 0.17258 0.81719
 N662 N 0.37356 0.18604 0.83215
 C663 C 0.38990 0.19846 0.82878
 C664 C 0.39925 0.19236 0.81074
 C665 C 0.38722 0.17607 0.80368
 H666 H 0.39416 0.21148 0.83832
 H667 H 0.38874 0.16804 0.78929
 N668 N 0.33529 0.18273 0.87713
 N669 N 0.32537 0.16511 0.88006
 C670 C 0.31376 0.16693 0.89698
 C671 C 0.31670 0.18657 0.90518
 C672 C 0.33031 0.19618 0.89204
 H673 H 0.30303 0.15530 0.90229
 H674 H 0.33515 0.21224 0.89259
 H675 H 0.32859 0.16830 0.84288
 H676 H 0.35339 0.15670 0.85249
 N677 N 0.82639 0.61578 0.83989
 N678 N 0.83891 0.61725 0.82423
 C679 C 0.83352 0.60314 0.81011
 C680 C 0.81698 0.59175 0.81741
 C681 C 0.81275 0.60039 0.83634
 H682 H 0.84055 0.60188 0.79524
 H683 H 0.80022 0.59629 0.84644
 Cu684 Cu 0.86065 0.63800 0.82321
 Cu685 Cu 0.82805 0.63541 0.86265
 Cu686 Cu 0.84893 0.68240 0.84723
 N687 N 0.87674 0.66295 0.81893
 N688 N 0.87160 0.68052 0.82787
 C689 C 0.88371 0.69581 0.82079
 C690 C 0.89713 0.68738 0.80656
 C691 C 0.89255 0.66635 0.80607
 H692 H 0.88252 0.71196 0.82530
 H693 H 0.89979 0.65453 0.79670
 N694 N 0.83195 0.67939 0.87189
 N695 N 0.82457 0.66145 0.87822
 C696 C 0.81410 0.66461 0.89568
 C697 C 0.81530 0.68551 0.90072
 C698 C 0.82647 0.69440 0.88512
 H699 H 0.80588 0.65269 0.90390
 H700 H 0.83001 0.71071 0.88336
 H701 H 0.83203 0.65588 0.84017
 H702 H 0.85516 0.65288 0.85703
 N703 N 0.82018 0.12185 0.33307
 N704 N 0.83092 0.12557 0.31653
 C705 C 0.82618 0.11132 0.30230
 C706 C 0.81200 0.09760 0.31041
 C707 C 0.80832 0.10495 0.32992
 H708 H 0.83223 0.11119 0.28698
 H709 H 0.79756 0.09869 0.34086
 Cu710 Cu 0.85038 0.14839 0.31489
 Cu711 Cu 0.82209 0.13964 0.35710
 Cu712 Cu 0.85027 0.18489 0.35108
 N713 N 0.87312 0.16791 0.31774
 N714 N 0.87337 0.18179 0.33241
 C715 C 0.88995 0.19413 0.33011
 C716 C 0.90079 0.18765 0.31303
 C717 C 0.88943 0.17110 0.30545
 H718 H 0.89322 0.20754 0.33953
 H719 H 0.89205 0.16287 0.29132
 N720 N 0.83116 0.18059 0.37374
 N721 N 0.82074 0.16323 0.37647
 C722 C 0.80853 0.16553 0.39296
 C723 C 0.81170 0.18519 0.40109
 C724 C 0.82593 0.19433 0.38830
 H725 H 0.79760 0.15408 0.39824
 H726 H 0.83144 0.21016 0.38906
 H727 H 0.82714 0.16503 0.33940
 H728 H 0.85074 0.15355 0.35165
 N729 N 0.68370 0.37653 0.33882
 N730 N 0.67172 0.37517 0.32268
 C731 C 0.67962 0.38687 0.30771
 C732 C 0.69765 0.39602 0.31473
 C733 C 0.69946 0.38952 0.33477
 H734 H 0.67298 0.38825 0.29265
 H735 H 0.71152 0.39358 0.34551
 Cu736 Cu 0.64713 0.35787 0.32249
 Cu737 Cu 0.67874 0.35943 0.36286
 Cu738 Cu 0.65293 0.31420 0.34937
 N739 N 0.62821 0.33482 0.31913
 N740 N 0.63117 0.31732 0.32900
 C741 C 0.61787 0.30297 0.32192
 C742 C 0.60598 0.31195 0.30670
 C743 C 0.61263 0.33238 0.30572
 H744 H 0.61737 0.28699 0.32697
 H745 H 0.60710 0.34437 0.29551
 N746 N 0.66967 0.31690 0.37436
 N747 N 0.67888 0.33430 0.37994
 C748 C 0.68912 0.33099 0.39753
 C749 C 0.68595 0.31059 0.40344
 C750 C 0.67374 0.30212 0.38825
 H751 H 0.69879 0.34234 0.40508
 H752 H 0.66882 0.28612 0.38705
 H753 H 0.67292 0.33797 0.34153
 H754 H 0.64986 0.34480 0.35730
 N755 N 0.67779 0.87996 0.83990
 N756 N 0.66176 0.88194 0.82769
 C757 C 0.66544 0.89721 0.81428
 C758 C 0.68458 0.90589 0.81867
 C759 C 0.69199 0.89435 0.83501
 H760 H 0.65549 0.90072 0.80147
 H761 H 0.70704 0.89566 0.84217
 Cu762 Cu 0.63843 0.86317 0.82900
 Cu763 Cu 0.68017 0.85701 0.85920
 Cu764 Cu 0.63860 0.82293 0.86086
 N765 N 0.62066 0.83940 0.82443
 N766 N 0.62154 0.82308 0.83637
 C767 C 0.60935 0.80806 0.82866
 C768 C 0.60058 0.81526 0.81072
 C769 C 0.60767 0.83547 0.80888
 H770 H 0.60748 0.79283 0.83532
 H771 H 0.60402 0.84642 0.79692
 N772 N 0.66274 0.82068 0.87904
 N773 N 0.67910 0.83284 0.87768
 C774 C 0.69405 0.82546 0.89012
 C775 C 0.68681 0.80774 0.89960
 C776 C 0.66668 0.80555 0.89262
 H777 H 0.70937 0.83203 0.89170
 H778 H 0.65593 0.79339 0.89657
 H779 H 0.66089 0.83682 0.84367
 H780 H 0.64913 0.85359 0.86374
 N781 N 0.17897 0.38081 0.83983
 N782 N 0.16740 0.37917 0.82343
 C783 C 0.17415 0.39260 0.80932
 C784 C 0.19096 0.40325 0.81721
 C785 C 0.19318 0.39576 0.83688
 H786 H 0.16774 0.39404 0.79417
 H787 H 0.20467 0.40032 0.84801
 Cu788 Cu 0.14484 0.35936 0.82183
 Cu789 Cu 0.17617 0.36140 0.86254
 Cu790 Cu 0.15375 0.31513 0.84679
 N791 N 0.12644 0.33577 0.81879
 N792 N 0.13025 0.31833 0.82851
 C793 C 0.11628 0.30401 0.82286
 C794 C 0.10263 0.31308 0.80920
 C795 C 0.10975 0.33320 0.80673
 H796 H 0.11644 0.28799 0.82784
 H797 H 0.10355 0.34488 0.79654
 N798 N 0.17124 0.31746 0.87120
 N799 N 0.17912 0.33514 0.87779
 C800 C 0.18985 0.33147 0.89505
 C801 C 0.18828 0.31051 0.89965
 C802 C 0.17662 0.30213 0.88404
 H803 H 0.19848 0.34307 0.90342
 H804 H 0.17261 0.28594 0.88204
 H805 H 0.17218 0.34068 0.84003
 H806 H 0.14868 0.34487 0.85601
 N807 N 0.17975 0.87752 0.33581
 N808 N 0.16819 0.87498 0.31952
 C809 C 0.17521 0.88731 0.30460
 C810 C 0.19218 0.89818 0.31185
 C811 C 0.19422 0.89198 0.33196
 H812 H 0.16875 0.88797 0.28942
 H813 H 0.20565 0.89719 0.34288
 Cu814 Cu 0.14500 0.85584 0.31934
 Cu815 Cu 0.17638 0.85996 0.35983
 Cu816 Cu 0.15268 0.81331 0.34731
 N817 N 0.12583 0.83269 0.31807
 N818 N 0.12919 0.81586 0.32889
 C819 C 0.11481 0.80159 0.32421
 C820 C 0.10132 0.81009 0.31005
 C821 C 0.10900 0.82979 0.30627
 H822 H 0.11463 0.78592 0.33017
 H823 H 0.10312 0.84091 0.29534
 N824 N 0.17029 0.81692 0.37150
 N825 N 0.17859 0.83483 0.37688
 C826 C 0.18936 0.83211 0.39428
 C827 C 0.18740 0.81156 0.40026
 C828 C 0.17545 0.80239 0.38528
 H829 H 0.19838 0.84404 0.40175
 H830 H 0.17120 0.78618 0.38428
 H831 H 0.17182 0.83778 0.33883
 H832 H 0.14845 0.84379 0.35446
 C833 C 0.23546 1.04317 0.26003
 C834 C 0.24934 1.05375 0.24747
 C835 C 0.26218 1.04319 0.23382
 C836 C 0.26137 1.02129 0.23265
 C837 C 0.24867 1.01018 0.24638
 C838 C 0.23561 1.02112 0.26015
 C839 C 0.22307 1.00968 0.27347
 C840 C 0.22415 0.98802 0.27401
 C841 C 0.23703 0.97689 0.26055
 C842 C 0.24907 0.98809 0.24631
 C843 C 0.27297 1.01026 0.21810
 C844 C 0.27301 0.98866 0.21774
 C845 C 0.26182 0.97727 0.23220
 C846 C 0.26314 0.95532 0.23295
 C847 C 0.25122 0.94450 0.24705
 C848 C 0.23843 0.95489 0.26102
 H849 H 0.21253 1.01735 0.28386
 H850 H 0.21472 0.98010 0.28510
 H851 H 0.28220 1.01824 0.20688
 H852 H 0.28218 0.98098 0.20616
 H853 H 0.24986 1.07061 0.24804
 H854 H 0.25232 0.92766 0.24752
 C855 C 0.26529 0.54379 0.73289
 C856 C 0.25317 0.55579 0.74608
 C857 C 0.23950 0.54664 0.75984
 C858 C 0.23884 0.52473 0.76153
 C859 C 0.25063 0.51232 0.74788
 C860 C 0.26336 0.52188 0.73307
 C861 C 0.27370 0.50933 0.71876
 C862 C 0.27214 0.48776 0.71937
 C863 C 0.26047 0.47793 0.73454
 C864 C 0.24951 0.49030 0.74890
 C865 C 0.22658 0.51491 0.77627
 C866 C 0.22632 0.49331 0.77793
 C867 C 0.23749 0.48070 0.76428
 C868 C 0.23715 0.45874 0.76560
 C869 C 0.24776 0.44684 0.75111
 C870 C 0.25920 0.45603 0.73559
 H871 H 0.28300 0.51610 0.70685
 H872 H 0.28026 0.47887 0.70786
 H873 H 0.21732 0.52384 0.78689
 H874 H 0.21710 0.48659 0.78992
 H875 H 0.25410 0.57262 0.74540
 H876 H 0.24722 0.43000 0.75201
 C877 C 0.75793 -0.04667 0.26393
 C878 C 0.74434 -0.05676 0.25064
 C879 C 0.73119 -0.04567 0.23766
 C880 C 0.73217 -0.02373 0.23723
 C881 C 0.74646 -0.01325 0.25007
 C882 C 0.75919 -0.02474 0.26370
 C883 C 0.77249 -0.01399 0.27696
 C884 C 0.77369 0.00764 0.27648
 C885 C 0.76177 0.01929 0.26259
 C886 C 0.74781 0.00877 0.24947
 C887 C 0.71893 -0.01200 0.22467
 C888 C 0.72024 0.00957 0.22411
 C889 C 0.73499 0.02024 0.23592
 C890 C 0.73707 0.04211 0.23475
 C891 C 0.75106 0.05222 0.24765
 C892 C 0.76324 0.04122 0.26161
 H893 H 0.78206 -0.02221 0.28787
 H894 H 0.78413 0.01515 0.28706
 H895 H 0.70739 -0.01939 0.21517
 H896 H 0.70955 0.01780 0.21427
 H897 H 0.74359 -0.07362 0.25080
 H898 H 0.75245 0.06901 0.24685
 C899 C 0.73857 0.54370 0.73910
 C900 C 0.75223 0.55290 0.75297
 C901 C 0.76366 0.54097 0.76686
 C902 C 0.76110 0.51910 0.76726
 C903 C 0.74762 0.50947 0.75304
 C904 C 0.73614 0.52180 0.73908
 C905 C 0.72256 0.51188 0.72544
 C906 C 0.72127 0.49035 0.72458
 C907 C 0.73228 0.47781 0.73838
 C908 C 0.74556 0.48746 0.75281
 C909 C 0.77160 0.50661 0.78154
 C910 C 0.76958 0.48505 0.78132
 C911 C 0.75692 0.47515 0.76686
 C912 C 0.75512 0.45324 0.76621
 C913 C 0.74198 0.44399 0.75191
 C914 C 0.73037 0.45586 0.73816
 H915 H 0.71291 0.52061 0.71502
 H916 H 0.71133 0.48370 0.71305
 H917 H 0.78152 0.51342 0.79303
 H918 H 0.77805 0.47620 0.79262
 H919 H 0.75420 0.56964 0.75277
 H920 H 0.74078 0.42717 0.75147
 C921 C 0.25970 0.45690 0.26844
 C922 C 0.24877 0.44577 0.25370
 C923 C 0.23761 0.45583 0.23830
 C924 C 0.23733 0.47781 0.23748
 C925 C 0.24797 0.48934 0.25263
 C926 C 0.25860 0.47887 0.26854
 C927 C 0.26817 0.49061 0.28393
 C928 C 0.26885 0.51217 0.28280
 C929 C 0.25985 0.52278 0.26631
 C930 C 0.24856 0.51137 0.25154
 C931 C 0.22718 0.48854 0.22169
 C932 C 0.22762 0.51019 0.22072
 C933 C 0.23831 0.52189 0.23544
 C934 C 0.23945 0.54382 0.23428
 C935 C 0.25137 0.55474 0.24850
 C936 C 0.26201 0.54452 0.26410
 H937 H 0.27558 0.48317 0.29681
 H938 H 0.27674 0.52045 0.29486
 H939 H 0.21908 0.48027 0.20976
 H940 H 0.21985 0.51766 0.20807
 H941 H 0.24943 0.42890 0.25384
 H942 H 0.25261 0.57151 0.24723
 C943 C 0.75727 0.95568 0.73559
 C944 C 0.74493 0.94571 0.75003
 C945 C 0.73372 0.95694 0.76461
 C946 C 0.73567 0.97886 0.76548
 C947 C 0.74780 0.98923 0.75072
 C948 C 0.75853 0.97764 0.73564
 C949 C 0.77006 0.98832 0.72089
 C950 C 0.77152 1.00991 0.72129
 C951 C 0.76135 1.02166 0.73633
 C952 C 0.74919 1.01126 0.75103
 C953 C 0.72584 0.99067 0.78073
 C954 C 0.72688 1.01227 0.78080
 C955 C 0.73837 1.02286 0.76601
 C956 C 0.73937 1.04479 0.76586
 C957 C 0.75168 1.05484 0.75155
 C958 C 0.76297 1.04359 0.73707
 H959 H 0.77799 0.98010 0.70879
 H960 H 0.78061 1.01735 0.70960
 H961 H 0.71711 0.98335 0.79273
 H962 H 0.71866 1.02058 0.79266
 H963 H 0.74390 0.92888 0.74980
 H964 H 0.75269 1.07167 0.75185
 C965 C 0.74672 0.45234 0.26594
 C966 C 0.75879 0.44334 0.25053
 C967 C 0.76921 0.45555 0.23631
 C968 C 0.76664 0.47743 0.23671
 C969 C 0.75496 0.48681 0.25252
 C970 C 0.74511 0.47427 0.26730
 C971 C 0.73403 0.48397 0.28313
 C972 C 0.73216 0.50552 0.28410
 C973 C 0.74142 0.51818 0.26937
 C974 C 0.75312 0.50881 0.25355
 C975 C 0.77540 0.49012 0.22166
 C976 C 0.77342 0.51167 0.22255
 C977 C 0.76271 0.52137 0.23859
 C978 C 0.76093 0.54330 0.23991
 C979 C 0.74946 0.55222 0.25575
 C980 C 0.73919 0.54002 0.26999
 H981 H 0.72679 0.47501 0.29502
 H982 H 0.72343 0.51221 0.29657
 H983 H 0.78380 0.48348 0.20896
 H984 H 0.78033 0.52064 0.21048
 H985 H 0.76025 0.42655 0.24973
 H986 H 0.74794 0.56902 0.25663
 C987 C 0.23836 0.04522 0.73786
 C988 C 0.25098 0.05552 0.75189
 C989 C 0.26291 0.04455 0.76608
 C990 C 0.26186 0.02261 0.76675
 C991 C 0.24942 0.01191 0.75238
 C992 C 0.23760 0.02323 0.73787
 C993 C 0.22537 0.01228 0.72378
 C994 C 0.22525 -0.00936 0.72350
 C995 C 0.23678 -0.02087 0.73776
 C996 C 0.24885 -0.01015 0.75247
 C997 C 0.27297 0.01112 0.78138
 C998 C 0.27222 -0.01052 0.78163
 C999 C 0.26047 -0.02145 0.76717
 C1000 C 0.25978 -0.04340 0.76711
 C1001 C 0.24805 -0.05369 0.75238
 C1002 C 0.23678 -0.04285 0.73764
 H1003 H 0.21595 0.02035 0.71264
 H1004 H 0.21596 -0.01697 0.71199
 H1005 H 0.28232 0.01880 0.79281
 H1006 H 0.28100 -0.01862 0.79324
 H1007 H 0.25178 0.07236 0.75155
 H1008 H 0.24779 -0.07057 0.75231
 C1009 C 0.23198 0.26317 1.04210
 C1010 C 0.24452 0.24968 1.05342
 C1011 C 0.25750 0.23503 1.04404
 C1012 C 0.25861 0.23425 1.02257
 C1013 C 0.24610 0.24797 1.01085
 C1014 C 0.23236 0.26210 1.02062
 C1015 C 0.21937 0.27479 1.00866
 C1016 C 0.22063 0.27446 0.98758
 C1017 C 0.23450 0.26098 0.97758
 C1018 C 0.24724 0.24749 0.98929
 C1019 C 0.27160 0.21993 1.01251
 C1020 C 0.27291 0.21965 0.99138
 C1021 C 0.26114 0.23356 0.97951
 C1022 C 0.26287 0.23391 0.95806
 C1023 C 0.25016 0.24727 0.94672
 C1024 C 0.23586 0.26055 0.95613
 H1025 H 0.20818 0.28527 1.01550
 H1026 H 0.21061 0.28495 0.97919
 H1027 H 0.28095 0.20884 1.02089
 H1028 H 0.28326 0.20841 0.98441
 H1029 H 0.24409 0.25049 1.06989
 H1030 H 0.25137 0.24727 0.93027
 C1031 C 0.26356 0.73754 0.45878
 C1032 C 0.24996 0.75029 0.44776
 C1033 C 0.23620 0.76388 0.45749
 C1034 C 0.23593 0.76493 0.47896
 C1035 C 0.24984 0.75235 0.49038
 C1036 C 0.26382 0.73870 0.48029
 C1037 C 0.27762 0.72657 0.49194
 C1038 C 0.27709 0.72714 0.51309
 C1039 C 0.26328 0.74044 0.52338
 C1040 C 0.24973 0.75340 0.51196
 C1041 C 0.22199 0.77807 0.48928
 C1042 C 0.22161 0.77879 0.51040
 C1043 C 0.23573 0.76704 0.52206
 C1044 C 0.23607 0.76835 0.54357
 C1045 C 0.24932 0.75521 0.55455
 C1046 C 0.26241 0.74095 0.54483
 H1047 H 0.28884 0.71633 0.48481
 H1048 H 0.28774 0.71714 0.52131
 H1049 H 0.21108 0.78782 0.48112
 H1050 H 0.21012 0.78874 0.51747
 H1051 H 0.24992 0.74944 0.43128
 H1052 H 0.24905 0.75568 0.57104
 C1053 C 0.26659 0.76283 -0.04042
 C1054 C 0.25297 0.75110 -0.05233
 C1055 C 0.23879 0.73745 -0.04359
 C1056 C 0.23828 0.73508 -0.02226
 C1057 C 0.25183 0.74702 -0.00990
 C1058 C 0.26620 0.76078 -0.01898
 C1059 C 0.27963 0.77222 -0.00639
 C1060 C 0.27810 0.77119 0.01470
 C1061 C 0.26368 0.75801 0.02401
 C1062 C 0.25074 0.74545 0.01161
 C1063 C 0.22440 0.72133 -0.01296
 C1064 C 0.22367 0.71945 0.00808
 C1065 C 0.23634 0.73172 0.02066
 C1066 C 0.23480 0.73083 0.04208
 C1067 C 0.24749 0.74344 0.05408
 C1068 C 0.26160 0.75723 0.04539
 H1069 H 0.29121 0.78241 -0.01273
 H1070 H 0.28837 0.78084 0.02364
 H1071 H 0.21389 0.71192 -0.02188
 H1072 H 0.21279 0.70850 0.01442
 H1073 H 0.25318 0.75284 -0.06873
 H1074 H 0.24591 0.74301 0.07049
 C1075 C 0.26741 0.25922 0.54453
 C1076 C 0.25173 0.24842 0.55453
 C1077 C 0.23737 0.23635 0.54389
 C1078 C 0.23859 0.23489 0.52248
 C1079 C 0.25393 0.24639 0.51202
 C1080 C 0.26842 0.25859 0.52307
 C1081 C 0.28372 0.26951 0.51239
 C1082 C 0.28438 0.26906 0.49125
 C1083 C 0.26998 0.25740 0.48000
 C1084 C 0.25488 0.24557 0.49046
 C1085 C 0.22490 0.22234 0.51129
 C1086 C 0.22631 0.22097 0.49019
 C1087 C 0.24095 0.23269 0.47945
 C1088 C 0.24232 0.23174 0.45799
 C1089 C 0.25651 0.24441 0.44793
 C1090 C 0.27050 0.25693 0.45854
 H1091 H 0.29534 0.27855 0.52027
 H1092 H 0.29645 0.27780 0.48380
 H1093 H 0.21305 0.21334 0.51876
 H1094 H 0.21565 0.21075 0.48238
 H1095 H 0.25081 0.24925 0.57098
 H1096 H 0.25706 0.24408 0.43145
 C1097 C 0.76550 0.73411 0.95620
 C1098 C 0.75101 0.74597 0.94543
 C1099 C 0.73609 0.75816 0.95535
 C1100 C 0.73595 0.75901 0.97686
 C1101 C 0.75096 0.74746 0.98803
 C1102 C 0.76568 0.73483 0.97768
 C1103 C 0.78021 0.72331 0.98903
 C1104 C 0.78061 0.72451 1.01015
 C1105 C 0.76617 0.73687 1.02075
 C1106 C 0.75117 0.74844 1.00960
 C1107 C 0.72107 0.77081 0.98750
 C1108 C 0.72137 0.77187 1.00866
 C1109 C 0.73646 0.76105 1.01998
 C1110 C 0.73720 0.76244 1.04144
 C1111 C 0.75190 0.75077 1.05219
 C1112 C 0.76640 0.73811 1.04222
 H1113 H 0.79157 0.71340 0.98166
 H1114 H 0.79243 0.71567 1.01808
 H1115 H 0.70900 0.77932 0.97958
 H1116 H 0.70961 0.78125 1.01608
 H1117 H 0.75124 0.74554 0.92894
 H1118 H 0.75220 0.75171 1.06866
 C1119 C 0.73569 0.25700 0.54440
 C1120 C 0.75026 0.24411 0.55401
 C1121 C 0.76325 0.23083 0.54296
 C1122 C 0.76181 0.23034 0.52153
 C1123 C 0.74801 0.24417 0.51145
 C1124 C 0.73484 0.25754 0.52289
 C1125 C 0.72108 0.27086 0.51251
 C1126 C 0.72080 0.27160 0.49134
 C1127 C 0.73379 0.25856 0.47973
 C1128 C 0.74734 0.24455 0.48987
 C1129 C 0.77378 0.21635 0.50996
 C1130 C 0.77302 0.21663 0.48884
 C1131 C 0.76035 0.23100 0.47848
 C1132 C 0.76040 0.23220 0.45701
 C1133 C 0.74696 0.24609 0.44723
 C1134 C 0.73358 0.25911 0.45822
 H1135 H 0.71050 0.28099 0.52065
 H1136 H 0.71023 0.28247 0.48415
 H1137 H 0.78394 0.20509 0.51714
 H1138 H 0.78261 0.20555 0.48069
 H1139 H 0.75128 0.24420 0.57048
 H1140 H 0.74699 0.24688 0.43076
 C1141 C 0.76479 0.26796 -0.04167
 C1142 C 0.75110 0.25598 -0.05325
 C1143 C 0.73715 0.24234 -0.04418
 C1144 C 0.73683 0.24032 -0.02282
 C1145 C 0.75033 0.25261 -0.01077
 C1146 C 0.76462 0.26621 -0.02019
 C1147 C 0.77828 0.27770 -0.00789
 C1148 C 0.77684 0.27712 0.01321
 C1149 C 0.76240 0.26421 0.02283
 C1150 C 0.74937 0.25143 0.01076
 C1151 C 0.72327 0.22646 -0.01321
 C1152 C 0.72279 0.22487 0.00786
 C1153 C 0.73521 0.23768 0.02016
 C1154 C 0.73385 0.23716 0.04163
 C1155 C 0.74650 0.25018 0.05326
 C1156 C 0.76051 0.26380 0.04422
 H1157 H 0.78998 0.28759 -0.01445
 H1158 H 0.78722 0.28689 0.02190
 H1159 H 0.71287 0.21671 -0.02190
 H1160 H 0.71226 0.21372 0.01441
 H1161 H 0.75118 0.25739 -0.06969
 H1162 H 0.74523 0.24992 0.06971
 C1163 C 0.76170 0.76552 0.54362
 C1164 C 0.74943 0.75106 0.55367
 C1165 C 0.73847 0.73574 0.54309
 C1166 C 0.73885 0.73551 0.52158
 C1167 C 0.75083 0.75050 0.51113
 C1168 C 0.76276 0.76518 0.52220
 C1169 C 0.77541 0.77908 0.51159
 C1170 C 0.77611 0.77884 0.49049
 C1171 C 0.76338 0.76543 0.47912
 C1172 C 0.75101 0.75074 0.48955
 C1173 C 0.72796 0.72053 0.51027
 C1174 C 0.72800 0.72087 0.48910
 C1175 C 0.73910 0.73608 0.47845
 C1176 C 0.73903 0.73676 0.45697
 C1177 C 0.75048 0.75199 0.44696
 C1178 C 0.76284 0.76611 0.45761
 H1179 H 0.78496 0.79028 0.51951
 H1180 H 0.78659 0.78953 0.48322
 H1181 H 0.71928 0.70838 0.51767
 H1182 H 0.71928 0.70903 0.48116
 H1183 H 0.74877 0.75144 0.57015
 H1184 H 0.75015 0.75252 0.43047
 C1185 C 0.95615 0.26276 0.23784
 C1186 C 0.94597 0.24919 0.25097
 C1187 C 0.95690 0.23683 0.26481
 C1188 C 0.97877 0.23814 0.26571
 C1189 C 0.98940 0.25067 0.25147
 C1190 C 0.97806 0.26311 0.23750
 C1191 C 0.98890 0.27574 0.22381
 C1192 C 1.01049 0.27573 0.22348
 C1193 C 1.02205 0.26346 0.23716
 C1194 C 1.01142 0.25090 0.25134
 C1195 C 0.99025 0.22747 0.28061
 C1196 C 1.01180 0.22784 0.28059
 C1197 C 1.02272 0.23862 0.26547
 C1198 C 1.04465 0.23755 0.26416
 C1199 C 1.05492 0.25021 0.25018
 C1200 C 1.04400 0.26354 0.23713
 H1201 H 0.98078 0.28560 0.21307
 H1202 H 1.01806 0.28544 0.21237
 H1203 H 0.98265 0.21865 0.29239
 H1204 H 1.01983 0.21939 0.29246
 H1205 H 0.92915 0.24862 0.25071
 H1206 H 1.07173 0.24986 0.24957
 C1207 C 0.54450 0.23536 0.76625
 C1208 C 0.55624 0.24762 0.75316
 C1209 C 0.54696 0.26233 0.74032
 C1210 C 0.52505 0.26394 0.73952
 C1211 C 0.51289 0.25130 0.75244
 C1212 C 0.52266 0.23752 0.76635
 C1213 C 0.51035 0.22640 0.78011
 C1214 C 0.48884 0.22771 0.77933
 C1215 C 0.47879 0.24010 0.76469
 C1216 C 0.49091 0.25255 0.75159
 C1217 C 0.51497 0.27801 0.72640
 C1218 C 0.49342 0.27889 0.72524
 C1219 C 0.48109 0.26624 0.73764
 C1220 C 0.45918 0.26701 0.73660
 C1221 C 0.44747 0.25396 0.74898
 C1222 C 0.45690 0.24046 0.76289
 H1223 H 0.51726 0.21646 0.79156
 H1224 H 0.48015 0.21875 0.79025
 H1225 H 0.52361 0.28840 0.71676
 H1226 H 0.48648 0.28967 0.71456
 H1227 H 0.57300 0.24601 0.75328
 H1228 H 0.43068 0.25440 0.74785
 C1229 C -0.04197 0.26892 0.76255
 C1230 C -0.05331 0.25503 0.75053
 C1231 C -0.04360 0.24193 0.73641
 C1232 C -0.02181 0.24268 0.73407
 C1233 C -0.01001 0.25609 0.74666
 C1234 C -0.02013 0.26972 0.76050
 C1235 C -0.00814 0.28375 0.77190
 C1236 C 0.01342 0.28325 0.77094
 C1237 C 0.02379 0.26882 0.75841
 C1238 C 0.01197 0.25569 0.74557
 C1239 C -0.01150 0.23041 0.71947
 C1240 C 0.01004 0.23000 0.71844
 C1241 C 0.02209 0.24188 0.73193
 C1242 C 0.04401 0.24028 0.73219
 C1243 C 0.05544 0.25297 0.74533
 C1244 C 0.04567 0.26711 0.75843
 H1245 H -0.01531 0.29505 0.78192
 H1246 H 0.02190 0.29414 0.78033
 H1247 H -0.02000 0.22077 0.70887
 H1248 H 0.01718 0.22005 0.70712
 H1249 H -0.07001 0.25429 0.75233
 H1250 H 0.07220 0.25150 0.74569
 C1251 C 0.45589 0.24129 0.23803
 C1252 C 0.44632 0.25437 0.25227
 C1253 C 0.45788 0.26748 0.26489
 C1254 C 0.47979 0.26707 0.26389
 C1255 C 0.48974 0.25391 0.24955
 C1256 C 0.47776 0.24148 0.23614
 C1257 C 0.48796 0.22967 0.22113
 C1258 C 0.50948 0.22877 0.22033
 C1259 C 0.52164 0.23986 0.23435
 C1260 C 0.51172 0.25320 0.24857
 C1261 C 0.49199 0.27958 0.27672
 C1262 C 0.51354 0.27932 0.27537
 C1263 C 0.52374 0.26598 0.26164
 C1264 C 0.54563 0.26520 0.26038
 C1265 C 0.55511 0.25080 0.24736
 C1266 C 0.54351 0.23813 0.23441
 H1267 H 0.47938 0.22083 0.20994
 H1268 H 0.51651 0.21921 0.20863
 H1269 H 0.48495 0.28979 0.28788
 H1270 H 0.52212 0.28954 0.28536
 H1271 H 0.42954 0.25448 0.25344
 H1272 H 0.57191 0.24978 0.24698
 C1273 C 1.04290 0.74032 0.76651
 C1274 C 1.05355 0.75276 0.75260
 C1275 C 1.04306 0.76614 0.73933
 C1276 C 1.02117 0.76741 0.74010
 C1277 C 1.01008 0.75371 0.75288
 C1278 C 1.02093 0.74007 0.76616
 C1279 C 1.00952 0.72674 0.77875
 C1280 C 0.98794 0.72606 0.77757
 C1281 C 0.97691 0.73938 0.76446
 C1282 C 0.98807 0.75368 0.75236
 C1283 C 1.01011 0.78202 0.72838
 C1284 C 0.98857 0.78215 0.72805
 C1285 C 0.97727 0.76767 0.73940
 C1286 C 0.95542 0.76679 0.73810
 C1287 C 0.94466 0.75255 0.74998
 C1288 C 0.95504 0.73869 0.76288
 H1289 H 1.01713 0.71643 0.78940
 H1290 H 0.97999 0.71502 0.78711
 H1291 H 1.01802 0.79343 0.71923
 H1292 H 0.98084 0.79357 0.71858
 H1293 H 1.07037 0.75222 0.75232
 H1294 H 0.92789 0.75185 0.74877
 C1295 C 0.54557 0.73451 0.25961
 C1296 C 0.55528 0.74821 0.24630
 C1297 C 0.54399 0.76278 0.23495
 C1298 C 0.52208 0.76319 0.23626
 C1299 C 0.51191 0.74905 0.24939
 C1300 C 0.52368 0.73485 0.26130
 C1301 C 0.51329 0.72154 0.27473
 C1302 C 0.49178 0.72158 0.27592
 C1303 C 0.47980 0.73565 0.26448
 C1304 C 0.48994 0.74948 0.25103
 C1305 C 0.51012 0.77764 0.22524
 C1306 C 0.48856 0.77791 0.22668
 C1307 C 0.47816 0.76385 0.23934
 C1308 C 0.45629 0.76400 0.24095
 C1309 C 0.44657 0.75024 0.25424
 C1310 C 0.45793 0.73637 0.26625
 H1311 H 0.52165 0.71083 0.28444
 H1312 H 0.48464 0.71057 0.28610
 H1313 H 0.51732 0.78896 0.21543
 H1314 H 0.48012 0.78941 0.21791
 H1315 H 0.57207 0.74798 0.24521
 H1316 H 0.42978 0.75051 0.25541
 C1317 C -0.04586 0.74051 0.23627
 C1318 C -0.05560 0.75330 0.25065
 C1319 C -0.04424 0.76618 0.26366
 C1320 C -0.02232 0.76630 0.26230
 C1321 C -0.01217 0.75249 0.24864
 C1322 C -0.02396 0.73975 0.23537
 C1323 C -0.01354 0.72693 0.22131
 C1324 C 0.00804 0.72590 0.22095
 C1325 C 0.02002 0.73764 0.23464
 C1326 C 0.00984 0.75153 0.24818
 C1327 C -0.01032 0.77995 0.27412
 C1328 C 0.01123 0.77905 0.27362
 C1329 C 0.02161 0.76451 0.26125
 C1330 C 0.04348 0.76273 0.26144
 C1331 C 0.05327 0.74857 0.24841
 C1332 C 0.04194 0.73605 0.23505
 H1333 H -0.02198 0.71749 0.21050
 H1334 H 0.01526 0.71572 0.20988
 H1335 H -0.01748 0.79139 0.28399
 H1336 H 0.01969 0.78980 0.28318
 H1337 H -0.07240 0.75342 0.25154
 H1338 H 0.07005 0.74725 0.24871
 C1339 C 0.45590 0.74047 0.73681
 C1340 C 0.44573 0.75343 0.75074
 C1341 C 0.45673 0.76674 0.76362
 C1342 C 0.47863 0.76747 0.76234
 C1343 C 0.48923 0.75379 0.74890
 C1344 C 0.47784 0.74019 0.73611
 C1345 C 0.48867 0.72684 0.72284
 C1346 C 0.51025 0.72702 0.72191
 C1347 C 0.52185 0.74023 0.73456
 C1348 C 0.51124 0.75384 0.74813
 C1349 C 0.49016 0.78167 0.77399
 C1350 C 0.51171 0.78188 0.77311
 C1351 C 0.52258 0.76781 0.76063
 C1352 C 0.54450 0.76759 0.75997
 C1353 C 0.55466 0.75359 0.74705
 C1354 C 0.54377 0.74049 0.73386
 H1355 H 0.48053 0.71615 0.71296
 H1356 H 0.51774 0.71665 0.71120
 H1357 H 0.48261 0.79285 0.78388
 H1358 H 0.51975 0.79325 0.78231
 H1359 H 0.42892 0.75328 0.75146
 H1360 H 0.57149 0.75342 0.74672
 C1361 C 0.43249 0.31568 0.28891
 C1362 C 0.42041 0.30595 0.30417
 C1363 C 0.42258 0.28449 0.30730
 C1364 C 0.43534 0.27247 0.29486
 C1365 C 0.44624 0.28148 0.27881
 C1366 C 0.44496 0.30325 0.27571
 C1367 C 0.43265 0.33751 0.28657
 C1368 C 0.44376 0.34672 0.27086
 C1369 C 0.45497 0.33446 0.25727
 C1370 C 0.45563 0.31293 0.25961
 H1371 H 0.42457 0.34769 0.29703
 H1372 H 0.44364 0.36346 0.26920
 H1373 H 0.46340 0.34168 0.24499
 H1374 H 0.46465 0.30400 0.24879
 H1375 H 0.41358 0.27674 0.31888
 H1376 H 0.43621 0.25584 0.29735
 C1377 C 0.43361 0.79035 0.81240
 C1378 C 0.41917 0.80481 0.80375
 C1379 C 0.41959 0.80779 0.78254
 C1380 C 0.43207 0.79558 0.77002
 C1381 C 0.44464 0.77987 0.77807
 C1382 C 0.44549 0.77705 0.79940
 C1383 C 0.43755 0.78951 0.83354
 C1384 C 0.45069 0.77439 0.84175
 C1385 C 0.46057 0.76009 0.82911
 C1386 C 0.45818 0.76144 0.80811
 H1387 H 0.43124 0.80097 0.84388
 H1388 H 0.45331 0.77385 0.85800
 H1389 H 0.47060 0.74826 0.83558
 H1390 H 0.46659 0.75038 0.79879
 H1391 H 0.40932 0.81878 0.77514
 H1392 H 0.43149 0.79806 0.75374
 C1393 C -0.06412 0.29307 0.81156
 C1394 C -0.07908 0.30687 0.80300
 C1395 C -0.08018 0.30885 0.78179
 C1396 C -0.06766 0.29684 0.76912
 C1397 C -0.05373 0.28222 0.77714
 C1398 C -0.05197 0.28006 0.79853
 C1399 C -0.06072 0.29200 0.83275
 C1400 C -0.04697 0.27745 0.84097
 C1401 C -0.03615 0.26386 0.82831
 C1402 C -0.03853 0.26513 0.80728
 H1403 H -0.06830 0.30260 0.84317
 H1404 H -0.04473 0.27668 0.85726
 H1405 H -0.02565 0.25246 0.83479
 H1406 H -0.02969 0.25438 0.79800
 H1407 H -0.09141 0.31923 0.77483
 H1408 H -0.06927 0.29855 0.75281
 C1409 C -0.06615 0.79059 0.31264
 C1410 C -0.08072 0.80479 0.30408
 C1411 C -0.08184 0.80674 0.28287
 C1412 C -0.06957 0.79447 0.27021
 C1413 C -0.05603 0.77948 0.27823
 C1414 C -0.05446 0.77717 0.29963
 C1415 C -0.06265 0.78958 0.33382
 C1416 C -0.04933 0.77464 0.34205
 C1417 C -0.03914 0.76053 0.32942
 C1418 C -0.04161 0.76174 0.30840
 H1419 H -0.06979 0.80052 0.34418
 H1420 H -0.04694 0.77397 0.35833
 H1421 H -0.02904 0.74878 0.33592
 H1422 H -0.03329 0.75056 0.29914
 H1423 H -0.09283 0.81736 0.27592
 H1424 H -0.07100 0.79634 0.25390
 C1425 C 0.57222 0.68759 0.28501
 C1426 C 0.58603 0.69821 0.29834
 C1427 C 0.58528 0.72001 0.29916
 C1428 C 0.57189 0.73127 0.28673
 C1429 C 0.55910 0.72124 0.27263
 C1430 C 0.55951 0.69924 0.27132
 C1431 C 0.57031 0.66572 0.28520
 C1432 C 0.55776 0.65556 0.27107
 C1433 C 0.54667 0.66691 0.25667
 C1434 C 0.54742 0.68856 0.25678
 H1435 H 0.57801 0.65628 0.29651
 H1436 H 0.55662 0.63877 0.27131
 H1437 H 0.53713 0.65892 0.24561
 H1438 H 0.53831 0.69685 0.24555
 H1439 H 0.59557 0.72857 0.30911
 H1440 H 0.57178 0.74809 0.28785
 C1441 C 0.56598 0.18592 0.79166
 C1442 C 0.57995 0.19508 0.80579
 C1443 C 0.58072 0.21681 0.80740
 C1444 C 0.56879 0.22944 0.79478
 C1445 C 0.55585 0.22082 0.77992
 C1446 C 0.55444 0.19889 0.77812
 C1447 C 0.56289 0.16421 0.79086
 C1448 C 0.54989 0.15543 0.77626
 C1449 C 0.53965 0.16803 0.76224
 C1450 C 0.54185 0.18956 0.76310
 H1451 H 0.57009 0.15385 0.80173
 H1452 H 0.54776 0.13875 0.77580
 H1453 H 0.52974 0.16110 0.75081
 H1454 H 0.53351 0.19878 0.75201
 H1455 H 0.59120 0.22420 0.81805
 H1456 H 0.57002 0.24618 0.79630
 C1457 C 1.08384 0.72611 0.80646
 C1458 C 1.08372 0.70402 0.80480
 C1459 C 1.06988 0.69461 0.79114
 C1460 C 1.05636 0.70646 0.77929
 C1461 C 1.05563 0.72813 0.78123
 C1462 C 1.06900 0.73808 0.79533
 C1463 C 1.09889 0.73679 0.81810
 C1464 C 1.09808 0.75836 0.82027
 C1465 C 1.08256 0.76981 0.81068
 C1466 C 1.06821 0.75986 0.79821
 H1467 H 1.11181 0.72887 0.82513
 H1468 H 1.10962 0.76624 0.82939
 H1469 H 1.08188 0.78653 0.81258
 H1470 H 1.05655 0.76939 0.79080
 H1471 H 1.06969 0.67785 0.78942
 H1472 H 1.04652 0.69868 0.76831
 C1473 C 1.06613 0.18956 0.29230
 C1474 C 1.08216 0.19901 0.30398
 C1475 C 1.08477 0.22063 0.30266
 C1476 C 1.07240 0.23270 0.28989
 C1477 C 1.05745 0.22358 0.27733
 C1478 C 1.05477 0.20169 0.27788
 C1479 C 1.06067 0.16849 0.29487
 C1480 C 1.04618 0.15909 0.28209
 C1481 C 1.03669 0.17048 0.26667
 C1482 C 1.04088 0.19158 0.26454
 H1483 H 1.06701 0.15921 0.30707
 H1484 H 1.04232 0.14288 0.28414
 H1485 H 1.02571 0.16302 0.25658
 H1486 H 1.03297 0.19993 0.25252
 H1487 H 1.09678 0.22840 0.31126
 H1488 H 1.07473 0.24937 0.28962
 C1489 C 0.59064 0.29939 0.72543
 C1490 C 0.58943 0.29798 0.70385
 C1491 C 0.57470 0.28474 0.69503
 C1492 C 0.56101 0.27348 0.70699
 C1493 C 0.56095 0.27573 0.72815
 C1494 C 0.57559 0.28908 0.73754
 C1495 C 0.60684 0.31010 0.73539
 C1496 C 0.60700 0.31239 0.75647
 C1497 C 0.59126 0.30382 0.76811
 C1498 C 0.57574 0.29217 0.75882
 H1499 H 0.61990 0.31627 0.72721
 H1500 H 0.61942 0.32082 0.76382
 H1501 H 0.59131 0.30586 0.78445
 H1502 H 0.56394 0.28559 0.76848
 H1503 H 0.57364 0.28317 0.67866
 H1504 H 0.55023 0.26299 0.69965
 C1505 C 0.58412 0.80333 0.21954
 C1506 C 0.58308 0.80147 0.19799
 C1507 C 0.56882 0.78764 0.18931
 C1508 C 0.55571 0.77581 0.20140
 C1509 C 0.55607 0.77778 0.22259
 C1510 C 0.56992 0.79203 0.23181
 C1511 C 0.59949 0.81536 0.22937
 C1512 C 0.59971 0.81759 0.25046
 C1513 C 0.58492 0.80769 0.26225
 C1514 C 0.57022 0.79492 0.25311
 H1515 H 0.61184 0.82271 0.22110
 H1516 H 0.61149 0.82700 0.25769
 H1517 H 0.58507 0.80961 0.27861
 H1518 H 0.55913 0.78732 0.26287
 H1519 H 0.56794 0.78582 0.17295
 H1520 H 0.54542 0.76474 0.19420
 C1521 C 1.06937 0.31187 0.21408
 C1522 C 1.08195 0.30223 0.19901
 C1523 C 1.08052 0.28070 0.19594
 C1524 C 1.06782 0.26856 0.20813
 C1525 C 1.05621 0.27752 0.22385
 C1526 C 1.05692 0.29934 0.22701
 C1527 C 1.06864 0.33370 0.21647
 C1528 C 1.05694 0.34284 0.23193
 C1529 C 1.04568 0.33051 0.24522
 C1530 C 1.04560 0.30897 0.24284
 H1531 H 1.07673 0.34393 0.20623
 H1532 H 1.05662 0.35959 0.23361
 H1533 H 1.03678 0.33769 0.25731
 H1534 H 1.03654 0.29999 0.25344
 H1535 H 1.08993 0.27302 0.18452
 H1536 H 1.06740 0.25191 0.20559
 C1537 C 1.06541 0.79018 0.69070
 C1538 C 1.08030 0.80382 0.69941
 C1539 C 1.08183 0.80520 0.72065
 C1540 C 1.06955 0.79304 0.73318
 C1541 C 1.05560 0.77871 0.72497
 C1542 C 1.05378 0.77679 0.70354
 C1543 C 1.06144 0.78978 0.66957
 C1544 C 1.04775 0.77540 0.66118
 C1545 C 1.03766 0.76125 0.67361
 C1546 C 1.04058 0.76188 0.69459
 H1547 H 1.06844 0.80083 0.65938
 H1548 H 1.04499 0.77521 0.64495
 H1549 H 1.02726 0.74993 0.66698
 H1550 H 1.03231 0.75070 0.70371
 H1551 H 1.09303 0.81539 0.72775
 H1552 H 1.07114 0.79463 0.74952
 C1553 C 0.42752 0.71939 0.68977
 C1554 C 0.41541 0.70365 0.69903
 C1555 C 0.41809 0.69955 0.71979
 C1556 C 0.43161 0.71130 0.73160
 C1557 C 0.44285 0.72762 0.72307
 C1558 C 0.44085 0.73188 0.70202
 C1559 C 0.42702 0.72282 0.66858
 C1560 C 0.43832 0.73891 0.65988
 C1561 C 0.45042 0.75180 0.67203
 C1562 C 0.45175 0.74837 0.69290
 H1563 H 0.41828 0.71291 0.65845
 H1564 H 0.43769 0.74140 0.64362
 H1565 H 0.45902 0.76438 0.66521
 H1566 H 0.46146 0.75866 0.70175
 H1567 H 0.40907 0.68759 0.72716
 H1568 H 0.43299 0.70795 0.74768
 C1569 C 0.43035 0.19392 0.21263
 C1570 C 0.41500 0.20420 0.20068
 C1571 C 0.41444 0.22602 0.20051
 C1572 C 0.42802 0.23759 0.21238
 C1573 C 0.44234 0.22784 0.22527
 C1574 C 0.44331 0.20579 0.22584
 C1575 C 0.43348 0.17219 0.21155
 C1576 C 0.44757 0.16224 0.22444
 C1577 C 0.45894 0.17369 0.23850
 C1578 C 0.45690 0.19526 0.23924
 H1579 H 0.42550 0.16271 0.20048
 H1580 H 0.44965 0.14554 0.22353
 H1581 H 0.46965 0.16585 0.24865
 H1582 H 0.46618 0.20358 0.25026
 H1583 H 0.40296 0.23431 0.19157
 H1584 H 0.42706 0.25442 0.21183
 C1585 C -0.08724 0.72666 0.19677
 C1586 C -0.08826 0.70477 0.19965
 C1587 C -0.07503 0.69530 0.21387
 C1588 C -0.06093 0.70696 0.22513
 C1589 C -0.05938 0.72844 0.22231
 C1590 C -0.07224 0.73842 0.20775
 C1591 C -0.10127 0.73738 0.18392
 C1592 C -0.09963 0.75876 0.18093
 C1593 C -0.08421 0.76998 0.19080
 C1594 C -0.07067 0.76000 0.20416
 H1595 H -0.11394 0.72961 0.17640
 H1596 H -0.11043 0.76669 0.17093
 H1597 H -0.08293 0.78656 0.18831
 H1598 H -0.05901 0.76934 0.21166
 H1599 H -0.07569 0.67867 0.21639
 H1600 H -0.05134 0.69921 0.23638
 C1601 C -0.06885 0.19289 0.71402
 C1602 C -0.08385 0.20234 0.70104
 C1603 C -0.08442 0.22410 0.69946
 C1604 C -0.07109 0.23647 0.71080
 C1605 C -0.05691 0.22761 0.72440
 C1606 C -0.05589 0.20567 0.72639
 C1607 C -0.06606 0.17110 0.71474
 C1608 C -0.05207 0.16210 0.72837
 C1609 C -0.04043 0.17455 0.74137
 C1610 C -0.04223 0.19613 0.74042
 H1611 H -0.07423 0.16081 0.70454
 H1612 H -0.05025 0.14536 0.72885
 H1613 H -0.02974 0.16746 0.75205
 H1614 H -0.03276 0.20524 0.75067
 H1615 H -0.09569 0.23175 0.68976
 H1616 H -0.07207 0.25322 0.70919
 C1617 C 0.30694 0.43409 0.29648
 C1618 C 0.29699 0.41844 0.30808
 C1619 C 0.27527 0.41743 0.30789
 C1620 C 0.26353 0.43058 0.29559
 C1621 C 0.27308 0.44486 0.28269
 C1622 C 0.29502 0.44658 0.28287
 C1623 C 0.32845 0.43774 0.29817
 C1624 C 0.33823 0.45200 0.28553
 C1625 C 0.32683 0.46291 0.27104
 C1626 C 0.30544 0.46025 0.26963
 H1627 H 0.33785 0.42997 0.30950
 H1628 H 0.35476 0.45451 0.28691
 H1629 H 0.33455 0.47370 0.26103
 H1630 H 0.29724 0.46908 0.25816
 H1631 H 0.26725 0.40575 0.31663
 H1632 H 0.24680 0.42906 0.29557
 C1633 C 0.27136 -0.08567 0.80613
 C1634 C 0.29336 -0.08771 0.80378
 C1635 C 0.30338 -0.07452 0.78991
 C1636 C 0.29250 -0.05939 0.77911
 C1637 C 0.27121 -0.05662 0.78188
 C1638 C 0.26057 -0.06931 0.79589
 C1639 C 0.25936 -0.10047 0.81672
 C1640 C 0.23808 -0.09763 0.81945
 C1641 C 0.22807 -0.08046 0.81111
 C1642 C 0.23909 -0.06655 0.79917
 H1643 H 0.26582 -0.11494 0.82212
 H1644 H 0.22927 -0.10900 0.82784
 H1645 H 0.21157 -0.07828 0.81333
 H1646 H 0.23062 -0.05375 0.79235
 H1647 H 0.31996 -0.07556 0.78754
 H1648 H 0.30070 -0.05003 0.76811
 C1649 C 0.76931 0.41057 0.80441
 C1650 C 0.79125 0.40923 0.80131
 C1651 C 0.80020 0.42216 0.78652
 C1652 C 0.78841 0.43672 0.77590
 C1653 C 0.76724 0.43917 0.77970
 C1654 C 0.75755 0.42632 0.79424
 C1655 C 0.75833 0.39572 0.81594
 C1656 C 0.73710 0.39788 0.81944
 C1657 C 0.72615 0.41447 0.81107
 C1658 C 0.73615 0.42846 0.79838
 H1659 H 0.76563 0.38174 0.82158
 H1660 H 0.72905 0.38647 0.82850
 H1661 H 0.70970 0.41615 0.81394
 H1662 H 0.72696 0.44081 0.79168
 H1663 H 0.81668 0.42161 0.78349
 H1664 H 0.79587 0.44616 0.76447
 C1665 C 0.77130 -0.08796 0.30345
 C1666 C 0.79315 -0.09014 0.30028
 C1667 C 0.80243 -0.07803 0.28502
 C1668 C 0.79103 -0.06344 0.27400
 C1669 C 0.77005 -0.05999 0.27809
 C1670 C 0.76014 -0.07184 0.29327
 C1671 C 0.75976 -0.10235 0.31502
 C1672 C 0.73873 -0.09913 0.31887
 C1673 C 0.72853 -0.08189 0.31084
 C1674 C 0.73901 -0.06848 0.29793
 H1675 H 0.76646 -0.11674 0.32039
 H1676 H 0.73026 -0.11018 0.32798
 H1677 H 0.71226 -0.07930 0.31407
 H1678 H 0.73042 -0.05557 0.29148
 H1679 H 0.81884 -0.07934 0.28179
 H1680 H 0.79862 -0.05484 0.26202
 C1681 C 0.31432 0.56536 0.70763
 C1682 C 0.30507 0.57972 0.69387
 C1683 C 0.28339 0.58042 0.69214
 C1684 C 0.27090 0.56818 0.70442
 C1685 C 0.27961 0.55495 0.71904
 C1686 C 0.30150 0.55350 0.72083
 C1687 C 0.33601 0.56229 0.70844
 C1688 C 0.34491 0.54905 0.72282
 C1689 C 0.33245 0.53854 0.73657
 C1690 C 0.31094 0.54067 0.73563
 H1691 H 0.34628 0.56970 0.69777
 H1692 H 0.36158 0.54698 0.72333
 H1693 H 0.33946 0.52848 0.74786
 H1694 H 0.30186 0.53211 0.74653
 H1695 H 0.27593 0.59117 0.68175
 H1696 H 0.25420 0.56949 0.70293
 C1697 C 0.31077 1.06881 0.21187
 C1698 C 0.30130 1.08260 0.19772
 C1699 C 0.27979 1.08183 0.19475
 C1700 C 0.26752 1.06863 0.20624
 C1701 C 0.27633 1.05578 0.22110
 C1702 C 0.29813 1.05571 0.22404
 C1703 C 0.33254 1.06751 0.21402
 C1704 C 0.34154 1.05448 0.22853
 C1705 C 0.32912 1.04247 0.24109
 C1706 C 0.30762 1.04303 0.23893
 H1707 H 0.34282 1.07620 0.20433
 H1708 H 0.35825 1.05371 0.23004
 H1709 H 0.33620 1.03251 0.25243
 H1710 H 0.29857 1.03338 0.24896
 H1711 H 0.27227 1.09217 0.18400
 H1712 H 0.25088 1.06878 0.20388
 C1713 C 0.76946 0.58896 0.20377
 C1714 C 0.79153 0.58905 0.20300
 C1715 C 0.80268 0.57369 0.21358
 C1716 C 0.79255 0.55855 0.22482
 C1717 C 0.77088 0.55773 0.22527
 C1718 C 0.75915 0.57254 0.21410
 C1719 C 0.75726 0.60520 0.19543
 C1720 C 0.73567 0.60417 0.19540
 C1721 C 0.72572 0.58722 0.20398
 C1722 C 0.73728 0.57159 0.21339
 H1723 H 0.76406 0.61915 0.18941
 H1724 H 0.72660 0.61665 0.18874
 H1725 H 0.70896 0.58640 0.20373
 H1726 H 0.72893 0.55880 0.22013
 H1727 H 0.81948 0.57353 0.21337
 H1728 H 0.80171 0.54755 0.23355
 C1729 C 0.81101 1.06842 0.71340
 C1730 C 0.80125 1.08203 0.69928
 C1731 C 0.77971 1.08109 0.69660
 C1732 C 0.76767 1.06801 0.70849
 C1733 C 0.77680 1.05545 0.72341
 C1734 C 0.79863 1.05541 0.72590
 C1735 C 0.83281 1.06727 0.71525
 C1736 C 0.84211 1.05443 0.72974
 C1737 C 0.82996 1.04247 0.74259
 C1738 C 0.80842 1.04289 0.74075
 H1739 H 0.84289 1.07594 0.70533
 H1740 H 0.85885 1.05377 0.73101
 H1741 H 0.83726 1.03266 0.75391
 H1742 H 0.79959 1.03326 0.75098
 H1743 H 0.77198 1.09127 0.68584
 H1744 H 0.75098 1.06815 0.70649
 C1745 C 0.69054 0.56371 0.29400
 C1746 C 0.69993 0.57722 0.30838
 C1747 C 0.72140 0.57607 0.31156
 C1748 C 0.73378 0.56309 0.29967
 C1749 C 0.72504 0.55087 0.28428
 C1750 C 0.70324 0.55082 0.28148
 C1751 C 0.66878 0.56274 0.29174
 C1752 C 0.65984 0.55020 0.27682
 C1753 C 0.67232 0.53836 0.26395
 C1754 C 0.69382 0.53861 0.26620
 H1755 H 0.65848 0.57139 0.30163
 H1756 H 0.64314 0.54970 0.27521
 H1757 H 0.66530 0.52880 0.25228
 H1758 H 0.70289 0.52910 0.25591
 H1759 H 0.72884 0.58623 0.32250
 H1760 H 0.75044 0.56327 0.30184
 C1761 C 0.72186 1.07497 0.81316
 C1762 C 0.70335 1.08444 0.80541
 C1763 C 0.69644 1.07862 0.78589
 C1764 C 0.70826 1.06567 0.77352
 C1765 C 0.72731 1.05785 0.78018
 C1766 C 0.73423 1.06219 0.80014
 C1767 C 0.72776 1.07665 0.83383
 C1768 C 0.74623 1.06781 0.84086
 C1769 C 0.75898 1.05667 0.82768
 C1770 C 0.75300 1.05366 0.80753
 H1771 H 0.71786 1.08399 0.84498
 H1772 H 0.75056 1.06942 0.85670
 H1773 H 0.77331 1.04987 0.83322
 H1774 H 0.76301 1.04433 0.79791
 H1775 H 0.68239 1.08511 0.77941
 H1776 H 0.70272 1.06210 0.75835
 C1777 C 0.19867 0.58823 0.77196
 C1778 C 0.20241 0.59106 0.79311
 C1779 C 0.21779 0.57903 0.80270
 C1780 C 0.22928 0.56431 0.79191
 C1781 C 0.22541 0.56077 0.77127
 C1782 C 0.20974 0.57243 0.76120
 C1783 C 0.18492 0.60122 0.76096
 C1784 C 0.18097 0.59769 0.74039
 C1785 C 0.19082 0.58141 0.73025
 C1786 C 0.20517 0.56894 0.74045
 H1787 H 0.17748 0.61456 0.76781
 H1788 H 0.17027 0.60770 0.73225
 H1789 H 0.18758 0.57866 0.71432
 H1790 H 0.21265 0.55660 0.73193
 H1791 H 0.22103 0.58111 0.81875
 H1792 H 0.24145 0.55573 0.79966
 C1793 C 0.19731 1.08624 0.27510
 C1794 C 0.19881 1.08529 0.29668
 C1795 C 0.21188 1.07026 0.30552
 C1796 C 0.22318 1.05632 0.29358
 C1797 C 0.22101 1.05618 0.27240
 C1798 C 0.20742 1.07076 0.26306
 C1799 C 0.18690 1.10266 0.26500
 C1800 C 0.18446 1.10251 0.24393
 C1801 C 0.19264 1.08628 0.23242
 C1802 C 0.20415 1.07060 0.24180
 H1803 H 0.18116 1.11616 0.27301
 H1804 H 0.17624 1.11511 0.23650
 H1805 H 0.19050 1.08610 0.21610
 H1806 H 0.21055 1.05844 0.23225
 H1807 H 0.21353 1.06937 0.32189
 H1808 H 0.23389 1.04566 0.30092
 C1809 C 0.68373 0.43568 0.70736
 C1810 C 0.69395 0.42073 0.69481
 C1811 C 0.71565 0.41904 0.69597
 C1812 C 0.72700 0.43093 0.70967
 C1813 C 0.71713 0.44448 0.72328
 C1814 C 0.69522 0.44656 0.72256
 C1815 C 0.66244 0.44042 0.70501
 C1816 C 0.65234 0.45372 0.71858
 C1817 C 0.66322 0.46275 0.73458
 C1818 C 0.68448 0.45930 0.73659
 H1819 H 0.65352 0.43439 0.69242
 H1820 H 0.63596 0.45701 0.71670
 H1821 H 0.65523 0.47282 0.74525
 H1822 H 0.69244 0.46687 0.74904
 H1823 H 0.72402 0.40792 0.68668
 H1824 H 0.74372 0.42911 0.71004
 C1825 C 0.68954 -0.08451 0.22162
 C1826 C 0.69377 -0.08590 0.20044
 C1827 C 0.70921 -0.07333 0.19205
 C1828 C 0.72052 -0.05965 0.20413
 C1829 C 0.71657 -0.05790 0.22495
 C1830 C 0.70062 -0.06991 0.23378
 C1831 C 0.67532 -0.09787 0.23129
 C1832 C 0.67119 -0.09596 0.25201
 C1833 C 0.68119 -0.08091 0.26359
 C1834 C 0.69581 -0.06801 0.25464
 H1835 H 0.66758 -0.11022 0.22322
 H1836 H 0.66019 -0.10627 0.25914
 H1837 H 0.67782 -0.07941 0.27964
 H1838 H 0.70330 -0.05655 0.26418
 H1839 H 0.71279 -0.07436 0.17599
 H1840 H 0.73287 -0.05075 0.19728
 C1841 C 0.22743 0.41337 0.19883
 C1842 C 0.20540 0.41250 0.19982
 C1843 C 0.19472 0.42660 0.21234
 C1844 C 0.20531 0.44125 0.22393
 C1845 C 0.22694 0.44248 0.22314
 C1846 C 0.23815 0.42895 0.21009
 C1847 C 0.23923 0.39862 0.18774
 C1848 C 0.26076 0.40014 0.18657
 C1849 C 0.27104 0.41611 0.19663
 C1850 C 0.25993 0.43034 0.20839
 H1851 H 0.23219 0.38549 0.18025
 H1852 H 0.26952 0.38880 0.17788
 H1853 H 0.28774 0.41728 0.19556
 H1854 H 0.26853 0.44240 0.21614
 H1855 H 0.17796 0.42609 0.21338
 H1856 H 0.19662 0.45135 0.23405
 C1857 C 0.22442 -0.08405 0.69756
 C1858 C 0.20240 -0.08419 0.69889
 C1859 C 0.19241 -0.07008 0.71196
 C1860 C 0.20370 -0.05613 0.72372
 C1861 C 0.22532 -0.05545 0.72243
 C1862 C 0.23583 -0.06901 0.70885
 C1863 C 0.23555 -0.09901 0.68609
 C1864 C 0.25709 -0.09812 0.68450
 C1865 C 0.26804 -0.08257 0.69449
 C1866 C 0.25760 -0.06820 0.70668
 H1867 H 0.22799 -0.11188 0.67866
 H1868 H 0.26534 -0.10961 0.67551
 H1869 H 0.28474 -0.08186 0.69308
 H1870 H 0.26672 -0.05649 0.71439
 H1871 H 0.17567 -0.07004 0.71329
 H1872 H 0.19553 -0.04606 0.73429
 C1873 C 0.31039 0.27216 0.41844
 C1874 C 0.30706 0.29406 0.41804
 C1875 C 0.29312 0.30310 0.43186
 C1876 C 0.28222 0.29098 0.44562
 C1877 C 0.28519 0.26944 0.44630
 C1878 C 0.29990 0.25994 0.43321
 C1879 C 0.32304 0.26186 0.40401
 C1880 C 0.32645 0.24045 0.40506
 C1881 C 0.31723 0.22880 0.42031
 C1882 C 0.30402 0.23838 0.43424
 H1883 H 0.33007 0.26996 0.39149
 H1884 H 0.33630 0.23284 0.39396
 H1885 H 0.32010 0.21222 0.42118
 H1886 H 0.29710 0.22881 0.44585
 H1887 H 0.29027 0.31973 0.43168
 H1888 H 0.27085 0.29840 0.45540
 C1889 C 0.29310 0.81170 -0.06129
 C1890 C 0.30673 0.80227 -0.07565
 C1891 C 0.30812 0.78049 -0.07639
 C1892 C 0.29560 0.76816 -0.06426
 C1893 C 0.28086 0.77708 -0.05126
 C1894 C 0.27932 0.79905 -0.04983
 C1895 C 0.29292 0.83339 -0.05787
 C1896 C 0.27835 0.84253 -0.04495
 C1897 C 0.26381 0.83029 -0.03508
 C1898 C 0.26425 0.80875 -0.03742
 H1899 H 0.30425 0.84345 -0.06477
 H1900 H 0.27829 0.85921 -0.04265
 H1901 H 0.25234 0.83750 -0.02531
 H1902 H 0.25279 0.79981 -0.02933
 H1903 H 0.31832 0.77278 -0.08711
 H1904 H 0.29686 0.75140 -0.06559
 C1905 C 0.79337 0.31575 -0.06249
 C1906 C 0.80614 0.30583 -0.07732
 C1907 C 0.80600 0.28404 -0.07866
 C1908 C 0.79307 0.27224 -0.06648
 C1909 C 0.77923 0.28172 -0.05293
 C1910 C 0.77893 0.30372 -0.05117
 C1911 C 0.79473 0.33726 -0.05839
 C1912 C 0.78086 0.34699 -0.04513
 C1913 C 0.76554 0.33549 -0.03554
 C1914 C 0.76454 0.31405 -0.03846
 H1915 H 0.80677 0.34671 -0.06492
 H1916 H 0.78196 0.36354 -0.04234
 H1917 H 0.75463 0.34317 -0.02550
 H1918 H 0.75256 0.30566 -0.03053
 H1919 H 0.81542 0.27592 -0.08976
 H1920 H 0.79335 0.25547 -0.06816
 C1921 C 0.78886 0.81480 0.43571
 C1922 C 0.80268 0.80519 0.42160
 C1923 C 0.80345 0.78339 0.42058
 C1924 C 0.79067 0.77125 0.43256
 C1925 C 0.77600 0.78035 0.44548
 C1926 C 0.77447 0.80233 0.44662
 C1927 C 0.78921 0.83639 0.43967
 C1928 C 0.77433 0.84570 0.45215
 C1929 C 0.75904 0.83370 0.46116
 C1930 C 0.75910 0.81218 0.45855
 H1931 H 0.80125 0.84622 0.43371
 H1932 H 0.77467 0.86231 0.45482
 H1933 H 0.74736 0.84104 0.47060
 H1934 H 0.74720 0.80333 0.46614
 H1935 H 0.81366 0.77545 0.41004
 H1936 H 0.79195 0.75446 0.43143
 C1937 C 0.69718 0.27121 0.58644
 C1938 C 0.69912 0.29325 0.58660
 C1939 C 0.71261 0.30267 0.57275
 C1940 C 0.72386 0.29085 0.55877
 C1941 C 0.72150 0.26925 0.55772
 C1942 C 0.70768 0.25931 0.57126
 C1943 C 0.68586 0.26049 0.60147
 C1944 C 0.68332 0.23900 0.60043
 C1945 C 0.69223 0.22766 0.58466
 C1946 C 0.70442 0.23762 0.57026
 H1947 H 0.67937 0.26834 0.61452
 H1948 H 0.67443 0.23110 0.61197
 H1949 H 0.69003 0.21100 0.58380
 H1950 H 0.71130 0.22817 0.55839
 H1951 H 0.71454 0.31940 0.57279
 H1952 H 0.73468 0.29858 0.54880
 C1953 C 0.71229 0.81027 1.06676
 C1954 C 0.69817 0.80022 1.08001
 C1955 C 0.69599 0.77857 1.07880
 C1956 C 0.70826 0.76675 1.06571
 C1957 C 0.72315 0.77615 1.05341
 C1958 C 0.72528 0.79808 1.05379
 C1959 C 0.71366 0.83216 1.06588
 C1960 C 0.72825 0.84173 1.05347
 C1961 C 0.74164 0.82976 1.04163
 C1962 C 0.74022 0.80815 1.04171
 H1963 H 0.70328 0.84210 1.07442
 H1964 H 0.72917 0.85852 1.05304
 H1965 H 0.75305 0.83728 1.03216
 H1966 H 0.75084 0.79946 1.03217
 H1967 H 0.68530 0.77057 1.08870
 H1968 H 0.70656 0.74999 1.06560
 C1969 C 0.20700 0.31302 1.06355
 C1970 C 0.19239 0.30412 1.07709
 C1971 C 0.19031 0.28241 1.07756
 C1972 C 0.20294 0.26960 1.06579
 C1973 C 0.21843 0.27794 1.05347
 C1974 C 0.22084 0.29983 1.05251
 C1975 C 0.20807 0.33472 1.06048
 C1976 C 0.22347 0.34326 1.04829
 C1977 C 0.23798 0.33042 1.03882
 C1978 C 0.23673 0.30890 1.04084
 H1979 H 0.19682 0.34526 1.06708
 H1980 H 0.22418 0.35994 1.04623
 H1981 H 0.25008 0.33715 1.02960
 H1982 H 0.24820 0.29947 1.03307
 H1983 H 0.17936 0.27513 1.08770
 H1984 H 0.20097 0.25290 1.06670
 C1985 C 0.20721 0.81627 0.56484
 C1986 C 0.19440 0.80643 0.57953
 C1987 C 0.19492 0.78464 0.58090
 C1988 C 0.20809 0.77278 0.56880
 C1989 C 0.22192 0.78220 0.55539
 C1990 C 0.22202 0.80419 0.55376
 C1991 C 0.20547 0.83771 0.56052
 C1992 C 0.21941 0.84736 0.54747
 C1993 C 0.23515 0.83585 0.53826
 C1994 C 0.23646 0.81444 0.54126
 H1995 H 0.19304 0.84712 0.56666
 H1996 H 0.21801 0.86386 0.54451
 H1997 H 0.24613 0.84347 0.52839
 H1998 H 0.24870 0.80599 0.53355
 H1999 H 0.18550 0.77650 0.59184
 H2000 H 0.20786 0.75600 0.57031
 C2001 C 0.27350 0.69766 0.58312
 C2002 C 0.29481 0.70145 0.58721
 C2003 C 0.30503 0.71717 0.57648
 C2004 C 0.29460 0.72926 0.56215
 C2005 C 0.27367 0.72582 0.55789
 C2006 C 0.26305 0.70962 0.56796
 C2007 C 0.26197 0.68299 0.59430
 C2008 C 0.24116 0.67934 0.58980
 C2009 C 0.23130 0.69034 0.57435
 C2010 C 0.24204 0.70544 0.56356
 H2011 H 0.26861 0.67449 0.60685
 H2012 H 0.23260 0.66796 0.59844
 H2013 H 0.21517 0.68737 0.57088
 H2014 H 0.23373 0.71380 0.55180
 H2015 H 0.32124 0.72037 0.57947
 H2016 H 0.30279 0.74174 0.55467
 C2017 C 0.27184 0.19591 1.08563
 C2018 C 0.29364 0.19910 1.08672
 C2019 C 0.30289 0.21318 1.07333
 C2020 C 0.29111 0.22407 1.05908
 C2021 C 0.26972 0.22098 1.05750
 C2022 C 0.25997 0.20646 1.07046
 C2023 C 0.26130 0.18328 1.09975
 C2024 C 0.24001 0.17996 1.09805
 C2025 C 0.22871 0.18932 1.08251
 C2026 C 0.23849 0.20254 1.06887
 H2027 H 0.26911 0.17621 1.11251
 H2028 H 0.23223 0.17012 1.10891
 H2029 H 0.21222 0.18657 1.08119
 H2030 H 0.22909 0.20967 1.05712
 H2031 H 0.31943 0.21598 1.07407
 H2032 H 0.29869 0.23535 1.04946
 C2033 C 0.80718 0.72409 1.08246
 C2034 C 0.80445 0.70215 1.08320
 C2035 C 0.79032 0.69276 1.06986
 C2036 C 0.77876 0.70453 1.05616
 C2037 C 0.78121 0.72609 1.05504
 C2038 C 0.79590 0.73600 1.06781
 C2039 C 0.82001 0.73474 1.09645
 C2040 C 0.82280 0.75618 1.09509
 C2041 C 0.81269 0.76754 1.08003
 C2042 C 0.79927 0.75764 1.06656
 H2043 H 0.82769 0.72690 1.10884
 H2044 H 0.83281 0.76403 1.10583
 H2045 H 0.81503 0.78415 1.07898
 H2046 H 0.79155 0.76707 1.05519
 H2047 H 0.78786 0.67611 1.07035
 H2048 H 0.76740 0.69682 1.04665
 C2049 C 0.81297 0.20827 0.56661
 C2050 C 0.80413 0.19354 0.58006
 C2051 C 0.78267 0.19022 0.57952
 C2052 C 0.76986 0.20203 0.56696
 C2053 C 0.77804 0.21761 0.55458
 C2054 C 0.79976 0.22084 0.55424
 C2055 C 0.83466 0.21069 0.56502
 C2056 C 0.84305 0.22591 0.55247
 C2057 C 0.83008 0.23891 0.54123
 C2058 C 0.80864 0.23647 0.54206
 H2059 H 0.84533 0.20067 0.57313
 H2060 H 0.85970 0.22763 0.55149
 H2061 H 0.83668 0.25082 0.53167
 H2062 H 0.79915 0.24686 0.53301
 H2063 H 0.77558 0.17908 0.58962
 H2064 H 0.75327 0.19944 0.56734
 C2065 C 0.72575 0.69616 0.41642
 C2066 C 0.70376 0.69822 0.41612
 C2067 C 0.69411 0.71205 0.42968
 C2068 C 0.70568 0.72378 0.44337
 C2069 C 0.72728 0.72185 0.44415
 C2070 C 0.73748 0.70763 0.43098
 C2071 C 0.73653 0.68376 0.40209
 C2072 C 0.75804 0.68159 0.40301
 C2073 C 0.76932 0.69190 0.41795
 C2074 C 0.75923 0.70491 0.43176
 H2075 H 0.72870 0.67600 0.38974
 H2076 H 0.76601 0.67190 0.39200
 H2077 H 0.78600 0.69005 0.41865
 H2078 H 0.76860 0.71282 0.44301
 H2079 H 0.67741 0.71401 0.42948
 H2080 H 0.69777 0.73483 0.45315
 C2081 C 0.69517 0.23004 -0.08353
 C2082 C 0.69946 0.20858 -0.08690
 C2083 C 0.71525 0.19881 -0.07567
 C2084 C 0.72685 0.20979 -0.06145
 C2085 C 0.72284 0.23084 -0.05777
 C2086 C 0.70666 0.24107 -0.06847
 C2087 C 0.68042 0.24110 -0.09527
 C2088 C 0.67623 0.26206 -0.09141
 C2089 C 0.68678 0.27250 -0.07605
 C2090 C 0.70194 0.26221 -0.06471
 H2091 H 0.67224 0.23397 -0.10777
 H2092 H 0.66478 0.27026 -0.10046
 H2093 H 0.68340 0.28874 -0.07307
 H2094 H 0.70992 0.27095 -0.05302
 H2095 H 0.71880 0.18249 -0.07810
 H2096 H 0.73932 0.20189 -0.05347
 C2097 C 0.19627 0.72637 -0.08282
 C2098 C 0.20038 0.70498 -0.08676
 C2099 C 0.21635 0.69488 -0.07607
 C2100 C 0.22820 0.70544 -0.06173
 C2101 C 0.22434 0.72642 -0.05745
 C2102 C 0.20807 0.73699 -0.06769
 C2103 C 0.18137 0.73778 -0.09406
 C2104 C 0.17735 0.75865 -0.08967
 C2105 C 0.18822 0.76869 -0.07425
 C2106 C 0.20352 0.75806 -0.06339
 H2107 H 0.17294 0.73098 -0.10658
 H2108 H 0.16579 0.76711 -0.09835
 H2109 H 0.18496 0.78486 -0.07086
 H2110 H 0.21175 0.76649 -0.05165
 H2111 H 0.21981 0.67863 -0.07900
 H2112 H 0.24073 0.69728 -0.05410
 C2113 C 0.22826 0.19199 0.41706
 C2114 C 0.20654 0.19569 0.41528
 C2115 C 0.19711 0.21031 0.42826
 C2116 C 0.20865 0.22124 0.44266
 C2117 C 0.22987 0.21733 0.44514
 C2118 C 0.23966 0.20202 0.43284
 C2119 C 0.23928 0.17942 0.40304
 C2120 C 0.26035 0.17521 0.40570
 C2121 C 0.27099 0.18359 0.42217
 C2122 C 0.26082 0.19694 0.43560
 H2123 H 0.23208 0.17324 0.38952
 H2124 H 0.26848 0.16541 0.39490
 H2125 H 0.28729 0.18007 0.42433
 H2126 H 0.26965 0.20328 0.44814
 H2127 H 0.18065 0.21356 0.42706
 H2128 H 0.20105 0.23315 0.45168
 C2129 C 0.26998 0.41270 0.69696
 C2130 C 0.29195 0.41138 0.69861
 C2131 C 0.30241 0.42523 0.71149
 C2132 C 0.29165 0.44011 0.72273
 C2133 C 0.27008 0.44190 0.72119
 C2134 C 0.25908 0.42850 0.70792
 C2135 C 0.25840 0.39822 0.68547
 C2136 C 0.23691 0.40013 0.68371
 C2137 C 0.22647 0.41625 0.69353
 C2138 C 0.23737 0.43028 0.70562
 H2139 H 0.26559 0.38504 0.67808
 H2140 H 0.22830 0.38898 0.67474
 H2141 H 0.20981 0.41773 0.69200
 H2142 H 0.22864 0.44249 0.71315
 H2143 H 0.31912 0.42437 0.71305
 H2144 H 0.30017 0.45008 0.73305
 C2145 C 0.31216 0.93364 0.20721
 C2146 C 0.30303 0.91915 0.19352
 C2147 C 0.28134 0.91772 0.19261
 C2148 C 0.26878 0.92964 0.20535
 C2149 C 0.27745 0.94314 0.21970
 C2150 C 0.29933 0.94492 0.22106
 C2151 C 0.33369 0.93755 0.20724
 C2152 C 0.34252 0.95085 0.22159
 C2153 C 0.33013 0.96062 0.23607
 C2154 C 0.30873 0.95776 0.23586
 H2155 H 0.34387 0.93083 0.19594
 H2156 H 0.35907 0.95356 0.22149
 H2157 H 0.33710 0.97073 0.24733
 H2158 H 0.29966 0.96579 0.24728
 H2159 H 0.27397 0.90683 0.18234
 H2160 H 0.25210 0.92811 0.20420
 C2161 C 0.81732 0.43688 0.20698
 C2162 C 0.80793 0.42246 0.19341
 C2163 C 0.78629 0.42039 0.19349
 C2164 C 0.77407 0.43148 0.20721
 C2165 C 0.78306 0.44484 0.22151
 C2166 C 0.80489 0.44748 0.22166
 C2167 C 0.83874 0.44127 0.20614
 C2168 C 0.84789 0.45455 0.22030
 C2169 C 0.83596 0.46380 0.23545
 C2170 C 0.81466 0.46037 0.23619
 H2171 H 0.84854 0.43486 0.19436
 H2172 H 0.86435 0.45765 0.21953
 H2173 H 0.84320 0.47390 0.24655
 H2174 H 0.80598 0.46796 0.24817
 H2175 H 0.77874 0.40951 0.18333
 H2176 H 0.75742 0.42930 0.20697
 C2177 C 0.77188 0.91426 0.69598
 C2178 C 0.79390 0.91501 0.69749
 C2179 C 0.80302 0.92902 0.71115
 C2180 C 0.79094 0.94227 0.72302
 C2181 C 0.76932 0.94242 0.72125
 C2182 C 0.75960 0.92868 0.70735
 C2183 C 0.76164 0.89908 0.68413
 C2184 C 0.74010 0.89925 0.68215
 C2185 C 0.72828 0.91428 0.69212
 C2186 C 0.73786 0.92882 0.70470
 H2187 H 0.76993 0.88659 0.67670
 H2188 H 0.73253 0.88760 0.67287
 H2189 H 0.71159 0.91445 0.69036
 H2190 H 0.72808 0.94012 0.71233
 H2191 H 0.81973 0.92971 0.71271
 H2192 H 0.79854 0.95249 0.73380
 C2193 C 0.71494 0.56789 0.69095
 C2194 C 0.70128 0.58282 0.69987
 C2195 C 0.70030 0.58425 0.72114
 C2196 C 0.71257 0.57160 0.73347
 C2197 C 0.72681 0.55756 0.72502
 C2198 C 0.72878 0.55631 0.70359
 C2199 C 0.71483 0.56360 0.66987
 C2200 C 0.72943 0.55011 0.66129
 C2201 C 0.74421 0.54040 0.67350
 C2202 C 0.74389 0.54334 0.69448
 H2203 H 0.70316 0.57003 0.65987
 H2204 H 0.72925 0.54717 0.64508
 H2205 H 0.75565 0.53014 0.66673
 H2206 H 0.75534 0.53515 0.70353
 H2207 H 0.69013 0.59545 0.72843
 H2208 H 0.71098 0.57283 0.74982
 C2209 C 0.71249 0.06599 0.18678
 C2210 C 0.69947 0.08128 0.19595
 C2211 C 0.69861 0.08251 0.21723
 C2212 C 0.71067 0.06954 0.22936
 C2213 C 0.72445 0.05518 0.22071
 C2214 C 0.72584 0.05362 0.19924
 C2215 C 0.71228 0.06227 0.16562
 C2216 C 0.72610 0.04813 0.15681
 C2217 C 0.74025 0.03731 0.16885
 C2218 C 0.74015 0.03994 0.18989
 H2219 H 0.70117 0.06978 0.15571
 H2220 H 0.72583 0.04558 0.14054
 H2221 H 0.75111 0.02656 0.16189
 H2222 H 0.75124 0.03105 0.19873
 H2223 H 0.68888 0.09398 0.22469
 H2224 H 0.70948 0.07094 0.24574
 C2225 C 0.22735 0.58365 0.19275
 C2226 C 0.20544 0.58508 0.19491
 C2227 C 0.19541 0.57187 0.20861
 C2228 C 0.20657 0.55779 0.22042
 C2229 C 0.22813 0.55623 0.21875
 C2230 C 0.23865 0.56869 0.20440
 C2231 C 0.23852 0.59727 0.18007
 C2232 C 0.25996 0.59531 0.17794
 C2233 C 0.27077 0.57999 0.18854
 C2234 C 0.26030 0.56685 0.20175
 H2235 H 0.23105 0.60982 0.17197
 H2236 H 0.26824 0.60578 0.16804
 H2237 H 0.28739 0.57847 0.18672
 H2238 H 0.26929 0.55523 0.20984
 H2239 H 0.17874 0.57277 0.21052
 H2240 H 0.19838 0.54849 0.23148
 C2241 C 0.21836 0.07277 0.68987
 C2242 C 0.20220 0.08503 0.69856
 C2243 C 0.19774 0.08287 0.71929
 C2244 C 0.20939 0.06963 0.73156
 C2245 C 0.22600 0.05820 0.72358
 C2246 C 0.23077 0.05978 0.70263
 C2247 C 0.22227 0.07276 0.66875
 C2248 C 0.23877 0.06135 0.66065
 C2249 C 0.25156 0.04959 0.67331
 C2250 C 0.24762 0.04871 0.69411
 H2251 H 0.21244 0.08116 0.65824
 H2252 H 0.24163 0.06161 0.64444
 H2253 H 0.26443 0.04090 0.66693
 H2254 H 0.25778 0.03920 0.70339
 H2255 H 0.18551 0.09202 0.72628
 H2256 H 0.20566 0.06858 0.74758
 C2257 C 0.30993 0.56676 0.29114
 C2258 C 0.30035 0.58294 0.30260
 C2259 C 0.27871 0.58525 0.30182
 C2260 C 0.26665 0.57247 0.28956
 C2261 C 0.27578 0.55710 0.27741
 C2262 C 0.29763 0.55433 0.27782
 C2263 C 0.33135 0.56234 0.29282
 C2264 C 0.34065 0.54715 0.28065
 C2265 C 0.32886 0.53600 0.26669
 C2266 C 0.30756 0.53950 0.26523
 H2267 H 0.34106 0.57019 0.30378
 H2268 H 0.35711 0.54404 0.28203
 H2269 H 0.33621 0.52440 0.25711
 H2270 H 0.29900 0.53042 0.25422
 H2271 H 0.27101 0.59749 0.31033
 H2272 H 0.24999 0.57483 0.28929
 C2273 C 0.31102 0.07051 0.78877
 C2274 C 0.30135 0.08386 0.80319
 C2275 C 0.27994 0.08241 0.80639
 C2276 C 0.26787 0.06906 0.79468
 C2277 C 0.27685 0.05675 0.77945
 C2278 C 0.29859 0.05724 0.77644
 C2279 C 0.33278 0.06988 0.78642
 C2280 C 0.34195 0.05731 0.77161
 C2281 C 0.32971 0.04510 0.75893
 C2282 C 0.30823 0.04500 0.76127
 H2283 H 0.34293 0.07877 0.79619
 H2284 H 0.35865 0.05705 0.76995
 H2285 H 0.33691 0.03550 0.74735
 H2286 H 0.29933 0.03519 0.75116
 H2287 H 0.27230 0.09240 0.81738
 H2288 H 0.25126 0.06879 0.79708
 C2289 C 0.81325 0.56171 0.79216
 C2290 C 0.80438 0.57637 0.80590
 C2291 C 0.78272 0.57772 0.80746
 C2292 C 0.76992 0.56574 0.79509
 C2293 C 0.77827 0.55213 0.78058
 C2294 C 0.80012 0.55012 0.77888
 C2295 C 0.83486 0.55805 0.79146
 C2296 C 0.84341 0.54453 0.77710
 C2297 C 0.83067 0.53427 0.76329
 C2298 C 0.80922 0.53694 0.76414
 H2299 H 0.84533 0.56522 0.80220
 H2300 H 0.86002 0.54203 0.77667
 H2301 H 0.83742 0.52397 0.75203
 H2302 H 0.79990 0.52854 0.75321
 H2303 H 0.77556 0.58873 0.81781
 H2304 H 0.75325 0.56749 0.79648
 C2305 C 0.81098 0.06729 0.28529
 C2306 C 0.80098 0.08073 0.29946
 C2307 C 0.77947 0.07930 0.30205
 C2308 C 0.76771 0.06590 0.29011
 C2309 C 0.77703 0.05351 0.27513
 C2310 C 0.79883 0.05404 0.27262
 C2311 C 0.83280 0.06646 0.28357
 C2312 C 0.84230 0.05388 0.26896
 C2313 C 0.83034 0.04181 0.25589
 C2314 C 0.80881 0.04181 0.25766
 H2315 H 0.84274 0.07514 0.29370
 H2316 H 0.85904 0.05350 0.26777
 H2317 H 0.83781 0.03221 0.24448
 H2318 H 0.80010 0.03205 0.24733
 H2319 H 0.77151 0.08932 0.31280
 H2320 H 0.75104 0.06564 0.29213
 C2321 C 0.73347 0.40915 0.30395
 C2322 C 0.71142 0.41002 0.30301
 C2323 C 0.70188 0.42462 0.29017
 C2324 C 0.71355 0.43827 0.27858
 C2325 C 0.73521 0.43823 0.27977
 C2326 C 0.74538 0.42387 0.29279
 C2327 C 0.74411 0.39358 0.31504
 C2328 C 0.76569 0.39352 0.31641
 C2329 C 0.77716 0.40873 0.30662
 C2330 C 0.76718 0.42373 0.29482
 H2331 H 0.73607 0.38099 0.32232
 H2332 H 0.77357 0.38156 0.32511
 H2333 H 0.79390 0.40871 0.30791
 H2334 H 0.77669 0.43518 0.28732
 H2335 H 0.68513 0.42550 0.28905
 H2336 H 0.70558 0.44899 0.26851
 C2337 C 0.68660 0.93686 0.79430
 C2338 C 0.69635 0.92107 0.80614
 C2339 C 0.71794 0.91845 0.80472
 C2340 C 0.72966 0.93043 0.79152
 C2341 C 0.72022 0.94506 0.77874
 C2342 C 0.69841 0.94796 0.77962
 C2343 C 0.66550 0.94227 0.79689
 C2344 C 0.65584 0.95658 0.78404
 C2345 C 0.66697 0.96593 0.76850
 C2346 C 0.68807 0.96175 0.76628
 H2347 H 0.65640 0.93598 0.80915
 H2348 H 0.63961 0.96040 0.78613
 H2349 H 0.65931 0.97678 0.75837
 H2350 H 0.69620 0.96954 0.75416
 H2351 H 0.72589 0.90662 0.81350
 H2352 H 0.74629 0.92797 0.79098
 C2353 C 0.22595 0.41884 0.80696
 C2354 C 0.20387 0.41857 0.80611
 C2355 C 0.19353 0.43277 0.79338
 C2356 C 0.20444 0.44657 0.78122
 C2357 C 0.22610 0.44714 0.78181
 C2358 C 0.23698 0.43385 0.79536
 C2359 C 0.23751 0.40397 0.81811
 C2360 C 0.25908 0.40503 0.81925
 C2361 C 0.26965 0.42059 0.80904
 C2362 C 0.25880 0.43479 0.79706
 H2363 H 0.23032 0.39103 0.82559
 H2364 H 0.26765 0.39362 0.82803
 H2365 H 0.28638 0.42141 0.81010
 H2366 H 0.26761 0.44648 0.78910
 H2367 H 0.17676 0.43279 0.79239
 H2368 H 0.19595 0.45641 0.77071
 C2369 C 0.22708 0.91401 0.30169
 C2370 C 0.20508 0.91303 0.30012
 C2371 C 0.19479 0.92636 0.28650
 C2372 C 0.20570 0.94029 0.27447
 C2373 C 0.22726 0.94190 0.27611
 C2374 C 0.23806 0.92919 0.29024
 C2375 C 0.23865 0.89975 0.31355
 C2376 C 0.26010 0.90159 0.31555
 C2377 C 0.27054 0.91737 0.30554
 C2378 C 0.25973 0.93099 0.29288
 H2379 H 0.23155 0.88669 0.32096
 H2380 H 0.26867 0.89064 0.32486
 H2381 H 0.28717 0.91883 0.30729
 H2382 H 0.26848 0.94289 0.28518
 H2383 H 0.17808 0.92583 0.28492
 H2384 H 0.19728 0.94969 0.26354
 C2385 C 0.43255 0.31531 0.71426
 C2386 C 0.42138 0.30590 0.69805
 C2387 C 0.42463 0.28477 0.69377
 C2388 C 0.43755 0.27265 0.70597
 C2389 C 0.44769 0.28127 0.72280
 C2390 C 0.44547 0.30280 0.72698
 C2391 C 0.43131 0.33691 0.71807
 C2392 C 0.44174 0.34577 0.73452
 C2393 C 0.45369 0.33339 0.74738
 C2394 C 0.45561 0.31210 0.74371
 H2395 H 0.42259 0.34721 0.70824
 H2396 H 0.44055 0.36233 0.73729
 H2397 H 0.46167 0.34034 0.76018
 H2398 H 0.46517 0.30308 0.75400
 H2399 H 0.41628 0.27728 0.68148
 H2400 H 0.43911 0.25619 0.70269
 C2401 C 0.41441 0.80374 0.22667
 C2402 C 0.41256 0.79949 0.20550
 C2403 C 0.42566 0.78461 0.19656
 C2404 C 0.44039 0.77394 0.20808
 C2405 C 0.44269 0.77802 0.22886
 C2406 C 0.43004 0.79335 0.23824
 C2407 C 0.40061 0.81736 0.23687
 C2408 C 0.40306 0.82170 0.25752
 C2409 C 0.41906 0.81241 0.26850
 C2410 C 0.43239 0.79827 0.25906
 H2411 H 0.38752 0.82446 0.22928
 H2412 H 0.39244 0.83228 0.26505
 H2413 H 0.42096 0.81594 0.28450
 H2414 H 0.44452 0.79124 0.26818
 H2415 H 0.42436 0.78108 0.18049
 H2416 H 0.44979 0.76204 0.20082
 C2417 C 0.91620 0.30433 0.22347
 C2418 C 0.91394 0.30005 0.20235
 C2419 C 0.92601 0.28427 0.19344
 C2420 C 0.94019 0.27282 0.20493
 C2421 C 0.94300 0.27705 0.22561
 C2422 C 0.93134 0.29317 0.23497
 C2423 C 0.90323 0.31872 0.23372
 C2424 C 0.90610 0.32305 0.25432
 C2425 C 0.92169 0.31300 0.26522
 C2426 C 0.93415 0.29811 0.25574
 H2427 H 0.89043 0.32643 0.22623
 H2428 H 0.89611 0.33421 0.26188
 H2429 H 0.92393 0.31651 0.28117
 H2430 H 0.94595 0.29048 0.26483
 H2431 H 0.92433 0.28067 0.17742
 H2432 H 0.94882 0.26032 0.19772
 C2433 C 0.93075 0.78921 0.68968
 C2434 C 0.91679 0.80382 0.69853
 C2435 C 0.91710 0.80687 0.71964
 C2436 C 0.93009 0.79511 0.73207
 C2437 C 0.94314 0.77983 0.72383
 C2438 C 0.94355 0.77668 0.70249
 C2439 C 0.93254 0.78694 0.66839
 C2440 C 0.94567 0.77190 0.66000
 C2441 C 0.95731 0.75892 0.67257
 C2442 C 0.95631 0.76122 0.69361
 H2443 H 0.92417 0.79696 0.65802
 H2444 H 0.94680 0.77030 0.64366
 H2445 H 0.96733 0.74716 0.66597
 H2446 H 0.96570 0.75087 0.70280
 H2447 H 0.90662 0.81793 0.72673
 H2448 H 0.92961 0.79759 0.74836
 C2449 C 0.58846 0.30415 0.27257
 C2450 C 0.59018 0.30134 0.29397
 C2451 C 0.57669 0.28754 0.30370
 C2452 C 0.56182 0.27654 0.29280
 C2453 C 0.55949 0.27942 0.27186
 C2454 C 0.57243 0.29375 0.26166
 C2455 C 0.60277 0.31620 0.26149
 C2456 C 0.60030 0.31934 0.24066
 C2457 C 0.58381 0.31032 0.23033
 C2458 C 0.57005 0.29752 0.24063
 H2459 H 0.61633 0.32286 0.26849
 H2460 H 0.61132 0.32877 0.23247
 H2461 H 0.58188 0.31294 0.21419
 H2462 H 0.55757 0.29059 0.23197
 H2463 H 0.57786 0.28502 0.31995
 H2464 H 0.55226 0.26538 0.30069
 C2465 C 0.58706 0.80581 0.77526
 C2466 C 0.58657 0.80366 0.79679
 C2467 C 0.57201 0.79025 0.80550
 C2468 C 0.55810 0.77916 0.79347
 C2469 C 0.55766 0.78177 0.77237
 C2470 C 0.57169 0.79577 0.76319
 C2471 C 0.60286 0.81692 0.76524
 C2472 C 0.60223 0.81993 0.74426
 C2473 C 0.58605 0.81176 0.73279
 C2474 C 0.57095 0.79971 0.74210
 H2475 H 0.61620 0.82284 0.77324
 H2476 H 0.61434 0.82867 0.73687
 H2477 H 0.58542 0.81445 0.71657
 H2478 H 0.55865 0.79358 0.73270
 H2479 H 0.57142 0.78820 0.82182
 H2480 H 0.54768 0.76830 0.80067
 C2481 C 0.07246 0.28785 0.80645
 C2482 C 0.08611 0.30246 0.79750
 C2483 C 0.08516 0.30588 0.77649
 C2484 C 0.07176 0.29451 0.76421
 C2485 C 0.05896 0.27927 0.77251
 C2486 C 0.05929 0.27569 0.79377
 C2487 C 0.07131 0.28529 0.82774
 C2488 C 0.05845 0.27029 0.83620
 C2489 C 0.04648 0.25761 0.82372
 C2490 C 0.04684 0.26022 0.80270
 H2491 H 0.07996 0.29507 0.83806
 H2492 H 0.05779 0.26848 0.85254
 H2493 H 0.03669 0.24585 0.83038
 H2494 H 0.03721 0.25010 0.79357
 H2495 H 0.09539 0.31698 0.76937
 H2496 H 0.07163 0.29735 0.74798
 C2497 C 0.07085 0.78500 0.30853
 C2498 C 0.08453 0.79916 0.29895
 C2499 C 0.08328 0.80190 0.27784
 C2500 C 0.06962 0.79025 0.26612
 C2501 C 0.05683 0.77538 0.27505
 C2502 C 0.05741 0.77252 0.29641
 C2503 C 0.06991 0.78317 0.32990
 C2504 C 0.05706 0.76854 0.33899
 C2505 C 0.04484 0.75555 0.32706
 C2506 C 0.04495 0.75747 0.30597
 H2507 H 0.07870 0.79325 0.33982
 H2508 H 0.05659 0.76728 0.35539
 H2509 H 0.03504 0.74411 0.33420
 H2510 H 0.03510 0.74716 0.29728
 H2511 H 0.09350 0.81264 0.27021
 H2512 H 0.06931 0.79255 0.24981
 C2513 C 0.58537 0.72664 0.69497
 C2514 C 0.58619 0.70461 0.69711
 C2515 C 0.57229 0.69497 0.71046
 C2516 C 0.55793 0.70659 0.72162
 C2517 C 0.55631 0.72814 0.71909
 C2518 C 0.56939 0.73814 0.70492
 C2519 C 0.60051 0.73781 0.68405
 C2520 C 0.59850 0.75918 0.68098
 C2521 C 0.58161 0.76995 0.68896
 C2522 C 0.56723 0.75961 0.70094
 H2523 H 0.61443 0.73048 0.67837
 H2524 H 0.61011 0.76742 0.67237
 H2525 H 0.57990 0.78647 0.68624
 H2526 H 0.55437 0.76850 0.70704
 H2527 H 0.57274 0.67827 0.71253
 H2528 H 0.54825 0.69877 0.73261
 C2529 C 0.56570 0.18889 0.20907
 C2530 C 0.58000 0.19820 0.19547
 C2531 C 0.58061 0.21996 0.19407
 C2532 C 0.56823 0.23244 0.20638
 C2533 C 0.55506 0.22369 0.22081
 C2534 C 0.55378 0.20174 0.22242
 C2535 C 0.56268 0.16717 0.20956
 C2536 C 0.54948 0.15825 0.22380
 C2537 C 0.53894 0.17073 0.23772
 C2538 C 0.54101 0.19227 0.23709
 H2539 H 0.57008 0.15689 0.19872
 H2540 H 0.54744 0.14155 0.22406
 H2541 H 0.52889 0.16370 0.24888
 H2542 H 0.53244 0.20139 0.24810
 H2543 H 0.59133 0.22753 0.18389
 H2544 H 0.56937 0.24919 0.20502
 C2545 C 0.06617 0.68731 0.21047
 C2546 C 0.08018 0.69698 0.19682
 C2547 C 0.07981 0.71872 0.19504
 C2548 C 0.06680 0.73087 0.20704
 C2549 C 0.05388 0.72183 0.22152
 C2550 C 0.05355 0.69987 0.22348
 C2551 C 0.06413 0.66548 0.21134
 C2552 C 0.05121 0.65625 0.22564
 C2553 C 0.03997 0.66851 0.23922
 C2554 C 0.04105 0.69013 0.23819
 H2555 H 0.07208 0.65534 0.20077
 H2556 H 0.04992 0.63949 0.22620
 H2557 H 0.03014 0.66125 0.25042
 H2558 H 0.03192 0.69908 0.24890
 H2559 H 0.09027 0.72658 0.18481
 H2560 H 0.06727 0.74764 0.20544
 C2561 C 0.06584 0.18951 0.70950
 C2562 C 0.07980 0.19785 0.69499
 C2563 C 0.08065 0.21949 0.69245
 C2564 C 0.06870 0.23282 0.70437
 C2565 C 0.05563 0.22506 0.71943
 C2566 C 0.05430 0.20325 0.72234
 C2567 C 0.06275 0.16788 0.71138
 C2568 C 0.04985 0.15995 0.72643
 C2569 C 0.03965 0.17334 0.73977
 C2570 C 0.04178 0.19478 0.73779
 H2571 H 0.06986 0.15689 0.70105
 H2572 H 0.04778 0.14332 0.72776
 H2573 H 0.02983 0.16708 0.75155
 H2574 H 0.03346 0.20462 0.74840
 H2575 H 0.09116 0.22627 0.68154
 H2576 H 0.06995 0.24945 0.70207
 C2577 C 0.43526 0.71097 0.31410
 C2578 C 0.42052 0.69752 0.30487
 C2579 C 0.41985 0.69610 0.28358
 C2580 C 0.43256 0.70830 0.27152
 C2581 C 0.44610 0.72272 0.28023
 C2582 C 0.44737 0.72439 0.30170
 C2583 C 0.43854 0.71122 0.33533
 C2584 C 0.45201 0.72551 0.34422
 C2585 C 0.46258 0.73968 0.33220
 C2586 C 0.46036 0.73917 0.31113
 H2587 H 0.43117 0.70013 0.34523
 H2588 H 0.45422 0.72560 0.36054
 H2589 H 0.47280 0.75091 0.33921
 H2590 H 0.46902 0.75031 0.30233
 H2591 H 0.40884 0.68602 0.27605
 H2592 H 0.43137 0.70692 0.25514
 C2593 C 0.43028 0.19309 0.78661
 C2594 C 0.41584 0.20342 0.79954
 C2595 C 0.41611 0.22520 0.80073
 C2596 C 0.42969 0.23677 0.78899
 C2597 C 0.44323 0.22703 0.77534
 C2598 C 0.44336 0.20502 0.77374
 C2599 C 0.43236 0.17121 0.78639
 C2600 C 0.44567 0.16132 0.77271
 C2601 C 0.45729 0.17296 0.75913
 C2602 C 0.45624 0.19461 0.75961
 H2603 H 0.42415 0.16153 0.79703
 H2604 H 0.44695 0.14453 0.77262
 H2605 H 0.46741 0.16519 0.74838
 H2606 H 0.46568 0.20307 0.74892
 H2607 H 0.40529 0.23350 0.81041
 H2608 H 0.42938 0.25357 0.79031
 C2609 C 0.91548 0.69607 0.77327
 C2610 C 0.91270 0.69889 0.79455
 C2611 C 0.92470 0.71371 0.80485
 C2612 C 0.93904 0.72582 0.79457
 C2613 C 0.94218 0.72321 0.77370
 C2614 C 0.93085 0.70787 0.76297
 C2615 C 0.90280 0.68261 0.76170
 C2616 C 0.90618 0.67974 0.74095
 C2617 C 0.92199 0.69037 0.73120
 C2618 C 0.93417 0.70440 0.74201
 H2619 H 0.88985 0.67454 0.76827
 H2620 H 0.89640 0.66926 0.73236
 H2621 H 0.92462 0.68797 0.71511
 H2622 H 0.94618 0.71252 0.73381
 H2623 H 0.92272 0.71618 0.82103
 H2624 H 0.94742 0.73770 0.80286
 C2625 C 0.93286 0.18897 0.29028
 C2626 C 0.91766 0.19903 0.30253
 C2627 C 0.91723 0.22083 0.30339
 C2628 C 0.93058 0.23263 0.29164
 C2629 C 0.94461 0.22311 0.27831
 C2630 C 0.94582 0.20109 0.27743
 C2631 C 0.93572 0.16718 0.29064
 C2632 C 0.94983 0.15748 0.27762
 C2633 C 0.96141 0.16922 0.26408
 C2634 C 0.95947 0.19081 0.26391
 H2635 H 0.92745 0.15748 0.30123
 H2636 H 0.95175 0.14074 0.27800
 H2637 H 0.97215 0.16157 0.25383
 H2638 H 0.96883 0.19932 0.25321
 H2639 H 0.90587 0.22897 0.31259
 H2640 H 0.92948 0.24944 0.29245
 C2641 C 0.30702 0.27288 0.58589
 C2642 C 0.30589 0.29498 0.58518
 C2643 C 0.29301 0.30452 0.57068
 C2644 C 0.28125 0.29276 0.55717
 C2645 C 0.28232 0.27103 0.55735
 C2646 C 0.29568 0.26091 0.57139
 C2647 C 0.31834 0.26226 0.60114
 C2648 C 0.31977 0.24061 0.60112
 C2649 C 0.30975 0.22906 0.58619
 C2650 C 0.29770 0.23902 0.57151
 H2651 H 0.32580 0.27034 0.61351
 H2652 H 0.32867 0.23275 0.61281
 H2653 H 0.31107 0.21226 0.58616
 H2654 H 0.28999 0.22945 0.56028
 H2655 H 0.29182 0.32132 0.56996
 H2656 H 0.27093 0.30067 0.54667
 C2657 C 0.27268 0.79940 0.08510
 C2658 C 0.29404 0.79535 0.08897
 C2659 C 0.30412 0.77939 0.07818
 C2660 C 0.29360 0.76759 0.06372
 C2661 C 0.27272 0.77158 0.05934
 C2662 C 0.26217 0.78781 0.06974
 C2663 C 0.26120 0.81404 0.09662
 C2664 C 0.24042 0.81815 0.09221
 C2665 C 0.23053 0.80763 0.07647
 C2666 C 0.24120 0.79252 0.06537
 H2667 H 0.26787 0.82213 0.10943
 H2668 H 0.23191 0.82951 0.10111
 H2669 H 0.21443 0.81099 0.07303
 H2670 H 0.23286 0.78455 0.05339
 H2671 H 0.32035 0.77597 0.08102
 H2672 H 0.30174 0.75507 0.05601
 C2673 C 0.77303 0.30574 0.08368
 C2674 C 0.79434 0.30119 0.08730
 C2675 C 0.80396 0.28511 0.07629
 C2676 C 0.79301 0.27361 0.06191
 C2677 C 0.77215 0.27800 0.05787
 C2678 C 0.76207 0.29440 0.06845
 C2679 C 0.76203 0.32063 0.09534
 C2680 C 0.74126 0.32514 0.09123
 C2681 C 0.73092 0.31481 0.07566
 C2682 C 0.74112 0.29950 0.06440
 H2683 H 0.76907 0.32863 0.10801
 H2684 H 0.73311 0.33668 0.10025
 H2685 H 0.71483 0.31846 0.07247
 H2686 H 0.73246 0.29170 0.05254
 H2687 H 0.82014 0.28132 0.07893
 H2688 H 0.80079 0.26096 0.05405
 C2689 C 0.77457 0.80768 0.58272
 C2690 C 0.79633 0.80439 0.58463
 C2691 C 0.80606 0.78931 0.57246
 C2692 C 0.79475 0.77746 0.55867
 C2693 C 0.77339 0.78053 0.55636
 C2694 C 0.76318 0.79602 0.56804
 C2695 C 0.76360 0.82152 0.59558
 C2696 C 0.74234 0.82478 0.59312
 C2697 C 0.73149 0.81418 0.57806
 C2698 C 0.74172 0.79983 0.56567
 H2699 H 0.77105 0.82963 0.60794
 H2700 H 0.73421 0.83554 0.60302
 H2701 H 0.71501 0.81687 0.57615
 H2702 H 0.73269 0.79175 0.55427
 H2703 H 0.82258 0.78646 0.57386
 H2704 H 0.80265 0.76544 0.55001
 C2705 C 0.28903 0.68899 0.43517
 C2706 C 0.30279 0.69872 0.42132
 C2707 C 0.30453 0.72046 0.42167
 C2708 C 0.29222 0.73255 0.43442
 C2709 C 0.27741 0.72343 0.44700
 C2710 C 0.27555 0.70147 0.44737
 C2711 C 0.28849 0.66717 0.43742
 C2712 C 0.27393 0.65785 0.45004
 C2713 C 0.25975 0.67002 0.46075
 C2714 C 0.26051 0.69164 0.45950
 H2715 H 0.29955 0.65712 0.42986
 H2716 H 0.27362 0.64109 0.45148
 H2717 H 0.24830 0.66268 0.47031
 H2718 H 0.24933 0.70052 0.46823
 H2719 H 0.31491 0.72835 0.41138
 H2720 H 0.29377 0.74932 0.43398
 C2721 C 0.31295 0.21190 0.93482
 C2722 C 0.30436 0.19691 0.92137
 C2723 C 0.28296 0.19319 0.92187
 C2724 C 0.26996 0.20485 0.93437
 C2725 C 0.27787 0.22067 0.94674
 C2726 C 0.29953 0.22429 0.94717
 C2727 C 0.33458 0.21480 0.93643
 C2728 C 0.34270 0.23025 0.94899
 C2729 C 0.32952 0.24303 0.96024
 C2730 C 0.30813 0.24014 0.95940
 H2731 H 0.34542 0.20497 0.92830
 H2732 H 0.35932 0.23234 0.94998
 H2733 H 0.33592 0.25512 0.96983
 H2734 H 0.29847 0.25035 0.96847
 H2735 H 0.27605 0.18184 0.91177
 H2736 H 0.25342 0.20197 0.93392
 C2737 C 0.81355 0.71347 0.92823
 C2738 C 0.80444 0.69667 0.91738
 C2739 C 0.78372 0.69153 0.92116
 C2740 C 0.77166 0.70343 0.93435
 C2741 C 0.77990 0.72086 0.94418
 C2742 C 0.80101 0.72599 0.94131
 C2743 C 0.83488 0.71800 0.92660
 C2744 C 0.84335 0.73507 0.93668
 C2745 C 0.83086 0.74786 0.94865
 C2746 C 0.80988 0.74342 0.95101
 H2747 H 0.84528 0.70823 0.91788
 H2748 H 0.85972 0.73838 0.93521
 H2749 H 0.83751 0.76117 0.95632
 H2750 H 0.80075 0.75365 0.96059
 H2751 H 0.77649 0.67876 0.91310
 H2752 H 0.75551 0.69942 0.93641
 C2753 C 0.80919 0.21011 0.43121
 C2754 C 0.79989 0.19571 0.41757
 C2755 C 0.77838 0.19273 0.41831
 C2756 C 0.76599 0.20439 0.43144
 C2757 C 0.77464 0.21954 0.44415
 C2758 C 0.79640 0.22264 0.44404
 C2759 C 0.83094 0.21218 0.43263
 C2760 C 0.83977 0.22712 0.44532
 C2761 C 0.82720 0.24019 0.45691
 C2762 C 0.80572 0.23803 0.45633
 H2763 H 0.84135 0.20207 0.42430
 H2764 H 0.85647 0.22859 0.44615
 H2765 H 0.83414 0.25191 0.46657
 H2766 H 0.79655 0.24845 0.46567
 H2767 H 0.77095 0.18184 0.40807
 H2768 H 0.74939 0.20190 0.43137
 C2769 C 0.68638 0.28330 0.43144
 C2770 C 0.69643 0.29905 0.42008
 C2771 C 0.71765 0.30250 0.42317
 C2772 C 0.72919 0.28986 0.43615
 C2773 C 0.71992 0.27333 0.44642
 C2774 C 0.69834 0.26997 0.44427
 C2775 C 0.66469 0.28058 0.43052
 C2776 C 0.65519 0.26448 0.44108
 C2777 C 0.66703 0.25085 0.45280
 C2778 C 0.68841 0.25351 0.45444
 H2779 H 0.65482 0.29105 0.42198
 H2780 H 0.63855 0.26256 0.44017
 H2781 H 0.65959 0.23828 0.46083
 H2782 H 0.69701 0.24267 0.46382
 H2783 H 0.72563 0.31445 0.41472
 H2784 H 0.74569 0.29255 0.43768
 C2785 C 0.69742 0.77192 0.91315
 C2786 C 0.69850 0.79402 0.91378
 C2787 C 0.71117 0.80355 0.92840
 C2788 C 0.72262 0.79177 0.94222
 C2789 C 0.72130 0.77006 0.94234
 C2790 C 0.70816 0.75998 0.92813
 C2791 C 0.68676 0.76123 0.89752
 C2792 C 0.68515 0.73962 0.89772
 C2793 C 0.69434 0.72815 0.91324
 C2794 C 0.70585 0.73815 0.92827
 H2795 H 0.68007 0.76922 0.88467
 H2796 H 0.67677 0.73172 0.88572
 H2797 H 0.69288 0.71139 0.91342
 H2798 H 0.71294 0.72863 0.93994
 H2799 H 0.71239 0.82034 0.92904
 H2800 H 0.73288 0.79966 0.95274
 C2801 C 0.18906 0.28263 0.92704
 C2802 C 0.19890 0.29882 0.91609
 C2803 C 0.21996 0.30278 0.91957
 C2804 C 0.23155 0.29041 0.93279
 C2805 C 0.22246 0.27369 0.94292
 C2806 C 0.20108 0.26962 0.94011
 C2807 C 0.16748 0.27926 0.92559
 C2808 C 0.15821 0.26282 0.93585
 C2809 C 0.17015 0.24951 0.94781
 C2810 C 0.19138 0.25283 0.95000
 H2811 H 0.15750 0.28946 0.91688
 H2812 H 0.14167 0.26040 0.93453
 H2813 H 0.16289 0.23669 0.95562
 H2814 H 0.20006 0.24221 0.95956
 H2815 H 0.22773 0.31508 0.91141
 H2816 H 0.24789 0.29367 0.93487
 C2817 C 0.18865 0.78493 0.42884
 C2818 C 0.19823 0.80072 0.41714
 C2819 C 0.21928 0.80501 0.42026
 C2820 C 0.23113 0.79322 0.43375
 C2821 C 0.22234 0.77676 0.44451
 C2822 C 0.20094 0.77248 0.44219
 C2823 C 0.16708 0.78138 0.42783
 C2824 C 0.15808 0.76526 0.43879
 C2825 C 0.17028 0.75248 0.45104
 C2826 C 0.19152 0.75601 0.45280
 H2827 H 0.15690 0.79121 0.41893
 H2828 H 0.14153 0.76269 0.43779
 H2829 H 0.16322 0.73990 0.45940
 H2830 H 0.20041 0.74583 0.46263
 H2831 H 0.22688 0.81702 0.41155
 H2832 H 0.24748 0.79663 0.43544
 C2833 C 0.72542 0.69723 0.58508
 C2834 C 0.70338 0.69701 0.58350
 C2835 C 0.69368 0.70880 0.56824
 C2836 C 0.70523 0.72063 0.55474
 C2837 C 0.72692 0.72037 0.55546
 C2838 C 0.73720 0.70796 0.57019
 C2839 C 0.73615 0.68800 0.60158
 C2840 C 0.75777 0.68736 0.60211
 C2841 C 0.76918 0.69619 0.58650
 C2842 C 0.75908 0.70654 0.57074
 H2843 H 0.72818 0.68183 0.61459
 H2844 H 0.76570 0.68003 0.61475
 H2845 H 0.78596 0.69545 0.58686
 H2846 H 0.76853 0.71352 0.55906
 H2847 H 0.67693 0.70910 0.56694
 H2848 H 0.69717 0.73037 0.54382
 C2849 C 0.68545 0.21091 0.06371
 C2850 C 0.69520 0.19673 0.07735
 C2851 C 0.71691 0.19502 0.07725
 C2852 C 0.72891 0.20771 0.06501
 C2853 C 0.71976 0.22299 0.05278
 C2854 C 0.69784 0.22489 0.05220
 C2855 C 0.66373 0.21139 0.06098
 C2856 C 0.65436 0.22642 0.04871
 C2857 C 0.66639 0.24114 0.03882
 C2858 C 0.68794 0.24043 0.04047
 H2859 H 0.65383 0.19990 0.06785
 H2860 H 0.63767 0.22667 0.04690
 H2861 H 0.65900 0.25294 0.02955
 H2862 H 0.69673 0.25200 0.03235
 H2863 H 0.72487 0.18435 0.08734
 H2864 H 0.74564 0.20609 0.06561
 C2865 C 0.18426 0.70883 0.06366
 C2866 C 0.19252 0.69276 0.07613
 C2867 C 0.21389 0.68857 0.07556
 C2868 C 0.22715 0.70068 0.06396
 C2869 C 0.21956 0.71750 0.05269
 C2870 C 0.19796 0.72178 0.05247
 C2871 C 0.16268 0.71225 0.06187
 C2872 C 0.15488 0.72882 0.05048
 C2873 C 0.16835 0.74222 0.04059
 C2874 C 0.18970 0.73879 0.04151
 H2875 H 0.15162 0.70199 0.06892
 H2876 H 0.13830 0.73131 0.04936
 H2877 H 0.16222 0.75519 0.03196
 H2878 H 0.19960 0.74950 0.03348
 H2879 H 0.22061 0.67643 0.08491
 H2880 H 0.24364 0.69730 0.06427
 C2881 C 0.19380 0.22580 0.58169
 C2882 C 0.19709 0.20418 0.58498
 C2883 C 0.21215 0.19360 0.57351
 C2884 C 0.22425 0.20402 0.55938
 C2885 C 0.22155 0.22533 0.55610
 C2886 C 0.20586 0.23630 0.56680
 C2887 C 0.17958 0.23755 0.59342
 C2888 C 0.17649 0.25870 0.58976
 C2889 C 0.18765 0.26868 0.57463
 C2890 C 0.20231 0.25768 0.56330
 H2891 H 0.17095 0.23080 0.60573
 H2892 H 0.16542 0.26743 0.59879
 H2893 H 0.18512 0.28508 0.57182
 H2894 H 0.21081 0.26604 0.55178
 H2895 H 0.21492 0.17714 0.57586
 H2896 H 0.23636 0.19554 0.55145
   
