data_POSCAR
  _audit_creation_date              2014-09-24
  _audit_creation_method            'ToBaCCo'
  _symmetry_space_group_name_H-M    'P1'
  _symmetry_Int_Tables_number       1
  _symmetry_cell_setting            triclinic
  loop_
  _symmetry_equiv_pos_as_xyz
 x,y,z
_cell_length_a 49.4862
_cell_length_b 48.8336
_cell_length_c 48.3470
_cell_angle_alpha 88.830300
_cell_angle_beta 90.832900
_cell_angle_gamma 89.029200
loop_
  _atom_site_label
  _atom_site_type_symbol
  _atom_site_fract_x
  _atom_site_fract_y
  _atom_site_fract_z
C1 C 0.73175 0.67182 0.97296
 H2 H 0.74987 0.67134 0.96072
 C3 C 0.70832 0.68504 0.96251
 H4 H 0.70858 0.69464 0.94213
 C5 C 0.70875 0.65793 1.01339
 H6 H 0.70861 0.64678 1.03288
 C7 C 0.68505 0.67095 1.00385
 H8 H 0.66715 0.67003 1.01644
 N9 N 0.73136 0.65812 0.99773
 C10 C 0.81202 0.64133 1.03174
 H11 H 0.81015 0.61944 1.03486
 C12 C 0.83529 0.65428 1.04069
 H13 H 0.85138 0.64211 1.05046
 C14 C 0.79320 0.68350 1.01486
 H15 H 0.77658 0.69472 1.00497
 C16 C 0.81624 0.69740 1.02362
 H17 H 0.81708 0.71940 1.02065
 Zn18 Zn 0.76116 0.63537 1.00878
 N19 N 0.79162 0.65594 1.01904
 C20 C 0.79612 0.61207 0.96987
 N21 N 0.77015 0.61271 0.97871
 C22 C 0.75046 0.59883 0.96525
 C23 C 0.75667 0.58346 0.94195
 C24 C 0.80324 0.59674 0.94706
 C25 C 0.75071 0.62789 1.06453
 C26 C 0.74195 0.61492 1.08862
 C27 C 0.73592 0.57361 1.06286
 C28 C 0.74493 0.58751 1.03922
 N29 N 0.75148 0.61434 1.04035
 H30 H 0.81140 0.62380 0.98013
 H31 H 0.72985 0.60008 0.97235
 H32 H 0.74083 0.57262 0.93131
 H33 H 0.82398 0.59682 0.94021
 H34 H 0.75660 0.64911 1.06499
 H35 H 0.74285 0.62672 1.10724
 H36 H 0.72941 0.55286 1.06009
 H37 H 0.74584 0.57704 1.01977
 C38 C 0.83756 0.68273 1.03695
 C39 C 0.68435 0.68401 0.97773
 C40 C 0.73342 0.58734 1.08836
 C41 C 0.78343 0.58224 0.93275
 C42 C 0.72342 0.32205 0.53223
 H43 H 0.74330 0.31721 0.54077
 C44 C 0.70097 0.30755 0.54142
 H45 H 0.70376 0.29167 0.55720
 C46 C 0.69537 0.35010 0.50290
 H47 H 0.69301 0.36726 0.48857
 C48 C 0.67256 0.33601 0.51120
 H49 H 0.65303 0.34213 0.50253
 N50 N 0.72011 0.34337 0.51387
 C51 C 0.77947 0.32584 0.47796
 H52 H 0.76028 0.32089 0.46865
 C53 C 0.80290 0.31247 0.46921
 H54 H 0.80134 0.29833 0.45235
 C55 C 0.80456 0.35022 0.51105
 H56 H 0.80529 0.36479 0.52748
 C57 C 0.82844 0.33700 0.50327
 H58 H 0.84709 0.34161 0.51404
 Zn59 Zn 0.74927 0.36667 0.50546
 N60 N 0.78081 0.34528 0.49765
 C61 C 0.77498 0.40924 0.53448
 N62 N 0.75634 0.38913 0.53649
 C63 C 0.74365 0.38387 0.56078
 C64 C 0.75048 0.39814 0.58454
 C65 C 0.78210 0.42433 0.55765
 C66 C 0.73328 0.37546 0.44994
 C67 C 0.72314 0.38978 0.42674
 C68 C 0.72534 0.43159 0.45236
 C69 C 0.73538 0.41637 0.47525
 N70 N 0.73902 0.38872 0.47374
 H71 H 0.78490 0.41302 0.51501
 H72 H 0.72867 0.36812 0.56206
 H73 H 0.74070 0.39322 0.60386
 H74 H 0.79753 0.43970 0.55590
 H75 H 0.73531 0.35352 0.44919
 H76 H 0.71838 0.37865 0.40819
 H77 H 0.72179 0.45341 0.45415
 H78 H 0.73924 0.42662 0.49445
 C79 C 0.82802 0.31848 0.48141
 C80 C 0.67500 0.31505 0.53143
 C81 C 0.71863 0.41813 0.42787
 C82 C 0.77017 0.41840 0.58318
 C83 C 0.23280 -0.16360 0.02580
 H84 H 0.25200 -0.16268 0.03668
 C85 C 0.21123 -0.17727 0.03788
 H86 H 0.21415 -0.18723 0.05794
 C87 C 0.20546 -0.15089 -0.01318
 H88 H 0.20308 -0.13998 -0.03275
 C89 C 0.18338 -0.16430 -0.00187
 H90 H 0.16417 -0.16338 -0.01288
 N91 N 0.22945 -0.15046 0.00089
 C92 C 0.30865 -0.13602 -0.03442
 H93 H 0.30654 -0.11424 -0.03862
 C94 C 0.33216 -0.14993 -0.04188
 H95 H 0.34804 -0.13875 -0.05207
 C96 C 0.29005 -0.17710 -0.01669
 H97 H 0.27350 -0.18757 -0.00701
 C98 C 0.31317 -0.19193 -0.02414
 H99 H 0.31436 -0.21378 -0.01994
 Zn100 Zn 0.25764 -0.12826 -0.01233
 N101 N 0.28838 -0.14959 -0.02167
 C102 C 0.29322 -0.10222 0.02467
 N103 N 0.26698 -0.10372 0.01615
 C104 C 0.24708 -0.08962 0.02922
 C105 C 0.25333 -0.07326 0.05182
 C106 C 0.30037 -0.08587 0.04678
 C107 C 0.24627 -0.12388 -0.06853
 C108 C 0.23749 -0.11205 -0.09361
 C109 C 0.22761 -0.07023 -0.06980
 C110 C 0.23707 -0.08286 -0.04520
 N111 N 0.24580 -0.10934 -0.04496
 H112 H 0.30873 -0.11415 0.01484
 H113 H 0.22628 -0.09161 0.02247
 H114 H 0.23731 -0.06238 0.06222
 H115 H 0.32134 -0.08537 0.05347
 H116 H 0.25369 -0.14485 -0.06784
 H117 H 0.23988 -0.12461 -0.11152
 H118 H 0.21954 -0.04971 -0.06800
 H119 H 0.23682 -0.07164 -0.02617
 C120 C 0.33467 -0.17822 -0.03669
 C121 C 0.18592 -0.17725 0.02427
 C122 C 0.22722 -0.08473 -0.09503
 C123 C 0.28033 -0.07126 0.06077
 C124 C 0.22587 0.18178 0.46074
 H125 H 0.24374 0.18178 0.44811
 C126 C 0.20263 0.19639 0.45183
 H127 H 0.20281 0.20754 0.43225
 C128 C 0.20314 0.16515 0.50028
 H129 H 0.20288 0.15229 0.51867
 C130 C 0.17970 0.17960 0.49235
 H131 H 0.16201 0.17808 0.50517
 N132 N 0.22547 0.16596 0.48422
 C133 C 0.30660 0.14082 0.51152
 H134 H 0.30389 0.11898 0.50985
 C135 C 0.33065 0.15070 0.52227
 H136 H 0.34655 0.13627 0.52852
 C137 C 0.28881 0.18597 0.50536
 H138 H 0.27219 0.19946 0.49910
 C139 C 0.31268 0.19681 0.51622
 H140 H 0.31424 0.21875 0.51843
 Zn141 Zn 0.25441 0.14086 0.49204
 N142 N 0.28626 0.15837 0.50347
 C143 C 0.28550 0.12555 0.44664
 N144 N 0.26145 0.12136 0.45921
 C145 C 0.24222 0.10556 0.44739
 C146 C 0.24721 0.09266 0.42230
 C147 C 0.29116 0.11338 0.42154
 C148 C 0.24456 0.13036 0.54704
 C149 C 0.23523 0.11683 0.57056
 C150 C 0.22800 0.07669 0.54320
 C151 C 0.23753 0.09109 0.52004
 N152 N 0.24476 0.11774 0.52224
 H153 H 0.30023 0.13887 0.45568
 H154 H 0.22288 0.10328 0.45724
 H155 H 0.23175 0.08018 0.41307
 H156 H 0.31052 0.11688 0.41205
 H157 H 0.25073 0.15145 0.54830
 H158 H 0.23463 0.12756 0.58993
 H159 H 0.22115 0.05591 0.54093
 H160 H 0.23831 0.08122 0.50028
 C161 C 0.33379 0.17899 0.52526
 C162 C 0.17886 0.19465 0.46731
 C163 C 0.22608 0.08990 0.56869
 C164 C 0.27191 0.09675 0.40901
 C165 C 0.16182 0.46283 0.22034
 H166 H 0.16584 0.45539 0.24124
 C167 C 0.17392 0.44979 0.19808
 H168 H 0.18745 0.43244 0.20198
 C169 C 0.13804 0.49342 0.18964
 H170 H 0.12338 0.50983 0.18633
 C171 C 0.14936 0.48077 0.16685
 H172 H 0.14386 0.48809 0.14619
 N173 N 0.14447 0.48441 0.21578
 C174 C 0.13566 0.52148 0.29651
 H175 H 0.11394 0.52430 0.29529
 C176 C 0.14973 0.52933 0.32006
 H177 H 0.13873 0.53853 0.33681
 C178 C 0.17627 0.50651 0.27573
 H179 H 0.18649 0.49785 0.25827
 C180 C 0.19129 0.51444 0.29894
 H181 H 0.21303 0.51155 0.29935
 Zn182 Zn 0.12576 0.49956 0.24588
 N183 N 0.14889 0.50975 0.27523
 C184 C 0.10500 0.46194 0.28487
 N185 N 0.10172 0.47257 0.25879
 C186 C 0.08304 0.46244 0.24096
 C187 C 0.06679 0.44064 0.24918
 C188 C 0.08899 0.44051 0.29402
 C189 C 0.12300 0.55173 0.22282
 C190 C 0.11175 0.57699 0.21465
 C191 C 0.06871 0.56206 0.23181
 C192 C 0.08071 0.53670 0.23905
 N193 N 0.10739 0.53208 0.23435
 H194 H 0.12059 0.46939 0.29843
 H195 H 0.08120 0.47092 0.22015
 H196 H 0.05218 0.43255 0.23474
 H197 H 0.09231 0.43199 0.31467
 H198 H 0.14428 0.54759 0.21976
 H199 H 0.12455 0.59173 0.20452
 H200 H 0.04762 0.56553 0.23643
 H201 H 0.06889 0.52100 0.24899
 C202 C 0.17785 0.52562 0.32162
 C203 C 0.16745 0.45861 0.17093
 C204 C 0.08425 0.58268 0.21930
 C205 C 0.06975 0.42945 0.27605
 C206 C -0.16915 0.03437 0.23141
 H207 H -0.17124 0.04446 0.25100
 C208 C -0.18335 0.04450 0.20800
 H209 H -0.19589 0.06263 0.21025
 C210 C -0.14815 0.00009 0.20492
 H211 H -0.13404 -0.01687 0.20345
 C212 C -0.16177 0.00948 0.18112
 H213 H -0.15858 -0.00168 0.16232
 N214 N -0.15169 0.01275 0.22939
 C215 C -0.13333 -0.02227 0.31123
 H216 H -0.11156 -0.02300 0.30949
 C217 C -0.14543 -0.03343 0.33456
 H218 H -0.13275 -0.04243 0.35089
 C219 C -0.17610 -0.00954 0.29180
 H220 H -0.18789 -0.00058 0.27484
 C221 C -0.18913 -0.02060 0.31488
 H222 H -0.21099 -0.02020 0.31544
 Zn223 Zn -0.12898 0.00201 0.25975
 N224 N -0.14865 -0.01056 0.29050
 C225 C -0.10807 0.04091 0.29630
 N226 N -0.10810 0.03249 0.26966
 C227 C -0.09441 0.04637 0.24974
 C228 C -0.07975 0.06965 0.25643
 C229 C -0.09336 0.06366 0.30394
 C230 C -0.11983 -0.05154 0.24492
 C231 C -0.10590 -0.07425 0.23509
 C232 C -0.06479 -0.04820 0.23608
 C233 C -0.07963 -0.02580 0.24577
 N234 N -0.10677 -0.02772 0.24928
 H235 H -0.11966 0.03025 0.31172
 H236 H -0.09513 0.03949 0.22862
 H237 H -0.06897 0.08061 0.24045
 H238 H -0.09369 0.07014 0.32523
 H239 H -0.14137 -0.05255 0.24827
 H240 H -0.11679 -0.09283 0.23104
 H241 H -0.04339 -0.04618 0.23234
 H242 H -0.06962 -0.00676 0.24978
 C243 C -0.17369 -0.03299 0.33649
 C244 C -0.17916 0.03262 0.18194
 C245 C -0.07815 -0.07255 0.23000
 C246 C -0.07900 0.07832 0.28391
 C247 C 0.32350 0.51693 0.72757
 H248 H 0.31325 0.51679 0.74713
 C249 C 0.31018 0.52748 0.70379
 H250 H 0.28984 0.53576 0.70537
 C251 C 0.36250 0.50675 0.70159
 H252 H 0.38281 0.49834 0.70074
 C253 C 0.35001 0.51690 0.67747
 H254 H 0.36089 0.51607 0.65823
 N255 N 0.34936 0.50719 0.72607
 C256 C 0.34674 0.45443 0.79342
 H257 H 0.35914 0.43994 0.78258
 C258 C 0.33147 0.44509 0.81548
 H259 H 0.33222 0.42351 0.82114
 C260 C 0.33171 0.50007 0.80036
 H261 H 0.33229 0.52156 0.79455
 C262 C 0.31646 0.49161 0.82308
 H263 H 0.30502 0.50656 0.83455
 Zn264 Zn 0.36942 0.49275 0.75683
 N265 N 0.34657 0.48148 0.78611
 C266 C 0.39618 0.52418 0.79701
 N267 N 0.39361 0.51964 0.76944
 C268 C 0.40713 0.53504 0.75057
 C269 C 0.42298 0.55677 0.75909
 C270 C 0.41194 0.54560 0.80645
 C271 C 0.37413 0.44331 0.73015
 C272 C 0.38663 0.42000 0.71986
 C273 C 0.42926 0.43551 0.73828
 C274 C 0.41585 0.45860 0.74838
 N275 N 0.38876 0.46195 0.74418
 H276 H 0.38564 0.51147 0.81173
 H277 H 0.40514 0.53094 0.72880
 H278 H 0.43321 0.56911 0.74374
 H279 H 0.41299 0.54945 0.82841
 H280 H 0.35260 0.44657 0.72714
 H281 H 0.37446 0.40522 0.70916
 H282 H 0.45091 0.43328 0.74139
 H283 H 0.42703 0.47384 0.75947
 C284 C 0.31621 0.46374 0.83069
 C285 C 0.32364 0.52781 0.67837
 C286 C 0.41459 0.41591 0.72370
 C287 C 0.42518 0.56254 0.78733
 C288 C 0.67312 0.96278 0.73106
 H289 H 0.67854 0.95404 0.75116
 C290 C 0.68540 0.95282 0.70730
 H291 H 0.70037 0.93644 0.70929
 C292 C 0.64556 0.99331 0.70382
 H293 H 0.62929 1.00830 0.70233
 C294 C 0.65718 0.98391 0.67963
 H295 H 0.65024 0.99242 0.65987
 N296 N 0.65352 0.98260 0.72890
 C297 C 0.64134 1.00829 0.81382
 H298 H 0.61966 1.00576 0.81396
 C299 C 0.65456 1.01788 0.83720
 H300 H 0.64230 1.02310 0.85473
 C301 C 0.68237 1.00639 0.78935
 H302 H 0.69297 1.00215 0.77048
 C303 C 0.69644 1.01660 0.81218
 H304 H 0.71803 1.01911 0.81056
 Zn305 Zn 0.63342 0.99203 0.76044
 N306 N 0.65529 1.00252 0.79064
 C307 C 0.62018 0.94648 0.79394
 N308 N 0.61329 0.96081 0.77041
 C309 C 0.59420 0.95151 0.75255
 C310 C 0.58103 0.92694 0.75824
 C311 C 0.60762 0.92190 0.80039
 C312 C 0.62525 1.04527 0.74326
 C313 C 0.61170 1.06947 0.73559
 C314 C 0.56956 1.04814 0.74729
 C315 C 0.58400 1.02399 0.75427
 N316 N 0.61133 1.02299 0.75177
 H317 H 0.63605 0.95361 0.80741
 H318 H 0.58961 0.96291 0.73359
 H319 H 0.56619 0.91959 0.74361
 H320 H 0.61337 0.91092 0.81932
 H321 H 0.64703 1.04391 0.74177
 H322 H 0.62338 1.08632 0.72758
 H323 H 0.54785 1.04865 0.74966
 H324 H 0.57342 1.00620 0.76178
 C325 C 0.68259 1.02261 0.83679
 C326 C 0.67702 0.96307 0.68113
 C327 C 0.58342 1.07130 0.73749
 C328 C 0.58795 0.91165 0.78232
 C329 C 0.02984 0.22173 -0.17310
 H330 H 0.04018 0.24107 -0.17393
 C331 C 0.03984 0.19945 -0.18770
 H332 H 0.05765 0.20198 -0.20018
 C333 C -0.00539 0.19478 -0.15497
 H334 H -0.02250 0.19279 -0.14150
 C335 C 0.00395 0.17196 -0.16919
 H336 H -0.00616 0.15263 -0.16644
 N337 N 0.00782 0.21894 -0.15687
 C338 C -0.02143 0.30106 -0.13846
 H339 H -0.02201 0.29854 -0.11619
 C340 C -0.03026 0.32560 -0.15095
 H341 H -0.03798 0.34173 -0.13805
 C342 C -0.01161 0.28237 -0.18211
 H343 H -0.00453 0.26532 -0.19411
 C344 C -0.02028 0.30673 -0.19554
 H345 H -0.01948 0.30835 -0.21788
 Zn346 Zn -0.00156 0.24817 -0.13359
 N347 N -0.01217 0.28014 -0.15402
 C348 C 0.04197 0.27998 -0.11594
 N349 N 0.02951 0.25567 -0.11164
 C350 C 0.04037 0.23619 -0.09400
 C351 C 0.06442 0.24112 -0.07943
 C352 C 0.06621 0.28547 -0.10231
 C353 C -0.05557 0.23736 -0.12577
 C354 C -0.07914 0.23050 -0.11200
 C355 C -0.05298 0.22585 -0.06958
 C356 C -0.03002 0.23345 -0.08419
 N357 N -0.03161 0.23846 -0.11189
 H358 H 0.03364 0.29488 -0.13065
 H359 H 0.03062 0.21665 -0.09162
 H360 H 0.07303 0.22547 -0.06559
 H361 H 0.07608 0.30476 -0.10629
 H362 H -0.05628 0.24155 -0.14784
 H363 H -0.09721 0.22866 -0.12458
 H364 H -0.05063 0.22283 -0.04747
 H365 H -0.01099 0.23538 -0.07327
 C366 C -0.02967 0.32881 -0.17986
 C367 C 0.02721 0.17395 -0.18537
 C368 C -0.07840 0.22398 -0.08330
 C369 C 0.07771 0.26590 -0.08391
 C370 C 0.46961 0.23065 0.17014
 H371 H 0.45950 0.25043 0.16823
 C372 C 0.45727 0.20915 0.18435
 H373 H 0.43785 0.21270 0.19379
 C374 C 0.50650 0.20164 0.15878
 H375 H 0.52521 0.19853 0.14795
 C376 C 0.49493 0.17960 0.17288
 H377 H 0.50495 0.15972 0.17271
 N378 N 0.49349 0.22641 0.15722
 C379 C 0.52794 0.30582 0.13599
 H380 H 0.53064 0.30286 0.11408
 C381 C 0.53644 0.32997 0.14802
 H382 H 0.54591 0.34543 0.13525
 C383 C 0.51301 0.28874 0.17928
 H384 H 0.50399 0.27252 0.19135
 C385 C 0.52149 0.31256 0.19226
 H386 H 0.51870 0.31459 0.21430
 Zn387 Zn 0.50556 0.25415 0.13262
 N388 N 0.51615 0.28596 0.15156
 C389 C 0.46762 0.28931 0.10464
 N390 N 0.47629 0.26285 0.10798
 C391 C 0.46279 0.24207 0.09587
 C392 C 0.43947 0.24757 0.07984
 C393 C 0.44474 0.29573 0.08852
 C394 C 0.55990 0.24016 0.12777
 C395 C 0.58364 0.23165 0.11507
 C396 C 0.55808 0.22538 0.07280
 C397 C 0.53483 0.23442 0.08625
 N398 N 0.53613 0.24135 0.11333
 H399 H 0.47796 0.30552 0.11501
 H400 H 0.46977 0.22114 0.09928
 H401 H 0.42871 0.23083 0.07063
 H402 H 0.43789 0.31687 0.08661
 H403 H 0.56041 0.24610 0.14920
 H404 H 0.60236 0.23149 0.12694
 H405 H 0.55644 0.21929 0.05146
 H406 H 0.51576 0.23570 0.07509
 C407 C 0.53322 0.33362 0.17650
 C408 C 0.46961 0.18300 0.18522
 C409 C 0.58299 0.22388 0.08723
 C410 C 0.43019 0.27473 0.07608
 C411 C 0.96328 0.72437 0.65797
 H412 H 0.95239 0.74355 0.65443
 C413 C 0.95137 0.70323 0.67309
 H414 H 0.93145 0.70642 0.68157
 C415 C 1.00175 0.69629 0.64973
 H416 H 1.02094 0.69331 0.63978
 C417 C 0.99072 0.67471 0.66497
 H418 H 1.00161 0.65531 0.66664
 N419 N 0.98775 0.72035 0.64615
 C420 C 1.02585 0.79646 0.62183
 H421 H 1.03020 0.79130 0.60068
 C422 C 1.03577 0.82053 0.63272
 H423 H 1.04768 0.83391 0.61977
 C424 C 1.00491 0.78521 0.66426
 H425 H 0.99305 0.77121 0.67648
 C426 C 1.01424 0.80937 0.67596
 H427 H 1.00965 0.81379 0.69725
 Zn428 Zn 0.99946 0.74697 0.62024
 N429 N 1.01081 0.77932 0.63760
 C430 C 0.96343 0.78199 0.59002
 N431 N 0.96996 0.75535 0.59596
 C432 C 0.95423 0.73467 0.58685
 C433 C 0.93047 0.74055 0.57168
 C434 C 0.94017 0.78873 0.57463
 C435 C 1.05355 0.73220 0.61400
 C436 C 1.07669 0.72326 0.60051
 C437 C 1.04930 0.71561 0.55968
 C438 C 1.02668 0.72511 0.57386
 N439 N 1.02921 0.73302 0.60057
 H440 H 0.97584 0.79817 0.59779
 H441 H 0.95971 0.71366 0.59216
 H442 H 0.91780 0.72396 0.56507
 H443 H 0.93496 0.81011 0.57079
 H444 H 1.05497 0.73873 0.63522
 H445 H 1.09590 0.72262 0.61156
 H446 H 1.04707 0.70936 0.53842
 H447 H 1.00717 0.72616 0.56353
 C448 C 1.03011 0.82721 0.66013
 C449 C 0.96488 0.67781 0.67617
 C450 C 1.07471 0.71480 0.57302
 C451 C 0.92315 0.76792 0.56558
 C452 C 0.52290 0.73012 0.33217
 H453 H 0.53202 0.75004 0.33059
 C454 C 0.53324 0.70847 0.31682
 H455 H 0.54967 0.71234 0.30282
 C456 C 0.49119 0.70079 0.35315
 H457 H 0.47530 0.69759 0.36788
 C458 C 0.50113 0.67853 0.33849
 H459 H 0.49269 0.65854 0.34238
 N460 N 0.50236 0.72593 0.35010
 C461 C 0.46373 0.80419 0.36935
 H462 H 0.45971 0.79967 0.39085
 C463 C 0.45276 0.82798 0.35702
 H464 H 0.44169 0.84178 0.37008
 C465 C 0.48336 0.79130 0.32721
 H466 H 0.49466 0.77665 0.31539
 C467 C 0.47300 0.81511 0.31399
 H468 H 0.47642 0.81773 0.29207
 Zn469 Zn 0.49109 0.75422 0.37420
 N470 N 0.47879 0.78640 0.35452
 C471 C 0.51719 0.78386 0.41625
 N472 N 0.52032 0.76299 0.39830
 C473 C 0.54417 0.74880 0.39700
 C474 C 0.56642 0.75639 0.41304
 C475 C 0.53888 0.79209 0.43270
 C476 C 0.43753 0.73982 0.38158
 C477 C 0.41488 0.73060 0.39555
 C478 C 0.44233 0.72524 0.43714
 C479 C 0.46448 0.73482 0.42240
 N480 N 0.46169 0.74168 0.39509
 H481 H 0.49797 0.79446 0.41760
 H482 H 0.54623 0.73185 0.38317
 H483 H 0.58551 0.74557 0.41075
 H484 H 0.53604 0.80904 0.44652
 H485 H 0.43598 0.74536 0.35983
 H486 H 0.39593 0.72875 0.38430
 H487 H 0.44483 0.71966 0.45883
 H488 H 0.48393 0.73643 0.43265
 C489 C 0.45704 0.83396 0.32875
 C490 C 0.52274 0.68204 0.32029
 C491 C 0.41715 0.72301 0.42365
 C492 C 0.56409 0.77870 0.43075
 Si493 Si 0.36275 0.00783 0.24094
 Si494 Si 0.12384 1.00090 0.73517
 Si495 Si 0.62558 0.50814 0.25219
 Si496 Si 0.86578 0.50499 0.75280
 Si497 Si 0.24705 0.35560 0.00168
 Si498 Si 0.75393 0.13411 1.00195
 Si499 Si 0.24834 0.62145 0.49704
 Si500 Si 0.74288 0.86276 0.50467
 Si501 Si -0.00380 0.25502 0.37096
 Si502 Si 1.01042 0.76471 0.12630
 Si503 Si 0.50412 0.24460 0.63388
 Si504 Si 0.50551 0.73891 0.87175
 C505 C 0.42108 -0.09486 0.28982
 C506 C 0.40951 -0.10697 0.31324
 C507 C 0.42135 -0.13014 0.32602
 C508 C 0.44523 -0.14223 0.31569
 C509 C 0.45671 -0.12988 0.29198
 C510 C 0.44491 -0.10639 0.27941
 C511 C 0.40784 -0.07050 0.27630
 C512 C 0.42282 -0.04738 0.26864
 C513 C 0.40971 -0.02381 0.25769
 C514 C 0.38153 -0.02316 0.25421
 C515 C 0.36675 -0.04657 0.26075
 C516 C 0.37973 -0.06994 0.27187
 H517 H 0.41081 -0.13906 0.34333
 H518 H 0.47538 -0.13759 0.28350
 H519 H 0.42156 -0.00615 0.25226
 H520 H 0.34502 -0.04658 0.25776
 H521 H 0.45424 -0.09742 0.26133
 H522 H 0.44452 -0.04731 0.27184
 H523 H 0.39115 -0.09844 0.32177
 H524 H 0.36774 -0.08761 0.27711
 C525 C 0.93603 0.40390 0.78591
 C526 C 0.95320 0.40418 0.80926
 C527 C 0.96535 0.37999 0.81950
 C528 C 0.96040 0.35487 0.80682
 C529 C 0.94435 0.35482 0.78255
 C530 C 0.93234 0.37916 0.77214
 C531 C 0.92024 0.42886 0.77764
 C532 C 0.91809 0.43775 0.74985
 C533 C 0.90239 0.46102 0.74254
 C534 C 0.88839 0.47543 0.76283
 C535 C 0.89036 0.46636 0.79048
 C536 C 0.90631 0.44349 0.79785
 H537 H 0.97817 0.38086 0.83779
 H538 H 0.94000 0.33581 0.77239
 H539 H 0.90085 0.46752 0.72102
 H540 H 0.87935 0.47652 0.80655
 H541 H 0.91905 0.37841 0.75418
 H542 H 0.92859 0.42676 0.73389
 H543 H 0.95671 0.42308 0.81997
 H544 H 0.90719 0.43676 0.81933
 C545 C 0.06282 1.10051 0.78160
 C546 C 0.03467 1.10486 0.78024
 C547 C 0.02305 1.12891 0.79045
 C548 C 0.03936 1.14915 0.80207
 C549 C 0.06752 1.14496 0.80288
 C550 C 0.07909 1.12098 0.79275
 C551 C 0.07544 1.07473 0.77172
 C552 C 0.09702 1.06228 0.78673
 C553 C 0.11057 1.03942 0.77652
 C554 C 0.10298 1.02856 0.75100
 C555 C 0.08039 1.03984 0.73677
 C556 C 0.06677 1.06282 0.74696
 H557 H 0.00130 1.13163 0.78934
 H558 H 0.08065 1.15991 0.81202
 H559 H 0.12729 1.03082 0.78851
 H560 H 0.07352 1.03123 0.71751
 H561 H 0.10087 1.11846 0.79368
 H562 H 0.10365 1.07044 0.80630
 H563 H 0.02161 1.08943 0.77184
 H564 H 0.05007 1.07179 0.73501
 C565 C 0.56004 0.61076 0.28435
 C566 C 0.53193 0.61214 0.28777
 C567 C 0.51968 0.63558 0.29857
 C568 C 0.53533 0.65799 0.30659
 C569 C 0.56345 0.65659 0.30277
 C570 C 0.57561 0.63335 0.29164
 C571 C 0.57345 0.58558 0.27420
 C572 C 0.59374 0.58741 0.25430
 C573 C 0.60825 0.56407 0.24663
 C574 C 0.60319 0.53848 0.25910
 C575 C 0.58196 0.53639 0.27791
 C576 C 0.56717 0.55972 0.28538
 H577 H 0.49794 0.63606 0.30071
 H578 H 0.57630 0.67307 0.30924
 H579 H 0.62373 0.56642 0.23132
 H580 H 0.57693 0.51685 0.28714
 H581 H 0.59737 0.63266 0.28960
 H582 H 0.59858 0.60701 0.24491
 H583 H 0.51945 0.59510 0.28203
 H584 H 0.55152 0.55770 0.30067
 C585 C 0.56516 0.40676 0.21199
 C586 C 0.56890 0.38120 0.22556
 C587 C 0.55778 0.35758 0.21454
 C588 C 0.54288 0.35898 0.18958
 C589 C 0.53847 0.38466 0.17646
 C590 C 0.54939 0.40832 0.18760
 C591 C 0.57900 0.43136 0.22234
 C592 C 0.56556 0.45698 0.22301
 C593 C 0.57915 0.48016 0.23209
 C594 C 0.60638 0.47805 0.24035
 C595 C 0.61982 0.45261 0.23956
 C596 C 0.60625 0.42946 0.23078
 H597 H 0.56164 0.33807 0.22502
 H598 H 0.52681 0.38639 0.15735
 H599 H 0.56848 0.49968 0.23238
 H600 H 0.64092 0.45064 0.24568
 H601 H 0.54631 0.42770 0.17661
 H602 H 0.54454 0.45901 0.21666
 H603 H 0.58075 0.37945 0.24454
 H604 H 0.61727 0.41014 0.23003
 C605 C 0.06287 0.90189 0.69131
 C606 C 0.03586 0.89514 0.69657
 C607 C 0.02525 0.87055 0.68706
 C608 C 0.04140 0.85240 0.67199
 C609 C 0.06851 0.85885 0.66737
 C610 C 0.07913 0.88317 0.67702
 C611 C 0.07444 0.92816 0.70058
 C612 C 0.09321 0.94187 0.68395
 C613 C 0.10683 0.96455 0.69376
 C614 C 0.10171 0.97430 0.72025
 C615 C 0.08163 0.96200 0.73620
 C616 C 0.06818 0.93897 0.72653
 H617 H 0.00423 0.86608 0.69078
 H618 H 0.08156 0.84496 0.65630
 H619 H 0.12210 0.97366 0.68091
 H620 H 0.07740 0.96932 0.75671
 H621 H 0.10023 0.88724 0.67336
 H622 H 0.09794 0.93462 0.66354
 H623 H 0.02277 0.90913 0.70744
 H624 H 0.05387 0.92892 0.73988
 C625 C 0.92535 0.60704 0.71021
 C626 C 0.91176 0.62505 0.69144
 C627 C 0.92444 0.64829 0.68100
 C628 C 0.95117 0.65397 0.68878
 C629 C 0.96491 0.63603 0.70743
 C630 C 0.95208 0.61288 0.71817
 C631 C 0.91158 0.58231 0.72121
 C632 C 0.92586 0.55740 0.72595
 C633 C 0.91251 0.53409 0.73559
 C634 C 0.88466 0.53526 0.74030
 C635 C 0.87042 0.56000 0.73584
 C636 C 0.88372 0.58332 0.72658
 H637 H 0.91358 0.66144 0.66618
 H638 H 0.98551 0.64002 0.71381
 H639 H 0.92391 0.51521 0.73904
 H640 H 0.84891 0.56132 0.73962
 H641 H 0.96303 0.59971 0.73288
 H642 H 0.94724 0.55577 0.72174
 H643 H 0.89143 0.62092 0.68429
 H644 H 0.87215 0.60221 0.72382
 C645 C 0.42785 0.11085 0.21266
 C646 C 0.41405 0.13210 0.19805
 C647 C 0.42744 0.15584 0.19004
 C648 C 0.45502 0.15890 0.19636
 C649 C 0.46869 0.13797 0.21164
 C650 C 0.45518 0.11423 0.21987
 C651 C 0.41380 0.08495 0.21927
 C652 C 0.41609 0.07239 0.24566
 C653 C 0.40146 0.04878 0.25193
 C654 C 0.38479 0.03713 0.23179
 C655 C 0.38296 0.04934 0.20532
 C656 C 0.39733 0.07296 0.19912
 H657 H 0.41640 0.17139 0.17801
 H658 H 0.48991 0.13984 0.21695
 H659 H 0.40275 0.03992 0.27263
 H660 H 0.36989 0.04121 0.18950
 H661 H 0.46630 0.09815 0.23107
 H662 H 0.42848 0.08133 0.26164
 H663 H 0.39288 0.13021 0.19252
 H664 H 0.39541 0.08200 0.17853
 C665 C 0.28086 0.42756 -0.09736
 C666 C 0.27520 0.41743 -0.12378
 C667 C 0.28539 0.43025 -0.14732
 C668 C 0.30126 0.45364 -0.14501
 C669 C 0.30528 0.46506 -0.11887
 C670 C 0.29517 0.45207 -0.09516
 C671 C 0.27368 0.41120 -0.07244
 C672 C 0.26293 0.42352 -0.04886
 C673 C 0.25547 0.40737 -0.02599
 C674 C 0.25865 0.37880 -0.02654
 C675 C 0.27041 0.36668 -0.04953
 C676 C 0.27780 0.38266 -0.07225
 H677 H 0.28173 0.42131 -0.16732
 H678 H 0.31760 0.48302 -0.11662
 H679 H 0.24697 0.41722 -0.00821
 H680 H 0.27338 0.34467 -0.05017
 H681 H 0.29985 0.46031 -0.07506
 H682 H 0.25976 0.44549 -0.04838
 H683 H 0.26362 0.39898 -0.12617
 H684 H 0.28676 0.37263 -0.08975
 C685 C 0.78930 0.92714 0.40622
 C686 C 0.81189 0.91537 0.39348
 C687 C 0.82366 0.92831 0.37086
 C688 C 0.81328 0.95347 0.36045
 C689 C 0.79073 0.96540 0.37320
 C690 C 0.77890 0.95238 0.39598
 C691 C 0.77659 0.91256 0.42973
 C692 C 0.76822 0.92658 0.45336
 C693 C 0.75767 0.91215 0.47600
 C694 C 0.75521 0.88363 0.47510
 C695 C 0.76325 0.86974 0.45147
 C696 C 0.77366 0.88403 0.42896
 H697 H 0.84078 0.91840 0.36128
 H698 H 0.78244 0.98488 0.36574
 H699 H 0.75196 0.92319 0.49424
 H700 H 0.76154 0.84769 0.45046
 H701 H 0.76139 0.96181 0.40531
 H702 H 0.77053 0.94853 0.45461
 H703 H 0.82060 0.89612 0.40112
 H704 H 0.77951 0.87270 0.41091
 C705 C 0.78889 0.07031 1.10800
 C706 C 0.77512 0.07305 1.13295
 C707 C 0.78530 0.06042 1.15731
 C708 C 0.80933 0.04431 1.15719
 C709 C 0.82234 0.04103 1.13158
 C710 C 0.81234 0.05393 1.10751
 C711 C 0.78002 0.08570 1.08273
 C712 C 0.79884 0.10118 1.06800
 C713 C 0.79109 0.11557 1.04392
 C714 C 0.76450 0.11429 1.03373
 C715 C 0.74548 0.09915 1.04859
 C716 C 0.75316 0.08501 1.07303
 H717 H 0.77389 0.06300 1.17601
 H718 H 0.84131 0.02990 1.13002
 H719 H 0.80602 0.12783 1.03363
 H720 H 0.72471 0.09837 1.04133
 H721 H 0.82330 0.05152 1.08844
 H722 H 0.81955 0.10246 1.07538
 H723 H 0.75690 0.08560 1.13376
 H724 H 0.73829 0.07325 1.08413
 C725 C 0.28774 0.56056 0.60276
 C726 C 0.27193 0.54581 0.62163
 C727 C 0.28337 0.53541 0.64644
 C728 C 0.31077 0.53971 0.65282
 C729 C 0.32629 0.55504 0.63417
 C730 C 0.31494 0.56525 0.60944
 C731 C 0.27612 0.57172 0.57636
 C732 C 0.29108 0.57036 0.55194
 C733 C 0.28186 0.58381 0.52780
 C734 C 0.25767 0.59914 0.52764
 C735 C 0.24171 0.59885 0.55142
 C736 C 0.25089 0.58532 0.57563
 H737 H 0.27097 0.52351 0.66031
 H738 H 0.34726 0.55931 0.63877
 H739 H 0.29414 0.58278 0.50959
 H740 H 0.22245 0.60959 0.55170
 H741 H 0.32741 0.57717 0.59565
 H742 H 0.31026 0.55935 0.55171
 H743 H 0.25090 0.54188 0.61695
 H744 H 0.23881 0.58653 0.59408
 C745 C 0.21633 0.55659 0.39441
 C746 C 0.19425 0.53905 0.39665
 C747 C 0.18252 0.52803 0.37303
 C748 C 0.19271 0.53419 0.34669
 C749 C 0.21573 0.55046 0.34453
 C750 C 0.22736 0.56167 0.36818
 C751 C 0.22613 0.57136 0.41898
 C752 C 0.23093 0.59960 0.41693
 C753 C 0.23777 0.61424 0.44040
 C754 C 0.24009 0.60094 0.46628
 C755 C 0.23595 0.57269 0.46845
 C756 C 0.22889 0.55799 0.44495
 H757 H 0.16496 0.51528 0.37526
 H758 H 0.22391 0.55557 0.32446
 H759 H 0.24088 0.63610 0.43841
 H760 H 0.23771 0.56207 0.48828
 H761 H 0.24457 0.57490 0.36592
 H762 H 0.22850 0.61054 0.39733
 H763 H 0.18519 0.53493 0.41653
 H764 H 0.22542 0.53622 0.44708
 C765 C 0.71844 0.06203 0.90552
 C766 C 0.69692 0.04417 0.90936
 C767 C 0.68569 0.03056 0.88695
 C768 C 0.69581 0.03422 0.85994
 C769 C 0.71858 0.05098 0.85664
 C770 C 0.72949 0.06494 0.87908
 C771 C 0.72814 0.07881 0.92871
 C772 C 0.73137 0.10713 0.92479
 C773 C 0.73886 0.12340 0.94693
 C774 C 0.74348 0.11164 0.97329
 C775 C 0.74084 0.08331 0.97723
 C776 C 0.73296 0.06702 0.95513
 H777 H 0.66918 0.01691 0.89111
 H778 H 0.72704 0.05501 0.83649
 H779 H 0.74096 0.14525 0.94349
 H780 H 0.74470 0.07372 0.99728
 H781 H 0.74628 0.07849 0.87565
 H782 H 0.72745 0.11678 0.90473
 H783 H 0.68812 0.04144 0.92959
 H784 H 0.73076 0.04520 0.95862
 C785 C 0.70664 0.92628 0.60692
 C786 C 0.72458 0.93248 0.62869
 C787 C 0.71508 0.94457 0.65275
 C788 C 0.68748 0.95093 0.65544
 C789 C 0.66962 0.94507 0.63357
 C790 C 0.67907 0.93284 0.60964
 C791 C 0.71639 0.91207 0.58194
 C792 C 0.70518 0.91837 0.55558
 C793 C 0.71342 0.90388 0.53241
 C794 C 0.73325 0.88317 0.53511
 C795 C 0.74459 0.87693 0.56126
 C796 C 0.73628 0.89124 0.58444
 H797 H 0.72932 0.94912 0.66917
 H798 H 0.64816 0.94929 0.63527
 H799 H 0.70420 0.90874 0.51241
 H800 H 0.75942 0.86056 0.56408
 H801 H 0.66460 0.92784 0.59358
 H802 H 0.69000 0.93446 0.55285
 H803 H 0.74601 0.92807 0.62710
 H804 H 0.74489 0.88541 0.60446
 C805 C 0.19994 0.41664 0.10100
 C806 C 0.17219 0.42314 0.10220
 C807 C 0.16173 0.43691 0.12483
 C808 C 0.17870 0.44421 0.14691
 C809 C 0.20636 0.43765 0.14589
 C810 C 0.21691 0.42419 0.12310
 C811 C 0.21110 0.40183 0.07698
 C812 C 0.23218 0.38239 0.08086
 C813 C 0.24293 0.36867 0.05838
 C814 C 0.23280 0.37401 0.03156
 C815 C 0.21129 0.39273 0.02758
 C816 C 0.20071 0.40677 0.05002
 H817 H 0.14024 0.44143 0.12531
 H818 H 0.21989 0.44333 0.16254
 H819 H 0.25894 0.35367 0.06217
 H820 H 0.20288 0.39672 0.00705
 H821 H 0.23845 0.42000 0.12267
 H822 H 0.24016 0.37744 0.10135
 H823 H 0.15842 0.41719 0.08589
 H824 H 0.18464 0.42172 0.04617
 C825 C -0.09947 0.28718 0.44402
 C826 C -0.09947 0.31262 0.45693
 C827 C -0.12274 0.32242 0.46975
 C828 C -0.14640 0.30677 0.47034
 C829 C -0.14577 0.28063 0.45857
 C830 C -0.12265 0.27108 0.44531
 C831 C -0.07618 0.27847 0.42731
 C832 C -0.08039 0.27106 0.39972
 C833 C -0.05852 0.26424 0.38320
 C834 C -0.03212 0.26417 0.39408
 C835 C -0.02780 0.27111 0.42178
 C836 C -0.04970 0.27855 0.43823
 H837 H -0.12247 0.34280 0.47811
 H838 H -0.16329 0.26767 0.45918
 H839 H -0.06226 0.25908 0.36181
 H840 H -0.00761 0.27112 0.43063
 H841 H -0.12297 0.25125 0.43569
 H842 H -0.10058 0.27121 0.39076
 H843 H -0.08188 0.32548 0.45591
 H844 H -0.04604 0.28421 0.45948
 C845 C 0.40593 0.78120 0.93352
 C846 C 0.40811 0.80496 0.94920
 C847 C 0.38500 0.81770 0.95958
 C848 C 0.35931 0.80676 0.95474
 C849 C 0.35727 0.78229 0.94016
 C850 C 0.38035 0.76971 0.92951
 C851 C 0.42992 0.76970 0.91959
 C852 C 0.42816 0.76310 0.89150
 C853 C 0.45095 0.75386 0.87763
 C854 C 0.47585 0.75083 0.89158
 C855 C 0.47770 0.75681 0.91976
 C856 C 0.45490 0.76644 0.93364
 H857 H 0.38713 0.83641 0.97100
 H858 H 0.33770 0.77351 0.93602
 H859 H 0.44917 0.74931 0.85584
 H860 H 0.49669 0.75438 0.93096
 H861 H 0.37818 0.75127 0.91767
 H862 H 0.40929 0.76579 0.88007
 H863 H 0.42756 0.81432 0.95243
 H864 H 0.45672 0.77128 0.95534
 C865 C 1.11368 0.79470 0.06389
 C866 C 1.11803 0.78931 0.03585
 C867 C 1.14182 0.79768 0.02308
 C868 C 1.16179 0.81144 0.03814
 C869 C 1.15776 0.81594 0.06641
 C870 C 1.13403 0.80766 0.07911
 C871 C 1.08771 0.78789 0.07719
 C872 C 1.07557 0.80661 0.09508
 C873 C 1.05193 0.80003 0.10887
 C874 C 1.03973 0.77469 0.10490
 C875 C 1.05141 0.75608 0.08668
 C876 C 1.07516 0.76268 0.07276
 H877 H 1.14446 0.79367 0.00133
 H878 H 1.17255 0.82675 0.07856
 H879 H 1.04374 0.81462 0.12317
 H880 H 1.04254 0.73621 0.08375
 H881 H 1.13146 0.81170 0.10086
 H882 H 1.08451 0.82634 0.09861
 H883 H 1.10268 0.77940 0.02360
 H884 H 1.08417 0.74777 0.05926
 C885 C 0.60427 0.28222 0.57019
 C886 C 0.60521 0.30988 0.56186
 C887 C 0.62795 0.32022 0.54894
 C888 C 0.65037 0.30313 0.54376
 C889 C 0.64927 0.27524 0.55148
 C890 C 0.62636 0.26484 0.56450
 C891 C 0.58069 0.27222 0.58584
 C892 C 0.56891 0.24688 0.58020
 C893 C 0.54596 0.23846 0.59455
 C894 C 0.53447 0.25534 0.61451
 C895 C 0.54682 0.28008 0.62082
 C896 C 0.56959 0.28848 0.60658
 H897 H 0.62823 0.34188 0.54373
 H898 H 0.66615 0.26152 0.54760
 H899 H 0.53706 0.21895 0.58990
 H900 H 0.53916 0.29297 0.63695
 H901 H 0.62622 0.24344 0.57081
 H902 H 0.57711 0.23388 0.56438
 H903 H 0.58837 0.32370 0.56563
 H904 H 0.57869 0.30770 0.61200
 C905 C 0.40519 0.20806 0.56660
 C906 C 0.39225 0.18433 0.57600
 C907 C 0.36914 0.17515 0.56258
 C908 C 0.35839 0.18932 0.53924
 C909 C 0.37134 0.21302 0.52963
 C910 C 0.39464 0.22225 0.54313
 C911 C 0.42909 0.21806 0.58199
 C912 C 0.45207 0.22756 0.56817
 C913 C 0.47492 0.23562 0.58324
 C914 C 0.47495 0.23424 0.61223
 C915 C 0.45187 0.22543 0.62596
 C916 C 0.42919 0.21743 0.61105
 H917 H 0.35944 0.15706 0.57077
 H918 H 0.36359 0.22424 0.51158
 H919 H 0.49240 0.24286 0.57229
 H920 H 0.45140 0.22464 0.64836
 H921 H 0.40412 0.24071 0.53556
 H922 H 0.45254 0.22822 0.54578
 H923 H 0.40006 0.17277 0.59381
 H924 H 0.41162 0.21079 0.62230
 C925 C 0.90802 0.72240 0.06957
 C926 C 0.89712 0.73067 0.04366
 C927 C 0.87405 0.71805 0.03300
 C928 C 0.86168 0.69680 0.04800
 C929 C 0.87272 0.68861 0.07383
 C930 C 0.89561 0.70112 0.08440
 C931 C 0.93205 0.73575 0.08172
 C932 C 0.93283 0.74093 0.11017
 C933 C 0.95622 0.75047 0.12268
 C934 C 0.97928 0.75542 0.10705
 C935 C 0.97838 0.75173 0.07838
 C936 C 0.95484 0.74187 0.06574
 H937 H 0.86610 0.72465 0.01293
 H938 H 0.86350 0.67259 0.08609
 H939 H 0.95647 0.75335 0.14484
 H940 H 0.99597 0.75560 0.06596
 H941 H 0.90374 0.69395 0.10421
 H942 H 0.91544 0.73706 0.12293
 H943 H 0.90620 0.74709 0.03184
 H944 H 0.95482 0.73804 0.04376
 C945 C 0.60886 0.71064 0.93969
 C946 C 0.61052 0.68661 0.95608
 C947 C 0.63487 0.67844 0.96883
 C948 C 0.65822 0.69411 0.96554
 C949 C 0.65646 0.71854 0.94966
 C950 C 0.63195 0.72681 0.93695
 C951 C 0.58350 0.71769 0.92424
 C952 C 0.57313 0.74467 0.92292
 C953 C 0.54930 0.75087 0.90791
 C954 C 0.53564 0.73024 0.89392
 C955 C 0.54610 0.70339 0.89508
 C956 C 0.56967 0.69715 0.91020
 H957 H 0.63559 0.65931 0.98057
 H958 H 0.67407 0.73112 0.94691
 H959 H 0.54176 0.77182 0.90687
 H960 H 0.53651 0.68715 0.88395
 H961 H 0.63125 0.74535 0.92426
 H962 H 0.58339 0.76089 0.93358
 H963 H 0.59300 0.67388 0.95875
 H964 H 0.57747 0.67629 0.91036
 C965 C 0.10302 0.22410 0.43204
 C966 C 0.10473 0.19922 0.44707
 C967 C 0.12919 0.19016 0.45892
 C968 C 0.15264 0.20577 0.45619
 C969 C 0.15086 0.23105 0.44173
 C970 C 0.12621 0.24021 0.42988
 C971 C 0.07741 0.23209 0.41747
 C972 C 0.06699 0.25904 0.41803
 C973 C 0.04246 0.26586 0.40449
 C974 C 0.02813 0.24589 0.39018
 C975 C 0.03887 0.21920 0.38916
 C976 C 0.06313 0.21235 0.40275
 H977 H 0.12987 0.17039 0.46949
 H978 H 0.16855 0.24360 0.43942
 H979 H 0.03476 0.28673 0.40505
 H980 H 0.02883 0.20348 0.37769
 H981 H 0.12547 0.25942 0.41828
 H982 H 0.07761 0.27467 0.42919
 H983 H 0.08714 0.18652 0.44931
 H984 H 0.07097 0.19158 0.40141
 C985 C 0.54422 0.14470 0.70401
 C986 C 0.53092 0.11943 0.70366
 C987 C 0.54316 0.09578 0.71526
 C988 C 0.56878 0.09686 0.72812
 C989 C 0.58116 0.12249 0.73020
 C990 C 0.56926 0.14596 0.71800
 C991 C 0.53296 0.16909 0.68837
 C992 C 0.53831 0.19595 0.69687
 C993 C 0.52961 0.21862 0.68075
 C994 C 0.51449 0.21495 0.65646
 C995 C 0.50884 0.18837 0.64802
 C996 C 0.51809 0.16571 0.66367
 H997 H 0.53294 0.07651 0.71312
 H998 H 0.60047 0.12442 0.74070
 H999 H 0.53480 0.23899 0.68720
 H1000 H 0.49797 0.18497 0.62885
 H1001 H 0.58036 0.16484 0.71867
 H1002 H 0.54939 0.19956 0.71586
 H1003 H 0.51125 0.11768 0.69386
 H1004 H 0.51429 0.14554 0.65579
 C1005 C 1.05029 0.66022 0.18953
 C1006 C 1.07714 0.65829 0.19936
 C1007 C 1.08773 0.63351 0.21007
 C1008 C 1.07204 0.60972 0.21060
 C1009 C 1.04491 0.61189 0.20166
 C1010 C 1.03411 0.63684 0.19162
 C1011 C 1.03970 0.68589 0.17566
 C1012 C 1.02084 0.68447 0.15370
 C1013 C 1.01162 0.70813 0.13975
 C1014 C 1.02123 0.73385 0.14708
 C1015 C 1.04038 0.73555 0.16856
 C1016 C 1.04919 0.71186 0.18307
 H1017 H 1.10845 0.63303 0.21756
 H1018 H 1.03211 0.59415 0.20153
 H1019 H 0.99758 0.70602 0.12261
 H1020 H 1.04858 0.75516 0.17405
 H1021 H 1.01311 0.63760 0.18505
 H1022 H 1.01374 0.66497 0.14657
 H1023 H 1.09041 0.67563 0.19800
 H1024 H 1.06351 0.71395 0.19998
 C1025 C 0.96277 0.86105 0.19016
 C1026 C 0.93739 0.87068 0.18053
 C1027 C 0.92419 0.89209 0.19367
 C1028 C 0.93613 0.90449 0.21665
 C1029 C 0.96156 0.89494 0.22636
 C1030 C 0.97469 0.87318 0.21335
 C1031 C 0.97660 0.83861 0.17558
 C1032 C 0.98737 0.81564 0.19016
 C1033 C 0.99824 0.79347 0.17584
 C1034 C 0.99890 0.79432 0.14685
 C1035 C 0.98871 0.81748 0.13239
 C1036 C 0.97769 0.83943 0.14658
 H1037 H 0.90474 0.89925 0.18559
 H1038 H 0.97110 0.90413 0.24412
 H1039 H 1.00534 0.77554 0.18742
 H1040 H 0.98884 0.81839 0.10998
 H1041 H 0.99431 0.86612 0.22106
 H1042 H 0.98642 0.81443 0.21252
 H1043 H 0.92768 0.86150 0.16285
 H1044 H 0.96970 0.85699 0.13488
 C1045 C 0.45320 0.34487 0.68932
 C1046 C 0.46118 0.35403 0.71552
 C1047 C 0.44882 0.37721 0.72672
 C1048 C 0.42819 0.39156 0.71195
 C1049 C 0.42028 0.38232 0.68578
 C1050 C 0.43252 0.35921 0.67468
 C1051 C 0.46649 0.32072 0.67686
 C1052 C 0.47204 0.32100 0.64845
 C1053 C 0.48341 0.29808 0.63620
 C1054 C 0.49004 0.27459 0.65212
 C1055 C 0.48461 0.27404 0.68049
 C1056 C 0.47302 0.29704 0.69283
 H1057 H 0.45517 0.38370 0.74705
 H1058 H 0.40471 0.39311 0.67371
 H1059 H 0.48715 0.29874 0.61417
 H1060 H 0.48868 0.25580 0.69300
 H1061 H 0.42563 0.35247 0.65462
 H1062 H 0.46761 0.33900 0.63563
 H1063 H 0.47721 0.34351 0.72718
 H1064 H 0.46851 0.29606 0.71467
 C1065 C 0.46445 0.63421 0.81755
 C1066 C 0.46837 0.60867 0.83110
 C1067 C 0.45625 0.58525 0.82089
 C1068 C 0.44006 0.58682 0.79680
 C1069 C 0.43701 0.61213 0.78262
 C1070 C 0.44906 0.63560 0.79290
 C1071 C 0.47502 0.65948 0.83005
 C1072 C 0.48591 0.68059 0.81359
 C1073 C 0.49522 0.70454 0.82571
 C1074 C 0.49383 0.70761 0.85439
 C1075 C 0.48278 0.68677 0.87077
 C1076 C 0.47351 0.66294 0.85876
 H1077 H 0.45933 0.56593 0.83197
 H1078 H 0.42439 0.61401 0.76416
 H1079 H 0.50345 0.72054 0.81269
 H1080 H 0.48127 0.68896 0.89295
 H1081 H 0.44542 0.65501 0.78216
 H1082 H 0.48740 0.67847 0.79141
 H1083 H 0.48059 0.60684 0.84983
 H1084 H 0.46467 0.64741 0.87195
 C1085 C -0.04144 0.15110 0.31275
 C1086 C -0.03591 0.12558 0.32579
 C1087 C -0.04724 0.10179 0.31565
 C1088 C -0.06404 0.10290 0.29204
 C1089 C -0.06823 0.12805 0.27788
 C1090 C -0.05708 0.15201 0.28821
 C1091 C -0.03247 0.17664 0.32600
 C1092 C -0.02298 0.19897 0.31027
 C1093 C -0.01455 0.22280 0.32332
 C1094 C -0.01542 0.22448 0.35220
 C1095 C -0.02535 0.20250 0.36780
 C1096 C -0.03382 0.17887 0.35488
 H1097 H -0.04340 0.08254 0.32665
 H1098 H -0.08125 0.12937 0.25968
 H1099 H -0.00717 0.23967 0.31089
 H1100 H -0.02642 0.20356 0.39012
 H1101 H -0.06179 0.17137 0.27778
 H1102 H -0.02171 0.19785 0.28798
 H1103 H -0.02334 0.12409 0.34429
 H1104 H -0.04170 0.16239 0.36756
 C1105 C 0.02944 0.35772 0.30595
 C1106 C 0.03056 0.38137 0.32198
 C1107 C 0.04274 0.40498 0.31179
 C1108 C 0.05396 0.40555 0.28529
 C1109 C 0.05188 0.38233 0.26875
 C1110 C 0.03986 0.35854 0.27906
 C1111 C 0.01902 0.33196 0.31821
 C1112 C 0.03329 0.30705 0.31531
 C1113 C 0.02555 0.28358 0.33005
 C1114 C 0.00339 0.28465 0.34771
 C1115 C -0.01161 0.30912 0.34966
 C1116 C -0.00390 0.33255 0.33500
 H1117 H 0.04394 0.42267 0.32488
 H1118 H 0.06056 0.38220 0.24831
 H1119 H 0.03750 0.26490 0.32850
 H1120 H -0.02877 0.31056 0.36318
 H1121 H 0.03910 0.34066 0.26621
 H1122 H 0.05122 0.30605 0.30278
 H1123 H 0.02300 0.38128 0.34289
 H1124 H -0.01546 0.35137 0.33736
 C1125 C 0.55042 0.83574 0.80537
 C1126 C 0.53497 0.85729 0.79307
 C1127 C 0.54721 0.88167 0.78475
 C1128 C 0.57514 0.88502 0.78867
 C1129 C 0.59072 0.86304 0.79987
 C1130 C 0.57851 0.83871 0.80814
 C1131 C 0.53723 0.81130 0.81758
 C1132 C 0.54952 0.78514 0.81645
 C1133 C 0.53898 0.76301 0.83136
 C1134 C 0.51598 0.76664 0.84750
 C1135 C 0.50298 0.79236 0.84768
 C1136 C 0.51344 0.81446 0.83281
 H1137 H 0.53469 0.89825 0.77621
 H1138 H 0.61236 0.86482 0.80267
 H1139 H 0.54941 0.74334 0.83115
 H1140 H 0.48543 0.79590 0.86025
 H1141 H 0.59098 0.82267 0.81779
 H1142 H 0.56771 0.78199 0.80467
 H1143 H 0.51331 0.85549 0.79039
 H1144 H 0.50372 0.83437 0.83451
 C1145 C 0.69786 0.54976 0.15830
 C1146 C 0.70038 0.57824 0.15636
 C1147 C 0.71250 0.59060 0.13355
 C1148 C 0.72266 0.57494 0.11142
 C1149 C 0.72041 0.54605 0.11405
 C1150 C 0.70822 0.53379 0.13702
 C1151 C 0.68311 0.53715 0.18177
 C1152 C 0.66477 0.51598 0.17717
 C1153 C 0.64851 0.50636 0.19855
 C1154 C 0.65031 0.51766 0.22494
 C1155 C 0.66935 0.53798 0.22990
 C1156 C 0.68566 0.54758 0.20857
 H1157 H 0.71190 0.61270 0.13298
 H1158 H 0.72878 0.53231 0.09908
 H1159 H 0.63382 0.49087 0.19402
 H1160 H 0.67087 0.54721 0.25003
 H1161 H 0.70707 0.51167 0.13820
 H1162 H 0.66205 0.50775 0.15671
 H1163 H 0.69191 0.59124 0.17204
 H1164 H 0.69983 0.56365 0.21290
 C1165 C 0.18681 1.05203 0.63830
 C1166 C 0.20532 1.03683 0.62270
 C1167 C 0.21817 1.04898 0.60002
 C1168 C 0.21299 1.07663 0.59281
 C1169 C 0.19472 1.09180 0.60867
 C1170 C 0.18180 1.07966 0.63110
 C1171 C 0.17206 1.03921 0.66157
 C1172 C 0.14425 1.04441 0.66433
 C1173 C 0.13017 1.03300 0.68639
 C1174 C 0.14358 1.01642 0.70639
 C1175 C 0.17130 1.01076 0.70352
 C1176 C 0.18544 1.02205 0.68126
 H1177 H 0.23225 1.03685 0.58824
 H1178 H 0.19001 1.11303 0.60342
 H1179 H 0.10872 1.03704 0.68753
 H1180 H 0.18201 0.99742 0.71821
 H1181 H 0.16783 1.09195 0.64288
 H1182 H 0.13327 1.05706 0.64916
 H1183 H 0.20940 1.01543 0.62771
 H1184 H 0.20688 1.01768 0.67961
 C1185 C 0.19289 0.95004 0.83108
 C1186 C 0.19975 0.96666 0.85332
 C1187 C 0.21167 0.95539 0.87748
 C1188 C 0.21696 0.92679 0.88063
 C1189 C 0.21056 0.91054 0.85744
 C1190 C 0.19899 0.92198 0.83327
 C1191 C 0.17806 0.96157 0.80635
 C1192 C 0.15756 0.94646 0.79362
 C1193 C 0.14229 0.95770 0.77159
 C1194 C 0.14678 0.98450 0.76203
 C1195 C 0.16787 0.99932 0.77391
 C1196 C 0.18337 0.98801 0.79588
 H1197 H 0.21707 0.96982 0.89313
 H1198 H 0.21279 0.88855 0.85769
 H1199 H 0.12655 0.94548 0.76270
 H1200 H 0.17192 1.01994 0.76661
 H1201 H 0.19437 0.90855 0.81636
 H1202 H 0.15263 0.92619 0.80125
 H1203 H 0.19534 0.98845 0.85238
 H1204 H 0.19933 1.00004 0.80480
 C1205 C 0.68063 0.46026 0.35809
 C1206 C 0.70272 0.47196 0.37182
 C1207 C 0.71495 0.45854 0.39476
 C1208 C 0.70553 0.43304 0.40409
 C1209 C 0.68338 0.42148 0.39038
 C1210 C 0.67108 0.43493 0.36769
 C1211 C 0.66765 0.47398 0.33353
 C1212 C 0.63938 0.47436 0.33039
 C1213 C 0.62711 0.48528 0.30636
 C1214 C 0.64274 0.49628 0.28504
 C1215 C 0.67099 0.49612 0.28816
 C1216 C 0.68333 0.48528 0.31231
 H1217 H 0.73205 0.46784 0.40491
 H1218 H 0.67545 0.40203 0.39733
 H1219 H 0.60541 0.48416 0.30416
 H1220 H 0.68370 0.50356 0.27179
 H1221 H 0.65431 0.42525 0.35735
 H1222 H 0.62675 0.46584 0.34640
 H1223 H 0.71037 0.49155 0.36493
 H1224 H 0.70519 0.48479 0.31394
 C1225 C 0.80048 0.45775 0.65597
 C1226 C 0.79732 0.42916 0.65564
 C1227 C 0.78669 0.41656 0.63228
 C1228 C 0.77935 0.43216 0.60857
 C1229 C 0.78196 0.46070 0.60893
 C1230 C 0.79214 0.47340 0.63247
 C1231 C 0.81393 0.47088 0.67999
 C1232 C 0.83108 0.49322 0.67570
 C1233 C 0.84545 0.50427 0.69774
 C1234 C 0.84322 0.49314 0.72454
 C1235 C 0.82592 0.47117 0.72912
 C1236 C 0.81115 0.46032 0.70713
 H1237 H 0.78515 0.39446 0.63237
 H1238 H 0.77614 0.47317 0.59097
 H1239 H 0.85912 0.52081 0.69345
 H1240 H 0.82426 0.46202 0.74961
 H1241 H 0.79367 0.49548 0.63213
 H1242 H 0.83433 0.50153 0.65513
 H1243 H 0.80397 0.41632 0.67301
 H1244 H 0.79788 0.44340 0.71135
 C1245 C 0.30752 -0.03103 0.13404
 C1246 C 0.28368 -0.04630 0.13444
 C1247 C 0.27391 -0.05826 0.11026
 C1248 C 0.28790 -0.05524 0.08532
 C1249 C 0.31083 -0.03872 0.08463
 C1250 C 0.32046 -0.02667 0.10867
 C1251 C 0.32012 -0.02136 0.16008
 C1252 C 0.34829 -0.02367 0.16394
 C1253 C 0.36053 -0.01493 0.18826
 C1254 C 0.34496 -0.00365 0.20925
 C1255 C 0.31681 -0.00161 0.20587
 C1256 C 0.30444 -0.01041 0.18141
 H1257 H 0.25628 -0.07105 0.11136
 H1258 H 0.32171 -0.03570 0.06556
 H1259 H 0.38228 -0.01693 0.19065
 H1260 H 0.30441 0.00678 0.22198
 H1261 H 0.33847 -0.01444 0.10753
 H1262 H 0.36089 -0.03262 0.14827
 H1263 H 0.27334 -0.05014 0.15368
 H1264 H 0.28271 -0.00838 0.17904
 C1265 C 0.29607 0.05805 0.33398
 C1266 C 0.29927 0.08633 0.33724
 C1267 C 0.29042 0.09905 0.36115
 C1268 C 0.27804 0.08382 0.38228
 C1269 C 0.27350 0.05584 0.37843
 C1270 C 0.28257 0.04303 0.35455
 C1271 C 0.30908 0.04405 0.31054
 C1272 C 0.32419 0.01977 0.31540
 C1273 C 0.33938 0.00828 0.29434
 C1274 C 0.33948 0.02060 0.26789
 C1275 C 0.32375 0.04432 0.26265
 C1276 C 0.30867 0.05599 0.28380
 H1277 H 0.29388 0.12073 0.36347
 H1278 H 0.26406 0.04363 0.39442
 H1279 H 0.35177 -0.00964 0.29924
 H1280 H 0.32378 0.05427 0.24243
 H1281 H 0.27963 0.02124 0.35246
 H1282 H 0.32535 0.01040 0.33589
 H1283 H 0.30980 0.09841 0.32190
 H1284 H 0.29714 0.07466 0.27943
 C1285 C 0.81049 0.54400 0.85868
 C1286 C 0.82428 0.53928 0.88399
 C1287 C 0.81471 0.55066 0.90825
 C1288 C 0.79102 0.56688 0.90784
 C1289 C 0.77623 0.57022 0.88293
 C1290 C 0.78591 0.55890 0.85851
 C1291 C 0.82291 0.53499 0.83253
 C1292 C 0.80738 0.52362 0.81116
 C1293 C 0.81975 0.51481 0.78691
 C1294 C 0.84775 0.51721 0.78382
 C1295 C 0.86304 0.52934 0.80470
 C1296 C 0.85081 0.53807 0.82880
 H1297 H 0.82623 0.54738 0.92729
 H1298 H 0.75797 0.58276 0.88207
 H1299 H 0.80747 0.50599 0.77082
 H1300 H 0.88462 0.53178 0.80249
 H1301 H 0.77490 0.56294 0.83930
 H1302 H 0.78582 0.52113 0.81342
 H1303 H 0.84290 0.52730 0.88491
 H1304 H 0.86323 0.54743 0.84450
 C1305 C 0.14641 0.68367 0.53428
 C1306 C 0.12184 0.66967 0.53222
 C1307 C 0.09839 0.68019 0.54412
 C1308 C 0.09904 0.70473 0.55866
 C1309 C 0.12337 0.71904 0.56033
 C1310 C 0.14675 0.70873 0.54812
 C1311 C 0.17173 0.67142 0.52327
 C1312 C 0.19646 0.67391 0.53769
 C1313 C 0.21970 0.66023 0.52882
 C1314 C 0.21862 0.64351 0.50563
 C1315 C 0.19432 0.64179 0.49058
 C1316 C 0.17115 0.65576 0.49918
 H1317 H 0.07994 0.66862 0.54281
 H1318 H 0.12428 0.73822 0.57114
 H1319 H 0.23821 0.66161 0.54089
 H1320 H 0.19284 0.62906 0.47260
 H1321 H 0.16514 0.72034 0.54966
 H1322 H 0.19767 0.68543 0.55655
 H1323 H 0.12086 0.65007 0.52223
 H1324 H 0.15265 0.65386 0.48720
 C1325 C 0.65567 0.19492 1.04795
 C1326 C 0.65143 0.18958 1.07617
 C1327 C 0.62787 0.19885 1.08878
 C1328 C 0.60809 0.21405 1.07358
 C1329 C 0.61254 0.21961 1.04533
 C1330 C 0.63599 0.20996 1.03261
 C1331 C 0.68005 0.18362 1.03452
 C1332 C 0.67760 0.16898 1.00993
 C1333 C 0.70004 0.15534 0.99912
 C1334 C 0.72532 0.15653 1.01247
 C1335 C 0.72813 0.17231 1.03619
 C1336 C 0.70564 0.18562 1.04725
 H1337 H 0.62496 0.19356 1.11037
 H1338 H 0.59804 0.23163 1.03304
 H1339 H 0.69725 0.14306 0.98097
 H1340 H 0.74747 0.17333 1.04686
 H1341 H 0.63887 0.21443 1.01083
 H1342 H 0.65807 0.16693 0.99985
 H1343 H 0.66605 0.17756 1.08834
 H1344 H 0.70808 0.19696 1.06611
 C1345 C 0.85211 0.19428 0.95589
 C1346 C 0.87782 0.18869 0.96725
 C1347 C 0.90083 0.19943 0.95497
 C1348 C 0.89893 0.21555 0.93025
 C1349 C 0.87255 0.22173 0.91969
 C1350 C 0.84958 0.21143 0.93247
 C1351 C 0.82824 0.18049 0.96722
 C1352 C 0.80527 0.19551 0.97523
 C1353 C 0.78285 0.18195 0.98593
 C1354 C 0.78311 0.15328 0.98827
 C1355 C 0.80570 0.13834 0.97945
 C1356 C 0.82823 0.15182 0.96940
 H1357 H 0.92004 0.19299 0.96404
 H1358 H 0.86912 0.23525 0.90197
 H1359 H 0.76540 0.19380 0.99223
 H1360 H 0.80603 0.11616 0.98067
 H1361 H 0.82982 0.21617 0.92351
 H1362 H 0.80486 0.21766 0.97349
 H1363 H 0.88015 0.17540 0.98538
 H1364 H 0.84556 0.13986 0.96291
 C1365 C 0.34815 0.68626 0.46139
 C1366 C 0.34511 0.71068 0.44574
 C1367 C 0.36764 0.72313 0.43415
 C1368 C 0.39363 0.71153 0.43823
 C1369 C 0.39676 0.68780 0.45494
 C1370 C 0.37423 0.67524 0.46632
 C1371 C 0.32414 0.67116 0.47079
 C1372 C 0.32269 0.64290 0.46650
 C1373 C 0.29991 0.62847 0.47435
 C1374 C 0.27830 0.64182 0.48715
 C1375 C 0.27943 0.67015 0.49114
 C1376 C 0.30221 0.68475 0.48299
 H1377 H 0.36472 0.74158 0.42157
 H1378 H 0.41651 0.67831 0.45828
 H1379 H 0.29902 0.60692 0.46976
 H1380 H 0.26280 0.68110 0.50036
 H1381 H 0.37711 0.65655 0.47853
 H1382 H 0.33893 0.63205 0.45637
 H1383 H 0.32522 0.71950 0.44151
 H1384 H 0.30277 0.70659 0.48634
 C1385 C 0.63662 0.80996 0.46782
 C1386 C 0.61616 0.82783 0.45750
 C1387 C 0.59231 0.81762 0.44640
 C1388 C 0.58827 0.78926 0.44536
 C1389 C 0.60828 0.77135 0.45673
 C1390 C 0.63221 0.78163 0.46797
 C1391 C 0.66303 0.82109 0.47651
 C1392 C 0.67620 0.81222 0.50116
 C1393 C 0.70057 0.82408 0.50944
 C1394 C 0.71225 0.84449 0.49290
 C1395 C 0.69926 0.85297 0.46816
 C1396 C 0.67502 0.84133 0.46000
 H1397 H 0.57749 0.83198 0.43759
 H1398 H 0.60560 0.74940 0.45651
 H1399 H 0.71004 0.81768 0.52890
 H1400 H 0.70729 0.86914 0.45527
 H1401 H 0.64769 0.76743 0.47578
 H1402 H 0.66726 0.79674 0.51434
 H1403 H 0.61889 0.84980 0.45747
 H1404 H 0.66551 0.84834 0.44076
 C1405 C 0.15244 0.29009 -0.04655
 C1406 C 0.13071 0.28236 -0.02979
 C1407 C 0.10671 0.27292 -0.04176
 C1408 C 0.10407 0.27135 -0.07063
 C1409 C 0.12624 0.27750 -0.08720
 C1410 C 0.15024 0.28648 -0.07529
 C1411 C 0.17615 0.30447 -0.03484
 C1412 C 0.18674 0.32687 -0.04952
 C1413 C 0.20822 0.34145 -0.03873
 C1414 C 0.21983 0.33407 -0.01299
 C1415 C 0.20927 0.31194 0.00205
 C1416 C 0.18761 0.29714 -0.00883
 H1417 H 0.08974 0.26830 -0.02866
 H1418 H 0.12467 0.27609 -0.10950
 H1419 H 0.21507 0.35904 -0.05042
 H1420 H 0.21759 0.30629 0.02224
 H1421 H 0.16683 0.29153 -0.08874
 H1422 H 0.17787 0.33375 -0.06910
 H1423 H 0.13168 0.28503 -0.00762
 H1424 H 0.17984 0.28005 0.00305
 C1425 C 0.35491 0.29989 0.03731
 C1426 C 0.35625 0.27618 0.05430
 C1427 C 0.38103 0.26702 0.06580
 C1428 C 0.40481 0.28147 0.06056
 C1429 C 0.40366 0.30413 0.04223
 C1430 C 0.37903 0.31316 0.03065
 C1431 C 0.32848 0.31235 0.02854
 C1432 C 0.32464 0.34085 0.03005
 C1433 C 0.30006 0.35310 0.02219
 C1434 C 0.27864 0.33722 0.01281
 C1435 C 0.28212 0.30875 0.01124
 C1436 C 0.30690 0.29633 0.01923
 H1437 H 0.38135 0.24956 0.07999
 H1438 H 0.42177 0.31533 0.03745
 H1439 H 0.29775 0.37514 0.02348
 H1440 H 0.26592 0.29619 0.00368
 H1441 H 0.37873 0.33109 0.01709
 H1442 H 0.34061 0.35372 0.03766
 H1443 H 0.33800 0.26561 0.05988
 H1444 H 0.30934 0.27434 0.01775
 C1445 C 0.84707 0.79664 0.53172
 C1446 C 0.84797 0.77427 0.55046
 C1447 C 0.87286 0.76366 0.56029
 C1448 C 0.89717 0.77531 0.55151
 C1449 C 0.89620 0.79629 0.53123
 C1450 C 0.87143 0.80679 0.52140
 C1451 C 0.82130 0.81151 0.52527
 C1452 C 0.82061 0.84021 0.52630
 C1453 C 0.79678 0.85483 0.52059
 C1454 C 0.77304 0.84117 0.51376
 C1455 C 0.77335 0.81250 0.51278
 C1456 C 0.79737 0.79768 0.51875
 H1457 H 0.87307 0.74754 0.57601
 H1458 H 0.91464 0.80528 0.52376
 H1459 H 0.79694 0.87699 0.52140
 H1460 H 0.75527 0.80163 0.50720
 H1461 H 0.87130 0.82365 0.50648
 H1462 H 0.83854 0.85142 0.53183
 H1463 H 0.82950 0.76614 0.55881
 H1464 H 0.79740 0.77554 0.51782
   
